# generated using pymatgen
data_Nb5Ga13
_symmetry_space_group_name_H-M   'P 1'
_cell_length_a   3.75750973
_cell_length_b   3.74555062
_cell_length_c   20.23220028
_cell_angle_alpha   90.00008578
_cell_angle_beta   95.30850753
_cell_angle_gamma   89.99951534
_symmetry_Int_Tables_number   1
_chemical_formula_structural   Nb5Ga13
_chemical_formula_sum   'Nb5 Ga13'
_cell_volume   283.52554446
_cell_formula_units_Z   1
loop_
 _symmetry_equiv_pos_site_id
 _symmetry_equiv_pos_as_xyz
  1  'x, y, z'
loop_
 _atom_site_type_symbol
 _atom_site_label
 _atom_site_symmetry_multiplicity
 _atom_site_fract_x
 _atom_site_fract_y
 _atom_site_fract_z
 _atom_site_occupancy
  Nb  Nb0  1  0.10792220  0.50000002  0.21607587  1
  Nb  Nb1  1  0.89204902  0.49999998  0.78393242  1
  Nb  Nb2  1  0.28459741  0.99999972  0.56773991  1
  Nb  Nb3  1  0.71534772  0.00000016  0.43222818  1
  Nb  Nb4  1  0.50005148  -0.00000002  1.00004179  1
  Ga  Ga0  1  0.44530390  0.49999973  0.89052314  1
  Ga  Ga1  1  0.55471946  0.50000029  0.10948451  1
  Ga  Ga2  1  0.33627717  0.50000013  0.67159672  1
  Ga  Ga3  1  0.66370368  0.49999993  0.32840576  1
  Ga  Ga4  1  0.22780256  0.49999983  0.45656571  1
  Ga  Ga5  1  1.00003767  0.50000001  0.99997212  1
  Ga  Ga6  1  0.94532108  1.00000017  0.89090810  1
  Ga  Ga7  1  0.05468923  -0.00000017  0.10909763  1
  Ga  Ga8  1  0.83575149  0.00000000  0.67073617  1
  Ga  Ga9  1  0.16423271  1.00000006  0.32926319  1
  Ga  Ga10  1  0.61174579  1.00000000  0.22298506  1
  Ga  Ga11  1  0.38826740  0.99999999  0.77703162  1
  Ga  Ga12  1  0.77218002  0.50000017  0.54341109  1
loop_
_geom_bond_atom_site_label_1
_geom_bond_atom_site_label_2
_geom_bond_distance
_geom_bond_site_symmetry_2
Ga0 Ga6 2.652270 1_545
Ga0 Ga6 2.652295 1_555
Ga0 Ga6 2.653202 1_455
Ga0 Ga6 2.653222 1_445
Ga0 Nb1 2.852804 1_555
Ga0 Nb1 2.853573 1_455
Ga0 Nb4 2.893967 1_565
Ga0 Nb4 2.893968 1_555
Ga0 Ga5 2.896259 1_455
Ga0 Ga5 2.897284 1_555
Ga0 Ga11 2.955437 1_545
Ga0 Ga11 2.955440 1_555
Ga1 Ga7 2.652302 1_565
Ga1 Ga7 2.652327 1_555
Ga1 Ga7 2.653170 1_655
Ga1 Ga7 2.653190 1_665
Ga1 Nb0 2.852943 1_555
Ga1 Nb0 2.853452 1_655
Ga1 Nb4 2.892801 1_554
Ga1 Nb4 2.892801 1_564
Ga1 Ga5 2.897435 1_554
Ga1 Ga5 2.898053 1_454
Ga1 Ga10 2.955578 1_555
Ga1 Ga10 2.955581 1_545
Ga2 Ga8 2.652523 1_555
Ga2 Ga8 2.652545 1_565
Ga2 Ga8 2.653039 1_465
Ga2 Ga8 2.653062 1_455
Ga2 Nb2 2.807980 1_555
Ga2 Nb2 2.807980 1_545
Ga2 Nb1 2.940823 1_555
Ga2 Nb1 2.941733 1_455
Ga3 Ga9 2.652510 1_555
Ga3 Ga9 2.652532 1_545
Ga3 Ga9 2.653052 1_645
Ga3 Ga9 2.653075 1_655
Ga3 Nb3 2.807464 1_565
Ga3 Nb3 2.807465 1_555
Ga3 Nb0 2.940763 1_555
Ga3 Nb0 2.941613 1_655
Ga4 Nb3 2.696786 1_555
Ga4 Nb3 2.696811 1_565
Ga4 Nb3 2.698520 1_465
Ga4 Nb3 2.698540 1_455
Ga4 Nb2 2.919477 1_555
Ga4 Nb2 2.919480 1_545
Ga5 Nb4 2.652669 1_655
Ga5 Nb4 2.652692 1_665
Ga5 Nb4 2.652780 1_565
Ga5 Nb4 2.652803 1_555
Ga5 Ga6 2.886990 1_545
Ga5 Ga6 2.886993 1_555
Ga5 Ga7 2.887932 1_666
Ga5 Ga7 2.887935 1_656
Ga6 Nb1 2.855103 1_555
Ga6 Nb1 2.855104 1_565
Ga6 Nb4 2.891052 1_565
Ga6 Nb4 2.892829 1_665
Ga7 Nb0 2.855142 1_555
Ga7 Nb0 2.855143 1_545
Ga7 Nb4 2.889991 1_554
Ga7 Nb4 2.891506 1_454
Ga8 Nb2 2.798706 1_545
Ga8 Nb2 2.799487 1_645
Ga8 Nb1 2.950838 1_555
Ga8 Nb1 2.950840 1_545
Ga9 Nb3 2.798180 1_565
Ga9 Nb3 2.799080 1_465
Ga9 Nb0 2.950699 1_555
Ga9 Nb0 2.950701 1_565
Ga10 Nb0 2.655359 1_655
Ga10 Nb0 2.655382 1_665
Ga10 Nb0 2.657388 1_565
Ga10 Nb0 2.657411 1_555
Ga10 Ga3 2.831533 1_565
Ga10 Ga3 2.831535 1_555
Ga10 Ga9 2.847320 1_655
Ga10 Ga9 2.849584 1_555
Ga10 Ga7 2.964631 1_665
Ga10 Ga7 2.966164 1_565
Ga11 Nb1 2.655451 1_465
Ga11 Nb1 2.655474 1_455
Ga11 Nb1 2.657279 1_555
Ga11 Nb1 2.657301 1_565
Ga11 Ga2 2.831747 1_555
Ga11 Ga2 2.831750 1_565
Ga11 Ga8 2.847633 1_465
Ga11 Ga8 2.849796 1_565
Ga11 Ga6 2.964454 1_455
Ga11 Ga6 2.966000 1_555
Ga12 Ga4 2.564154 1_655
Ga12 Ga4 2.570282 1_555
Ga12 Nb2 2.696841 1_555
Ga12 Nb2 2.696866 1_545
Ga12 Nb2 2.698402 1_645
Ga12 Nb2 2.698421 1_655
Ga12 Nb3 2.919612 1_555
Ga12 Nb3 2.919614 1_565
