# generated using pymatgen
data_Ti10(GaSb)3
_symmetry_space_group_name_H-M   'P 1'
_cell_length_a   7.81672018
_cell_length_b   7.81672018
_cell_length_c   5.31234819
_cell_angle_alpha   90.00000000
_cell_angle_beta   90.00000000
_cell_angle_gamma   120.00000053
_symmetry_Int_Tables_number   1
_chemical_formula_structural   Ti10(GaSb)3
_chemical_formula_sum   'Ti10 Ga3 Sb3'
_cell_volume   281.10352599
_cell_formula_units_Z   1
loop_
 _symmetry_equiv_pos_site_id
 _symmetry_equiv_pos_as_xyz
  1  'x, y, z'
loop_
 _atom_site_type_symbol
 _atom_site_label
 _atom_site_symmetry_multiplicity
 _atom_site_fract_x
 _atom_site_fract_y
 _atom_site_fract_z
 _atom_site_occupancy
  Ti  Ti0  1  0.66666700  0.33333300  0.73967699  1
  Ti  Ti1  1  0.33333300  0.66666700  0.73967699  1
  Ti  Ti2  1  0.33333300  0.66666700  0.26032301  1
  Ti  Ti3  1  0.66666700  0.33333300  0.26032301  1
  Ti  Ti4  1  0.75062928  0.75062928  0.50000000  1
  Ti  Ti5  1  0.24937072  0.00000000  0.50000000  1
  Ti  Ti6  1  0.00000000  0.24937072  0.50000000  1
  Ti  Ti7  1  0.23869952  0.23869952  -0.00000000  1
  Ti  Ti8  1  0.76130048  1.00000000  -0.00000000  1
  Ti  Ti9  1  1.00000000  0.76130048  -0.00000000  1
  Ga  Ga0  1  0.38669563  0.38669563  0.50000000  1
  Ga  Ga1  1  0.61330437  1.00000000  0.50000000  1
  Ga  Ga2  1  1.00000000  0.61330437  0.50000000  1
  Sb  Sb0  1  0.60205908  0.60205908  -0.00000000  1
  Sb  Sb1  1  0.39794092  0.00000000  -0.00000000  1
  Sb  Sb2  1  0.00000000  0.39794092  -0.00000000  1
loop_
_geom_bond_atom_site_label_1
_geom_bond_atom_site_label_2
_geom_bond_distance
_geom_bond_site_symmetry_2
Ti0 Ti3 2.546495 1_555
Ti0 Ti3 2.765853 1_556
Ti1 Ti2 2.546495 1_555
Ti1 Ti2 2.765853 1_556
Ga0 Ti6 2.654104 1_555
Ga0 Ti5 2.654104 1_555
Ga0 Ti0 2.738129 1_555
Ga0 Ti3 2.738129 1_555
Ga0 Ti1 2.738129 1_555
Ga0 Ti2 2.738129 1_555
Ga0 Ti4 2.844767 1_555
Ga0 Ti7 2.897162 1_556
Ga0 Ti7 2.897162 1_555
Ga0 Sb0 3.144713 1_555
Ga0 Sb0 3.144713 1_556
Ga1 Ti6 2.654104 1_665
Ga1 Ti4 2.654104 1_555
Ga1 Ti3 2.738122 1_565
Ga1 Ti0 2.738122 1_565
Ga1 Ti2 2.738124 1_555
Ga1 Ti1 2.738124 1_555
Ga1 Ti5 2.844768 1_565
Ga1 Ti8 2.897162 1_556
Ga1 Ti8 2.897162 1_555
Ga1 Sb1 3.144713 1_566
Ga1 Sb1 3.144713 1_565
Ga2 Ti5 2.654104 1_665
Ga2 Ti4 2.654104 1_555
Ga2 Ti1 2.738122 1_655
Ga2 Ti2 2.738122 1_655
Ga2 Ti0 2.738124 1_555
Ga2 Ti3 2.738124 1_555
Ga2 Ti6 2.844768 1_655
Ga2 Ti9 2.897162 1_555
Ga2 Ti9 2.897162 1_556
Ga2 Sb2 3.144713 1_656
Ga2 Sb2 3.144713 1_655
Sb0 Ti8 2.711694 1_555
Sb0 Ti9 2.711694 1_555
Sb0 Ti0 2.764181 1_554
Sb0 Ti3 2.764181 1_555
Sb0 Ti2 2.764181 1_555
Sb0 Ti1 2.764181 1_554
Sb0 Ti7 2.840280 1_555
Sb0 Ti4 2.898957 1_554
Sb0 Ti4 2.898957 1_555
Sb1 Ti9 2.711694 1_445
Sb1 Ti7 2.711694 1_555
Sb1 Ti2 2.764175 1_545
Sb1 Ti1 2.764175 1_544
Sb1 Ti3 2.764177 1_555
Sb1 Ti0 2.764177 1_554
Sb1 Ti8 2.840280 1_545
Sb1 Ti5 2.898957 1_555
Sb1 Ti5 2.898957 1_554
Sb2 Ti8 2.711694 1_445
Sb2 Ti7 2.711694 1_555
Sb2 Ti3 2.764175 1_455
Sb2 Ti0 2.764175 1_454
Sb2 Ti1 2.764177 1_554
Sb2 Ti2 2.764177 1_555
Sb2 Ti9 2.840280 1_455
Sb2 Ti6 2.898957 1_555
Sb2 Ti6 2.898957 1_554
