# generated using pymatgen
data_Eu2Ni2O5
_symmetry_space_group_name_H-M   'P 1'
_cell_length_a   8.69082209
_cell_length_b   8.69082209
_cell_length_c   8.69082209
_cell_angle_alpha   144.39614337
_cell_angle_beta   142.70226268
_cell_angle_gamma   52.51461884
_symmetry_Int_Tables_number   1
_chemical_formula_structural   Eu2Ni2O5
_chemical_formula_sum   'Eu4 Ni4 O10'
_cell_volume   230.20500733
_cell_formula_units_Z   2
loop_
 _symmetry_equiv_pos_site_id
 _symmetry_equiv_pos_as_xyz
  1  'x, y, z'
loop_
 _atom_site_type_symbol
 _atom_site_label
 _atom_site_symmetry_multiplicity
 _atom_site_fract_x
 _atom_site_fract_y
 _atom_site_fract_z
 _atom_site_occupancy
  Eu  Eu0  1  0.87241300  0.38663800  0.47840900  1
  Eu  Eu1  1  0.12758700  0.60599600  0.51422500  1
  Eu  Eu2  1  0.40822900  0.88663800  0.51422500  1
  Eu  Eu3  1  0.59177100  0.10599600  0.47840900  1
  Ni  Ni0  1  0.00000000  0.98805500  0.98805500  1
  Ni  Ni1  1  0.50000000  0.48805500  0.98805500  1
  Ni  Ni2  1  0.80821300  0.77993700  0.08815000  1
  Ni  Ni3  1  0.19178700  0.27993700  0.97172400  1
  O  O0  1  0.75964200  0.75496700  0.48756000  1
  O  O1  1  0.24035800  0.72791800  0.99532500  1
  O  O2  1  0.76740700  0.25496700  0.99532500  1
  O  O3  1  0.23259300  0.22791800  0.48756000  1
  O  O4  1  0.80151500  0.83296200  0.90419700  1
  O  O5  1  0.19848500  0.10268200  0.03144700  1
  O  O6  1  0.42876500  0.33296200  0.03144700  1
  O  O7  1  0.57123500  0.60268200  0.90419700  1
  O  O8  1  0.85086000  0.15684600  0.50770600  1
  O  O9  1  0.14914000  0.65684600  0.30598600  1
loop_
_geom_bond_atom_site_label_1
_geom_bond_atom_site_label_2
_geom_bond_distance
_geom_bond_site_symmetry_2
Eu0 O8 2.333729 1_555
Eu0 O6 2.363621 1_555
Eu0 O1 2.495078 1_655
Eu0 O3 2.496905 1_655
Eu0 O4 2.548856 1_555
Eu0 O0 2.665589 1_555
Eu0 O2 2.670519 1_554
Eu0 O4 2.847105 1_544
Eu1 O9 2.333729 1_555
Eu1 O7 2.363621 1_555
Eu1 O0 2.495078 1_455
Eu1 O2 2.496905 1_454
Eu1 O5 2.548856 1_566
Eu1 O1 2.665589 1_555
Eu1 O3 2.670519 1_555
Eu1 O5 2.847105 1_555
Eu2 O9 2.333729 1_555
Eu2 O4 2.363621 1_555
Eu2 O3 2.495078 1_565
Eu2 O1 2.496905 1_554
Eu2 O6 2.548856 1_566
Eu2 O2 2.665589 1_565
Eu2 O0 2.670519 1_555
Eu2 O6 2.847105 1_555
Eu3 O8 2.333729 1_555
Eu3 O5 2.363621 1_555
Eu3 O2 2.495078 1_555
Eu3 O0 2.496905 1_545
Eu3 O7 2.548856 1_555
Eu3 O3 2.665589 1_555
Eu3 O1 2.670519 1_544
Eu3 O7 2.847105 1_544
Ni0 O2 1.931012 1_465
Ni0 O3 1.931012 1_566
Ni0 O0 1.937289 1_455
Ni0 O1 1.937289 1_555
Ni0 O4 2.134463 1_455
Ni0 O5 2.134463 1_566
Ni1 O0 1.931012 1_556
Ni1 O1 1.931012 1_555
Ni1 O2 1.937289 1_555
Ni1 O3 1.937289 1_555
Ni1 O6 2.134463 1_556
Ni1 O7 2.134463 1_555
Ni2 O7 1.946512 1_554
Ni2 O4 1.946512 1_554
Ni2 O9 2.004623 1_655
Ni2 O8 2.016888 1_565
Ni3 O5 1.946512 1_556
Ni3 O6 1.946512 1_556
Ni3 O8 2.004623 1_455
Ni3 O9 2.016888 1_556
