# generated using pymatgen
data_Ho2MgS4
_symmetry_space_group_name_H-M   'P 1'
_cell_length_a   7.20506664
_cell_length_b   8.33690191
_cell_length_c   12.87772087
_cell_angle_alpha   80.50481776
_cell_angle_beta   84.39267418
_cell_angle_gamma   90.03616338
_symmetry_Int_Tables_number   1
_chemical_formula_structural   Ho2MgS4
_chemical_formula_sum   'Ho8 Mg4 S16'
_cell_volume   759.17891798
_cell_formula_units_Z   4
loop_
 _symmetry_equiv_pos_site_id
 _symmetry_equiv_pos_as_xyz
  1  'x, y, z'
loop_
 _atom_site_type_symbol
 _atom_site_label
 _atom_site_symmetry_multiplicity
 _atom_site_fract_x
 _atom_site_fract_y
 _atom_site_fract_z
 _atom_site_occupancy
  Ho  Ho0  1  0.13550300  0.70042500  0.69417900  1
  Ho  Ho1  1  0.86449700  0.29957500  0.30582100  1
  Ho  Ho2  1  0.24119800  0.87289000  0.00066200  1
  Ho  Ho3  1  0.75880200  0.12711000  0.99933800  1
  Ho  Ho4  1  0.36789200  0.55491600  0.30415000  1
  Ho  Ho5  1  0.63210800  0.44508400  0.69585000  1
  Ho  Ho6  1  0.36654300  0.04293700  0.30756700  1
  Ho  Ho7  1  0.63345700  0.95706300  0.69243300  1
  Mg  Mg0  1  0.13370700  0.20051000  0.69955400  1
  Mg  Mg1  1  0.86629300  0.79949000  0.30044600  1
  Mg  Mg2  1  0.24938200  0.37762400  0.99600400  1
  Mg  Mg3  1  0.75061800  0.62237600  0.00399600  1
  S  S0  1  0.09479500  0.64597200  0.89653600  1
  S  S1  1  0.90520500  0.35402800  0.10346400  1
  S  S2  1  0.10665200  0.15498700  0.89208500  1
  S  S3  1  0.89334800  0.84501300  0.10791500  1
  S  S4  1  0.17094100  0.78123900  0.37235500  1
  S  S5  1  0.82905900  0.21876100  0.62764500  1
  S  S6  1  0.19103400  0.28183800  0.37509700  1
  S  S7  1  0.80896600  0.71816200  0.62490300  1
  S  S8  1  0.30424500  0.97840000  0.62893200  1
  S  S9  1  0.69575500  0.02160000  0.37106800  1
  S  S10  1  0.30578700  0.45726700  0.62879200  1
  S  S11  1  0.69421300  0.54273300  0.37120800  1
  S  S12  1  0.39509300  0.10237500  0.10466800  1
  S  S13  1  0.60490700  0.89762500  0.89533200  1
  S  S14  1  0.40339300  0.59363500  0.10216500  1
  S  S15  1  0.59660700  0.40636500  0.89783500  1
loop_
_geom_bond_atom_site_label_1
_geom_bond_atom_site_label_2
_geom_bond_distance
_geom_bond_site_symmetry_2
Ho0 S0 2.557924 1_555
Ho0 S10 2.586161 1_555
Ho0 S8 2.590194 1_555
Ho0 S7 2.592319 1_455
Ho1 S1 2.557924 1_555
Ho1 S11 2.586161 1_555
Ho1 S9 2.590194 1_555
Ho1 S6 2.592319 1_655
Ho2 S3 2.731299 1_455
Ho2 S0 2.756888 1_554
Ho2 S2 2.758380 1_564
Ho2 S14 2.791476 1_555
Ho2 S12 2.795829 1_565
Ho2 S13 2.821710 1_554
Ho3 S2 2.731299 1_655
Ho3 S1 2.756888 1_556
Ho3 S3 2.758380 1_546
Ho3 S15 2.791476 1_555
Ho3 S13 2.795829 1_545
Ho3 S12 2.821710 1_556
Ho4 S14 2.555042 1_555
Ho4 S4 2.579122 1_555
Ho4 S11 2.579177 1_555
Ho4 S6 2.593086 1_555
Ho5 S15 2.555042 1_555
Ho5 S5 2.579122 1_555
Ho5 S10 2.579177 1_555
Ho5 S7 2.593086 1_555
Ho6 S12 2.565667 1_555
Ho6 S4 2.570622 1_545
Ho6 S9 2.580370 1_555
Ho6 S6 2.584943 1_555
Ho7 S13 2.565667 1_555
Ho7 S5 2.570622 1_565
Ho7 S8 2.580370 1_555
Ho7 S7 2.584943 1_555
Mg0 S2 2.433982 1_555
Mg0 S5 2.459652 1_455
Mg0 S10 2.466150 1_555
Mg0 S8 2.470998 1_545
Mg1 S3 2.433982 1_555
Mg1 S4 2.459652 1_655
Mg1 S11 2.466150 1_555
Mg1 S9 2.470998 1_565
Mg2 S15 2.682487 1_555
Mg2 S0 2.687534 1_555
Mg2 S1 2.709642 1_456
Mg2 S2 2.716544 1_555
Mg2 S14 2.729406 1_556
Mg2 S12 2.748967 1_556
Mg3 S14 2.682487 1_555
Mg3 S1 2.687534 1_555
Mg3 S0 2.709642 1_654
Mg3 S3 2.716544 1_555
Mg3 S15 2.729406 1_554
Mg3 S13 2.748967 1_554
