# generated using pymatgen
data_Sr2LaMn2O7
_symmetry_space_group_name_H-M   'P 1'
_cell_length_a   3.92595300
_cell_length_b   10.66699640
_cell_length_c   7.69392701
_cell_angle_alpha   79.61528597
_cell_angle_beta   89.99896076
_cell_angle_gamma   79.39665785
_symmetry_Int_Tables_number   1
_chemical_formula_structural   Sr2LaMn2O7
_chemical_formula_sum   'Sr4 La2 Mn4 O14'
_cell_volume   311.33449701
_cell_formula_units_Z   2
loop_
 _symmetry_equiv_pos_site_id
 _symmetry_equiv_pos_as_xyz
  1  'x, y, z'
loop_
 _atom_site_type_symbol
 _atom_site_label
 _atom_site_symmetry_multiplicity
 _atom_site_fract_x
 _atom_site_fract_y
 _atom_site_fract_z
 _atom_site_occupancy
  Sr  Sr0  1  0.68244900  0.63516600  0.83900700  1
  Sr  Sr1  1  0.68233100  0.63538400  0.34338500  1
  Sr  Sr2  1  0.50476300  0.99055400  0.75249600  1
  Sr  Sr3  1  0.50476400  0.99049200  0.25222700  1
  La  La0  1  0.31582900  0.36821700  0.15880600  1
  La  La1  1  0.31625800  0.36746600  0.65745000  1
  Mn  Mn0  1  0.09818600  0.80360900  0.04898700  1
  Mn  Mn1  1  0.90428600  0.19145200  0.95256900  1
  Mn  Mn2  1  0.09742600  0.80512000  0.54876000  1
  Mn  Mn3  1  0.90410400  0.19176200  0.45170800  1
  O  O0  1  0.20074100  0.59842700  0.09981100  1
  O  O1  1  0.20693100  0.58626000  0.60423600  1
  O  O2  1  0.80523400  0.38991100  0.90548900  1
  O  O3  1  0.80365200  0.39294100  0.39844600  1
  O  O4  1  0.99806000  0.00384200  0.99912300  1
  O  O5  1  0.99499300  0.00985300  0.49749500  1
  O  O6  1  0.59753500  0.80486500  0.04850800  1
  O  O7  1  0.59706600  0.80582200  0.54879100  1
  O  O8  1  0.09743000  0.80508900  0.80055500  1
  O  O9  1  0.09741200  0.80506300  0.29689700  1
  O  O10  1  0.39799600  0.20403400  0.95110900  1
  O  O11  1  0.39727600  0.20539000  0.44648600  1
  O  O12  1  0.89748100  0.20492500  0.19805600  1
  O  O13  1  0.89779500  0.20435900  0.69960100  1
loop_
_geom_bond_atom_site_label_1
_geom_bond_atom_site_label_2
_geom_bond_distance
_geom_bond_site_symmetry_2
La0 O0 2.372811 1_555
La0 O11 2.535302 1_555
La0 O10 2.554582 1_554
La0 O12 2.585709 1_455
La0 O12 2.585792 1_555
La0 O3 2.737208 1_455
La0 O3 2.738292 1_555
La0 O2 2.745414 1_454
La0 O2 2.746773 1_554
La1 O1 2.255147 1_555
La1 O11 2.556170 1_555
La1 O10 2.573160 1_555
La1 O13 2.584478 1_555
La1 O13 2.584529 1_455
La1 O3 2.774638 1_455
La1 O3 2.775311 1_555
La1 O2 2.777078 1_455
La1 O2 2.778224 1_555
Mn0 O8 1.908633 1_554
Mn0 O9 1.910256 1_555
Mn0 O6 1.962929 1_555
Mn0 O6 1.963110 1_455
Mn0 O4 2.063811 1_464
Mn0 O0 2.114823 1_555
Mn1 O12 1.919694 1_556
Mn1 O13 1.926100 1_555
Mn1 O4 1.933706 1_555
Mn1 O10 1.967297 1_555
Mn1 O10 1.967300 1_655
Mn1 O2 2.045617 1_555
Mn2 O8 1.937233 1_555
Mn2 O9 1.937925 1_555
Mn2 O7 1.962955 1_555
Mn2 O7 1.963026 1_455
Mn2 O5 2.110192 1_465
Mn2 O1 2.255807 1_555
Mn3 O5 1.874946 1_555
Mn3 O12 1.931043 1_555
Mn3 O13 1.935851 1_555
Mn3 O11 1.967988 1_655
Mn3 O11 1.968103 1_555
Mn3 O3 2.073688 1_555
O0 Sr0 2.782733 1_454
O0 Sr0 2.783103 1_554
O0 Sr1 2.789377 1_455
O0 Sr1 2.789795 1_555
O1 Sr0 2.778189 1_555
O1 Sr0 2.778314 1_455
O1 Sr1 2.786861 1_555
O1 Sr1 2.787133 1_455
O2 Sr0 2.528169 1_555
O3 Sr1 2.499232 1_555
O4 Sr3 2.750369 1_546
O4 Sr3 2.750585 1_646
O4 Sr2 2.751270 1_545
O4 Sr2 2.751555 1_645
O5 Sr3 2.755859 1_545
O5 Sr2 2.756064 1_545
O5 Sr3 2.756321 1_645
O5 Sr2 2.756793 1_645
O6 Sr0 2.610720 1_554
O6 Sr1 2.612719 1_555
O6 Sr2 2.711308 1_554
O6 Sr3 2.713591 1_555
O7 Sr0 2.592698 1_555
O7 Sr1 2.593616 1_555
O7 Sr2 2.705795 1_555
O7 Sr3 2.708316 1_555
O8 Sr0 2.630710 1_455
O8 Sr0 2.631094 1_555
O8 Sr2 2.739850 1_455
O8 Sr2 2.740167 1_555
O9 Sr1 2.628977 1_455
O9 Sr1 2.629493 1_555
O9 Sr3 2.739587 1_455
O9 Sr3 2.739910 1_555
O10 Sr3 2.911683 1_546
O10 Sr2 2.932515 1_545
O11 Sr3 2.923322 1_545
O11 Sr2 2.944831 1_545
O12 Sr3 2.955835 1_545
O12 Sr3 2.956237 1_645
O13 Sr2 2.951001 1_545
O13 Sr2 2.951397 1_645
