# generated using pymatgen
data_Cr(Fe2Sb5)2
_symmetry_space_group_name_H-M   'P 1'
_cell_length_a   3.18270100
_cell_length_b   5.90573506
_cell_length_c   33.00752831
_cell_angle_alpha   90.01569806
_cell_angle_beta   90.00000000
_cell_angle_gamma   90.00000000
_symmetry_Int_Tables_number   1
_chemical_formula_structural   Cr(Fe2Sb5)2
_chemical_formula_sum   'Cr2 Fe8 Sb20'
_cell_volume   620.41571284
_cell_formula_units_Z   2
loop_
 _symmetry_equiv_pos_site_id
 _symmetry_equiv_pos_as_xyz
  1  'x, y, z'
loop_
 _atom_site_type_symbol
 _atom_site_label
 _atom_site_symmetry_multiplicity
 _atom_site_fract_x
 _atom_site_fract_y
 _atom_site_fract_z
 _atom_site_occupancy
  Cr  Cr0  1  0.50000000  0.50010200  0.09980200  1
  Cr  Cr1  1  0.50000000  0.49989800  0.30019800  1
  Fe  Fe0  1  0.50000000  0.49967800  0.50014400  1
  Fe  Fe1  1  0.50000000  0.50000000  0.70000000  1
  Fe  Fe2  1  0.50000000  0.50032200  0.89985600  1
  Fe  Fe3  1  0.00000000  0.99888400  0.99850800  1
  Fe  Fe4  1  0.00000000  0.00000000  0.20000000  1
  Fe  Fe5  1  0.00000000  0.00111600  0.40149200  1
  Fe  Fe6  1  0.00000000  0.00004500  0.60000800  1
  Fe  Fe7  1  0.00000000  0.99995500  0.79999200  1
  Sb  Sb0  1  0.50000000  0.69494800  0.02656700  1
  Sb  Sb1  1  0.50000000  0.69510000  0.22721400  1
  Sb  Sb2  1  0.50000000  0.69077200  0.42974800  1
  Sb  Sb3  1  0.50000000  0.69075300  0.62926400  1
  Sb  Sb4  1  0.50000000  0.69101800  0.82901800  1
  Sb  Sb5  1  0.50000000  0.30490000  0.17278600  1
  Sb  Sb6  1  0.50000000  0.30505200  0.37343300  1
  Sb  Sb7  1  0.50000000  0.30898200  0.57098200  1
  Sb  Sb8  1  0.50000000  0.30924700  0.77073600  1
  Sb  Sb9  1  0.50000000  0.30922800  0.97025200  1
  Sb  Sb10  1  0.00000000  0.17828600  0.06871300  1
  Sb  Sb11  1  0.00000000  0.17796700  0.26956200  1
  Sb  Sb12  1  0.00000000  0.19140000  0.47157200  1
  Sb  Sb13  1  0.00000000  0.19095800  0.67080500  1
  Sb  Sb14  1  0.00000000  0.19122100  0.87071300  1
  Sb  Sb15  1  0.00000000  0.82203300  0.13043800  1
  Sb  Sb16  1  0.00000000  0.82171400  0.33128700  1
  Sb  Sb17  1  0.00000000  0.80877900  0.52928700  1
  Sb  Sb18  1  0.00000000  0.80904200  0.72919500  1
  Sb  Sb19  1  0.00000000  0.80860000  0.92842800  1
loop_
_geom_bond_atom_site_label_1
_geom_bond_atom_site_label_2
_geom_bond_distance
_geom_bond_site_symmetry_2
Cr0 Sb5 2.670932 1_555
Cr0 Sb15 2.677427 1_555
Cr0 Sb15 2.677427 1_655
Cr0 Sb0 2.677504 1_555
Cr0 Sb10 2.682626 1_555
Cr0 Sb10 2.682626 1_655
Cr1 Sb1 2.670932 1_555
Cr1 Sb11 2.677427 1_555
Cr1 Sb11 2.677427 1_655
Cr1 Sb6 2.677504 1_555
Cr1 Sb16 2.682626 1_655
Cr1 Sb16 2.682626 1_555
Fe0 Sb2 2.583442 1_555
Fe0 Sb12 2.595282 1_655
Fe0 Sb12 2.595282 1_555
Fe0 Sb7 2.595552 1_555
Fe0 Sb17 2.605589 1_655
Fe0 Sb17 2.605589 1_555
Fe1 Sb8 2.592665 1_555
Fe1 Sb3 2.592665 1_555
Fe1 Sb18 2.605979 1_655
Fe1 Sb18 2.605979 1_555
Fe1 Sb13 2.605979 1_655
Fe1 Sb13 2.605979 1_555
Fe2 Sb9 2.583442 1_555
Fe2 Sb19 2.595282 1_555
Fe2 Sb19 2.595282 1_655
Fe2 Sb4 2.595552 1_555
Fe2 Sb14 2.605589 1_555
Fe2 Sb14 2.605589 1_655
Fe3 Sb10 2.547753 1_566
Fe3 Sb19 2.571414 1_555
Fe3 Sb0 2.571571 1_456
Fe3 Sb0 2.571571 1_556
Fe3 Sb9 2.600458 1_565
Fe3 Sb9 2.600458 1_465
Fe4 Sb11 2.524930 1_555
Fe4 Sb15 2.524930 1_545
Fe4 Sb1 2.565646 1_545
Fe4 Sb1 2.565646 1_445
Fe4 Sb5 2.565646 1_555
Fe4 Sb5 2.565646 1_455
Fe5 Sb16 2.547753 1_545
Fe5 Sb12 2.571414 1_555
Fe5 Sb6 2.571571 1_455
Fe5 Sb6 2.571571 1_555
Fe5 Sb2 2.600458 1_545
Fe5 Sb2 2.600458 1_445
Fe6 Sb17 2.592981 1_545
Fe6 Sb13 2.594333 1_555
Fe6 Sb7 2.603856 1_455
Fe6 Sb7 2.603856 1_555
Fe6 Sb3 2.608128 1_445
Fe6 Sb3 2.608128 1_545
Fe7 Sb14 2.592981 1_565
Fe7 Sb18 2.594333 1_555
Fe7 Sb4 2.603856 1_455
Fe7 Sb4 2.603856 1_555
Fe7 Sb8 2.608128 1_565
Fe7 Sb8 2.608128 1_465
