# generated using pymatgen
data_Tm2Ni2Sn
_symmetry_space_group_name_H-M   'P 1'
_cell_length_a   7.23329430
_cell_length_b   7.23331917
_cell_length_c   3.59187068
_cell_angle_alpha   90.00000000
_cell_angle_beta   90.00000000
_cell_angle_gamma   90.00000000
_symmetry_Int_Tables_number   1
_chemical_formula_structural   Tm2Ni2Sn
_chemical_formula_sum   'Tm4 Ni4 Sn2'
_cell_volume   187.92928283
_cell_formula_units_Z   2
loop_
 _symmetry_equiv_pos_site_id
 _symmetry_equiv_pos_as_xyz
  1  'x, y, z'
loop_
 _atom_site_type_symbol
 _atom_site_label
 _atom_site_symmetry_multiplicity
 _atom_site_fract_x
 _atom_site_fract_y
 _atom_site_fract_z
 _atom_site_occupancy
  Tm  Tm0  1  0.67301282  0.17300821  0.50000000  1
  Tm  Tm1  1  0.32698745  0.82698271  0.50000000  1
  Tm  Tm2  1  0.17301282  0.32699179  0.50000000  1
  Tm  Tm3  1  0.82698745  0.67301729  0.50000000  1
  Ni  Ni0  1  0.87926448  0.37925650  -0.00000000  1
  Ni  Ni1  1  0.12072500  0.62071500  -0.00000000  1
  Ni  Ni2  1  0.37926448  0.12074350  -0.00000000  1
  Ni  Ni3  1  0.62072500  0.87928500  -0.00000000  1
  Sn  Sn0  1  0.50001026  0.49997056  0.00000000  1
  Sn  Sn1  1  0.00001026  0.00002944  0.00000000  1
loop_
_geom_bond_atom_site_label_1
_geom_bond_atom_site_label_2
_geom_bond_distance
_geom_bond_site_symmetry_2
Ni0 Ni1 2.469996 1_655
Ni0 Tm0 2.770692 1_555
Ni0 Tm0 2.770692 1_554
Ni0 Tm2 2.807658 1_655
Ni0 Tm2 2.807658 1_654
Ni0 Tm3 2.807743 1_554
Ni0 Tm3 2.807743 1_555
Ni0 Sn1 2.878757 1_655
Ni0 Sn0 2.878867 1_555
Ni1 Tm1 2.770809 1_554
Ni1 Tm1 2.770809 1_555
Ni1 Tm2 2.807548 1_555
Ni1 Tm2 2.807548 1_554
Ni1 Tm3 2.807636 1_454
Ni1 Tm3 2.807636 1_455
Ni1 Sn0 2.879148 1_555
Ni1 Sn1 2.879292 1_565
Ni2 Ni3 2.469996 1_545
Ni2 Tm2 2.770692 1_554
Ni2 Tm2 2.770692 1_555
Ni2 Tm0 2.807658 1_555
Ni2 Tm0 2.807658 1_554
Ni2 Tm1 2.807743 1_545
Ni2 Tm1 2.807743 1_544
Ni2 Sn0 2.878757 1_555
Ni2 Sn1 2.878867 1_555
Ni3 Tm3 2.770809 1_554
Ni3 Tm3 2.770809 1_555
Ni3 Tm0 2.807548 1_564
Ni3 Tm0 2.807548 1_565
Ni3 Tm1 2.807636 1_554
Ni3 Tm1 2.807636 1_555
Ni3 Sn1 2.879148 1_665
Ni3 Sn0 2.879292 1_555
Sn0 Tm0 3.222525 1_555
Sn0 Tm0 3.222525 1_554
Sn0 Tm2 3.222640 1_554
Sn0 Tm2 3.222640 1_555
Sn0 Tm3 3.222723 1_554
Sn0 Tm3 3.222723 1_555
Sn0 Tm1 3.222846 1_554
Sn0 Tm1 3.222846 1_555
Sn1 Tm2 3.222525 1_555
Sn1 Tm2 3.222525 1_554
Sn1 Tm0 3.222640 1_454
Sn1 Tm0 3.222640 1_455
Sn1 Tm1 3.222723 1_545
Sn1 Tm1 3.222723 1_544
Sn1 Tm3 3.222846 1_444
Sn1 Tm3 3.222846 1_445
