# generated using pymatgen
data_BaLaAlO4
_symmetry_space_group_name_H-M   'P 1'
_cell_length_a   5.88119600
_cell_length_b   7.34188200
_cell_length_c   9.92758000
_cell_angle_alpha   90.00000000
_cell_angle_beta   90.00000000
_cell_angle_gamma   90.00000000
_symmetry_Int_Tables_number   1
_chemical_formula_structural   BaLaAlO4
_chemical_formula_sum   'Ba4 La4 Al4 O16'
_cell_volume   428.66344392
_cell_formula_units_Z   4
loop_
 _symmetry_equiv_pos_site_id
 _symmetry_equiv_pos_as_xyz
  1  'x, y, z'
loop_
 _atom_site_type_symbol
 _atom_site_label
 _atom_site_symmetry_multiplicity
 _atom_site_fract_x
 _atom_site_fract_y
 _atom_site_fract_z
 _atom_site_occupancy
  Ba  Ba0  1  0.01345100  0.08266800  0.91947500  1
  Ba  Ba1  1  0.48654900  0.91733200  0.41947500  1
  Ba  Ba2  1  0.51345100  0.41733200  0.08052500  1
  Ba  Ba3  1  0.98654900  0.58266800  0.58052500  1
  La  La0  1  0.51288600  0.25368000  0.69811700  1
  La  La1  1  0.48711400  0.75368000  0.80188300  1
  La  La2  1  0.98711400  0.74632000  0.19811700  1
  La  La3  1  0.01288600  0.24632000  0.30188300  1
  Al  Al0  1  0.01884900  0.52645600  0.91625000  1
  Al  Al1  1  0.51884900  0.97354400  0.08375000  1
  Al  Al2  1  0.98115100  0.02645600  0.58375000  1
  Al  Al3  1  0.48115100  0.47354400  0.41625000  1
  O  O0  1  0.75909100  0.49064700  0.82679000  1
  O  O1  1  0.25909100  0.00935300  0.17321000  1
  O  O2  1  0.24090900  0.99064700  0.67321000  1
  O  O3  1  0.74090900  0.50935300  0.32679000  1
  O  O4  1  0.12842100  0.74580300  0.95199600  1
  O  O5  1  0.62842100  0.75419700  0.04800400  1
  O  O6  1  0.87157900  0.24580300  0.54800400  1
  O  O7  1  0.37157900  0.25419700  0.45199600  1
  O  O8  1  0.23998600  0.43399700  0.81342600  1
  O  O9  1  0.73998600  0.06600300  0.18657400  1
  O  O10  1  0.76001400  0.93399700  0.68657400  1
  O  O11  1  0.26001400  0.56600300  0.31342600  1
  O  O12  1  0.49409400  0.58731900  0.57530300  1
  O  O13  1  0.99409400  0.91268100  0.42469700  1
  O  O14  1  0.50590600  0.08731900  0.92469700  1
  O  O15  1  0.00590600  0.41268100  0.07530300  1
loop_
_geom_bond_atom_site_label_1
_geom_bond_atom_site_label_2
_geom_bond_distance
_geom_bond_site_symmetry_2
Ba0 O4 2.584233 1_545
Ba0 O2 2.867591 1_545
Ba0 O15 2.875011 1_556
Ba0 O14 2.896890 1_555
Ba0 O1 2.953303 1_556
Ba0 O10 2.959571 1_445
Ba0 O14 2.985617 1_455
Ba0 O8 3.088173 1_555
Ba0 O9 3.103681 1_456
Ba1 O7 2.584233 1_565
Ba1 O1 2.867591 1_565
Ba1 O12 2.875011 1_555
Ba1 O13 2.896890 1_455
Ba1 O2 2.953303 1_555
Ba1 O9 2.959571 1_565
Ba1 O13 2.985617 1_555
Ba1 O11 3.088173 1_555
Ba1 O10 3.103681 1_555
Ba2 O5 2.584233 1_555
Ba2 O3 2.867591 1_555
Ba2 O14 2.875011 1_554
Ba2 O15 2.896890 1_655
Ba2 O0 2.953303 1_554
Ba2 O11 2.959571 1_555
Ba2 O15 2.985617 1_555
Ba2 O9 3.088173 1_555
Ba2 O8 3.103681 1_554
Ba3 O6 2.584233 1_555
Ba3 O0 2.867591 1_555
Ba3 O13 2.875011 1_555
Ba3 O12 2.896890 1_555
Ba3 O3 2.953303 1_555
Ba3 O8 2.959571 1_655
Ba3 O12 2.985617 1_655
Ba3 O10 3.088173 1_555
Ba3 O11 3.103681 1_655
La0 O8 2.374659 1_555
La0 O2 2.519736 1_545
La0 O14 2.559936 1_555
La0 O7 2.580853 1_555
La0 O6 2.583484 1_555
La0 O0 2.599091 1_555
La0 O12 2.738432 1_555
La0 O10 2.763021 1_545
La1 O10 2.374659 1_555
La1 O0 2.519736 1_555
La1 O12 2.559936 1_555
La1 O5 2.580853 1_556
La1 O4 2.583484 1_555
La1 O2 2.599091 1_555
La1 O14 2.738432 1_565
La1 O8 2.763021 1_555
La2 O11 2.374659 1_655
La2 O1 2.519736 1_665
La2 O13 2.559936 1_555
La2 O4 2.580853 1_654
La2 O5 2.583484 1_555
La2 O3 2.599091 1_555
La2 O15 2.738432 1_655
La2 O9 2.763021 1_565
La3 O9 2.374659 1_455
La3 O3 2.519736 1_455
La3 O15 2.559936 1_555
La3 O6 2.580853 1_455
La3 O7 2.583484 1_555
La3 O1 2.599091 1_555
La3 O13 2.738432 1_445
La3 O11 2.763021 1_555
Al0 O4 1.770496 1_555
Al0 O0 1.786535 1_455
Al0 O8 1.787247 1_555
Al0 O15 1.787970 1_556
Al1 O5 1.770496 1_555
Al1 O1 1.786535 1_565
Al1 O9 1.787247 1_565
Al1 O14 1.787970 1_564
Al2 O6 1.770496 1_555
Al2 O2 1.786535 1_645
Al2 O10 1.787247 1_545
Al2 O13 1.787970 1_545
Al3 O7 1.770496 1_555
Al3 O3 1.786535 1_555
Al3 O11 1.787247 1_555
Al3 O12 1.787970 1_555
