# generated using pymatgen
data_CsSrMg14
_symmetry_space_group_name_H-M   'P 1'
_cell_length_a   6.73438426
_cell_length_b   6.66202716
_cell_length_c   11.01773297
_cell_angle_alpha   90.00000000
_cell_angle_beta   90.00000000
_cell_angle_gamma   119.64521500
_symmetry_Int_Tables_number   1
_chemical_formula_structural   CsSrMg14
_chemical_formula_sum   'Cs1 Sr1 Mg14'
_cell_volume   429.60439469
_cell_formula_units_Z   1
loop_
 _symmetry_equiv_pos_site_id
 _symmetry_equiv_pos_as_xyz
  1  'x, y, z'
loop_
 _atom_site_type_symbol
 _atom_site_label
 _atom_site_symmetry_multiplicity
 _atom_site_fract_x
 _atom_site_fract_y
 _atom_site_fract_z
 _atom_site_occupancy
  Cs  Cs0  1  0.16738420  0.33369160  0.12500000  1
  Sr  Sr0  1  0.17590582  0.83795241  0.12500000  1
  Mg  Mg0  1  0.16220927  0.33110413  0.62500000  1
  Mg  Mg1  1  0.16056018  0.83027959  0.62500000  1
  Mg  Mg2  1  0.66823204  0.33588730  0.12500000  1
  Mg  Mg3  1  0.66995465  0.33521661  0.62500000  1
  Mg  Mg4  1  0.66823204  0.83234374  0.12500000  1
  Mg  Mg5  1  0.66995465  0.83473704  0.62500000  1
  Mg  Mg6  1  0.34403449  0.16692824  0.40060849  1
  Mg  Mg7  1  0.34403449  0.16692824  0.84939151  1
  Mg  Mg8  1  0.34403449  0.67710725  0.40060849  1
  Mg  Mg9  1  0.34403449  0.67710725  0.84939151  1
  Mg  Mg10  1  0.81600649  0.15800375  0.38960447  1
  Mg  Mg11  1  0.81600649  0.15800375  0.86039553  1
  Mg  Mg12  1  0.82470809  0.66235454  0.38068386  1
  Mg  Mg13  1  0.82470809  0.66235454  0.86931614  1
loop_
_geom_bond_atom_site_label_1
_geom_bond_atom_site_label_2
_geom_bond_distance
_geom_bond_site_symmetry_2
Cs0 Sr0 3.331387 1_555
Cs0 Sr0 3.331387 1_545
Cs0 Mg4 3.365690 1_555
Cs0 Mg2 3.365690 1_555
Cs0 Mg4 3.368741 1_445
Cs0 Mg2 3.368742 1_455
Cs0 Mg10 3.567732 1_455
Cs0 Mg11 3.567732 1_454
Cs0 Mg6 3.630122 1_555
Cs0 Mg7 3.630122 1_554
Cs0 Mg8 3.630128 1_555
Cs0 Mg9 3.630128 1_554
Mg0 Mg6 3.183191 1_555
Mg0 Mg7 3.183191 1_555
Mg0 Mg9 3.183198 1_555
Mg0 Mg8 3.183198 1_555
Mg0 Mg10 3.291232 1_455
Mg0 Mg11 3.291232 1_455
Mg0 Mg5 3.328668 1_445
Mg0 Mg3 3.328668 1_455
Mg0 Mg1 3.331028 1_545
Mg0 Mg1 3.331028 1_555
Mg0 Mg5 3.405884 1_555
Mg0 Mg3 3.405884 1_555
Mg1 Mg9 3.150787 1_555
Mg1 Mg8 3.150787 1_555
Mg1 Mg7 3.150794 1_565
Mg1 Mg6 3.150794 1_565
Mg1 Mg3 3.318715 1_455
Mg1 Mg5 3.318715 1_455
Mg1 Mg13 3.333142 1_455
Mg1 Mg12 3.333142 1_455
Mg1 Mg3 3.415867 1_565
Mg1 Mg5 3.415867 1_555
Mg2 Sr0 3.334154 1_545
Mg2 Sr0 3.400543 1_655
Mg2 Mg6 3.580975 1_555
Mg2 Mg7 3.580975 1_554
Mg3 Mg6 3.122866 1_555
Mg3 Mg7 3.122866 1_555
Mg3 Mg5 3.327819 1_555
Mg3 Mg5 3.334208 1_545
Mg4 Sr0 3.334154 1_555
Mg4 Sr0 3.400544 1_655
Mg4 Mg8 3.580976 1_555
Mg4 Mg9 3.580976 1_554
Mg5 Mg8 3.122866 1_555
Mg5 Mg9 3.122866 1_555
Mg6 Mg8 3.263201 1_545
Mg6 Mg8 3.398826 1_555
Mg6 Sr0 3.584870 1_545
Mg7 Mg9 3.263201 1_545
Mg7 Mg9 3.398826 1_555
Mg7 Sr0 3.584870 1_546
Mg8 Sr0 3.584864 1_555
Mg9 Sr0 3.584864 1_556
Mg10 Mg3 3.199424 1_555
Mg10 Mg5 3.199431 1_545
Mg10 Mg8 3.210555 1_545
Mg10 Mg6 3.210555 1_555
Mg10 Mg12 3.332852 1_555
Mg10 Mg12 3.332852 1_545
Mg10 Mg2 3.472841 1_555
Mg10 Mg4 3.472848 1_545
Mg10 Mg8 3.528997 1_655
Mg10 Mg6 3.528997 1_655
Mg11 Mg3 3.199424 1_555
Mg11 Mg5 3.199431 1_545
Mg11 Mg9 3.210555 1_545
Mg11 Mg7 3.210555 1_555
Mg11 Mg13 3.332852 1_555
Mg11 Mg13 3.332852 1_545
Mg11 Mg2 3.472841 1_556
Mg11 Mg4 3.472848 1_546
Mg11 Mg9 3.528997 1_655
Mg11 Mg7 3.528997 1_655
Mg12 Mg5 3.291626 1_555
Mg12 Mg3 3.291633 1_555
Mg12 Mg6 3.294087 1_555
Mg12 Mg8 3.294087 1_555
Mg12 Mg4 3.392532 1_555
Mg12 Mg2 3.392539 1_555
Mg12 Mg6 3.456765 1_665
Mg12 Mg8 3.456765 1_655
Mg12 Sr0 3.487258 1_655
Mg13 Mg5 3.291626 1_555
Mg13 Mg3 3.291633 1_555
Mg13 Mg7 3.294087 1_555
Mg13 Mg9 3.294087 1_555
Mg13 Mg4 3.392532 1_556
Mg13 Mg2 3.392539 1_556
Mg13 Mg7 3.456765 1_665
Mg13 Mg9 3.456765 1_655
Mg13 Sr0 3.487258 1_656
