# generated using pymatgen
data_Li3IrF6
_symmetry_space_group_name_H-M   'P 1'
_cell_length_a   5.60583932
_cell_length_b   5.60583932
_cell_length_c   5.60583932
_cell_angle_alpha   60.00000000
_cell_angle_beta   60.00000000
_cell_angle_gamma   60.00000000
_symmetry_Int_Tables_number   1
_chemical_formula_structural   Li3IrF6
_chemical_formula_sum   'Li3 Ir1 F6'
_cell_volume   124.56812839
_cell_formula_units_Z   1
loop_
 _symmetry_equiv_pos_site_id
 _symmetry_equiv_pos_as_xyz
  1  'x, y, z'
loop_
 _atom_site_type_symbol
 _atom_site_label
 _atom_site_symmetry_multiplicity
 _atom_site_fract_x
 _atom_site_fract_y
 _atom_site_fract_z
 _atom_site_occupancy
  Li  Li0  1  0.75000000  0.75000000  0.75000000  1
  Li  Li1  1  0.25000000  0.25000000  0.25000000  1
  Li  Li2  1  0.50000000  0.50000000  0.50000000  1
  Ir  Ir0  1  0.00000000  0.00000000  0.00000000  1
  F  F0  1  0.74609600  0.25390400  0.25390400  1
  F  F1  1  0.25390400  0.25390400  0.74609600  1
  F  F2  1  0.25390400  0.74609600  0.74609600  1
  F  F3  1  0.25390400  0.74609600  0.25390400  1
  F  F4  1  0.74609600  0.25390400  0.74609600  1
  F  F5  1  0.74609600  0.74609600  0.25390400  1
loop_
_geom_bond_atom_site_label_1
_geom_bond_atom_site_label_2
_geom_bond_distance
_geom_bond_site_symmetry_2
F0 Li2 1.951013 1_555
F0 Ir0 2.012914 1_655
F1 Li2 1.951013 1_555
F1 Ir0 2.012914 1_556
F2 Li2 1.951013 1_555
F2 Ir0 2.012914 1_566
F3 Li2 1.951013 1_555
F3 Ir0 2.012914 1_565
F4 Li2 1.951013 1_555
F4 Ir0 2.012914 1_656
F5 Li2 1.951013 1_555
F5 Ir0 2.012914 1_665
