# generated using pymatgen
data_RbTa(CuTe2)2
_symmetry_space_group_name_H-M   'P 1'
_cell_length_a   6.10409400
_cell_length_b   8.43955000
_cell_length_c   10.89666733
_cell_angle_alpha   90.00000000
_cell_angle_beta   106.26556776
_cell_angle_gamma   90.00000000
_symmetry_Int_Tables_number   1
_chemical_formula_structural   RbTa(CuTe2)2
_chemical_formula_sum   'Rb2 Ta2 Cu4 Te8'
_cell_volume   538.88186682
_cell_formula_units_Z   2
loop_
 _symmetry_equiv_pos_site_id
 _symmetry_equiv_pos_as_xyz
  1  'x, y, z'
loop_
 _atom_site_type_symbol
 _atom_site_label
 _atom_site_symmetry_multiplicity
 _atom_site_fract_x
 _atom_site_fract_y
 _atom_site_fract_z
 _atom_site_occupancy
  Rb  Rb0  1  0.82103900  0.75000000  0.12700300  1
  Rb  Rb1  1  0.19403600  0.25000000  0.87299700  1
  Ta  Ta0  1  0.35477500  0.75000000  0.70881700  1
  Ta  Ta1  1  0.14595800  0.25000000  0.29118300  1
  Cu  Cu0  1  0.26138600  0.50000000  0.50000000  1
  Cu  Cu1  1  0.26138600  0.00000000  0.50000000  1
  Cu  Cu2  1  0.85487200  0.75000000  0.71014000  1
  Cu  Cu3  1  0.64473100  0.25000000  0.28986000  1
  Te  Te0  1  0.99776900  0.75000000  0.50126800  1
  Te  Te1  1  0.99650100  0.25000000  0.49873200  1
  Te  Te2  1  0.21090100  0.75000000  0.91610400  1
  Te  Te3  1  0.79479700  0.25000000  0.08389600  1
  Te  Te4  1  0.60506900  0.49314400  0.71121400  1
  Te  Te5  1  0.39385500  0.50685600  0.28878600  1
  Te  Te6  1  0.60506900  0.00685600  0.71121400  1
  Te  Te7  1  0.39385500  0.99314400  0.28878600  1
loop_
_geom_bond_atom_site_label_1
_geom_bond_atom_site_label_2
_geom_bond_distance
_geom_bond_site_symmetry_2
Rb0 Te2 3.742732 1_654
Rb0 Te2 3.789121 1_554
Rb0 Te0 3.915520 1_555
Rb0 Te5 4.011400 1_655
Rb0 Te7 4.011400 1_655
Rb0 Te5 4.085721 1_555
Rb0 Te7 4.085721 1_555
Rb0 Te3 4.243896 1_555
Rb0 Te3 4.243896 1_565
Rb1 Te3 3.742733 1_556
Rb1 Te3 3.789120 1_456
Rb1 Te1 3.915520 1_455
Rb1 Te6 4.011400 1_555
Rb1 Te4 4.011400 1_555
Rb1 Te6 4.085721 1_455
Rb1 Te4 4.085721 1_455
Rb1 Te2 4.243896 1_555
Rb1 Te2 4.243896 1_545
Ta0 Te2 2.642797 1_555
Ta0 Te4 2.647960 1_555
Ta0 Te6 2.647960 1_565
Ta0 Te0 2.665123 1_455
Ta1 Te3 2.642798 1_455
Ta1 Te5 2.647960 1_555
Ta1 Te7 2.647960 1_545
Ta1 Te1 2.665123 1_455
Cu0 Te5 2.645133 1_555
Cu0 Te4 2.645133 1_555
Cu0 Te0 2.655864 1_455
Cu0 Te1 2.655864 1_455
Cu0 Ta0 3.037674 1_555
Cu0 Ta1 3.037674 1_555
Cu1 Te7 2.645133 1_545
Cu1 Te6 2.645133 1_555
Cu1 Te0 2.655864 1_445
Cu1 Te1 2.655864 1_455
Cu1 Ta0 3.037674 1_545
Cu1 Ta1 3.037674 1_555
Cu2 Te2 2.650978 1_655
Cu2 Te4 2.652235 1_555
Cu2 Te6 2.652235 1_565
Cu2 Te0 2.655777 1_555
Cu2 Ta0 3.048633 1_555
Cu2 Ta0 3.055524 1_655
Cu3 Te3 2.650981 1_555
Cu3 Te5 2.652231 1_555
Cu3 Te7 2.652231 1_545
Cu3 Te1 2.655781 1_555
Cu3 Ta1 3.048627 1_555
Cu3 Ta1 3.055530 1_655
