# generated using pymatgen
data_Li2NiP2O7
_symmetry_space_group_name_H-M   'P 1'
_cell_length_a   5.18213600
_cell_length_b   6.42720380
_cell_length_c   8.86761884
_cell_angle_alpha   109.96761786
_cell_angle_beta   95.67540580
_cell_angle_gamma   106.01231176
_symmetry_Int_Tables_number   1
_chemical_formula_structural   Li2NiP2O7
_chemical_formula_sum   'Li4 Ni2 P4 O14'
_cell_volume   260.66006247
_cell_formula_units_Z   2
loop_
 _symmetry_equiv_pos_site_id
 _symmetry_equiv_pos_as_xyz
  1  'x, y, z'
loop_
 _atom_site_type_symbol
 _atom_site_label
 _atom_site_symmetry_multiplicity
 _atom_site_fract_x
 _atom_site_fract_y
 _atom_site_fract_z
 _atom_site_occupancy
  Li  Li0  1  0.09318100  0.73085300  0.01837400  1
  Li  Li1  1  0.58894800  0.44542500  0.74260900  1
  Li  Li2  1  0.41105200  0.55457500  0.25739100  1
  Li  Li3  1  0.90681900  0.26914700  0.98162600  1
  Ni  Ni0  1  0.73789300  0.23777200  0.36333200  1
  Ni  Ni1  1  0.26210700  0.76222800  0.63666800  1
  P  P0  1  0.84850100  0.76033000  0.39229600  1
  P  P1  1  0.69654500  0.80697200  0.87967100  1
  P  P2  1  0.30345500  0.19302800  0.12032900  1
  P  P3  1  0.15150000  0.23967000  0.60770400  1
  O  O0  1  0.73151900  0.56042200  0.33333500  1
  O  O1  1  0.63762700  0.88911400  0.42235400  1
  O  O2  1  0.43405400  0.72867400  0.83210300  1
  O  O3  1  0.10104900  0.32889400  0.15488100  1
  O  O4  1  0.37412500  0.18851000  0.94546300  1
  O  O5  1  0.05792200  0.30552200  0.46446900  1
  O  O6  1  0.87327300  0.07453200  0.76898600  1
  O  O7  1  0.12672700  0.92546800  0.23101400  1
  O  O8  1  0.94207800  0.69447800  0.53553100  1
  O  O9  1  0.62587500  0.81149000  0.05453700  1
  O  O10  1  0.89895100  0.67110600  0.84511900  1
  O  O11  1  0.56594600  0.27132600  0.16789700  1
  O  O12  1  0.36237300  0.11088600  0.57764600  1
  O  O13  1  0.26848100  0.43957800  0.66666500  1
loop_
_geom_bond_atom_site_label_1
_geom_bond_atom_site_label_2
_geom_bond_distance
_geom_bond_site_symmetry_2
Li0 O10 1.612120 1_454
Li0 O7 1.831576 1_555
Li1 O13 1.714630 1_555
Li1 O10 1.742451 1_555
Li1 O12 2.064210 1_555
Li2 O0 1.714630 1_555
Li2 O3 1.742451 1_555
Li2 O1 2.064210 1_555
Li3 O3 1.612120 1_656
Li3 O6 1.831576 1_555
Ni0 O5 1.668845 1_655
Ni0 O11 1.974783 1_555
Ni0 O0 2.187471 1_555
Ni0 O1 2.403743 1_545
Ni1 O8 1.668845 1_455
Ni1 O2 1.974783 1_555
Ni1 O13 2.187471 1_555
Ni1 O12 2.403743 1_565
O0 P0 1.157798 1_555
O1 P0 1.535014 1_555
O2 P1 1.282724 1_555
O3 P2 1.530603 1_555
O4 P2 1.620769 1_556
O5 P3 1.544718 1_555
O8 P0 1.544716 1_555
O9 P1 1.620769 1_554
O10 P1 1.530603 1_555
O11 P2 1.282724 1_555
O12 P3 1.535010 1_555
O13 P3 1.157797 1_555
