# generated using pymatgen
data_MgO
_symmetry_space_group_name_H-M   'P 1'
_cell_length_a   9.79490492
_cell_length_b   9.75943183
_cell_length_c   10.06863539
_cell_angle_alpha   91.47733468
_cell_angle_beta   88.38553096
_cell_angle_gamma   88.97787389
_symmetry_Int_Tables_number   1
_chemical_formula_structural   MgO
_chemical_formula_sum   'Mg40 O40'
_cell_volume   961.62023390
_cell_formula_units_Z   40
loop_
 _symmetry_equiv_pos_site_id
 _symmetry_equiv_pos_as_xyz
  1  'x, y, z'
loop_
 _atom_site_type_symbol
 _atom_site_label
 _atom_site_symmetry_multiplicity
 _atom_site_fract_x
 _atom_site_fract_y
 _atom_site_fract_z
 _atom_site_occupancy
  Mg  Mg0  1  0.48552100  0.72599600  0.14568500  1
  Mg  Mg1  1  0.15838900  0.48957400  0.84926700  1
  Mg  Mg2  1  0.70960400  0.51510400  0.94225600  1
  Mg  Mg3  1  0.50501900  0.00771400  0.69732100  1
  Mg  Mg4  1  0.22209000  0.41075700  0.48073100  1
  Mg  Mg5  1  0.21708400  0.61699400  0.15217900  1
  Mg  Mg6  1  0.64127800  0.26127800  0.82357800  1
  Mg  Mg7  1  0.59607000  0.45759800  0.60431300  1
  Mg  Mg8  1  0.03389000  0.19453800  0.33677300  1
  Mg  Mg9  1  0.99550200  0.80062500  0.42032400  1
  Mg  Mg10  1  0.93748400  0.35367900  0.02639100  1
  Mg  Mg11  1  0.19742800  0.06630500  0.54901200  1
  Mg  Mg12  1  0.04309300  0.56402500  0.61365400  1
  Mg  Mg13  1  0.17441200  0.78946600  0.95664100  1
  Mg  Mg14  1  0.93244200  0.67617800  0.87143300  1
  Mg  Mg15  1  0.90435600  0.71349300  0.17061900  1
  Mg  Mg16  1  0.82076200  0.10154100  0.98357600  1
  Mg  Mg17  1  0.68928100  0.87677600  0.94928700  1
  Mg  Mg18  1  0.52617100  0.69227800  0.78386500  1
  Mg  Mg19  1  0.32079100  0.98245200  0.26983400  1
  Mg  Mg20  1  0.81626500  0.31544000  0.46625500  1
  Mg  Mg21  1  0.71342100  0.98509400  0.31216100  1
  Mg  Mg22  1  0.39147000  0.97472300  0.95291100  1
  Mg  Mg23  1  0.41922600  0.46380100  0.96850800  1
  Mg  Mg24  1  0.75061400  0.64199700  0.43607100  1
  Mg  Mg25  1  0.54901600  0.14900300  0.10151900  1
  Mg  Mg26  1  0.26612400  0.71162000  0.37264500  1
  Mg  Mg27  1  0.23404100  0.77066000  0.64110900  1
  Mg  Mg28  1  0.29270500  0.27920200  0.21243600  1
  Mg  Mg29  1  0.44925900  0.18276500  0.43600800  1
  Mg  Mg30  1  0.68025800  0.40958600  0.19242200  1
  Mg  Mg31  1  0.47007700  0.48099100  0.35238300  1
  Mg  Mg32  1  0.97966300  0.28280400  0.73683200  1
  Mg  Mg33  1  0.02454200  0.46905600  0.27141500  1
  Mg  Mg34  1  0.33656800  0.30161400  0.71038700  1
  Mg  Mg35  1  0.02143200  0.99663700  0.81383700  1
  Mg  Mg36  1  0.52409300  0.82119100  0.49301500  1
  Mg  Mg37  1  0.76397500  0.79292000  0.67406600  1
  Mg  Mg38  1  0.18262300  0.16875100  0.98472700  1
  Mg  Mg39  1  0.81985800  0.07358900  0.60393000  1
  O  O0  1  0.70191100  0.00773100  0.10986500  1
  O  O1  1  0.72694400  0.29392700  0.00612600  1
  O  O2  1  0.94560900  0.46854500  0.86393800  1
  O  O3  1  0.84831500  0.12511800  0.39264000  1
  O  O4  1  0.55034100  0.45332000  0.80694100  1
  O  O5  1  0.42734700  0.37760700  0.52665400  1
  O  O6  1  0.41667500  0.82729700  0.67888000  1
  O  O7  1  0.90466700  0.69596500  0.56137200  1
  O  O8  1  0.47509600  0.68675100  0.34725600  1
  O  O9  1  0.10491100  0.69610200  0.77414600  1
  O  O10  1  0.06559000  0.66660900  0.27855900  1
  O  O11  1  0.86161200  0.50761000  0.14824900  1
  O  O12  1  0.37220400  0.12658100  0.61892700  1
  O  O13  1  0.28709700  0.32531100  0.90653900  1
  O  O14  1  0.29217100  0.80343000  0.17549300  1
  O  O15  1  0.21654200  0.60836300  0.52690400  1
  O  O16  1  0.20439800  0.97562900  0.88957100  1
  O  O17  1  0.73457300  0.69480800  0.85229300  1
  O  O18  1  0.14851100  0.38406700  0.67469800  1
  O  O19  1  0.34221000  0.10428100  0.10646000  1
  O  O20  1  0.97855600  0.79847500  0.01610300  1
  O  O21  1  0.54018500  0.09665800  0.87613100  1
  O  O22  1  0.50425700  0.99473300  0.35715800  1
  O  O23  1  0.80671800  0.80109000  0.32447400  1
  O  O24  1  0.50245700  0.80709500  0.96192000  1
  O  O25  1  0.50778400  0.29102300  0.24716800  1
  O  O26  1  0.01922600  0.09423400  0.64168000  1
  O  O27  1  0.66819200  0.94717500  0.58288700  1
  O  O28  1  0.56145800  0.53819900  0.08903000  1
  O  O29  1  0.18099600  0.88255500  0.46524000  1
  O  O30  1  0.62474100  0.65755800  0.59751400  1
  O  O31  1  0.23440200  0.16738200  0.37547900  1
  O  O32  1  0.07895400  0.28721400  0.16068400  1
  O  O33  1  0.81980100  0.96837800  0.81732500  1
  O  O34  1  0.68832100  0.45124400  0.39838700  1
  O  O35  1  0.27111400  0.47195500  0.27888100  1
  O  O36  1  0.26659400  0.60057700  0.97085200  1
  O  O37  1  0.76239600  0.27773700  0.65734500  1
  O  O38  1  0.99105000  0.18175800  0.91642500  1
  O  O39  1  0.00465400  0.38121700  0.44134500  1
loop_
_geom_bond_atom_site_label_1
_geom_bond_atom_site_label_2
_geom_bond_distance
_geom_bond_site_symmetry_2
Mg0 O28 2.027636 1_555
Mg0 O24 2.034781 1_554
Mg0 O14 2.037901 1_555
Mg0 O8 2.075084 1_555
Mg1 O36 1.959908 1_555
Mg1 O18 2.019615 1_555
Mg1 O2 2.099319 1_455
Mg1 O13 2.123287 1_555
Mg1 O9 2.229879 1_555
Mg2 O17 2.010193 1_555
Mg2 O28 2.047115 1_556
Mg2 O4 2.182721 1_555
Mg2 O1 2.272981 1_556
Mg2 O2 2.452210 1_555
Mg2 O11 2.588801 1_556
Mg3 O12 1.926759 1_555
Mg3 O6 1.982451 1_545
Mg3 O27 2.014576 1_545
Mg3 O21 2.019533 1_555
Mg4 O15 1.971520 1_555
Mg4 O18 2.086868 1_555
Mg4 O5 2.096987 1_555
Mg4 O35 2.176141 1_555
Mg4 O39 2.199972 1_555
Mg4 O31 2.575262 1_555
Mg5 O36 1.877854 1_554
Mg5 O10 1.972745 1_555
Mg5 O14 1.985468 1_555
Mg5 O35 2.003893 1_555
Mg6 O21 1.978054 1_555
Mg6 O37 2.035530 1_555
Mg6 O1 2.061583 1_556
Mg6 O4 2.073447 1_555
Mg7 O30 1.979203 1_555
Mg7 O5 2.009821 1_555
Mg7 O4 2.078052 1_555
Mg7 O34 2.237205 1_555
Mg7 O37 2.452708 1_555
Mg8 O3 2.021233 1_455
Mg8 O31 2.027137 1_555
Mg8 O32 2.051625 1_555
Mg8 O39 2.091730 1_555
Mg9 O7 1.971746 1_555
Mg9 O10 2.008941 1_655
Mg9 O29 2.055350 1_655
Mg9 O23 2.109770 1_555
Mg10 O2 2.007207 1_554
Mg10 O11 2.031814 1_555
Mg10 O38 2.038736 1_554
Mg10 O32 2.070729 1_655
Mg10 O1 2.166776 1_555
Mg11 O12 1.963345 1_555
Mg11 O26 1.967149 1_555
Mg11 O29 1.973122 1_545
Mg11 O31 2.055009 1_555
Mg12 O7 1.945877 1_455
Mg12 O15 1.948995 1_555
Mg12 O18 2.134296 1_555
Mg12 O9 2.148248 1_555
Mg12 O39 2.497175 1_555
Mg13 O16 1.978472 1_555
Mg13 O20 1.993225 1_456
Mg13 O36 2.048299 1_555
Mg13 O9 2.162470 1_555
Mg13 O14 2.517524 1_556
Mg14 O20 1.927954 1_556
Mg14 O9 1.944071 1_655
Mg14 O17 1.958760 1_555
Mg14 O2 2.027508 1_555
Mg15 O20 1.913324 1_555
Mg15 O23 1.965775 1_555
Mg15 O10 1.995292 1_655
Mg15 O11 2.067680 1_555
Mg16 O0 1.955737 1_556
Mg16 O38 1.965307 1_555
Mg16 O1 2.079905 1_556
Mg16 O33 2.092893 1_545
Mg17 O24 1.965453 1_555
Mg17 O17 2.040205 1_555
Mg17 O0 2.042821 1_566
Mg17 O33 2.050679 1_555
Mg18 O6 2.022194 1_555
Mg18 O24 2.094582 1_555
Mg18 O30 2.102605 1_555
Mg18 O17 2.173081 1_555
Mg18 O4 2.357973 1_555
Mg19 O14 1.995073 1_555
Mg19 O22 2.026826 1_555
Mg19 O19 2.062490 1_565
Mg19 O31 2.213734 1_565
Mg19 O29 2.586717 1_555
Mg20 O34 1.956977 1_555
Mg20 O39 1.975966 1_655
Mg20 O3 1.998272 1_555
Mg20 O37 2.025306 1_555
Mg21 O23 2.008628 1_555
Mg21 O0 2.060463 1_565
Mg21 O3 2.082665 1_565
Mg21 O22 2.085684 1_555
Mg22 O24 1.953493 1_555
Mg22 O16 1.957007 1_555
Mg22 O19 2.014237 1_566
Mg22 O21 2.044854 1_565
Mg23 O36 1.985613 1_555
Mg23 O13 1.988828 1_555
Mg23 O28 2.006624 1_556
Mg23 O4 2.043316 1_555
Mg24 O34 1.999777 1_555
Mg24 O30 2.013228 1_555
Mg24 O23 2.015162 1_555
Mg24 O7 2.060901 1_555
Mg25 O25 2.019067 1_555
Mg25 O0 2.022412 1_555
Mg25 O19 2.079230 1_555
Mg25 O21 2.317599 1_554
Mg25 O1 2.454374 1_555
Mg26 O15 1.928574 1_555
Mg26 O29 2.042990 1_555
Mg26 O8 2.064821 1_555
Mg26 O14 2.209002 1_555
Mg26 O10 2.250040 1_555
Mg26 O35 2.498804 1_555
Mg27 O6 1.926923 1_555
Mg27 O15 1.946105 1_555
Mg27 O9 1.977654 1_555
Mg27 O29 2.174716 1_555
Mg28 O35 1.985951 1_555
Mg28 O19 2.033560 1_555
Mg28 O31 2.067308 1_555
Mg28 O25 2.149837 1_555
Mg28 O32 2.172285 1_555
Mg29 O22 2.038024 1_545
Mg29 O12 2.061755 1_555
Mg29 O5 2.092808 1_555
Mg29 O31 2.213984 1_555
Mg29 O25 2.263588 1_555
Mg30 O28 2.024052 1_555
Mg30 O11 2.075201 1_555
Mg30 O34 2.106898 1_555
Mg30 O25 2.132335 1_555
Mg30 O1 2.196754 1_555
Mg31 O8 2.011535 1_555
Mg31 O5 2.082555 1_555
Mg31 O35 2.106519 1_555
Mg31 O25 2.132644 1_555
Mg31 O34 2.215647 1_555
Mg32 O18 2.033511 1_655
Mg32 O26 2.077881 1_655
Mg32 O38 2.086651 1_555
Mg32 O2 2.206771 1_555
Mg32 O37 2.295540 1_555
Mg33 O39 1.939856 1_555
Mg33 O10 1.976402 1_555
Mg33 O11 2.083376 1_455
Mg33 O32 2.123038 1_555
Mg33 O35 2.419082 1_555
Mg34 O12 1.940974 1_555
Mg34 O13 2.026665 1_555
Mg34 O18 2.041800 1_555
Mg34 O5 2.182781 1_555
Mg35 O16 1.976664 1_555
Mg35 O33 1.998442 1_455
Mg35 O26 1.999711 1_565
Mg35 O38 2.070468 1_465
Mg36 O8 2.017057 1_555
Mg36 O27 2.097436 1_555
Mg36 O6 2.119858 1_555
Mg36 O30 2.172128 1_555
Mg36 O22 2.213617 1_555
Mg37 O7 1.972790 1_555
Mg37 O27 2.014637 1_555
Mg37 O30 2.066445 1_555
Mg37 O17 2.071071 1_555
Mg37 O33 2.293968 1_555
Mg38 O13 2.018398 1_555
Mg38 O38 2.019603 1_455
Mg38 O16 2.096851 1_545
Mg38 O19 2.110503 1_556
Mg38 O32 2.292946 1_556
Mg39 O27 1.960483 1_545
Mg39 O26 2.012553 1_655
Mg39 O37 2.112640 1_555
Mg39 O3 2.209793 1_555
Mg39 O33 2.405098 1_545
