# generated using pymatgen
data_K2MgFe(SiO3)8
_symmetry_space_group_name_H-M   'P 1'
_cell_length_a   5.24782100
_cell_length_b   9.10369125
_cell_length_c   10.96520551
_cell_angle_alpha   100.30479552
_cell_angle_beta   97.48604693
_cell_angle_gamma   89.89860866
_symmetry_Int_Tables_number   1
_chemical_formula_structural   K2MgFe(SiO3)8
_chemical_formula_sum   'K2 Mg1 Fe1 Si8 O24'
_cell_volume   510.89031217
_cell_formula_units_Z   1
loop_
 _symmetry_equiv_pos_site_id
 _symmetry_equiv_pos_as_xyz
  1  'x, y, z'
loop_
 _atom_site_type_symbol
 _atom_site_label
 _atom_site_symmetry_multiplicity
 _atom_site_fract_x
 _atom_site_fract_y
 _atom_site_fract_z
 _atom_site_occupancy
  K  K0  1  0.25982400  0.24772700  0.50207200  1
  K  K1  1  0.76003300  0.74493500  0.50253700  1
  Mg  Mg0  1  0.40690100  0.85746000  0.00249600  1
  Fe  Fe0  1  0.94441400  0.34999300  0.99885800  1
  Si  Si0  1  0.72294400  0.36721300  0.27311300  1
  Si  Si1  1  0.20926100  0.86924800  0.27950800  1
  Si  Si2  1  0.70605200  0.03261000  0.27925000  1
  Si  Si3  1  0.21402900  0.53131500  0.27528400  1
  Si  Si4  1  0.80983500  0.12553100  0.72248300  1
  Si  Si5  1  0.31053100  0.62648900  0.72577700  1
  Si  Si6  1  0.80904100  0.45371000  0.72423400  1
  Si  Si7  1  0.31178300  0.95492500  0.72436900  1
  O  O0  1  0.71377100  0.21398400  0.33404100  1
  O  O1  1  0.21390000  0.71181500  0.33456900  1
  O  O2  1  0.99212100  0.45874500  0.34295600  1
  O  O3  1  0.48202200  0.95878000  0.34564100  1
  O  O4  1  0.79912600  0.27532500  0.65490200  1
  O  O5  1  0.30462300  0.77532100  0.65746500  1
  O  O6  1  0.53712500  0.03357300  0.66347200  1
  O  O7  1  0.03689100  0.53450300  0.66705600  1
  O  O8  1  0.49535100  0.47308000  0.33161600  1
  O  O9  1  0.98045200  0.97008500  0.34152400  1
  O  O10  1  0.03541600  0.01837500  0.66489900  1
  O  O11  1  0.53598200  0.52057300  0.66567800  1
  O  O12  1  0.14661100  0.25421100  0.13388800  1
  O  O13  1  0.78430100  0.76816400  0.09074000  1
  O  O14  1  0.19508100  0.29402500  0.86972800  1
  O  O15  1  0.70981600  0.77960500  0.88796700  1
  O  O16  1  0.70468100  0.33912500  0.12298900  1
  O  O17  1  0.18004000  0.84548700  0.12969800  1
  O  O18  1  0.65165200  0.99629800  0.12926000  1
  O  O19  1  0.16769400  0.49991700  0.12435200  1
  O  O20  1  0.83879000  0.16373500  0.87356300  1
  O  O21  1  0.33947600  0.66309300  0.87657800  1
  O  O22  1  0.84260600  0.47599800  0.87418700  1
  O  O23  1  0.35342100  0.97982700  0.87324800  1
loop_
_geom_bond_atom_site_label_1
_geom_bond_atom_site_label_2
_geom_bond_distance
_geom_bond_site_symmetry_2
K0 O11 3.037999 1_555
K0 O2 3.042869 1_455
K0 O9 3.063631 1_445
K0 O4 3.081773 1_555
K0 O6 3.099038 1_555
K0 O4 3.101528 1_455
K0 O0 3.178491 1_555
K0 O3 3.180789 1_545
K0 O0 3.182076 1_455
K0 O7 3.210649 1_555
K0 O10 3.290057 1_555
K0 O8 3.348556 1_555
K1 O10 3.035047 1_665
K1 O8 3.039953 1_555
K1 O3 3.067968 1_555
K1 O5 3.092187 1_555
K1 O7 3.094969 1_655
K1 O5 3.114441 1_655
K1 O1 3.177741 1_655
K1 O1 3.182151 1_555
K1 O2 3.201002 1_555
K1 O6 3.202373 1_565
K1 O9 3.239078 1_555
K1 O11 3.258560 1_555
Mg0 O23 1.946376 1_554
Mg0 O17 1.965255 1_555
Mg0 O18 2.022702 1_555
Mg0 O21 2.040441 1_554
Mg0 O15 2.191845 1_554
Mg0 O13 2.301300 1_555
Fe0 O22 1.959252 1_555
Fe0 O16 1.984947 1_556
Fe0 O20 2.010327 1_555
Fe0 O19 2.010709 1_656
Fe0 O12 2.031692 1_656
Fe0 O14 2.054206 1_655
O0 Si2 1.651651 1_555
O0 Si0 1.654262 1_555
O1 Si1 1.650717 1_555
O1 Si3 1.655504 1_555
O2 Si3 1.657257 1_655
O2 Si0 1.664406 1_555
O3 Si1 1.661718 1_555
O3 Si2 1.662766 1_565
O4 Si4 1.662027 1_555
O4 Si6 1.663194 1_555
O5 Si5 1.659746 1_555
O5 Si7 1.666407 1_555
O6 Si7 1.654317 1_545
O6 Si4 1.654331 1_555
O7 Si6 1.651438 1_455
O7 Si5 1.657831 1_555
O8 Si3 1.648915 1_555
O8 Si0 1.655681 1_555
O9 Si1 1.653013 1_655
O9 Si2 1.656449 1_565
O10 Si4 1.649860 1_455
O10 Si7 1.657617 1_545
O11 Si6 1.653229 1_555
O11 Si5 1.653961 1_555
O16 Si0 1.610196 1_555
O17 Si1 1.605027 1_555
O18 Si2 1.605988 1_565
O19 Si3 1.614309 1_555
O20 Si4 1.617687 1_555
O21 Si5 1.614306 1_555
O22 Si6 1.606581 1_555
O23 Si7 1.593418 1_555
