# generated using pymatgen
data_HfFeSi
_symmetry_space_group_name_H-M   'P 1'
_cell_length_a   3.97073167
_cell_length_b   6.31950291
_cell_length_c   6.82827314
_cell_angle_alpha   90.00000000
_cell_angle_beta   90.00000000
_cell_angle_gamma   90.00000000
_symmetry_Int_Tables_number   1
_chemical_formula_structural   HfFeSi
_chemical_formula_sum   'Hf4 Fe4 Si4'
_cell_volume   171.34220166
_cell_formula_units_Z   4
loop_
 _symmetry_equiv_pos_site_id
 _symmetry_equiv_pos_as_xyz
  1  'x, y, z'
loop_
 _atom_site_type_symbol
 _atom_site_label
 _atom_site_symmetry_multiplicity
 _atom_site_fract_x
 _atom_site_fract_y
 _atom_site_fract_z
 _atom_site_occupancy
  Hf  Hf0  1  0.75000000  0.51068166  0.19896156  1
  Hf  Hf1  1  0.75000000  0.01068166  0.30103844  1
  Hf  Hf2  1  0.25000000  0.48931834  0.80103844  1
  Hf  Hf3  1  0.25000000  0.98931834  0.69896156  1
  Fe  Fe0  1  0.75000000  0.34395135  0.55917730  1
  Fe  Fe1  1  0.75000000  0.84395135  0.94082270  1
  Fe  Fe2  1  0.25000000  0.65604865  0.44082270  1
  Fe  Fe3  1  0.25000000  0.15604865  0.05917730  1
  Si  Si0  1  0.75000000  0.20860127  0.89238307  1
  Si  Si1  1  0.75000000  0.70860127  0.60761693  1
  Si  Si2  1  0.25000000  0.79139873  0.10761693  1
  Si  Si3  1  0.25000000  0.29139873  0.39238307  1
loop_
_geom_bond_atom_site_label_1
_geom_bond_atom_site_label_2
_geom_bond_distance
_geom_bond_site_symmetry_2
Hf0 Si2 2.734549 1_655
Hf0 Si2 2.734549 1_555
Hf0 Si3 2.757961 1_655
Hf0 Si3 2.757961 1_555
Hf0 Si0 2.833126 1_554
Hf1 Si3 2.734549 1_555
Hf1 Si3 2.734549 1_655
Hf1 Si2 2.757961 1_645
Hf1 Si2 2.757961 1_545
Hf1 Si1 2.833126 1_545
Hf2 Si0 2.734549 1_455
Hf2 Si0 2.734549 1_555
Hf2 Si1 2.757961 1_555
Hf2 Si1 2.757961 1_455
Hf2 Si2 2.833126 1_556
Hf3 Si1 2.734549 1_455
Hf3 Si1 2.734549 1_555
Hf3 Si0 2.757961 1_465
Hf3 Si0 2.757961 1_565
Hf3 Si3 2.833126 1_565
Fe0 Si3 2.312813 1_555
Fe0 Si3 2.312813 1_655
Fe0 Si1 2.328023 1_555
Fe0 Si0 2.430687 1_555
Fe0 Hf0 2.675831 1_555
Fe0 Hf2 2.740989 1_655
Fe0 Hf2 2.740989 1_555
Fe0 Hf1 2.746372 1_555
Fe1 Si2 2.312813 1_556
Fe1 Si2 2.312813 1_656
Fe1 Si0 2.328023 1_565
Fe1 Si1 2.430687 1_555
Fe1 Hf1 2.675831 1_566
Fe1 Hf3 2.740989 1_555
Fe1 Hf3 2.740989 1_655
Fe1 Hf0 2.746372 1_556
Fe2 Si1 2.312813 1_455
Fe2 Si1 2.312813 1_555
Fe2 Si3 2.328023 1_555
Fe2 Si2 2.430687 1_555
Fe2 Hf2 2.675831 1_555
Fe2 Hf0 2.740989 1_455
Fe2 Hf0 2.740989 1_555
Fe2 Hf3 2.746372 1_555
Fe3 Si0 2.312813 1_454
Fe3 Si0 2.312813 1_554
Fe3 Si2 2.328023 1_545
Fe3 Si3 2.430687 1_555
Fe3 Hf3 2.675831 1_544
Fe3 Hf1 2.740989 1_555
Fe3 Hf1 2.740989 1_455
Fe3 Hf2 2.746372 1_554
