# generated using pymatgen
data_Sc5Si7Pt9
_symmetry_space_group_name_H-M   'P 1'
_cell_length_a   9.97088727
_cell_length_b   9.97088656
_cell_length_c   3.89898711
_cell_angle_alpha   90.00000892
_cell_angle_beta   90.00000023
_cell_angle_gamma   120.00004195
_symmetry_Int_Tables_number   1
_chemical_formula_structural   Sc5Si7Pt9
_chemical_formula_sum   'Sc5 Si7 Pt9'
_cell_volume   335.69883089
_cell_formula_units_Z   1
loop_
 _symmetry_equiv_pos_site_id
 _symmetry_equiv_pos_as_xyz
  1  'x, y, z'
loop_
 _atom_site_type_symbol
 _atom_site_label
 _atom_site_symmetry_multiplicity
 _atom_site_fract_x
 _atom_site_fract_y
 _atom_site_fract_z
 _atom_site_occupancy
  Sc  Sc0  1  0.99999930  -0.00000008  0.00000042  1
  Sc  Sc1  1  0.33333460  0.66666768  0.49999972  1
  Sc  Sc2  1  0.89683408  0.45877150  0.49999957  1
  Sc  Sc3  1  0.56193741  0.10316561  0.49999976  1
  Sc  Sc4  1  0.54122968  0.43806411  0.50000006  1
  Si  Si0  1  0.23996029  0.18945123  0.50000025  1
  Si  Si1  1  0.81054846  0.05050856  0.50000018  1
  Si  Si2  1  0.94949074  0.76003975  0.50000020  1
  Si  Si3  1  0.55461311  0.64882410  -0.00000002  1
  Si  Si4  1  0.35117555  0.90578951  -0.00000012  1
  Si  Si5  1  0.09421080  0.44538612  -0.00000021  1
  Si  Si6  1  0.66666658  0.33333342  -0.00000031  1
  Pt  Pt0  1  0.21644557  0.93587429  0.50000007  1
  Pt  Pt1  1  0.06412518  0.28057069  0.49999999  1
  Pt  Pt2  1  0.71942718  0.78355330  0.50000011  1
  Pt  Pt3  1  0.31609927  0.41710399  -0.00000010  1
  Pt  Pt4  1  0.58289524  0.89899467  -0.00000008  1
  Pt  Pt5  1  0.10100544  0.68389998  -0.00000014  1
  Pt  Pt6  1  0.38226508  0.17204565  0.00000034  1
  Pt  Pt7  1  0.82795427  0.21021895  0.00000018  1
  Pt  Pt8  1  0.78978115  0.61773599  0.00000013  1
loop_
_geom_bond_atom_site_label_1
_geom_bond_atom_site_label_2
_geom_bond_distance
_geom_bond_site_symmetry_2
Sc0 Si1 2.928101 1_555
Sc0 Si1 2.928102 1_554
Sc0 Si2 2.928106 1_545
Sc0 Si2 2.928106 1_544
Sc0 Si0 2.928108 1_655
Sc0 Si0 2.928109 1_654
Sc1 Si3 3.015405 1_555
Sc1 Si3 3.015407 1_556
Sc1 Si4 3.015413 1_555
Sc1 Si4 3.015413 1_556
Sc1 Si5 3.015422 1_555
Sc1 Si5 3.015423 1_556
Sc2 Si2 2.778847 1_555
Sc2 Si6 2.785921 1_555
Sc2 Si6 2.785922 1_556
Sc2 Si5 2.820302 1_655
Sc2 Si5 2.820303 1_656
Sc3 Si1 2.778845 1_555
Sc3 Si6 2.785923 1_556
Sc3 Si6 2.785924 1_555
Sc3 Si4 2.820298 1_545
Sc3 Si4 2.820299 1_546
Sc4 Si0 2.778857 1_555
Sc4 Si6 2.785922 1_556
Sc4 Si6 2.785924 1_555
Sc4 Si3 2.820293 1_556
Sc4 Si3 2.820294 1_555
Pt0 Si2 2.343535 1_455
Pt0 Si0 2.419690 1_565
Pt0 Si4 2.469442 1_556
Pt0 Si4 2.469443 1_555
Pt0 Pt6 2.861117 1_565
Pt0 Pt6 2.861118 1_566
Pt0 Sc3 2.983831 1_565
Pt0 Sc0 3.201079 1_465
Pt0 Sc0 3.201081 1_466
Pt1 Si0 2.343535 1_555
Pt1 Si1 2.419687 1_455
Pt1 Si5 2.469444 1_556
Pt1 Si5 2.469446 1_555
Pt1 Pt7 2.861115 1_455
Pt1 Pt7 2.861116 1_456
Pt1 Sc2 2.983833 1_455
Pt1 Sc0 3.201068 1_455
Pt1 Sc0 3.201071 1_456
Pt2 Si1 2.343537 1_565
Pt2 Si2 2.419697 1_555
Pt2 Si3 2.469437 1_556
Pt2 Si3 2.469438 1_555
Pt2 Pt8 2.861114 1_555
Pt2 Pt8 2.861115 1_556
Pt2 Sc4 2.983807 1_555
Pt2 Sc0 3.201080 1_565
Pt2 Sc0 3.201081 1_566
Pt3 Si3 2.345057 1_555
Pt3 Si5 2.366061 1_555
Pt3 Si0 2.793932 1_554
Pt3 Si0 2.793935 1_555
Pt3 Pt6 2.831556 1_555
Pt3 Sc4 2.900684 1_554
Pt3 Sc4 2.900685 1_555
Pt3 Sc1 3.097485 1_555
Pt3 Sc1 3.097487 1_554
Pt4 Si4 2.345060 1_555
Pt4 Si3 2.366061 1_555
Pt4 Si1 2.793935 1_564
Pt4 Si1 2.793936 1_565
Pt4 Pt7 2.831557 1_565
Pt4 Sc3 2.900679 1_565
Pt4 Sc3 2.900681 1_564
Pt4 Sc1 3.097467 1_555
Pt4 Sc1 3.097467 1_554
Pt5 Si5 2.345054 1_555
Pt5 Si4 2.366061 1_555
Pt5 Si2 2.793944 1_454
Pt5 Si2 2.793946 1_455
Pt5 Pt8 2.831563 1_455
Pt5 Sc2 2.900678 1_455
Pt5 Sc2 2.900679 1_454
Pt5 Sc1 3.097479 1_555
Pt5 Sc1 3.097480 1_554
Pt6 Si6 2.463181 1_555
Pt6 Si0 2.467830 1_555
Pt6 Si0 2.467830 1_554
Pt6 Si4 2.514188 1_545
Pt6 Sc3 2.951616 1_555
Pt6 Sc3 2.951619 1_554
Pt6 Sc4 3.023916 1_555
Pt6 Sc4 3.023918 1_554
Pt6 Sc0 3.306362 1_455
Pt7 Si6 2.463188 1_555
Pt7 Si1 2.467829 1_554
Pt7 Si1 2.467830 1_555
Pt7 Si5 2.514192 1_655
Pt7 Sc2 2.951617 1_555
Pt7 Sc2 2.951621 1_554
Pt7 Sc3 3.023906 1_555
Pt7 Sc3 3.023908 1_554
Pt7 Sc0 3.306348 1_555
Pt8 Si6 2.463190 1_555
Pt8 Si2 2.467824 1_554
Pt8 Si2 2.467824 1_555
Pt8 Si3 2.514195 1_555
Pt8 Sc4 2.951611 1_554
Pt8 Sc4 2.951611 1_555
Pt8 Sc2 3.023911 1_555
Pt8 Sc2 3.023913 1_554
Pt8 Sc0 3.306345 1_565
