# generated using pymatgen
data_LiBiF2
_symmetry_space_group_name_H-M   'P 1'
_cell_length_a   6.90793001
_cell_length_b   6.90793001
_cell_length_c   6.90793001
_cell_angle_alpha   107.68334775
_cell_angle_beta   107.68334775
_cell_angle_gamma   113.10937772
_symmetry_Int_Tables_number   1
_chemical_formula_structural   LiBiF2
_chemical_formula_sum   'Li4 Bi4 F8'
_cell_volume   252.98670335
_cell_formula_units_Z   4
loop_
 _symmetry_equiv_pos_site_id
 _symmetry_equiv_pos_as_xyz
  1  'x, y, z'
loop_
 _atom_site_type_symbol
 _atom_site_label
 _atom_site_symmetry_multiplicity
 _atom_site_fract_x
 _atom_site_fract_y
 _atom_site_fract_z
 _atom_site_occupancy
  Li  Li0  1  0.12500000  0.37500000  0.25000000  1
  Li  Li1  1  0.12500000  0.87500000  0.75000000  1
  Li  Li2  1  0.62500000  0.87500000  0.75000000  1
  Li  Li3  1  0.12500000  0.87500000  0.25000000  1
  Bi  Bi0  1  0.62500000  0.87500000  0.25000000  1
  Bi  Bi1  1  0.62500000  0.37500000  0.75000000  1
  Bi  Bi2  1  0.12500000  0.37500000  0.75000000  1
  Bi  Bi3  1  0.62500000  0.37500000  0.25000000  1
  F  F0  1  0.32676800  0.74579500  0.76969500  1
  F  F1  1  0.97610000  0.55707300  0.23030500  1
  F  F2  1  0.99579500  0.72610000  0.91902700  1
  F  F3  1  0.92323200  0.00420500  0.73030500  1
  F  F4  1  0.80707300  0.07676800  0.08097300  1
  F  F5  1  0.27390000  0.19292700  0.26969500  1
  F  F6  1  0.25420500  0.02390000  0.58097300  1
  F  F7  1  0.44292700  0.67323200  0.41902700  1
loop_
_geom_bond_atom_site_label_1
_geom_bond_atom_site_label_2
_geom_bond_distance
_geom_bond_site_symmetry_2
Bi0 F7 2.322224 1_555
Bi0 F4 2.322224 1_565
Bi1 F6 2.322224 1_555
Bi1 F2 2.322224 1_555
Bi2 F3 2.322224 1_455
Bi2 F0 2.322224 1_555
Bi3 F1 2.322224 1_555
Bi3 F5 2.322224 1_555
F0 Li1 1.921694 1_555
F0 Li2 1.964707 1_555
F1 Li0 1.921694 1_655
F1 Li3 1.964707 1_655
F2 Li3 1.921694 1_656
F2 Li1 1.964707 1_655
F3 Li1 1.921694 1_645
F3 Li2 1.964707 1_545
F4 Li2 1.921694 1_544
F4 Li0 1.964707 1_655
F5 Li0 1.921694 1_555
F5 Li3 1.964707 1_545
F6 Li3 1.921694 1_545
F6 Li1 1.964707 1_545
F7 Li2 1.921694 1_555
F7 Li0 1.964707 1_555
