# generated using pymatgen
data_Pr(YS2)3
_symmetry_space_group_name_H-M   'P 1'
_cell_length_a   4.00099990
_cell_length_b   11.09504233
_cell_length_c   11.37159960
_cell_angle_alpha   71.24804220
_cell_angle_beta   90.00000000
_cell_angle_gamma   90.00000000
_symmetry_Int_Tables_number   1
_chemical_formula_structural   Pr(YS2)3
_chemical_formula_sum   'Pr2 Y6 S12'
_cell_volume   478.00447321
_cell_formula_units_Z   2
loop_
 _symmetry_equiv_pos_site_id
 _symmetry_equiv_pos_as_xyz
  1  'x, y, z'
loop_
 _atom_site_type_symbol
 _atom_site_label
 _atom_site_symmetry_multiplicity
 _atom_site_fract_x
 _atom_site_fract_y
 _atom_site_fract_z
 _atom_site_occupancy
  Pr  Pr0  1  0.75000000  0.54901254  0.80547596  1
  Pr  Pr1  1  0.25000000  0.45098746  0.19452404  1
  Y  Y0  1  0.75000000  0.18008735  0.99809042  1
  Y  Y1  1  0.25000000  0.81991265  0.00190958  1
  Y  Y2  1  0.75000000  0.94083400  0.66722216  1
  Y  Y3  1  0.25000000  0.05916600  0.33277784  1
  Y  Y4  1  0.75000000  0.66148593  0.41322860  1
  Y  Y5  1  0.25000000  0.33851407  0.58677140  1
  S  S0  1  0.75000000  0.97788433  0.88813183  1
  S  S1  1  0.25000000  0.02211567  0.11186817  1
  S  S2  1  0.75000000  0.30423253  0.74876100  1
  S  S3  1  0.25000000  0.69576747  0.25123900  1
  S  S4  1  0.75000000  0.89499361  0.44121652  1
  S  S5  1  0.25000000  0.10500639  0.55878348  1
  S  S6  1  0.75000000  0.41792459  0.40633218  1
  S  S7  1  0.25000000  0.58207541  0.59366782  1
  S  S8  1  0.75000000  0.23510757  0.22771479  1
  S  S9  1  0.25000000  0.76489243  0.77228521  1
  S  S10  1  0.75000000  0.61812734  0.03675622  1
  S  S11  1  0.25000000  0.38187266  0.96324378  1
loop_
_geom_bond_atom_site_label_1
_geom_bond_atom_site_label_2
_geom_bond_distance
_geom_bond_site_symmetry_2
Pr0 S11 2.918995 1_555
Pr0 S11 2.918995 1_655
Pr0 S10 2.966774 1_556
Pr0 S2 2.986287 1_555
Pr0 S9 3.049620 1_555
Pr0 S9 3.049620 1_655
Pr0 S7 3.061018 1_555
Pr0 S7 3.061018 1_655
Pr1 S10 2.918995 1_555
Pr1 S10 2.918995 1_455
Pr1 S11 2.966774 1_554
Pr1 S3 2.986287 1_555
Pr1 S8 3.049620 1_555
Pr1 S8 3.049620 1_455
Pr1 S6 3.061018 1_455
Pr1 S6 3.061018 1_555
S0 Y2 2.672743 1_555
S0 Y1 2.699994 1_656
S0 Y1 2.699994 1_556
S0 Y0 2.898307 1_565
S1 Y3 2.672743 1_555
S1 Y0 2.699994 1_554
S1 Y0 2.699994 1_454
S1 Y1 2.898307 1_545
S2 Y5 2.662603 1_655
S2 Y5 2.662603 1_555
S2 Y0 2.724906 1_555
S3 Y4 2.662603 1_555
S3 Y4 2.662603 1_455
S3 Y1 2.724906 1_555
S4 Y4 2.709902 1_555
S4 Y3 2.719617 1_665
S4 Y3 2.719617 1_565
S4 Y2 2.775648 1_555
S5 Y5 2.709902 1_555
S5 Y2 2.719617 1_445
S5 Y2 2.719617 1_545
S5 Y3 2.775648 1_555
S6 Y4 2.728545 1_555
S6 Y5 2.797527 1_555
S6 Y5 2.797527 1_655
S7 Y5 2.728545 1_555
S7 Y4 2.797527 1_455
S7 Y4 2.797527 1_555
S8 Y3 2.782179 1_555
S8 Y3 2.782179 1_655
S8 Y0 2.866331 1_554
S9 Y2 2.782179 1_455
S9 Y2 2.782179 1_555
S9 Y1 2.866331 1_556
S10 Y1 2.932734 1_655
S10 Y1 2.932734 1_555
S11 Y0 2.932734 1_555
S11 Y0 2.932734 1_455
