# generated using pymatgen
data_CaFeO3
_symmetry_space_group_name_H-M   'P 1'
_cell_length_a   5.29247074
_cell_length_b   5.32339252
_cell_length_c   7.48776665
_cell_angle_alpha   90.00018674
_cell_angle_beta   89.99978053
_cell_angle_gamma   89.99997506
_symmetry_Int_Tables_number   1
_chemical_formula_structural   CaFeO3
_chemical_formula_sum   'Ca4 Fe4 O12'
_cell_volume   210.95958245
_cell_formula_units_Z   4
loop_
 _symmetry_equiv_pos_site_id
 _symmetry_equiv_pos_as_xyz
  1  'x, y, z'
loop_
 _atom_site_type_symbol
 _atom_site_label
 _atom_site_symmetry_multiplicity
 _atom_site_fract_x
 _atom_site_fract_y
 _atom_site_fract_z
 _atom_site_occupancy
  Ca  Ca0  1  0.50648454  0.53518040  0.75000277  1
  Ca  Ca1  1  0.49351554  0.46481573  0.24999700  1
  Ca  Ca2  1  0.99351563  0.03519345  0.75000173  1
  Ca  Ca3  1  0.00648470  0.96480720  0.24999817  1
  Fe  Fe0  1  0.49999903  0.99999854  0.49999974  1
  Fe  Fe1  1  0.49999884  0.99999847  0.00000031  1
  Fe  Fe2  1  -0.00000043  0.50000101  0.00000010  1
  Fe  Fe3  1  -0.00000062  0.50000110  0.50000004  1
  O  O0  1  0.21561022  0.21560560  0.03252130  1
  O  O1  1  0.21562318  0.21560083  0.46748103  1
  O  O2  1  0.71563870  0.28442824  0.96747985  1
  O  O3  1  0.78437652  0.78439867  0.53251902  1
  O  O4  1  0.28436794  0.71558919  0.46747878  1
  O  O5  1  0.78438947  0.78439376  0.96747875  1
  O  O6  1  0.43779575  0.99049502  0.74999275  1
  O  O7  1  0.93780225  0.50950754  0.24998808  1
  O  O8  1  0.06220136  0.49049496  0.75001278  1
  O  O9  1  0.71563230  0.28441126  0.53252103  1
  O  O10  1  0.28436080  0.71557460  0.03251959  1
  O  O11  1  0.56220427  0.00950444  0.25000717  1
loop_
_geom_bond_atom_site_label_1
_geom_bond_atom_site_label_2
_geom_bond_distance
_geom_bond_site_symmetry_2
Ca0 O8 2.363358 1_555
Ca0 O2 2.378849 1_555
Ca0 O9 2.378896 1_555
Ca0 O6 2.450929 1_555
Ca0 O5 2.564179 1_555
Ca0 O3 2.564189 1_555
Ca0 O10 2.603682 1_556
Ca0 O4 2.603749 1_555
Ca1 O7 2.363380 1_555
Ca1 O10 2.378872 1_555
Ca1 O4 2.378909 1_555
Ca1 O11 2.450911 1_555
Ca1 O0 2.564170 1_555
Ca1 O1 2.564182 1_555
Ca1 O2 2.603669 1_554
Ca1 O9 2.603741 1_555
Ca2 O6 2.363348 1_645
Ca2 O5 2.378916 1_545
Ca2 O3 2.378963 1_545
Ca2 O8 2.450858 1_655
Ca2 O9 2.564153 1_555
Ca2 O2 2.564156 1_555
Ca2 O0 2.603672 1_656
Ca2 O1 2.603698 1_655
Ca3 O11 2.363349 1_465
Ca3 O0 2.378910 1_565
Ca3 O1 2.378958 1_565
Ca3 O7 2.450845 1_455
Ca3 O10 2.564149 1_555
Ca3 O4 2.564153 1_555
Ca3 O5 2.603675 1_454
Ca3 O3 2.603703 1_455
Fe0 O11 1.901289 1_565
Fe0 O6 1.901290 1_555
Fe0 O3 1.908341 1_555
Fe0 O1 1.908341 1_565
Fe0 O4 1.911530 1_555
Fe0 O9 1.911552 1_565
Fe1 O11 1.901397 1_565
Fe1 O6 1.901399 1_554
Fe1 O0 1.908410 1_565
Fe1 O5 1.908411 1_554
Fe1 O10 1.911612 1_555
Fe1 O2 1.911644 1_564
Fe2 O8 1.901247 1_554
Fe2 O7 1.901248 1_455
Fe2 O2 1.908186 1_454
Fe2 O10 1.908189 1_555
Fe2 O5 1.911395 1_454
Fe2 O0 1.911408 1_555
Fe3 O7 1.901427 1_455
Fe3 O8 1.901437 1_555
Fe3 O9 1.908266 1_455
Fe3 O4 1.908267 1_555
Fe3 O3 1.911451 1_455
Fe3 O1 1.911465 1_555
