# generated using pymatgen
data_Mg6AlCoO8
_symmetry_space_group_name_H-M   'P 1'
_cell_length_a   8.55440022
_cell_length_b   4.23677326
_cell_length_c   4.23677326
_cell_angle_alpha   90.00000000
_cell_angle_beta   90.00000000
_cell_angle_gamma   90.00000000
_symmetry_Int_Tables_number   1
_chemical_formula_structural   Mg6AlCoO8
_chemical_formula_sum   'Mg6 Al1 Co1 O8'
_cell_volume   153.55360250
_cell_formula_units_Z   1
loop_
 _symmetry_equiv_pos_site_id
 _symmetry_equiv_pos_as_xyz
  1  'x, y, z'
loop_
 _atom_site_type_symbol
 _atom_site_label
 _atom_site_symmetry_multiplicity
 _atom_site_fract_x
 _atom_site_fract_y
 _atom_site_fract_z
 _atom_site_occupancy
  Mg  Mg0  1  0.00000000  0.50000000  0.50000000  1
  Mg  Mg1  1  0.50000000  0.50000000  0.50000000  1
  Mg  Mg2  1  0.25934435  0.00000000  0.50000000  1
  Mg  Mg3  1  0.74065565  0.00000000  0.50000000  1
  Mg  Mg4  1  0.25934435  0.50000000  0.00000000  1
  Mg  Mg5  1  0.74065565  0.50000000  0.00000000  1
  Al  Al0  1  0.00000000  0.00000000  0.00000000  1
  Co  Co0  1  0.50000000  0.00000000  0.00000000  1
  O  O0  1  0.21291094  0.00000000  0.00000000  1
  O  O1  1  0.78708906  0.00000000  0.00000000  1
  O  O2  1  0.24828453  0.50000000  0.50000000  1
  O  O3  1  0.75171547  0.50000000  0.50000000  1
  O  O4  1  0.00000000  0.00000000  0.50000000  1
  O  O5  1  0.50000000  0.00000000  0.50000000  1
  O  O6  1  0.00000000  0.50000000  0.00000000  1
  O  O7  1  0.50000000  0.50000000  0.00000000  1
loop_
_geom_bond_atom_site_label_1
_geom_bond_atom_site_label_2
_geom_bond_distance
_geom_bond_site_symmetry_2
Mg0 O6 2.118387 1_556
Mg0 O6 2.118387 1_555
Mg0 O4 2.118387 1_555
Mg0 O4 2.118387 1_565
Mg0 O3 2.123925 1_455
Mg0 O2 2.123925 1_555
Mg1 O5 2.118387 1_555
Mg1 O5 2.118387 1_565
Mg1 O7 2.118387 1_555
Mg1 O7 2.118387 1_556
Mg1 O2 2.153275 1_555
Mg1 O3 2.153275 1_555
Mg2 O5 2.058665 1_555
Mg2 O2 2.120498 1_555
Mg2 O2 2.120498 1_545
Mg2 O0 2.155305 1_555
Mg2 O0 2.155305 1_556
Mg2 O4 2.218535 1_555
Mg3 O5 2.058665 1_555
Mg3 O3 2.120498 1_555
Mg3 O3 2.120498 1_545
Mg3 O1 2.155305 1_556
Mg3 O1 2.155305 1_555
Mg3 O4 2.218535 1_655
Mg4 O7 2.058665 1_555
Mg4 O2 2.120498 1_555
Mg4 O2 2.120498 1_554
Mg4 O0 2.155305 1_565
Mg4 O0 2.155305 1_555
Mg4 O6 2.218535 1_555
Mg5 O7 2.058665 1_555
Mg5 O3 2.120498 1_555
Mg5 O3 2.120498 1_554
Mg5 O1 2.155305 1_565
Mg5 O1 2.155305 1_555
Mg5 O6 2.218535 1_655
Al0 O0 1.821325 1_555
Al0 O1 1.821325 1_455
Al0 O4 2.118387 1_555
Al0 O6 2.118387 1_555
Al0 O4 2.118387 1_554
Al0 O6 2.118387 1_545
Co0 O5 2.118387 1_554
Co0 O5 2.118387 1_555
Co0 O7 2.118387 1_545
Co0 O7 2.118387 1_555
Co0 O0 2.455875 1_555
Co0 O1 2.455875 1_555
