# generated using pymatgen
data_YFe4(CuO4)3
_symmetry_space_group_name_H-M   'P 1'
_cell_length_a   6.44743497
_cell_length_b   6.44743209
_cell_length_c   6.44742919
_cell_angle_alpha   70.56412705
_cell_angle_beta   70.58849583
_cell_angle_gamma   109.56663246
_symmetry_Int_Tables_number   1
_chemical_formula_structural   YFe4(CuO4)3
_chemical_formula_sum   'Y1 Fe4 Cu3 O12'
_cell_volume   206.31741271
_cell_formula_units_Z   1
loop_
 _symmetry_equiv_pos_site_id
 _symmetry_equiv_pos_as_xyz
  1  'x, y, z'
loop_
 _atom_site_type_symbol
 _atom_site_label
 _atom_site_symmetry_multiplicity
 _atom_site_fract_x
 _atom_site_fract_y
 _atom_site_fract_z
 _atom_site_occupancy
  Y  Y0  1  0.00000000  0.00000000  0.99999900  1
  Fe  Fe0  1  0.50000100  0.99999700  0.00000300  1
  Fe  Fe1  1  0.99999900  0.99999800  0.50000400  1
  Fe  Fe2  1  0.00000300  0.50000300  0.99999600  1
  Fe  Fe3  1  0.50000300  0.50000100  0.49999700  1
  Cu  Cu0  1  0.49999900  0.00000200  0.49999800  1
  Cu  Cu1  1  0.49999600  0.49999800  0.99999900  1
  Cu  Cu2  1  0.99999800  0.50000000  0.50000200  1
  O  O0  1  0.69198300  0.52769000  0.16429200  1
  O  O1  1  0.30801800  0.47231100  0.83570700  1
  O  O2  1  0.69198600  0.85628000  0.83570500  1
  O  O3  1  0.30801400  0.14372200  0.16429400  1
  O  O4  1  0.83513300  0.30744600  0.85742100  1
  O  O5  1  0.16486700  0.69255300  0.14257900  1
  O  O6  1  0.16486900  0.30744600  0.52768600  1
  O  O7  1  0.83513100  0.69255500  0.47231300  1
  O  O8  1  0.47241800  0.16499300  0.69257700  1
  O  O9  1  0.52758200  0.83500600  0.30742400  1
  O  O10  1  0.14243000  0.83500600  0.69257700  1
  O  O11  1  0.85757100  0.16499300  0.30742500  1
loop_
_geom_bond_atom_site_label_1
_geom_bond_atom_site_label_2
_geom_bond_distance
_geom_bond_site_symmetry_2
Fe0 O4 2.010302 1_564
Fe0 O5 2.010303 1_555
Fe0 O9 2.012373 1_555
Fe0 O8 2.012415 1_564
Fe0 O2 2.015637 1_554
Fe0 O3 2.015667 1_565
Fe1 O6 2.010302 1_665
Fe1 O7 2.010306 1_555
Fe1 O10 2.012388 1_655
Fe1 O11 2.012404 1_565
Fe1 O2 2.015618 1_555
Fe1 O3 2.015650 1_665
Fe2 O5 2.010305 1_556
Fe2 O4 2.010307 1_455
Fe2 O10 2.012370 1_555
Fe2 O11 2.012420 1_456
Fe2 O1 2.015642 1_555
Fe2 O0 2.015660 1_456
Fe3 O7 2.010287 1_555
Fe3 O6 2.010306 1_555
Fe3 O9 2.012396 1_555
Fe3 O8 2.012404 1_555
Fe3 O0 2.015636 1_555
Fe3 O1 2.015667 1_555
Cu0 O10 1.887804 1_545
Cu0 O8 1.887814 1_555
Cu0 O9 1.887815 1_545
Cu0 O11 1.887819 1_555
Cu1 O1 1.880241 1_555
Cu1 O3 1.880266 1_556
Cu1 O0 1.880296 1_556
Cu1 O2 1.880301 1_555
Cu2 O4 1.888260 1_555
Cu2 O5 1.888279 1_655
Cu2 O7 1.888284 1_555
Cu2 O6 1.888297 1_655
O0 Y0 2.596819 1_664
O1 Y0 2.596827 1_555
O2 Y0 2.596811 1_665
O3 Y0 2.596819 1_554
O4 Y0 2.598531 1_655
O5 Y0 2.598539 1_564
O6 Y0 2.598520 1_555
O7 Y0 2.598523 1_664
O8 Y0 2.598321 1_555
O9 Y0 2.598324 1_664
O10 Y0 2.598319 1_565
O11 Y0 2.598333 1_654
