# generated using pymatgen
data_BaPr2NiO5
_symmetry_space_group_name_H-M   'P 1'
_cell_length_a   3.88071317
_cell_length_b   6.02856238
_cell_length_c   6.94402246
_cell_angle_alpha   115.72642206
_cell_angle_beta   106.22677205
_cell_angle_gamma   90.00124058
_symmetry_Int_Tables_number   1
_chemical_formula_structural   BaPr2NiO5
_chemical_formula_sum   'Ba1 Pr2 Ni1 O5'
_cell_volume   139.13383506
_cell_formula_units_Z   1
loop_
 _symmetry_equiv_pos_site_id
 _symmetry_equiv_pos_as_xyz
  1  'x, y, z'
loop_
 _atom_site_type_symbol
 _atom_site_label
 _atom_site_symmetry_multiplicity
 _atom_site_fract_x
 _atom_site_fract_y
 _atom_site_fract_z
 _atom_site_occupancy
  Ba  Ba0  1  -0.00000000  0.00000000  -0.00000000  1
  Pr  Pr0  1  0.20269624  0.70270180  0.40540330  1
  Pr  Pr1  1  0.79730376  0.29729820  0.59459670  1
  Ni  Ni0  1  0.50000000  0.50000000  -0.00000000  1
  O  O0  1  0.99999900  0.50000000  -0.00000000  1
  O  O1  1  0.35581666  0.59739319  0.71161693  1
  O  O2  1  0.64418334  0.40260681  0.28838307  1
  O  O3  1  0.64419537  0.88576240  0.28839789  1
  O  O4  1  0.35580463  0.11423760  0.71160211  1
loop_
_geom_bond_atom_site_label_1
_geom_bond_atom_site_label_2
_geom_bond_distance
_geom_bond_site_symmetry_2
Ba0 O0 3.014281 1_445
Ba0 O0 3.014281 1_455
Ba0 O1 3.022077 1_444
Ba0 O2 3.022077 1_555
Ba0 O2 3.022215 1_455
Ba0 O1 3.022215 1_544
Ba0 O3 3.022244 1_545
Ba0 O4 3.022244 1_454
Ba0 O3 3.022272 1_445
Ba0 O4 3.022272 1_554
Ni0 O0 1.940353 1_555
Ni0 O0 1.940360 1_455
Ni0 O3 2.249993 1_555
Ni0 O4 2.249993 1_554
Ni0 O1 2.250003 1_554
Ni0 O2 2.250003 1_555
O0 Pr0 2.410986 1_655
O0 Pr1 2.410986 1_554
O1 Pr0 2.396525 1_555
O1 Pr1 2.523945 1_455
O1 Pr1 2.524003 1_555
O2 Pr1 2.396525 1_555
O2 Pr0 2.523945 1_655
O2 Pr0 2.524003 1_555
O3 Pr1 2.396546 1_565
O3 Pr0 2.523866 1_555
O3 Pr0 2.523878 1_655
O4 Pr0 2.396546 1_545
O4 Pr1 2.523866 1_555
O4 Pr1 2.523878 1_455
