# generated using pymatgen
data_MgCoBiO5
_symmetry_space_group_name_H-M   'P 1'
_cell_length_a   5.31021400
_cell_length_b   10.56424900
_cell_length_c   15.35079800
_cell_angle_alpha   90.00000000
_cell_angle_beta   90.00000000
_cell_angle_gamma   90.00000000
_symmetry_Int_Tables_number   1
_chemical_formula_structural   MgCoBiO5
_chemical_formula_sum   'Mg8 Co8 Bi8 O40'
_cell_volume   861.15555866
_cell_formula_units_Z   8
loop_
 _symmetry_equiv_pos_site_id
 _symmetry_equiv_pos_as_xyz
  1  'x, y, z'
loop_
 _atom_site_type_symbol
 _atom_site_label
 _atom_site_symmetry_multiplicity
 _atom_site_fract_x
 _atom_site_fract_y
 _atom_site_fract_z
 _atom_site_occupancy
  Mg  Mg0  1  0.49398700  0.36398500  0.54767300  1
  Mg  Mg1  1  0.99398700  0.13601500  0.54767300  1
  Mg  Mg2  1  0.99398700  0.63601500  0.95232700  1
  Mg  Mg3  1  0.00601300  0.36398500  0.04767300  1
  Mg  Mg4  1  0.50601300  0.13601500  0.04767300  1
  Mg  Mg5  1  0.00601300  0.86398500  0.45232700  1
  Mg  Mg6  1  0.50601300  0.63601500  0.45232700  1
  Mg  Mg7  1  0.49398700  0.86398500  0.95232700  1
  Co  Co0  1  0.98209000  0.39913500  0.41038200  1
  Co  Co1  1  0.51791000  0.89913500  0.58961800  1
  Co  Co2  1  0.01791000  0.60086500  0.58961800  1
  Co  Co3  1  0.48209000  0.10086500  0.41038200  1
  Co  Co4  1  0.01791000  0.10086500  0.91038200  1
  Co  Co5  1  0.98209000  0.89913500  0.08961800  1
  Co  Co6  1  0.51791000  0.39913500  0.91038200  1
  Co  Co7  1  0.48209000  0.60086500  0.08961800  1
  Bi  Bi0  1  0.97370800  0.85381700  0.76941300  1
  Bi  Bi1  1  0.02629200  0.14618300  0.23058700  1
  Bi  Bi2  1  0.52629200  0.35381700  0.23058700  1
  Bi  Bi3  1  0.02629200  0.64618300  0.26941300  1
  Bi  Bi4  1  0.47370800  0.14618300  0.73058700  1
  Bi  Bi5  1  0.47370800  0.64618300  0.76941300  1
  Bi  Bi6  1  0.52629200  0.85381700  0.26941300  1
  Bi  Bi7  1  0.97370800  0.35381700  0.73058700  1
  O  O0  1  0.90292600  0.32370100  0.30798000  1
  O  O1  1  0.31116000  0.04435700  0.94643600  1
  O  O2  1  0.18884000  0.54435700  0.05356400  1
  O  O3  1  0.30188300  0.79242400  0.84600000  1
  O  O4  1  0.19811700  0.29242400  0.15400000  1
  O  O5  1  0.90292600  0.82370100  0.19202000  1
  O  O6  1  0.19811700  0.79242400  0.34600000  1
  O  O7  1  0.59707400  0.82370100  0.69202000  1
  O  O8  1  0.31116000  0.54435700  0.55356400  1
  O  O9  1  0.09707400  0.67629900  0.69202000  1
  O  O10  1  0.59707400  0.32370100  0.80798000  1
  O  O11  1  0.63667800  0.19510400  0.48541500  1
  O  O12  1  0.81116000  0.95564300  0.55356400  1
  O  O13  1  0.69811700  0.70757600  0.34600000  1
  O  O14  1  0.19399000  0.02520800  0.12593000  1
  O  O15  1  0.81116000  0.45564300  0.94643600  1
  O  O16  1  0.09707400  0.17629900  0.80798000  1
  O  O17  1  0.80188300  0.20757600  0.65400000  1
  O  O18  1  0.13667800  0.80489600  0.01458500  1
  O  O19  1  0.18884000  0.04435700  0.44643600  1
  O  O20  1  0.36332200  0.80489600  0.51458500  1
  O  O21  1  0.80601000  0.97479200  0.87407000  1
  O  O22  1  0.69811700  0.20757600  0.15400000  1
  O  O23  1  0.69399000  0.97479200  0.37407000  1
  O  O24  1  0.36332200  0.30489600  0.98541500  1
  O  O25  1  0.13667800  0.30489600  0.48541500  1
  O  O26  1  0.68884000  0.45564300  0.44643600  1
  O  O27  1  0.68884000  0.95564300  0.05356400  1
  O  O28  1  0.69399000  0.47479200  0.12593000  1
  O  O29  1  0.86332200  0.69510400  0.51458500  1
  O  O30  1  0.86332200  0.19510400  0.98541500  1
  O  O31  1  0.63667800  0.69510400  0.01458500  1
  O  O32  1  0.80601000  0.47479200  0.62593000  1
  O  O33  1  0.80188300  0.70757600  0.84600000  1
  O  O34  1  0.30188300  0.29242400  0.65400000  1
  O  O35  1  0.19399000  0.52520800  0.37407000  1
  O  O36  1  0.30601000  0.52520800  0.87407000  1
  O  O37  1  0.40292600  0.17629900  0.30798000  1
  O  O38  1  0.30601000  0.02520800  0.62593000  1
  O  O39  1  0.40292600  0.67629900  0.19202000  1
loop_
_geom_bond_atom_site_label_1
_geom_bond_atom_site_label_2
_geom_bond_distance
_geom_bond_site_symmetry_2
Mg0 O34 2.067907 1_555
Mg0 O26 2.103178 1_555
Mg0 O8 2.140476 1_555
Mg0 O11 2.161143 1_555
Mg0 O25 2.214300 1_555
Mg0 O32 2.357705 1_555
Mg1 O17 2.067907 1_555
Mg1 O19 2.103178 1_655
Mg1 O12 2.140476 1_545
Mg1 O25 2.161143 1_655
Mg1 O11 2.214300 1_555
Mg1 O38 2.357705 1_655
Mg2 O33 2.067907 1_555
Mg2 O2 2.103178 1_656
Mg2 O15 2.140476 1_555
Mg2 O18 2.161143 1_656
Mg2 O31 2.214300 1_556
Mg2 O36 2.357705 1_655
Mg3 O4 2.067907 1_555
Mg3 O15 2.103178 1_454
Mg3 O2 2.140476 1_555
Mg3 O30 2.161143 1_454
Mg3 O24 2.214300 1_554
Mg3 O28 2.357705 1_455
Mg4 O22 2.067907 1_555
Mg4 O1 2.103178 1_554
Mg4 O27 2.140476 1_545
Mg4 O24 2.161143 1_554
Mg4 O30 2.214300 1_554
Mg4 O14 2.357705 1_555
Mg5 O6 2.067907 1_555
Mg5 O12 2.103178 1_455
Mg5 O19 2.140476 1_565
Mg5 O29 2.161143 1_455
Mg5 O20 2.214300 1_555
Mg5 O23 2.357705 1_455
Mg6 O13 2.067907 1_555
Mg6 O8 2.103178 1_555
Mg6 O26 2.140476 1_555
Mg6 O20 2.161143 1_555
Mg6 O29 2.214300 1_555
Mg6 O35 2.357705 1_555
Mg7 O3 2.067907 1_555
Mg7 O27 2.103178 1_556
Mg7 O1 2.140476 1_565
Mg7 O31 2.161143 1_556
Mg7 O18 2.214300 1_556
Mg7 O21 2.357705 1_555
Co0 O25 1.729653 1_655
Co0 O26 1.757162 1_555
Co0 O0 1.811852 1_555
Co0 O35 1.830502 1_655
Co1 O20 1.729653 1_555
Co1 O12 1.757162 1_555
Co1 O7 1.811852 1_555
Co1 O38 1.830502 1_565
Co2 O29 1.729653 1_455
Co2 O8 1.757162 1_555
Co2 O9 1.811852 1_555
Co2 O32 1.830502 1_455
Co3 O11 1.729653 1_555
Co3 O19 1.757162 1_555
Co3 O37 1.811852 1_555
Co3 O23 1.830502 1_545
Co4 O30 1.729653 1_455
Co4 O1 1.757162 1_555
Co4 O16 1.811852 1_555
Co4 O21 1.830502 1_445
Co5 O18 1.729653 1_655
Co5 O27 1.757162 1_555
Co5 O5 1.811852 1_555
Co5 O14 1.830502 1_665
Co6 O24 1.729653 1_555
Co6 O15 1.757162 1_555
Co6 O10 1.811852 1_555
Co6 O36 1.830502 1_555
Co7 O31 1.729653 1_555
Co7 O2 1.757162 1_555
Co7 O39 1.811852 1_555
Co7 O28 1.830502 1_555
Bi0 O33 2.145117 1_555
Bi0 O3 2.199950 1_655
Bi0 O21 2.237718 1_555
Bi0 O9 2.314632 1_655
Bi0 O7 2.347914 1_555
Bi1 O4 2.145117 1_555
Bi1 O22 2.199950 1_455
Bi1 O14 2.237718 1_555
Bi1 O0 2.314632 1_455
Bi1 O37 2.347914 1_555
Bi2 O22 2.145117 1_555
Bi2 O4 2.199950 1_555
Bi2 O28 2.237718 1_555
Bi2 O37 2.314632 1_555
Bi2 O0 2.347914 1_555
Bi3 O6 2.145117 1_555
Bi3 O13 2.199950 1_455
Bi3 O35 2.237718 1_555
Bi3 O5 2.314632 1_455
Bi3 O39 2.347914 1_555
Bi4 O34 2.145117 1_555
Bi4 O17 2.199950 1_555
Bi4 O38 2.237718 1_555
Bi4 O10 2.314632 1_555
Bi4 O16 2.347914 1_555
Bi5 O3 2.145117 1_555
Bi5 O33 2.199950 1_555
Bi5 O36 2.237718 1_555
Bi5 O7 2.314632 1_555
Bi5 O9 2.347914 1_555
Bi6 O13 2.145117 1_555
Bi6 O6 2.199950 1_555
Bi6 O23 2.237718 1_555
Bi6 O39 2.314632 1_555
Bi6 O5 2.347914 1_555
Bi7 O17 2.145117 1_555
Bi7 O34 2.199950 1_655
Bi7 O32 2.237718 1_555
Bi7 O16 2.314632 1_655
Bi7 O10 2.347914 1_555
