# generated using pymatgen
data_Na3La5Cl18
_symmetry_space_group_name_H-M   'P 1'
_cell_length_a   7.58765976
_cell_length_b   7.58764452
_cell_length_c   13.07526834
_cell_angle_alpha   90.00001795
_cell_angle_beta   90.00011068
_cell_angle_gamma   120.00052798
_symmetry_Int_Tables_number   1
_chemical_formula_structural   Na3La5Cl18
_chemical_formula_sum   'Na3 La5 Cl18'
_cell_volume   651.91917668
_cell_formula_units_Z   1
loop_
 _symmetry_equiv_pos_site_id
 _symmetry_equiv_pos_as_xyz
  1  'x, y, z'
loop_
 _atom_site_type_symbol
 _atom_site_label
 _atom_site_symmetry_multiplicity
 _atom_site_fract_x
 _atom_site_fract_y
 _atom_site_fract_z
 _atom_site_occupancy
  Na  Na0  1  -0.00009611  -0.00009994  0.50001060  1
  Na  Na1  1  0.66665479  0.33332051  0.35667550  1
  Na  Na2  1  0.66665548  0.33331899  0.64330726  1
  La  La0  1  0.99999067  0.99999162  0.83304161  1
  La  La1  1  1.00001077  0.00001060  0.16696568  1
  La  La2  1  0.33333633  0.66667177  0.33538173  1
  La  La3  1  0.33333504  0.66666972  0.99999183  1
  La  La4  1  0.33333625  0.66667022  0.66468704  1
  Cl  Cl0  1  0.97248569  0.24774495  -0.00000295  1
  Cl  Cl1  1  0.97711131  0.25230426  0.32912074  1
  Cl  Cl2  1  0.97712522  0.25230650  0.67087112  1
  Cl  Cl3  1  0.75225838  0.72474110  0.99999614  1
  Cl  Cl4  1  0.74770758  0.72481216  0.32912230  1
  Cl  Cl5  1  0.74770215  0.72481614  0.67087316  1
  Cl  Cl6  1  0.05422517  0.63409816  0.83418797  1
  Cl  Cl7  1  0.05422922  0.63410546  0.16580192  1
  Cl  Cl8  1  0.04273980  0.61357611  0.49999957  1
  Cl  Cl9  1  0.27526266  0.02752211  0.99999623  1
  Cl  Cl10  1  0.27521459  0.02290871  0.32911816  1
  Cl  Cl11  1  0.27520472  0.02289762  0.67087641  1
  Cl  Cl12  1  0.57987763  0.94577936  0.83418889  1
  Cl  Cl13  1  0.57988141  0.94578577  0.16579944  1
  Cl  Cl14  1  0.57083944  0.95726771  0.50000037  1
  Cl  Cl15  1  0.36590784  0.42013740  0.83418943  1
  Cl  Cl16  1  0.36590231  0.42013067  0.16580042  1
  Cl  Cl17  1  0.38643467  0.42918031  0.49999844  1
loop_
_geom_bond_atom_site_label_1
_geom_bond_atom_site_label_2
_geom_bond_distance
_geom_bond_site_symmetry_2
Cl0 La0 2.955538 1_544
Cl0 La1 2.955629 1_555
Cl0 La3 2.982816 1_654
Cl1 Na1 2.739491 1_555
Cl1 La1 2.919375 1_555
Cl1 La2 2.949466 1_655
Cl1 Na0 3.003601 1_655
Cl2 Na2 2.739585 1_555
Cl2 La0 2.919532 1_545
Cl2 La4 2.949380 1_655
Cl2 Na0 3.003287 1_655
Cl3 La0 2.955454 1_555
Cl3 La1 2.955692 1_566
Cl3 La3 2.982841 1_555
Cl4 Na1 2.739525 1_555
Cl4 La1 2.919419 1_565
Cl4 La2 2.949523 1_555
Cl4 Na0 3.002804 1_665
Cl5 Na2 2.739602 1_555
Cl5 La0 2.919425 1_555
Cl5 La4 2.949440 1_555
Cl5 Na0 3.002560 1_665
Cl6 La3 2.953408 1_555
Cl6 La4 2.989083 1_555
Cl6 La0 3.003286 1_455
Cl7 La3 2.953468 1_554
Cl7 La2 2.989833 1_555
Cl7 La1 3.003303 1_465
Cl8 La2 2.961202 1_555
Cl8 La4 2.961860 1_555
Cl8 Na0 3.106582 1_565
Cl8 Na2 3.179284 1_455
Cl8 Na1 3.179403 1_455
Cl9 La0 2.955543 1_445
Cl9 La1 2.955631 1_456
Cl9 La3 2.982850 1_545
Cl10 Na1 2.739199 1_555
Cl10 La1 2.919407 1_455
Cl10 La2 2.949485 1_545
Cl10 Na0 3.003731 1_555
Cl11 Na2 2.739297 1_555
Cl11 La0 2.919569 1_445
Cl11 La4 2.949432 1_545
Cl11 Na0 3.003440 1_555
Cl12 La3 2.953402 1_555
Cl12 La4 2.989074 1_555
Cl12 La0 3.003240 1_555
Cl13 La3 2.953468 1_554
Cl13 La2 2.989882 1_555
Cl13 La1 3.003326 1_565
Cl14 La2 2.961195 1_555
Cl14 La4 2.961853 1_555
Cl14 Na0 3.106510 1_665
Cl14 Na2 3.179101 1_565
Cl14 Na1 3.179253 1_565
Cl15 La3 2.953370 1_555
Cl15 La4 2.989061 1_555
Cl15 La0 3.003413 1_445
Cl16 La3 2.953447 1_554
Cl16 La2 2.989851 1_555
Cl16 La1 3.003221 1_455
Cl17 La2 2.961150 1_555
Cl17 La4 2.961826 1_555
Cl17 Na0 3.107742 1_555
Cl17 Na2 3.179236 1_555
Cl17 Na1 3.179338 1_555
