# generated using pymatgen
data_IrC3
_symmetry_space_group_name_H-M   'P 1'
_cell_length_a   2.60697700
_cell_length_b   4.33880700
_cell_length_c   13.62879000
_cell_angle_alpha   90.00000000
_cell_angle_beta   90.00000000
_cell_angle_gamma   90.00000000
_symmetry_Int_Tables_number   1
_chemical_formula_structural   IrC3
_chemical_formula_sum   'Ir4 C12'
_cell_volume   154.15756135
_cell_formula_units_Z   4
loop_
 _symmetry_equiv_pos_site_id
 _symmetry_equiv_pos_as_xyz
  1  'x, y, z'
loop_
 _atom_site_type_symbol
 _atom_site_label
 _atom_site_symmetry_multiplicity
 _atom_site_fract_x
 _atom_site_fract_y
 _atom_site_fract_z
 _atom_site_occupancy
  Ir  Ir0  1  0.25000000  0.02324000  0.16174200  1
  Ir  Ir1  1  0.75000000  0.52324000  0.33825800  1
  Ir  Ir2  1  0.25000000  0.47676000  0.66174200  1
  Ir  Ir3  1  0.75000000  0.97676000  0.83825800  1
  C  C0  1  0.25000000  0.89527200  0.30381200  1
  C  C1  1  0.75000000  0.39527200  0.19618800  1
  C  C2  1  0.25000000  0.60472800  0.80381200  1
  C  C3  1  0.75000000  0.10472800  0.69618800  1
  C  C4  1  0.25000000  0.46651000  0.97742600  1
  C  C5  1  0.75000000  0.96651000  0.52257400  1
  C  C6  1  0.25000000  0.03349000  0.47742600  1
  C  C7  1  0.75000000  0.53349000  0.02257400  1
  C  C8  1  0.25000000  0.15353200  0.37385700  1
  C  C9  1  0.75000000  0.65353200  0.12614300  1
  C  C10  1  0.25000000  0.34646800  0.87385700  1
  C  C11  1  0.75000000  0.84646800  0.62614300  1
loop_
_geom_bond_atom_site_label_1
_geom_bond_atom_site_label_2
_geom_bond_distance
_geom_bond_site_symmetry_2
C0 C8 1.472048 1_565
C0 Ir0 2.014277 1_565
C0 Ir1 2.127213 1_455
C0 Ir1 2.127213 1_555
C1 C9 1.472048 1_555
C1 Ir1 2.014277 1_555
C1 Ir0 2.127213 1_655
C1 Ir0 2.127213 1_555
C2 Ir2 2.014277 1_555
C2 Ir3 2.127213 1_555
C2 Ir3 2.127213 1_455
C3 Ir3 2.014277 1_545
C3 Ir2 2.127213 1_555
C3 Ir2 2.127213 1_655
C4 C7 1.470424 1_556
C4 C7 1.470424 1_456
C5 C6 1.470424 1_565
C5 C6 1.470424 1_665
C6 C8 1.504547 1_555
C7 C9 1.504547 1_555
C8 Ir1 2.123107 1_455
C8 Ir1 2.123107 1_555
C9 Ir0 2.123107 1_565
C9 Ir0 2.123107 1_665
C10 C2 1.472048 1_555
C10 C4 1.504547 1_555
C10 Ir3 2.123107 1_445
C10 Ir3 2.123107 1_545
C11 C3 1.472048 1_565
C11 C5 1.504547 1_555
C11 Ir2 2.123107 1_555
C11 Ir2 2.123107 1_655
