# generated using pymatgen
data_MgMn6Nb4O18
_symmetry_space_group_name_H-M   'P 1'
_cell_length_a   5.34382900
_cell_length_b   5.34429188
_cell_length_c   14.53073000
_cell_angle_alpha   89.99880043
_cell_angle_beta   89.99947683
_cell_angle_gamma   119.99519743
_symmetry_Int_Tables_number   1
_chemical_formula_structural   MgMn6Nb4O18
_chemical_formula_sum   'Mg1 Mn6 Nb4 O18'
_cell_volume   359.40308581
_cell_formula_units_Z   1
loop_
 _symmetry_equiv_pos_site_id
 _symmetry_equiv_pos_as_xyz
  1  'x, y, z'
loop_
 _atom_site_type_symbol
 _atom_site_label
 _atom_site_symmetry_multiplicity
 _atom_site_fract_x
 _atom_site_fract_y
 _atom_site_fract_z
 _atom_site_occupancy
  Mg  Mg0  1  0.33356500  0.66687300  0.19731900  1
  Mn  Mn0  1  0.66673900  0.33327200  0.68196200  1
  Mn  Mn1  1  0.66674600  0.33300700  0.99141700  1
  Mn  Mn2  1  0.66679700  0.33301900  0.47759200  1
  Mn  Mn3  1  0.33348500  0.66634900  0.50447800  1
  Mn  Mn4  1  0.33351100  0.66635200  0.98681200  1
  Mn  Mn5  1  0.66682100  0.33343300  0.21332400  1
  Nb  Nb0  1  0.00011600  0.99973100  0.85667400  1
  Nb  Nb1  1  0.00019800  0.00017400  0.14051900  1
  Nb  Nb2  1  0.00002600  0.99982900  0.64391800  1
  Nb  Nb3  1  0.00027100  0.99976200  0.35782500  1
  O  O0  1  0.33724900  0.34431700  0.09283100  1
  O  O1  1  0.69190700  0.69008400  0.92000600  1
  O  O2  1  0.01751500  0.28889200  0.24637400  1
  O  O3  1  0.27208600  0.98323600  0.24646800  1
  O  O4  1  0.00781100  0.66319500  0.09301600  1
  O  O5  1  0.67651100  0.63928200  0.58973200  1
  O  O6  1  0.76120600  0.07135900  0.74257700  1
  O  O7  1  0.99869400  0.30785000  0.92010400  1
  O  O8  1  0.01605000  0.69412600  0.41954800  1
  O  O9  1  0.36025600  0.03644100  0.58960700  1
  O  O10  1  0.31017900  0.23850400  0.74257700  1
  O  O11  1  0.96349000  0.32351900  0.58966300  1
  O  O12  1  0.71130100  0.72829600  0.24640500  1
  O  O13  1  0.30965200  0.00099600  0.92002800  1
  O  O14  1  0.65565800  0.99256000  0.09295400  1
  O  O15  1  0.67880900  0.98385000  0.41957800  1
  O  O16  1  0.30566000  0.32121000  0.41958500  1
  O  O17  1  0.92852400  0.68964600  0.74264900  1
loop_
_geom_bond_atom_site_label_1
_geom_bond_atom_site_label_2
_geom_bond_distance
_geom_bond_site_symmetry_2
Mg0 O12 2.007131 1_555
Mg0 O2 2.007443 1_555
Mg0 O3 2.007982 1_555
Mg0 O4 2.300773 1_555
Mg0 O14 2.301370 1_555
Mg0 O0 2.304610 1_555
Mn0 O6 1.922589 1_555
Mn0 O10 1.922989 1_555
Mn0 O17 1.923051 1_555
Mn0 O5 2.094721 1_555
Mn0 O11 2.097328 1_555
Mn0 O9 2.098140 1_555
Mn1 O7 2.115869 1_555
Mn1 O1 2.116570 1_555
Mn1 O13 2.116724 1_555
Mn1 O0 2.319894 1_556
Mn1 O14 2.320091 1_546
Mn1 O4 2.323716 1_656
Mn2 O15 2.077681 1_545
Mn2 O16 2.077746 1_555
Mn2 O8 2.077887 1_655
Mn2 O9 2.291006 1_555
Mn2 O11 2.291019 1_555
Mn2 O5 2.291730 1_555
Mn3 O16 2.161461 1_555
Mn3 O8 2.162021 1_555
Mn3 O15 2.162297 1_555
Mn3 O11 2.275113 1_455
Mn3 O9 2.275918 1_565
Mn3 O5 2.276152 1_555
Mn4 O1 2.093688 1_555
Mn4 O7 2.093860 1_455
Mn4 O13 2.093894 1_565
Mn4 O0 2.317308 1_556
Mn4 O14 2.319699 1_556
Mn4 O4 2.319848 1_556
Mn5 O3 2.058369 1_545
Mn5 O12 2.058955 1_555
Mn5 O2 2.060437 1_655
Mn5 O4 2.504249 1_655
Mn5 O14 2.504585 1_545
Mn5 O0 2.504613 1_555
Nb0 O13 1.890088 1_565
Nb0 O1 1.890185 1_455
Nb0 O7 1.890419 1_465
Nb0 O17 2.236974 1_455
Nb0 O10 2.237911 1_565
Nb0 O6 2.239156 1_465
Nb1 O14 1.947908 1_445
Nb1 O0 1.947995 1_555
Nb1 O4 1.948000 1_545
Nb1 O2 2.147704 1_555
Nb1 O12 2.149160 1_445
Nb1 O3 2.149611 1_545
Nb2 O11 1.997452 1_465
Nb2 O9 1.997525 1_565
Nb2 O5 1.997730 1_455
Nb2 O10 2.077381 1_565
Nb2 O6 2.077935 1_465
Nb2 O17 2.078160 1_455
Nb3 O16 1.901785 1_565
Nb3 O8 1.901887 1_555
Nb3 O15 1.901916 1_455
Nb3 O3 2.205477 1_555
Nb3 O12 2.206972 1_455
Nb3 O2 2.208237 1_565
