# generated using pymatgen
data_AgC4(BrO)2
_symmetry_space_group_name_H-M   'P 1'
_cell_length_a   5.81786900
_cell_length_b   9.82771300
_cell_length_c   13.01859218
_cell_angle_alpha   58.53803776
_cell_angle_beta   90.00000000
_cell_angle_gamma   90.00000000
_symmetry_Int_Tables_number   1
_chemical_formula_structural   AgC4(BrO)2
_chemical_formula_sum   'Ag4 C16 Br8 O8'
_cell_volume   634.92549223
_cell_formula_units_Z   4
loop_
 _symmetry_equiv_pos_site_id
 _symmetry_equiv_pos_as_xyz
  1  'x, y, z'
loop_
 _atom_site_type_symbol
 _atom_site_label
 _atom_site_symmetry_multiplicity
 _atom_site_fract_x
 _atom_site_fract_y
 _atom_site_fract_z
 _atom_site_occupancy
  Ag  Ag0  1  0.78677000  0.57815000  0.49599400  1
  Ag  Ag1  1  0.21323000  0.42185000  0.50400600  1
  Ag  Ag2  1  0.28677000  0.42185000  0.00400600  1
  Ag  Ag3  1  0.71323000  0.57815000  0.99599400  1
  C  C0  1  0.36991100  0.87750300  0.50070600  1
  C  C1  1  0.63008900  0.12249700  0.49929400  1
  C  C2  1  0.86991100  0.12249700  0.99929400  1
  C  C3  1  0.13008900  0.87750300  0.00070600  1
  C  C4  1  0.84066200  0.96292500  0.09193500  1
  C  C5  1  0.15933800  0.03707500  0.90806500  1
  C  C6  1  0.34066200  0.03707500  0.40806500  1
  C  C7  1  0.65933800  0.96292500  0.59193500  1
  C  C8  1  0.73834400  0.25582700  0.99978400  1
  C  C9  1  0.26165600  0.74417300  0.00021600  1
  C  C10  1  0.23834400  0.74417300  0.50021600  1
  C  C11  1  0.76165600  0.25582700  0.49978400  1
  C  C12  1  0.97241600  0.84295400  0.09282500  1
  C  C13  1  0.02758400  0.15704600  0.90717500  1
  C  C14  1  0.47241600  0.15704600  0.40717500  1
  C  C15  1  0.52758400  0.84295400  0.59282500  1
  Br  Br0  1  0.94667500  0.62876000  0.22271400  1
  Br  Br1  1  0.05332500  0.37124000  0.77728600  1
  Br  Br2  1  0.44667500  0.37124000  0.27728600  1
  Br  Br3  1  0.55332500  0.62876000  0.72271400  1
  Br  Br4  1  0.62058000  0.91027900  0.21459200  1
  Br  Br5  1  0.37942000  0.08972100  0.78540800  1
  Br  Br6  1  0.12058000  0.08972100  0.28540800  1
  Br  Br7  1  0.87942000  0.91027900  0.71459200  1
  O  O0  1  0.85520100  0.34510900  0.02459400  1
  O  O1  1  0.14479900  0.65489100  0.97540600  1
  O  O2  1  0.35520100  0.65489100  0.47540600  1
  O  O3  1  0.64479900  0.34510900  0.52459400  1
  O  O4  1  0.47419800  0.73434600  0.02342500  1
  O  O5  1  0.52580200  0.26565400  0.97657500  1
  O  O6  1  0.97419800  0.26565400  0.47657500  1
  O  O7  1  0.02580200  0.73434600  0.52342500  1
loop_
_geom_bond_atom_site_label_1
_geom_bond_atom_site_label_2
_geom_bond_distance
_geom_bond_site_symmetry_2
Ag0 O7 2.233845 1_655
Ag0 O3 2.275083 1_555
Ag0 O2 2.594958 1_555
Ag1 O6 2.233845 1_455
Ag1 O2 2.275083 1_555
Ag1 O3 2.594958 1_555
Ag2 O5 2.233845 1_554
Ag2 O1 2.275083 1_554
Ag2 O0 2.594958 1_455
Ag3 O4 2.233845 1_556
Ag3 O0 2.275083 1_556
Ag3 O1 2.594958 1_655
C0 C6 1.403043 1_565
C0 C15 1.403543 1_555
C0 C10 1.520403 1_555
C1 C7 1.403043 1_545
C1 C14 1.403543 1_555
C1 C11 1.520403 1_555
C2 C4 1.403043 1_546
C2 C8 1.520403 1_555
C3 C5 1.403043 1_564
C3 C9 1.520403 1_555
C8 O5 1.264593 1_555
C8 O0 1.277601 1_556
C9 O4 1.264593 1_555
C9 O1 1.277601 1_554
C10 O7 1.264593 1_555
C10 O2 1.277601 1_555
C11 O6 1.264593 1_555
C11 O3 1.277601 1_555
C12 C4 1.401276 1_555
C12 C3 1.403543 1_655
C13 C5 1.401276 1_555
C13 C2 1.403543 1_455
C14 C6 1.401276 1_555
C15 C7 1.401276 1_555
Br0 C12 1.896654 1_555
Br1 C13 1.896654 1_555
Br2 C14 1.896654 1_555
Br3 C15 1.896654 1_555
Br4 C4 1.895932 1_555
Br5 C5 1.895932 1_555
Br6 C6 1.895932 1_555
Br7 C7 1.895932 1_555
