# generated using pymatgen
data_La5Se6N
_symmetry_space_group_name_H-M   'P 1'
_cell_length_a   26.83024454
_cell_length_b   26.83024454
_cell_length_c   7.92429605
_cell_angle_alpha   89.33786827
_cell_angle_beta   89.33786827
_cell_angle_gamma   27.59479289
_symmetry_Int_Tables_number   1
_chemical_formula_structural   La5Se6N
_chemical_formula_sum   'La40 Se48 N8'
_cell_volume   2642.17927757
_cell_formula_units_Z   8
loop_
 _symmetry_equiv_pos_site_id
 _symmetry_equiv_pos_as_xyz
  1  'x, y, z'
loop_
 _atom_site_type_symbol
 _atom_site_label
 _atom_site_symmetry_multiplicity
 _atom_site_fract_x
 _atom_site_fract_y
 _atom_site_fract_z
 _atom_site_occupancy
  La  La0  1  0.75231600  0.35637500  0.68589800  1
  La  La1  1  0.63622000  0.25409400  0.82450300  1
  La  La2  1  0.25409400  0.63622000  0.32450300  1
  La  La3  1  0.35637500  0.75231600  0.18589800  1
  La  La4  1  0.85470200  0.69673800  0.78422300  1
  La  La5  1  0.30281400  0.14509500  0.71594800  1
  La  La6  1  0.14509500  0.30281400  0.21594800  1
  La  La7  1  0.69673800  0.85470200  0.28422300  1
  La  La8  1  0.95986600  0.45079600  0.62863300  1
  La  La9  1  0.54885800  0.03950300  0.87171800  1
  La  La10  1  0.03950300  0.54885800  0.37171800  1
  La  La11  1  0.45079600  0.95986600  0.12863300  1
  La  La12  1  0.98252900  0.86739600  0.65516800  1
  La  La13  1  0.12896200  0.01844500  0.84137100  1
  La  La14  1  0.01844500  0.12896200  0.34137100  1
  La  La15  1  0.86739600  0.98252900  0.15516800  1
  La  La16  1  0.72197900  0.56769500  0.53026000  1
  La  La17  1  0.43146000  0.27828900  0.97023500  1
  La  La18  1  0.27828900  0.43146000  0.47023500  1
  La  La19  1  0.56769500  0.72197900  0.03026000  1
  La  La20  1  0.15609200  0.43300400  0.83020400  1
  La  La21  1  0.56623500  0.84394100  0.66940100  1
  La  La22  1  0.84394100  0.56623500  0.16940100  1
  La  La23  1  0.43300400  0.15609200  0.33020400  1
  La  La24  1  0.98773700  0.70061900  0.63541200  1
  La  La25  1  0.29851600  0.01215200  0.86558500  1
  La  La26  1  0.01215300  0.29851600  0.36558500  1
  La  La27  1  0.70061900  0.98773700  0.13541200  1
  La  La28  1  0.28853800  0.54619400  0.82218600  1
  La  La29  1  0.45160400  0.71363800  0.67767300  1
  La  La30  1  0.71363800  0.45160400  0.17767300  1
  La  La31  1  0.54619400  0.28853800  0.32218600  1
  La  La32  1  0.94105500  0.32740700  0.82789900  1
  La  La33  1  0.67112500  0.05965400  0.67426700  1
  La  La34  1  0.05965400  0.67112500  0.17426700  1
  La  La35  1  0.32740700  0.94105500  0.32789900  1
  La  La36  1  0.43232400  0.56876200  0.74651600  1
  La  La37  1  0.56876200  0.43232400  0.24651600  1
  La  La38  1  0.12541100  0.85324400  0.99197900  1
  La  La39  1  0.85324400  0.12541100  0.49197900  1
  Se  Se0  1  0.11305500  0.26264500  0.89657200  1
  Se  Se1  1  0.73763300  0.88728600  0.60367300  1
  Se  Se2  1  0.88728600  0.73763300  0.10367300  1
  Se  Se3  1  0.26264500  0.11305500  0.39657200  1
  Se  Se4  1  0.74165900  0.62984500  0.82449300  1
  Se  Se5  1  0.37070800  0.25841800  0.67570200  1
  Se  Se6  1  0.25841800  0.37070800  0.17570200  1
  Se  Se7  1  0.62984500  0.74165900  0.32449300  1
  Se  Se8  1  0.90040800  0.25448900  0.97117400  1
  Se  Se9  1  0.74884200  0.10027700  0.53188900  1
  Se  Se10  1  0.10027700  0.74884200  0.03188900  1
  Se  Se11  1  0.25448900  0.90040800  0.47117400  1
  Se  Se12  1  0.16448500  0.34704400  0.53022900  1
  Se  Se13  1  0.65318000  0.83628300  0.96925500  1
  Se  Se14  1  0.83628300  0.65318000  0.46925500  1
  Se  Se15  1  0.34704400  0.16448500  0.03022900  1
  Se  Se16  1  0.55607100  0.52949200  0.97945500  1
  Se  Se17  1  0.46662900  0.44615300  0.52004300  1
  Se  Se18  1  0.44615300  0.46662900  0.02004300  1
  Se  Se19  1  0.52949200  0.55607100  0.47945500  1
  Se  Se20  1  0.67934500  0.31853300  0.73859200  1
  Se  Se21  1  0.31853300  0.67934500  0.23859200  1
  Se  Se22  1  0.97325300  0.10091800  0.64229300  1
  Se  Se23  1  0.90234600  0.02494100  0.85062800  1
  Se  Se24  1  0.02494100  0.90234600  0.35062800  1
  Se  Se25  1  0.10091800  0.97325300  0.14229300  1
  Se  Se26  1  0.21305700  0.71600100  0.69194000  1
  Se  Se27  1  0.28260500  0.78610400  0.81628700  1
  Se  Se28  1  0.78610400  0.28260500  0.31628700  1
  Se  Se29  1  0.71600100  0.21305700  0.19194000  1
  Se  Se30  1  0.67615200  0.53634700  0.82035300  1
  Se  Se31  1  0.46510900  0.32228900  0.67974500  1
  Se  Se32  1  0.32228900  0.46510900  0.17974500  1
  Se  Se33  1  0.53634700  0.67615200  0.32035300  1
  Se  Se34  1  0.88040600  0.87618700  0.88221800  1
  Se  Se35  1  0.12345000  0.12078600  0.61848500  1
  Se  Se36  1  0.12078600  0.12345000  0.11848500  1
  Se  Se37  1  0.87618700  0.88040600  0.38221800  1
  Se  Se38  1  0.00001900  0.50038000  0.00046000  1
  Se  Se39  1  0.50038000  0.00001900  0.50046000  1
  Se  Se40  1  0.18899100  0.52109200  0.84236000  1
  Se  Se41  1  0.47915400  0.81124100  0.65763900  1
  Se  Se42  1  0.81124100  0.47915400  0.15763900  1
  Se  Se43  1  0.52109200  0.18899100  0.34236000  1
  Se  Se44  1  0.14880100  0.64895000  0.52266600  1
  Se  Se45  1  0.35030900  0.85111100  0.97766400  1
  Se  Se46  1  0.85111100  0.35030900  0.47766400  1
  Se  Se47  1  0.64895000  0.14880100  0.02266600  1
  N  N0  1  0.01065400  0.58953300  0.66918800  1
  N  N1  1  0.41055000  0.98961100  0.83031400  1
  N  N2  1  0.98961100  0.41055000  0.33031400  1
  N  N3  1  0.58953300  0.01065400  0.16918800  1
  N  N4  1  0.90868100  0.41197200  0.60445400  1
  N  N5  1  0.58865000  0.09098800  0.89484900  1
  N  N6  1  0.09098800  0.58865000  0.39484900  1
  N  N7  1  0.41197200  0.90868100  0.10445400  1
loop_
_geom_bond_atom_site_label_1
_geom_bond_atom_site_label_2
_geom_bond_distance
_geom_bond_site_symmetry_2
La0 Se20 2.921127 1_555
La0 Se46 2.985963 1_555
La0 Se8 3.030372 1_555
La0 Se28 3.195320 1_555
La0 Se22 3.198131 1_555
La0 Se19 3.220596 1_555
La0 Se30 3.347540 1_555
La0 Se16 3.365566 1_555
La1 Se20 2.879540 1_555
La1 Se47 2.960228 1_556
La1 Se18 3.066238 1_556
La1 Se9 3.081332 1_555
La1 Se29 3.188199 1_556
La1 Se31 3.305253 1_555
La1 Se23 3.319523 1_555
La1 Se17 3.388946 1_555
La2 Se21 2.879540 1_555
La2 Se44 2.960228 1_555
La2 Se17 3.066238 1_555
La2 Se10 3.081332 1_555
La2 Se26 3.188199 1_555
La2 Se32 3.305253 1_555
La2 Se24 3.319523 1_555
La2 Se18 3.388946 1_555
La3 Se21 2.921127 1_555
La3 Se45 2.985963 1_554
La3 Se11 3.030372 1_555
La3 Se27 3.195320 1_554
La3 Se25 3.198131 1_555
La3 Se16 3.220596 1_554
La3 Se33 3.347540 1_555
La3 Se19 3.365566 1_555
La4 N0 2.291750 1_655
La4 Se14 2.993182 1_555
La4 Se38 3.070910 1_656
La4 Se13 3.076395 1_555
La4 Se1 3.085745 1_555
La4 Se2 3.192465 1_556
La5 N1 2.275767 1_545
La5 Se15 3.012276 1_556
La5 Se0 3.064512 1_555
La5 Se39 3.088329 1_555
La5 Se12 3.097835 1_555
La5 Se3 3.171924 1_555
La6 N2 2.275767 1_455
La6 Se12 3.012276 1_555
La6 Se3 3.064512 1_555
La6 Se38 3.088329 1_555
La6 Se15 3.097835 1_555
La6 Se0 3.171924 1_554
La7 N3 2.291750 1_565
La7 Se13 2.993182 1_554
La7 Se39 3.070910 1_565
La7 Se14 3.076395 1_555
La7 Se2 3.085745 1_555
La7 Se1 3.192465 1_555
La8 N4 2.356693 1_555
La8 N2 2.424701 1_555
La8 Se4 3.142232 1_555
La8 Se0 3.172130 1_655
La8 Se14 3.177989 1_555
La8 Se12 3.370482 1_655
La8 Se38 3.783704 1_656
La9 N5 2.388718 1_555
La9 N3 2.422132 1_556
La9 Se15 3.146153 1_556
La9 Se5 3.155450 1_555
La9 Se1 3.183022 1_545
La9 Se13 3.326095 1_545
La9 Se39 3.751254 1_555
La10 N6 2.388718 1_555
La10 N0 2.422132 1_555
La10 Se12 3.146153 1_555
La10 Se6 3.155450 1_555
La10 Se2 3.183022 1_455
La10 Se14 3.326095 1_455
La10 Se38 3.751254 1_555
La11 N7 2.356693 1_555
La11 N1 2.424701 1_554
La11 Se7 3.142232 1_555
La11 Se3 3.172130 1_565
La11 Se13 3.177989 1_554
La11 Se15 3.370482 1_565
La11 Se39 3.783704 1_565
La12 Se23 2.974980 1_565
La12 Se44 3.007413 1_655
La12 Se34 3.090418 1_555
La12 Se24 3.126276 1_655
La12 Se9 3.141357 1_565
La12 Se26 3.212924 1_655
La12 Se10 3.346177 1_656
La12 Se37 3.361648 1_555
La13 Se22 2.919669 1_455
La13 Se25 3.038326 1_546
La13 Se45 3.060849 1_545
La13 Se35 3.139295 1_555
La13 Se8 3.152559 1_455
La13 Se27 3.217755 1_545
La13 Se11 3.325523 1_545
La13 Se36 3.441497 1_556
La14 Se25 2.919669 1_545
La14 Se22 3.038326 1_455
La14 Se46 3.060849 1_455
La14 Se36 3.139295 1_555
La14 Se11 3.152559 1_545
La14 Se28 3.217755 1_455
La14 Se8 3.325523 1_454
La14 Se35 3.441497 1_555
La15 Se24 2.974980 1_655
La15 Se47 3.007413 1_565
La15 Se37 3.090418 1_555
La15 Se23 3.126276 1_564
La15 Se10 3.141357 1_655
La15 Se29 3.212924 1_565
La15 Se9 3.346177 1_565
La15 Se34 3.361648 1_554
La16 N4 2.410263 1_555
La16 Se30 3.037532 1_555
La16 Se42 3.164208 1_555
La16 Se7 3.165639 1_555
La16 Se4 3.189766 1_555
La16 Se46 3.225021 1_555
La16 Se33 3.229731 1_555
La16 Se41 3.271877 1_555
La17 N5 2.417133 1_555
La17 Se31 3.047273 1_555
La17 Se6 3.141317 1_556
La17 Se43 3.163405 1_556
La17 Se5 3.169468 1_555
La17 Se47 3.222180 1_556
La17 Se32 3.242965 1_556
La17 Se40 3.266263 1_555
La18 N6 2.417133 1_555
La18 Se32 3.047273 1_555
La18 Se5 3.141317 1_555
La18 Se40 3.163405 1_555
La18 Se6 3.169468 1_555
La18 Se44 3.222180 1_555
La18 Se31 3.242965 1_555
La18 Se43 3.266263 1_555
La19 N7 2.410263 1_555
La19 Se33 3.037532 1_555
La19 Se41 3.164208 1_554
La19 Se4 3.165639 1_554
La19 Se7 3.189766 1_555
La19 Se45 3.225021 1_554
La19 Se30 3.229731 1_554
La19 Se42 3.271877 1_555
La20 N0 2.331560 1_555
La20 Se5 2.959484 1_555
La20 Se38 3.021834 1_556
La20 Se6 3.124285 1_556
La20 Se40 3.174763 1_555
La20 Se12 3.195967 1_555
La20 Se15 3.894194 1_556
La21 N1 2.324739 1_555
La21 Se4 2.951019 1_555
La21 Se39 3.043106 1_565
La21 Se7 3.110914 1_555
La21 Se41 3.142843 1_555
La21 Se13 3.224474 1_555
La22 N2 2.324739 1_555
La22 Se7 2.951019 1_555
La22 Se38 3.043106 1_655
La22 Se4 3.110914 1_554
La22 Se42 3.142843 1_555
La22 Se14 3.224474 1_555
La23 N3 2.331560 1_555
La23 Se6 2.959484 1_555
La23 Se39 3.021834 1_555
La23 Se5 3.124285 1_555
La23 Se43 3.174763 1_555
La23 Se15 3.195967 1_555
La23 Se12 3.894194 1_555
La24 N6 2.364816 1_655
La24 N0 2.463733 1_655
La24 Se40 2.994748 1_655
La24 Se34 3.216490 1_555
La24 Se37 3.252247 1_555
La24 Se1 3.258232 1_555
La24 Se44 3.273428 1_655
La25 N7 2.364120 1_546
La25 N1 2.498314 1_545
La25 Se41 2.995938 1_545
La25 Se35 3.194743 1_555
La25 Se36 3.217174 1_556
La25 Se45 3.268990 1_545
La25 Se0 3.274606 1_555
La26 N4 2.364120 1_455
La26 N2 2.498292 1_455
La26 Se42 2.995948 1_455
La26 Se36 3.194754 1_555
La26 Se35 3.217184 1_555
La26 Se46 3.269015 1_455
La26 Se3 3.274587 1_555
La27 N5 2.364816 1_564
La27 N3 2.463733 1_565
La27 Se43 2.994748 1_565
La27 Se37 3.216490 1_555
La27 Se34 3.252247 1_554
La27 Se2 3.258232 1_555
La27 Se47 3.273428 1_565
La28 Se18 2.995534 1_556
La28 Se44 3.003989 1_555
La28 Se10 3.028756 1_556
La28 Se31 3.065112 1_555
La28 Se26 3.083652 1_555
La28 Se32 3.163237 1_556
La28 Se40 3.284619 1_555
La28 Se17 3.594410 1_555
La29 Se11 2.965570 1_555
La29 Se45 2.987859 1_555
La29 Se19 3.020759 1_555
La29 Se30 3.072299 1_555
La29 Se27 3.139202 1_555
La29 Se33 3.172120 1_555
La29 Se41 3.293614 1_555
La29 Se16 3.649859 1_555
La30 Se8 2.965570 1_554
La30 Se46 2.987859 1_555
La30 Se16 3.020759 1_554
La30 Se33 3.072299 1_555
La30 Se28 3.139202 1_555
La30 Se30 3.172120 1_554
La30 Se42 3.293614 1_555
La30 Se19 3.649859 1_555
La31 Se17 2.995534 1_555
La31 Se47 3.003989 1_555
La31 Se9 3.028756 1_555
La31 Se32 3.065112 1_555
La31 Se29 3.083652 1_555
La31 Se31 3.163237 1_555
La31 Se43 3.284619 1_555
La31 Se18 3.594410 1_555
La32 N4 2.342451 1_555
La32 Se35 3.061591 1_655
La32 Se8 3.163499 1_555
La32 Se0 3.230330 1_655
La32 Se42 3.230412 1_556
La32 Se30 3.365249 1_555
La32 Se46 3.375042 1_555
La32 Se36 3.419624 1_656
La33 N5 2.303451 1_555
La33 Se34 3.083805 1_545
La33 Se1 3.208453 1_545
La33 Se43 3.230741 1_555
La33 Se9 3.279374 1_555
La33 Se31 3.342521 1_555
La33 Se47 3.359953 1_556
La33 Se37 3.437792 1_545
La34 N6 2.303451 1_555
La34 Se37 3.083805 1_455
La34 Se2 3.208453 1_455
La34 Se40 3.230741 1_554
La34 Se10 3.279374 1_555
La34 Se32 3.342521 1_555
La34 Se44 3.359953 1_555
La34 Se34 3.437792 1_454
La35 N7 2.342451 1_555
La35 Se36 3.061591 1_565
La35 Se11 3.163499 1_555
La35 Se3 3.230330 1_565
La35 Se41 3.230412 1_555
La35 Se33 3.365249 1_555
La35 Se45 3.375042 1_554
La35 Se35 3.419624 1_565
La36 Se27 2.991651 1_555
La36 Se26 3.037834 1_555
La36 Se16 3.071975 1_555
La36 Se17 3.101781 1_555
La36 Se19 3.115589 1_555
La36 Se20 3.183504 1_555
La36 Se18 3.228609 1_556
La37 Se28 2.991651 1_555
La37 Se29 3.037834 1_555
La37 Se19 3.071975 1_555
La37 Se18 3.101781 1_555
La37 Se16 3.115589 1_554
La37 Se21 3.183504 1_555
La37 Se17 3.228609 1_555
La38 Se25 2.922031 1_556
La38 Se27 3.070331 1_555
La38 Se23 3.076086 1_465
La38 Se26 3.076828 1_555
La38 Se21 3.099758 1_556
La38 Se24 3.270182 1_556
La38 Se10 3.424010 1_556
La39 Se22 2.922031 1_555
La39 Se28 3.070331 1_555
La39 Se24 3.076086 1_645
La39 Se29 3.076828 1_555
La39 Se20 3.099758 1_555
La39 Se23 3.270182 1_555
La39 Se9 3.424010 1_555
