# generated using pymatgen
data_TiAl2
_symmetry_space_group_name_H-M   'P 1'
_cell_length_a   3.91093511
_cell_length_b   3.98894172
_cell_length_c   6.34530781
_cell_angle_alpha   90.00000000
_cell_angle_beta   107.91149206
_cell_angle_gamma   90.00000000
_symmetry_Int_Tables_number   1
_chemical_formula_structural   TiAl2
_chemical_formula_sum   'Ti2 Al4'
_cell_volume   94.19215442
_cell_formula_units_Z   2
loop_
 _symmetry_equiv_pos_site_id
 _symmetry_equiv_pos_as_xyz
  1  'x, y, z'
loop_
 _atom_site_type_symbol
 _atom_site_label
 _atom_site_symmetry_multiplicity
 _atom_site_fract_x
 _atom_site_fract_y
 _atom_site_fract_z
 _atom_site_occupancy
  Ti  Ti0  1  0.65633596  0.00000000  0.31300839  1
  Ti  Ti1  1  0.34368711  0.00000000  0.68704803  1
  Al  Al0  1  -0.00000373  0.00000000  -0.00001799  1
  Al  Al1  1  0.49999889  0.50000000  -0.00001772  1
  Al  Al2  1  0.82761628  0.50000000  0.65499725  1
  Al  Al3  1  0.17236449  0.50000000  0.34498203  1
loop_
_geom_bond_atom_site_label_1
_geom_bond_atom_site_label_2
_geom_bond_distance
_geom_bond_site_symmetry_2
Ti0 Ti1 2.985494 1_555
Ti0 Ti1 2.989142 1_655
Al0 Ti1 2.718696 1_554
Al0 Ti0 2.719128 1_455
Al0 Ti1 2.719602 1_454
Al0 Ti0 2.719946 1_555
Al0 Al1 2.793158 1_455
Al0 Al1 2.793158 1_445
Al0 Al1 2.793171 1_555
Al0 Al1 2.793171 1_545
Al0 Al2 2.883842 1_454
Al0 Al2 2.883842 1_444
Al0 Al3 2.883909 1_555
Al0 Al3 2.883909 1_545
Al1 Ti1 2.747333 1_554
Al1 Ti1 2.747333 1_564
Al1 Ti0 2.747715 1_555
Al1 Ti0 2.747715 1_565
Al1 Al2 2.856361 1_554
Al1 Al3 2.856491 1_555
Al1 Al3 2.857654 1_655
Al1 Al2 2.857654 1_454
Al2 Al3 2.705352 1_655
Al2 Al3 2.708516 1_555
Al2 Ti1 2.799647 1_565
Al2 Ti1 2.799647 1_555
Al2 Ti1 2.800073 1_665
Al2 Ti1 2.800073 1_655
Al2 Ti0 2.870805 1_555
Al2 Ti0 2.870805 1_565
Al3 Ti0 2.799625 1_565
Al3 Ti0 2.799625 1_555
Al3 Ti0 2.800031 1_465
Al3 Ti0 2.800031 1_455
Al3 Ti1 2.871140 1_565
Al3 Ti1 2.871140 1_555
