# generated using pymatgen
data_AlCoP2C2(NO4)2
_symmetry_space_group_name_H-M   'P 1'
_cell_length_a   15.32283900
_cell_length_b   7.84564000
_cell_length_c   8.68003459
_cell_angle_alpha   69.44251393
_cell_angle_beta   90.00000000
_cell_angle_gamma   90.00000000
_symmetry_Int_Tables_number   1
_chemical_formula_structural   AlCoP2C2(NO4)2
_chemical_formula_sum   'Al4 Co4 P8 C8 N8 O32'
_cell_volume   977.04267208
_cell_formula_units_Z   4
loop_
 _symmetry_equiv_pos_site_id
 _symmetry_equiv_pos_as_xyz
  1  'x, y, z'
loop_
 _atom_site_type_symbol
 _atom_site_label
 _atom_site_symmetry_multiplicity
 _atom_site_fract_x
 _atom_site_fract_y
 _atom_site_fract_z
 _atom_site_occupancy
  Al  Al0  1  0.52760700  0.99326400  0.24362800  1
  Al  Al1  1  0.02760700  0.50673600  0.75637200  1
  Al  Al2  1  0.47239300  0.00673600  0.75637200  1
  Al  Al3  1  0.97239300  0.49326400  0.24362800  1
  Co  Co0  1  0.75939800  0.00544400  0.70109600  1
  Co  Co1  1  0.25939800  0.49455600  0.29890400  1
  Co  Co2  1  0.24060200  0.99455600  0.29890400  1
  Co  Co3  1  0.74060200  0.50544400  0.70109600  1
  P  P0  1  0.62299900  0.15543900  0.90824000  1
  P  P1  1  0.12299900  0.34456100  0.09176000  1
  P  P2  1  0.37700100  0.84456100  0.09176000  1
  P  P3  1  0.87700100  0.65543900  0.90824000  1
  P  P4  1  0.61618100  0.87968400  0.58208100  1
  P  P5  1  0.11618100  0.62031600  0.41791900  1
  P  P6  1  0.38381900  0.12031600  0.41791900  1
  P  P7  1  0.88381900  0.37968400  0.58208100  1
  C  C0  1  0.83851700  0.01835400  0.33630200  1
  C  C1  1  0.33851700  0.48164600  0.66369800  1
  C  C2  1  0.16148300  0.98164600  0.66369800  1
  C  C3  1  0.66148300  0.51835400  0.33630200  1
  C  C4  1  0.85047500  0.05844400  0.17139300  1
  C  C5  1  0.35047500  0.44155600  0.82860700  1
  C  C6  1  0.14952500  0.94155600  0.82860700  1
  C  C7  1  0.64952500  0.55844400  0.17139300  1
  N  N0  1  0.82643800  0.99345100  0.47495400  1
  N  N1  1  0.32643800  0.50654900  0.52504600  1
  N  N2  1  0.17356200  0.00654900  0.52504600  1
  N  N3  1  0.67356200  0.49345100  0.47495400  1
  N  N4  1  0.85916000  0.10215100  0.02881000  1
  N  N5  1  0.35916000  0.39784900  0.97119000  1
  N  N6  1  0.14084000  0.89784900  0.97119000  1
  N  N7  1  0.64084000  0.60215100  0.02881000  1
  O  O0  1  0.60596800  0.10817300  0.09504700  1
  O  O1  1  0.10596800  0.39182700  0.90495300  1
  O  O2  1  0.39403200  0.89182700  0.90495300  1
  O  O3  1  0.89403200  0.60817300  0.09504700  1
  O  O4  1  0.65982800  0.35223100  0.83813900  1
  O  O5  1  0.15982800  0.14776900  0.16186100  1
  O  O6  1  0.34017200  0.64776900  0.16186100  1
  O  O7  1  0.84017200  0.85223100  0.83813900  1
  O  O8  1  0.68517800  0.01500400  0.88352700  1
  O  O9  1  0.18517800  0.48499600  0.11647300  1
  O  O10  1  0.31482200  0.98499600  0.11647300  1
  O  O11  1  0.81482200  0.51500400  0.88352700  1
  O  O12  1  0.53352900  0.15683800  0.82311500  1
  O  O13  1  0.03352900  0.34316200  0.17688500  1
  O  O14  1  0.46647100  0.84316200  0.17688500  1
  O  O15  1  0.96647100  0.65683800  0.82311500  1
  O  O16  1  0.65938600  0.06943600  0.54994500  1
  O  O17  1  0.15938600  0.43056400  0.45005500  1
  O  O18  1  0.34061400  0.93056400  0.45005500  1
  O  O19  1  0.84061400  0.56943600  0.54994500  1
  O  O20  1  0.53777300  0.85149900  0.70096100  1
  O  O21  1  0.03777300  0.64850100  0.29903900  1
  O  O22  1  0.46222700  0.14850100  0.29903900  1
  O  O23  1  0.96222700  0.35149900  0.70096100  1
  O  O24  1  0.69137000  0.74635800  0.66205600  1
  O  O25  1  0.19137000  0.75364200  0.33794400  1
  O  O26  1  0.30863000  0.25364200  0.33794400  1
  O  O27  1  0.80863000  0.24635800  0.66205600  1
  O  O28  1  0.58426700  0.85709100  0.42195000  1
  O  O29  1  0.08426700  0.64290900  0.57805000  1
  O  O30  1  0.41573300  0.14290900  0.57805000  1
  O  O31  1  0.91573300  0.35709100  0.42195000  1
loop_
_geom_bond_atom_site_label_1
_geom_bond_atom_site_label_2
_geom_bond_distance
_geom_bond_site_symmetry_2
Al0 O14 1.754755 1_555
Al0 O0 1.761027 1_565
Al0 O28 1.769073 1_555
Al0 O22 1.769098 1_565
Al1 O15 1.754755 1_455
Al1 O1 1.761027 1_555
Al1 O29 1.769073 1_555
Al1 O23 1.769098 1_455
Al2 O12 1.754755 1_555
Al2 O2 1.761027 1_545
Al2 O30 1.769073 1_555
Al2 O20 1.769098 1_545
Al3 O13 1.754755 1_655
Al3 O3 1.761027 1_555
Al3 O31 1.769073 1_555
Al3 O21 1.769098 1_655
Co0 O7 1.840544 1_545
Co0 O27 1.951067 1_555
Co0 O16 1.964498 1_555
Co0 O8 1.972282 1_555
Co0 N0 2.246519 1_545
Co0 O24 2.411845 1_545
Co1 O6 1.840544 1_555
Co1 O26 1.951067 1_555
Co1 O17 1.964498 1_555
Co1 O9 1.972282 1_555
Co1 N1 2.246519 1_555
Co1 O25 2.411845 1_555
Co2 O5 1.840544 1_565
Co2 O25 1.951067 1_555
Co2 O18 1.964498 1_555
Co2 O10 1.972282 1_555
Co2 N2 2.246519 1_565
Co2 O26 2.411845 1_565
Co3 O4 1.840544 1_555
Co3 O24 1.951067 1_555
Co3 O19 1.964498 1_555
Co3 O11 1.972282 1_555
Co3 N3 2.246519 1_555
Co3 O27 2.411845 1_555
C0 N0 1.164351 1_545
C1 N1 1.164351 1_555
C2 N2 1.164351 1_565
C3 N3 1.164351 1_555
C4 N4 1.170028 1_555
C5 N5 1.170028 1_555
C6 N6 1.170028 1_555
C7 N7 1.170028 1_555
O0 P0 1.553242 1_554
O1 P1 1.553242 1_556
O2 P2 1.553242 1_556
O3 P3 1.553242 1_554
O4 P0 1.553299 1_555
O5 P1 1.553299 1_555
O6 P2 1.553299 1_555
O7 P3 1.553299 1_555
O8 P0 1.527651 1_555
O9 P1 1.527651 1_555
O10 P2 1.527651 1_555
O11 P3 1.527651 1_555
O12 P0 1.555584 1_555
O13 P1 1.555584 1_555
O14 P2 1.555584 1_555
O15 P3 1.555584 1_555
O16 P4 1.562289 1_545
O17 P5 1.562289 1_555
O18 P6 1.562289 1_565
O19 P7 1.562289 1_555
O20 P4 1.548184 1_555
O21 P5 1.548184 1_555
O22 P6 1.548184 1_555
O23 P7 1.548184 1_555
O24 P4 1.547081 1_555
O25 P5 1.547081 1_555
O26 P6 1.547081 1_555
O27 P7 1.547081 1_555
O28 P4 1.541273 1_555
O29 P5 1.541273 1_555
O30 P6 1.541273 1_555
O31 P7 1.541273 1_555
