# generated using pymatgen
data_Sr4LiSm2Ta2O12
_symmetry_space_group_name_H-M   'P 1'
_cell_length_a   5.93883442
_cell_length_b   6.05031815
_cell_length_c   8.48944869
_cell_angle_alpha   90.68871311
_cell_angle_beta   88.20290253
_cell_angle_gamma   89.93150734
_symmetry_Int_Tables_number   1
_chemical_formula_structural   Sr4LiSm2Ta2O12
_chemical_formula_sum   'Sr4 Li1 Sm2 Ta2 O12'
_cell_volume   304.86905430
_cell_formula_units_Z   1
loop_
 _symmetry_equiv_pos_site_id
 _symmetry_equiv_pos_as_xyz
  1  'x, y, z'
loop_
 _atom_site_type_symbol
 _atom_site_label
 _atom_site_symmetry_multiplicity
 _atom_site_fract_x
 _atom_site_fract_y
 _atom_site_fract_z
 _atom_site_occupancy
  Sr  Sr0  1  0.02626200  0.42853300  0.29222900  1
  Sr  Sr1  1  0.99672700  0.54168200  0.72904100  1
  Sr  Sr2  1  0.50193300  0.95497100  0.24740200  1
  Sr  Sr3  1  0.50170000  0.03686300  0.74587600  1
  Li  Li0  1  0.86841600  0.60077300  0.05180700  1
  Sm  Sm0  1  0.00459500  0.98865600  0.50069400  1
  Sm  Sm1  1  0.46146600  0.49808900  0.99544200  1
  Ta  Ta0  1  0.99227400  0.02023800  0.99943800  1
  Ta  Ta1  1  0.51145000  0.49583100  0.49740500  1
  O  O0  1  0.91650700  0.03248600  0.23419500  1
  O  O1  1  0.07823900  0.97646400  0.76910500  1
  O  O2  1  0.59836500  0.53243700  0.26025100  1
  O  O3  1  0.41745300  0.46463400  0.73053000  1
  O  O4  1  0.15097000  0.71441000  0.04539600  1
  O  O5  1  0.82540200  0.30626600  0.96085500  1
  O  O6  1  0.32141100  0.22162100  0.45152700  1
  O  O7  1  0.69460500  0.76620700  0.54977000  1
  O  O8  1  0.28191100  0.17544700  0.04206800  1
  O  O9  1  0.70511600  0.82614100  0.96588100  1
  O  O10  1  0.23356900  0.68443000  0.46560300  1
  O  O11  1  0.78662800  0.30673900  0.53579600  1
loop_
_geom_bond_atom_site_label_1
_geom_bond_atom_site_label_2
_geom_bond_distance
_geom_bond_site_symmetry_2
Li0 O4 1.813678 1_655
Li0 O9 1.843105 1_554
Li0 O5 1.953678 1_554
Li0 O2 2.390742 1_555
O0 Ta0 2.029770 1_554
O0 Sm0 2.356037 1_645
O0 Sr2 2.506213 1_545
O0 Sr0 2.530793 1_655
O1 Ta0 2.019651 1_465
O1 Sm0 2.335700 1_555
O1 Sr3 2.543580 1_565
O1 Sr1 2.694769 1_455
O2 Ta1 2.077187 1_555
O2 Sm1 2.421131 1_554
O2 Sr2 2.623454 1_555
O2 Sr0 2.640114 1_655
O3 Ta1 2.050375 1_555
O3 Sm1 2.278849 1_555
O3 Sr1 2.541637 1_455
O3 Sr3 2.641008 1_555
O4 Ta0 2.121448 1_464
O4 Sm1 2.285815 1_554
O4 Sr2 3.094371 1_555
O5 Ta0 2.028335 1_555
O5 Sm1 2.459807 1_555
O5 Sr1 2.623390 1_555
O5 Sr3 3.136772 1_555
O6 Ta1 2.048033 1_555
O6 Sm0 2.381656 1_545
O6 Sr2 2.562669 1_545
O6 Sr0 2.579273 1_555
O6 Sr3 2.978657 1_555
O7 Ta1 2.018394 1_555
O7 Sm0 2.312032 1_655
O7 Sr3 2.564385 1_565
O7 Sr1 2.756099 1_555
O7 Sr2 3.074800 1_555
O8 Ta0 2.001579 1_454
O8 Sm1 2.258650 1_554
O8 Sr2 2.592309 1_545
O8 Sr3 2.910397 1_554
O8 Sr0 2.978941 1_555
O9 Ta0 2.096617 1_565
O9 Sm1 2.468269 1_555
O9 Sr3 2.601599 1_565
O9 Sr2 2.747290 1_556
O10 Ta1 2.032060 1_555
O10 Sm0 2.298125 1_555
O10 Sr0 2.478434 1_555
O10 Sr1 2.752830 1_455
O10 Sr2 2.923145 1_555
O11 Ta1 2.030700 1_555
O11 Sm0 2.328998 1_645
O11 Sr1 2.519011 1_555
O11 Sr0 2.588149 1_655
O11 Sr3 2.932160 1_555
