# generated using pymatgen
data_CsCOF3
_symmetry_space_group_name_H-M   'P 1'
_cell_length_a   7.69891576
_cell_length_b   5.90645137
_cell_length_c   9.42489971
_cell_angle_alpha   89.27446189
_cell_angle_beta   90.00000000
_cell_angle_gamma   90.00000000
_symmetry_Int_Tables_number   1
_chemical_formula_structural   CsCOF3
_chemical_formula_sum   'Cs4 C4 O4 F12'
_cell_volume   428.54666244
_cell_formula_units_Z   4
loop_
 _symmetry_equiv_pos_site_id
 _symmetry_equiv_pos_as_xyz
  1  'x, y, z'
loop_
 _atom_site_type_symbol
 _atom_site_label
 _atom_site_symmetry_multiplicity
 _atom_site_fract_x
 _atom_site_fract_y
 _atom_site_fract_z
 _atom_site_occupancy
  Cs  Cs0  1  0.65807298  0.26470467  0.18004806  1
  Cs  Cs1  1  0.15807298  0.73529533  0.31995194  1
  Cs  Cs2  1  0.34192702  0.73529533  0.81995194  1
  Cs  Cs3  1  0.84192702  0.26470467  0.68004806  1
  C  C0  1  0.29522590  0.26517436  0.56739520  1
  C  C1  1  0.79522590  0.73482564  0.93260480  1
  C  C2  1  0.70477410  0.73482564  0.43260480  1
  C  C3  1  0.20477410  0.26517436  0.06739520  1
  O  O0  1  0.29349568  0.43538248  0.08346321  1
  O  O1  1  0.70650432  0.56461752  0.91653679  1
  O  O2  1  0.20650432  0.43538248  0.58346321  1
  O  O3  1  0.79349568  0.56461752  0.41653679  1
  F  F0  1  0.12003127  0.24053538  0.93526586  1
  F  F1  1  0.37996873  0.24053538  0.43526586  1
  F  F2  1  0.62003127  0.75946462  0.56473414  1
  F  F3  1  0.87996873  0.75946462  0.06473414  1
  F  F4  1  0.29598235  0.05210115  0.07979705  1
  F  F5  1  0.79598235  0.94789885  0.42020295  1
  F  F6  1  0.70401765  0.94789885  0.92020295  1
  F  F7  1  0.20401765  0.05210115  0.57979705  1
  F  F8  1  0.06671973  0.22962975  0.16611004  1
  F  F9  1  0.56671973  0.77037025  0.33388996  1
  F  F10  1  0.93328027  0.77037025  0.83388996  1
  F  F11  1  0.43328027  0.22962975  0.66611004  1
loop_
_geom_bond_atom_site_label_1
_geom_bond_atom_site_label_2
_geom_bond_distance
_geom_bond_site_symmetry_2
Cs0 O3 3.048421 1_555
Cs0 O1 3.055102 1_554
Cs0 F5 3.105573 1_545
Cs0 O0 3.114496 1_555
Cs0 F6 3.120934 1_544
Cs0 F8 3.155795 1_655
Cs0 F4 3.204835 1_555
Cs0 F1 3.222104 1_555
Cs0 F9 3.318855 1_545
Cs0 F9 3.409836 1_555
Cs0 F3 3.543858 1_555
Cs0 F3 3.617611 1_545
Cs1 O0 3.048421 1_555
Cs1 O2 3.055102 1_555
Cs1 F4 3.105573 1_565
Cs1 O3 3.114496 1_455
Cs1 F7 3.120934 1_565
Cs1 F9 3.155795 1_555
Cs1 F5 3.204835 1_455
Cs1 F3 3.222104 1_455
Cs1 F8 3.318855 1_565
Cs1 F8 3.409836 1_555
Cs1 F1 3.543858 1_555
Cs1 F1 3.617611 1_565
Cs2 O2 3.048421 1_555
Cs2 O0 3.055102 1_556
Cs2 F7 3.105573 1_565
Cs2 O1 3.114496 1_555
Cs2 F4 3.120934 1_566
Cs2 F10 3.155795 1_455
Cs2 F6 3.204835 1_555
Cs2 F2 3.222104 1_555
Cs2 F11 3.318855 1_565
Cs2 F11 3.409836 1_555
Cs2 F0 3.543858 1_555
Cs2 F0 3.617611 1_565
Cs3 O1 3.048421 1_555
Cs3 O3 3.055102 1_555
Cs3 F6 3.105573 1_545
Cs3 O2 3.114496 1_655
Cs3 F5 3.120934 1_545
Cs3 F11 3.155795 1_555
Cs3 F7 3.204835 1_655
Cs3 F0 3.222104 1_655
Cs3 F10 3.318855 1_545
Cs3 F10 3.409836 1_555
Cs3 F2 3.543858 1_555
Cs3 F2 3.617611 1_545
C0 O2 1.226393 1_555
C0 F1 1.414997 1_555
C0 F11 1.426332 1_555
C0 F7 1.444599 1_555
C1 O1 1.226393 1_555
C1 F3 1.414997 1_556
C1 F10 1.426332 1_555
C1 F6 1.444599 1_555
C2 O3 1.226393 1_555
C2 F2 1.414997 1_555
C2 F9 1.426332 1_555
C2 F5 1.444599 1_555
C3 O0 1.226393 1_555
C3 F0 1.414997 1_554
C3 F8 1.426332 1_555
C3 F4 1.444599 1_555
