# generated using pymatgen
data_Sr2TiP2O9
_symmetry_space_group_name_H-M   'P 1'
_cell_length_a   6.85401883
_cell_length_b   7.13025295
_cell_length_c   8.82819442
_cell_angle_alpha   76.39629153
_cell_angle_beta   77.71562474
_cell_angle_gamma   115.74707309
_symmetry_Int_Tables_number   1
_chemical_formula_structural   Sr2TiP2O9
_chemical_formula_sum   'Sr4 Ti2 P4 O18'
_cell_volume   352.41947406
_cell_formula_units_Z   2
loop_
 _symmetry_equiv_pos_site_id
 _symmetry_equiv_pos_as_xyz
  1  'x, y, z'
loop_
 _atom_site_type_symbol
 _atom_site_label
 _atom_site_symmetry_multiplicity
 _atom_site_fract_x
 _atom_site_fract_y
 _atom_site_fract_z
 _atom_site_occupancy
  Sr  Sr0  1  0.20701500  0.95636900  0.08624400  1
  Sr  Sr1  1  0.79325900  0.04261400  0.91375600  1
  Sr  Sr2  1  0.62658900  0.37656700  0.24794700  1
  Sr  Sr3  1  0.37453600  0.62451400  0.75205300  1
  Ti  Ti0  1  0.00237800  0.98404900  0.49382400  1
  Ti  Ti1  1  0.99620200  0.47787300  0.50617600  1
  P  P0  1  0.82716200  0.57672900  0.84557800  1
  P  P1  1  0.17274000  0.42230700  0.15442200  1
  P  P2  1  0.58681700  0.83670800  0.32583800  1
  P  P3  1  0.41265500  0.16254600  0.67416200  1
  O  O0  1  0.04282800  0.79579400  0.41321000  1
  O  O1  1  0.95603900  0.20900500  0.58679000  1
  O  O2  1  0.02007000  0.48272700  0.27257800  1
  O  O3  1  0.20876900  0.24470900  0.27124000  1
  O  O4  1  0.98000900  0.51594900  0.72876000  1
  O  O5  1  0.79264800  0.75530500  0.72742200  1
  O  O6  1  0.40185400  0.64044900  0.04751200  1
  O  O7  1  0.05035700  0.31207600  0.04726800  1
  O  O8  1  0.59762500  0.35934400  0.95273200  1
  O  O9  1  0.94936600  0.68796100  0.95248800  1
  O  O10  1  0.34794700  0.62151500  0.44596000  1
  O  O11  1  0.70777900  0.93194700  0.44566000  1
  O  O12  1  0.65343900  0.37760700  0.55434000  1
  O  O13  1  0.29390700  0.06747500  0.55404000  1
  O  O14  1  0.74347500  0.78181400  0.21402700  1
  O  O15  1  0.54193400  0.00372000  0.21456500  1
  O  O16  1  0.25650000  0.21828500  0.78543500  1
  O  O17  1  0.45750200  0.99584100  0.78597300  1
loop_
_geom_bond_atom_site_label_1
_geom_bond_atom_site_label_2
_geom_bond_distance
_geom_bond_site_symmetry_2
O0 Ti0 1.753246 1_555
O0 Ti1 2.073206 1_455
O0 Sr0 2.617817 1_555
O1 Ti1 1.753242 1_555
O1 Ti0 2.073209 1_645
O1 Sr1 2.617817 1_555
O2 P1 1.583415 1_555
O2 Ti1 2.024543 1_455
O2 Sr2 2.539103 1_455
O2 Sr0 2.912629 1_555
O3 P1 1.579186 1_555
O3 Ti0 2.032644 1_545
O3 Sr2 2.539005 1_555
O3 Sr0 2.908726 1_545
O4 P0 1.579186 1_555
O4 Ti1 2.032644 1_555
O4 Sr3 2.539005 1_655
O4 Sr1 2.908720 1_555
O5 P0 1.583415 1_555
O5 Ti0 2.024543 1_655
O5 Sr3 2.539103 1_555
O5 Sr1 2.912634 1_565
O6 P1 1.527338 1_555
O6 Sr3 2.679610 1_554
O6 Sr1 2.681367 1_564
O6 Sr0 3.123455 1_555
O7 P1 1.526716 1_555
O7 Sr1 2.682091 1_454
O7 Sr3 2.682609 1_554
O7 Sr0 3.133163 1_545
O8 P0 1.526717 1_555
O8 Sr0 2.682095 1_546
O8 Sr2 2.682608 1_556
O8 Sr1 3.133157 1_555
O9 P0 1.527338 1_555
O9 Sr2 2.679610 1_556
O9 Sr0 2.681363 1_656
O9 Sr1 3.123461 1_565
O10 P2 1.572460 1_555
O10 Ti1 2.048690 1_455
O10 Sr3 2.751212 1_555
O11 P2 1.577797 1_555
O11 Ti0 2.045449 1_655
O11 Sr3 2.751447 1_555
O12 P3 1.577797 1_555
O12 Ti1 2.045449 1_555
O12 Sr2 2.751447 1_555
O13 P3 1.572460 1_555
O13 Ti0 2.048690 1_545
O13 Sr2 2.751212 1_555
O14 P2 1.541533 1_555
O14 Sr2 2.561344 1_555
O14 Sr0 2.700856 1_655
O14 Sr1 2.710426 1_564
O15 P2 1.540876 1_545
O15 Sr2 2.567541 1_555
O15 Sr0 2.698145 1_545
O15 Sr1 2.718156 1_554
O16 P3 1.540871 1_555
O16 Sr3 2.567542 1_555
O16 Sr1 2.698152 1_455
O16 Sr0 2.718156 1_546
O17 P3 1.541533 1_565
O17 Sr3 2.561344 1_555
O17 Sr1 2.700855 1_565
O17 Sr0 2.710423 1_556
