# generated using pymatgen
data_VH3O4
_symmetry_space_group_name_H-M   'P 1'
_cell_length_a   7.43805259
_cell_length_b   7.43805259
_cell_length_c   7.43805259
_cell_angle_alpha   120.17087069
_cell_angle_beta   120.17087069
_cell_angle_gamma   89.70429720
_symmetry_Int_Tables_number   1
_chemical_formula_structural   VH3O4
_chemical_formula_sum   'V4 H12 O16'
_cell_volume   290.22402536
_cell_formula_units_Z   4
loop_
 _symmetry_equiv_pos_site_id
 _symmetry_equiv_pos_as_xyz
  1  'x, y, z'
loop_
 _atom_site_type_symbol
 _atom_site_label
 _atom_site_symmetry_multiplicity
 _atom_site_fract_x
 _atom_site_fract_y
 _atom_site_fract_z
 _atom_site_occupancy
  V  V0  1  0.24369800  0.49396100  0.25026300  1
  V  V1  1  0.24369800  0.99343600  0.74973700  1
  V  V2  1  0.74343600  0.49369800  0.24973700  1
  V  V3  1  0.24396100  0.49369800  0.75026300  1
  H  H0  1  0.41794800  0.33968500  0.50976700  1
  H  H1  1  0.82991800  0.90818000  0.49023300  1
  H  H2  1  0.83409600  0.33409600  0.50000000  1
  H  H3  1  0.40361000  0.90361000  0.50000000  1
  H  H4  1  0.41794800  0.90818000  0.07826200  1
  H  H5  1  0.82991800  0.33968500  0.92173800  1
  H  H6  1  0.08968500  0.66794800  0.00976700  1
  H  H7  1  0.65818000  0.07991800  0.99023300  1
  H  H8  1  0.65361000  0.65361000  0.00000000  1
  H  H9  1  0.08409600  0.08409600  0.00000000  1
  H  H10  1  0.08968500  0.07991800  0.42173800  1
  H  H11  1  0.65818000  0.66794800  0.57826200  1
  O  O0  1  0.31358500  0.42679400  0.50111800  1
  O  O1  1  0.92567500  0.81246700  0.49888200  1
  O  O2  1  0.92689300  0.42689300  0.50000000  1
  O  O3  1  0.31064600  0.81064600  0.50000000  1
  O  O4  1  0.31358500  0.81246700  0.88679200  1
  O  O5  1  0.92567500  0.42679400  0.11320800  1
  O  O6  1  0.17679400  0.56358500  0.00111800  1
  O  O7  1  0.56246700  0.17567500  0.99888200  1
  O  O8  1  0.56064600  0.56064600  0.00000000  1
  O  O9  1  0.17689300  0.17689300  0.00000000  1
  O  O10  1  0.17679400  0.17567500  0.61320800  1
  O  O11  1  0.56246700  0.56358500  0.38679200  1
  O  O12  1  0.62545300  0.21658600  0.59113300  1
  O  O13  1  0.62545300  0.03431900  0.40886700  1
  O  O14  1  0.78431900  0.87545300  0.90886700  1
  O  O15  1  0.96658600  0.87545300  0.09113300  1
loop_
_geom_bond_atom_site_label_1
_geom_bond_atom_site_label_2
_geom_bond_distance
_geom_bond_site_symmetry_2
H0 O0 1.006492 1_555
H0 O12 1.786143 1_555
H1 O1 1.006482 1_555
H1 O13 1.786143 1_565
H2 O2 0.978647 1_555
H3 O3 0.980408 1_555
H4 O4 1.006482 1_554
H4 O13 1.786148 1_565
H5 O5 1.006481 1_556
H5 O12 1.786148 1_555
H6 O6 1.006492 1_555
H6 O15 1.786143 1_455
H7 O7 1.006482 1_555
H7 O14 1.786143 1_545
H8 O8 0.980408 1_555
H9 O9 0.978647 1_555
H10 O10 1.006481 1_555
H10 O15 1.786148 1_445
H11 O11 1.006482 1_555
H11 O14 1.786148 1_555
O0 V0 1.990142 1_555
O0 V3 1.996254 1_555
O1 V1 1.990149 1_655
O1 V2 1.996251 1_555
O2 V2 1.985836 1_555
O2 V3 1.985838 1_655
O3 V0 1.982726 1_555
O3 V1 1.982728 1_555
O4 V1 1.990154 1_555
O4 V3 1.996253 1_555
O5 V0 1.990147 1_655
O5 V2 1.996246 1_555
O6 V3 1.990142 1_554
O6 V0 1.996254 1_555
O7 V2 1.990149 1_556
O7 V1 1.996251 1_545
O8 V3 1.982726 1_554
O8 V2 1.982728 1_555
O9 V1 1.985836 1_544
O9 V0 1.985838 1_555
O10 V3 1.990147 1_555
O10 V1 1.996246 1_545
O11 V2 1.990154 1_555
O11 V0 1.996253 1_555
O12 O13 1.352205 1_555
O14 O15 1.352205 1_556
