# generated using pymatgen
data_Ca7TiN6
_symmetry_space_group_name_H-M   'P 1'
_cell_length_a   6.33112400
_cell_length_b   9.17802052
_cell_length_c   9.17802052
_cell_angle_alpha   77.71688708
_cell_angle_beta   69.82389132
_cell_angle_gamma   69.82389132
_symmetry_Int_Tables_number   1
_chemical_formula_structural   Ca7TiN6
_chemical_formula_sum   'Ca14 Ti2 N12'
_cell_volume   467.19665650
_cell_formula_units_Z   2
loop_
 _symmetry_equiv_pos_site_id
 _symmetry_equiv_pos_as_xyz
  1  'x, y, z'
loop_
 _atom_site_type_symbol
 _atom_site_label
 _atom_site_symmetry_multiplicity
 _atom_site_fract_x
 _atom_site_fract_y
 _atom_site_fract_z
 _atom_site_occupancy
  Ca  Ca0  1  0.27797971  0.95490816  0.04509184  1
  Ca  Ca1  1  0.72202029  0.04509184  0.95490816  1
  Ca  Ca2  1  0.22202029  0.45490816  0.54509184  1
  Ca  Ca3  1  0.77797971  0.54509184  0.45490816  1
  Ca  Ca4  1  0.75315657  0.15236537  0.59608912  1
  Ca  Ca5  1  0.49838795  0.59608912  0.15236537  1
  Ca  Ca6  1  0.74684343  0.90391088  0.34763463  1
  Ca  Ca7  1  0.00161205  0.34763463  0.90391088  1
  Ca  Ca8  1  0.24684343  0.84763463  0.40391088  1
  Ca  Ca9  1  0.50161205  0.40391088  0.84763463  1
  Ca  Ca10  1  0.25315657  0.09608912  0.65236537  1
  Ca  Ca11  1  0.99838795  0.65236537  0.09608912  1
  Ca  Ca12  1  0.25000000  0.25000000  0.25000000  1
  Ca  Ca13  1  0.75000000  0.75000000  0.75000000  1
  Ti  Ti0  1  0.75000000  0.25000000  0.25000000  1
  Ti  Ti1  1  0.25000000  0.75000000  0.75000000  1
  N  N0  1  0.01291816  0.07095295  0.28148207  1
  N  N1  1  0.63464682  0.28148207  0.07095295  1
  N  N2  1  0.48708184  0.21851793  0.42904705  1
  N  N3  1  0.86535318  0.42904705  0.21851793  1
  N  N4  1  0.98708184  0.92904705  0.71851793  1
  N  N5  1  0.36535318  0.71851793  0.92904705  1
  N  N6  1  0.51291816  0.78148207  0.57095295  1
  N  N7  1  0.13464682  0.57095295  0.78148207  1
  N  N8  1  0.88901700  0.34307797  0.65692203  1
  N  N9  1  0.11098300  0.65692203  0.34307797  1
  N  N10  1  0.61098300  0.84307797  0.15692203  1
  N  N11  1  0.38901700  0.15692203  0.84307797  1
loop_
_geom_bond_atom_site_label_1
_geom_bond_atom_site_label_2
_geom_bond_distance
_geom_bond_site_symmetry_2
Ca0 N0 2.428248 1_565
Ca0 N5 2.428248 1_554
Ca0 N11 2.430394 1_564
Ca0 N10 2.470536 1_555
Ca1 N1 2.428248 1_556
Ca1 N4 2.428248 1_545
Ca1 N10 2.430394 1_546
Ca1 N11 2.470536 1_555
Ca2 N2 2.428248 1_555
Ca2 N7 2.428248 1_555
Ca2 N9 2.430394 1_555
Ca2 N8 2.470536 1_455
Ca3 N3 2.428248 1_555
Ca3 N6 2.428248 1_555
Ca3 N8 2.430394 1_555
Ca3 N9 2.470536 1_655
Ca4 N4 2.393956 1_545
Ca4 N8 2.429201 1_555
Ca4 N2 2.497345 1_555
Ca4 N11 2.612314 1_555
Ca4 N0 2.897425 1_655
Ca5 N5 2.393953 1_554
Ca5 N9 2.429197 1_555
Ca5 N3 2.497350 1_555
Ca5 N10 2.612318 1_555
Ca5 N1 2.897424 1_555
Ca6 N6 2.393956 1_555
Ca6 N10 2.429201 1_555
Ca6 N0 2.497345 1_665
Ca6 N9 2.612314 1_655
Ca6 N2 2.897425 1_565
Ca7 N7 2.393953 1_555
Ca7 N11 2.429197 1_555
Ca7 N1 2.497350 1_456
Ca7 N8 2.612318 1_455
Ca7 N3 2.897424 1_456
Ca8 N0 2.393956 1_565
Ca8 N9 2.429201 1_555
Ca8 N6 2.497345 1_555
Ca8 N10 2.612314 1_555
Ca8 N4 2.897425 1_455
Ca9 N1 2.393953 1_556
Ca9 N8 2.429197 1_555
Ca9 N7 2.497350 1_555
Ca9 N11 2.612318 1_555
Ca9 N5 2.897424 1_555
Ca10 N2 2.393956 1_555
Ca10 N11 2.429201 1_555
Ca10 N4 2.497345 1_445
Ca10 N8 2.612314 1_455
Ca10 N6 2.897425 1_545
Ca11 N3 2.393953 1_555
Ca11 N10 2.429197 1_555
Ca11 N5 2.497350 1_654
Ca11 N9 2.612318 1_655
Ca11 N7 2.897424 1_654
Ca12 N1 2.497434 1_555
Ca12 N3 2.497434 1_455
Ca12 N2 2.497434 1_555
Ca12 N0 2.497434 1_555
Ca13 N6 2.497434 1_555
Ca13 N4 2.497434 1_555
Ca13 N7 2.497434 1_655
Ca13 N5 2.497434 1_555
N0 Ti0 1.948729 1_455
N1 Ti0 1.948729 1_555
N2 Ti0 1.948729 1_555
N3 Ti0 1.948729 1_555
N4 Ti1 1.948729 1_655
N5 Ti1 1.948729 1_555
N6 Ti1 1.948729 1_555
N7 Ti1 1.948729 1_555
