# generated using pymatgen
data_PaC2
_symmetry_space_group_name_H-M   'P 1'
_cell_length_a   3.62116210
_cell_length_b   3.62116210
_cell_length_c   3.97926786
_cell_angle_alpha   117.06515520
_cell_angle_beta   117.06515520
_cell_angle_gamma   90.00000000
_symmetry_Int_Tables_number   1
_chemical_formula_structural   PaC2
_chemical_formula_sum   'Pa1 C2'
_cell_volume   39.94174817
_cell_formula_units_Z   1
loop_
 _symmetry_equiv_pos_site_id
 _symmetry_equiv_pos_as_xyz
  1  'x, y, z'
loop_
 _atom_site_type_symbol
 _atom_site_label
 _atom_site_symmetry_multiplicity
 _atom_site_fract_x
 _atom_site_fract_y
 _atom_site_fract_z
 _atom_site_occupancy
  Pa  Pa0  1  0.00000000  0.00000000  0.00000000  1
  C  C0  1  0.61195190  0.61195190  0.22390581  1
  C  C1  1  0.38804810  0.38804810  0.77609419  1
loop_
_geom_bond_atom_site_label_1
_geom_bond_atom_site_label_2
_geom_bond_distance
_geom_bond_site_symmetry_2
C0 C1 1.364038 1_554
C0 Pa0 2.363990 1_666
C0 Pa0 2.649817 1_555
C0 Pa0 2.649822 1_565
C0 Pa0 2.649822 1_655
C0 Pa0 2.649827 1_665
C1 Pa0 2.363990 1_555
C1 Pa0 2.649817 1_666
C1 Pa0 2.649822 1_656
C1 Pa0 2.649822 1_566
C1 Pa0 2.649827 1_556
