# generated using pymatgen
data_AgS8N9(ClO6)2
_symmetry_space_group_name_H-M   'P 1'
_cell_length_a   12.47709066
_cell_length_b   12.47709066
_cell_length_c   12.47709066
_cell_angle_alpha   109.69349857
_cell_angle_beta   109.69349857
_cell_angle_gamma   109.02757358
_symmetry_Int_Tables_number   1
_chemical_formula_structural   AgS8N9(ClO6)2
_chemical_formula_sum   'Ag2 S16 N18 Cl4 O24'
_cell_volume   1495.19759816
_cell_formula_units_Z   2
loop_
 _symmetry_equiv_pos_site_id
 _symmetry_equiv_pos_as_xyz
  1  'x, y, z'
loop_
 _atom_site_type_symbol
 _atom_site_label
 _atom_site_symmetry_multiplicity
 _atom_site_fract_x
 _atom_site_fract_y
 _atom_site_fract_z
 _atom_site_occupancy
  Ag  Ag0  1  0.75000000  0.25000000  0.50000000  1
  Ag  Ag1  1  0.00000000  0.00000000  0.00000000  1
  S  S0  1  0.50586100  0.13089000  0.19105900  1
  S  S1  1  0.81016900  0.11911000  0.87497100  1
  S  S2  1  0.93983100  0.31480200  0.80894100  1
  S  S3  1  0.24413900  0.93519800  0.12502900  1
  S  S4  1  0.68519800  0.49413900  0.62502900  1
  S  S5  1  0.88089000  0.75586100  0.69105900  1
  S  S6  1  0.86911000  0.06016900  0.37497100  1
  S  S7  1  0.06480200  0.18983100  0.30894100  1
  S  S8  1  0.57858800  0.45003900  0.29864400  1
  S  S9  1  0.59860500  0.79996100  0.62854900  1
  S  S10  1  0.15139500  0.27994400  0.70135600  1
  S  S11  1  0.17141200  0.97005600  0.37145100  1
  S  S12  1  0.72005600  0.42141200  0.87145100  1
  S  S13  1  0.20003900  0.82858800  0.79864400  1
  S  S14  1  0.54996100  0.84860500  0.12854900  1
  S  S15  1  0.02994400  0.40139500  0.20135600  1
  N  N0  1  0.25000000  0.75000000  0.50000000  1
  N  N1  1  0.50000000  0.50000000  0.00000000  1
  N  N2  1  0.89423500  0.39423500  0.50000000  1
  N  N3  1  0.85576500  0.85576500  0.00000000  1
  N  N4  1  0.60576500  0.10576500  0.50000000  1
  N  N5  1  0.14423500  0.14423500  0.00000000  1
  N  N6  1  0.78612400  0.62500000  0.66112400  1
  N  N7  1  0.96387600  0.12500000  0.33887600  1
  N  N8  1  0.87500000  0.21387600  0.83887600  1
  N  N9  1  0.37500000  0.03612400  0.16112400  1
  N  N10  1  0.28286200  0.74146100  0.75567600  1
  N  N11  1  0.76421500  0.50853900  0.04140200  1
  N  N12  1  0.98578500  0.52718600  0.24432400  1
  N  N13  1  0.46713800  0.72281400  0.95859800  1
  N  N14  1  0.47281400  0.71713800  0.45859800  1
  N  N15  1  0.49146100  0.53286200  0.25567600  1
  N  N16  1  0.25853900  0.01421500  0.54140200  1
  N  N17  1  0.27718600  0.23578500  0.74432400  1
  Cl  Cl0  1  0.30336800  0.12500000  0.67836800  1
  Cl  Cl1  1  0.44663200  0.62500000  0.32163200  1
  Cl  Cl2  1  0.37500000  0.69663200  0.82163200  1
  Cl  Cl3  1  0.87500000  0.55336800  0.17836800  1
  O  O0  1  0.71565300  0.54900000  0.38321000  1
  O  O1  1  0.58421000  0.70100000  0.66665200  1
  O  O2  1  0.16579000  0.33244200  0.61679000  1
  O  O3  1  0.03434700  0.91755800  0.33334800  1
  O  O4  1  0.66755800  0.28434700  0.83334800  1
  O  O5  1  0.29900000  0.96565300  0.88321000  1
  O  O6  1  0.45100000  0.83421000  0.16665200  1
  O  O7  1  0.08244200  0.41579000  0.11679000  1
  O  O8  1  0.51420600  0.39453700  0.36056800  1
  O  O9  1  0.71603100  0.85546400  0.61966900  1
  O  O10  1  0.03396900  0.15363800  0.63943200  1
  O  O11  1  0.23579400  0.09636200  0.38033100  1
  O  O12  1  0.84636200  0.48579400  0.88033100  1
  O  O13  1  0.14453700  0.76420600  0.86056800  1
  O  O14  1  0.60546300  0.96603100  0.11966900  1
  O  O15  1  0.90363800  0.28396900  0.13943200  1
  O  O16  1  0.54104600  0.35687400  0.16687400  1
  O  O17  1  0.56000000  0.89312600  0.68417200  1
  O  O18  1  0.19000000  0.37417200  0.83312600  1
  O  O19  1  0.20895400  0.87582800  0.31582800  1
  O  O20  1  0.62582800  0.45895400  0.81582800  1
  O  O21  1  0.10687400  0.79104600  0.66687400  1
  O  O22  1  0.64312600  0.81000000  0.18417200  1
  O  O23  1  0.12417200  0.44000000  0.33312600  1
loop_
_geom_bond_atom_site_label_1
_geom_bond_atom_site_label_2
_geom_bond_distance
_geom_bond_site_symmetry_2
Ag0 N2 2.089399 1_555
Ag0 N4 2.089399 1_555
Ag1 N3 2.089399 1_445
Ag1 N5 2.089399 1_555
N6 S4 1.495327 1_555
N6 S5 1.495327 1_555
N7 S6 1.495327 1_555
N7 S7 1.495327 1_655
N8 S1 1.495327 1_555
N8 S2 1.495327 1_555
N9 S3 1.495327 1_545
N9 S0 1.495327 1_555
N10 S13 1.802826 1_555
N11 S12 1.802837 1_554
N12 S15 1.802826 1_655
N13 S14 1.802834 1_556
N14 S9 1.802834 1_555
N15 S8 1.802826 1_555
N16 S11 1.802837 1_545
N17 S10 1.802826 1_555
Cl0 N16 1.550341 1_555
Cl0 N17 1.550349 1_555
Cl1 N14 1.550340 1_555
Cl1 N15 1.550349 1_555
Cl2 N13 1.550340 1_555
Cl2 N10 1.550349 1_555
Cl3 N11 1.550341 1_555
Cl3 N12 1.550349 1_555
O0 S8 1.446194 1_555
O1 S9 1.446186 1_555
O2 S10 1.446186 1_555
O3 S11 1.446198 1_555
O4 S12 1.446198 1_555
O5 S13 1.446194 1_555
O6 S14 1.446186 1_555
O7 S15 1.446186 1_555
O8 S8 1.462191 1_555
O9 S9 1.462194 1_555
O10 S10 1.462191 1_555
O11 S11 1.462191 1_545
O12 S12 1.462191 1_555
O13 S13 1.462191 1_555
O14 S14 1.462191 1_555
O15 S15 1.462191 1_655
O16 S8 1.453127 1_555
O17 S9 1.453127 1_555
O18 S10 1.453127 1_555
O19 S11 1.453127 1_555
O20 S12 1.453127 1_555
O21 S13 1.453127 1_555
O22 S14 1.453127 1_555
O23 S15 1.453127 1_555
