# generated using pymatgen
data_BaCaGdNbO6
_symmetry_space_group_name_H-M   'P 1'
_cell_length_a   8.40905738
_cell_length_b   8.39257789
_cell_length_c   8.44034433
_cell_angle_alpha   90.00000000
_cell_angle_beta   90.00000000
_cell_angle_gamma   90.00000000
_symmetry_Int_Tables_number   1
_chemical_formula_structural   BaCaGdNbO6
_chemical_formula_sum   'Ba4 Ca4 Gd4 Nb4 O24'
_cell_volume   595.66606736
_cell_formula_units_Z   4
loop_
 _symmetry_equiv_pos_site_id
 _symmetry_equiv_pos_as_xyz
  1  'x, y, z'
loop_
 _atom_site_type_symbol
 _atom_site_label
 _atom_site_symmetry_multiplicity
 _atom_site_fract_x
 _atom_site_fract_y
 _atom_site_fract_z
 _atom_site_occupancy
  Ba  Ba0  1  -0.00000000  -0.00000000  -0.00000000  1
  Ba  Ba1  1  0.50000000  0.50000000  0.50000000  1
  Ba  Ba2  1  0.50000000  -0.00000000  -0.00000000  1
  Ba  Ba3  1  -0.00000000  -0.00000000  0.50000000  1
  Ca  Ca0  1  -0.00000000  0.50000000  0.50000000  1
  Ca  Ca1  1  0.50000000  -0.00000000  0.50000000  1
  Ca  Ca2  1  0.50000000  0.50000000  -0.00000000  1
  Ca  Ca3  1  -0.00000000  0.50000000  -0.00000000  1
  Gd  Gd0  1  0.74754958  0.74404837  0.74952531  1
  Gd  Gd1  1  0.25245042  0.25595163  0.74952531  1
  Gd  Gd2  1  0.25245042  0.74404837  0.25047469  1
  Gd  Gd3  1  0.74754958  0.25595163  0.25047469  1
  Nb  Nb0  1  0.24859933  0.25675174  0.25177725  1
  Nb  Nb1  1  0.75140067  0.74324826  0.25177725  1
  Nb  Nb2  1  0.75140067  0.25675174  0.74822275  1
  Nb  Nb3  1  0.24859933  0.74324826  0.74822275  1
  O  O0  1  0.01371151  0.22489081  0.27844536  1
  O  O1  1  0.98628849  0.77510919  0.27844536  1
  O  O2  1  0.98628849  0.22489081  0.72155464  1
  O  O3  1  0.01371151  0.77510919  0.72155464  1
  O  O4  1  0.27229278  0.01722677  0.21957366  1
  O  O5  1  0.27229278  0.98277323  0.78042634  1
  O  O6  1  0.72770722  0.98277323  0.21957366  1
  O  O7  1  0.72770722  0.01722677  0.78042634  1
  O  O8  1  0.20719070  0.29695148  0.01535138  1
  O  O9  1  0.79280930  0.29695148  0.98464862  1
  O  O10  1  0.20719070  0.70304852  0.98464862  1
  O  O11  1  0.79280930  0.70304852  0.01535138  1
  O  O12  1  0.48126826  0.30287784  0.20197111  1
  O  O13  1  0.51873174  0.69712216  0.20197111  1
  O  O14  1  0.51873174  0.30287784  0.79802889  1
  O  O15  1  0.48126826  0.69712216  0.79802889  1
  O  O16  1  0.20783512  0.48484985  0.31025865  1
  O  O17  1  0.20783512  0.51515015  0.68974135  1
  O  O18  1  0.79216488  0.51515015  0.31025865  1
  O  O19  1  0.79216488  0.48484985  0.68974135  1
  O  O20  1  0.30404369  0.21052088  0.48287505  1
  O  O21  1  0.69595631  0.21052088  0.51712495  1
  O  O22  1  0.30404369  0.78947912  0.51712495  1
  O  O23  1  0.69595631  0.78947912  0.48287505  1
loop_
_geom_bond_atom_site_label_1
_geom_bond_atom_site_label_2
_geom_bond_distance
_geom_bond_site_symmetry_2
Ba0 O4 2.949302 1_555
Ba0 O5 2.949302 1_544
Ba0 O7 2.949302 1_454
Ba0 O6 2.949302 1_445
Ba0 O2 3.016446 1_454
Ba0 O3 3.016446 1_544
Ba0 O1 3.016446 1_445
Ba0 O0 3.016446 1_555
Ba0 O10 3.043571 1_544
Ba0 O8 3.043571 1_555
Ba0 O11 3.043571 1_445
Ba0 O9 3.043571 1_454
Ba1 O17 2.935461 1_555
Ba1 O16 2.935461 1_555
Ba1 O18 2.935461 1_555
Ba1 O19 2.935461 1_555
Ba1 O22 2.939135 1_555
Ba1 O20 2.939135 1_555
Ba1 O23 2.939135 1_555
Ba1 O21 2.939135 1_555
Ba1 O12 3.014847 1_555
Ba1 O14 3.014847 1_555
Ba1 O15 3.014847 1_555
Ba1 O13 3.014847 1_555
Ba2 O7 2.668709 1_554
Ba2 O5 2.668709 1_544
Ba2 O4 2.668709 1_555
Ba2 O6 2.668709 1_545
Ba2 O13 3.064673 1_545
Ba2 O15 3.064673 1_544
Ba2 O12 3.064673 1_555
Ba2 O14 3.064673 1_554
Ba3 O1 2.659420 1_445
Ba3 O0 2.659420 1_555
Ba3 O3 2.659420 1_545
Ba3 O2 2.659420 1_455
Ba3 O23 3.111164 1_445
Ba3 O21 3.111164 1_455
Ba3 O20 3.111164 1_555
Ba3 O22 3.111164 1_545
Ca0 O18 2.373891 1_455
Ca0 O19 2.373891 1_455
Ca0 O16 2.373891 1_555
Ca0 O17 2.373891 1_555
Ca0 O1 2.973397 1_455
Ca0 O0 2.973397 1_555
Ca0 O3 2.973397 1_555
Ca0 O2 2.973397 1_455
Ca1 O22 2.420287 1_545
Ca1 O20 2.420287 1_555
Ca1 O23 2.420287 1_545
Ca1 O21 2.420287 1_555
Ca2 O13 2.380704 1_555
Ca2 O15 2.380704 1_554
Ca2 O14 2.380704 1_554
Ca2 O12 2.380704 1_555
Ca3 O10 2.440549 1_554
Ca3 O8 2.440549 1_555
Ca3 O9 2.440549 1_454
Ca3 O11 2.440549 1_455
Gd0 O19 2.264397 1_555
Gd0 O3 2.265634 1_655
Gd0 O11 2.301581 1_556
Gd0 O15 2.310109 1_555
Gd0 O7 2.313483 1_565
Gd0 O23 2.323552 1_555
Gd1 O17 2.264397 1_555
Gd1 O2 2.265634 1_455
Gd1 O8 2.301581 1_556
Gd1 O14 2.310109 1_555
Gd1 O5 2.313483 1_545
Gd1 O20 2.323552 1_555
Gd2 O16 2.264397 1_555
Gd2 O1 2.265634 1_455
Gd2 O10 2.301581 1_554
Gd2 O13 2.310109 1_555
Gd2 O4 2.313483 1_565
Gd2 O22 2.323552 1_555
Gd3 O18 2.264397 1_555
Gd3 O0 2.265634 1_655
Gd3 O9 2.301581 1_554
Gd3 O12 2.310109 1_555
Gd3 O6 2.313483 1_545
Gd3 O21 2.323552 1_555
Nb0 O0 2.005872 1_555
Nb0 O16 2.006443 1_555
Nb0 O12 2.038277 1_555
Nb0 O4 2.038286 1_555
Nb0 O20 2.042680 1_555
Nb0 O8 2.053572 1_555
Nb1 O1 2.005872 1_555
Nb1 O18 2.006443 1_555
Nb1 O13 2.038277 1_555
Nb1 O6 2.038286 1_555
Nb1 O23 2.042680 1_555
Nb1 O11 2.053572 1_555
Nb2 O2 2.005872 1_555
Nb2 O19 2.006443 1_555
Nb2 O14 2.038277 1_555
Nb2 O7 2.038286 1_555
Nb2 O21 2.042680 1_555
Nb2 O9 2.053572 1_555
Nb3 O3 2.005872 1_555
Nb3 O17 2.006443 1_555
Nb3 O15 2.038277 1_555
Nb3 O5 2.038286 1_555
Nb3 O22 2.042680 1_555
Nb3 O10 2.053572 1_555
