# generated using pymatgen
data_CeSiNi
_symmetry_space_group_name_H-M   'P 1'
_cell_length_a   4.01248328
_cell_length_b   4.01248328
_cell_length_c   4.08457175
_cell_angle_alpha   90.00000000
_cell_angle_beta   90.00000000
_cell_angle_gamma   119.99999702
_symmetry_Int_Tables_number   1
_chemical_formula_structural   CeSiNi
_chemical_formula_sum   'Ce1 Si1 Ni1'
_cell_volume   56.95130044
_cell_formula_units_Z   1
loop_
 _symmetry_equiv_pos_site_id
 _symmetry_equiv_pos_as_xyz
  1  'x, y, z'
loop_
 _atom_site_type_symbol
 _atom_site_label
 _atom_site_symmetry_multiplicity
 _atom_site_fract_x
 _atom_site_fract_y
 _atom_site_fract_z
 _atom_site_occupancy
  Ce  Ce0  1  0.66666700  0.33333300  -0.00000000  1
  Si  Si0  1  0.33333300  0.66666700  0.50000000  1
  Ni  Ni0  1  -0.00000000  0.00000000  0.50000000  1
loop_
_geom_bond_atom_site_label_1
_geom_bond_atom_site_label_2
_geom_bond_distance
_geom_bond_site_symmetry_2
Ce0 Ni0 3.088300 1_654
Ce0 Ni0 3.088300 1_655
Ce0 Si0 3.088300 1_544
Ce0 Si0 3.088300 1_545
Ce0 Si0 3.088300 1_655
Ce0 Si0 3.088300 1_654
Ce0 Ni0 3.088302 1_554
Ce0 Ni0 3.088302 1_555
Ce0 Ni0 3.088302 1_664
Ce0 Ni0 3.088302 1_665
Ce0 Si0 3.088305 1_554
Ce0 Si0 3.088305 1_555
Ni0 Si0 2.316606 1_545
Ni0 Si0 2.316610 1_445
Ni0 Si0 2.316610 1_555
