# generated using pymatgen
data_LiZn2(FeO2)4
_symmetry_space_group_name_H-M   'P 1'
_cell_length_a   6.15819833
_cell_length_b   6.15819810
_cell_length_c   6.23511600
_cell_angle_alpha   59.58595603
_cell_angle_beta   59.58595726
_cell_angle_gamma   61.51136807
_symmetry_Int_Tables_number   1
_chemical_formula_structural   LiZn2(FeO2)4
_chemical_formula_sum   'Li1 Zn2 Fe4 O8'
_cell_volume   167.93507496
_cell_formula_units_Z   1
loop_
 _symmetry_equiv_pos_site_id
 _symmetry_equiv_pos_as_xyz
  1  'x, y, z'
loop_
 _atom_site_type_symbol
 _atom_site_label
 _atom_site_symmetry_multiplicity
 _atom_site_fract_x
 _atom_site_fract_y
 _atom_site_fract_z
 _atom_site_occupancy
  Li  Li0  1  0.75087700  0.75087700  0.74912300  1
  Zn  Zn0  1  0.15672900  0.59978500  0.62174300  1
  Zn  Zn1  1  0.59978500  0.15672900  0.62174300  1
  Fe  Fe0  1  0.99997800  0.99997700  0.00002300  1
  Fe  Fe1  1  0.25649100  0.25649200  0.24350800  1
  Fe  Fe2  1  0.61894300  0.61894300  0.16849400  1
  Fe  Fe3  1  0.61894300  0.61894300  0.59361900  1
  O  O0  1  0.38423600  0.38423600  0.37155600  1
  O  O1  1  0.38423600  0.38423600  0.85997300  1
  O  O2  1  0.37503500  0.87197600  0.37649400  1
  O  O3  1  0.87197500  0.37503800  0.37649300  1
  O  O4  1  0.39121300  0.86832800  0.87023000  1
  O  O5  1  0.86833100  0.39121200  0.87022900  1
  O  O6  1  0.86161400  0.86161400  0.38975900  1
  O  O7  1  0.86161400  0.86161400  0.88701400  1
loop_
_geom_bond_atom_site_label_1
_geom_bond_atom_site_label_2
_geom_bond_distance
_geom_bond_site_symmetry_2
Li0 O6 1.816636 1_555
Li0 O7 1.816641 1_555
Li0 O4 1.824938 1_555
Li0 O5 1.824943 1_555
Li0 Zn1 2.064722 1_565
Li0 Zn0 2.064722 1_655
Fe0 O6 1.963905 1_555
Fe0 O7 1.963905 1_554
Fe0 O5 1.985880 1_564
Fe0 O4 1.985881 1_654
Fe1 O1 1.933217 1_554
Fe1 O0 1.933227 1_555
Fe1 O2 1.950230 1_545
Fe1 O3 1.950230 1_455
Fe2 O0 2.017041 1_555
Fe2 O3 2.051125 1_555
Fe2 O2 2.051134 1_555
Fe2 O7 2.089539 1_554
Fe2 Li0 2.117840 1_554
Fe2 O4 2.340536 1_554
Fe2 O5 2.340545 1_554
Fe3 O1 2.017043 1_555
Fe3 O3 2.051125 1_555
Fe3 O2 2.051134 1_555
Fe3 O6 2.089541 1_555
Fe3 Li0 2.117845 1_555
Fe3 O4 2.340546 1_555
Fe3 O5 2.340554 1_555
O0 Zn1 2.065882 1_555
O0 Zn0 2.065882 1_555
O1 Zn1 2.065887 1_555
O1 Zn0 2.065887 1_555
O2 Zn0 2.104378 1_555
O3 Zn1 2.104386 1_555
O4 Zn1 2.140036 1_565
O5 Zn0 2.140026 1_655
O6 Zn1 2.345131 1_565
O6 Zn0 2.345131 1_655
O7 Zn1 2.345135 1_565
O7 Zn0 2.345135 1_655
