# generated using pymatgen
data_Ba3As4(HO7)2
_symmetry_space_group_name_H-M   'P 1'
_cell_length_a   7.44355967
_cell_length_b   7.44355967
_cell_length_c   14.58107651
_cell_angle_alpha   76.94959897
_cell_angle_beta   76.94959897
_cell_angle_gamma   70.46462647
_symmetry_Int_Tables_number   1
_chemical_formula_structural   Ba3As4(HO7)2
_chemical_formula_sum   'Ba6 As8 H4 O28'
_cell_volume   731.70984283
_cell_formula_units_Z   2
loop_
 _symmetry_equiv_pos_site_id
 _symmetry_equiv_pos_as_xyz
  1  'x, y, z'
loop_
 _atom_site_type_symbol
 _atom_site_label
 _atom_site_symmetry_multiplicity
 _atom_site_fract_x
 _atom_site_fract_y
 _atom_site_fract_z
 _atom_site_occupancy
  Ba  Ba0  1  0.38215100  0.61784900  0.75000000  1
  Ba  Ba1  1  0.61784900  0.38215100  0.25000000  1
  Ba  Ba2  1  0.22320700  0.23284100  0.04621700  1
  Ba  Ba3  1  0.76715900  0.77679300  0.45378300  1
  Ba  Ba4  1  0.77679300  0.76715900  0.95378300  1
  Ba  Ba5  1  0.23284100  0.22320700  0.54621700  1
  As  As0  1  0.73781700  0.29393400  0.96049600  1
  As  As1  1  0.70606600  0.26218300  0.53950400  1
  As  As2  1  0.26218300  0.70606600  0.03950400  1
  As  As3  1  0.29393400  0.73781700  0.46049600  1
  As  As4  1  0.12254400  0.20076400  0.80540300  1
  As  As5  1  0.79923600  0.87745600  0.69459700  1
  As  As6  1  0.87745600  0.79923600  0.19459700  1
  As  As7  1  0.20076400  0.12254400  0.30540300  1
  H  H0  1  0.96932900  0.49648100  0.72574100  1
  H  H1  1  0.50351900  0.03067100  0.77425900  1
  H  H2  1  0.03067100  0.50351900  0.27425900  1
  H  H3  1  0.49648100  0.96932900  0.22574100  1
  O  O0  1  0.94573800  0.12219300  0.89337500  1
  O  O1  1  0.87780700  0.05426200  0.60662500  1
  O  O2  1  0.05426200  0.87780700  0.10662500  1
  O  O3  1  0.12219300  0.94573800  0.39337500  1
  O  O4  1  0.99800100  0.36147700  0.71396100  1
  O  O5  1  0.63852300  0.00199900  0.78603900  1
  O  O6  1  0.00199900  0.63852300  0.28603900  1
  O  O7  1  0.36147700  0.99800100  0.21396100  1
  O  O8  1  0.61122900  0.13416500  0.00723800  1
  O  O9  1  0.86583500  0.38877100  0.49276200  1
  O  O10  1  0.38877100  0.86583500  0.99276200  1
  O  O11  1  0.13416500  0.61122900  0.50723800  1
  O  O12  1  0.64456000  0.49111100  0.88157800  1
  O  O13  1  0.50888900  0.35544000  0.61842200  1
  O  O14  1  0.35544000  0.50888900  0.11842200  1
  O  O15  1  0.49111100  0.64456000  0.38157800  1
  O  O16  1  0.83389100  0.36033000  0.03862200  1
  O  O17  1  0.63967000  0.16610900  0.46137800  1
  O  O18  1  0.16610900  0.63967000  0.96137800  1
  O  O19  1  0.36033000  0.83389100  0.53862200  1
  O  O20  1  0.22651200  0.32151500  0.85177800  1
  O  O21  1  0.67848500  0.77348800  0.64822200  1
  O  O22  1  0.77348800  0.67848500  0.14822200  1
  O  O23  1  0.32151500  0.22651200  0.35177800  1
  O  O24  1  0.27183400  0.01636900  0.75019900  1
  O  O25  1  0.98363100  0.72816600  0.74980100  1
  O  O26  1  0.72816600  0.98363100  0.24980100  1
  O  O27  1  0.01636900  0.27183400  0.25019900  1
loop_
_geom_bond_atom_site_label_1
_geom_bond_atom_site_label_2
_geom_bond_distance
_geom_bond_site_symmetry_2
Ba0 O24 2.801362 1_565
Ba0 O25 2.801362 1_455
Ba0 O20 2.804313 1_555
Ba0 O21 2.804313 1_555
Ba0 O13 2.833493 1_555
Ba0 O12 2.833493 1_555
Ba0 O18 3.150380 1_555
Ba0 O19 3.150380 1_555
Ba1 O27 2.801362 1_655
Ba1 O26 2.801362 1_545
Ba1 O23 2.804313 1_555
Ba1 O22 2.804313 1_555
Ba1 O14 2.833493 1_555
Ba1 O15 2.833493 1_555
Ba1 O17 3.150380 1_555
Ba1 O16 3.150380 1_555
Ba2 O8 2.689424 1_555
Ba2 O16 2.751170 1_455
Ba2 O20 2.758346 1_554
Ba2 O10 2.804540 1_544
Ba2 O7 2.846067 1_545
Ba2 O18 2.926798 1_554
Ba2 O14 3.016118 1_555
Ba2 O27 3.053511 1_555
Ba2 O2 3.164225 1_545
Ba3 O9 2.689424 1_555
Ba3 O17 2.751170 1_565
Ba3 O21 2.758346 1_555
Ba3 O11 2.804540 1_655
Ba3 O6 2.846067 1_655
Ba3 O19 2.926798 1_555
Ba3 O15 3.016118 1_555
Ba3 O26 3.053511 1_555
Ba3 O3 3.164225 1_655
Ba4 O10 2.689424 1_555
Ba4 O18 2.751170 1_655
Ba4 O22 2.758346 1_556
Ba4 O8 2.804540 1_566
Ba4 O5 2.846067 1_565
Ba4 O16 2.926798 1_556
Ba4 O12 3.016118 1_555
Ba4 O25 3.053511 1_555
Ba4 O0 3.164225 1_565
Ba5 O11 2.689424 1_555
Ba5 O19 2.751170 1_545
Ba5 O23 2.758346 1_555
Ba5 O9 2.804540 1_455
Ba5 O4 2.846067 1_455
Ba5 O17 2.926798 1_555
Ba5 O13 3.016118 1_555
Ba5 O24 3.053511 1_555
Ba5 O1 3.164225 1_455
As0 O8 1.691164 1_556
As0 O12 1.696107 1_555
As0 O16 1.706428 1_556
As0 O0 1.882857 1_555
As1 O9 1.691164 1_555
As1 O13 1.696107 1_555
As1 O17 1.706428 1_555
As1 O1 1.882857 1_555
As2 O10 1.691164 1_554
As2 O14 1.696107 1_555
As2 O18 1.706428 1_554
As2 O2 1.882857 1_555
As3 O11 1.691164 1_555
As3 O15 1.696107 1_555
As3 O19 1.706428 1_555
As3 O3 1.882857 1_555
As4 O20 1.685240 1_555
As4 O24 1.685716 1_555
As4 O0 1.770034 1_455
As4 O4 1.778888 1_455
As5 O21 1.685240 1_555
As5 O25 1.685716 1_555
As5 O1 1.770034 1_565
As5 O5 1.778888 1_565
As6 O22 1.685240 1_555
As6 O26 1.685716 1_555
As6 O2 1.770034 1_655
As6 O6 1.778888 1_655
As7 O23 1.685240 1_555
As7 O27 1.685716 1_555
As7 O3 1.770034 1_545
As7 O7 1.778888 1_545
H0 O4 1.001430 1_555
H1 O5 1.001430 1_555
H2 O6 1.001430 1_555
H3 O7 1.001430 1_555
