# generated using pymatgen
data_Ba3Pb(SO4)4
_symmetry_space_group_name_H-M   'P 1'
_cell_length_a   5.52839800
_cell_length_b   7.20650100
_cell_length_c   8.90375791
_cell_angle_alpha   89.88507063
_cell_angle_beta   90.00000000
_cell_angle_gamma   90.00000000
_symmetry_Int_Tables_number   1
_chemical_formula_structural   Ba3Pb(SO4)4
_chemical_formula_sum   'Ba3 Pb1 S4 O16'
_cell_volume   354.72861398
_cell_formula_units_Z   1
loop_
 _symmetry_equiv_pos_site_id
 _symmetry_equiv_pos_as_xyz
  1  'x, y, z'
loop_
 _atom_site_type_symbol
 _atom_site_label
 _atom_site_symmetry_multiplicity
 _atom_site_fract_x
 _atom_site_fract_y
 _atom_site_fract_z
 _atom_site_occupancy
  Ba  Ba0  1  0.50000000  0.84060500  0.18488800  1
  Ba  Ba1  1  0.00000000  0.34111700  0.31594700  1
  Ba  Ba2  1  0.00000000  0.15933700  0.81497500  1
  Pb  Pb0  1  0.50000000  0.66234200  0.68653000  1
  S  S0  1  0.00000000  0.68835100  0.93467500  1
  S  S1  1  0.00000000  0.81023100  0.43916300  1
  S  S2  1  0.50000000  0.31094300  0.06231900  1
  S  S3  1  0.50000000  0.18981800  0.56331400  1
  O  O0  1  0.00000000  0.54770800  0.81289900  1
  O  O1  1  0.00000000  0.94862900  0.31455400  1
  O  O2  1  0.50000000  0.45090300  0.18524300  1
  O  O3  1  0.50000000  0.04650400  0.68514100  1
  O  O4  1  0.22096600  0.80952500  0.91651400  1
  O  O5  1  0.77932500  0.68866900  0.42299100  1
  O  O6  1  0.71934500  0.18928300  0.07997800  1
  O  O7  1  0.28117400  0.31168200  0.58139000  1
  O  O8  1  0.28065500  0.18928300  0.07997800  1
  O  O9  1  0.71882600  0.31168200  0.58139000  1
  O  O10  1  0.77903400  0.80952500  0.91651400  1
  O  O11  1  0.22067500  0.68866900  0.42299100  1
  O  O12  1  0.00000000  0.60617600  0.08664000  1
  O  O13  1  0.00000000  0.89727200  0.58864900  1
  O  O14  1  0.50000000  0.39592400  0.91112500  1
  O  O15  1  0.50000000  0.10582300  0.41219100  1
loop_
_geom_bond_atom_site_label_1
_geom_bond_atom_site_label_2
_geom_bond_distance
_geom_bond_site_symmetry_2
Ba0 O15 2.786491 1_565
Ba0 O2 2.808383 1_555
Ba0 O11 2.840531 1_555
Ba0 O5 2.840531 1_555
Ba0 O10 2.853393 1_554
Ba0 O4 2.853393 1_554
Ba0 O8 2.940660 1_565
Ba0 O6 2.940660 1_565
Ba0 O1 3.095695 1_555
Ba0 O1 3.095695 1_655
Ba0 O12 3.356497 1_555
Ba0 O12 3.356497 1_655
Ba1 O12 2.793123 1_555
Ba1 O1 2.828517 1_545
Ba1 O8 2.833391 1_555
Ba1 O6 2.833391 1_455
Ba1 O7 2.836393 1_555
Ba1 O9 2.836393 1_455
Ba1 O5 2.946100 1_455
Ba1 O11 2.946100 1_555
Ba1 O2 3.101191 1_455
Ba1 O2 3.101191 1_555
Ba1 O15 3.353285 1_555
Ba1 O15 3.353285 1_455
Ba2 O13 2.764563 1_545
Ba2 O0 2.798820 1_555
Ba2 O7 2.817439 1_555
Ba2 O9 2.817439 1_455
Ba2 O8 2.832550 1_556
Ba2 O6 2.832550 1_456
Ba2 O4 2.942029 1_545
Ba2 O10 2.942029 1_445
Ba2 O3 3.105175 1_455
Ba2 O3 3.105175 1_555
Ba2 O14 3.359532 1_555
Ba2 O14 3.359532 1_455
O0 S0 1.485701 1_555
O1 S1 1.490390 1_555
O2 S2 1.489847 1_555
O3 S3 1.496255 1_555
O3 Pb0 2.768467 1_545
O4 S0 1.510102 1_555
O4 Pb0 2.776069 1_555
O5 S1 1.508983 1_655
O5 Pb0 2.815107 1_555
O6 S2 1.504430 1_555
O7 S3 1.503742 1_555
O8 S2 1.504430 1_555
O9 S3 1.503742 1_555
O10 S0 1.510102 1_655
O10 Pb0 2.776069 1_555
O11 S1 1.508983 1_555
O11 Pb0 2.815107 1_555
O12 S0 1.475889 1_554
O13 S1 1.472526 1_555
O14 S2 1.477831 1_556
O14 Pb0 2.769428 1_555
O15 S3 1.476552 1_555
