# generated using pymatgen
data_CrAsO6
_symmetry_space_group_name_H-M   'P 1'
_cell_length_a   8.90571000
_cell_length_b   10.03081800
_cell_length_c   10.24406000
_cell_angle_alpha   90.00000000
_cell_angle_beta   90.00000000
_cell_angle_gamma   90.00000000
_symmetry_Int_Tables_number   1
_chemical_formula_structural   CrAsO6
_chemical_formula_sum   'Cr8 As8 O48'
_cell_volume   915.11782131
_cell_formula_units_Z   8
loop_
 _symmetry_equiv_pos_site_id
 _symmetry_equiv_pos_as_xyz
  1  'x, y, z'
loop_
 _atom_site_type_symbol
 _atom_site_label
 _atom_site_symmetry_multiplicity
 _atom_site_fract_x
 _atom_site_fract_y
 _atom_site_fract_z
 _atom_site_occupancy
  Cr  Cr0  1  0.32994700  0.16508500  0.15229400  1
  Cr  Cr1  1  0.67005300  0.83491500  0.84770600  1
  Cr  Cr2  1  0.17005300  0.83491500  0.65229400  1
  Cr  Cr3  1  0.67005300  0.66508500  0.34770600  1
  Cr  Cr4  1  0.82994700  0.16508500  0.34770600  1
  Cr  Cr5  1  0.32994700  0.33491500  0.65229400  1
  Cr  Cr6  1  0.82994700  0.33491500  0.84770600  1
  Cr  Cr7  1  0.17005300  0.66508500  0.15229400  1
  As  As0  1  0.03157200  0.36033600  0.15426200  1
  As  As1  1  0.96842800  0.63966400  0.84573800  1
  As  As2  1  0.46842800  0.63966400  0.65426200  1
  As  As3  1  0.96842800  0.86033600  0.34573800  1
  As  As4  1  0.53157200  0.36033600  0.34573800  1
  As  As5  1  0.03157200  0.13966400  0.65426200  1
  As  As6  1  0.53157200  0.13966400  0.84573800  1
  As  As7  1  0.46842800  0.86033600  0.15426200  1
  O  O0  1  0.48790900  0.03193400  0.15506000  1
  O  O1  1  0.51209100  0.96806600  0.84494000  1
  O  O2  1  0.01209100  0.96806600  0.65506000  1
  O  O3  1  0.51209100  0.53193400  0.34494000  1
  O  O4  1  0.98790900  0.03193400  0.34494000  1
  O  O5  1  0.48790900  0.46806600  0.65506000  1
  O  O6  1  0.98790900  0.46806600  0.84494000  1
  O  O7  1  0.01209100  0.53193400  0.15506000  1
  O  O8  1  0.21755100  0.32801200  0.11721500  1
  O  O9  1  0.78244900  0.67198800  0.88278500  1
  O  O10  1  0.28244900  0.67198800  0.61721500  1
  O  O11  1  0.78244900  0.82801200  0.38278500  1
  O  O12  1  0.71755100  0.32801200  0.38278500  1
  O  O13  1  0.21755100  0.17198800  0.61721500  1
  O  O14  1  0.71755100  0.17198800  0.88278500  1
  O  O15  1  0.28244900  0.82801200  0.11721500  1
  O  O16  1  0.40779900  0.29402700  0.45838300  1
  O  O17  1  0.59220100  0.70597300  0.54161700  1
  O  O18  1  0.09220100  0.70597300  0.95838300  1
  O  O19  1  0.59220100  0.79402700  0.04161700  1
  O  O20  1  0.90779900  0.29402700  0.04161700  1
  O  O21  1  0.40779900  0.20597300  0.95838300  1
  O  O22  1  0.90779900  0.20597300  0.54161700  1
  O  O23  1  0.09220100  0.79402700  0.45838300  1
  O  O24  1  0.21256400  0.07633800  0.05719900  1
  O  O25  1  0.78743600  0.92366200  0.94280100  1
  O  O26  1  0.28743600  0.92366200  0.55719900  1
  O  O27  1  0.78743600  0.57633800  0.44280100  1
  O  O28  1  0.71256400  0.07633800  0.44280100  1
  O  O29  1  0.21256400  0.42366200  0.55719900  1
  O  O30  1  0.71256400  0.42366200  0.94280100  1
  O  O31  1  0.28743600  0.57633800  0.05719900  1
  O  O32  1  0.26624100  0.13686200  0.29505400  1
  O  O33  1  0.73375900  0.86313800  0.70494600  1
  O  O34  1  0.23375900  0.86313800  0.79505400  1
  O  O35  1  0.73375900  0.63686200  0.20494600  1
  O  O36  1  0.76624100  0.13686200  0.20494600  1
  O  O37  1  0.26624100  0.36313800  0.79505400  1
  O  O38  1  0.76624100  0.36313800  0.70494600  1
  O  O39  1  0.23375900  0.63686200  0.29505400  1
  O  O40  1  0.98998000  0.29236500  0.30496800  1
  O  O41  1  0.01002000  0.70763500  0.69503200  1
  O  O42  1  0.51002000  0.70763500  0.80496800  1
  O  O43  1  0.01002000  0.79236500  0.19503200  1
  O  O44  1  0.48998000  0.29236500  0.19503200  1
  O  O45  1  0.98998000  0.20763500  0.80496800  1
  O  O46  1  0.48998000  0.20763500  0.69503200  1
  O  O47  1  0.51002000  0.79236500  0.30496800  1
loop_
_geom_bond_atom_site_label_1
_geom_bond_atom_site_label_2
_geom_bond_distance
_geom_bond_site_symmetry_2
Cr0 O32 1.593978 1_555
Cr0 O24 1.683528 1_555
Cr0 O0 1.940013 1_555
Cr0 O8 1.949865 1_555
Cr0 O44 1.962884 1_555
Cr0 O21 2.143559 1_554
Cr1 O33 1.593978 1_555
Cr1 O25 1.683528 1_555
Cr1 O1 1.940013 1_555
Cr1 O9 1.949865 1_555
Cr1 O42 1.962884 1_555
Cr1 O19 2.143559 1_556
Cr2 O34 1.593978 1_555
Cr2 O26 1.683528 1_555
Cr2 O2 1.940013 1_555
Cr2 O10 1.949865 1_555
Cr2 O41 1.962884 1_555
Cr2 O23 2.143559 1_555
Cr3 O35 1.593978 1_555
Cr3 O27 1.683528 1_555
Cr3 O3 1.940013 1_555
Cr3 O11 1.949865 1_555
Cr3 O47 1.962884 1_555
Cr3 O17 2.143559 1_555
Cr4 O36 1.593978 1_555
Cr4 O28 1.683528 1_555
Cr4 O4 1.940013 1_555
Cr4 O12 1.949865 1_555
Cr4 O40 1.962884 1_555
Cr4 O22 2.143559 1_555
Cr5 O37 1.593978 1_555
Cr5 O29 1.683528 1_555
Cr5 O5 1.940013 1_555
Cr5 O13 1.949865 1_555
Cr5 O46 1.962884 1_555
Cr5 O16 2.143559 1_555
Cr6 O38 1.593978 1_555
Cr6 O30 1.683528 1_555
Cr6 O6 1.940013 1_555
Cr6 O14 1.949865 1_555
Cr6 O45 1.962884 1_555
Cr6 O20 2.143559 1_556
Cr7 O39 1.593978 1_555
Cr7 O31 1.683528 1_555
Cr7 O7 1.940013 1_555
Cr7 O15 1.949865 1_555
Cr7 O43 1.962884 1_555
Cr7 O18 2.143559 1_554
As0 O40 1.727861 1_455
As0 O20 1.728878 1_455
As0 O8 1.729857 1_555
As0 O7 1.730009 1_555
As1 O41 1.727861 1_655
As1 O18 1.728878 1_655
As1 O9 1.729857 1_555
As1 O6 1.730009 1_555
As2 O42 1.727861 1_555
As2 O17 1.728878 1_555
As2 O10 1.729857 1_555
As2 O5 1.730009 1_555
As3 O43 1.727861 1_655
As3 O23 1.728878 1_655
As3 O11 1.729857 1_555
As3 O4 1.730009 1_565
As4 O44 1.727861 1_555
As4 O16 1.728878 1_555
As4 O12 1.729857 1_555
As4 O3 1.730009 1_555
As5 O45 1.727861 1_455
As5 O22 1.728878 1_455
As5 O13 1.729857 1_555
As5 O2 1.730009 1_545
As6 O46 1.727861 1_555
As6 O21 1.728878 1_555
As6 O14 1.729857 1_555
As6 O1 1.730009 1_545
As7 O47 1.727861 1_555
As7 O19 1.728878 1_555
As7 O15 1.729857 1_555
As7 O0 1.730009 1_565
