# generated using pymatgen
data_BaSrNdTlCu2O7
_symmetry_space_group_name_H-M   'P 1'
_cell_length_a   3.88819500
_cell_length_b   3.91798300
_cell_length_c   12.62761159
_cell_angle_alpha   89.81817029
_cell_angle_beta   90.00000000
_cell_angle_gamma   90.00000000
_symmetry_Int_Tables_number   1
_chemical_formula_structural   BaSrNdTlCu2O7
_chemical_formula_sum   'Ba1 Sr1 Nd1 Tl1 Cu2 O7'
_cell_volume   192.36657505
_cell_formula_units_Z   1
loop_
 _symmetry_equiv_pos_site_id
 _symmetry_equiv_pos_as_xyz
  1  'x, y, z'
loop_
 _atom_site_type_symbol
 _atom_site_label
 _atom_site_symmetry_multiplicity
 _atom_site_fract_x
 _atom_site_fract_y
 _atom_site_fract_z
 _atom_site_occupancy
  Ba  Ba0  1  0.50000000  0.48424500  0.79774700  1
  Sr  Sr0  1  0.50000000  0.48337000  0.20745100  1
  Nd  Nd0  1  0.50000000  0.49659200  0.49537800  1
  Tl  Tl0  1  0.00000000  0.91381700  0.00799500  1
  Cu  Cu0  1  0.00000000  0.99455900  0.63170800  1
  Cu  Cu1  1  0.00000000  0.99572200  0.35442200  1
  O  O0  1  0.50000000  0.99479000  0.61705400  1
  O  O1  1  0.00000000  0.49468100  0.61781500  1
  O  O2  1  0.50000000  0.99639900  0.37278600  1
  O  O3  1  0.00000000  0.49519900  0.37144600  1
  O  O4  1  0.00000000  0.99404300  0.83910400  1
  O  O5  1  0.00000000  0.00568700  0.17514200  1
  O  O6  1  0.50000000  0.56989600  0.01195300  1
loop_
_geom_bond_atom_site_label_1
_geom_bond_atom_site_label_2
_geom_bond_distance
_geom_bond_site_symmetry_2
Ba0 O6 2.726704 1_556
Ba0 O4 2.781115 1_545
Ba0 O4 2.781115 1_645
Ba0 O4 2.836970 1_555
Ba0 O4 2.836970 1_655
Ba0 O0 2.985215 1_545
Ba0 O1 2.990500 1_655
Ba0 O1 2.990500 1_555
Ba0 O0 3.029605 1_555
Nd0 O1 2.483925 1_555
Nd0 O1 2.483925 1_655
Nd0 O0 2.487938 1_555
Nd0 O0 2.491375 1_545
Nd0 O2 2.492365 1_555
Nd0 O3 2.495739 1_555
Nd0 O3 2.495739 1_655
Nd0 O2 2.501261 1_545
Cu0 O0 1.952884 1_555
Cu0 O0 1.952884 1_455
Cu0 O1 1.966753 1_565
Cu0 O1 1.966910 1_555
Cu0 O4 2.618910 1_555
Cu1 O2 1.957882 1_455
Cu1 O2 1.957882 1_555
Cu1 O3 1.969393 1_565
Cu1 O3 1.972110 1_555
Cu1 O5 2.264091 1_565
O2 Sr0 2.823795 1_565
O2 Sr0 2.902713 1_555
O3 Sr0 2.840907 1_455
O3 Sr0 2.840907 1_555
O4 Tl0 2.154742 1_556
O5 Tl0 2.142265 1_545
O5 Sr0 2.730115 1_455
O5 Sr0 2.730115 1_555
O5 Sr0 2.851059 1_445
O5 Sr0 2.851059 1_545
O6 Tl0 2.365857 1_555
O6 Tl0 2.365857 1_655
O6 Sr0 2.490775 1_555
