# generated using pymatgen
data_Sr2MgTi6N2O11
_symmetry_space_group_name_H-M   'P 1'
_cell_length_a   3.91688419
_cell_length_b   8.23738823
_cell_length_c   9.98382692
_cell_angle_alpha   74.76655539
_cell_angle_beta   89.93647856
_cell_angle_gamma   69.16042207
_symmetry_Int_Tables_number   1
_chemical_formula_structural   Sr2MgTi6N2O11
_chemical_formula_sum   'Sr2 Mg1 Ti6 N2 O11'
_cell_volume   288.94772855
_cell_formula_units_Z   1
loop_
 _symmetry_equiv_pos_site_id
 _symmetry_equiv_pos_as_xyz
  1  'x, y, z'
loop_
 _atom_site_type_symbol
 _atom_site_label
 _atom_site_symmetry_multiplicity
 _atom_site_fract_x
 _atom_site_fract_y
 _atom_site_fract_z
 _atom_site_occupancy
  Sr  Sr0  1  0.41203769  0.85829417  0.59144720  1
  Sr  Sr1  1  0.49772815  0.09443954  0.22845370  1
  Mg  Mg0  1  0.62960556  0.07247619  0.82389586  1
  Ti  Ti0  1  0.08209534  0.77611668  0.06517268  1
  Ti  Ti1  1  0.20205656  0.61399027  0.42016014  1
  Ti  Ti2  1  0.13805550  0.56656769  0.80733829  1
  Ti  Ti3  1  0.75452172  0.52329600  0.22084241  1
  Ti  Ti4  1  0.97539675  0.28860021  0.55774125  1
  Ti  Ti5  1  0.83792623  0.30277461  0.95601355  1
  N  N0  1  0.22624562  0.56397288  0.23409302  1
  N  N1  1  0.84658167  0.33983040  0.12567813  1
  O  O0  1  0.08343772  0.85612263  0.35540009  1
  O  O1  1  0.06284281  0.67482441  0.61443511  1
  O  O2  1  0.99404093  0.77321464  0.87708745  1
  O  O3  1  0.57847169  0.77264378  0.09834847  1
  O  O4  1  0.75042418  0.55018834  0.43025248  1
  O  O5  1  0.66153147  0.54201390  0.80388470  1
  O  O6  1  0.42948815  0.33869444  0.57056781  1
  O  O7  1  0.33682540  0.30155139  0.89688315  1
  O  O8  1  0.09404601  0.17097859  0.43138626  1
  O  O9  1  0.11950189  0.09924948  0.72735630  1
  O  O10  1  0.91113295  0.03850674  0.01825797  1
loop_
_geom_bond_atom_site_label_1
_geom_bond_atom_site_label_2
_geom_bond_distance
_geom_bond_site_symmetry_2
Mg0 O9 2.132775 1_555
Mg0 O10 2.135318 1_556
Mg0 O7 2.141931 1_555
Mg0 O9 2.201128 1_655
Mg0 O2 2.281790 1_545
N0 Ti3 1.985127 1_555
N0 Ti0 1.992017 1_555
N0 Ti1 2.000921 1_555
N0 Ti3 2.002014 1_455
N1 Ti5 1.800786 1_554
N1 Ti3 1.919048 1_555
N1 Sr1 2.625152 1_655
N1 Sr1 2.806793 1_555
O0 Ti1 1.809896 1_555
O0 Sr1 2.493561 1_465
O0 Sr0 2.693695 1_555
O0 Sr1 3.007970 1_565
O1 Ti2 1.871621 1_555
O1 Ti1 2.150474 1_555
O1 Sr0 2.344201 1_555
O1 Sr0 2.431609 1_455
O2 Ti2 1.907764 1_655
O2 Ti0 1.917444 1_656
O3 Ti0 1.961505 1_555
O3 Ti3 1.965716 1_555
O3 Ti0 2.008866 1_655
O3 Sr1 3.166358 1_565
O4 Ti1 2.012206 1_655
O4 Ti1 2.017245 1_555
O4 Ti4 2.061540 1_555
O4 Ti3 2.158980 1_555
O5 Ti2 1.948921 1_655
O5 Ti2 1.988632 1_555
O5 Ti5 2.031874 1_555
O5 Sr0 2.744153 1_555
O6 Ti4 1.975007 1_455
O6 Ti4 2.039167 1_555
O6 Ti1 2.228715 1_555
O7 Ti2 1.984368 1_555
O7 Ti5 2.038086 1_455
O7 Ti5 2.054454 1_555
O8 Ti4 1.751218 1_455
O8 Sr0 2.509601 1_545
O8 Sr1 2.637678 1_555
O9 Ti4 1.899147 1_455
O9 Sr0 2.624379 1_545
O10 Ti0 1.943803 1_645
O10 Ti5 2.013100 1_554
O10 Sr1 2.684767 1_555
