# generated using pymatgen
data_ErGa6
_symmetry_space_group_name_H-M   'P 1'
_cell_length_a   14.30941400
_cell_length_b   14.30941400
_cell_length_c   17.69933000
_cell_angle_alpha   90.00000000
_cell_angle_beta   90.00000000
_cell_angle_gamma   90.00000000
_symmetry_Int_Tables_number   1
_chemical_formula_structural   ErGa6
_chemical_formula_sum   'Er2 Ga12'
_cell_volume   3624.10293496
_cell_formula_units_Z   2
loop_
 _symmetry_equiv_pos_site_id
 _symmetry_equiv_pos_as_xyz
  1  'x, y, z'
loop_
 _atom_site_type_symbol
 _atom_site_label
 _atom_site_symmetry_multiplicity
 _atom_site_fract_x
 _atom_site_fract_y
 _atom_site_fract_z
 _atom_site_occupancy
  Er  Er0  1  0.50000000  0.00000000  0.00000000  1
  Er  Er1  1  0.00000000  0.50000000  0.00000000  1
  Ga  Ga0  1  0.87236600  0.00000000  0.35116200  1
  Ga  Ga1  1  0.12763400  0.00000000  0.35116200  1
  Ga  Ga2  1  0.00000000  0.87236600  0.35116200  1
  Ga  Ga3  1  0.00000000  0.12763400  0.64883800  1
  Ga  Ga4  1  0.12763400  0.00000000  0.64883800  1
  Ga  Ga5  1  0.00000000  0.12763400  0.35116200  1
  Ga  Ga6  1  0.00000000  0.87236600  0.64883800  1
  Ga  Ga7  1  0.87236600  0.00000000  0.64883800  1
  Ga  Ga8  1  0.00000000  0.50000000  0.15920800  1
  Ga  Ga9  1  0.50000000  0.00000000  0.15920800  1
  Ga  Ga10  1  0.50000000  0.00000000  0.84079200  1
  Ga  Ga11  1  0.00000000  0.50000000  0.84079200  1
loop_
_geom_bond_atom_site_label_1
_geom_bond_atom_site_label_2
_geom_bond_distance
_geom_bond_site_symmetry_2
Er0 Ga9 2.817875 1_555
Er0 Ga10 2.817875 1_554
Er1 Ga8 2.817875 1_555
Er1 Ga11 2.817875 1_554
Ga0 Ga5 2.582874 1_655
Ga0 Ga2 2.582874 1_645
Ga1 Ga5 2.582874 1_555
Ga1 Ga2 2.582874 1_545
Ga3 Ga4 2.582874 1_555
Ga3 Ga7 2.582874 1_455
Ga4 Ga6 2.582874 1_545
Ga6 Ga7 2.582874 1_465
