# generated using pymatgen
data_Zn4As3C3N3O13
_symmetry_space_group_name_H-M   'P 1'
_cell_length_a   15.74757300
_cell_length_b   7.95773100
_cell_length_c   7.96025761
_cell_angle_alpha   87.16862142
_cell_angle_beta   90.00000000
_cell_angle_gamma   90.00000000
_symmetry_Int_Tables_number   1
_chemical_formula_structural   Zn4As3C3N3O13
_chemical_formula_sum   'Zn8 As6 C6 N6 O26'
_cell_volume   996.32152128
_cell_formula_units_Z   2
loop_
 _symmetry_equiv_pos_site_id
 _symmetry_equiv_pos_as_xyz
  1  'x, y, z'
loop_
 _atom_site_type_symbol
 _atom_site_label
 _atom_site_symmetry_multiplicity
 _atom_site_fract_x
 _atom_site_fract_y
 _atom_site_fract_z
 _atom_site_occupancy
  Zn  Zn0  1  0.80277600  0.91615500  0.80137100  1
  Zn  Zn1  1  0.30277600  0.08384500  0.19862900  1
  Zn  Zn2  1  0.79511600  0.22203900  0.06987600  1
  Zn  Zn3  1  0.29511600  0.77796100  0.93012400  1
  Zn  Zn4  1  0.96099200  0.19623800  0.80122500  1
  Zn  Zn5  1  0.46099200  0.80376200  0.19877500  1
  Zn  Zn6  1  0.93447600  0.90895400  0.12122500  1
  Zn  Zn7  1  0.43447600  0.09104600  0.87877500  1
  As  As0  1  0.88699400  0.56429700  0.91101400  1
  As  As1  1  0.38699400  0.43570300  0.08898600  1
  As  As2  1  0.62617700  0.98242100  0.00125700  1
  As  As3  1  0.12617700  0.01757900  0.99874300  1
  As  As4  1  0.85738700  0.09791900  0.45106000  1
  As  As5  1  0.35738700  0.90208100  0.54894000  1
  C  C0  1  0.57429000  0.21343300  0.43301200  1
  C  C1  1  0.07429000  0.78656700  0.56698800  1
  C  C2  1  0.08503800  0.44984700  0.22027300  1
  C  C3  1  0.58503800  0.55015300  0.77972700  1
  C  C4  1  0.74460200  0.63066500  0.36679200  1
  C  C5  1  0.24460200  0.36933500  0.63320800  1
  N  N0  1  0.59734300  0.07989900  0.48500900  1
  N  N1  1  0.09734300  0.92010100  0.51499100  1
  N  N2  1  0.10987200  0.47842300  0.08215600  1
  N  N3  1  0.60987200  0.52157700  0.91784400  1
  N  N4  1  0.81382700  0.58788500  0.40608100  1
  N  N5  1  0.31382700  0.41211500  0.59391900  1
  O  O0  1  0.87366000  0.06248100  0.94795800  1
  O  O1  1  0.37366000  0.93751900  0.05204200  1
  O  O2  1  0.77863500  0.04123200  0.59162700  1
  O  O3  1  0.27863500  0.95876800  0.40837300  1
  O  O4  1  0.86388400  0.71049700  0.75203600  1
  O  O5  1  0.36388400  0.28950300  0.24796400  1
  O  O6  1  0.70263600  0.84939800  0.92942900  1
  O  O7  1  0.20263600  0.15060200  0.07057100  1
  O  O8  1  0.79838400  0.44780500  0.96427700  1
  O  O9  1  0.29838400  0.55219500  0.03572300  1
  O  O10  1  0.82477300  0.24871600  0.30479300  1
  O  O11  1  0.32477300  0.75128400  0.69520700  1
  O  O12  1  0.67497100  0.16704500  0.05295900  1
  O  O13  1  0.17497100  0.83295500  0.94704100  1
  O  O14  1  0.96722200  0.43200300  0.85418300  1
  O  O15  1  0.46722200  0.56799700  0.14581700  1
  O  O16  1  0.57634100  0.89214700  0.17354500  1
  O  O17  1  0.07634100  0.10785300  0.82645500  1
  O  O18  1  0.94233800  0.17194000  0.56157000  1
  O  O19  1  0.44233800  0.82806000  0.43843000  1
  O  O20  1  0.88832600  0.92320900  0.34707200  1
  O  O21  1  0.38832600  0.07679100  0.65292800  1
  O  O22  1  0.91988500  0.67122000  0.08295500  1
  O  O23  1  0.41988500  0.32878000  0.91704500  1
  O  O24  1  0.55244600  0.02879600  0.84593600  1
  O  O25  1  0.05244600  0.97120400  0.15406400  1
loop_
_geom_bond_atom_site_label_1
_geom_bond_atom_site_label_2
_geom_bond_distance
_geom_bond_site_symmetry_2
As0 O4 1.715237 1_555
As0 O8 1.716801 1_555
As0 O14 1.719355 1_555
As0 O22 1.726448 1_556
As1 O5 1.715237 1_555
As1 O9 1.716801 1_555
As1 O15 1.719355 1_555
As1 O23 1.726448 1_554
As2 O16 1.707492 1_555
As2 O6 1.719590 1_554
As2 O24 1.722760 1_564
As2 O12 1.725703 1_565
As3 O17 1.707492 1_555
As3 O7 1.719590 1_556
As3 O25 1.722760 1_546
As3 O13 1.725703 1_545
As4 O10 1.709209 1_555
As4 O2 1.715707 1_555
As4 O18 1.720943 1_555
As4 O20 1.723137 1_545
As5 O11 1.709209 1_555
As5 O3 1.715707 1_555
As5 O19 1.720943 1_555
As5 O21 1.723137 1_565
C0 N0 1.178489 1_555
C1 N1 1.178489 1_555
C2 N2 1.178446 1_555
C3 N3 1.178446 1_555
C4 N4 1.179645 1_555
C5 N5 1.179645 1_555
O0 Zn0 2.024282 1_545
O0 Zn6 2.036092 1_546
O0 Zn2 2.050771 1_556
O0 Zn4 2.065378 1_555
O1 Zn1 2.024282 1_565
O1 Zn7 2.036092 1_564
O1 Zn3 2.050771 1_554
O1 Zn5 2.065378 1_555
O2 Zn0 1.938723 1_545
O3 Zn1 1.938723 1_565
O4 Zn0 1.955023 1_555
O5 Zn1 1.955023 1_555
O6 Zn0 1.937690 1_555
O7 Zn1 1.937690 1_555
O8 Zn2 1.946219 1_556
O9 Zn3 1.946219 1_554
O10 Zn2 1.949179 1_555
O11 Zn3 1.949179 1_555
O12 Zn2 1.948104 1_555
O13 Zn3 1.948104 1_555
O14 Zn4 1.945618 1_555
O15 Zn5 1.945618 1_555
O16 Zn5 1.954642 1_555
O17 Zn4 1.954642 1_455
O18 Zn4 1.949231 1_555
O19 Zn5 1.949231 1_555
O20 Zn6 1.947631 1_555
O21 Zn7 1.947631 1_555
O22 Zn6 1.944616 1_555
O23 Zn7 1.944616 1_555
O24 Zn7 1.943636 1_555
O25 Zn6 1.943636 1_455
