# generated using pymatgen
data_HfCrAgS4
_symmetry_space_group_name_H-M   'P 1'
_cell_length_a   11.88024805
_cell_length_b   7.09865437
_cell_length_c   12.99141489
_cell_angle_alpha   89.94300940
_cell_angle_beta   90.60341324
_cell_angle_gamma   90.25229231
_symmetry_Int_Tables_number   1
_chemical_formula_structural   HfCrAgS4
_chemical_formula_sum   'Hf8 Cr8 Ag8 S32'
_cell_volume   1095.54318416
_cell_formula_units_Z   8
loop_
 _symmetry_equiv_pos_site_id
 _symmetry_equiv_pos_as_xyz
  1  'x, y, z'
loop_
 _atom_site_type_symbol
 _atom_site_label
 _atom_site_symmetry_multiplicity
 _atom_site_fract_x
 _atom_site_fract_y
 _atom_site_fract_z
 _atom_site_occupancy
  Hf  Hf0  1  0.11920400  0.90088900  0.68225500  1
  Hf  Hf1  1  0.88950100  0.11953200  0.18966400  1
  Hf  Hf2  1  0.37978000  0.87907700  0.18971800  1
  Hf  Hf3  1  0.61016500  0.09899000  0.69106200  1
  Hf  Hf4  1  0.88634600  0.61754400  0.83039800  1
  Hf  Hf5  1  0.39211800  0.37876400  0.83450600  1
  Hf  Hf6  1  0.62562400  0.60637400  0.34116300  1
  Hf  Hf7  1  0.88037300  0.39221100  0.49516100  1
  Cr  Cr0  1  0.12349500  0.36315800  0.33380200  1
  Cr  Cr1  1  0.15766400  0.62516100  0.93580800  1
  Cr  Cr2  1  0.33706900  0.61925900  0.43919000  1
  Cr  Cr3  1  0.66152700  0.37471900  0.93982400  1
  Cr  Cr4  1  0.14103000  0.13018500  0.05615100  1
  Cr  Cr5  1  0.85388000  0.91923200  0.47110200  1
  Cr  Cr6  1  0.35380200  0.11436500  0.45756900  1
  Cr  Cr7  1  0.62311800  0.86493700  0.02776900  1
  Ag  Ag0  1  0.11117400  0.36128900  0.65963000  1
  Ag  Ag1  1  0.87843300  0.61233500  0.16813300  1
  Ag  Ag2  1  0.39043100  0.39063700  0.15937300  1
  Ag  Ag3  1  0.60099300  0.64308800  0.68067400  1
  Ag  Ag4  1  0.11717000  0.87731600  0.31438300  1
  Ag  Ag5  1  0.88209200  0.12712000  0.83834300  1
  Ag  Ag6  1  0.38190000  0.88391300  0.81796800  1
  Ag  Ag7  1  0.61009800  0.12261400  0.30437900  1
  S  S0  1  0.03176800  0.86337700  0.86506400  1
  S  S1  1  0.97253100  0.13798300  0.37704200  1
  S  S2  1  0.46373100  0.85965300  0.37896400  1
  S  S3  1  0.53474800  0.12813700  0.88120800  1
  S  S4  1  0.04124800  0.35589600  0.16082800  1
  S  S5  1  0.96471300  0.60739800  0.64392100  1
  S  S6  1  0.47123900  0.36970700  0.65788400  1
  S  S7  1  0.54333700  0.65514000  0.15935300  1
  S  S8  1  0.01825500  0.39362500  0.90520800  1
  S  S9  1  0.98917400  0.59614200  0.37952700  1
  S  S10  1  0.47661100  0.39217100  0.40691100  1
  S  S11  1  0.52628000  0.61201600  0.90871600  1
  S  S12  1  0.02071400  0.89000800  0.12729700  1
  S  S13  1  0.95828700  0.08542700  0.61251900  1
  S  S14  1  0.46472400  0.90410900  0.62425700  1
  S  S15  1  0.51684900  0.10084300  0.12558600  1
  S  S16  1  0.22316300  0.86504700  0.51303000  1
  S  S17  1  0.76428700  0.12564000  0.02979400  1
  S  S18  1  0.26829900  0.86899000  0.02330400  1
  S  S19  1  0.71745300  0.14690200  0.51848000  1
  S  S20  1  0.22615500  0.36349500  0.49271700  1
  S  S21  1  0.77092000  0.63349000  0.99838300  1
  S  S22  1  0.27016000  0.37131800  0.99692800  1
  S  S23  1  0.73218300  0.65224900  0.51035100  1
  S  S24  1  0.23601300  0.14101100  0.75804800  1
  S  S25  1  0.77380300  0.87489400  0.30064000  1
  S  S26  1  0.27068200  0.13579000  0.28782100  1
  S  S27  1  0.74508200  0.87093100  0.76217700  1
  S  S28  1  0.24039900  0.62310500  0.77608200  1
  S  S29  1  0.76498300  0.37630900  0.29339500  1
  S  S30  1  0.25749100  0.59965100  0.27861500  1
  S  S31  1  0.73772900  0.37683800  0.77593200  1
loop_
_geom_bond_atom_site_label_1
_geom_bond_atom_site_label_2
_geom_bond_distance
_geom_bond_site_symmetry_2
Hf0 S24 2.398856 1_565
Hf0 S13 2.484904 1_465
Hf0 S16 2.546459 1_555
Hf0 S0 2.615067 1_555
Hf0 S28 2.725903 1_555
Hf0 S5 2.811820 1_455
Hf1 S12 2.406808 1_645
Hf1 S4 2.488367 1_655
Hf1 S17 2.542388 1_555
Hf1 S1 2.620102 1_555
Hf1 S25 2.645643 1_545
Hf1 S29 2.719838 1_555
Hf2 S15 2.414026 1_565
Hf2 S18 2.524366 1_555
Hf2 S7 2.550065 1_555
Hf2 S26 2.585595 1_565
Hf2 S2 2.647113 1_555
Hf2 S30 2.717417 1_555
Hf3 S14 2.366921 1_545
Hf3 S27 2.456063 1_545
Hf3 S6 2.571806 1_555
Hf3 S19 2.611915 1_555
Hf3 S3 2.645195 1_555
Hf3 S31 2.710233 1_555
Hf4 S8 2.431825 1_655
Hf4 S0 2.488280 1_655
Hf4 S31 2.546997 1_555
Hf4 S21 2.592460 1_555
Hf4 S5 2.605652 1_555
Hf4 S27 2.613324 1_555
Hf5 S11 2.481750 1_555
Hf5 S6 2.489778 1_555
Hf5 S3 2.531279 1_555
Hf5 S22 2.572560 1_555
Hf5 S28 2.613335 1_555
Hf5 S24 2.685414 1_555
Hf6 S29 2.416783 1_555
Hf6 S10 2.486208 1_555
Hf6 S23 2.545393 1_555
Hf6 S7 2.570435 1_555
Hf6 S25 2.645275 1_555
Hf6 S2 2.687946 1_555
Hf7 S9 2.458306 1_555
Hf7 S23 2.565639 1_555
Hf7 S19 2.617636 1_555
Hf7 S1 2.620814 1_555
Hf7 S5 2.650264 1_555
Hf7 S13 2.811652 1_555
Hf7 S29 2.947265 1_555
Cr0 S9 2.383234 1_455
Cr0 S20 2.386782 1_555
Cr0 S30 2.421696 1_555
Cr0 S4 2.441465 1_555
Cr0 S26 2.463391 1_555
Cr0 S1 2.466042 1_455
Cr1 S28 2.305510 1_555
Cr1 S8 2.359224 1_555
Cr1 S22 2.379009 1_555
Cr1 S0 2.435463 1_555
Cr1 S18 2.442935 1_556
Cr2 S30 2.285354 1_555
Cr2 S20 2.347747 1_555
Cr2 S10 2.358445 1_555
Cr2 S2 2.405850 1_555
Cr2 S16 2.418084 1_555
Cr3 S31 2.322424 1_555
Cr3 S11 2.364601 1_555
Cr3 S21 2.367064 1_555
Cr3 S3 2.422314 1_555
Cr3 S17 2.442884 1_556
Cr4 S12 2.409870 1_545
Cr4 S22 2.423740 1_554
Cr4 S4 2.424210 1_555
Cr4 S18 2.438414 1_545
Cr4 S8 3.070265 1_554
Cr5 S19 2.379874 1_565
Cr5 S25 2.421296 1_555
Cr5 S1 2.429965 1_565
Cr5 S23 2.435496 1_555
Cr5 S13 2.499827 1_565
Cr5 S9 3.055681 1_555
Cr6 S20 2.382345 1_555
Cr6 S26 2.411690 1_555
Cr6 S16 2.461101 1_545
Cr6 S2 2.463788 1_545
Cr6 S10 2.538323 1_555
Cr6 S14 2.933332 1_545
Cr7 S21 2.443177 1_554
Cr7 S7 2.460731 1_555
Cr7 S15 2.463692 1_565
Cr7 S17 2.492015 1_565
Cr7 S11 2.624700 1_554
Cr7 S3 2.861194 1_564
Ag0 S5 2.477895 1_455
Ag0 S24 2.501204 1_555
Ag0 S20 2.574967 1_555
Ag0 S13 2.730577 1_455
Ag0 S28 2.833978 1_555
Ag1 S21 2.541459 1_554
Ag1 S12 2.647904 1_655
Ag1 S4 2.664475 1_655
Ag1 S29 2.700534 1_555
Ag1 S25 2.837991 1_555
Ag1 S9 3.034947 1_555
Ag2 S22 2.539587 1_554
Ag2 S15 2.592885 1_555
Ag2 S7 2.606781 1_555
Ag2 S30 2.678119 1_555
Ag2 S26 2.846511 1_555
Ag3 S6 2.489010 1_555
Ag3 S14 2.567103 1_555
Ag3 S27 2.570643 1_555
Ag3 S23 2.720484 1_555
Ag3 S31 2.778950 1_555
Ag3 S11 3.108986 1_555
Ag4 S26 2.606581 1_565
Ag4 S30 2.631935 1_555
Ag4 S9 2.647528 1_455
Ag4 S1 2.664535 1_465
Ag4 S12 2.677770 1_555
Ag4 S16 2.861004 1_555
Ag5 S31 2.595346 1_555
Ag5 S0 2.608198 1_645
Ag5 S27 2.622870 1_545
Ag5 S8 2.626235 1_655
Ag5 S17 2.866750 1_556
Ag5 S13 3.094198 1_555
Ag6 S28 2.550500 1_555
Ag6 S3 2.630903 1_565
Ag6 S24 2.633873 1_565
Ag6 S14 2.715165 1_555
Ag6 S11 2.835383 1_555
Ag6 S18 3.003796 1_556
Ag7 S15 2.567380 1_555
Ag7 S29 2.573962 1_555
Ag7 S25 2.628564 1_545
Ag7 S2 2.729532 1_545
Ag7 S10 2.833197 1_555
Ag7 S19 3.052422 1_555
