# generated using pymatgen
data_Ho2Be2GeO7
_symmetry_space_group_name_H-M   'P 1'
_cell_length_a   7.43003500
_cell_length_b   7.43003500
_cell_length_c   4.80560700
_cell_angle_alpha   90.00000000
_cell_angle_beta   90.00000000
_cell_angle_gamma   90.00000000
_symmetry_Int_Tables_number   1
_chemical_formula_structural   Ho2Be2GeO7
_chemical_formula_sum   'Ho4 Be4 Ge2 O14'
_cell_volume   265.29555328
_cell_formula_units_Z   2
loop_
 _symmetry_equiv_pos_site_id
 _symmetry_equiv_pos_as_xyz
  1  'x, y, z'
loop_
 _atom_site_type_symbol
 _atom_site_label
 _atom_site_symmetry_multiplicity
 _atom_site_fract_x
 _atom_site_fract_y
 _atom_site_fract_z
 _atom_site_occupancy
  Ho  Ho0  1  0.15770100  0.34229900  0.50667500  1
  Ho  Ho1  1  0.84229900  0.65770100  0.50667500  1
  Ho  Ho2  1  0.65770100  0.15770100  0.49332500  1
  Ho  Ho3  1  0.34229900  0.84229900  0.49332500  1
  Be  Be0  1  0.63517400  0.86482600  0.95073200  1
  Be  Be1  1  0.36482600  0.13517400  0.95073200  1
  Be  Be2  1  0.13517400  0.63517400  0.04926800  1
  Be  Be3  1  0.86482600  0.36482600  0.04926800  1
  Ge  Ge0  1  0.00000000  0.00000000  0.00000000  1
  Ge  Ge1  1  0.50000000  0.50000000  0.00000000  1
  O  O0  1  0.00000000  0.50000000  0.18817800  1
  O  O1  1  0.50000000  0.00000000  0.81182200  1
  O  O2  1  0.64177700  0.85822300  0.28157600  1
  O  O3  1  0.35822300  0.14177700  0.28157600  1
  O  O4  1  0.14177700  0.64177700  0.71842400  1
  O  O5  1  0.85822300  0.35822300  0.71842400  1
  O  O6  1  0.08154900  0.82857000  0.21912500  1
  O  O7  1  0.91845100  0.17143000  0.21912500  1
  O  O8  1  0.17143000  0.08154900  0.78087500  1
  O  O9  1  0.41845100  0.32857000  0.78087500  1
  O  O10  1  0.82857000  0.91845100  0.78087500  1
  O  O11  1  0.58154900  0.67143000  0.78087500  1
  O  O12  1  0.32857000  0.58154900  0.21912500  1
  O  O13  1  0.67143000  0.41845100  0.21912500  1
loop_
_geom_bond_atom_site_label_1
_geom_bond_atom_site_label_2
_geom_bond_distance
_geom_bond_site_symmetry_2
Ho0 O0 2.255775 1_555
Ho0 O8 2.345246 1_555
Ho0 O9 2.345246 1_555
Ho0 O3 2.368475 1_555
Ho0 O5 2.449630 1_455
Ho0 O4 2.449630 1_555
Ho0 O7 2.584820 1_455
Ho0 O12 2.584820 1_555
Ho1 O0 2.255775 1_655
Ho1 O10 2.345246 1_555
Ho1 O11 2.345246 1_555
Ho1 O2 2.368475 1_555
Ho1 O5 2.449630 1_555
Ho1 O4 2.449630 1_655
Ho1 O13 2.584820 1_555
Ho1 O6 2.584820 1_655
Ho2 O1 2.255775 1_555
Ho2 O7 2.345246 1_555
Ho2 O13 2.345246 1_555
Ho2 O5 2.368475 1_555
Ho2 O2 2.449630 1_545
Ho2 O3 2.449630 1_555
Ho2 O10 2.584820 1_545
Ho2 O9 2.584820 1_555
Ho3 O1 2.255775 1_565
Ho3 O12 2.345246 1_555
Ho3 O6 2.345246 1_555
Ho3 O4 2.368475 1_555
Ho3 O2 2.449630 1_555
Ho3 O3 2.449630 1_565
Ho3 O11 2.584820 1_555
Ho3 O8 2.584820 1_565
Be0 O1 1.569410 1_565
Be0 O2 1.591419 1_556
Be0 O10 1.699951 1_555
Be0 O11 1.699951 1_555
Be1 O1 1.569410 1_555
Be1 O3 1.591419 1_556
Be1 O9 1.699951 1_555
Be1 O8 1.699951 1_555
Be2 O0 1.569410 1_555
Be2 O4 1.591419 1_554
Be2 O6 1.699951 1_555
Be2 O12 1.699951 1_555
Be3 O0 1.569410 1_655
Be3 O5 1.591419 1_554
Be3 O13 1.699951 1_555
Be3 O7 1.699951 1_555
Ge0 O6 1.760224 1_545
Ge0 O8 1.760224 1_554
Ge0 O10 1.760224 1_444
Ge0 O7 1.760224 1_455
Ge1 O12 1.760224 1_555
Ge1 O11 1.760224 1_554
Ge1 O9 1.760224 1_554
Ge1 O13 1.760224 1_555
