# generated using pymatgen
data_LaAgAs2
_symmetry_space_group_name_H-M   'P 1'
_cell_length_a   5.87806000
_cell_length_b   5.90624800
_cell_length_c   21.47790600
_cell_angle_alpha   90.00000000
_cell_angle_beta   90.00000000
_cell_angle_gamma   90.00000000
_symmetry_Int_Tables_number   1
_chemical_formula_structural   LaAgAs2
_chemical_formula_sum   'La8 Ag8 As16'
_cell_volume   745.65447897
_cell_formula_units_Z   8
loop_
 _symmetry_equiv_pos_site_id
 _symmetry_equiv_pos_as_xyz
  1  'x, y, z'
loop_
 _atom_site_type_symbol
 _atom_site_label
 _atom_site_symmetry_multiplicity
 _atom_site_fract_x
 _atom_site_fract_y
 _atom_site_fract_z
 _atom_site_occupancy
  La  La0  1  0.75000000  0.51444700  0.88564500  1
  La  La1  1  0.25000000  0.48555300  0.11435500  1
  La  La2  1  0.25000000  0.51444700  0.61435500  1
  La  La3  1  0.75000000  0.48555300  0.38564500  1
  La  La4  1  0.75000000  0.01638500  0.61943300  1
  La  La5  1  0.25000000  0.98361500  0.38056700  1
  La  La6  1  0.25000000  0.01638500  0.88056700  1
  La  La7  1  0.75000000  0.98361500  0.11943300  1
  Ag  Ag0  1  0.00000000  0.23505300  0.25000000  1
  Ag  Ag1  1  0.50000000  0.76494700  0.75000000  1
  Ag  Ag2  1  0.00000000  0.76494700  0.75000000  1
  Ag  Ag3  1  0.50000000  0.23505300  0.25000000  1
  Ag  Ag4  1  0.00000000  0.73164900  0.25000000  1
  Ag  Ag5  1  0.50000000  0.26835100  0.75000000  1
  Ag  Ag6  1  0.00000000  0.26835100  0.75000000  1
  Ag  Ag7  1  0.50000000  0.73164900  0.25000000  1
  As  As0  1  0.75000000  0.51663400  0.66268200  1
  As  As1  1  0.25000000  0.48336600  0.33731800  1
  As  As2  1  0.25000000  0.51663400  0.83731800  1
  As  As3  1  0.75000000  0.48336600  0.16268200  1
  As  As4  1  0.75000000  0.01590200  0.83627600  1
  As  As5  1  0.25000000  0.98409800  0.16372400  1
  As  As6  1  0.25000000  0.01590200  0.66372400  1
  As  As7  1  0.75000000  0.98409800  0.33627600  1
  As  As8  1  0.03110300  0.21751900  0.49852300  1
  As  As9  1  0.53110300  0.78248100  0.50147700  1
  As  As10  1  0.96889700  0.21751900  0.00147700  1
  As  As11  1  0.46889700  0.78248100  0.99852300  1
  As  As12  1  0.96889700  0.78248100  0.50147700  1
  As  As13  1  0.46889700  0.21751900  0.49852300  1
  As  As14  1  0.03110300  0.78248100  0.99852300  1
  As  As15  1  0.53110300  0.21751900  0.00147700  1
loop_
_geom_bond_atom_site_label_1
_geom_bond_atom_site_label_2
_geom_bond_distance
_geom_bond_site_symmetry_2
Ag0 As5 2.791077 1_545
Ag0 As7 2.791077 1_445
Ag0 As1 2.797774 1_555
Ag0 As3 2.797774 1_455
Ag0 Ag4 2.933019 1_555
Ag0 Ag3 2.939030 1_555
Ag0 Ag3 2.939030 1_455
Ag0 Ag4 2.973229 1_545
Ag0 La7 3.496998 1_445
Ag0 La5 3.496998 1_545
Ag0 La1 3.582760 1_555
Ag0 La3 3.582760 1_455
Ag1 As6 2.791077 1_565
Ag1 As4 2.791077 1_565
Ag1 As0 2.797774 1_555
Ag1 As2 2.797774 1_555
Ag1 Ag5 2.933019 1_555
Ag1 Ag2 2.939030 1_555
Ag1 Ag2 2.939030 1_655
Ag1 Ag5 2.973229 1_565
Ag1 La6 3.496998 1_565
Ag1 La4 3.496998 1_565
Ag1 La2 3.582760 1_555
Ag1 La0 3.582760 1_555
Ag2 As6 2.791077 1_565
Ag2 As4 2.791077 1_465
Ag2 As0 2.797774 1_455
Ag2 As2 2.797774 1_555
Ag2 Ag6 2.933019 1_555
Ag2 Ag6 2.973229 1_565
Ag2 La4 3.496998 1_465
Ag2 La6 3.496998 1_565
Ag2 La2 3.582760 1_555
Ag2 La0 3.582760 1_455
Ag3 As5 2.791077 1_545
Ag3 As7 2.791077 1_545
Ag3 As3 2.797774 1_555
Ag3 As1 2.797774 1_555
Ag3 Ag7 2.933019 1_555
Ag3 Ag7 2.973229 1_545
Ag3 La7 3.496998 1_545
Ag3 La5 3.496998 1_545
Ag3 La3 3.582760 1_555
Ag3 La1 3.582760 1_555
Ag4 As5 2.795773 1_555
Ag4 As7 2.795773 1_455
Ag4 As1 2.797681 1_555
Ag4 As3 2.797681 1_455
Ag4 Ag7 2.939030 1_455
Ag4 Ag7 2.939030 1_555
Ag4 La5 3.498323 1_555
Ag4 La7 3.498323 1_455
Ag4 La3 3.572097 1_455
Ag4 La1 3.572097 1_555
Ag5 As4 2.795773 1_555
Ag5 As6 2.795773 1_555
Ag5 As0 2.797681 1_555
Ag5 As2 2.797681 1_555
Ag5 Ag6 2.939030 1_655
Ag5 Ag6 2.939030 1_555
Ag5 La4 3.498323 1_555
Ag5 La6 3.498323 1_555
Ag5 La0 3.572097 1_555
Ag5 La2 3.572097 1_555
Ag6 As6 2.795773 1_555
Ag6 As4 2.795773 1_455
Ag6 As2 2.797681 1_555
Ag6 As0 2.797681 1_455
Ag6 La6 3.498323 1_555
Ag6 La4 3.498323 1_455
Ag6 La2 3.572097 1_555
Ag6 La0 3.572097 1_455
Ag7 As5 2.795773 1_555
Ag7 As7 2.795773 1_555
Ag7 As3 2.797681 1_555
Ag7 As1 2.797681 1_555
Ag7 La7 3.498323 1_555
Ag7 La5 3.498323 1_555
Ag7 La1 3.572097 1_555
Ag7 La3 3.572097 1_555
As0 La4 3.094367 1_565
As0 La4 3.097173 1_555
As0 La2 3.116959 1_555
As0 La2 3.116959 1_655
As1 La5 3.094367 1_545
As1 La5 3.097173 1_555
As1 La3 3.116959 1_455
As1 La3 3.116959 1_555
As2 La6 3.094367 1_565
As2 La6 3.097173 1_555
As2 La0 3.116959 1_455
As2 La0 3.116959 1_555
As3 La7 3.094367 1_545
As3 La7 3.097173 1_555
As3 La1 3.116959 1_555
As3 La1 3.116959 1_655
As4 La6 3.089148 1_655
As4 La6 3.089148 1_555
As4 La0 3.129630 1_555
As4 La0 3.145806 1_545
As5 La7 3.089148 1_555
As5 La7 3.089148 1_455
As5 La1 3.129630 1_555
As5 La1 3.145806 1_565
As6 La4 3.089148 1_555
As6 La4 3.089148 1_455
As6 La2 3.129630 1_555
As6 La2 3.145806 1_545
As7 La5 3.089148 1_555
As7 La5 3.089148 1_655
As7 La3 3.129630 1_555
As7 La3 3.145806 1_565
As8 La5 3.159503 1_545
As8 La4 3.299288 1_455
As8 La2 3.304608 1_555
As8 La3 3.333765 1_455
As9 La4 3.159503 1_565
As9 La5 3.299288 1_555
As9 La3 3.304608 1_555
As9 La2 3.333765 1_555
As10 As15 2.573379 1_555
As10 As14 2.596105 1_644
As10 La7 3.159503 1_545
As10 La6 3.299288 1_654
As10 La0 3.304608 1_554
As10 La1 3.333765 1_655
As11 As14 2.573379 1_555
As11 As15 2.596105 1_566
As11 La6 3.159503 1_565
As11 La7 3.299288 1_556
As11 La1 3.304608 1_556
As11 La0 3.333765 1_555
As12 As9 2.573379 1_555
As12 As8 2.596105 1_665
As12 La4 3.159503 1_565
As12 La5 3.299288 1_655
As12 La3 3.304608 1_555
As12 La2 3.333765 1_655
As13 As8 2.573379 1_555
As13 As9 2.596105 1_545
As13 La5 3.159503 1_545
As13 La4 3.299288 1_555
As13 La2 3.304608 1_555
As13 La3 3.333765 1_555
As14 La6 3.159503 1_565
As14 La7 3.299288 1_456
As14 La1 3.304608 1_556
As14 La0 3.333765 1_455
As15 La7 3.159503 1_545
As15 La6 3.299288 1_554
As15 La0 3.304608 1_554
As15 La1 3.333765 1_555
