# generated using pymatgen
data_HfMg14Ni
_symmetry_space_group_name_H-M   'P 1'
_cell_length_a   6.27758014
_cell_length_b   6.27757965
_cell_length_c   10.03745058
_cell_angle_alpha   90.00000000
_cell_angle_beta   90.00000000
_cell_angle_gamma   120.00000258
_symmetry_Int_Tables_number   1
_chemical_formula_structural   HfMg14Ni
_chemical_formula_sum   'Hf1 Mg14 Ni1'
_cell_volume   342.56148912
_cell_formula_units_Z   1
loop_
 _symmetry_equiv_pos_site_id
 _symmetry_equiv_pos_as_xyz
  1  'x, y, z'
loop_
 _atom_site_type_symbol
 _atom_site_label
 _atom_site_symmetry_multiplicity
 _atom_site_fract_x
 _atom_site_fract_y
 _atom_site_fract_z
 _atom_site_occupancy
  Hf  Hf0  1  0.16666700  0.33333300  0.62500000  1
  Mg  Mg0  1  0.16229015  0.83114458  0.12500000  1
  Mg  Mg1  1  0.17693201  0.83846550  0.62500000  1
  Mg  Mg2  1  0.66885542  0.33770985  0.12500000  1
  Mg  Mg3  1  0.66153450  0.32306799  0.62500000  1
  Mg  Mg4  1  0.66885542  0.83114458  0.12500000  1
  Mg  Mg5  1  0.66153450  0.83846550  0.62500000  1
  Mg  Mg6  1  0.32479116  0.17520884  0.36346487  1
  Mg  Mg7  1  0.32479116  0.17520884  0.88653513  1
  Mg  Mg8  1  0.32479116  0.64958333  0.36346487  1
  Mg  Mg9  1  0.32479116  0.64958333  0.88653513  1
  Mg  Mg10  1  0.85041667  0.17520884  0.36346487  1
  Mg  Mg11  1  0.85041667  0.17520884  0.88653513  1
  Mg  Mg12  1  0.83333300  0.66666700  0.38213008  1
  Mg  Mg13  1  0.83333300  0.66666700  0.86786992  1
  Ni  Ni0  1  0.16666700  0.33333300  0.12500000  1
loop_
_geom_bond_atom_site_label_1
_geom_bond_atom_site_label_2
_geom_bond_distance
_geom_bond_site_symmetry_2
Hf0 Mg6 3.138053 1_555
Hf0 Mg7 3.138053 1_555
Hf0 Mg8 3.138059 1_555
Hf0 Mg9 3.138059 1_555
Hf0 Mg10 3.138059 1_455
Hf0 Mg11 3.138059 1_455
Hf0 Mg1 3.139286 1_555
Hf0 Mg5 3.139286 1_555
Hf0 Mg5 3.139286 1_445
Hf0 Mg1 3.139286 1_545
Hf0 Mg3 3.139286 1_455
Hf0 Mg3 3.139286 1_555
Mg0 Mg9 3.038356 1_554
Mg0 Mg8 3.038356 1_555
Mg0 Mg7 3.038363 1_564
Mg0 Mg6 3.038363 1_565
Mg0 Mg2 3.097576 1_455
Mg0 Mg4 3.097576 1_455
Mg0 Ni0 3.138880 1_565
Mg0 Ni0 3.138880 1_555
Mg0 Mg13 3.139991 1_454
Mg0 Mg12 3.139991 1_455
Mg0 Mg2 3.180004 1_565
Mg0 Mg4 3.180004 1_555
Mg1 Mg3 3.042131 1_565
Mg1 Mg5 3.042131 1_555
Mg1 Mg12 3.071194 1_455
Mg1 Mg13 3.071194 1_455
Mg1 Mg8 3.203040 1_555
Mg1 Mg9 3.203040 1_555
Mg1 Mg6 3.203047 1_565
Mg1 Mg7 3.203047 1_565
Mg1 Mg3 3.235449 1_455
Mg1 Mg5 3.235449 1_455
Mg2 Mg7 3.038363 1_554
Mg2 Mg6 3.038363 1_555
Mg2 Mg4 3.097576 1_555
Mg2 Ni0 3.138880 1_555
Mg2 Ni0 3.138880 1_655
Mg2 Mg4 3.180004 1_545
Mg3 Mg5 3.042131 1_545
Mg3 Mg6 3.203047 1_555
Mg3 Mg7 3.203047 1_555
Mg3 Mg5 3.235449 1_555
Mg4 Mg9 3.038363 1_554
Mg4 Mg8 3.038363 1_555
Mg4 Ni0 3.138880 1_665
Mg4 Ni0 3.138880 1_555
Mg5 Mg8 3.203046 1_555
Mg5 Mg9 3.203046 1_555
Mg6 Ni0 2.947068 1_555
Mg6 Mg8 2.977924 1_555
Mg6 Mg8 3.299656 1_545
Mg7 Ni0 2.947068 1_556
Mg7 Mg9 2.977924 1_555
Mg7 Mg9 3.299656 1_545
Mg8 Ni0 2.947074 1_555
Mg9 Ni0 2.947074 1_556
Mg10 Ni0 2.947074 1_655
Mg10 Mg8 2.977924 1_655
Mg10 Mg6 2.977924 1_655
Mg10 Mg2 3.038356 1_555
Mg10 Mg4 3.038362 1_545
Mg10 Mg12 3.145748 1_555
Mg10 Mg12 3.145748 1_545
Mg10 Mg3 3.203040 1_555
Mg10 Mg5 3.203046 1_545
Mg10 Mg8 3.299656 1_545
Mg10 Mg6 3.299656 1_555
Mg11 Ni0 2.947074 1_656
Mg11 Mg9 2.977924 1_655
Mg11 Mg7 2.977924 1_655
Mg11 Mg2 3.038356 1_556
Mg11 Mg4 3.038362 1_546
Mg11 Mg13 3.145748 1_555
Mg11 Mg13 3.145748 1_545
Mg11 Mg3 3.203040 1_555
Mg11 Mg5 3.203046 1_545
Mg11 Mg9 3.299656 1_545
Mg11 Mg7 3.299656 1_555
Mg12 Mg5 3.071188 1_555
Mg12 Mg3 3.071194 1_555
Mg12 Mg4 3.139984 1_555
Mg12 Mg2 3.139990 1_555
Mg12 Mg6 3.145748 1_665
Mg12 Mg6 3.145748 1_555
Mg12 Mg8 3.145748 1_655
Mg12 Mg8 3.145748 1_555
Mg13 Mg5 3.071188 1_555
Mg13 Mg3 3.071194 1_555
Mg13 Mg4 3.139984 1_556
Mg13 Mg2 3.139990 1_556
Mg13 Mg7 3.145748 1_665
Mg13 Mg7 3.145748 1_555
Mg13 Mg9 3.145748 1_655
Mg13 Mg9 3.145748 1_555
