# generated using pymatgen
data_Li9Mn2Co5O16
_symmetry_space_group_name_H-M   'P 1'
_cell_length_a   2.87102000
_cell_length_b   5.92123100
_cell_length_c   17.07230166
_cell_angle_alpha   89.72638893
_cell_angle_beta   90.00000000
_cell_angle_gamma   90.00000000
_symmetry_Int_Tables_number   1
_chemical_formula_structural   Li9Mn2Co5O16
_chemical_formula_sum   'Li9 Mn2 Co5 O16'
_cell_volume   290.22535166
_cell_formula_units_Z   1
loop_
 _symmetry_equiv_pos_site_id
 _symmetry_equiv_pos_as_xyz
  1  'x, y, z'
loop_
 _atom_site_type_symbol
 _atom_site_label
 _atom_site_symmetry_multiplicity
 _atom_site_fract_x
 _atom_site_fract_y
 _atom_site_fract_z
 _atom_site_occupancy
  Li  Li0  1  0.50000000  0.74693200  0.86619900  1
  Li  Li1  1  0.50000000  0.25026700  0.62022800  1
  Li  Li2  1  0.50000000  0.75511000  0.37897400  1
  Li  Li3  1  0.00000000  0.99465000  0.74124800  1
  Li  Li4  1  0.00000000  0.50389800  0.50528900  1
  Li  Li5  1  0.00000000  0.99990000  0.25264800  1
  Li  Li6  1  0.50000000  0.24923700  0.13330100  1
  Li  Li7  1  0.00000000  0.50286100  0.00211500  1
  Li  Li8  1  0.50000000  0.75153800  0.62417900  1
  Mn  Mn0  1  0.00000000  0.99503500  0.00117200  1
  Mn  Mn1  1  0.50000000  0.25504300  0.87110700  1
  Co  Co0  1  0.00000000  0.51304800  0.73319900  1
  Co  Co1  1  0.00000000  0.99335500  0.51227900  1
  Co  Co2  1  0.00000000  0.49852400  0.25453300  1
  Co  Co3  1  0.50000000  0.24134200  0.37662400  1
  Co  Co4  1  0.50000000  0.74837900  0.13027300  1
  O  O0  1  0.50000000  0.76984500  0.00060400  1
  O  O1  1  0.50000000  0.27512900  0.76017100  1
  O  O2  1  0.50000000  0.77814400  0.49969600  1
  O  O3  1  0.00000000  0.03227900  0.86996400  1
  O  O4  1  0.00000000  0.49448100  0.62966100  1
  O  O5  1  0.00000000  0.01222600  0.37456800  1
  O  O6  1  0.50000000  0.26549500  0.25354300  1
  O  O7  1  0.00000000  0.51096300  0.12655800  1
  O  O8  1  0.50000000  0.73136400  0.75056100  1
  O  O9  1  0.50000000  0.22093600  0.49643000  1
  O  O10  1  0.50000000  0.73453700  0.24784800  1
  O  O11  1  0.00000000  0.00326900  0.61796700  1
  O  O12  1  0.00000000  0.48606100  0.37364300  1
  O  O13  1  0.00000000  0.98792900  0.12654100  1
  O  O14  1  0.50000000  0.22471000  0.99007800  1
  O  O15  1  0.00000000  0.47351500  0.87879800  1
loop_
_geom_bond_atom_site_label_1
_geom_bond_atom_site_label_2
_geom_bond_distance
_geom_bond_site_symmetry_2
Li0 O8 1.976797 1_555
Li0 O15 2.173632 1_655
Li0 O15 2.173632 1_555
Li0 O3 2.218248 1_565
Li0 O3 2.218248 1_665
Li0 O0 2.299257 1_556
Li1 O4 2.044481 1_555
Li1 O4 2.044481 1_655
Li1 O11 2.049809 1_655
Li1 O11 2.049809 1_555
Li1 O9 2.121467 1_555
Li1 O1 2.394382 1_555
Li2 O2 2.066160 1_555
Li2 O5 2.093582 1_665
Li2 O5 2.093582 1_565
Li2 O12 2.146702 1_655
Li2 O12 2.146702 1_555
Li2 O10 2.242515 1_555
Li3 O11 2.105065 1_565
Li3 O8 2.124620 1_455
Li3 O8 2.124620 1_555
Li3 O3 2.209804 1_565
Li3 O1 2.219994 1_465
Li3 O1 2.219994 1_565
Li4 O4 2.123782 1_555
Li4 O2 2.169169 1_555
Li4 O2 2.169169 1_455
Li4 O9 2.212064 1_555
Li4 O9 2.212064 1_455
Li4 O12 2.250484 1_555
Li5 O5 2.083083 1_565
Li5 O6 2.129408 1_565
Li5 O6 2.129408 1_465
Li5 O10 2.130150 1_455
Li5 O10 2.130150 1_555
Li5 O13 2.154442 1_555
Li6 O6 2.055523 1_555
Li6 O13 2.114177 1_645
Li6 O13 2.114177 1_545
Li6 O7 2.115167 1_655
Li6 O7 2.115167 1_555
Li6 O14 2.450148 1_554
Li7 O15 2.113291 1_554
Li7 O7 2.125299 1_555
Li7 O0 2.135445 1_455
Li7 O0 2.135445 1_555
Li7 O14 2.195165 1_554
Li7 O14 2.195165 1_454
Li8 O11 2.071760 1_565
Li8 O11 2.071760 1_665
Li8 O4 2.094005 1_555
Li8 O4 2.094005 1_655
Li8 O2 2.130292 1_555
Li8 O8 2.160366 1_555
Mn0 O0 1.959303 1_455
Mn0 O0 1.959303 1_555
Mn0 O14 1.985847 1_464
Mn0 O14 1.985847 1_564
Mn0 O13 2.140550 1_555
Mn0 O3 2.249804 1_564
Mn1 O1 1.897097 1_555
Mn1 O15 1.937269 1_555
Mn1 O15 1.937269 1_655
Mn1 O3 1.949660 1_655
Mn1 O3 1.949660 1_555
Mn1 O14 2.038180 1_555
Co0 O4 1.771571 1_555
Co0 O8 1.955321 1_555
Co0 O8 1.955321 1_455
Co0 O1 2.061837 1_455
Co0 O1 2.061837 1_555
Co0 O15 2.495595 1_555
Co1 O11 1.805572 1_565
Co1 O2 1.932182 1_455
Co1 O2 1.932182 1_555
Co1 O9 1.986539 1_565
Co1 O9 1.986539 1_465
Co1 O5 2.353165 1_565
Co2 O6 1.991255 1_455
Co2 O6 1.991255 1_555
Co2 O10 2.006281 1_455
Co2 O10 2.006281 1_555
Co2 O12 2.034468 1_555
Co2 O7 2.185717 1_555
Co3 O5 1.975569 1_555
Co3 O5 1.975569 1_655
Co3 O12 2.040168 1_655
Co3 O12 2.040168 1_555
Co3 O9 2.048354 1_555
Co3 O6 2.105456 1_555
Co4 O10 2.008557 1_555
Co4 O7 2.010428 1_555
Co4 O7 2.010428 1_655
Co4 O13 2.018869 1_555
Co4 O13 2.018869 1_655
Co4 O0 2.216788 1_555
