# generated using pymatgen
data_CaSn3(P2O7)2
_symmetry_space_group_name_H-M   'P 1'
_cell_length_a   8.31367100
_cell_length_b   8.34486500
_cell_length_c   10.11145686
_cell_angle_alpha   71.68844012
_cell_angle_beta   90.00000000
_cell_angle_gamma   90.00000000
_symmetry_Int_Tables_number   1
_chemical_formula_structural   CaSn3(P2O7)2
_chemical_formula_sum   'Ca2 Sn6 P8 O28'
_cell_volume   665.97476956
_cell_formula_units_Z   2
loop_
 _symmetry_equiv_pos_site_id
 _symmetry_equiv_pos_as_xyz
  1  'x, y, z'
loop_
 _atom_site_type_symbol
 _atom_site_label
 _atom_site_symmetry_multiplicity
 _atom_site_fract_x
 _atom_site_fract_y
 _atom_site_fract_z
 _atom_site_occupancy
  Ca  Ca0  1  0.00000000  0.50000000  0.00000000  1
  Ca  Ca1  1  0.50000000  0.50000000  0.50000000  1
  Sn  Sn0  1  0.11869900  0.79661900  0.53736900  1
  Sn  Sn1  1  0.61869900  0.20338100  0.96263100  1
  Sn  Sn2  1  0.88130100  0.20338100  0.46263100  1
  Sn  Sn3  1  0.38130100  0.79661900  0.03736900  1
  Sn  Sn4  1  0.00000000  0.00000000  0.00000000  1
  Sn  Sn5  1  0.50000000  0.00000000  0.50000000  1
  P  P0  1  0.94814900  0.40953700  0.70764100  1
  P  P1  1  0.44814900  0.59046300  0.79235900  1
  P  P2  1  0.05185100  0.59046300  0.29235900  1
  P  P3  1  0.55185100  0.40953700  0.20764100  1
  P  P4  1  0.20535200  0.17548800  0.67523500  1
  P  P5  1  0.70535200  0.82451200  0.82476500  1
  P  P6  1  0.79464800  0.82451200  0.32476500  1
  P  P7  1  0.29464800  0.17548800  0.17523500  1
  O  O0  1  0.36594200  0.22458600  0.59883000  1
  O  O1  1  0.86594200  0.77541400  0.90117000  1
  O  O2  1  0.63405800  0.77541400  0.40117000  1
  O  O3  1  0.13405800  0.22458600  0.09882900  1
  O  O4  1  0.42610900  0.67917400  0.63435900  1
  O  O5  1  0.92610900  0.32082600  0.86564100  1
  O  O6  1  0.57389100  0.32082600  0.36564100  1
  O  O7  1  0.07389100  0.67917400  0.13435900  1
  O  O8  1  0.82279000  0.36094800  0.61472300  1
  O  O9  1  0.32279000  0.63905200  0.88527700  1
  O  O10  1  0.17721000  0.63905200  0.38527700  1
  O  O11  1  0.67721000  0.36094800  0.11472300  1
  O  O12  1  0.12505700  0.35738100  0.66620000  1
  O  O13  1  0.62505700  0.64261900  0.83380000  1
  O  O14  1  0.87494300  0.64261900  0.33380000  1
  O  O15  1  0.37494300  0.35738100  0.16620000  1
  O  O16  1  0.53531700  0.59920500  0.18424300  1
  O  O17  1  0.03531700  0.40079500  0.31575700  1
  O  O18  1  0.46468300  0.40079500  0.81575700  1
  O  O19  1  0.96468300  0.59920500  0.68424300  1
  O  O20  1  0.78337700  0.93305600  0.17292300  1
  O  O21  1  0.28337700  0.06694400  0.32707700  1
  O  O22  1  0.21662300  0.06694400  0.82707700  1
  O  O23  1  0.71662300  0.93305600  0.67292300  1
  O  O24  1  0.41487500  0.09605300  0.09581300  1
  O  O25  1  0.91487500  0.90394700  0.40418700  1
  O  O26  1  0.58512500  0.90394700  0.90418700  1
  O  O27  1  0.08512500  0.09605300  0.59581300  1
loop_
_geom_bond_atom_site_label_1
_geom_bond_atom_site_label_2
_geom_bond_distance
_geom_bond_site_symmetry_2
Ca0 O5 2.394796 1_454
Ca0 O7 2.394796 1_555
Ca0 O3 2.465711 1_555
Ca0 O1 2.465712 1_454
Ca0 O9 3.007961 1_554
Ca0 O11 3.007961 1_455
Ca0 O17 3.050315 1_555
Ca0 O19 3.050315 1_454
Ca1 O4 2.394796 1_555
Ca1 O6 2.394796 1_555
Ca1 O0 2.465712 1_555
Ca1 O2 2.465712 1_555
Ca1 O8 3.007961 1_555
Ca1 O10 3.007961 1_555
Ca1 O18 3.050315 1_555
Ca1 O16 3.050315 1_555
O0 P4 1.532416 1_555
O0 Sn5 2.632492 1_555
O1 P5 1.532416 1_555
O1 Sn4 2.632492 1_666
O2 P6 1.532416 1_555
O2 Sn5 2.632492 1_565
O3 P7 1.532420 1_555
O3 Sn4 2.632486 1_555
O4 P1 1.546218 1_555
O4 Sn5 2.665563 1_565
O5 P0 1.546218 1_555
O5 Sn4 2.665563 1_656
O6 P3 1.546218 1_555
O6 Sn5 2.665563 1_555
O7 P2 1.546218 1_555
O7 Sn4 2.665563 1_565
O8 P0 1.540350 1_555
O8 Sn2 2.366686 1_555
O9 P1 1.540350 1_555
O9 Sn3 2.366686 1_556
O10 P2 1.540350 1_555
O10 Sn0 2.366686 1_555
O11 P3 1.540350 1_555
O11 Sn1 2.366686 1_554
O12 P0 1.625649 1_455
O12 P4 1.634248 1_555
O13 P1 1.625649 1_555
O13 P5 1.634248 1_555
O14 P2 1.625649 1_655
O14 P6 1.634248 1_555
O15 P3 1.625649 1_555
O15 P7 1.634248 1_555
O16 P3 1.531235 1_555
O16 Sn3 2.240901 1_555
O17 P2 1.531235 1_555
O17 Sn2 2.240901 1_455
O18 P1 1.531235 1_555
O18 Sn1 2.240901 1_555
O19 P0 1.531235 1_555
O19 Sn0 2.240901 1_655
O20 P6 1.520737 1_555
O20 Sn4 2.449269 1_665
O21 P7 1.520737 1_555
O21 Sn5 2.449269 1_555
O22 P4 1.520737 1_555
O22 Sn4 2.449269 1_556
O23 P5 1.520737 1_555
O23 Sn5 2.449269 1_565
O24 P7 1.554955 1_555
O24 Sn1 2.174672 1_554
O25 P6 1.554955 1_555
O25 Sn0 2.174672 1_655
O26 P5 1.554955 1_555
O26 Sn3 2.174672 1_556
O27 P4 1.554955 1_555
O27 Sn2 2.174672 1_455
