# generated using pymatgen
data_Nd6Cd5Si7
_symmetry_space_group_name_H-M   'P 1'
_cell_length_a   4.31890500
_cell_length_b   5.89573815
_cell_length_c   17.58681752
_cell_angle_alpha   98.66886670
_cell_angle_beta   90.00000000
_cell_angle_gamma   111.48598080
_symmetry_Int_Tables_number   1
_chemical_formula_structural   Nd6Cd5Si7
_chemical_formula_sum   'Nd6 Cd5 Si7'
_cell_volume   411.19265664
_cell_formula_units_Z   1
loop_
 _symmetry_equiv_pos_site_id
 _symmetry_equiv_pos_as_xyz
  1  'x, y, z'
loop_
 _atom_site_type_symbol
 _atom_site_label
 _atom_site_symmetry_multiplicity
 _atom_site_fract_x
 _atom_site_fract_y
 _atom_site_fract_z
 _atom_site_occupancy
  Nd  Nd0  1  0.61675000  0.23349900  0.93731000  1
  Nd  Nd1  1  0.29096900  0.58193600  0.27330600  1
  Nd  Nd2  1  0.97614000  0.95228200  0.60973300  1
  Nd  Nd3  1  0.72977200  0.45954400  0.73819400  1
  Nd  Nd4  1  0.36332900  0.72665900  0.04992000  1
  Nd  Nd5  1  0.03705200  0.07410300  0.39323500  1
  Cd  Cd0  1  0.68522400  0.37044700  0.13694900  1
  Cd  Cd1  1  0.35534500  0.71069100  0.47346600  1
  Cd  Cd2  1  0.03293200  0.06586400  0.80192300  1
  Cd  Cd3  1  0.97348700  0.94697300  0.19220400  1
  Cd  Cd4  1  0.65575500  0.31150900  0.53248900  1
  Si  Si0  1  0.28404100  0.56808400  0.87424700  1
  Si  Si1  1  0.57783400  0.15566800  0.27694900  1
  Si  Si2  1  0.26138300  0.52276600  0.61675200  1
  Si  Si3  1  0.89249000  0.78497900  0.92501500  1
  Si  Si4  1  0.07676000  0.15352000  0.05593400  1
  Si  Si5  1  0.74981900  0.49963700  0.38900500  1
  Si  Si6  1  0.44092000  0.88184000  0.72337000  1
loop_
_geom_bond_atom_site_label_1
_geom_bond_atom_site_label_2
_geom_bond_distance
_geom_bond_site_symmetry_2
Nd0 Si3 3.067888 1_555
Nd0 Si4 3.082952 1_656
Nd0 Si4 3.082955 1_556
Nd0 Si0 3.149917 1_655
Nd0 Si0 3.149927 1_555
Nd0 Si3 3.254557 1_445
Nd0 Si3 3.254557 1_545
Nd1 Si5 3.050412 1_555
Nd1 Si5 3.050415 1_455
Nd1 Si1 3.137768 1_565
Nd1 Si1 3.191320 1_555
Nd1 Si1 3.191326 1_455
Nd2 Si6 3.009454 1_555
Nd2 Si6 3.009460 1_655
Nd2 Si2 3.112080 1_665
Nd2 Si2 3.213255 1_555
Nd2 Si2 3.213261 1_655
Nd3 Si2 3.095975 1_655
Nd3 Si2 3.095975 1_555
Nd3 Si6 3.137635 1_545
Nd3 Si0 3.206465 1_655
Nd3 Si0 3.206470 1_555
Nd3 Si6 3.208441 1_655
Nd3 Si6 3.208442 1_555
Nd3 Si3 3.475948 1_555
Nd4 Si0 3.071039 1_554
Nd4 Si3 3.133477 1_454
Nd4 Si3 3.133483 1_554
Nd4 Si4 3.163111 1_555
Nd4 Si4 3.174597 1_565
Nd4 Si4 3.174600 1_665
Nd5 Si1 3.056526 1_555
Nd5 Si1 3.056529 1_455
Nd5 Si5 3.140344 1_445
Nd5 Si5 3.189808 1_555
Nd5 Si5 3.189809 1_455
Cd0 Si4 2.749586 1_655
Cd0 Si4 2.749589 1_555
Cd0 Si1 2.896619 1_555
Cd0 Cd3 3.154704 1_555
Cd0 Nd1 3.295272 1_555
Cd0 Nd1 3.295275 1_655
Cd0 Cd3 3.425803 1_445
Cd0 Cd3 3.425804 1_545
Cd0 Nd4 3.434190 1_655
Cd0 Nd4 3.434196 1_555
Cd0 Nd0 3.469456 1_554
Cd0 Nd4 3.614592 1_545
Cd1 Si5 2.766419 1_455
Cd1 Si5 2.766426 1_555
Cd1 Si2 2.873089 1_555
Cd1 Cd4 3.291411 1_565
Cd1 Nd2 3.336778 1_555
Cd1 Nd2 3.336781 1_455
Cd1 Cd4 3.357515 1_455
Cd1 Cd4 3.357520 1_555
Cd1 Nd5 3.397100 1_565
Cd1 Nd5 3.397105 1_665
Cd1 Nd1 3.476357 1_555
Cd1 Nd5 3.548378 1_555
Cd2 Si6 2.671919 1_445
Cd2 Si6 2.671919 1_545
Cd2 Si0 2.841414 1_555
Cd2 Si3 2.853336 1_445
Cd2 Nd0 3.235566 1_455
Cd2 Nd0 3.235569 1_555
Cd2 Nd3 3.333559 1_445
Cd2 Nd2 3.336231 1_445
Cd2 Nd3 3.371656 1_555
Cd2 Nd3 3.371656 1_455
Cd3 Si1 2.764511 1_665
Cd3 Si1 2.764514 1_565
Cd3 Si4 2.811972 1_665
Cd3 Nd4 3.377258 1_655
Cd3 Nd4 3.377264 1_555
Cd3 Nd1 3.410777 1_555
Cd3 Nd1 3.410780 1_655
Cd3 Nd5 3.491036 1_665
Cd3 Nd1 3.543875 1_665
Cd4 Si2 2.765158 1_655
Cd4 Si2 2.765162 1_555
Cd4 Si5 2.876904 1_555
Cd4 Nd2 3.355554 1_545
Cd4 Nd2 3.355562 1_445
Cd4 Nd5 3.365111 1_555
Cd4 Nd5 3.365111 1_655
Cd4 Nd2 3.557488 1_555
Cd4 Nd3 3.577076 1_555
Si0 Si3 2.555788 1_455
Si0 Si3 2.555799 1_555
Si1 Si5 2.497962 1_555
Si2 Si6 2.489930 1_555
Si3 Si4 2.807306 1_666
