# generated using pymatgen
data_HgWO4
_symmetry_space_group_name_H-M   'P 1'
_cell_length_a   8.53962618
_cell_length_b   8.53962618
_cell_length_c   5.30562200
_cell_angle_alpha   90.00000000
_cell_angle_beta   90.00000000
_cell_angle_gamma   128.12186599
_symmetry_Int_Tables_number   1
_chemical_formula_structural   HgWO4
_chemical_formula_sum   'Hg4 W4 O16'
_cell_volume   304.38475032
_cell_formula_units_Z   4
loop_
 _symmetry_equiv_pos_site_id
 _symmetry_equiv_pos_as_xyz
  1  'x, y, z'
loop_
 _atom_site_type_symbol
 _atom_site_label
 _atom_site_symmetry_multiplicity
 _atom_site_fract_x
 _atom_site_fract_y
 _atom_site_fract_z
 _atom_site_occupancy
  Hg  Hg0  1  0.42907500  0.07092500  0.75000000  1
  Hg  Hg1  1  0.07092500  0.42907500  0.25000000  1
  Hg  Hg2  1  0.57092500  0.92907500  0.25000000  1
  Hg  Hg3  1  0.92907500  0.57092500  0.75000000  1
  W  W0  1  0.91772200  0.08227800  0.69509600  1
  W  W1  1  0.08227800  0.91772200  0.30490400  1
  W  W2  1  0.58227800  0.41772200  0.19509600  1
  W  W3  1  0.41772200  0.58227800  0.80490400  1
  O  O0  1  0.61235800  0.88764200  0.75000000  1
  O  O1  1  0.88764200  0.61235800  0.25000000  1
  O  O2  1  0.38764200  0.11235800  0.25000000  1
  O  O3  1  0.11235800  0.38764200  0.75000000  1
  O  O4  1  0.68504800  0.31495200  0.96489900  1
  O  O5  1  0.31495200  0.68504800  0.03510100  1
  O  O6  1  0.81495200  0.18504800  0.46489900  1
  O  O7  1  0.18504800  0.81495200  0.53510100  1
  O  O8  1  0.84559600  0.84559600  0.50000000  1
  O  O9  1  0.34559600  0.34559600  0.00000000  1
  O  O10  1  0.15440400  0.15440400  0.50000000  1
  O  O11  1  0.65440400  0.65440400  0.00000000  1
  O  O12  1  0.58120100  0.41879900  0.53569100  1
  O  O13  1  0.41879900  0.58120100  0.46430900  1
  O  O14  1  0.91879900  0.08120100  0.03569100  1
  O  O15  1  0.08120100  0.91879900  0.96430900  1
loop_
_geom_bond_atom_site_label_1
_geom_bond_atom_site_label_2
_geom_bond_distance
_geom_bond_site_symmetry_2
Hg0 O4 2.190123 1_555
Hg0 O7 2.190123 1_545
Hg1 O6 2.190123 1_455
Hg1 O5 2.190123 1_555
Hg2 O5 2.190123 1_555
Hg2 O6 2.190123 1_565
Hg3 O4 2.190123 1_555
Hg3 O7 2.190123 1_655
O0 W3 2.072710 1_555
O0 W0 2.072710 1_565
O1 W2 2.072710 1_555
O1 W1 2.072710 1_655
O2 W2 2.072710 1_555
O2 W1 2.072710 1_545
O3 W3 2.072710 1_555
O3 W0 2.072710 1_455
O4 W2 1.995758 1_556
O5 W3 1.995758 1_554
O6 W0 1.995758 1_555
O7 W1 1.995758 1_555
O8 W0 1.999730 1_565
O8 W1 1.999730 1_655
O9 W2 1.999730 1_555
O9 W3 1.999730 1_554
O10 W0 1.999730 1_455
O10 W1 1.999730 1_545
O11 W2 1.999730 1_555
O11 W3 1.999730 1_554
O12 W2 1.807144 1_555
O13 W3 1.807144 1_555
O14 W0 1.807144 1_554
O15 W1 1.807144 1_556
