# generated using pymatgen
data_Zn4FeCu10(SnSe4)5
_symmetry_space_group_name_H-M   'P 1'
_cell_length_a   10.77752791
_cell_length_b   10.77752791
_cell_length_c   16.36140750
_cell_angle_alpha   79.10776665
_cell_angle_beta   79.10776665
_cell_angle_gamma   30.93863422
_symmetry_Int_Tables_number   1
_chemical_formula_structural   Zn4FeCu10(SnSe4)5
_chemical_formula_sum   'Zn4 Fe1 Cu10 Sn5 Se20'
_cell_volume   958.10055090
_cell_formula_units_Z   1
loop_
 _symmetry_equiv_pos_site_id
 _symmetry_equiv_pos_as_xyz
  1  'x, y, z'
loop_
 _atom_site_type_symbol
 _atom_site_label
 _atom_site_symmetry_multiplicity
 _atom_site_fract_x
 _atom_site_fract_y
 _atom_site_fract_z
 _atom_site_occupancy
  Zn  Zn0  1  0.99978900  0.80014500  0.90004200  1
  Zn  Zn1  1  0.39960400  0.20046500  0.29993600  1
  Zn  Zn2  1  0.79953500  0.60039600  0.70006400  1
  Zn  Zn3  1  0.19985500  0.00021100  0.09995800  1
  Fe  Fe0  1  0.59942000  0.40058000  0.50000000  1
  Cu  Cu0  1  0.80030800  0.59964400  0.45002400  1
  Cu  Cu1  1  0.59965000  0.40023700  0.25001400  1
  Cu  Cu2  1  0.40000700  0.19996600  0.04998300  1
  Cu  Cu3  1  0.20006000  0.99992200  0.85003100  1
  Cu  Cu4  1  0.00014700  0.79996800  0.64991200  1
  Cu  Cu5  1  0.20003200  0.99985300  0.35008800  1
  Cu  Cu6  1  0.00007800  0.79994000  0.14996900  1
  Cu  Cu7  1  0.80003400  0.59999300  0.95001700  1
  Cu  Cu8  1  0.59976300  0.40035000  0.74998600  1
  Cu  Cu9  1  0.40035600  0.19969200  0.54997600  1
  Sn  Sn0  1  0.79988200  0.60019100  0.19998300  1
  Sn  Sn1  1  0.60071300  0.39928700  0.00000000  1
  Sn  Sn2  1  0.39980900  0.20011800  0.80001700  1
  Sn  Sn3  1  0.19974200  0.00023200  0.60000800  1
  Sn  Sn4  1  0.99976800  0.80025800  0.39999200  1
  Se  Se0  1  0.55351500  0.83495800  0.82898700  1
  Se  Se1  1  0.95381500  0.23440700  0.22903900  1
  Se  Se2  1  0.35999800  0.62816500  0.62622200  1
  Se  Se3  1  0.75361900  0.03472900  0.02891000  1
  Se  Se4  1  0.15472400  0.43291100  0.42896900  1
  Se  Se5  1  0.13882600  0.45706200  0.93244000  1
  Se  Se6  1  0.53833400  0.85750800  0.33260100  1
  Se  Se7  1  0.93758400  0.25852900  0.73287800  1
  Se  Se8  1  0.33824000  0.65759500  0.13259500  1
  Se  Se9  1  0.73462400  0.06596600  0.53209400  1
  Se  Se10  1  0.54293800  0.86117400  0.06756000  1
  Se  Se11  1  0.93403400  0.26537600  0.46790600  1
  Se  Se12  1  0.34240500  0.66176000  0.86740500  1
  Se  Se13  1  0.74147100  0.06241600  0.26712200  1
  Se  Se14  1  0.14249200  0.46166600  0.66739900  1
  Se  Se15  1  0.16504200  0.44648500  0.17101300  1
  Se  Se16  1  0.56708900  0.84527600  0.57103100  1
  Se  Se17  1  0.96527100  0.24638100  0.97109000  1
  Se  Se18  1  0.37183500  0.64000200  0.37377800  1
  Se  Se19  1  0.76559300  0.04618500  0.77096100  1
loop_
_geom_bond_atom_site_label_1
_geom_bond_atom_site_label_2
_geom_bond_distance
_geom_bond_site_symmetry_2
Fe0 Se9 2.442017 1_555
Fe0 Se11 2.442017 1_555
Fe0 Se2 2.445951 1_555
Fe0 Se18 2.445951 1_555
Cu0 Se4 2.429013 1_655
Cu0 Se16 2.435423 1_555
Cu0 Se6 2.440909 1_555
Cu0 Se11 2.448579 1_555
Cu1 Se13 2.429136 1_555
Cu1 Se1 2.432245 1_555
Cu1 Se8 2.438872 1_555
Cu1 Se18 2.453779 1_555
Cu2 Se3 2.430519 1_555
Cu2 Se10 2.430997 1_545
Cu2 Se15 2.438143 1_555
Cu2 Se5 2.439674 1_554
Cu3 Se12 2.428790 1_555
Cu3 Se0 2.430705 1_555
Cu3 Se17 2.438399 1_465
Cu3 Se7 2.439186 1_465
Cu4 Se14 2.430116 1_555
Cu4 Se19 2.437472 1_465
Cu4 Se2 2.450371 1_555
Cu4 Se9 2.459008 1_465
Cu5 Se6 2.430116 1_555
Cu5 Se1 2.437472 1_465
Cu5 Se18 2.450371 1_555
Cu5 Se11 2.459008 1_465
Cu6 Se8 2.428790 1_555
Cu6 Se15 2.430705 1_555
Cu6 Se3 2.438399 1_465
Cu6 Se13 2.439186 1_465
Cu7 Se17 2.430519 1_555
Cu7 Se5 2.430997 1_655
Cu7 Se0 2.438143 1_555
Cu7 Se10 2.439674 1_556
Cu8 Se7 2.429136 1_555
Cu8 Se19 2.432245 1_555
Cu8 Se12 2.438872 1_555
Cu8 Se2 2.453779 1_555
Cu9 Se16 2.429013 1_545
Cu9 Se4 2.435423 1_555
Cu9 Se14 2.440909 1_555
Cu9 Se9 2.448579 1_555
Se0 Zn2 2.504721 1_555
Se0 Sn2 2.620163 1_565
Se1 Zn3 2.505858 1_655
Se1 Sn0 2.624889 1_555
Se2 Sn3 2.644985 1_565
Se3 Zn0 2.504089 1_544
Se3 Sn1 2.619507 1_555
Se4 Zn1 2.499898 1_555
Se4 Sn4 2.633604 1_455
Se5 Zn0 2.500643 1_455
Se5 Sn2 2.622408 1_555
Se6 Zn1 2.501673 1_565
Se6 Sn0 2.626274 1_555
Se7 Zn2 2.495549 1_555
Se7 Sn3 2.632824 1_655
Se8 Zn3 2.500594 1_565
Se8 Sn1 2.629196 1_555
Se9 Sn4 2.646732 1_545
Se10 Zn3 2.500643 1_565
Se10 Sn0 2.622408 1_555
Se11 Sn3 2.646732 1_655
Se12 Zn0 2.500594 1_455
Se12 Sn1 2.629196 1_556
Se13 Zn1 2.495549 1_555
Se13 Sn4 2.632824 1_545
Se14 Zn2 2.501673 1_455
Se14 Sn2 2.626274 1_555
Se15 Zn1 2.504721 1_555
Se15 Sn0 2.620163 1_455
Se16 Zn2 2.499898 1_555
Se16 Sn3 2.633604 1_565
Se17 Zn3 2.504089 1_656
Se17 Sn1 2.619507 1_556
Se18 Sn4 2.644985 1_455
Se19 Zn0 2.505858 1_545
Se19 Sn2 2.624889 1_555
