# generated using pymatgen
data_Zr(TlSe)4
_symmetry_space_group_name_H-M   'P 1'
_cell_length_a   9.45178562
_cell_length_b   9.45371804
_cell_length_c   16.28221954
_cell_angle_alpha   104.13750126
_cell_angle_beta   105.02475124
_cell_angle_gamma   90.12490650
_symmetry_Int_Tables_number   1
_chemical_formula_structural   Zr(TlSe)4
_chemical_formula_sum   'Zr5 Tl20 Se20'
_cell_volume   1359.25787044
_cell_formula_units_Z   5
loop_
 _symmetry_equiv_pos_site_id
 _symmetry_equiv_pos_as_xyz
  1  'x, y, z'
loop_
 _atom_site_type_symbol
 _atom_site_label
 _atom_site_symmetry_multiplicity
 _atom_site_fract_x
 _atom_site_fract_y
 _atom_site_fract_z
 _atom_site_occupancy
  Zr  Zr0  1  0.98327925  0.31416197  0.40062974  1
  Zr  Zr1  1  0.01672075  0.68583803  0.59937026  1
  Zr  Zr2  1  0.82224485  0.69393961  0.80065063  1
  Zr  Zr3  1  0.17775515  0.30606039  0.19934937  1
  Zr  Zr4  1  0.00000000  0.50000000  0.00000000  1
  Tl  Tl0  1  0.95201453  0.91737289  0.19939896  1
  Tl  Tl1  1  0.04798547  0.08262711  0.80060104  1
  Tl  Tl2  1  0.78289421  0.28040241  0.59989544  1
  Tl  Tl3  1  0.21710579  0.71959759  0.40010456  1
  Tl  Tl4  1  0.77814421  0.91208498  0.40413781  1
  Tl  Tl5  1  0.22185579  0.08791502  0.59586219  1
  Tl  Tl6  1  0.77644809  0.54845326  0.20453931  1
  Tl  Tl7  1  0.22355191  0.45154674  0.79546069  1
  Tl  Tl8  1  0.62131517  0.90679950  0.61085202  1
  Tl  Tl9  1  0.37868483  0.09320050  0.38914798  1
  Tl  Tl10  1  0.60905511  0.29864484  0.80885857  1
  Tl  Tl11  1  0.39094489  0.70135516  0.19114143  1
  Tl  Tl12  1  0.58720529  0.53501604  0.40102287  1
  Tl  Tl13  1  0.41279471  0.46498396  0.59897713  1
  Tl  Tl14  1  0.41811228  0.90222453  0.79973744  1
  Tl  Tl15  1  0.58188772  0.09777547  0.20026256  1
  Tl  Tl16  1  0.39346318  0.28069896  0.00090852  1
  Tl  Tl17  1  0.60653682  0.71930104  -0.00090852  1
  Tl  Tl18  1  0.22634445  0.89827426  0.99174261  1
  Tl  Tl19  1  0.77365555  0.10172574  0.00825739  1
  Se  Se0  1  0.93763851  0.95612097  0.59774189  1
  Se  Se1  1  0.06236149  0.04387903  0.40225811  1
  Se  Se2  1  0.92976133  0.60510047  0.42030802  1
  Se  Se3  1  0.07023867  0.39489953  0.57969198  1
  Se  Se4  1  0.92679553  0.77129975  0.98075345  1
  Se  Se5  1  0.07320447  0.22870025  0.01924655  1
  Se  Se6  1  0.90956233  0.41712923  0.82024772  1
  Se  Se7  1  0.09043767  0.58287077  0.17975228  1
  Se  Se8  1  0.75685719  0.96866603  0.80661081  1
  Se  Se9  1  0.24314281  0.03133397  0.19338919  1
  Se  Se10  1  0.74359677  0.61529958  0.62090780  1
  Se  Se11  1  0.25640323  0.38470042  0.37909220  1
  Se  Se12  1  0.55085881  0.61987238  0.80240766  1
  Se  Se13  1  0.44914119  0.38012762  0.19759234  1
  Se  Se14  1  0.29066038  0.75776058  0.60350577  1
  Se  Se15  1  0.70933962  0.24223942  0.39649423  1
  Se  Se16  1  0.27605254  0.57193722  0.99595684  1
  Se  Se17  1  0.72394746  0.42806278  0.00404316  1
  Se  Se18  1  0.09632162  0.74061963  0.77780003  1
  Se  Se19  1  0.90367838  0.25938037  0.22219997  1
loop_
_geom_bond_atom_site_label_1
_geom_bond_atom_site_label_2
_geom_bond_distance
_geom_bond_site_symmetry_2
Se0 Zr1 2.668238 1_655
Se0 Tl5 2.969261 1_665
Se0 Tl4 3.045531 1_555
Se0 Tl8 3.094421 1_555
Se0 Tl1 3.115551 1_665
Se1 Zr0 2.668238 1_455
Se1 Tl4 2.969261 1_445
Se1 Tl5 3.045531 1_555
Se1 Tl9 3.094421 1_555
Se1 Tl0 3.115551 1_445
Se2 Zr1 2.725107 1_655
Se2 Zr0 2.753745 1_555
Se2 Tl3 3.046375 1_655
Se2 Tl12 3.222206 1_555
Se2 Tl4 3.277374 1_555
Se2 Tl6 3.341738 1_555
Se3 Zr0 2.725107 1_455
Se3 Zr1 2.753745 1_555
Se3 Tl2 3.046375 1_455
Se3 Tl13 3.222206 1_555
Se3 Tl5 3.277374 1_555
Se3 Tl7 3.341738 1_555
Se4 Zr4 2.728195 1_656
Se4 Zr2 2.749095 1_555
Se4 Tl18 3.017721 1_655
Se4 Tl17 3.166615 1_556
Se4 Tl19 3.424313 1_566
Se5 Zr4 2.728195 1_555
Se5 Zr3 2.749095 1_555
Se5 Tl19 3.017721 1_455
Se5 Tl16 3.166615 1_555
Se5 Tl18 3.424313 1_544
Se6 Zr4 2.736838 1_656
Se6 Zr2 2.812797 1_555
Se6 Tl10 2.994679 1_555
Se6 Tl7 3.123668 1_655
Se7 Zr4 2.736838 1_555
Se7 Zr3 2.812797 1_555
Se7 Tl11 2.994679 1_555
Se7 Tl6 3.123668 1_455
Se8 Zr2 2.655509 1_555
Se8 Tl1 2.986671 1_665
Se8 Tl8 3.018559 1_555
Se8 Tl19 3.177834 1_566
Se8 Tl14 3.229449 1_555
Se9 Zr3 2.655509 1_555
Se9 Tl0 2.986671 1_445
Se9 Tl9 3.018559 1_555
Se9 Tl18 3.177834 1_544
Se9 Tl15 3.229449 1_555
Se10 Zr2 2.734434 1_555
Se10 Zr1 2.794271 1_655
Se10 Tl8 3.015464 1_555
Se10 Tl2 3.133783 1_555
Se10 Tl13 3.328186 1_555
Se10 Tl12 3.391584 1_555
Se11 Zr3 2.734434 1_555
Se11 Zr0 2.794271 1_455
Se11 Tl9 3.015464 1_555
Se11 Tl3 3.133783 1_555
Se11 Tl12 3.328186 1_555
Se11 Tl13 3.391584 1_555
Se12 Zr2 2.666602 1_555
Se12 Tl14 2.957059 1_555
Se12 Tl17 3.011601 1_556
Se12 Tl10 3.109480 1_555
Se12 Tl13 3.193693 1_555
Se13 Zr3 2.666602 1_555
Se13 Tl15 2.957059 1_555
Se13 Tl16 3.011601 1_555
Se13 Tl11 3.109480 1_555
Se13 Tl12 3.193693 1_555
Se14 Zr1 2.655271 1_555
Se14 Tl13 2.992872 1_555
Se14 Tl14 3.064406 1_555
Se14 Tl3 3.130996 1_555
Se14 Tl5 3.215099 1_565
Se14 Tl8 3.386964 1_555
Se15 Zr0 2.655271 1_555
Se15 Tl12 2.992872 1_555
Se15 Tl15 3.064406 1_555
Se15 Tl2 3.130996 1_555
Se15 Tl4 3.215099 1_545
Se15 Tl9 3.386964 1_555
Se16 Zr4 2.716228 1_556
Se16 Tl16 2.982276 1_556
Se16 Tl11 3.013562 1_556
Se16 Tl7 3.088906 1_555
Se16 Tl18 3.136287 1_555
Se17 Zr4 2.716228 1_655
Se17 Tl17 2.982276 1_555
Se17 Tl10 3.013562 1_554
Se17 Tl6 3.088906 1_555
Se17 Tl19 3.136287 1_555
Se18 Zr1 2.721153 1_555
Se18 Zr2 2.760232 1_455
Se18 Tl7 3.035789 1_555
Se18 Tl1 3.210673 1_565
Se18 Tl14 3.295794 1_555
Se18 Tl18 3.332026 1_555
Se19 Zr0 2.721153 1_555
Se19 Zr3 2.760232 1_655
Se19 Tl6 3.035789 1_555
Se19 Tl0 3.210673 1_545
Se19 Tl15 3.295794 1_555
Se19 Tl19 3.332026 1_555
