# generated using pymatgen
data_YbIn2Pt
_symmetry_space_group_name_H-M   'P 1'
_cell_length_a   5.60079008
_cell_length_b   5.60079008
_cell_length_c   8.08818200
_cell_angle_alpha   90.00000000
_cell_angle_beta   90.00000000
_cell_angle_gamma   133.69383006
_symmetry_Int_Tables_number   1
_chemical_formula_structural   YbIn2Pt
_chemical_formula_sum   'Yb2 In4 Pt2'
_cell_volume   183.44790429
_cell_formula_units_Z   2
loop_
 _symmetry_equiv_pos_site_id
 _symmetry_equiv_pos_as_xyz
  1  'x, y, z'
loop_
 _atom_site_type_symbol
 _atom_site_label
 _atom_site_symmetry_multiplicity
 _atom_site_fract_x
 _atom_site_fract_y
 _atom_site_fract_z
 _atom_site_occupancy
  Yb  Yb0  1  0.56835500  0.43164500  0.25000000  1
  Yb  Yb1  1  0.43164500  0.56835500  0.75000000  1
  In  In0  1  0.85738600  0.14261400  0.44889600  1
  In  In1  1  0.14261400  0.85738600  0.55110400  1
  In  In2  1  0.85738600  0.14261400  0.05110400  1
  In  In3  1  0.14261400  0.85738600  0.94889600  1
  Pt  Pt0  1  0.28102000  0.71898000  0.25000000  1
  Pt  Pt1  1  0.71898000  0.28102000  0.75000000  1
loop_
_geom_bond_atom_site_label_1
_geom_bond_atom_site_label_2
_geom_bond_distance
_geom_bond_site_symmetry_2
In0 Pt1 2.821902 1_555
In0 Pt0 2.838328 1_655
In0 Pt0 2.838328 1_545
In0 Yb1 3.371291 1_545
In0 Yb1 3.371291 1_655
In0 Yb0 3.383713 1_555
In0 Yb0 3.486942 1_655
In0 Yb0 3.486942 1_545
In1 Pt0 2.821902 1_555
In1 Pt1 2.838328 1_565
In1 Pt1 2.838328 1_455
In1 Yb0 3.371291 1_565
In1 Yb0 3.371291 1_455
In1 Yb1 3.383713 1_555
In1 Yb1 3.486942 1_455
In1 Yb1 3.486942 1_565
In2 Pt1 2.821902 1_554
In2 Pt0 2.838328 1_655
In2 Pt0 2.838328 1_545
In2 Yb1 3.371291 1_544
In2 Yb1 3.371291 1_654
In2 Yb0 3.383713 1_555
In2 Yb0 3.486942 1_655
In2 Yb0 3.486942 1_545
In3 Pt0 2.821902 1_556
In3 Pt1 2.838328 1_565
In3 Pt1 2.838328 1_455
In3 Yb0 3.371291 1_566
In3 Yb0 3.371291 1_456
In3 Yb1 3.383713 1_555
In3 Yb1 3.486942 1_455
In3 Yb1 3.486942 1_565
Pt0 Yb0 2.959372 1_555
Pt0 Yb0 3.105969 1_455
Pt0 Yb0 3.105969 1_565
Pt1 Yb1 2.959372 1_555
Pt1 Yb1 3.105969 1_545
Pt1 Yb1 3.105969 1_655
