# generated using pymatgen
data_Ca2Co2O5
_symmetry_space_group_name_H-M   'P 1'
_cell_length_a   5.20331300
_cell_length_b   5.36828000
_cell_length_c   7.96063514
_cell_angle_alpha   89.94909287
_cell_angle_beta   90.00000000
_cell_angle_gamma   90.00000000
_symmetry_Int_Tables_number   1
_chemical_formula_structural   Ca2Co2O5
_chemical_formula_sum   'Ca4 Co4 O10'
_cell_volume   222.36306880
_cell_formula_units_Z   2
loop_
 _symmetry_equiv_pos_site_id
 _symmetry_equiv_pos_as_xyz
  1  'x, y, z'
loop_
 _atom_site_type_symbol
 _atom_site_label
 _atom_site_symmetry_multiplicity
 _atom_site_fract_x
 _atom_site_fract_y
 _atom_site_fract_z
 _atom_site_occupancy
  Ca  Ca0  1  0.47553400  0.70384000  0.24798900  1
  Ca  Ca1  1  0.97553400  0.29616000  0.75201100  1
  Ca  Ca2  1  0.03110700  0.21019600  0.25069900  1
  Ca  Ca3  1  0.53110700  0.78980400  0.74930100  1
  Co  Co0  1  0.00847900  0.74698100  0.97946000  1
  Co  Co1  1  0.50847900  0.25301900  0.02054000  1
  Co  Co2  1  0.50822800  0.24977700  0.47996600  1
  Co  Co3  1  0.00822800  0.75022300  0.52003400  1
  O  O0  1  0.10114600  0.72739500  0.75685300  1
  O  O1  1  0.60114600  0.27260500  0.24314700  1
  O  O2  1  0.20857000  0.46631500  0.45684800  1
  O  O3  1  0.70857000  0.53368500  0.54315200  1
  O  O4  1  0.26837700  0.96136000  0.05552500  1
  O  O5  1  0.76837700  0.03864000  0.94447500  1
  O  O6  1  0.20618600  0.46816000  0.05081700  1
  O  O7  1  0.70618600  0.53184000  0.94918300  1
  O  O8  1  0.76816800  0.03726100  0.55638400  1
  O  O9  1  0.26816800  0.96273900  0.44361600  1
loop_
_geom_bond_atom_site_label_1
_geom_bond_atom_site_label_2
_geom_bond_distance
_geom_bond_site_symmetry_2
Ca0 O4 2.327378 1_555
Ca0 O9 2.350523 1_555
Ca0 O1 2.405829 1_555
Ca0 O6 2.456043 1_555
Ca0 O2 2.513188 1_555
Ca0 O3 2.796762 1_555
Ca0 O7 2.820458 1_554
Ca1 O5 2.327378 1_555
Ca1 O8 2.350523 1_555
Ca1 O0 2.405829 1_655
Ca1 O7 2.456043 1_555
Ca1 O3 2.513188 1_555
Ca1 O2 2.796762 1_655
Ca1 O6 2.820458 1_656
Ca2 O1 2.262959 1_455
Ca2 O6 2.296868 1_555
Ca2 O2 2.332424 1_555
Ca2 O9 2.375100 1_545
Ca2 O4 2.392975 1_545
Ca3 O0 2.262959 1_555
Ca3 O7 2.296868 1_555
Ca3 O3 2.332424 1_555
Ca3 O8 2.375100 1_565
Ca3 O5 2.392975 1_565
Co0 O0 1.839618 1_555
Co0 O4 1.876472 1_556
Co0 O6 1.902586 1_556
Co0 O7 1.966357 1_455
Co0 O5 2.022138 1_465
Co1 O1 1.839618 1_555
Co1 O5 1.876472 1_554
Co1 O7 1.902586 1_554
Co1 O6 1.966357 1_555
Co1 O4 2.022138 1_545
Co2 O8 1.870764 1_555
Co2 O3 1.914140 1_555
Co2 O1 1.949988 1_555
Co2 O2 1.953432 1_555
Co2 O9 2.004787 1_545
Co3 O9 1.870764 1_555
Co3 O2 1.914140 1_555
Co3 O0 1.949988 1_555
Co3 O3 1.953432 1_455
Co3 O8 2.004787 1_465
