# generated using pymatgen
data_Ba2LuBiO6
_symmetry_space_group_name_H-M   'P 1'
_cell_length_a   6.09049933
_cell_length_b   6.09049933
_cell_length_c   6.09049864
_cell_angle_alpha   60.03920328
_cell_angle_beta   60.03920328
_cell_angle_gamma   60.03920386
_symmetry_Int_Tables_number   1
_chemical_formula_structural   Ba2LuBiO6
_chemical_formula_sum   'Ba2 Lu1 Bi1 O6'
_cell_volume   159.89298268
_cell_formula_units_Z   1
loop_
 _symmetry_equiv_pos_site_id
 _symmetry_equiv_pos_as_xyz
  1  'x, y, z'
loop_
 _atom_site_type_symbol
 _atom_site_label
 _atom_site_symmetry_multiplicity
 _atom_site_fract_x
 _atom_site_fract_y
 _atom_site_fract_z
 _atom_site_occupancy
  Ba  Ba0  1  0.74923600  0.74923600  0.74923600  1
  Ba  Ba1  1  0.25076400  0.25076400  0.25076400  1
  Lu  Lu0  1  0.00000000  0.00000000  0.00000000  1
  Bi  Bi0  1  0.50000000  0.50000000  0.50000000  1
  O  O0  1  0.23553700  0.74641000  0.26985600  1
  O  O1  1  0.74641000  0.26985600  0.23553700  1
  O  O2  1  0.26985600  0.23553700  0.74641000  1
  O  O3  1  0.76446300  0.25359000  0.73014400  1
  O  O4  1  0.25359000  0.73014400  0.76446300  1
  O  O5  1  0.73014400  0.76446300  0.25359000  1
loop_
_geom_bond_atom_site_label_1
_geom_bond_atom_site_label_2
_geom_bond_distance
_geom_bond_site_symmetry_2
Ba0 O1 2.942636 1_556
Ba0 O0 2.942636 1_655
Ba0 O2 2.942636 1_565
Ba0 O5 3.032337 1_555
Ba0 O3 3.032337 1_555
Ba0 O4 3.032337 1_555
Ba0 O5 3.061843 1_556
Ba0 O4 3.061843 1_655
Ba0 O3 3.061843 1_565
Ba0 O0 3.151769 1_556
Ba0 O1 3.151769 1_565
Ba0 O2 3.151769 1_655
Ba1 O4 2.942636 1_554
Ba1 O3 2.942636 1_455
Ba1 O5 2.942636 1_545
Ba1 O2 3.032337 1_555
Ba1 O0 3.032337 1_555
Ba1 O1 3.032337 1_555
Ba1 O2 3.061843 1_554
Ba1 O1 3.061843 1_455
Ba1 O0 3.061843 1_545
Ba1 O3 3.151769 1_554
Ba1 O4 3.151769 1_545
Ba1 O5 3.151769 1_455
Lu0 O3 2.179708 1_454
Lu0 O0 2.179708 1_545
Lu0 O4 2.179708 1_544
Lu0 O1 2.179708 1_455
Lu0 O5 2.179708 1_445
Lu0 O2 2.179708 1_554
Bi0 O4 2.133289 1_555
Bi0 O1 2.133289 1_555
Bi0 O0 2.133289 1_555
Bi0 O3 2.133289 1_555
Bi0 O2 2.133289 1_555
Bi0 O5 2.133289 1_555
