# generated using pymatgen
data_LiCr2Cu2(WO4)4
_symmetry_space_group_name_H-M   'P 1'
_cell_length_a   5.11622434
_cell_length_b   7.51614541
_cell_length_c   7.40749616
_cell_angle_alpha   101.63081240
_cell_angle_beta   90.24354033
_cell_angle_gamma   91.02547445
_symmetry_Int_Tables_number   1
_chemical_formula_structural   LiCr2Cu2(WO4)4
_chemical_formula_sum   'Li1 Cr2 Cu2 W4 O16'
_cell_volume   278.94747655
_cell_formula_units_Z   1
loop_
 _symmetry_equiv_pos_site_id
 _symmetry_equiv_pos_as_xyz
  1  'x, y, z'
loop_
 _atom_site_type_symbol
 _atom_site_label
 _atom_site_symmetry_multiplicity
 _atom_site_fract_x
 _atom_site_fract_y
 _atom_site_fract_z
 _atom_site_occupancy
  Li  Li0  1  0.74511400  0.08687400  0.45631800  1
  Cr  Cr0  1  0.75027200  0.81606600  0.17189300  1
  Cr  Cr1  1  0.25534900  0.17519900  0.81300200  1
  Cu  Cu0  1  0.74745400  0.36497400  0.69429400  1
  Cu  Cu1  1  0.24775600  0.66365500  0.33566900  1
  W  W0  1  0.75300900  0.33079500  0.16393000  1
  W  W1  1  0.24496300  0.66548300  0.83691000  1
  W  W2  1  0.74809400  0.83168400  0.67146000  1
  W  W3  1  0.24631300  0.16580400  0.32396900  1
  O  O0  1  0.40980000  0.69922500  0.06523900  1
  O  O1  1  0.58417900  0.29464200  0.93478700  1
  O  O2  1  0.07283200  0.93861000  0.29609500  1
  O  O3  1  0.91858800  0.05679300  0.69483400  1
  O  O4  1  0.91948500  0.79975000  0.92279200  1
  O  O5  1  0.07422000  0.19952900  0.07003700  1
  O  O6  1  0.59653000  0.07054100  0.19968100  1
  O  O7  1  0.42289200  0.92110500  0.80275900  1
  O  O8  1  0.88571100  0.56593200  0.18131200  1
  O  O9  1  0.11516100  0.42936200  0.81066900  1
  O  O10  1  0.61880000  0.81638600  0.43225900  1
  O  O11  1  0.41294600  0.17931900  0.56791600  1
  O  O12  1  0.55862000  0.59607900  0.69500000  1
  O  O13  1  0.43578000  0.40336500  0.30113600  1
  O  O14  1  0.92447200  0.30694500  0.41016800  1
  O  O15  1  0.06165800  0.69331200  0.59429900  1
loop_
_geom_bond_atom_site_label_1
_geom_bond_atom_site_label_2
_geom_bond_distance
_geom_bond_site_symmetry_2
Li0 O14 1.967551 1_555
Li0 O11 1.968981 1_555
Li0 O6 2.024149 1_555
Li0 O3 2.028634 1_555
Li0 O10 2.094875 1_545
Li0 O2 2.238796 1_645
Cr0 O2 2.002313 1_655
Cr0 O0 2.020769 1_555
Cr0 O4 2.023731 1_554
Cr0 O8 2.029459 1_555
Cr0 O10 2.044846 1_555
Cr0 O6 2.053258 1_565
Cr1 O11 1.995305 1_555
Cr1 O1 2.014107 1_555
Cr1 O3 2.035916 1_455
Cr1 O9 2.055801 1_555
Cr1 O7 2.094902 1_545
Cr1 O5 2.097152 1_556
Cu0 O12 2.001772 1_555
Cu0 O9 2.074109 1_655
Cu0 O1 2.127764 1_555
Cu0 O14 2.258379 1_555
Cu0 O11 2.264216 1_555
Cu0 Li0 2.447439 1_555
Cu0 O3 2.491650 1_555
Cu1 O15 2.115993 1_555
Cu1 O13 2.164696 1_555
Cu1 O8 2.207385 1_455
Cu1 O0 2.234676 1_555
Cu1 O10 2.238906 1_555
Cu1 O2 2.337938 1_555
O0 W1 1.855657 1_554
O1 W0 1.869275 1_556
O2 W3 1.883723 1_565
O3 W2 1.865833 1_545
O4 W1 2.001596 1_655
O4 W2 2.113393 1_555
O5 W0 1.987193 1_455
O5 W3 2.136304 1_555
O6 W3 2.089245 1_555
O6 W0 2.166112 1_555
O7 W2 1.989002 1_555
O7 W1 2.172413 1_555
O8 W0 1.861590 1_555
O9 W1 1.856356 1_555
O10 W2 1.869632 1_555
O11 W3 1.977954 1_555
O12 W1 1.943071 1_555
O12 W2 2.042181 1_555
O13 W0 1.945982 1_555
O13 W3 2.053687 1_555
O14 W3 2.010659 1_655
O14 W0 2.062173 1_555
O15 W2 1.951880 1_455
O15 W1 2.072980 1_555
