# generated using pymatgen
data_Li7Mn4CoO12
_symmetry_space_group_name_H-M   'P 1'
_cell_length_a   2.96935921
_cell_length_b   10.16347873
_cell_length_c   15.15075916
_cell_angle_alpha   72.81940858
_cell_angle_beta   87.65771681
_cell_angle_gamma   91.38247352
_symmetry_Int_Tables_number   1
_chemical_formula_structural   Li7Mn4CoO12
_chemical_formula_sum   'Li14 Mn8 Co2 O24'
_cell_volume   436.15362531
_cell_formula_units_Z   2
loop_
 _symmetry_equiv_pos_site_id
 _symmetry_equiv_pos_as_xyz
  1  'x, y, z'
loop_
 _atom_site_type_symbol
 _atom_site_label
 _atom_site_symmetry_multiplicity
 _atom_site_fract_x
 _atom_site_fract_y
 _atom_site_fract_z
 _atom_site_occupancy
  Li  Li0  1  0.49999800  0.00000000  0.16666600  1
  Li  Li1  1  0.99999700  0.00000100  0.66666700  1
  Li  Li2  1  0.49732200  0.25432300  0.33188300  1
  Li  Li3  1  0.00008400  0.25417400  0.83197100  1
  Li  Li4  1  0.50267300  0.74567500  0.00145100  1
  Li  Li5  1  0.99991100  0.74582800  0.50136400  1
  Li  Li6  1  0.00832600  0.75737600  0.17048800  1
  Li  Li7  1  0.50686100  0.75656200  0.67038200  1
  Li  Li8  1  0.99167100  0.24262500  0.16284800  1
  Li  Li9  1  0.49314000  0.24344300  0.66295100  1
  Li  Li10  1  0.50834100  0.24290600  0.00551600  1
  Li  Li11  1  0.00756500  0.24223900  0.50535900  1
  Li  Li12  1  0.49166900  0.75709000  0.32782100  1
  Li  Li13  1  0.99244400  0.75775900  0.82797800  1
  Mn  Mn0  1  0.99322400  0.00396300  0.00371300  1
  Mn  Mn1  1  0.49228600  0.00389000  0.50381700  1
  Mn  Mn2  1  0.00677700  0.99603200  0.32961300  1
  Mn  Mn3  1  0.50771500  0.99611000  0.82952300  1
  Mn  Mn4  1  0.99089700  0.50131500  0.33338000  1
  Mn  Mn5  1  0.50068900  0.50172500  0.83098800  1
  Mn  Mn6  1  0.00912700  0.49868700  0.99994900  1
  Mn  Mn7  1  0.49930900  0.49826500  0.50234400  1
  Co  Co0  1  0.99999700  0.50000100  0.66666600  1
  Co  Co1  1  0.50000000  0.50000000  0.16666600  1
  O  O0  1  0.01143100  0.10570600  0.42349000  1
  O  O1  1  0.51235700  0.10576900  0.92338200  1
  O  O2  1  0.48764200  0.89423400  0.40995200  1
  O  O3  1  0.98857000  0.89429700  0.90984200  1
  O  O4  1  0.45610900  0.61926900  0.24606400  1
  O  O5  1  0.96196300  0.61836200  0.74440100  1
  O  O6  1  0.54388700  0.38072700  0.08727000  1
  O  O7  1  0.03803200  0.38164200  0.58893200  1
  O  O8  1  0.99241800  0.11796300  0.07592700  1
  O  O9  1  0.49173000  0.11807800  0.57596300  1
  O  O10  1  0.00758300  0.88203900  0.25740900  1
  O  O11  1  0.50827000  0.88192300  0.75737100  1
  O  O12  1  0.52710800  0.10798000  0.26428100  1
  O  O13  1  0.02952600  0.10806200  0.76434000  1
  O  O14  1  0.47289200  0.89202000  0.06905200  1
  O  O15  1  0.97047300  0.89194300  0.56899200  1
  O  O16  1  0.00945800  0.61528600  0.08243800  1
  O  O17  1  0.46177100  0.61537100  0.58365800  1
  O  O18  1  0.99054000  0.38471100  0.25089500  1
  O  O19  1  0.53822200  0.38463400  0.74967400  1
  O  O20  1  0.95827400  0.61671700  0.41672700  1
  O  O21  1  0.46600100  0.61694000  0.91505500  1
  O  O22  1  0.53399400  0.38305800  0.41828000  1
  O  O23  1  0.04172400  0.38328200  0.91660500  1
loop_
_geom_bond_atom_site_label_1
_geom_bond_atom_site_label_2
_geom_bond_distance
_geom_bond_site_symmetry_2
Li0 O8 2.059783 1_555
Li0 O10 2.059794 1_545
Li0 O14 2.088640 1_545
Li0 O12 2.088654 1_555
Li0 O8 2.209485 1_455
Li0 O10 2.209518 1_645
Li1 O11 2.058591 1_545
Li1 O9 2.058599 1_655
Li1 O13 2.090424 1_655
Li1 O15 2.090427 1_545
Li1 O9 2.211131 1_555
Li1 O11 2.211148 1_645
Li2 O12 2.041564 1_555
Li2 O18 2.050724 1_555
Li2 O22 2.110391 1_555
Li2 O0 2.186807 1_555
Li2 O18 2.193798 1_455
Li2 O0 2.363092 1_655
Li3 O13 2.039777 1_555
Li3 O23 2.092960 1_555
Li3 O19 2.108176 1_455
Li3 O19 2.150427 1_555
Li3 O1 2.187932 1_455
Li3 O1 2.357058 1_555
Li4 O14 2.041570 1_555
Li4 O16 2.050717 1_555
Li4 O21 2.110379 1_554
Li4 O3 2.186855 1_554
Li4 O16 2.193803 1_655
Li4 O3 2.363117 1_454
Li5 O15 2.039771 1_555
Li5 O20 2.093020 1_555
Li5 O17 2.108138 1_655
Li5 O17 2.150401 1_555
Li5 O2 2.187950 1_655
Li5 O2 2.357061 1_555
Li6 O4 2.077076 1_555
Li6 O10 2.079716 1_555
Li6 O14 2.151888 1_555
Li6 O4 2.180830 1_455
Li6 O16 2.236767 1_555
Li6 O14 2.413411 1_455
Li7 O5 2.083649 1_555
Li7 O11 2.086280 1_555
Li7 O15 2.152933 1_555
Li7 O5 2.158680 1_455
Li7 O17 2.218681 1_555
Li7 O15 2.418011 1_455
Li8 O6 2.077062 1_555
Li8 O8 2.079708 1_555
Li8 O12 2.151865 1_555
Li8 O6 2.180814 1_655
Li8 O18 2.236698 1_555
Li8 O12 2.413398 1_655
Li9 O7 2.083656 1_555
Li9 O9 2.086300 1_555
Li9 O13 2.152929 1_555
Li9 O7 2.158662 1_655
Li9 O19 2.218668 1_555
Li9 O13 2.417999 1_655
Li10 O8 2.017354 1_455
Li10 O8 2.056645 1_555
Li10 O1 2.124978 1_554
Li10 O6 2.129782 1_555
Li10 O23 2.209618 1_554
Li10 O23 2.222550 1_654
Li11 O9 2.014480 1_455
Li11 O9 2.054100 1_555
Li11 O0 2.116762 1_555
Li11 O7 2.163749 1_555
Li11 O22 2.200089 1_555
Li11 O22 2.213507 1_455
Li12 O10 2.017367 1_655
Li12 O10 2.056700 1_555
Li12 O2 2.125002 1_555
Li12 O4 2.129820 1_555
Li12 O20 2.209546 1_555
Li12 O20 2.222531 1_455
Li13 O11 2.014489 1_655
Li13 O11 2.054151 1_555
Li13 O3 2.116746 1_555
Li13 O5 2.163748 1_555
Li13 O21 2.200105 1_555
Li13 O21 2.213466 1_655
Mn0 O8 1.813369 1_555
Mn0 O14 1.945862 1_545
Mn0 O14 1.957325 1_645
Mn0 O1 1.988418 1_654
Mn0 O1 2.014959 1_554
Mn0 O3 2.050010 1_544
Mn1 O9 1.814121 1_555
Mn1 O15 1.948468 1_445
Mn1 O15 1.953089 1_545
Mn1 O0 1.988451 1_655
Mn1 O0 2.014939 1_555
Mn1 O2 2.049855 1_545
Mn2 O10 1.813191 1_555
Mn2 O12 1.945849 1_565
Mn2 O12 1.957312 1_465
Mn2 O2 1.988448 1_455
Mn2 O2 2.014985 1_555
Mn2 O0 2.050148 1_565
Mn3 O11 1.814185 1_555
Mn3 O13 1.948521 1_665
Mn3 O13 1.953161 1_565
Mn3 O3 1.988390 1_455
Mn3 O3 2.014870 1_555
Mn3 O1 2.049800 1_565
Mn4 O22 1.950676 1_555
Mn4 O18 1.959909 1_555
Mn4 O20 1.962166 1_555
Mn4 O4 1.982239 1_655
Mn4 O4 2.244009 1_555
Mn4 O22 2.247114 1_655
Mn5 O19 1.951333 1_555
Mn5 O23 1.960333 1_555
Mn5 O5 1.964267 1_555
Mn5 O21 1.969842 1_555
Mn5 O5 2.242654 1_455
Mn5 O23 2.248074 1_655
Mn6 O21 1.950562 1_555
Mn6 O16 1.959917 1_556
Mn6 O23 1.962150 1_555
Mn6 O6 1.982352 1_456
Mn6 O6 2.244005 1_556
Mn6 O21 2.247123 1_455
Mn7 O17 1.951455 1_555
Mn7 O20 1.960369 1_555
Mn7 O7 1.964224 1_555
Mn7 O22 1.969740 1_555
Mn7 O7 2.242601 1_655
Mn7 O20 2.248109 1_455
Co0 O7 1.918205 1_655
Co0 O5 1.918234 1_555
Co0 O19 1.935693 1_555
Co0 O17 1.935703 1_655
Co0 O19 2.212287 1_655
Co0 O17 2.212301 1_555
Co1 O4 1.946718 1_555
Co1 O6 1.946726 1_555
Co1 O16 2.040384 1_655
Co1 O18 2.040406 1_455
Co1 O16 2.115182 1_555
Co1 O18 2.115196 1_555
