# generated using pymatgen
data_CsEr(WO4)2
_symmetry_space_group_name_H-M   'P 1'
_cell_length_a   6.08677544
_cell_length_b   6.08677544
_cell_length_c   8.27821700
_cell_angle_alpha   90.00000000
_cell_angle_beta   90.00000000
_cell_angle_gamma   119.99999395
_symmetry_Int_Tables_number   1
_chemical_formula_structural   CsEr(WO4)2
_chemical_formula_sum   'Cs1 Er1 W2 O8'
_cell_volume   265.60853371
_cell_formula_units_Z   1
loop_
 _symmetry_equiv_pos_site_id
 _symmetry_equiv_pos_as_xyz
  1  'x, y, z'
loop_
 _atom_site_type_symbol
 _atom_site_label
 _atom_site_symmetry_multiplicity
 _atom_site_fract_x
 _atom_site_fract_y
 _atom_site_fract_z
 _atom_site_occupancy
  Cs  Cs0  1  0.00000000  0.00000000  0.00000000  1
  Er  Er0  1  0.00000000  0.00000000  0.50000000  1
  W  W0  1  0.33333300  0.66666700  0.26606000  1
  W  W1  1  0.66666700  0.33333300  0.73394000  1
  O  O0  1  0.16874700  0.83125300  0.33629400  1
  O  O1  1  0.83125300  0.16874700  0.66370600  1
  O  O2  1  0.16874700  0.33749400  0.33629400  1
  O  O3  1  0.83125300  0.66250600  0.66370600  1
  O  O4  1  0.66250600  0.83125300  0.33629400  1
  O  O5  1  0.33749400  0.16874700  0.66370600  1
  O  O6  1  0.33333300  0.66666700  0.05102600  1
  O  O7  1  0.66666700  0.33333300  0.94897400  1
loop_
_geom_bond_atom_site_label_1
_geom_bond_atom_site_label_2
_geom_bond_distance
_geom_bond_site_symmetry_2
Cs0 O1 3.303807 1_454
Cs0 O0 3.303807 1_545
Cs0 O2 3.303807 1_555
Cs0 O3 3.303807 1_444
Cs0 O4 3.303807 1_445
Cs0 O5 3.303807 1_554
Cs0 O6 3.539493 1_545
Cs0 O7 3.539493 1_454
Cs0 O6 3.539499 1_445
Cs0 O6 3.539499 1_555
Cs0 O7 3.539499 1_554
Cs0 O7 3.539499 1_444
Er0 O1 2.236405 1_455
Er0 O0 2.236405 1_545
Er0 O4 2.236405 1_445
Er0 O3 2.236405 1_445
Er0 O2 2.236405 1_555
Er0 O5 2.236405 1_555
O0 W0 1.829983 1_555
O1 W1 1.829983 1_555
O2 W0 1.829988 1_555
O3 W1 1.829988 1_555
O4 W0 1.829988 1_555
O5 W1 1.829988 1_555
O6 W0 1.780098 1_555
O7 W1 1.780098 1_555
