# generated using pymatgen
data_Mg(Cu2O3)2
_symmetry_space_group_name_H-M   'P 1'
_cell_length_a   5.11087204
_cell_length_b   5.11087204
_cell_length_c   14.60466900
_cell_angle_alpha   90.00000000
_cell_angle_beta   90.00000000
_cell_angle_gamma   146.21876276
_symmetry_Int_Tables_number   1
_chemical_formula_structural   Mg(Cu2O3)2
_chemical_formula_sum   'Mg2 Cu8 O12'
_cell_volume   212.11669489
_cell_formula_units_Z   2
loop_
 _symmetry_equiv_pos_site_id
 _symmetry_equiv_pos_as_xyz
  1  'x, y, z'
loop_
 _atom_site_type_symbol
 _atom_site_label
 _atom_site_symmetry_multiplicity
 _atom_site_fract_x
 _atom_site_fract_y
 _atom_site_fract_z
 _atom_site_occupancy
  Mg  Mg0  1  0.34098600  0.65901400  0.75000000  1
  Mg  Mg1  1  0.65901400  0.34098600  0.25000000  1
  Cu  Cu0  1  0.13772900  0.86227100  0.04424800  1
  Cu  Cu1  1  0.59411300  0.40588700  0.63589900  1
  Cu  Cu2  1  0.86227100  0.13772900  0.95575200  1
  Cu  Cu3  1  0.40588700  0.59411300  0.36410100  1
  Cu  Cu4  1  0.13772900  0.86227100  0.45575200  1
  Cu  Cu5  1  0.86227100  0.13772900  0.54424800  1
  Cu  Cu6  1  0.40588700  0.59411300  0.13589900  1
  Cu  Cu7  1  0.59411300  0.40588700  0.86410100  1
  O  O0  1  0.50000000  0.50000000  0.50000000  1
  O  O1  1  0.50000000  0.50000000  0.00000000  1
  O  O2  1  0.95118000  0.04882000  0.84070200  1
  O  O3  1  0.04882000  0.95118000  0.15929800  1
  O  O4  1  0.04882000  0.95118000  0.34070200  1
  O  O5  1  0.95118000  0.04882000  0.65929800  1
  O  O6  1  0.21681800  0.78318200  0.92105300  1
  O  O7  1  0.78318200  0.21681800  0.07894700  1
  O  O8  1  0.78318200  0.21681800  0.42105300  1
  O  O9  1  0.21681800  0.78318200  0.57894700  1
  O  O10  1  0.69682800  0.30317200  0.75000000  1
  O  O11  1  0.30317200  0.69682800  0.25000000  1
loop_
_geom_bond_atom_site_label_1
_geom_bond_atom_site_label_2
_geom_bond_distance
_geom_bond_site_symmetry_2
Mg0 O10 2.047704 1_455
Mg0 O10 2.047704 1_565
Mg0 O2 2.263057 1_565
Mg0 O5 2.263057 1_565
Mg0 O5 2.263057 1_455
Mg0 O2 2.263057 1_455
Mg1 O11 2.047704 1_545
Mg1 O11 2.047704 1_655
Mg1 O4 2.263057 1_655
Mg1 O3 2.263057 1_655
Mg1 O3 2.263057 1_545
Mg1 O4 2.263057 1_545
Cu0 O3 1.891957 1_555
Cu0 O6 1.958465 1_554
Cu0 O1 2.106498 1_455
Cu0 O1 2.106498 1_565
Cu0 O7 2.117967 1_565
Cu0 O7 2.117967 1_455
Cu1 O10 1.945817 1_555
Cu1 O5 2.067905 1_455
Cu1 O5 2.067905 1_565
Cu1 O9 2.082606 1_545
Cu1 O9 2.082606 1_655
Cu1 O0 2.187828 1_555
Cu2 O2 1.891957 1_555
Cu2 O7 1.958465 1_556
Cu2 O1 2.106498 1_656
Cu2 O1 2.106498 1_546
Cu2 O6 2.117967 1_545
Cu2 O6 2.117967 1_655
Cu3 O11 1.945817 1_555
Cu3 O4 2.067905 1_545
Cu3 O4 2.067905 1_655
Cu3 O8 2.082606 1_565
Cu3 O8 2.082606 1_455
Cu3 O0 2.187828 1_555
Cu4 O4 1.891957 1_555
Cu4 O9 1.958465 1_555
Cu4 O0 2.106498 1_565
Cu4 O0 2.106498 1_455
Cu4 O8 2.117967 1_455
Cu4 O8 2.117967 1_565
Cu5 O5 1.891957 1_555
Cu5 O8 1.958465 1_555
Cu5 O0 2.106498 1_655
Cu5 O0 2.106498 1_545
Cu5 O9 2.117967 1_545
Cu5 O9 2.117967 1_655
Cu6 O11 1.945817 1_555
Cu6 O3 2.067905 1_545
Cu6 O3 2.067905 1_655
Cu6 O7 2.082606 1_565
Cu6 O7 2.082606 1_455
Cu6 O1 2.187828 1_555
Cu7 O10 1.945817 1_555
Cu7 O2 2.067905 1_455
Cu7 O2 2.067905 1_565
Cu7 O6 2.082606 1_545
Cu7 O6 2.082606 1_655
Cu7 O1 2.187828 1_556
