# generated using pymatgen
data_Ba6MgSc2C2(O3F7)2
_symmetry_space_group_name_H-M   'P 1'
_cell_length_a   6.13890189
_cell_length_b   8.95776530
_cell_length_c   8.95776581
_cell_angle_alpha   96.61009864
_cell_angle_beta   89.89642956
_cell_angle_gamma   90.10357048
_symmetry_Int_Tables_number   1
_chemical_formula_structural   Ba6MgSc2C2(O3F7)2
_chemical_formula_sum   'Ba6 Mg1 Sc2 C2 O6 F14'
_cell_volume   489.31912352
_cell_formula_units_Z   1
loop_
 _symmetry_equiv_pos_site_id
 _symmetry_equiv_pos_as_xyz
  1  'x, y, z'
loop_
 _atom_site_type_symbol
 _atom_site_label
 _atom_site_symmetry_multiplicity
 _atom_site_fract_x
 _atom_site_fract_y
 _atom_site_fract_z
 _atom_site_occupancy
  Ba  Ba0  1  0.30929661  0.87956836  0.60245664  1
  Ba  Ba1  1  0.69070339  0.60245664  0.87956836  1
  Ba  Ba2  1  0.26246471  0.40264726  0.18069454  1
  Ba  Ba3  1  0.76228364  0.10699362  0.91380524  1
  Ba  Ba4  1  0.23771636  0.91380524  0.10699362  1
  Ba  Ba5  1  0.73753529  0.18069454  0.40264726  1
  Mg  Mg0  1  1.00000000  0.59046062  0.59046062  1
  Sc  Sc0  1  0.26716270  0.28771595  0.71639768  1
  Sc  Sc1  1  0.73283730  0.71639768  0.28771595  1
  C  C0  1  0.37600996  0.49296076  0.52623088  1
  C  C1  1  0.62399003  0.52623088  0.49296076  1
  O  O0  1  0.24327856  0.58412598  0.44632968  1
  O  O1  1  0.68472890  0.68155443  0.52095877  1
  O  O2  1  0.31527110  0.52095877  0.68155443  1
  O  O3  1  0.33464589  0.33858475  0.48657775  1
  O  O4  1  0.75672144  0.44632968  0.58412598  1
  O  O5  1  0.66535411  0.48657775  0.33858475  1
  F  F0  1  0.50000000  0.15114595  0.15114595  1
  F  F1  1  0.19593593  0.09353574  0.86420359  1
  F  F2  1  0.80406407  0.86420359  0.09353574  1
  F  F3  1  0.50000000  0.85967975  0.85967975  1
  F  F4  1  0.52748224  0.13249910  0.66077535  1
  F  F5  1  0.47251776  0.66077535  0.13249910  1
  F  F6  1  0.01224505  0.37159146  0.85348467  1
  F  F7  1  0.47812175  0.34634901  0.90319611  1
  F  F8  1  0.05342077  0.13770429  0.60063748  1
  F  F9  1  0.98775495  0.85348467  0.37159146  1
  F  F10  1  0.00000000  0.75443154  0.75443154  1
  F  F11  1  0.00000000  0.16984605  0.16984605  1
  F  F12  1  0.94657923  0.60063748  0.13770429  1
  F  F13  1  0.52187825  0.90319611  0.34634901  1
loop_
_geom_bond_atom_site_label_1
_geom_bond_atom_site_label_2
_geom_bond_distance
_geom_bond_site_symmetry_2
Ba0 F3 2.610823 1_555
Ba0 F4 2.630473 1_565
Ba0 F10 2.655054 1_555
Ba0 F13 2.666640 1_555
Ba0 F8 2.799356 1_565
Ba0 F9 2.851236 1_455
Ba0 O0 2.875799 1_555
Ba0 F1 2.935930 1_565
Ba0 O1 2.949848 1_555
Ba1 F3 2.610823 1_555
Ba1 F5 2.630473 1_556
Ba1 F10 2.655054 1_655
Ba1 F7 2.666640 1_555
Ba1 F12 2.799356 1_556
Ba1 F6 2.851236 1_655
Ba1 O4 2.875799 1_555
Ba1 F2 2.935930 1_556
Ba1 O2 2.949848 1_555
Ba2 F11 2.626047 1_555
Ba2 F0 2.673038 1_555
Ba2 F12 2.688236 1_455
Ba2 F5 2.722630 1_555
Ba2 O0 2.725384 1_555
Ba2 F7 2.808553 1_554
Ba2 O3 2.898402 1_555
Ba2 O5 2.905845 1_555
Ba2 F6 3.294706 1_554
Ba3 F0 2.658073 1_556
Ba3 F1 2.698804 1_655
Ba3 F4 2.720206 1_555
Ba3 F11 2.723752 1_656
Ba3 F3 2.734621 1_545
Ba3 F7 2.776736 1_555
Ba3 F2 2.863122 1_546
Ba3 F6 2.922875 1_655
Ba4 F0 2.658073 1_565
Ba4 F2 2.698804 1_455
Ba4 F5 2.720206 1_555
Ba4 F11 2.723751 1_565
Ba4 F3 2.734621 1_554
Ba4 F13 2.776736 1_555
Ba4 F1 2.863122 1_564
Ba4 F9 2.922875 1_455
Ba5 F11 2.626047 1_655
Ba5 F0 2.673038 1_555
Ba5 F8 2.688236 1_655
Ba5 F4 2.722631 1_555
Ba5 O4 2.725384 1_555
Ba5 F13 2.808553 1_545
Ba5 O5 2.898402 1_555
Ba5 O3 2.905845 1_555
Ba5 F9 3.294706 1_545
Mg0 O4 1.969019 1_555
Mg0 O0 1.969019 1_655
Mg0 O1 2.219533 1_555
Mg0 O2 2.219533 1_655
C0 O0 1.407904 1_555
C0 O3 1.410296 1_555
C0 O2 1.433847 1_555
C1 O4 1.407904 1_555
C1 O5 1.410296 1_555
C1 O1 1.433847 1_555
O1 Sc1 2.167378 1_555
O2 Sc0 2.167378 1_555
O3 Sc0 2.197634 1_555
O5 Sc1 2.197634 1_555
F1 Sc0 2.344173 1_555
F2 Sc1 2.344173 1_555
F4 Sc0 2.140319 1_555
F5 Sc1 2.140319 1_555
F6 Sc0 2.075168 1_555
F7 Sc0 2.134477 1_555
F8 Sc0 2.068923 1_555
F9 Sc1 2.075168 1_555
F10 Mg0 1.954005 1_455
F12 Sc1 2.068923 1_555
F13 Sc1 2.134477 1_555
