# generated using pymatgen
data_CaGe2Pt
_symmetry_space_group_name_H-M   'P 1'
_cell_length_a   9.45565920
_cell_length_b   9.45565920
_cell_length_c   9.45565920
_cell_angle_alpha   152.93010867
_cell_angle_beta   124.13883358
_cell_angle_gamma   63.15026491
_symmetry_Int_Tables_number   1
_chemical_formula_structural   CaGe2Pt
_chemical_formula_sum   'Ca4 Ge8 Pt4'
_cell_volume   315.83267857
_cell_formula_units_Z   4
loop_
 _symmetry_equiv_pos_site_id
 _symmetry_equiv_pos_as_xyz
  1  'x, y, z'
loop_
 _atom_site_type_symbol
 _atom_site_label
 _atom_site_symmetry_multiplicity
 _atom_site_fract_x
 _atom_site_fract_y
 _atom_site_fract_z
 _atom_site_occupancy
  Ca  Ca0  1  0.25329720  0.00000000  0.25329720  1
  Ca  Ca1  1  0.74670280  0.00000000  0.74670280  1
  Ca  Ca2  1  0.29693448  0.79693448  0.50000000  1
  Ca  Ca3  1  0.70306552  0.20306552  0.50000000  1
  Ge  Ge0  1  0.92286241  0.42286241  0.50000000  1
  Ge  Ge1  1  0.07713759  0.57713759  0.50000000  1
  Ge  Ge2  1  0.42519198  0.42519198  -0.00000000  1
  Ge  Ge3  1  0.57480802  0.57480802  0.00000000  1
  Ge  Ge4  1  0.04817080  0.19734662  0.85082418  1
  Ge  Ge5  1  0.95182920  0.80265338  0.14917582  1
  Ge  Ge6  1  0.34652244  0.19734662  0.14917582  1
  Ge  Ge7  1  0.65347756  0.80265338  0.85082418  1
  Pt  Pt0  1  0.10225075  0.35182001  0.75043175  1
  Pt  Pt1  1  0.89774925  0.64817999  0.24956825  1
  Pt  Pt2  1  0.60138826  0.35182001  0.24956825  1
  Pt  Pt3  1  0.39861174  0.64817999  0.75043175  1
loop_
_geom_bond_atom_site_label_1
_geom_bond_atom_site_label_2
_geom_bond_distance
_geom_bond_site_symmetry_2
Ca0 Pt3 3.255411 1_555
Ca0 Pt3 3.255411 1_544
Ca0 Pt0 3.255415 1_544
Ca0 Pt0 3.255418 1_555
Ca0 Ge6 3.310635 1_555
Ca0 Ge5 3.310635 1_445
Ca0 Ge2 3.335507 1_545
Ca0 Ge3 3.335507 1_545
Ca0 Ge2 3.335507 1_556
Ca0 Ge3 3.335507 1_556
Ca0 Ge0 3.387655 1_455
Ca0 Ge1 3.387655 1_544
Ca0 Ge1 3.387655 1_555
Ca0 Ge0 3.387655 1_444
Ca1 Pt2 3.255411 1_545
Ca1 Pt2 3.255411 1_556
Ca1 Pt1 3.255415 1_556
Ca1 Pt1 3.255418 1_545
Ca1 Ge4 3.310635 1_655
Ca1 Ge7 3.310635 1_545
Ca1 Ge2 3.335507 1_545
Ca1 Ge3 3.335507 1_545
Ca1 Ge2 3.335507 1_556
Ca1 Ge3 3.335507 1_556
Ca1 Ge1 3.387655 1_656
Ca1 Ge1 3.387655 1_645
Ca1 Ge0 3.387655 1_556
Ca1 Ge0 3.387655 1_545
Ca2 Ge2 3.027779 1_555
Ca2 Ge2 3.027779 1_566
Ca2 Ge6 3.036103 1_566
Ca2 Ge4 3.036103 1_554
Ca2 Ge4 3.036103 1_565
Ca2 Ge6 3.036103 1_555
Ca2 Ge7 3.108998 1_555
Ca2 Ge5 3.108998 1_455
Ca2 Pt0 3.250610 1_554
Ca2 Pt2 3.250611 1_555
Ca2 Pt2 3.250611 1_566
Ca2 Pt0 3.250613 1_565
Ca2 Pt1 3.265736 1_455
Ca2 Pt3 3.265745 1_555
Ca3 Ge3 3.027779 1_556
Ca3 Ge3 3.027779 1_545
Ca3 Ge5 3.036103 1_545
Ca3 Ge5 3.036103 1_556
Ca3 Ge7 3.036103 1_544
Ca3 Ge7 3.036103 1_555
Ca3 Ge6 3.108998 1_555
Ca3 Ge4 3.108998 1_655
Ca3 Pt1 3.250610 1_556
Ca3 Pt3 3.250611 1_544
Ca3 Pt3 3.250611 1_555
Ca3 Pt1 3.250613 1_545
Ca3 Pt0 3.265736 1_655
Ca3 Pt2 3.265745 1_555
Ge0 Pt0 2.496234 1_655
Ge0 Pt2 2.496234 1_555
Ge1 Pt1 2.496234 1_455
Ge1 Pt3 2.496234 1_555
Ge2 Ge3 2.410551 1_555
Ge2 Pt2 2.506918 1_555
Ge2 Pt0 2.506925 1_554
Ge3 Pt3 2.506918 1_554
Ge3 Pt1 2.506925 1_555
Ge4 Pt1 2.515805 1_456
Ge4 Pt1 2.515809 1_445
Ge4 Ge6 2.642826 1_556
Ge4 Pt0 2.642910 1_555
Ge5 Pt0 2.515805 1_654
Ge5 Pt0 2.515809 1_665
Ge5 Ge7 2.642826 1_554
Ge5 Pt1 2.642910 1_555
Ge6 Pt3 2.515812 1_544
Ge6 Pt3 2.515812 1_555
Ge6 Pt2 2.642916 1_555
Ge7 Pt2 2.515812 1_555
Ge7 Pt2 2.515812 1_566
Ge7 Pt3 2.642916 1_555
