# generated using pymatgen
data_Eu(SnPd)2
_symmetry_space_group_name_H-M   'P 1'
_cell_length_a   4.63301751
_cell_length_b   4.63301751
_cell_length_c   10.63608137
_cell_angle_alpha   90.00000000
_cell_angle_beta   90.00000000
_cell_angle_gamma   90.00000000
_symmetry_Int_Tables_number   1
_chemical_formula_structural   Eu(SnPd)2
_chemical_formula_sum   'Eu2 Sn4 Pd4'
_cell_volume   228.30190447
_cell_formula_units_Z   2
loop_
 _symmetry_equiv_pos_site_id
 _symmetry_equiv_pos_as_xyz
  1  'x, y, z'
loop_
 _atom_site_type_symbol
 _atom_site_label
 _atom_site_symmetry_multiplicity
 _atom_site_fract_x
 _atom_site_fract_y
 _atom_site_fract_z
 _atom_site_occupancy
  Eu  Eu0  1  0.00000000  0.50000000  0.24569439  1
  Eu  Eu1  1  0.50000000  -0.00000000  0.75432279  1
  Sn  Sn0  1  0.00000000  0.00000000  0.50004985  1
  Sn  Sn1  1  0.50000000  0.50000000  0.50004985  1
  Sn  Sn2  1  -0.00000000  0.50000000  0.87638177  1
  Sn  Sn3  1  0.50000000  -0.00000000  0.12356288  1
  Pd  Pd0  1  0.00000000  0.50000000  0.62991245  1
  Pd  Pd1  1  0.50000000  0.00000000  0.37016630  1
  Pd  Pd2  1  -0.00000000  0.00000000  -0.00006964  1
  Pd  Pd3  1  0.50000000  0.50000000  -0.00006964  1
loop_
_geom_bond_atom_site_label_1
_geom_bond_atom_site_label_2
_geom_bond_distance
_geom_bond_site_symmetry_2
Eu0 Pd2 3.492711 1_565
Eu0 Pd3 3.492711 1_455
Eu0 Pd2 3.492711 1_555
Eu0 Pd3 3.492711 1_555
Eu0 Sn3 3.524178 1_455
Eu0 Sn3 3.524178 1_555
Eu0 Sn3 3.524178 1_565
Eu0 Sn3 3.524178 1_465
Eu0 Pd1 3.533429 1_455
Eu0 Pd1 3.533429 1_465
Eu0 Pd1 3.533429 1_565
Eu0 Pd1 3.533429 1_555
Eu0 Sn0 3.561616 1_555
Eu0 Sn0 3.561616 1_565
Eu0 Sn1 3.561616 1_455
Eu0 Sn1 3.561616 1_555
Eu1 Pd2 3.491466 1_556
Eu1 Pd3 3.491466 1_556
Eu1 Pd2 3.491466 1_656
Eu1 Pd3 3.491466 1_546
Eu1 Sn2 3.523893 1_545
Eu1 Sn2 3.523893 1_655
Eu1 Sn2 3.523893 1_645
Eu1 Sn2 3.523893 1_555
Eu1 Pd0 3.533184 1_655
Eu1 Pd0 3.533184 1_545
Eu1 Pd0 3.533184 1_645
Eu1 Pd0 3.533184 1_555
Eu1 Sn0 3.560949 1_555
Eu1 Sn0 3.560949 1_655
Eu1 Sn1 3.560949 1_555
Eu1 Sn1 3.560949 1_545
Pd0 Sn2 2.621468 1_555
Pd0 Sn0 2.697037 1_565
Pd0 Sn1 2.697037 1_455
Pd0 Sn0 2.697037 1_555
Pd0 Sn1 2.697037 1_555
Pd1 Sn3 2.622894 1_555
Pd1 Sn0 2.697151 1_555
Pd1 Sn0 2.697151 1_655
Pd1 Sn1 2.697151 1_545
Pd1 Sn1 2.697151 1_555
Pd2 Sn2 2.663269 1_544
Pd2 Sn2 2.663269 1_554
Pd2 Sn3 2.663709 1_555
Pd2 Sn3 2.663709 1_455
Pd3 Sn2 2.663269 1_554
Pd3 Sn2 2.663269 1_654
Pd3 Sn3 2.663709 1_555
Pd3 Sn3 2.663709 1_565
