# generated using pymatgen
data_Li2TiCr3O8
_symmetry_space_group_name_H-M   'P 1'
_cell_length_a   8.41922671
_cell_length_b   8.41922671
_cell_length_c   8.38342300
_cell_angle_alpha   90.00000000
_cell_angle_beta   90.00000000
_cell_angle_gamma   90.51574431
_symmetry_Int_Tables_number   1
_chemical_formula_structural   Li2TiCr3O8
_chemical_formula_sum   'Li8 Ti4 Cr12 O32'
_cell_volume   594.22126974
_cell_formula_units_Z   4
loop_
 _symmetry_equiv_pos_site_id
 _symmetry_equiv_pos_as_xyz
  1  'x, y, z'
loop_
 _atom_site_type_symbol
 _atom_site_label
 _atom_site_symmetry_multiplicity
 _atom_site_fract_x
 _atom_site_fract_y
 _atom_site_fract_z
 _atom_site_occupancy
  Li  Li0  1  0.75336400  0.50152300  0.61978400  1
  Li  Li1  1  0.49847700  0.24663600  0.88021600  1
  Li  Li2  1  0.00422200  0.74984300  0.87491800  1
  Li  Li3  1  0.74984300  0.00422200  0.12508200  1
  Li  Li4  1  0.24663600  0.49847700  0.11978400  1
  Li  Li5  1  0.50152300  0.75336400  0.38021600  1
  Li  Li6  1  0.99577800  0.25015700  0.37491800  1
  Li  Li7  1  0.25015700  0.99577800  0.62508200  1
  Ti  Ti0  1  0.87606500  0.12393500  0.75000000  1
  Ti  Ti1  1  0.62269200  0.62269200  0.00000000  1
  Ti  Ti2  1  0.12393500  0.87606500  0.25000000  1
  Ti  Ti3  1  0.37730800  0.37730800  0.50000000  1
  Cr  Cr0  1  0.62457000  0.87596600  0.74962200  1
  Cr  Cr1  1  0.37614100  0.62385900  0.75000000  1
  Cr  Cr2  1  0.12403400  0.37543000  0.75037800  1
  Cr  Cr3  1  0.37902200  0.87682100  0.00160600  1
  Cr  Cr4  1  0.12651700  0.12651700  0.00000000  1
  Cr  Cr5  1  0.87682100  0.37902200  0.99839400  1
  Cr  Cr6  1  0.37543000  0.12403400  0.24962200  1
  Cr  Cr7  1  0.62385900  0.37614100  0.25000000  1
  Cr  Cr8  1  0.87596600  0.62457000  0.25037800  1
  Cr  Cr9  1  0.62097800  0.12317900  0.50160600  1
  Cr  Cr10  1  0.87348300  0.87348300  0.50000000  1
  Cr  Cr11  1  0.12317900  0.62097800  0.49839400  1
  O  O0  1  0.63776100  0.11090700  0.74224700  1
  O  O1  1  0.86119000  0.88998300  0.74303400  1
  O  O2  1  0.13669600  0.60785000  0.73773700  1
  O  O3  1  0.61979300  0.63933700  0.76221200  1
  O  O4  1  0.36066300  0.38020700  0.73778800  1
  O  O5  1  0.39215000  0.86330400  0.76226300  1
  O  O6  1  0.11001700  0.13881000  0.75696600  1
  O  O7  1  0.88909300  0.36223900  0.75775300  1
  O  O8  1  0.62151500  0.86183600  0.98107700  1
  O  O9  1  0.39348600  0.63672800  0.99070100  1
  O  O10  1  0.11535200  0.36442600  0.98084300  1
  O  O11  1  0.13868900  0.88737400  0.01536700  1
  O  O12  1  0.88737400  0.13868900  0.98463300  1
  O  O13  1  0.36442600  0.11535200  0.01915700  1
  O  O14  1  0.63672800  0.39348600  0.00929900  1
  O  O15  1  0.86183600  0.62151500  0.01892300  1
  O  O16  1  0.36223900  0.88909300  0.24224700  1
  O  O17  1  0.13881000  0.11001700  0.24303400  1
  O  O18  1  0.86330400  0.39215000  0.23773700  1
  O  O19  1  0.38020700  0.36066300  0.26221200  1
  O  O20  1  0.63933700  0.61979300  0.23778800  1
  O  O21  1  0.60785000  0.13669600  0.26226300  1
  O  O22  1  0.88998300  0.86119000  0.25696600  1
  O  O23  1  0.11090700  0.63776100  0.25775300  1
  O  O24  1  0.37848500  0.13816400  0.48107700  1
  O  O25  1  0.60651400  0.36327200  0.49070100  1
  O  O26  1  0.88464800  0.63557400  0.48084300  1
  O  O27  1  0.86131100  0.11262600  0.51536700  1
  O  O28  1  0.11262600  0.86131100  0.48463300  1
  O  O29  1  0.63557400  0.88464800  0.51915700  1
  O  O30  1  0.36327200  0.60651400  0.50929900  1
  O  O31  1  0.13816400  0.37848500  0.51892300  1
loop_
_geom_bond_atom_site_label_1
_geom_bond_atom_site_label_2
_geom_bond_distance
_geom_bond_site_symmetry_2
Li0 O26 1.956979 1_555
Li0 O25 2.007130 1_555
Li0 O7 2.010708 1_555
Li0 O3 2.014974 1_555
Li1 O13 1.956979 1_556
Li1 O14 2.007130 1_556
Li1 O0 2.010708 1_555
Li1 O4 2.014974 1_555
Li2 O11 1.996293 1_556
Li2 O2 2.004924 1_555
Li2 O15 2.009610 1_456
Li2 O1 2.022438 1_455
Li3 O12 1.996293 1_554
Li3 O21 2.004924 1_555
Li3 O8 2.009610 1_544
Li3 O22 2.022438 1_545
Li4 O10 1.956979 1_554
Li4 O9 2.007130 1_554
Li4 O23 2.010708 1_555
Li4 O19 2.014974 1_555
Li5 O29 1.956979 1_555
Li5 O30 2.007130 1_555
Li5 O16 2.010708 1_555
Li5 O20 2.014974 1_555
Li6 O27 1.996293 1_555
Li6 O18 2.004924 1_555
Li6 O31 2.009610 1_655
Li6 O17 2.022438 1_655
Li7 O28 1.996293 1_555
Li7 O5 2.004924 1_555
Li7 O24 2.009610 1_565
Li7 O6 2.022438 1_565
Cr0 O29 1.935655 1_555
Cr0 O8 1.944185 1_555
Cr0 O5 1.961605 1_555
Cr0 O0 1.981103 1_565
Cr0 O3 1.995071 1_555
Cr0 O1 1.995354 1_555
Cr1 O5 2.021847 1_555
Cr1 O2 2.021847 1_555
Cr1 O9 2.026004 1_555
Cr1 O30 2.026004 1_555
Cr1 O3 2.056875 1_555
Cr1 O4 2.056875 1_555
Cr2 O10 1.935655 1_555
Cr2 O31 1.944185 1_555
Cr2 O2 1.961605 1_555
Cr2 O7 1.981103 1_455
Cr2 O4 1.995071 1_555
Cr2 O6 1.995354 1_555
Cr3 O5 2.012832 1_554
Cr3 O13 2.018477 1_565
Cr3 O16 2.025040 1_555
Cr3 O9 2.028217 1_554
Cr3 O11 2.029448 1_555
Cr3 O8 2.053855 1_554
Cr4 O13 2.012478 1_555
Cr4 O10 2.012478 1_554
Cr4 O11 2.021037 1_545
Cr4 O12 2.021037 1_454
Cr4 O17 2.044871 1_555
Cr4 O6 2.044871 1_554
Cr5 O18 2.012832 1_556
Cr5 O10 2.018477 1_655
Cr5 O7 2.025040 1_555
Cr5 O14 2.028217 1_556
Cr5 O12 2.029448 1_555
Cr5 O15 2.053855 1_556
Cr6 O13 1.935655 1_555
Cr6 O24 1.944185 1_555
Cr6 O21 1.961605 1_555
Cr6 O16 1.981103 1_545
Cr6 O19 1.995071 1_555
Cr6 O17 1.995354 1_555
Cr7 O21 2.021847 1_555
Cr7 O18 2.021847 1_555
Cr7 O25 2.026004 1_555
Cr7 O14 2.026004 1_555
Cr7 O20 2.056875 1_555
Cr7 O19 2.056875 1_555
Cr8 O26 1.935655 1_555
Cr8 O15 1.944185 1_555
Cr8 O18 1.961605 1_555
Cr8 O23 1.981103 1_655
Cr8 O20 1.995071 1_555
Cr8 O22 1.995354 1_555
Cr9 O21 2.012832 1_555
Cr9 O29 2.018477 1_545
Cr9 O0 2.025040 1_555
Cr9 O25 2.028217 1_555
Cr9 O27 2.029448 1_555
Cr9 O24 2.053855 1_555
Cr10 O29 2.012478 1_555
Cr10 O26 2.012478 1_555
Cr10 O27 2.021037 1_565
Cr10 O28 2.021037 1_655
Cr10 O1 2.044871 1_555
Cr10 O22 2.044871 1_555
Cr11 O2 2.012832 1_555
Cr11 O26 2.018477 1_455
Cr11 O23 2.025040 1_555
Cr11 O30 2.028217 1_555
Cr11 O28 2.029448 1_555
Cr11 O31 2.053855 1_555
O0 Ti0 2.009397 1_555
O1 Ti0 1.973411 1_565
O3 Ti1 1.998561 1_556
O4 Ti3 1.998561 1_555
O6 Ti0 1.973411 1_455
O7 Ti0 2.009397 1_555
O8 Ti1 2.019761 1_556
O9 Ti1 1.935984 1_556
O11 Ti2 1.973190 1_555
O12 Ti0 1.973190 1_555
O14 Ti1 1.935984 1_555
O15 Ti1 2.019761 1_555
O16 Ti2 2.009397 1_555
O17 Ti2 1.973411 1_545
O19 Ti3 1.998561 1_555
O20 Ti1 1.998561 1_555
O22 Ti2 1.973411 1_655
O23 Ti2 2.009397 1_555
O24 Ti3 2.019761 1_555
O25 Ti3 1.935984 1_555
O27 Ti0 1.973190 1_555
O28 Ti2 1.973190 1_555
O30 Ti3 1.935984 1_555
O31 Ti3 2.019761 1_555
