# generated using pymatgen
data_Li9Mn2Co5O16
_symmetry_space_group_name_H-M   'P 1'
_cell_length_a   5.03179038
_cell_length_b   5.89971778
_cell_length_c   10.30174824
_cell_angle_alpha   73.36071442
_cell_angle_beta   99.42316849
_cell_angle_gamma   89.99998984
_symmetry_Int_Tables_number   1
_chemical_formula_structural   Li9Mn2Co5O16
_chemical_formula_sum   'Li9 Mn2 Co5 O16'
_cell_volume   288.70374106
_cell_formula_units_Z   1
loop_
 _symmetry_equiv_pos_site_id
 _symmetry_equiv_pos_as_xyz
  1  'x, y, z'
loop_
 _atom_site_type_symbol
 _atom_site_label
 _atom_site_symmetry_multiplicity
 _atom_site_fract_x
 _atom_site_fract_y
 _atom_site_fract_z
 _atom_site_occupancy
  Li  Li0  1  0.24382800  0.61961800  0.24134900  1
  Li  Li1  1  0.75536400  0.37688300  0.75895600  1
  Li  Li2  1  0.24382800  0.13903300  0.24134900  1
  Li  Li3  1  0.76110100  0.38164500  0.23671100  1
  Li  Li4  1  0.25294700  0.12173700  0.75652600  1
  Li  Li5  1  0.74352500  0.87854500  0.24291000  1
  Li  Li6  1  0.75536400  0.86416100  0.75895600  1
  Li  Li7  1  0.24606100  0.61907700  0.76184600  1
  Li  Li8  1  0.99886500  0.49983300  0.00033400  1
  Mn  Mn0  1  0.99953900  0.00031700  0.99936700  1
  Mn  Mn1  1  0.49878900  0.74895300  0.50209500  1
  Co  Co0  1  0.49974200  0.25203100  0.49593800  1
  Co  Co1  1  0.99738000  0.49449000  0.50023900  1
  Co  Co2  1  0.49883800  0.25910200  0.00036100  1
  Co  Co3  1  0.99738000  0.00527200  0.50023900  1
  Co  Co4  1  0.49883800  0.74053700  0.00036100  1
  O  O0  1  0.86302100  0.71296700  0.11159200  1
  O  O1  1  0.38078800  0.45285000  0.61226100  1
  O  O2  1  0.86302100  0.17544000  0.11159200  1
  O  O3  1  0.39583600  0.43977100  0.12045700  1
  O  O4  1  0.88981400  0.19316400  0.61367100  1
  O  O5  1  0.35389900  0.94385600  0.11228800  1
  O  O6  1  0.38078800  0.93488900  0.61226100  1
  O  O7  1  0.85832300  0.69304900  0.61390100  1
  O  O8  1  0.61965900  0.57165200  0.38750000  1
  O  O9  1  0.13748900  0.28831500  0.88839800  1
  O  O10  1  0.61965900  0.04084800  0.38750000  1
  O  O11  1  0.11880200  0.30954400  0.38091300  1
  O  O12  1  0.64619700  0.05754700  0.88490700  1
  O  O13  1  0.13648000  0.80337700  0.39324700  1
  O  O14  1  0.13748900  0.82328700  0.88839800  1
  O  O15  1  0.60734400  0.55821100  0.88357800  1
loop_
_geom_bond_atom_site_label_1
_geom_bond_atom_site_label_2
_geom_bond_distance
_geom_bond_site_symmetry_2
Li0 O3 2.080999 1_555
Li0 O0 2.121654 1_455
Li0 O5 2.125628 1_555
Li0 O11 2.144607 1_555
Li0 O8 2.178732 1_555
Li0 O13 2.272457 1_555
Li1 O12 2.090011 1_555
Li1 O15 2.108798 1_555
Li1 O9 2.123592 1_655
Li1 O7 2.153581 1_555
Li1 O1 2.171750 1_555
Li1 O4 2.265654 1_555
Li2 O3 2.080995 1_555
Li2 O2 2.121655 1_455
Li2 O5 2.125628 1_545
Li2 O11 2.144610 1_555
Li2 O10 2.178732 1_555
Li2 O13 2.272453 1_545
Li3 O3 1.993473 1_555
Li3 O11 2.095207 1_655
Li3 O0 2.125750 1_555
Li3 O2 2.125758 1_555
Li3 O8 2.352747 1_555
Li3 O10 2.352752 1_555
Li4 O9 2.042530 1_555
Li4 O14 2.042530 1_545
Li4 O4 2.108641 1_455
Li4 O12 2.159685 1_555
Li4 O6 2.255879 1_545
Li4 O1 2.255879 1_555
Li5 O2 2.041820 1_565
Li5 O0 2.041824 1_555
Li5 O5 2.154537 1_555
Li5 O10 2.155195 1_565
Li5 O8 2.155195 1_555
Li5 O13 2.260256 1_655
Li6 O12 2.090015 1_565
Li6 O15 2.108798 1_555
Li6 O14 2.123592 1_655
Li6 O7 2.153584 1_555
Li6 O6 2.171750 1_555
Li6 O4 2.265650 1_565
Li7 O15 2.000490 1_555
Li7 O14 2.140640 1_555
Li7 O9 2.140640 1_555
Li7 O7 2.228268 1_455
Li7 O1 2.236854 1_555
Li7 O6 2.236854 1_555
Li8 O15 2.105535 1_554
Li8 O0 2.108061 1_555
Li8 O2 2.108066 1_555
Li8 O9 2.112107 1_654
Li8 O14 2.112107 1_654
Li8 O3 2.141563 1_655
Mn0 O5 1.934527 1_646
Mn0 O12 1.936741 1_555
Mn0 O2 1.954491 1_556
Mn0 O0 1.954500 1_546
Mn0 O9 1.955273 1_655
Mn0 O14 1.955277 1_645
Mn1 O6 1.943584 1_555
Mn1 O1 1.943589 1_555
Mn1 O10 1.949359 1_565
Mn1 O8 1.949363 1_555
Mn1 O7 1.951510 1_555
Mn1 O13 1.951523 1_555
Co0 O10 2.045023 1_555
Co0 O8 2.045024 1_555
Co0 O11 2.054120 1_555
Co0 O1 2.060558 1_555
Co0 O6 2.060558 1_545
Co0 O4 2.103170 1_555
Co1 O4 1.958627 1_555
Co1 O11 2.022132 1_655
Co1 O13 2.031748 1_655
Co1 O8 2.035397 1_555
Co1 O1 2.054911 1_655
Co1 O7 2.070442 1_555
Co2 O15 1.964370 1_554
Co2 O9 1.966081 1_554
Co2 O3 1.974995 1_555
Co2 O2 1.975650 1_555
Co2 O5 2.089905 1_545
Co2 O12 2.115928 1_554
Co3 O4 1.958618 1_555
Co3 O11 2.022132 1_655
Co3 O13 2.031748 1_645
Co3 O10 2.035397 1_555
Co3 O6 2.054911 1_645
Co3 O7 2.070450 1_545
Co4 O15 1.964370 1_554
Co4 O14 1.966081 1_554
Co4 O3 1.974999 1_555
Co4 O0 1.975650 1_555
Co4 O5 2.089905 1_555
Co4 O12 2.115933 1_564
