# generated using pymatgen
data_Na4CO4
_symmetry_space_group_name_H-M   'P 1'
_cell_length_a   5.30110453
_cell_length_b   5.30110453
_cell_length_c   5.46060595
_cell_angle_alpha   67.06518432
_cell_angle_beta   67.06518432
_cell_angle_gamma   60.13954741
_symmetry_Int_Tables_number   1
_chemical_formula_structural   Na4CO4
_chemical_formula_sum   'Na4 C1 O4'
_cell_volume   118.82523931
_cell_formula_units_Z   1
loop_
 _symmetry_equiv_pos_site_id
 _symmetry_equiv_pos_as_xyz
  1  'x, y, z'
loop_
 _atom_site_type_symbol
 _atom_site_label
 _atom_site_symmetry_multiplicity
 _atom_site_fract_x
 _atom_site_fract_y
 _atom_site_fract_z
 _atom_site_occupancy
  Na  Na0  1  0.74686900  0.93502100  0.53303000  1
  Na  Na1  1  0.06497900  0.25313100  0.46697000  1
  Na  Na2  1  0.48846300  0.77662300  0.11309600  1
  Na  Na3  1  0.22337700  0.51153700  0.88690400  1
  C  C0  1  0.77515800  0.22484200  0.00000000  1
  O  O0  1  0.84333100  0.99043200  0.88855400  1
  O  O1  1  0.00956800  0.15666900  0.11144600  1
  O  O2  1  0.72979200  0.49907600  0.78713200  1
  O  O3  1  0.50092400  0.27020800  0.21286800  1
loop_
_geom_bond_atom_site_label_1
_geom_bond_atom_site_label_2
_geom_bond_distance
_geom_bond_site_symmetry_2
Na0 O2 2.210308 1_555
Na0 O3 2.227578 1_565
Na0 O0 2.341885 1_555
Na0 O1 2.375340 1_665
Na1 O3 2.210308 1_555
Na1 O2 2.227578 1_455
Na1 O1 2.341885 1_555
Na1 O0 2.375340 1_445
Na2 O2 2.315528 1_554
Na2 O1 2.326910 1_565
Na2 O0 2.359943 1_554
Na2 O3 2.493915 1_555
Na3 O3 2.315528 1_556
Na3 O0 2.326910 1_455
Na3 O1 2.359943 1_556
Na3 O2 2.493915 1_555
C0 O0 1.419814 1_544
C0 O1 1.419814 1_655
C0 O2 1.440520 1_554
C0 O3 1.440520 1_555
