# generated using pymatgen
data_Li7Fe4(P2O7)4
_symmetry_space_group_name_H-M   'P 1'
_cell_length_a   9.88811300
_cell_length_b   9.89522210
_cell_length_c   11.15011036
_cell_angle_alpha   102.33765101
_cell_angle_beta   90.13890634
_cell_angle_gamma   89.99204420
_symmetry_Int_Tables_number   1
_chemical_formula_structural   Li7Fe4(P2O7)4
_chemical_formula_sum   'Li14 Fe8 P16 O56'
_cell_volume   1065.78431003
_cell_formula_units_Z   2
loop_
 _symmetry_equiv_pos_site_id
 _symmetry_equiv_pos_as_xyz
  1  'x, y, z'
loop_
 _atom_site_type_symbol
 _atom_site_label
 _atom_site_symmetry_multiplicity
 _atom_site_fract_x
 _atom_site_fract_y
 _atom_site_fract_z
 _atom_site_occupancy
  Li  Li0  1  0.27611500  0.88820100  0.55147200  1
  Li  Li1  1  0.59006900  0.81862100  0.44759700  1
  Li  Li2  1  0.89265600  0.91463300  0.97060400  1
  Li  Li3  1  0.09325000  0.65115300  0.04538100  1
  Li  Li4  1  0.59305900  0.84656700  0.95754100  1
  Li  Li5  1  0.39320900  0.58821500  0.02990100  1
  Li  Li6  1  0.06414500  0.65089300  0.53056100  1
  Li  Li7  1  0.93585500  0.34910700  0.46943900  1
  Li  Li8  1  0.60679100  0.41178500  0.97009900  1
  Li  Li9  1  0.40694100  0.15343300  0.04245900  1
  Li  Li10  1  0.90675000  0.34884700  0.95461900  1
  Li  Li11  1  0.10734400  0.08536700  0.02939600  1
  Li  Li12  1  0.40993100  0.18137900  0.55240300  1
  Li  Li13  1  0.72388500  0.11179900  0.44852800  1
  Fe  Fe0  1  0.07287000  0.80064300  0.32803700  1
  Fe  Fe1  1  0.78738000  0.74610000  0.17980000  1
  Fe  Fe2  1  0.28602300  0.75003000  0.81950900  1
  Fe  Fe3  1  0.57854100  0.69911600  0.67058800  1
  Fe  Fe4  1  0.42145900  0.30088400  0.32941200  1
  Fe  Fe5  1  0.71397700  0.24997000  0.18049100  1
  Fe  Fe6  1  0.21262000  0.25390000  0.82020000  1
  Fe  Fe7  1  0.92713000  0.19935700  0.67196300  1
  P  P0  1  0.54411100  0.97725800  0.24206700  1
  P  P1  1  0.29477000  0.88062600  0.10938600  1
  P  P2  1  0.07043500  0.93935200  0.75835300  1
  P  P3  1  0.84876100  0.87571300  0.57647800  1
  P  P4  1  0.35482700  0.62163700  0.42667200  1
  P  P5  1  0.56880500  0.56187900  0.24338500  1
  P  P6  1  0.95178900  0.47589300  0.24080200  1
  P  P7  1  0.79342200  0.61973800  0.88586100  1
  P  P8  1  0.20657800  0.38026200  0.11413900  1
  P  P9  1  0.04821100  0.52410700  0.75919800  1
  P  P10  1  0.43119500  0.43812100  0.75661500  1
  P  P11  1  0.64517300  0.37836300  0.57332800  1
  P  P12  1  0.15123900  0.12428700  0.42352200  1
  P  P13  1  0.92956500  0.06064800  0.24164700  1
  P  P14  1  0.70523000  0.11937400  0.89061400  1
  P  P15  1  0.45588900  0.02274200  0.75793300  1
  O  O0  1  0.58581600  0.97717200  0.37310000  1
  O  O1  1  0.16873200  0.97634500  0.44162800  1
  O  O2  1  0.91085500  0.91535000  0.26901100  1
  O  O3  1  0.39764900  0.90360100  0.22607100  1
  O  O4  1  0.63414500  0.89235200  0.14238200  1
  O  O5  1  0.17090900  0.81463300  0.15550200  1
  O  O6  1  0.36480800  0.77807300  0.00050200  1
  O  O7  1  0.72458900  0.97973700  0.92202500  1
  O  O8  1  0.92261000  0.88451800  0.70788000  1
  O  O9  1  0.06640300  0.93548200  0.89306900  1
  O  O10  1  0.47411000  0.87060400  0.77857700  1
  O  O11  1  0.70819500  0.81275200  0.59363600  1
  O  O12  1  0.17706700  0.83544800  0.69095500  1
  O  O13  1  0.93846900  0.78454200  0.48144400  1
  O  O14  1  0.44428300  0.71718000  0.52417100  1
  O  O15  1  0.67395900  0.66761400  0.30676400  1
  O  O16  1  0.21583400  0.68731200  0.42364400  1
  O  O17  1  0.96850500  0.62202200  0.20967600  1
  O  O18  1  0.42351800  0.62458900  0.29581900  1
  O  O19  1  0.56271900  0.55636200  0.10722200  1
  O  O20  1  0.23028600  0.51808600  0.08041800  1
  O  O21  1  0.85305500  0.72653100  0.99663300  1
  O  O22  1  0.66955800  0.68398600  0.83270300  1
  O  O23  1  0.89895300  0.59770500  0.77515200  1
  O  O24  1  0.41997400  0.58484200  0.72643200  1
  O  O25  1  0.13645900  0.61571800  0.85878800  1
  O  O26  1  0.64831400  0.52990500  0.56446400  1
  O  O27  1  0.91676900  0.47797400  0.37175700  1
  O  O28  1  0.08323100  0.52202600  0.62824300  1
  O  O29  1  0.35168600  0.47009500  0.43553600  1
  O  O30  1  0.86354100  0.38428200  0.14121200  1
  O  O31  1  0.58002600  0.41515800  0.27356800  1
  O  O32  1  0.10104700  0.40229500  0.22484800  1
  O  O33  1  0.33044200  0.31601400  0.16729700  1
  O  O34  1  0.14694500  0.27346900  0.00336700  1
  O  O35  1  0.76971400  0.48191400  0.91958200  1
  O  O36  1  0.43728100  0.44363800  0.89277800  1
  O  O37  1  0.57648200  0.37541100  0.70418100  1
  O  O38  1  0.03149500  0.37797800  0.79032400  1
  O  O39  1  0.78416600  0.31268800  0.57635600  1
  O  O40  1  0.32604100  0.33238600  0.69323600  1
  O  O41  1  0.55571700  0.28282000  0.47582900  1
  O  O42  1  0.06153100  0.21545800  0.51855600  1
  O  O43  1  0.82293300  0.16455200  0.30904500  1
  O  O44  1  0.29180500  0.18724800  0.40636400  1
  O  O45  1  0.52589000  0.12939600  0.22142300  1
  O  O46  1  0.93359700  0.06451800  0.10693100  1
  O  O47  1  0.07739000  0.11548200  0.29212000  1
  O  O48  1  0.27541100  0.02026300  0.07797500  1
  O  O49  1  0.63519200  0.22192700  0.99949800  1
  O  O50  1  0.82909100  0.18536700  0.84449800  1
  O  O51  1  0.36585500  0.10764800  0.85761800  1
  O  O52  1  0.60235100  0.09639900  0.77392900  1
  O  O53  1  0.08914500  0.08465000  0.73098900  1
  O  O54  1  0.83126800  0.02365500  0.55837200  1
  O  O55  1  0.41418400  0.02282800  0.62690000  1
loop_
_geom_bond_atom_site_label_1
_geom_bond_atom_site_label_2
_geom_bond_distance
_geom_bond_site_symmetry_2
Li0 O1 1.959135 1_555
Li0 O55 1.965203 1_565
Li0 O12 2.001244 1_555
Li0 O16 2.263560 1_555
Li0 O14 2.345881 1_555
Li1 O0 1.926114 1_555
Li1 O11 2.012560 1_555
Li1 O14 2.046277 1_555
Li1 O15 2.095224 1_555
Li2 O7 1.901229 1_555
Li2 O46 1.925601 1_566
Li2 O9 1.955789 1_655
Li2 O21 1.983343 1_555
Li3 O5 1.964974 1_555
Li3 O20 1.984756 1_555
Li3 O25 2.080054 1_554
Li3 O17 2.279737 1_455
Li3 O21 2.580556 1_454
Li4 O7 1.952120 1_555
Li4 O22 2.036095 1_555
Li4 O4 2.053041 1_556
Li4 O10 2.369228 1_555
Li4 O6 2.434575 1_556
Li5 O20 1.888360 1_555
Li5 O36 1.908547 1_554
Li5 O19 1.939336 1_555
Li5 O6 1.994585 1_555
Li6 O28 1.854835 1_555
Li6 O13 1.974578 1_455
Li6 O16 1.998306 1_555
Li6 O12 2.524955 1_555
Li7 O27 1.854835 1_555
Li7 O42 1.974578 1_655
Li7 O39 1.998306 1_555
Li7 O43 2.524955 1_555
Li8 O35 1.888360 1_555
Li8 O19 1.908547 1_556
Li8 O36 1.939336 1_555
Li8 O49 1.994585 1_555
Li9 O48 1.952120 1_555
Li9 O33 2.036095 1_555
Li9 O51 2.053041 1_554
Li9 O45 2.369228 1_555
Li9 O49 2.434575 1_554
Li10 O50 1.964974 1_555
Li10 O35 1.984756 1_555
Li10 O30 2.080054 1_556
Li10 O38 2.279737 1_655
Li10 O34 2.580556 1_656
Li11 O48 1.901229 1_555
Li11 O9 1.925601 1_544
Li11 O46 1.955789 1_455
Li11 O34 1.983343 1_555
Li12 O55 1.926114 1_555
Li12 O44 2.012560 1_555
Li12 O41 2.046277 1_555
Li12 O40 2.095224 1_555
Li13 O54 1.959135 1_555
Li13 O0 1.965203 1_545
Li13 O43 2.001244 1_555
Li13 O39 2.263560 1_555
Li13 O41 2.345881 1_555
Fe0 O1 2.139867 1_555
Fe0 O2 2.145133 1_455
Fe0 O5 2.186956 1_555
Fe0 O13 2.201118 1_455
Fe0 O16 2.212591 1_555
Fe0 O17 2.219860 1_455
Fe1 O15 2.083952 1_555
Fe1 O21 2.113701 1_554
Fe1 O2 2.137227 1_555
Fe1 O4 2.195141 1_555
Fe1 O17 2.235468 1_555
Fe2 O25 2.097087 1_555
Fe2 O12 2.107073 1_555
Fe2 O6 2.123609 1_556
Fe2 O24 2.187321 1_555
Fe2 O10 2.308286 1_555
Fe3 O26 1.958743 1_555
Fe3 O11 2.015502 1_555
Fe3 O22 2.051227 1_555
Fe3 O24 2.104961 1_555
Fe3 O10 2.127918 1_555
Fe3 O14 2.138636 1_555
Fe4 O29 1.958743 1_555
Fe4 O44 2.015502 1_555
Fe4 O33 2.051227 1_555
Fe4 O31 2.104961 1_555
Fe4 O45 2.127918 1_555
Fe4 O41 2.138636 1_555
Fe5 O30 2.097087 1_555
Fe5 O43 2.107073 1_555
Fe5 O49 2.123609 1_554
Fe5 O31 2.187321 1_555
Fe5 O45 2.308286 1_555
Fe6 O40 2.083952 1_555
Fe6 O34 2.113701 1_556
Fe6 O53 2.137227 1_555
Fe6 O51 2.195141 1_555
Fe6 O38 2.235468 1_555
Fe7 O54 2.139867 1_555
Fe7 O53 2.145133 1_655
Fe7 O50 2.186956 1_555
Fe7 O42 2.201118 1_655
Fe7 O39 2.212591 1_555
Fe7 O38 2.219860 1_655
O0 P0 1.517329 1_555
O1 P12 1.529638 1_565
O2 P13 1.543462 1_565
O3 P0 1.613661 1_555
O3 P1 1.626813 1_555
O4 P0 1.529509 1_555
O5 P1 1.528926 1_555
O6 P1 1.568679 1_555
O7 P14 1.508284 1_565
O8 P2 1.616621 1_655
O8 P3 1.621035 1_555
O9 P2 1.511366 1_555
O10 P15 1.581013 1_565
O11 P3 1.552135 1_555
O12 P2 1.551429 1_555
O13 P3 1.522951 1_555
O14 P4 1.553846 1_555
O15 P5 1.534921 1_555
O16 P4 1.523578 1_555
O17 P6 1.566342 1_555
O18 P4 1.616780 1_555
O18 P5 1.624659 1_555
O19 P5 1.508565 1_555
O20 P8 1.508617 1_555
O21 P7 1.558457 1_555
O22 P7 1.553343 1_555
O23 P7 1.597307 1_555
O23 P9 1.638857 1_655
O24 P10 1.562684 1_555
O25 P9 1.543251 1_555
O26 P11 1.524048 1_555
O27 P6 1.497335 1_555
O28 P9 1.497335 1_555
O29 P4 1.524048 1_555
O30 P6 1.543251 1_555
O31 P5 1.562684 1_555
O32 P8 1.597307 1_555
O32 P6 1.638857 1_455
O33 P8 1.553343 1_555
O34 P8 1.558457 1_555
O35 P7 1.508617 1_555
O36 P10 1.508565 1_555
O37 P11 1.616780 1_555
O37 P10 1.624659 1_555
O38 P9 1.566342 1_555
O39 P11 1.523578 1_555
O40 P10 1.534921 1_555
O41 P11 1.553846 1_555
O42 P12 1.522951 1_555
O43 P13 1.551429 1_555
O44 P12 1.552135 1_555
O45 P0 1.581013 1_545
O46 P13 1.511366 1_555
O47 P13 1.616621 1_455
O47 P12 1.621035 1_555
O48 P1 1.508284 1_545
O49 P14 1.568679 1_555
O50 P14 1.528926 1_555
O51 P15 1.529509 1_555
O52 P15 1.613661 1_555
O52 P14 1.626813 1_555
O53 P2 1.543462 1_545
O54 P3 1.529638 1_545
O55 P15 1.517329 1_555
