# generated using pymatgen
data_V3Ni2
_symmetry_space_group_name_H-M   'P 1'
_cell_length_a   4.56171610
_cell_length_b   8.83073071
_cell_length_c   8.92384939
_cell_angle_alpha   89.59128435
_cell_angle_beta   90.00000000
_cell_angle_gamma   90.00000000
_symmetry_Int_Tables_number   1
_chemical_formula_structural   V3Ni2
_chemical_formula_sum   'V18 Ni12'
_cell_volume   359.47283513
_cell_formula_units_Z   6
loop_
 _symmetry_equiv_pos_site_id
 _symmetry_equiv_pos_as_xyz
  1  'x, y, z'
loop_
 _atom_site_type_symbol
 _atom_site_label
 _atom_site_symmetry_multiplicity
 _atom_site_fract_x
 _atom_site_fract_y
 _atom_site_fract_z
 _atom_site_occupancy
  V  V0  1  0.24681630  0.31705367  0.67879718  1
  V  V1  1  0.24681630  0.68294633  0.32120282  1
  V  V2  1  0.74605416  0.82334929  0.81771403  1
  V  V3  1  0.74605416  0.17665071  0.18228597  1
  V  V4  1  0.75318370  0.68294633  0.32120282  1
  V  V5  1  0.75318370  0.31705367  0.67879718  1
  V  V6  1  0.25394584  0.17665071  0.18228597  1
  V  V7  1  0.25394584  0.82334929  0.81771403  1
  V  V8  1  0.50000000  0.10796827  0.89642278  1
  V  V9  1  0.50000000  0.89203173  0.10357722  1
  V  V10  1  0.00000000  0.61066227  0.60709763  1
  V  V11  1  0.00000000  0.38933773  0.39290237  1
  V  V12  1  0.00000000  0.53592884  0.87375974  1
  V  V13  1  0.00000000  0.46407116  0.12624026  1
  V  V14  1  0.50000000  0.62631523  0.03624945  1
  V  V15  1  0.50000000  0.37368477  0.96375055  1
  V  V16  1  0.00000000  0.87818601  0.53479413  1
  V  V17  1  0.00000000  0.12181399  0.46520587  1
  Ni  Ni0  1  0.50000000  0.50000000  0.50000000  1
  Ni  Ni1  1  0.00000000  -0.00000000  -0.00000000  1
  Ni  Ni2  1  0.50000000  0.76118290  0.56558152  1
  Ni  Ni3  1  0.50000000  0.23881710  0.43441848  1
  Ni  Ni4  1  0.00000000  0.25896398  0.93449595  1
  Ni  Ni5  1  0.00000000  0.74103602  0.06550405  1
  Ni  Ni6  1  0.50000000  0.56687511  0.75721975  1
  Ni  Ni7  1  0.50000000  0.43312489  0.24278025  1
  Ni  Ni8  1  0.00000000  0.93229361  0.25808233  1
  Ni  Ni9  1  0.00000000  0.06770639  0.74191767  1
  Ni  Ni10  1  0.50000000  0.03677069  0.63129792  1
  Ni  Ni11  1  0.50000000  0.96322931  0.36870208  1
loop_
_geom_bond_atom_site_label_1
_geom_bond_atom_site_label_2
_geom_bond_distance
_geom_bond_site_symmetry_2
V0 V5 2.251812 1_455
V0 V5 2.309904 1_555
V0 V17 2.814276 1_555
V0 V15 2.840492 1_555
V0 V12 2.842257 1_555
V0 V11 2.856733 1_555
V0 V10 2.894112 1_555
V0 V8 2.909202 1_555
V1 V4 2.251812 1_455
V1 V4 2.309904 1_555
V1 V16 2.814276 1_555
V1 V14 2.840492 1_555
V1 V13 2.842257 1_555
V1 V10 2.856733 1_555
V1 V11 2.894112 1_555
V1 V9 2.909202 1_555
V2 V7 2.244858 1_555
V2 V7 2.316858 1_655
V2 V8 2.845264 1_565
V2 V9 2.856113 1_556
V3 V6 2.244858 1_555
V3 V6 2.316858 1_655
V3 V9 2.845264 1_545
V3 V8 2.856113 1_554
V4 V9 2.909202 1_555
V5 V8 2.909202 1_555
V6 V9 2.845264 1_545
V6 V8 2.856113 1_554
V7 V8 2.845264 1_565
V7 V9 2.856113 1_556
V8 V9 2.646369 1_546
V10 V16 2.444513 1_555
V10 V12 2.464929 1_555
V10 V11 2.743507 1_555
V10 V4 2.856733 1_455
V10 V5 2.894112 1_455
V10 V2 2.907308 1_455
V10 V7 2.907308 1_555
V11 V17 2.444513 1_555
V11 V13 2.464929 1_555
V11 V5 2.856733 1_455
V11 V4 2.894112 1_455
V11 V6 2.907308 1_555
V11 V3 2.907308 1_455
V12 V13 2.336389 1_556
V12 V15 2.807764 1_555
V12 V15 2.807764 1_455
V12 V14 2.821083 1_556
V12 V14 2.821083 1_456
V12 V7 2.831273 1_555
V12 V2 2.831273 1_455
V12 V5 2.842257 1_455
V13 V14 2.807764 1_555
V13 V14 2.807764 1_455
V13 V15 2.821083 1_554
V13 V15 2.821083 1_454
V13 V6 2.831273 1_555
V13 V3 2.831273 1_455
V13 V4 2.842257 1_455
V14 V15 2.327257 1_554
V14 V9 2.426320 1_555
V14 V2 2.835854 1_554
V14 V7 2.835854 1_554
V14 V4 2.840492 1_555
V15 V8 2.426320 1_555
V15 V6 2.835854 1_556
V15 V3 2.835854 1_556
V15 V5 2.840492 1_555
V16 V17 2.234984 1_565
V16 V4 2.814276 1_455
V16 V7 2.816611 1_555
V16 V2 2.816611 1_455
V17 V5 2.814276 1_455
V17 V3 2.816611 1_455
V17 V6 2.816611 1_555
Ni0 Ni6 2.374218 1_555
Ni0 Ni7 2.374218 1_555
Ni0 Ni2 2.383571 1_555
Ni0 Ni3 2.383571 1_555
Ni0 V0 2.540266 1_555
Ni0 V5 2.540266 1_555
Ni0 V4 2.540266 1_555
Ni0 V1 2.540266 1_555
Ni0 V11 2.661582 1_555
Ni0 V11 2.661582 1_655
Ni0 V10 2.661582 1_655
Ni0 V10 2.661582 1_555
Ni1 Ni5 2.356325 1_545
Ni1 Ni4 2.356325 1_554
Ni1 Ni9 2.375300 1_554
Ni1 Ni8 2.375300 1_545
Ni1 V6 2.541210 1_555
Ni1 V3 2.541210 1_455
Ni1 V2 2.541210 1_444
Ni1 V7 2.541210 1_544
Ni1 V8 2.636879 1_454
Ni1 V9 2.636879 1_445
Ni1 V8 2.636879 1_554
Ni1 V9 2.636879 1_545
Ni2 Ni6 2.413917 1_555
Ni2 V16 2.518193 1_555
Ni2 V16 2.518193 1_655
Ni2 V4 2.566830 1_555
Ni2 V1 2.566830 1_555
Ni2 V2 2.577074 1_555
Ni2 V7 2.577074 1_555
Ni2 V10 2.664458 1_655
Ni2 V10 2.664458 1_555
Ni3 Ni7 2.413917 1_555
Ni3 V17 2.518193 1_655
Ni3 V17 2.518193 1_555
Ni3 V5 2.566830 1_555
Ni3 V0 2.566830 1_555
Ni3 V6 2.577074 1_555
Ni3 V3 2.577074 1_555
Ni3 V11 2.664458 1_555
Ni3 V11 2.664458 1_655
Ni4 Ni9 2.418123 1_555
Ni4 V13 2.500537 1_556
Ni4 V12 2.501360 1_555
Ni4 V15 2.510089 1_455
Ni4 V15 2.510089 1_555
Ni4 V0 2.592450 1_555
Ni4 V5 2.592450 1_455
Ni4 V3 2.595568 1_456
Ni4 V6 2.595568 1_556
Ni4 V8 2.664991 1_555
Ni4 V8 2.664991 1_455
Ni5 Ni8 2.418123 1_555
Ni5 V12 2.500537 1_554
Ni5 V13 2.501360 1_555
Ni5 V14 2.510089 1_555
Ni5 V14 2.510089 1_455
Ni5 V1 2.592450 1_555
Ni5 V4 2.592450 1_455
Ni5 V7 2.595568 1_554
Ni5 V2 2.595568 1_454
Ni5 V9 2.664991 1_555
Ni5 V9 2.664991 1_455
Ni6 V15 2.502489 1_555
Ni6 V12 2.520815 1_555
Ni6 V12 2.520815 1_655
Ni6 V14 2.548404 1_556
Ni6 V2 2.588105 1_555
Ni6 V7 2.588105 1_555
Ni6 V0 2.590870 1_555
Ni6 V5 2.590870 1_555
Ni6 V10 2.671918 1_555
Ni6 V10 2.671918 1_655
Ni7 V14 2.502489 1_555
Ni7 V13 2.520815 1_655
Ni7 V13 2.520815 1_555
Ni7 V15 2.548404 1_554
Ni7 V6 2.588105 1_555
Ni7 V3 2.588105 1_555
Ni7 V4 2.590870 1_555
Ni7 V1 2.590870 1_555
Ni7 V11 2.671918 1_555
Ni7 V11 2.671918 1_655
Ni8 V17 2.502287 1_565
Ni8 V16 2.511789 1_555
Ni8 V1 2.532923 1_555
Ni8 V4 2.532923 1_455
Ni8 V6 2.536724 1_565
Ni8 V3 2.536724 1_465
Ni8 V9 2.690121 1_455
Ni8 V9 2.690121 1_555
Ni9 V16 2.502287 1_545
Ni9 V17 2.511789 1_555
Ni9 V5 2.532923 1_455
Ni9 V0 2.532923 1_555
Ni9 V7 2.536724 1_545
Ni9 V2 2.536724 1_445
Ni9 V8 2.690121 1_455
Ni9 V8 2.690121 1_555
Ni10 Ni11 2.436150 1_545
Ni10 V8 2.452379 1_555
Ni10 Ni3 2.495092 1_555
Ni10 Ni9 2.501053 1_655
Ni10 Ni9 2.501053 1_555
Ni10 Ni2 2.507367 1_545
Ni10 V7 2.744901 1_545
Ni10 V2 2.744901 1_545
Ni10 V5 2.766711 1_555
Ni10 V0 2.766711 1_555
Ni10 V16 2.814664 1_645
Ni10 V16 2.814664 1_545
Ni10 V17 2.819093 1_655
Ni10 V17 2.819093 1_555
Ni11 V9 2.452379 1_555
Ni11 Ni2 2.495092 1_555
Ni11 Ni8 2.501053 1_555
Ni11 Ni8 2.501053 1_655
Ni11 Ni3 2.507367 1_565
Ni11 V3 2.744901 1_565
Ni11 V6 2.744901 1_565
Ni11 V4 2.766711 1_555
Ni11 V1 2.766711 1_555
Ni11 V17 2.814664 1_565
Ni11 V17 2.814664 1_665
Ni11 V16 2.819093 1_555
Ni11 V16 2.819093 1_655
