# generated using pymatgen
data_Re3Rh
_symmetry_space_group_name_H-M   'P 1'
_cell_length_a   5.55783945
_cell_length_b   5.55783945
_cell_length_c   17.73123600
_cell_angle_alpha   90.00000000
_cell_angle_beta   90.00000000
_cell_angle_gamma   119.99999350
_symmetry_Int_Tables_number   1
_chemical_formula_structural   Re3Rh
_chemical_formula_sum   'Re24 Rh8'
_cell_volume   474.33117065
_cell_formula_units_Z   8
loop_
 _symmetry_equiv_pos_site_id
 _symmetry_equiv_pos_as_xyz
  1  'x, y, z'
loop_
 _atom_site_type_symbol
 _atom_site_label
 _atom_site_symmetry_multiplicity
 _atom_site_fract_x
 _atom_site_fract_y
 _atom_site_fract_z
 _atom_site_occupancy
  Re  Re0_0  1  0.33333350  0.16666650  0.25000000  1
  Re  Re0_1  1  0.33333350  0.16666650  0.75000000  1
  Re  Re0_2  1  0.33333350  0.66666650  0.25000000  1
  Re  Re0_3  1  0.33333350  0.66666650  0.75000000  1
  Re  Re0_4  1  0.83333350  0.16666650  0.25000000  1
  Re  Re0_5  1  0.83333350  0.16666650  0.75000000  1
  Re  Re0_6  1  0.83333350  0.66666650  0.25000000  1
  Re  Re0_7  1  0.83333350  0.66666650  0.75000000  1
  Re  Re1_0  1  0.16666650  0.33333350  0.12447700  1
  Re  Re1_1  1  0.16666650  0.33333350  0.62447700  1
  Re  Re1_2  1  0.16666650  0.83333350  0.12447700  1
  Re  Re1_3  1  0.16666650  0.83333350  0.62447700  1
  Re  Re1_4  1  0.66666650  0.33333350  0.12447700  1
  Re  Re1_5  1  0.66666650  0.33333350  0.62447700  1
  Re  Re1_6  1  0.66666650  0.83333350  0.12447700  1
  Re  Re1_7  1  0.66666650  0.83333350  0.62447700  1
  Re  Re2_0  1  0.16666650  0.33333350  0.37552300  1
  Re  Re2_1  1  0.16666650  0.33333350  0.87552300  1
  Re  Re2_2  1  0.16666650  0.83333350  0.37552300  1
  Re  Re2_3  1  0.16666650  0.83333350  0.87552300  1
  Re  Re2_4  1  0.66666650  0.33333350  0.37552300  1
  Re  Re2_5  1  0.66666650  0.33333350  0.87552300  1
  Re  Re2_6  1  0.66666650  0.83333350  0.37552300  1
  Re  Re2_7  1  0.66666650  0.83333350  0.87552300  1
  Rh  Rh0_0  1  0.33333350  0.16666650  0.00000000  1
  Rh  Rh0_1  1  0.33333350  0.16666650  0.50000000  1
  Rh  Rh0_2  1  0.33333350  0.66666650  0.00000000  1
  Rh  Rh0_3  1  0.33333350  0.66666650  0.50000000  1
  Rh  Rh0_4  1  0.83333350  0.16666650  0.00000000  1
  Rh  Rh0_5  1  0.83333350  0.16666650  0.50000000  1
  Rh  Rh0_6  1  0.83333350  0.66666650  0.00000000  1
  Rh  Rh0_7  1  0.83333350  0.66666650  0.50000000  1
loop_
_geom_bond_atom_site_label_1
_geom_bond_atom_site_label_2
_geom_bond_distance
_geom_bond_site_symmetry_2
Re0_0 Re2_2 2.743678 1_545
Re0_0 Re2_4 2.743678 1_555
Re0_0 Re1_4 2.743678 1_555
Re0_0 Re1_2 2.743678 1_545
Re0_0 Re2_0 2.743681 1_555
Re0_0 Re1_0 2.743681 1_555
Re0_0 Re0_4 2.778920 1_455
Re0_0 Re0_2 2.778920 1_555
Re0_0 Re0_4 2.778920 1_555
Re0_0 Re0_2 2.778920 1_545
Re0_0 Re0_6 2.778920 1_445
Re0_0 Re0_6 2.778920 1_555
Re0_1 Re2_3 2.743678 1_545
Re0_1 Re2_5 2.743678 1_555
Re0_1 Re1_3 2.743678 1_545
Re0_1 Re1_5 2.743678 1_555
Re0_1 Re2_1 2.743681 1_555
Re0_1 Re1_1 2.743681 1_555
Re0_1 Re0_5 2.778920 1_455
Re0_1 Re0_5 2.778920 1_555
Re0_1 Re0_3 2.778920 1_555
Re0_1 Re0_3 2.778920 1_545
Re0_1 Re0_7 2.778920 1_555
Re0_1 Re0_7 2.778920 1_445
Re0_2 Re2_6 2.743678 1_555
Re0_2 Re2_0 2.743678 1_555
Re0_2 Re1_6 2.743678 1_555
Re0_2 Re1_0 2.743678 1_555
Re0_2 Re2_2 2.743681 1_555
Re0_2 Re1_2 2.743681 1_555
Re0_2 Re0_6 2.778920 1_455
Re0_2 Re0_6 2.778920 1_555
Re0_2 Re0_4 2.778920 1_455
Re0_2 Re0_4 2.778920 1_565
Re0_3 Re2_1 2.743678 1_555
Re0_3 Re2_7 2.743678 1_555
Re0_3 Re1_7 2.743678 1_555
Re0_3 Re1_1 2.743678 1_555
Re0_3 Re2_3 2.743681 1_555
Re0_3 Re1_3 2.743681 1_555
Re0_3 Re0_7 2.778920 1_455
Re0_3 Re0_7 2.778920 1_555
Re0_3 Re0_5 2.778920 1_455
Re0_3 Re0_5 2.778920 1_565
Re0_4 Re2_0 2.743678 1_655
Re0_4 Re2_6 2.743678 1_545
Re0_4 Re1_6 2.743678 1_545
Re0_4 Re1_0 2.743678 1_655
Re0_4 Re2_4 2.743681 1_555
Re0_4 Re1_4 2.743681 1_555
Re0_4 Re0_6 2.778920 1_545
Re0_4 Re0_6 2.778920 1_555
Re0_5 Re2_7 2.743678 1_545
Re0_5 Re2_1 2.743678 1_655
Re0_5 Re1_7 2.743678 1_545
Re0_5 Re1_1 2.743678 1_655
Re0_5 Re2_5 2.743681 1_555
Re0_5 Re1_5 2.743681 1_555
Re0_5 Re0_7 2.778920 1_555
Re0_5 Re0_7 2.778920 1_545
Re0_6 Re2_4 2.743678 1_555
Re0_6 Re2_2 2.743678 1_655
Re0_6 Re1_4 2.743678 1_555
Re0_6 Re1_2 2.743678 1_655
Re0_6 Re2_6 2.743681 1_555
Re0_6 Re1_6 2.743681 1_555
Re0_7 Re2_3 2.743678 1_655
Re0_7 Re2_5 2.743678 1_555
Re0_7 Re1_5 2.743678 1_555
Re0_7 Re1_3 2.743678 1_655
Re0_7 Re2_7 2.743681 1_555
Re0_7 Re1_7 2.743681 1_555
Re1_0 Rh0_4 2.728654 1_455
Re1_0 Rh0_2 2.728654 1_555
Re1_0 Rh0_0 2.728657 1_555
Re1_0 Re1_4 2.778920 1_455
Re1_0 Re1_2 2.778920 1_555
Re1_0 Re1_4 2.778920 1_555
Re1_0 Re1_2 2.778920 1_545
Re1_0 Re1_6 2.778920 1_445
Re1_0 Re1_6 2.778920 1_555
Re1_1 Rh0_3 2.728654 1_555
Re1_1 Rh0_5 2.728654 1_455
Re1_1 Rh0_1 2.728657 1_555
Re1_1 Re1_3 2.778920 1_555
Re1_1 Re1_5 2.778920 1_455
Re1_1 Re1_5 2.778920 1_555
Re1_1 Re1_3 2.778920 1_545
Re1_1 Re1_7 2.778920 1_445
Re1_1 Re1_7 2.778920 1_555
Re1_2 Rh0_6 2.728654 1_455
Re1_2 Rh0_0 2.728654 1_565
Re1_2 Rh0_2 2.728657 1_555
Re1_2 Re1_6 2.778920 1_555
Re1_2 Re1_6 2.778920 1_455
Re1_2 Re1_4 2.778920 1_455
Re1_2 Re1_4 2.778920 1_565
Re1_3 Rh0_7 2.728654 1_455
Re1_3 Rh0_1 2.728654 1_565
Re1_3 Rh0_3 2.728657 1_555
Re1_3 Re1_7 2.778920 1_555
Re1_3 Re1_7 2.778920 1_455
Re1_3 Re1_5 2.778920 1_455
Re1_3 Re1_5 2.778920 1_565
Re1_4 Rh0_6 2.728654 1_555
Re1_4 Rh0_0 2.728654 1_555
Re1_4 Rh0_4 2.728657 1_555
Re1_4 Re1_6 2.778920 1_545
Re1_4 Re1_6 2.778920 1_555
Re1_5 Rh0_1 2.728654 1_555
Re1_5 Rh0_7 2.728654 1_555
Re1_5 Rh0_5 2.728657 1_555
Re1_5 Re1_7 2.778920 1_545
Re1_5 Re1_7 2.778920 1_555
Re1_6 Rh0_2 2.728654 1_555
Re1_6 Rh0_4 2.728654 1_565
Re1_6 Rh0_6 2.728657 1_555
Re1_7 Rh0_5 2.728654 1_565
Re1_7 Rh0_3 2.728654 1_555
Re1_7 Rh0_7 2.728657 1_555
Re2_0 Rh0_5 2.728654 1_455
Re2_0 Rh0_3 2.728654 1_555
Re2_0 Rh0_1 2.728657 1_555
Re2_0 Re2_2 2.778920 1_555
Re2_0 Re2_4 2.778920 1_455
Re2_0 Re2_2 2.778920 1_545
Re2_0 Re2_4 2.778920 1_555
Re2_0 Re2_6 2.778920 1_555
Re2_0 Re2_6 2.778920 1_445
Re2_1 Rh0_2 2.728654 1_556
Re2_1 Rh0_4 2.728654 1_456
Re2_1 Rh0_0 2.728657 1_556
Re2_1 Re2_5 2.778920 1_455
Re2_1 Re2_3 2.778920 1_555
Re2_1 Re2_5 2.778920 1_555
Re2_1 Re2_3 2.778920 1_545
Re2_1 Re2_7 2.778920 1_555
Re2_1 Re2_7 2.778920 1_445
Re2_2 Rh0_7 2.728654 1_455
Re2_2 Rh0_1 2.728654 1_565
Re2_2 Rh0_3 2.728657 1_555
Re2_2 Re2_6 2.778920 1_555
Re2_2 Re2_6 2.778920 1_455
Re2_2 Re2_4 2.778920 1_455
Re2_2 Re2_4 2.778920 1_565
Re2_3 Rh0_6 2.728654 1_456
Re2_3 Rh0_0 2.728654 1_566
Re2_3 Rh0_2 2.728657 1_556
Re2_3 Re2_7 2.778920 1_555
Re2_3 Re2_7 2.778920 1_455
Re2_3 Re2_5 2.778920 1_455
Re2_3 Re2_5 2.778920 1_565
Re2_4 Rh0_1 2.728654 1_555
Re2_4 Rh0_7 2.728654 1_555
Re2_4 Rh0_5 2.728657 1_555
Re2_4 Re2_6 2.778920 1_545
Re2_4 Re2_6 2.778920 1_555
Re2_5 Rh0_6 2.728654 1_556
Re2_5 Rh0_0 2.728654 1_556
Re2_5 Rh0_4 2.728657 1_556
Re2_5 Re2_7 2.778920 1_545
Re2_5 Re2_7 2.778920 1_555
Re2_6 Rh0_5 2.728654 1_565
Re2_6 Rh0_3 2.728654 1_555
Re2_6 Rh0_7 2.728657 1_555
Re2_7 Rh0_2 2.728654 1_556
Re2_7 Rh0_4 2.728654 1_566
Re2_7 Rh0_6 2.728657 1_556
Rh0_0 Rh0_4 2.778920 1_455
Rh0_0 Rh0_2 2.778920 1_555
Rh0_0 Rh0_4 2.778920 1_555
Rh0_0 Rh0_2 2.778920 1_545
Rh0_0 Rh0_6 2.778920 1_445
Rh0_0 Rh0_6 2.778920 1_555
Rh0_1 Rh0_5 2.778920 1_455
Rh0_1 Rh0_3 2.778920 1_555
Rh0_1 Rh0_3 2.778920 1_545
Rh0_1 Rh0_5 2.778920 1_555
Rh0_1 Rh0_7 2.778920 1_445
Rh0_1 Rh0_7 2.778920 1_555
Rh0_2 Rh0_6 2.778920 1_455
Rh0_2 Rh0_6 2.778920 1_555
Rh0_2 Rh0_4 2.778920 1_455
Rh0_2 Rh0_4 2.778920 1_565
Rh0_3 Rh0_7 2.778920 1_455
Rh0_3 Rh0_7 2.778920 1_555
Rh0_3 Rh0_5 2.778920 1_455
Rh0_3 Rh0_5 2.778920 1_565
Rh0_4 Rh0_6 2.778920 1_545
Rh0_4 Rh0_6 2.778920 1_555
Rh0_5 Rh0_7 2.778920 1_545
Rh0_5 Rh0_7 2.778920 1_555
