# generated using pymatgen
data_Mg4IrN4
_symmetry_space_group_name_H-M   'P 1'
_cell_length_a   5.33401478
_cell_length_b   5.36147974
_cell_length_c   8.52962966
_cell_angle_alpha   67.89106123
_cell_angle_beta   80.16075286
_cell_angle_gamma   69.80675961
_symmetry_Int_Tables_number   1
_chemical_formula_structural   Mg4IrN4
_chemical_formula_sum   'Mg8 Ir2 N8'
_cell_volume   211.86915726
_cell_formula_units_Z   2
loop_
 _symmetry_equiv_pos_site_id
 _symmetry_equiv_pos_as_xyz
  1  'x, y, z'
loop_
 _atom_site_type_symbol
 _atom_site_label
 _atom_site_symmetry_multiplicity
 _atom_site_fract_x
 _atom_site_fract_y
 _atom_site_fract_z
 _atom_site_occupancy
  Mg  Mg0  1  0.73640046  0.61965946  0.21992919  1
  Mg  Mg1  1  0.26359954  0.38034054  0.78007081  1
  Mg  Mg2  1  0.73196508  0.26312251  0.00128339  1
  Mg  Mg3  1  0.26803492  0.73687749  0.99871661  1
  Mg  Mg4  1  0.73624256  0.46923057  0.58386226  1
  Mg  Mg5  1  0.26375744  0.53076943  0.41613774  1
  Mg  Mg6  1  0.25209599  0.94214720  0.58398193  1
  Mg  Mg7  1  0.74790401  0.05785280  0.41601807  1
  Ir  Ir0  1  0.74626910  0.84290570  0.79355432  1
  Ir  Ir1  1  0.25373090  0.15709430  0.20644568  1
  N  N0  1  0.98111266  0.68874964  0.60716445  1
  N  N1  1  0.01888734  0.31125036  0.39283555  1
  N  N2  1  0.84797480  0.85283211  0.98353648  1
  N  N3  1  0.15202520  0.14716789  0.01646352  1
  N  N4  1  0.50573124  0.60601288  0.79383494  1
  N  N5  1  0.49426876  0.39398612  0.20616506  1
  N  N6  1  0.50426697  0.82384246  0.38343211  1
  N  N7  1  0.49573303  0.17615754  0.61656789  1
loop_
_geom_bond_atom_site_label_1
_geom_bond_atom_site_label_2
_geom_bond_distance
_geom_bond_site_symmetry_2
Mg0 N2 2.046650 1_554
Mg0 N6 2.073591 1_555
Mg0 N5 2.093655 1_555
Mg0 N1 2.093663 1_655
Mg1 N3 2.046650 1_556
Mg1 N7 2.073591 1_555
Mg1 N4 2.093651 1_555
Mg1 N0 2.093663 1_455
Mg2 N3 2.121433 1_655
Mg2 N2 2.126894 1_544
Mg2 N5 2.169177 1_555
Mg2 N4 2.171743 1_554
Mg3 N2 2.121433 1_455
Mg3 N3 2.126894 1_566
Mg3 N4 2.169179 1_555
Mg3 N5 2.171745 1_556
Mg4 N0 2.111116 1_555
Mg4 N6 2.172715 1_555
Mg4 N4 2.206988 1_555
Mg4 N1 2.227775 1_655
Mg4 N7 2.265390 1_555
Mg5 N1 2.111116 1_555
Mg5 N7 2.172715 1_555
Mg5 N5 2.206990 1_555
Mg5 N0 2.227775 1_455
Mg5 N6 2.265390 1_555
Mg6 N6 2.139889 1_555
Mg6 N1 2.164900 1_565
Mg6 N7 2.202689 1_565
Mg6 N4 2.235697 1_555
Mg6 N0 2.242752 1_455
Mg7 N7 2.139889 1_555
Mg7 N0 2.164900 1_545
Mg7 N6 2.202689 1_545
Mg7 N5 2.235695 1_555
Mg7 N1 2.242752 1_655
Ir0 N2 1.818897 1_555
Ir0 N7 2.065901 1_565
Ir0 N0 2.091301 1_555
Ir0 N4 2.093084 1_555
Ir1 N3 1.818897 1_555
Ir1 N6 2.065901 1_545
Ir1 N1 2.091301 1_555
Ir1 N5 2.093080 1_555
