# generated using pymatgen
data_HoGa3Os
_symmetry_space_group_name_H-M   'P 1'
_cell_length_a   6.36697945
_cell_length_b   6.36697945
_cell_length_c   6.36697945
_cell_angle_alpha   90.00000000
_cell_angle_beta   90.00000000
_cell_angle_gamma   90.00000000
_symmetry_Int_Tables_number   1
_chemical_formula_structural   HoGa3Os
_chemical_formula_sum   'Ho3 Ga9 Os3'
_cell_volume   258.10733366
_cell_formula_units_Z   3
loop_
 _symmetry_equiv_pos_site_id
 _symmetry_equiv_pos_as_xyz
  1  'x, y, z'
loop_
 _atom_site_type_symbol
 _atom_site_label
 _atom_site_symmetry_multiplicity
 _atom_site_fract_x
 _atom_site_fract_y
 _atom_site_fract_z
 _atom_site_occupancy
  Ho  Ho0  1  0.50000000  -0.00000000  0.00000000  1
  Ho  Ho1  1  0.00000000  0.50000000  0.00000000  1
  Ho  Ho2  1  0.00000000  -0.00000000  0.50000000  1
  Ga  Ga0  1  0.29046799  0.29046799  0.29046799  1
  Ga  Ga1  1  0.70953201  0.70953201  0.70953201  1
  Ga  Ga2  1  0.70953201  0.70953201  0.29046799  1
  Ga  Ga3  1  0.70953201  0.29046799  0.70953201  1
  Ga  Ga4  1  0.29046799  0.29046799  0.70953201  1
  Ga  Ga5  1  0.29046799  0.70953201  0.29046799  1
  Ga  Ga6  1  0.29046799  0.70953201  0.70953201  1
  Ga  Ga7  1  0.70953201  0.29046799  0.29046799  1
  Ga  Ga8  1  0.00000000  -0.00000000  0.00000000  1
  Os  Os0  1  0.00000000  0.50000000  0.50000000  1
  Os  Os1  1  0.50000000  -0.00000000  0.50000000  1
  Os  Os2  1  0.50000000  0.50000000  0.00000000  1
loop_
_geom_bond_atom_site_label_1
_geom_bond_atom_site_label_2
_geom_bond_distance
_geom_bond_site_symmetry_2
Ho0 Os1 3.183490 1_554
Ho0 Os2 3.183490 1_555
Ho0 Os2 3.183490 1_545
Ho0 Os1 3.183490 1_555
Ho1 Os0 3.183490 1_554
Ho1 Os2 3.183490 1_555
Ho1 Os0 3.183490 1_555
Ho1 Os2 3.183490 1_455
Ho2 Os0 3.183490 1_545
Ho2 Os1 3.183490 1_455
Ho2 Os0 3.183490 1_555
Ho2 Os1 3.183490 1_555
Ga0 Os0 2.641943 1_555
Ga0 Os1 2.641943 1_555
Ga0 Os2 2.641943 1_555
Ga0 Ga4 2.668172 1_555
Ga0 Ga5 2.668172 1_555
Ga0 Ga7 2.668172 1_555
Ga0 Ho0 2.936047 1_555
Ga0 Ho2 2.936047 1_555
Ga0 Ho1 2.936047 1_555
Ga1 Os1 2.641943 1_565
Ga1 Os2 2.641943 1_556
Ga1 Os0 2.641943 1_655
Ga1 Ga3 2.668172 1_555
Ga1 Ga2 2.668172 1_555
Ga1 Ga6 2.668172 1_555
Ga1 Ho0 2.936047 1_566
Ga1 Ho1 2.936047 1_656
Ga1 Ho2 2.936047 1_665
Ga2 Os1 2.641943 1_565
Ga2 Os0 2.641943 1_655
Ga2 Os2 2.641943 1_555
Ga2 Ga5 2.668172 1_555
Ga2 Ga7 2.668172 1_555
Ga2 Ho0 2.936047 1_565
Ga2 Ho1 2.936047 1_655
Ga2 Ho2 2.936047 1_665
Ga3 Os2 2.641943 1_556
Ga3 Os0 2.641943 1_655
Ga3 Os1 2.641943 1_555
Ga3 Ga4 2.668172 1_555
Ga3 Ga7 2.668172 1_555
Ga3 Ho0 2.936047 1_556
Ga3 Ho2 2.936047 1_655
Ga3 Ho1 2.936047 1_656
Ga4 Os2 2.641943 1_556
Ga4 Os0 2.641943 1_555
Ga4 Os1 2.641943 1_555
Ga4 Ga6 2.668172 1_555
Ga4 Ho0 2.936047 1_556
Ga4 Ho2 2.936047 1_555
Ga4 Ho1 2.936047 1_556
Ga5 Os1 2.641943 1_565
Ga5 Os0 2.641943 1_555
Ga5 Os2 2.641943 1_555
Ga5 Ga6 2.668172 1_555
Ga5 Ho0 2.936047 1_565
Ga5 Ho1 2.936047 1_555
Ga5 Ho2 2.936047 1_565
Ga6 Os1 2.641943 1_565
Ga6 Os2 2.641943 1_556
Ga6 Os0 2.641943 1_555
Ga6 Ho0 2.936047 1_566
Ga6 Ho2 2.936047 1_565
Ga6 Ho1 2.936047 1_556
Ga7 Os0 2.641943 1_655
Ga7 Os1 2.641943 1_555
Ga7 Os2 2.641943 1_555
Ga7 Ho2 2.936047 1_655
Ga7 Ho0 2.936047 1_555
Ga7 Ho1 2.936047 1_655
Ga8 Ho0 3.183490 1_455
Ga8 Ho2 3.183490 1_554
Ga8 Ho0 3.183490 1_555
Ga8 Ho2 3.183490 1_555
Ga8 Ho1 3.183490 1_545
Ga8 Ho1 3.183490 1_555
