# generated using pymatgen
data_Mg(BH4)2
_symmetry_space_group_name_H-M   'P 1'
_cell_length_a   7.97145454
_cell_length_b   7.97145454
_cell_length_c   7.97145454
_cell_angle_alpha   116.57998368
_cell_angle_beta   116.57998368
_cell_angle_gamma   96.03330976
_symmetry_Int_Tables_number   1
_chemical_formula_structural   Mg(BH4)2
_chemical_formula_sum   'Mg4 B8 H32'
_cell_volume   374.44458374
_cell_formula_units_Z   4
loop_
 _symmetry_equiv_pos_site_id
 _symmetry_equiv_pos_as_xyz
  1  'x, y, z'
loop_
 _atom_site_type_symbol
 _atom_site_label
 _atom_site_symmetry_multiplicity
 _atom_site_fract_x
 _atom_site_fract_y
 _atom_site_fract_z
 _atom_site_occupancy
  Mg  Mg0  1  0.75000000  0.25000000  0.50000000  1
  Mg  Mg1  1  0.00000000  0.00000000  0.00000000  1
  Mg  Mg2  1  0.50000000  0.50000000  0.00000000  1
  Mg  Mg3  1  0.25000000  0.75000000  0.50000000  1
  B  B0  1  0.64412400  0.40956100  0.76543700  1
  B  B1  1  0.15956100  0.89412400  0.26543700  1
  B  B2  1  0.62868700  0.89412400  0.73456300  1
  B  B3  1  0.64412400  0.87868700  0.23456300  1
  B  B4  1  0.10587600  0.84043900  0.73456300  1
  B  B5  1  0.59043900  0.35587600  0.23456300  1
  B  B6  1  0.12131300  0.35587600  0.76543700  1
  B  B7  1  0.10587600  0.37131300  0.26543700  1
  H  H0  1  0.73775200  0.45053700  0.95816700  1
  H  H1  1  0.49237100  0.45053700  0.71278500  1
  H  H2  1  0.20053700  0.98775200  0.45816700  1
  H  H3  1  0.52958600  0.98775300  0.78721500  1
  H  H4  1  0.73775200  0.77958600  0.28721500  1
  H  H5  1  0.49237100  0.77958600  0.04183300  1
  H  H6  1  0.20053700  0.74237100  0.21278500  1
  H  H7  1  0.52958600  0.74237100  0.54183300  1
  H  H8  1  0.01224700  0.79946300  0.54183300  1
  H  H9  1  0.25762900  0.79946300  0.78721500  1
  H  H10  1  0.54946300  0.26224700  0.04183300  1
  H  H11  1  0.22041400  0.26224700  0.71278500  1
  H  H12  1  0.01224700  0.47041400  0.21278500  1
  H  H13  1  0.25762900  0.47041400  0.45816700  1
  H  H14  1  0.54946300  0.50762900  0.28721500  1
  H  H15  1  0.22041400  0.50762900  0.95816700  1
  H  H16  1  0.58819900  0.95091500  0.36271600  1
  H  H17  1  0.70091500  0.83819900  0.86271600  1
  H  H18  1  0.97548400  0.83819900  0.13728400  1
  H  H19  1  0.58819900  0.22548400  0.63728400  1
  H  H20  1  0.16180100  0.29908500  0.13728400  1
  H  H21  1  0.04908500  0.41180100  0.63728400  1
  H  H22  1  0.77451600  0.41180100  0.36271600  1
  H  H23  1  0.16180100  0.02451600  0.86271600  1
  H  H24  1  0.75848600  0.51145600  0.75297000  1
  H  H25  1  0.26145600  0.00848600  0.25297000  1
  H  H26  1  0.75551600  0.00848600  0.74703000  1
  H  H27  1  0.75848600  0.00551600  0.24703000  1
  H  H28  1  0.99151400  0.73854400  0.74703000  1
  H  H29  1  0.48854400  0.24151400  0.24703000  1
  H  H30  1  0.99448400  0.24151400  0.75297000  1
  H  H31  1  0.99151400  0.24448400  0.25297000  1
loop_
_geom_bond_atom_site_label_1
_geom_bond_atom_site_label_2
_geom_bond_distance
_geom_bond_site_symmetry_2
B0 H1 1.223763 1_555
B0 H0 1.223770 1_555
B0 H24 1.224074 1_555
B0 H19 1.228403 1_555
B1 H6 1.223763 1_555
B1 H2 1.223770 1_555
B1 H25 1.224074 1_565
B1 H18 1.228403 1_455
B2 H3 1.223767 1_555
B2 H7 1.223767 1_555
B2 H26 1.224074 1_565
B2 H17 1.228409 1_555
B3 H4 1.223763 1_555
B3 H5 1.223767 1_555
B3 H27 1.224074 1_565
B3 H16 1.228409 1_555
B4 H9 1.223763 1_555
B4 H8 1.223770 1_555
B4 H28 1.224074 1_455
B4 H23 1.228403 1_565
B5 H14 1.223763 1_555
B5 H10 1.223770 1_555
B5 H29 1.224074 1_555
B5 H22 1.228403 1_555
B6 H15 1.223767 1_555
B6 H11 1.223767 1_555
B6 H30 1.224074 1_455
B6 H21 1.228409 1_555
B7 H12 1.223767 1_555
B7 H13 1.223767 1_555
B7 H31 1.224074 1_455
B7 H20 1.228409 1_555
H0 Mg2 2.112714 1_556
H1 Mg2 2.112717 1_556
H2 Mg3 2.112714 1_555
H3 Mg3 2.112720 1_555
H4 Mg2 2.112717 1_555
H5 Mg2 2.112720 1_555
H6 Mg3 2.112717 1_555
H7 Mg3 2.112720 1_555
H8 Mg3 2.112721 1_555
H9 Mg3 2.112717 1_555
H10 Mg2 2.112721 1_555
H11 Mg2 2.112720 1_556
H12 Mg3 2.112720 1_555
H13 Mg3 2.112720 1_555
H14 Mg2 2.112717 1_555
H15 Mg2 2.112720 1_556
H16 Mg0 2.073860 1_565
H17 Mg1 2.073860 1_666
H18 Mg1 2.073858 1_665
H19 Mg0 2.073858 1_555
H20 Mg1 2.073860 1_555
H21 Mg0 2.073860 1_455
H22 Mg0 2.073858 1_555
H23 Mg1 2.073858 1_556
H24 Mg0 2.121798 1_555
H25 Mg1 2.121798 1_555
H26 Mg1 2.121798 1_656
H27 Mg0 2.121798 1_555
H28 Mg1 2.121798 1_666
H29 Mg0 2.121798 1_555
H30 Mg0 2.121798 1_555
H31 Mg1 2.121798 1_655
