# generated using pymatgen
data_Li9Mn2Co5O16
_symmetry_space_group_name_H-M   'P 1'
_cell_length_a   9.00495501
_cell_length_b   9.00495501
_cell_length_c   5.87474780
_cell_angle_alpha   89.86270761
_cell_angle_beta   89.86270761
_cell_angle_gamma   37.45409799
_symmetry_Int_Tables_number   1
_chemical_formula_structural   Li9Mn2Co5O16
_chemical_formula_sum   'Li9 Mn2 Co5 O16'
_cell_volume   289.69716878
_cell_formula_units_Z   1
loop_
 _symmetry_equiv_pos_site_id
 _symmetry_equiv_pos_as_xyz
  1  'x, y, z'
loop_
 _atom_site_type_symbol
 _atom_site_label
 _atom_site_symmetry_multiplicity
 _atom_site_fract_x
 _atom_site_fract_y
 _atom_site_fract_z
 _atom_site_occupancy
  Li  Li0  1  0.12733200  0.63357000  0.25327000  1
  Li  Li1  1  0.36643000  0.87266800  0.74673000  1
  Li  Li2  1  0.00000000  0.00000000  0.00000000  1
  Li  Li3  1  0.24816500  0.24816500  0.49931600  1
  Li  Li4  1  0.87266800  0.36643000  0.74673000  1
  Li  Li5  1  0.75183500  0.75183500  0.50068400  1
  Li  Li6  1  0.63357000  0.12733200  0.25327000  1
  Li  Li7  1  0.50000000  0.50000000  0.00000000  1
  Li  Li8  1  0.00000000  0.00000000  0.50000000  1
  Mn  Mn0  1  0.24822500  0.24822500  0.99854200  1
  Mn  Mn1  1  0.75177500  0.75177500  0.00145800  1
  Co  Co0  1  0.50000000  0.50000000  0.50000000  1
  Co  Co1  1  0.12821600  0.63515200  0.74422700  1
  Co  Co2  1  0.36484800  0.87178400  0.25577300  1
  Co  Co3  1  0.63515200  0.12821600  0.74422700  1
  Co  Co4  1  0.87178400  0.36484800  0.25577300  1
  O  O0  1  0.00169600  0.50036700  0.22658900  1
  O  O1  1  0.26463200  0.72838700  0.73233400  1
  O  O2  1  0.87334200  0.87334200  0.99310700  1
  O  O3  1  0.12860900  0.12860900  0.47533500  1
  O  O4  1  0.72838700  0.26463200  0.73233400  1
  O  O5  1  0.61319100  0.61319100  0.49773200  1
  O  O6  1  0.50036700  0.00169600  0.22658900  1
  O  O7  1  0.36981400  0.36981400  0.97138900  1
  O  O8  1  0.27161300  0.73536800  0.26766600  1
  O  O9  1  0.49963300  0.99830400  0.77341100  1
  O  O10  1  0.12665800  0.12665800  0.00689300  1
  O  O11  1  0.38680900  0.38680900  0.50226800  1
  O  O12  1  0.99830400  0.49963300  0.77341100  1
  O  O13  1  0.87139100  0.87139100  0.52466500  1
  O  O14  1  0.73536800  0.27161300  0.26766600  1
  O  O15  1  0.63018600  0.63018600  0.02861100  1
loop_
_geom_bond_atom_site_label_1
_geom_bond_atom_site_label_2
_geom_bond_distance
_geom_bond_site_symmetry_2
Li0 O11 2.072312 1_555
Li0 O2 2.095106 1_454
Li0 O8 2.104121 1_555
Li0 O13 2.145348 1_455
Li0 O0 2.213498 1_555
Li0 O7 2.217844 1_554
Li1 O5 2.072312 1_555
Li1 O10 2.095106 1_566
Li1 O1 2.104121 1_555
Li1 O3 2.145348 1_565
Li1 O9 2.213498 1_555
Li1 O15 2.217844 1_556
Li2 O10 2.160817 1_555
Li2 O2 2.160817 1_444
Li2 O8 2.209136 1_545
Li2 O14 2.209136 1_455
Li2 O1 2.209136 1_544
Li2 O4 2.209136 1_454
Li3 O3 2.044417 1_555
Li3 O6 2.155832 1_555
Li3 O0 2.155832 1_555
Li3 O9 2.166553 1_545
Li3 O12 2.166553 1_455
Li3 O11 2.364881 1_555
Li4 O5 2.072312 1_555
Li4 O10 2.095106 1_656
Li4 O4 2.104121 1_555
Li4 O3 2.145348 1_655
Li4 O12 2.213498 1_555
Li4 O15 2.217844 1_556
Li5 O13 2.044417 1_555
Li5 O12 2.155832 1_555
Li5 O9 2.155832 1_555
Li5 O6 2.166553 1_565
Li5 O0 2.166553 1_655
Li5 O5 2.364881 1_555
Li6 O11 2.072312 1_555
Li6 O2 2.095106 1_544
Li6 O14 2.104121 1_555
Li6 O13 2.145348 1_545
Li6 O6 2.213498 1_555
Li6 O7 2.217844 1_554
Li7 O8 2.067453 1_555
Li7 O14 2.067453 1_555
Li7 O1 2.067453 1_554
Li7 O4 2.067453 1_554
Li7 O15 2.227287 1_555
Li7 O7 2.227287 1_554
Li8 O4 2.066324 1_455
Li8 O1 2.066324 1_545
Li8 O8 2.066324 1_545
Li8 O14 2.066324 1_455
Li8 O3 2.198027 1_555
Li8 O13 2.198027 1_445
Mn0 O9 1.962167 1_545
Mn0 O12 1.962167 1_455
Mn0 O6 1.968763 1_556
Mn0 O0 1.968763 1_556
Mn0 O10 2.073957 1_556
Mn0 O7 2.079599 1_555
Mn1 O0 1.962167 1_655
Mn1 O6 1.962167 1_565
Mn1 O9 1.968763 1_554
Mn1 O12 1.968763 1_554
Mn1 O2 2.073957 1_554
Mn1 O15 2.079599 1_555
Co0 O4 1.914100 1_555
Co0 O1 1.914100 1_555
Co0 O8 1.914100 1_555
Co0 O14 1.914100 1_555
Co0 O5 1.930648 1_555
Co0 O11 1.930648 1_555
Co1 O13 1.930757 1_455
Co1 O1 1.963557 1_555
Co1 O7 1.992135 1_555
Co1 O11 2.043420 1_555
Co1 O2 2.046714 1_455
Co1 O12 2.269763 1_455
Co2 O3 1.930757 1_565
Co2 O8 1.963557 1_555
Co2 O15 1.992135 1_555
Co2 O5 2.043420 1_555
Co2 O10 2.046714 1_565
Co2 O6 2.269763 1_565
Co3 O13 1.930757 1_545
Co3 O4 1.963557 1_555
Co3 O7 1.992135 1_555
Co3 O11 2.043420 1_555
Co3 O2 2.046714 1_545
Co3 O9 2.269763 1_545
Co4 O3 1.930757 1_655
Co4 O14 1.963557 1_555
Co4 O15 1.992135 1_555
Co4 O5 2.043420 1_555
Co4 O10 2.046714 1_655
Co4 O0 2.269763 1_655
