# generated using pymatgen
data_Li9Co7O16
_symmetry_space_group_name_H-M   'P 1'
_cell_length_a   2.99874200
_cell_length_b   5.97340060
_cell_length_c   16.03808628
_cell_angle_alpha   88.94703315
_cell_angle_beta   89.91620025
_cell_angle_gamma   88.74163438
_symmetry_Int_Tables_number   1
_chemical_formula_structural   Li9Co7O16
_chemical_formula_sum   'Li9 Co7 O16'
_cell_volume   287.16727743
_cell_formula_units_Z   1
loop_
 _symmetry_equiv_pos_site_id
 _symmetry_equiv_pos_as_xyz
  1  'x, y, z'
loop_
 _atom_site_type_symbol
 _atom_site_label
 _atom_site_symmetry_multiplicity
 _atom_site_fract_x
 _atom_site_fract_y
 _atom_site_fract_z
 _atom_site_occupancy
  Li  Li0  1  0.00091100  0.24415200  0.62264900  1
  Li  Li1  1  0.50000000  0.50000000  0.50000000  1
  Li  Li2  1  0.99908900  0.75584800  0.37735100  1
  Li  Li3  1  0.50310700  0.99963800  0.74944400  1
  Li  Li4  1  0.99949700  0.75009700  0.87522000  1
  Li  Li5  1  0.50000000  0.50000000  0.00000000  1
  Li  Li6  1  0.00050300  0.24990300  0.12478000  1
  Li  Li7  1  0.49689300  0.00036200  0.25055600  1
  Li  Li8  1  0.50000000  0.00000000  0.50000000  1
  Co  Co0  1  0.99842900  0.76073400  0.62072100  1
  Co  Co1  1  0.00157100  0.23926600  0.37927900  1
  Co  Co2  1  0.50329500  0.49851700  0.25136700  1
  Co  Co3  1  0.99904000  0.74902800  0.12530600  1
  Co  Co4  1  0.50000000  0.00000000  0.00000000  1
  Co  Co5  1  0.00096000  0.25097200  0.87469400  1
  Co  Co6  1  0.49670500  0.50148300  0.74863300  1
  O  O0  1  0.46034100  0.51184200  0.62944300  1
  O  O1  1  0.99928300  0.74721200  0.51230400  1
  O  O2  1  0.46536100  0.01960800  0.37468600  1
  O  O3  1  0.00136700  0.26010300  0.75480400  1
  O  O4  1  0.50679100  0.00868900  0.87930100  1
  O  O5  1  0.00599600  0.75935600  0.00454400  1
  O  O6  1  0.50646900  0.50708600  0.13021900  1
  O  O7  1  0.00874000  0.26193000  0.25929100  1
  O  O8  1  0.53463900  0.98039200  0.62531400  1
  O  O9  1  0.00071700  0.25278800  0.48769600  1
  O  O10  1  0.53965900  0.48815800  0.37055700  1
  O  O11  1  0.99126000  0.73807000  0.74070900  1
  O  O12  1  0.49353100  0.49291400  0.86978100  1
  O  O13  1  0.99400400  0.24064400  0.99545600  1
  O  O14  1  0.49320900  0.99131100  0.12069900  1
  O  O15  1  0.99863300  0.73989700  0.24519600  1
loop_
_geom_bond_atom_site_label_1
_geom_bond_atom_site_label_2
_geom_bond_distance
_geom_bond_site_symmetry_2
Li0 O3 2.123406 1_555
Li0 O8 2.129160 1_445
Li0 O0 2.137856 1_555
Li0 O9 2.164055 1_555
Li0 O8 2.220985 1_545
Li0 O0 2.255773 1_455
Li1 O10 2.081659 1_555
Li1 O0 2.081659 1_555
Li1 O1 2.094420 1_455
Li1 O9 2.094420 1_655
Li1 O9 2.137738 1_555
Li1 O1 2.137738 1_555
Li2 O15 2.123406 1_555
Li2 O2 2.129160 1_665
Li2 O10 2.137856 1_555
Li2 O1 2.164055 1_555
Li2 O2 2.220985 1_565
Li2 O10 2.255773 1_655
Li3 O8 1.998213 1_555
Li3 O4 2.084404 1_565
Li3 O11 2.123843 1_555
Li3 O3 2.143269 1_565
Li3 O3 2.183572 1_665
Li3 O11 2.220539 1_455
Li4 O5 2.075994 1_656
Li4 O12 2.113543 1_655
Li4 O4 2.115773 1_565
Li4 O11 2.160009 1_555
Li4 O12 2.185742 1_555
Li4 O4 2.193558 1_665
Li5 O12 2.089797 1_554
Li5 O6 2.089797 1_555
Li5 O5 2.122027 1_555
Li5 O13 2.122027 1_554
Li5 O5 2.194430 1_655
Li5 O13 2.194430 1_454
Li6 O13 2.075994 1_454
Li6 O6 2.113543 1_455
Li6 O14 2.115773 1_545
Li6 O7 2.160009 1_555
Li6 O6 2.185742 1_555
Li6 O14 2.193558 1_445
Li7 O2 1.998213 1_555
Li7 O14 2.084404 1_545
Li7 O7 2.123843 1_555
Li7 O15 2.143269 1_545
Li7 O15 2.183572 1_445
Li7 O7 2.220539 1_655
Li8 O2 2.013757 1_555
Li8 O8 2.013757 1_545
Li8 O9 2.109819 1_555
Li8 O1 2.109819 1_545
Li8 O1 2.159024 1_445
Li8 O9 2.159024 1_655
Co0 O1 1.742154 1_555
Co0 O8 1.893261 1_555
Co0 O11 1.926772 1_555
Co0 O0 2.012726 1_655
Co0 O8 2.099793 1_655
Co0 O0 2.220510 1_555
Co1 O9 1.742154 1_555
Co1 O2 1.893261 1_555
Co1 O7 1.926772 1_555
Co1 O10 2.012726 1_455
Co1 O2 2.099793 1_455
Co1 O10 2.220510 1_555
Co2 O10 1.914634 1_555
Co2 O6 1.942731 1_555
Co2 O7 2.051973 1_655
Co2 O15 2.068415 1_455
Co2 O7 2.073086 1_555
Co2 O15 2.093689 1_555
Co3 O15 1.922577 1_555
Co3 O5 1.936737 1_655
Co3 O14 2.073845 1_555
Co3 O6 2.076018 1_655
Co3 O6 2.089473 1_555
Co3 O14 2.094262 1_655
Co4 O14 1.935612 1_545
Co4 O4 1.935612 1_554
Co4 O13 2.067520 1_454
Co4 O5 2.067520 1_645
Co4 O13 2.086981 1_554
Co4 O5 2.086981 1_545
Co5 O3 1.922577 1_555
Co5 O13 1.936737 1_455
Co5 O4 2.073845 1_555
Co5 O12 2.076018 1_455
Co5 O12 2.089473 1_555
Co5 O4 2.094262 1_455
Co6 O0 1.914634 1_555
Co6 O12 1.942731 1_555
Co6 O11 2.051973 1_455
Co6 O3 2.068415 1_655
Co6 O11 2.073086 1_555
Co6 O3 2.093689 1_555
