# generated using pymatgen
data_Rb3ErCl6
_symmetry_space_group_name_H-M   'P 1'
_cell_length_a   13.49356373
_cell_length_b   13.49356373
_cell_length_c   12.69889248
_cell_angle_alpha   80.89326009
_cell_angle_beta   80.89326009
_cell_angle_gamma   34.02548361
_symmetry_Int_Tables_number   1
_chemical_formula_structural   Rb3ErCl6
_chemical_formula_sum   'Rb12 Er4 Cl24'
_cell_volume   1275.95422790
_cell_formula_units_Z   4
loop_
 _symmetry_equiv_pos_site_id
 _symmetry_equiv_pos_as_xyz
  1  'x, y, z'
loop_
 _atom_site_type_symbol
 _atom_site_label
 _atom_site_symmetry_multiplicity
 _atom_site_fract_x
 _atom_site_fract_y
 _atom_site_fract_z
 _atom_site_occupancy
  Rb  Rb0  1  0.30166106  0.79842344  0.06657428  1
  Rb  Rb1  1  0.69833894  0.20157656  0.93342572  1
  Rb  Rb2  1  0.20157656  0.69833894  0.43342572  1
  Rb  Rb3  1  0.79842344  0.30166106  0.56657428  1
  Rb  Rb4  1  0.46777722  0.84086655  0.35523947  1
  Rb  Rb5  1  0.53222278  0.15913345  0.64476053  1
  Rb  Rb6  1  0.15913345  0.53222278  0.14476053  1
  Rb  Rb7  1  0.84086655  0.46777722  0.85523947  1
  Rb  Rb8  1  0.65168268  0.02469594  0.29987001  1
  Rb  Rb9  1  0.34831732  0.97530406  0.70012999  1
  Rb  Rb10  1  0.97530406  0.34831732  0.20012999  1
  Rb  Rb11  1  0.02469594  0.65168268  0.79987001  1
  Er  Er0  1  0.78425429  0.21574571  0.25000000  1
  Er  Er1  1  0.21574571  0.78425429  0.75000000  1
  Er  Er2  1  0.50000000  -0.00000000  0.00000000  1
  Er  Er3  1  0.00000000  0.50000000  0.50000000  1
  Cl  Cl0  1  0.62179245  0.72289851  0.08118649  1
  Cl  Cl1  1  0.37820755  0.27710149  0.91881351  1
  Cl  Cl2  1  0.27710149  0.37820755  0.41881351  1
  Cl  Cl3  1  0.72289851  0.62179245  0.58118649  1
  Cl  Cl4  1  0.49667317  0.38608282  0.17900818  1
  Cl  Cl5  1  0.50332683  0.61391718  0.82099182  1
  Cl  Cl6  1  0.61391718  0.50332683  0.32099182  1
  Cl  Cl7  1  0.38608282  0.49667317  0.67900818  1
  Cl  Cl8  1  0.78293765  0.86331135  0.03422463  1
  Cl  Cl9  1  0.21706235  0.13668865  0.96577537  1
  Cl  Cl10  1  0.13668865  0.21706235  0.46577537  1
  Cl  Cl11  1  0.86331135  0.78293765  0.53422463  1
  Cl  Cl12  1  0.91150312  0.97051530  0.69573844  1
  Cl  Cl13  1  0.08849688  0.02948470  0.30426156  1
  Cl  Cl14  1  0.02948470  0.08849688  0.80426156  1
  Cl  Cl15  1  0.97051530  0.91150312  0.19573844  1
  Cl  Cl16  1  0.71743494  0.16626745  0.43618983  1
  Cl  Cl17  1  0.28256506  0.83373255  0.56381017  1
  Cl  Cl18  1  0.83373255  0.28256506  0.06381017  1
  Cl  Cl19  1  0.16626745  0.71743494  0.93618983  1
  Cl  Cl20  1  0.36047396  0.14038391  0.18730270  1
  Cl  Cl21  1  0.63952604  0.85961609  0.81269730  1
  Cl  Cl22  1  0.85961609  0.63952604  0.31269730  1
  Cl  Cl23  1  0.14038391  0.36047396  0.68730270  1
loop_
_geom_bond_atom_site_label_1
_geom_bond_atom_site_label_2
_geom_bond_distance
_geom_bond_site_symmetry_2
Cl0 Er2 2.622016 1_565
Cl0 Rb10 3.237633 1_555
Cl0 Rb7 3.520757 1_554
Cl0 Rb0 3.553839 1_555
Cl0 Rb4 3.597930 1_555
Cl1 Er2 2.622016 1_556
Cl1 Rb11 3.237633 1_555
Cl1 Rb6 3.520757 1_556
Cl1 Rb1 3.553839 1_555
Cl1 Rb5 3.597930 1_555
Cl2 Er3 2.622016 1_555
Cl2 Rb8 3.237633 1_555
Cl2 Rb5 3.520757 1_555
Cl2 Rb2 3.553839 1_555
Cl2 Rb6 3.597930 1_555
Cl3 Er3 2.622016 1_655
Cl3 Rb9 3.237633 1_555
Cl3 Rb4 3.520757 1_555
Cl3 Rb3 3.553839 1_555
Cl3 Rb7 3.597930 1_555
Cl4 Er0 2.611737 1_555
Cl4 Rb6 3.207851 1_555
Cl4 Rb1 3.445388 1_554
Cl4 Rb8 3.500027 1_555
Cl4 Rb0 3.785017 1_555
Cl5 Er1 2.611737 1_555
Cl5 Rb7 3.207851 1_555
Cl5 Rb0 3.445388 1_556
Cl5 Rb9 3.500027 1_555
Cl5 Rb1 3.785017 1_555
Cl6 Er0 2.611737 1_555
Cl6 Rb4 3.207851 1_555
Cl6 Rb3 3.445388 1_555
Cl6 Rb10 3.500027 1_555
Cl6 Rb2 3.785017 1_555
Cl7 Er1 2.611737 1_555
Cl7 Rb5 3.207851 1_555
Cl7 Rb2 3.445388 1_555
Cl7 Rb11 3.500027 1_555
Cl7 Rb3 3.785017 1_555
Cl8 Er2 2.601154 1_565
Cl8 Rb6 3.221306 1_655
Cl8 Rb11 3.439329 1_654
Cl8 Rb8 3.646908 1_565
Cl8 Rb1 3.708334 1_564
Cl9 Er2 2.601154 1_556
Cl9 Rb7 3.221306 1_455
Cl9 Rb10 3.439329 1_456
Cl9 Rb9 3.646908 1_545
Cl9 Rb0 3.708334 1_546
Cl10 Er3 2.601154 1_555
Cl10 Rb4 3.221306 1_545
Cl10 Rb9 3.439329 1_545
Cl10 Rb10 3.646908 1_455
Cl10 Rb3 3.708334 1_455
Cl11 Er3 2.601154 1_655
Cl11 Rb5 3.221306 1_565
Cl11 Rb8 3.439329 1_565
Cl11 Rb11 3.646908 1_655
Cl11 Rb2 3.708334 1_655
Cl12 Er1 2.624806 1_655
Cl12 Rb11 3.246041 1_655
Cl12 Rb5 3.467764 1_565
Cl12 Rb3 3.486471 1_565
Cl12 Rb1 3.531349 1_565
Cl13 Er0 2.624806 1_455
Cl13 Rb10 3.246041 1_455
Cl13 Rb4 3.467764 1_545
Cl13 Rb2 3.486471 1_545
Cl13 Rb0 3.531349 1_545
Cl14 Er1 2.624806 1_545
Cl14 Rb9 3.246041 1_545
Cl14 Rb7 3.467764 1_455
Cl14 Rb1 3.486471 1_455
Cl14 Rb3 3.531349 1_455
Cl15 Er0 2.624806 1_565
Cl15 Rb8 3.246041 1_565
Cl15 Rb6 3.467764 1_655
Cl15 Rb0 3.486471 1_655
Cl15 Rb2 3.531349 1_655
Cl16 Er0 2.583094 1_555
Cl16 Rb5 3.390136 1_555
Cl16 Rb8 3.431557 1_555
Cl16 Rb3 3.480396 1_555
Cl16 Rb2 3.764436 1_645
Cl17 Er1 2.583094 1_555
Cl17 Rb4 3.390136 1_555
Cl17 Rb9 3.431557 1_555
Cl17 Rb2 3.480396 1_555
Cl17 Rb3 3.764436 1_465
Cl18 Er0 2.583094 1_555
Cl18 Rb7 3.390136 1_554
Cl18 Rb10 3.431557 1_555
Cl18 Rb1 3.480396 1_554
Cl18 Rb0 3.764436 1_645
Cl19 Er1 2.583094 1_555
Cl19 Rb6 3.390136 1_556
Cl19 Rb11 3.431557 1_555
Cl19 Rb0 3.480396 1_556
Cl19 Rb1 3.764436 1_465
Cl20 Er2 2.624403 1_555
Cl20 Rb10 3.258234 1_455
Cl20 Rb8 3.290116 1_555
Cl20 Rb6 3.373203 1_555
Cl20 Rb4 3.395282 1_545
Cl21 Er2 2.624403 1_566
Cl21 Rb11 3.258234 1_655
Cl21 Rb9 3.290116 1_555
Cl21 Rb7 3.373203 1_555
Cl21 Rb5 3.395282 1_565
Cl22 Er3 2.624403 1_655
Cl22 Rb8 3.258234 1_565
Cl22 Rb10 3.290116 1_555
Cl22 Rb4 3.373203 1_555
Cl22 Rb6 3.395282 1_655
Cl23 Er3 2.624403 1_555
Cl23 Rb9 3.258234 1_545
Cl23 Rb11 3.290116 1_555
Cl23 Rb5 3.373203 1_555
Cl23 Rb7 3.395282 1_455
