# generated using pymatgen
data_PrCdCu
_symmetry_space_group_name_H-M   'P 1'
_cell_length_a   7.63890019
_cell_length_b   7.63890019
_cell_length_c   4.02832129
_cell_angle_alpha   90.00000000
_cell_angle_beta   90.00000000
_cell_angle_gamma   119.99999797
_symmetry_Int_Tables_number   1
_chemical_formula_structural   PrCdCu
_chemical_formula_sum   'Pr3 Cd3 Cu3'
_cell_volume   203.57123569
_cell_formula_units_Z   3
loop_
 _symmetry_equiv_pos_site_id
 _symmetry_equiv_pos_as_xyz
  1  'x, y, z'
loop_
 _atom_site_type_symbol
 _atom_site_label
 _atom_site_symmetry_multiplicity
 _atom_site_fract_x
 _atom_site_fract_y
 _atom_site_fract_z
 _atom_site_occupancy
  Pr  Pr0  1  0.41387947  0.00000000  0.50000000  1
  Pr  Pr1  1  0.00000000  0.41387947  0.50000000  1
  Pr  Pr2  1  0.58612053  0.58612053  0.50000000  1
  Cd  Cd0  1  0.75614466  0.00000000  -0.00000000  1
  Cd  Cd1  1  0.00000000  0.75614466  0.00000000  1
  Cd  Cd2  1  0.24385534  0.24385534  -0.00000000  1
  Cu  Cu0  1  0.33333300  0.66666700  -0.00000000  1
  Cu  Cu1  1  0.66666700  0.33333300  -0.00000000  1
  Cu  Cu2  1  0.00000000  0.00000000  0.50000000  1
loop_
_geom_bond_atom_site_label_1
_geom_bond_atom_site_label_2
_geom_bond_distance
_geom_bond_site_symmetry_2
Cd0 Cu2 2.743505 1_655
Cd0 Cu2 2.743505 1_654
Cd0 Cu1 2.948091 1_555
Cd0 Cu0 2.948096 1_545
Cd0 Cd1 3.226441 1_645
Cd0 Cd2 3.226441 1_655
Cd0 Pr0 3.300395 1_554
Cd0 Pr0 3.300395 1_555
Cd0 Pr2 3.410729 1_545
Cd0 Pr2 3.410729 1_544
Cd0 Pr1 3.410729 1_655
Cd0 Pr1 3.410729 1_654
Cd1 Cu2 2.743505 1_565
Cd1 Cu2 2.743505 1_564
Cd1 Cu0 2.948091 1_555
Cd1 Cu1 2.948096 1_455
Cd1 Cd2 3.226441 1_565
Cd1 Pr1 3.300395 1_554
Cd1 Pr1 3.300395 1_555
Cd1 Pr2 3.410729 1_455
Cd1 Pr2 3.410729 1_454
Cd1 Pr0 3.410729 1_565
Cd1 Pr0 3.410729 1_564
Cd2 Cu2 2.743505 1_555
Cd2 Cu2 2.743505 1_554
Cd2 Cu1 2.948098 1_555
Cd2 Cu0 2.948098 1_555
Cd2 Pr2 3.300395 1_555
Cd2 Pr2 3.300395 1_554
Cd2 Pr1 3.410729 1_555
Cd2 Pr0 3.410729 1_554
Cd2 Pr1 3.410729 1_554
Cd2 Pr0 3.410729 1_555
Cu0 Pr0 3.058161 1_565
Cu0 Pr0 3.058161 1_564
Cu0 Pr1 3.058163 1_555
Cu0 Pr1 3.058163 1_554
Cu0 Pr2 3.058167 1_554
Cu0 Pr2 3.058167 1_555
Cu1 Pr1 3.058161 1_655
Cu1 Pr1 3.058161 1_654
Cu1 Pr0 3.058163 1_554
Cu1 Pr0 3.058163 1_555
Cu1 Pr2 3.058167 1_554
Cu1 Pr2 3.058167 1_555
Cu2 Pr1 3.161584 1_555
Cu2 Pr0 3.161584 1_555
Cu2 Pr2 3.161584 1_445
