# generated using pymatgen
data_Ce3SnO8
_symmetry_space_group_name_H-M   'P 1'
_cell_length_a   12.70972521
_cell_length_b   12.70972521
_cell_length_c   12.70972503
_cell_angle_alpha   17.24263188
_cell_angle_beta   17.24263188
_cell_angle_gamma   17.24262943
_symmetry_Int_Tables_number   1
_chemical_formula_structural   Ce3SnO8
_chemical_formula_sum   'Ce3 Sn1 O8'
_cell_volume   157.40383324
_cell_formula_units_Z   1
loop_
 _symmetry_equiv_pos_site_id
 _symmetry_equiv_pos_as_xyz
  1  'x, y, z'
loop_
 _atom_site_type_symbol
 _atom_site_label
 _atom_site_symmetry_multiplicity
 _atom_site_fract_x
 _atom_site_fract_y
 _atom_site_fract_z
 _atom_site_occupancy
  Ce  Ce0  1  0.25210800  0.25210800  0.25210800  1
  Ce  Ce1  1  0.50000000  0.50000000  0.50000000  1
  Ce  Ce2  1  0.74789200  0.74789200  0.74789200  1
  Sn  Sn0  1  0.00000000  0.00000000  0.00000000  1
  O  O0  1  0.81184000  0.81184000  0.81184000  1
  O  O1  1  0.05858700  0.05858700  0.05858700  1
  O  O2  1  0.31564000  0.31564000  0.31564000  1
  O  O3  1  0.56396600  0.56396600  0.56396600  1
  O  O4  1  0.43603400  0.43603400  0.43603400  1
  O  O5  1  0.68436000  0.68436000  0.68436000  1
  O  O6  1  0.94141300  0.94141300  0.94141300  1
  O  O7  1  0.18816000  0.18816000  0.18816000  1
loop_
_geom_bond_atom_site_label_1
_geom_bond_atom_site_label_2
_geom_bond_distance
_geom_bond_site_symmetry_2
Ce0 O3 2.343131 1_455
Ce0 O3 2.343131 1_545
Ce0 O3 2.343131 1_554
Ce0 O6 2.358520 1_544
Ce0 O6 2.358520 1_454
Ce0 O6 2.358520 1_445
Ce0 O2 2.385857 1_555
Ce0 O7 2.401480 1_555
Ce1 O7 2.343364 1_565
Ce1 O7 2.343364 1_655
Ce1 O0 2.343364 1_455
Ce1 O0 2.343364 1_545
Ce1 O7 2.343364 1_556
Ce1 O0 2.343364 1_554
Ce1 O3 2.402156 1_555
Ce1 O4 2.402156 1_555
Ce2 O4 2.343131 1_655
Ce2 O4 2.343131 1_565
Ce2 O4 2.343131 1_556
Ce2 O1 2.358520 1_566
Ce2 O1 2.358520 1_656
Ce2 O1 2.358520 1_665
Ce2 O5 2.385857 1_555
Ce2 O0 2.401480 1_555
O1 Sn0 2.200155 1_555
O2 Sn0 2.298119 1_565
O2 Sn0 2.298119 1_655
O2 Sn0 2.298119 1_556
O5 Sn0 2.298119 1_656
O5 Sn0 2.298119 1_566
O5 Sn0 2.298119 1_665
O6 Sn0 2.200155 1_666
