# generated using pymatgen
data_Te2MoWSeS
_symmetry_space_group_name_H-M   'P 1'
_cell_length_a   3.39958304
_cell_length_b   3.39958304
_cell_length_c   38.72243400
_cell_angle_alpha   90.00000000
_cell_angle_beta   90.00000000
_cell_angle_gamma   119.99998135
_symmetry_Int_Tables_number   1
_chemical_formula_structural   Te2MoWSeS
_chemical_formula_sum   'Te4 Mo2 W2 Se2 S2'
_cell_volume   387.56510687
_cell_formula_units_Z   2
loop_
 _symmetry_equiv_pos_site_id
 _symmetry_equiv_pos_as_xyz
  1  'x, y, z'
loop_
 _atom_site_type_symbol
 _atom_site_label
 _atom_site_symmetry_multiplicity
 _atom_site_fract_x
 _atom_site_fract_y
 _atom_site_fract_z
 _atom_site_occupancy
  Te  Te0  1  0.00000000  0.00000000  0.70620900  1
  Te  Te1  1  0.33333300  0.66666700  0.04553900  1
  Te  Te2  1  0.33333300  0.66666700  0.14233500  1
  Te  Te3  1  0.00000000  0.00000000  0.60889100  1
  Mo  Mo0  1  0.00000000  0.00000000  0.09390300  1
  Mo  Mo1  1  0.33333300  0.66666700  0.28178800  1
  W  W0  1  0.00000000  0.00000000  0.46964700  1
  W  W1  1  0.33333300  0.66666700  0.65757800  1
  Se  Se0  1  0.33333300  0.66666700  0.42684700  1
  Se  Se1  1  0.33333300  0.66666700  0.51243200  1
  S  S0  1  0.00000000  0.00000000  0.32053800  1
  S  S1  1  0.00000000  0.00000000  0.24304100  1
loop_
_geom_bond_atom_site_label_1
_geom_bond_atom_site_label_2
_geom_bond_distance
_geom_bond_site_symmetry_2
Te0 W1 2.720016 1_545
Te0 W1 2.720018 1_555
Te0 W1 2.720018 1_445
Te3 W1 2.721517 1_545
Te3 W1 2.721520 1_555
Te3 W1 2.721520 1_445
Mo0 Te1 2.712868 1_545
Mo0 Te1 2.712871 1_445
Mo0 Te1 2.712871 1_555
Mo0 Te2 2.714687 1_545
Mo0 Te2 2.714689 1_555
Mo0 Te2 2.714689 1_445
Mo1 S1 2.470529 1_565
Mo1 S1 2.470532 1_665
Mo1 S1 2.470532 1_555
Mo1 S0 2.470600 1_565
Mo1 S0 2.470603 1_665
Mo1 S0 2.470603 1_555
Se0 W0 2.568869 1_565
Se0 W0 2.568872 1_665
Se0 W0 2.568872 1_555
Se1 W0 2.568495 1_565
Se1 W0 2.568497 1_665
Se1 W0 2.568497 1_555
