# generated using pymatgen
data_LiCd3
_symmetry_space_group_name_H-M   'P 1'
_cell_length_a   6.19106800
_cell_length_b   6.19106800
_cell_length_c   19.41326786
_cell_angle_alpha   90.00000000
_cell_angle_beta   90.00000000
_cell_angle_gamma   119.99999018
_symmetry_Int_Tables_number   1
_chemical_formula_structural   LiCd3
_chemical_formula_sum   'Li8 Cd24'
_cell_volume   644.40732730
_cell_formula_units_Z   8
loop_
 _symmetry_equiv_pos_site_id
 _symmetry_equiv_pos_as_xyz
  1  'x, y, z'
loop_
 _atom_site_type_symbol
 _atom_site_label
 _atom_site_symmetry_multiplicity
 _atom_site_fract_x
 _atom_site_fract_y
 _atom_site_fract_z
 _atom_site_occupancy
  Li  Li0_0  1  0.16666650  0.33333350  0.00000000  1
  Li  Li0_1  1  0.16666650  0.33333350  0.50000000  1
  Li  Li0_2  1  0.16666650  0.83333350  0.00000000  1
  Li  Li0_3  1  0.16666650  0.83333350  0.50000000  1
  Li  Li0_4  1  0.66666650  0.33333350  0.00000000  1
  Li  Li0_5  1  0.66666650  0.33333350  0.50000000  1
  Li  Li0_6  1  0.66666650  0.83333350  0.00000000  1
  Li  Li0_7  1  0.66666650  0.83333350  0.50000000  1
  Cd  Cd0_0  1  0.16666650  0.33333350  0.25000000  1
  Cd  Cd0_1  1  0.16666650  0.33333350  0.75000000  1
  Cd  Cd0_2  1  0.16666650  0.83333350  0.25000000  1
  Cd  Cd0_3  1  0.16666650  0.83333350  0.75000000  1
  Cd  Cd0_4  1  0.66666650  0.33333350  0.25000000  1
  Cd  Cd0_5  1  0.66666650  0.33333350  0.75000000  1
  Cd  Cd0_6  1  0.66666650  0.83333350  0.25000000  1
  Cd  Cd0_7  1  0.66666650  0.83333350  0.75000000  1
  Cd  Cd1_0  1  0.00000000  0.00000000  0.11725896  1
  Cd  Cd1_1  1  0.00000000  0.00000000  0.61725896  1
  Cd  Cd1_2  1  0.00000000  0.50000000  0.11725896  1
  Cd  Cd1_3  1  0.00000000  0.50000000  0.61725896  1
  Cd  Cd1_4  1  0.50000000  0.00000000  0.11725896  1
  Cd  Cd1_5  1  0.50000000  0.00000000  0.61725896  1
  Cd  Cd1_6  1  0.50000000  0.50000000  0.11725896  1
  Cd  Cd1_7  1  0.50000000  0.50000000  0.61725896  1
  Cd  Cd2_0  1  0.00000000  0.00000000  0.38274104  1
  Cd  Cd2_1  1  0.00000000  0.00000000  0.88274104  1
  Cd  Cd2_2  1  0.00000000  0.50000000  0.38274104  1
  Cd  Cd2_3  1  0.00000000  0.50000000  0.88274104  1
  Cd  Cd2_4  1  0.50000000  0.00000000  0.38274104  1
  Cd  Cd2_5  1  0.50000000  0.00000000  0.88274104  1
  Cd  Cd2_6  1  0.50000000  0.50000000  0.38274104  1
  Cd  Cd2_7  1  0.50000000  0.50000000  0.88274104  1
loop_
_geom_bond_atom_site_label_1
_geom_bond_atom_site_label_2
_geom_bond_distance
_geom_bond_site_symmetry_2
Li0_0 Li0_2 3.095534 1_545
Li0_0 Li0_4 3.095534 1_555
Li0_0 Li0_2 3.095534 1_555
Li0_0 Li0_4 3.095534 1_455
Li0_0 Li0_6 3.095534 1_445
Li0_0 Li0_6 3.095534 1_555
Li0_1 Li0_3 3.095534 1_545
Li0_1 Li0_5 3.095534 1_555
Li0_1 Li0_3 3.095534 1_555
Li0_1 Li0_5 3.095534 1_455
Li0_1 Li0_7 3.095534 1_445
Li0_1 Li0_7 3.095534 1_555
Li0_2 Li0_6 3.095534 1_455
Li0_2 Li0_6 3.095534 1_555
Li0_2 Li0_4 3.095534 1_565
Li0_2 Li0_4 3.095534 1_455
Li0_3 Li0_7 3.095534 1_455
Li0_3 Li0_7 3.095534 1_555
Li0_3 Li0_5 3.095534 1_565
Li0_3 Li0_5 3.095534 1_455
Li0_4 Li0_6 3.095534 1_545
Li0_4 Li0_6 3.095534 1_555
Li0_5 Li0_7 3.095534 1_545
Li0_5 Li0_7 3.095534 1_555
Cd0_0 Cd0_2 3.095534 1_545
Cd0_0 Cd0_4 3.095534 1_555
Cd0_0 Cd0_2 3.095534 1_555
Cd0_0 Cd0_4 3.095534 1_455
Cd0_0 Cd0_6 3.095534 1_445
Cd0_0 Cd0_6 3.095534 1_555
Cd0_0 Cd2_2 3.136034 1_555
Cd0_0 Cd1_2 3.136034 1_555
Cd0_0 Cd2_0 3.136036 1_555
Cd0_0 Cd1_0 3.136036 1_555
Cd0_0 Cd2_6 3.136036 1_555
Cd0_0 Cd1_6 3.136036 1_555
Cd0_1 Cd0_3 3.095534 1_545
Cd0_1 Cd0_5 3.095534 1_555
Cd0_1 Cd0_5 3.095534 1_455
Cd0_1 Cd0_3 3.095534 1_555
Cd0_1 Cd0_7 3.095534 1_445
Cd0_1 Cd0_7 3.095534 1_555
Cd0_1 Cd2_3 3.136034 1_555
Cd0_1 Cd1_3 3.136034 1_555
Cd0_1 Cd1_7 3.136036 1_555
Cd0_1 Cd1_1 3.136036 1_555
Cd0_1 Cd2_1 3.136036 1_555
Cd0_1 Cd2_7 3.136036 1_555
Cd0_2 Cd0_6 3.095534 1_455
Cd0_2 Cd0_6 3.095534 1_555
Cd0_2 Cd0_4 3.095534 1_565
Cd0_2 Cd0_4 3.095534 1_455
Cd0_2 Cd2_0 3.136034 1_565
Cd0_2 Cd1_0 3.136034 1_565
Cd0_2 Cd2_4 3.136036 1_565
Cd0_2 Cd1_4 3.136036 1_565
Cd0_2 Cd1_2 3.136036 1_555
Cd0_2 Cd2_2 3.136036 1_555
Cd0_3 Cd0_7 3.095534 1_455
Cd0_3 Cd0_7 3.095534 1_555
Cd0_3 Cd0_5 3.095534 1_565
Cd0_3 Cd0_5 3.095534 1_455
Cd0_3 Cd1_1 3.136034 1_565
Cd0_3 Cd2_1 3.136034 1_565
Cd0_3 Cd2_5 3.136036 1_565
Cd0_3 Cd1_5 3.136036 1_565
Cd0_3 Cd1_3 3.136036 1_555
Cd0_3 Cd2_3 3.136036 1_555
Cd0_4 Cd0_6 3.095534 1_545
Cd0_4 Cd0_6 3.095534 1_555
Cd0_4 Cd2_6 3.136034 1_555
Cd0_4 Cd1_6 3.136034 1_555
Cd0_4 Cd1_4 3.136036 1_555
Cd0_4 Cd2_4 3.136036 1_555
Cd0_4 Cd2_2 3.136036 1_655
Cd0_4 Cd1_2 3.136036 1_655
Cd0_5 Cd0_7 3.095534 1_545
Cd0_5 Cd0_7 3.095534 1_555
Cd0_5 Cd1_7 3.136034 1_555
Cd0_5 Cd2_7 3.136034 1_555
Cd0_5 Cd2_5 3.136036 1_555
Cd0_5 Cd1_5 3.136036 1_555
Cd0_5 Cd2_3 3.136036 1_655
Cd0_5 Cd1_3 3.136036 1_655
Cd0_6 Cd2_4 3.136034 1_565
Cd0_6 Cd1_4 3.136034 1_565
Cd0_6 Cd2_0 3.136036 1_665
Cd0_6 Cd1_0 3.136036 1_665
Cd0_6 Cd2_6 3.136036 1_555
Cd0_6 Cd1_6 3.136036 1_555
Cd0_7 Cd1_5 3.136034 1_565
Cd0_7 Cd2_5 3.136034 1_565
Cd0_7 Cd2_1 3.136036 1_665
Cd0_7 Cd1_1 3.136036 1_665
Cd0_7 Cd2_7 3.136036 1_555
Cd0_7 Cd1_7 3.136036 1_555
Cd1_0 Li0_2 2.894133 1_545
Cd1_0 Li0_6 2.894135 1_445
Cd1_0 Li0_0 2.894135 1_555
Cd1_0 Cd1_2 3.095534 1_555
Cd1_0 Cd1_4 3.095534 1_455
Cd1_0 Cd1_4 3.095534 1_555
Cd1_0 Cd1_2 3.095534 1_545
Cd1_0 Cd1_6 3.095534 1_445
Cd1_0 Cd1_6 3.095534 1_555
Cd1_1 Li0_3 2.894133 1_545
Cd1_1 Li0_7 2.894135 1_445
Cd1_1 Li0_1 2.894135 1_555
Cd1_1 Cd1_5 3.095534 1_455
Cd1_1 Cd1_5 3.095534 1_555
Cd1_1 Cd1_3 3.095534 1_555
Cd1_1 Cd1_3 3.095534 1_545
Cd1_1 Cd1_7 3.095534 1_555
Cd1_1 Cd1_7 3.095534 1_445
Cd1_2 Li0_0 2.894133 1_555
Cd1_2 Li0_4 2.894135 1_455
Cd1_2 Li0_2 2.894135 1_555
Cd1_2 Cd1_6 3.095534 1_555
Cd1_2 Cd1_6 3.095534 1_455
Cd1_2 Cd1_4 3.095534 1_565
Cd1_2 Cd1_4 3.095534 1_455
Cd1_3 Li0_1 2.894133 1_555
Cd1_3 Li0_3 2.894135 1_555
Cd1_3 Li0_5 2.894135 1_455
Cd1_3 Cd1_7 3.095534 1_455
Cd1_3 Cd1_7 3.095534 1_555
Cd1_3 Cd1_5 3.095534 1_455
Cd1_3 Cd1_5 3.095534 1_565
Cd1_4 Li0_6 2.894133 1_545
Cd1_4 Li0_2 2.894135 1_545
Cd1_4 Li0_4 2.894135 1_555
Cd1_4 Cd1_6 3.095534 1_545
Cd1_4 Cd1_6 3.095534 1_555
Cd1_5 Li0_7 2.894133 1_545
Cd1_5 Li0_3 2.894135 1_545
Cd1_5 Li0_5 2.894135 1_555
Cd1_5 Cd1_7 3.095534 1_545
Cd1_5 Cd1_7 3.095534 1_555
Cd1_6 Li0_4 2.894133 1_555
Cd1_6 Li0_6 2.894135 1_555
Cd1_6 Li0_0 2.894135 1_555
Cd1_7 Li0_5 2.894133 1_555
Cd1_7 Li0_1 2.894135 1_555
Cd1_7 Li0_7 2.894135 1_555
Cd2_0 Li0_3 2.894133 1_545
Cd2_0 Li0_7 2.894135 1_445
Cd2_0 Li0_1 2.894135 1_555
Cd2_0 Cd2_2 3.095534 1_545
Cd2_0 Cd2_2 3.095534 1_555
Cd2_0 Cd2_4 3.095534 1_555
Cd2_0 Cd2_4 3.095534 1_455
Cd2_0 Cd2_6 3.095534 1_555
Cd2_0 Cd2_6 3.095534 1_445
Cd2_1 Li0_2 2.894133 1_546
Cd2_1 Li0_6 2.894135 1_446
Cd2_1 Li0_0 2.894135 1_556
Cd2_1 Cd2_5 3.095534 1_455
Cd2_1 Cd2_3 3.095534 1_545
Cd2_1 Cd2_3 3.095534 1_555
Cd2_1 Cd2_5 3.095534 1_555
Cd2_1 Cd2_7 3.095534 1_555
Cd2_1 Cd2_7 3.095534 1_445
Cd2_2 Li0_1 2.894133 1_555
Cd2_2 Li0_3 2.894135 1_555
Cd2_2 Li0_5 2.894135 1_455
Cd2_2 Cd2_6 3.095534 1_555
Cd2_2 Cd2_6 3.095534 1_455
Cd2_2 Cd2_4 3.095534 1_565
Cd2_2 Cd2_4 3.095534 1_455
Cd2_3 Li0_0 2.894133 1_556
Cd2_3 Li0_2 2.894135 1_556
Cd2_3 Li0_4 2.894135 1_456
Cd2_3 Cd2_7 3.095534 1_555
Cd2_3 Cd2_7 3.095534 1_455
Cd2_3 Cd2_5 3.095534 1_565
Cd2_3 Cd2_5 3.095534 1_455
Cd2_4 Li0_7 2.894133 1_545
Cd2_4 Li0_3 2.894135 1_545
Cd2_4 Li0_5 2.894135 1_555
Cd2_4 Cd2_6 3.095534 1_555
Cd2_4 Cd2_6 3.095534 1_545
Cd2_5 Li0_6 2.894133 1_546
Cd2_5 Li0_4 2.894135 1_556
Cd2_5 Li0_2 2.894135 1_546
Cd2_5 Cd2_7 3.095534 1_555
Cd2_5 Cd2_7 3.095534 1_545
Cd2_6 Li0_5 2.894133 1_555
Cd2_6 Li0_1 2.894135 1_555
Cd2_6 Li0_7 2.894135 1_555
Cd2_7 Li0_4 2.894133 1_556
Cd2_7 Li0_6 2.894135 1_556
Cd2_7 Li0_0 2.894135 1_556
