# generated using pymatgen
data_MgBi5
_symmetry_space_group_name_H-M   'P 1'
_cell_length_a   6.07768869
_cell_length_b   6.07768869
_cell_length_c   5.68905900
_cell_angle_alpha   90.00000000
_cell_angle_beta   90.00000000
_cell_angle_gamma   120.00000750
_symmetry_Int_Tables_number   1
_chemical_formula_structural   MgBi5
_chemical_formula_sum   'Mg1 Bi5'
_cell_volume   181.99017326
_cell_formula_units_Z   1
loop_
 _symmetry_equiv_pos_site_id
 _symmetry_equiv_pos_as_xyz
  1  'x, y, z'
loop_
 _atom_site_type_symbol
 _atom_site_label
 _atom_site_symmetry_multiplicity
 _atom_site_fract_x
 _atom_site_fract_y
 _atom_site_fract_z
 _atom_site_occupancy
  Mg  Mg0  1  0.00000000  0.00000000  0.50000000  1
  Bi  Bi0  1  0.66666700  0.33333300  0.50000000  1
  Bi  Bi1  1  0.30833600  0.00000000  0.00000000  1
  Bi  Bi2  1  0.69166400  0.69166400  0.00000000  1
  Bi  Bi3  1  0.00000000  0.30833600  0.00000000  1
  Bi  Bi4  1  0.33333300  0.66666700  0.50000000  1
loop_
_geom_bond_atom_site_label_1
_geom_bond_atom_site_label_2
_geom_bond_distance
_geom_bond_site_symmetry_2
Bi0 Bi4 3.508951 1_545
Bi0 Bi4 3.508951 1_655
Bi0 Mg0 3.508952 1_655
Bi0 Mg0 3.508957 1_665
Bi0 Mg0 3.508957 1_555
Bi0 Bi4 3.508962 1_555
Bi0 Bi3 3.539274 1_655
Bi0 Bi3 3.539274 1_656
Bi0 Bi1 3.539276 1_555
Bi0 Bi1 3.539276 1_556
Bi0 Bi2 3.539277 1_556
Bi0 Bi2 3.539277 1_555
Bi1 Mg0 3.406334 1_554
Bi1 Mg0 3.406334 1_555
Bi1 Bi4 3.539274 1_545
Bi1 Bi4 3.539274 1_544
Bi2 Mg0 3.406334 1_664
Bi2 Mg0 3.406334 1_665
Bi2 Bi4 3.539277 1_555
Bi2 Bi4 3.539277 1_554
Bi3 Mg0 3.406334 1_554
Bi3 Mg0 3.406334 1_555
Bi3 Bi4 3.539276 1_555
Bi3 Bi4 3.539276 1_554
Bi4 Mg0 3.508952 1_565
Bi4 Mg0 3.508957 1_665
Bi4 Mg0 3.508957 1_555
