# generated using pymatgen
data_Zr6Fe16Si7
_symmetry_space_group_name_H-M   'P 1'
_cell_length_a   8.09061255
_cell_length_b   8.09061255
_cell_length_c   8.09061255
_cell_angle_alpha   60.00000000
_cell_angle_beta   60.00000000
_cell_angle_gamma   60.00000000
_symmetry_Int_Tables_number   1
_chemical_formula_structural   Zr6Fe16Si7
_chemical_formula_sum   'Zr6 Fe16 Si7'
_cell_volume   374.48050523
_cell_formula_units_Z   1
loop_
 _symmetry_equiv_pos_site_id
 _symmetry_equiv_pos_as_xyz
  1  'x, y, z'
loop_
 _atom_site_type_symbol
 _atom_site_label
 _atom_site_symmetry_multiplicity
 _atom_site_fract_x
 _atom_site_fract_y
 _atom_site_fract_z
 _atom_site_occupancy
  Zr  Zr0  1  0.70797700  0.70797700  0.29202300  1
  Zr  Zr1  1  0.29202300  0.70797700  0.29202300  1
  Zr  Zr2  1  0.70797700  0.29202300  0.29202300  1
  Zr  Zr3  1  0.29202300  0.29202300  0.70797700  1
  Zr  Zr4  1  0.70797700  0.29202300  0.70797700  1
  Zr  Zr5  1  0.29202300  0.70797700  0.70797700  1
  Fe  Fe0  1  0.87774500  0.87774500  0.36676600  1
  Fe  Fe1  1  0.87774500  0.36676600  0.87774500  1
  Fe  Fe2  1  0.36676600  0.87774500  0.87774500  1
  Fe  Fe3  1  0.87774500  0.87774500  0.87774500  1
  Fe  Fe4  1  0.12225500  0.12225500  0.63323400  1
  Fe  Fe5  1  0.12225500  0.63323400  0.12225500  1
  Fe  Fe6  1  0.63323400  0.12225500  0.12225500  1
  Fe  Fe7  1  0.12225500  0.12225500  0.12225500  1
  Fe  Fe8  1  0.67625900  0.67625900  0.97122300  1
  Fe  Fe9  1  0.67625900  0.97122300  0.67625900  1
  Fe  Fe10  1  0.97122300  0.67625900  0.67625900  1
  Fe  Fe11  1  0.67625900  0.67625900  0.67625900  1
  Fe  Fe12  1  0.32374100  0.32374100  0.02877700  1
  Fe  Fe13  1  0.32374100  0.02877700  0.32374100  1
  Fe  Fe14  1  0.02877700  0.32374100  0.32374100  1
  Fe  Fe15  1  0.32374100  0.32374100  0.32374100  1
  Si  Si0  1  0.00000000  0.00000000  0.00000000  1
  Si  Si1  1  0.00000000  0.00000000  0.50000000  1
  Si  Si2  1  0.50000000  0.00000000  0.50000000  1
  Si  Si3  1  0.00000000  0.50000000  0.50000000  1
  Si  Si4  1  0.50000000  0.50000000  0.00000000  1
  Si  Si5  1  0.00000000  0.50000000  0.00000000  1
  Si  Si6  1  0.50000000  0.00000000  0.00000000  1
loop_
_geom_bond_atom_site_label_1
_geom_bond_atom_site_label_2
_geom_bond_distance
_geom_bond_site_symmetry_2
Fe0 Si0 2.422841 1_665
Fe0 Fe10 2.465427 1_555
Fe0 Fe9 2.465427 1_555
Fe0 Fe11 2.465431 1_555
Fe0 Si1 2.495888 1_665
Fe0 Si2 2.495894 1_565
Fe0 Si3 2.495894 1_655
Fe0 Zr1 2.772465 1_655
Fe0 Zr2 2.772465 1_565
Fe0 Zr0 2.772472 1_555
Fe0 Fe7 2.797648 1_665
Fe0 Fe6 2.797659 1_565
Fe0 Fe5 2.797659 1_655
Fe1 Si0 2.422841 1_656
Fe1 Fe10 2.465427 1_555
Fe1 Fe8 2.465427 1_555
Fe1 Fe11 2.465431 1_555
Fe1 Si5 2.495888 1_656
Fe1 Si4 2.495894 1_556
Fe1 Si3 2.495894 1_655
Fe1 Zr2 2.772465 1_556
Fe1 Zr3 2.772465 1_655
Fe1 Zr4 2.772472 1_555
Fe1 Fe7 2.797648 1_656
Fe1 Fe6 2.797659 1_556
Fe1 Fe4 2.797659 1_655
Fe2 Si0 2.422841 1_566
Fe2 Fe8 2.465427 1_555
Fe2 Fe9 2.465427 1_555
Fe2 Si6 2.495888 1_566
Fe2 Si4 2.495894 1_556
Fe2 Si2 2.495894 1_565
Fe2 Zr1 2.772465 1_556
Fe2 Zr3 2.772465 1_565
Fe2 Zr5 2.772472 1_555
Fe2 Fe7 2.797648 1_566
Fe2 Fe4 2.797659 1_565
Fe2 Fe5 2.797659 1_556
Fe3 Si0 2.422834 1_666
Fe3 Fe8 2.465433 1_555
Fe3 Fe9 2.465433 1_555
Fe3 Si6 2.495894 1_566
Fe3 Si5 2.495894 1_656
Fe3 Si1 2.495894 1_665
Fe3 Zr5 2.772466 1_655
Fe3 Zr0 2.772466 1_556
Fe3 Zr4 2.772466 1_565
Fe3 Fe4 2.797648 1_665
Fe3 Fe5 2.797648 1_656
Fe3 Fe6 2.797648 1_566
Fe4 Si0 2.422841 1_556
Fe4 Si1 2.495888 1_555
Fe4 Si2 2.495894 1_555
Fe4 Si3 2.495894 1_555
Fe4 Zr5 2.772465 1_545
Fe4 Zr4 2.772465 1_455
Fe4 Zr3 2.772472 1_555
Fe5 Si0 2.422841 1_565
Fe5 Si5 2.495888 1_555
Fe5 Si4 2.495894 1_555
Fe5 Si3 2.495894 1_555
Fe5 Zr5 2.772465 1_554
Fe5 Zr0 2.772465 1_455
Fe5 Zr1 2.772472 1_555
Fe6 Si0 2.422841 1_655
Fe6 Si6 2.495888 1_555
Fe6 Si4 2.495894 1_555
Fe6 Si2 2.495894 1_555
Fe6 Zr4 2.772465 1_554
Fe6 Zr0 2.772465 1_545
Fe6 Zr2 2.772472 1_555
Fe7 Si0 2.422834 1_555
Fe7 Si6 2.495894 1_555
Fe7 Si1 2.495894 1_555
Fe7 Si5 2.495894 1_555
Fe7 Zr2 2.772466 1_455
Fe7 Zr1 2.772466 1_545
Fe7 Zr3 2.772466 1_554
Fe8 Si5 2.343282 1_656
Fe8 Si6 2.343282 1_566
Fe8 Si4 2.343282 1_556
Fe8 Fe9 2.386439 1_555
Fe8 Zr0 2.875083 1_556
Fe8 Zr1 2.875083 1_556
Fe8 Zr2 2.875083 1_556
Fe9 Si1 2.343282 1_665
Fe9 Si6 2.343282 1_566
Fe9 Si2 2.343282 1_565
Fe9 Zr4 2.875083 1_565
Fe9 Zr3 2.875083 1_565
Fe9 Zr2 2.875083 1_565
Fe10 Si5 2.343282 1_656
Fe10 Si1 2.343282 1_665
Fe10 Si3 2.343282 1_655
Fe10 Fe8 2.386439 1_555
Fe10 Fe9 2.386439 1_555
Fe10 Fe11 2.386439 1_555
Fe10 Fe3 2.465433 1_555
Fe10 Zr5 2.875083 1_655
Fe10 Zr3 2.875083 1_655
Fe10 Zr1 2.875083 1_655
Fe11 Si4 2.343282 1_556
Fe11 Si2 2.343282 1_565
Fe11 Si3 2.343282 1_655
Fe11 Fe8 2.386439 1_555
Fe11 Fe9 2.386439 1_555
Fe11 Fe2 2.465431 1_555
Fe11 Zr0 2.875083 1_555
Fe11 Zr4 2.875083 1_555
Fe11 Zr5 2.875083 1_555
Fe12 Si4 2.343282 1_555
Fe12 Si6 2.343282 1_555
Fe12 Si5 2.343282 1_555
Fe12 Fe13 2.386439 1_555
Fe12 Fe14 2.386439 1_555
Fe12 Fe15 2.386439 1_555
Fe12 Fe5 2.465427 1_555
Fe12 Fe6 2.465427 1_555
Fe12 Fe7 2.465433 1_555
Fe12 Zr4 2.875083 1_554
Fe12 Zr5 2.875083 1_554
Fe12 Zr3 2.875083 1_554
Fe13 Si2 2.343282 1_555
Fe13 Si6 2.343282 1_555
Fe13 Si1 2.343282 1_555
Fe13 Fe14 2.386439 1_555
Fe13 Fe15 2.386439 1_555
Fe13 Fe4 2.465427 1_555
Fe13 Fe6 2.465427 1_555
Fe13 Fe7 2.465433 1_555
Fe13 Zr0 2.875083 1_545
Fe13 Zr1 2.875083 1_545
Fe13 Zr5 2.875083 1_545
Fe14 Si1 2.343282 1_555
Fe14 Si5 2.343282 1_555
Fe14 Si3 2.343282 1_555
Fe14 Fe15 2.386439 1_555
Fe14 Fe5 2.465427 1_555
Fe14 Fe4 2.465427 1_555
Fe14 Fe7 2.465433 1_555
Fe14 Zr0 2.875083 1_455
Fe14 Zr4 2.875083 1_455
Fe14 Zr2 2.875083 1_455
Fe15 Si4 2.343282 1_555
Fe15 Si2 2.343282 1_555
Fe15 Si3 2.343282 1_555
Fe15 Fe6 2.465431 1_555
Fe15 Fe4 2.465431 1_555
Fe15 Fe5 2.465431 1_555
Fe15 Zr3 2.875083 1_555
Fe15 Zr2 2.875083 1_555
Fe15 Zr1 2.875083 1_555
Si1 Zr4 2.900593 1_455
Si1 Zr5 2.900593 1_545
Si1 Zr2 2.900593 1_455
Si1 Zr1 2.900593 1_545
Si2 Zr3 2.900593 1_555
Si2 Zr2 2.900593 1_555
Si2 Zr0 2.900593 1_545
Si2 Zr5 2.900593 1_545
Si3 Zr3 2.900593 1_555
Si3 Zr1 2.900593 1_555
Si3 Zr0 2.900593 1_455
Si3 Zr4 2.900593 1_455
Si4 Zr1 2.900593 1_555
Si4 Zr2 2.900593 1_555
Si4 Zr4 2.900593 1_554
Si4 Zr5 2.900593 1_554
Si5 Zr0 2.900593 1_455
Si5 Zr5 2.900593 1_554
Si5 Zr2 2.900593 1_455
Si5 Zr3 2.900593 1_554
Si6 Zr0 2.900593 1_545
Si6 Zr4 2.900593 1_554
Si6 Zr1 2.900593 1_545
Si6 Zr3 2.900593 1_554
