# generated using pymatgen
data_Zn10Sn(B4Rh9)2
_symmetry_space_group_name_H-M   'P 1'
_cell_length_a   17.99310000
_cell_length_b   17.99310000
_cell_length_c   2.89900100
_cell_angle_alpha   90.00000000
_cell_angle_beta   90.00000000
_cell_angle_gamma   90.00000000
_symmetry_Int_Tables_number   1
_chemical_formula_structural   Zn10Sn(B4Rh9)2
_chemical_formula_sum   'Zn20 Sn2 B16 Rh36'
_cell_volume   938.55635017
_cell_formula_units_Z   2
loop_
 _symmetry_equiv_pos_site_id
 _symmetry_equiv_pos_as_xyz
  1  'x, y, z'
loop_
 _atom_site_type_symbol
 _atom_site_label
 _atom_site_symmetry_multiplicity
 _atom_site_fract_x
 _atom_site_fract_y
 _atom_site_fract_z
 _atom_site_occupancy
  Zn  Zn0  1  0.55020400  0.05020400  0.00000000  1
  Zn  Zn1  1  0.44979600  0.94979600  0.00000000  1
  Zn  Zn2  1  0.05020400  0.44979600  0.00000000  1
  Zn  Zn3  1  0.94979600  0.55020400  0.00000000  1
  Zn  Zn4  1  0.03278200  0.19204400  0.00000000  1
  Zn  Zn5  1  0.96721800  0.80795600  0.00000000  1
  Zn  Zn6  1  0.19204400  0.96721800  0.00000000  1
  Zn  Zn7  1  0.53278200  0.30795600  0.00000000  1
  Zn  Zn8  1  0.80795600  0.03278200  0.00000000  1
  Zn  Zn9  1  0.46721800  0.69204400  0.00000000  1
  Zn  Zn10  1  0.69204400  0.53278200  0.00000000  1
  Zn  Zn11  1  0.30795600  0.46721800  0.00000000  1
  Zn  Zn12  1  0.21010100  0.71010100  0.00000000  1
  Zn  Zn13  1  0.78989900  0.28989900  0.00000000  1
  Zn  Zn14  1  0.71010100  0.78989900  0.00000000  1
  Zn  Zn15  1  0.28989900  0.21010100  0.00000000  1
  Zn  Zn16  1  0.66741500  0.16741500  0.00000000  1
  Zn  Zn17  1  0.33258500  0.83258500  0.00000000  1
  Zn  Zn18  1  0.16741500  0.33258500  0.00000000  1
  Zn  Zn19  1  0.83258500  0.66741500  0.00000000  1
  Sn  Sn0  1  0.00000000  0.00000000  0.00000000  1
  Sn  Sn1  1  0.50000000  0.50000000  0.00000000  1
  B  B0  1  0.33554700  0.03912400  0.00000000  1
  B  B1  1  0.66445300  0.96087600  0.00000000  1
  B  B2  1  0.03912400  0.66445300  0.00000000  1
  B  B3  1  0.83554700  0.46087600  0.00000000  1
  B  B4  1  0.96087600  0.33554700  0.00000000  1
  B  B5  1  0.16445300  0.53912400  0.00000000  1
  B  B6  1  0.53912400  0.83554700  0.00000000  1
  B  B7  1  0.46087600  0.16445300  0.00000000  1
  B  B8  1  0.17187900  0.12722400  0.00000000  1
  B  B9  1  0.82812100  0.87277600  0.00000000  1
  B  B10  1  0.12722400  0.82812100  0.00000000  1
  B  B11  1  0.67187900  0.37277600  0.00000000  1
  B  B12  1  0.87277600  0.17187900  0.00000000  1
  B  B13  1  0.32812100  0.62722400  0.00000000  1
  B  B14  1  0.62722400  0.67187900  0.00000000  1
  B  B15  1  0.37277600  0.32812100  0.00000000  1
  Rh  Rh0  1  0.25820100  0.08959300  0.50000000  1
  Rh  Rh1  1  0.74179900  0.91040700  0.50000000  1
  Rh  Rh2  1  0.08959300  0.74179900  0.50000000  1
  Rh  Rh3  1  0.75820100  0.41040700  0.50000000  1
  Rh  Rh4  1  0.91040700  0.25820100  0.50000000  1
  Rh  Rh5  1  0.24179900  0.58959300  0.50000000  1
  Rh  Rh6  1  0.58959300  0.75820100  0.50000000  1
  Rh  Rh7  1  0.41040700  0.24179900  0.50000000  1
  Rh  Rh8  1  0.04681500  0.32591300  0.50000000  1
  Rh  Rh9  1  0.95318500  0.67408700  0.50000000  1
  Rh  Rh10  1  0.32591300  0.95318500  0.50000000  1
  Rh  Rh11  1  0.54681500  0.17408700  0.50000000  1
  Rh  Rh12  1  0.67408700  0.04681500  0.50000000  1
  Rh  Rh13  1  0.45318500  0.82591300  0.50000000  1
  Rh  Rh14  1  0.82591300  0.54681500  0.50000000  1
  Rh  Rh15  1  0.17408700  0.45318500  0.50000000  1
  Rh  Rh16  1  0.16067400  0.21257200  0.50000000  1
  Rh  Rh17  1  0.83932600  0.78742800  0.50000000  1
  Rh  Rh18  1  0.21257200  0.83932600  0.50000000  1
  Rh  Rh19  1  0.66067400  0.28742800  0.50000000  1
  Rh  Rh20  1  0.78742800  0.16067400  0.50000000  1
  Rh  Rh21  1  0.33932600  0.71257200  0.50000000  1
  Rh  Rh22  1  0.71257200  0.66067400  0.50000000  1
  Rh  Rh23  1  0.28742800  0.33932600  0.50000000  1
  Rh  Rh24  1  0.10437300  0.06873600  0.50000000  1
  Rh  Rh25  1  0.89562700  0.93126400  0.50000000  1
  Rh  Rh26  1  0.06873600  0.89562700  0.50000000  1
  Rh  Rh27  1  0.60437300  0.43126400  0.50000000  1
  Rh  Rh28  1  0.93126400  0.10437300  0.50000000  1
  Rh  Rh29  1  0.39562700  0.56873600  0.50000000  1
  Rh  Rh30  1  0.56873600  0.60437300  0.50000000  1
  Rh  Rh31  1  0.43126400  0.39562700  0.50000000  1
  Rh  Rh32  1  0.08115900  0.58115900  0.50000000  1
  Rh  Rh33  1  0.91884100  0.41884100  0.50000000  1
  Rh  Rh34  1  0.58115900  0.91884100  0.50000000  1
  Rh  Rh35  1  0.41884100  0.08115900  0.50000000  1
loop_
_geom_bond_atom_site_label_1
_geom_bond_atom_site_label_2
_geom_bond_distance
_geom_bond_site_symmetry_2
Zn0 Zn1 2.554991 1_545
Zn2 Zn3 2.554991 1_455
B0 Rh10 2.126540 1_545
B0 Rh10 2.126540 1_544
B0 Rh0 2.205107 1_554
B0 Rh0 2.205107 1_555
B0 Rh35 2.217939 1_554
B0 Rh35 2.217939 1_555
B0 Zn1 2.609454 1_545
B1 Rh12 2.126540 1_565
B1 Rh12 2.126540 1_564
B1 Rh1 2.205107 1_554
B1 Rh1 2.205107 1_555
B1 Rh34 2.217939 1_555
B1 Rh34 2.217939 1_554
B1 Zn0 2.609454 1_565
B2 Rh9 2.126540 1_454
B2 Rh9 2.126540 1_455
B2 Rh2 2.205107 1_555
B2 Rh2 2.205107 1_554
B2 Rh32 2.217939 1_555
B2 Rh32 2.217939 1_554
B2 Zn3 2.609454 1_455
B3 Rh14 2.126540 1_555
B3 Rh14 2.126540 1_554
B3 Rh3 2.205107 1_555
B3 Rh3 2.205107 1_554
B3 Rh33 2.217939 1_555
B3 Rh33 2.217939 1_554
B3 Zn3 2.609454 1_555
B4 Rh8 2.126540 1_655
B4 Rh8 2.126540 1_654
B4 Rh4 2.205107 1_555
B4 Rh4 2.205107 1_554
B4 Rh33 2.217939 1_554
B4 Rh33 2.217939 1_555
B4 Zn2 2.609454 1_655
B5 Rh15 2.126540 1_554
B5 Rh15 2.126540 1_555
B5 Rh5 2.205107 1_555
B5 Rh5 2.205107 1_554
B5 Rh32 2.217939 1_555
B5 Rh32 2.217939 1_554
B5 Zn2 2.609454 1_555
B6 Rh13 2.126540 1_554
B6 Rh13 2.126540 1_555
B6 Rh6 2.205107 1_555
B6 Rh6 2.205107 1_554
B6 Rh34 2.217939 1_555
B6 Rh34 2.217939 1_554
B6 Zn1 2.609454 1_555
B7 Rh11 2.126540 1_554
B7 Rh11 2.126540 1_555
B7 Rh7 2.205107 1_555
B7 Rh7 2.205107 1_554
B7 Rh35 2.217939 1_554
B7 Rh35 2.217939 1_555
B7 Zn0 2.609454 1_555
B8 Rh16 2.121320 1_555
B8 Rh16 2.121320 1_554
B8 Rh24 2.164235 1_554
B8 Rh24 2.164235 1_555
B8 Rh0 2.229786 1_555
B8 Rh0 2.229786 1_554
B8 Zn15 2.594834 1_555
B9 Rh17 2.121320 1_554
B9 Rh17 2.121320 1_555
B9 Rh25 2.164235 1_555
B9 Rh25 2.164235 1_554
B9 Rh1 2.229786 1_554
B9 Rh1 2.229786 1_555
B9 Zn14 2.594834 1_555
B10 Rh18 2.121320 1_554
B10 Rh18 2.121320 1_555
B10 Rh26 2.164235 1_554
B10 Rh26 2.164235 1_555
B10 Rh2 2.229786 1_555
B10 Rh2 2.229786 1_554
B10 Zn12 2.594834 1_555
B11 Rh19 2.121320 1_555
B11 Rh19 2.121320 1_554
B11 Rh27 2.164235 1_555
B11 Rh27 2.164235 1_554
B11 Rh3 2.229786 1_554
B11 Rh3 2.229786 1_555
B11 Zn13 2.594834 1_555
B12 Rh20 2.121320 1_555
B12 Rh20 2.121320 1_554
B12 Rh28 2.164235 1_554
B12 Rh28 2.164235 1_555
B12 Rh4 2.229786 1_555
B12 Rh4 2.229786 1_554
B12 Zn13 2.594834 1_555
B13 Rh21 2.121320 1_555
B13 Rh21 2.121320 1_554
B13 Rh29 2.164235 1_554
B13 Rh29 2.164235 1_555
B13 Rh5 2.229786 1_555
B13 Rh5 2.229786 1_554
B13 Zn12 2.594834 1_555
B14 Rh22 2.121320 1_555
B14 Rh22 2.121320 1_554
B14 Rh30 2.164235 1_554
B14 Rh30 2.164235 1_555
B14 Rh6 2.229786 1_555
B14 Rh6 2.229786 1_554
B14 Zn14 2.594834 1_555
B15 Rh23 2.121320 1_554
B15 Rh23 2.121320 1_555
B15 Rh31 2.164235 1_554
B15 Rh31 2.164235 1_555
B15 Rh7 2.229786 1_554
B15 Rh7 2.229786 1_555
B15 Zn15 2.594834 1_555
Rh0 Zn15 2.669817 1_556
Rh0 Zn15 2.669817 1_555
Rh0 Zn6 2.892476 1_545
Rh0 Zn6 2.892476 1_546
Rh1 Zn14 2.669817 1_556
Rh1 Zn14 2.669817 1_555
Rh1 Zn8 2.892476 1_566
Rh1 Zn8 2.892476 1_565
Rh2 Zn12 2.669817 1_556
Rh2 Zn12 2.669817 1_555
Rh2 Zn5 2.892476 1_455
Rh2 Zn5 2.892476 1_456
Rh3 Zn13 2.669817 1_555
Rh3 Zn13 2.669817 1_556
Rh3 Zn10 2.892476 1_555
Rh3 Zn10 2.892476 1_556
Rh4 Zn13 2.669817 1_556
Rh4 Zn13 2.669817 1_555
Rh4 Zn4 2.892476 1_656
Rh4 Zn4 2.892476 1_655
Rh5 Zn12 2.669817 1_555
Rh5 Zn12 2.669817 1_556
Rh5 Zn11 2.892476 1_556
Rh5 Zn11 2.892476 1_555
Rh6 Zn14 2.669817 1_556
Rh6 Zn14 2.669817 1_555
Rh6 Zn9 2.892476 1_556
Rh6 Zn9 2.892476 1_555
Rh7 Zn15 2.669817 1_556
Rh7 Zn15 2.669817 1_555
Rh7 Zn7 2.892476 1_556
Rh7 Zn7 2.892476 1_555
Rh8 Zn18 2.612322 1_556
Rh8 Zn18 2.612322 1_555
Rh8 Zn2 2.659584 1_555
Rh8 Zn2 2.659584 1_556
Rh8 Zn4 2.822540 1_556
Rh8 Zn4 2.822540 1_555
Rh9 Zn19 2.612322 1_556
Rh9 Zn19 2.612322 1_555
Rh9 Zn3 2.659584 1_555
Rh9 Zn3 2.659584 1_556
Rh9 Zn5 2.822540 1_555
Rh9 Zn5 2.822540 1_556
Rh10 Zn17 2.612322 1_556
Rh10 Zn17 2.612322 1_555
Rh10 Zn1 2.659584 1_555
Rh10 Zn1 2.659584 1_556
Rh10 Zn6 2.822540 1_555
Rh10 Zn6 2.822540 1_556
Rh11 Zn16 2.612322 1_556
Rh11 Zn16 2.612322 1_555
Rh11 Zn0 2.659584 1_555
Rh11 Zn0 2.659584 1_556
Rh11 Zn7 2.822540 1_555
Rh11 Zn7 2.822540 1_556
Rh12 Zn16 2.612322 1_555
Rh12 Zn16 2.612322 1_556
Rh12 Zn0 2.659584 1_556
Rh12 Zn0 2.659584 1_555
Rh12 Zn8 2.822540 1_555
Rh12 Zn8 2.822540 1_556
Rh13 Zn17 2.612322 1_556
Rh13 Zn17 2.612322 1_555
Rh13 Zn1 2.659584 1_555
Rh13 Zn1 2.659584 1_556
Rh13 Zn9 2.822540 1_555
Rh13 Zn9 2.822540 1_556
Rh14 Zn19 2.612322 1_556
Rh14 Zn19 2.612322 1_555
Rh14 Zn3 2.659584 1_555
Rh14 Zn3 2.659584 1_556
Rh14 Zn10 2.822540 1_555
Rh14 Zn10 2.822540 1_556
Rh15 Zn18 2.612322 1_556
Rh15 Zn18 2.612322 1_555
Rh15 Zn2 2.659584 1_555
Rh15 Zn2 2.659584 1_556
Rh15 Zn11 2.822540 1_556
Rh15 Zn11 2.822540 1_555
Rh16 Zn18 2.603612 1_555
Rh16 Zn18 2.603612 1_556
Rh16 Zn15 2.740327 1_555
Rh16 Zn15 2.740327 1_556
Rh16 Zn4 2.744609 1_556
Rh16 Zn4 2.744609 1_555
Rh17 Zn19 2.603612 1_556
Rh17 Zn19 2.603612 1_555
Rh17 Zn14 2.740327 1_555
Rh17 Zn14 2.740327 1_556
Rh17 Zn5 2.744609 1_555
Rh17 Zn5 2.744609 1_556
Rh18 Zn17 2.603612 1_556
Rh18 Zn17 2.603612 1_555
Rh18 Zn12 2.740327 1_555
Rh18 Zn12 2.740327 1_556
Rh18 Zn6 2.744609 1_555
Rh18 Zn6 2.744609 1_556
Rh19 Zn16 2.603612 1_555
Rh19 Zn16 2.603612 1_556
Rh19 Zn13 2.740327 1_556
Rh19 Zn13 2.740327 1_555
Rh19 Zn7 2.744609 1_556
Rh19 Zn7 2.744609 1_555
Rh20 Zn16 2.603612 1_555
Rh20 Zn16 2.603612 1_556
Rh20 Zn13 2.740327 1_556
Rh20 Zn13 2.740327 1_555
Rh20 Zn8 2.744609 1_555
Rh20 Zn8 2.744609 1_556
Rh21 Zn17 2.603612 1_556
Rh21 Zn17 2.603612 1_555
Rh21 Zn12 2.740327 1_556
Rh21 Zn12 2.740327 1_555
Rh21 Zn9 2.744609 1_556
Rh21 Zn9 2.744609 1_555
Rh22 Zn19 2.603612 1_556
Rh22 Zn19 2.603612 1_555
Rh22 Zn14 2.740327 1_555
Rh22 Zn14 2.740327 1_556
Rh22 Zn10 2.744609 1_555
Rh22 Zn10 2.744609 1_556
Rh23 Zn18 2.603612 1_555
Rh23 Zn18 2.603612 1_556
Rh23 Zn15 2.740327 1_555
Rh23 Zn15 2.740327 1_556
Rh23 Zn11 2.744609 1_555
Rh23 Zn11 2.744609 1_556
Rh24 Sn0 2.675355 1_556
Rh24 Sn0 2.675355 1_555
Rh24 Zn6 2.815320 1_545
Rh24 Zn6 2.815320 1_546
Rh24 Zn4 2.946687 1_555
Rh24 Zn4 2.946687 1_556
Rh25 Sn0 2.675355 1_665
Rh25 Sn0 2.675355 1_666
Rh25 Zn8 2.815320 1_565
Rh25 Zn8 2.815320 1_566
Rh25 Zn5 2.946687 1_555
Rh25 Zn5 2.946687 1_556
Rh26 Sn0 2.675355 1_566
Rh26 Sn0 2.675355 1_565
Rh26 Zn5 2.815320 1_455
Rh26 Zn5 2.815320 1_456
Rh26 Zn6 2.946687 1_555
Rh26 Zn6 2.946687 1_556
Rh27 Sn1 2.675355 1_555
Rh27 Sn1 2.675355 1_556
Rh27 Zn10 2.815320 1_556
Rh27 Zn10 2.815320 1_555
Rh27 Zn7 2.946687 1_556
Rh27 Zn7 2.946687 1_555
Rh28 Sn0 2.675355 1_655
Rh28 Sn0 2.675355 1_656
Rh28 Zn4 2.815320 1_656
Rh28 Zn4 2.815320 1_655
Rh28 Zn8 2.946687 1_555
Rh28 Zn8 2.946687 1_556
Rh29 Sn1 2.675355 1_556
Rh29 Sn1 2.675355 1_555
Rh29 Zn11 2.815320 1_556
Rh29 Zn11 2.815320 1_555
Rh29 Zn9 2.946687 1_555
Rh29 Zn9 2.946687 1_556
Rh30 Sn1 2.675355 1_555
Rh30 Sn1 2.675355 1_556
Rh30 Zn9 2.815320 1_556
Rh30 Zn9 2.815320 1_555
Rh30 Zn10 2.946687 1_555
Rh30 Zn10 2.946687 1_556
Rh31 Sn1 2.675355 1_556
Rh31 Sn1 2.675355 1_555
Rh31 Zn7 2.815320 1_556
Rh31 Zn7 2.815320 1_555
Rh31 Zn11 2.946687 1_555
Rh31 Zn11 2.946687 1_556
Rh32 Zn3 2.828075 1_455
Rh32 Zn3 2.828075 1_456
Rh32 Zn2 2.828075 1_555
Rh32 Zn2 2.828075 1_556
Rh33 Zn2 2.828075 1_655
Rh33 Zn2 2.828075 1_656
Rh33 Zn3 2.828075 1_555
Rh33 Zn3 2.828075 1_556
Rh34 Zn1 2.828075 1_555
Rh34 Zn1 2.828075 1_556
Rh34 Zn0 2.828075 1_566
Rh34 Zn0 2.828075 1_565
Rh35 Zn1 2.828075 1_545
Rh35 Zn1 2.828075 1_546
Rh35 Zn0 2.828075 1_555
Rh35 Zn0 2.828075 1_556
