# generated using pymatgen
data_SmGa3Ag
_symmetry_space_group_name_H-M   'P 1'
_cell_length_a   4.22360167
_cell_length_b   4.22360167
_cell_length_c   6.19404599
_cell_angle_alpha   70.06581825
_cell_angle_beta   70.06581825
_cell_angle_gamma   90.00000000
_symmetry_Int_Tables_number   1
_chemical_formula_structural   SmGa3Ag
_chemical_formula_sum   'Sm1 Ga3 Ag1'
_cell_volume   96.80214057
_cell_formula_units_Z   1
loop_
 _symmetry_equiv_pos_site_id
 _symmetry_equiv_pos_as_xyz
  1  'x, y, z'
loop_
 _atom_site_type_symbol
 _atom_site_label
 _atom_site_symmetry_multiplicity
 _atom_site_fract_x
 _atom_site_fract_y
 _atom_site_fract_z
 _atom_site_occupancy
  Sm  Sm0  1  0.00000000  -0.00000000  -0.00000000  1
  Ga  Ga0  1  0.25000000  0.75000000  0.50000000  1
  Ga  Ga1  1  0.38835221  0.38835221  0.22329557  1
  Ga  Ga2  1  0.61164779  0.61164779  0.77670443  1
  Ag  Ag0  1  0.75000000  0.25000000  0.50000000  1
loop_
_geom_bond_atom_site_label_1
_geom_bond_atom_site_label_2
_geom_bond_distance
_geom_bond_site_symmetry_2
Ga0 Ga2 2.591198 1_455
Ga0 Ga1 2.591198 1_565
Ga0 Ga1 2.591198 1_555
Ga0 Ga2 2.591198 1_555
Ga0 Sm0 3.438227 1_565
Ga0 Sm0 3.438227 1_566
Ga0 Sm0 3.438227 1_665
Ga0 Sm0 3.438227 1_556
Ga1 Ga2 2.423423 1_554
Ga1 Sm0 3.222988 1_555
Ga1 Sm0 3.222988 1_565
Ga1 Sm0 3.222988 1_655
Ga1 Sm0 3.222988 1_665
Ga2 Sm0 3.222988 1_666
Ga2 Sm0 3.222988 1_566
Ga2 Sm0 3.222988 1_656
Ga2 Sm0 3.222988 1_556
Ag0 Ga2 2.591198 1_545
Ag0 Ga1 2.591198 1_655
Ag0 Ga1 2.591198 1_555
Ag0 Ga2 2.591198 1_555
Ag0 Sm0 3.438227 1_656
Ag0 Sm0 3.438227 1_655
Ag0 Sm0 3.438227 1_556
Ag0 Sm0 3.438227 1_665
