# generated using pymatgen
data_CrIr
_symmetry_space_group_name_H-M   'P 1'
_cell_length_a   2.66753315
_cell_length_b   2.66753315
_cell_length_c   4.19974315
_cell_angle_alpha   90.00000000
_cell_angle_beta   90.00000000
_cell_angle_gamma   119.99998184
_symmetry_Int_Tables_number   1
_chemical_formula_structural   CrIr
_chemical_formula_sum   'Cr1 Ir1'
_cell_volume   25.88052555
_cell_formula_units_Z   1
loop_
 _symmetry_equiv_pos_site_id
 _symmetry_equiv_pos_as_xyz
  1  'x, y, z'
loop_
 _atom_site_type_symbol
 _atom_site_label
 _atom_site_symmetry_multiplicity
 _atom_site_fract_x
 _atom_site_fract_y
 _atom_site_fract_z
 _atom_site_occupancy
  Cr  Cr0  1  0.66666700  0.33333300  0.00000000  1
  Ir  Ir0  1  0.33333300  0.66666700  0.50000000  1
loop_
_geom_bond_atom_site_label_1
_geom_bond_atom_site_label_2
_geom_bond_distance
_geom_bond_site_symmetry_2
Cr0 Ir0 2.604106 1_545
Cr0 Ir0 2.604106 1_544
Cr0 Ir0 2.604106 1_655
Cr0 Ir0 2.604106 1_654
Cr0 Ir0 2.604108 1_554
Cr0 Ir0 2.604108 1_555
