# generated using pymatgen
data_Te4MoW3S4
_symmetry_space_group_name_H-M   'P 1'
_cell_length_a   3.36135044
_cell_length_b   3.36135044
_cell_length_c   38.37217100
_cell_angle_alpha   90.00000000
_cell_angle_beta   90.00000000
_cell_angle_gamma   120.00000868
_symmetry_Int_Tables_number   1
_chemical_formula_structural   Te4MoW3S4
_chemical_formula_sum   'Te4 Mo1 W3 S4'
_cell_volume   375.46940127
_cell_formula_units_Z   1
loop_
 _symmetry_equiv_pos_site_id
 _symmetry_equiv_pos_as_xyz
  1  'x, y, z'
loop_
 _atom_site_type_symbol
 _atom_site_label
 _atom_site_symmetry_multiplicity
 _atom_site_fract_x
 _atom_site_fract_y
 _atom_site_fract_z
 _atom_site_occupancy
  Te  Te0  1  0.00000000  0.00000000  0.33132500  1
  Te  Te1  1  0.00000000  0.00000000  0.70706500  1
  Te  Te2  1  0.00000000  0.00000000  0.23222400  1
  Te  Te3  1  0.00000000  0.00000000  0.60802300  1
  Mo  Mo0  1  0.00000000  0.00000000  0.09392400  1
  W  W0  1  0.00000000  0.00000000  0.46966400  1
  W  W1  1  0.33333300  0.66666700  0.28179600  1
  W  W2  1  0.33333300  0.66666700  0.65755200  1
  S  S0  1  0.33333300  0.66666700  0.05449200  1
  S  S1  1  0.33333300  0.66666700  0.43009700  1
  S  S2  1  0.33333300  0.66666700  0.13336400  1
  S  S3  1  0.33333300  0.66666700  0.50922200  1
loop_
_geom_bond_atom_site_label_1
_geom_bond_atom_site_label_2
_geom_bond_distance
_geom_bond_site_symmetry_2
Te0 W1 2.716294 1_545
Te0 W1 2.716296 1_445
Te0 W1 2.716296 1_555
Te1 W2 2.715864 1_545
Te1 W2 2.715866 1_555
Te1 W2 2.715866 1_445
Te2 W1 2.717449 1_545
Te2 W1 2.717451 1_555
Te2 W1 2.717451 1_445
Te3 W2 2.716294 1_545
Te3 W2 2.716296 1_555
Te3 W2 2.716296 1_445
Mo0 S0 2.460826 1_545
Mo0 S0 2.460828 1_555
Mo0 S0 2.460828 1_445
Mo0 S2 2.461015 1_545
Mo0 S2 2.461017 1_555
Mo0 S2 2.461017 1_445
S1 W0 2.464014 1_565
S1 W0 2.464017 1_555
S1 W0 2.464017 1_665
S3 W0 2.463802 1_565
S3 W0 2.463804 1_665
S3 W0 2.463804 1_555
