# generated using pymatgen
data_Ba3Be2B5HO13
_symmetry_space_group_name_H-M   'P 1'
_cell_length_a   6.95565108
_cell_length_b   6.95565108
_cell_length_c   6.84574579
_cell_angle_alpha   77.42379587
_cell_angle_beta   77.42379587
_cell_angle_gamma   100.85557737
_symmetry_Int_Tables_number   1
_chemical_formula_structural   Ba3Be2B5HO13
_chemical_formula_sum   'Ba3 Be2 B5 H1 O13'
_cell_volume   305.68818646
_cell_formula_units_Z   1
loop_
 _symmetry_equiv_pos_site_id
 _symmetry_equiv_pos_as_xyz
  1  'x, y, z'
loop_
 _atom_site_type_symbol
 _atom_site_label
 _atom_site_symmetry_multiplicity
 _atom_site_fract_x
 _atom_site_fract_y
 _atom_site_fract_z
 _atom_site_occupancy
  Ba  Ba0  1  0.01998200  0.58710000  0.97967100  1
  Ba  Ba1  1  0.01190400  0.01190400  0.41437000  1
  Ba  Ba2  1  0.58710000  0.01998200  0.97967100  1
  Be  Be0  1  0.72301100  0.43818600  0.55852000  1
  Be  Be1  1  0.43818600  0.72301100  0.55852000  1
  B  B0  1  0.56074700  0.56074700  0.89124400  1
  B  B1  1  0.12145200  0.56828100  0.43095500  1
  B  B2  1  0.56828100  0.12145200  0.43095500  1
  B  B3  1  0.04321200  0.04321200  0.95725800  1
  B  B4  1  0.43860900  0.43860900  0.29129900  1
  H  H0  1  0.40920200  0.40920200  0.59341700  1
  O  O0  1  0.96267300  0.18833700  0.03664600  1
  O  O1  1  0.95970300  0.95970300  0.81686400  1
  O  O2  1  0.18833700  0.96267300  0.03664600  1
  O  O3  1  0.51076300  0.51076300  0.47464600  1
  O  O4  1  0.57009600  0.57009600  0.09630700  1
  O  O5  1  0.93078300  0.57651300  0.40758400  1
  O  O6  1  0.57651300  0.93078300  0.40758400  1
  O  O7  1  0.45003500  0.67536500  0.79680800  1
  O  O8  1  0.22416900  0.44881500  0.32312000  1
  O  O9  1  0.67551200  0.20602600  0.54894200  1
  O  O10  1  0.67536500  0.45003500  0.79680800  1
  O  O11  1  0.20602600  0.67551200  0.54894200  1
  O  O12  1  0.44881500  0.22416900  0.32312000  1
loop_
_geom_bond_atom_site_label_1
_geom_bond_atom_site_label_2
_geom_bond_distance
_geom_bond_site_symmetry_2
Ba0 O0 2.654981 1_456
Ba0 O1 2.736748 1_455
Ba0 O2 2.799670 1_556
Ba0 O11 2.827773 1_555
Ba0 O5 2.840603 1_456
Ba0 O7 2.869628 1_555
Ba0 O4 3.029047 1_456
Ba0 O10 3.031082 1_455
Ba0 O8 3.074764 1_556
Ba1 O1 2.633389 1_445
Ba1 O2 2.733433 1_545
Ba1 O0 2.733433 1_455
Ba1 O12 2.981142 1_555
Ba1 O8 2.981142 1_555
Ba1 O5 2.986795 1_445
Ba1 O6 2.986795 1_445
Ba1 O11 2.989926 1_545
Ba1 O9 2.989926 1_455
Ba2 O2 2.654981 1_546
Ba2 O1 2.736748 1_545
Ba2 O0 2.799670 1_556
Ba2 O9 2.827773 1_555
Ba2 O6 2.840603 1_546
Ba2 O10 2.869628 1_555
Ba2 O4 3.029047 1_546
Ba2 O7 3.031082 1_545
Ba2 O12 3.074764 1_556
Be0 O5 1.573209 1_555
Be0 O9 1.604897 1_555
Be0 O10 1.615872 1_555
Be0 O3 1.813200 1_555
Be1 O6 1.573209 1_555
Be1 O11 1.604897 1_555
Be1 O7 1.615872 1_555
Be1 O3 1.813200 1_555
B0 O10 1.367536 1_555
B0 O7 1.367536 1_555
B0 O4 1.434243 1_556
B1 O11 1.363362 1_555
B1 O5 1.380134 1_455
B1 O8 1.416683 1_555
B2 O9 1.363362 1_555
B2 O6 1.380134 1_545
B2 O12 1.416683 1_555
B3 O2 1.395519 1_546
B3 O0 1.395519 1_456
B3 O1 1.399159 1_445
B4 O4 1.440977 1_555
B4 O12 1.477294 1_555
B4 O8 1.477294 1_555
B4 O3 1.591515 1_555
H0 O3 0.985361 1_555
