# generated using pymatgen
data_SmV2BiO8
_symmetry_space_group_name_H-M   'P 1'
_cell_length_a   6.14471610
_cell_length_b   6.14471610
_cell_length_c   6.14471610
_cell_angle_alpha   106.12409321
_cell_angle_beta   106.12409321
_cell_angle_gamma   116.39536486
_symmetry_Int_Tables_number   1
_chemical_formula_structural   SmV2BiO8
_chemical_formula_sum   'Sm1 V2 Bi1 O8'
_cell_volume   176.62183223
_cell_formula_units_Z   1
loop_
 _symmetry_equiv_pos_site_id
 _symmetry_equiv_pos_as_xyz
  1  'x, y, z'
loop_
 _atom_site_type_symbol
 _atom_site_label
 _atom_site_symmetry_multiplicity
 _atom_site_fract_x
 _atom_site_fract_y
 _atom_site_fract_z
 _atom_site_occupancy
  Sm  Sm0  1  0.25000000  0.75000000  0.50000000  1
  V  V0  1  0.75000000  0.25000000  0.50000000  1
  V  V1  1  0.50000000  0.50000000  0.00000000  1
  Bi  Bi0  1  0.00000000  0.00000000  0.00000000  1
  O  O0  1  0.92404000  0.60417000  0.68013100  1
  O  O1  1  0.48825700  0.67109000  0.81716700  1
  O  O2  1  0.85392300  0.67109000  0.18283300  1
  O  O3  1  0.92404000  0.24390900  0.31986900  1
  O  O4  1  0.32891000  0.14607700  0.81716700  1
  O  O5  1  0.75609100  0.07596000  0.68013100  1
  O  O6  1  0.39583000  0.07596000  0.31986900  1
  O  O7  1  0.32891000  0.51174300  0.18283300  1
loop_
_geom_bond_atom_site_label_1
_geom_bond_atom_site_label_2
_geom_bond_distance
_geom_bond_site_symmetry_2
Bi0 O3 2.413018 1_455
Bi0 O5 2.413018 1_454
Bi0 O6 2.413023 1_555
Bi0 O0 2.413023 1_444
Bi0 O4 2.522068 1_554
Bi0 O7 2.522068 1_555
Bi0 O2 2.522068 1_445
Bi0 O1 2.522068 1_444
O0 V0 1.743626 1_555
O0 Sm0 2.495257 1_655
O1 V1 1.746721 1_556
O1 Sm0 2.397485 1_555
O2 V1 1.746721 1_555
O2 Sm0 2.397485 1_655
O3 V0 1.743631 1_555
O3 Sm0 2.495257 1_655
O4 V1 1.746721 1_556
O4 Sm0 2.397485 1_545
O5 V0 1.743631 1_555
O5 Sm0 2.495257 1_545
O6 V0 1.743626 1_555
O6 Sm0 2.495257 1_545
O7 V1 1.746721 1_555
O7 Sm0 2.397485 1_555
