# generated using pymatgen
data_NbSi4Mo
_symmetry_space_group_name_H-M   'P 1'
_cell_length_a   13.13676800
_cell_length_b   4.72212500
_cell_length_c   4.73723367
_cell_angle_alpha   60.26748912
_cell_angle_beta   90.00000000
_cell_angle_gamma   90.00000000
_symmetry_Int_Tables_number   1
_chemical_formula_structural   NbSi4Mo
_chemical_formula_sum   'Nb3 Si12 Mo3'
_cell_volume   255.17947876
_cell_formula_units_Z   3
loop_
 _symmetry_equiv_pos_site_id
 _symmetry_equiv_pos_as_xyz
  1  'x, y, z'
loop_
 _atom_site_type_symbol
 _atom_site_label
 _atom_site_symmetry_multiplicity
 _atom_site_fract_x
 _atom_site_fract_y
 _atom_site_fract_z
 _atom_site_occupancy
  Nb  Nb0  1  0.25003600  0.00000000  0.50000000  1
  Nb  Nb1  1  0.58364900  0.50000000  0.50000000  1
  Nb  Nb2  1  0.08285700  0.50000000  0.50000000  1
  Si  Si0  1  0.91581700  0.84220400  0.32396900  1
  Si  Si1  1  0.41665700  0.83795200  0.32089200  1
  Si  Si2  1  0.75091500  0.32373600  0.84054700  1
  Si  Si3  1  0.25097300  0.32038700  0.84150800  1
  Si  Si4  1  0.58336400  0.84007500  0.83622900  1
  Si  Si5  1  0.08226100  0.83636300  0.84323700  1
  Si  Si6  1  0.91581700  0.15779600  0.67603100  1
  Si  Si7  1  0.41665700  0.16204800  0.67910800  1
  Si  Si8  1  0.75091500  0.67626400  0.15945300  1
  Si  Si9  1  0.25097300  0.67961300  0.15849200  1
  Si  Si10  1  0.58336400  0.15992500  0.16377100  1
  Si  Si11  1  0.08226100  0.16363700  0.15676300  1
  Mo  Mo0  1  0.91602800  0.50000000  0.00000000  1
  Mo  Mo1  1  0.41683200  0.50000000  0.00000000  1
  Mo  Mo2  1  0.75062200  0.00000000  0.50000000  1
loop_
_geom_bond_atom_site_label_1
_geom_bond_atom_site_label_2
_geom_bond_distance
_geom_bond_site_symmetry_2
Nb0 Si7 2.596263 1_555
Nb0 Si1 2.596263 1_545
Nb0 Si11 2.617709 1_555
Nb0 Si5 2.617709 1_545
Nb0 Si9 2.708154 1_545
Nb0 Si3 2.708154 1_555
Nb0 Si3 2.709002 1_554
Nb0 Si9 2.709002 1_546
Nb0 Si9 2.786875 1_555
Nb0 Si3 2.786875 1_545
Nb1 Si7 2.595390 1_555
Nb1 Si1 2.595390 1_555
Nb1 Si8 2.606098 1_555
Nb1 Si2 2.606098 1_555
Nb1 Si4 2.706411 1_545
Nb1 Si10 2.706411 1_565
Nb1 Si4 2.730870 1_554
Nb1 Si10 2.730870 1_556
Nb1 Si10 2.766401 1_555
Nb1 Si4 2.766401 1_555
Nb2 Si0 2.604851 1_455
Nb2 Si6 2.604851 1_455
Nb2 Si9 2.617841 1_555
Nb2 Si3 2.617841 1_555
Nb2 Si5 2.702037 1_554
Nb2 Si11 2.702037 1_556
Nb2 Si11 2.722174 1_565
Nb2 Si5 2.722174 1_545
Nb2 Si5 2.780018 1_555
Nb2 Si11 2.780018 1_555
Si0 Si11 2.553364 1_665
Si0 Si8 2.553412 1_555
Si0 Si6 2.665536 1_564
Si0 Si6 2.732725 1_565
Si0 Si6 2.807138 1_555
Si1 Si9 2.541429 1_555
Si1 Si10 2.557182 1_565
Si1 Si7 2.640125 1_564
Si1 Si7 2.773861 1_555
Si1 Si7 2.792466 1_565
Si2 Si6 2.553412 1_555
Si2 Si8 2.654938 1_546
Si2 Si8 2.747362 1_556
Si2 Si8 2.802475 1_555
Si3 Si7 2.541429 1_555
Si3 Si9 2.627467 1_546
Si3 Si9 2.767481 1_556
Si3 Si9 2.811133 1_555
Si4 Si7 2.557182 1_565
Si4 Si8 2.571537 1_556
Si5 Si6 2.553364 1_465
Si5 Si9 2.567855 1_556
Si10 Si2 2.571537 1_554
Si10 Si4 2.648283 1_544
Si10 Si4 2.767082 1_545
Si10 Si4 2.789232 1_554
Si11 Si3 2.567855 1_554
Si11 Si5 2.621271 1_544
Si11 Si5 2.759961 1_554
Si11 Si5 2.824669 1_545
Mo0 Si8 2.567447 1_555
Mo0 Si2 2.567447 1_554
Mo0 Si11 2.583248 1_655
Mo0 Si5 2.583248 1_654
Mo0 Si6 2.697273 1_564
Mo0 Si0 2.697273 1_545
Mo0 Si6 2.725162 1_554
Mo0 Si0 2.725162 1_555
Mo0 Si6 2.781045 1_555
Mo0 Si0 2.781045 1_554
Mo1 Si3 2.581110 1_554
Mo1 Si9 2.581110 1_555
Mo1 Si4 2.594408 1_554
Mo1 Si10 2.594408 1_555
Mo1 Si1 2.695153 1_555
Mo1 Si7 2.695153 1_554
Mo1 Si1 2.714871 1_545
Mo1 Si7 2.714871 1_564
Mo1 Si7 2.793565 1_555
Mo1 Si1 2.793565 1_554
Mo2 Si6 2.564450 1_555
Mo2 Si0 2.564450 1_545
Mo2 Si10 2.596537 1_555
Mo2 Si4 2.596537 1_545
Mo2 Si2 2.712792 1_554
Mo2 Si8 2.712792 1_546
Mo2 Si8 2.717688 1_545
Mo2 Si2 2.717688 1_555
Mo2 Si2 2.773152 1_545
Mo2 Si8 2.773152 1_555
