# generated using pymatgen
data_CeCdPt
_symmetry_space_group_name_H-M   'P 1'
_cell_length_a   7.66547516
_cell_length_b   7.66722017
_cell_length_c   4.08252289
_cell_angle_alpha   90.00000000
_cell_angle_beta   90.00000000
_cell_angle_gamma   120.00752213
_symmetry_Int_Tables_number   1
_chemical_formula_structural   CeCdPt
_chemical_formula_sum   'Ce3 Cd3 Pt3'
_cell_volume   207.77981324
_cell_formula_units_Z   3
loop_
 _symmetry_equiv_pos_site_id
 _symmetry_equiv_pos_as_xyz
  1  'x, y, z'
loop_
 _atom_site_type_symbol
 _atom_site_label
 _atom_site_symmetry_multiplicity
 _atom_site_fract_x
 _atom_site_fract_y
 _atom_site_fract_z
 _atom_site_occupancy
  Ce  Ce0  1  0.40664874  0.40873821  -0.00000000  1
  Ce  Ce1  1  0.59335126  0.00208947  -0.00000000  1
  Ce  Ce2  1  0.00000000  0.59139188  0.00000000  1
  Cd  Cd0  1  0.74997726  0.75121396  0.50000000  1
  Cd  Cd1  1  0.25002274  0.00123670  0.50000000  1
  Cd  Cd2  1  0.00000000  0.24706052  0.50000000  1
  Pt  Pt0  1  0.67036109  0.33572195  0.50000000  1
  Pt  Pt1  1  0.32963891  0.66536185  0.50000000  1
  Pt  Pt2  1  -0.00000000  -0.00281355  -0.00000000  1
loop_
_geom_bond_atom_site_label_1
_geom_bond_atom_site_label_2
_geom_bond_distance
_geom_bond_site_symmetry_2
Ce0 Pt1 3.090048 1_555
Ce0 Pt1 3.090048 1_554
Ce0 Pt0 3.114240 1_554
Ce0 Pt0 3.114240 1_555
Ce0 Pt2 3.136126 1_555
Ce1 Pt0 3.090043 1_554
Ce1 Pt0 3.090043 1_555
Ce1 Pt1 3.114236 1_544
Ce1 Pt1 3.114236 1_545
Ce1 Pt2 3.136125 1_655
Ce2 Pt1 3.072443 1_555
Ce2 Pt1 3.072443 1_554
Ce2 Pt0 3.072445 1_454
Ce2 Pt0 3.072445 1_455
Ce2 Pt2 3.111316 1_565
Cd0 Pt2 2.789502 1_666
Cd0 Pt2 2.789502 1_665
Cd0 Pt0 2.928533 1_555
Cd0 Pt1 2.948518 1_555
Cd0 Ce0 3.328037 1_556
Cd0 Ce0 3.328037 1_555
Cd0 Ce1 3.408528 1_565
Cd0 Ce1 3.408528 1_566
Cd0 Ce2 3.419140 1_655
Cd0 Ce2 3.419140 1_656
Cd1 Pt2 2.789502 1_556
Cd1 Pt2 2.789502 1_555
Cd1 Pt1 2.928525 1_545
Cd1 Pt0 2.948516 1_555
Cd1 Ce1 3.328036 1_555
Cd1 Ce1 3.328036 1_556
Cd1 Ce0 3.408528 1_556
Cd1 Ce0 3.408528 1_555
Cd1 Ce2 3.419140 1_546
Cd1 Ce2 3.419140 1_545
Cd2 Pt2 2.799498 1_555
Cd2 Pt2 2.799498 1_556
Cd2 Pt0 2.926624 1_455
Cd2 Pt1 2.926629 1_555
Cd2 Ce2 3.337168 1_556
Cd2 Ce2 3.337168 1_555
Cd2 Ce0 3.399279 1_556
Cd2 Ce0 3.399279 1_555
Cd2 Ce1 3.399279 1_456
Cd2 Ce1 3.399279 1_455
