# generated using pymatgen
data_K3Co(C3O7)2
_symmetry_space_group_name_H-M   'P 1'
_cell_length_a   13.20634269
_cell_length_b   13.20634269
_cell_length_c   12.71587269
_cell_angle_alpha   65.56575789
_cell_angle_beta   65.56575789
_cell_angle_gamma   51.40480058
_symmetry_Int_Tables_number   1
_chemical_formula_structural   K3Co(C3O7)2
_chemical_formula_sum   'K12 Co4 C24 O56'
_cell_volume   1539.88905253
_cell_formula_units_Z   4
loop_
 _symmetry_equiv_pos_site_id
 _symmetry_equiv_pos_as_xyz
  1  'x, y, z'
loop_
 _atom_site_type_symbol
 _atom_site_label
 _atom_site_symmetry_multiplicity
 _atom_site_fract_x
 _atom_site_fract_y
 _atom_site_fract_z
 _atom_site_occupancy
  K  K0  1  0.07712500  0.92287500  0.75000000  1
  K  K1  1  0.92287500  0.07712500  0.25000000  1
  K  K2  1  0.66738000  0.33262000  0.75000000  1
  K  K3  1  0.33262000  0.66738000  0.25000000  1
  K  K4  1  0.77190900  0.68303300  0.64886700  1
  K  K5  1  0.31696700  0.22809100  0.85113300  1
  K  K6  1  0.22809100  0.31696700  0.35113300  1
  K  K7  1  0.68303300  0.77190900  0.14886700  1
  K  K8  1  0.83311600  0.38765600  0.96116000  1
  K  K9  1  0.61234400  0.16688400  0.53884000  1
  K  K10  1  0.16688400  0.61234400  0.03884000  1
  K  K11  1  0.38765600  0.83311600  0.46116000  1
  Co  Co0  1  0.12374800  0.65429100  0.67692000  1
  Co  Co1  1  0.34570900  0.87625200  0.82308000  1
  Co  Co2  1  0.87625200  0.34570900  0.32308000  1
  Co  Co3  1  0.65429100  0.12374800  0.17692000  1
  C  C0  1  0.37888000  0.44836100  0.68180600  1
  C  C1  1  0.55163900  0.62112000  0.81819400  1
  C  C2  1  0.62112000  0.55163900  0.31819400  1
  C  C3  1  0.44836100  0.37888000  0.18180600  1
  C  C4  1  0.37974500  0.57608100  0.63676600  1
  C  C5  1  0.42391900  0.62025500  0.86323400  1
  C  C6  1  0.62025500  0.42391900  0.36323400  1
  C  C7  1  0.57608100  0.37974500  0.13676600  1
  C  C8  1  0.06282000  0.77679800  0.46280000  1
  C  C9  1  0.22320200  0.93718000  0.03720000  1
  C  C10  1  0.93718000  0.22320200  0.53720000  1
  C  C11  1  0.77679800  0.06282000  0.96280000  1
  C  C12  1  0.96653400  0.88152600  0.54050400  1
  C  C13  1  0.11847400  0.03346600  0.95949600  1
  C  C14  1  0.03346600  0.11847400  0.45949600  1
  C  C15  1  0.88152600  0.96653400  0.04050400  1
  C  C16  1  0.92184400  0.63042400  0.83495600  1
  C  C17  1  0.36957600  0.07815600  0.66504400  1
  C  C18  1  0.07815600  0.36957600  0.16504400  1
  C  C19  1  0.63042400  0.92184400  0.33495600  1
  C  C20  1  0.97670600  0.65538800  0.90194300  1
  C  C21  1  0.34461200  0.02329400  0.59805700  1
  C  C22  1  0.02329400  0.34461200  0.09805700  1
  C  C23  1  0.65538800  0.97670600  0.40194300  1
  O  O0  1  0.26296200  0.46924400  0.70552000  1
  O  O1  1  0.53075600  0.73703800  0.79448000  1
  O  O2  1  0.73703800  0.53075600  0.29448000  1
  O  O3  1  0.46924300  0.26296200  0.20552000  1
  O  O4  1  0.26243400  0.68492000  0.63314300  1
  O  O5  1  0.31508000  0.73756600  0.86685700  1
  O  O6  1  0.73756600  0.31508000  0.36685700  1
  O  O7  1  0.68492000  0.26243400  0.13314300  1
  O  O8  1  0.14889500  0.66117200  0.51551600  1
  O  O9  1  0.33882800  0.85110500  0.98448400  1
  O  O10  1  0.85110500  0.33882800  0.48448400  1
  O  O11  1  0.66117200  0.14889500  0.01551600  1
  O  O12  1  0.98985000  0.83888200  0.64512500  1
  O  O13  1  0.16111800  0.01015000  0.85487500  1
  O  O14  1  0.01015000  0.16111800  0.35487500  1
  O  O15  1  0.83888200  0.98985000  0.14512500  1
  O  O16  1  0.98752200  0.61923000  0.72676200  1
  O  O17  1  0.38077000  0.01247800  0.77323800  1
  O  O18  1  0.01247800  0.38077000  0.27323800  1
  O  O19  1  0.61923000  0.98752200  0.22676200  1
  O  O20  1  0.08158700  0.65875400  0.84049700  1
  O  O21  1  0.34124600  0.91841300  0.65950300  1
  O  O22  1  0.91841300  0.34124600  0.15950300  1
  O  O23  1  0.65875400  0.08158700  0.34049700  1
  O  O24  1  0.48210900  0.33528700  0.69631700  1
  O  O25  1  0.66471300  0.51789100  0.80368300  1
  O  O26  1  0.51789100  0.66471300  0.30368300  1
  O  O27  1  0.33528700  0.48210900  0.19631700  1
  O  O28  1  0.48395300  0.57201300  0.60819000  1
  O  O29  1  0.42798700  0.51604700  0.89181000  1
  O  O30  1  0.51604700  0.42798700  0.39181000  1
  O  O31  1  0.57201300  0.48395300  0.10819000  1
  O  O32  1  0.05717700  0.80473200  0.35860100  1
  O  O33  1  0.19526800  0.94282300  0.14139900  1
  O  O34  1  0.94282300  0.19526800  0.64139900  1
  O  O35  1  0.80473200  0.05717700  0.85860100  1
  O  O36  1  0.87703600  0.99491400  0.50297800  1
  O  O37  1  0.00508600  0.12296400  0.99702200  1
  O  O38  1  0.12296400  0.00508600  0.49702200  1
  O  O39  1  0.99491400  0.87703600  0.00297800  1
  O  O40  1  0.82361000  0.62149300  0.88222600  1
  O  O41  1  0.37850700  0.17639000  0.61777400  1
  O  O42  1  0.17639000  0.37850700  0.11777400  1
  O  O43  1  0.62149300  0.82361000  0.38222600  1
  O  O44  1  0.92402000  0.66808100  0.00623300  1
  O  O45  1  0.33191900  0.07598000  0.49376700  1
  O  O46  1  0.07598000  0.33191900  0.99376700  1
  O  O47  1  0.66808100  0.92402000  0.50623300  1
  O  O48  1  0.03385500  0.38479700  0.66193100  1
  O  O49  1  0.61520300  0.96614500  0.83806900  1
  O  O50  1  0.96614500  0.61520300  0.33806900  1
  O  O51  1  0.38479700  0.03385500  0.16193100  1
  O  O52  1  0.12078300  0.40225600  0.58688100  1
  O  O53  1  0.59774400  0.87921700  0.91311900  1
  O  O54  1  0.87921700  0.59774400  0.41311900  1
  O  O55  1  0.40225600  0.12078300  0.08688100  1
loop_
_geom_bond_atom_site_label_1
_geom_bond_atom_site_label_2
_geom_bond_distance
_geom_bond_site_symmetry_2
K0 O35 2.819529 1_465
K0 O34 2.819529 1_465
K0 O39 2.865807 1_456
K0 O38 2.865807 1_565
K0 O13 2.903061 1_565
K0 O12 2.903061 1_455
K0 O4 3.054871 1_555
K0 O5 3.054871 1_555
K0 O21 3.158057 1_555
K0 O20 3.158057 1_555
K1 O33 2.819529 1_645
K1 O32 2.819529 1_645
K1 O36 2.865807 1_545
K1 O37 2.865807 1_654
K1 O14 2.903061 1_655
K1 O15 2.903061 1_545
K1 O6 3.054871 1_555
K1 O7 3.054871 1_555
K1 O22 3.158057 1_555
K1 O23 3.158057 1_555
K2 O25 2.776360 1_555
K2 O24 2.776360 1_555
K2 O35 2.848461 1_555
K2 O34 2.848461 1_555
K2 O29 2.908148 1_555
K2 O28 2.908148 1_555
K2 O11 3.245768 1_556
K2 O10 3.245768 1_555
K3 O26 2.776360 1_555
K3 O27 2.776360 1_555
K3 O33 2.848461 1_555
K3 O32 2.848461 1_555
K3 O30 2.908148 1_555
K3 O31 2.908148 1_555
K3 O8 3.245768 1_555
K3 O9 3.245768 1_554
K4 O47 2.671322 1_555
K4 O1 2.731281 1_555
K4 O16 2.906639 1_555
K4 O25 2.937767 1_555
K4 O40 2.986745 1_555
K4 O54 3.090435 1_555
K4 O48 3.231485 1_655
K5 O46 2.671322 1_555
K5 O0 2.731281 1_555
K5 O17 2.906639 1_555
K5 O24 2.937767 1_555
K5 O41 2.986745 1_555
K5 O55 3.090435 1_556
K5 O49 3.231485 1_545
K6 O45 2.671322 1_555
K6 O3 2.731271 1_555
K6 O18 2.906639 1_555
K6 O27 2.937767 1_555
K6 O42 2.986745 1_555
K6 O52 3.090435 1_555
K6 O50 3.231485 1_455
K7 O44 2.671322 1_555
K7 O2 2.731281 1_555
K7 O19 2.906639 1_555
K7 O26 2.937767 1_555
K7 O43 2.986745 1_555
K7 O53 3.090435 1_554
K7 O51 3.231485 1_565
K8 O37 2.686711 1_655
K8 O40 2.759715 1_555
K8 O25 2.824331 1_555
K8 O31 2.857520 1_556
K8 O22 2.866312 1_556
K8 O7 2.975383 1_556
K8 O46 2.983789 1_655
K9 O36 2.686711 1_545
K9 O41 2.759715 1_555
K9 O24 2.824331 1_555
K9 O30 2.857520 1_555
K9 O23 2.866312 1_555
K9 O6 2.975383 1_555
K9 O47 2.983789 1_545
K10 O39 2.686711 1_455
K10 O42 2.759715 1_555
K10 O27 2.824331 1_555
K10 O29 2.857520 1_554
K10 O20 2.866312 1_554
K10 O5 2.975383 1_554
K10 O44 2.983789 1_455
K11 O38 2.686711 1_565
K11 O43 2.759715 1_555
K11 O26 2.824331 1_555
K11 O28 2.857520 1_555
K11 O21 2.866312 1_555
K11 O4 2.975383 1_555
K11 O45 2.983789 1_565
Co0 O12 1.905516 1_455
Co0 O8 1.910585 1_555
Co0 O0 1.922726 1_555
Co0 O16 1.925062 1_455
Co0 O4 1.929396 1_555
Co0 O20 1.934514 1_555
Co1 O13 1.905516 1_565
Co1 O9 1.910585 1_555
Co1 O1 1.922726 1_555
Co1 O17 1.925062 1_565
Co1 O5 1.929396 1_555
Co1 O21 1.934514 1_555
Co2 O14 1.905516 1_655
Co2 O10 1.910585 1_555
Co2 O2 1.922726 1_555
Co2 O18 1.925062 1_655
Co2 O6 1.929396 1_555
Co2 O22 1.934514 1_555
Co3 O15 1.905516 1_545
Co3 O11 1.910585 1_555
Co3 O3 1.922734 1_555
Co3 O19 1.925062 1_545
Co3 O7 1.929396 1_555
Co3 O23 1.934514 1_555
C0 O24 1.250105 1_555
C0 O0 1.292542 1_555
C1 O25 1.250105 1_555
C1 O1 1.292542 1_555
C2 O26 1.250105 1_555
C2 O2 1.292542 1_555
C3 O27 1.250105 1_555
C3 O3 1.292547 1_555
C4 O28 1.240592 1_555
C4 O4 1.301658 1_555
C5 O29 1.240592 1_555
C5 O5 1.301658 1_555
C6 O30 1.240592 1_555
C6 O6 1.301658 1_555
C7 O31 1.240592 1_555
C7 O7 1.301658 1_555
C8 O32 1.241061 1_555
C8 O8 1.300455 1_555
C9 O33 1.241061 1_555
C9 O9 1.300455 1_554
C10 O34 1.241061 1_555
C10 O10 1.300455 1_555
C11 O35 1.241061 1_555
C11 O11 1.300455 1_556
C12 O36 1.238669 1_555
C12 O12 1.297890 1_555
C13 O37 1.238669 1_555
C13 O13 1.297890 1_555
C14 O38 1.238669 1_555
C14 O14 1.297890 1_555
C15 O39 1.238669 1_555
C15 O15 1.297890 1_555
C16 O40 1.243126 1_555
C16 O16 1.299237 1_555
C17 O41 1.243126 1_555
C17 O17 1.299237 1_555
C18 O42 1.243126 1_555
C18 O18 1.299237 1_555
C19 O43 1.243126 1_555
C19 O19 1.299237 1_555
C20 O44 1.243341 1_556
C20 O20 1.297579 1_655
C21 O45 1.243341 1_555
C21 O21 1.297579 1_545
C22 O46 1.243341 1_554
C22 O22 1.297579 1_455
C23 O47 1.243341 1_555
C23 O23 1.297579 1_565
O48 O52 1.234362 1_555
O49 O53 1.234362 1_555
O50 O54 1.234362 1_555
O51 O55 1.234362 1_555
