# generated using pymatgen
data_Mn9(FeN4)2
_symmetry_space_group_name_H-M   'P 1'
_cell_length_a   7.45733816
_cell_length_b   4.08198919
_cell_length_c   6.49437502
_cell_angle_alpha   90.00000066
_cell_angle_beta   73.29820134
_cell_angle_gamma   74.11608457
_symmetry_Int_Tables_number   1
_chemical_formula_structural   Mn9(FeN4)2
_chemical_formula_sum   'Mn9 Fe2 N8'
_cell_volume   181.45888032
_cell_formula_units_Z   1
loop_
 _symmetry_equiv_pos_site_id
 _symmetry_equiv_pos_as_xyz
  1  'x, y, z'
loop_
 _atom_site_type_symbol
 _atom_site_label
 _atom_site_symmetry_multiplicity
 _atom_site_fract_x
 _atom_site_fract_y
 _atom_site_fract_z
 _atom_site_occupancy
  Mn  Mn0  1  0.00000000  0.50000000  0.50000000  1
  Mn  Mn1  1  0.08633400  0.95683300  0.77666300  1
  Mn  Mn2  1  0.91366600  0.04316700  0.22333700  1
  Mn  Mn3  1  0.64162500  0.67918700  0.42430900  1
  Mn  Mn4  1  0.35837500  0.32081300  0.57569100  1
  Mn  Mn5  1  0.80380800  0.59809700  0.97132900  1
  Mn  Mn6  1  0.19619200  0.40190300  0.02867100  1
  Mn  Mn7  1  0.71241100  0.14379500  0.70885400  1
  Mn  Mn8  1  0.28758900  0.85620500  0.29114600  1
  Fe  Fe0  1  0.44060100  0.77970000  0.81910500  1
  Fe  Fe1  1  0.55939900  0.22030000  0.18089500  1
  N  N0  1  0.19817900  0.90091100  0.03615700  1
  N  N1  1  0.80182100  0.09908900  0.96384300  1
  N  N2  1  0.35571500  0.82214200  0.57070400  1
  N  N3  1  0.64428500  0.17785800  0.42929600  1
  N  N4  1  0.71650000  0.64175000  0.70404000  1
  N  N5  1  0.28350000  0.35825000  0.29596000  1
  N  N6  1  0.08746500  0.45626700  0.76613200  1
  N  N7  1  0.91253500  0.54373300  0.23386800  1
loop_
_geom_bond_atom_site_label_1
_geom_bond_atom_site_label_2
_geom_bond_distance
_geom_bond_site_symmetry_2
Mn0 N7 2.007180 1_455
Mn0 N6 2.007180 1_555
Mn0 N4 2.068943 1_455
Mn0 N5 2.068943 1_555
Mn1 N2 1.994472 1_555
Mn1 N1 2.039536 1_465
Mn1 N6 2.042073 1_565
Mn1 N6 2.042077 1_555
Mn1 N0 2.071605 1_556
Mn2 N3 1.994472 1_555
Mn2 N0 2.039536 1_645
Mn2 N7 2.042073 1_545
Mn2 N7 2.042077 1_555
Mn2 N1 2.071605 1_554
Mn3 N7 1.967037 1_555
Mn3 N2 1.986006 1_555
Mn3 N3 2.041427 1_555
Mn3 N3 2.041435 1_565
Mn3 N4 2.042495 1_555
Mn4 N6 1.967037 1_555
Mn4 N3 1.986006 1_555
Mn4 N2 2.041427 1_555
Mn4 N2 2.041435 1_545
Mn4 N5 2.042495 1_555
Mn5 N4 2.013713 1_555
Mn5 N1 2.041719 1_565
Mn5 N1 2.041731 1_555
Mn5 N6 2.072450 1_655
Mn5 N7 2.076031 1_556
Mn6 N5 2.013713 1_555
Mn6 N0 2.041719 1_545
Mn6 N0 2.041731 1_555
Mn6 N7 2.072450 1_455
Mn6 N6 2.076031 1_554
Mn7 N1 1.946338 1_555
Mn7 N3 2.016227 1_555
Mn7 N4 2.041308 1_555
Mn7 N4 2.041313 1_545
Mn8 N0 1.946338 1_555
Mn8 N2 2.016227 1_555
Mn8 N5 2.041308 1_555
Mn8 N5 2.041313 1_565
Fe0 N0 1.883002 1_556
Fe0 N2 1.886826 1_555
Fe0 N4 1.894940 1_555
Fe1 N1 1.883002 1_554
Fe1 N3 1.886826 1_555
Fe1 N5 1.894940 1_555
