# generated using pymatgen
data_Na2Ti7O15
_symmetry_space_group_name_H-M   'P 1'
_cell_length_a   7.90164434
_cell_length_b   7.90164434
_cell_length_c   21.41499320
_cell_angle_alpha   84.10203941
_cell_angle_beta   84.10203941
_cell_angle_gamma   27.58051923
_symmetry_Int_Tables_number   1
_chemical_formula_structural   Na2Ti7O15
_chemical_formula_sum   'Na4 Ti14 O30'
_cell_volume   615.57958862
_cell_formula_units_Z   2
loop_
 _symmetry_equiv_pos_site_id
 _symmetry_equiv_pos_as_xyz
  1  'x, y, z'
loop_
 _atom_site_type_symbol
 _atom_site_label
 _atom_site_symmetry_multiplicity
 _atom_site_fract_x
 _atom_site_fract_y
 _atom_site_fract_z
 _atom_site_occupancy
  Na  Na0  1  0.99809900  0.99809900  0.00525700  1
  Na  Na1  1  0.06417100  0.06417100  0.81595200  1
  Na  Na2  1  0.03454600  0.03454600  0.39576800  1
  Na  Na3  1  0.96541300  0.96541300  0.60109200  1
  Ti  Ti0  1  0.64219700  0.64219700  0.09964900  1
  Ti  Ti1  1  0.35952500  0.35952500  0.90143800  1
  Ti  Ti2  1  0.37683400  0.37683400  0.32544100  1
  Ti  Ti3  1  0.62288300  0.62288300  0.67050800  1
  Ti  Ti4  1  0.25503400  0.25503400  0.18796800  1
  Ti  Ti5  1  0.74749200  0.74749200  0.81244900  1
  Ti  Ti6  1  0.72331400  0.72331400  0.38178100  1
  Ti  Ti7  1  0.27760300  0.27760300  0.61595400  1
  Ti  Ti8  1  0.30385900  0.30385900  0.04492800  1
  Ti  Ti9  1  0.69502100  0.69502100  0.95589700  1
  Ti  Ti10  1  0.33335700  0.33335700  0.47215300  1
  Ti  Ti11  1  0.66758700  0.66758700  0.52536900  1
  Ti  Ti12  1  0.59646500  0.59646500  0.24138000  1
  Ti  Ti13  1  0.40031900  0.40031900  0.75530900  1
  O  O0  1  0.17904200  0.17904200  0.09687200  1
  O  O1  1  0.82175800  0.82175800  0.90074500  1
  O  O2  1  0.62502900  0.62502900  0.44880800  1
  O  O3  1  0.37376300  0.37376300  0.55240700  1
  O  O4  1  0.42617900  0.42617900  0.41407400  1
  O  O5  1  0.57461100  0.57461100  0.58846900  1
  O  O6  1  0.65702100  0.65702100  0.31988900  1
  O  O7  1  0.34460500  0.34460500  0.67991200  1
  O  O8  1  0.79549600  0.79549600  0.47194800  1
  O  O9  1  0.20241200  0.20241200  0.53148500  1
  O  O10  1  0.34695100  0.34695100  0.11869000  1
  O  O11  1  0.65108000  0.65108000  0.87920100  1
  O  O12  1  0.31503600  0.31503600  0.25332100  1
  O  O13  1  0.68003700  0.68003700  0.75105200  1
  O  O14  1  0.25540500  0.25540500  0.39200300  1
  O  O15  1  0.74458000  0.74458000  0.61067400  1
  O  O16  1  0.55267000  0.55267000  0.15765900  1
  O  O17  1  0.45178400  0.45178400  0.84290000  1
  O  O18  1  0.72085600  0.72085600  0.17662400  1
  O  O19  1  0.28063200  0.28063200  0.82111900  1
  O  O20  1  0.77266500  0.77266500  0.03602100  1
  O  O21  1  0.22739600  0.22739600  0.95985900  1
  O  O22  1  0.48943200  0.48943200  0.28802700  1
  O  O23  1  0.51273000  0.51273000  0.71622200  1
  O  O24  1  0.12913800  0.12913800  0.23292500  1
  O  O25  1  0.87408500  0.87408500  0.76702900  1
  O  O26  1  0.84971600  0.84971600  0.33793500  1
  O  O27  1  0.15025000  0.15025000  0.66459200  1
  O  O28  1  0.59845100  0.59845100  0.01736300  1
  O  O29  1  0.40247000  0.40247000  0.98088500  1
loop_
_geom_bond_atom_site_label_1
_geom_bond_atom_site_label_2
_geom_bond_distance
_geom_bond_site_symmetry_2
Na0 O28 2.464028 1_655
Na0 O28 2.464028 1_565
Na0 O29 2.477136 1_564
Na0 O29 2.477136 1_654
Na1 O17 2.577830 1_545
Na1 O17 2.577830 1_455
Na1 O11 2.746577 1_455
Na1 O11 2.746577 1_545
Na1 O13 2.849298 1_455
Na1 O13 2.849298 1_545
Na2 O4 2.515848 1_545
Na2 O4 2.515848 1_455
Na2 O2 2.664592 1_545
Na2 O2 2.664592 1_455
Na3 O5 2.516659 1_655
Na3 O5 2.516659 1_565
Na3 O3 2.631253 1_655
Na3 O3 2.631253 1_565
O0 Ti0 1.965649 1_455
O0 Ti0 1.965649 1_545
O0 Ti8 2.110973 1_555
O0 Ti4 2.376436 1_555
O1 Ti1 1.971193 1_655
O1 Ti1 1.971193 1_565
O1 Ti9 2.166177 1_555
O1 Ti5 2.308810 1_555
O2 Ti11 1.827945 1_555
O2 Ti6 1.969154 1_555
O3 Ti10 1.887812 1_555
O3 Ti7 1.898692 1_555
O4 Ti10 1.789274 1_555
O4 Ti2 2.116704 1_555
O5 Ti11 1.858543 1_555
O5 Ti3 1.977598 1_555
O6 Ti6 1.754224 1_555
O6 Ti12 2.005271 1_555
O7 Ti7 1.797633 1_555
O7 Ti13 1.905348 1_555
O8 Ti10 1.971242 1_655
O8 Ti10 1.971242 1_565
O8 Ti11 2.165026 1_555
O8 Ti6 2.325605 1_555
O9 Ti11 1.966017 1_455
O9 Ti11 1.966017 1_545
O9 Ti7 2.246246 1_555
O9 Ti10 2.261192 1_555
O10 Ti8 1.775853 1_555
O10 Ti4 1.936045 1_555
O11 Ti9 1.840334 1_555
O11 Ti5 1.945604 1_555
O12 Ti4 1.754844 1_555
O12 Ti2 1.896018 1_555
O13 Ti5 1.757442 1_555
O13 Ti3 2.016119 1_555
O14 Ti6 1.964916 1_455
O14 Ti6 1.964916 1_545
O14 Ti10 2.193619 1_555
O14 Ti2 2.223268 1_555
O15 Ti7 1.956877 1_565
O15 Ti7 1.956877 1_655
O15 Ti3 2.150345 1_555
O15 Ti11 2.278239 1_555
O16 Ti0 1.752152 1_555
O16 Ti12 1.980213 1_555
O17 Ti1 1.789087 1_555
O17 Ti13 2.110902 1_555
O18 Ti4 1.977048 1_655
O18 Ti4 1.977048 1_565
O18 Ti0 2.143789 1_555
O18 Ti12 2.237762 1_555
O19 Ti5 1.964875 1_455
O19 Ti5 1.964875 1_545
O19 Ti13 2.193776 1_555
O19 Ti1 2.205751 1_555
O20 Ti8 1.957676 1_565
O20 Ti8 1.957676 1_655
O20 Ti9 2.190184 1_554
O20 Ti0 2.299751 1_555
O21 Ti9 1.952074 1_545
O21 Ti9 1.952074 1_455
O21 Ti1 2.267300 1_555
O21 Ti8 2.269003 1_556
O22 Ti2 1.826300 1_555
O22 Ti12 1.830069 1_555
O23 Ti13 1.836182 1_555
O23 Ti3 1.861794 1_555
O24 Ti12 1.952590 1_455
O24 Ti12 1.952590 1_545
O24 Ti4 2.065603 1_555
O25 Ti13 1.936828 1_565
O25 Ti13 1.936828 1_655
O25 Ti5 2.078727 1_555
O26 Ti2 1.941346 1_655
O26 Ti2 1.941346 1_565
O26 Ti6 2.063911 1_555
O27 Ti3 1.931007 1_545
O27 Ti3 1.931007 1_455
O27 Ti7 2.115295 1_555
O28 Ti9 1.875235 1_554
O28 Ti0 1.950983 1_555
O29 Ti1 1.888476 1_555
O29 Ti8 1.931908 1_556
