# generated using pymatgen
data_MgFeBO4
_symmetry_space_group_name_H-M   'P 1'
_cell_length_a   3.12958100
_cell_length_b   9.35180600
_cell_length_c   9.49204600
_cell_angle_alpha   90.00000000
_cell_angle_beta   90.00000000
_cell_angle_gamma   90.00000000
_symmetry_Int_Tables_number   1
_chemical_formula_structural   MgFeBO4
_chemical_formula_sum   'Mg4 Fe4 B4 O16'
_cell_volume   277.80593496
_cell_formula_units_Z   4
loop_
 _symmetry_equiv_pos_site_id
 _symmetry_equiv_pos_as_xyz
  1  'x, y, z'
loop_
 _atom_site_type_symbol
 _atom_site_label
 _atom_site_symmetry_multiplicity
 _atom_site_fract_x
 _atom_site_fract_y
 _atom_site_fract_z
 _atom_site_occupancy
  Mg  Mg0  1  0.25000000  0.60340800  0.18915300  1
  Mg  Mg1  1  0.75000000  0.39659200  0.81084700  1
  Mg  Mg2  1  0.75000000  0.89659200  0.68915300  1
  Mg  Mg3  1  0.25000000  0.10340800  0.31084700  1
  Fe  Fe0  1  0.25000000  0.61790800  0.57078000  1
  Fe  Fe1  1  0.75000000  0.38209200  0.42922000  1
  Fe  Fe2  1  0.75000000  0.88209200  0.07078000  1
  Fe  Fe3  1  0.25000000  0.11790800  0.92922000  1
  B  B0  1  0.25000000  0.66520300  0.87439400  1
  B  B1  1  0.75000000  0.33479700  0.12560600  1
  B  B2  1  0.75000000  0.83479700  0.37439400  1
  B  B3  1  0.25000000  0.16520300  0.62560600  1
  O  O0  1  0.25000000  0.73803600  0.00560600  1
  O  O1  1  0.75000000  0.26196400  0.99439400  1
  O  O2  1  0.75000000  0.76196400  0.50560600  1
  O  O3  1  0.25000000  0.23803600  0.49439400  1
  O  O4  1  0.25000000  0.74598100  0.74925700  1
  O  O5  1  0.75000000  0.25401900  0.25074300  1
  O  O6  1  0.75000000  0.75401900  0.24925700  1
  O  O7  1  0.25000000  0.24598100  0.75074300  1
  O  O8  1  0.25000000  0.00968800  0.11420500  1
  O  O9  1  0.75000000  0.99031200  0.88579500  1
  O  O10  1  0.75000000  0.49031200  0.61420500  1
  O  O11  1  0.25000000  0.50968800  0.38579500  1
  O  O12  1  0.25000000  0.52114300  0.86801800  1
  O  O13  1  0.75000000  0.47885700  0.13198200  1
  O  O14  1  0.75000000  0.97885700  0.36801800  1
  O  O15  1  0.25000000  0.02114300  0.63198200  1
loop_
_geom_bond_atom_site_label_1
_geom_bond_atom_site_label_2
_geom_bond_distance
_geom_bond_site_symmetry_2
Mg0 O13 2.024788 1_455
Mg0 O13 2.024788 1_555
Mg0 O11 2.062067 1_555
Mg0 O0 2.149536 1_555
Mg0 O6 2.181257 1_555
Mg0 O6 2.181257 1_455
Mg1 O12 2.024788 1_555
Mg1 O12 2.024788 1_655
Mg1 O10 2.062067 1_555
Mg1 O1 2.149536 1_555
Mg1 O7 2.181257 1_655
Mg1 O7 2.181257 1_555
Mg2 O15 2.024788 1_665
Mg2 O15 2.024788 1_565
Mg2 O9 2.062067 1_555
Mg2 O2 2.149536 1_555
Mg2 O4 2.181257 1_655
Mg2 O4 2.181257 1_555
Mg3 O14 2.024788 1_445
Mg3 O14 2.024788 1_545
Mg3 O8 2.062067 1_555
Mg3 O3 2.149536 1_555
Mg3 O5 2.181257 1_455
Mg3 O5 2.181257 1_555
Fe0 O10 2.010553 1_455
Fe0 O10 2.010553 1_555
Fe0 O11 2.026669 1_555
Fe0 O4 2.074737 1_555
Fe0 O2 2.155500 1_555
Fe0 O2 2.155500 1_455
Fe1 O11 2.010553 1_555
Fe1 O11 2.010553 1_655
Fe1 O10 2.026669 1_555
Fe1 O5 2.074737 1_555
Fe1 O3 2.155500 1_655
Fe1 O3 2.155500 1_555
Fe2 O8 2.010553 1_565
Fe2 O8 2.010553 1_665
Fe2 O9 2.026669 1_554
Fe2 O6 2.074737 1_555
Fe2 O0 2.155500 1_555
Fe2 O0 2.155500 1_655
Fe3 O9 2.010553 1_445
Fe3 O9 2.010553 1_545
Fe3 O8 2.026669 1_556
Fe3 O7 2.074737 1_555
Fe3 O1 2.155500 1_555
Fe3 O1 2.155500 1_455
B0 O12 1.348580 1_555
B0 O4 1.407673 1_555
B0 O0 1.419550 1_556
B1 O13 1.348580 1_555
B1 O5 1.407673 1_555
B1 O1 1.419550 1_554
B2 O14 1.348580 1_555
B2 O6 1.407673 1_555
B2 O2 1.419550 1_555
B3 O15 1.348580 1_555
B3 O7 1.407673 1_555
B3 O3 1.419550 1_555
