# generated using pymatgen
data_Sr2Ca2TiMn3O10
_symmetry_space_group_name_H-M   'P 1'
_cell_length_a   11.08225340
_cell_length_b   11.28343513
_cell_length_c   17.50037908
_cell_angle_alpha   108.76980572
_cell_angle_beta   108.55823172
_cell_angle_gamma   90.04674597
_symmetry_Int_Tables_number   1
_chemical_formula_structural   Sr2Ca2TiMn3O10
_chemical_formula_sum   'Sr16 Ca16 Ti8 Mn24 O80'
_cell_volume   1951.19840282
_cell_formula_units_Z   8
loop_
 _symmetry_equiv_pos_site_id
 _symmetry_equiv_pos_as_xyz
  1  'x, y, z'
loop_
 _atom_site_type_symbol
 _atom_site_label
 _atom_site_symmetry_multiplicity
 _atom_site_fract_x
 _atom_site_fract_y
 _atom_site_fract_z
 _atom_site_occupancy
  Sr  Sr0  1  0.30934400  0.56074000  0.61024700  1
  Sr  Sr1  1  0.80763900  0.06028400  0.60816600  1
  Sr  Sr2  1  0.80999700  0.56004500  0.60994800  1
  Sr  Sr3  1  0.19667000  0.43705600  0.38844800  1
  Sr  Sr4  1  0.19240000  0.43738300  0.88906800  1
  Sr  Sr5  1  0.69755100  0.43895000  0.38756700  1
  Sr  Sr6  1  0.69926400  0.93581700  0.38652400  1
  Sr  Sr7  1  0.69544300  0.93620500  0.88832500  1
  Sr  Sr8  1  0.06029200  0.29879900  0.60991900  1
  Sr  Sr9  1  0.06018300  0.79895100  0.60919000  1
  Sr  Sr10  1  0.55833400  0.30024800  0.60996300  1
  Sr  Sr11  1  0.55997600  0.79709400  0.61000200  1
  Sr  Sr12  1  0.44661100  0.20115900  0.38699800  1
  Sr  Sr13  1  0.44093000  0.19889100  0.88601300  1
  Sr  Sr14  1  0.94747400  0.19941800  0.38841600  1
  Sr  Sr15  1  0.94875200  0.20488300  0.88991100  1
  Ca  Ca0  1  0.30041700  0.07089300  0.10956600  1
  Ca  Ca1  1  0.30510400  0.06129400  0.60532800  1
  Ca  Ca2  1  0.30442200  0.56346700  0.11286100  1
  Ca  Ca3  1  0.80362400  0.06737600  0.10846300  1
  Ca  Ca4  1  0.80267700  0.56861900  0.11440300  1
  Ca  Ca5  1  0.19455600  0.93331000  0.39108600  1
  Ca  Ca6  1  0.19675400  0.93664500  0.89260600  1
  Ca  Ca7  1  0.69878400  0.43837200  0.89449800  1
  Ca  Ca8  1  0.05559400  0.28819100  0.10914200  1
  Ca  Ca9  1  0.05164200  0.80036900  0.11267400  1
  Ca  Ca10  1  0.54800000  0.29105800  0.10896000  1
  Ca  Ca11  1  0.55424700  0.79431100  0.10976600  1
  Ca  Ca12  1  0.44798100  0.70426900  0.39118700  1
  Ca  Ca13  1  0.44303900  0.70554200  0.89125400  1
  Ca  Ca14  1  0.94703000  0.70693300  0.39218500  1
  Ca  Ca15  1  0.94360400  0.70190000  0.89315200  1
  Ti  Ti0  1  0.00353700  0.99786600  0.99852700  1
  Ti  Ti1  1  0.00618700  0.50483400  0.00905100  1
  Ti  Ti2  1  0.50135400  0.99658600  0.00098900  1
  Ti  Ti3  1  0.50308100  0.99761000  0.49799400  1
  Ti  Ti4  1  0.50331200  0.50305100  0.00159500  1
  Ti  Ti5  1  0.25335600  0.75185400  0.00450600  1
  Ti  Ti6  1  0.75107700  0.25413200  0.00222100  1
  Ti  Ti7  1  0.75508200  0.74935800  0.00191400  1
  Mn  Mn0  1  0.00662000  0.99680300  0.49801900  1
  Mn  Mn1  1  0.00431000  0.50076500  0.49826300  1
  Mn  Mn2  1  0.50388300  0.50084100  0.49857000  1
  Mn  Mn3  1  0.25553400  0.25213900  0.00196400  1
  Mn  Mn4  1  0.25452900  0.24595100  0.49913500  1
  Mn  Mn5  1  0.25557500  0.75016500  0.49826200  1
  Mn  Mn6  1  0.75334800  0.24923500  0.49797000  1
  Mn  Mn7  1  0.75519600  0.74802800  0.49724100  1
  Mn  Mn8  1  0.10526800  0.09096800  0.24662900  1
  Mn  Mn9  1  0.11348200  0.09228200  0.75008900  1
  Mn  Mn10  1  0.10910000  0.59598100  0.24998900  1
  Mn  Mn11  1  0.11563100  0.60328100  0.75423400  1
  Mn  Mn12  1  0.60422900  0.09085100  0.24290700  1
  Mn  Mn13  1  0.60752900  0.10074800  0.74906200  1
  Mn  Mn14  1  0.60916300  0.59192300  0.24636100  1
  Mn  Mn15  1  0.61291700  0.59572100  0.75458300  1
  Mn  Mn16  1  0.35555900  0.40684500  0.24851000  1
  Mn  Mn17  1  0.36673800  0.40705400  0.75256300  1
  Mn  Mn18  1  0.35696600  0.90208100  0.24773800  1
  Mn  Mn19  1  0.36087800  0.90366800  0.74976500  1
  Mn  Mn20  1  0.85624500  0.40481400  0.24603300  1
  Mn  Mn21  1  0.85891500  0.41116900  0.75673200  1
  Mn  Mn22  1  0.86238100  0.90329600  0.24584300  1
  Mn  Mn23  1  0.86562800  0.90359400  0.75037100  1
  O  O0  1  0.12792700  0.11579000  0.49063500  1
  O  O1  1  0.12358200  0.11257700  0.99347000  1
  O  O2  1  0.12187400  0.62542800  0.48539400  1
  O  O3  1  0.12441200  0.62595700  0.98857500  1
  O  O4  1  0.62255700  0.11983500  0.49042500  1
  O  O5  1  0.62836300  0.12543800  0.99356000  1
  O  O6  1  0.62125800  0.62267600  0.48772300  1
  O  O7  1  0.62904000  0.62134600  0.98763100  1
  O  O8  1  0.13132900  0.39053200  0.01594700  1
  O  O9  1  0.13425100  0.37173300  0.50489700  1
  O  O10  1  0.14252400  0.88061600  0.01850900  1
  O  O11  1  0.13724000  0.88020000  0.50640200  1
  O  O12  1  0.64281600  0.38336800  0.01933400  1
  O  O13  1  0.63035600  0.37549800  0.50267500  1
  O  O14  1  0.64151100  0.87796400  0.01673400  1
  O  O15  1  0.63070200  0.87577000  0.50487200  1
  O  O16  1  0.37031100  0.11182400  0.48624800  1
  O  O17  1  0.37808800  0.10929700  0.99096000  1
  O  O18  1  0.37552000  0.62132400  0.48839700  1
  O  O19  1  0.37999900  0.62103000  0.98766200  1
  O  O20  1  0.87627800  0.12073900  0.49424900  1
  O  O21  1  0.87773500  0.11819400  0.99308600  1
  O  O22  1  0.87326400  0.62370300  0.48867900  1
  O  O23  1  0.87627100  0.61763300  0.98786800  1
  O  O24  1  0.39410200  0.39403700  0.01768600  1
  O  O25  1  0.38002400  0.37536000  0.50348900  1
  O  O26  1  0.39258600  0.88436200  0.01832900  1
  O  O27  1  0.38350800  0.88269400  0.50984400  1
  O  O28  1  0.88753900  0.38944400  0.01740300  1
  O  O29  1  0.87912900  0.37619500  0.50362300  1
  O  O30  1  0.89184100  0.88367500  0.01725300  1
  O  O31  1  0.88402900  0.87687900  0.50472700  1
  O  O32  1  0.08273100  0.08964200  0.13290700  1
  O  O33  1  0.08050000  0.07781800  0.63282200  1
  O  O34  1  0.08008900  0.60323500  0.12884500  1
  O  O35  1  0.07280700  0.58301200  0.63223800  1
  O  O36  1  0.58470600  0.09319900  0.12870600  1
  O  O37  1  0.57405700  0.08365600  0.62507700  1
  O  O38  1  0.58674500  0.60025100  0.12740400  1
  O  O39  1  0.57289500  0.57853000  0.63082600  1
  O  O40  1  0.43488000  0.41768400  0.36409500  1
  O  O41  1  0.46102000  0.41246100  0.87752000  1
  O  O42  1  0.44507000  0.90704700  0.36955100  1
  O  O43  1  0.45489500  0.90828700  0.87695200  1
  O  O44  1  0.93470700  0.41479000  0.36150900  1
  O  O45  1  0.94443800  0.41628700  0.87251600  1
  O  O46  1  0.94837700  0.90939700  0.36756500  1
  O  O47  1  0.95400300  0.90400900  0.87643200  1
  O  O48  1  0.33595400  0.29246400  0.13793600  1
  O  O49  1  0.32663100  0.28781400  0.63046300  1
  O  O50  1  0.33241100  0.77605600  0.12657500  1
  O  O51  1  0.32024500  0.79080100  0.62703900  1
  O  O52  1  0.83636700  0.28864100  0.13037000  1
  O  O53  1  0.82501100  0.30943300  0.64150100  1
  O  O54  1  0.83660400  0.77773700  0.12656600  1
  O  O55  1  0.82316500  0.79393900  0.62753400  1
  O  O56  1  0.18468200  0.19561400  0.36173800  1
  O  O57  1  0.19079500  0.20480800  0.86466900  1
  O  O58  1  0.20366800  0.71377300  0.36952000  1
  O  O59  1  0.20751900  0.72120600  0.87711200  1
  O  O60  1  0.68299900  0.18918500  0.35850600  1
  O  O61  1  0.69919900  0.21910300  0.87843600  1
  O  O62  1  0.69831700  0.70242400  0.36760700  1
  O  O63  1  0.71180300  0.71366200  0.87632900  1
  O  O64  1  0.42230400  0.06929900  0.23871500  1
  O  O65  1  0.42000800  0.07204900  0.74403200  1
  O  O66  1  0.42211600  0.56917700  0.24743600  1
  O  O67  1  0.43257800  0.58303400  0.75997500  1
  O  O68  1  0.92356000  0.07319200  0.23960700  1
  O  O69  1  0.93805100  0.07243600  0.75143300  1
  O  O70  1  0.92210100  0.57133600  0.24904100  1
  O  O71  1  0.93436200  0.57402900  0.76120400  1
  O  O72  1  0.17182400  0.41905600  0.23963500  1
  O  O73  1  0.18531400  0.43764700  0.75289100  1
  O  O74  1  0.17027800  0.92796600  0.24788500  1
  O  O75  1  0.18194700  0.93256800  0.76093500  1
  O  O76  1  0.67201700  0.41655400  0.23810300  1
  O  O77  1  0.68289500  0.42592400  0.76040300  1
  O  O78  1  0.67443800  0.92904100  0.23917200  1
  O  O79  1  0.68600200  0.93764600  0.75291900  1
loop_
_geom_bond_atom_site_label_1
_geom_bond_atom_site_label_2
_geom_bond_distance
_geom_bond_site_symmetry_2
Ca0 O64 2.239668 1_555
Ca0 O48 2.393147 1_555
Ca0 O10 2.495587 1_545
Ca0 O1 2.504331 1_554
Ca0 O32 2.569828 1_555
Ca0 O26 2.627081 1_545
Ca0 O17 2.636760 1_554
Ca1 O65 2.317551 1_555
Ca1 O49 2.447824 1_555
Ca1 O11 2.510077 1_545
Ca1 O27 2.523559 1_545
Ca1 O0 2.559260 1_555
Ca1 O16 2.629192 1_555
Ca1 O33 2.677192 1_555
Ca1 O37 2.890338 1_555
Ca2 O66 2.280097 1_555
Ca2 O50 2.342788 1_555
Ca2 O8 2.481337 1_555
Ca2 O24 2.534644 1_555
Ca2 O34 2.612293 1_555
Ca2 O3 2.726718 1_554
Ca2 O19 2.829670 1_554
Ca2 O38 3.073972 1_555
Ca3 O68 2.235954 1_555
Ca3 O52 2.409526 1_555
Ca3 O14 2.514443 1_545
Ca3 O36 2.564799 1_555
Ca3 O5 2.570790 1_554
Ca3 O30 2.582156 1_545
Ca3 O21 2.623011 1_554
Ca3 O32 2.983440 1_655
Ca4 O70 2.296251 1_555
Ca4 O54 2.319189 1_555
Ca4 O12 2.481059 1_555
Ca4 O38 2.490256 1_555
Ca4 O28 2.581504 1_555
Ca4 O7 2.666956 1_554
Ca4 O23 2.794933 1_554
Ca4 O34 3.017943 1_655
Ca5 O58 2.389947 1_555
Ca5 O74 2.414529 1_555
Ca5 O0 2.516487 1_565
Ca5 O16 2.528747 1_565
Ca5 O11 2.535507 1_555
Ca5 O46 2.626386 1_455
Ca5 O27 2.650668 1_555
Ca5 O42 2.921120 1_555
Ca6 O75 2.242741 1_555
Ca6 O59 2.365138 1_555
Ca6 O1 2.524447 1_565
Ca6 O17 2.535784 1_565
Ca6 O47 2.626719 1_455
Ca6 O10 2.711883 1_556
Ca6 O26 2.774317 1_556
Ca6 O43 2.967400 1_555
Ca7 O77 2.254465 1_555
Ca7 O61 2.398653 1_555
Ca7 O7 2.480996 1_555
Ca7 O23 2.539857 1_555
Ca7 O41 2.561498 1_555
Ca7 O28 2.684946 1_556
Ca7 O12 2.697625 1_556
Ca7 O45 2.868380 1_555
Ca8 O72 2.238111 1_555
Ca8 O32 2.409048 1_555
Ca8 O52 2.571764 1_455
Ca8 O21 2.574491 1_454
Ca8 O28 2.575266 1_455
Ca8 O8 2.603779 1_555
Ca8 O1 2.642710 1_554
Ca8 O48 2.982843 1_555
Ca9 O74 2.285778 1_555
Ca9 O34 2.340225 1_555
Ca9 O30 2.436971 1_455
Ca9 O54 2.492240 1_455
Ca9 O10 2.562257 1_555
Ca9 O23 2.681866 1_454
Ca9 O3 2.758058 1_554
Ca10 O76 2.227562 1_555
Ca10 O36 2.382761 1_555
Ca10 O24 2.504794 1_555
Ca10 O48 2.555983 1_555
Ca10 O12 2.597655 1_555
Ca10 O17 2.609468 1_554
Ca10 O5 2.661367 1_554
Ca11 O78 2.252768 1_555
Ca11 O38 2.320580 1_555
Ca11 O26 2.455033 1_555
Ca11 O14 2.542944 1_555
Ca11 O50 2.582905 1_555
Ca11 O19 2.607020 1_554
Ca11 O7 2.740499 1_554
Ca11 O54 3.060022 1_555
Ca12 O66 2.409756 1_555
Ca12 O42 2.435028 1_555
Ca12 O18 2.511549 1_555
Ca12 O6 2.515560 1_555
Ca12 O15 2.599033 1_555
Ca12 O58 2.619005 1_555
Ca12 O27 2.670606 1_555
Ca12 O62 2.930987 1_555
Ca13 O67 2.233586 1_555
Ca13 O43 2.387931 1_555
Ca13 O19 2.455306 1_555
Ca13 O59 2.553975 1_555
Ca13 O7 2.611052 1_555
Ca13 O26 2.689805 1_556
Ca13 O14 2.759398 1_556
Ca14 O70 2.405180 1_555
Ca14 O46 2.458093 1_555
Ca14 O2 2.493491 1_655
Ca14 O22 2.509966 1_555
Ca14 O31 2.547676 1_555
Ca14 O62 2.648741 1_555
Ca14 O11 2.656592 1_655
Ca14 O58 2.998295 1_655
Ca15 O71 2.264845 1_555
Ca15 O47 2.397908 1_555
Ca15 O23 2.451286 1_555
Ca15 O63 2.499542 1_555
Ca15 O3 2.516297 1_655
Ca15 O30 2.679736 1_556
Ca15 O10 2.793978 1_656
Mn0 O11 1.959624 1_555
Mn0 O0 1.961071 1_565
Mn0 O31 1.972639 1_455
Mn0 O20 2.012084 1_465
Mn0 O46 2.052646 1_455
Mn0 O33 2.110179 1_565
Mn1 O22 2.014807 1_455
Mn1 O29 2.018294 1_455
Mn1 O2 2.028411 1_555
Mn1 O9 2.052482 1_555
Mn1 O35 2.097709 1_555
Mn1 O44 2.143206 1_455
Mn2 O18 1.975142 1_555
Mn2 O6 1.984969 1_555
Mn2 O13 1.993597 1_555
Mn2 O25 2.011634 1_555
Mn2 O39 2.068057 1_555
Mn2 O40 2.106128 1_555
Mn3 O1 2.085074 1_554
Mn3 O8 2.089257 1_555
Mn3 O24 2.107360 1_555
Mn3 O17 2.109448 1_554
Mn3 O48 2.148554 1_555
Mn3 O57 2.156226 1_554
Mn4 O9 1.948782 1_555
Mn4 O0 1.967436 1_555
Mn4 O25 1.982370 1_555
Mn4 O16 1.988822 1_555
Mn4 O49 2.067735 1_555
Mn4 O56 2.153847 1_555
Mn5 O2 1.951244 1_555
Mn5 O11 1.969887 1_555
Mn5 O18 1.974310 1_555
Mn5 O27 1.976343 1_555
Mn5 O51 2.027109 1_555
Mn5 O58 2.038369 1_555
Mn6 O29 1.955196 1_555
Mn6 O13 1.973185 1_555
Mn6 O20 1.990299 1_555
Mn6 O4 2.000211 1_555
Mn6 O60 2.178876 1_555
Mn6 O53 2.243395 1_555
Mn7 O22 1.922219 1_555
Mn7 O6 1.979674 1_555
Mn7 O31 1.981012 1_555
Mn7 O15 1.998883 1_555
Mn7 O62 2.036375 1_555
Mn7 O55 2.044722 1_555
Mn8 O56 1.888349 1_555
Mn8 O32 1.920376 1_555
Mn8 O74 1.979995 1_545
Mn8 O68 1.984040 1_455
Mn9 O57 1.906099 1_555
Mn9 O33 1.917999 1_555
Mn9 O69 1.965270 1_455
Mn9 O75 1.997512 1_545
Mn10 O58 2.013381 1_555
Mn10 O34 2.069441 1_555
Mn10 O70 2.084833 1_455
Mn10 O72 2.085901 1_555
Mn11 O35 1.968833 1_555
Mn11 O73 2.018767 1_555
Mn11 O59 2.047993 1_555
Mn11 O71 2.083309 1_455
Mn12 O60 1.874983 1_555
Mn12 O36 1.949513 1_555
Mn12 O78 1.975097 1_545
Mn12 O64 2.005718 1_555
Mn13 O37 2.025098 1_555
Mn13 O79 2.047667 1_545
Mn13 O65 2.072548 1_555
Mn13 O61 2.128268 1_555
Mn14 O62 1.998508 1_555
Mn14 O38 2.049664 1_555
Mn14 O76 2.074583 1_555
Mn14 O66 2.095283 1_555
Mn15 O39 2.010736 1_555
Mn15 O67 2.037626 1_555
Mn15 O63 2.048932 1_555
Mn15 O77 2.088101 1_555
Mn16 O48 1.892664 1_555
Mn16 O40 1.894231 1_555
Mn16 O66 1.981962 1_555
Mn16 O72 2.000533 1_555
Mn17 O49 2.029290 1_555
Mn17 O73 2.041777 1_555
Mn17 O67 2.064873 1_555
Mn17 O41 2.082581 1_555
Mn18 O42 2.024614 1_555
Mn18 O50 2.069761 1_555
Mn18 O74 2.090370 1_555
Mn18 O64 2.090817 1_565
Mn19 O51 2.015123 1_555
Mn19 O65 2.052229 1_565
Mn19 O75 2.069649 1_555
Mn19 O43 2.119349 1_555
Mn20 O44 1.894098 1_555
Mn20 O52 1.967784 1_555
Mn20 O70 1.993865 1_555
Mn20 O76 2.009255 1_555
Mn21 O53 1.884892 1_555
Mn21 O45 1.926017 1_555
Mn21 O77 1.977495 1_555
Mn21 O71 1.986294 1_555
Mn22 O46 2.015924 1_555
Mn22 O54 2.040249 1_555
Mn22 O78 2.074665 1_555
Mn22 O68 2.079936 1_565
Mn23 O55 2.004238 1_555
Mn23 O79 2.039380 1_555
Mn23 O69 2.058938 1_565
Mn23 O47 2.108124 1_555
O0 Sr14 2.627159 1_455
O0 Sr8 2.721783 1_555
O1 Ti0 1.897067 1_545
O1 Sr15 2.665732 1_455
O2 Sr3 2.580815 1_555
O2 Sr9 2.685106 1_555
O2 Sr0 2.786127 1_555
O3 Ti5 1.904187 1_556
O3 Ti1 2.079409 1_556
O3 Sr4 2.565327 1_555
O4 Ti3 1.974557 1_545
O4 Sr12 2.597193 1_555
O4 Sr6 2.626270 1_545
O4 Sr1 2.665959 1_555
O4 Sr10 2.690064 1_555
O5 Ti6 1.924834 1_556
O5 Ti2 2.084869 1_546
O5 Sr7 2.616657 1_545
O5 Sr13 2.657455 1_555
O6 Sr5 2.586984 1_555
O6 Sr11 2.670346 1_555
O6 Sr2 2.752633 1_555
O7 Ti7 1.908419 1_556
O7 Ti4 2.050946 1_556
O8 Ti1 1.896801 1_555
O8 Sr4 2.716473 1_554
O8 Sr15 2.743349 1_454
O9 Sr8 2.580339 1_555
O9 Sr0 2.626457 1_555
O9 Sr14 2.641441 1_455
O9 Sr3 2.652914 1_555
O10 Ti5 1.909171 1_555
O10 Ti0 2.050183 1_554
O11 Sr9 2.615969 1_555
O12 Ti6 1.898975 1_555
O12 Ti4 2.068312 1_555
O12 Sr13 2.885557 1_554
O13 Sr10 2.619554 1_555
O13 Sr12 2.630802 1_555
O13 Sr2 2.631032 1_555
O13 Sr5 2.647112 1_555
O14 Ti7 1.930209 1_555
O14 Ti2 2.061143 1_555
O14 Sr7 2.764722 1_554
O15 Ti3 1.976390 1_555
O15 Sr11 2.599075 1_555
O15 Sr1 2.600449 1_565
O15 Sr6 2.688849 1_555
O16 Ti3 1.961914 1_545
O16 Sr12 2.609240 1_555
O16 Sr10 2.776405 1_555
O17 Ti2 1.873017 1_546
O17 Sr13 2.624500 1_555
O18 Sr3 2.599445 1_555
O18 Sr11 2.673796 1_555
O18 Sr0 2.735891 1_555
O19 Ti4 1.923246 1_556
O19 Ti5 2.054843 1_556
O19 Sr4 2.646134 1_555
O20 Sr14 2.613083 1_555
O20 Sr1 2.618766 1_555
O20 Sr6 2.619910 1_545
O20 Sr8 2.653554 1_655
O21 Ti0 1.948832 1_645
O21 Ti6 2.082557 1_556
O21 Sr7 2.621461 1_545
O21 Sr15 2.622263 1_555
O22 Sr5 2.587475 1_555
O22 Sr9 2.679124 1_655
O22 Sr2 2.727419 1_555
O23 Ti1 1.948626 1_656
O23 Ti7 2.012859 1_556
O24 Ti4 1.869373 1_555
O24 Sr4 2.794601 1_554
O24 Sr13 2.815227 1_554
O25 Sr10 2.602002 1_555
O25 Sr0 2.626539 1_555
O25 Sr12 2.635405 1_555
O25 Sr3 2.639505 1_555
O26 Ti2 1.904241 1_555
O26 Ti5 2.049551 1_555
O27 Ti3 1.955878 1_555
O27 Sr11 2.596230 1_555
O28 Ti1 1.920285 1_655
O28 Ti6 2.041605 1_555
O28 Sr15 2.784001 1_554
O29 Sr2 2.603582 1_555
O29 Sr8 2.631517 1_655
O29 Sr5 2.646142 1_555
O29 Sr14 2.646459 1_555
O30 Ti0 1.956308 1_654
O30 Ti7 2.035062 1_555
O30 Sr7 2.813578 1_554
O31 Sr9 2.586858 1_655
O31 Sr1 2.616054 1_565
O31 Sr6 2.665597 1_555
O32 Ti0 2.119116 1_544
O33 Sr8 2.648563 1_555
O33 Sr1 2.912547 1_455
O33 Sr9 3.037237 1_545
O34 Ti1 1.925161 1_555
O35 Sr9 2.591533 1_555
O35 Sr0 2.768358 1_555
O35 Sr2 2.812946 1_455
O35 Sr8 3.100759 1_555
O36 Ti2 2.038004 1_545
O37 Ti3 2.000796 1_545
O37 Sr10 2.541717 1_555
O37 Sr1 2.701221 1_555
O37 Sr11 3.157985 1_545
O38 Ti4 2.013420 1_555
O39 Sr11 2.604025 1_555
O39 Sr2 2.764847 1_555
O39 Sr0 2.825540 1_555
O39 Sr10 3.040181 1_555
O40 Sr12 2.596928 1_555
O40 Sr3 2.802795 1_555
O40 Sr5 2.806145 1_555
O41 Ti4 1.975449 1_556
O41 Sr13 2.475782 1_555
O41 Sr4 3.054454 1_555
O42 Ti3 2.027569 1_555
O42 Sr6 2.744661 1_555
O43 Ti2 1.966122 1_556
O43 Sr7 2.620297 1_555
O44 Sr14 2.615696 1_555
O44 Sr3 2.786572 1_655
O44 Sr5 2.806049 1_555
O45 Ti1 2.144198 1_656
O45 Sr15 2.498627 1_555
O45 Sr4 2.672046 1_655
O46 Sr6 2.888140 1_555
O46 Sr14 3.174271 1_565
O47 Ti0 1.945413 1_655
O47 Sr7 2.952733 1_555
O49 Sr10 2.712957 1_555
O49 Sr8 2.865408 1_555
O49 Sr0 3.210047 1_555
O50 Ti5 1.959228 1_555
O51 Sr0 2.515057 1_555
O51 Sr11 2.769448 1_555
O51 Sr9 2.803256 1_555
O52 Ti6 2.040260 1_555
O53 Sr1 2.674467 1_555
O53 Sr10 2.823836 1_555
O53 Sr8 2.827330 1_655
O53 Sr2 3.045650 1_555
O54 Ti7 1.993239 1_555
O55 Sr2 2.555210 1_555
O55 Sr9 2.748448 1_655
O55 Sr11 2.835536 1_555
O55 Sr1 3.129774 1_565
O56 Sr3 2.607358 1_555
O56 Sr12 2.791142 1_555
O56 Sr14 2.810502 1_455
O57 Sr4 2.518589 1_555
O57 Sr13 2.680587 1_555
O57 Sr15 2.853826 1_455
O59 Ti5 2.032420 1_556
O60 Sr5 2.692887 1_555
O60 Sr14 2.803916 1_555
O60 Sr12 2.813976 1_555
O60 Sr6 3.048388 1_545
O61 Ti6 1.958417 1_556
O61 Sr15 2.717095 1_555
O61 Sr13 2.919208 1_555
O62 Sr6 2.545897 1_555
O62 Sr5 3.103272 1_555
O63 Ti7 1.995386 1_556
O63 Sr7 2.463340 1_555
O64 Sr12 2.467797 1_555
O65 Sr13 2.370696 1_555
O67 Sr0 2.468151 1_555
O68 Sr14 2.460454 1_555
O69 Sr15 2.367807 1_555
O69 Sr1 2.421911 1_555
O71 Sr2 2.517909 1_555
O72 Sr3 2.470310 1_555
O73 Sr4 2.360301 1_555
O73 Sr8 2.429337 1_555
O75 Sr9 2.507042 1_555
O76 Sr5 2.467603 1_555
O77 Sr10 2.475625 1_555
O78 Sr6 2.480483 1_555
O79 Sr7 2.343814 1_555
O79 Sr11 2.437524 1_555
