# generated using pymatgen
data_CeNd3
_symmetry_space_group_name_H-M   'P 1'
_cell_length_a   5.14002600
_cell_length_b   5.14002600
_cell_length_c   5.14002600
_cell_angle_alpha   90.00000000
_cell_angle_beta   90.00000000
_cell_angle_gamma   90.00000000
_symmetry_Int_Tables_number   1
_chemical_formula_structural   CeNd3
_chemical_formula_sum   'Ce1 Nd3'
_cell_volume   135.79880474
_cell_formula_units_Z   1
loop_
 _symmetry_equiv_pos_site_id
 _symmetry_equiv_pos_as_xyz
  1  'x, y, z'
loop_
 _atom_site_type_symbol
 _atom_site_label
 _atom_site_symmetry_multiplicity
 _atom_site_fract_x
 _atom_site_fract_y
 _atom_site_fract_z
 _atom_site_occupancy
  Ce  Ce0  1  0.00000000  0.00000000  0.00000000  1
  Nd  Nd0  1  0.00000000  0.50000000  0.50000000  1
  Nd  Nd1  1  0.50000000  0.00000000  0.50000000  1
  Nd  Nd2  1  0.50000000  0.50000000  0.00000000  1
loop_
_geom_bond_atom_site_label_1
_geom_bond_atom_site_label_2
_geom_bond_distance
_geom_bond_site_symmetry_2
Ce0 Nd2 3.634547 1_555
Ce0 Nd1 3.634547 1_455
Ce0 Nd1 3.634547 1_554
Ce0 Nd0 3.634547 1_544
Ce0 Nd0 3.634547 1_555
Ce0 Nd0 3.634547 1_545
Ce0 Nd1 3.634547 1_454
Ce0 Nd1 3.634547 1_555
Ce0 Nd2 3.634547 1_455
Ce0 Nd0 3.634547 1_554
Ce0 Nd2 3.634547 1_545
Ce0 Nd2 3.634547 1_445
Nd0 Nd1 3.634547 1_455
Nd0 Nd2 3.634547 1_456
Nd0 Nd1 3.634547 1_465
Nd0 Nd1 3.634547 1_555
Nd0 Nd1 3.634547 1_565
Nd0 Nd2 3.634547 1_455
Nd0 Nd2 3.634547 1_556
Nd0 Nd2 3.634547 1_555
Nd1 Nd2 3.634547 1_546
Nd1 Nd2 3.634547 1_545
Nd1 Nd2 3.634547 1_556
Nd1 Nd2 3.634547 1_555
