# generated using pymatgen
data_LaFeNi4
_symmetry_space_group_name_H-M   'P 1'
_cell_length_a   5.03863396
_cell_length_b   5.03863396
_cell_length_c   3.96339100
_cell_angle_alpha   90.00000000
_cell_angle_beta   90.00000000
_cell_angle_gamma   119.99999950
_symmetry_Int_Tables_number   1
_chemical_formula_structural   LaFeNi4
_chemical_formula_sum   'La1 Fe1 Ni4'
_cell_volume   87.14112691
_cell_formula_units_Z   1
loop_
 _symmetry_equiv_pos_site_id
 _symmetry_equiv_pos_as_xyz
  1  'x, y, z'
loop_
 _atom_site_type_symbol
 _atom_site_label
 _atom_site_symmetry_multiplicity
 _atom_site_fract_x
 _atom_site_fract_y
 _atom_site_fract_z
 _atom_site_occupancy
  La  La0  1  0.66666700  0.33333300  0.00000000  1
  Fe  Fe0  1  0.00000000  0.00000000  0.00000000  1
  Ni  Ni0  1  0.33333300  0.66666700  0.00000000  1
  Ni  Ni1  1  0.66614700  0.83307400  0.50000000  1
  Ni  Ni2  1  0.16692600  0.83307400  0.50000000  1
  Ni  Ni3  1  0.16692600  0.33385300  0.50000000  1
loop_
_geom_bond_atom_site_label_1
_geom_bond_atom_site_label_2
_geom_bond_distance
_geom_bond_site_symmetry_2
La0 Ni0 2.909054 1_545
La0 Ni0 2.909054 1_655
La0 Ni0 2.909062 1_555
La0 Ni3 3.205317 1_654
La0 Ni3 3.205317 1_655
La0 Ni1 3.205317 1_544
La0 Ni1 3.205317 1_545
La0 Ni2 3.205321 1_655
La0 Ni2 3.205321 1_654
La0 Ni2 3.205321 1_545
La0 Ni2 3.205321 1_544
La0 Ni1 3.205325 1_554
La0 Ni1 3.205325 1_555
La0 Ni3 3.205325 1_554
La0 Ni3 3.205325 1_555
Fe0 Ni2 2.459544 1_544
Fe0 Ni2 2.459544 1_545
Fe0 Ni1 2.459547 1_444
Fe0 Ni1 2.459547 1_445
Fe0 Ni3 2.459547 1_555
Fe0 Ni3 2.459547 1_554
Fe0 La0 2.909054 1_455
Fe0 Ni0 2.909054 1_545
Fe0 La0 2.909058 1_445
Fe0 Ni0 2.909058 1_555
Fe0 Ni0 2.909058 1_445
Fe0 La0 2.909058 1_555
Ni0 Ni2 2.456864 1_554
Ni0 Ni2 2.456864 1_555
Ni0 Ni1 2.456864 1_555
Ni0 Ni3 2.456864 1_554
Ni0 Ni1 2.456864 1_554
Ni0 Ni3 2.456864 1_555
Ni1 Ni2 2.515392 1_555
Ni1 Ni3 2.515392 1_555
Ni1 Ni2 2.523242 1_655
Ni1 Ni3 2.523242 1_665
Ni2 Ni3 2.515392 1_555
Ni2 Ni3 2.523242 1_565
