# generated using pymatgen
data_KMg30TiO32
_symmetry_space_group_name_H-M   'P 1'
_cell_length_a   8.59315600
_cell_length_b   8.59315600
_cell_length_c   8.60623700
_cell_angle_alpha   90.00000000
_cell_angle_beta   90.00000000
_cell_angle_gamma   90.00000000
_symmetry_Int_Tables_number   1
_chemical_formula_structural   KMg30TiO32
_chemical_formula_sum   'K1 Mg30 Ti1 O32'
_cell_volume   635.50459296
_cell_formula_units_Z   1
loop_
 _symmetry_equiv_pos_site_id
 _symmetry_equiv_pos_as_xyz
  1  'x, y, z'
loop_
 _atom_site_type_symbol
 _atom_site_label
 _atom_site_symmetry_multiplicity
 _atom_site_fract_x
 _atom_site_fract_y
 _atom_site_fract_z
 _atom_site_occupancy
  K  K0  1  0.50000000  0.50000000  0.00000000  1
  Mg  Mg0  1  0.00000000  0.50000000  0.00000000  1
  Mg  Mg1  1  0.50000000  0.00000000  0.00000000  1
  Mg  Mg2  1  0.00000000  0.00000000  0.50000000  1
  Mg  Mg3  1  0.00000000  0.50000000  0.50000000  1
  Mg  Mg4  1  0.50000000  0.00000000  0.50000000  1
  Mg  Mg5  1  0.50000000  0.50000000  0.50000000  1
  Mg  Mg6  1  0.25243500  0.25243500  0.00000000  1
  Mg  Mg7  1  0.25243500  0.74756500  0.00000000  1
  Mg  Mg8  1  0.74756500  0.25243500  0.00000000  1
  Mg  Mg9  1  0.74756500  0.74756500  0.00000000  1
  Mg  Mg10  1  0.25107600  0.25107600  0.50000000  1
  Mg  Mg11  1  0.25107600  0.74892400  0.50000000  1
  Mg  Mg12  1  0.74892400  0.25107600  0.50000000  1
  Mg  Mg13  1  0.74892400  0.74892400  0.50000000  1
  Mg  Mg14  1  0.00000000  0.25258800  0.25256100  1
  Mg  Mg15  1  0.00000000  0.74741200  0.25256100  1
  Mg  Mg16  1  0.50000000  0.24964300  0.25184700  1
  Mg  Mg17  1  0.50000000  0.75035700  0.25184700  1
  Mg  Mg18  1  0.00000000  0.25258800  0.74743900  1
  Mg  Mg19  1  0.00000000  0.74741200  0.74743900  1
  Mg  Mg20  1  0.50000000  0.24964300  0.74815300  1
  Mg  Mg21  1  0.50000000  0.75035700  0.74815300  1
  Mg  Mg22  1  0.25258800  0.00000000  0.25256100  1
  Mg  Mg23  1  0.24964300  0.50000000  0.25184700  1
  Mg  Mg24  1  0.74741200  0.00000000  0.25256100  1
  Mg  Mg25  1  0.75035700  0.50000000  0.25184700  1
  Mg  Mg26  1  0.25258800  0.00000000  0.74743900  1
  Mg  Mg27  1  0.24964300  0.50000000  0.74815300  1
  Mg  Mg28  1  0.74741200  0.00000000  0.74743900  1
  Mg  Mg29  1  0.75035700  0.50000000  0.74815300  1
  Ti  Ti0  1  0.00000000  0.00000000  0.00000000  1
  O  O0  1  0.00000000  0.00000000  0.24840600  1
  O  O1  1  0.00000000  0.50000000  0.25318400  1
  O  O2  1  0.50000000  0.00000000  0.25318400  1
  O  O3  1  0.50000000  0.50000000  0.27361700  1
  O  O4  1  0.00000000  0.00000000  0.75159400  1
  O  O5  1  0.00000000  0.50000000  0.74681600  1
  O  O6  1  0.50000000  0.00000000  0.74681600  1
  O  O7  1  0.50000000  0.50000000  0.72638300  1
  O  O8  1  0.24935900  0.24935900  0.24888800  1
  O  O9  1  0.24935900  0.75064100  0.24888800  1
  O  O10  1  0.75064100  0.24935900  0.24888800  1
  O  O11  1  0.75064100  0.75064100  0.24888800  1
  O  O12  1  0.24935900  0.24935900  0.75111200  1
  O  O13  1  0.24935900  0.75064100  0.75111200  1
  O  O14  1  0.75064100  0.24935900  0.75111200  1
  O  O15  1  0.75064100  0.75064100  0.75111200  1
  O  O16  1  0.00000000  0.24038000  0.00000000  1
  O  O17  1  0.00000000  0.75962000  0.00000000  1
  O  O18  1  0.50000000  0.22542100  0.00000000  1
  O  O19  1  0.50000000  0.77457900  0.00000000  1
  O  O20  1  0.00000000  0.24782000  0.50000000  1
  O  O21  1  0.00000000  0.75218000  0.50000000  1
  O  O22  1  0.50000000  0.24495600  0.50000000  1
  O  O23  1  0.50000000  0.75504400  0.50000000  1
  O  O24  1  0.24038000  0.00000000  0.00000000  1
  O  O25  1  0.22542100  0.50000000  0.00000000  1
  O  O26  1  0.75962000  0.00000000  0.00000000  1
  O  O27  1  0.77457900  0.50000000  0.00000000  1
  O  O28  1  0.24782000  0.00000000  0.50000000  1
  O  O29  1  0.24495600  0.50000000  0.50000000  1
  O  O30  1  0.75218000  0.00000000  0.50000000  1
  O  O31  1  0.75504400  0.50000000  0.50000000  1
loop_
_geom_bond_atom_site_label_1
_geom_bond_atom_site_label_2
_geom_bond_distance
_geom_bond_site_symmetry_2
K0 O3 2.354813 1_555
K0 O7 2.354813 1_554
K0 O19 2.359500 1_555
K0 O27 2.359500 1_555
K0 O25 2.359500 1_555
K0 O18 2.359500 1_555
Mg0 O25 1.937078 1_555
Mg0 O27 1.937078 1_455
Mg0 O1 2.178962 1_555
Mg0 O5 2.178962 1_554
Mg0 O16 2.230955 1_555
Mg0 O17 2.230955 1_555
Mg1 O18 1.937078 1_555
Mg1 O19 1.937078 1_545
Mg1 O2 2.178962 1_555
Mg1 O6 2.178962 1_554
Mg1 O24 2.230955 1_555
Mg1 O26 2.230955 1_555
Mg2 O30 2.129556 1_455
Mg2 O21 2.129556 1_545
Mg2 O28 2.129556 1_555
Mg2 O20 2.129556 1_555
Mg2 O4 2.165278 1_555
Mg2 O0 2.165278 1_555
Mg3 O29 2.104945 1_555
Mg3 O31 2.104945 1_455
Mg3 O5 2.124157 1_555
Mg3 O1 2.124157 1_555
Mg3 O20 2.167022 1_555
Mg3 O21 2.167022 1_555
Mg4 O22 2.104945 1_555
Mg4 O23 2.104945 1_545
Mg4 O6 2.124157 1_555
Mg4 O2 2.124157 1_555
Mg4 O28 2.167022 1_555
Mg4 O30 2.167022 1_555
Mg5 O3 1.948306 1_555
Mg5 O7 1.948306 1_555
Mg5 O31 2.191633 1_555
Mg5 O23 2.191633 1_555
Mg5 O22 2.191633 1_555
Mg5 O29 2.191633 1_555
Mg6 O25 2.139992 1_555
Mg6 O18 2.139992 1_555
Mg6 O12 2.142315 1_554
Mg6 O8 2.142315 1_555
Mg6 O24 2.171685 1_555
Mg6 O16 2.171685 1_555
Mg7 O25 2.139992 1_555
Mg7 O19 2.139992 1_555
Mg7 O9 2.142315 1_555
Mg7 O13 2.142315 1_554
Mg7 O17 2.171685 1_555
Mg7 O24 2.171685 1_565
Mg8 O18 2.139992 1_555
Mg8 O27 2.139992 1_555
Mg8 O10 2.142315 1_555
Mg8 O14 2.142315 1_554
Mg8 O26 2.171685 1_555
Mg8 O16 2.171685 1_655
Mg9 O27 2.139992 1_555
Mg9 O19 2.139992 1_555
Mg9 O15 2.142315 1_554
Mg9 O11 2.142315 1_555
Mg9 O26 2.171685 1_565
Mg9 O17 2.171685 1_655
Mg10 O29 2.139689 1_555
Mg10 O22 2.139689 1_555
Mg10 O20 2.157717 1_555
Mg10 O28 2.157717 1_555
Mg10 O12 2.161230 1_555
Mg10 O8 2.161230 1_555
Mg11 O29 2.139689 1_555
Mg11 O23 2.139689 1_555
Mg11 O21 2.157717 1_555
Mg11 O28 2.157717 1_565
Mg11 O13 2.161230 1_555
Mg11 O9 2.161230 1_555
Mg12 O22 2.139689 1_555
Mg12 O31 2.139689 1_555
Mg12 O30 2.157717 1_555
Mg12 O20 2.157717 1_655
Mg12 O10 2.161230 1_555
Mg12 O14 2.161230 1_555
Mg13 O23 2.139689 1_555
Mg13 O31 2.139689 1_555
Mg13 O21 2.157717 1_655
Mg13 O30 2.157717 1_565
Mg13 O11 2.161230 1_555
Mg13 O15 2.161230 1_555
Mg14 O1 2.126057 1_555
Mg14 O20 2.129913 1_555
Mg14 O8 2.143194 1_555
Mg14 O10 2.143194 1_455
Mg14 O0 2.170823 1_555
Mg14 O16 2.176130 1_555
Mg15 O1 2.126057 1_555
Mg15 O21 2.129913 1_555
Mg15 O9 2.143194 1_555
Mg15 O11 2.143194 1_455
Mg15 O0 2.170823 1_565
Mg15 O17 2.176130 1_555
Mg16 O22 2.136043 1_555
Mg16 O2 2.145252 1_555
Mg16 O8 2.153949 1_555
Mg16 O10 2.153949 1_555
Mg16 O3 2.159500 1_555
Mg16 O18 2.177426 1_555
Mg17 O23 2.136043 1_555
Mg17 O2 2.145252 1_565
Mg17 O11 2.153949 1_555
Mg17 O9 2.153949 1_555
Mg17 O3 2.159500 1_555
Mg17 O19 2.177426 1_555
Mg18 O5 2.126057 1_555
Mg18 O20 2.129913 1_555
Mg18 O14 2.143194 1_455
Mg18 O12 2.143194 1_555
Mg18 O4 2.170823 1_555
Mg18 O16 2.176130 1_556
Mg19 O5 2.126057 1_555
Mg19 O21 2.129913 1_555
Mg19 O15 2.143194 1_455
Mg19 O13 2.143194 1_555
Mg19 O4 2.170823 1_565
Mg19 O17 2.176130 1_556
Mg20 O22 2.136043 1_555
Mg20 O6 2.145252 1_555
Mg20 O12 2.153949 1_555
Mg20 O14 2.153949 1_555
Mg20 O7 2.159500 1_555
Mg20 O18 2.177426 1_556
Mg21 O23 2.136043 1_555
Mg21 O6 2.145252 1_565
Mg21 O15 2.153949 1_555
Mg21 O13 2.153949 1_555
Mg21 O7 2.159500 1_555
Mg21 O19 2.177426 1_556
Mg22 O2 2.126057 1_555
Mg22 O28 2.129913 1_555
Mg22 O8 2.143194 1_555
Mg22 O9 2.143194 1_545
Mg22 O0 2.170823 1_555
Mg22 O24 2.176130 1_555
Mg23 O29 2.136043 1_555
Mg23 O1 2.145252 1_555
Mg23 O8 2.153949 1_555
Mg23 O9 2.153949 1_555
Mg23 O3 2.159500 1_555
Mg23 O25 2.177426 1_555
Mg24 O2 2.126057 1_555
Mg24 O30 2.129913 1_555
Mg24 O11 2.143194 1_545
Mg24 O10 2.143194 1_555
Mg24 O0 2.170823 1_655
Mg24 O26 2.176130 1_555
Mg25 O31 2.136043 1_555
Mg25 O1 2.145252 1_655
Mg25 O11 2.153949 1_555
Mg25 O10 2.153949 1_555
Mg25 O3 2.159500 1_555
Mg25 O27 2.177426 1_555
Mg26 O6 2.126057 1_555
Mg26 O28 2.129913 1_555
Mg26 O13 2.143194 1_545
Mg26 O12 2.143194 1_555
Mg26 O4 2.170823 1_555
Mg26 O24 2.176130 1_556
Mg27 O29 2.136043 1_555
Mg27 O5 2.145252 1_555
Mg27 O12 2.153949 1_555
Mg27 O13 2.153949 1_555
Mg27 O7 2.159500 1_555
Mg27 O25 2.177426 1_556
Mg28 O6 2.126057 1_555
Mg28 O30 2.129913 1_555
Mg28 O15 2.143194 1_545
Mg28 O14 2.143194 1_555
Mg28 O4 2.170823 1_655
Mg28 O26 2.176130 1_556
Mg29 O31 2.136043 1_555
Mg29 O5 2.145252 1_655
Mg29 O14 2.153949 1_555
Mg29 O15 2.153949 1_555
Mg29 O7 2.159500 1_555
Mg29 O27 2.177426 1_556
O0 Ti0 2.137841 1_555
O4 Ti0 2.137841 1_556
O16 Ti0 2.065623 1_555
O17 Ti0 2.065623 1_565
O24 Ti0 2.065623 1_555
O26 Ti0 2.065623 1_655
