# generated using pymatgen
data_MgGa2
_symmetry_space_group_name_H-M   'P 1'
_cell_length_a   11.22109894
_cell_length_b   11.22109894
_cell_length_c   14.45537898
_cell_angle_alpha   71.33572071
_cell_angle_beta   71.33572071
_cell_angle_gamma   32.91788838
_symmetry_Int_Tables_number   1
_chemical_formula_structural   MgGa2
_chemical_formula_sum   'Mg16 Ga32'
_cell_volume   932.42457426
_cell_formula_units_Z   16
loop_
 _symmetry_equiv_pos_site_id
 _symmetry_equiv_pos_as_xyz
  1  'x, y, z'
loop_
 _atom_site_type_symbol
 _atom_site_label
 _atom_site_symmetry_multiplicity
 _atom_site_fract_x
 _atom_site_fract_y
 _atom_site_fract_z
 _atom_site_occupancy
  Mg  Mg0_0  1  0.40559750  0.40559750  0.32373850  1
  Mg  Mg0_1  1  0.40559750  0.40559750  0.82373850  1
  Mg  Mg0_2  1  0.40559750  0.90559750  0.32373850  1
  Mg  Mg0_3  1  0.40559750  0.90559750  0.82373850  1
  Mg  Mg0_4  1  0.90559750  0.40559750  0.32373850  1
  Mg  Mg0_5  1  0.90559750  0.40559750  0.82373850  1
  Mg  Mg0_6  1  0.90559750  0.90559750  0.32373850  1
  Mg  Mg0_7  1  0.90559750  0.90559750  0.82373850  1
  Mg  Mg1_0  1  0.09440250  0.09440250  0.17626150  1
  Mg  Mg1_1  1  0.09440250  0.09440250  0.67626150  1
  Mg  Mg1_2  1  0.09440250  0.59440250  0.17626150  1
  Mg  Mg1_3  1  0.09440250  0.59440250  0.67626150  1
  Mg  Mg1_4  1  0.59440250  0.09440250  0.17626150  1
  Mg  Mg1_5  1  0.59440250  0.09440250  0.67626150  1
  Mg  Mg1_6  1  0.59440250  0.59440250  0.17626150  1
  Mg  Mg1_7  1  0.59440250  0.59440250  0.67626150  1
  Ga  Ga0_0  1  0.06705000  0.06705000  0.48702300  1
  Ga  Ga0_1  1  0.06705000  0.06705000  0.98702300  1
  Ga  Ga0_2  1  0.06705000  0.56705000  0.48702300  1
  Ga  Ga0_3  1  0.06705000  0.56705000  0.98702300  1
  Ga  Ga0_4  1  0.56705000  0.06705000  0.48702300  1
  Ga  Ga0_5  1  0.56705000  0.06705000  0.98702300  1
  Ga  Ga0_6  1  0.56705000  0.56705000  0.48702300  1
  Ga  Ga0_7  1  0.56705000  0.56705000  0.98702300  1
  Ga  Ga1_0  1  0.26340000  0.26340000  0.35193400  1
  Ga  Ga1_1  1  0.26340000  0.26340000  0.85193400  1
  Ga  Ga1_2  1  0.26340000  0.76340000  0.35193400  1
  Ga  Ga1_3  1  0.26340000  0.76340000  0.85193400  1
  Ga  Ga1_4  1  0.76340000  0.26340000  0.35193400  1
  Ga  Ga1_5  1  0.76340000  0.26340000  0.85193400  1
  Ga  Ga1_6  1  0.76340000  0.76340000  0.35193400  1
  Ga  Ga1_7  1  0.76340000  0.76340000  0.85193400  1
  Ga  Ga2_0  1  0.23660000  0.23660000  0.14806600  1
  Ga  Ga2_1  1  0.23660000  0.23660000  0.64806600  1
  Ga  Ga2_2  1  0.23660000  0.73660000  0.14806600  1
  Ga  Ga2_3  1  0.23660000  0.73660000  0.64806600  1
  Ga  Ga2_4  1  0.73660000  0.23660000  0.14806600  1
  Ga  Ga2_5  1  0.73660000  0.23660000  0.64806600  1
  Ga  Ga2_6  1  0.73660000  0.73660000  0.14806600  1
  Ga  Ga2_7  1  0.73660000  0.73660000  0.64806600  1
  Ga  Ga3_0  1  0.43295000  0.43295000  0.01297700  1
  Ga  Ga3_1  1  0.43295000  0.43295000  0.51297700  1
  Ga  Ga3_2  1  0.43295000  0.93295000  0.01297700  1
  Ga  Ga3_3  1  0.43295000  0.93295000  0.51297700  1
  Ga  Ga3_4  1  0.93295000  0.43295000  0.01297700  1
  Ga  Ga3_5  1  0.93295000  0.43295000  0.51297700  1
  Ga  Ga3_6  1  0.93295000  0.93295000  0.01297700  1
  Ga  Ga3_7  1  0.93295000  0.93295000  0.51297700  1
loop_
_geom_bond_atom_site_label_1
_geom_bond_atom_site_label_2
_geom_bond_distance
_geom_bond_site_symmetry_2
Mg0_0 Mg0_6 3.179254 1_455
Mg0_0 Mg0_6 3.179254 1_545
Mg0_0 Mg1_4 3.268061 1_555
Mg0_0 Mg1_2 3.268061 1_555
Mg0_1 Mg0_7 3.179254 1_545
Mg0_1 Mg0_7 3.179254 1_455
Mg0_1 Mg1_5 3.268061 1_555
Mg0_1 Mg1_3 3.268061 1_555
Mg0_2 Mg0_4 3.179254 1_555
Mg0_2 Mg0_4 3.179254 1_465
Mg0_2 Mg1_0 3.268061 1_565
Mg0_2 Mg1_6 3.268061 1_555
Mg0_3 Mg0_5 3.179254 1_465
Mg0_3 Mg0_5 3.179254 1_555
Mg0_3 Mg1_1 3.268061 1_565
Mg0_3 Mg1_7 3.268061 1_555
Mg0_4 Mg1_0 3.268061 1_655
Mg0_4 Mg1_6 3.268061 1_555
Mg0_5 Mg1_7 3.268061 1_555
Mg0_5 Mg1_1 3.268061 1_655
Mg0_6 Mg1_2 3.268061 1_655
Mg0_6 Mg1_4 3.268061 1_565
Mg0_7 Mg1_3 3.268061 1_655
Mg0_7 Mg1_5 3.268061 1_565
Mg1_0 Mg1_6 3.179254 1_455
Mg1_0 Mg1_6 3.179254 1_545
Mg1_1 Mg1_7 3.179254 1_455
Mg1_1 Mg1_7 3.179254 1_545
Mg1_2 Mg1_4 3.179254 1_465
Mg1_2 Mg1_4 3.179254 1_555
Mg1_3 Mg1_5 3.179254 1_465
Mg1_3 Mg1_5 3.179254 1_555
Ga0_0 Ga3_7 2.783544 1_445
Ga0_0 Ga2_5 2.873002 1_455
Ga0_0 Ga2_3 2.873002 1_545
Ga0_0 Mg0_2 2.954314 1_545
Ga0_0 Mg0_4 2.954314 1_455
Ga0_0 Mg1_1 2.984018 1_555
Ga0_0 Ga1_4 3.029580 1_455
Ga0_0 Ga1_2 3.029580 1_545
Ga0_0 Ga3_5 3.084579 1_455
Ga0_0 Ga3_3 3.084579 1_545
Ga0_0 Ga0_6 3.179254 1_545
Ga0_0 Ga0_6 3.179254 1_455
Ga0_1 Ga3_6 2.783544 1_446
Ga0_1 Ga2_4 2.873002 1_456
Ga0_1 Ga2_2 2.873002 1_546
Ga0_1 Mg0_5 2.954314 1_455
Ga0_1 Mg0_3 2.954314 1_545
Ga0_1 Mg1_0 2.984018 1_556
Ga0_1 Ga1_5 3.029580 1_455
Ga0_1 Ga1_3 3.029580 1_545
Ga0_1 Ga3_4 3.084579 1_456
Ga0_1 Ga3_2 3.084579 1_546
Ga0_1 Ga0_7 3.179254 1_545
Ga0_1 Ga0_7 3.179254 1_455
Ga0_2 Ga3_5 2.783544 1_455
Ga0_2 Ga2_1 2.873002 1_555
Ga0_2 Ga2_7 2.873002 1_455
Ga0_2 Mg0_6 2.954314 1_455
Ga0_2 Mg0_0 2.954314 1_555
Ga0_2 Mg1_3 2.984018 1_555
Ga0_2 Ga1_6 3.029580 1_455
Ga0_2 Ga1_0 3.029580 1_555
Ga0_2 Ga3_1 3.084579 1_555
Ga0_2 Ga3_7 3.084579 1_455
Ga0_2 Ga0_4 3.179254 1_555
Ga0_2 Ga0_4 3.179254 1_465
Ga0_3 Ga3_4 2.783544 1_456
Ga0_3 Ga2_0 2.873002 1_556
Ga0_3 Ga2_6 2.873002 1_456
Ga0_3 Mg0_7 2.954314 1_455
Ga0_3 Mg0_1 2.954314 1_555
Ga0_3 Mg1_2 2.984018 1_556
Ga0_3 Ga1_7 3.029580 1_455
Ga0_3 Ga1_1 3.029580 1_555
Ga0_3 Ga3_0 3.084579 1_556
Ga0_3 Ga3_6 3.084579 1_456
Ga0_3 Ga0_5 3.179254 1_555
Ga0_3 Ga0_5 3.179254 1_465
Ga0_4 Ga3_3 2.783544 1_545
Ga0_4 Ga2_7 2.873002 1_545
Ga0_4 Ga2_1 2.873002 1_555
Ga0_4 Mg0_6 2.954314 1_545
Ga0_4 Mg0_0 2.954314 1_555
Ga0_4 Mg1_5 2.984018 1_555
Ga0_4 Ga1_6 3.029580 1_545
Ga0_4 Ga1_0 3.029580 1_555
Ga0_4 Ga3_1 3.084579 1_555
Ga0_4 Ga3_7 3.084579 1_545
Ga0_5 Ga3_2 2.783544 1_546
Ga0_5 Ga2_0 2.873002 1_556
Ga0_5 Ga2_6 2.873002 1_546
Ga0_5 Mg0_7 2.954314 1_545
Ga0_5 Mg0_1 2.954314 1_555
Ga0_5 Mg1_4 2.984018 1_556
Ga0_5 Ga1_7 3.029580 1_545
Ga0_5 Ga1_1 3.029580 1_555
Ga0_5 Ga3_0 3.084579 1_556
Ga0_5 Ga3_6 3.084579 1_546
Ga0_6 Ga3_1 2.783544 1_555
Ga0_6 Ga2_5 2.873002 1_555
Ga0_6 Ga2_3 2.873002 1_555
Ga0_6 Mg0_4 2.954314 1_555
Ga0_6 Mg0_2 2.954314 1_555
Ga0_6 Mg1_7 2.984018 1_555
Ga0_6 Ga1_2 3.029580 1_555
Ga0_6 Ga1_4 3.029580 1_555
Ga0_6 Ga3_5 3.084579 1_555
Ga0_6 Ga3_3 3.084579 1_555
Ga0_7 Ga3_0 2.783544 1_556
Ga0_7 Ga2_2 2.873002 1_556
Ga0_7 Ga2_4 2.873002 1_556
Ga0_7 Mg0_5 2.954314 1_555
Ga0_7 Mg0_3 2.954314 1_555
Ga0_7 Mg1_6 2.984018 1_556
Ga0_7 Ga1_5 3.029580 1_555
Ga0_7 Ga1_3 3.029580 1_555
Ga0_7 Ga3_4 3.084579 1_556
Ga0_7 Ga3_2 3.084579 1_556
Ga1_0 Ga3_5 2.873002 1_455
Ga1_0 Ga3_3 2.873002 1_545
Ga1_0 Mg0_0 2.949582 1_555
Ga1_0 Mg0_2 2.950835 1_545
Ga1_0 Mg0_4 2.950835 1_455
Ga1_0 Mg1_4 3.010026 1_555
Ga1_0 Mg1_2 3.010026 1_555
Ga1_1 Ga3_4 2.873002 1_456
Ga1_1 Ga3_2 2.873002 1_546
Ga1_1 Mg0_1 2.949582 1_555
Ga1_1 Mg0_3 2.950835 1_545
Ga1_1 Mg0_5 2.950835 1_455
Ga1_1 Mg1_3 3.010026 1_555
Ga1_1 Mg1_5 3.010026 1_555
Ga1_2 Ga3_1 2.873002 1_555
Ga1_2 Ga3_7 2.873002 1_455
Ga1_2 Mg0_2 2.949582 1_555
Ga1_2 Mg0_0 2.950835 1_555
Ga1_2 Mg0_6 2.950835 1_455
Ga1_2 Mg1_0 3.010026 1_565
Ga1_2 Mg1_6 3.010026 1_555
Ga1_3 Ga3_6 2.873002 1_456
Ga1_3 Ga3_0 2.873002 1_556
Ga1_3 Mg0_3 2.949582 1_555
Ga1_3 Mg0_1 2.950835 1_555
Ga1_3 Mg0_7 2.950835 1_455
Ga1_3 Mg1_1 3.010026 1_565
Ga1_3 Mg1_7 3.010026 1_555
Ga1_4 Ga3_7 2.873002 1_545
Ga1_4 Ga3_1 2.873002 1_555
Ga1_4 Mg0_4 2.949582 1_555
Ga1_4 Mg0_0 2.950835 1_555
Ga1_4 Mg0_6 2.950835 1_545
Ga1_4 Mg1_6 3.010026 1_555
Ga1_4 Mg1_0 3.010026 1_655
Ga1_5 Ga3_6 2.873002 1_546
Ga1_5 Ga3_0 2.873002 1_556
Ga1_5 Mg0_5 2.949582 1_555
Ga1_5 Mg0_1 2.950835 1_555
Ga1_5 Mg0_7 2.950835 1_545
Ga1_5 Mg1_7 3.010026 1_555
Ga1_5 Mg1_1 3.010026 1_655
Ga1_6 Ga3_5 2.873002 1_555
Ga1_6 Ga3_3 2.873002 1_555
Ga1_6 Mg0_6 2.949582 1_555
Ga1_6 Mg0_2 2.950835 1_555
Ga1_6 Mg0_4 2.950835 1_555
Ga1_6 Mg1_2 3.010026 1_655
Ga1_6 Mg1_4 3.010026 1_565
Ga1_7 Ga3_4 2.873002 1_556
Ga1_7 Ga3_2 2.873002 1_556
Ga1_7 Mg0_7 2.949582 1_555
Ga1_7 Mg0_5 2.950835 1_555
Ga1_7 Mg0_3 2.950835 1_555
Ga1_7 Mg1_5 3.010026 1_565
Ga1_7 Mg1_3 3.010026 1_655
Ga2_0 Mg1_0 2.949582 1_555
Ga2_0 Mg1_2 2.950835 1_555
Ga2_0 Mg1_4 2.950835 1_555
Ga2_0 Mg0_2 3.010026 1_545
Ga2_0 Mg0_4 3.010026 1_455
Ga2_0 Ga3_2 3.029580 1_545
Ga2_0 Ga3_4 3.029580 1_455
Ga2_1 Mg1_1 2.949582 1_555
Ga2_1 Mg1_5 2.950835 1_555
Ga2_1 Mg1_3 2.950835 1_555
Ga2_1 Mg0_5 3.010026 1_455
Ga2_1 Mg0_3 3.010026 1_545
Ga2_1 Ga3_5 3.029580 1_455
Ga2_1 Ga3_3 3.029580 1_545
Ga2_2 Mg1_2 2.949582 1_555
Ga2_2 Mg1_0 2.950835 1_565
Ga2_2 Mg1_6 2.950835 1_555
Ga2_2 Mg0_0 3.010026 1_555
Ga2_2 Mg0_6 3.010026 1_455
Ga2_2 Ga3_6 3.029580 1_455
Ga2_2 Ga3_0 3.029580 1_555
Ga2_3 Mg1_3 2.949582 1_555
Ga2_3 Mg1_7 2.950835 1_555
Ga2_3 Mg1_1 2.950835 1_565
Ga2_3 Mg0_1 3.010026 1_555
Ga2_3 Mg0_7 3.010026 1_455
Ga2_3 Ga3_7 3.029580 1_455
Ga2_3 Ga3_1 3.029580 1_555
Ga2_4 Mg1_4 2.949582 1_555
Ga2_4 Mg1_0 2.950835 1_655
Ga2_4 Mg1_6 2.950835 1_555
Ga2_4 Mg0_0 3.010026 1_555
Ga2_4 Mg0_6 3.010026 1_545
Ga2_4 Ga3_6 3.029580 1_545
Ga2_4 Ga3_0 3.029580 1_555
Ga2_5 Mg1_5 2.949582 1_555
Ga2_5 Mg1_1 2.950835 1_655
Ga2_5 Mg1_7 2.950835 1_555
Ga2_5 Mg0_1 3.010026 1_555
Ga2_5 Mg0_7 3.010026 1_545
Ga2_5 Ga3_7 3.029580 1_545
Ga2_5 Ga3_1 3.029580 1_555
Ga2_6 Mg1_6 2.949582 1_555
Ga2_6 Mg1_4 2.950835 1_565
Ga2_6 Mg1_2 2.950835 1_655
Ga2_6 Mg0_4 3.010026 1_555
Ga2_6 Mg0_2 3.010026 1_555
Ga2_6 Ga3_2 3.029580 1_555
Ga2_6 Ga3_4 3.029580 1_555
Ga2_7 Mg1_7 2.949582 1_555
Ga2_7 Mg1_3 2.950835 1_655
Ga2_7 Mg1_5 2.950835 1_565
Ga2_7 Mg0_5 3.010026 1_555
Ga2_7 Mg0_3 3.010026 1_555
Ga2_7 Ga3_5 3.029580 1_555
Ga2_7 Ga3_3 3.029580 1_555
Ga3_0 Mg1_4 2.954314 1_555
Ga3_0 Mg1_2 2.954314 1_555
Ga3_0 Mg0_1 2.984018 1_554
Ga3_0 Ga3_6 3.179254 1_455
Ga3_0 Ga3_6 3.179254 1_545
Ga3_1 Mg1_3 2.954314 1_555
Ga3_1 Mg1_5 2.954314 1_555
Ga3_1 Mg0_0 2.984018 1_555
Ga3_1 Ga3_7 3.179254 1_545
Ga3_1 Ga3_7 3.179254 1_455
Ga3_2 Mg1_0 2.954314 1_565
Ga3_2 Mg1_6 2.954314 1_555
Ga3_2 Mg0_3 2.984018 1_554
Ga3_2 Ga3_4 3.179254 1_465
Ga3_2 Ga3_4 3.179254 1_555
Ga3_3 Mg1_7 2.954314 1_555
Ga3_3 Mg1_1 2.954314 1_565
Ga3_3 Mg0_2 2.984018 1_555
Ga3_3 Ga3_5 3.179254 1_555
Ga3_3 Ga3_5 3.179254 1_465
Ga3_4 Mg1_0 2.954314 1_655
Ga3_4 Mg1_6 2.954314 1_555
Ga3_4 Mg0_5 2.984018 1_554
Ga3_5 Mg1_7 2.954314 1_555
Ga3_5 Mg1_1 2.954314 1_655
Ga3_5 Mg0_4 2.984018 1_555
Ga3_6 Mg1_2 2.954314 1_655
Ga3_6 Mg1_4 2.954314 1_565
Ga3_6 Mg0_7 2.984018 1_554
Ga3_7 Mg1_5 2.954314 1_565
Ga3_7 Mg1_3 2.954314 1_655
Ga3_7 Mg0_6 2.984018 1_555
