# generated using pymatgen
data_HoMg3
_symmetry_space_group_name_H-M   'P 1'
_cell_length_a   6.63283469
_cell_length_b   6.63283469
_cell_length_c   5.15819866
_cell_angle_alpha   90.00000000
_cell_angle_beta   90.00000000
_cell_angle_gamma   120.00007113
_symmetry_Int_Tables_number   1
_chemical_formula_structural   HoMg3
_chemical_formula_sum   'Ho2 Mg6'
_cell_volume   196.52903962
_cell_formula_units_Z   2
loop_
 _symmetry_equiv_pos_site_id
 _symmetry_equiv_pos_as_xyz
  1  'x, y, z'
loop_
 _atom_site_type_symbol
 _atom_site_label
 _atom_site_symmetry_multiplicity
 _atom_site_fract_x
 _atom_site_fract_y
 _atom_site_fract_z
 _atom_site_occupancy
  Ho  Ho0  1  0.66666700  0.33333300  0.25000000  1
  Ho  Ho1  1  0.33333300  0.66666700  0.75000000  1
  Mg  Mg0  1  0.16356641  0.32713283  0.25000000  1
  Mg  Mg1  1  0.16356641  0.83643359  0.25000000  1
  Mg  Mg2  1  0.67286717  0.83643359  0.25000000  1
  Mg  Mg3  1  0.32713283  0.16356641  0.75000000  1
  Mg  Mg4  1  0.83643359  0.16356641  0.75000000  1
  Mg  Mg5  1  0.83643359  0.67286717  0.75000000  1
loop_
_geom_bond_atom_site_label_1
_geom_bond_atom_site_label_2
_geom_bond_distance
_geom_bond_site_symmetry_2
Ho0 Mg4 3.233514 1_554
Ho0 Mg4 3.233514 1_555
Ho0 Mg5 3.233516 1_554
Ho0 Mg3 3.233516 1_555
Ho0 Mg3 3.233516 1_554
Ho0 Mg5 3.233516 1_555
Ho0 Mg1 3.316605 1_545
Ho0 Mg1 3.316605 1_655
Ho0 Mg2 3.316605 1_545
Ho0 Mg0 3.316605 1_655
Ho0 Mg0 3.316612 1_555
Ho0 Mg2 3.316612 1_555
Ho1 Mg1 3.233514 1_556
Ho1 Mg1 3.233514 1_555
Ho1 Mg2 3.233516 1_555
Ho1 Mg2 3.233516 1_556
Ho1 Mg0 3.233516 1_555
Ho1 Mg0 3.233516 1_556
Ho1 Mg4 3.316605 1_455
Ho1 Mg4 3.316605 1_565
Ho1 Mg5 3.316605 1_455
Ho1 Mg3 3.316605 1_565
Ho1 Mg3 3.316612 1_555
Ho1 Mg5 3.316612 1_555
Mg0 Mg4 3.191055 1_454
Mg0 Mg4 3.191055 1_455
Mg0 Mg3 3.191056 1_555
Mg0 Mg3 3.191056 1_554
Mg0 Mg2 3.254723 1_445
Mg0 Mg1 3.254727 1_545
Mg0 Mg2 3.378104 1_555
Mg0 Mg1 3.378108 1_555
Mg1 Mg5 3.191055 1_455
Mg1 Mg3 3.191055 1_564
Mg1 Mg5 3.191055 1_454
Mg1 Mg3 3.191055 1_565
Mg1 Mg2 3.254727 1_455
Mg1 Mg2 3.378108 1_555
Mg2 Mg4 3.191055 1_565
Mg2 Mg4 3.191055 1_564
Mg2 Mg5 3.191056 1_555
Mg2 Mg5 3.191056 1_554
Mg3 Mg5 3.254723 1_445
Mg3 Mg4 3.254727 1_455
Mg3 Mg5 3.378104 1_555
Mg3 Mg4 3.378108 1_555
Mg4 Mg5 3.254727 1_545
Mg4 Mg5 3.378108 1_555
