# generated using pymatgen
data_Ce(ClO2)3
_symmetry_space_group_name_H-M   'P 1'
_cell_length_a   7.68821300
_cell_length_b   8.48432816
_cell_length_c   7.90495723
_cell_angle_alpha   133.37207627
_cell_angle_beta   90.00000000
_cell_angle_gamma   90.00000000
_symmetry_Int_Tables_number   1
_chemical_formula_structural   Ce(ClO2)3
_chemical_formula_sum   'Ce2 Cl6 O12'
_cell_volume   374.81995217
_cell_formula_units_Z   2
loop_
 _symmetry_equiv_pos_site_id
 _symmetry_equiv_pos_as_xyz
  1  'x, y, z'
loop_
 _atom_site_type_symbol
 _atom_site_label
 _atom_site_symmetry_multiplicity
 _atom_site_fract_x
 _atom_site_fract_y
 _atom_site_fract_z
 _atom_site_occupancy
  Ce  Ce0  1  0.40920200  0.25000000  0.75000000  1
  Ce  Ce1  1  0.59079800  0.75000000  0.25000000  1
  Cl  Cl0  1  0.20111000  0.78149800  0.50575600  1
  Cl  Cl1  1  0.79889000  0.21850200  0.49424400  1
  Cl  Cl2  1  0.20111000  0.71850200  0.99424400  1
  Cl  Cl3  1  0.79889000  0.28149800  0.00575600  1
  Cl  Cl4  1  0.81283700  0.75000000  0.75000000  1
  Cl  Cl5  1  0.18716300  0.25000000  0.25000000  1
  O  O0  1  0.12839400  0.01811400  0.63912100  1
  O  O1  1  0.87160600  0.98188600  0.36087900  1
  O  O2  1  0.12839400  0.48188600  0.86087900  1
  O  O3  1  0.87160600  0.51811400  0.13912100  1
  O  O4  1  0.58396800  0.50065000  0.85880500  1
  O  O5  1  0.41603200  0.49935000  0.14119500  1
  O  O6  1  0.58396800  0.99935000  0.64119500  1
  O  O7  1  0.41603200  0.00065000  0.35880500  1
  O  O8  1  0.28760700  0.10912100  0.02855000  1
  O  O9  1  0.71239300  0.89087900  0.97145000  1
  O  O10  1  0.28760700  0.39087900  0.47145000  1
  O  O11  1  0.71239300  0.60912100  0.52855000  1
loop_
_geom_bond_atom_site_label_1
_geom_bond_atom_site_label_2
_geom_bond_distance
_geom_bond_site_symmetry_2
Ce0 O6 2.134330 1_545
Ce0 O4 2.134330 1_555
Ce0 O5 2.248508 1_556
Ce0 O7 2.248508 1_555
Ce0 O2 2.632750 1_555
Ce0 O0 2.632750 1_555
Ce1 O5 2.134330 1_555
Ce1 O7 2.134330 1_565
Ce1 O6 2.248508 1_555
Ce1 O4 2.248508 1_554
Ce1 O1 2.632750 1_555
Ce1 O3 2.632750 1_555
Cl0 O0 1.596027 1_565
Cl1 O1 1.596027 1_545
Cl2 O2 1.596027 1_555
Cl3 O3 1.596027 1_555
Cl4 O11 1.488500 1_555
Cl4 O9 1.488500 1_555
Cl5 O8 1.488500 1_555
Cl5 O10 1.488500 1_555
