# generated using pymatgen
data_Ca7Ni(IrO6)2
_symmetry_space_group_name_H-M   'P 1'
_cell_length_a   6.55015809
_cell_length_b   6.55543872
_cell_length_c   6.55005408
_cell_angle_alpha   90.97756523
_cell_angle_beta   90.93073907
_cell_angle_gamma   90.92468460
_symmetry_Int_Tables_number   1
_chemical_formula_structural   Ca7Ni(IrO6)2
_chemical_formula_sum   'Ca7 Ni1 Ir2 O12'
_cell_volume   281.13787490
_cell_formula_units_Z   1
loop_
 _symmetry_equiv_pos_site_id
 _symmetry_equiv_pos_as_xyz
  1  'x, y, z'
loop_
 _atom_site_type_symbol
 _atom_site_label
 _atom_site_symmetry_multiplicity
 _atom_site_fract_x
 _atom_site_fract_y
 _atom_site_fract_z
 _atom_site_occupancy
  Ca  Ca0  1  0.60589300  0.89401500  0.24986200  1
  Ca  Ca1  1  0.89400500  0.25038200  0.60588100  1
  Ca  Ca2  1  0.25003900  0.60559200  0.89428200  1
  Ca  Ca3  1  0.11389200  0.74959500  0.38609100  1
  Ca  Ca4  1  0.74993600  0.38642400  0.11369500  1
  Ca  Ca5  1  0.38626900  0.11405500  0.75016200  1
  Ca  Ca6  1  0.74984300  0.74977400  0.75010800  1
  Ni  Ni0  1  0.25021000  0.25004400  0.25007000  1
  Ir  Ir0  1  0.49817800  0.49829900  0.49816200  1
  Ir  Ir1  1  0.00180300  0.00179800  0.00166200  1
  O  O0  1  0.53940600  0.20199000  0.41590500  1
  O  O1  1  0.20174900  0.41611900  0.53938200  1
  O  O2  1  0.41604600  0.53930700  0.20176600  1
  O  O3  1  0.05589300  0.92705200  0.70434600  1
  O  O4  1  0.92693300  0.70391600  0.05596900  1
  O  O5  1  0.70412500  0.05584200  0.92697000  1
  O  O6  1  0.44405900  0.79597900  0.57312400  1
  O  O7  1  0.79609300  0.57302900  0.44418500  1
  O  O8  1  0.57305900  0.44408000  0.79608900  1
  O  O9  1  0.96061700  0.08389200  0.29771200  1
  O  O10  1  0.08394000  0.29820600  0.96068300  1
  O  O11  1  0.29801200  0.96061300  0.08389300  1
loop_
_geom_bond_atom_site_label_1
_geom_bond_atom_site_label_2
_geom_bond_distance
_geom_bond_site_symmetry_2
Ca0 O11 2.326530 1_555
Ca0 O0 2.327522 1_565
Ca0 O5 2.472084 1_564
Ca0 O6 2.473334 1_555
Ca0 O9 2.629811 1_565
Ca0 O2 2.630859 1_555
Ca0 O4 2.775836 1_555
Ca0 O7 2.779274 1_555
Ca1 O1 2.325399 1_655
Ca1 O9 2.329122 1_555
Ca1 O7 2.470792 1_555
Ca1 O3 2.475872 1_645
Ca1 O0 2.629209 1_555
Ca1 O10 2.629743 1_655
Ca1 O8 2.775110 1_555
Ca1 O5 2.778817 1_555
Ca2 O2 2.324113 1_556
Ca2 O10 2.325467 1_555
Ca2 O8 2.470771 1_555
Ca2 O4 2.471789 1_456
Ca2 O1 2.628983 1_555
Ca2 O11 2.631105 1_556
Ca2 O6 2.779056 1_555
Ca2 O3 2.780335 1_555
Ca3 O7 2.404313 1_455
Ca3 O3 2.408394 1_555
Ca3 O4 2.478911 1_455
Ca3 O6 2.479980 1_555
Ca3 O1 2.492990 1_555
Ca3 O9 2.498201 1_465
Ca3 O2 2.717346 1_555
Ca3 O11 2.720891 1_555
Ca4 O8 2.403249 1_554
Ca4 O4 2.404599 1_555
Ca4 O7 2.479981 1_555
Ca4 O5 2.481719 1_554
Ca4 O2 2.492455 1_555
Ca4 O10 2.493509 1_654
Ca4 O0 2.719994 1_555
Ca4 O9 2.721442 1_555
Ca5 O5 2.404989 1_555
Ca5 O6 2.406859 1_545
Ca5 O8 2.479599 1_555
Ca5 O3 2.481238 1_545
Ca5 O11 2.494335 1_546
Ca5 O0 2.495531 1_555
Ca5 O10 2.718347 1_555
Ca5 O1 2.721079 1_555
Ca6 O7 2.324074 1_555
Ca6 O6 2.324541 1_555
Ca6 O8 2.324750 1_555
Ca6 O4 2.325046 1_556
Ca6 O5 2.325668 1_565
Ca6 O3 2.327089 1_655
Ni0 O0 2.198070 1_555
Ni0 O1 2.199403 1_555
Ni0 O2 2.200216 1_555
Ni0 O11 2.200570 1_545
Ni0 O10 2.200723 1_554
Ni0 O9 2.201370 1_455
Ir0 O2 2.029607 1_555
Ir0 O1 2.030120 1_555
Ir0 O0 2.030326 1_555
Ir0 O6 2.042079 1_555
Ir0 O7 2.042151 1_555
Ir0 O8 2.042844 1_555
Ir1 O9 2.027004 1_455
Ir1 O11 2.028634 1_545
Ir1 O10 2.031213 1_554
Ir1 O3 2.038035 1_544
Ir1 O5 2.040577 1_454
Ir1 O4 2.044191 1_445
