# generated using pymatgen
data_B10H13Cl
_symmetry_space_group_name_H-M   'P 1'
_cell_length_a   7.70443700
_cell_length_b   11.42442200
_cell_length_c   12.72768121
_cell_angle_alpha   64.01279722
_cell_angle_beta   90.00000000
_cell_angle_gamma   90.00000000
_symmetry_Int_Tables_number   1
_chemical_formula_structural   B10H13Cl
_chemical_formula_sum   'B40 H52 Cl4'
_cell_volume   1007.00567575
_cell_formula_units_Z   4
loop_
 _symmetry_equiv_pos_site_id
 _symmetry_equiv_pos_as_xyz
  1  'x, y, z'
loop_
 _atom_site_type_symbol
 _atom_site_label
 _atom_site_symmetry_multiplicity
 _atom_site_fract_x
 _atom_site_fract_y
 _atom_site_fract_z
 _atom_site_occupancy
  B  B0  1  0.84448300  0.18126200  0.14560600  1
  B  B1  1  0.34448300  0.31873800  0.85439400  1
  B  B2  1  0.15551700  0.81873800  0.85439400  1
  B  B3  1  0.65551700  0.68126200  0.14560600  1
  B  B4  1  0.97450100  0.10165600  0.27267800  1
  B  B5  1  0.47450100  0.39834400  0.72732200  1
  B  B6  1  0.02549900  0.89834400  0.72732200  1
  B  B7  1  0.52549900  0.60165600  0.27267800  1
  B  B8  1  0.75870900  0.14845400  0.28513500  1
  B  B9  1  0.25870900  0.35154600  0.71486500  1
  B  B10  1  0.24129100  0.85154600  0.71486500  1
  B  B11  1  0.74129100  0.64845400  0.28513500  1
  B  B12  1  0.61736200  0.15958800  0.17096100  1
  B  B13  1  0.11736200  0.34041200  0.82903900  1
  B  B14  1  0.38263800  0.84041200  0.82903900  1
  B  B15  1  0.88263800  0.65958800  0.17096100  1
  B  B16  1  0.96742600  0.04558700  0.16098800  1
  B  B17  1  0.46742600  0.45441300  0.83901200  1
  B  B18  1  0.03257400  0.95441300  0.83901200  1
  B  B19  1  0.53257400  0.54558700  0.16098800  1
  B  B20  1  0.98402500  0.93680700  0.31312500  1
  B  B21  1  0.48402500  0.56319300  0.68687500  1
  B  B22  1  0.01597500  0.06319300  0.68687500  1
  B  B23  1  0.51597500  0.43680700  0.31312500  1
  B  B24  1  0.82935800  0.99399300  0.38410000  1
  B  B25  1  0.32935800  0.50600700  0.61590000  1
  B  B26  1  0.17064200  0.00600700  0.61590000  1
  B  B27  1  0.67064200  0.49399300  0.38410000  1
  B  B28  1  0.59318000  0.03307700  0.31621600  1
  B  B29  1  0.09318000  0.46692300  0.68378400  1
  B  B30  1  0.40682000  0.96692300  0.68378400  1
  B  B31  1  0.90682000  0.53307700  0.31621600  1
  B  B32  1  0.55358700  0.00726400  0.18972000  1
  B  B33  1  0.05358700  0.49273600  0.81028000  1
  B  B34  1  0.44641300  0.99273600  0.81028000  1
  B  B35  1  0.94641300  0.50726400  0.18972000  1
  B  B36  1  0.73108700  0.08396300  0.09419700  1
  B  B37  1  0.23108700  0.41603700  0.90580300  1
  B  B38  1  0.26891300  0.91603700  0.90580300  1
  B  B39  1  0.76891300  0.58396300  0.09419700  1
  H  H0  1  0.89421700  0.28297500  0.07150500  1
  H  H1  1  0.39421700  0.21702500  0.92849500  1
  H  H2  1  0.10578300  0.71702500  0.92849500  1
  H  H3  1  0.60578300  0.78297500  0.07150500  1
  H  H4  1  0.09674300  0.15451700  0.29083300  1
  H  H5  1  0.59674300  0.34548300  0.70916700  1
  H  H6  1  0.90325700  0.84548300  0.70916700  1
  H  H7  1  0.40325700  0.65451700  0.29083300  1
  H  H8  1  0.73853200  0.22195800  0.32828700  1
  H  H9  1  0.23853200  0.27804200  0.67171300  1
  H  H10  1  0.26146800  0.77804200  0.67171300  1
  H  H11  1  0.76146800  0.72195800  0.32828700  1
  H  H12  1  0.52171900  0.25054700  0.12541400  1
  H  H13  1  0.02171900  0.24945300  0.87458600  1
  H  H14  1  0.47828100  0.74945300  0.87458600  1
  H  H15  1  0.97828100  0.75054700  0.12541400  1
  H  H16  1  0.08323000  0.05124400  0.09699800  1
  H  H17  1  0.58323000  0.44875600  0.90300200  1
  H  H18  1  0.91677000  0.94875600  0.90300200  1
  H  H19  1  0.41677000  0.55124400  0.09699800  1
  H  H20  1  0.84159300  0.95962100  0.48665700  1
  H  H21  1  0.34159300  0.54037900  0.51334300  1
  H  H22  1  0.15840700  0.04037900  0.51334300  1
  H  H23  1  0.65840700  0.45962100  0.48665700  1
  H  H24  1  0.47887000  0.02187100  0.38302100  1
  H  H25  1  0.97887000  0.47812900  0.61697900  1
  H  H26  1  0.52113000  0.97812900  0.61697900  1
  H  H27  1  0.02113000  0.52187100  0.38302100  1
  H  H28  1  0.42287100  0.97119500  0.16353400  1
  H  H29  1  0.92287100  0.52880500  0.83646600  1
  H  H30  1  0.57712900  0.02880500  0.83646600  1
  H  H31  1  0.07712900  0.47119500  0.16353400  1
  H  H32  1  0.71670400  0.11049300  0.99305900  1
  H  H33  1  0.21670400  0.38950700  0.00694100  1
  H  H34  1  0.28329600  0.88950700  0.00694100  1
  H  H35  1  0.78329600  0.61049300  0.99305900  1
  H  H36  1  0.92807700  0.92145300  0.21776300  1
  H  H37  1  0.42807700  0.57854700  0.78223700  1
  H  H38  1  0.07192300  0.07854700  0.78223700  1
  H  H39  1  0.57192300  0.42145300  0.21776300  1
  H  H40  1  0.83021600  0.88751500  0.36925300  1
  H  H41  1  0.33021600  0.61248500  0.63074700  1
  H  H42  1  0.16978400  0.11248500  0.63074700  1
  H  H43  1  0.66978400  0.38751500  0.36925300  1
  H  H44  1  0.58564200  0.92480500  0.30163100  1
  H  H45  1  0.08564200  0.57519500  0.69836900  1
  H  H46  1  0.41435800  0.07519500  0.69836900  1
  H  H47  1  0.91435800  0.42480500  0.30163100  1
  H  H48  1  0.68328100  0.96000000  0.14886800  1
  H  H49  1  0.18328100  0.54000000  0.85113200  1
  H  H50  1  0.31671900  0.04000000  0.85113200  1
  H  H51  1  0.81671900  0.46000000  0.14886800  1
  Cl  Cl0  1  0.14827100  0.82016500  0.38292400  1
  Cl  Cl1  1  0.64827100  0.67983500  0.61707600  1
  Cl  Cl2  1  0.85172900  0.17983500  0.61707600  1
  Cl  Cl3  1  0.35172900  0.32016500  0.38292400  1
loop_
_geom_bond_atom_site_label_1
_geom_bond_atom_site_label_2
_geom_bond_distance
_geom_bond_site_symmetry_2
B0 H0 1.194230 1_555
B1 H1 1.194230 1_555
B2 H2 1.194230 1_555
B3 H3 1.194230 1_555
B4 H4 1.194732 1_655
B5 H5 1.194732 1_555
B6 H6 1.194732 1_455
B7 H7 1.194732 1_555
B8 H8 1.197978 1_555
B9 H9 1.197978 1_555
B10 H10 1.197978 1_555
B11 H11 1.197978 1_555
B12 H12 1.196234 1_555
B13 H13 1.196234 1_555
B14 H14 1.196234 1_555
B15 H15 1.196234 1_555
B16 H16 1.190545 1_655
B16 H36 1.314228 1_545
B17 H17 1.190545 1_555
B17 H37 1.314228 1_555
B18 H18 1.190545 1_455
B18 H38 1.314228 1_565
B19 H19 1.190545 1_555
B19 H39 1.314228 1_555
B20 H36 1.369782 1_555
B20 H40 1.370827 1_555
B20 Cl0 1.768846 1_655
B21 H37 1.369782 1_555
B21 H41 1.370827 1_555
B21 Cl1 1.768846 1_555
B22 H38 1.369782 1_555
B22 H42 1.370827 1_555
B22 Cl2 1.768846 1_455
B23 H39 1.369782 1_555
B23 H43 1.370827 1_555
B23 Cl3 1.768846 1_555
B24 H20 1.190688 1_555
B24 H40 1.310323 1_555
B25 H21 1.190688 1_555
B25 H41 1.310323 1_555
B26 H22 1.190688 1_555
B26 H42 1.310323 1_555
B27 H23 1.190688 1_555
B27 H43 1.310323 1_555
B28 H24 1.191462 1_555
B28 H44 1.330071 1_545
B29 H25 1.191462 1_455
B29 H45 1.330071 1_555
B30 H26 1.191462 1_555
B30 H46 1.330071 1_565
B31 H27 1.191462 1_655
B31 H47 1.330071 1_555
B32 H28 1.189735 1_545
B32 H44 1.342153 1_545
B32 H48 1.344019 1_545
B33 H29 1.189735 1_455
B33 H45 1.342153 1_555
B33 H49 1.344019 1_555
B34 H30 1.189735 1_565
B34 H46 1.342153 1_565
B34 H50 1.344019 1_565
B35 H31 1.189735 1_655
B35 H47 1.342153 1_555
B35 H51 1.344019 1_555
B36 H32 1.191325 1_554
B36 H48 1.327365 1_545
B37 H33 1.191325 1_556
B37 H49 1.327365 1_555
B38 H34 1.191325 1_556
B38 H50 1.327365 1_565
B39 H35 1.191325 1_554
B39 H51 1.327365 1_555
