# generated using pymatgen
data_Ho2Ge6Pt
_symmetry_space_group_name_H-M   'P 1'
_cell_length_a   4.07220300
_cell_length_b   4.09328900
_cell_length_c   11.18657023
_cell_angle_alpha   90.00000000
_cell_angle_beta   100.48703750
_cell_angle_gamma   90.00000000
_symmetry_Int_Tables_number   1
_chemical_formula_structural   Ho2Ge6Pt
_chemical_formula_sum   'Ho2 Ge6 Pt1'
_cell_volume   183.35092395
_cell_formula_units_Z   1
loop_
 _symmetry_equiv_pos_site_id
 _symmetry_equiv_pos_as_xyz
  1  'x, y, z'
loop_
 _atom_site_type_symbol
 _atom_site_label
 _atom_site_symmetry_multiplicity
 _atom_site_fract_x
 _atom_site_fract_y
 _atom_site_fract_z
 _atom_site_occupancy
  Ho  Ho0  1  0.77811500  0.50000000  0.55622900  1
  Ho  Ho1  1  0.11684900  0.50000000  0.23369800  1
  Ge  Ge0  1  0.49311400  0.50000000  0.98622700  1
  Ge  Ge1  1  0.37920100  0.50000000  0.75840200  1
  Ge  Ge2  1  0.99224400  0.00000000  0.98448900  1
  Ge  Ge3  1  0.87805000  0.00000000  0.75609900  1
  Ge  Ge4  1  0.66990600  0.00000000  0.33981200  1
  Ge  Ge5  1  0.23998200  0.00000000  0.47996500  1
  Pt  Pt0  1  0.55953900  0.00000000  0.11907800  1
loop_
_geom_bond_atom_site_label_1
_geom_bond_atom_site_label_2
_geom_bond_distance
_geom_bond_site_symmetry_2
Ho1 Pt0 3.150245 1_455
Ho1 Pt0 3.150245 1_465
Ho1 Pt0 3.150246 1_555
Ho1 Pt0 3.150246 1_565
Ge0 Ge1 2.506009 1_555
Ge0 Pt0 2.514800 1_556
Ge0 Pt0 2.514800 1_566
Ge0 Ge2 2.887007 1_565
Ge0 Ge2 2.887007 1_555
Ge0 Ge2 2.887013 1_465
Ge0 Ge2 2.887013 1_455
Ge0 Ho1 3.399350 1_656
Ge0 Ho1 3.399353 1_556
Ge1 Ge3 2.887057 1_455
Ge1 Ge3 2.887057 1_465
Ge1 Ge3 2.887060 1_565
Ge1 Ge3 2.887060 1_555
Ge1 Ho0 3.015159 1_455
Ge1 Ho0 3.015162 1_555
Ge2 Ge3 2.512224 1_555
Ge2 Pt0 2.517420 1_556
Ge2 Pt0 2.517423 1_656
Ge2 Ho1 3.420976 1_646
Ge2 Ho1 3.420976 1_656
Ge3 Ho0 3.003699 1_555
Ge3 Ho0 3.003699 1_545
Ge4 Pt0 2.428010 1_555
Ge4 Ge5 2.553892 1_655
Ge4 Ge5 2.553895 1_555
Ge4 Ho1 3.113980 1_545
Ge4 Ho1 3.113980 1_555
Ge4 Ho1 3.113980 1_645
Ge4 Ho1 3.113980 1_655
Ge4 Ho0 3.139371 1_545
Ge4 Ho0 3.139371 1_555
Ge5 Ho0 3.006355 1_455
Ge5 Ho0 3.006355 1_445
Ge5 Ho0 3.006360 1_545
Ge5 Ho0 3.006360 1_555
Ge5 Ho1 3.395101 1_545
Ge5 Ho1 3.395101 1_555
