# generated using pymatgen
data_Os2N4Cl10O
_symmetry_space_group_name_H-M   'P 1'
_cell_length_a   9.92588431
_cell_length_b   9.92588431
_cell_length_c   9.92588431
_cell_angle_alpha   136.72385997
_cell_angle_beta   136.72385997
_cell_angle_gamma   62.86319959
_symmetry_Int_Tables_number   1
_chemical_formula_structural   Os2N4Cl10O
_chemical_formula_sum   'Os2 N4 Cl10 O1'
_cell_volume   453.83346627
_cell_formula_units_Z   1
loop_
 _symmetry_equiv_pos_site_id
 _symmetry_equiv_pos_as_xyz
  1  'x, y, z'
loop_
 _atom_site_type_symbol
 _atom_site_label
 _atom_site_symmetry_multiplicity
 _atom_site_fract_x
 _atom_site_fract_y
 _atom_site_fract_z
 _atom_site_occupancy
  Os  Os0  1  0.89048300  0.89048300  0.00000000  1
  Os  Os1  1  0.10951700  0.10951700  0.00000000  1
  N  N0  1  0.00000000  0.50000000  0.50000000  1
  N  N1  1  0.50000000  0.00000000  0.50000000  1
  N  N2  1  0.25000000  0.75000000  0.50000000  1
  N  N3  1  0.75000000  0.25000000  0.50000000  1
  Cl  Cl0  1  0.75679200  0.75679200  0.00000000  1
  Cl  Cl1  1  0.24320800  0.24320800  0.00000000  1
  Cl  Cl2  1  0.11353400  0.11353400  0.44593600  1
  Cl  Cl3  1  0.66759800  0.66759800  0.55406400  1
  Cl  Cl4  1  0.11353400  0.66759800  0.00000000  1
  Cl  Cl5  1  0.66759800  0.11353400  0.00000000  1
  Cl  Cl6  1  0.88646600  0.88646600  0.55406400  1
  Cl  Cl7  1  0.33240200  0.33240200  0.44593600  1
  Cl  Cl8  1  0.88646600  0.33240200  0.00000000  1
  Cl  Cl9  1  0.33240200  0.88646600  0.00000000  1
  O  O0  1  0.00000000  0.00000000  0.00000000  1
loop_
_geom_bond_atom_site_label_1
_geom_bond_atom_site_label_2
_geom_bond_distance
_geom_bond_site_symmetry_2
Cl0 Os0 2.264563 1_555
Cl1 Os1 2.264563 1_555
Cl2 Os0 2.308233 1_445
Cl3 Os0 2.308233 1_556
Cl4 Os0 2.308233 1_455
Cl5 Os0 2.308233 1_545
Cl6 Os1 2.308233 1_666
Cl7 Os1 2.308233 1_555
Cl8 Os1 2.308233 1_655
Cl9 Os1 2.308233 1_565
O0 Os1 1.855085 1_555
O0 Os0 1.855085 1_445
