# generated using pymatgen
data_V2(Co7B2)3
_symmetry_space_group_name_H-M   'P 1'
_cell_length_a   7.36160809
_cell_length_b   7.36160809
_cell_length_c   7.36160809
_cell_angle_alpha   60.00000000
_cell_angle_beta   60.00000000
_cell_angle_gamma   60.00000000
_symmetry_Int_Tables_number   1
_chemical_formula_structural   V2(Co7B2)3
_chemical_formula_sum   'V2 Co21 B6'
_cell_volume   282.09999698
_cell_formula_units_Z   1
loop_
 _symmetry_equiv_pos_site_id
 _symmetry_equiv_pos_as_xyz
  1  'x, y, z'
loop_
 _atom_site_type_symbol
 _atom_site_label
 _atom_site_symmetry_multiplicity
 _atom_site_fract_x
 _atom_site_fract_y
 _atom_site_fract_z
 _atom_site_occupancy
  V  V0  1  0.25000000  0.25000000  0.25000000  1
  V  V1  1  0.75000000  0.75000000  0.75000000  1
  Co  Co0  1  0.00000000  0.00000000  0.00000000  1
  Co  Co1  1  0.85895700  0.38034800  0.38034800  1
  Co  Co2  1  0.38034800  0.85895700  0.38034800  1
  Co  Co3  1  0.38034800  0.38034800  0.85895700  1
  Co  Co4  1  0.38034800  0.38034800  0.38034800  1
  Co  Co5  1  0.14104300  0.61965200  0.61965200  1
  Co  Co6  1  0.61965200  0.14104300  0.61965200  1
  Co  Co7  1  0.61965200  0.61965200  0.14104300  1
  Co  Co8  1  0.61965200  0.61965200  0.61965200  1
  Co  Co9  1  0.66190300  0.00000000  0.00000000  1
  Co  Co10  1  0.66190300  0.00000000  0.33809700  1
  Co  Co11  1  0.66190300  0.33809700  0.00000000  1
  Co  Co12  1  0.00000000  0.66190300  0.33809700  1
  Co  Co13  1  0.00000000  0.66190300  0.00000000  1
  Co  Co14  1  0.33809700  0.66190300  0.00000000  1
  Co  Co15  1  0.00000000  0.33809700  0.66190300  1
  Co  Co16  1  0.33809700  0.00000000  0.66190300  1
  Co  Co17  1  0.00000000  0.00000000  0.66190300  1
  Co  Co18  1  0.33809700  0.00000000  0.00000000  1
  Co  Co19  1  0.00000000  0.33809700  0.00000000  1
  Co  Co20  1  0.00000000  0.00000000  0.33809700  1
  B  B0  1  0.72515200  0.27484800  0.27484800  1
  B  B1  1  0.72515200  0.27484800  0.72515200  1
  B  B2  1  0.72515200  0.72515200  0.27484800  1
  B  B3  1  0.27484800  0.72515200  0.72515200  1
  B  B4  1  0.27484800  0.72515200  0.27484800  1
  B  B5  1  0.27484800  0.27484800  0.72515200  1
loop_
_geom_bond_atom_site_label_1
_geom_bond_atom_site_label_2
_geom_bond_distance
_geom_bond_site_symmetry_2
Co0 Co15 2.488938 1_554
Co0 Co10 2.488938 1_455
Co0 Co19 2.488938 1_555
Co0 Co17 2.488938 1_554
Co0 Co20 2.488938 1_555
Co0 Co12 2.488938 1_545
Co0 Co11 2.488938 1_455
Co0 Co13 2.488938 1_545
Co0 Co14 2.488938 1_545
Co0 Co16 2.488938 1_554
Co0 Co18 2.488938 1_555
Co0 Co9 2.488938 1_455
Co1 V0 2.350453 1_655
Co2 V0 2.350453 1_565
Co3 V0 2.350453 1_556
Co4 V0 2.350459 1_555
Co5 V1 2.350453 1_455
Co6 V1 2.350453 1_545
Co7 V1 2.350453 1_554
Co8 V1 2.350459 1_555
B0 Co4 2.076011 1_555
B0 Co7 2.076012 1_555
B0 Co6 2.076012 1_555
B0 Co1 2.076018 1_555
B0 Co11 2.076207 1_555
B0 Co20 2.076207 1_655
B0 Co19 2.076207 1_655
B0 Co10 2.076207 1_555
B1 Co8 2.076011 1_555
B1 Co3 2.076012 1_555
B1 Co1 2.076012 1_555
B1 Co6 2.076018 1_555
B1 Co11 2.076207 1_556
B1 Co17 2.076207 1_655
B1 Co9 2.076207 1_556
B1 Co15 2.076207 1_655
B2 Co8 2.076011 1_555
B2 Co1 2.076012 1_555
B2 Co2 2.076012 1_555
B2 Co7 2.076018 1_555
B2 Co9 2.076207 1_565
B2 Co12 2.076207 1_655
B2 Co10 2.076207 1_565
B2 Co13 2.076207 1_655
B3 Co8 2.076011 1_555
B3 Co2 2.076012 1_555
B3 Co3 2.076012 1_555
B3 Co5 2.076018 1_555
B3 Co16 2.076207 1_565
B3 Co14 2.076207 1_556
B3 Co17 2.076207 1_565
B3 Co13 2.076207 1_556
B4 Co4 2.076011 1_555
B4 Co5 2.076012 1_555
B4 Co7 2.076012 1_555
B4 Co2 2.076018 1_555
B4 Co14 2.076207 1_555
B4 Co20 2.076207 1_565
B4 Co12 2.076207 1_555
B4 Co18 2.076207 1_565
B5 Co4 2.076011 1_555
B5 Co6 2.076012 1_555
B5 Co5 2.076012 1_555
B5 Co3 2.076018 1_555
B5 Co18 2.076207 1_556
B5 Co15 2.076207 1_555
B5 Co16 2.076207 1_555
B5 Co19 2.076207 1_556
