# generated using pymatgen
data_YbMgS3
_symmetry_space_group_name_H-M   'P 1'
_cell_length_a   7.05599888
_cell_length_b   8.53293600
_cell_length_c   8.68108912
_cell_angle_alpha   90.00000000
_cell_angle_beta   126.03799824
_cell_angle_gamma   90.00000000
_symmetry_Int_Tables_number   1
_chemical_formula_structural   YbMgS3
_chemical_formula_sum   'Yb4 Mg4 S12'
_cell_volume   422.64860974
_cell_formula_units_Z   4
loop_
 _symmetry_equiv_pos_site_id
 _symmetry_equiv_pos_as_xyz
  1  'x, y, z'
loop_
 _atom_site_type_symbol
 _atom_site_label
 _atom_site_symmetry_multiplicity
 _atom_site_fract_x
 _atom_site_fract_y
 _atom_site_fract_z
 _atom_site_occupancy
  Yb  Yb0  1  0.20555100  0.00000000  0.39889100  1
  Yb  Yb1  1  0.79444900  0.00000000  0.60110900  1
  Yb  Yb2  1  0.70555100  0.50000000  0.39889100  1
  Yb  Yb3  1  0.29444900  0.50000000  0.60110900  1
  Mg  Mg0  1  0.00000000  0.29495800  0.00000000  1
  Mg  Mg1  1  0.00000000  0.70504200  0.00000000  1
  Mg  Mg2  1  0.50000000  0.79495800  0.00000000  1
  Mg  Mg3  1  0.50000000  0.20504200  0.00000000  1
  S  S0  1  0.42999800  0.21414600  0.26044600  1
  S  S1  1  0.57000200  0.78585400  0.73955400  1
  S  S2  1  0.57000200  0.21414600  0.73955400  1
  S  S3  1  0.42999800  0.78585400  0.26044600  1
  S  S4  1  0.92999800  0.71414600  0.26044600  1
  S  S5  1  0.07000200  0.28585400  0.73955400  1
  S  S6  1  0.07000200  0.71414600  0.73955400  1
  S  S7  1  0.92999800  0.28585400  0.26044600  1
  S  S8  1  0.26762000  0.00000000  0.74096800  1
  S  S9  1  0.73238000  0.00000000  0.25903200  1
  S  S10  1  0.76762000  0.50000000  0.74096800  1
  S  S11  1  0.23238000  0.50000000  0.25903200  1
loop_
_geom_bond_atom_site_label_1
_geom_bond_atom_site_label_2
_geom_bond_distance
_geom_bond_site_symmetry_2
Mg0 S11 2.543192 1_555
Mg0 S10 2.543192 1_454
Mg0 S5 2.583787 1_554
Mg0 S7 2.583787 1_455
Mg0 S2 2.592553 1_454
Mg0 S0 2.592553 1_555
Mg1 S11 2.543192 1_555
Mg1 S10 2.543192 1_454
Mg1 S6 2.583787 1_554
Mg1 S4 2.583787 1_455
Mg1 S1 2.592553 1_454
Mg1 S3 2.592553 1_555
Mg2 S9 2.543192 1_565
Mg2 S8 2.543192 1_564
Mg2 S1 2.583787 1_554
Mg2 S3 2.583787 1_555
Mg2 S6 2.592553 1_554
Mg2 S4 2.592553 1_555
Mg3 S9 2.543192 1_555
Mg3 S8 2.543192 1_554
Mg3 S2 2.583787 1_554
Mg3 S0 2.583787 1_555
Mg3 S5 2.592553 1_554
Mg3 S7 2.592553 1_555
S0 Yb2 2.902549 1_555
S0 Yb0 3.087255 1_555
S0 Yb1 3.122404 1_555
S1 Yb3 2.902549 1_555
S1 Yb1 3.087255 1_565
S1 Yb0 3.122404 1_565
S2 Yb3 2.902549 1_555
S2 Yb1 3.087255 1_555
S2 Yb0 3.122404 1_555
S3 Yb2 2.902549 1_555
S3 Yb0 3.087255 1_565
S3 Yb1 3.122404 1_565
S4 Yb0 2.902549 1_665
S4 Yb2 3.087255 1_555
S4 Yb3 3.122404 1_655
S5 Yb1 2.902549 1_455
S5 Yb3 3.087255 1_555
S5 Yb2 3.122404 1_455
S6 Yb1 2.902549 1_465
S6 Yb3 3.087255 1_555
S6 Yb2 3.122404 1_455
S7 Yb0 2.902549 1_655
S7 Yb2 3.087255 1_555
S7 Yb3 3.122404 1_655
S8 Yb0 2.734966 1_555
S8 Yb1 2.802024 1_455
S9 Yb1 2.734966 1_555
S9 Yb0 2.802024 1_655
S10 Yb2 2.734966 1_555
S10 Yb3 2.802024 1_555
S11 Yb3 2.734966 1_555
S11 Yb2 2.802024 1_555
