# generated using pymatgen
data_Tb3Co29(Si2B5)2
_symmetry_space_group_name_H-M   'P 1'
_cell_length_a   11.12821700
_cell_length_b   11.12821700
_cell_length_c   7.81931600
_cell_angle_alpha   90.00000000
_cell_angle_beta   90.00000000
_cell_angle_gamma   90.00000000
_symmetry_Int_Tables_number   1
_chemical_formula_structural   Tb3Co29(Si2B5)2
_chemical_formula_sum   'Tb6 Co58 Si8 B20'
_cell_volume   968.32230569
_cell_formula_units_Z   2
loop_
 _symmetry_equiv_pos_site_id
 _symmetry_equiv_pos_as_xyz
  1  'x, y, z'
loop_
 _atom_site_type_symbol
 _atom_site_label
 _atom_site_symmetry_multiplicity
 _atom_site_fract_x
 _atom_site_fract_y
 _atom_site_fract_z
 _atom_site_occupancy
  Tb  Tb0  1  0.25000000  0.75000000  0.00000000  1
  Tb  Tb1  1  0.25000000  0.25000000  0.00000000  1
  Tb  Tb2  1  0.75000000  0.75000000  0.00000000  1
  Tb  Tb3  1  0.75000000  0.25000000  0.00000000  1
  Tb  Tb4  1  0.00000000  0.00000000  0.50000000  1
  Tb  Tb5  1  0.50000000  0.50000000  0.50000000  1
  Co  Co0  1  0.33845800  0.67436200  0.33652200  1
  Co  Co1  1  0.27249700  0.00000000  0.52615600  1
  Co  Co2  1  0.50000000  0.77249700  0.52615600  1
  Co  Co3  1  0.50000000  0.22750300  0.52615600  1
  Co  Co4  1  0.83538900  0.50000000  0.97067200  1
  Co  Co5  1  0.00000000  0.66461100  0.97067200  1
  Co  Co6  1  0.00000000  0.33538900  0.97067200  1
  Co  Co7  1  0.16461100  0.50000000  0.97067200  1
  Co  Co8  1  0.66461100  0.00000000  0.02932800  1
  Co  Co9  1  0.33538900  0.00000000  0.02932800  1
  Co  Co10  1  0.50000000  0.83538900  0.02932800  1
  Co  Co11  1  0.50000000  0.16461100  0.02932800  1
  Co  Co12  1  0.88461000  0.38461000  0.24958000  1
  Co  Co13  1  0.88461000  0.61539000  0.24958000  1
  Co  Co14  1  0.11539000  0.38461000  0.24958000  1
  Co  Co15  1  0.11539000  0.61539000  0.24958000  1
  Co  Co16  1  0.61539000  0.88461000  0.75042000  1
  Co  Co17  1  0.38461000  0.11539000  0.75042000  1
  Co  Co18  1  0.38461000  0.88461000  0.75042000  1
  Co  Co19  1  0.61539000  0.11539000  0.75042000  1
  Co  Co20  1  0.89003500  0.39003500  0.69851400  1
  Co  Co21  1  0.89003500  0.60996500  0.69851400  1
  Co  Co22  1  0.10996500  0.39003500  0.69851400  1
  Co  Co23  1  0.10996500  0.60996500  0.69851400  1
  Co  Co24  1  0.60996500  0.89003500  0.30148600  1
  Co  Co25  1  0.39003500  0.10996500  0.30148600  1
  Co  Co26  1  0.39003500  0.89003500  0.30148600  1
  Co  Co27  1  0.60996500  0.10996500  0.30148600  1
  Co  Co28  1  0.33845800  0.32563800  0.33652200  1
  Co  Co29  1  0.82563800  0.16154200  0.33652200  1
  Co  Co30  1  0.17436200  0.83845800  0.33652200  1
  Co  Co31  1  0.66154200  0.67436200  0.33652200  1
  Co  Co32  1  0.16154200  0.82563800  0.66347800  1
  Co  Co33  1  0.83845800  0.17436200  0.66347800  1
  Co  Co34  1  0.32563800  0.33845800  0.66347800  1
  Co  Co35  1  0.61015500  0.50000000  0.88867000  1
  Co  Co36  1  0.16154200  0.17436200  0.66347800  1
  Co  Co37  1  0.67436200  0.33845800  0.66347800  1
  Co  Co38  1  0.32563800  0.66154200  0.66347800  1
  Co  Co39  1  0.83845800  0.82563800  0.66347800  1
  Co  Co40  1  0.72750300  0.00000000  0.52615600  1
  Co  Co41  1  0.00000000  0.88984500  0.88867000  1
  Co  Co42  1  0.17436200  0.16154200  0.33652200  1
  Co  Co43  1  0.82563800  0.83845800  0.33652200  1
  Co  Co44  1  0.00000000  0.11015500  0.88867000  1
  Co  Co45  1  0.38984500  0.50000000  0.88867000  1
  Co  Co46  1  0.50000000  0.00000000  0.53330600  1
  Co  Co47  1  0.00000000  0.50000000  0.46669400  1
  Co  Co48  1  0.11015500  0.00000000  0.11133000  1
  Co  Co49  1  0.22750300  0.50000000  0.47384400  1
  Co  Co50  1  0.00000000  0.27249700  0.47384400  1
  Co  Co51  1  0.00000000  0.72750300  0.47384400  1
  Co  Co52  1  0.77249700  0.50000000  0.47384400  1
  Co  Co53  1  0.50000000  0.61015500  0.11133000  1
  Co  Co54  1  0.50000000  0.38984500  0.11133000  1
  Co  Co55  1  0.88984500  0.00000000  0.11133000  1
  Co  Co56  1  0.67436200  0.66154200  0.66347800  1
  Co  Co57  1  0.66154200  0.32563800  0.33652200  1
  Si  Si0  1  0.50000000  0.68221200  0.82465600  1
  Si  Si1  1  0.31778800  0.50000000  0.17534400  1
  Si  Si2  1  0.00000000  0.18221200  0.17534400  1
  Si  Si3  1  0.00000000  0.81778800  0.17534400  1
  Si  Si4  1  0.68221200  0.50000000  0.17534400  1
  Si  Si5  1  0.18221200  0.00000000  0.82465600  1
  Si  Si6  1  0.81778800  0.00000000  0.82465600  1
  Si  Si7  1  0.50000000  0.31778800  0.82465600  1
  B  B0  1  0.68591400  0.18591400  0.51812400  1
  B  B1  1  0.31408600  0.81408600  0.51812400  1
  B  B2  1  0.31408600  0.18591400  0.51812400  1
  B  B3  1  0.68591400  0.81408600  0.51812400  1
  B  B4  1  0.18591400  0.68591400  0.48187600  1
  B  B5  1  0.18591400  0.31408600  0.48187600  1
  B  B6  1  0.50000000  0.25609700  0.26324400  1
  B  B7  1  0.50000000  0.74390300  0.26324400  1
  B  B8  1  0.24390300  0.00000000  0.26324400  1
  B  B9  1  0.75609700  0.00000000  0.26324400  1
  B  B10  1  0.25609700  0.50000000  0.73675600  1
  B  B11  1  0.00000000  0.24390300  0.73675600  1
  B  B12  1  0.00000000  0.75609700  0.73675600  1
  B  B13  1  0.74390300  0.50000000  0.73675600  1
  B  B14  1  0.50000000  0.00000000  0.14860000  1
  B  B15  1  0.00000000  0.50000000  0.85140000  1
  B  B16  1  0.50000000  0.00000000  0.89276900  1
  B  B17  1  0.00000000  0.50000000  0.10723100  1
  B  B18  1  0.81408600  0.68591400  0.48187600  1
  B  B19  1  0.81408600  0.31408600  0.48187600  1
loop_
_geom_bond_atom_site_label_1
_geom_bond_atom_site_label_2
_geom_bond_distance
_geom_bond_site_symmetry_2
Co0 Si1 2.325120 1_555
Co0 Tb0 2.932850 1_555
Co0 Tb5 2.937782 1_555
Co1 Co46 2.532320 1_555
Co1 Si5 2.541123 1_555
Co1 Tb4 3.039295 1_555
Co2 Co46 2.532320 1_565
Co2 Si0 2.541123 1_555
Co2 Tb5 3.039295 1_555
Co3 Co46 2.532320 1_555
Co3 Si7 2.541123 1_555
Co3 Tb5 3.039295 1_555
Co4 Si4 2.338136 1_556
Co4 Tb2 2.948788 1_556
Co4 Tb3 2.948788 1_556
Co5 Si3 2.338136 1_556
Co5 Tb0 2.948788 1_556
Co5 Tb2 2.948788 1_456
Co6 Si2 2.338136 1_556
Co6 Tb1 2.948788 1_556
Co6 Tb3 2.948788 1_456
Co7 Si1 2.338136 1_556
Co7 Tb0 2.948788 1_556
Co7 Tb1 2.948788 1_556
Co8 Si6 2.338136 1_554
Co8 Tb2 2.948788 1_545
Co8 Tb3 2.948788 1_555
Co9 Si5 2.338136 1_554
Co9 Tb0 2.948788 1_545
Co9 Tb1 2.948788 1_555
Co10 Si0 2.338136 1_554
Co10 Tb0 2.948788 1_555
Co10 Tb2 2.948788 1_555
Co11 Si7 2.338136 1_554
Co11 Tb3 2.948788 1_555
Co11 Tb1 2.948788 1_555
Co12 Co47 2.485936 1_655
Co12 Si4 2.656842 1_555
Co12 Si2 2.656842 1_655
Co12 Tb3 2.880339 1_555
Co13 Co47 2.485936 1_655
Co13 Si3 2.656842 1_655
Co13 Si4 2.656842 1_555
Co13 Tb2 2.880339 1_555
Co14 Co47 2.485936 1_555
Co14 Si1 2.656842 1_555
Co14 Si2 2.656842 1_555
Co14 Tb1 2.880339 1_555
Co15 Co47 2.485936 1_555
Co15 Si3 2.656842 1_555
Co15 Si1 2.656842 1_555
Co15 Tb0 2.880339 1_555
Co16 Co46 2.485936 1_565
Co16 Si6 2.656842 1_565
Co16 Si0 2.656842 1_555
Co16 Tb2 2.880339 1_556
Co17 Co46 2.485936 1_555
Co17 Si7 2.656842 1_555
Co17 Si5 2.656842 1_555
Co17 Tb1 2.880339 1_556
Co18 Co46 2.485936 1_565
Co18 Si0 2.656842 1_555
Co18 Si5 2.656842 1_565
Co18 Tb0 2.880339 1_556
Co19 Co46 2.485936 1_555
Co19 Si6 2.656842 1_555
Co19 Si7 2.656842 1_555
Co19 Tb3 2.880339 1_556
Co20 Co47 2.506141 1_655
Co20 Tb3 3.227111 1_556
Co21 Co47 2.506141 1_655
Co21 Tb2 3.227111 1_556
Co22 Co47 2.506141 1_555
Co22 Tb1 3.227111 1_556
Co23 Co47 2.506141 1_555
Co23 Tb0 3.227111 1_556
Co24 Co46 2.506141 1_565
Co24 Tb2 3.227111 1_555
Co25 Co46 2.506141 1_555
Co25 Tb1 3.227111 1_555
Co26 Co46 2.506141 1_565
Co26 Tb0 3.227111 1_555
Co27 Co46 2.506141 1_555
Co27 Tb3 3.227111 1_555
Co28 Si1 2.325120 1_555
Co28 Tb1 2.932850 1_555
Co28 Tb5 2.937782 1_555
Co29 Si2 2.325120 1_655
Co29 Tb3 2.932850 1_555
Co29 Tb4 2.937782 1_655
Co30 Si3 2.325120 1_555
Co30 Tb0 2.932850 1_555
Co30 Tb4 2.937782 1_565
Co31 Si4 2.325120 1_555
Co31 Tb2 2.932850 1_555
Co31 Tb5 2.937782 1_555
Co32 Si5 2.325120 1_565
Co32 Tb0 2.932850 1_556
Co32 Tb4 2.937782 1_565
Co33 Si6 2.325120 1_555
Co33 Tb3 2.932850 1_556
Co33 Tb4 2.937782 1_655
Co34 Si7 2.325120 1_555
Co34 Tb1 2.932850 1_556
Co34 Tb5 2.937782 1_555
Co35 Si4 2.380701 1_556
Co35 Si7 2.421724 1_555
Co35 Si0 2.421724 1_555
Co35 Tb2 3.304463 1_556
Co35 Tb3 3.304463 1_556
Co36 Si5 2.325120 1_555
Co36 Tb1 2.932850 1_556
Co36 Tb4 2.937782 1_555
Co37 Si7 2.325120 1_555
Co37 Tb3 2.932850 1_556
Co37 Tb5 2.937782 1_555
Co38 Si0 2.325120 1_555
Co38 Tb0 2.932850 1_556
Co38 Tb5 2.937782 1_555
Co39 Si6 2.325120 1_565
Co39 Tb2 2.932850 1_556
Co39 Tb4 2.937782 1_665
Co40 Co46 2.532320 1_555
Co40 Si6 2.541123 1_555
Co40 Tb4 3.039295 1_655
Co41 Si3 2.380701 1_556
Co41 Si6 2.421724 1_465
Co41 Si5 2.421724 1_565
Co41 Tb0 3.304463 1_556
Co41 Tb2 3.304463 1_456
Co42 Si2 2.325120 1_555
Co42 Tb1 2.932850 1_555
Co42 Tb4 2.937782 1_555
Co43 Si3 2.325120 1_655
Co43 Tb2 2.932850 1_555
Co43 Tb4 2.937782 1_665
Co44 Si2 2.380701 1_556
Co44 Si5 2.421724 1_555
Co44 Si6 2.421724 1_455
Co44 Tb1 3.304463 1_556
Co44 Tb3 3.304463 1_456
Co45 Si1 2.380701 1_556
Co45 Si7 2.421724 1_555
Co45 Si0 2.421724 1_555
Co45 Tb0 3.304463 1_556
Co45 Tb1 3.304463 1_556
Co47 Co49 2.532320 1_555
Co47 Co51 2.532320 1_555
Co47 Co50 2.532320 1_555
Co47 Co52 2.532320 1_455
Co48 Si5 2.380701 1_554
Co48 Si2 2.421724 1_555
Co48 Si3 2.421724 1_545
Co48 Tb0 3.304463 1_545
Co48 Tb1 3.304463 1_555
Co49 Si1 2.541123 1_555
Co49 Tb5 3.039295 1_555
Co50 Si2 2.541123 1_555
Co50 Tb4 3.039295 1_555
Co51 Si3 2.541123 1_555
Co51 Tb4 3.039295 1_565
Co52 Si4 2.541123 1_555
Co52 Tb5 3.039295 1_555
Co53 Si0 2.380701 1_554
Co53 Si1 2.421724 1_555
Co53 Si4 2.421724 1_555
Co53 Tb2 3.304463 1_555
Co53 Tb0 3.304463 1_555
Co54 Si7 2.380701 1_554
Co54 Si1 2.421724 1_555
Co54 Si4 2.421724 1_555
Co54 Tb3 3.304463 1_555
Co54 Tb1 3.304463 1_555
Co55 Si6 2.380701 1_554
Co55 Si3 2.421724 1_645
Co55 Si2 2.421724 1_655
Co55 Tb3 3.304463 1_555
Co55 Tb2 3.304463 1_545
Co56 Si0 2.325120 1_555
Co56 Tb2 2.932850 1_556
Co56 Tb5 2.937782 1_555
Co57 Si4 2.325120 1_555
Co57 Tb3 2.932850 1_555
Co57 Tb5 2.937782 1_555
Si0 Tb0 3.191977 1_556
Si0 Tb2 3.191977 1_556
Si0 Tb5 3.248996 1_555
Si1 Tb1 3.191977 1_555
Si1 Tb0 3.191977 1_555
Si1 Tb5 3.248996 1_555
Si2 Tb3 3.191977 1_455
Si2 Tb1 3.191977 1_555
Si2 Tb4 3.248996 1_555
Si3 Tb2 3.191977 1_455
Si3 Tb0 3.191977 1_555
Si3 Tb4 3.248996 1_565
Si4 Tb3 3.191977 1_555
Si4 Tb2 3.191977 1_555
Si4 Tb5 3.248996 1_555
Si5 Tb0 3.191977 1_546
Si5 Tb1 3.191977 1_556
Si5 Tb4 3.248996 1_555
Si6 Tb2 3.191977 1_546
Si6 Tb3 3.191977 1_556
Si6 Tb4 3.248996 1_655
Si7 Tb3 3.191977 1_556
Si7 Tb1 3.191977 1_556
Si7 Tb5 3.248996 1_555
B0 B19 2.036945 1_555
B0 Co33 2.046941 1_555
B0 Co37 2.046941 1_555
B0 Co27 2.073198 1_555
B0 Co40 2.120955 1_555
B0 Co3 2.120955 1_555
B0 Co29 2.123115 1_555
B0 Co57 2.123115 1_555
B0 Co19 2.128646 1_555
B1 B4 2.036945 1_555
B1 Co32 2.046941 1_555
B1 Co38 2.046941 1_555
B1 Co26 2.073198 1_555
B1 Co1 2.120955 1_565
B1 Co2 2.120955 1_555
B1 Co0 2.123115 1_555
B1 Co30 2.123115 1_555
B1 Co18 2.128646 1_555
B2 B5 2.036945 1_555
B2 Co36 2.046941 1_555
B2 Co34 2.046941 1_555
B2 Co25 2.073198 1_555
B2 Co1 2.120955 1_555
B2 Co3 2.120955 1_555
B2 Co42 2.123115 1_555
B2 Co28 2.123115 1_555
B2 Co17 2.128646 1_555
B3 Co39 2.046941 1_555
B3 Co56 2.046941 1_555
B3 Co24 2.073198 1_555
B3 Co2 2.120955 1_555
B3 Co40 2.120955 1_565
B3 Co31 2.123115 1_555
B3 Co43 2.123115 1_555
B3 Co16 2.128646 1_555
B4 Co30 2.046941 1_555
B4 Co0 2.046941 1_555
B4 Co23 2.073198 1_555
B4 Co51 2.120955 1_555
B4 Co49 2.120955 1_555
B4 Co38 2.123115 1_555
B4 Co32 2.123115 1_555
B4 Co15 2.128646 1_555
B5 Co28 2.046941 1_555
B5 Co42 2.046941 1_555
B5 Co22 2.073198 1_555
B5 Co50 2.120955 1_555
B5 Co49 2.120955 1_555
B5 Co36 2.123115 1_555
B5 Co34 2.123115 1_555
B5 Co14 2.128646 1_555
B6 Co54 1.904281 1_555
B6 Co57 2.039317 1_555
B6 Co28 2.039317 1_555
B6 Co27 2.057033 1_555
B6 Co25 2.057033 1_555
B6 Co3 2.080272 1_555
B6 Co11 2.093311 1_555
B7 Co53 1.904281 1_555
B7 Co31 2.039317 1_555
B7 Co0 2.039317 1_555
B7 Co26 2.057033 1_555
B7 Co24 2.057033 1_555
B7 Co2 2.080272 1_555
B7 Co10 2.093311 1_555
B8 Co48 1.904281 1_555
B8 Co30 2.039317 1_545
B8 Co42 2.039317 1_555
B8 Co26 2.057033 1_545
B8 Co25 2.057033 1_555
B8 Co1 2.080272 1_555
B8 Co9 2.093311 1_555
B9 Co55 1.904281 1_555
B9 Co43 2.039317 1_545
B9 Co29 2.039317 1_555
B9 Co24 2.057033 1_545
B9 Co27 2.057033 1_555
B9 Co40 2.080272 1_555
B9 Co8 2.093311 1_555
B10 Co45 1.904281 1_555
B10 Co38 2.039317 1_555
B10 Co34 2.039317 1_555
B10 Co22 2.057033 1_555
B10 Co23 2.057033 1_555
B10 Co49 2.080272 1_555
B10 Co7 2.093311 1_555
B11 Co44 1.904281 1_555
B11 Co33 2.039317 1_455
B11 Co36 2.039317 1_555
B11 Co20 2.057033 1_455
B11 Co22 2.057033 1_555
B11 Co50 2.080272 1_555
B11 Co6 2.093311 1_555
B12 Co41 1.904281 1_555
B12 Co32 2.039317 1_555
B12 Co39 2.039317 1_455
B12 Co21 2.057033 1_455
B12 Co23 2.057033 1_555
B12 Co51 2.080272 1_555
B12 Co5 2.093311 1_555
B13 Co35 1.904281 1_555
B13 Co56 2.039317 1_555
B13 Co37 2.039317 1_555
B13 Co20 2.057033 1_555
B13 Co21 2.057033 1_555
B13 Co52 2.080272 1_555
B13 Co4 2.093311 1_555
B14 B16 2.000423 1_554
B14 Co8 2.055573 1_555
B14 Co10 2.055573 1_545
B14 Co11 2.055573 1_555
B14 Co9 2.055573 1_555
B14 Co26 2.103352 1_545
B14 Co27 2.103352 1_555
B14 Co25 2.103352 1_555
B14 Co24 2.103352 1_545
B15 B17 2.000423 1_556
B15 Co5 2.055573 1_555
B15 Co4 2.055573 1_455
B15 Co6 2.055573 1_555
B15 Co7 2.055573 1_555
B15 Co20 2.103352 1_455
B15 Co21 2.103352 1_455
B15 Co22 2.103352 1_555
B15 Co23 2.103352 1_555
B16 Co10 2.120326 1_546
B16 Co8 2.120326 1_556
B16 Co11 2.120326 1_556
B16 Co9 2.120326 1_556
B16 Co18 2.129948 1_545
B16 Co16 2.129948 1_545
B16 Co19 2.129948 1_555
B16 Co17 2.129948 1_555
B17 Co4 2.120326 1_454
B17 Co5 2.120326 1_554
B17 Co7 2.120326 1_554
B17 Co6 2.120326 1_554
B17 Co14 2.129948 1_555
B17 Co12 2.129948 1_455
B17 Co13 2.129948 1_455
B17 Co15 2.129948 1_555
B18 B3 2.036945 1_555
B18 Co43 2.046941 1_555
B18 Co31 2.046941 1_555
B18 Co21 2.073198 1_555
B18 Co52 2.120955 1_555
B18 Co51 2.120955 1_655
B18 Co39 2.123115 1_555
B18 Co56 2.123115 1_555
B18 Co13 2.128646 1_555
B19 Co57 2.046941 1_555
B19 Co29 2.046941 1_555
B19 Co20 2.073198 1_555
B19 Co52 2.120955 1_555
B19 Co50 2.120955 1_655
B19 Co33 2.123115 1_555
B19 Co37 2.123115 1_555
B19 Co12 2.128646 1_555
