# generated using pymatgen
data_HfTaB4
_symmetry_space_group_name_H-M   'P 1'
_cell_length_a   3.11413901
_cell_length_b   3.11413901
_cell_length_c   6.76783098
_cell_angle_alpha   90.00000000
_cell_angle_beta   90.00000000
_cell_angle_gamma   120.00001543
_symmetry_Int_Tables_number   1
_chemical_formula_structural   HfTaB4
_chemical_formula_sum   'Hf1 Ta1 B4'
_cell_volume   56.84026014
_cell_formula_units_Z   1
loop_
 _symmetry_equiv_pos_site_id
 _symmetry_equiv_pos_as_xyz
  1  'x, y, z'
loop_
 _atom_site_type_symbol
 _atom_site_label
 _atom_site_symmetry_multiplicity
 _atom_site_fract_x
 _atom_site_fract_y
 _atom_site_fract_z
 _atom_site_occupancy
  Hf  Hf0  1  -0.00000000  -0.00000000  -0.00000000  1
  Ta  Ta0  1  -0.00000000  -0.00000000  0.50000000  1
  B  B0  1  0.66666700  0.33333300  0.74444088  1
  B  B1  1  0.66666700  0.33333300  0.25555912  1
  B  B2  1  0.33333300  0.66666700  0.74444088  1
  B  B3  1  0.33333300  0.66666700  0.25555912  1
loop_
_geom_bond_atom_site_label_1
_geom_bond_atom_site_label_2
_geom_bond_distance
_geom_bond_site_symmetry_2
B0 B2 1.797947 1_545
B0 B2 1.797947 1_655
B0 B2 1.797953 1_555
B0 Ta0 2.443243 1_655
B0 Ta0 2.443245 1_555
B0 Ta0 2.443245 1_665
B0 Hf0 2.494808 1_656
B0 Hf0 2.494809 1_666
B0 Hf0 2.494809 1_556
B1 B3 1.797947 1_545
B1 B3 1.797947 1_655
B1 B3 1.797953 1_555
B1 Ta0 2.443243 1_655
B1 Ta0 2.443245 1_555
B1 Ta0 2.443245 1_665
B1 Hf0 2.494808 1_655
B1 Hf0 2.494809 1_555
B1 Hf0 2.494809 1_665
B2 Ta0 2.443243 1_565
B2 Ta0 2.443245 1_555
B2 Ta0 2.443245 1_665
B2 Hf0 2.494808 1_566
B2 Hf0 2.494809 1_666
B2 Hf0 2.494809 1_556
B3 Ta0 2.443243 1_565
B3 Ta0 2.443245 1_555
B3 Ta0 2.443245 1_665
B3 Hf0 2.494808 1_565
B3 Hf0 2.494809 1_555
B3 Hf0 2.494809 1_665
