# generated using pymatgen
data_Al2SiO6
_symmetry_space_group_name_H-M   'P 1'
_cell_length_a   4.63899200
_cell_length_b   8.58339300
_cell_length_c   9.17107400
_cell_angle_alpha   90.00000000
_cell_angle_beta   90.00000000
_cell_angle_gamma   90.00000000
_symmetry_Int_Tables_number   1
_chemical_formula_structural   Al2SiO6
_chemical_formula_sum   'Al8 Si4 O24'
_cell_volume   365.17649753
_cell_formula_units_Z   4
loop_
 _symmetry_equiv_pos_site_id
 _symmetry_equiv_pos_as_xyz
  1  'x, y, z'
loop_
 _atom_site_type_symbol
 _atom_site_label
 _atom_site_symmetry_multiplicity
 _atom_site_fract_x
 _atom_site_fract_y
 _atom_site_fract_z
 _atom_site_occupancy
  Al  Al0  1  0.40004900  0.91759300  0.62635300  1
  Al  Al1  1  0.09995100  0.58240700  0.12635300  1
  Al  Al2  1  0.59995100  0.41759300  0.37364700  1
  Al  Al3  1  0.90004900  0.08240700  0.87364700  1
  Al  Al4  1  0.59995100  0.08240700  0.37364700  1
  Al  Al5  1  0.90004900  0.41759300  0.87364700  1
  Al  Al6  1  0.40004900  0.58240700  0.62635300  1
  Al  Al7  1  0.09995100  0.91759300  0.12635300  1
  Si  Si0  1  0.89788400  0.75000000  0.43767900  1
  Si  Si1  1  0.60211600  0.75000000  0.93767900  1
  Si  Si2  1  0.10211600  0.25000000  0.56232100  1
  Si  Si3  1  0.39788400  0.25000000  0.06232100  1
  O  O0  1  0.20221100  0.75000000  0.53204500  1
  O  O1  1  0.29778900  0.75000000  0.03204500  1
  O  O2  1  0.79778900  0.25000000  0.46795500  1
  O  O3  1  0.70221100  0.25000000  0.96795500  1
  O  O4  1  0.53749100  0.75000000  0.75778800  1
  O  O5  1  0.96250900  0.75000000  0.25778800  1
  O  O6  1  0.46250900  0.25000000  0.24221200  1
  O  O7  1  0.03749100  0.25000000  0.74221200  1
  O  O8  1  0.70816800  0.90451800  0.48702700  1
  O  O9  1  0.79183200  0.59548200  0.98702700  1
  O  O10  1  0.29183200  0.40451800  0.51297300  1
  O  O11  1  0.20816800  0.09548200  0.01297300  1
  O  O12  1  0.29183200  0.09548200  0.51297300  1
  O  O13  1  0.20816800  0.40451800  0.01297300  1
  O  O14  1  0.70816800  0.59548200  0.48702700  1
  O  O15  1  0.79183200  0.90451800  0.98702700  1
  O  O16  1  0.10923500  0.95383200  0.75599100  1
  O  O17  1  0.39076500  0.54616800  0.25599100  1
  O  O18  1  0.89076500  0.45383200  0.24400900  1
  O  O19  1  0.60923500  0.04616800  0.74400900  1
  O  O20  1  0.89076500  0.04616800  0.24400900  1
  O  O21  1  0.60923500  0.45383200  0.74400900  1
  O  O22  1  0.10923500  0.54616800  0.75599100  1
  O  O23  1  0.39076500  0.95383200  0.25599100  1
loop_
_geom_bond_atom_site_label_1
_geom_bond_atom_site_label_2
_geom_bond_distance
_geom_bond_site_symmetry_2
Al0 O19 1.823174 1_565
Al0 O16 1.824914 1_555
Al0 O0 1.913032 1_555
Al0 O12 1.914324 1_565
Al0 O8 1.920511 1_555
Al0 O4 1.982131 1_555
Al1 O18 1.823174 1_455
Al1 O17 1.824914 1_555
Al1 O1 1.913032 1_555
Al1 O13 1.914324 1_555
Al1 O9 1.920511 1_454
Al1 O5 1.982131 1_455
Al2 O17 1.823174 1_555
Al2 O18 1.824914 1_555
Al2 O2 1.913032 1_555
Al2 O14 1.914324 1_555
Al2 O10 1.920511 1_555
Al2 O6 1.982131 1_555
Al3 O16 1.823174 1_645
Al3 O19 1.824914 1_555
Al3 O3 1.913032 1_555
Al3 O15 1.914324 1_545
Al3 O11 1.920511 1_656
Al3 O7 1.982131 1_655
Al4 O23 1.823174 1_545
Al4 O20 1.824914 1_555
Al4 O2 1.913032 1_555
Al4 O8 1.914324 1_545
Al4 O12 1.920511 1_555
Al4 O6 1.982131 1_555
Al5 O22 1.823174 1_655
Al5 O21 1.824914 1_555
Al5 O3 1.913032 1_555
Al5 O9 1.914324 1_555
Al5 O13 1.920511 1_656
Al5 O7 1.982131 1_655
Al6 O21 1.823174 1_555
Al6 O22 1.824914 1_555
Al6 O0 1.913032 1_555
Al6 O10 1.914324 1_555
Al6 O14 1.920511 1_555
Al6 O4 1.982131 1_555
Al7 O20 1.823174 1_465
Al7 O23 1.824914 1_555
Al7 O1 1.913032 1_555
Al7 O11 1.914324 1_565
Al7 O15 1.920511 1_454
Al7 O5 1.982131 1_455
O0 Si0 1.655922 1_455
O1 Si1 1.655922 1_554
O2 Si2 1.655922 1_655
O3 Si3 1.655922 1_556
O4 Si1 1.676811 1_555
O5 Si0 1.676811 1_555
O6 Si3 1.676811 1_555
O7 Si2 1.676811 1_555
O8 Si0 1.654819 1_555
O9 Si1 1.654819 1_555
O10 Si2 1.654819 1_555
O11 Si3 1.654819 1_555
O12 Si2 1.654819 1_555
O13 Si3 1.654819 1_555
O14 Si0 1.654819 1_555
O15 Si1 1.654819 1_555
