# generated using pymatgen
data_GaBO3
_symmetry_space_group_name_H-M   'P 1'
_cell_length_a   5.42485507
_cell_length_b   5.42485507
_cell_length_c   5.42485479
_cell_angle_alpha   49.89604770
_cell_angle_beta   49.89604770
_cell_angle_gamma   49.89606989
_symmetry_Int_Tables_number   1
_chemical_formula_structural   GaBO3
_chemical_formula_sum   'Ga2 B2 O6'
_cell_volume   85.93315290
_cell_formula_units_Z   2
loop_
 _symmetry_equiv_pos_site_id
 _symmetry_equiv_pos_as_xyz
  1  'x, y, z'
loop_
 _atom_site_type_symbol
 _atom_site_label
 _atom_site_symmetry_multiplicity
 _atom_site_fract_x
 _atom_site_fract_y
 _atom_site_fract_z
 _atom_site_occupancy
  Ga  Ga0  1  0.50000000  0.50000000  0.50000000  1
  Ga  Ga1  1  0.00000000  -0.00000000  -0.00000000  1
  B  B0  1  0.25000000  0.25000000  0.25000000  1
  B  B1  1  0.75000000  0.75000000  0.75000000  1
  O  O0  1  0.94889205  0.55110795  0.25000000  1
  O  O1  1  0.25000000  0.94889205  0.55110795  1
  O  O2  1  0.55110795  0.25000000  0.94889205  1
  O  O3  1  0.75000000  0.05110795  0.44889205  1
  O  O4  1  0.44889205  0.75000000  0.05110795  1
  O  O5  1  0.05110795  0.44889205  0.75000000  1
loop_
_geom_bond_atom_site_label_1
_geom_bond_atom_site_label_2
_geom_bond_distance
_geom_bond_site_symmetry_2
Ga0 O5 1.994173 1_555
Ga0 O0 1.994173 1_555
Ga0 O2 1.994173 1_555
Ga0 O4 1.994173 1_555
Ga0 O3 1.994174 1_555
Ga0 O1 1.994174 1_555
Ga1 O5 1.994173 1_554
Ga1 O0 1.994173 1_445
Ga1 O3 1.994173 1_455
Ga1 O1 1.994173 1_544
Ga1 O2 1.994174 1_454
Ga1 O4 1.994174 1_545
B0 O1 1.377979 1_545
B0 O2 1.377979 1_554
B0 O0 1.377980 1_455
B1 O3 1.377979 1_565
B1 O4 1.377979 1_556
B1 O5 1.377980 1_655
