# generated using pymatgen
data_Pu
_symmetry_space_group_name_H-M   'P 1'
_cell_length_a   3.52780334
_cell_length_b   4.54355869
_cell_length_c   4.80465995
_cell_angle_alpha   69.25077658
_cell_angle_beta   84.25068664
_cell_angle_gamma   90.67757982
_symmetry_Int_Tables_number   1
_chemical_formula_structural   Pu
_chemical_formula_sum   Pu4
_cell_volume   71.56280917
_cell_formula_units_Z   4
loop_
 _symmetry_equiv_pos_site_id
 _symmetry_equiv_pos_as_xyz
  1  'x, y, z'
loop_
 _atom_site_type_symbol
 _atom_site_label
 _atom_site_symmetry_multiplicity
 _atom_site_fract_x
 _atom_site_fract_y
 _atom_site_fract_z
 _atom_site_occupancy
  Pu  Pu0  1  0.85710600  0.34036100  0.24774800  1
  Pu  Pu1  1  0.58177900  0.84119200  0.25181400  1
  Pu  Pu2  1  0.41854500  0.15879100  0.74830100  1
  Pu  Pu3  1  0.14257300  0.65965700  0.75213700  1
loop_
_geom_bond_atom_site_label_1
_geom_bond_atom_site_label_2
_geom_bond_distance
_geom_bond_site_symmetry_2
Pu0 Pu3 2.413791 1_654
Pu0 Pu1 2.449561 1_545
Pu0 Pu1 2.490367 1_555
Pu0 Pu2 2.583941 1_555
Pu1 Pu2 2.468141 1_564
Pu1 Pu3 2.584249 1_555
Pu2 Pu3 2.450689 1_545
Pu2 Pu3 2.491102 1_555
