# generated using pymatgen
data_Ba3LiIrRuO9
_symmetry_space_group_name_H-M   'P 1'
_cell_length_a   5.88381726
_cell_length_b   5.88381726
_cell_length_c   14.21346200
_cell_angle_alpha   90.00000000
_cell_angle_beta   90.00000000
_cell_angle_gamma   119.99999163
_symmetry_Int_Tables_number   1
_chemical_formula_structural   Ba3LiIrRuO9
_chemical_formula_sum   'Ba6 Li2 Ir2 Ru2 O18'
_cell_volume   426.13665477
_cell_formula_units_Z   2
loop_
 _symmetry_equiv_pos_site_id
 _symmetry_equiv_pos_as_xyz
  1  'x, y, z'
loop_
 _atom_site_type_symbol
 _atom_site_label
 _atom_site_symmetry_multiplicity
 _atom_site_fract_x
 _atom_site_fract_y
 _atom_site_fract_z
 _atom_site_occupancy
  Ba  Ba0  1  0.00000000  0.00000000  0.74913300  1
  Ba  Ba1  1  0.00000000  0.00000000  0.24913300  1
  Ba  Ba2  1  0.66666700  0.33333300  0.41560600  1
  Ba  Ba3  1  0.33333300  0.66666700  0.58708900  1
  Ba  Ba4  1  0.33333300  0.66666700  0.91560600  1
  Ba  Ba5  1  0.66666700  0.33333300  0.08708900  1
  Li  Li0  1  0.00000000  0.00000000  0.50125300  1
  Li  Li1  1  0.00000000  0.00000000  0.00125300  1
  Ir  Ir0  1  0.66666700  0.33333300  0.66109000  1
  Ir  Ir1  1  0.33333300  0.66666700  0.16109000  1
  Ru  Ru0  1  0.33333300  0.66666700  0.34226800  1
  Ru  Ru1  1  0.66666700  0.33333300  0.84226800  1
  O  O0  1  0.50883500  0.01767000  0.74884800  1
  O  O1  1  0.50883500  0.49116500  0.74884800  1
  O  O2  1  0.98233000  0.49116500  0.74884800  1
  O  O3  1  0.49116500  0.98233000  0.24884800  1
  O  O4  1  0.49116500  0.50883500  0.24884800  1
  O  O5  1  0.01767000  0.50883500  0.24884800  1
  O  O6  1  0.82378500  0.64757000  0.91354400  1
  O  O7  1  0.82378500  0.17621500  0.91354400  1
  O  O8  1  0.35243000  0.17621500  0.91354400  1
  O  O9  1  0.17630900  0.35261700  0.08547900  1
  O  O10  1  0.17630900  0.82369100  0.08547900  1
  O  O11  1  0.64738300  0.82369100  0.08547900  1
  O  O12  1  0.17621500  0.35243000  0.41354400  1
  O  O13  1  0.17621500  0.82378500  0.41354400  1
  O  O14  1  0.64757000  0.82378500  0.41354400  1
  O  O15  1  0.82369100  0.64738300  0.58547900  1
  O  O16  1  0.82369100  0.17630900  0.58547900  1
  O  O17  1  0.35261700  0.17630900  0.58547900  1
loop_
_geom_bond_atom_site_label_1
_geom_bond_atom_site_label_2
_geom_bond_distance
_geom_bond_site_symmetry_2
Ba0 O15 2.939232 1_445
Ba0 O17 2.939232 1_555
Ba0 O16 2.939235 1_455
Ba0 O2 2.943289 1_455
Ba0 O0 2.943289 1_455
Ba0 O2 2.943289 1_445
Ba0 O0 2.943289 1_555
Ba0 O1 2.943289 1_445
Ba0 O1 2.943289 1_555
Ba0 O7 2.947174 1_455
Ba0 O6 2.947174 1_445
Ba0 O8 2.947174 1_555
Ba1 O11 2.939232 1_445
Ba1 O9 2.939232 1_555
Ba1 O10 2.939235 1_545
Ba1 O5 2.943289 1_545
Ba1 O3 2.943289 1_545
Ba1 O3 2.943289 1_445
Ba1 O5 2.943289 1_555
Ba1 O4 2.943289 1_445
Ba1 O4 2.943289 1_555
Ba1 O13 2.947174 1_545
Ba1 O14 2.947174 1_445
Ba1 O12 2.947174 1_555
Ba2 O16 2.896637 1_555
Ba2 O17 2.896643 1_555
Ba2 O15 2.896643 1_555
Ba2 O12 2.943661 1_655
Ba2 O14 2.943661 1_545
Ba2 O13 2.943664 1_545
Ba2 O13 2.943664 1_655
Ba2 O12 2.943666 1_555
Ba2 O14 2.943666 1_555
Ba2 O3 2.969309 1_545
Ba2 O5 2.969309 1_655
Ba2 O4 2.969311 1_555
Ba3 O2 2.912906 1_455
Ba3 O0 2.912906 1_565
Ba3 O1 2.912909 1_555
Ba3 O13 2.940804 1_555
Ba3 O12 2.940807 1_555
Ba3 O14 2.940807 1_555
Ba3 O15 2.943638 1_555
Ba3 O17 2.943638 1_555
Ba3 O17 2.943638 1_565
Ba3 O15 2.943638 1_455
Ba3 O16 2.943639 1_565
Ba3 O16 2.943639 1_455
Ba4 O10 2.896637 1_556
Ba4 O11 2.896643 1_556
Ba4 O9 2.896643 1_556
Ba4 O6 2.943661 1_455
Ba4 O8 2.943661 1_565
Ba4 O7 2.943664 1_455
Ba4 O7 2.943664 1_565
Ba4 O8 2.943666 1_555
Ba4 O6 2.943666 1_555
Ba4 O0 2.969309 1_565
Ba4 O2 2.969309 1_455
Ba4 O1 2.969311 1_555
Ba5 O3 2.912906 1_545
Ba5 O5 2.912906 1_655
Ba5 O4 2.912909 1_555
Ba5 O7 2.940804 1_554
Ba5 O8 2.940807 1_554
Ba5 O6 2.940807 1_554
Ba5 O11 2.943638 1_555
Ba5 O9 2.943638 1_555
Ba5 O9 2.943638 1_655
Ba5 O11 2.943638 1_545
Ba5 O10 2.943639 1_655
Ba5 O10 2.943639 1_545
Li0 O15 2.159061 1_445
Li0 O17 2.159061 1_555
Li0 O16 2.159065 1_455
Li0 O13 2.186115 1_545
Li0 O14 2.186115 1_445
Li0 O12 2.186115 1_555
Li1 O11 2.159061 1_445
Li1 O9 2.159061 1_555
Li1 O10 2.159065 1_545
Li1 O7 2.186115 1_454
Li1 O6 2.186115 1_444
Li1 O8 2.186115 1_554
Ir0 O16 1.927626 1_555
Ir0 O17 1.927635 1_555
Ir0 O15 1.927635 1_555
Ir0 O2 2.035449 1_555
Ir0 O0 2.035449 1_555
Ir0 O1 2.035453 1_555
Ir1 O10 1.927626 1_555
Ir1 O9 1.927635 1_555
Ir1 O11 1.927635 1_555
Ir1 O5 2.035449 1_555
Ir1 O3 2.035449 1_555
Ir1 O4 2.035453 1_555
O0 Ru1 2.085736 1_555
O1 Ru1 2.085739 1_555
O2 Ru1 2.085736 1_555
O3 Ru0 2.085736 1_555
O4 Ru0 2.085739 1_555
O5 Ru0 2.085736 1_555
O6 Ru1 1.894779 1_555
O7 Ru1 1.894775 1_555
O8 Ru1 1.894779 1_555
O12 Ru0 1.894779 1_555
O13 Ru0 1.894775 1_555
O14 Ru0 1.894779 1_555
