# generated using pymatgen
data_SbS2NF6
_symmetry_space_group_name_H-M   'P 1'
_cell_length_a   6.00662568
_cell_length_b   6.00662568
_cell_length_c   5.51234555
_cell_angle_alpha   88.63127762
_cell_angle_beta   88.63127762
_cell_angle_gamma   70.50109522
_symmetry_Int_Tables_number   1
_chemical_formula_structural   SbS2NF6
_chemical_formula_sum   'Sb1 S2 N1 F6'
_cell_volume   187.39638206
_cell_formula_units_Z   1
loop_
 _symmetry_equiv_pos_site_id
 _symmetry_equiv_pos_as_xyz
  1  'x, y, z'
loop_
 _atom_site_type_symbol
 _atom_site_label
 _atom_site_symmetry_multiplicity
 _atom_site_fract_x
 _atom_site_fract_y
 _atom_site_fract_z
 _atom_site_occupancy
  Sb  Sb0  1  0.00000000  0.00000000  0.00000000  1
  S  S0  1  0.64017200  0.64017200  0.38659300  1
  S  S1  1  0.35982800  0.35982800  0.61340700  1
  N  N0  1  0.50000000  0.50000000  0.50000000  1
  F  F0  1  0.11324800  0.11324800  0.27807700  1
  F  F1  1  0.88675200  0.88675200  0.72192300  1
  F  F2  1  0.91804000  0.30943400  0.85109900  1
  F  F3  1  0.69056600  0.08196000  0.14890100  1
  F  F4  1  0.08196000  0.69056600  0.14890100  1
  F  F5  1  0.30943400  0.91804000  0.85109900  1
loop_
_geom_bond_atom_site_label_1
_geom_bond_atom_site_label_2
_geom_bond_distance
_geom_bond_site_symmetry_2
N0 S1 1.493837 1_555
N0 S0 1.493837 1_555
F0 Sb0 1.919278 1_555
F1 Sb0 1.919278 1_666
F2 Sb0 1.925159 1_656
F3 Sb0 1.925159 1_655
F4 Sb0 1.925159 1_565
F5 Sb0 1.925159 1_566
