# generated using pymatgen
data_PrCoSbPbO6
_symmetry_space_group_name_H-M   'P 1'
_cell_length_a   5.79127800
_cell_length_b   5.68871000
_cell_length_c   9.84889626
_cell_angle_alpha   54.84947877
_cell_angle_beta   90.00000000
_cell_angle_gamma   90.00000000
_symmetry_Int_Tables_number   1
_chemical_formula_structural   PrCoSbPbO6
_chemical_formula_sum   'Pr2 Co2 Sb2 Pb2 O12'
_cell_volume   265.30117022
_cell_formula_units_Z   2
loop_
 _symmetry_equiv_pos_site_id
 _symmetry_equiv_pos_as_xyz
  1  'x, y, z'
loop_
 _atom_site_type_symbol
 _atom_site_label
 _atom_site_symmetry_multiplicity
 _atom_site_fract_x
 _atom_site_fract_y
 _atom_site_fract_z
 _atom_site_occupancy
  Pr  Pr0  1  0.80184800  0.26592500  0.24852100  1
  Pr  Pr1  1  0.19815200  0.26592500  0.74852100  1
  Co  Co0  1  0.73783500  0.50400700  0.49736000  1
  Co  Co1  1  0.26216500  0.50400700  0.99736000  1
  Sb  Sb0  1  0.74281900  0.99979300  0.00087500  1
  Sb  Sb1  1  0.25718100  0.99979300  0.50087500  1
  Pb  Pb0  1  0.73354400  0.75005300  0.74654700  1
  Pb  Pb1  1  0.26645600  0.75005300  0.24654700  1
  O  O0  1  0.44571500  0.66215800  0.54855500  1
  O  O1  1  0.55428500  0.66215800  0.04855500  1
  O  O2  1  0.03696800  0.30981200  0.46274200  1
  O  O3  1  0.96303200  0.30981200  0.96274200  1
  O  O4  1  0.98134700  0.74368000  0.54200200  1
  O  O5  1  0.01865300  0.74368000  0.04200200  1
  O  O6  1  0.54264500  0.23465700  0.45463800  1
  O  O7  1  0.45735500  0.23465700  0.95463800  1
  O  O8  1  0.26008900  0.85323700  0.74273200  1
  O  O9  1  0.73991100  0.85323700  0.24273200  1
  O  O10  1  0.21956300  0.17667800  0.25602900  1
  O  O11  1  0.78043700  0.17667800  0.75602900  1
loop_
_geom_bond_atom_site_label_1
_geom_bond_atom_site_label_2
_geom_bond_distance
_geom_bond_site_symmetry_2
Co0 O0 2.109026 1_555
Co0 O9 2.121165 1_555
Co0 O6 2.131903 1_555
Co0 O11 2.134523 1_555
Co0 O4 2.175156 1_555
Co0 O2 2.184360 1_655
Co1 O1 2.109026 1_556
Co1 O8 2.121165 1_555
Co1 O7 2.131903 1_555
Co1 O10 2.134523 1_556
Co1 O5 2.175156 1_556
Co1 O3 2.184360 1_455
O0 Sb1 2.015743 1_555
O0 Pr1 2.429695 1_555
O1 Sb0 2.015743 1_555
O1 Pr0 2.429695 1_555
O2 Sb1 2.028576 1_545
O2 Pb1 2.536135 1_555
O2 Pr0 2.640900 1_455
O2 Pr1 2.836649 1_555
O3 Sb0 2.028576 1_546
O3 Pb0 2.536135 1_555
O3 Pr1 2.640900 1_655
O3 Pr0 2.836649 1_556
O4 Sb1 2.039373 1_655
O4 Pb0 2.490641 1_555
O4 Pr1 2.595158 1_655
O4 Pr0 2.893752 1_565
O5 Sb0 2.039373 1_455
O5 Pb1 2.490641 1_555
O5 Pr0 2.595158 1_455
O5 Pr1 2.893752 1_564
O6 Sb1 2.006232 1_545
O6 Pr0 2.447491 1_555
O7 Sb0 2.006232 1_546
O7 Pr1 2.447491 1_555
O8 Sb1 2.020570 1_555
O8 Pr1 2.407811 1_565
O9 Sb0 2.020570 1_555
O9 Pr0 2.407811 1_565
O10 Sb1 2.020177 1_545
O10 Pr0 2.464155 1_455
O10 Pb1 2.496700 1_545
O11 Sb0 2.020177 1_546
O11 Pr1 2.464155 1_655
O11 Pb0 2.496700 1_545
