# generated using pymatgen
data_Sr4ReN4
_symmetry_space_group_name_H-M   'P 1'
_cell_length_a   9.58642600
_cell_length_b   3.84323200
_cell_length_c   20.49067000
_cell_angle_alpha   90.00000000
_cell_angle_beta   90.00000000
_cell_angle_gamma   90.00000000
_symmetry_Int_Tables_number   1
_chemical_formula_structural   Sr4ReN4
_chemical_formula_sum   'Sr16 Re4 N16'
_cell_volume   754.93486909
_cell_formula_units_Z   4
loop_
 _symmetry_equiv_pos_site_id
 _symmetry_equiv_pos_as_xyz
  1  'x, y, z'
loop_
 _atom_site_type_symbol
 _atom_site_label
 _atom_site_symmetry_multiplicity
 _atom_site_fract_x
 _atom_site_fract_y
 _atom_site_fract_z
 _atom_site_occupancy
  Sr  Sr0  1  0.57272300  0.25000000  0.85304000  1
  Sr  Sr1  1  0.07272300  0.25000000  0.64696000  1
  Sr  Sr2  1  0.42727700  0.75000000  0.14696000  1
  Sr  Sr3  1  0.92727700  0.75000000  0.35304000  1
  Sr  Sr4  1  0.67096300  0.25000000  0.46980000  1
  Sr  Sr5  1  0.17096300  0.25000000  0.03020000  1
  Sr  Sr6  1  0.32903700  0.75000000  0.53020000  1
  Sr  Sr7  1  0.82903700  0.75000000  0.96980000  1
  Sr  Sr8  1  0.84727000  0.25000000  0.76867600  1
  Sr  Sr9  1  0.34727000  0.25000000  0.73132400  1
  Sr  Sr10  1  0.15273000  0.75000000  0.23132400  1
  Sr  Sr11  1  0.65273000  0.75000000  0.26867600  1
  Sr  Sr12  1  0.85727000  0.25000000  0.14552000  1
  Sr  Sr13  1  0.35727000  0.25000000  0.35448000  1
  Sr  Sr14  1  0.14273000  0.75000000  0.85448000  1
  Sr  Sr15  1  0.64273000  0.75000000  0.64552000  1
  Re  Re0  1  0.55239100  0.25000000  0.02764300  1
  Re  Re1  1  0.05239100  0.25000000  0.47235700  1
  Re  Re2  1  0.44760900  0.75000000  0.97235700  1
  Re  Re3  1  0.94760900  0.75000000  0.52764300  1
  N  N0  1  0.10603500  0.25000000  0.38675400  1
  N  N1  1  0.60603500  0.25000000  0.11324600  1
  N  N2  1  0.89396500  0.75000000  0.61324600  1
  N  N3  1  0.39396500  0.75000000  0.88675400  1
  N  N4  1  0.02035700  0.25000000  0.93261400  1
  N  N5  1  0.52035700  0.25000000  0.56738600  1
  N  N6  1  0.97964300  0.75000000  0.06738600  1
  N  N7  1  0.47964300  0.75000000  0.43261400  1
  N  N8  1  0.82599800  0.25000000  0.26847600  1
  N  N9  1  0.32599800  0.25000000  0.23152400  1
  N  N10  1  0.17400200  0.75000000  0.73152400  1
  N  N11  1  0.67400200  0.75000000  0.76847600  1
  N  N12  1  0.94498200  0.25000000  0.88062800  1
  N  N13  1  0.44498200  0.25000000  0.61937200  1
  N  N14  1  0.05501800  0.75000000  0.11937200  1
  N  N15  1  0.55501800  0.75000000  0.38062800  1
loop_
_geom_bond_atom_site_label_1
_geom_bond_atom_site_label_2
_geom_bond_distance
_geom_bond_site_symmetry_2
N0 Re1 1.827893 1_555
N0 Sr13 2.497589 1_555
N0 Sr3 2.665791 1_455
N0 Sr3 2.665791 1_445
N1 Re0 1.827893 1_555
N1 Sr12 2.497589 1_555
N1 Sr2 2.665791 1_555
N1 Sr2 2.665791 1_545
N2 Re3 1.827893 1_555
N2 Sr15 2.497589 1_555
N2 Sr1 2.665791 1_665
N2 Sr1 2.665791 1_655
N3 Re2 1.827893 1_555
N3 Sr14 2.497589 1_555
N3 Sr0 2.665791 1_565
N3 Sr0 2.665791 1_555
N4 Sr5 2.466352 1_556
N4 Sr14 2.762621 1_555
N4 Sr14 2.762621 1_545
N4 Sr7 2.763518 1_455
N4 Sr7 2.763518 1_445
N5 Sr4 2.466352 1_555
N5 Sr15 2.762621 1_555
N5 Sr15 2.762621 1_545
N5 Sr6 2.763518 1_555
N5 Sr6 2.763518 1_545
N6 Sr7 2.466352 1_554
N6 Sr12 2.762621 1_555
N6 Sr12 2.762621 1_565
N6 Sr5 2.763518 1_665
N6 Sr5 2.763518 1_655
N7 Sr6 2.466352 1_555
N7 Sr13 2.762621 1_555
N7 Sr13 2.762621 1_565
N7 Sr4 2.763518 1_555
N7 Sr4 2.763518 1_565
N8 Sr12 2.537224 1_555
N8 Sr11 2.540003 1_555
N8 Sr11 2.540003 1_545
N8 Sr3 2.763651 1_555
N8 Sr3 2.763651 1_545
N9 Sr13 2.537224 1_555
N9 Sr10 2.540003 1_555
N9 Sr10 2.540003 1_545
N9 Sr2 2.763651 1_555
N9 Sr2 2.763651 1_545
N10 Sr14 2.537224 1_555
N10 Sr9 2.540003 1_565
N10 Sr9 2.540003 1_555
N10 Sr1 2.763651 1_565
N10 Sr1 2.763651 1_555
N11 Sr15 2.537224 1_555
N11 Sr8 2.540003 1_565
N11 Sr8 2.540003 1_555
N11 Sr0 2.763651 1_555
N11 Sr0 2.763651 1_565
N12 N4 1.287178 1_655
N12 Sr8 2.477848 1_555
N12 Sr14 2.751971 1_655
N12 Sr14 2.751971 1_645
N12 Sr7 2.875182 1_545
N12 Sr7 2.875182 1_555
N13 N5 1.287178 1_555
N13 Sr9 2.477848 1_555
N13 Sr15 2.751971 1_545
N13 Sr15 2.751971 1_555
N13 Sr6 2.875182 1_545
N13 Sr6 2.875182 1_555
N14 N6 1.287178 1_455
N14 Sr10 2.477848 1_555
N14 Sr12 2.751971 1_455
N14 Sr12 2.751971 1_465
N14 Sr5 2.875182 1_565
N14 Sr5 2.875182 1_555
N15 N7 1.287178 1_555
N15 Sr11 2.477848 1_555
N15 Sr13 2.751971 1_565
N15 Sr13 2.751971 1_555
N15 Sr4 2.875182 1_555
N15 Sr4 2.875182 1_565
