# generated using pymatgen
data_Na5Mn7O15
_symmetry_space_group_name_H-M   'P 1'
_cell_length_a   6.26584574
_cell_length_b   6.38024002
_cell_length_c   10.55629588
_cell_angle_alpha   94.95704220
_cell_angle_beta   67.83209149
_cell_angle_gamma   119.64671523
_symmetry_Int_Tables_number   1
_chemical_formula_structural   Na5Mn7O15
_chemical_formula_sum   'Na5 Mn7 O15'
_cell_volume   337.01498794
_cell_formula_units_Z   1
loop_
 _symmetry_equiv_pos_site_id
 _symmetry_equiv_pos_as_xyz
  1  'x, y, z'
loop_
 _atom_site_type_symbol
 _atom_site_label
 _atom_site_symmetry_multiplicity
 _atom_site_fract_x
 _atom_site_fract_y
 _atom_site_fract_z
 _atom_site_occupancy
  Na  Na0  1  0.88267200  0.18443300  0.42738200  1
  Na  Na1  1  0.11803300  0.32191800  0.07525300  1
  Na  Na2  1  0.48981800  0.75296500  0.25533400  1
  Na  Na3  1  0.88118200  0.70622100  0.92274400  1
  Na  Na4  1  0.12323900  0.79678800  0.56749400  1
  Mn  Mn0  1  0.49994400  0.01500600  0.00324800  1
  Mn  Mn1  1  0.52635600  0.29242400  0.23819200  1
  Mn  Mn2  1  0.50217700  0.48742600  0.50166300  1
  Mn  Mn3  1  0.49974600  0.25080500  0.75194300  1
  Mn  Mn4  1  0.98434400  0.75371800  0.23799600  1
  Mn  Mn5  1  0.99939700  0.25051700  0.75136600  1
  Mn  Mn6  1  0.49895400  0.75143000  0.75215700  1
  O  O0  1  0.67775800  0.11553500  0.13128200  1
  O  O1  1  0.26032200  0.10901200  0.15697700  1
  O  O2  1  0.73448600  0.58977900  0.14045100  1
  O  O3  1  0.73776000  0.39609400  0.35213400  1
  O  O4  1  0.76610200  0.15882700  0.65093300  1
  O  O5  1  0.31022800  0.38106400  0.38382700  1
  O  O6  1  0.73826600  0.80176600  0.39299700  1
  O  O7  1  0.73469400  0.32251400  0.88406400  1
  O  O8  1  0.26388500  0.70719500  0.11657900  1
  O  O9  1  0.26675100  0.17481000  0.61836000  1
  O  O10  1  0.68624800  0.58560300  0.63424700  1
  O  O11  1  0.23343300  0.34335600  0.85180600  1
  O  O12  1  0.26124200  0.58305300  0.64560400  1
  O  O13  1  0.73670900  0.92092500  0.85801600  1
  O  O14  1  0.31611700  0.91868400  0.87083200  1
loop_
_geom_bond_atom_site_label_1
_geom_bond_atom_site_label_2
_geom_bond_distance
_geom_bond_site_symmetry_2
Na0 O4 2.185634 1_555
Na0 O5 2.192602 1_655
Na0 O6 2.195589 1_545
Na0 O3 2.285148 1_555
Na1 O11 2.185444 1_554
Na1 O8 2.227363 1_555
Na1 O0 2.236890 1_455
Na1 O1 2.316345 1_555
Na2 O2 2.205188 1_555
Na2 O0 2.262231 1_565
Na2 O8 2.305806 1_555
Na2 O5 2.345041 1_555
Na2 O6 2.404514 1_555
Na3 O2 2.168827 1_556
Na3 O7 2.211255 1_555
Na3 O14 2.216175 1_655
Na3 O13 2.240136 1_555
Na4 O10 2.206240 1_455
Na4 O9 2.215627 1_565
Na4 O12 2.277317 1_555
Mn0 O8 1.916475 1_545
Mn0 O0 1.938829 1_555
Mn0 O7 1.941871 1_554
Mn0 O13 1.979185 1_544
Mn0 O14 2.006134 1_544
Mn0 O1 2.032614 1_555
Mn1 O2 1.799951 1_555
Mn1 O0 1.865072 1_555
Mn1 O5 1.885089 1_555
Mn1 O3 1.958813 1_555
Mn1 O1 1.964270 1_555
Mn2 O5 1.905269 1_555
Mn2 O6 1.925722 1_555
Mn2 O9 1.953042 1_555
Mn2 O3 1.985889 1_555
Mn2 O12 1.995015 1_555
Mn2 O10 2.008337 1_555
Mn3 O11 1.945305 1_555
Mn3 O4 1.945399 1_555
Mn3 O14 2.084947 1_545
Mn3 O10 2.089403 1_555
Mn3 O9 2.256115 1_555
Mn3 O7 2.257121 1_555
Mn4 O8 1.885017 1_655
Mn4 O6 1.904130 1_555
Mn4 O2 2.003941 1_555
Mn4 O1 2.049722 1_665
Mn4 O3 2.151229 1_555
Mn5 O7 1.952791 1_555
Mn5 O4 1.954338 1_555
Mn5 O11 1.957280 1_655
Mn5 O9 1.979723 1_655
Mn5 O13 1.996316 1_545
Mn5 O12 2.005757 1_655
Mn6 O14 1.978884 1_555
Mn6 O10 1.986037 1_555
Mn6 O13 2.022671 1_555
Mn6 O12 2.027380 1_555
Mn6 O11 2.349588 1_555
Mn6 O4 2.350714 1_565
