# generated using pymatgen
data_CeMg6W
_symmetry_space_group_name_H-M   'P 1'
_cell_length_a   4.85967000
_cell_length_b   6.36845700
_cell_length_c   11.51913900
_cell_angle_alpha   90.00000000
_cell_angle_beta   90.00000000
_cell_angle_gamma   90.00000000
_symmetry_Int_Tables_number   1
_chemical_formula_structural   CeMg6W
_chemical_formula_sum   'Ce2 Mg12 W2'
_cell_volume   356.50121868
_cell_formula_units_Z   2
loop_
 _symmetry_equiv_pos_site_id
 _symmetry_equiv_pos_as_xyz
  1  'x, y, z'
loop_
 _atom_site_type_symbol
 _atom_site_label
 _atom_site_symmetry_multiplicity
 _atom_site_fract_x
 _atom_site_fract_y
 _atom_site_fract_z
 _atom_site_occupancy
  Ce  Ce0  1  0.00000000  0.50000000  0.29904900  1
  Ce  Ce1  1  0.00000000  0.00000000  0.79904900  1
  Mg  Mg0  1  0.00000000  0.74368300  0.07164600  1
  Mg  Mg1  1  0.00000000  0.25631700  0.07164600  1
  Mg  Mg2  1  0.00000000  0.00000000  0.33559400  1
  Mg  Mg3  1  0.50000000  0.24628800  0.42568000  1
  Mg  Mg4  1  0.50000000  0.75371200  0.42568000  1
  Mg  Mg5  1  0.50000000  0.00000000  0.17301300  1
  Mg  Mg6  1  0.00000000  0.24368300  0.57164600  1
  Mg  Mg7  1  0.00000000  0.75631700  0.57164600  1
  Mg  Mg8  1  0.00000000  0.50000000  0.83559400  1
  Mg  Mg9  1  0.50000000  0.74628800  0.92568000  1
  Mg  Mg10  1  0.50000000  0.25371200  0.92568000  1
  Mg  Mg11  1  0.50000000  0.50000000  0.67301300  1
  W  W0  1  0.50000000  0.50000000  0.19769200  1
  W  W1  1  0.50000000  0.00000000  0.69769200  1
loop_
_geom_bond_atom_site_label_1
_geom_bond_atom_site_label_2
_geom_bond_distance
_geom_bond_site_symmetry_2
Ce0 W0 2.695786 1_455
Ce0 W0 2.695786 1_555
Ce0 Mg0 3.044677 1_555
Ce0 Mg1 3.044677 1_555
Ce0 Mg2 3.211935 1_565
Ce0 Mg2 3.211935 1_555
Ce0 Mg4 3.262285 1_455
Ce0 Mg4 3.262285 1_555
Ce0 Mg3 3.262285 1_455
Ce0 Mg3 3.262285 1_555
Ce0 Mg7 3.539020 1_555
Ce0 Mg6 3.539020 1_555
Ce1 W1 2.695786 1_555
Ce1 W1 2.695786 1_455
Ce1 Mg6 3.044677 1_555
Ce1 Mg7 3.044677 1_545
Ce1 Mg8 3.211935 1_545
Ce1 Mg8 3.211935 1_555
Ce1 Mg10 3.262285 1_555
Ce1 Mg10 3.262285 1_455
Ce1 Mg9 3.262285 1_445
Ce1 Mg9 3.262285 1_545
Ce1 Mg1 3.539020 1_556
Ce1 Mg0 3.539020 1_546
Mg0 Mg9 2.954909 1_554
Mg0 Mg9 2.954909 1_454
Mg0 Mg1 3.103769 1_555
Mg0 Mg8 3.130805 1_554
Mg0 Mg5 3.151520 1_565
Mg0 Mg5 3.151520 1_465
Mg0 W0 3.228092 1_555
Mg0 W0 3.228092 1_455
Mg0 Mg1 3.264688 1_565
Mg0 Mg2 3.450928 1_565
Mg1 Mg10 2.954909 1_554
Mg1 Mg10 2.954909 1_454
Mg1 Mg8 3.130805 1_554
Mg1 Mg5 3.151520 1_455
Mg1 Mg5 3.151520 1_555
Mg1 W0 3.228092 1_455
Mg1 W0 3.228092 1_555
Mg1 Mg2 3.450928 1_555
Mg2 Mg5 3.067809 1_455
Mg2 Mg5 3.067809 1_555
Mg2 Mg3 3.072631 1_455
Mg2 Mg3 3.072631 1_555
Mg2 Mg4 3.072631 1_445
Mg2 Mg4 3.072631 1_545
Mg2 Mg6 3.130805 1_555
Mg2 Mg7 3.130805 1_545
Mg3 Mg6 2.954909 1_655
Mg3 Mg6 2.954909 1_555
Mg3 W0 3.083459 1_555
Mg3 Mg4 3.136949 1_545
Mg3 Mg4 3.231508 1_555
Mg3 Mg5 3.306230 1_555
Mg3 W1 3.503992 1_555
Mg4 Mg7 2.954909 1_655
Mg4 Mg7 2.954909 1_555
Mg4 W0 3.083459 1_555
Mg4 Mg5 3.306230 1_565
Mg4 W1 3.503992 1_565
Mg5 W0 3.196893 1_545
Mg5 W0 3.196893 1_555
Mg5 Mg9 3.275335 1_544
Mg6 Mg7 3.103769 1_545
Mg6 W1 3.228092 1_555
Mg6 W1 3.228092 1_455
Mg6 Mg7 3.264688 1_555
Mg6 Mg8 3.450928 1_555
Mg7 W1 3.228092 1_565
Mg7 W1 3.228092 1_465
Mg7 Mg8 3.450928 1_555
Mg8 Mg9 3.072631 1_555
Mg8 Mg9 3.072631 1_455
Mg9 W1 3.083459 1_565
Mg9 W0 3.503992 1_556
Mg10 Mg8 3.072631 1_555
Mg10 Mg8 3.072631 1_655
Mg10 W1 3.083459 1_555
Mg10 Mg9 3.136949 1_555
Mg10 Mg9 3.231508 1_545
Mg10 Mg5 3.275335 1_556
Mg10 Mg11 3.306230 1_555
Mg10 W0 3.503992 1_556
Mg11 Mg8 3.067809 1_555
Mg11 Mg8 3.067809 1_655
Mg11 Mg7 3.151520 1_555
Mg11 Mg7 3.151520 1_655
Mg11 Mg6 3.151520 1_655
Mg11 Mg6 3.151520 1_555
Mg11 W1 3.196893 1_565
Mg11 W1 3.196893 1_555
Mg11 Mg4 3.275335 1_555
Mg11 Mg3 3.275335 1_555
Mg11 Mg9 3.306230 1_555
