# generated using pymatgen
data_CsK2Mn3P4ClO14
_symmetry_space_group_name_H-M   'P 1'
_cell_length_a   5.46009200
_cell_length_b   7.74808500
_cell_length_c   19.32708868
_cell_angle_alpha   79.12430918
_cell_angle_beta   90.00000000
_cell_angle_gamma   90.00000000
_symmetry_Int_Tables_number   1
_chemical_formula_structural   CsK2Mn3P4ClO14
_chemical_formula_sum   'Cs2 K4 Mn6 P8 Cl2 O28'
_cell_volume   802.95174576
_cell_formula_units_Z   2
loop_
 _symmetry_equiv_pos_site_id
 _symmetry_equiv_pos_as_xyz
  1  'x, y, z'
loop_
 _atom_site_type_symbol
 _atom_site_label
 _atom_site_symmetry_multiplicity
 _atom_site_fract_x
 _atom_site_fract_y
 _atom_site_fract_z
 _atom_site_occupancy
  Cs  Cs0  1  0.20465600  0.50000000  0.25000000  1
  Cs  Cs1  1  0.79534400  0.50000000  0.75000000  1
  K  K0  1  0.22097000  0.91452400  0.41435700  1
  K  K1  1  0.22097000  0.08547600  0.08564300  1
  K  K2  1  0.77903000  0.08547600  0.58564300  1
  K  K3  1  0.77903000  0.91452400  0.91435700  1
  Mn  Mn0  1  0.21484900  0.39058300  0.46050900  1
  Mn  Mn1  1  0.21484900  0.60941700  0.03949100  1
  Mn  Mn2  1  0.78515100  0.60941700  0.53949100  1
  Mn  Mn3  1  0.78515100  0.39058300  0.96050900  1
  Mn  Mn4  1  0.71817400  0.00000000  0.25000000  1
  Mn  Mn5  1  0.28182600  0.00000000  0.75000000  1
  P  P0  1  0.71956900  0.21279400  0.40046100  1
  P  P1  1  0.71956900  0.78720600  0.09953900  1
  P  P2  1  0.28043100  0.78720600  0.59953900  1
  P  P3  1  0.28043100  0.21279400  0.90046100  1
  P  P4  1  0.69014500  0.59544400  0.37426500  1
  P  P5  1  0.69014500  0.40455600  0.12573500  1
  P  P6  1  0.30985500  0.40455600  0.62573500  1
  P  P7  1  0.30985500  0.59544400  0.87426500  1
  Cl  Cl0  1  0.21954800  0.00000000  0.25000000  1
  Cl  Cl1  1  0.78045200  0.00000000  0.75000000  1
  O  O0  1  0.49994900  0.21116900  0.44980700  1
  O  O1  1  0.49994900  0.78883100  0.05019300  1
  O  O2  1  0.50005100  0.78883100  0.55019300  1
  O  O3  1  0.50005100  0.21116900  0.94980700  1
  O  O4  1  0.96360800  0.20224200  0.44065400  1
  O  O5  1  0.96360800  0.79775800  0.05934600  1
  O  O6  1  0.03639200  0.79775800  0.55934600  1
  O  O7  1  0.03639200  0.20224200  0.94065400  1
  O  O8  1  0.70175200  0.07926900  0.35255600  1
  O  O9  1  0.70175200  0.92073100  0.14744400  1
  O  O10  1  0.29824800  0.92073100  0.64744400  1
  O  O11  1  0.29824800  0.07926900  0.85255600  1
  O  O12  1  0.88258800  0.59178800  0.43407600  1
  O  O13  1  0.88258800  0.40821200  0.06592400  1
  O  O14  1  0.11741200  0.40821200  0.56592400  1
  O  O15  1  0.11741200  0.59178800  0.93407600  1
  O  O16  1  0.74114800  0.73047900  0.30863200  1
  O  O17  1  0.74114800  0.26952100  0.19136800  1
  O  O18  1  0.25885200  0.26952100  0.69136800  1
  O  O19  1  0.25885200  0.73047900  0.80863200  1
  O  O20  1  0.42886300  0.59742800  0.40328800  1
  O  O21  1  0.42886300  0.40257200  0.09671200  1
  O  O22  1  0.57113700  0.40257200  0.59671200  1
  O  O23  1  0.57113700  0.59742800  0.90328800  1
  O  O24  1  0.72145000  0.40755700  0.34742200  1
  O  O25  1  0.72145000  0.59244300  0.15257800  1
  O  O26  1  0.27855000  0.59244300  0.65257800  1
  O  O27  1  0.27855000  0.40755700  0.84742200  1
loop_
_geom_bond_atom_site_label_1
_geom_bond_atom_site_label_2
_geom_bond_distance
_geom_bond_site_symmetry_2
Cs0 O25 3.241951 1_455
Cs0 O24 3.241951 1_455
Cs0 O25 3.392874 1_555
Cs0 O24 3.392874 1_555
Cs0 O17 3.411985 1_455
Cs0 O16 3.411985 1_455
Cs0 O21 3.418988 1_555
Cs0 O20 3.418988 1_555
Cs0 O17 3.717188 1_555
Cs0 O16 3.717188 1_555
Cs1 O27 3.241951 1_655
Cs1 O26 3.241951 1_655
Cs1 O27 3.392874 1_555
Cs1 O26 3.392874 1_555
Cs1 O19 3.411985 1_655
Cs1 O18 3.411985 1_655
Cs1 O23 3.418988 1_555
Cs1 O22 3.418988 1_555
Cs1 O18 3.717188 1_555
Cs1 O19 3.717188 1_555
K0 O20 2.751161 1_555
K0 O4 2.762268 1_465
K0 O0 2.943934 1_565
K0 O6 2.954645 1_555
K0 O2 3.032804 1_555
K0 O8 3.061357 1_565
K0 O12 3.074438 1_455
K0 O8 3.243113 1_465
K1 O21 2.751161 1_555
K1 O5 2.762268 1_445
K1 O1 2.943934 1_545
K1 O7 2.954645 1_554
K1 O3 3.032804 1_554
K1 O9 3.061357 1_545
K1 O13 3.074438 1_455
K1 O9 3.243113 1_445
K2 O22 2.751161 1_555
K2 O6 2.762268 1_645
K2 O2 2.943934 1_545
K2 O4 2.954645 1_555
K2 O0 3.032804 1_555
K2 O10 3.061357 1_545
K2 O14 3.074438 1_655
K2 O10 3.243113 1_645
K3 O23 2.751161 1_555
K3 O7 2.762268 1_665
K3 O3 2.943934 1_565
K3 O5 2.954645 1_556
K3 O1 3.032804 1_556
K3 O11 3.061357 1_565
K3 O15 3.074438 1_655
K3 O11 3.243113 1_665
Mn0 O4 2.090432 1_455
Mn0 O20 2.118536 1_555
Mn0 O0 2.122953 1_555
Mn0 O14 2.134846 1_555
Mn0 O12 2.383699 1_455
Mn1 O5 2.090432 1_455
Mn1 O21 2.118536 1_555
Mn1 O1 2.122953 1_555
Mn1 O15 2.134846 1_554
Mn1 O13 2.383699 1_455
Mn2 O6 2.090432 1_655
Mn2 O22 2.118536 1_555
Mn2 O2 2.122953 1_555
Mn2 O12 2.134846 1_555
Mn2 O14 2.383699 1_655
Mn3 O7 2.090432 1_655
Mn3 O23 2.118536 1_555
Mn3 O3 2.122953 1_555
Mn3 O13 2.134846 1_556
Mn3 O15 2.383699 1_655
Mn4 O17 2.183517 1_555
Mn4 O16 2.183517 1_545
Mn4 O8 2.184812 1_555
Mn4 O9 2.184812 1_545
Mn5 O19 2.183517 1_545
Mn5 O18 2.183517 1_555
Mn5 O11 2.184812 1_555
Mn5 O10 2.184812 1_545
Cl0 Mn4 2.722544 1_555
Cl0 Mn4 2.737548 1_455
Cl0 K0 3.120132 1_545
Cl0 K1 3.120132 1_555
Cl0 Cs0 3.874896 1_545
Cl0 Cs0 3.874896 1_555
Cl1 Mn5 2.722544 1_555
Cl1 Mn5 2.737548 1_655
Cl1 K2 3.120132 1_555
Cl1 K3 3.120132 1_545
Cl1 Cs1 3.874896 1_555
Cl1 Cs1 3.874896 1_545
O0 P0 1.530735 1_555
O1 P1 1.530735 1_555
O2 P2 1.530735 1_555
O3 P3 1.530735 1_555
O4 P0 1.536766 1_555
O5 P1 1.536766 1_555
O6 P2 1.536766 1_555
O7 P3 1.536766 1_555
O8 P0 1.516069 1_555
O9 P1 1.516069 1_555
O10 P2 1.516069 1_555
O11 P3 1.516069 1_555
O12 P4 1.558463 1_555
O13 P5 1.558463 1_555
O14 P6 1.558463 1_555
O15 P7 1.558463 1_555
O16 P4 1.510124 1_555
O17 P5 1.510124 1_555
O18 P6 1.510124 1_555
O19 P7 1.510124 1_555
O20 P4 1.534076 1_555
O21 P5 1.534076 1_555
O22 P6 1.534076 1_555
O23 P7 1.534076 1_555
O24 P4 1.643963 1_555
O24 P0 1.656617 1_555
O25 P5 1.643963 1_555
O25 P1 1.656617 1_555
O26 P6 1.643963 1_555
O26 P2 1.656617 1_555
O27 P7 1.643963 1_555
O27 P3 1.656617 1_555
