# generated using pymatgen
data_Ca(BO4)3
_symmetry_space_group_name_H-M   'P 1'
_cell_length_a   12.07880600
_cell_length_b   7.91773700
_cell_length_c   11.10674749
_cell_angle_alpha   62.55492348
_cell_angle_beta   90.00000000
_cell_angle_gamma   90.00000000
_symmetry_Int_Tables_number   1
_chemical_formula_structural   Ca(BO4)3
_chemical_formula_sum   'Ca4 B12 O48'
_cell_volume   942.66496289
_cell_formula_units_Z   4
loop_
 _symmetry_equiv_pos_site_id
 _symmetry_equiv_pos_as_xyz
  1  'x, y, z'
loop_
 _atom_site_type_symbol
 _atom_site_label
 _atom_site_symmetry_multiplicity
 _atom_site_fract_x
 _atom_site_fract_y
 _atom_site_fract_z
 _atom_site_occupancy
  Ca  Ca0  1  0.37159900  0.84726800  0.53407400  1
  Ca  Ca1  1  0.87159900  0.15273200  0.96592600  1
  Ca  Ca2  1  0.62840100  0.15273200  0.46592600  1
  Ca  Ca3  1  0.12840100  0.84726800  0.03407400  1
  B  B0  1  0.92469000  0.75974600  0.72036300  1
  B  B1  1  0.42469000  0.24025400  0.77963700  1
  B  B2  1  0.07531000  0.24025400  0.27963700  1
  B  B3  1  0.57531000  0.75974600  0.22036300  1
  B  B4  1  0.89288700  0.80168400  0.92353500  1
  B  B5  1  0.39288700  0.19831600  0.57646500  1
  B  B6  1  0.10711300  0.19831600  0.07646500  1
  B  B7  1  0.60711300  0.80168400  0.42353500  1
  B  B8  1  0.03777900  0.01452400  0.72836900  1
  B  B9  1  0.53777900  0.98547600  0.77163100  1
  B  B10  1  0.96222100  0.98547600  0.27163100  1
  B  B11  1  0.46222100  0.01452400  0.22836900  1
  O  O0  1  0.87061500  0.71029700  0.84080200  1
  O  O1  1  0.37061500  0.28970300  0.65919800  1
  O  O2  1  0.12938500  0.28970300  0.15919800  1
  O  O3  1  0.62938500  0.71029700  0.34080200  1
  O  O4  1  0.00758700  0.89290500  0.66986400  1
  O  O5  1  0.50758700  0.10709500  0.83013600  1
  O  O6  1  0.99241300  0.10709500  0.33013600  1
  O  O7  1  0.49241300  0.89290500  0.16986400  1
  O  O8  1  0.95741500  0.00004100  0.84249900  1
  O  O9  1  0.45741500  0.99995900  0.65750100  1
  O  O10  1  0.04258500  0.99995900  0.15750100  1
  O  O11  1  0.54258500  0.00004100  0.34249900  1
  O  O12  1  0.89535200  0.66827400  0.64582900  1
  O  O13  1  0.39535200  0.33172600  0.85417100  1
  O  O14  1  0.10464800  0.33172600  0.35417100  1
  O  O15  1  0.60464800  0.66827400  0.14582900  1
  O  O16  1  0.80328800  0.87848200  0.96644900  1
  O  O17  1  0.30328800  0.12151800  0.53355100  1
  O  O18  1  0.19671200  0.12151800  0.03355100  1
  O  O19  1  0.69671200  0.87848200  0.46644900  1
  O  O20  1  0.96136700  0.70357500  0.03886800  1
  O  O21  1  0.46136700  0.29642500  0.46113200  1
  O  O22  1  0.03863300  0.29642500  0.96113200  1
  O  O23  1  0.53863300  0.70357500  0.53886800  1
  O  O24  1  0.03328900  0.21461600  0.64226400  1
  O  O25  1  0.53328900  0.78538400  0.85773600  1
  O  O26  1  0.96671100  0.78538400  0.35773600  1
  O  O27  1  0.46671100  0.21461600  0.14226400  1
  O  O28  1  0.13966100  0.97312300  0.80071400  1
  O  O29  1  0.63966100  0.02687700  0.69928600  1
  O  O30  1  0.86033900  0.02687700  0.19928600  1
  O  O31  1  0.36033900  0.97312300  0.30071400  1
  O  O32  1  0.19008200  0.62035900  0.59596100  1
  O  O33  1  0.69008200  0.37964100  0.90403900  1
  O  O34  1  0.80991800  0.37964100  0.40403900  1
  O  O35  1  0.30991800  0.62035900  0.09596100  1
  O  O36  1  0.71527200  0.39353400  0.62778000  1
  O  O37  1  0.21527200  0.60646600  0.87222000  1
  O  O38  1  0.28472800  0.60646600  0.37222000  1
  O  O39  1  0.78472800  0.39353400  0.12778000  1
  O  O40  1  0.79781700  0.34296800  0.70001300  1
  O  O41  1  0.29781700  0.65703200  0.79998700  1
  O  O42  1  0.20218300  0.65703200  0.29998700  1
  O  O43  1  0.70218300  0.34296800  0.20001300  1
  O  O44  1  0.12349200  0.51217800  0.67917800  1
  O  O45  1  0.62349200  0.48782200  0.82082200  1
  O  O46  1  0.87650800  0.48782200  0.32082200  1
  O  O47  1  0.37650800  0.51217800  0.17917800  1
loop_
_geom_bond_atom_site_label_1
_geom_bond_atom_site_label_2
_geom_bond_distance
_geom_bond_site_symmetry_2
Ca0 O23 2.304778 1_555
Ca0 O31 2.312681 1_555
Ca0 O17 2.320425 1_565
Ca0 O9 2.437841 1_555
Ca0 O32 2.714592 1_555
Ca0 O41 2.772193 1_555
Ca0 O11 2.807771 1_565
Ca1 O22 2.304778 1_655
Ca1 O30 2.312681 1_556
Ca1 O16 2.320425 1_545
Ca1 O8 2.437841 1_555
Ca1 O33 2.714592 1_555
Ca1 O40 2.772193 1_555
Ca1 O10 2.807771 1_646
Ca2 O21 2.304778 1_555
Ca2 O29 2.312681 1_555
Ca2 O19 2.320425 1_545
Ca2 O11 2.437841 1_555
Ca2 O34 2.714592 1_555
Ca2 O43 2.772193 1_555
Ca2 O9 2.807771 1_545
Ca3 O20 2.304778 1_455
Ca3 O28 2.312681 1_554
Ca3 O18 2.320425 1_565
Ca3 O10 2.437841 1_555
Ca3 O35 2.714592 1_555
Ca3 O42 2.772193 1_555
Ca3 O8 2.807771 1_464
B0 O4 1.372468 1_655
B0 O0 1.373512 1_555
B0 O12 1.374078 1_555
B1 O5 1.372468 1_555
B1 O1 1.373512 1_555
B1 O13 1.374078 1_555
B2 O6 1.372468 1_455
B2 O2 1.373512 1_555
B2 O14 1.374078 1_555
B3 O7 1.372468 1_555
B3 O3 1.373512 1_555
B3 O15 1.374078 1_555
B4 O20 1.418189 1_556
B4 O16 1.426656 1_555
B4 O0 1.432899 1_555
B4 O8 1.606599 1_565
B5 O21 1.418189 1_555
B5 O17 1.426656 1_555
B5 O1 1.432899 1_555
B5 O9 1.606599 1_545
B6 O22 1.418189 1_554
B6 O18 1.426656 1_555
B6 O2 1.432899 1_555
B6 O10 1.606599 1_545
B7 O23 1.418189 1_555
B7 O19 1.426656 1_555
B7 O3 1.432899 1_555
B7 O11 1.606599 1_565
B8 O28 1.422922 1_545
B8 O24 1.425076 1_555
B8 O4 1.435023 1_545
B8 O8 1.558288 1_455
B9 O29 1.422922 1_565
B9 O25 1.425076 1_555
B9 O5 1.435023 1_565
B9 O9 1.558288 1_555
B10 O30 1.422922 1_565
B10 O26 1.425076 1_555
B10 O6 1.435023 1_565
B10 O10 1.558288 1_655
B11 O31 1.422922 1_545
B11 O27 1.425076 1_555
B11 O7 1.435023 1_545
B11 O11 1.558288 1_555
O32 O44 1.226835 1_555
O33 O45 1.226835 1_555
O34 O46 1.226835 1_555
O35 O47 1.226835 1_555
O36 O40 1.225541 1_555
O37 O41 1.225541 1_555
O38 O42 1.225541 1_555
O39 O43 1.225541 1_555
