# generated using pymatgen
data_Fe13Si2(SbO14)2
_symmetry_space_group_name_H-M   'P 1'
_cell_length_a   5.62367200
_cell_length_b   8.81191999
_cell_length_c   11.49202547
_cell_angle_alpha   87.19746246
_cell_angle_beta   75.95579885
_cell_angle_gamma   78.51700098
_symmetry_Int_Tables_number   1
_chemical_formula_structural   Fe13Si2(SbO14)2
_chemical_formula_sum   'Fe13 Si2 Sb2 O28'
_cell_volume   541.41012967
_cell_formula_units_Z   1
loop_
 _symmetry_equiv_pos_site_id
 _symmetry_equiv_pos_as_xyz
  1  'x, y, z'
loop_
 _atom_site_type_symbol
 _atom_site_label
 _atom_site_symmetry_multiplicity
 _atom_site_fract_x
 _atom_site_fract_y
 _atom_site_fract_z
 _atom_site_occupancy
  Fe  Fe0  1  0.96543600  0.63567500  0.67944800  1
  Fe  Fe1  1  0.64788700  0.35500800  0.14648400  1
  Fe  Fe2  1  0.36081100  0.36135900  0.68242400  1
  Fe  Fe3  1  0.03456400  0.36432500  0.32055200  1
  Fe  Fe4  1  0.35211300  0.64499200  0.85351600  1
  Fe  Fe5  1  0.28409000  0.99518100  0.43691200  1
  Fe  Fe6  1  0.20610600  0.64373000  0.15275200  1
  Fe  Fe7  1  0.00000000  0.00000000  0.00000000  1
  Fe  Fe8  1  0.42204200  0.00106500  0.14961400  1
  Fe  Fe9  1  0.79389400  0.35627000  0.84724800  1
  Fe  Fe10  1  0.63918900  0.63864100  0.31757600  1
  Fe  Fe11  1  0.57795800  0.99893500  0.85038600  1
  Fe  Fe12  1  0.71591000  0.00481900  0.56308700  1
  Si  Si0  1  0.23316000  0.31370100  0.00130400  1
  Si  Si1  1  0.76684000  0.68629900  0.99869600  1
  Sb  Sb0  1  0.85493900  0.00131000  0.28905000  1
  Sb  Sb1  1  0.14506100  0.99869000  0.71095000  1
  O  O0  1  0.70171400  0.40673500  0.29092600  1
  O  O1  1  0.21364600  0.35078200  0.41797200  1
  O  O2  1  0.93032200  0.35644800  0.00778900  1
  O  O3  1  0.30360800  0.12308700  0.99930900  1
  O  O4  1  0.78635400  0.64921800  0.58202800  1
  O  O5  1  0.29828600  0.59326500  0.70907400  1
  O  O6  1  0.00831200  0.09970500  0.57729300  1
  O  O7  1  0.99168800  0.90029500  0.42270700  1
  O  O8  1  0.69639200  0.87691300  0.00069100  1
  O  O9  1  0.11473600  0.88627800  0.15474400  1
  O  O10  1  0.30723900  0.37818000  0.11966200  1
  O  O11  1  0.98790800  0.58585100  0.29823300  1
  O  O12  1  0.42014700  0.89621800  0.57768900  1
  O  O13  1  0.72132500  0.12480700  0.15606700  1
  O  O14  1  0.59569300  0.61463700  0.12012200  1
  O  O15  1  0.06967800  0.64355200  0.99221100  1
  O  O16  1  0.27867500  0.87519300  0.84393300  1
  O  O17  1  0.88526400  0.11372200  0.84525600  1
  O  O18  1  0.57985300  0.10378200  0.42231100  1
  O  O19  1  0.11883400  0.13520500  0.28866500  1
  O  O20  1  0.88116600  0.86479500  0.71133500  1
  O  O21  1  0.40430700  0.38536300  0.87987800  1
  O  O22  1  0.41196400  0.13022900  0.71300300  1
  O  O23  1  0.62876700  0.34688500  0.57940300  1
  O  O24  1  0.69276100  0.62182000  0.88033800  1
  O  O25  1  0.58803600  0.86977100  0.28699700  1
  O  O26  1  0.01209200  0.41414900  0.70176700  1
  O  O27  1  0.37123300  0.65311500  0.42059700  1
loop_
_geom_bond_atom_site_label_1
_geom_bond_atom_site_label_2
_geom_bond_distance
_geom_bond_site_symmetry_2
Fe0 O4 1.663788 1_555
Fe0 O26 1.930020 1_655
Fe0 O5 1.943630 1_655
Fe0 O20 2.010543 1_555
Fe0 O24 2.454571 1_555
Fe1 O0 1.851368 1_555
Fe1 O2 1.959785 1_555
Fe1 O10 1.982744 1_555
Fe1 O13 1.991036 1_555
Fe1 O14 2.262766 1_555
Fe2 O23 1.661639 1_555
Fe2 O26 1.883339 1_555
Fe2 O22 2.024892 1_555
Fe2 O5 2.028872 1_555
Fe2 O21 2.364429 1_555
Fe3 O1 1.663788 1_555
Fe3 O11 1.930020 1_455
Fe3 O0 1.943630 1_455
Fe3 O19 2.010543 1_555
Fe3 O10 2.454571 1_555
Fe4 O5 1.851368 1_555
Fe4 O15 1.959785 1_555
Fe4 O24 1.982744 1_555
Fe4 O16 1.991036 1_555
Fe4 O21 2.262766 1_555
Fe5 O7 2.029969 1_455
Fe5 O12 2.039703 1_555
Fe5 O18 2.047694 1_565
Fe5 O6 2.053886 1_565
Fe5 O25 2.261839 1_555
Fe5 O19 2.322693 1_565
Fe6 O11 1.931607 1_455
Fe6 O14 2.096057 1_555
Fe6 O9 2.096300 1_555
Fe6 O15 2.163378 1_554
Fe6 O10 2.322899 1_555
Fe7 O9 2.169832 1_545
Fe7 O17 2.169832 1_454
Fe7 O3 2.195813 1_554
Fe7 O8 2.195813 1_445
Fe7 O13 2.241601 1_455
Fe7 O16 2.241601 1_544
Fe8 O9 2.157300 1_545
Fe8 O3 2.162164 1_554
Fe8 O8 2.176181 1_545
Fe8 O25 2.193003 1_545
Fe8 O13 2.196905 1_555
Fe8 O19 2.217658 1_555
Fe9 O26 1.931607 1_655
Fe9 O21 2.096057 1_555
Fe9 O17 2.096300 1_555
Fe9 O2 2.163378 1_556
Fe9 O24 2.322899 1_555
Fe10 O27 1.661639 1_555
Fe10 O11 1.883339 1_555
Fe10 O25 2.024892 1_555
Fe10 O0 2.028872 1_555
Fe10 O14 2.364429 1_555
Fe11 O17 2.157300 1_565
Fe11 O8 2.162164 1_556
Fe11 O3 2.176181 1_565
Fe11 O22 2.193003 1_565
Fe11 O16 2.196905 1_555
Fe11 O20 2.217658 1_555
Fe12 O6 2.029973 1_655
Fe12 O18 2.039693 1_555
Fe12 O12 2.047692 1_545
Fe12 O7 2.053879 1_545
Fe12 O22 2.261846 1_555
Fe12 O20 2.322702 1_545
O2 Si0 1.653356 1_655
O3 Si0 1.647179 1_556
O6 Sb1 1.977387 1_545
O7 Sb0 1.977387 1_565
O8 Si1 1.647179 1_554
O9 Sb0 2.003293 1_465
O10 Si0 1.670715 1_555
O12 Sb1 1.995763 1_555
O13 Sb0 2.038022 1_555
O14 Si1 1.666232 1_554
O15 Si1 1.653356 1_455
O16 Sb1 2.038022 1_555
O17 Sb1 2.003293 1_645
O18 Sb0 1.995763 1_555
O19 Sb0 2.070753 1_455
O20 Sb1 2.070753 1_655
O21 Si0 1.666232 1_556
O22 Sb1 2.075955 1_545
O24 Si1 1.670715 1_555
O25 Sb0 2.075955 1_565
