# generated using pymatgen
data_ThGe2
_symmetry_space_group_name_H-M   'P 1'
_cell_length_a   3.98551698
_cell_length_b   4.14370724
_cell_length_c   8.80114809
_cell_angle_alpha   103.61153221
_cell_angle_beta   90.00000977
_cell_angle_gamma   89.99999868
_symmetry_Int_Tables_number   1
_chemical_formula_structural   ThGe2
_chemical_formula_sum   'Th2 Ge4'
_cell_volume   141.26700559
_cell_formula_units_Z   2
loop_
 _symmetry_equiv_pos_site_id
 _symmetry_equiv_pos_as_xyz
  1  'x, y, z'
loop_
 _atom_site_type_symbol
 _atom_site_label
 _atom_site_symmetry_multiplicity
 _atom_site_fract_x
 _atom_site_fract_y
 _atom_site_fract_z
 _atom_site_occupancy
  Th  Th0  1  0.25000003  0.89051175  0.78074128  1
  Th  Th1  1  0.74999998  0.10947967  0.21924095  1
  Ge  Ge0  1  0.24999996  0.54646059  0.09301783  1
  Ge  Ge1  1  0.75000003  0.45358552  0.90707602  1
  Ge  Ge2  1  0.74999977  0.74908005  0.49772223  1
  Ge  Ge3  1  0.25000022  0.25088242  0.50220168  1
loop_
_geom_bond_atom_site_label_1
_geom_bond_atom_site_label_2
_geom_bond_distance
_geom_bond_site_symmetry_2
Ge0 Ge1 2.549685 1_454
Ge0 Ge1 2.549686 1_554
Ge0 Th1 3.070531 1_565
Ge0 Th1 3.070531 1_465
Ge0 Th1 3.070944 1_555
Ge0 Th1 3.070944 1_455
Ge0 Th0 3.380152 1_544
Ge0 Th0 3.380880 1_554
Ge1 Th0 3.070864 1_545
Ge1 Th0 3.070864 1_645
Ge1 Th0 3.071283 1_555
Ge1 Th0 3.071283 1_655
Ge1 Th1 3.379400 1_566
Ge1 Th1 3.380123 1_556
Ge2 Ge3 2.873609 1_565
Ge2 Ge3 2.873612 1_665
Ge2 Ge3 2.876217 1_555
Ge2 Ge3 2.876220 1_655
Ge2 Th0 3.135602 1_555
Ge2 Th0 3.135603 1_655
Ge2 Th1 3.155975 1_565
Ge2 Th1 3.158155 1_555
Ge3 Th1 3.135217 1_555
Ge3 Th1 3.135217 1_455
Ge3 Th0 3.156352 1_545
Ge3 Th0 3.158531 1_555
