# generated using pymatgen
data_GdPH(CO3)2
_symmetry_space_group_name_H-M   'P 1'
_cell_length_a   8.20012040
_cell_length_b   9.48457093
_cell_length_c   9.48457093
_cell_angle_alpha   65.00064109
_cell_angle_beta   77.62010210
_cell_angle_gamma   77.62010210
_symmetry_Int_Tables_number   1
_chemical_formula_structural   GdPH(CO3)2
_chemical_formula_sum   'Gd4 P4 H4 C8 O24'
_cell_volume   646.58810192
_cell_formula_units_Z   4
loop_
 _symmetry_equiv_pos_site_id
 _symmetry_equiv_pos_as_xyz
  1  'x, y, z'
loop_
 _atom_site_type_symbol
 _atom_site_label
 _atom_site_symmetry_multiplicity
 _atom_site_fract_x
 _atom_site_fract_y
 _atom_site_fract_z
 _atom_site_occupancy
  Gd  Gd0  1  0.25821200  0.01124400  0.40261100  1
  Gd  Gd1  1  0.25821200  0.40261100  0.01124400  1
  Gd  Gd2  1  0.74178800  0.98875600  0.59738900  1
  Gd  Gd3  1  0.74178800  0.59738900  0.98875600  1
  P  P0  1  0.47563200  0.31455900  0.31455900  1
  P  P1  1  0.52436800  0.68544100  0.68544100  1
  P  P2  1  0.97127400  0.19953500  0.19953500  1
  P  P3  1  0.02872600  0.80046500  0.80046500  1
  H  H0  1  0.41277400  0.40516300  0.40516300  1
  H  H1  1  0.58722600  0.59483700  0.59483700  1
  H  H2  1  0.85710100  0.14702400  0.14702400  1
  H  H3  1  0.14289900  0.85297600  0.85297600  1
  C  C0  1  0.09670400  0.75625600  0.30957000  1
  C  C1  1  0.09670400  0.30957000  0.75625600  1
  C  C2  1  0.90329600  0.24374400  0.69043000  1
  C  C3  1  0.90329600  0.69043000  0.24374400  1
  C  C4  1  0.09229900  0.21543500  0.66423000  1
  C  C5  1  0.09229900  0.66423000  0.21543500  1
  C  C6  1  0.90770100  0.78456500  0.33577000  1
  C  C7  1  0.90770100  0.33577000  0.78456500  1
  O  O0  1  0.31976100  0.27513300  0.27513300  1
  O  O1  1  0.68023900  0.72486700  0.72486700  1
  O  O2  1  0.57410100  0.41615500  0.16153500  1
  O  O3  1  0.57410100  0.16153500  0.41615500  1
  O  O4  1  0.42589900  0.58384500  0.83846500  1
  O  O5  1  0.42589900  0.83846500  0.58384500  1
  O  O6  1  0.20877600  0.79337800  0.35012400  1
  O  O7  1  0.20877600  0.35012400  0.79337800  1
  O  O8  1  0.79122400  0.20662200  0.64987600  1
  O  O9  1  0.79122400  0.64987600  0.20662200  1
  O  O10  1  0.15464900  0.14196700  0.14196700  1
  O  O11  1  0.84535100  0.85803300  0.85803300  1
  O  O12  1  0.95055900  0.38032800  0.12540700  1
  O  O13  1  0.95055900  0.12540700  0.38032800  1
  O  O14  1  0.04944100  0.61967200  0.87459300  1
  O  O15  1  0.04944100  0.87459300  0.61967200  1
  O  O16  1  0.19835600  0.14376600  0.59662400  1
  O  O17  1  0.19835600  0.59662400  0.14376600  1
  O  O18  1  0.80164400  0.85623400  0.40337600  1
  O  O19  1  0.80164400  0.40337600  0.85623400  1
  O  O20  1  0.49198200  0.99288300  0.20922900  1
  O  O21  1  0.49198200  0.20922900  0.99288300  1
  O  O22  1  0.50801800  0.00711700  0.79077100  1
  O  O23  1  0.50801800  0.79077100  0.00711700  1
loop_
_geom_bond_atom_site_label_1
_geom_bond_atom_site_label_2
_geom_bond_distance
_geom_bond_site_symmetry_2
Gd0 O5 2.279771 1_545
Gd0 O20 2.385021 1_545
Gd0 O0 2.388138 1_555
Gd0 O6 2.448914 1_545
Gd0 O15 2.456389 1_545
Gd0 O10 2.495551 1_555
Gd0 O13 2.538795 1_455
Gd0 O16 2.551453 1_555
Gd1 O4 2.279771 1_554
Gd1 O21 2.385021 1_554
Gd1 O0 2.388138 1_555
Gd1 O7 2.448914 1_554
Gd1 O14 2.456389 1_554
Gd1 O10 2.495551 1_555
Gd1 O12 2.538795 1_455
Gd1 O17 2.551453 1_555
Gd2 O3 2.279771 1_565
Gd2 O22 2.385021 1_565
Gd2 O1 2.388138 1_555
Gd2 O8 2.448914 1_565
Gd2 O13 2.456389 1_565
Gd2 O11 2.495551 1_555
Gd2 O15 2.538795 1_655
Gd2 O18 2.551453 1_555
Gd3 O2 2.279771 1_556
Gd3 O23 2.385021 1_556
Gd3 O1 2.388138 1_555
Gd3 O9 2.448914 1_556
Gd3 O12 2.456389 1_556
Gd3 O11 2.495551 1_555
Gd3 O14 2.538795 1_655
Gd3 O19 2.551453 1_555
H0 P0 1.409582 1_555
H1 P1 1.409582 1_555
H2 P2 1.407890 1_555
H3 P3 1.407890 1_555
C0 O6 1.233391 1_555
C1 O7 1.233391 1_555
C2 O8 1.233391 1_555
C3 O9 1.233391 1_555
C4 O16 1.226932 1_555
C5 O17 1.226932 1_555
C6 O18 1.226932 1_555
C7 O19 1.226932 1_555
O0 P0 1.562505 1_555
O1 P1 1.562505 1_555
O2 P0 1.528407 1_555
O3 P0 1.528407 1_555
O4 P1 1.528407 1_555
O5 P1 1.528407 1_555
O10 P2 1.550884 1_455
O11 P3 1.550884 1_655
O12 P2 1.539754 1_555
O13 P2 1.539754 1_555
O14 P3 1.539754 1_555
O15 P3 1.539754 1_555
