# generated using pymatgen
data_Pr(Al10V)2
_symmetry_space_group_name_H-M   'P 1'
_cell_length_a   10.21773536
_cell_length_b   10.21773281
_cell_length_c   10.21772550
_cell_angle_alpha   60.00001165
_cell_angle_beta   60.00001442
_cell_angle_gamma   60.00005478
_symmetry_Int_Tables_number   1
_chemical_formula_structural   Pr(Al10V)2
_chemical_formula_sum   'Pr2 Al40 V4'
_cell_volume   754.30795968
_cell_formula_units_Z   2
loop_
 _symmetry_equiv_pos_site_id
 _symmetry_equiv_pos_as_xyz
  1  'x, y, z'
loop_
 _atom_site_type_symbol
 _atom_site_label
 _atom_site_symmetry_multiplicity
 _atom_site_fract_x
 _atom_site_fract_y
 _atom_site_fract_z
 _atom_site_occupancy
  Pr  Pr0  1  0.49999857  0.49999982  0.50000045  1
  Pr  Pr1  1  0.75000115  0.74999976  0.74999987  1
  Al  Al0  1  0.86224494  0.86224348  0.13775561  1
  Al  Al1  1  0.13775697  0.13775650  0.86224332  1
  Al  Al2  1  0.86224549  0.13775761  0.86224159  1
  Al  Al3  1  0.13775748  0.86224489  0.13775549  1
  Al  Al4  1  0.13775791  0.86224479  0.86224187  1
  Al  Al5  1  0.86224604  0.13775703  0.13775545  1
  Al  Al6  1  0.38775528  0.38775681  0.11224418  1
  Al  Al7  1  0.11224279  0.11224330  0.38775685  1
  Al  Al8  1  0.38775476  0.11224215  0.38775869  1
  Al  Al9  1  0.11224227  0.38775536  0.11224426  1
  Al  Al10  1  0.11224182  0.38775542  0.38775843  1
  Al  Al11  1  0.38775427  0.11224274  0.11224428  1
  Al  Al12  1  0.56874122  0.29818834  0.29818958  1
  Al  Al13  1  0.29818792  0.56874222  0.83488028  1
  Al  Al14  1  0.29818667  0.83488264  0.56874060  1
  Al  Al15  1  0.83488306  0.29818718  0.29818840  1
  Al  Al16  1  0.29818695  0.29818752  0.56874327  1
  Al  Al17  1  0.56873932  0.83488116  0.29818931  1
  Al  Al18  1  0.83488191  0.56873883  0.29818917  1
  Al  Al19  1  0.29818694  0.29818756  0.83488141  1
  Al  Al20  1  0.29818763  0.56874233  0.29818953  1
  Al  Al21  1  0.83488300  0.29818713  0.56873982  1
  Al  Al22  1  0.56874102  0.29818848  0.83487999  1
  Al  Al23  1  0.29818670  0.83488272  0.29818838  1
  Al  Al24  1  0.68121065  0.95184592  0.95184466  1
  Al  Al25  1  0.95184635  0.68120958  0.41509939  1
  Al  Al26  1  0.95184759  0.41509703  0.68121120  1
  Al  Al27  1  0.41509663  0.95184708  0.95184582  1
  Al  Al28  1  0.95184727  0.95184675  0.68120854  1
  Al  Al29  1  0.68121257  0.41509848  0.95184492  1
  Al  Al30  1  0.41509778  0.68121294  0.95184514  1
  Al  Al31  1  0.95184732  0.95184664  0.41509827  1
  Al  Al32  1  0.95184664  0.68120945  0.95184477  1
  Al  Al33  1  0.41509670  0.95184715  0.68121196  1
  Al  Al34  1  0.68121087  0.95184575  0.41509964  1
  Al  Al35  1  0.95184761  0.41509694  0.95184582  1
  Al  Al36  1  0.12499764  0.62500077  0.62500077  1
  Al  Al37  1  0.62500083  0.12499760  0.62500080  1
  Al  Al38  1  0.62500081  0.62500076  0.12499763  1
  Al  Al39  1  0.62500088  0.62500076  0.62500075  1
  V  V0  1  0.62500110  0.12500004  0.12499968  1
  V  V1  1  0.12499950  0.62500092  0.12500003  1
  V  V2  1  0.12499957  0.12499974  0.62500081  1
  V  V3  1  0.12499960  0.12499998  0.12499932  1
loop_
_geom_bond_atom_site_label_1
_geom_bond_atom_site_label_2
_geom_bond_distance
_geom_bond_site_symmetry_2
Al0 V1 2.561063 1_655
Al0 V0 2.561080 1_565
Al0 Al18 2.687592 1_555
Al0 Al17 2.687598 1_555
Al0 Al3 2.815121 1_655
Al0 Al4 2.815122 1_654
Al0 Al5 2.815129 1_565
Al0 Al2 2.815129 1_564
Al0 Al32 2.819463 1_554
Al0 Al24 2.819464 1_554
Al0 Al25 2.819466 1_555
Al0 Al34 2.819473 1_555
Al1 V3 2.561064 1_556
Al1 V2 2.561070 1_555
Al1 Al19 2.687538 1_555
Al1 Al16 2.687542 1_555
Al1 Al5 2.815103 1_456
Al1 Al3 2.815106 1_546
Al1 Al2 2.815107 1_455
Al1 Al4 2.815108 1_545
Al1 Al33 2.819432 1_545
Al1 Al26 2.819439 1_455
Al1 Al27 2.819439 1_545
Al1 Al35 2.819445 1_455
Al2 V2 2.561050 1_655
Al2 V0 2.561088 1_556
Al2 Al21 2.687563 1_555
Al2 Al22 2.687587 1_555
Al2 Al4 2.815117 1_645
Al2 Al5 2.815125 1_556
Al2 Al26 2.819434 1_555
Al2 Al29 2.819453 1_555
Al2 Al28 2.819454 1_545
Al2 Al24 2.819473 1_545
Al3 V3 2.561056 1_565
Al3 V1 2.561083 1_555
Al3 Al5 2.815109 1_465
Al3 Al4 2.815121 1_554
Al3 Al30 2.819442 1_554
Al3 Al31 2.819459 1_455
Al4 V2 2.561055 1_565
Al4 V1 2.561086 1_556
Al5 V3 2.561045 1_655
Al5 V0 2.561089 1_555
Al6 V1 2.561077 1_555
Al6 V0 2.561090 1_555
Al6 Al9 2.815126 1_555
Al6 Al8 2.815134 1_555
Al7 V2 2.561080 1_555
Al7 V3 2.561082 1_555
Al7 Al9 2.815111 1_555
Al7 Al8 2.815112 1_555
Al8 V2 2.561062 1_555
Al8 V0 2.561102 1_555
Al9 V3 2.561067 1_555
Al9 V1 2.561096 1_555
Al10 V2 2.561065 1_555
Al10 V1 2.561095 1_555
Al10 Al26 2.687055 1_455
Al10 Al25 2.687067 1_455
Al10 Al7 2.815112 1_555
Al10 Al8 2.815122 1_555
Al10 Al9 2.815126 1_555
Al10 Al6 2.815127 1_555
Al10 Al21 2.819432 1_455
Al10 Al18 2.819448 1_455
Al10 Al16 2.819457 1_555
Al10 Al20 2.819477 1_555
Al11 V3 2.561061 1_555
Al11 V0 2.561108 1_555
Al11 Al27 2.687049 1_544
Al11 Al24 2.687084 1_544
Al11 Al7 2.815108 1_555
Al11 Al9 2.815114 1_555
Al11 Al8 2.815130 1_555
Al11 Al6 2.815134 1_555
Al11 Al23 2.819438 1_545
Al11 Al17 2.819458 1_545
Al11 Al19 2.819461 1_554
Al11 Al22 2.819477 1_554
Al12 Al5 2.687586 1_555
Al12 Al15 2.719355 1_555
Al12 Al16 2.764448 1_555
Al12 Al20 2.764449 1_555
Al12 V0 2.773156 1_555
Al12 Al6 2.819467 1_555
Al12 Al8 2.819476 1_555
Al12 Al34 2.889569 1_545
Al12 Al29 2.889583 1_554
Al12 Al37 3.099320 1_555
Al12 Al38 3.099332 1_555
Al12 Pr0 3.217575 1_555
Al13 Al4 2.687569 1_555
Al13 Al14 2.719347 1_555
Al13 Al22 2.764445 1_555
Al13 Al19 2.764454 1_555
Al13 V1 2.773163 1_556
Al13 Al6 2.819470 1_556
Al13 Al9 2.819476 1_556
Al13 Al32 2.889559 1_455
Al13 Al30 2.889590 1_555
Al13 Al36 3.099316 1_555
Al13 Al39 3.099332 1_555
Al13 Pr0 3.217574 1_555
Al14 Al4 2.687557 1_555
Al14 Al17 2.764428 1_555
Al14 Al23 2.764428 1_555
Al14 V2 2.773149 1_565
Al14 Al8 2.819437 1_565
Al14 Al7 2.819442 1_565
Al14 Al28 2.889543 1_455
Al14 Al33 2.889594 1_555
Al14 Al36 3.099320 1_555
Al14 Al39 3.099352 1_555
Al14 Pr0 3.217594 1_555
Al15 Al5 2.687550 1_555
Al15 Al21 2.764420 1_555
Al15 Al18 2.764423 1_555
Al15 V3 2.773142 1_655
Al15 Al9 2.819435 1_655
Al15 Al7 2.819442 1_655
Al15 Al31 2.889552 1_545
Al15 Al35 2.889566 1_554
Al15 Al37 3.099331 1_555
Al15 Al38 3.099344 1_555
Al15 Pr0 3.217609 1_555
Al16 Al19 2.719327 1_555
Al16 Al20 2.764451 1_555
Al16 V2 2.773140 1_555
Al16 Al8 2.819457 1_555
Al16 Al26 2.889543 1_455
Al16 Al33 2.889551 1_545
Al16 Al36 3.099333 1_555
Al16 Al37 3.099339 1_555
Al16 Pr0 3.217588 1_555
Al17 Al18 2.719375 1_555
Al17 Al23 2.764432 1_555
Al17 V0 2.773170 1_565
Al17 Al8 2.819457 1_565
Al17 Al24 2.889583 1_554
Al17 Al34 2.889599 1_555
Al17 Al38 3.099323 1_555
Al17 Al39 3.099330 1_555
Al17 Pr0 3.217582 1_555
Al18 Al21 2.764419 1_555
Al18 V1 2.773161 1_655
Al18 Al9 2.819445 1_655
Al18 Al32 2.889581 1_554
Al18 Al25 2.889590 1_555
Al18 Al38 3.099326 1_555
Al18 Al39 3.099333 1_555
Al18 Pr0 3.217592 1_555
Al19 Al22 2.764447 1_555
Al19 V3 2.773140 1_556
Al19 Al9 2.819463 1_556
Al19 Al35 2.889543 1_455
Al19 Al27 2.889552 1_545
Al19 Al36 3.099329 1_555
Al19 Al37 3.099335 1_555
Al19 Pr0 3.217587 1_555
Al20 Al3 2.687569 1_555
Al20 Al23 2.719341 1_555
Al20 V1 2.773157 1_555
Al20 Al6 2.819465 1_555
Al20 Al25 2.889559 1_455
Al20 Al30 2.889581 1_554
Al20 Al36 3.099315 1_555
Al20 Al38 3.099334 1_555
Al20 Pr0 3.217571 1_555
Al21 Al22 2.719358 1_555
Al21 V2 2.773148 1_655
Al21 Al7 2.819435 1_655
Al21 Al28 2.889551 1_545
Al21 Al26 2.889594 1_555
Al21 Al37 3.099324 1_555
Al21 Al39 3.099350 1_555
Al21 Pr0 3.217605 1_555
Al22 V0 2.773168 1_556
Al22 Al6 2.819477 1_556
Al22 Al24 2.889569 1_545
Al22 Al29 2.889599 1_555
Al22 Al37 3.099312 1_555
Al22 Al39 3.099331 1_555
Al22 Pr0 3.217572 1_555
Al23 Al3 2.687546 1_555
Al23 V3 2.773145 1_565
Al23 Al7 2.819449 1_565
Al23 Al31 2.889543 1_455
Al23 Al27 2.889566 1_554
Al23 Al36 3.099328 1_555
Al23 Al38 3.099345 1_555
Al23 Pr0 3.217598 1_555
Al24 Al27 2.719071 1_555
Al24 Al28 2.765290 1_555
Al24 Al32 2.765291 1_555
Al24 V0 2.772775 1_566
Al24 Al37 3.099416 1_565
Al24 Al38 3.099429 1_556
Al24 Pr1 3.217965 1_555
Al25 Al26 2.719063 1_555
Al25 Al34 2.765287 1_555
Al25 Al31 2.765296 1_555
Al25 V1 2.772769 1_655
Al25 Al3 2.819473 1_655
Al25 Al36 3.099412 1_655
Al25 Al39 3.099428 1_555
Al25 Pr1 3.217964 1_555
Al26 Al29 2.765270 1_555
Al26 Al35 2.765270 1_555
Al26 V2 2.772761 1_655
Al26 Al36 3.099416 1_655
Al26 Al39 3.099447 1_555
Al26 Pr1 3.217980 1_555
Al27 Al33 2.765262 1_555
Al27 Al30 2.765265 1_555
Al27 V3 2.772755 1_566
Al27 Al3 2.819432 1_556
Al27 Al37 3.099427 1_565
Al27 Al38 3.099441 1_556
Al27 Pr1 3.217996 1_555
Al28 Al7 2.687041 1_665
Al28 Al31 2.719042 1_555
Al28 Al32 2.765294 1_555
Al28 V2 2.772750 1_665
Al28 Al4 2.819455 1_655
Al28 Al36 3.099430 1_655
Al28 Al37 3.099434 1_565
Al28 Pr1 3.217981 1_555
Al29 Al6 2.687097 1_556
Al29 Al30 2.719091 1_555
Al29 Al35 2.765274 1_555
Al29 V0 2.772774 1_556
Al29 Al5 2.819454 1_556
Al29 Al38 3.099419 1_556
Al29 Al39 3.099426 1_555
Al29 Pr1 3.217965 1_555
Al30 Al6 2.687089 1_556
Al30 Al33 2.765262 1_555
Al30 V1 2.772776 1_556
Al30 Al4 2.819445 1_555
Al30 Al38 3.099422 1_556
Al30 Al39 3.099431 1_555
Al30 Pr1 3.217976 1_555
Al31 Al7 2.687037 1_665
Al31 Al34 2.765289 1_555
Al31 V3 2.772757 1_665
Al31 Al5 2.819457 1_565
Al31 Al36 3.099425 1_655
Al31 Al37 3.099431 1_565
Al31 Pr1 3.217980 1_555
Al32 Al9 2.687067 1_656
Al32 Al35 2.719056 1_555
Al32 V1 2.772771 1_656
Al32 Al4 2.819474 1_655
Al32 Al36 3.099413 1_655
Al32 Al38 3.099430 1_556
Al32 Pr1 3.217962 1_555
Al33 Al8 2.687060 1_565
Al33 Al34 2.719074 1_555
Al33 V2 2.772764 1_565
Al33 Al4 2.819430 1_555
Al33 Al37 3.099420 1_565
Al33 Al39 3.099447 1_555
Al33 Pr1 3.217992 1_555
Al34 Al8 2.687085 1_565
Al34 V0 2.772779 1_565
Al34 Al5 2.819474 1_565
Al34 Al37 3.099409 1_565
Al34 Al39 3.099427 1_555
Al34 Pr1 3.217962 1_555
Al35 Al9 2.687044 1_656
Al35 V3 2.772750 1_656
Al35 Al5 2.819435 1_556
Al35 Al36 3.099424 1_655
Al35 Al38 3.099442 1_556
Al35 Pr1 3.217985 1_555
Al36 Pr1 3.128502 1_455
Al36 Pr0 3.128539 1_555
Al37 Pr1 3.128512 1_545
Al37 Pr0 3.128549 1_555
Al38 Pr1 3.128508 1_554
Al38 Pr0 3.128550 1_555
Al39 Pr1 3.128514 1_555
Al39 Pr0 3.128557 1_555
