# generated using pymatgen
data_B24Mo7
_symmetry_space_group_name_H-M   'P 1'
_cell_length_a   5.23497309
_cell_length_b   5.23497309
_cell_length_c   12.26030700
_cell_angle_alpha   90.00000000
_cell_angle_beta   90.00000000
_cell_angle_gamma   120.00001379
_symmetry_Int_Tables_number   1
_chemical_formula_structural   B24Mo7
_chemical_formula_sum   'B24 Mo7'
_cell_volume   290.97844843
_cell_formula_units_Z   1
loop_
 _symmetry_equiv_pos_site_id
 _symmetry_equiv_pos_as_xyz
  1  'x, y, z'
loop_
 _atom_site_type_symbol
 _atom_site_label
 _atom_site_symmetry_multiplicity
 _atom_site_fract_x
 _atom_site_fract_y
 _atom_site_fract_z
 _atom_site_occupancy
  B  B0  1  0.99934800  0.33395200  0.11805400  1
  B  B1  1  0.99941500  0.33513700  0.62766800  1
  B  B2  1  0.66604800  0.66539600  0.11805400  1
  B  B3  1  0.66486300  0.66427800  0.62766800  1
  B  B4  1  0.33460400  0.00065200  0.11805400  1
  B  B5  1  0.33572200  0.00058500  0.62766800  1
  B  B6  1  0.99934800  0.66539600  0.11805400  1
  B  B7  1  0.99941500  0.66427800  0.62766800  1
  B  B8  1  0.66604800  0.00065200  0.11805400  1
  B  B9  1  0.66486300  0.00058500  0.62766800  1
  B  B10  1  0.33460400  0.33395200  0.11805400  1
  B  B11  1  0.33572200  0.33513700  0.62766800  1
  B  B12  1  0.99934800  0.66539600  0.88194600  1
  B  B13  1  0.99941500  0.66427800  0.37233200  1
  B  B14  1  0.33460400  0.33395200  0.88194600  1
  B  B15  1  0.33572200  0.33513700  0.37233200  1
  B  B16  1  0.66486300  0.00058500  0.37233200  1
  B  B17  1  0.66604800  0.00065200  0.88194600  1
  B  B18  1  0.99934800  0.33395200  0.88194600  1
  B  B19  1  0.99941500  0.33513700  0.37233200  1
  B  B20  1  0.33572200  0.00058500  0.37233200  1
  B  B21  1  0.33460400  0.00065200  0.88194600  1
  B  B22  1  0.66604800  0.66539600  0.88194600  1
  B  B23  1  0.66486300  0.66427800  0.37233200  1
  Mo  Mo0  1  0.66666700  0.33333300  0.00000000  1
  Mo  Mo1  1  0.66666700  0.33333300  0.50000000  1
  Mo  Mo2  1  0.33333300  0.66666700  0.24447700  1
  Mo  Mo3  1  0.33333300  0.66666700  0.75552300  1
  Mo  Mo4  1  0.00000000  0.00000000  0.50000000  1
  Mo  Mo5  1  0.00000000  0.00000000  0.24680200  1
  Mo  Mo6  1  0.00000000  0.00000000  0.75319800  1
loop_
_geom_bond_atom_site_label_1
_geom_bond_atom_site_label_2
_geom_bond_distance
_geom_bond_site_symmetry_2
B0 B6 1.735100 1_555
B0 B8 1.744816 1_555
B0 B10 1.755056 1_655
B0 Mo0 2.263263 1_555
B0 Mo2 2.334049 1_655
B0 Mo5 2.356675 1_655
B1 B7 1.723044 1_555
B1 B9 1.751370 1_555
B1 B11 1.760558 1_655
B1 Mo6 2.334963 1_655
B1 Mo1 2.338365 1_555
B1 Mo3 2.343325 1_655
B1 Mo4 2.352323 1_655
B2 B6 1.744817 1_555
B2 B8 1.755056 1_565
B2 Mo0 2.263267 1_555
B2 Mo2 2.334051 1_555
B2 Mo5 2.356675 1_665
B3 B7 1.751371 1_555
B3 B9 1.760558 1_565
B3 Mo6 2.334962 1_665
B3 Mo1 2.338369 1_555
B3 Mo3 2.343328 1_555
B3 Mo4 2.352322 1_665
B4 B8 1.735100 1_555
B4 B6 1.755056 1_445
B4 Mo0 2.263264 1_555
B4 Mo2 2.334047 1_545
B4 Mo5 2.356675 1_555
B5 B9 1.723044 1_555
B5 B7 1.760558 1_445
B5 Mo6 2.334963 1_555
B5 Mo1 2.338367 1_555
B5 Mo3 2.343324 1_545
B5 Mo4 2.352323 1_555
B6 Mo0 2.263264 1_555
B6 Mo2 2.334047 1_655
B6 Mo5 2.356675 1_665
B7 Mo6 2.334963 1_665
B7 Mo1 2.338367 1_555
B7 Mo3 2.343324 1_655
B7 Mo4 2.352323 1_665
B8 Mo0 2.263263 1_555
B8 Mo2 2.334049 1_545
B8 Mo5 2.356675 1_655
B9 Mo6 2.334963 1_655
B9 Mo1 2.338365 1_555
B9 Mo3 2.343325 1_545
B9 Mo4 2.352323 1_655
B10 B2 1.735100 1_555
B10 B4 1.744817 1_555
B10 Mo0 2.263267 1_555
B10 Mo2 2.334051 1_555
B10 Mo5 2.356675 1_555
B11 B3 1.723044 1_555
B11 B5 1.751371 1_555
B11 Mo6 2.334962 1_555
B11 Mo1 2.338369 1_555
B11 Mo3 2.343328 1_555
B11 Mo4 2.352322 1_555
B12 B18 1.735100 1_555
B12 B22 1.744817 1_555
B12 B21 1.755056 1_665
B12 Mo0 2.263264 1_556
B12 Mo3 2.334047 1_655
B12 Mo6 2.356675 1_665
B13 B19 1.723044 1_555
B13 B23 1.751371 1_555
B13 B20 1.760558 1_665
B13 Mo5 2.334963 1_665
B13 Mo1 2.338367 1_555
B13 Mo2 2.343324 1_655
B13 Mo4 2.352323 1_665
B14 B22 1.735100 1_555
B14 B21 1.744817 1_555
B14 B18 1.755056 1_455
B14 Mo0 2.263267 1_556
B14 Mo3 2.334051 1_555
B14 Mo6 2.356675 1_555
B15 B23 1.723044 1_555
B15 B20 1.751371 1_555
B15 B19 1.760558 1_455
B15 Mo5 2.334962 1_555
B15 Mo1 2.338369 1_555
B15 Mo2 2.343328 1_555
B15 Mo4 2.352322 1_555
B16 B20 1.723044 1_555
B16 B19 1.751370 1_555
B16 B23 1.760558 1_545
B16 Mo5 2.334963 1_655
B16 Mo1 2.338365 1_555
B16 Mo2 2.343325 1_545
B16 Mo4 2.352323 1_655
B17 B21 1.735100 1_555
B17 B18 1.744816 1_555
B17 B22 1.755056 1_545
B17 Mo0 2.263263 1_556
B17 Mo3 2.334049 1_545
B17 Mo6 2.356675 1_655
B18 Mo0 2.263263 1_556
B18 Mo3 2.334049 1_655
B18 Mo6 2.356675 1_655
B19 Mo5 2.334963 1_655
B19 Mo1 2.338365 1_555
B19 Mo2 2.343325 1_655
B19 Mo4 2.352323 1_655
B20 Mo5 2.334963 1_555
B20 Mo1 2.338367 1_555
B20 Mo2 2.343324 1_545
B20 Mo4 2.352323 1_555
B21 Mo0 2.263264 1_556
B21 Mo3 2.334047 1_545
B21 Mo6 2.356675 1_555
B22 Mo0 2.263267 1_556
B22 Mo3 2.334051 1_555
B22 Mo6 2.356675 1_665
B23 Mo5 2.334962 1_665
B23 Mo1 2.338369 1_555
B23 Mo2 2.343328 1_555
B23 Mo4 2.352322 1_665
