# generated using pymatgen
data_Lu3Ga5
_symmetry_space_group_name_H-M   'P 1'
_cell_length_a   5.96315500
_cell_length_b   9.43416130
_cell_length_c   11.14723196
_cell_angle_alpha   89.99950459
_cell_angle_beta   89.99921442
_cell_angle_gamma   90.00027289
_symmetry_Int_Tables_number   1
_chemical_formula_structural   Lu3Ga5
_chemical_formula_sum   'Lu12 Ga20'
_cell_volume   627.11390963
_cell_formula_units_Z   4
loop_
 _symmetry_equiv_pos_site_id
 _symmetry_equiv_pos_as_xyz
  1  'x, y, z'
loop_
 _atom_site_type_symbol
 _atom_site_label
 _atom_site_symmetry_multiplicity
 _atom_site_fract_x
 _atom_site_fract_y
 _atom_site_fract_z
 _atom_site_occupancy
  Lu  Lu0  1  0.65113631  0.74998373  0.42547436  1
  Lu  Lu1  1  0.84885499  0.74998666  0.92542642  1
  Lu  Lu2  1  0.34888256  0.25001262  0.57461021  1
  Lu  Lu3  1  0.15114575  0.25001656  0.07448628  1
  Lu  Lu4  1  0.60968519  0.98928513  0.14797842  1
  Lu  Lu5  1  0.89030752  0.51071615  0.64807665  1
  Lu  Lu6  1  0.39031807  0.48929576  0.85197370  1
  Lu  Lu7  1  0.10968855  0.01069021  0.35197418  1
  Lu  Lu8  1  0.39032181  0.01070603  0.85197491  1
  Lu  Lu9  1  0.10969065  0.48930880  0.35197133  1
  Lu  Lu10  1  0.60968268  0.51071413  0.14797952  1
  Lu  Lu11  1  0.89030721  0.98928269  0.64807566  1
  Ga  Ga0  1  0.62645546  0.44732577  0.40892794  1
  Ga  Ga1  1  0.87354004  0.05266354  0.90881638  1
  Ga  Ga2  1  0.37355552  0.94732526  0.59127802  1
  Ga  Ga3  1  0.12646027  0.55267871  0.09098218  1
  Ga  Ga4  1  0.37355100  0.55266916  0.59127616  1
  Ga  Ga5  1  0.12646409  0.94731479  0.09097956  1
  Ga  Ga6  1  0.62645276  0.05268048  0.40892786  1
  Ga  Ga7  1  0.87353649  0.44734241  0.90881478  1
  Ga  Ga8  1  0.32445672  0.74998844  0.24904113  1
  Ga  Ga9  1  0.17555570  0.74998675  0.74920832  1
  Ga  Ga10  1  0.67555003  0.25001376  0.75096474  1
  Ga  Ga11  1  0.82443289  0.25001345  0.25078966  1
  Ga  Ga12  1  0.12527103  0.74998462  0.49376014  1
  Ga  Ga13  1  0.37471324  0.74998628  0.99350058  1
  Ga  Ga14  1  0.87469375  0.25001231  0.50650138  1
  Ga  Ga15  1  0.62525483  0.25001513  0.00623731  1
  Ga  Ga16  1  0.89574677  0.74999299  0.20053565  1
  Ga  Ga17  1  0.60424705  0.74998710  0.70078500  1
  Ga  Ga18  1  0.10426986  0.25001159  0.79938581  1
  Ga  Ga19  1  0.39577019  0.25001199  0.29928476  1
loop_
_geom_bond_atom_site_label_1
_geom_bond_atom_site_label_2
_geom_bond_distance
_geom_bond_site_symmetry_2
Ga0 Ga14 2.615233 1_555
Ga0 Ga19 2.617505 1_555
Ga0 Ga4 2.719159 1_555
Ga0 Ga11 2.822470 1_555
Ga0 Lu0 2.865059 1_555
Ga0 Lu10 2.971368 1_555
Ga0 Lu9 2.977175 1_655
Ga0 Lu2 3.100920 1_555
Ga0 Lu5 3.152788 1_555
Ga0 Lu9 3.171118 1_555
Ga1 Ga15 2.614937 1_556
Ga1 Ga18 2.616736 1_655
Ga1 Ga5 2.717719 1_646
Ga1 Ga10 2.820743 1_555
Ga1 Lu1 2.865280 1_545
Ga1 Lu11 2.969094 1_545
Ga1 Lu8 2.976790 1_555
Ga1 Lu3 3.101215 1_656
Ga1 Lu4 3.152856 1_546
Ga1 Lu8 3.170914 1_655
Ga2 Ga6 2.719174 1_565
Ga2 Ga9 2.821214 1_555
Ga2 Lu2 2.865419 1_565
Ga2 Lu8 2.968618 1_565
Ga2 Lu11 2.976847 1_455
Ga2 Lu0 3.101941 1_555
Ga2 Lu7 3.154244 1_565
Ga2 Lu11 3.170655 1_555
Ga3 Ga7 2.717718 1_454
Ga3 Ga8 2.821962 1_555
Ga3 Lu3 2.865065 1_555
Ga3 Lu9 2.971774 1_555
Ga3 Lu10 2.977196 1_555
Ga3 Lu1 3.100191 1_454
Ga3 Lu6 3.151437 1_554
Ga3 Lu10 3.171240 1_455
Ga4 Ga9 2.821113 1_555
Ga4 Lu2 2.865128 1_555
Ga4 Lu6 2.968601 1_555
Ga4 Lu5 2.976815 1_455
Ga4 Lu0 3.101761 1_555
Ga4 Lu9 3.154231 1_555
Ga4 Lu5 3.170686 1_555
Ga5 Ga8 2.822062 1_555
Ga5 Lu3 2.865430 1_565
Ga5 Lu7 2.971856 1_565
Ga5 Lu4 2.977197 1_555
Ga5 Lu1 3.100309 1_454
Ga5 Lu8 3.151404 1_564
Ga5 Lu4 3.171263 1_455
Ga6 Lu0 2.865423 1_545
Ga6 Lu4 2.971401 1_545
Ga6 Lu7 2.977186 1_655
Ga6 Lu2 3.101048 1_555
Ga6 Lu11 3.152794 1_545
Ga6 Lu7 3.171114 1_555
Ga7 Lu1 2.864978 1_555
Ga7 Lu5 2.969042 1_555
Ga7 Lu6 2.976788 1_555
Ga7 Lu3 3.101073 1_656
Ga7 Lu10 3.152878 1_556
Ga7 Lu6 3.170902 1_655
Ga8 Lu0 2.768220 1_555
Ga8 Lu9 3.000775 1_555
Ga8 Lu7 3.000990 1_565
Ga8 Lu10 3.042643 1_555
Ga8 Lu4 3.042786 1_555
Ga9 Lu1 2.766568 1_455
Ga9 Lu6 3.000175 1_555
Ga9 Lu8 3.000415 1_565
Ga9 Lu5 3.042986 1_455
Ga9 Lu11 3.043166 1_455
Ga10 Ga18 2.612889 1_655
Ga10 Lu2 2.767546 1_555
Ga10 Ga7 2.820602 1_555
Ga10 Ga15 2.861340 1_556
Ga10 Ga14 2.972582 1_555
Ga10 Lu5 3.000750 1_555
Ga10 Lu11 3.001002 1_545
Ga10 Lu6 3.042500 1_555
Ga10 Lu8 3.042646 1_555
Ga11 Ga19 2.612712 1_555
Ga11 Lu3 2.767294 1_655
Ga11 Ga6 2.822577 1_555
Ga11 Ga14 2.866195 1_555
Ga11 Ga15 2.973603 1_555
Ga11 Lu10 3.000410 1_555
Ga11 Lu4 3.000628 1_545
Ga11 Lu9 3.043398 1_655
Ga11 Lu7 3.043595 1_655
Ga12 Ga4 2.615121 1_555
Ga12 Ga2 2.615317 1_555
Ga12 Ga9 2.863289 1_555
Ga12 Lu9 2.924858 1_555
Ga12 Lu7 2.925056 1_565
Ga12 Lu0 2.928024 1_455
Ga12 Ga8 2.975294 1_555
Ga12 Lu5 3.165039 1_455
Ga12 Lu11 3.165264 1_455
Ga12 Lu0 3.226871 1_555
Ga13 Ga3 2.614790 1_556
Ga13 Ga5 2.614929 1_556
Ga13 Ga8 2.864287 1_556
Ga13 Lu6 2.923402 1_555
Ga13 Lu8 2.923604 1_565
Ga13 Lu1 2.927432 1_555
Ga13 Ga9 2.970896 1_555
Ga13 Lu10 3.166094 1_556
Ga13 Lu4 3.166285 1_556
Ga13 Lu1 3.226295 1_455
Ga14 Ga6 2.615369 1_555
Ga14 Lu5 2.923801 1_555
Ga14 Lu11 2.923978 1_545
Ga14 Lu2 2.927823 1_655
Ga14 Lu9 3.166610 1_655
Ga14 Lu7 3.166790 1_655
Ga14 Lu2 3.226093 1_555
Ga15 Ga7 2.614746 1_554
Ga15 Lu10 2.924759 1_555
Ga15 Lu4 2.924975 1_545
Ga15 Lu3 2.927750 1_555
Ga15 Lu6 3.164760 1_554
Ga15 Lu8 3.164946 1_554
Ga15 Lu3 3.226944 1_655
Ga16 Ga8 2.613026 1_655
Ga16 Ga3 2.617122 1_655
Ga16 Ga5 2.617173 1_655
Ga16 Lu10 2.889460 1_555
Ga16 Lu4 2.889556 1_555
Ga16 Lu0 2.900834 1_555
Ga16 Lu1 3.079432 1_554
Ga16 Lu9 3.244320 1_655
Ga16 Lu7 3.244438 1_665
Ga17 Ga9 2.612713 1_555
Ga17 Ga4 2.616868 1_555
Ga17 Ga2 2.616974 1_555
Ga17 Lu5 2.889737 1_555
Ga17 Lu11 2.889899 1_555
Ga17 Lu1 2.897996 1_555
Ga17 Lu0 3.081659 1_555
Ga17 Lu6 3.242877 1_555
Ga17 Lu8 3.243104 1_565
Ga18 Ga7 2.616648 1_455
Ga18 Lu6 2.889515 1_555
Ga18 Lu8 2.889693 1_555
Ga18 Lu2 2.899269 1_555
Ga18 Lu3 3.079326 1_556
Ga18 Lu5 3.243776 1_455
Ga18 Lu11 3.243969 1_445
Ga19 Ga6 2.617609 1_555
Ga19 Lu9 2.889945 1_555
Ga19 Lu7 2.890122 1_555
Ga19 Lu3 2.899559 1_555
Ga19 Lu2 3.081822 1_555
Ga19 Lu10 3.243591 1_555
Ga19 Lu4 3.243812 1_545
