# generated using pymatgen
data_YMg6Nb
_symmetry_space_group_name_H-M   'P 1'
_cell_length_a   5.09799900
_cell_length_b   6.44552400
_cell_length_c   11.25292600
_cell_angle_alpha   90.00000000
_cell_angle_beta   90.00000000
_cell_angle_gamma   90.00000000
_symmetry_Int_Tables_number   1
_chemical_formula_structural   YMg6Nb
_chemical_formula_sum   'Y2 Mg12 Nb2'
_cell_volume   369.76298894
_cell_formula_units_Z   2
loop_
 _symmetry_equiv_pos_site_id
 _symmetry_equiv_pos_as_xyz
  1  'x, y, z'
loop_
 _atom_site_type_symbol
 _atom_site_label
 _atom_site_symmetry_multiplicity
 _atom_site_fract_x
 _atom_site_fract_y
 _atom_site_fract_z
 _atom_site_occupancy
  Y  Y0  1  0.00000000  0.50000000  0.32508200  1
  Y  Y1  1  0.00000000  0.00000000  0.82508200  1
  Mg  Mg0  1  0.00000000  0.26159100  0.08340200  1
  Mg  Mg1  1  0.00000000  0.73840900  0.08340200  1
  Mg  Mg2  1  0.00000000  0.00000000  0.33618900  1
  Mg  Mg3  1  0.50000000  0.75364600  0.41932100  1
  Mg  Mg4  1  0.50000000  0.24635400  0.41932100  1
  Mg  Mg5  1  0.50000000  0.00000000  0.16510500  1
  Mg  Mg6  1  0.00000000  0.76159100  0.58340200  1
  Mg  Mg7  1  0.00000000  0.23840900  0.58340200  1
  Mg  Mg8  1  0.00000000  0.50000000  0.83618900  1
  Mg  Mg9  1  0.50000000  0.25364600  0.91932100  1
  Mg  Mg10  1  0.50000000  0.74635400  0.91932100  1
  Mg  Mg11  1  0.50000000  0.50000000  0.66510500  1
  Nb  Nb0  1  0.50000000  0.50000000  0.16817700  1
  Nb  Nb1  1  0.50000000  0.00000000  0.66817700  1
loop_
_geom_bond_atom_site_label_1
_geom_bond_atom_site_label_2
_geom_bond_distance
_geom_bond_site_symmetry_2
Mg0 Mg1 3.073342 1_555
Mg0 Y0 3.123719 1_555
Mg0 Nb0 3.125509 1_455
Mg0 Nb0 3.125509 1_555
Mg0 Mg9 3.147885 1_554
Mg0 Mg9 3.147885 1_454
Mg0 Mg8 3.178074 1_554
Mg0 Mg5 3.191488 1_555
Mg0 Mg5 3.191488 1_455
Mg0 Mg2 3.306753 1_555
Mg0 Y1 3.360463 1_554
Mg0 Mg1 3.372182 1_545
Mg1 Y0 3.123719 1_555
Mg1 Nb0 3.125509 1_455
Mg1 Nb0 3.125509 1_555
Mg1 Mg10 3.147885 1_454
Mg1 Mg10 3.147885 1_554
Mg1 Mg8 3.178074 1_554
Mg1 Mg5 3.191488 1_465
Mg1 Mg5 3.191488 1_565
Mg1 Mg2 3.306753 1_565
Mg1 Y1 3.360463 1_564
Mg2 Mg4 3.145454 1_455
Mg2 Mg4 3.145454 1_555
Mg2 Mg3 3.145454 1_545
Mg2 Mg3 3.145454 1_445
Mg2 Mg7 3.178074 1_555
Mg2 Mg6 3.178074 1_545
Mg2 Mg5 3.194335 1_455
Mg2 Mg5 3.194335 1_555
Mg2 Y0 3.225185 1_545
Mg2 Y0 3.225185 1_555
Mg3 Mg6 3.147885 1_655
Mg3 Mg6 3.147885 1_555
Mg3 Mg4 3.175761 1_565
Mg3 Y0 3.208554 1_555
Mg3 Y0 3.208554 1_655
Mg3 Nb1 3.219219 1_565
Mg3 Nb0 3.264920 1_555
Mg3 Mg4 3.269763 1_555
Mg3 Mg5 3.271822 1_565
Mg4 Mg7 3.147885 1_555
Mg4 Mg7 3.147885 1_655
Mg4 Y0 3.208554 1_555
Mg4 Y0 3.208554 1_655
Mg4 Nb1 3.219219 1_555
Mg4 Nb0 3.264920 1_555
Mg4 Mg5 3.271822 1_555
Mg5 Mg9 3.212853 1_554
Mg5 Nb0 3.222947 1_545
Mg5 Nb0 3.222947 1_555
Mg6 Mg7 3.073342 1_565
Mg6 Y1 3.123719 1_565
Mg6 Nb1 3.125509 1_565
Mg6 Nb1 3.125509 1_465
Mg6 Mg8 3.306753 1_555
Mg6 Y0 3.360463 1_555
Mg6 Mg7 3.372182 1_555
Mg7 Y1 3.123719 1_555
Mg7 Nb1 3.125509 1_455
Mg7 Nb1 3.125509 1_555
Mg7 Mg8 3.306753 1_555
Mg7 Y0 3.360463 1_555
Mg8 Mg9 3.145454 1_455
Mg8 Mg9 3.145454 1_555
Mg8 Y1 3.225185 1_565
Mg8 Y1 3.225185 1_555
Mg9 Y1 3.208554 1_555
Mg9 Y1 3.208554 1_655
Mg9 Nb0 3.219219 1_556
Mg9 Nb1 3.264920 1_555
Mg10 Mg8 3.145454 1_555
Mg10 Mg8 3.145454 1_655
Mg10 Mg9 3.175761 1_555
Mg10 Y1 3.208554 1_565
Mg10 Y1 3.208554 1_665
Mg10 Mg5 3.212853 1_566
Mg10 Nb0 3.219219 1_556
Mg10 Nb1 3.264920 1_565
Mg10 Mg9 3.269763 1_565
Mg10 Mg11 3.271822 1_555
Mg11 Mg6 3.191488 1_555
Mg11 Mg6 3.191488 1_655
Mg11 Mg7 3.191488 1_555
Mg11 Mg7 3.191488 1_655
Mg11 Mg8 3.194335 1_555
Mg11 Mg8 3.194335 1_655
Mg11 Mg3 3.212853 1_555
Mg11 Mg4 3.212853 1_555
Mg11 Nb1 3.222947 1_555
Mg11 Nb1 3.222947 1_565
Mg11 Mg9 3.271822 1_555
Nb0 Y0 3.100788 1_655
Nb0 Y0 3.100788 1_555
Nb1 Y1 3.100788 1_555
Nb1 Y1 3.100788 1_655
