# generated using pymatgen
data_Li9Mn2Co5O16
_symmetry_space_group_name_H-M   'P 1'
_cell_length_a   2.97837838
_cell_length_b   2.97837838
_cell_length_c   39.44859342
_cell_angle_alpha   89.26222815
_cell_angle_beta   89.26222815
_cell_angle_gamma   57.85877483
_symmetry_Int_Tables_number   1
_chemical_formula_structural   Li9Mn2Co5O16
_chemical_formula_sum   'Li9 Mn2 Co5 O16'
_cell_volume   296.27431558
_cell_formula_units_Z   1
loop_
 _symmetry_equiv_pos_site_id
 _symmetry_equiv_pos_as_xyz
  1  'x, y, z'
loop_
 _atom_site_type_symbol
 _atom_site_label
 _atom_site_symmetry_multiplicity
 _atom_site_fract_x
 _atom_site_fract_y
 _atom_site_fract_z
 _atom_site_occupancy
  Li  Li0  1  0.69791700  0.69791700  0.93366400  1
  Li  Li1  1  0.05577200  0.05577200  0.81328700  1
  Li  Li2  1  0.43621600  0.43621600  0.68785700  1
  Li  Li3  1  0.81192200  0.81192200  0.56304800  1
  Li  Li4  1  0.18825900  0.18825900  0.43764800  1
  Li  Li5  1  0.55877100  0.55877100  0.31396200  1
  Li  Li6  1  0.93983900  0.93983900  0.18587700  1
  Li  Li7  1  0.31017900  0.31017900  0.06467900  1
  Li  Li8  1  0.37313000  0.37313000  0.87498500  1
  Mn  Mn0  1  0.00185700  0.00185700  0.00052100  1
  Mn  Mn1  1  0.24941700  0.24941700  0.24989700  1
  Co  Co0  1  0.74878900  0.74878900  0.74930500  1
  Co  Co1  1  0.12400700  0.12400700  0.62490100  1
  Co  Co2  1  0.50068100  0.50068100  0.50045500  1
  Co  Co3  1  0.87492300  0.87492300  0.37539400  1
  Co  Co4  1  0.62477100  0.62477100  0.12503000  1
  O  O0  1  0.35972600  0.35972600  0.97331100  1
  O  O1  1  0.71823800  0.71823800  0.84315100  1
  O  O2  1  0.09209700  0.09209700  0.72011000  1
  O  O3  1  0.48880600  0.48880600  0.59733800  1
  O  O4  1  0.84534200  0.84534200  0.47246700  1
  O  O5  1  0.21554200  0.21554200  0.34635600  1
  O  O6  1  0.61750700  0.61750700  0.22097900  1
  O  O7  1  0.96523500  0.96523500  0.09623700  1
  O  O8  1  0.03238100  0.03238100  0.90673100  1
  O  O9  1  0.40919000  0.40919000  0.77645600  1
  O  O10  1  0.76176900  0.76176900  0.65193600  1
  O  O11  1  0.15668300  0.15668300  0.52879300  1
  O  O12  1  0.53483100  0.53483100  0.40414600  1
  O  O13  1  0.88054100  0.88054100  0.27888500  1
  O  O14  1  0.28565000  0.28565000  0.15354800  1
  O  O15  1  0.64001400  0.64001400  0.02904900  1
loop_
_geom_bond_atom_site_label_1
_geom_bond_atom_site_label_2
_geom_bond_distance
_geom_bond_site_symmetry_2
Li0 O8 1.994074 1_655
Li0 O8 1.994074 1_565
Li0 O8 2.028512 1_665
Li0 O0 2.296154 1_655
Li0 O0 2.296154 1_565
Li0 O0 2.339591 1_555
Li1 O1 2.051927 1_545
Li1 O1 2.051927 1_455
Li1 O1 2.103214 1_445
Li1 O9 2.191665 1_545
Li1 O9 2.191665 1_455
Li1 O9 2.329624 1_555
Li2 O2 2.094141 1_565
Li2 O2 2.094141 1_655
Li2 O2 2.184097 1_555
Li2 O10 2.194969 1_555
Li2 O10 2.224580 1_545
Li2 O10 2.224580 1_455
Li3 O11 2.142185 1_565
Li3 O11 2.142185 1_655
Li3 O3 2.144863 1_555
Li3 O3 2.189202 1_655
Li3 O3 2.189202 1_565
Li3 O11 2.232757 1_665
Li4 O12 2.119738 1_455
Li4 O12 2.119738 1_545
Li4 O4 2.160128 1_455
Li4 O4 2.160128 1_545
Li4 O12 2.222845 1_555
Li4 O4 2.238432 1_445
Li5 O5 2.099400 1_565
Li5 O5 2.099400 1_655
Li5 O13 2.158830 1_555
Li5 O5 2.183511 1_555
Li5 O13 2.211715 1_455
Li5 O13 2.211715 1_545
Li6 O14 2.092497 1_655
Li6 O14 2.092497 1_565
Li6 O6 2.161700 1_555
Li6 O14 2.192980 1_665
Li6 O6 2.211082 1_655
Li6 O6 2.211082 1_565
Li7 O7 2.075723 1_545
Li7 O7 2.075723 1_455
Li7 O7 2.172097 1_445
Li7 O15 2.204862 1_555
Li7 O15 2.207944 1_545
Li7 O15 2.207944 1_455
Li8 O1 2.081994 1_545
Li8 O1 2.081994 1_455
Li8 O8 2.089010 1_565
Li8 O8 2.089010 1_655
Li8 O8 2.158416 1_555
Li8 O1 2.178922 1_555
Mn0 O0 1.949454 1_454
Mn0 O0 1.949454 1_544
Mn0 O15 1.971006 1_455
Mn0 O15 1.971006 1_545
Mn0 O0 2.138741 1_554
Mn0 O15 2.182369 1_445
Mn1 O6 1.968021 1_455
Mn1 O6 1.968021 1_545
Mn1 O13 1.968175 1_545
Mn1 O13 1.968175 1_455
Mn1 O6 2.218014 1_555
Mn1 O13 2.222914 1_445
Co0 O9 1.987099 1_565
Co0 O9 1.987099 1_655
Co0 O2 2.024143 1_565
Co0 O2 2.024143 1_655
Co0 O9 2.055724 1_555
Co0 O2 2.114053 1_665
Co1 O10 1.936878 1_545
Co1 O10 1.936878 1_455
Co1 O3 1.943546 1_455
Co1 O3 1.943546 1_545
Co1 O10 2.155137 1_445
Co1 O3 2.176810 1_555
Co2 O4 1.994216 1_545
Co2 O4 1.994216 1_455
Co2 O11 2.003404 1_655
Co2 O11 2.003404 1_565
Co2 O4 2.095087 1_555
Co2 O11 2.099295 1_555
Co3 O12 2.021143 1_655
Co3 O12 2.021143 1_565
Co3 O5 2.026413 1_655
Co3 O5 2.026413 1_565
Co3 O12 2.090697 1_555
Co3 O5 2.099001 1_665
Co4 O14 2.018061 1_655
Co4 O14 2.018061 1_565
Co4 O7 2.021246 1_545
Co4 O7 2.021246 1_455
Co4 O14 2.081558 1_555
Co4 O7 2.093183 1_555
