# generated using pymatgen
data_SrZn2
_symmetry_space_group_name_H-M   'P 1'
_cell_length_a   5.89136292
_cell_length_b   5.89136198
_cell_length_c   8.90298103
_cell_angle_alpha   90.00000000
_cell_angle_beta   90.00000000
_cell_angle_gamma   119.99999352
_symmetry_Int_Tables_number   1
_chemical_formula_structural   SrZn2
_chemical_formula_sum   'Sr4 Zn8'
_cell_volume   267.60707595
_cell_formula_units_Z   4
loop_
 _symmetry_equiv_pos_site_id
 _symmetry_equiv_pos_as_xyz
  1  'x, y, z'
loop_
 _atom_site_type_symbol
 _atom_site_label
 _atom_site_symmetry_multiplicity
 _atom_site_fract_x
 _atom_site_fract_y
 _atom_site_fract_z
 _atom_site_occupancy
  Sr  Sr0  1  0.33333300  0.66666700  0.44874304  1
  Sr  Sr1  1  0.66666700  0.33333300  0.94874304  1
  Sr  Sr2  1  0.66666700  0.33333300  0.55125696  1
  Sr  Sr3  1  0.33333300  0.66666700  0.05125696  1
  Zn  Zn0  1  0.15270805  0.30541809  0.75000000  1
  Zn  Zn1  1  0.84729195  0.15270805  0.25000000  1
  Zn  Zn2  1  0.30541809  0.15270805  0.25000000  1
  Zn  Zn3  1  0.69458191  0.84729195  0.75000000  1
  Zn  Zn4  1  0.00000000  0.00000000  -0.00000000  1
  Zn  Zn5  1  0.00000000  0.00000000  0.50000000  1
  Zn  Zn6  1  0.84729195  0.69458191  0.25000000  1
  Zn  Zn7  1  0.15270805  0.84729195  0.75000000  1
loop_
_geom_bond_atom_site_label_1
_geom_bond_atom_site_label_2
_geom_bond_distance
_geom_bond_site_symmetry_2
Sr0 Zn0 3.254329 1_555
Sr0 Zn3 3.254330 1_555
Sr0 Zn7 3.254332 1_555
Sr0 Zn5 3.431852 1_565
Sr0 Zn5 3.431857 1_555
Sr0 Zn5 3.431857 1_665
Sr0 Zn2 3.439195 1_565
Sr0 Zn6 3.439196 1_455
Sr0 Zn1 3.439204 1_455
Sr0 Zn1 3.439204 1_565
Sr0 Zn2 3.439210 1_555
Sr0 Zn6 3.439211 1_555
Sr1 Zn6 3.254329 1_556
Sr1 Zn2 3.254330 1_556
Sr1 Zn1 3.254332 1_556
Sr1 Zn4 3.431852 1_656
Sr1 Zn4 3.431857 1_666
Sr1 Zn4 3.431857 1_556
Sr1 Zn3 3.439195 1_545
Sr1 Zn0 3.439196 1_655
Sr1 Zn7 3.439204 1_655
Sr1 Zn7 3.439204 1_545
Sr1 Zn3 3.439210 1_555
Sr1 Zn0 3.439211 1_555
Sr2 Zn6 3.254329 1_555
Sr2 Zn2 3.254330 1_555
Sr2 Zn1 3.254332 1_555
Sr2 Zn5 3.431852 1_655
Sr2 Zn5 3.431857 1_665
Sr2 Zn5 3.431857 1_555
Sr2 Zn3 3.439195 1_545
Sr2 Zn0 3.439196 1_655
Sr2 Zn7 3.439204 1_655
Sr2 Zn7 3.439204 1_545
Sr2 Zn3 3.439210 1_555
Sr2 Zn0 3.439211 1_555
Sr3 Zn0 3.254329 1_554
Sr3 Zn3 3.254330 1_554
Sr3 Zn7 3.254332 1_554
Sr3 Zn4 3.431852 1_565
Sr3 Zn4 3.431857 1_555
Sr3 Zn4 3.431857 1_665
Sr3 Zn2 3.439195 1_565
Sr3 Zn6 3.439196 1_455
Sr3 Zn1 3.439204 1_455
Sr3 Zn1 3.439204 1_565
Sr3 Zn2 3.439210 1_555
Sr3 Zn6 3.439211 1_555
Zn0 Zn7 2.698987 1_545
Zn0 Zn3 2.698987 1_445
Zn0 Zn4 2.717007 1_556
Zn0 Zn5 2.717007 1_555
Zn1 Zn6 2.698987 1_545
Zn1 Zn2 2.698987 1_655
Zn1 Zn4 2.717002 1_655
Zn1 Zn5 2.717002 1_655
Zn2 Zn6 2.698987 1_445
Zn2 Zn4 2.717008 1_555
Zn2 Zn5 2.717008 1_555
Zn3 Zn7 2.698987 1_655
Zn3 Zn5 2.717008 1_665
Zn3 Zn4 2.717008 1_666
Zn4 Zn7 2.717002 1_544
Zn4 Zn6 2.717007 1_445
Zn5 Zn7 2.717002 1_545
Zn5 Zn6 2.717007 1_445
