# generated using pymatgen
data_Ta4Fe5Te12
_symmetry_space_group_name_H-M   'P 1'
_cell_length_a   3.65426600
_cell_length_b   7.59692000
_cell_length_c   19.09177215
_cell_angle_alpha   88.20148042
_cell_angle_beta   90.00000000
_cell_angle_gamma   90.00000000
_symmetry_Int_Tables_number   1
_chemical_formula_structural   Ta4Fe5Te12
_chemical_formula_sum   'Ta4 Fe5 Te12'
_cell_volume   529.74876675
_cell_formula_units_Z   1
loop_
 _symmetry_equiv_pos_site_id
 _symmetry_equiv_pos_as_xyz
  1  'x, y, z'
loop_
 _atom_site_type_symbol
 _atom_site_label
 _atom_site_symmetry_multiplicity
 _atom_site_fract_x
 _atom_site_fract_y
 _atom_site_fract_z
 _atom_site_occupancy
  Ta  Ta0  1  0.50000000  0.18027400  0.64733600  1
  Ta  Ta1  1  0.50000000  0.68041800  0.14784400  1
  Ta  Ta2  1  0.00000000  0.31607200  0.85203800  1
  Ta  Ta3  1  0.00000000  0.81874100  0.35204500  1
  Fe  Fe0  1  0.00000000  0.06796800  0.54408400  1
  Fe  Fe1  1  0.00000000  0.56874900  0.04183700  1
  Fe  Fe2  1  0.50000000  0.43135400  0.95863200  1
  Fe  Fe3  1  0.50000000  0.93193600  0.45574700  1
  Fe  Fe4  1  0.50000000  0.75602900  0.00024800  1
  Te  Te0  1  0.00000000  0.39627700  0.57820200  1
  Te  Te1  1  0.00000000  0.91698200  0.08391000  1
  Te  Te2  1  0.50000000  0.10183800  0.92249300  1
  Te  Te3  1  0.50000000  0.60404300  0.42163500  1
  Te  Te4  1  0.50000000  0.84877100  0.58907700  1
  Te  Te5  1  0.50000000  0.34685300  0.09208300  1
  Te  Te6  1  0.00000000  0.65556000  0.90066400  1
  Te  Te7  1  0.00000000  0.15048900  0.41065900  1
  Te  Te8  1  0.50000000  0.46071800  0.74856000  1
  Te  Te9  1  0.50000000  0.96374900  0.24954100  1
  Te  Te10  1  0.00000000  0.03799700  0.75047000  1
  Te  Te11  1  0.00000000  0.53613300  0.25054400  1
loop_
_geom_bond_atom_site_label_1
_geom_bond_atom_site_label_2
_geom_bond_distance
_geom_bond_site_symmetry_2
Ta0 Te0 2.763569 1_555
Ta0 Te0 2.763569 1_655
Ta0 Te4 2.784836 1_545
Ta0 Te10 2.872299 1_555
Ta0 Te10 2.872299 1_655
Ta0 Te8 2.921002 1_555
Ta1 Te5 2.779236 1_555
Ta1 Te1 2.814319 1_555
Ta1 Te1 2.814319 1_655
Ta1 Te11 2.872183 1_655
Ta1 Te11 2.872183 1_555
Ta1 Te9 2.943646 1_555
Ta2 Te2 2.767515 1_555
Ta2 Te2 2.767515 1_455
Ta2 Te6 2.768339 1_555
Ta2 Te8 2.883151 1_555
Ta2 Te8 2.883151 1_455
Ta2 Te10 2.912045 1_555
Ta3 Te3 2.761859 1_455
Ta3 Te3 2.761859 1_555
Ta3 Te7 2.789447 1_565
Ta3 Te9 2.871660 1_555
Ta3 Te9 2.871660 1_455
Ta3 Te11 2.936962 1_555
Fe0 Te0 2.597496 1_555
Fe0 Te4 2.599897 1_445
Fe0 Te4 2.599897 1_545
Fe0 Te7 2.604152 1_555
Fe0 Fe3 2.712950 1_545
Fe0 Fe3 2.712950 1_445
Fe0 Ta0 2.838623 1_455
Fe0 Ta0 2.838623 1_555
Fe1 Fe4 2.433552 1_555
Fe1 Fe4 2.433552 1_455
Fe1 Te5 2.645527 1_555
Fe1 Te5 2.645527 1_455
Fe1 Fe2 2.656200 1_454
Fe1 Fe2 2.656200 1_554
Fe1 Te6 2.754577 1_554
Fe1 Te1 2.788773 1_555
Fe1 Ta1 2.874349 1_555
Fe1 Ta1 2.874349 1_455
Fe2 Te5 2.607834 1_556
Fe2 Fe4 2.614966 1_556
Fe2 Te2 2.617442 1_555
Fe2 Te6 2.710359 1_655
Fe2 Te6 2.710359 1_555
Fe2 Ta2 2.891158 1_655
Fe2 Ta2 2.891158 1_555
Fe3 Te3 2.594404 1_555
Fe3 Te7 2.597382 1_665
Fe3 Te7 2.597382 1_565
Fe3 Te4 2.603425 1_555
Fe3 Ta3 2.846857 1_555
Fe3 Ta3 2.846857 1_655
Fe4 Te1 2.739953 1_655
Fe4 Te1 2.739953 1_555
Fe4 Te6 2.761658 1_554
Fe4 Te6 2.761658 1_654
Fe4 Ta1 2.858100 1_555
Fe4 Te2 2.976652 1_564
