# generated using pymatgen
data_Ba(SO2)4
_symmetry_space_group_name_H-M   'P 1'
_cell_length_a   9.39104200
_cell_length_b   5.56516800
_cell_length_c   19.89393935
_cell_angle_alpha   84.30663988
_cell_angle_beta   90.00000000
_cell_angle_gamma   90.00000000
_symmetry_Int_Tables_number   1
_chemical_formula_structural   Ba(SO2)4
_chemical_formula_sum   'Ba4 S16 O32'
_cell_volume   1034.58268882
_cell_formula_units_Z   4
loop_
 _symmetry_equiv_pos_site_id
 _symmetry_equiv_pos_as_xyz
  1  'x, y, z'
loop_
 _atom_site_type_symbol
 _atom_site_label
 _atom_site_symmetry_multiplicity
 _atom_site_fract_x
 _atom_site_fract_y
 _atom_site_fract_z
 _atom_site_occupancy
  Ba  Ba0  1  0.10314400  0.74647800  0.86211500  1
  Ba  Ba1  1  0.60314400  0.25352200  0.63788500  1
  Ba  Ba2  1  0.89685600  0.25352200  0.13788500  1
  Ba  Ba3  1  0.39685600  0.74647800  0.36211500  1
  S  S0  1  0.54893000  0.65973800  0.88198900  1
  S  S1  1  0.04893000  0.34026200  0.61801100  1
  S  S2  1  0.45107000  0.34026200  0.11801100  1
  S  S3  1  0.95107000  0.65973800  0.38198900  1
  S  S4  1  0.62397000  0.95761400  0.92769600  1
  S  S5  1  0.12397000  0.04238600  0.57230400  1
  S  S6  1  0.37603000  0.04238600  0.07230400  1
  S  S7  1  0.87603000  0.95761400  0.42769600  1
  S  S8  1  0.69174100  0.68566400  0.78453900  1
  S  S9  1  0.19174100  0.31433600  0.71546100  1
  S  S10  1  0.30825900  0.31433600  0.21546100  1
  S  S11  1  0.80825900  0.68566400  0.28453900  1
  S  S12  1  0.78407000  0.80808400  0.99980500  1
  S  S13  1  0.28407000  0.19191600  0.50019500  1
  S  S14  1  0.21593000  0.19191600  0.00019500  1
  S  S15  1  0.71593000  0.80808400  0.49980500  1
  O  O0  1  0.83293400  0.75433300  0.80622500  1
  O  O1  1  0.33293400  0.24566700  0.69377500  1
  O  O2  1  0.16706600  0.24566700  0.19377500  1
  O  O3  1  0.66706600  0.75433300  0.30622500  1
  O  O4  1  0.67919200  0.44126700  0.76404200  1
  O  O5  1  0.17919200  0.55873300  0.73595800  1
  O  O6  1  0.32080800  0.55873300  0.23595800  1
  O  O7  1  0.82080800  0.44126700  0.26404200  1
  O  O8  1  0.61606100  0.87122100  0.74029100  1
  O  O9  1  0.11606100  0.12877900  0.75970900  1
  O  O10  1  0.38393900  0.12877900  0.25970900  1
  O  O11  1  0.88393900  0.87122100  0.24029100  1
  O  O12  1  0.89330800  0.70256100  0.96023700  1
  O  O13  1  0.39330800  0.29743900  0.53976300  1
  O  O14  1  0.10669200  0.29743900  0.03976300  1
  O  O15  1  0.60669200  0.70256100  0.46023700  1
  O  O16  1  0.81899900  0.04032300  0.02425000  1
  O  O17  1  0.31899900  0.95967700  0.47575000  1
  O  O18  1  0.18100100  0.95967700  0.97575000  1
  O  O19  1  0.68100100  0.04032300  0.52425000  1
  O  O20  1  0.71471800  0.63448200  0.04918400  1
  O  O21  1  0.21471800  0.36551800  0.45081600  1
  O  O22  1  0.28528200  0.36551800  0.95081600  1
  O  O23  1  0.78528200  0.63448200  0.54918400  1
  O  O24  1  0.02681900  0.24714900  0.87063200  1
  O  O25  1  0.52681900  0.75285100  0.62936800  1
  O  O26  1  0.97318100  0.75285100  0.12936800  1
  O  O27  1  0.47318100  0.24714900  0.37063200  1
  O  O28  1  0.40562900  0.72962000  0.85448200  1
  O  O29  1  0.90562900  0.27038000  0.64551800  1
  O  O30  1  0.59437100  0.27038000  0.14551800  1
  O  O31  1  0.09437100  0.72962000  0.35448200  1
loop_
_geom_bond_atom_site_label_1
_geom_bond_atom_site_label_2
_geom_bond_distance
_geom_bond_site_symmetry_2
Ba0 O18 2.754098 1_555
Ba0 O12 2.767434 1_455
Ba0 O0 2.769062 1_455
Ba0 O9 2.798518 1_565
Ba0 O28 2.846748 1_555
Ba0 O24 2.858506 1_555
Ba0 O24 2.898225 1_565
Ba0 O5 2.901877 1_555
Ba0 O22 3.129236 1_555
Ba1 O19 2.754098 1_555
Ba1 O13 2.767434 1_555
Ba1 O1 2.769062 1_555
Ba1 O8 2.798518 1_545
Ba1 O29 2.846748 1_555
Ba1 O25 2.858506 1_555
Ba1 O25 2.898225 1_545
Ba1 O4 2.901877 1_555
Ba1 O23 3.129236 1_555
Ba2 O16 2.754098 1_555
Ba2 O14 2.767434 1_655
Ba2 O2 2.769062 1_655
Ba2 O11 2.798518 1_545
Ba2 O30 2.846748 1_555
Ba2 O26 2.858506 1_555
Ba2 O26 2.898225 1_545
Ba2 O7 2.901877 1_555
Ba2 O20 3.129236 1_555
Ba3 O17 2.754098 1_555
Ba3 O15 2.767434 1_555
Ba3 O3 2.769062 1_555
Ba3 O10 2.798518 1_565
Ba3 O31 2.846748 1_555
Ba3 O27 2.858506 1_555
Ba3 O27 2.898225 1_565
Ba3 O6 2.901877 1_555
Ba3 O21 3.129236 1_555
S0 S4 2.090589 1_555
S1 S5 2.090589 1_555
S2 S6 2.090589 1_555
S3 S7 2.090589 1_555
S12 S4 2.184960 1_555
S13 S5 2.184960 1_555
S14 S6 2.184960 1_555
S15 S7 2.184960 1_555
O0 S8 1.457058 1_555
O1 S9 1.457058 1_555
O2 S10 1.457058 1_555
O3 S11 1.457058 1_555
O4 S8 1.462908 1_555
O5 S9 1.462908 1_555
O6 S10 1.462908 1_555
O7 S11 1.462908 1_555
O8 S8 1.471736 1_555
O9 S9 1.471736 1_555
O10 S10 1.471736 1_555
O11 S11 1.471736 1_555
O12 S12 1.452100 1_555
O13 S13 1.452100 1_555
O14 S14 1.452100 1_555
O15 S15 1.452100 1_555
O16 S12 1.462608 1_544
O17 S13 1.462608 1_565
O18 S14 1.462608 1_566
O19 S15 1.462608 1_545
O20 S12 1.460913 1_554
O21 S13 1.460913 1_555
O22 S14 1.460913 1_556
O23 S15 1.460913 1_555
O28 S0 1.489801 1_555
O29 S1 1.489801 1_655
O30 S2 1.489801 1_555
O31 S3 1.489801 1_455
