# generated using pymatgen
data_BaHfMg6O8
_symmetry_space_group_name_H-M   'P 1'
_cell_length_a   9.02772337
_cell_length_b   4.70029193
_cell_length_c   4.70029193
_cell_angle_alpha   90.00000000
_cell_angle_beta   90.00000000
_cell_angle_gamma   90.00000000
_symmetry_Int_Tables_number   1
_chemical_formula_structural   BaHfMg6O8
_chemical_formula_sum   'Ba1 Hf1 Mg6 O8'
_cell_volume   199.44718337
_cell_formula_units_Z   1
loop_
 _symmetry_equiv_pos_site_id
 _symmetry_equiv_pos_as_xyz
  1  'x, y, z'
loop_
 _atom_site_type_symbol
 _atom_site_label
 _atom_site_symmetry_multiplicity
 _atom_site_fract_x
 _atom_site_fract_y
 _atom_site_fract_z
 _atom_site_occupancy
  Ba  Ba0  1  0.00000000  -0.00000000  0.00000000  1
  Hf  Hf0  1  0.00000000  0.50000000  0.50000000  1
  Mg  Mg0  1  0.50000000  -0.00000000  0.00000000  1
  Mg  Mg1  1  0.50000000  0.50000000  0.50000000  1
  Mg  Mg2  1  0.27267763  -0.00000000  0.50000000  1
  Mg  Mg3  1  0.72732237  0.00000000  0.50000000  1
  Mg  Mg4  1  0.27267763  0.50000000  -0.00000000  1
  Mg  Mg5  1  0.72732237  0.50000000  0.00000000  1
  O  O0  1  0.28398027  0.00000000  0.00000000  1
  O  O1  1  0.71601973  -0.00000000  -0.00000000  1
  O  O2  1  0.24788469  0.50000000  0.50000000  1
  O  O3  1  0.75211531  0.50000000  0.50000000  1
  O  O4  1  0.00000000  -0.00000000  0.50000000  1
  O  O5  1  0.50000000  -0.00000000  0.50000000  1
  O  O6  1  0.00000000  0.50000000  0.00000000  1
  O  O7  1  0.50000000  0.50000000  0.00000000  1
loop_
_geom_bond_atom_site_label_1
_geom_bond_atom_site_label_2
_geom_bond_distance
_geom_bond_site_symmetry_2
Ba0 O4 2.350146 1_555
Ba0 O4 2.350146 1_554
Ba0 O6 2.350146 1_545
Ba0 O6 2.350146 1_555
Ba0 O0 2.563695 1_555
Ba0 O1 2.563695 1_455
Hf0 O3 2.237834 1_455
Hf0 O2 2.237834 1_555
Hf0 O4 2.350146 1_555
Hf0 O4 2.350146 1_565
Hf0 O6 2.350146 1_556
Hf0 O6 2.350146 1_555
Mg0 O1 1.950166 1_555
Mg0 O0 1.950166 1_555
Mg0 O7 2.350146 1_555
Mg0 O5 2.350146 1_554
Mg0 O5 2.350146 1_555
Mg0 O7 2.350146 1_545
Mg1 O2 2.276027 1_555
Mg1 O3 2.276027 1_555
Mg1 O7 2.350146 1_555
Mg1 O7 2.350146 1_556
Mg1 O5 2.350146 1_555
Mg1 O5 2.350146 1_565
Mg2 O5 2.052203 1_555
Mg2 O0 2.352360 1_555
Mg2 O0 2.352360 1_556
Mg2 O2 2.360780 1_555
Mg2 O2 2.360780 1_545
Mg2 O4 2.461658 1_555
Mg3 O5 2.052203 1_555
Mg3 O1 2.352360 1_555
Mg3 O1 2.352360 1_556
Mg3 O3 2.360780 1_545
Mg3 O3 2.360780 1_555
Mg3 O4 2.461658 1_655
Mg4 O7 2.052203 1_555
Mg4 O0 2.352360 1_555
Mg4 O0 2.352360 1_565
Mg4 O2 2.360780 1_555
Mg4 O2 2.360780 1_554
Mg4 O6 2.461658 1_555
Mg5 O7 2.052203 1_555
Mg5 O1 2.352360 1_555
Mg5 O1 2.352360 1_565
Mg5 O3 2.360780 1_555
Mg5 O3 2.360780 1_554
Mg5 O6 2.461658 1_655
