# generated using pymatgen
data_Ca(NiO2)2
_symmetry_space_group_name_H-M   'P 1'
_cell_length_a   3.01146914
_cell_length_b   8.41857231
_cell_length_c   7.24552811
_cell_angle_alpha   68.37347631
_cell_angle_beta   78.25093707
_cell_angle_gamma   79.76139571
_symmetry_Int_Tables_number   1
_chemical_formula_structural   Ca(NiO2)2
_chemical_formula_sum   'Ca2 Ni4 O8'
_cell_volume   166.11444977
_cell_formula_units_Z   2
loop_
 _symmetry_equiv_pos_site_id
 _symmetry_equiv_pos_as_xyz
  1  'x, y, z'
loop_
 _atom_site_type_symbol
 _atom_site_label
 _atom_site_symmetry_multiplicity
 _atom_site_fract_x
 _atom_site_fract_y
 _atom_site_fract_z
 _atom_site_occupancy
  Ca  Ca0  1  0.35205200  0.14545700  0.14632000  1
  Ca  Ca1  1  0.64677400  0.83335100  0.89100700  1
  Ni  Ni0  1  0.59019000  0.21061100  0.62131200  1
  Ni  Ni1  1  0.16118500  0.49081600  0.19552400  1
  Ni  Ni2  1  0.84522000  0.48716400  0.83257700  1
  Ni  Ni3  1  0.41783800  0.76602800  0.40484600  1
  O  O0  1  0.88104700  0.66956800  0.57865200  1
  O  O1  1  0.43143800  0.34292400  0.80493600  1
  O  O2  1  0.57603000  0.63035000  0.22734800  1
  O  O3  1  0.12589700  0.30927900  0.44827100  1
  O  O4  1  0.10436300  0.05043300  0.75723400  1
  O  O5  1  0.76130800  0.35857200  0.12253800  1
  O  O6  1  0.90865000  0.92427400  0.25685100  1
  O  O7  1  0.24141200  0.62131000  0.90702300  1
loop_
_geom_bond_atom_site_label_1
_geom_bond_atom_site_label_2
_geom_bond_distance
_geom_bond_site_symmetry_2
Ca0 O5 2.275027 1_455
Ca0 O5 2.288938 1_555
Ca0 O6 2.289274 1_445
Ca0 O6 2.292617 1_545
Ca0 O1 2.410072 1_554
Ca1 O7 2.280849 1_655
Ca1 O4 2.285577 1_665
Ca1 O4 2.285903 1_565
Ca1 O7 2.292262 1_555
Ca1 O2 2.398529 1_556
Ni0 O3 1.936371 1_655
Ni0 O3 1.936565 1_555
Ni0 O1 1.970644 1_555
Ni0 O4 2.016049 1_555
Ni0 O4 2.021315 1_655
Ni1 O3 1.901595 1_555
Ni1 O7 1.957230 1_554
Ni1 O2 1.957659 1_555
Ni1 O2 1.958725 1_455
Ni1 O5 2.028484 1_555
Ni1 O5 2.034491 1_455
Ni2 O0 1.910542 1_555
Ni2 O5 1.963221 1_556
Ni2 O1 1.971336 1_555
Ni2 O1 1.975950 1_655
Ni2 O7 2.044494 1_655
Ni2 O7 2.047504 1_555
Ni3 O0 1.934502 1_455
Ni3 O0 1.936514 1_555
Ni3 O2 1.955865 1_555
Ni3 O6 2.027519 1_555
Ni3 O6 2.041169 1_455
