# generated using pymatgen
data_MgB2O7
_symmetry_space_group_name_H-M   'P 1'
_cell_length_a   7.30901000
_cell_length_b   7.30901000
_cell_length_c   8.72019100
_cell_angle_alpha   90.00000000
_cell_angle_beta   90.00000000
_cell_angle_gamma   90.00000000
_symmetry_Int_Tables_number   1
_chemical_formula_structural   MgB2O7
_chemical_formula_sum   'Mg4 B8 O28'
_cell_volume   465.84679254
_cell_formula_units_Z   4
loop_
 _symmetry_equiv_pos_site_id
 _symmetry_equiv_pos_as_xyz
  1  'x, y, z'
loop_
 _atom_site_type_symbol
 _atom_site_label
 _atom_site_symmetry_multiplicity
 _atom_site_fract_x
 _atom_site_fract_y
 _atom_site_fract_z
 _atom_site_occupancy
  Mg  Mg0  1  0.75000000  0.75000000  0.25000000  1
  Mg  Mg1  1  0.25000000  0.25000000  0.25000000  1
  Mg  Mg2  1  0.25000000  0.75000000  0.75000000  1
  Mg  Mg3  1  0.75000000  0.25000000  0.75000000  1
  B  B0  1  0.86691100  0.63280500  0.89234800  1
  B  B1  1  0.13308900  0.36719500  0.89234800  1
  B  B2  1  0.13280500  0.63308900  0.39234800  1
  B  B3  1  0.86719500  0.36691100  0.39234800  1
  B  B4  1  0.63308900  0.86719500  0.60765200  1
  B  B5  1  0.36691100  0.13280500  0.60765200  1
  B  B6  1  0.36719500  0.86691100  0.10765200  1
  B  B7  1  0.63280500  0.13308900  0.10765200  1
  O  O0  1  0.50000000  0.00000000  0.03870500  1
  O  O1  1  0.50000000  0.00000000  0.53870500  1
  O  O2  1  0.00000000  0.50000000  0.46129500  1
  O  O3  1  0.00000000  0.50000000  0.96129500  1
  O  O4  1  0.76711300  0.70283100  0.01927500  1
  O  O5  1  0.23288700  0.29716900  0.01927500  1
  O  O6  1  0.20283100  0.73288700  0.51927500  1
  O  O7  1  0.79716900  0.26711300  0.51927500  1
  O  O8  1  0.73288700  0.79716900  0.48072500  1
  O  O9  1  0.26711300  0.20283100  0.48072500  1
  O  O10  1  0.29716900  0.76711300  0.98072500  1
  O  O11  1  0.70283100  0.23288700  0.98072500  1
  O  O12  1  0.76263700  0.53405800  0.77887000  1
  O  O13  1  0.23736300  0.46594200  0.77887000  1
  O  O14  1  0.03405800  0.73736300  0.27887000  1
  O  O15  1  0.96594200  0.26263700  0.27887000  1
  O  O16  1  0.73736300  0.96594200  0.72113000  1
  O  O17  1  0.26263700  0.03405800  0.72113000  1
  O  O18  1  0.46594200  0.76263700  0.22113000  1
  O  O19  1  0.53405800  0.23736300  0.22113000  1
  O  O20  1  0.97254500  0.76504900  0.80767200  1
  O  O21  1  0.02745500  0.23495100  0.80767200  1
  O  O22  1  0.26504900  0.52745500  0.30767200  1
  O  O23  1  0.73495100  0.47254500  0.30767200  1
  O  O24  1  0.52745500  0.73495100  0.69232800  1
  O  O25  1  0.47254500  0.26504900  0.69232800  1
  O  O26  1  0.23495100  0.97254500  0.19232800  1
  O  O27  1  0.76504900  0.02745500  0.19232800  1
loop_
_geom_bond_atom_site_label_1
_geom_bond_atom_site_label_2
_geom_bond_distance
_geom_bond_site_symmetry_2
Mg0 O8 2.045119 1_555
Mg0 O4 2.045119 1_555
Mg0 O23 2.092244 1_555
Mg0 O27 2.092244 1_565
Mg0 O14 2.093429 1_655
Mg0 O18 2.093429 1_555
Mg1 O9 2.045119 1_555
Mg1 O5 2.045119 1_555
Mg1 O22 2.092244 1_555
Mg1 O26 2.092244 1_545
Mg1 O19 2.093429 1_555
Mg1 O15 2.093429 1_455
Mg2 O10 2.045119 1_555
Mg2 O6 2.045119 1_555
Mg2 O20 2.092244 1_455
Mg2 O24 2.092244 1_555
Mg2 O17 2.093429 1_565
Mg2 O13 2.093429 1_555
Mg3 O11 2.045119 1_555
Mg3 O7 2.045119 1_555
Mg3 O21 2.092244 1_655
Mg3 O25 2.092244 1_555
Mg3 O12 2.093429 1_555
Mg3 O16 2.093429 1_545
B0 O4 1.420946 1_556
B0 O20 1.440691 1_555
B0 O12 1.442560 1_555
B0 O3 1.499975 1_655
B1 O5 1.420946 1_556
B1 O21 1.440691 1_555
B1 O13 1.442560 1_555
B1 O3 1.499975 1_555
B2 O6 1.420946 1_555
B2 O22 1.440691 1_555
B2 O14 1.442560 1_555
B2 O2 1.499975 1_555
B3 O7 1.420946 1_555
B3 O23 1.440691 1_555
B3 O15 1.442560 1_555
B3 O2 1.499975 1_655
B4 O8 1.420946 1_555
B4 O24 1.440691 1_555
B4 O16 1.442560 1_555
B4 O1 1.499975 1_565
B5 O9 1.420946 1_555
B5 O25 1.440691 1_555
B5 O17 1.442560 1_555
B5 O1 1.499975 1_555
B6 O10 1.420946 1_554
B6 O26 1.440691 1_555
B6 O18 1.442560 1_555
B6 O0 1.499975 1_565
B7 O11 1.420946 1_554
B7 O27 1.440691 1_555
B7 O19 1.442560 1_555
B7 O0 1.499975 1_555
