# generated using pymatgen
data_Dy2MnCoO6
_symmetry_space_group_name_H-M   'P 1'
_cell_length_a   5.65504900
_cell_length_b   4.28566000
_cell_length_c   10.19624895
_cell_angle_alpha   70.67936265
_cell_angle_beta   90.00000000
_cell_angle_gamma   90.00000000
_symmetry_Int_Tables_number   1
_chemical_formula_structural   Dy2MnCoO6
_chemical_formula_sum   'Dy4 Mn2 Co2 O12'
_cell_volume   233.19547317
_cell_formula_units_Z   2
loop_
 _symmetry_equiv_pos_site_id
 _symmetry_equiv_pos_as_xyz
  1  'x, y, z'
loop_
 _atom_site_type_symbol
 _atom_site_label
 _atom_site_symmetry_multiplicity
 _atom_site_fract_x
 _atom_site_fract_y
 _atom_site_fract_z
 _atom_site_occupancy
  Dy  Dy0  1  0.41002000  0.18805200  0.75818500  1
  Dy  Dy1  1  0.91002000  0.81194800  0.74181500  1
  Dy  Dy2  1  0.58998000  0.81194800  0.24181500  1
  Dy  Dy3  1  0.08998000  0.18805200  0.25818500  1
  Mn  Mn0  1  0.50000000  0.00000000  0.50000000  1
  Mn  Mn1  1  0.00000000  0.00000000  0.00000000  1
  Co  Co0  1  0.50000000  0.50000000  0.00000000  1
  Co  Co1  1  0.00000000  0.50000000  0.50000000  1
  O  O0  1  0.22170600  0.73674500  0.92098000  1
  O  O1  1  0.72170600  0.26325500  0.57902000  1
  O  O2  1  0.82042700  0.86558000  0.41620600  1
  O  O3  1  0.32042700  0.13442000  0.08379400  1
  O  O4  1  0.77829400  0.26325500  0.07902000  1
  O  O5  1  0.27829400  0.73674500  0.42098000  1
  O  O6  1  0.17957300  0.13442000  0.58379400  1
  O  O7  1  0.67957300  0.86558000  0.91620600  1
  O  O8  1  0.02249400  0.28315000  0.80601300  1
  O  O9  1  0.52249400  0.71685000  0.69398700  1
  O  O10  1  0.97750600  0.71685000  0.19398700  1
  O  O11  1  0.47750600  0.28315000  0.30601300  1
loop_
_geom_bond_atom_site_label_1
_geom_bond_atom_site_label_2
_geom_bond_distance
_geom_bond_site_symmetry_2
Dy0 O9 2.233228 1_555
Dy0 O6 2.276694 1_555
Dy0 O8 2.310415 1_555
Dy0 O7 2.314332 1_545
Dy0 O0 2.346454 1_545
Dy0 O9 2.405356 1_545
Dy0 O1 2.481587 1_555
Dy1 O8 2.233228 1_655
Dy1 O7 2.276694 1_555
Dy1 O9 2.310415 1_555
Dy1 O6 2.314332 1_665
Dy1 O1 2.346454 1_565
Dy1 O8 2.405356 1_665
Dy1 O0 2.481587 1_655
Dy2 O11 2.233228 1_555
Dy2 O2 2.276694 1_555
Dy2 O10 2.310415 1_555
Dy2 O3 2.314332 1_565
Dy2 O4 2.346454 1_565
Dy2 O11 2.405356 1_565
Dy2 O5 2.481587 1_555
Dy3 O10 2.233228 1_455
Dy3 O3 2.276694 1_555
Dy3 O11 2.310415 1_555
Dy3 O2 2.314332 1_445
Dy3 O5 2.346454 1_545
Dy3 O10 2.405356 1_445
Dy3 O4 2.481587 1_455
Mn0 O9 1.952624 1_545
Mn0 O11 1.952624 1_555
Mn0 O1 2.023725 1_555
Mn0 O5 2.023725 1_545
Mn0 O6 2.161245 1_555
Mn0 O2 2.161245 1_545
Mn1 O10 1.952624 1_445
Mn1 O8 1.952624 1_554
Mn1 O0 2.023725 1_544
Mn1 O4 2.023725 1_455
Mn1 O3 2.161245 1_555
Mn1 O7 2.161245 1_444
Co0 O7 1.824868 1_554
Co0 O3 1.824868 1_555
Co0 O4 1.901158 1_555
Co0 O0 1.901158 1_554
Co1 O6 1.824868 1_555
Co1 O2 1.824868 1_455
Co1 O5 1.901158 1_555
Co1 O1 1.901158 1_455
