# generated using pymatgen
data_Sr4Al6SeO12
_symmetry_space_group_name_H-M   'P 1'
_cell_length_a   8.13564183
_cell_length_b   8.13564183
_cell_length_c   8.13564183
_cell_angle_alpha   109.47122063
_cell_angle_beta   109.47122063
_cell_angle_gamma   109.47122063
_symmetry_Int_Tables_number   1
_chemical_formula_structural   Sr4Al6SeO12
_chemical_formula_sum   'Sr4 Al6 Se1 O12'
_cell_volume   414.52771353
_cell_formula_units_Z   1
loop_
 _symmetry_equiv_pos_site_id
 _symmetry_equiv_pos_as_xyz
  1  'x, y, z'
loop_
 _atom_site_type_symbol
 _atom_site_label
 _atom_site_symmetry_multiplicity
 _atom_site_fract_x
 _atom_site_fract_y
 _atom_site_fract_z
 _atom_site_occupancy
  Sr  Sr0  1  0.61741200  0.61741200  0.61741200  1
  Sr  Sr1  1  0.38258800  0.00000000  0.00000000  1
  Sr  Sr2  1  0.00000000  0.38258800  0.00000000  1
  Sr  Sr3  1  0.00000000  0.00000000  0.38258800  1
  Al  Al0  1  0.25000000  0.75000000  0.50000000  1
  Al  Al1  1  0.75000000  0.25000000  0.50000000  1
  Al  Al2  1  0.75000000  0.50000000  0.25000000  1
  Al  Al3  1  0.25000000  0.50000000  0.75000000  1
  Al  Al4  1  0.50000000  0.25000000  0.75000000  1
  Al  Al5  1  0.50000000  0.75000000  0.25000000  1
  Se  Se0  1  0.00000000  0.00000000  0.00000000  1
  O  O0  1  0.69230900  0.39358500  0.39358500  1
  O  O1  1  0.30769100  0.70127700  0.70127700  1
  O  O2  1  0.00000000  0.60641500  0.29872300  1
  O  O3  1  0.39358500  0.39358500  0.69230900  1
  O  O4  1  0.00000000  0.29872300  0.60641500  1
  O  O5  1  0.70127700  0.70127700  0.30769100  1
  O  O6  1  0.60641500  0.29872300  0.00000000  1
  O  O7  1  0.29872300  0.60641500  0.00000000  1
  O  O8  1  0.39358500  0.69230900  0.39358500  1
  O  O9  1  0.29872300  0.00000000  0.60641500  1
  O  O10  1  0.60641500  0.00000000  0.29872300  1
  O  O11  1  0.70127700  0.30769100  0.70127700  1
loop_
_geom_bond_atom_site_label_1
_geom_bond_atom_site_label_2
_geom_bond_distance
_geom_bond_site_symmetry_2
Al0 O8 1.761607 1_555
Al0 O1 1.761609 1_555
Al0 O9 1.761609 1_565
Al0 O2 1.761609 1_555
Al1 O0 1.761607 1_555
Al1 O11 1.761609 1_555
Al1 O10 1.761609 1_555
Al1 O4 1.761609 1_655
Al2 O0 1.761607 1_555
Al2 O5 1.761609 1_555
Al2 O6 1.761609 1_555
Al2 O2 1.761609 1_655
Al3 O3 1.761607 1_555
Al3 O1 1.761609 1_555
Al3 O7 1.761609 1_556
Al3 O4 1.761609 1_555
Al4 O3 1.761607 1_555
Al4 O11 1.761609 1_555
Al4 O6 1.761609 1_556
Al4 O9 1.761609 1_555
Al5 O8 1.761607 1_555
Al5 O5 1.761609 1_555
Al5 O7 1.761609 1_555
Al5 O10 1.761609 1_565
Se0 Sr1 3.112599 1_555
Se0 Sr3 3.112599 1_555
Se0 Sr2 3.112599 1_555
Se0 Sr0 3.112599 1_444
O0 Sr0 2.504398 1_555
O0 Sr1 3.043396 1_555
O1 Sr1 2.504389 1_566
O1 Sr0 3.043403 1_555
O2 Sr2 2.504392 1_555
O2 Sr3 3.043395 1_565
O3 Sr0 2.504398 1_555
O3 Sr3 3.043396 1_555
O4 Sr3 2.504392 1_555
O4 Sr2 3.043395 1_556
O5 Sr3 2.504389 1_665
O5 Sr0 3.043403 1_555
O6 Sr1 2.504392 1_555
O6 Sr2 3.043395 1_655
O7 Sr2 2.504392 1_555
O7 Sr1 3.043395 1_565
O8 Sr0 2.504398 1_555
O8 Sr2 3.043396 1_555
O9 Sr3 2.504392 1_555
O9 Sr1 3.043395 1_556
O10 Sr1 2.504392 1_555
O10 Sr3 3.043395 1_655
O11 Sr2 2.504389 1_656
O11 Sr0 3.043403 1_555
