# generated using pymatgen
data_HoCdCu4
_symmetry_space_group_name_H-M   'P 1'
_cell_length_a   5.03922363
_cell_length_b   5.03922337
_cell_length_c   5.03922599
_cell_angle_alpha   59.99998288
_cell_angle_beta   59.99998457
_cell_angle_gamma   59.99996553
_symmetry_Int_Tables_number   1
_chemical_formula_structural   HoCdCu4
_chemical_formula_sum   'Ho1 Cd1 Cu4'
_cell_volume   90.48484753
_cell_formula_units_Z   1
loop_
 _symmetry_equiv_pos_site_id
 _symmetry_equiv_pos_as_xyz
  1  'x, y, z'
loop_
 _atom_site_type_symbol
 _atom_site_label
 _atom_site_symmetry_multiplicity
 _atom_site_fract_x
 _atom_site_fract_y
 _atom_site_fract_z
 _atom_site_occupancy
  Ho  Ho0  1  0.75000000  0.75000000  0.75000000  1
  Cd  Cd0  1  -0.00000000  0.00000000  -0.00000000  1
  Cu  Cu0  1  0.37412495  0.87762615  0.37412495  1
  Cu  Cu1  1  0.87762615  0.37412495  0.37412495  1
  Cu  Cu2  1  0.37412495  0.37412495  0.37412395  1
  Cu  Cu3  1  0.37412495  0.37412495  0.87762615  1
loop_
_geom_bond_atom_site_label_1
_geom_bond_atom_site_label_2
_geom_bond_distance
_geom_bond_site_symmetry_2
Cd0 Cu3 2.952643 1_544
Cd0 Cu2 2.952643 1_545
Cd0 Cu3 2.952643 1_454
Cd0 Cu2 2.952643 1_455
Cd0 Cu1 2.952643 1_445
Cd0 Cu0 2.952643 1_445
Cd0 Cu1 2.952644 1_454
Cd0 Cu0 2.952644 1_544
Cd0 Cu3 2.952648 1_554
Cd0 Cu2 2.952648 1_554
Cd0 Cu1 2.952649 1_455
Cd0 Cu0 2.952649 1_545
Cd0 Ho0 3.085880 1_454
Cd0 Ho0 3.085881 1_544
Cd0 Ho0 3.085883 1_444
Cd0 Ho0 3.085883 1_445
Cu0 Cu2 2.501966 1_565
Cu0 Cu1 2.501967 1_465
Cu0 Cu3 2.501968 1_564
Cu0 Cu1 2.537254 1_555
Cu0 Cu3 2.537255 1_555
Cu0 Cu2 2.537258 1_555
Cu0 Ho0 2.956405 1_555
Cu0 Ho0 2.956408 1_455
Cu0 Ho0 2.956409 1_554
Cu1 Cu2 2.501966 1_655
Cu1 Cu3 2.501968 1_654
Cu1 Cu3 2.537255 1_555
Cu1 Cu2 2.537258 1_555
Cu1 Ho0 2.956405 1_555
Cu1 Ho0 2.956408 1_545
Cu1 Ho0 2.956409 1_554
Cu2 Cu3 2.501965 1_554
Cu2 Cu3 2.537261 1_555
Cu2 Ho0 2.956404 1_554
Cu2 Ho0 2.956407 1_545
Cu2 Ho0 2.956407 1_455
Cu3 Ho0 2.956404 1_555
Cu3 Ho0 2.956407 1_545
Cu3 Ho0 2.956407 1_455
