# generated using pymatgen
data_Ca2GePd3
_symmetry_space_group_name_H-M   'P 1'
_cell_length_a   5.24512545
_cell_length_b   5.24512545
_cell_length_c   5.24512524
_cell_angle_alpha   64.67614773
_cell_angle_beta   64.67614773
_cell_angle_gamma   64.67615511
_symmetry_Int_Tables_number   1
_chemical_formula_structural   Ca2GePd3
_chemical_formula_sum   'Ca2 Ge1 Pd3'
_cell_volume   112.48437973
_cell_formula_units_Z   1
loop_
 _symmetry_equiv_pos_site_id
 _symmetry_equiv_pos_as_xyz
  1  'x, y, z'
loop_
 _atom_site_type_symbol
 _atom_site_label
 _atom_site_symmetry_multiplicity
 _atom_site_fract_x
 _atom_site_fract_y
 _atom_site_fract_z
 _atom_site_occupancy
  Ca  Ca0  1  0.87205044  0.87205044  0.87205044  1
  Ca  Ca1  1  0.12794956  0.12794956  0.12794956  1
  Ge  Ge0  1  0.50000000  0.50000000  0.50000000  1
  Pd  Pd0  1  0.50000000  0.50000000  -0.00000000  1
  Pd  Pd1  1  0.00000000  0.50000000  0.50000000  1
  Pd  Pd2  1  0.50000000  0.00000000  0.50000000  1
loop_
_geom_bond_atom_site_label_1
_geom_bond_atom_site_label_2
_geom_bond_distance
_geom_bond_site_symmetry_2
Ca0 Pd0 3.013928 1_556
Ca0 Pd1 3.013928 1_655
Ca0 Pd2 3.013928 1_565
Ca0 Pd2 3.221639 1_665
Ca0 Pd1 3.221639 1_665
Ca0 Pd1 3.221639 1_656
Ca0 Pd2 3.221639 1_566
Ca0 Pd0 3.221639 1_566
Ca0 Pd0 3.221639 1_656
Ca0 Ge0 3.274969 1_556
Ca0 Ge0 3.274970 1_655
Ca0 Ge0 3.274970 1_565
Ca1 Pd0 3.013928 1_555
Ca1 Pd2 3.013928 1_555
Ca1 Pd1 3.013928 1_555
Ca1 Pd2 3.221639 1_455
Ca1 Pd1 3.221639 1_545
Ca1 Pd1 3.221639 1_554
Ca1 Pd2 3.221639 1_554
Ca1 Pd0 3.221639 1_455
Ca1 Pd0 3.221639 1_545
Ca1 Ge0 3.274969 1_554
Ca1 Ge0 3.274970 1_545
Ca1 Ge0 3.274970 1_455
Ge0 Pd0 2.622563 1_556
Ge0 Pd0 2.622563 1_555
Ge0 Pd2 2.622563 1_565
Ge0 Pd2 2.622563 1_555
Ge0 Pd1 2.622563 1_655
Ge0 Pd1 2.622563 1_555
Pd0 Pd2 2.805691 1_564
Pd0 Pd1 2.805691 1_654
Pd0 Pd2 2.805691 1_555
Pd0 Pd1 2.805691 1_555
Pd1 Pd2 2.805691 1_465
Pd1 Pd2 2.805691 1_555
