# generated using pymatgen
data_CuAsO3
_symmetry_space_group_name_H-M   'P 1'
_cell_length_a   3.21436700
_cell_length_b   4.93147400
_cell_length_c   8.97430300
_cell_angle_alpha   90.00000000
_cell_angle_beta   90.00000000
_cell_angle_gamma   90.00000000
_symmetry_Int_Tables_number   1
_chemical_formula_structural   CuAsO3
_chemical_formula_sum   'Cu2 As2 O6'
_cell_volume   142.25676786
_cell_formula_units_Z   2
loop_
 _symmetry_equiv_pos_site_id
 _symmetry_equiv_pos_as_xyz
  1  'x, y, z'
loop_
 _atom_site_type_symbol
 _atom_site_label
 _atom_site_symmetry_multiplicity
 _atom_site_fract_x
 _atom_site_fract_y
 _atom_site_fract_z
 _atom_site_occupancy
  Cu  Cu0  1  0.00000000  0.50000000  0.00000000  1
  Cu  Cu1  1  0.00000000  0.50000000  0.50000000  1
  As  As0  1  0.50000000  0.10584900  0.25000000  1
  As  As1  1  0.50000000  0.89415100  0.75000000  1
  O  O0  1  0.00000000  0.07675300  0.75000000  1
  O  O1  1  0.50000000  0.31732100  0.40777000  1
  O  O2  1  0.50000000  0.31732100  0.09223000  1
  O  O3  1  0.50000000  0.68267900  0.59223000  1
  O  O4  1  0.50000000  0.68267900  0.90777000  1
  O  O5  1  0.00000000  0.92324700  0.25000000  1
loop_
_geom_bond_atom_site_label_1
_geom_bond_atom_site_label_2
_geom_bond_distance
_geom_bond_site_symmetry_2
Cu0 O4 2.019828 1_554
Cu0 O4 2.019828 1_454
Cu0 O2 2.019828 1_455
Cu0 O2 2.019828 1_555
Cu1 O3 2.019828 1_455
Cu1 O3 2.019828 1_555
Cu1 O1 2.019828 1_455
Cu1 O1 2.019828 1_555
As0 O2 1.758488 1_555
As0 O1 1.758488 1_555
As0 O5 1.842263 1_645
As0 O5 1.842263 1_545
As1 O3 1.758488 1_555
As1 O4 1.758488 1_555
As1 O0 1.842263 1_665
As1 O0 1.842263 1_565
