# generated using pymatgen
data_CeAl2Pd5
_symmetry_space_group_name_H-M   'P 1'
_cell_length_a   4.16311581
_cell_length_b   4.16311581
_cell_length_c   8.01919917
_cell_angle_alpha   105.04465143
_cell_angle_beta   105.04465143
_cell_angle_gamma   90.00000000
_symmetry_Int_Tables_number   1
_chemical_formula_structural   CeAl2Pd5
_chemical_formula_sum   'Ce1 Al2 Pd5'
_cell_volume   129.28184549
_cell_formula_units_Z   1
loop_
 _symmetry_equiv_pos_site_id
 _symmetry_equiv_pos_as_xyz
  1  'x, y, z'
loop_
 _atom_site_type_symbol
 _atom_site_label
 _atom_site_symmetry_multiplicity
 _atom_site_fract_x
 _atom_site_fract_y
 _atom_site_fract_z
 _atom_site_occupancy
  Ce  Ce0  1  0.50000000  0.50000000  -0.00000000  1
  Al  Al0  1  0.24656613  0.24656613  0.49313226  1
  Al  Al1  1  0.75343387  0.75343387  0.50686774  1
  Pd  Pd0  1  0.14595389  0.64595389  0.29190678  1
  Pd  Pd1  1  0.85404611  0.35404611  0.70809322  1
  Pd  Pd2  1  0.64595389  0.14595389  0.29190678  1
  Pd  Pd3  1  0.35404611  0.85404611  0.70809322  1
  Pd  Pd4  1  -0.00000000  -0.00000000  -0.00000000  1
loop_
_geom_bond_atom_site_label_1
_geom_bond_atom_site_label_2
_geom_bond_distance
_geom_bond_site_symmetry_2
Ce0 Pd4 2.943767 1_555
Ce0 Pd4 2.943767 1_655
Ce0 Pd4 2.943767 1_565
Ce0 Pd4 2.943767 1_665
Ce0 Pd2 3.012323 1_555
Ce0 Pd1 3.012323 1_554
Ce0 Pd3 3.012323 1_554
Ce0 Pd0 3.012323 1_555
Ce0 Pd0 3.012326 1_655
Ce0 Pd3 3.012326 1_544
Ce0 Pd2 3.012326 1_565
Ce0 Pd1 3.012326 1_454
Al0 Pd2 2.566302 1_455
Al0 Pd0 2.566302 1_545
Al0 Pd0 2.566305 1_555
Al0 Pd2 2.566305 1_555
Al0 Pd1 2.627543 1_555
Al0 Pd3 2.627543 1_555
Al0 Pd3 2.627546 1_545
Al0 Pd1 2.627546 1_455
Al1 Pd1 2.566302 1_565
Al1 Pd3 2.566302 1_655
Al1 Pd1 2.566305 1_555
Al1 Pd3 2.566305 1_555
Al1 Pd0 2.627543 1_555
Al1 Pd2 2.627543 1_555
Al1 Pd0 2.627546 1_655
Al1 Pd2 2.627546 1_565
Pd0 Pd2 2.943767 1_565
Pd0 Pd2 2.943767 1_465
Pd0 Pd2 2.943767 1_555
Pd0 Pd2 2.943767 1_455
Pd0 Pd4 3.012323 1_565
Pd0 Pd4 3.012326 1_555
Pd1 Pd3 2.943767 1_555
Pd1 Pd3 2.943767 1_545
Pd1 Pd3 2.943767 1_655
Pd1 Pd3 2.943767 1_645
Pd1 Pd4 3.012323 1_656
Pd1 Pd4 3.012326 1_666
Pd2 Pd4 3.012323 1_655
Pd2 Pd4 3.012326 1_555
Pd3 Pd4 3.012323 1_566
Pd3 Pd4 3.012326 1_666
