# generated using pymatgen
data_LiCeMg6
_symmetry_space_group_name_H-M   'P 1'
_cell_length_a   6.75240750
_cell_length_b   6.77648397
_cell_length_c   5.21342266
_cell_angle_alpha   90.00000000
_cell_angle_beta   90.00000000
_cell_angle_gamma   120.11802575
_symmetry_Int_Tables_number   1
_chemical_formula_structural   LiCeMg6
_chemical_formula_sum   'Li1 Ce1 Mg6'
_cell_volume   206.34734583
_cell_formula_units_Z   1
loop_
 _symmetry_equiv_pos_site_id
 _symmetry_equiv_pos_as_xyz
  1  'x, y, z'
loop_
 _atom_site_type_symbol
 _atom_site_label
 _atom_site_symmetry_multiplicity
 _atom_site_fract_x
 _atom_site_fract_y
 _atom_site_fract_z
 _atom_site_occupancy
  Li  Li0  1  0.17668424  0.33834162  0.25000000  1
  Ce  Ce0  1  0.17447304  0.83723602  0.25000000  1
  Mg  Mg0  1  0.65919649  0.34577201  0.25000000  1
  Mg  Mg1  1  0.65919649  0.81342349  0.25000000  1
  Mg  Mg2  1  0.33587499  0.18010832  0.75000000  1
  Mg  Mg3  1  0.33587499  0.65576767  0.75000000  1
  Mg  Mg4  1  0.83047735  0.16523918  0.75000000  1
  Mg  Mg5  1  0.82822240  0.66411170  0.75000000  1
loop_
_geom_bond_atom_site_label_1
_geom_bond_atom_site_label_2
_geom_bond_distance
_geom_bond_site_symmetry_2
Li0 Mg2 3.202634 1_555
Li0 Mg2 3.202634 1_554
Li0 Mg3 3.202640 1_555
Li0 Mg3 3.202640 1_554
Li0 Mg1 3.233147 1_555
Li0 Mg0 3.233147 1_555
Li0 Mg4 3.299079 1_455
Li0 Mg4 3.299079 1_454
Ce0 Mg3 3.292402 1_555
Ce0 Mg3 3.292402 1_554
Ce0 Mg2 3.292410 1_564
Ce0 Mg2 3.292410 1_565
Ce0 Mg5 3.299235 1_455
Ce0 Mg5 3.299235 1_454
Ce0 Mg0 3.356923 1_565
Ce0 Mg1 3.356924 1_555
Ce0 Li0 3.388267 1_565
Ce0 Li0 3.388267 1_555
Ce0 Mg0 3.401252 1_455
Ce0 Mg1 3.401252 1_455
Mg0 Mg1 3.169033 1_555
Mg0 Mg5 3.206292 1_554
Mg0 Mg5 3.206292 1_555
Mg0 Mg2 3.218996 1_554
Mg0 Mg2 3.218996 1_555
Mg0 Mg4 3.324030 1_555
Mg0 Mg4 3.324030 1_554
Mg1 Mg5 3.206286 1_555
Mg1 Mg5 3.206286 1_554
Mg1 Mg3 3.218996 1_554
Mg1 Mg3 3.218996 1_555
Mg1 Mg4 3.324037 1_565
Mg1 Mg4 3.324037 1_564
Mg2 Mg5 3.296520 1_555
Mg2 Mg4 3.363220 1_455
Mg2 Mg4 3.391437 1_555
Mg2 Mg5 3.456595 1_445
Mg3 Mg5 3.296521 1_555
Mg3 Mg4 3.363220 1_455
Mg3 Mg4 3.391436 1_565
Mg3 Mg5 3.456596 1_455
Mg4 Mg5 3.388268 1_555
Mg4 Mg5 3.388268 1_545
