# generated using pymatgen
data_Ca2YSbO5
_symmetry_space_group_name_H-M   'P 1'
_cell_length_a   8.90918503
_cell_length_b   8.90918503
_cell_length_c   6.03482042
_cell_angle_alpha   73.21181765
_cell_angle_beta   73.21181765
_cell_angle_gamma   41.63225766
_symmetry_Int_Tables_number   1
_chemical_formula_structural   Ca2YSbO5
_chemical_formula_sum   'Ca4 Y2 Sb2 O10'
_cell_volume   302.65200842
_cell_formula_units_Z   2
loop_
 _symmetry_equiv_pos_site_id
 _symmetry_equiv_pos_as_xyz
  1  'x, y, z'
loop_
 _atom_site_type_symbol
 _atom_site_label
 _atom_site_symmetry_multiplicity
 _atom_site_fract_x
 _atom_site_fract_y
 _atom_site_fract_z
 _atom_site_occupancy
  Ca  Ca0  1  0.62654200  0.10071600  0.84546200  1
  Ca  Ca1  1  0.92666800  0.32148500  0.59330200  1
  Ca  Ca2  1  0.32148500  0.92666800  0.09330200  1
  Ca  Ca3  1  0.10071600  0.62654200  0.34546200  1
  Y  Y0  1  0.29612200  0.68803300  0.70914400  1
  Y  Y1  1  0.68803300  0.29612200  0.20914400  1
  Sb  Sb0  1  0.50540100  0.01576800  0.50579000  1
  Sb  Sb1  1  0.01576800  0.50540100  0.00579000  1
  O  O0  1  0.38006500  0.63101200  0.33443300  1
  O  O1  1  0.63101200  0.38006500  0.83443300  1
  O  O2  1  0.75639000  0.00219800  0.40494700  1
  O  O3  1  0.19707500  0.96986800  0.78550900  1
  O  O4  1  0.00219800  0.75639000  0.90494700  1
  O  O5  1  0.96986800  0.19707500  0.28550900  1
  O  O6  1  0.61322700  0.85550400  0.82587700  1
  O  O7  1  0.32105800  0.31876600  0.61606200  1
  O  O8  1  0.31876600  0.32105800  0.11606200  1
  O  O9  1  0.85550400  0.61322700  0.32587700  1
loop_
_geom_bond_atom_site_label_1
_geom_bond_atom_site_label_2
_geom_bond_distance
_geom_bond_site_symmetry_2
Ca0 O8 2.292999 1_556
Ca0 O6 2.312000 1_545
Ca0 O4 2.334730 1_645
Ca0 O7 2.411861 1_555
Ca0 O1 2.500188 1_555
Ca0 O2 2.688759 1_555
Ca1 O5 2.228344 1_555
Ca1 O3 2.279564 1_645
Ca1 O9 2.338121 1_555
Ca1 O1 2.344714 1_555
Ca2 O3 2.228344 1_554
Ca2 O5 2.279564 1_465
Ca2 O6 2.338121 1_554
Ca2 O0 2.344714 1_555
Ca3 O7 2.292999 1_555
Ca3 O9 2.312000 1_455
Ca3 O2 2.334730 1_465
Ca3 O8 2.411861 1_555
Ca3 O0 2.500188 1_555
Ca3 O4 2.688759 1_554
O0 Y1 2.206640 1_555
O0 Y0 2.247147 1_555
O1 Y0 2.206640 1_555
O1 Y1 2.247147 1_556
O2 Sb0 2.058501 1_555
O2 Y1 2.206506 1_555
O3 Y0 2.101706 1_555
O4 Sb1 2.058501 1_556
O4 Y0 2.206506 1_555
O5 Y1 2.101706 1_555
O6 Sb0 2.030066 1_565
O7 Sb0 2.050927 1_555
O8 Sb1 2.050927 1_555
O9 Sb1 2.030066 1_655
