# generated using pymatgen
data_LiIn4(HgO4)2
_symmetry_space_group_name_H-M   'P 1'
_cell_length_a   6.87342871
_cell_length_b   6.87342871
_cell_length_c   6.86644101
_cell_angle_alpha   60.03363080
_cell_angle_beta   60.03363080
_cell_angle_gamma   60.08092772
_symmetry_Int_Tables_number   1
_chemical_formula_structural   LiIn4(HgO4)2
_chemical_formula_sum   'Li1 In4 Hg2 O8'
_cell_volume   229.64094416
_cell_formula_units_Z   1
loop_
 _symmetry_equiv_pos_site_id
 _symmetry_equiv_pos_as_xyz
  1  'x, y, z'
loop_
 _atom_site_type_symbol
 _atom_site_label
 _atom_site_symmetry_multiplicity
 _atom_site_fract_x
 _atom_site_fract_y
 _atom_site_fract_z
 _atom_site_occupancy
  Li  Li0  1  0.37360900  0.37360900  0.37639100  1
  In  In0  1  0.50750100  0.50750100  0.97743200  1
  In  In1  1  0.50795300  0.97598400  0.50803200  1
  In  In2  1  0.97598400  0.50795300  0.50803200  1
  In  In3  1  0.50750100  0.50750100  0.50756700  1
  Hg  Hg0  1  0.12485700  0.12485700  0.12514300  1
  Hg  Hg1  1  0.87538300  0.87538300  0.87461700  1
  O  O0  1  0.26807000  0.26807000  0.26868400  1
  O  O1  1  0.69298100  0.26856400  0.26922700  1
  O  O2  1  0.73340900  0.73340900  0.29917800  1
  O  O3  1  0.73304700  0.29966100  0.73364700  1
  O  O4  1  0.26856400  0.69298100  0.26922700  1
  O  O5  1  0.26807000  0.26807000  0.69517300  1
  O  O6  1  0.29966100  0.73304700  0.73364700  1
  O  O7  1  0.73340900  0.73340900  0.73400600  1
loop_
_geom_bond_atom_site_label_1
_geom_bond_atom_site_label_2
_geom_bond_distance
_geom_bond_site_symmetry_2
Li0 O5 1.787786 1_555
Li0 O0 1.787802 1_555
Li0 O1 1.793766 1_555
Li0 O4 1.793766 1_555
In0 O6 2.198513 1_555
In0 O3 2.198513 1_555
In0 O7 2.199002 1_555
In0 Li0 2.237451 1_556
In0 O1 2.347944 1_556
In0 O4 2.347944 1_556
In0 O0 2.354193 1_556
In1 O6 2.196095 1_555
In1 O2 2.197524 1_555
In1 O7 2.197529 1_555
In1 Li0 2.233305 1_565
In1 O1 2.350371 1_565
In1 O5 2.357728 1_565
In1 O0 2.357745 1_565
In2 O3 2.196095 1_555
In2 O2 2.197524 1_555
In2 O7 2.197529 1_555
In2 Li0 2.233305 1_655
In2 O4 2.350371 1_655
In2 O5 2.357728 1_655
In2 O0 2.357745 1_655
In3 O6 2.198518 1_555
In3 O3 2.198518 1_555
In3 O2 2.199003 1_555
In3 Li0 2.237456 1_555
In3 O4 2.347955 1_555
In3 O1 2.347955 1_555
In3 O5 2.354197 1_555
Hg0 O0 2.411312 1_555
Hg0 O5 2.411329 1_554
Hg0 O4 2.425636 1_545
Hg0 O1 2.425636 1_455
Hg1 O7 2.380994 1_555
Hg1 O2 2.381006 1_556
Hg1 O3 2.382976 1_565
Hg1 O6 2.382976 1_655
