# generated using pymatgen
data_Mg6CuBi
_symmetry_space_group_name_H-M   'P 1'
_cell_length_a   4.98486600
_cell_length_b   6.49160900
_cell_length_c   10.91493200
_cell_angle_alpha   90.00000000
_cell_angle_beta   90.00000000
_cell_angle_gamma   90.00000000
_symmetry_Int_Tables_number   1
_chemical_formula_structural   Mg6CuBi
_chemical_formula_sum   'Mg12 Cu2 Bi2'
_cell_volume   353.20502733
_cell_formula_units_Z   2
loop_
 _symmetry_equiv_pos_site_id
 _symmetry_equiv_pos_as_xyz
  1  'x, y, z'
loop_
 _atom_site_type_symbol
 _atom_site_label
 _atom_site_symmetry_multiplicity
 _atom_site_fract_x
 _atom_site_fract_y
 _atom_site_fract_z
 _atom_site_occupancy
  Mg  Mg0  1  0.50000000  0.24834600  0.58441500  1
  Mg  Mg1  1  0.50000000  0.75165400  0.58441500  1
  Mg  Mg2  1  0.00000000  0.27087500  0.41516000  1
  Mg  Mg3  1  0.00000000  0.72912500  0.41516000  1
  Mg  Mg4  1  0.00000000  0.00000000  0.67115000  1
  Mg  Mg5  1  0.00000000  0.00000000  0.15954200  1
  Mg  Mg6  1  0.50000000  0.74834600  0.08441500  1
  Mg  Mg7  1  0.50000000  0.25165400  0.08441500  1
  Mg  Mg8  1  0.00000000  0.77087500  0.91516000  1
  Mg  Mg9  1  0.00000000  0.22912500  0.91516000  1
  Mg  Mg10  1  0.00000000  0.50000000  0.17115000  1
  Mg  Mg11  1  0.00000000  0.50000000  0.65954200  1
  Cu  Cu0  1  0.50000000  0.00000000  0.83604500  1
  Cu  Cu1  1  0.50000000  0.50000000  0.33604500  1
  Bi  Bi0  1  0.50000000  0.00000000  0.33411800  1
  Bi  Bi1  1  0.50000000  0.50000000  0.83411800  1
loop_
_geom_bond_atom_site_label_1
_geom_bond_atom_site_label_2
_geom_bond_distance
_geom_bond_site_symmetry_2
Mg0 Mg11 3.090859 1_555
Mg0 Mg11 3.090859 1_655
Mg0 Mg2 3.105885 1_555
Mg0 Mg2 3.105885 1_655
Mg0 Mg4 3.115694 1_555
Mg0 Mg4 3.115694 1_655
Mg0 Mg1 3.224330 1_545
Mg0 Mg1 3.267279 1_555
Mg1 Mg11 3.090859 1_555
Mg1 Mg11 3.090859 1_655
Mg1 Mg3 3.105885 1_555
Mg1 Mg3 3.105885 1_655
Mg1 Mg4 3.115694 1_565
Mg1 Mg4 3.115694 1_665
Mg5 Mg6 3.090859 1_545
Mg5 Mg7 3.090859 1_555
Mg5 Mg6 3.090859 1_445
Mg5 Mg7 3.090859 1_455
Mg6 Mg8 3.105885 1_654
Mg6 Mg8 3.105885 1_554
Mg6 Mg7 3.224330 1_555
Mg6 Mg7 3.267279 1_565
Mg7 Mg9 3.105885 1_654
Mg7 Mg9 3.105885 1_554
Mg10 Mg6 3.115694 1_555
Mg10 Mg6 3.115694 1_455
Mg10 Mg7 3.115694 1_555
Mg10 Mg7 3.115694 1_455
Cu0 Mg9 3.028241 1_655
Cu0 Mg8 3.028241 1_645
Cu0 Mg8 3.028241 1_545
Cu0 Mg9 3.028241 1_555
Cu0 Mg4 3.074340 1_655
Cu0 Mg4 3.074340 1_555
Cu0 Mg7 3.165120 1_556
Cu0 Mg6 3.165120 1_546
Cu0 Mg1 3.184725 1_545
Cu0 Mg0 3.184725 1_555
Cu1 Mg2 3.028241 1_655
Cu1 Mg3 3.028241 1_555
Cu1 Mg3 3.028241 1_655
Cu1 Mg2 3.028241 1_555
Cu1 Mg10 3.074340 1_655
Cu1 Mg10 3.074340 1_555
Cu1 Mg1 3.165120 1_555
Cu1 Mg0 3.165120 1_555
Cu1 Mg6 3.184725 1_555
Cu1 Mg7 3.184725 1_555
Bi0 Mg5 3.137371 1_655
Bi0 Mg5 3.137371 1_555
Bi0 Mg1 3.172186 1_545
Bi0 Mg0 3.172186 1_555
Bi0 Mg3 3.175957 1_645
Bi0 Mg3 3.175957 1_545
Bi0 Mg2 3.175957 1_655
Bi0 Mg2 3.175957 1_555
Bi0 Mg7 3.177590 1_555
Bi0 Mg6 3.177590 1_545
Bi0 Cu1 3.245873 1_545
Bi0 Cu1 3.245873 1_555
Bi1 Mg11 3.137371 1_655
Bi1 Mg11 3.137371 1_555
Bi1 Mg6 3.172186 1_556
Bi1 Mg7 3.172186 1_556
Bi1 Mg9 3.175957 1_555
Bi1 Mg8 3.175957 1_655
Bi1 Mg9 3.175957 1_655
Bi1 Mg8 3.175957 1_555
Bi1 Mg0 3.177590 1_555
Bi1 Mg1 3.177590 1_555
Bi1 Cu0 3.245873 1_555
Bi1 Cu0 3.245873 1_565
