# generated using pymatgen
data_Sm2ZnPtO6
_symmetry_space_group_name_H-M   'P 1'
_cell_length_a   5.82535900
_cell_length_b   5.46093400
_cell_length_c   9.52352563
_cell_angle_alpha   55.24230973
_cell_angle_beta   90.00000000
_cell_angle_gamma   90.00000000
_symmetry_Int_Tables_number   1
_chemical_formula_structural   Sm2ZnPtO6
_chemical_formula_sum   'Sm4 Zn2 Pt2 O12'
_cell_volume   248.90417116
_cell_formula_units_Z   2
loop_
 _symmetry_equiv_pos_site_id
 _symmetry_equiv_pos_as_xyz
  1  'x, y, z'
loop_
 _atom_site_type_symbol
 _atom_site_label
 _atom_site_symmetry_multiplicity
 _atom_site_fract_x
 _atom_site_fract_y
 _atom_site_fract_z
 _atom_site_occupancy
  Sm  Sm0  1  0.42745400  0.22884200  0.74903600  1
  Sm  Sm1  1  0.57254600  0.77115800  0.25096400  1
  Sm  Sm2  1  0.92745400  0.77115800  0.75096400  1
  Sm  Sm3  1  0.07254600  0.22884200  0.24903600  1
  Zn  Zn0  1  0.00000000  0.50000000  0.50000000  1
  Zn  Zn1  1  0.50000000  0.50000000  0.00000000  1
  Pt  Pt0  1  0.00000000  0.00000000  0.00000000  1
  Pt  Pt1  1  0.50000000  0.00000000  0.50000000  1
  O  O0  1  0.04103300  0.36235800  0.75296900  1
  O  O1  1  0.95896700  0.63764200  0.24703100  1
  O  O2  1  0.54103300  0.63764200  0.74703100  1
  O  O3  1  0.45896700  0.36235800  0.25296900  1
  O  O4  1  0.70210700  0.87485700  0.93950400  1
  O  O5  1  0.29789300  0.12514300  0.06049600  1
  O  O6  1  0.20210700  0.12514300  0.56049600  1
  O  O7  1  0.79789300  0.87485700  0.43950400  1
  O  O8  1  0.19297100  0.74975300  0.94415800  1
  O  O9  1  0.80702900  0.25024700  0.05584200  1
  O  O10  1  0.69297100  0.25024700  0.55584200  1
  O  O11  1  0.30702900  0.74975300  0.44415800  1
loop_
_geom_bond_atom_site_label_1
_geom_bond_atom_site_label_2
_geom_bond_distance
_geom_bond_site_symmetry_2
O0 Pt0 2.049263 1_556
O0 Zn0 2.088396 1_555
O0 Sm2 2.318031 1_455
O0 Sm0 2.373046 1_555
O1 Pt0 2.049263 1_665
O1 Zn0 2.088396 1_655
O1 Sm3 2.318031 1_655
O1 Sm1 2.373046 1_555
O2 Pt1 2.049263 1_565
O2 Zn1 2.088396 1_556
O2 Sm0 2.318031 1_555
O2 Sm2 2.373046 1_555
O3 Pt1 2.049263 1_555
O3 Zn1 2.088396 1_555
O3 Sm1 2.318031 1_555
O3 Sm3 2.373046 1_555
O4 Pt0 2.063803 1_666
O4 Zn1 2.136308 1_556
O4 Sm0 2.364079 1_565
O4 Sm2 2.535229 1_555
O4 Sm1 2.788079 1_556
O5 Pt0 2.063803 1_555
O5 Zn1 2.136308 1_555
O5 Sm1 2.364079 1_545
O5 Sm3 2.535229 1_555
O5 Sm0 2.788079 1_554
O6 Pt1 2.063803 1_555
O6 Zn0 2.136308 1_555
O6 Sm2 2.364079 1_445
O6 Sm0 2.535229 1_555
O6 Sm3 2.788079 1_555
O7 Pt1 2.063803 1_565
O7 Zn0 2.136308 1_655
O7 Sm3 2.364079 1_665
O7 Sm1 2.535229 1_555
O7 Sm2 2.788079 1_555
O8 Pt0 2.059781 1_566
O8 Zn1 2.124829 1_556
O8 Sm2 2.354997 1_455
O8 Sm0 2.573019 1_565
O8 Sm3 2.756266 1_556
O9 Pt0 2.059781 1_655
O9 Zn1 2.124829 1_555
O9 Sm3 2.354997 1_655
O9 Sm1 2.573019 1_545
O9 Sm2 2.756266 1_554
O10 Pt1 2.059781 1_555
O10 Zn0 2.124829 1_655
O10 Sm0 2.354997 1_555
O10 Sm2 2.573019 1_545
O10 Sm1 2.756266 1_555
O11 Pt1 2.059781 1_565
O11 Zn0 2.124829 1_555
O11 Sm1 2.354997 1_555
O11 Sm3 2.573019 1_565
O11 Sm0 2.756266 1_555
