# generated using pymatgen
data_Fe7(CoO6)2
_symmetry_space_group_name_H-M   'P 1'
_cell_length_a   6.02540594
_cell_length_b   6.02540594
_cell_length_c   13.47146446
_cell_angle_alpha   77.56546009
_cell_angle_beta   77.56546009
_cell_angle_gamma   89.95040450
_symmetry_Int_Tables_number   1
_chemical_formula_structural   Fe7(CoO6)2
_chemical_formula_sum   'Fe14 Co4 O24'
_cell_volume   465.88100211
_cell_formula_units_Z   2
loop_
 _symmetry_equiv_pos_site_id
 _symmetry_equiv_pos_as_xyz
  1  'x, y, z'
loop_
 _atom_site_type_symbol
 _atom_site_label
 _atom_site_symmetry_multiplicity
 _atom_site_fract_x
 _atom_site_fract_y
 _atom_site_fract_z
 _atom_site_occupancy
  Fe  Fe0  1  0.28858000  0.04030400  0.41681700  1
  Fe  Fe1  1  0.95969600  0.71142000  0.08318300  1
  Fe  Fe2  1  0.62630100  0.37369900  0.75000000  1
  Fe  Fe3  1  0.04030400  0.28858000  0.91681700  1
  Fe  Fe4  1  0.71142000  0.95969600  0.58318300  1
  Fe  Fe5  1  0.37369900  0.62630100  0.25000000  1
  Fe  Fe6  1  0.50000000  0.50000000  0.00000000  1
  Fe  Fe7  1  0.50000000  0.50000000  0.50000000  1
  Fe  Fe8  1  0.00000000  0.50000000  0.50000000  1
  Fe  Fe9  1  0.67040900  0.16554700  0.17165100  1
  Fe  Fe10  1  0.32959100  0.83445300  0.82834900  1
  Fe  Fe11  1  0.16554700  0.67040900  0.67165100  1
  Fe  Fe12  1  0.83445300  0.32959100  0.32834900  1
  Fe  Fe13  1  0.50000000  0.00000000  0.00000000  1
  Co  Co0  1  0.16510000  0.16954800  0.66641600  1
  Co  Co1  1  0.83490000  0.83045200  0.33358400  1
  Co  Co2  1  0.16954800  0.16510000  0.16641600  1
  Co  Co3  1  0.83045200  0.83490000  0.83358400  1
  O  O0  1  0.08422700  0.59024800  0.83183700  1
  O  O1  1  0.75183700  0.26939100  0.49657500  1
  O  O2  1  0.42400600  0.92852800  0.16014100  1
  O  O3  1  0.40975200  0.91577300  0.66816300  1
  O  O4  1  0.07147200  0.57599400  0.33985900  1
  O  O5  1  0.73060900  0.24816300  0.00342500  1
  O  O6  1  0.92839300  0.91384700  0.66842000  1
  O  O7  1  0.58940500  0.57462500  0.34011500  1
  O  O8  1  0.26979400  0.25055800  0.00107200  1
  O  O9  1  0.08615300  0.07160700  0.83158000  1
  O  O10  1  0.74944200  0.73020600  0.49892800  1
  O  O11  1  0.42537500  0.41059500  0.15988500  1
  O  O12  1  0.24816300  0.73060900  0.50342500  1
  O  O13  1  0.91577300  0.40975200  0.16816300  1
  O  O14  1  0.57599400  0.07147200  0.83985900  1
  O  O15  1  0.92852800  0.42400600  0.66014100  1
  O  O16  1  0.59024800  0.08422700  0.33183700  1
  O  O17  1  0.26939100  0.75183700  0.99657500  1
  O  O18  1  0.41059500  0.42537500  0.65988500  1
  O  O19  1  0.07160700  0.08615300  0.33158000  1
  O  O20  1  0.73020600  0.74944200  0.99892800  1
  O  O21  1  0.25055800  0.26979400  0.50107200  1
  O  O22  1  0.91384700  0.92839300  0.16842000  1
  O  O23  1  0.57462500  0.58940500  0.84011500  1
loop_
_geom_bond_atom_site_label_1
_geom_bond_atom_site_label_2
_geom_bond_distance
_geom_bond_site_symmetry_2
Fe0 O19 1.900855 1_555
Fe0 O16 1.912794 1_555
Fe0 O21 1.953515 1_555
Fe0 O12 1.960487 1_545
Fe1 O22 1.900855 1_555
Fe1 O13 1.912794 1_555
Fe1 O20 1.953515 1_554
Fe1 O17 1.960487 1_654
Fe2 O15 1.940892 1_555
Fe2 O14 1.940892 1_555
Fe2 O23 1.943185 1_555
Fe2 O18 1.943185 1_555
Fe3 O9 1.900855 1_555
Fe3 O0 1.912794 1_555
Fe3 O8 1.953515 1_556
Fe3 O5 1.960487 1_456
Fe4 O6 1.900855 1_555
Fe4 O3 1.912794 1_555
Fe4 O10 1.953515 1_555
Fe4 O1 1.960487 1_565
Fe5 O2 1.940892 1_555
Fe5 O4 1.940892 1_555
Fe5 O7 1.943185 1_555
Fe5 O11 1.943185 1_555
Fe6 O8 2.041770 1_555
Fe6 O20 2.041770 1_554
Fe6 O11 2.053111 1_555
Fe6 O23 2.053111 1_554
Fe6 O5 2.056513 1_555
Fe6 O17 2.056513 1_554
Fe7 O10 2.041770 1_555
Fe7 O21 2.041770 1_555
Fe7 O7 2.053111 1_555
Fe7 O18 2.053111 1_555
Fe7 O1 2.056513 1_555
Fe7 O12 2.056513 1_555
Fe8 O10 2.049533 1_455
Fe8 O21 2.049533 1_555
Fe8 O15 2.055250 1_455
Fe8 O4 2.055250 1_555
Fe8 O12 2.056615 1_555
Fe8 O1 2.056615 1_455
Fe9 O22 2.047191 1_545
Fe9 O16 2.055792 1_555
Fe9 O13 2.072950 1_555
Fe9 O11 2.093151 1_555
Fe9 O2 2.113305 1_545
Fe9 O5 2.162346 1_555
Fe10 O9 2.047191 1_565
Fe10 O3 2.055792 1_555
Fe10 O0 2.072950 1_555
Fe10 O23 2.093151 1_555
Fe10 O14 2.113305 1_565
Fe10 O17 2.162346 1_555
Fe11 O6 2.047191 1_455
Fe11 O0 2.055792 1_555
Fe11 O3 2.072950 1_555
Fe11 O18 2.093151 1_555
Fe11 O15 2.113305 1_455
Fe11 O12 2.162346 1_555
Fe12 O19 2.047191 1_655
Fe12 O13 2.055792 1_555
Fe12 O16 2.072950 1_555
Fe12 O7 2.093151 1_555
Fe12 O4 2.113305 1_655
Fe12 O1 2.162346 1_555
Fe13 O20 2.049533 1_544
Fe13 O8 2.049533 1_555
Fe13 O2 2.055250 1_545
Fe13 O14 2.055250 1_554
Fe13 O5 2.056615 1_555
Fe13 O17 2.056615 1_544
Co0 O6 2.092369 1_445
Co0 O15 2.093339 1_455
Co0 O18 2.112201 1_555
Co0 O9 2.122355 1_555
Co0 O3 2.123037 1_545
Co0 O21 2.125704 1_555
Co1 O19 2.092369 1_665
Co1 O4 2.093339 1_655
Co1 O7 2.112201 1_555
Co1 O22 2.122355 1_555
Co1 O16 2.123037 1_565
Co1 O10 2.125704 1_555
Co2 O22 2.092369 1_445
Co2 O2 2.093339 1_545
Co2 O11 2.112201 1_555
Co2 O19 2.122355 1_555
Co2 O13 2.123037 1_455
Co2 O8 2.125704 1_555
Co3 O9 2.092369 1_665
Co3 O14 2.093339 1_565
Co3 O23 2.112201 1_555
Co3 O6 2.122355 1_555
Co3 O0 2.123037 1_655
Co3 O20 2.125704 1_555
