# generated using pymatgen
data_NiBiP2O9
_symmetry_space_group_name_H-M   'P 1'
_cell_length_a   6.58352900
_cell_length_b   8.04802000
_cell_length_c   14.35634700
_cell_angle_alpha   90.00000000
_cell_angle_beta   90.00000000
_cell_angle_gamma   90.00000000
_symmetry_Int_Tables_number   1
_chemical_formula_structural   NiBiP2O9
_chemical_formula_sum   'Ni4 Bi4 P8 O36'
_cell_volume   760.66204526
_cell_formula_units_Z   4
loop_
 _symmetry_equiv_pos_site_id
 _symmetry_equiv_pos_as_xyz
  1  'x, y, z'
loop_
 _atom_site_type_symbol
 _atom_site_label
 _atom_site_symmetry_multiplicity
 _atom_site_fract_x
 _atom_site_fract_y
 _atom_site_fract_z
 _atom_site_occupancy
  Ni  Ni0  1  0.50000000  0.00000000  0.00000000  1
  Ni  Ni1  1  0.50000000  0.50000000  0.50000000  1
  Ni  Ni2  1  0.00000000  0.50000000  0.50000000  1
  Ni  Ni3  1  0.00000000  0.00000000  0.00000000  1
  Bi  Bi0  1  0.75000000  0.34213300  0.87501500  1
  Bi  Bi1  1  0.25000000  0.65786700  0.12498500  1
  Bi  Bi2  1  0.25000000  0.84213300  0.62498500  1
  Bi  Bi3  1  0.75000000  0.15786700  0.37501500  1
  P  P0  1  0.25000000  0.34131500  0.93906800  1
  P  P1  1  0.75000000  0.65868500  0.06093200  1
  P  P2  1  0.75000000  0.84131500  0.56093200  1
  P  P3  1  0.25000000  0.15868500  0.43906800  1
  P  P4  1  0.75000000  0.39276300  0.68001900  1
  P  P5  1  0.25000000  0.60723700  0.31998100  1
  P  P6  1  0.25000000  0.89276300  0.81998100  1
  P  P7  1  0.75000000  0.10723700  0.18001900  1
  O  O0  1  0.05430600  0.59098600  0.37769700  1
  O  O1  1  0.55430600  0.40901400  0.62230300  1
  O  O2  1  0.94569400  0.09098600  0.12230300  1
  O  O3  1  0.44569400  0.90901400  0.87769700  1
  O  O4  1  0.94569400  0.40901400  0.62230300  1
  O  O5  1  0.44569400  0.59098600  0.37769700  1
  O  O6  1  0.05430600  0.90901400  0.87769700  1
  O  O7  1  0.55430600  0.09098600  0.12230300  1
  O  O8  1  0.25000000  0.33500100  0.48019000  1
  O  O9  1  0.75000000  0.66499900  0.51981000  1
  O  O10  1  0.75000000  0.83500100  0.01981000  1
  O  O11  1  0.25000000  0.16499900  0.98019000  1
  O  O12  1  0.75000000  0.12891600  0.95359700  1
  O  O13  1  0.25000000  0.87108400  0.04640300  1
  O  O14  1  0.25000000  0.62891600  0.54640300  1
  O  O15  1  0.75000000  0.37108400  0.45359700  1
  O  O16  1  0.75000000  0.22412800  0.73581500  1
  O  O17  1  0.25000000  0.77587200  0.26418500  1
  O  O18  1  0.25000000  0.72412800  0.76418500  1
  O  O19  1  0.75000000  0.27587200  0.23581500  1
  O  O20  1  0.43002100  0.13341400  0.36959100  1
  O  O21  1  0.93002100  0.86658600  0.63040900  1
  O  O22  1  0.56997900  0.63341400  0.13040900  1
  O  O23  1  0.06997900  0.36658600  0.86959100  1
  O  O24  1  0.56997900  0.86658600  0.63040900  1
  O  O25  1  0.06997900  0.13341400  0.36959100  1
  O  O26  1  0.43002100  0.36658600  0.86959100  1
  O  O27  1  0.93002100  0.63341400  0.13040900  1
  O  O28  1  0.75000000  0.97602700  0.26386800  1
  O  O29  1  0.25000000  0.02397300  0.73613200  1
  O  O30  1  0.25000000  0.47602700  0.23613200  1
  O  O31  1  0.75000000  0.52397300  0.76386800  1
  O  O32  1  0.75000000  0.97382100  0.48432700  1
  O  O33  1  0.25000000  0.02617900  0.51567300  1
  O  O34  1  0.25000000  0.47382100  0.01567300  1
  O  O35  1  0.75000000  0.52617900  0.98432700  1
loop_
_geom_bond_atom_site_label_1
_geom_bond_atom_site_label_2
_geom_bond_distance
_geom_bond_site_symmetry_2
Ni0 O7 1.935702 1_555
Ni0 O3 1.935702 1_544
Ni0 O13 2.056494 1_545
Ni0 O12 2.056494 1_554
Ni0 O11 2.133816 1_554
Ni0 O10 2.133816 1_545
Ni1 O1 1.935702 1_555
Ni1 O5 1.935702 1_555
Ni1 O14 2.056494 1_555
Ni1 O15 2.056494 1_555
Ni1 O9 2.133816 1_555
Ni1 O8 2.133816 1_555
Ni2 O4 1.935702 1_455
Ni2 O0 1.935702 1_555
Ni2 O14 2.056494 1_555
Ni2 O15 2.056494 1_455
Ni2 O9 2.133816 1_455
Ni2 O8 2.133816 1_555
Ni3 O6 1.935702 1_544
Ni3 O2 1.935702 1_455
Ni3 O13 2.056494 1_545
Ni3 O12 2.056494 1_454
Ni3 O11 2.133816 1_554
Ni3 O10 2.133816 1_445
Bi0 O12 2.053605 1_555
Bi0 O26 2.117196 1_555
Bi0 O23 2.117196 1_655
Bi0 O35 2.157948 1_555
Bi0 O31 2.165142 1_555
Bi0 O16 2.212591 1_555
Bi1 O13 2.053605 1_555
Bi1 O27 2.117196 1_455
Bi1 O22 2.117196 1_555
Bi1 O34 2.157948 1_555
Bi1 O30 2.165142 1_555
Bi1 O17 2.212591 1_555
Bi2 O14 2.053605 1_555
Bi2 O21 2.117196 1_455
Bi2 O24 2.117196 1_555
Bi2 O33 2.157948 1_565
Bi2 O29 2.165142 1_565
Bi2 O18 2.212591 1_555
Bi3 O15 2.053605 1_555
Bi3 O25 2.117196 1_655
Bi3 O20 2.117196 1_555
Bi3 O32 2.157948 1_545
Bi3 O28 2.165142 1_545
Bi3 O19 2.212591 1_555
O0 P5 1.537378 1_555
O1 P4 1.537378 1_555
O2 P7 1.537378 1_555
O3 P6 1.537378 1_555
O4 P4 1.537378 1_555
O5 P5 1.537378 1_555
O6 P6 1.537378 1_555
O7 P7 1.537378 1_555
O8 P3 1.536904 1_555
O9 P2 1.536904 1_555
O10 P1 1.536904 1_555
O11 P0 1.536904 1_555
O16 P4 1.575936 1_555
O17 P5 1.575936 1_555
O18 P6 1.575936 1_555
O19 P7 1.575936 1_555
O20 P3 1.562331 1_555
O21 P2 1.562331 1_555
O22 P1 1.562331 1_555
O23 P0 1.562331 1_555
O24 P2 1.562331 1_555
O25 P3 1.562331 1_555
O26 P0 1.562331 1_555
O27 P1 1.562331 1_555
O28 P7 1.601295 1_565
O29 P6 1.601295 1_545
O30 P5 1.601295 1_555
O31 P4 1.601295 1_555
O32 P2 1.531901 1_555
O33 P3 1.531901 1_555
O34 P0 1.531901 1_554
O35 P1 1.531901 1_556
