# generated using pymatgen
data_CsMg6Cr
_symmetry_space_group_name_H-M   'P 1'
_cell_length_a   5.24390300
_cell_length_b   6.96020900
_cell_length_c   12.25551500
_cell_angle_alpha   90.00000000
_cell_angle_beta   90.00000000
_cell_angle_gamma   90.00000000
_symmetry_Int_Tables_number   1
_chemical_formula_structural   CsMg6Cr
_chemical_formula_sum   'Cs2 Mg12 Cr2'
_cell_volume   447.30988560
_cell_formula_units_Z   2
loop_
 _symmetry_equiv_pos_site_id
 _symmetry_equiv_pos_as_xyz
  1  'x, y, z'
loop_
 _atom_site_type_symbol
 _atom_site_label
 _atom_site_symmetry_multiplicity
 _atom_site_fract_x
 _atom_site_fract_y
 _atom_site_fract_z
 _atom_site_occupancy
  Cs  Cs0  1  0.00000000  0.50000000  0.33529900  1
  Cs  Cs1  1  0.00000000  0.00000000  0.83529900  1
  Mg  Mg0  1  0.00000000  0.27193300  0.08602000  1
  Mg  Mg1  1  0.00000000  0.72806700  0.08602000  1
  Mg  Mg2  1  0.00000000  0.00000000  0.32949200  1
  Mg  Mg3  1  0.50000000  0.78473200  0.43163300  1
  Mg  Mg4  1  0.50000000  0.21526800  0.43163300  1
  Mg  Mg5  1  0.50000000  0.00000000  0.16638100  1
  Mg  Mg6  1  0.00000000  0.77193300  0.58602000  1
  Mg  Mg7  1  0.00000000  0.22806700  0.58602000  1
  Mg  Mg8  1  0.00000000  0.50000000  0.82949200  1
  Mg  Mg9  1  0.50000000  0.28473200  0.93163300  1
  Mg  Mg10  1  0.50000000  0.71526800  0.93163300  1
  Mg  Mg11  1  0.50000000  0.50000000  0.66638100  1
  Cr  Cr0  1  0.50000000  0.50000000  0.13352200  1
  Cr  Cr1  1  0.50000000  0.00000000  0.63352200  1
loop_
_geom_bond_atom_site_label_1
_geom_bond_atom_site_label_2
_geom_bond_distance
_geom_bond_site_symmetry_2
Cs0 Mg1 3.442834 1_555
Cs0 Mg0 3.442834 1_555
Cs0 Mg2 3.480832 1_555
Cs0 Mg2 3.480832 1_565
Cs0 Mg4 3.492278 1_555
Cs0 Mg3 3.492278 1_555
Cs0 Mg3 3.492278 1_455
Cs0 Mg4 3.492278 1_455
Cs0 Mg6 3.608868 1_555
Cs0 Mg7 3.608868 1_555
Cs1 Mg7 3.442834 1_555
Cs1 Mg6 3.442834 1_545
Cs1 Mg8 3.480832 1_545
Cs1 Mg8 3.480832 1_555
Cs1 Mg9 3.492278 1_555
Cs1 Mg10 3.492278 1_445
Cs1 Mg10 3.492278 1_545
Cs1 Mg9 3.492278 1_455
Cs1 Mg1 3.608868 1_546
Cs1 Mg0 3.608868 1_556
Mg0 Mg1 3.174788 1_555
Mg0 Mg9 3.234591 1_554
Mg0 Mg9 3.234591 1_454
Mg0 Mg5 3.380376 1_455
Mg0 Mg5 3.380376 1_555
Mg0 Mg8 3.521906 1_554
Mg0 Mg2 3.533534 1_555
Mg1 Mg10 3.234591 1_554
Mg1 Mg10 3.234591 1_454
Mg1 Mg5 3.380376 1_565
Mg1 Mg5 3.380376 1_465
Mg1 Mg8 3.521906 1_554
Mg1 Mg2 3.533534 1_565
Mg2 Mg4 3.269028 1_455
Mg2 Mg3 3.269028 1_445
Mg2 Mg3 3.269028 1_545
Mg2 Mg4 3.269028 1_555
Mg2 Mg5 3.297070 1_455
Mg2 Mg5 3.297070 1_555
Mg2 Mg6 3.521906 1_545
Mg2 Mg7 3.521906 1_555
Mg3 Mg6 3.234591 1_655
Mg3 Mg6 3.234591 1_555
Mg3 Mg5 3.579474 1_565
Mg4 Mg7 3.234591 1_555
Mg4 Mg7 3.234591 1_655
Mg4 Mg5 3.579474 1_555
Mg5 Mg9 3.493479 1_554
Mg6 Mg7 3.174788 1_565
Mg6 Mg8 3.533534 1_555
Mg7 Mg8 3.533534 1_555
Mg8 Mg9 3.269028 1_455
Mg8 Mg9 3.269028 1_555
Mg10 Mg8 3.269028 1_655
Mg10 Mg8 3.269028 1_555
Mg10 Mg5 3.493479 1_566
Mg10 Mg11 3.579474 1_555
Mg11 Mg8 3.297070 1_555
Mg11 Mg8 3.297070 1_655
Mg11 Mg6 3.380376 1_555
Mg11 Mg6 3.380376 1_655
Mg11 Mg7 3.380376 1_555
Mg11 Mg7 3.380376 1_655
Mg11 Mg4 3.493479 1_555
Mg11 Mg3 3.493479 1_555
Mg11 Mg9 3.579474 1_555
Cr0 Mg9 2.892553 1_554
Cr0 Mg10 2.892553 1_554
Cr0 Mg1 3.119834 1_655
Cr0 Mg0 3.119834 1_555
Cr0 Mg0 3.119834 1_655
Cr0 Mg1 3.119834 1_555
Cr0 Mg5 3.503327 1_555
Cr0 Mg5 3.503327 1_565
Cr0 Cs0 3.604132 1_655
Cr0 Cs0 3.604132 1_555
Cr1 Mg3 2.892553 1_545
Cr1 Mg4 2.892553 1_555
Cr1 Mg7 3.119834 1_555
Cr1 Mg7 3.119834 1_655
Cr1 Mg6 3.119834 1_645
Cr1 Mg6 3.119834 1_545
Cr1 Mg11 3.503327 1_555
Cr1 Mg11 3.503327 1_545
Cr1 Cs1 3.604132 1_655
Cr1 Cs1 3.604132 1_555
