# generated using pymatgen
data_CuH12C3S3BrN6
_symmetry_space_group_name_H-M   'P 1'
_cell_length_a   14.03919614
_cell_length_b   14.03919614
_cell_length_c   14.10838982
_cell_angle_alpha   90.00000000
_cell_angle_beta   90.00000000
_cell_angle_gamma   90.00000000
_symmetry_Int_Tables_number   1
_chemical_formula_structural   CuH12C3S3BrN6
_chemical_formula_sum   'Cu8 H96 C24 S24 Br8 N48'
_cell_volume   2780.74992380
_cell_formula_units_Z   8
loop_
 _symmetry_equiv_pos_site_id
 _symmetry_equiv_pos_as_xyz
  1  'x, y, z'
loop_
 _atom_site_type_symbol
 _atom_site_label
 _atom_site_symmetry_multiplicity
 _atom_site_fract_x
 _atom_site_fract_y
 _atom_site_fract_z
 _atom_site_occupancy
  Cu  Cu0  1  0.52793439  0.85184766  0.33391754  1
  Cu  Cu1  1  0.47206561  0.14815234  0.83391754  1
  Cu  Cu2  1  0.35184766  0.97206561  0.58391754  1
  Cu  Cu3  1  0.64815234  0.02793439  0.08391754  1
  Cu  Cu4  1  0.14815234  0.47206561  0.16608246  1
  Cu  Cu5  1  0.85184766  0.52793439  0.66608246  1
  Cu  Cu6  1  0.97206561  0.35184766  0.41608246  1
  Cu  Cu7  1  0.02793439  0.64815234  0.91608246  1
  H  H0  1  0.74550019  0.91736545  0.53933787  1
  H  H1  1  0.25449981  0.08263455  0.03933787  1
  H  H2  1  0.41736545  0.75449981  0.78933787  1
  H  H3  1  0.58263455  0.24550019  0.28933787  1
  H  H4  1  0.08263455  0.25449981  0.96066213  1
  H  H5  1  0.91736545  0.74550019  0.46066213  1
  H  H6  1  0.75449981  0.41736545  0.21066213  1
  H  H7  1  0.24550019  0.58263455  0.71066213  1
  H  H8  1  0.68172194  0.85250866  0.45091808  1
  H  H9  1  0.31827806  0.14749134  0.95091808  1
  H  H10  1  0.35250866  0.81827806  0.70091808  1
  H  H11  1  0.64749134  0.18172194  0.20091808  1
  H  H12  1  0.14749134  0.31827806  0.04908192  1
  H  H13  1  0.85250866  0.68172194  0.54908192  1
  H  H14  1  0.81827806  0.35250866  0.29908192  1
  H  H15  1  0.18172194  0.64749134  0.79908192  1
  H  H16  1  0.66934306  0.00012348  0.64919848  1
  H  H17  1  0.33065694  0.99987652  0.14919848  1
  H  H18  1  0.50012348  0.83065694  0.89919848  1
  H  H19  1  0.49987652  0.16934306  0.39919848  1
  H  H20  1  0.99987652  0.33065694  0.85080152  1
  H  H21  1  0.00012348  0.66934306  0.35080152  1
  H  H22  1  0.83065694  0.50012348  0.10080152  1
  H  H23  1  0.16934306  0.49987652  0.60080152  1
  H  H24  1  0.54383675  0.00556446  0.65412787  1
  H  H25  1  0.45616325  0.99443554  0.15412787  1
  H  H26  1  0.50556446  0.95616325  0.90412787  1
  H  H27  1  0.49443554  0.04383675  0.40412787  1
  H  H28  1  0.99443554  0.45616325  0.84587213  1
  H  H29  1  0.00556446  0.54383675  0.34587213  1
  H  H30  1  0.95616325  0.50556446  0.09587213  1
  H  H31  1  0.04383675  0.49443554  0.59587213  1
  H  H32  1  0.36157525  0.73256955  0.02176606  1
  H  H33  1  0.63842475  0.26743045  0.52176606  1
  H  H34  1  0.23256955  0.13842475  0.27176606  1
  H  H35  1  0.76743045  0.86157525  0.77176606  1
  H  H36  1  0.26743045  0.63842475  0.47823394  1
  H  H37  1  0.73256955  0.36157525  0.97823394  1
  H  H38  1  0.13842475  0.23256955  0.72823394  1
  H  H39  1  0.86157525  0.76743045  0.22823394  1
  H  H40  1  0.28131937  0.78916193  0.09915849  1
  H  H41  1  0.71868063  0.21083807  0.59915849  1
  H  H42  1  0.28916193  0.21868063  0.34915849  1
  H  H43  1  0.71083807  0.78131937  0.84915849  1
  H  H44  1  0.21083807  0.71868063  0.40084151  1
  H  H45  1  0.78916193  0.28131937  0.90084151  1
  H  H46  1  0.21868063  0.28916193  0.65084151  1
  H  H47  1  0.78131937  0.71083807  0.15084151  1
  H  H48  1  0.51285741  0.70306967  0.06536291  1
  H  H49  1  0.48714259  0.29693033  0.56536291  1
  H  H50  1  0.20306967  0.98714259  0.31536291  1
  H  H51  1  0.79693033  0.01285741  0.81536291  1
  H  H52  1  0.29693033  0.48714259  0.43463709  1
  H  H53  1  0.70306967  0.51285741  0.93463709  1
  H  H54  1  0.98714259  0.20306967  0.68463709  1
  H  H55  1  0.01285741  0.79693033  0.18463709  1
  H  H56  1  0.55329963  0.73389621  0.18065385  1
  H  H57  1  0.44670037  0.26610379  0.68065385  1
  H  H58  1  0.23389621  0.94670037  0.43065385  1
  H  H59  1  0.76610379  0.05329963  0.93065385  1
  H  H60  1  0.26610379  0.44670037  0.31934615  1
  H  H61  1  0.73389621  0.55329963  0.81934615  1
  H  H62  1  0.94670037  0.23389621  0.56934615  1
  H  H63  1  0.05329963  0.76610379  0.06934615  1
  H  H64  1  0.48253652  0.54929072  0.37597313  1
  H  H65  1  0.51746348  0.45070928  0.87597313  1
  H  H66  1  0.04929072  0.01746348  0.62597313  1
  H  H67  1  0.95070928  0.98253652  0.12597313  1
  H  H68  1  0.45070928  0.51746348  0.12402687  1
  H  H69  1  0.54929072  0.48253652  0.62402687  1
  H  H70  1  0.01746348  0.04929072  0.37402687  1
  H  H71  1  0.98253652  0.95070928  0.87402687  1
  H  H72  1  0.46207889  0.66818934  0.33875105  1
  H  H73  1  0.53792111  0.33181066  0.83875105  1
  H  H74  1  0.16818934  0.03792111  0.58875105  1
  H  H75  1  0.83181066  0.96207889  0.08875105  1
  H  H76  1  0.33181066  0.53792111  0.16124895  1
  H  H77  1  0.66818934  0.46207889  0.66124895  1
  H  H78  1  0.03792111  0.16818934  0.41124895  1
  H  H79  1  0.96207889  0.83181066  0.91124895  1
  H  H80  1  0.63013753  0.49481708  0.40010681  1
  H  H81  1  0.36986247  0.50518292  0.90010681  1
  H  H82  1  0.99481708  0.86986247  0.65010681  1
  H  H83  1  0.00518292  0.13013753  0.15010681  1
  H  H84  1  0.50518292  0.36986247  0.09989319  1
  H  H85  1  0.49481708  0.63013753  0.59989319  1
  H  H86  1  0.86986247  0.99481708  0.34989319  1
  H  H87  1  0.13013753  0.00518292  0.84989319  1
  H  H88  1  0.72976239  0.56985256  0.38896810  1
  H  H89  1  0.27023761  0.43014744  0.88896810  1
  H  H90  1  0.06985256  0.77023761  0.63896810  1
  H  H91  1  0.93014744  0.22976239  0.13896810  1
  H  H92  1  0.43014744  0.27023761  0.11103190  1
  H  H93  1  0.56985256  0.72976239  0.61103190  1
  H  H94  1  0.77023761  0.06985256  0.36103190  1
  H  H95  1  0.22976239  0.93014744  0.86103190  1
  C  C0  1  0.60048091  0.92832803  0.54397485  1
  C  C1  1  0.39951909  0.07167197  0.04397485  1
  C  C2  1  0.42832803  0.89951909  0.79397485  1
  C  C3  1  0.57167197  0.10048091  0.29397485  1
  C  C4  1  0.07167197  0.39951909  0.95602515  1
  C  C5  1  0.92832803  0.60048091  0.45602515  1
  C  C6  1  0.89951909  0.42832803  0.20602515  1
  C  C7  1  0.10048091  0.57167197  0.70602515  1
  C  C8  1  0.41510341  0.76790724  0.15248643  1
  C  C9  1  0.58489659  0.23209276  0.65248643  1
  C  C10  1  0.26790724  0.08489659  0.40248643  1
  C  C11  1  0.73209276  0.91510341  0.90248643  1
  C  C12  1  0.23209276  0.58489659  0.34751357  1
  C  C13  1  0.76790724  0.41510341  0.84751357  1
  C  C14  1  0.08489659  0.26790724  0.59751357  1
  C  C15  1  0.91510341  0.73209276  0.09751357  1
  C  C16  1  0.60114291  0.63225909  0.36057431  1
  C  C17  1  0.39885709  0.36774091  0.86057431  1
  C  C18  1  0.13225909  0.89885709  0.61057431  1
  C  C19  1  0.86774091  0.10114291  0.11057431  1
  C  C20  1  0.36774091  0.39885709  0.13942569  1
  C  C21  1  0.63225909  0.60114291  0.63942569  1
  C  C22  1  0.89885709  0.13225909  0.38942569  1
  C  C23  1  0.10114291  0.86774091  0.88942569  1
  S  S0  1  0.49234925  0.89732014  0.49305793  1
  S  S1  1  0.50765075  0.10267986  0.99305793  1
  S  S2  1  0.39732014  0.00765075  0.74305793  1
  S  S3  1  0.60267986  0.99234925  0.24305793  1
  S  S4  1  0.10267986  0.50765075  0.00694207  1
  S  S5  1  0.89732014  0.49234925  0.50694207  1
  S  S6  1  0.00765075  0.39732014  0.25694207  1
  S  S7  1  0.99234925  0.60267986  0.75694207  1
  S  S8  1  0.38841844  0.81777787  0.26053632  1
  S  S9  1  0.61158156  0.18222213  0.76053632  1
  S  S10  1  0.31777787  0.11158156  0.51053632  1
  S  S11  1  0.68222213  0.88841844  0.01053632  1
  S  S12  1  0.18222213  0.61158156  0.23946368  1
  S  S13  1  0.81777787  0.38841844  0.73946368  1
  S  S14  1  0.11158156  0.31777787  0.48946368  1
  S  S15  1  0.88841844  0.68222213  0.98946368  1
  S  S16  1  0.64907520  0.74041410  0.32725578  1
  S  S17  1  0.35092480  0.25958590  0.82725578  1
  S  S18  1  0.24041410  0.85092480  0.57725578  1
  S  S19  1  0.75958590  0.14907520  0.07725578  1
  S  S20  1  0.25958590  0.35092480  0.17274422  1
  S  S21  1  0.74041410  0.64907520  0.67274422  1
  S  S22  1  0.85092480  0.24041410  0.42274422  1
  S  S23  1  0.14907520  0.75958590  0.92274422  1
  Br  Br0  1  0.98324444  0.85395210  0.34674929  1
  Br  Br1  1  0.01675556  0.14604790  0.84674929  1
  Br  Br2  1  0.35395210  0.51675556  0.59674929  1
  Br  Br3  1  0.64604790  0.48324444  0.09674929  1
  Br  Br4  1  0.14604790  0.01675556  0.15325071  1
  Br  Br5  1  0.85395210  0.98324444  0.65325071  1
  Br  Br6  1  0.51675556  0.35395210  0.40325071  1
  Br  Br7  1  0.48324444  0.64604790  0.90325071  1
  N  N0  1  0.68276231  0.89959230  0.50596484  1
  N  N1  1  0.31723769  0.10040770  0.00596484  1
  N  N2  1  0.39959230  0.81723769  0.75596484  1
  N  N3  1  0.60040770  0.18276231  0.25596484  1
  N  N4  1  0.10040770  0.31723769  0.99403516  1
  N  N5  1  0.89959230  0.68276231  0.49403516  1
  N  N6  1  0.81723769  0.39959230  0.24403516  1
  N  N7  1  0.18276231  0.60040770  0.74403516  1
  N  N8  1  0.60438286  0.98156198  0.62205493  1
  N  N9  1  0.39561714  0.01843802  0.12205493  1
  N  N10  1  0.48156198  0.89561714  0.87205493  1
  N  N11  1  0.51843802  0.10438286  0.37205493  1
  N  N12  1  0.01843802  0.39561714  0.87794507  1
  N  N13  1  0.98156198  0.60438286  0.37794507  1
  N  N14  1  0.89561714  0.48156198  0.12794507  1
  N  N15  1  0.10438286  0.51843802  0.62794507  1
  N  N16  1  0.34714449  0.76360255  0.08558495  1
  N  N17  1  0.65285551  0.23639745  0.58558495  1
  N  N18  1  0.26360255  0.15285551  0.33558495  1
  N  N19  1  0.73639745  0.84714449  0.83558495  1
  N  N20  1  0.23639745  0.65285551  0.41441505  1
  N  N21  1  0.76360255  0.34714449  0.91441505  1
  N  N22  1  0.15285551  0.26360255  0.66441505  1
  N  N23  1  0.84714449  0.73639745  0.16441505  1
  N  N24  1  0.50039921  0.73189584  0.13124474  1
  N  N25  1  0.49960079  0.26810416  0.63124474  1
  N  N26  1  0.23189584  0.99960079  0.38124474  1
  N  N27  1  0.76810416  0.00039921  0.88124474  1
  N  N28  1  0.26810416  0.49960079  0.36875526  1
  N  N29  1  0.73189584  0.50039921  0.86875526  1
  N  N30  1  0.99960079  0.23189584  0.61875526  1
  N  N31  1  0.00039921  0.76810416  0.11875526  1
  N  N32  1  0.50758129  0.61576740  0.36011585  1
  N  N33  1  0.49241871  0.38423260  0.86011585  1
  N  N34  1  0.11576740  0.99241871  0.61011585  1
  N  N35  1  0.88423260  0.00758129  0.11011585  1
  N  N36  1  0.38423260  0.49241871  0.13988415  1
  N  N37  1  0.61576740  0.50758129  0.63988415  1
  N  N38  1  0.99241871  0.11576740  0.38988415  1
  N  N39  1  0.00758129  0.88423260  0.88988415  1
  N  N40  1  0.65837657  0.56081771  0.38682063  1
  N  N41  1  0.34162343  0.43918229  0.88682063  1
  N  N42  1  0.06081771  0.84162343  0.63682063  1
  N  N43  1  0.93918229  0.15837657  0.13682063  1
  N  N44  1  0.43918229  0.34162343  0.11317937  1
  N  N45  1  0.56081771  0.65837657  0.61317937  1
  N  N46  1  0.84162343  0.06081771  0.36317937  1
  N  N47  1  0.15837657  0.93918229  0.86317937  1
loop_
_geom_bond_atom_site_label_1
_geom_bond_atom_site_label_2
_geom_bond_distance
_geom_bond_site_symmetry_2
Cu0 S8 2.266514 1_555
Cu0 S16 2.312736 1_555
Cu0 S0 2.387075 1_555
Cu0 S3 2.575901 1_555
Cu1 S9 2.266514 1_555
Cu1 S17 2.312736 1_555
Cu1 S1 2.387075 1_555
Cu1 S2 2.575901 1_555
Cu2 S10 2.266514 1_565
Cu2 S18 2.312736 1_555
Cu2 S2 2.387075 1_565
Cu2 S0 2.575901 1_555
Cu3 S11 2.266514 1_545
Cu3 S19 2.312736 1_555
Cu3 S3 2.387075 1_545
Cu3 S1 2.575901 1_554
Cu4 S12 2.266514 1_555
Cu4 S20 2.312736 1_555
Cu4 S4 2.387075 1_555
Cu4 S6 2.575901 1_555
Cu5 S13 2.266514 1_555
Cu5 S21 2.312736 1_555
Cu5 S5 2.387075 1_555
Cu5 S7 2.575901 1_555
Cu6 S14 2.266514 1_655
Cu6 S22 2.312736 1_555
Cu6 S6 2.387075 1_655
Cu6 S5 2.575901 1_555
Cu7 S15 2.266514 1_455
Cu7 S23 2.312736 1_555
Cu7 S7 2.387075 1_455
Cu7 S4 2.575901 1_556
H0 N0 1.029437 1_555
H1 N1 1.029437 1_555
H2 N2 1.029437 1_555
H3 N3 1.029437 1_555
H4 N4 1.029437 1_555
H5 N5 1.029437 1_555
H6 N6 1.029437 1_555
H7 N7 1.029437 1_555
H8 N0 1.019949 1_555
H9 N1 1.019949 1_556
H10 N2 1.019949 1_555
H11 N3 1.019949 1_555
H12 N4 1.019949 1_554
H13 N5 1.019949 1_555
H14 N6 1.019949 1_555
H15 N7 1.019949 1_555
H16 N8 1.022879 1_545
H17 N9 1.022879 1_565
H18 N10 1.022879 1_555
H19 N11 1.022879 1_555
H20 N12 1.022879 1_655
H21 N13 1.022879 1_455
H22 N14 1.022879 1_555
H23 N15 1.022879 1_555
H24 N8 1.020215 1_545
H25 N9 1.020215 1_565
H26 N10 1.020215 1_555
H27 N11 1.020215 1_555
H28 N12 1.020215 1_655
H29 N13 1.020215 1_455
H30 N14 1.020215 1_555
H31 N15 1.020215 1_555
H32 N16 1.020563 1_555
H33 N17 1.020563 1_555
H34 N18 1.020563 1_555
H35 N19 1.020563 1_555
H36 N20 1.020563 1_555
H37 N21 1.020563 1_555
H38 N22 1.020563 1_555
H39 N23 1.020563 1_555
H40 N16 1.009680 1_555
H41 N17 1.009680 1_555
H42 N18 1.009680 1_555
H43 N19 1.009680 1_555
H44 N20 1.009680 1_555
H45 N21 1.009680 1_555
H46 N22 1.009680 1_555
H47 N23 1.009680 1_555
H48 N24 1.028745 1_555
H49 N25 1.028745 1_555
H50 N26 1.028745 1_555
H51 N27 1.028745 1_555
H52 N28 1.028745 1_555
H53 N29 1.028745 1_555
H54 N30 1.028745 1_555
H55 N31 1.028745 1_555
H56 N24 1.018963 1_555
H57 N25 1.018963 1_555
H58 N26 1.018963 1_555
H59 N27 1.018963 1_555
H60 N28 1.018963 1_555
H61 N29 1.018963 1_555
H62 N30 1.018963 1_555
H63 N31 1.018963 1_555
H64 N32 1.022100 1_555
H65 N33 1.022100 1_555
H66 N34 1.022100 1_545
H67 N35 1.022100 1_565
H68 N36 1.022100 1_555
H69 N37 1.022100 1_555
H70 N38 1.022100 1_455
H71 N39 1.022100 1_655
H72 N32 1.020090 1_555
H73 N33 1.020090 1_555
H74 N34 1.020090 1_545
H75 N35 1.020090 1_565
H76 N36 1.020090 1_555
H77 N37 1.020090 1_555
H78 N38 1.020090 1_455
H79 N39 1.020090 1_655
H80 N40 1.025130 1_555
H81 N41 1.025130 1_555
H82 N42 1.025130 1_655
H83 N43 1.025130 1_455
H84 N44 1.025130 1_555
H85 N45 1.025130 1_555
H86 N46 1.025130 1_565
H87 N47 1.025130 1_545
H88 N40 1.010649 1_555
H89 N41 1.010649 1_555
H90 N42 1.010649 1_555
H91 N43 1.010649 1_555
H92 N44 1.010649 1_555
H93 N45 1.010649 1_555
H94 N46 1.010649 1_555
H95 N47 1.010649 1_555
C0 N8 1.332306 1_555
C0 N0 1.335939 1_555
C0 S0 1.734968 1_555
C1 N9 1.332306 1_555
C1 N1 1.335939 1_555
C1 S1 1.734968 1_554
C2 N10 1.332306 1_555
C2 N2 1.335939 1_555
C2 S2 1.734968 1_565
C3 N11 1.332306 1_555
C3 N3 1.335939 1_555
C3 S3 1.734968 1_545
C4 N12 1.332306 1_555
C4 N4 1.335939 1_555
C4 S4 1.734968 1_556
C5 N13 1.332306 1_555
C5 N5 1.335939 1_555
C5 S5 1.734968 1_555
C6 N14 1.332306 1_555
C6 N6 1.335939 1_555
C6 S6 1.734968 1_655
C7 N15 1.332306 1_555
C7 N7 1.335939 1_555
C7 S7 1.734968 1_455
C8 N24 1.333935 1_555
C8 N16 1.343440 1_555
C8 S8 1.718831 1_555
C9 N25 1.333935 1_555
C9 N17 1.343440 1_555
C9 S9 1.718831 1_555
C10 N26 1.333935 1_545
C10 N18 1.343440 1_555
C10 S10 1.718831 1_555
C11 N27 1.333935 1_565
C11 N19 1.343440 1_555
C11 S11 1.718831 1_556
C12 N28 1.333935 1_555
C12 N20 1.343440 1_555
C12 S12 1.718831 1_555
C13 N29 1.333935 1_555
C13 N21 1.343440 1_555
C13 S13 1.718831 1_555
C14 N30 1.333935 1_455
C14 N22 1.343440 1_555
C14 S14 1.718831 1_555
C15 N31 1.333935 1_655
C15 N23 1.343440 1_555
C15 S15 1.718831 1_554
C16 N32 1.333795 1_555
C16 N40 1.337431 1_555
C16 S16 1.726085 1_555
C17 N33 1.333795 1_555
C17 N41 1.337431 1_555
C17 S17 1.726085 1_555
C18 N34 1.333795 1_555
C18 N42 1.337431 1_555
C18 S18 1.726085 1_555
C19 N35 1.333795 1_555
C19 N43 1.337431 1_555
C19 S19 1.726085 1_555
C20 N36 1.333795 1_555
C20 N44 1.337431 1_555
C20 S20 1.726085 1_555
C21 N37 1.333795 1_555
C21 N45 1.337431 1_555
C21 S21 1.726085 1_555
C22 N38 1.333795 1_555
C22 N46 1.337431 1_555
C22 S22 1.726085 1_555
C23 N39 1.333795 1_555
C23 N47 1.337431 1_555
C23 S23 1.726085 1_555
