# generated using pymatgen
data_LiBH4
_symmetry_space_group_name_H-M   'P 1'
_cell_length_a   3.96361700
_cell_length_b   3.96361700
_cell_length_c   6.39516700
_cell_angle_alpha   90.00000000
_cell_angle_beta   90.00000000
_cell_angle_gamma   90.53861534
_symmetry_Int_Tables_number   1
_chemical_formula_structural   LiBH4
_chemical_formula_sum   'Li2 B2 H8'
_cell_volume   100.46529532
_cell_formula_units_Z   2
loop_
 _symmetry_equiv_pos_site_id
 _symmetry_equiv_pos_as_xyz
  1  'x, y, z'
loop_
 _atom_site_type_symbol
 _atom_site_label
 _atom_site_symmetry_multiplicity
 _atom_site_fract_x
 _atom_site_fract_y
 _atom_site_fract_z
 _atom_site_occupancy
  Li  Li0  1  0.00548100  0.00548100  0.50000000  1
  Li  Li1  1  0.00548100  0.00548100  0.00000000  1
  B  B0  1  0.51474900  0.98126400  0.75000000  1
  B  B1  1  0.98126400  0.51474900  0.25000000  1
  H  H0  1  0.52733000  0.16322500  0.59483600  1
  H  H1  1  0.16322500  0.52733000  0.40516400  1
  H  H2  1  0.52733000  0.16322500  0.90516400  1
  H  H3  1  0.16322500  0.52733000  0.09483600  1
  H  H4  1  0.73891100  0.77324500  0.75000000  1
  H  H5  1  0.77324500  0.73891100  0.25000000  1
  H  H6  1  0.25641400  0.81094600  0.75000000  1
  H  H7  1  0.81094600  0.25641400  0.25000000  1
loop_
_geom_bond_atom_site_label_1
_geom_bond_atom_site_label_2
_geom_bond_distance
_geom_bond_site_symmetry_2
B0 H4 1.217787 1_555
B0 H6 1.221141 1_555
B0 H2 1.227450 1_565
B0 H0 1.227450 1_565
B1 H5 1.217787 1_555
B1 H7 1.221141 1_555
B1 H1 1.227450 1_655
B1 H3 1.227450 1_655
H0 Li0 2.091134 1_655
H0 Li0 2.238919 1_555
H1 Li0 2.091134 1_565
H1 Li0 2.238919 1_555
H2 Li1 2.091134 1_656
H2 Li1 2.238919 1_556
H3 Li1 2.091134 1_565
H3 Li1 2.238919 1_555
H4 Li1 2.121680 1_666
H4 Li0 2.121680 1_665
H5 Li0 2.121680 1_665
H5 Li1 2.121680 1_665
H6 Li0 2.038216 1_565
H6 Li1 2.038216 1_566
H7 Li1 2.038216 1_655
H7 Li0 2.038216 1_655
