# generated using pymatgen
data_Li4MnCo2O7
_symmetry_space_group_name_H-M   'P 1'
_cell_length_a   5.89666000
_cell_length_b   6.51843629
_cell_length_c   7.68062414
_cell_angle_alpha   65.31350713
_cell_angle_beta   68.20040785
_cell_angle_gamma   75.94560817
_symmetry_Int_Tables_number   1
_chemical_formula_structural   Li4MnCo2O7
_chemical_formula_sum   'Li8 Mn2 Co4 O14'
_cell_volume   247.70610878
_cell_formula_units_Z   2
loop_
 _symmetry_equiv_pos_site_id
 _symmetry_equiv_pos_as_xyz
  1  'x, y, z'
loop_
 _atom_site_type_symbol
 _atom_site_label
 _atom_site_symmetry_multiplicity
 _atom_site_fract_x
 _atom_site_fract_y
 _atom_site_fract_z
 _atom_site_occupancy
  Li  Li0  1  0.64198900  0.28571000  0.07383600  1
  Li  Li1  1  0.92836300  0.86050400  0.21834500  1
  Li  Li2  1  0.20663000  0.41558000  0.36858300  1
  Li  Li3  1  0.50000000  0.00000000  0.50000000  1
  Li  Li4  1  0.79337000  0.58442000  0.63141700  1
  Li  Li5  1  0.07163700  0.13949600  0.78165500  1
  Li  Li6  1  0.35801100  0.71429000  0.92616400  1
  Li  Li7  1  0.00000000  0.00000000  0.50000000  1
  Mn  Mn0  1  0.85979600  0.71512500  0.92496800  1
  Mn  Mn1  1  0.14020400  0.28487500  0.07503200  1
  Co  Co0  1  0.41559900  0.85726400  0.22662600  1
  Co  Co1  1  0.71389300  0.43002300  0.35866000  1
  Co  Co2  1  0.28610700  0.56997700  0.64134000  1
  Co  Co3  1  0.58440100  0.14273600  0.77337400  1
  O  O0  1  0.96143500  0.43396400  0.87289300  1
  O  O1  1  0.25191800  0.01852400  0.00345700  1
  O  O2  1  0.57087500  0.58193500  0.13983800  1
  O  O3  1  0.84024600  0.16908600  0.27720200  1
  O  O4  1  0.14030100  0.71007300  0.42490700  1
  O  O5  1  0.38649300  0.29670900  0.57723200  1
  O  O6  1  0.67881000  0.84682000  0.73445000  1
  O  O7  1  0.32119000  0.15318000  0.26555000  1
  O  O8  1  0.61350700  0.70329100  0.42276800  1
  O  O9  1  0.85969900  0.28992700  0.57509300  1
  O  O10  1  0.15975400  0.83091400  0.72279800  1
  O  O11  1  0.42912500  0.41806500  0.86016200  1
  O  O12  1  0.74808200  0.98147600  0.99654300  1
  O  O13  1  0.03856500  0.56603600  0.12710700  1
loop_
_geom_bond_atom_site_label_1
_geom_bond_atom_site_label_2
_geom_bond_distance
_geom_bond_site_symmetry_2
Li0 O7 2.038422 1_555
Li0 O3 2.077766 1_555
Li0 O0 2.084013 1_554
Li0 O2 2.104232 1_555
Li0 O12 2.186690 1_544
Li0 O11 2.198752 1_554
Li1 O8 2.092208 1_555
Li1 O12 2.114213 1_554
Li1 O3 2.144255 1_565
Li1 O4 2.149033 1_655
Li1 O1 2.149590 1_665
Li1 O13 2.185694 1_655
Li2 O5 2.029638 1_555
Li2 O7 2.044650 1_555
Li2 O4 2.056322 1_555
Li2 O9 2.165718 1_455
Li2 O13 2.181179 1_555
Li2 O2 2.369151 1_555
Li3 O8 2.138980 1_545
Li3 O5 2.138980 1_555
Li3 O7 2.179052 1_555
Li3 O6 2.179052 1_545
Li3 O3 2.262076 1_555
Li3 O10 2.262076 1_545
Li4 O8 2.029638 1_555
Li4 O6 2.044650 1_555
Li4 O9 2.056322 1_555
Li4 O4 2.165718 1_655
Li4 O0 2.181179 1_555
Li4 O11 2.369151 1_555
Li5 O5 2.092208 1_555
Li5 O1 2.114213 1_556
Li5 O10 2.144255 1_545
Li5 O9 2.149033 1_455
Li5 O12 2.149590 1_445
Li5 O0 2.185694 1_455
Li6 O6 2.038422 1_555
Li6 O10 2.077766 1_555
Li6 O13 2.084013 1_556
Li6 O11 2.104232 1_555
Li6 O1 2.186690 1_566
Li6 O2 2.198752 1_556
Li7 O10 2.036673 1_545
Li7 O3 2.036673 1_455
Li7 O9 2.094140 1_455
Li7 O4 2.094140 1_545
Li7 O6 2.170296 1_445
Li7 O7 2.170296 1_555
Mn0 O6 1.919048 1_555
Mn0 O12 1.929594 1_555
Mn0 O10 1.933607 1_655
Mn0 O0 1.943928 1_555
Mn0 O2 1.952727 1_556
Mn0 O13 1.980846 1_656
Mn1 O7 1.919048 1_555
Mn1 O1 1.929594 1_555
Mn1 O3 1.933607 1_455
Mn1 O13 1.943928 1_555
Mn1 O11 1.952727 1_554
Mn1 O0 1.980846 1_454
Co0 O4 1.890725 1_555
Co0 O7 1.989102 1_565
Co0 O8 2.027964 1_555
Co0 O1 2.050736 1_565
Co0 O2 2.061933 1_555
Co0 O12 2.150521 1_554
Co1 O9 1.936147 1_555
Co1 O3 1.940826 1_555
Co1 O8 1.941608 1_555
Co1 O2 1.942531 1_555
Co1 O5 2.118867 1_555
Co1 O13 2.143053 1_655
Co2 O4 1.936147 1_555
Co2 O10 1.940826 1_555
Co2 O5 1.941608 1_555
Co2 O11 1.942531 1_555
Co2 O8 2.118867 1_555
Co2 O0 2.143053 1_455
Co3 O9 1.890725 1_555
Co3 O6 1.989102 1_545
Co3 O5 2.027964 1_555
Co3 O12 2.050736 1_545
Co3 O11 2.061933 1_555
Co3 O1 2.150521 1_556
