# generated using pymatgen
data_La6TaGa11O28
_symmetry_space_group_name_H-M   'P 1'
_cell_length_a   9.80066342
_cell_length_b   9.80066342
_cell_length_c   10.35494918
_cell_angle_alpha   58.10125322
_cell_angle_beta   58.10125322
_cell_angle_gamma   50.24289868
_symmetry_Int_Tables_number   1
_chemical_formula_structural   La6TaGa11O28
_chemical_formula_sum   'La6 Ta1 Ga11 O28'
_cell_volume   620.89719176
_cell_formula_units_Z   1
loop_
 _symmetry_equiv_pos_site_id
 _symmetry_equiv_pos_as_xyz
  1  'x, y, z'
loop_
 _atom_site_type_symbol
 _atom_site_label
 _atom_site_symmetry_multiplicity
 _atom_site_fract_x
 _atom_site_fract_y
 _atom_site_fract_z
 _atom_site_occupancy
  La  La0  1  0.57970600  0.00142700  0.20923700  1
  La  La1  1  0.57118700  0.99868800  0.71527100  1
  La  La2  1  0.41932100  0.58067900  0.00000000  1
  La  La3  1  0.42971800  0.57028200  0.50000000  1
  La  La4  1  0.99857300  0.42029400  0.79076300  1
  La  La5  1  0.00131200  0.42881300  0.28472900  1
  Ta  Ta0  1  0.99998100  0.00001900  0.50000000  1
  Ga  Ga0  1  0.24078000  0.99949500  0.63451600  1
  Ga  Ga1  1  0.24057000  0.00050400  0.12481400  1
  Ga  Ga2  1  0.75851400  0.23993300  0.24527000  1
  Ga  Ga3  1  0.76006700  0.24148600  0.75473000  1
  Ga  Ga4  1  0.00050500  0.75922000  0.36548400  1
  Ga  Ga5  1  0.99949600  0.75943000  0.87518600  1
  Ga  Ga6  1  0.33320600  0.33092900  0.40296300  1
  Ga  Ga7  1  0.33342100  0.33576000  0.89988300  1
  Ga  Ga8  1  0.66907100  0.66679400  0.59703700  1
  Ga  Ga9  1  0.66424000  0.66657900  0.10011700  1
  Ga  Ga10  1  0.00013000  0.99987000  0.00000000  1
  O  O0  1  0.85490700  0.69123900  0.57556900  1
  O  O1  1  0.85224900  0.68800400  0.07902700  1
  O  O2  1  0.45911200  0.85298500  0.69304000  1
  O  O3  1  0.45442500  0.85408900  0.19449600  1
  O  O4  1  0.68892200  0.45942500  0.77507500  1
  O  O5  1  0.69023900  0.45426400  0.27640200  1
  O  O6  1  0.14701500  0.54088800  0.30696000  1
  O  O7  1  0.14591100  0.54557500  0.80550400  1
  O  O8  1  0.30876100  0.14509300  0.42443100  1
  O  O9  1  0.31199600  0.14775100  0.92097300  1
  O  O10  1  0.54057500  0.31107800  0.22492500  1
  O  O11  1  0.54573600  0.30976100  0.72359800  1
  O  O12  1  0.33574700  0.33267100  0.57669300  1
  O  O13  1  0.33088300  0.33403100  0.07804700  1
  O  O14  1  0.66732900  0.66425300  0.42330700  1
  O  O15  1  0.66596900  0.66911700  0.92195300  1
  O  O16  1  0.85489200  0.92500700  0.23004500  1
  O  O17  1  0.85984400  0.91979400  0.72655100  1
  O  O18  1  0.22036600  0.85983900  0.57630700  1
  O  O19  1  0.22018600  0.85479600  0.08252200  1
  O  O20  1  0.91946300  0.22060600  0.54619600  1
  O  O21  1  0.92555600  0.21983500  0.04760200  1
  O  O22  1  0.14016100  0.77963400  0.42369300  1
  O  O23  1  0.14520400  0.77981400  0.91747800  1
  O  O24  1  0.07499300  0.14510800  0.76995500  1
  O  O25  1  0.08020600  0.14015600  0.27344900  1
  O  O26  1  0.77939400  0.08053700  0.45380400  1
  O  O27  1  0.78016500  0.07444400  0.95239800  1
loop_
_geom_bond_atom_site_label_1
_geom_bond_atom_site_label_2
_geom_bond_distance
_geom_bond_site_symmetry_2
La0 O27 2.389550 1_554
La0 O16 2.396066 1_545
La0 O8 2.505860 1_555
La0 O3 2.512940 1_545
La0 O13 2.659267 1_555
La0 O14 2.685457 1_545
La0 O10 2.889619 1_555
La0 O1 2.909401 1_545
La1 O2 2.433004 1_555
La1 O9 2.438801 1_565
La1 O17 2.463899 1_555
La1 O26 2.469290 1_565
La1 O15 2.614160 1_555
La1 O12 2.640526 1_565
La1 O0 2.922795 1_555
La1 O11 2.940538 1_565
La2 O23 2.390366 1_554
La2 O19 2.390366 1_555
La2 O10 2.494686 1_555
La2 O4 2.494686 1_554
La2 O13 2.668853 1_555
La2 O15 2.668853 1_554
La2 O6 2.904108 1_555
La2 O2 2.904108 1_554
La3 O11 2.448287 1_555
La3 O5 2.448287 1_555
La3 O22 2.469089 1_555
La3 O18 2.469089 1_555
La3 O12 2.630155 1_555
La3 O14 2.630155 1_555
La3 O7 2.924984 1_555
La3 O3 2.924984 1_555
La4 O21 2.389550 1_556
La4 O24 2.396066 1_655
La4 O0 2.505860 1_555
La4 O7 2.512940 1_655
La4 O15 2.659267 1_555
La4 O12 2.685457 1_655
La4 O4 2.889619 1_555
La4 O9 2.909401 1_655
La5 O6 2.433004 1_555
La5 O1 2.438801 1_455
La5 O25 2.463899 1_555
La5 O20 2.469290 1_455
La5 O13 2.614160 1_555
La5 O14 2.640526 1_455
La5 O8 2.922795 1_555
La5 O5 2.940538 1_455
Ga0 O24 1.839737 1_565
Ga0 O2 1.878466 1_555
Ga0 O8 1.901617 1_565
Ga0 O18 1.904294 1_555
Ga1 O19 1.840997 1_545
Ga1 O9 1.881301 1_554
Ga1 O3 1.905198 1_545
Ga1 O25 1.905436 1_555
Ga2 O21 1.838685 1_555
Ga2 O10 1.873018 1_555
Ga2 O26 1.907402 1_555
Ga2 O5 1.911537 1_555
Ga3 O27 1.838685 1_555
Ga3 O4 1.873018 1_555
Ga3 O20 1.907402 1_555
Ga3 O11 1.911537 1_555
Ga4 O16 1.839737 1_455
Ga4 O6 1.878466 1_555
Ga4 O0 1.901617 1_455
Ga4 O22 1.904294 1_555
Ga5 O23 1.840997 1_655
Ga5 O1 1.881301 1_556
Ga5 O7 1.905198 1_655
Ga5 O17 1.905436 1_555
Ga6 O12 1.821411 1_555
Ga6 O10 1.865646 1_555
Ga6 O8 1.870280 1_555
Ga6 O6 1.872121 1_555
Ga7 O13 1.823043 1_556
Ga7 O7 1.871221 1_555
Ga7 O9 1.873007 1_555
Ga7 O11 1.877776 1_555
Ga8 O14 1.821411 1_555
Ga8 O4 1.865646 1_555
Ga8 O0 1.870280 1_555
Ga8 O2 1.872121 1_555
Ga9 O15 1.823043 1_554
Ga9 O3 1.871221 1_555
Ga9 O1 1.873007 1_555
Ga9 O5 1.877776 1_555
Ga10 O16 2.035715 1_455
Ga10 O24 2.035715 1_564
Ga10 O19 2.035821 1_555
Ga10 O23 2.035821 1_554
Ga10 O21 2.037546 1_465
Ga10 O27 2.037546 1_464
O17 Ta0 2.008648 1_565
O18 Ta0 2.009468 1_465
O20 Ta0 2.009289 1_555
O22 Ta0 2.009468 1_465
O25 Ta0 2.008648 1_455
O26 Ta0 2.009289 1_555
