# generated using pymatgen
data_CsNaC2
_symmetry_space_group_name_H-M   'P 1'
_cell_length_a   6.67457500
_cell_length_b   6.96186400
_cell_length_c   8.43259000
_cell_angle_alpha   90.00000000
_cell_angle_beta   90.00000000
_cell_angle_gamma   90.00000000
_symmetry_Int_Tables_number   1
_chemical_formula_structural   CsNaC2
_chemical_formula_sum   'Cs4 Na4 C8'
_cell_volume   391.84123591
_cell_formula_units_Z   4
loop_
 _symmetry_equiv_pos_site_id
 _symmetry_equiv_pos_as_xyz
  1  'x, y, z'
loop_
 _atom_site_type_symbol
 _atom_site_label
 _atom_site_symmetry_multiplicity
 _atom_site_fract_x
 _atom_site_fract_y
 _atom_site_fract_z
 _atom_site_occupancy
  Cs  Cs0  1  0.75000000  0.53357200  0.65701300  1
  Cs  Cs1  1  0.25000000  0.46642800  0.34298700  1
  Cs  Cs2  1  0.25000000  0.96642800  0.65701300  1
  Cs  Cs3  1  0.75000000  0.03357200  0.34298700  1
  Na  Na0  1  0.50000000  0.75000000  0.03101200  1
  Na  Na1  1  0.00000000  0.25000000  0.96898800  1
  Na  Na2  1  0.50000000  0.25000000  0.96898800  1
  Na  Na3  1  0.00000000  0.75000000  0.03101200  1
  C  C0  1  0.75000000  0.55751800  0.24858400  1
  C  C1  1  0.25000000  0.44248200  0.75141600  1
  C  C2  1  0.25000000  0.94248200  0.24858400  1
  C  C3  1  0.75000000  0.05751800  0.75141600  1
  C  C4  1  0.75000000  0.45924300  0.12222900  1
  C  C5  1  0.25000000  0.54075700  0.87777100  1
  C  C6  1  0.25000000  0.04075700  0.12222900  1
  C  C7  1  0.75000000  0.95924300  0.87777100  1
loop_
_geom_bond_atom_site_label_1
_geom_bond_atom_site_label_2
_geom_bond_distance
_geom_bond_site_symmetry_2
C0 C4 1.266250 1_555
C0 Na0 2.818895 1_555
C0 Na3 2.818895 1_655
C0 Cs3 3.408488 1_565
C0 Cs0 3.448147 1_555
C0 Cs1 3.489034 1_655
C0 Cs1 3.489034 1_555
C1 C5 1.266250 1_555
C1 Na1 2.818895 1_555
C1 Na2 2.818895 1_555
C1 Cs2 3.408488 1_545
C1 Cs1 3.448147 1_555
C1 Cs0 3.489034 1_555
C1 Cs0 3.489034 1_455
C2 C6 1.266250 1_565
C2 Na3 2.818895 1_555
C2 Na0 2.818895 1_555
C2 Cs1 3.408488 1_555
C2 Cs2 3.448147 1_555
C2 Cs3 3.489034 1_565
C2 Cs3 3.489034 1_465
C3 C7 1.266250 1_545
C3 Na2 2.818895 1_555
C3 Na1 2.818895 1_655
C3 Cs0 3.408488 1_555
C3 Cs3 3.448147 1_555
C3 Cs2 3.489034 1_645
C3 Cs2 3.489034 1_545
C4 Na2 2.564418 1_554
C4 Na1 2.564418 1_654
C4 Na0 2.733763 1_555
C4 Na3 2.733763 1_655
C4 Cs3 3.499647 1_555
C5 Na0 2.564418 1_556
C5 Na3 2.564418 1_556
C5 Na2 2.733763 1_555
C5 Na1 2.733763 1_555
C5 Cs2 3.499647 1_555
C6 Na2 2.564418 1_554
C6 Na1 2.564418 1_554
C6 Na3 2.733763 1_545
C6 Na0 2.733763 1_545
C6 Cs1 3.499647 1_555
C7 Na3 2.564418 1_656
C7 Na0 2.564418 1_556
C7 Na1 2.733763 1_665
C7 Na2 2.733763 1_565
C7 Cs0 3.499647 1_555
