# generated using pymatgen
data_NbFeNi(O2F)2
_symmetry_space_group_name_H-M   'P 1'
_cell_length_a   3.17024200
_cell_length_b   7.42267424
_cell_length_c   17.86689756
_cell_angle_alpha   130.42889013
_cell_angle_beta   90.00000000
_cell_angle_gamma   90.00000000
_symmetry_Int_Tables_number   1
_chemical_formula_structural   NbFeNi(O2F)2
_chemical_formula_sum   'Nb2 Fe2 Ni2 O8 F4'
_cell_volume   320.04220470
_cell_formula_units_Z   2
loop_
 _symmetry_equiv_pos_site_id
 _symmetry_equiv_pos_as_xyz
  1  'x, y, z'
loop_
 _atom_site_type_symbol
 _atom_site_label
 _atom_site_symmetry_multiplicity
 _atom_site_fract_x
 _atom_site_fract_y
 _atom_site_fract_z
 _atom_site_occupancy
  Nb  Nb0  1  0.50000000  0.43844600  0.12449100  1
  Nb  Nb1  1  0.50000000  0.56056800  0.54028400  1
  Fe  Fe0  1  0.00000000  0.00459100  0.33020800  1
  Fe  Fe1  1  0.00000000  0.04996400  0.69001100  1
  Ni  Ni0  1  0.00000000  0.96145700  0.98204300  1
  Ni  Ni1  1  0.50000000  0.49739300  0.83671700  1
  O  O0  1  0.00000000  0.69096500  0.22381500  1
  O  O1  1  0.00000000  0.27452600  0.12926900  1
  O  O2  1  0.00000000  0.73878700  0.54276600  1
  O  O3  1  0.00000000  0.32112400  0.43954800  1
  O  O4  1  0.50000000  0.20423000  0.69530700  1
  O  O5  1  0.50000000  0.81588400  0.67439100  1
  O  O6  1  0.50000000  0.17740200  0.99175900  1
  O  O7  1  0.50000000  0.79397200  0.97045200  1
  F  F0  1  0.00000000  0.66982800  0.83122500  1
  F  F1  1  0.00000000  0.31283400  0.83966300  1
  F  F2  1  0.50000000  0.63935900  0.09143700  1
  F  F3  1  0.50000000  0.34867200  0.56661400  1
loop_
_geom_bond_atom_site_label_1
_geom_bond_atom_site_label_2
_geom_bond_distance
_geom_bond_site_symmetry_2
Nb0 O6 1.848942 1_554
Nb0 O1 2.033479 1_555
Nb0 O1 2.033479 1_655
Nb0 O0 2.204746 1_655
Nb0 O0 2.204746 1_555
Nb1 O5 1.855572 1_555
Nb1 O2 2.046571 1_555
Nb1 O2 2.046571 1_655
Nb1 O3 2.182179 1_555
Nb1 O3 2.182179 1_655
Fe0 O0 1.814731 1_545
Fe0 O3 1.839423 1_555
Fe1 O4 1.921512 1_455
Fe1 O4 1.921512 1_555
Fe1 O2 2.091613 1_545
Fe1 O5 2.231698 1_445
Fe1 O5 2.231698 1_545
Ni0 O7 1.940898 1_455
Ni0 O7 1.940898 1_555
Ni0 O1 2.095527 1_566
Ni0 O6 2.179702 1_465
Ni0 O6 2.179702 1_565
Ni1 O7 1.932141 1_555
Ni1 O4 1.996961 1_555
F0 Ni1 2.079267 1_455
F0 Ni1 2.079267 1_555
F0 Ni0 2.093191 1_555
F1 Fe1 2.046898 1_555
F1 Ni1 2.117920 1_555
F1 Ni1 2.117920 1_455
F2 Nb0 1.927459 1_555
F3 Nb1 1.911753 1_555
