# generated using pymatgen
data_KSn3
_symmetry_space_group_name_H-M   'P 1'
_cell_length_a   7.53791851
_cell_length_b   7.53791851
_cell_length_c   5.44559063
_cell_angle_alpha   90.00000000
_cell_angle_beta   90.00000000
_cell_angle_gamma   120.00001028
_symmetry_Int_Tables_number   1
_chemical_formula_structural   KSn3
_chemical_formula_sum   'K2 Sn6'
_cell_volume   267.96523485
_cell_formula_units_Z   2
loop_
 _symmetry_equiv_pos_site_id
 _symmetry_equiv_pos_as_xyz
  1  'x, y, z'
loop_
 _atom_site_type_symbol
 _atom_site_label
 _atom_site_symmetry_multiplicity
 _atom_site_fract_x
 _atom_site_fract_y
 _atom_site_fract_z
 _atom_site_occupancy
  K  K0  1  0.33333300  0.66666700  0.75000000  1
  K  K1  1  0.66666700  0.33333300  0.25000000  1
  Sn  Sn0  1  0.13462396  0.26924792  0.25000000  1
  Sn  Sn1  1  0.73075208  0.86537604  0.25000000  1
  Sn  Sn2  1  0.13462396  0.86537604  0.25000000  1
  Sn  Sn3  1  0.86537604  0.73075208  0.75000000  1
  Sn  Sn4  1  0.26924792  0.13462396  0.75000000  1
  Sn  Sn5  1  0.86537604  0.13462396  0.75000000  1
loop_
_geom_bond_atom_site_label_1
_geom_bond_atom_site_label_2
_geom_bond_distance
_geom_bond_site_symmetry_2
K0 Sn2 3.760891 1_555
K0 Sn2 3.760891 1_556
K0 Sn0 3.760895 1_556
K0 Sn0 3.760895 1_555
K0 Sn1 3.760895 1_555
K0 Sn1 3.760895 1_556
K0 Sn3 3.792103 1_455
K0 Sn4 3.792103 1_565
K0 Sn5 3.792106 1_455
K0 Sn5 3.792106 1_565
K0 Sn4 3.792110 1_555
K0 Sn3 3.792110 1_555
K1 Sn5 3.760891 1_554
K1 Sn5 3.760891 1_555
K1 Sn3 3.760895 1_555
K1 Sn4 3.760895 1_555
K1 Sn3 3.760895 1_554
K1 Sn4 3.760895 1_554
K1 Sn1 3.792103 1_545
K1 Sn0 3.792103 1_655
K1 Sn2 3.792106 1_545
K1 Sn2 3.792106 1_655
K1 Sn1 3.792110 1_555
K1 Sn0 3.792110 1_555
Sn0 Sn1 3.044353 1_445
Sn0 Sn2 3.044353 1_545
Sn0 Sn5 3.240830 1_455
Sn0 Sn5 3.240830 1_454
Sn0 Sn4 3.240830 1_555
Sn0 Sn4 3.240830 1_554
Sn1 Sn2 3.044353 1_655
Sn1 Sn5 3.240830 1_564
Sn1 Sn5 3.240830 1_565
Sn1 Sn3 3.240830 1_554
Sn1 Sn3 3.240830 1_555
Sn2 Sn3 3.240830 1_455
Sn2 Sn3 3.240830 1_454
Sn2 Sn4 3.240830 1_565
Sn2 Sn4 3.240830 1_564
Sn3 Sn4 3.044353 1_665
Sn3 Sn5 3.044353 1_565
Sn4 Sn5 3.044353 1_455
