# generated using pymatgen
data_CaNiBiP2O9
_symmetry_space_group_name_H-M   'P 1'
_cell_length_a   6.78713300
_cell_length_b   7.65027700
_cell_length_c   14.74728600
_cell_angle_alpha   90.00000000
_cell_angle_beta   90.00000000
_cell_angle_gamma   90.00000000
_symmetry_Int_Tables_number   1
_chemical_formula_structural   CaNiBiP2O9
_chemical_formula_sum   'Ca4 Ni4 Bi4 P8 O36'
_cell_volume   765.72993018
_cell_formula_units_Z   4
loop_
 _symmetry_equiv_pos_site_id
 _symmetry_equiv_pos_as_xyz
  1  'x, y, z'
loop_
 _atom_site_type_symbol
 _atom_site_label
 _atom_site_symmetry_multiplicity
 _atom_site_fract_x
 _atom_site_fract_y
 _atom_site_fract_z
 _atom_site_occupancy
  Ca  Ca0  1  0.75000000  0.91583500  0.29646700  1
  Ca  Ca1  1  0.75000000  0.58416500  0.79646700  1
  Ca  Ca2  1  0.25000000  0.08416500  0.70353300  1
  Ca  Ca3  1  0.25000000  0.41583500  0.20353300  1
  Ni  Ni0  1  0.50000000  0.00000000  0.50000000  1
  Ni  Ni1  1  0.50000000  0.50000000  0.00000000  1
  Ni  Ni2  1  0.00000000  0.50000000  0.00000000  1
  Ni  Ni3  1  0.00000000  0.00000000  0.50000000  1
  Bi  Bi0  1  0.75000000  0.35860800  0.38234500  1
  Bi  Bi1  1  0.25000000  0.64139200  0.61765500  1
  Bi  Bi2  1  0.25000000  0.85860800  0.11765500  1
  Bi  Bi3  1  0.75000000  0.14139200  0.88234500  1
  P  P0  1  0.25000000  0.34711000  0.42049100  1
  P  P1  1  0.75000000  0.65289000  0.57950900  1
  P  P2  1  0.75000000  0.84711000  0.07950900  1
  P  P3  1  0.25000000  0.15289000  0.92049100  1
  P  P4  1  0.75000000  0.37677200  0.18180600  1
  P  P5  1  0.25000000  0.62322800  0.81819400  1
  P  P6  1  0.25000000  0.87677200  0.31819400  1
  P  P7  1  0.75000000  0.12322800  0.68180600  1
  O  O0  1  0.05847900  0.61699600  0.87479700  1
  O  O1  1  0.55847900  0.38300400  0.12520300  1
  O  O2  1  0.94152100  0.11699600  0.62520300  1
  O  O3  1  0.44152100  0.88300400  0.37479700  1
  O  O4  1  0.94152100  0.38300400  0.12520300  1
  O  O5  1  0.44152100  0.61699600  0.87479700  1
  O  O6  1  0.05847900  0.88300400  0.37479700  1
  O  O7  1  0.55847900  0.11699600  0.62520300  1
  O  O8  1  0.25000000  0.32318400  0.97537700  1
  O  O9  1  0.75000000  0.67681600  0.02462300  1
  O  O10  1  0.75000000  0.82318400  0.52462300  1
  O  O11  1  0.25000000  0.17681600  0.47537700  1
  O  O12  1  0.75000000  0.10080700  0.43372900  1
  O  O13  1  0.25000000  0.89919300  0.56627100  1
  O  O14  1  0.25000000  0.60080700  0.06627100  1
  O  O15  1  0.75000000  0.39919300  0.93372900  1
  O  O16  1  0.75000000  0.20921400  0.24383400  1
  O  O17  1  0.25000000  0.79078600  0.75616600  1
  O  O18  1  0.25000000  0.70921400  0.25616600  1
  O  O19  1  0.75000000  0.29078600  0.74383400  1
  O  O20  1  0.42519900  0.14234700  0.85179900  1
  O  O21  1  0.92519900  0.85765300  0.14820100  1
  O  O22  1  0.57480100  0.64234700  0.64820100  1
  O  O23  1  0.07480100  0.35765300  0.35179900  1
  O  O24  1  0.57480100  0.85765300  0.14820100  1
  O  O25  1  0.07480100  0.14234700  0.85179900  1
  O  O26  1  0.42519900  0.35765300  0.35179900  1
  O  O27  1  0.92519900  0.64234700  0.64820100  1
  O  O28  1  0.75000000  0.96571200  0.75305700  1
  O  O29  1  0.25000000  0.03428800  0.24694300  1
  O  O30  1  0.25000000  0.46571200  0.74694300  1
  O  O31  1  0.75000000  0.53428800  0.25305700  1
  O  O32  1  0.75000000  0.01029500  0.01920100  1
  O  O33  1  0.25000000  0.98970500  0.98079900  1
  O  O34  1  0.25000000  0.51029500  0.48079900  1
  O  O35  1  0.75000000  0.48970500  0.51920100  1
loop_
_geom_bond_atom_site_label_1
_geom_bond_atom_site_label_2
_geom_bond_distance
_geom_bond_site_symmetry_2
Ca0 O16 2.374857 1_565
Ca0 O6 2.404370 1_655
Ca0 O3 2.404370 1_555
Ca0 O12 2.469823 1_565
Ca0 O24 2.528429 1_555
Ca0 O21 2.528429 1_555
Ca0 O31 2.988318 1_555
Ca1 O19 2.374857 1_555
Ca1 O0 2.404370 1_655
Ca1 O5 2.404370 1_555
Ca1 O15 2.469823 1_555
Ca1 O27 2.528429 1_555
Ca1 O22 2.528429 1_555
Ca1 O28 2.988318 1_555
Ca2 O17 2.374857 1_545
Ca2 O7 2.404370 1_555
Ca2 O2 2.404370 1_455
Ca2 O13 2.469823 1_545
Ca2 O20 2.528429 1_555
Ca2 O25 2.528429 1_555
Ca2 O30 2.988318 1_555
Ca3 O18 2.374857 1_555
Ca3 O1 2.404370 1_555
Ca3 O4 2.404370 1_455
Ca3 O14 2.469823 1_555
Ca3 O26 2.528429 1_555
Ca3 O23 2.528429 1_555
Ca3 O29 2.988318 1_555
Ni0 O7 2.089943 1_555
Ni0 O3 2.089943 1_545
Ni0 O12 2.104513 1_555
Ni0 O13 2.104513 1_545
Ni0 O11 2.200160 1_555
Ni0 O10 2.200160 1_545
Ni1 O1 2.089943 1_555
Ni1 O5 2.089943 1_554
Ni1 O14 2.104513 1_555
Ni1 O15 2.104513 1_554
Ni1 O9 2.200160 1_555
Ni1 O8 2.200160 1_554
Ni2 O4 2.089943 1_455
Ni2 O0 2.089943 1_554
Ni2 O14 2.104513 1_555
Ni2 O15 2.104513 1_454
Ni2 O9 2.200160 1_455
Ni2 O8 2.200160 1_554
Ni3 O2 2.089943 1_455
Ni3 O6 2.089943 1_545
Ni3 O12 2.104513 1_455
Ni3 O13 2.104513 1_545
Ni3 O11 2.200160 1_555
Ni3 O10 2.200160 1_445
Bi0 O12 2.112815 1_555
Bi0 O23 2.250034 1_655
Bi0 O26 2.250034 1_555
Bi0 O35 2.253712 1_555
Bi0 O31 2.332733 1_555
Bi0 O16 2.340662 1_555
Bi1 O13 2.112815 1_555
Bi1 O27 2.250034 1_455
Bi1 O22 2.250034 1_555
Bi1 O34 2.253712 1_555
Bi1 O30 2.332733 1_555
Bi1 O17 2.340662 1_555
Bi2 O14 2.112815 1_555
Bi2 O24 2.250034 1_555
Bi2 O21 2.250034 1_455
Bi2 O33 2.253712 1_554
Bi2 O29 2.332733 1_565
Bi2 O18 2.340662 1_555
Bi3 O15 2.112815 1_555
Bi3 O25 2.250034 1_655
Bi3 O20 2.250034 1_555
Bi3 O32 2.253712 1_556
Bi3 O28 2.332733 1_545
Bi3 O19 2.340662 1_555
O0 P5 1.545558 1_555
O1 P4 1.545558 1_555
O2 P7 1.545558 1_555
O3 P6 1.545558 1_555
O4 P4 1.545558 1_555
O5 P5 1.545558 1_555
O6 P6 1.545558 1_555
O7 P7 1.545558 1_555
O8 P3 1.533766 1_555
O9 P2 1.533766 1_555
O10 P1 1.533766 1_555
O11 P0 1.533766 1_555
O16 P4 1.574781 1_555
O17 P5 1.574781 1_555
O18 P6 1.574781 1_555
O19 P7 1.574781 1_555
O20 P3 1.564184 1_555
O21 P2 1.564184 1_555
O22 P1 1.564184 1_555
O23 P0 1.564184 1_555
O24 P2 1.564184 1_555
O25 P3 1.564184 1_555
O26 P0 1.564184 1_555
O27 P1 1.564184 1_555
O28 P7 1.598818 1_565
O29 P6 1.598818 1_545
O30 P5 1.598818 1_555
O31 P4 1.598818 1_555
O32 P2 1.532816 1_545
O33 P3 1.532816 1_565
O34 P0 1.532816 1_555
O35 P1 1.532816 1_555
