# generated using pymatgen
data_CePu4
_symmetry_space_group_name_H-M   'P 1'
_cell_length_a   26.73363497
_cell_length_b   26.73363497
_cell_length_c   26.73363481
_cell_angle_alpha   14.14091676
_cell_angle_beta   14.14091676
_cell_angle_gamma   14.14091592
_symmetry_Int_Tables_number   1
_chemical_formula_structural   CePu4
_chemical_formula_sum   'Ce8 Pu32'
_cell_volume   992.60687188
_cell_formula_units_Z   8
loop_
 _symmetry_equiv_pos_site_id
 _symmetry_equiv_pos_as_xyz
  1  'x, y, z'
loop_
 _atom_site_type_symbol
 _atom_site_label
 _atom_site_symmetry_multiplicity
 _atom_site_fract_x
 _atom_site_fract_y
 _atom_site_fract_z
 _atom_site_occupancy
  Ce  Ce0_0  1  0.00000000  0.00000000  0.00000000  1
  Ce  Ce0_1  1  0.00000000  0.00000000  0.50000000  1
  Ce  Ce0_2  1  0.00000000  0.50000000  0.00000000  1
  Ce  Ce0_3  1  0.00000000  0.50000000  0.50000000  1
  Ce  Ce0_4  1  0.50000000  0.00000000  0.00000000  1
  Ce  Ce0_5  1  0.50000000  1.00000000  0.50000000  1
  Ce  Ce0_6  1  0.50000000  0.50000000  0.00000000  1
  Ce  Ce0_7  1  0.50000000  0.50000000  0.50000000  1
  Pu  Pu0_0  1  0.29871300  0.29871300  0.29871300  1
  Pu  Pu0_1  1  0.29871300  0.29871300  0.79871300  1
  Pu  Pu0_2  1  0.29871300  0.79871300  0.29871300  1
  Pu  Pu0_3  1  0.29871300  0.79871300  0.79871300  1
  Pu  Pu0_4  1  0.79871300  0.29871300  0.29871300  1
  Pu  Pu0_5  1  0.79871300  0.29871300  0.79871300  1
  Pu  Pu0_6  1  0.79871300  0.79871300  0.29871300  1
  Pu  Pu0_7  1  0.79871300  0.79871300  0.79871300  1
  Pu  Pu1_0  1  0.09959600  0.09959600  0.09959600  1
  Pu  Pu1_1  1  0.09959600  0.09959600  0.59959600  1
  Pu  Pu1_2  1  0.09959600  0.59959600  0.09959600  1
  Pu  Pu1_3  1  0.09959600  0.59959600  0.59959600  1
  Pu  Pu1_4  1  0.59959600  0.09959600  0.09959600  1
  Pu  Pu1_5  1  0.59959600  0.09959600  0.59959600  1
  Pu  Pu1_6  1  0.59959600  0.59959600  0.09959600  1
  Pu  Pu1_7  1  0.59959600  0.59959600  0.59959600  1
  Pu  Pu2_0  1  0.40040400  0.40040400  0.40040400  1
  Pu  Pu2_1  1  0.40040400  0.40040400  0.90040400  1
  Pu  Pu2_2  1  0.40040400  0.90040400  0.40040400  1
  Pu  Pu2_3  1  0.40040400  0.90040400  0.90040400  1
  Pu  Pu2_4  1  0.90040400  0.40040400  0.40040400  1
  Pu  Pu2_5  1  0.90040400  0.40040400  0.90040400  1
  Pu  Pu2_6  1  0.90040400  0.90040400  0.40040400  1
  Pu  Pu2_7  1  0.90040400  0.90040400  0.90040400  1
  Pu  Pu3_0  1  0.20128700  0.20128700  0.20128700  1
  Pu  Pu3_1  1  0.20128700  0.20128700  0.70128700  1
  Pu  Pu3_2  1  0.20128700  0.70128700  0.20128700  1
  Pu  Pu3_3  1  0.20128700  0.70128700  0.70128700  1
  Pu  Pu3_4  1  0.70128700  0.20128700  0.20128700  1
  Pu  Pu3_5  1  0.70128700  0.20128700  0.70128700  1
  Pu  Pu3_6  1  0.70128700  0.70128700  0.20128700  1
  Pu  Pu3_7  1  0.70128700  0.70128700  0.70128700  1
loop_
_geom_bond_atom_site_label_1
_geom_bond_atom_site_label_2
_geom_bond_distance
_geom_bond_site_symmetry_2
Ce0_0 Ce0_6 3.290638 1_455
Ce0_0 Ce0_6 3.290638 1_545
Ce0_0 Ce0_5 3.290638 1_544
Ce0_0 Ce0_3 3.290638 1_554
Ce0_0 Ce0_5 3.290638 1_445
Ce0_0 Ce0_3 3.290638 1_545
Ce0_0 Pu3_4 3.341122 1_455
Ce0_0 Pu0_3 3.341122 1_544
Ce0_0 Pu0_5 3.341122 1_454
Ce0_0 Pu3_2 3.341122 1_545
Ce0_0 Pu0_6 3.341123 1_445
Ce0_0 Pu3_1 3.341123 1_554
Ce0_1 Ce0_7 3.290638 1_455
Ce0_1 Ce0_7 3.290638 1_545
Ce0_1 Ce0_2 3.290638 1_555
Ce0_1 Ce0_4 3.290638 1_555
Ce0_1 Ce0_4 3.290638 1_456
Ce0_1 Ce0_2 3.290638 1_546
Ce0_1 Pu0_2 3.341122 1_545
Ce0_1 Pu3_5 3.341122 1_455
Ce0_1 Pu3_3 3.341122 1_545
Ce0_1 Pu0_4 3.341122 1_455
Ce0_1 Pu0_7 3.341123 1_445
Ce0_1 Pu3_0 3.341123 1_555
Ce0_2 Ce0_4 3.290638 1_555
Ce0_2 Ce0_4 3.290638 1_465
Ce0_2 Ce0_7 3.290638 1_554
Ce0_2 Ce0_7 3.290638 1_455
Ce0_2 Pu3_6 3.341122 1_455
Ce0_2 Pu3_0 3.341122 1_555
Ce0_2 Pu0_7 3.341122 1_454
Ce0_2 Pu0_1 3.341122 1_554
Ce0_2 Pu3_3 3.341123 1_554
Ce0_2 Pu0_4 3.341123 1_455
Ce0_3 Ce0_5 3.290638 1_545
Ce0_3 Ce0_5 3.290638 1_455
Ce0_3 Ce0_6 3.290638 1_456
Ce0_3 Ce0_6 3.290638 1_555
Ce0_3 Pu0_6 3.341122 1_455
Ce0_3 Pu0_0 3.341122 1_555
Ce0_3 Pu3_7 3.341122 1_455
Ce0_3 Pu3_1 3.341122 1_555
Ce0_3 Pu0_5 3.341123 1_455
Ce0_3 Pu3_2 3.341123 1_555
Ce0_4 Ce0_7 3.290638 1_554
Ce0_4 Ce0_7 3.290638 1_545
Ce0_4 Pu3_6 3.341122 1_545
Ce0_4 Pu0_7 3.341122 1_544
Ce0_4 Pu0_1 3.341122 1_554
Ce0_4 Pu3_0 3.341122 1_555
Ce0_4 Pu0_2 3.341123 1_545
Ce0_4 Pu3_5 3.341123 1_554
Ce0_5 Ce0_6 3.290638 1_556
Ce0_5 Ce0_6 3.290638 1_565
Ce0_5 Pu0_6 3.341122 1_555
Ce0_5 Pu0_0 3.341122 1_565
Ce0_5 Pu3_7 3.341122 1_555
Ce0_5 Pu3_1 3.341122 1_565
Ce0_5 Pu0_3 3.341123 1_555
Ce0_5 Pu3_4 3.341123 1_565
Ce0_6 Pu3_4 3.341122 1_555
Ce0_6 Pu3_2 3.341122 1_555
Ce0_6 Pu0_3 3.341122 1_554
Ce0_6 Pu0_5 3.341122 1_554
Ce0_6 Pu3_7 3.341123 1_554
Ce0_6 Pu0_0 3.341123 1_555
Ce0_7 Pu3_5 3.341122 1_555
Ce0_7 Pu3_3 3.341122 1_555
Ce0_7 Pu0_2 3.341122 1_555
Ce0_7 Pu0_4 3.341122 1_555
Ce0_7 Pu3_6 3.341123 1_555
Ce0_7 Pu0_1 3.341123 1_555
Pu0_0 Pu1_2 3.200914 1_555
Pu0_0 Pu1_4 3.200914 1_555
Pu0_0 Pu1_1 3.200914 1_555
Pu0_0 Pu0_6 3.290638 1_545
Pu0_0 Pu0_6 3.290638 1_455
Pu0_0 Pu0_3 3.290638 1_554
Pu0_0 Pu0_5 3.290638 1_455
Pu0_0 Pu0_5 3.290638 1_554
Pu0_0 Pu0_3 3.290638 1_545
Pu0_1 Pu1_3 3.200914 1_555
Pu0_1 Pu1_5 3.200914 1_555
Pu0_1 Pu1_0 3.200914 1_556
Pu0_1 Pu0_7 3.290638 1_455
Pu0_1 Pu0_7 3.290638 1_545
Pu0_1 Pu0_4 3.290638 1_555
Pu0_1 Pu0_2 3.290638 1_555
Pu0_1 Pu0_2 3.290638 1_546
Pu0_1 Pu0_4 3.290638 1_456
Pu0_2 Pu1_0 3.200914 1_565
Pu0_2 Pu1_6 3.200914 1_555
Pu0_2 Pu1_3 3.200914 1_555
Pu0_2 Pu0_4 3.290638 1_555
Pu0_2 Pu0_4 3.290638 1_465
Pu0_2 Pu0_7 3.290638 1_455
Pu0_2 Pu0_7 3.290638 1_554
Pu0_3 Pu1_7 3.200914 1_555
Pu0_3 Pu1_1 3.200914 1_565
Pu0_3 Pu1_2 3.200914 1_556
Pu0_3 Pu0_5 3.290638 1_555
Pu0_3 Pu0_5 3.290638 1_465
Pu0_3 Pu0_6 3.290638 1_555
Pu0_3 Pu0_6 3.290638 1_456
Pu0_4 Pu1_0 3.200914 1_655
Pu0_4 Pu1_6 3.200914 1_555
Pu0_4 Pu1_5 3.200914 1_555
Pu0_4 Pu0_7 3.290638 1_545
Pu0_4 Pu0_7 3.290638 1_554
Pu0_5 Pu1_1 3.200914 1_655
Pu0_5 Pu1_7 3.200914 1_555
Pu0_5 Pu1_4 3.200914 1_556
Pu0_5 Pu0_6 3.290638 1_546
Pu0_5 Pu0_6 3.290638 1_555
Pu0_6 Pu1_2 3.200914 1_655
Pu0_6 Pu1_4 3.200914 1_565
Pu0_6 Pu1_7 3.200914 1_555
Pu0_7 Pu1_3 3.200914 1_655
Pu0_7 Pu1_5 3.200914 1_565
Pu0_7 Pu1_6 3.200914 1_556
Pu1_0 Pu2_3 3.205708 1_544
Pu1_0 Pu2_5 3.205708 1_454
Pu1_0 Pu2_6 3.205708 1_445
Pu1_0 Pu1_6 3.290638 1_455
Pu1_0 Pu1_6 3.290638 1_545
Pu1_0 Pu1_3 3.290638 1_554
Pu1_0 Pu1_5 3.290638 1_554
Pu1_0 Pu1_3 3.290638 1_545
Pu1_0 Pu1_5 3.290638 1_455
Pu1_1 Pu2_2 3.205708 1_545
Pu1_1 Pu2_4 3.205708 1_455
Pu1_1 Pu2_7 3.205708 1_445
Pu1_1 Pu1_7 3.290638 1_455
Pu1_1 Pu1_7 3.290638 1_545
Pu1_1 Pu1_2 3.290638 1_555
Pu1_1 Pu1_4 3.290638 1_555
Pu1_1 Pu1_2 3.290638 1_546
Pu1_1 Pu1_4 3.290638 1_456
Pu1_2 Pu2_7 3.205708 1_454
Pu1_2 Pu2_1 3.205708 1_554
Pu1_2 Pu2_4 3.205708 1_455
Pu1_2 Pu1_4 3.290638 1_555
Pu1_2 Pu1_4 3.290638 1_465
Pu1_2 Pu1_7 3.290638 1_554
Pu1_2 Pu1_7 3.290638 1_455
Pu1_3 Pu2_6 3.205708 1_455
Pu1_3 Pu2_0 3.205708 1_555
Pu1_3 Pu2_5 3.205708 1_455
Pu1_3 Pu1_5 3.290638 1_555
Pu1_3 Pu1_5 3.290638 1_465
Pu1_3 Pu1_6 3.290638 1_555
Pu1_3 Pu1_6 3.290638 1_456
Pu1_4 Pu2_7 3.205708 1_544
Pu1_4 Pu2_1 3.205708 1_554
Pu1_4 Pu2_2 3.205708 1_545
Pu1_4 Pu1_7 3.290638 1_554
Pu1_4 Pu1_7 3.290638 1_545
Pu1_5 Pu2_6 3.205708 1_545
Pu1_5 Pu2_0 3.205708 1_555
Pu1_5 Pu2_3 3.205708 1_545
Pu1_5 Pu1_6 3.290638 1_555
Pu1_5 Pu1_6 3.290638 1_546
Pu1_6 Pu2_3 3.205708 1_554
Pu1_6 Pu2_5 3.205708 1_554
Pu1_6 Pu2_0 3.205708 1_555
Pu1_7 Pu2_2 3.205708 1_555
Pu1_7 Pu2_4 3.205708 1_555
Pu1_7 Pu2_1 3.205708 1_555
Pu2_0 Pu3_2 3.200914 1_555
Pu2_0 Pu3_4 3.200914 1_555
Pu2_0 Pu3_1 3.200914 1_555
Pu2_0 Pu2_6 3.290638 1_455
Pu2_0 Pu2_6 3.290638 1_545
Pu2_0 Pu2_3 3.290638 1_554
Pu2_0 Pu2_5 3.290638 1_554
Pu2_0 Pu2_3 3.290638 1_545
Pu2_0 Pu2_5 3.290638 1_455
Pu2_1 Pu3_3 3.200914 1_555
Pu2_1 Pu3_5 3.200914 1_555
Pu2_1 Pu3_0 3.200914 1_556
Pu2_1 Pu2_7 3.290638 1_455
Pu2_1 Pu2_7 3.290638 1_545
Pu2_1 Pu2_4 3.290638 1_555
Pu2_1 Pu2_2 3.290638 1_555
Pu2_1 Pu2_4 3.290638 1_456
Pu2_1 Pu2_2 3.290638 1_546
Pu2_2 Pu3_0 3.200914 1_565
Pu2_2 Pu3_6 3.200914 1_555
Pu2_2 Pu3_3 3.200914 1_555
Pu2_2 Pu2_4 3.290638 1_555
Pu2_2 Pu2_4 3.290638 1_465
Pu2_2 Pu2_7 3.290638 1_554
Pu2_2 Pu2_7 3.290638 1_455
Pu2_3 Pu3_7 3.200914 1_555
Pu2_3 Pu3_1 3.200914 1_565
Pu2_3 Pu3_2 3.200914 1_556
Pu2_3 Pu2_5 3.290638 1_555
Pu2_3 Pu2_5 3.290638 1_465
Pu2_3 Pu2_6 3.290638 1_555
Pu2_3 Pu2_6 3.290638 1_456
Pu2_4 Pu3_0 3.200914 1_655
Pu2_4 Pu3_6 3.200914 1_555
Pu2_4 Pu3_5 3.200914 1_555
Pu2_4 Pu2_7 3.290638 1_554
Pu2_4 Pu2_7 3.290638 1_545
Pu2_5 Pu3_1 3.200914 1_655
Pu2_5 Pu3_7 3.200914 1_555
Pu2_5 Pu3_4 3.200914 1_556
Pu2_5 Pu2_6 3.290638 1_546
Pu2_5 Pu2_6 3.290638 1_555
Pu2_6 Pu3_2 3.200914 1_655
Pu2_6 Pu3_4 3.200914 1_565
Pu2_6 Pu3_7 3.200914 1_555
Pu2_7 Pu3_3 3.200914 1_655
Pu2_7 Pu3_5 3.200914 1_565
Pu2_7 Pu3_6 3.200914 1_556
Pu3_0 Pu3_6 3.290638 1_455
Pu3_0 Pu3_6 3.290638 1_545
Pu3_0 Pu3_3 3.290638 1_554
Pu3_0 Pu3_5 3.290638 1_554
Pu3_0 Pu3_5 3.290638 1_455
Pu3_0 Pu3_3 3.290638 1_545
Pu3_1 Pu3_7 3.290638 1_455
Pu3_1 Pu3_7 3.290638 1_545
Pu3_1 Pu3_4 3.290638 1_456
Pu3_1 Pu3_4 3.290638 1_555
Pu3_1 Pu3_2 3.290638 1_555
Pu3_1 Pu3_2 3.290638 1_546
Pu3_2 Pu3_4 3.290638 1_555
Pu3_2 Pu3_4 3.290638 1_465
Pu3_2 Pu3_7 3.290638 1_554
Pu3_2 Pu3_7 3.290638 1_455
Pu3_3 Pu3_5 3.290638 1_555
Pu3_3 Pu3_5 3.290638 1_465
Pu3_3 Pu3_6 3.290638 1_555
Pu3_3 Pu3_6 3.290638 1_456
Pu3_4 Pu3_7 3.290638 1_554
Pu3_4 Pu3_7 3.290638 1_545
Pu3_5 Pu3_6 3.290638 1_555
Pu3_5 Pu3_6 3.290638 1_546
