# generated using pymatgen
data_Na3Li(MoO4)2
_symmetry_space_group_name_H-M   'P 1'
_cell_length_a   9.18322900
_cell_length_b   8.55253206
_cell_length_c   8.90030440
_cell_angle_alpha   118.26816562
_cell_angle_beta   90.00000000
_cell_angle_gamma   122.47094723
_symmetry_Int_Tables_number   1
_chemical_formula_structural   Na3Li(MoO4)2
_chemical_formula_sum   'Na6 Li2 Mo4 O16'
_cell_volume   488.05650509
_cell_formula_units_Z   2
loop_
 _symmetry_equiv_pos_site_id
 _symmetry_equiv_pos_as_xyz
  1  'x, y, z'
loop_
 _atom_site_type_symbol
 _atom_site_label
 _atom_site_symmetry_multiplicity
 _atom_site_fract_x
 _atom_site_fract_y
 _atom_site_fract_z
 _atom_site_occupancy
  Na  Na0  1  0.62787100  0.29134500  0.86834100  1
  Na  Na1  1  0.66347400  0.29134500  0.36834100  1
  Na  Na2  1  0.33142000  0.48412700  0.88277800  1
  Na  Na3  1  0.15270700  0.48412700  0.38277800  1
  Na  Na4  1  0.15480300  0.97645400  0.88956200  1
  Na  Na5  1  0.82165100  0.97645400  0.38956200  1
  Li  Li0  1  0.54470900  0.59931000  0.62771800  1
  Li  Li1  1  0.05460100  0.59931000  0.12771800  1
  Mo  Mo0  1  0.76897500  0.03113200  0.99397400  1
  Mo  Mo1  1  0.26215700  0.03113200  0.49397400  1
  Mo  Mo2  1  0.98939800  0.47149900  0.70001500  1
  Mo  Mo3  1  0.48210100  0.47149900  0.20001500  1
  O  O0  1  0.49015400  0.24095300  0.12035900  1
  O  O1  1  0.75080000  0.24095300  0.62035900  1
  O  O2  1  0.11959700  0.36852600  0.62237600  1
  O  O3  1  0.24892900  0.36852600  0.12237600  1
  O  O4  1  0.00686800  0.61608200  0.59825100  1
  O  O5  1  0.60921300  0.61608200  0.09825100  1
  O  O6  1  0.52878300  0.79942800  0.86231800  1
  O  O7  1  0.27064500  0.79942800  0.36231800  1
  O  O8  1  0.87918300  0.91357800  0.88649300  1
  O  O9  1  0.03439500  0.91357800  0.38649300  1
  O  O10  1  0.31265900  0.13609400  0.73270000  1
  O  O11  1  0.82343400  0.13609400  0.23270000  1
  O  O12  1  0.58062400  0.66253000  0.44349200  1
  O  O13  1  0.08190600  0.66253000  0.94349200  1
  O  O14  1  0.43109800  0.27354100  0.49082300  1
  O  O15  1  0.84244400  0.27354100  0.99082300  1
loop_
_geom_bond_atom_site_label_1
_geom_bond_atom_site_label_2
_geom_bond_distance
_geom_bond_site_symmetry_2
Na0 O15 2.360873 1_555
Na0 O1 2.439855 1_555
Na0 O10 2.440140 1_555
Na0 O5 2.656688 1_556
Na0 O0 2.673350 1_556
Na1 O14 2.360866 1_555
Na1 O0 2.439850 1_555
Na1 O11 2.440131 1_555
Na1 O4 2.656683 1_655
Na1 O1 2.673354 1_555
Na2 O6 2.409793 1_555
Na2 O2 2.428465 1_555
Na2 O5 2.513558 1_556
Na2 O10 2.521348 1_555
Na2 O3 2.700319 1_556
Na3 O7 2.409793 1_555
Na3 O3 2.428465 1_555
Na3 O4 2.513565 1_555
Na3 O11 2.521354 1_455
Na3 O2 2.700319 1_555
Na4 O8 2.284934 1_455
Na4 O10 2.365381 1_565
Na4 O4 2.449946 1_555
Na4 O3 2.567349 1_566
Na4 O0 2.634228 1_566
Na4 O13 2.679128 1_555
Na5 O9 2.284934 1_655
Na5 O11 2.365383 1_565
Na5 O5 2.449947 1_555
Na5 O2 2.567349 1_665
Na5 O1 2.634221 1_565
Na5 O12 2.679128 1_555
Li0 O12 1.933364 1_555
Li0 O14 1.999760 1_555
Li0 O6 2.047992 1_555
Li1 O13 1.933364 1_554
Li1 O15 1.999758 1_454
Li1 O7 2.047992 1_555
Mo0 O8 1.769676 1_545
Mo0 O6 1.809007 1_545
Mo0 O11 1.811563 1_556
Mo0 O15 1.818612 1_555
Mo1 O9 1.769676 1_545
Mo1 O7 1.809006 1_545
Mo1 O10 1.811563 1_555
Mo1 O14 1.818614 1_555
Mo2 O4 1.795265 1_655
Mo2 O1 1.796765 1_555
Mo2 O2 1.799131 1_655
Mo2 O13 1.800869 1_655
Mo3 O5 1.795263 1_555
Mo3 O0 1.796771 1_555
Mo3 O3 1.799131 1_555
Mo3 O12 1.800869 1_555
