# generated using pymatgen
data_AlSb3Pb4O13
_symmetry_space_group_name_H-M   'P 1'
_cell_length_a   7.41049823
_cell_length_b   7.41049823
_cell_length_c   7.41049855
_cell_angle_alpha   60.87095390
_cell_angle_beta   60.87095390
_cell_angle_gamma   60.87094956
_symmetry_Int_Tables_number   1
_chemical_formula_structural   AlSb3Pb4O13
_chemical_formula_sum   'Al1 Sb3 Pb4 O13'
_cell_volume   293.40806510
_cell_formula_units_Z   1
loop_
 _symmetry_equiv_pos_site_id
 _symmetry_equiv_pos_as_xyz
  1  'x, y, z'
loop_
 _atom_site_type_symbol
 _atom_site_label
 _atom_site_symmetry_multiplicity
 _atom_site_fract_x
 _atom_site_fract_y
 _atom_site_fract_z
 _atom_site_occupancy
  Al  Al0  1  0.49919700  0.49919700  0.49919700  1
  Sb  Sb0  1  0.00107500  0.49984400  0.49984400  1
  Sb  Sb1  1  0.49984400  0.49984400  0.00107500  1
  Sb  Sb2  1  0.49984400  0.00107500  0.49984400  1
  Pb  Pb0  1  0.99764700  0.99764700  0.99764700  1
  Pb  Pb1  1  0.50659500  0.99772800  0.99772800  1
  Pb  Pb2  1  0.99772800  0.99772800  0.50659500  1
  Pb  Pb3  1  0.99772800  0.50659500  0.99772800  1
  O  O0  1  0.81737700  0.43074400  0.43074400  1
  O  O1  1  0.42586100  0.82442100  0.82442100  1
  O  O2  1  0.43074400  0.43074400  0.81737700  1
  O  O3  1  0.82442100  0.82442100  0.42586100  1
  O  O4  1  0.82442100  0.42586100  0.82442100  1
  O  O5  1  0.43074400  0.81737700  0.43074400  1
  O  O6  1  0.18534500  0.56700700  0.56700700  1
  O  O7  1  0.57172300  0.17794400  0.17794400  1
  O  O8  1  0.56700700  0.56700700  0.18534500  1
  O  O9  1  0.17794400  0.17794400  0.57172300  1
  O  O10  1  0.17794400  0.57172300  0.17794400  1
  O  O11  1  0.56700700  0.18534500  0.56700700  1
  O  O12  1  0.12480400  0.12480400  0.12480400  1
loop_
_geom_bond_atom_site_label_1
_geom_bond_atom_site_label_2
_geom_bond_distance
_geom_bond_site_symmetry_2
Al0 O11 1.970928 1_555
Al0 O6 1.970928 1_555
Al0 O8 1.970928 1_555
Al0 O0 1.998956 1_555
Al0 O5 1.998956 1_555
Al0 O2 1.998956 1_555
O0 Sb0 1.997523 1_655
O0 Pb2 2.683121 1_545
O0 Pb3 2.683121 1_554
O1 Sb1 2.036935 1_556
O1 Sb2 2.036935 1_565
O1 Pb1 2.599736 1_555
O1 Pb0 2.652947 1_455
O2 Sb1 1.997523 1_556
O2 Pb1 2.683121 1_545
O2 Pb3 2.683121 1_455
O3 Sb0 2.036935 1_655
O3 Sb2 2.036935 1_565
O3 Pb2 2.599736 1_555
O3 Pb0 2.652947 1_554
O4 Sb1 2.036935 1_556
O4 Sb0 2.036935 1_655
O4 Pb3 2.599736 1_555
O4 Pb0 2.652947 1_545
O5 Sb2 1.997523 1_565
O5 Pb2 2.683121 1_455
O5 Pb1 2.683121 1_554
O6 Sb0 1.981064 1_555
O6 Pb2 2.686227 1_455
O6 Pb3 2.686228 1_455
O7 Sb1 2.022553 1_555
O7 Sb2 2.022553 1_555
O7 Pb1 2.606028 1_544
O7 Pb0 2.656934 1_544
O8 Sb1 1.981064 1_555
O8 Pb1 2.686228 1_554
O8 Pb3 2.686228 1_554
O9 Sb0 2.022553 1_555
O9 Sb2 2.022553 1_555
O9 Pb2 2.606028 1_445
O9 Pb0 2.656934 1_445
O10 Sb1 2.022553 1_555
O10 Sb0 2.022553 1_555
O10 Pb3 2.606028 1_454
O10 Pb0 2.656934 1_454
O11 Sb2 1.981064 1_555
O11 Pb2 2.686227 1_545
O11 Pb1 2.686228 1_545
O12 Pb0 2.292837 1_444
O12 Pb3 2.335368 1_454
O12 Pb1 2.335368 1_544
O12 Pb2 2.335368 1_445
