# generated using pymatgen
data_Ca3Cr3N5
_symmetry_space_group_name_H-M   'P 1'
_cell_length_a   5.61427015
_cell_length_b   6.86172685
_cell_length_c   8.33826062
_cell_angle_alpha   108.19885868
_cell_angle_beta   104.47480971
_cell_angle_gamma   94.96858865
_symmetry_Int_Tables_number   1
_chemical_formula_structural   Ca3Cr3N5
_chemical_formula_sum   'Ca6 Cr6 N10'
_cell_volume   290.69195911
_cell_formula_units_Z   2
loop_
 _symmetry_equiv_pos_site_id
 _symmetry_equiv_pos_as_xyz
  1  'x, y, z'
loop_
 _atom_site_type_symbol
 _atom_site_label
 _atom_site_symmetry_multiplicity
 _atom_site_fract_x
 _atom_site_fract_y
 _atom_site_fract_z
 _atom_site_occupancy
  Ca  Ca0  1  0.82071800  0.42440600  0.61556500  1
  Ca  Ca1  1  0.17928200  0.57559400  0.38443500  1
  Ca  Ca2  1  0.66312500  0.87077800  0.88323300  1
  Ca  Ca3  1  0.33687500  0.12922200  0.11676700  1
  Ca  Ca4  1  0.65227800  0.66794800  0.20254700  1
  Ca  Ca5  1  0.34772200  0.33205200  0.79745300  1
  Cr  Cr0  1  0.90712600  0.32489500  0.96784000  1
  Cr  Cr1  1  0.09287400  0.67510500  0.03216000  1
  Cr  Cr2  1  0.69745100  0.95379600  0.56871200  1
  Cr  Cr3  1  0.30254900  0.04620400  0.43128800  1
  Cr  Cr4  1  0.11276000  0.88053200  0.70077500  1
  Cr  Cr5  1  0.88724000  0.11946800  0.29922500  1
  N  N0  1  0.95241800  0.11107000  0.78350000  1
  N  N1  1  0.04758200  0.88893000  0.21650000  1
  N  N2  1  0.83546100  0.71239200  0.50829900  1
  N  N3  1  0.16453900  0.28760800  0.49170100  1
  N  N4  1  0.75349300  0.53784400  0.90893200  1
  N  N5  1  0.24650700  0.46215600  0.09106800  1
  N  N6  1  0.38610900  0.93387000  0.62004700  1
  N  N7  1  0.61389100  0.06613000  0.37995300  1
  N  N8  1  0.20092200  0.77493100  0.87743700  1
  N  N9  1  0.79907800  0.22506900  0.12256300  1
loop_
_geom_bond_atom_site_label_1
_geom_bond_atom_site_label_2
_geom_bond_distance
_geom_bond_site_symmetry_2
Ca0 N2 2.413378 1_555
Ca0 N4 2.460723 1_555
Ca0 N3 2.525630 1_655
Ca0 N7 2.569038 1_555
Ca0 N8 2.934185 1_655
Ca0 N0 2.961157 1_555
Ca1 N3 2.413378 1_555
Ca1 N5 2.460723 1_555
Ca1 N2 2.525630 1_455
Ca1 N6 2.569038 1_555
Ca1 N9 2.934185 1_455
Ca1 N1 2.961157 1_555
Ca2 N4 2.444273 1_555
Ca2 N9 2.522257 1_566
Ca2 N6 2.534947 1_555
Ca2 N8 2.605836 1_555
Ca2 N0 2.667562 1_565
Ca3 N5 2.444273 1_555
Ca3 N8 2.522257 1_544
Ca3 N7 2.534947 1_555
Ca3 N9 2.605836 1_555
Ca3 N1 2.667562 1_545
Ca4 N5 2.368987 1_555
Ca4 N2 2.408242 1_555
Ca4 N1 2.532991 1_655
Ca4 N4 2.555756 1_554
Ca4 N7 2.726991 1_565
Ca5 N4 2.368987 1_555
Ca5 N3 2.408242 1_555
Ca5 N0 2.532991 1_455
Ca5 N5 2.555756 1_556
Ca5 N6 2.726991 1_545
Cr0 N9 1.836526 1_556
Cr0 N0 1.852376 1_555
Cr0 N4 1.890812 1_555
Cr0 N5 1.918136 1_656
Cr1 N8 1.836526 1_554
Cr1 N1 1.852376 1_555
Cr1 N5 1.890812 1_555
Cr1 N4 1.918136 1_454
Cr2 N2 1.869268 1_555
Cr2 N6 1.904328 1_555
Cr2 N0 1.914355 1_565
Cr2 N7 1.934623 1_565
Cr3 N3 1.869268 1_555
Cr3 N7 1.904328 1_555
Cr3 N1 1.914355 1_545
Cr3 N6 1.934623 1_545
Cr4 N8 1.817770 1_555
Cr4 N6 1.874895 1_555
Cr4 N2 1.900996 1_455
Cr4 N0 1.914170 1_465
Cr5 N9 1.817770 1_555
Cr5 N7 1.874895 1_555
Cr5 N3 1.900996 1_655
Cr5 N1 1.914170 1_645
