# generated using pymatgen
data_Ca2Cu2O5
_symmetry_space_group_name_H-M   'P 1'
_cell_length_a   8.40746590
_cell_length_b   8.40746590
_cell_length_c   8.40746590
_cell_angle_alpha   142.69304005
_cell_angle_beta   141.82381753
_cell_angle_gamma   54.44291716
_symmetry_Int_Tables_number   1
_chemical_formula_structural   Ca2Cu2O5
_chemical_formula_sum   'Ca4 Cu4 O10'
_cell_volume   221.10118751
_cell_formula_units_Z   2
loop_
 _symmetry_equiv_pos_site_id
 _symmetry_equiv_pos_as_xyz
  1  'x, y, z'
loop_
 _atom_site_type_symbol
 _atom_site_label
 _atom_site_symmetry_multiplicity
 _atom_site_fract_x
 _atom_site_fract_y
 _atom_site_fract_z
 _atom_site_occupancy
  Ca  Ca0  1  0.90974100  0.39758300  0.52064100  1
  Ca  Ca1  1  0.09025900  0.61090100  0.48784300  1
  Ca  Ca2  1  0.37694200  0.89758300  0.48784300  1
  Ca  Ca3  1  0.62305800  0.11090100  0.52064100  1
  Cu  Cu0  1  0.00000000  0.01055900  0.01055900  1
  Cu  Cu1  1  0.50000000  0.51055900  0.01055900  1
  Cu  Cu2  1  0.69622200  0.71492800  0.91115000  1
  Cu  Cu3  1  0.30377800  0.21492800  0.01870600  1
  O  O0  1  0.26226700  0.26736200  0.50990200  1
  O  O1  1  0.73773300  0.24763500  0.00509500  1
  O  O2  1  0.25746100  0.76736200  0.00509500  1
  O  O3  1  0.74253900  0.74763500  0.50990200  1
  O  O4  1  0.91749100  0.88956800  0.07538100  1
  O  O5  1  0.08250900  0.15789000  0.97207800  1
  O  O6  1  0.31418700  0.38956800  0.97207800  1
  O  O7  1  0.68581300  0.65789000  0.07538100  1
  O  O8  1  0.63237500  0.36757300  0.49994800  1
  O  O9  1  0.36762500  0.86757300  0.73519800  1
loop_
_geom_bond_atom_site_label_1
_geom_bond_atom_site_label_2
_geom_bond_distance
_geom_bond_site_symmetry_2
Ca0 O8 2.347019 1_555
Ca0 O6 2.412836 1_655
Ca0 O1 2.457756 1_555
Ca0 O3 2.461163 1_555
Ca0 O0 2.545736 1_655
Ca0 O2 2.550901 1_656
Ca0 O4 2.623955 1_545
Ca0 O4 2.830631 1_556
Ca1 O9 2.347018 1_555
Ca1 O7 2.412831 1_455
Ca1 O0 2.457759 1_555
Ca1 O2 2.461157 1_556
Ca1 O1 2.545738 1_455
Ca1 O3 2.550901 1_455
Ca1 O5 2.623956 1_554
Ca1 O5 2.830627 1_565
Ca2 O9 2.347011 1_555
Ca2 O4 2.412833 1_455
Ca2 O3 2.457753 1_555
Ca2 O1 2.461166 1_566
Ca2 O2 2.545749 1_555
Ca2 O0 2.550901 1_565
Ca2 O6 2.623955 1_554
Ca2 O6 2.830631 1_565
Ca3 O8 2.347011 1_555
Ca3 O5 2.412834 1_655
Ca3 O2 2.457756 1_545
Ca3 O0 2.461166 1_555
Ca3 O3 2.545746 1_545
Ca3 O1 2.550901 1_556
Ca3 O7 2.623956 1_545
Ca3 O7 2.830627 1_556
Cu0 O0 1.926626 1_555
Cu0 O1 1.926626 1_455
Cu0 O3 1.930735 1_444
Cu0 O2 1.930739 1_545
Cu0 O5 2.027292 1_554
Cu0 O4 2.027300 1_445
Cu1 O2 1.926622 1_555
Cu1 O3 1.926626 1_555
Cu1 O0 1.930734 1_554
Cu1 O1 1.930734 1_555
Cu1 O7 2.027300 1_555
Cu1 O6 2.027307 1_554
Cu2 O7 1.853715 1_556
Cu2 O4 1.853715 1_556
Cu2 O8 1.900832 1_555
Cu2 O9 1.984655 1_555
Cu3 O6 1.853708 1_554
Cu3 O5 1.853722 1_554
Cu3 O9 1.900832 1_544
Cu3 O8 1.984655 1_555
