# generated using pymatgen
data_Ta3Bi7O18
_symmetry_space_group_name_H-M   'P 1'
_cell_length_a   6.70362900
_cell_length_b   7.67769155
_cell_length_c   16.78345473
_cell_angle_alpha   103.17290221
_cell_angle_beta   93.95018641
_cell_angle_gamma   90.06888756
_symmetry_Int_Tables_number   1
_chemical_formula_structural   Ta3Bi7O18
_chemical_formula_sum   'Ta6 Bi14 O36'
_cell_volume   838.96250005
_cell_formula_units_Z   2
loop_
 _symmetry_equiv_pos_site_id
 _symmetry_equiv_pos_as_xyz
  1  'x, y, z'
loop_
 _atom_site_type_symbol
 _atom_site_label
 _atom_site_symmetry_multiplicity
 _atom_site_fract_x
 _atom_site_fract_y
 _atom_site_fract_z
 _atom_site_occupancy
  Ta  Ta0  1  0.09504200  0.81563200  0.12217100  1
  Ta  Ta1  1  0.10040200  0.31122800  0.11825700  1
  Ta  Ta2  1  0.50257300  0.49793200  0.49826400  1
  Ta  Ta3  1  0.86458500  0.69715200  0.89699800  1
  Ta  Ta4  1  0.49711000  0.00178000  0.50055600  1
  Ta  Ta5  1  0.86220300  0.19913100  0.89552000  1
  Bi  Bi0  1  0.80358200  0.89913000  0.32229400  1
  Bi  Bi1  1  0.29102400  0.16229800  0.32375200  1
  Bi  Bi2  1  0.30206500  0.64837100  0.29438800  1
  Bi  Bi3  1  0.14174700  0.11070100  0.72220100  1
  Bi  Bi4  1  0.67326600  0.35646200  0.70815000  1
  Bi  Bi5  1  0.14770400  0.61133800  0.72346900  1
  Bi  Bi6  1  0.80489800  0.39236700  0.29252600  1
  Bi  Bi7  1  0.63717000  0.56811900  0.11076900  1
  Bi  Bi8  1  0.02644100  0.74544600  0.50087400  1
  Bi  Bi9  1  0.39413600  0.95064800  0.89633600  1
  Bi  Bi10  1  0.96736600  0.25879400  0.50631500  1
  Bi  Bi11  1  0.33603500  0.45435000  0.90693800  1
  Bi  Bi12  1  0.67370300  0.83919700  0.68252900  1
  Bi  Bi13  1  0.57671900  0.05751200  0.11825000  1
  O  O0  1  0.03733100  0.57372600  0.14263600  1
  O  O1  1  0.13236800  0.33424900  0.24247500  1
  O  O2  1  0.83304600  0.66982900  0.76839100  1
  O  O3  1  0.13416400  0.91523300  0.24290900  1
  O  O4  1  0.83562400  0.09561400  0.76925400  1
  O  O5  1  0.16361200  0.14684700  0.86577100  1
  O  O6  1  0.37500700  0.75843900  0.10851100  1
  O  O7  1  0.37114300  0.35947500  0.10406800  1
  O  O8  1  0.79703300  0.28686100  0.14974300  1
  O  O9  1  0.97477600  0.28364800  0.00622800  1
  O  O10  1  0.46735400  0.76479500  0.52786500  1
  O  O11  1  0.63719500  0.61586700  0.24070500  1
  O  O12  1  0.79622500  0.53059400  0.48388100  1
  O  O13  1  0.14639900  0.05262200  0.09989100  1
  O  O14  1  0.79230400  0.93862900  0.46612300  1
  O  O15  1  0.98407600  0.33580000  0.66877200  1
  O  O16  1  0.00054800  0.67695500  0.35231900  1
  O  O17  1  0.80601200  0.95425600  0.90813900  1
  O  O18  1  0.56038400  0.13559500  0.24668800  1
  O  O19  1  0.59822300  0.09853200  0.61532700  1
  O  O20  1  0.40570900  0.88644300  0.76835700  1
  O  O21  1  0.57019700  0.51733300  0.61970700  1
  O  O22  1  0.91055500  0.43413000  0.86748200  1
  O  O23  1  0.99217200  0.82846800  0.64109900  1
  O  O24  1  0.32507500  0.39288400  0.77658500  1
  O  O25  1  0.58213900  0.25057200  0.90619500  1
  O  O26  1  0.16380500  0.72218500  0.86409600  1
  O  O27  1  0.55453100  0.23686100  0.47233300  1
  O  O28  1  0.79394400  0.85909200  0.14230900  1
  O  O29  1  0.58526500  0.65785200  0.91032100  1
  O  O30  1  0.44324100  0.89894100  0.37613200  1
  O  O31  1  0.44844900  0.48754700  0.37796400  1
  O  O32  1  0.22147200  0.05773200  0.51353100  1
  O  O33  1  0.96231300  0.17842100  0.37023400  1
  O  O34  1  0.21571700  0.45773300  0.50836900  1
  O  O35  1  0.98727800  0.72326000  0.00463300  1
loop_
_geom_bond_atom_site_label_1
_geom_bond_atom_site_label_2
_geom_bond_distance
_geom_bond_site_symmetry_2
Bi0 O16 2.283114 1_655
Bi0 O33 2.338352 1_565
Bi0 O14 2.369888 1_555
Bi0 O11 2.505072 1_555
Bi0 O30 2.636831 1_555
Bi0 O3 2.680070 1_655
Bi1 O3 2.273861 1_545
Bi1 O18 2.275355 1_555
Bi1 O1 2.314986 1_555
Bi1 O33 2.381822 1_455
Bi1 O30 2.567878 1_545
Bi1 O31 2.646350 1_555
Bi2 O31 2.248956 1_555
Bi2 O30 2.256693 1_555
Bi2 O16 2.292065 1_555
Bi2 O11 2.469607 1_555
Bi2 O1 2.601691 1_555
Bi2 O3 2.624817 1_555
Bi3 O4 2.261133 1_455
Bi3 O15 2.342704 1_455
Bi3 O5 2.356084 1_555
Bi3 O24 2.444380 1_555
Bi3 O23 2.452759 1_445
Bi3 O20 2.668737 1_545
Bi4 O21 2.214194 1_555
Bi4 O15 2.223935 1_555
Bi4 O19 2.255040 1_555
Bi4 O2 2.587260 1_555
Bi4 O4 2.652305 1_555
Bi4 O24 2.658985 1_555
Bi5 O2 2.299247 1_455
Bi5 O26 2.314236 1_555
Bi5 O15 2.343456 1_455
Bi5 O24 2.358351 1_555
Bi5 O23 2.575524 1_455
Bi5 O20 2.665835 1_555
Bi6 O8 2.345076 1_555
Bi6 O11 2.348401 1_555
Bi6 O1 2.410271 1_655
Bi6 O18 2.508449 1_555
Bi6 O33 2.510709 1_555
Bi6 O16 2.512726 1_655
Bi7 O11 2.127379 1_555
Bi7 O6 2.290729 1_555
Bi7 O7 2.375385 1_555
Bi7 O28 2.398789 1_555
Bi7 O8 2.606179 1_555
Bi7 O0 2.697301 1_655
Bi8 O12 2.214259 1_455
Bi8 O14 2.297247 1_455
Bi8 O23 2.321413 1_455
Bi8 O16 2.421902 1_555
Bi8 O34 2.572299 1_555
Bi8 O32 2.687968 1_565
Bi9 O20 2.098352 1_555
Bi9 O5 2.273529 1_565
Bi9 O26 2.280226 1_555
Bi9 O25 2.590155 1_565
Bi9 O29 2.637458 1_555
Bi9 O17 2.754168 1_555
Bi10 O33 2.223760 1_555
Bi10 O34 2.251184 1_655
Bi10 O32 2.315695 1_655
Bi10 O12 2.473270 1_555
Bi10 O14 2.646296 1_545
Bi10 O15 2.649418 1_555
Bi10 O27 2.783935 1_555
Bi11 O24 2.126419 1_555
Bi11 O25 2.273744 1_555
Bi11 O29 2.275084 1_555
Bi11 O5 2.554845 1_555
Bi11 O26 2.577571 1_555
Bi12 O23 2.286245 1_555
Bi12 O2 2.356676 1_555
Bi12 O20 2.356711 1_555
Bi12 O4 2.375649 1_565
Bi12 O21 2.531278 1_555
Bi12 O19 2.537705 1_565
Bi12 O10 2.793831 1_555
Bi13 O18 2.112302 1_555
Bi13 O28 2.192947 1_545
Bi13 O8 2.241265 1_555
Bi13 O6 2.630338 1_545
Bi13 O7 2.746764 1_555
O0 Ta0 2.006107 1_555
O0 Ta1 2.014440 1_555
O1 Ta1 2.047923 1_555
O2 Ta3 2.116209 1_555
O3 Ta0 1.994962 1_555
O4 Ta5 2.081901 1_555
O5 Ta5 2.131334 1_455
O6 Ta0 1.945011 1_555
O7 Ta1 1.893700 1_555
O8 Ta1 2.154598 1_655
O9 Ta5 1.923293 1_554
O9 Ta1 1.972125 1_655
O10 Ta4 1.988029 1_565
O10 Ta2 2.013430 1_555
O12 Ta2 2.021920 1_555
O13 Ta1 1.966701 1_555
O13 Ta0 1.973678 1_545
O14 Ta4 2.125358 1_565
O17 Ta5 1.977928 1_565
O17 Ta3 1.982278 1_555
O19 Ta4 1.971910 1_555
O21 Ta2 2.028852 1_555
O22 Ta3 1.996229 1_555
O22 Ta5 1.997099 1_555
O25 Ta5 1.931000 1_555
O26 Ta3 2.136681 1_455
O27 Ta2 1.988316 1_555
O27 Ta4 2.010782 1_555
O28 Ta0 2.084207 1_655
O29 Ta3 1.932413 1_555
O30 Ta4 2.063633 1_565
O31 Ta2 2.010022 1_555
O32 Ta4 1.913360 1_555
O34 Ta2 1.972111 1_555
O35 Ta3 1.899977 1_554
O35 Ta0 2.020181 1_655
