# generated using pymatgen
data_Li2CrO2
_symmetry_space_group_name_H-M   'P 1'
_cell_length_a   4.73515477
_cell_length_b   6.86261829
_cell_length_c   6.86263876
_cell_angle_alpha   90.71755155
_cell_angle_beta   101.51015258
_cell_angle_gamma   101.50999527
_symmetry_Int_Tables_number   1
_chemical_formula_structural   Li2CrO2
_chemical_formula_sum   'Li8 Cr4 O8'
_cell_volume   213.80768456
_cell_formula_units_Z   4
loop_
 _symmetry_equiv_pos_site_id
 _symmetry_equiv_pos_as_xyz
  1  'x, y, z'
loop_
 _atom_site_type_symbol
 _atom_site_label
 _atom_site_symmetry_multiplicity
 _atom_site_fract_x
 _atom_site_fract_y
 _atom_site_fract_z
 _atom_site_occupancy
  Li  Li0  1  0.74923100  0.96619200  0.53313000  1
  Li  Li1  1  0.00078700  0.71687200  0.28380800  1
  Li  Li2  1  0.50081300  0.21688300  0.78379900  1
  Li  Li3  1  0.24920600  0.46620500  0.03311800  1
  Li  Li4  1  0.00078700  0.28380600  0.71687300  1
  Li  Li5  1  0.24920700  0.03311400  0.46620500  1
  Li  Li6  1  0.74923200  0.53313000  0.96619700  1
  Li  Li7  1  0.50081400  0.78379500  0.21688700  1
  Cr  Cr0  1  0.25980600  0.75469700  0.75467600  1
  Cr  Cr1  1  0.49019400  0.49533800  0.49530700  1
  Cr  Cr2  1  0.99023600  0.99535200  0.99535800  1
  Cr  Cr3  1  0.75972800  0.25463900  0.25463700  1
  O  O0  1  0.62493700  0.22930700  0.52067400  1
  O  O1  1  0.87501100  0.98136500  0.26864300  1
  O  O2  1  0.37500900  0.48136600  0.76864400  1
  O  O3  1  0.12501900  0.72931400  0.02067700  1
  O  O4  1  0.12502200  0.02068100  0.72931500  1
  O  O5  1  0.37501100  0.76863700  0.48137000  1
  O  O6  1  0.87501600  0.26864000  0.98137000  1
  O  O7  1  0.62493400  0.52066600  0.22931100  1
loop_
_geom_bond_atom_site_label_1
_geom_bond_atom_site_label_2
_geom_bond_distance
_geom_bond_site_symmetry_2
Li0 O5 1.970324 1_555
Li0 O4 1.970938 1_665
Li0 O0 2.005492 1_565
Li0 O1 2.017793 1_555
Li1 O5 1.970362 1_555
Li1 O7 1.971224 1_455
Li1 O3 2.005468 1_555
Li1 O1 2.017816 1_455
Li2 O6 1.970321 1_555
Li2 O4 1.970997 1_555
Li2 O0 2.005191 1_555
Li2 O2 2.017812 1_555
Li3 O6 1.970257 1_454
Li3 O7 1.970748 1_555
Li3 O3 2.005217 1_555
Li3 O2 2.017757 1_554
Li4 O2 1.970348 1_555
Li4 O0 1.971190 1_455
Li4 O4 2.005428 1_555
Li4 O6 2.017838 1_455
Li5 O1 1.970266 1_445
Li5 O0 1.970755 1_555
Li5 O4 2.005226 1_555
Li5 O5 2.017773 1_545
Li6 O2 1.970327 1_555
Li6 O3 1.970921 1_656
Li6 O7 2.005500 1_556
Li6 O6 2.017814 1_555
Li7 O1 1.970298 1_555
Li7 O3 1.971038 1_555
Li7 O7 2.005202 1_555
Li7 O5 2.017816 1_555
Cr0 O4 2.048915 1_565
Cr0 O3 2.049046 1_556
Cr0 O5 2.053438 1_555
Cr0 O2 2.053594 1_555
Cr1 O7 2.048895 1_555
Cr1 O0 2.049133 1_555
Cr1 O5 2.053339 1_555
Cr1 O2 2.053604 1_555
Cr2 O3 2.049257 1_656
Cr2 O4 2.049306 1_665
Cr2 O1 2.053342 1_556
Cr2 O6 2.053345 1_565
Cr3 O7 2.049211 1_555
Cr3 O0 2.049278 1_555
Cr3 O6 2.053354 1_554
Cr3 O1 2.053384 1_545
