# generated using pymatgen
data_Nd3HfSb5
_symmetry_space_group_name_H-M   'P 1'
_cell_length_a   9.59610987
_cell_length_b   9.59610308
_cell_length_c   6.23463255
_cell_angle_alpha   90.00000000
_cell_angle_beta   90.00000000
_cell_angle_gamma   119.99997825
_symmetry_Int_Tables_number   1
_chemical_formula_structural   Nd3HfSb5
_chemical_formula_sum   'Nd6 Hf2 Sb10'
_cell_volume   497.20067061
_cell_formula_units_Z   2
loop_
 _symmetry_equiv_pos_site_id
 _symmetry_equiv_pos_as_xyz
  1  'x, y, z'
loop_
 _atom_site_type_symbol
 _atom_site_label
 _atom_site_symmetry_multiplicity
 _atom_site_fract_x
 _atom_site_fract_y
 _atom_site_fract_z
 _atom_site_occupancy
  Nd  Nd0  1  0.61939722  0.00000000  0.25000000  1
  Nd  Nd1  1  0.38060278  -0.00000000  0.75000000  1
  Nd  Nd2  1  -0.00000000  0.61939722  0.25000000  1
  Nd  Nd3  1  0.00000000  0.38060278  0.75000000  1
  Nd  Nd4  1  0.38060278  0.38060278  0.25000000  1
  Nd  Nd5  1  0.61939722  0.61939722  0.75000000  1
  Hf  Hf0  1  -0.00000000  -0.00000000  -0.00000000  1
  Hf  Hf1  1  -0.00000000  -0.00000000  0.50000000  1
  Sb  Sb0  1  0.25995787  -0.00000000  0.25000000  1
  Sb  Sb1  1  0.74004213  0.00000000  0.75000000  1
  Sb  Sb2  1  0.00000000  0.25995787  0.25000000  1
  Sb  Sb3  1  -0.00000000  0.74004213  0.75000000  1
  Sb  Sb4  1  0.74004213  0.74004213  0.25000000  1
  Sb  Sb5  1  0.25995787  0.25995787  0.75000000  1
  Sb  Sb6  1  0.33333200  0.66666700  0.00000000  1
  Sb  Sb7  1  0.66666800  0.33333300  -0.00000000  1
  Sb  Sb8  1  0.66666800  0.33333300  0.50000000  1
  Sb  Sb9  1  0.33333200  0.66666700  0.50000000  1
loop_
_geom_bond_atom_site_label_1
_geom_bond_atom_site_label_2
_geom_bond_distance
_geom_bond_site_symmetry_2
Nd0 Sb4 3.232846 1_545
Nd0 Sb2 3.232848 1_655
Nd0 Sb1 3.325354 1_554
Nd0 Sb1 3.325354 1_555
Nd0 Sb7 3.378738 1_555
Nd0 Sb8 3.378738 1_555
Nd0 Sb6 3.378749 1_545
Nd0 Sb9 3.378749 1_545
Nd0 Sb0 3.449219 1_555
Nd1 Sb5 3.232846 1_555
Nd1 Sb3 3.232848 1_545
Nd1 Sb0 3.325354 1_555
Nd1 Sb0 3.325354 1_556
Nd1 Sb9 3.378738 1_545
Nd1 Sb6 3.378738 1_546
Nd1 Sb7 3.378749 1_556
Nd1 Sb8 3.378749 1_555
Nd1 Sb1 3.449219 1_555
Nd2 Sb0 3.232847 1_565
Nd2 Sb4 3.232847 1_455
Nd2 Sb3 3.325354 1_554
Nd2 Sb3 3.325354 1_555
Nd2 Sb9 3.378735 1_555
Nd2 Sb6 3.378735 1_555
Nd2 Sb7 3.378742 1_455
Nd2 Sb8 3.378742 1_455
Nd2 Sb2 3.449217 1_555
Nd3 Sb1 3.232847 1_455
Nd3 Sb5 3.232847 1_555
Nd3 Sb2 3.325354 1_555
Nd3 Sb2 3.325354 1_556
Nd3 Sb7 3.378735 1_456
Nd3 Sb8 3.378735 1_455
Nd3 Sb9 3.378742 1_555
Nd3 Sb6 3.378742 1_556
Nd3 Sb3 3.449217 1_555
Nd4 Sb0 3.232846 1_555
Nd4 Sb2 3.232848 1_555
Nd4 Sb5 3.325354 1_555
Nd4 Sb5 3.325354 1_554
Nd4 Sb9 3.378755 1_555
Nd4 Sb6 3.378755 1_555
Nd4 Sb7 3.378760 1_555
Nd4 Sb8 3.378760 1_555
Nd4 Sb4 3.449219 1_555
Nd5 Sb1 3.232846 1_565
Nd5 Sb3 3.232848 1_655
Nd5 Sb4 3.325354 1_556
Nd5 Sb4 3.325354 1_555
Nd5 Sb7 3.378755 1_556
Nd5 Sb8 3.378755 1_555
Nd5 Sb6 3.378760 1_556
Nd5 Sb9 3.378760 1_555
Nd5 Sb5 3.449219 1_555
Hf0 Sb2 2.941489 1_555
Hf0 Sb3 2.941489 1_544
Hf0 Sb4 2.941490 1_445
Hf0 Sb5 2.941490 1_554
Hf0 Sb0 2.941490 1_555
Hf0 Sb1 2.941490 1_454
Hf1 Sb2 2.941489 1_555
Hf1 Sb3 2.941489 1_545
Hf1 Sb4 2.941490 1_445
Hf1 Sb5 2.941490 1_555
Hf1 Sb0 2.941490 1_555
Hf1 Sb1 2.941490 1_455
Sb6 Sb9 3.117316 1_555
Sb6 Sb9 3.117316 1_554
Sb7 Sb8 3.117316 1_554
Sb7 Sb8 3.117316 1_555
