# generated using pymatgen
data_Co3TeO8
_symmetry_space_group_name_H-M   'P 1'
_cell_length_a   5.90144483
_cell_length_b   6.06973568
_cell_length_c   10.66845073
_cell_angle_alpha   106.47630741
_cell_angle_beta   106.81744562
_cell_angle_gamma   59.18892050
_symmetry_Int_Tables_number   1
_chemical_formula_structural   Co3TeO8
_chemical_formula_sum   'Co6 Te2 O16'
_cell_volume   309.88155293
_cell_formula_units_Z   2
loop_
 _symmetry_equiv_pos_site_id
 _symmetry_equiv_pos_as_xyz
  1  'x, y, z'
loop_
 _atom_site_type_symbol
 _atom_site_label
 _atom_site_symmetry_multiplicity
 _atom_site_fract_x
 _atom_site_fract_y
 _atom_site_fract_z
 _atom_site_occupancy
  Co  Co0  1  0.50000100  0.99999900  0.49999900  1
  Co  Co1  1  0.50000000  0.50000000  0.00000000  1
  Co  Co2  1  0.00000000  0.99999900  0.49999900  1
  Co  Co3  1  0.50000100  0.00000000  0.00000000  1
  Co  Co4  1  0.99999800  0.50000100  0.49999900  1
  Co  Co5  1  0.00000100  0.50000200  0.00000100  1
  Te  Te0  1  0.99999700  0.99999800  0.00000100  1
  Te  Te1  1  0.50000100  0.50000000  0.49999900  1
  O  O0  1  0.13760100  0.13876800  0.41988000  1
  O  O1  1  0.62721200  0.64820000  0.91735800  1
  O  O2  1  0.37278900  0.35180000  0.08264200  1
  O  O3  1  0.86239800  0.86123000  0.58011800  1
  O  O4  1  0.64684200  0.61115900  0.40185800  1
  O  O5  1  0.14158800  0.11901700  0.89919100  1
  O  O6  1  0.13742700  0.65707000  0.39582800  1
  O  O7  1  0.63785700  0.10361100  0.89544000  1
  O  O8  1  0.63638500  0.13644500  0.40113800  1
  O  O9  1  0.14192600  0.64255400  0.90325400  1
  O  O10  1  0.85807500  0.35744800  0.09674700  1
  O  O11  1  0.36361500  0.86355500  0.59886200  1
  O  O12  1  0.36214300  0.89639000  0.10456000  1
  O  O13  1  0.86257600  0.34292800  0.60417300  1
  O  O14  1  0.85841200  0.88098500  0.10081200  1
  O  O15  1  0.35315700  0.38884100  0.59814000  1
loop_
_geom_bond_atom_site_label_1
_geom_bond_atom_site_label_2
_geom_bond_distance
_geom_bond_site_symmetry_2
Co0 O3 1.875947 1_555
Co0 O0 1.875960 1_565
Co0 O8 2.028699 1_565
Co0 O11 2.028715 1_555
Co0 O4 2.108468 1_555
Co0 O15 2.108477 1_565
Co1 O9 1.910716 1_554
Co1 O10 1.910723 1_555
Co1 O2 1.916963 1_555
Co1 O1 1.916968 1_554
Co1 O7 2.166213 1_554
Co1 O12 2.166218 1_555
Co2 O0 1.900040 1_565
Co2 O3 1.900045 1_455
Co2 O6 1.924959 1_555
Co2 O13 1.924971 1_465
Co2 O8 1.941203 1_465
Co2 O11 1.941210 1_555
Co3 O2 1.890361 1_555
Co3 O1 1.890361 1_544
Co3 O5 1.926522 1_554
Co3 O14 1.926525 1_545
Co3 O7 1.936202 1_554
Co3 O12 1.936206 1_545
Co4 O4 1.895414 1_555
Co4 O15 1.895427 1_655
Co4 O3 1.926653 1_555
Co4 O0 1.926672 1_655
Co4 O6 2.171728 1_655
Co4 O13 2.171740 1_555
Co5 O2 1.930450 1_555
Co5 O1 1.930460 1_454
Co5 O9 2.065114 1_554
Co5 O10 2.065120 1_455
Co5 O14 2.081398 1_455
Co5 O5 2.081404 1_554
O4 Te1 1.956297 1_555
O5 Te0 1.988938 1_446
O6 Te1 1.964082 1_555
O7 Te0 1.961847 1_546
O8 Te1 1.995298 1_555
O9 Te0 1.960207 1_456
O10 Te0 1.960230 1_545
O11 Te1 1.995305 1_555
O12 Te0 1.961869 1_455
O13 Te1 1.964100 1_555
O14 Te0 1.988892 1_555
O15 Te1 1.956311 1_555
