# generated using pymatgen
data_Sr2VMoO6
_symmetry_space_group_name_H-M   'P 1'
_cell_length_a   5.65398056
_cell_length_b   6.94419949
_cell_length_c   6.94449395
_cell_angle_alpha   71.04487880
_cell_angle_beta   89.93352437
_cell_angle_gamma   89.93720361
_symmetry_Int_Tables_number   1
_chemical_formula_structural   Sr2VMoO6
_chemical_formula_sum   'Sr4 V2 Mo2 O12'
_cell_volume   257.87172997
_cell_formula_units_Z   2
loop_
 _symmetry_equiv_pos_site_id
 _symmetry_equiv_pos_as_xyz
  1  'x, y, z'
loop_
 _atom_site_type_symbol
 _atom_site_label
 _atom_site_symmetry_multiplicity
 _atom_site_fract_x
 _atom_site_fract_y
 _atom_site_fract_z
 _atom_site_occupancy
  Sr  Sr0  1  0.49666600  0.75017500  0.25166900  1
  Sr  Sr1  1  0.49674500  0.25167600  0.75019900  1
  Sr  Sr2  1  0.00157000  0.00135800  0.49522500  1
  Sr  Sr3  1  0.00155700  0.49522300  0.00137600  1
  V  V0  1  0.99737700  0.49850100  0.49850600  1
  V  V1  1  0.99940600  0.99958600  0.99960400  1
  Mo  Mo0  1  0.50058300  0.25005300  0.25006500  1
  Mo  Mo1  1  0.50033800  0.75044200  0.75044200  1
  O  O0  1  0.00256000  0.74156300  0.26136600  1
  O  O1  1  0.00250300  0.26137200  0.74156200  1
  O  O2  1  0.49873700  0.99509900  0.50402800  1
  O  O3  1  0.49884800  0.50407700  0.99515900  1
  O  O4  1  0.25170600  0.12661900  0.12640200  1
  O  O5  1  0.25577200  0.62667400  0.62660000  1
  O  O6  1  0.75468200  0.37664300  0.37673700  1
  O  O7  1  0.74089800  0.87093900  0.87106900  1
  O  O8  1  0.24916800  0.37811100  0.37809700  1
  O  O9  1  0.24557100  0.87512700  0.87508200  1
  O  O10  1  0.75298000  0.12317400  0.12325400  1
  O  O11  1  0.75233600  0.62358800  0.62356000  1
loop_
_geom_bond_atom_site_label_1
_geom_bond_atom_site_label_2
_geom_bond_distance
_geom_bond_site_symmetry_2
Mo0 O4 1.983916 1_555
Mo0 O10 2.021553 1_555
Mo0 O8 2.027292 1_555
Mo0 O6 2.029453 1_555
Mo0 O2 2.053420 1_545
Mo0 O3 2.053469 1_554
Mo1 O7 1.926741 1_555
Mo1 O5 1.968742 1_555
Mo1 O2 1.981428 1_555
Mo1 O3 1.981465 1_555
Mo1 O9 2.013705 1_555
Mo1 O11 2.020148 1_555
O0 V0 1.938035 1_455
O0 V1 2.097422 1_454
O0 Sr2 2.792048 1_565
O0 Sr0 2.794636 1_555
O0 Sr0 2.861288 1_455
O0 Sr3 2.862283 1_555
O1 V0 1.937968 1_455
O1 V1 2.097589 1_445
O1 Sr3 2.792124 1_556
O1 Sr1 2.795416 1_555
O1 Sr1 2.860513 1_455
O1 Sr2 2.862397 1_555
O2 Sr0 2.810806 1_555
O2 Sr2 2.811689 1_565
O2 Sr1 2.841807 1_565
O2 Sr2 2.843671 1_665
O3 Sr1 2.811246 1_555
O3 Sr3 2.812388 1_556
O3 Sr0 2.841023 1_556
O3 Sr3 2.842979 1_656
O4 V1 2.024536 1_444
O4 Sr3 2.803065 1_555
O4 Sr2 2.804262 1_555
O4 Sr1 2.831835 1_554
O4 Sr0 2.833023 1_545
O5 V0 2.058673 1_455
O5 Sr0 2.813099 1_555
O5 Sr1 2.813719 1_555
O5 Sr2 2.849656 1_565
O5 Sr3 2.850196 1_556
O6 V0 1.945295 1_555
O6 Sr2 2.831733 1_655
O6 Sr3 2.832111 1_655
O6 Sr1 2.852726 1_555
O6 Sr0 2.853379 1_555
O7 V1 2.062773 1_555
O7 Sr0 2.854829 1_556
O7 Sr1 2.855413 1_565
O7 Sr3 2.873816 1_656
O7 Sr2 2.874558 1_665
O8 V0 1.968142 1_455
O8 Sr0 2.817063 1_555
O8 Sr1 2.817701 1_555
O8 Sr2 2.844120 1_555
O8 Sr3 2.844174 1_555
O9 V1 1.977873 1_455
O9 Sr2 2.851979 1_565
O9 Sr3 2.852086 1_556
O9 Sr1 2.852770 1_565
O9 Sr0 2.852968 1_556
O10 V1 1.971927 1_544
O10 Sr2 2.819570 1_655
O10 Sr3 2.819778 1_655
O10 Sr0 2.847644 1_545
O10 Sr1 2.847943 1_554
O11 V0 1.978087 1_555
O11 Sr1 2.839264 1_555
O11 Sr0 2.839570 1_555
O11 Sr2 2.854488 1_665
O11 Sr3 2.854918 1_656
