# generated using pymatgen
data_MgTi4O6
_symmetry_space_group_name_H-M   'P 1'
_cell_length_a   5.16166895
_cell_length_b   5.16166895
_cell_length_c   14.96203300
_cell_angle_alpha   90.00000000
_cell_angle_beta   90.00000000
_cell_angle_gamma   146.87453573
_symmetry_Int_Tables_number   1
_chemical_formula_structural   MgTi4O6
_chemical_formula_sum   'Mg2 Ti8 O12'
_cell_volume   217.84148095
_cell_formula_units_Z   2
loop_
 _symmetry_equiv_pos_site_id
 _symmetry_equiv_pos_as_xyz
  1  'x, y, z'
loop_
 _atom_site_type_symbol
 _atom_site_label
 _atom_site_symmetry_multiplicity
 _atom_site_fract_x
 _atom_site_fract_y
 _atom_site_fract_z
 _atom_site_occupancy
  Mg  Mg0  1  0.34199600  0.65800400  0.75000000  1
  Mg  Mg1  1  0.65800400  0.34199600  0.25000000  1
  Ti  Ti0  1  0.14650900  0.85349100  0.03968600  1
  Ti  Ti1  1  0.59770400  0.40229600  0.63023800  1
  Ti  Ti2  1  0.85349100  0.14650900  0.96031400  1
  Ti  Ti3  1  0.40229600  0.59770400  0.36976200  1
  Ti  Ti4  1  0.14650900  0.85349100  0.46031400  1
  Ti  Ti5  1  0.85349100  0.14650900  0.53968600  1
  Ti  Ti6  1  0.40229600  0.59770400  0.13023800  1
  Ti  Ti7  1  0.59770400  0.40229600  0.86976200  1
  O  O0  1  0.50000000  0.50000000  0.50000000  1
  O  O1  1  0.50000000  0.50000000  0.00000000  1
  O  O2  1  0.95571300  0.04428700  0.83805700  1
  O  O3  1  0.04428700  0.95571300  0.16194300  1
  O  O4  1  0.04428700  0.95571300  0.33805700  1
  O  O5  1  0.95571300  0.04428700  0.66194300  1
  O  O6  1  0.23514800  0.76485200  0.90425800  1
  O  O7  1  0.76485200  0.23514800  0.09574200  1
  O  O8  1  0.76485200  0.23514800  0.40425800  1
  O  O9  1  0.23514800  0.76485200  0.59574200  1
  O  O10  1  0.68922600  0.31077400  0.75000000  1
  O  O11  1  0.31077400  0.68922600  0.25000000  1
loop_
_geom_bond_atom_site_label_1
_geom_bond_atom_site_label_2
_geom_bond_distance
_geom_bond_site_symmetry_2
Mg0 O10 2.109542 1_565
Mg0 O10 2.109542 1_455
Mg0 O2 2.273110 1_565
Mg0 O5 2.273110 1_565
Mg0 O5 2.273110 1_455
Mg0 O2 2.273110 1_455
Mg0 O6 2.538647 1_555
Mg0 O9 2.538647 1_555
Mg1 O11 2.109542 1_655
Mg1 O11 2.109542 1_545
Mg1 O3 2.273110 1_655
Mg1 O3 2.273110 1_545
Mg1 O4 2.273110 1_655
Mg1 O4 2.273110 1_545
Mg1 O7 2.538647 1_555
Mg1 O8 2.538647 1_555
O0 Ti5 2.149251 1_455
O0 Ti4 2.149251 1_545
O0 Ti4 2.149251 1_655
O0 Ti5 2.149251 1_565
O0 Ti1 2.175272 1_555
O0 Ti3 2.175272 1_555
O1 Ti0 2.149251 1_545
O1 Ti2 2.149251 1_454
O1 Ti0 2.149251 1_655
O1 Ti2 2.149251 1_564
O1 Ti7 2.175272 1_554
O1 Ti6 2.175272 1_555
O2 Ti7 2.089045 1_545
O2 Ti7 2.089045 1_655
O2 Ti2 2.090246 1_555
O3 Ti6 2.089045 1_455
O3 Ti6 2.089045 1_565
O3 Ti0 2.090246 1_555
O4 Ti3 2.089045 1_565
O4 Ti3 2.089045 1_455
O4 Ti4 2.090246 1_555
O5 Ti1 2.089045 1_545
O5 Ti1 2.089045 1_655
O5 Ti5 2.090246 1_555
O6 Ti2 2.059063 1_565
O6 Ti2 2.059063 1_455
O6 Ti7 2.069073 1_565
O6 Ti7 2.069073 1_455
O6 Ti0 2.207958 1_556
O7 Ti0 2.059063 1_545
O7 Ti0 2.059063 1_655
O7 Ti6 2.069073 1_545
O7 Ti6 2.069073 1_655
O7 Ti2 2.207958 1_554
O8 Ti4 2.059063 1_655
O8 Ti4 2.059063 1_545
O8 Ti3 2.069073 1_545
O8 Ti3 2.069073 1_655
O8 Ti5 2.207958 1_555
O9 Ti5 2.059063 1_565
O9 Ti5 2.059063 1_455
O9 Ti1 2.069073 1_565
O9 Ti1 2.069073 1_455
O9 Ti4 2.207958 1_555
O10 Ti7 2.007729 1_555
O10 Ti1 2.007729 1_555
O11 Ti3 2.007729 1_555
O11 Ti6 2.007729 1_555
