# generated using pymatgen
data_La7SmV8O24
_symmetry_space_group_name_H-M   'P 1'
_cell_length_a   7.90418200
_cell_length_b   7.90418200
_cell_length_c   7.90418200
_cell_angle_alpha   90.00000000
_cell_angle_beta   90.00000000
_cell_angle_gamma   90.00000000
_symmetry_Int_Tables_number   1
_chemical_formula_structural   La7SmV8O24
_chemical_formula_sum   'La7 Sm1 V8 O24'
_cell_volume   493.82241043
_cell_formula_units_Z   1
loop_
 _symmetry_equiv_pos_site_id
 _symmetry_equiv_pos_as_xyz
  1  'x, y, z'
loop_
 _atom_site_type_symbol
 _atom_site_label
 _atom_site_symmetry_multiplicity
 _atom_site_fract_x
 _atom_site_fract_y
 _atom_site_fract_z
 _atom_site_occupancy
  La  La0  1  0.50000000  0.00000000  0.00000000  1
  La  La1  1  0.50000000  0.00000000  0.50000000  1
  La  La2  1  0.50000000  0.50000000  0.00000000  1
  La  La3  1  0.50000000  0.50000000  0.50000000  1
  La  La4  1  0.00000000  0.00000000  0.50000000  1
  La  La5  1  0.00000000  0.50000000  0.00000000  1
  La  La6  1  0.00000000  0.50000000  0.50000000  1
  Sm  Sm0  1  0.00000000  0.00000000  0.00000000  1
  V  V0  1  0.24994700  0.75005300  0.75005300  1
  V  V1  1  0.24994700  0.75005300  0.24994700  1
  V  V2  1  0.24994700  0.24994700  0.75005300  1
  V  V3  1  0.24994700  0.24994700  0.24994700  1
  V  V4  1  0.75005300  0.75005300  0.75005300  1
  V  V5  1  0.75005300  0.75005300  0.24994700  1
  V  V6  1  0.75005300  0.24994700  0.75005300  1
  V  V7  1  0.75005300  0.24994700  0.24994700  1
  O  O0  1  0.50000000  0.75002700  0.75002700  1
  O  O1  1  0.50000000  0.75002700  0.24997300  1
  O  O2  1  0.50000000  0.24997300  0.75002700  1
  O  O3  1  0.50000000  0.24997300  0.24997300  1
  O  O4  1  0.00000000  0.75068900  0.75068900  1
  O  O5  1  0.00000000  0.75068900  0.24931100  1
  O  O6  1  0.00000000  0.24931100  0.75068900  1
  O  O7  1  0.00000000  0.24931100  0.24931100  1
  O  O8  1  0.24931100  0.00000000  0.75068900  1
  O  O9  1  0.24931100  0.00000000  0.24931100  1
  O  O10  1  0.24997300  0.50000000  0.75002700  1
  O  O11  1  0.24997300  0.50000000  0.24997300  1
  O  O12  1  0.75068900  0.00000000  0.75068900  1
  O  O13  1  0.75068900  0.00000000  0.24931100  1
  O  O14  1  0.75002700  0.50000000  0.75002700  1
  O  O15  1  0.75002700  0.50000000  0.24997300  1
  O  O16  1  0.24931100  0.75068900  0.00000000  1
  O  O17  1  0.24997300  0.75002700  0.50000000  1
  O  O18  1  0.24931100  0.24931100  0.00000000  1
  O  O19  1  0.24997300  0.24997300  0.50000000  1
  O  O20  1  0.75068900  0.75068900  0.00000000  1
  O  O21  1  0.75002700  0.75002700  0.50000000  1
  O  O22  1  0.75068900  0.24931100  0.00000000  1
  O  O23  1  0.75002700  0.24997300  0.50000000  1
loop_
_geom_bond_atom_site_label_1
_geom_bond_atom_site_label_2
_geom_bond_distance
_geom_bond_site_symmetry_2
La0 O3 2.794249 1_555
La0 O0 2.794249 1_544
La0 O2 2.794249 1_554
La0 O1 2.794249 1_545
La0 O13 2.794561 1_555
La0 O22 2.794561 1_555
La0 O12 2.794561 1_554
La0 O18 2.794561 1_555
La0 O20 2.794561 1_545
La0 O9 2.794561 1_555
La0 O8 2.794561 1_554
La0 O16 2.794561 1_545
La1 O2 2.794550 1_555
La1 O3 2.794550 1_555
La1 O0 2.794550 1_545
La1 O1 2.794550 1_545
La1 O19 2.794550 1_555
La1 O17 2.794550 1_545
La1 O21 2.794550 1_545
La1 O23 2.794550 1_555
La1 O12 2.802252 1_555
La1 O13 2.802252 1_555
La1 O8 2.802252 1_555
La1 O9 2.802252 1_555
La2 O2 2.794550 1_554
La2 O15 2.794550 1_555
La2 O0 2.794550 1_554
La2 O10 2.794550 1_554
La2 O3 2.794550 1_555
La2 O14 2.794550 1_554
La2 O11 2.794550 1_555
La2 O1 2.794550 1_555
La2 O20 2.802252 1_555
La2 O22 2.802252 1_555
La2 O16 2.802252 1_555
La2 O18 2.802252 1_555
La3 O0 2.794852 1_555
La3 O2 2.794852 1_555
La3 O3 2.794852 1_555
La3 O19 2.794852 1_555
La3 O17 2.794852 1_555
La3 O23 2.794852 1_555
La3 O1 2.794852 1_555
La3 O21 2.794852 1_555
La3 O11 2.794852 1_555
La3 O14 2.794852 1_555
La3 O15 2.794852 1_555
La3 O10 2.794852 1_555
La4 O23 2.794249 1_455
La4 O17 2.794249 1_545
La4 O21 2.794249 1_445
La4 O19 2.794249 1_555
La4 O6 2.794561 1_555
La4 O8 2.794561 1_555
La4 O12 2.794561 1_455
La4 O7 2.794561 1_555
La4 O4 2.794561 1_545
La4 O9 2.794561 1_555
La4 O13 2.794561 1_455
La4 O5 2.794561 1_545
La5 O10 2.794249 1_554
La5 O11 2.794249 1_555
La5 O15 2.794249 1_455
La5 O14 2.794249 1_454
La5 O5 2.794561 1_555
La5 O16 2.794561 1_555
La5 O4 2.794561 1_554
La5 O18 2.794561 1_555
La5 O7 2.794561 1_555
La5 O20 2.794561 1_455
La5 O22 2.794561 1_455
La5 O6 2.794561 1_554
La6 O19 2.794550 1_555
La6 O14 2.794550 1_455
La6 O23 2.794550 1_455
La6 O11 2.794550 1_555
La6 O15 2.794550 1_455
La6 O17 2.794550 1_555
La6 O21 2.794550 1_455
La6 O10 2.794550 1_555
La6 O4 2.802252 1_555
La6 O5 2.802252 1_555
La6 O6 2.802252 1_555
La6 O7 2.802252 1_555
O0 V4 1.976464 1_555
O0 V0 1.976464 1_555
O1 V5 1.976464 1_555
O1 V1 1.976464 1_555
O2 V2 1.976464 1_555
O2 V6 1.976464 1_555
O3 V7 1.976464 1_555
O3 V3 1.976464 1_555
O4 V0 1.975639 1_555
O4 V4 1.975639 1_455
O4 Sm0 2.786849 1_566
O5 V1 1.975639 1_555
O5 V5 1.975639 1_455
O5 Sm0 2.786849 1_565
O6 V2 1.975639 1_555
O6 V6 1.975639 1_455
O6 Sm0 2.786849 1_556
O7 V3 1.975639 1_555
O7 V7 1.975639 1_455
O7 Sm0 2.786849 1_555
O8 V2 1.975639 1_555
O8 V0 1.975639 1_545
O8 Sm0 2.786849 1_556
O9 V3 1.975639 1_555
O9 V1 1.975639 1_545
O9 Sm0 2.786849 1_555
O10 V2 1.976464 1_555
O10 V0 1.976464 1_555
O11 V1 1.976464 1_555
O11 V3 1.976464 1_555
O12 V6 1.975639 1_555
O12 V4 1.975639 1_545
O12 Sm0 2.786849 1_656
O13 V7 1.975639 1_555
O13 V5 1.975639 1_545
O13 Sm0 2.786849 1_655
O14 V4 1.976464 1_555
O14 V6 1.976464 1_555
O15 V5 1.976464 1_555
O15 V7 1.976464 1_555
O16 V1 1.975639 1_555
O16 V0 1.975639 1_554
O16 Sm0 2.786849 1_565
O17 V0 1.976464 1_555
O17 V1 1.976464 1_555
O18 V3 1.975639 1_555
O18 V2 1.975639 1_554
O18 Sm0 2.786849 1_555
O19 V2 1.976464 1_555
O19 V3 1.976464 1_555
O20 V5 1.975639 1_555
O20 V4 1.975639 1_554
O20 Sm0 2.786849 1_665
O21 V5 1.976464 1_555
O21 V4 1.976464 1_555
O22 V7 1.975639 1_555
O22 V6 1.975639 1_554
O22 Sm0 2.786849 1_655
O23 V7 1.976464 1_555
O23 V6 1.976464 1_555
