# generated using pymatgen
data_Ba4PrHo(Cu3O7)2
_symmetry_space_group_name_H-M   'P 1'
_cell_length_a   3.86870500
_cell_length_b   3.94435800
_cell_length_c   23.77481600
_cell_angle_alpha   90.00000000
_cell_angle_beta   90.00000000
_cell_angle_gamma   90.00000000
_symmetry_Int_Tables_number   1
_chemical_formula_structural   Ba4PrHo(Cu3O7)2
_chemical_formula_sum   'Ba4 Pr1 Ho1 Cu6 O14'
_cell_volume   362.79317219
_cell_formula_units_Z   1
loop_
 _symmetry_equiv_pos_site_id
 _symmetry_equiv_pos_as_xyz
  1  'x, y, z'
loop_
 _atom_site_type_symbol
 _atom_site_label
 _atom_site_symmetry_multiplicity
 _atom_site_fract_x
 _atom_site_fract_y
 _atom_site_fract_z
 _atom_site_occupancy
  Ba  Ba0  1  0.50000000  0.50000000  0.83970300  1
  Ba  Ba1  1  0.50000000  0.50000000  0.34052400  1
  Ba  Ba2  1  0.50000000  0.50000000  0.16029700  1
  Ba  Ba3  1  0.50000000  0.50000000  0.65947600  1
  Pr  Pr0  1  0.50000000  0.50000000  0.00000000  1
  Ho  Ho0  1  0.50000000  0.50000000  0.50000000  1
  Cu  Cu0  1  0.00000000  0.00000000  0.92322900  1
  Cu  Cu1  1  0.00000000  0.00000000  0.42644900  1
  Cu  Cu2  1  0.00000000  0.00000000  0.07677100  1
  Cu  Cu3  1  0.00000000  0.00000000  0.57355100  1
  Cu  Cu4  1  0.00000000  0.00000000  0.74980400  1
  Cu  Cu5  1  0.00000000  0.00000000  0.25019600  1
  O  O0  1  0.00000000  0.00000000  0.82891800  1
  O  O1  1  0.00000000  0.00000000  0.32974400  1
  O  O2  1  0.00000000  0.00000000  0.17108200  1
  O  O3  1  0.00000000  0.00000000  0.67025600  1
  O  O4  1  0.50000000  0.00000000  0.93519600  1
  O  O5  1  0.50000000  0.00000000  0.44064600  1
  O  O6  1  0.50000000  0.00000000  0.06480400  1
  O  O7  1  0.50000000  0.00000000  0.55935400  1
  O  O8  1  0.00000000  0.50000000  0.93464900  1
  O  O9  1  0.00000000  0.50000000  0.44021000  1
  O  O10  1  0.00000000  0.50000000  0.06535100  1
  O  O11  1  0.00000000  0.50000000  0.55979000  1
  O  O12  1  0.00000000  0.50000000  0.74952500  1
  O  O13  1  0.00000000  0.50000000  0.25047500  1
loop_
_geom_bond_atom_site_label_1
_geom_bond_atom_site_label_2
_geom_bond_distance
_geom_bond_site_symmetry_2
Ba0 O0 2.774339 1_665
Ba0 O0 2.774339 1_555
Ba0 O0 2.774339 1_655
Ba0 O0 2.774339 1_565
Ba0 O12 2.887613 1_555
Ba0 O12 2.887613 1_655
Ba0 O8 2.972748 1_555
Ba0 O8 2.972748 1_655
Ba0 O4 3.007305 1_555
Ba0 O4 3.007305 1_565
Ba1 O1 2.774328 1_655
Ba1 O1 2.774328 1_555
Ba1 O1 2.774328 1_565
Ba1 O1 2.774328 1_665
Ba1 O13 2.885336 1_655
Ba1 O13 2.885336 1_555
Ba1 O9 3.059199 1_555
Ba1 O9 3.059199 1_655
Ba1 O5 3.091231 1_555
Ba1 O5 3.091231 1_565
Ba2 O2 2.774339 1_555
Ba2 O2 2.774339 1_565
Ba2 O2 2.774339 1_665
Ba2 O2 2.774339 1_655
Ba2 O13 2.887613 1_555
Ba2 O13 2.887613 1_655
Ba2 O10 2.972748 1_655
Ba2 O10 2.972748 1_555
Ba2 O6 3.007305 1_565
Ba2 O6 3.007305 1_555
Ba3 O3 2.774328 1_555
Ba3 O3 2.774328 1_655
Ba3 O3 2.774328 1_665
Ba3 O3 2.774328 1_565
Ba3 O12 2.885336 1_555
Ba3 O12 2.885336 1_655
Ba3 O11 3.059199 1_655
Ba3 O11 3.059199 1_555
Ba3 O7 3.091231 1_555
Ba3 O7 3.091231 1_565
Ho0 O11 2.400494 1_555
Ho0 O11 2.400494 1_655
Ho0 O9 2.400494 1_555
Ho0 O9 2.400494 1_655
Ho0 O7 2.425032 1_565
Ho0 O5 2.425032 1_555
Ho0 O5 2.425032 1_565
Ho0 O7 2.425032 1_555
Cu0 O4 1.955164 1_555
Cu0 O4 1.955164 1_455
Cu0 O8 1.990780 1_545
Cu0 O8 1.990780 1_555
Cu0 O0 2.242227 1_555
Cu1 O5 1.963580 1_455
Cu1 O5 1.963580 1_555
Cu1 O9 1.999132 1_555
Cu1 O9 1.999132 1_545
Cu1 O1 2.299144 1_555
Cu2 O6 1.955164 1_555
Cu2 O6 1.955164 1_455
Cu2 O10 1.990780 1_555
Cu2 O10 1.990780 1_545
Cu2 O2 2.242227 1_555
Cu3 O7 1.963580 1_455
Cu3 O7 1.963580 1_555
Cu3 O11 1.999132 1_545
Cu3 O11 1.999132 1_555
Cu3 O3 2.299144 1_555
Cu4 O0 1.880921 1_555
Cu4 O3 1.891239 1_555
Cu4 O12 1.972190 1_545
Cu4 O12 1.972190 1_555
Cu5 O2 1.880921 1_555
Cu5 O1 1.891239 1_555
Cu5 O13 1.972190 1_545
Cu5 O13 1.972190 1_555
O4 Pr0 2.502650 1_556
O4 Pr0 2.502650 1_546
O6 Pr0 2.502650 1_555
O6 Pr0 2.502650 1_545
O8 Pr0 2.481074 1_556
O8 Pr0 2.481074 1_456
O10 Pr0 2.481074 1_555
O10 Pr0 2.481074 1_455
