# generated using pymatgen
data_Sr2Y2W2O7
_symmetry_space_group_name_H-M   'P 1'
_cell_length_a   12.63872582
_cell_length_b   12.63872582
_cell_length_c   12.63872582
_cell_angle_alpha   153.18820215
_cell_angle_beta   152.37215834
_cell_angle_gamma   38.87917820
_symmetry_Int_Tables_number   1
_chemical_formula_structural   Sr2Y2W2O7
_chemical_formula_sum   'Sr4 Y4 W4 O14'
_cell_volume   421.56100392
_cell_formula_units_Z   2
loop_
 _symmetry_equiv_pos_site_id
 _symmetry_equiv_pos_as_xyz
  1  'x, y, z'
loop_
 _atom_site_type_symbol
 _atom_site_label
 _atom_site_symmetry_multiplicity
 _atom_site_fract_x
 _atom_site_fract_y
 _atom_site_fract_z
 _atom_site_occupancy
  Sr  Sr0  1  0.80677200  0.85645700  0.96273200  1
  Sr  Sr1  1  0.19322800  0.15596000  0.04968500  1
  Sr  Sr2  1  0.60627500  0.65596000  0.96273200  1
  Sr  Sr3  1  0.39372500  0.35645700  0.04968500  1
  Y  Y0  1  0.50000000  0.46346000  0.96346000  1
  Y  Y1  1  0.00000000  0.96346000  0.96346000  1
  Y  Y2  1  0.18406000  0.78145000  0.46551100  1
  Y  Y3  1  0.81594000  0.28145000  0.59739000  1
  W  W0  1  0.93415900  0.39883500  0.46892500  1
  W  W1  1  0.06584100  0.53476500  0.46467600  1
  W  W2  1  0.57008900  0.03476500  0.46892500  1
  W  W3  1  0.42991100  0.89883500  0.46467600  1
  O  O0  1  0.84592100  0.65488400  0.00080500  1
  O  O1  1  0.15407900  0.15488400  0.80896400  1
  O  O2  1  0.74166700  0.71139000  0.59366600  1
  O  O3  1  0.25833300  0.85199900  0.96972300  1
  O  O4  1  0.38227600  0.35199900  0.59366600  1
  O  O5  1  0.61772400  0.21139000  0.96972300  1
  O  O6  1  0.11063400  0.07421600  0.32722300  1
  O  O7  1  0.88936600  0.21658900  0.96358300  1
  O  O8  1  0.75300700  0.71658900  0.32722300  1
  O  O9  1  0.24699300  0.57421600  0.96358300  1
  O  O10  1  0.38181600  0.77196200  0.48984100  1
  O  O11  1  0.61818400  0.10802500  0.39014600  1
  O  O12  1  0.21787900  0.60802500  0.48984100  1
  O  O13  1  0.78212100  0.27196200  0.39014600  1
loop_
_geom_bond_atom_site_label_1
_geom_bond_atom_site_label_2
_geom_bond_distance
_geom_bond_site_symmetry_2
O0 Y2 2.171450 1_655
O0 Y3 2.195988 1_554
O0 Sr2 2.602018 1_554
O0 Sr0 2.602018 1_554
O1 Y3 2.171448 1_455
O1 Y2 2.195988 1_545
O1 Sr1 2.602005 1_556
O1 Sr3 2.602027 1_556
O2 W0 2.173916 1_555
O2 W3 2.184876 1_555
O2 Y1 2.287127 1_655
O2 Sr0 2.465489 1_555
O3 W1 2.173917 1_555
O3 W2 2.184880 1_566
O3 Y1 2.287127 1_555
O3 Sr1 2.465489 1_566
O4 W2 2.173917 1_555
O4 W1 2.184876 1_555
O4 Y0 2.287127 1_555
O4 Sr2 2.465489 1_555
O5 W3 2.173917 1_545
O5 W0 2.184879 1_556
O5 Y0 2.287127 1_555
O5 Sr3 2.465489 1_556
O6 W0 2.174846 1_455
O6 W3 2.177206 1_545
O6 Y1 2.284825 1_544
O6 Sr0 2.453872 1_444
O7 W1 2.174841 1_656
O7 W2 2.177206 1_555
O7 Y1 2.284817 1_645
O7 Sr1 2.453880 1_656
O8 W2 2.174846 1_565
O8 W1 2.177206 1_655
O8 Y0 2.284825 1_554
O8 Sr2 2.453872 1_554
O9 W3 2.174841 1_556
O9 W0 2.177206 1_455
O9 Y0 2.284834 1_555
O9 Sr3 2.453862 1_556
O10 Y2 2.143170 1_555
O10 W3 2.410892 1_555
O10 Sr0 2.522885 1_555
O10 Sr3 2.579567 1_555
O11 Y3 2.143159 1_555
O11 W2 2.410904 1_555
O11 Sr1 2.522885 1_555
O11 Sr2 2.579567 1_544
O12 Y2 2.143148 1_555
O12 W1 2.410892 1_555
O12 Sr2 2.522885 1_555
O12 Sr1 2.579567 1_555
O13 Y3 2.143159 1_555
O13 W0 2.410880 1_555
O13 Sr3 2.522885 1_555
O13 Sr0 2.579567 1_544
