# generated using pymatgen
data_KYbF4
_symmetry_space_group_name_H-M   'P 1'
_cell_length_a   14.49346262
_cell_length_b   14.49346262
_cell_length_c   10.14287400
_cell_angle_alpha   90.00000000
_cell_angle_beta   90.00000000
_cell_angle_gamma   120.00000284
_symmetry_Int_Tables_number   1
_chemical_formula_structural   KYbF4
_chemical_formula_sum   'K18 Yb18 F72'
_cell_volume   1845.16819221
_cell_formula_units_Z   18
loop_
 _symmetry_equiv_pos_site_id
 _symmetry_equiv_pos_as_xyz
  1  'x, y, z'
loop_
 _atom_site_type_symbol
 _atom_site_label
 _atom_site_symmetry_multiplicity
 _atom_site_fract_x
 _atom_site_fract_y
 _atom_site_fract_z
 _atom_site_occupancy
  K  K0  1  0.26020500  0.04371600  0.00749500  1
  K  K1  1  0.95628400  0.21648900  0.67416200  1
  K  K2  1  0.78351100  0.73979500  0.34082800  1
  K  K3  1  0.78181000  0.06534900  0.98913600  1
  K  K4  1  0.93465100  0.71646100  0.65580200  1
  K  K5  1  0.28353900  0.21819000  0.32246900  1
  K  K6  1  0.60576500  0.73186300  0.00698700  1
  K  K7  1  0.26813700  0.87390100  0.67365400  1
  K  K8  1  0.12609900  0.39423500  0.34032000  1
  K  K9  1  0.10656000  0.70878500  0.98274800  1
  K  K10  1  0.29121500  0.39777500  0.64941500  1
  K  K11  1  0.60222500  0.89344000  0.31608200  1
  K  K12  1  0.45659500  0.39281500  0.98474400  1
  K  K13  1  0.60718500  0.06378000  0.65141000  1
  K  K14  1  0.93622000  0.54340500  0.31807700  1
  K  K15  1  0.95164400  0.38442100  0.00483200  1
  K  K16  1  0.61557900  0.56722300  0.67149900  1
  K  K17  1  0.43277700  0.04835600  0.33816500  1
  Yb  Yb0  1  0.13026000  0.23416300  0.99149800  1
  Yb  Yb1  1  0.76583700  0.89609700  0.65816500  1
  Yb  Yb2  1  0.10390300  0.86974000  0.32483200  1
  Yb  Yb3  1  0.28393800  0.55100400  0.98842800  1
  Yb  Yb4  1  0.44899600  0.73293400  0.65509400  1
  Yb  Yb5  1  0.26706600  0.71606200  0.32176100  1
  Yb  Yb6  1  0.77884500  0.56876600  0.00739200  1
  Yb  Yb7  1  0.43123400  0.21007900  0.67405900  1
  Yb  Yb8  1  0.78992100  0.22115500  0.34072500  1
  Yb  Yb9  1  0.94270500  0.88123400  0.99526000  1
  Yb  Yb10  1  0.11876600  0.06147200  0.66192700  1
  Yb  Yb11  1  0.93852800  0.05729500  0.32859300  1
  Yb  Yb12  1  0.44592300  0.89598300  0.98718600  1
  Yb  Yb13  1  0.10401700  0.54994000  0.65385300  1
  Yb  Yb14  1  0.45006000  0.55407700  0.32052000  1
  Yb  Yb15  1  0.60916200  0.22956600  0.01174700  1
  Yb  Yb16  1  0.77043400  0.37959600  0.67841400  1
  Yb  Yb17  1  0.62040400  0.39083800  0.34508100  1
  F  F0  1  0.13141300  0.20078100  0.77531500  1
  F  F1  1  0.79921900  0.93063100  0.44198200  1
  F  F2  1  0.06936900  0.86858700  0.10864900  1
  F  F3  1  0.07212200  0.17977700  0.20055100  1
  F  F4  1  0.82022300  0.89234600  0.86721800  1
  F  F5  1  0.10765400  0.92787800  0.53388400  1
  F  F6  1  0.20948000  0.60863300  0.14085000  1
  F  F7  1  0.39136700  0.60084700  0.80751600  1
  F  F8  1  0.39915300  0.79052000  0.47418300  1
  F  F9  1  0.32960700  0.60484000  0.31339800  1
  F  F10  1  0.39516000  0.72476700  0.98006400  1
  F  F11  1  0.27523300  0.67039300  0.64673100  1
  F  F12  1  0.74602500  0.53223400  0.22726300  1
  F  F13  1  0.46776600  0.21379200  0.89393000  1
  F  F14  1  0.78620800  0.25397500  0.56059600  1
  F  F15  1  0.78169300  0.51766400  0.79609300  1
  F  F16  1  0.48233600  0.26402800  0.46275900  1
  F  F17  1  0.73597200  0.21830700  0.12942600  1
  F  F18  1  0.98748300  0.93195800  0.31726600  1
  F  F19  1  0.06804200  0.05552500  0.98393200  1
  F  F20  1  0.94447500  0.01251700  0.65059900  1
  F  F21  1  0.88061500  0.94686200  0.15267600  1
  F  F22  1  0.05313800  0.93375300  0.81934200  1
  F  F23  1  0.06624700  0.11938500  0.48600900  1
  F  F24  1  0.39250200  0.84886600  0.19783900  1
  F  F25  1  0.15113400  0.54363500  0.86450600  1
  F  F26  1  0.45636500  0.60749800  0.53117300  1
  F  F27  1  0.45264200  0.86789800  0.77064000  1
  F  F28  1  0.13210200  0.58474400  0.43730700  1
  F  F29  1  0.41525600  0.54735800  0.10397400  1
  F  F30  1  0.54455900  0.25487200  0.20268000  1
  F  F31  1  0.74512800  0.28968700  0.86934700  1
  F  F32  1  0.71031300  0.45544100  0.53601300  1
  F  F33  1  0.74831300  0.35000300  0.36064700  1
  F  F34  1  0.64999700  0.39831000  0.02731400  1
  F  F35  1  0.60169000  0.25168700  0.69398000  1
  F  F36  1  0.76873700  0.04390200  0.73140000  1
  F  F37  1  0.95609800  0.72483500  0.39806600  1
  F  F38  1  0.27516500  0.23126300  0.06473300  1
  F  F39  1  0.80657600  0.08429000  0.25155000  1
  F  F40  1  0.91571000  0.72228600  0.91821600  1
  F  F41  1  0.27771400  0.19342400  0.58488300  1
  F  F42  1  0.24657300  0.02537500  0.26912400  1
  F  F43  1  0.97462500  0.22119800  0.93579000  1
  F  F44  1  0.77880200  0.75342700  0.60245700  1
  F  F45  1  0.80606600  0.72928200  0.08147300  1
  F  F46  1  0.27071800  0.07678400  0.74813900  1
  F  F47  1  0.92321600  0.19393400  0.41480600  1
  F  F48  1  0.13061900  0.73666500  0.24617800  1
  F  F49  1  0.26333500  0.39395400  0.91284500  1
  F  F50  1  0.60604600  0.86938100  0.57951200  1
  F  F51  1  0.09266700  0.69062000  0.72413800  1
  F  F52  1  0.30938000  0.40204600  0.39080500  1
  F  F53  1  0.59795400  0.90733300  0.05747200  1
  F  F54  1  0.15640100  0.39254500  0.07592100  1
  F  F55  1  0.60745500  0.76385600  0.74258800  1
  F  F56  1  0.23614400  0.84359900  0.40925500  1
  F  F57  1  0.59204900  0.70899100  0.26794300  1
  F  F58  1  0.29100900  0.88305900  0.93460900  1
  F  F59  1  0.11694100  0.40795100  0.60127600  1
  F  F60  1  0.93881300  0.36540200  0.26153500  1
  F  F61  1  0.63459800  0.57341200  0.92820200  1
  F  F62  1  0.42658800  0.06118700  0.59486900  1
  F  F63  1  0.47889100  0.05904300  0.07163100  1
  F  F64  1  0.94095700  0.41984800  0.73829800  1
  F  F65  1  0.58015200  0.52110900  0.40496500  1
  F  F66  1  0.49727400  0.42918400  0.25328000  1
  F  F67  1  0.57081600  0.06809000  0.91994700  1
  F  F68  1  0.93191000  0.50272600  0.58661400  1
  F  F69  1  0.45731400  0.37317700  0.72023800  1
  F  F70  1  0.62682300  0.08413700  0.38690400  1
  F  F71  1  0.91586300  0.54268600  0.05357100  1
loop_
_geom_bond_atom_site_label_1
_geom_bond_atom_site_label_2
_geom_bond_distance
_geom_bond_site_symmetry_2
F0 Yb0 2.247322 1_555
F0 Yb10 2.250074 1_555
F0 K1 2.850425 1_455
F0 K10 2.921296 1_555
F1 Yb1 2.247320 1_555
F1 Yb11 2.250090 1_565
F1 K2 2.850415 1_555
F1 K11 2.921301 1_555
F2 Yb2 2.247318 1_555
F2 Yb9 2.250104 1_454
F2 K0 2.850420 1_565
F2 K9 2.921293 1_554
F3 Yb11 2.269314 1_455
F3 Yb0 2.272275 1_554
F3 K5 3.085823 1_555
F3 K8 3.138679 1_555
F4 Yb9 2.269314 1_555
F4 Yb1 2.272272 1_555
F4 K3 3.085810 1_565
F4 K6 3.138686 1_556
F5 Yb10 2.269320 1_565
F5 Yb2 2.272268 1_555
F5 K4 3.085818 1_455
F5 K7 3.138709 1_555
F6 Yb3 2.270170 1_554
F6 Yb5 2.277816 1_555
F6 K9 3.011454 1_554
F7 Yb4 2.270170 1_555
F7 Yb3 2.277824 1_555
F7 K10 3.011449 1_555
F8 Yb5 2.270170 1_555
F8 Yb4 2.277816 1_555
F8 K11 3.011449 1_555
F9 Yb14 2.208777 1_555
F9 Yb5 2.210997 1_555
F9 K8 3.014680 1_555
F10 Yb12 2.208777 1_555
F10 Yb3 2.210997 1_555
F10 K6 3.014688 1_556
F11 Yb13 2.208777 1_555
F11 Yb4 2.210996 1_555
F11 K7 3.014673 1_555
F12 Yb17 2.282868 1_555
F12 Yb6 2.286527 1_555
F12 K14 2.833216 1_555
F12 K2 3.006214 1_555
F13 Yb15 2.282868 1_556
F13 Yb7 2.286526 1_555
F13 K12 2.833202 1_555
F13 K0 3.006219 1_556
F14 Yb16 2.282861 1_555
F14 Yb8 2.286529 1_555
F14 K13 2.833210 1_555
F14 K1 3.006232 1_555
F15 Yb16 2.264754 1_555
F15 Yb6 2.274653 1_556
F15 K4 2.975502 1_555
F15 K16 3.104619 1_555
F16 Yb17 2.264754 1_555
F16 Yb7 2.274660 1_555
F16 K5 2.975501 1_555
F16 K17 3.104606 1_555
F17 Yb15 2.264766 1_555
F17 Yb8 2.274648 1_555
F17 K3 2.975489 1_554
F17 K15 3.104610 1_555
F18 Yb11 2.259524 1_565
F18 Yb2 2.277649 1_655
F18 K2 2.884425 1_555
F19 Yb9 2.259514 1_445
F19 Yb0 2.277649 1_555
F19 K0 2.884426 1_556
F20 Yb10 2.259511 1_655
F20 Yb1 2.277649 1_545
F20 K1 2.884426 1_555
F21 Yb11 2.259780 1_565
F21 Yb9 2.262700 1_554
F21 K3 3.195384 1_564
F21 K2 3.225789 1_555
F22 Yb9 2.259788 1_455
F22 Yb10 2.262702 1_565
F22 K4 3.195384 1_455
F22 K0 3.225795 1_566
F23 Yb10 2.259780 1_555
F23 Yb11 2.262709 1_455
F23 K5 3.195384 1_555
F23 K1 3.225795 1_455
F24 Yb5 2.256222 1_555
F24 Yb12 2.258817 1_554
F24 K17 3.006400 1_565
F24 K11 3.021803 1_555
F25 Yb3 2.256216 1_555
F25 Yb13 2.258819 1_555
F25 K15 3.006396 1_456
F25 K9 3.021812 1_555
F26 Yb4 2.256223 1_555
F26 Yb14 2.258815 1_555
F26 K16 3.006387 1_555
F26 K10 3.021803 1_555
F27 Yb12 2.244767 1_555
F27 Yb4 2.258151 1_555
F27 K13 2.860150 1_565
F27 K7 2.891163 1_555
F28 Yb13 2.244767 1_555
F28 Yb5 2.258151 1_555
F28 K14 2.860150 1_455
F28 K8 2.891181 1_555
F29 Yb14 2.244767 1_555
F29 Yb3 2.258151 1_554
F29 K12 2.860150 1_554
F29 K6 2.891174 1_555
F30 Yb17 2.238671 1_555
F30 Yb15 2.259445 1_555
F30 K17 2.936467 1_555
F31 Yb15 2.238665 1_556
F31 Yb16 2.259445 1_555
F31 K15 2.936467 1_556
F32 Yb16 2.238671 1_555
F32 Yb17 2.259436 1_555
F32 K16 2.936472 1_555
F33 Yb17 2.215654 1_555
F33 Yb8 2.240097 1_555
F33 K14 2.797626 1_555
F34 Yb15 2.215654 1_555
F34 Yb6 2.240097 1_555
F34 K12 2.797626 1_554
F35 Yb16 2.215654 1_555
F35 Yb7 2.240096 1_555
F35 K13 2.797626 1_555
F36 Yb1 2.247787 1_545
F36 K13 2.626444 1_555
F36 K3 2.628228 1_555
F36 K1 2.680174 1_555
F37 Yb2 2.247784 1_655
F37 K14 2.626441 1_555
F37 K4 2.628228 1_555
F37 K2 2.680174 1_555
F38 Yb0 2.247787 1_554
F38 K12 2.626441 1_554
F38 K5 2.628228 1_555
F38 K0 2.680174 1_555
F39 Yb11 2.273631 1_555
F39 Yb8 2.300013 1_555
F39 K3 2.681408 1_554
F39 K11 2.942643 1_545
F40 Yb9 2.273648 1_555
F40 Yb6 2.300017 1_556
F40 K4 2.681408 1_555
F40 K9 2.942644 1_655
F41 Yb10 2.273643 1_555
F41 Yb7 2.300017 1_555
F41 K5 2.681408 1_555
F41 K10 2.942644 1_555
F42 Yb2 2.240280 1_545
F42 K5 2.625286 1_555
F42 K17 2.643037 1_555
F42 K0 2.664422 1_555
F43 Yb0 2.240280 1_655
F43 K3 2.625288 1_555
F43 K15 2.643039 1_556
F43 K1 2.664412 1_555
F44 Yb1 2.240280 1_555
F44 K4 2.625286 1_555
F44 K16 2.643039 1_555
F44 K2 2.664422 1_555
F45 Yb9 2.274931 1_554
F45 Yb6 2.283570 1_555
F45 K2 2.664577 1_555
F45 K6 3.018030 1_555
F46 Yb10 2.274932 1_555
F46 Yb7 2.283567 1_555
F46 K0 2.664587 1_556
F46 K7 3.018042 1_545
F47 Yb11 2.274923 1_555
F47 Yb8 2.283570 1_555
F47 K1 2.664587 1_555
F47 K8 3.018037 1_655
F48 Yb5 2.275582 1_555
F48 Yb2 2.291974 1_555
F48 K9 2.698744 1_554
F48 K14 2.902408 1_455
F49 Yb3 2.275582 1_555
F49 Yb0 2.291970 1_555
F49 K10 2.698744 1_555
F49 K12 2.902408 1_555
F50 Yb4 2.275578 1_555
F50 Yb1 2.291970 1_555
F50 K11 2.698744 1_555
F50 K13 2.902406 1_565
F51 Yb13 2.242311 1_555
F51 K4 2.592960 1_455
F51 K9 2.633862 1_555
F51 K7 2.651533 1_555
F52 Yb14 2.242319 1_555
F52 K5 2.592946 1_555
F52 K10 2.633863 1_555
F52 K8 2.651535 1_555
F53 Yb12 2.242328 1_554
F53 K3 2.592951 1_564
F53 K11 2.633861 1_555
F53 K6 2.651535 1_555
F54 Yb3 2.287702 1_554
F54 Yb0 2.297044 1_554
F54 K8 2.719578 1_555
F54 K15 2.998537 1_455
F55 Yb4 2.287706 1_555
F55 Yb1 2.297044 1_555
F55 K6 2.719580 1_556
F55 K16 2.998537 1_555
F56 Yb5 2.287706 1_555
F56 Yb2 2.297044 1_555
F56 K7 2.719579 1_555
F56 K17 2.998539 1_565
F57 Yb14 2.222608 1_555
F57 K11 2.648102 1_555
F57 K6 2.662572 1_555
F57 K2 2.684636 1_555
F58 Yb12 2.222615 1_555
F58 K9 2.648108 1_555
F58 K7 2.662562 1_555
F58 K0 2.684626 1_566
F59 Yb13 2.222601 1_555
F59 K10 2.648116 1_555
F59 K8 2.662575 1_555
F59 K1 2.684634 1_455
F60 Yb8 2.271828 1_555
F60 K15 2.615070 1_555
F60 K8 2.654612 1_655
F60 K14 2.661400 1_555
F61 Yb6 2.271835 1_556
F61 K16 2.615070 1_555
F61 K6 2.654584 1_556
F61 K12 2.661407 1_555
F62 Yb7 2.271821 1_555
F62 K17 2.615081 1_555
F62 K7 2.654601 1_545
F62 K13 2.661412 1_555
F63 Yb15 2.318534 1_555
F63 Yb12 2.327639 1_544
F63 K17 2.770496 1_555
F63 K0 3.132776 1_555
F64 Yb16 2.318534 1_555
F64 Yb13 2.327638 1_655
F64 K15 2.770496 1_556
F64 K1 3.132776 1_555
F65 Yb17 2.318534 1_555
F65 Yb14 2.327639 1_555
F65 K16 2.770496 1_555
F65 K2 3.132778 1_555
F66 Yb17 2.313527 1_555
F66 Yb14 2.334231 1_555
F66 K12 2.780893 1_554
F66 K5 3.157075 1_555
F67 Yb15 2.313523 1_556
F67 Yb12 2.334228 1_545
F67 K13 2.780903 1_555
F67 K3 3.157075 1_555
F68 Yb16 2.313523 1_555
F68 Yb13 2.334228 1_655
F68 K14 2.780903 1_555
F68 K4 3.157073 1_555
F69 Yb7 2.248680 1_555
F69 K16 2.639019 1_555
F69 K12 2.698476 1_555
F69 K10 2.701241 1_555
F70 Yb8 2.248680 1_555
F70 K17 2.639019 1_555
F70 K13 2.698476 1_555
F70 K11 2.701238 1_545
F71 Yb6 2.248680 1_555
F71 K15 2.639019 1_555
F71 K14 2.698476 1_555
F71 K9 2.701241 1_654
