# generated using pymatgen
data_Na2Mg5(Si2O5)6
_symmetry_space_group_name_H-M   'P 1'
_cell_length_a   10.27424336
_cell_length_b   10.27426709
_cell_length_c   14.42287326
_cell_angle_alpha   90.00000000
_cell_angle_beta   90.00000000
_cell_angle_gamma   119.99992363
_symmetry_Int_Tables_number   1
_chemical_formula_structural   Na2Mg5(Si2O5)6
_chemical_formula_sum   'Na4 Mg10 Si24 O60'
_cell_volume   1318.51007708
_cell_formula_units_Z   2
loop_
 _symmetry_equiv_pos_site_id
 _symmetry_equiv_pos_as_xyz
  1  'x, y, z'
loop_
 _atom_site_type_symbol
 _atom_site_label
 _atom_site_symmetry_multiplicity
 _atom_site_fract_x
 _atom_site_fract_y
 _atom_site_fract_z
 _atom_site_occupancy
  Na  Na0  1  0.33331141  0.66669121  0.50000000  1
  Na  Na1  1  0.66662020  0.33330879  -0.00000000  1
  Na  Na2  1  -0.00000003  -0.00000000  0.25000000  1
  Na  Na3  1  -0.00000003  -0.00000000  0.75000000  1
  Mg  Mg0  1  0.66667220  0.33333348  0.25384286  1
  Mg  Mg1  1  0.66667220  0.33333348  0.74615714  1
  Mg  Mg2  1  0.33333872  0.66666652  0.75384286  1
  Mg  Mg3  1  0.33333872  0.66666652  0.24615714  1
  Mg  Mg4  1  0.49955326  0.00000000  0.25000000  1
  Mg  Mg5  1  0.50044969  0.50044589  0.25000053  1
  Mg  Mg6  1  0.00000380  0.49955411  0.24999947  1
  Mg  Mg7  1  0.49955326  0.00000000  0.75000000  1
  Mg  Mg8  1  0.50044969  0.50044589  0.74999947  1
  Mg  Mg9  1  0.00000380  0.49955411  0.75000053  1
  Si  Si0  1  0.23581077  0.88546557  0.38915930  1
  Si  Si1  1  0.64965291  0.76418782  0.38915966  1
  Si  Si2  1  0.11453897  0.35034866  0.38916023  1
  Si  Si3  1  0.23581077  0.88546557  0.61084070  1
  Si  Si4  1  0.64965291  0.76418782  0.61084034  1
  Si  Si5  1  0.11453897  0.35034866  0.61083977  1
  Si  Si6  1  0.35034520  0.11453443  0.88915930  1
  Si  Si7  1  0.88546509  0.23581218  0.88915966  1
  Si  Si8  1  0.76419031  0.64965134  0.88916023  1
  Si  Si9  1  0.35034520  0.11453443  0.11084070  1
  Si  Si10  1  0.88546509  0.23581218  0.11084034  1
  Si  Si11  1  0.76419031  0.64965134  0.11083977  1
  Si  Si12  1  0.76260318  0.11541268  0.61027309  1
  Si  Si13  1  0.35281202  0.23739701  0.61027282  1
  Si  Si14  1  0.88458746  0.64718770  0.61027299  1
  Si  Si15  1  0.76260318  0.11541268  0.38972691  1
  Si  Si16  1  0.35281202  0.23739701  0.38972718  1
  Si  Si17  1  0.88458746  0.64718770  0.38972701  1
  Si  Si18  1  0.64719050  0.88458732  0.11027309  1
  Si  Si19  1  0.11541501  0.76260299  0.11027282  1
  Si  Si20  1  0.23739975  0.35281230  0.11027299  1
  Si  Si21  1  0.64719050  0.88458732  0.88972691  1
  Si  Si22  1  0.11541501  0.76260299  0.88972718  1
  Si  Si23  1  0.23739975  0.35281230  0.88972701  1
  O  O0  1  0.05684374  0.78265446  0.36510101  1
  O  O1  1  0.72581252  0.94315570  0.36510144  1
  O  O2  1  0.21734672  0.27418824  0.36510046  1
  O  O3  1  0.05684374  0.78265446  0.63489899  1
  O  O4  1  0.72581252  0.94315570  0.63489856  1
  O  O5  1  0.21734672  0.27418824  0.63489954  1
  O  O6  1  0.27418928  0.21734554  0.86510101  1
  O  O7  1  0.78265681  0.05684430  0.86510144  1
  O  O8  1  0.94315848  0.72581176  0.86510046  1
  O  O9  1  0.27418928  0.21734554  0.13489899  1
  O  O10  1  0.78265681  0.05684430  0.13489856  1
  O  O11  1  0.94315848  0.72581176  0.13489954  1
  O  O12  1  0.94278711  0.21766419  0.63496099  1
  O  O13  1  0.27487703  0.05721447  0.63496158  1
  O  O14  1  0.78233835  0.72512187  0.63496071  1
  O  O15  1  0.94278711  0.21766419  0.36503901  1
  O  O16  1  0.27487703  0.05721447  0.36503842  1
  O  O17  1  0.78233835  0.72512187  0.36503929  1
  O  O18  1  0.72512292  0.78233581  0.13496099  1
  O  O19  1  0.21766255  0.94278553  0.13496158  1
  O  O20  1  0.05721648  0.27487813  0.13496071  1
  O  O21  1  0.72512292  0.78233581  0.86503901  1
  O  O22  1  0.21766255  0.94278553  0.86503842  1
  O  O23  1  0.05721648  0.27487813  0.86503929  1
  O  O24  1  0.34194225  0.84328091  0.32985978  1
  O  O25  1  0.50134416  0.65805808  0.32985429  1
  O  O26  1  0.15672618  0.49866293  0.32985893  1
  O  O27  1  0.34194225  0.84328091  0.67014022  1
  O  O28  1  0.50134416  0.65805808  0.67014571  1
  O  O29  1  0.15672618  0.49866293  0.67014107  1
  O  O30  1  0.49866134  0.15671909  0.82985978  1
  O  O31  1  0.84328608  0.34194192  0.82985429  1
  O  O32  1  0.65806324  0.50133707  0.82985893  1
  O  O33  1  0.49866134  0.15671909  0.17014022  1
  O  O34  1  0.84328608  0.34194192  0.17014571  1
  O  O35  1  0.65806324  0.50133707  0.17014107  1
  O  O36  1  0.65899975  0.15500066  0.67325289  1
  O  O37  1  0.49600664  0.34099514  0.67325194  1
  O  O38  1  0.84500238  0.50399704  0.67325269  1
  O  O39  1  0.65899975  0.15500066  0.32674711  1
  O  O40  1  0.49600664  0.34099514  0.32674806  1
  O  O41  1  0.84500238  0.50399704  0.32674731  1
  O  O42  1  0.50399909  0.84499934  0.17325289  1
  O  O43  1  0.15501150  0.65900486  0.17325194  1
  O  O44  1  0.34100534  0.49600296  0.17325269  1
  O  O45  1  0.50399909  0.84499934  0.82674711  1
  O  O46  1  0.15501150  0.65900486  0.82674806  1
  O  O47  1  0.34100534  0.49600296  0.82674731  1
  O  O48  1  0.26128844  0.86391443  0.50000000  1
  O  O49  1  0.60262097  0.73871090  0.50000000  1
  O  O50  1  0.13608615  0.39737797  0.50000000  1
  O  O51  1  0.39737401  0.13608557  -0.00000000  1
  O  O52  1  0.86391007  0.26128910  -0.00000000  1
  O  O53  1  0.73870817  0.60262203  -0.00000000  1
  O  O54  1  0.73867842  0.12964720  0.50000000  1
  O  O55  1  0.39096879  0.26132029  0.50000000  1
  O  O56  1  0.87035250  0.60902885  0.50000000  1
  O  O57  1  0.60903123  0.87035280  -0.00000000  1
  O  O58  1  0.12964850  0.73867971  -0.00000000  1
  O  O59  1  0.26132366  0.39097115  -0.00000000  1
loop_
_geom_bond_atom_site_label_1
_geom_bond_atom_site_label_2
_geom_bond_distance
_geom_bond_site_symmetry_2
Na0 O48 2.480524 1_555
Na0 O50 2.481020 1_555
Na0 O49 2.481159 1_555
Na1 O51 2.480524 1_555
Na1 O53 2.481020 1_555
Na1 O52 2.481159 1_555
Na2 O1 3.063923 1_445
Na2 O10 3.063923 1_455
Na2 O2 3.063935 1_555
Na2 O11 3.063935 1_445
Na2 O9 3.063940 1_555
Na2 O0 3.063940 1_545
Na2 O19 3.068249 1_545
Na2 O16 3.068249 1_555
Na2 O18 3.068262 1_445
Na2 O15 3.068262 1_455
Na2 O17 3.068265 1_445
Na2 O20 3.068265 1_555
Na3 O4 3.063923 1_445
Na3 O7 3.063923 1_455
Na3 O5 3.063935 1_555
Na3 O8 3.063935 1_445
Na3 O6 3.063940 1_555
Na3 O3 3.063940 1_545
Na3 O22 3.068249 1_545
Na3 O13 3.068249 1_555
Na3 O21 3.068262 1_445
Na3 O12 3.068262 1_455
Na3 O14 3.068265 1_445
Na3 O23 3.068265 1_555
Mg0 O40 2.079544 1_555
Mg0 O39 2.079546 1_555
Mg0 O41 2.079547 1_555
Mg0 O34 2.144115 1_555
Mg0 O35 2.144143 1_555
Mg0 O33 2.144187 1_555
Mg1 O37 2.079544 1_555
Mg1 O36 2.079546 1_555
Mg1 O38 2.079547 1_555
Mg1 O31 2.144115 1_555
Mg1 O32 2.144143 1_555
Mg1 O30 2.144187 1_555
Mg2 O46 2.079544 1_555
Mg2 O45 2.079546 1_555
Mg2 O47 2.079547 1_555
Mg2 O28 2.144115 1_555
Mg2 O29 2.144143 1_555
Mg2 O27 2.144187 1_555
Mg3 O43 2.079544 1_555
Mg3 O42 2.079546 1_555
Mg3 O44 2.079547 1_555
Mg3 O25 2.144115 1_555
Mg3 O26 2.144143 1_555
Mg3 O24 2.144187 1_555
Mg4 O39 1.958622 1_555
Mg4 O42 1.958622 1_545
Mg4 O24 1.983472 1_545
Mg4 O33 1.983472 1_555
Mg5 O44 1.958619 1_555
Mg5 O40 1.958673 1_555
Mg5 O25 1.983420 1_555
Mg5 O35 1.983490 1_555
Mg6 O41 1.958619 1_455
Mg6 O43 1.958673 1_555
Mg6 O34 1.983420 1_455
Mg6 O26 1.983490 1_555
Mg7 O36 1.958622 1_555
Mg7 O45 1.958622 1_545
Mg7 O27 1.983472 1_545
Mg7 O30 1.983472 1_555
Mg8 O47 1.958619 1_555
Mg8 O37 1.958673 1_555
Mg8 O28 1.983420 1_555
Mg8 O32 1.983490 1_555
Mg9 O38 1.958619 1_455
Mg9 O46 1.958673 1_555
Mg9 O31 1.983420 1_455
Mg9 O29 1.983490 1_555
O0 Si0 1.635515 1_555
O0 Si17 1.652960 1_455
O1 Si1 1.635523 1_555
O1 Si15 1.652963 1_565
O2 Si2 1.635526 1_555
O2 Si16 1.652957 1_555
O3 Si3 1.635515 1_555
O3 Si14 1.652960 1_455
O4 Si4 1.635523 1_555
O4 Si12 1.652963 1_565
O5 Si5 1.635526 1_555
O5 Si13 1.652957 1_555
O6 Si6 1.635515 1_555
O6 Si23 1.652960 1_555
O7 Si7 1.635523 1_555
O7 Si21 1.652963 1_545
O8 Si8 1.635526 1_555
O8 Si22 1.652957 1_655
O9 Si9 1.635515 1_555
O9 Si20 1.652960 1_555
O10 Si10 1.635523 1_555
O10 Si18 1.652963 1_545
O11 Si11 1.635526 1_555
O11 Si19 1.652957 1_655
O12 Si5 1.639433 1_655
O12 Si12 1.647044 1_555
O13 Si3 1.639408 1_545
O13 Si13 1.647035 1_555
O14 Si4 1.639428 1_555
O14 Si14 1.647035 1_555
O15 Si2 1.639433 1_655
O15 Si15 1.647044 1_555
O16 Si0 1.639408 1_545
O16 Si16 1.647035 1_555
O17 Si1 1.639428 1_555
O17 Si17 1.647035 1_555
O18 Si11 1.639433 1_555
O18 Si18 1.647044 1_555
O19 Si9 1.639408 1_565
O19 Si19 1.647035 1_555
O20 Si10 1.639428 1_455
O20 Si20 1.647035 1_555
O21 Si8 1.639433 1_555
O21 Si21 1.647044 1_555
O22 Si6 1.639408 1_565
O22 Si22 1.647035 1_555
O23 Si7 1.639428 1_455
O23 Si23 1.647035 1_555
O24 Si0 1.606536 1_555
O25 Si1 1.606532 1_555
O26 Si2 1.606532 1_555
O27 Si3 1.606536 1_555
O28 Si4 1.606532 1_555
O29 Si5 1.606532 1_555
O30 Si6 1.606536 1_555
O31 Si7 1.606532 1_555
O32 Si8 1.606532 1_555
O33 Si9 1.606536 1_555
O34 Si10 1.606532 1_555
O35 Si11 1.606532 1_555
O36 Si12 1.598916 1_555
O37 Si13 1.598920 1_555
O38 Si14 1.598918 1_555
O39 Si15 1.598916 1_555
O40 Si16 1.598920 1_555
O41 Si17 1.598918 1_555
O42 Si18 1.598916 1_555
O43 Si19 1.598920 1_555
O44 Si20 1.598918 1_555
O45 Si21 1.598916 1_555
O46 Si22 1.598920 1_555
O47 Si23 1.598918 1_555
O48 Si3 1.652623 1_555
O48 Si0 1.652623 1_555
O49 Si1 1.652625 1_555
O49 Si4 1.652625 1_555
O50 Si2 1.652612 1_555
O50 Si5 1.652612 1_555
O51 Si6 1.652623 1_554
O51 Si9 1.652623 1_555
O52 Si7 1.652625 1_554
O52 Si10 1.652625 1_555
O53 Si11 1.652612 1_555
O53 Si8 1.652612 1_554
O54 Si12 1.627055 1_555
O54 Si15 1.627055 1_555
O55 Si16 1.627046 1_555
O55 Si13 1.627046 1_555
O56 Si17 1.627052 1_555
O56 Si14 1.627052 1_555
O57 Si21 1.627055 1_554
O57 Si18 1.627055 1_555
O58 Si22 1.627046 1_554
O58 Si19 1.627046 1_555
O59 Si20 1.627052 1_555
O59 Si23 1.627052 1_554
