# generated using pymatgen
data_Sr3Ca5Mn8O20
_symmetry_space_group_name_H-M   'P 1'
_cell_length_a   11.20693532
_cell_length_b   15.57131360
_cell_length_c   11.19542774
_cell_angle_alpha   90.34319980
_cell_angle_beta   91.12132513
_cell_angle_gamma   90.26912917
_symmetry_Int_Tables_number   1
_chemical_formula_structural   Sr3Ca5Mn8O20
_chemical_formula_sum   'Sr12 Ca20 Mn32 O80'
_cell_volume   1953.24537701
_cell_formula_units_Z   4
loop_
 _symmetry_equiv_pos_site_id
 _symmetry_equiv_pos_as_xyz
  1  'x, y, z'
loop_
 _atom_site_type_symbol
 _atom_site_label
 _atom_site_symmetry_multiplicity
 _atom_site_fract_x
 _atom_site_fract_y
 _atom_site_fract_z
 _atom_site_occupancy
  Sr  Sr0  1  0.00463234  0.11535801  0.49964514  1
  Sr  Sr1  1  0.00290883  0.11603336  0.00100239  1
  Sr  Sr2  1  0.00406038  0.61817661  0.50135277  1
  Sr  Sr3  1  0.51169353  0.37546775  0.99478709  1
  Sr  Sr4  1  0.51313048  0.37579224  0.49502577  1
  Sr  Sr5  1  0.51180077  0.87521711  0.99264013  1
  Sr  Sr6  1  0.23451236  0.38609687  0.25956253  1
  Sr  Sr7  1  0.23572235  0.38570691  0.75792713  1
  Sr  Sr8  1  0.23522319  0.88326318  0.26411152  1
  Sr  Sr9  1  0.23384389  0.11768476  0.25198277  1
  Sr  Sr10  1  0.23235350  0.11911075  0.75311255  1
  Sr  Sr11  1  0.23071413  0.62126730  0.24720701  1
  Ca  Ca0  1  0.00159396  0.61098250  0.00450884  1
  Ca  Ca1  1  0.54437676  0.12949731  0.48444635  1
  Ca  Ca2  1  0.54545069  0.12930586  0.98458985  1
  Ca  Ca3  1  0.54403740  0.62965013  0.48747576  1
  Ca  Ca4  1  0.54636466  0.62962546  0.98556417  1
  Ca  Ca5  1  0.51366569  0.87332576  0.49699714  1
  Ca  Ca6  1  0.95717888  0.38423124  0.00134944  1
  Ca  Ca7  1  0.95836548  0.38525575  0.49951103  1
  Ca  Ca8  1  0.95851639  0.88389889  0.00172078  1
  Ca  Ca9  1  0.95751760  0.88355859  0.49939462  1
  Ca  Ca10  1  0.22228605  0.88974148  0.76643063  1
  Ca  Ca11  1  0.76450171  0.37567716  0.25740794  1
  Ca  Ca12  1  0.76182221  0.37579518  0.75576437  1
  Ca  Ca13  1  0.76307470  0.87658244  0.25641993  1
  Ca  Ca14  1  0.75414282  0.87374240  0.75406677  1
  Ca  Ca15  1  0.23138662  0.61921073  0.74813396  1
  Ca  Ca16  1  0.77911908  0.12057646  0.25138073  1
  Ca  Ca17  1  0.77866963  0.12059394  0.75391936  1
  Ca  Ca18  1  0.77816472  0.62024576  0.25105977  1
  Ca  Ca19  1  0.78170231  0.61988630  0.75588547  1
  Mn  Mn0  1  0.99427739  0.99514124  0.25151390  1
  Mn  Mn1  1  0.99177572  0.99412615  0.75128280  1
  Mn  Mn2  1  0.99333274  0.49703159  0.25006675  1
  Mn  Mn3  1  0.99564240  0.49658654  0.75304998  1
  Mn  Mn4  1  0.51134794  0.99002954  0.23578673  1
  Mn  Mn5  1  0.50607647  0.98858494  0.73434311  1
  Mn  Mn6  1  0.50755197  0.49406792  0.23337371  1
  Mn  Mn7  1  0.50817334  0.49580035  0.73777453  1
  Mn  Mn8  1  0.24431478  0.99715579  0.01678360  1
  Mn  Mn9  1  0.24678099  0.99567982  0.52231976  1
  Mn  Mn10  1  0.24017638  0.50188485  0.01399090  1
  Mn  Mn11  1  0.24422747  0.50154908  0.52178860  1
  Mn  Mn12  1  0.74686855  0.00192057  0.99720078  1
  Mn  Mn13  1  0.74334784  0.00130107  0.49763951  1
  Mn  Mn14  1  0.74713497  0.50303180  0.99852517  1
  Mn  Mn15  1  0.74613971  0.50396541  0.49905386  1
  Mn  Mn16  1  0.26553445  0.24651836  0.97022509  1
  Mn  Mn17  1  0.26728111  0.24595627  0.47091372  1
  Mn  Mn18  1  0.26496872  0.74329680  0.95626826  1
  Mn  Mn19  1  0.26804255  0.74542806  0.47436661  1
  Mn  Mn20  1  0.75531627  0.24806598  0.00313820  1
  Mn  Mn21  1  0.75520573  0.24743997  0.50412075  1
  Mn  Mn22  1  0.75983415  0.74722835  0.00218842  1
  Mn  Mn23  1  0.75300680  0.74874144  0.50515122  1
  Mn  Mn24  1  0.99055353  0.25233633  0.26145486  1
  Mn  Mn25  1  0.98978548  0.25256035  0.76090399  1
  Mn  Mn26  1  0.98864371  0.75173591  0.26038412  1
  Mn  Mn27  1  0.99432977  0.75124198  0.76135592  1
  Mn  Mn28  1  0.51926954  0.25151119  0.25587086  1
  Mn  Mn29  1  0.51845058  0.25141785  0.75533542  1
  Mn  Mn30  1  0.52014971  0.75047272  0.25977081  1
  Mn  Mn31  1  0.51618048  0.74615043  0.75240863  1
  O  O0  1  0.59343126  0.25083246  0.10253631  1
  O  O1  1  0.59312769  0.25036429  0.60175008  1
  O  O2  1  0.58854738  0.75231158  0.10509009  1
  O  O3  1  0.59050774  0.75552180  0.59575851  1
  O  O4  1  0.40464699  0.20426925  0.36192311  1
  O  O5  1  0.40435762  0.20465179  0.86300119  1
  O  O6  1  0.40364522  0.70199043  0.36179013  1
  O  O7  1  0.40238849  0.68912378  0.85682701  1
  O  O8  1  0.89391325  0.23960469  0.40829719  1
  O  O9  1  0.89434611  0.23991704  0.90780940  1
  O  O10  1  0.89117994  0.74028700  0.40788488  1
  O  O11  1  0.90725232  0.73401836  0.91566583  1
  O  O12  1  0.14615551  0.24830638  0.33446646  1
  O  O13  1  0.14459819  0.24884155  0.83441101  1
  O  O14  1  0.14182036  0.74639181  0.34043090  1
  O  O15  1  0.16183119  0.75135386  0.80261208  1
  O  O16  1  0.65697641  0.22497717  0.35746483  1
  O  O17  1  0.65689782  0.22494803  0.85796943  1
  O  O18  1  0.65533826  0.72117988  0.35532042  1
  O  O19  1  0.66016739  0.72650288  0.85798623  1
  O  O20  1  0.86079358  0.27314403  0.14370577  1
  O  O21  1  0.86060209  0.27346690  0.64402929  1
  O  O22  1  0.85752363  0.77452917  0.14625999  1
  O  O23  1  0.85960305  0.77319694  0.64526364  1
  O  O24  1  0.35986478  0.51236424  0.14684665  1
  O  O25  1  0.35529928  0.51247520  0.66245962  1
  O  O26  1  0.36190300  0.00249494  0.15423292  1
  O  O27  1  0.35050735  0.00069799  0.66796229  1
  O  O28  1  0.85001206  0.48128076  0.13757089  1
  O  O29  1  0.85573329  0.48303060  0.64472572  1
  O  O30  1  0.85282570  0.98188783  0.13592857  1
  O  O31  1  0.84864138  0.97983742  0.63739815  1
  O  O32  1  0.15338582  0.00352843  0.37632420  1
  O  O33  1  0.14822519  0.00459038  0.87306343  1
  O  O34  1  0.15426387  0.50797594  0.37315372  1
  O  O35  1  0.14894286  0.51013100  0.86431952  1
  O  O36  1  0.62754780  0.02843050  0.34909060  1
  O  O37  1  0.62384456  0.02524283  0.84998279  1
  O  O38  1  0.62192454  0.52473553  0.35482387  1
  O  O39  1  0.62948215  0.52561847  0.85507757  1
  O  O40  1  0.88029429  0.01041391  0.38634057  1
  O  O41  1  0.88021262  0.01198926  0.88555278  1
  O  O42  1  0.88123099  0.51308322  0.38548827  1
  O  O43  1  0.88667840  0.51506612  0.89166651  1
  O  O44  1  0.09623628  0.47752309  0.11688563  1
  O  O45  1  0.09631257  0.47498450  0.61900529  1
  O  O46  1  0.10061666  0.97550205  0.12123678  1
  O  O47  1  0.09828501  0.97162591  0.62139994  1
  O  O48  1  0.60493562  0.50105386  0.09423903  1
  O  O49  1  0.60382433  0.50163503  0.59619913  1
  O  O50  1  0.60379311  0.99994830  0.09365485  1
  O  O51  1  0.59415116  0.99644973  0.58673166  1
  O  O52  1  0.99318575  0.37530667  0.28888620  1
  O  O53  1  0.99231513  0.37642374  0.79179994  1
  O  O54  1  0.99350660  0.87404363  0.28929855  1
  O  O55  1  0.99552064  0.87302102  0.79365190  1
  O  O56  1  0.47505127  0.37333553  0.26989905  1
  O  O57  1  0.47965549  0.37341291  0.76925282  1
  O  O58  1  0.48311558  0.87409084  0.28788618  1
  O  O59  1  0.48406498  0.87044776  0.77428680  1
  O  O60  1  0.99755201  0.12698149  0.22778652  1
  O  O61  1  0.99652484  0.12689548  0.72586490  1
  O  O62  1  0.99482705  0.62794263  0.21854338  1
  O  O63  1  0.99884884  0.62637140  0.72642832  1
  O  O64  1  0.23571438  0.12808393  0.03110741  1
  O  O65  1  0.23874030  0.12740579  0.53312389  1
  O  O66  1  0.21470754  0.63197090  0.02828650  1
  O  O67  1  0.23124464  0.63027732  0.54125687  1
  O  O68  1  0.75568920  0.12530781  0.03773768  1
  O  O69  1  0.75279503  0.12425968  0.54085688  1
  O  O70  1  0.75509612  0.62637503  0.04030494  1
  O  O71  1  0.75387450  0.62777048  0.54206778  1
  O  O72  1  0.28646943  0.37496706  0.49994115  1
  O  O73  1  0.28346846  0.37553939  0.99360864  1
  O  O74  1  0.29799788  0.87354529  0.49354411  1
  O  O75  1  0.28365752  0.87231019  0.98506477  1
  O  O76  1  0.74187930  0.37537724  0.46875415  1
  O  O77  1  0.74139471  0.37616544  0.96558018  1
  O  O78  1  0.73554749  0.87542920  0.46551211  1
  O  O79  1  0.74362479  0.87456120  0.96480039  1
loop_
_geom_bond_atom_site_label_1
_geom_bond_atom_site_label_2
_geom_bond_distance
_geom_bond_site_symmetry_2
Ca0 O43 2.319667 1_454
Ca0 O11 2.403798 1_454
Ca0 O62 2.411852 1_455
Ca0 O66 2.418394 1_555
Ca0 O44 2.650711 1_555
Ca0 O35 2.784341 1_554
Ca0 O70 2.810298 1_455
Ca1 O1 2.344771 1_555
Ca1 O4 2.375187 1_555
Ca1 O36 2.383755 1_555
Ca1 O69 2.409523 1_555
Ca1 O16 2.429339 1_555
Ca1 O51 2.434913 1_545
Ca2 O0 2.355075 1_556
Ca2 O5 2.383699 1_555
Ca2 O37 2.388407 1_555
Ca2 O68 2.419961 1_556
Ca2 O17 2.421675 1_555
Ca2 O50 2.446688 1_546
Ca3 O3 2.349385 1_555
Ca3 O38 2.381454 1_555
Ca3 O6 2.381861 1_555
Ca3 O71 2.418506 1_555
Ca3 O18 2.420120 1_555
Ca3 O49 2.431813 1_555
Ca4 O7 2.340534 1_555
Ca4 O2 2.366392 1_556
Ca4 O39 2.379857 1_555
Ca4 O70 2.407397 1_556
Ca4 O48 2.435060 1_556
Ca4 O19 2.453821 1_555
Ca5 O3 2.308869 1_555
Ca5 O51 2.328890 1_555
Ca5 O58 2.359460 1_555
Ca5 O74 2.416547 1_555
Ca5 O78 2.518383 1_555
Ca6 O53 2.388875 1_554
Ca6 O77 2.445987 1_554
Ca6 O44 2.467653 1_655
Ca6 O28 2.472458 1_555
Ca6 O43 2.507926 1_554
Ca6 O9 2.563266 1_554
Ca6 O20 2.604184 1_555
Ca7 O52 2.401836 1_555
Ca7 O76 2.447770 1_555
Ca7 O45 2.451164 1_655
Ca7 O42 2.518346 1_555
Ca7 O29 2.518713 1_555
Ca7 O8 2.576094 1_555
Ca7 O21 2.633131 1_555
Ca8 O55 2.379204 1_554
Ca8 O79 2.439019 1_554
Ca8 O30 2.459227 1_555
Ca8 O46 2.496673 1_655
Ca8 O41 2.538215 1_564
Ca8 O11 2.577566 1_554
Ca8 O22 2.624198 1_555
Ca9 O54 2.398038 1_555
Ca9 O47 2.471406 1_655
Ca9 O31 2.487297 1_555
Ca9 O40 2.501182 1_565
Ca9 O78 2.511499 1_555
Ca9 O10 2.550794 1_555
Ca9 O23 2.628730 1_555
Ca10 O15 2.296537 1_555
Ca10 O33 2.310712 1_565
Ca10 O47 2.479195 1_555
Ca10 O27 2.515299 1_565
Ca10 O75 2.545937 1_555
Ca10 O55 2.577624 1_455
Ca10 O59 2.950139 1_555
Ca11 O20 2.319392 1_555
Ca11 O28 2.341853 1_555
Ca11 O76 2.384613 1_555
Ca11 O52 2.580160 1_555
Ca11 O42 2.865105 1_555
Ca12 O21 2.318635 1_555
Ca12 O29 2.345380 1_555
Ca12 O77 2.364537 1_555
Ca12 O53 2.606585 1_555
Ca13 O22 2.282554 1_555
Ca13 O30 2.363100 1_555
Ca13 O78 2.367258 1_555
Ca13 O54 2.601914 1_555
Ca13 O40 2.836778 1_565
Ca13 O18 2.931942 1_555
Ca14 O23 2.320061 1_555
Ca14 O79 2.364460 1_555
Ca14 O31 2.370737 1_555
Ca14 O55 2.732682 1_555
Ca14 O19 2.788636 1_555
Ca15 O15 2.287388 1_555
Ca15 O67 2.323478 1_555
Ca15 O35 2.342931 1_555
Ca15 O25 2.380216 1_555
Ca15 O7 2.492342 1_555
Ca15 O63 2.615564 1_455
Ca16 O68 2.402689 1_555
Ca16 O16 2.447126 1_555
Ca16 O60 2.468922 1_555
Ca16 O36 2.491870 1_555
Ca16 O40 2.548205 1_555
Ca16 O30 2.653637 1_545
Ca16 O20 2.826990 1_555
Ca16 O8 2.833116 1_555
Ca17 O69 2.398299 1_555
Ca17 O17 2.433127 1_555
Ca17 O61 2.469266 1_555
Ca17 O41 2.511764 1_555
Ca17 O37 2.537653 1_555
Ca17 O31 2.672529 1_545
Ca17 O9 2.820053 1_555
Ca17 O21 2.842867 1_555
Ca18 O70 2.371117 1_555
Ca18 O18 2.405957 1_555
Ca18 O62 2.464760 1_555
Ca18 O42 2.522642 1_555
Ca18 O38 2.589032 1_555
Ca18 O28 2.639780 1_555
Ca18 O22 2.827296 1_555
Ca18 O10 2.834086 1_555
Ca19 O71 2.411883 1_555
Ca19 O19 2.444852 1_555
Ca19 O63 2.463861 1_555
Ca19 O43 2.517270 1_555
Ca19 O39 2.523525 1_555
Ca19 O29 2.608367 1_555
Ca19 O23 2.837793 1_555
Ca19 O11 2.859699 1_555
Mn0 O46 1.925386 1_655
Mn0 O54 1.935002 1_555
Mn0 O40 2.010161 1_565
Mn0 O30 2.035564 1_555
Mn0 O60 2.071864 1_565
Mn0 O32 2.246583 1_665
Mn1 O47 1.930721 1_655
Mn1 O55 1.947705 1_555
Mn1 O41 1.992995 1_565
Mn1 O31 2.039957 1_555
Mn1 O61 2.089146 1_565
Mn1 O33 2.204676 1_665
Mn2 O44 1.926273 1_655
Mn2 O52 1.947140 1_555
Mn2 O42 2.003080 1_555
Mn2 O28 2.034600 1_555
Mn2 O62 2.070910 1_555
Mn2 O34 2.253388 1_655
Mn3 O53 1.923612 1_555
Mn3 O45 1.924016 1_655
Mn3 O29 1.973109 1_555
Mn3 O43 2.013564 1_555
Mn3 O63 2.044797 1_555
Mn3 O35 2.111298 1_655
Mn4 O36 1.892456 1_565
Mn4 O26 1.903063 1_565
Mn4 O50 1.922284 1_555
Mn4 O58 1.927164 1_555
Mn5 O27 1.892499 1_565
Mn5 O59 1.911723 1_555
Mn5 O37 1.913380 1_565
Mn5 O51 1.945608 1_555
Mn6 O38 1.907347 1_555
Mn6 O48 1.922686 1_555
Mn6 O24 1.924570 1_555
Mn6 O56 1.960291 1_555
Mn7 O25 1.914122 1_555
Mn7 O39 1.924930 1_555
Mn7 O49 1.933098 1_555
Mn7 O57 1.965932 1_555
Mn8 O33 1.922900 1_564
Mn8 O26 2.007363 1_565
Mn8 O75 2.026225 1_554
Mn8 O46 2.036651 1_555
Mn8 O64 2.046932 1_565
Mn9 O32 1.928376 1_565
Mn9 O27 1.984810 1_565
Mn9 O74 2.014999 1_555
Mn9 O47 2.052217 1_555
Mn9 O65 2.056488 1_565
Mn10 O35 1.950999 1_554
Mn10 O24 1.988734 1_555
Mn10 O44 2.035998 1_555
Mn10 O73 2.041055 1_554
Mn10 O66 2.052685 1_555
Mn11 O34 1.932044 1_555
Mn11 O25 1.994168 1_555
Mn11 O67 2.021216 1_555
Mn11 O45 2.042822 1_555
Mn11 O72 2.043646 1_555
Mn12 O50 1.950826 1_546
Mn12 O30 1.963830 1_546
Mn12 O68 1.973105 1_556
Mn12 O41 1.973162 1_555
Mn12 O79 2.013947 1_545
Mn12 O37 2.161516 1_555
Mn13 O51 1.965009 1_545
Mn13 O31 1.972309 1_545
Mn13 O69 1.973853 1_555
Mn13 O78 1.991805 1_545
Mn13 O40 2.000782 1_555
Mn13 O36 2.134839 1_555
Mn14 O48 1.937931 1_556
Mn14 O28 1.951142 1_556
Mn14 O70 1.975223 1_556
Mn14 O43 1.996275 1_555
Mn14 O77 2.007942 1_555
Mn14 O39 2.090348 1_555
Mn15 O49 1.948266 1_555
Mn15 O71 1.985329 1_555
Mn15 O42 2.001052 1_555
Mn15 O76 2.028998 1_555
Mn15 O29 2.050901 1_555
Mn15 O38 2.138289 1_555
Mn16 O64 1.998862 1_556
Mn16 O13 2.017570 1_555
Mn16 O73 2.032969 1_555
Mn16 O5 2.087991 1_555
Mn17 O65 2.003402 1_555
Mn17 O12 2.024227 1_555
Mn17 O72 2.042740 1_555
Mn17 O4 2.086520 1_555
Mn18 O66 1.999423 1_556
Mn18 O75 2.041852 1_555
Mn18 O15 2.058426 1_555
Mn18 O7 2.095424 1_555
Mn19 O67 1.991762 1_555
Mn19 O74 2.030860 1_555
Mn19 O14 2.041340 1_555
Mn19 O6 2.104714 1_555
Mn20 O9 1.910001 1_554
Mn20 O68 1.952639 1_555
Mn20 O17 1.976509 1_554
Mn20 O20 1.985413 1_555
Mn20 O77 2.047018 1_554
Mn20 O0 2.147281 1_555
Mn21 O8 1.909886 1_555
Mn21 O69 1.964257 1_555
Mn21 O21 1.981995 1_555
Mn21 O16 1.987141 1_555
Mn21 O76 2.039037 1_555
Mn21 O1 2.138671 1_555
Mn22 O70 1.932829 1_555
Mn22 O11 1.942551 1_554
Mn22 O19 1.969225 1_554
Mn22 O22 1.974636 1_555
Mn22 O79 2.037109 1_554
Mn22 O2 2.259466 1_555
Mn23 O10 1.914982 1_555
Mn23 O71 1.930929 1_555
Mn23 O23 1.986936 1_555
Mn23 O18 2.027584 1_555
Mn23 O78 2.034075 1_555
Mn23 O3 2.104619 1_555
Mn24 O12 1.912810 1_655
Mn24 O52 1.937460 1_555
Mn24 O20 1.972817 1_555
Mn24 O60 1.987983 1_555
Mn24 O8 1.996614 1_555
Mn25 O13 1.906925 1_655
Mn25 O53 1.957422 1_555
Mn25 O21 1.961994 1_555
Mn25 O9 1.989586 1_555
Mn25 O61 1.995464 1_555
Mn26 O14 1.923253 1_655
Mn26 O54 1.930232 1_555
Mn26 O22 1.963301 1_555
Mn26 O62 1.982843 1_555
Mn26 O10 2.005999 1_555
Mn27 O15 1.924359 1_655
Mn27 O55 1.928230 1_555
Mn27 O63 1.982107 1_555
Mn27 O23 2.004791 1_555
Mn27 O11 2.019359 1_555
Mn28 O4 1.913690 1_555
Mn28 O0 1.921838 1_555
Mn28 O16 1.946527 1_555
Mn28 O56 1.969015 1_555
Mn29 O5 1.918380 1_555
Mn29 O1 1.926994 1_555
Mn29 O57 1.956716 1_555
Mn29 O17 1.959446 1_555
Mn30 O18 1.896479 1_555
Mn30 O6 1.907514 1_555
Mn30 O2 1.907766 1_555
Mn30 O58 1.995475 1_555
Mn31 O7 1.959980 1_555
Mn31 O3 1.962127 1_555
Mn31 O59 1.984919 1_555
Mn31 O19 2.007208 1_555
O0 Sr3 2.462157 1_554
O1 Sr4 2.459340 1_555
O2 Sr5 2.447291 1_554
O4 Sr9 2.619241 1_555
O5 Sr10 2.620482 1_555
O6 Sr11 2.615722 1_555
O8 Sr0 2.514976 1_655
O9 Sr1 2.507277 1_656
O10 Sr2 2.511042 1_655
O12 Sr9 2.446881 1_555
O12 Sr6 2.514227 1_555
O12 Sr0 3.217250 1_555
O13 Sr10 2.430640 1_555
O13 Sr7 2.520642 1_555
O14 Sr11 2.431540 1_555
O14 Sr8 2.530596 1_555
O24 Sr11 2.509350 1_555
O24 Sr6 2.739490 1_555
O25 Sr7 2.625097 1_555
O26 Sr9 2.556678 1_555
O26 Sr8 2.654555 1_545
O27 Sr10 2.472481 1_555
O31 Sr0 3.161877 1_665
O32 Sr8 2.441183 1_545
O32 Sr9 2.444240 1_555
O32 Sr0 2.793933 1_555
O33 Sr10 2.436116 1_555
O33 Sr1 2.793409 1_556
O34 Sr11 2.428405 1_555
O34 Sr6 2.461632 1_555
O34 Sr2 2.816067 1_555
O35 Sr7 2.480655 1_555
O40 Sr0 2.470973 1_655
O41 Sr1 2.463837 1_656
O42 Sr2 2.477687 1_655
O44 Sr6 2.632618 1_555
O45 Sr7 2.596855 1_555
O45 Sr2 2.789062 1_555
O46 Sr8 2.617352 1_555
O46 Sr1 2.792764 1_565
O46 Sr9 3.019618 1_565
O47 Sr0 2.823351 1_565
O48 Sr3 2.462709 1_554
O49 Sr4 2.462815 1_555
O50 Sr5 2.454241 1_554
O52 Sr6 2.735259 1_655
O53 Sr7 2.764652 1_655
O54 Sr8 2.732215 1_655
O56 Sr4 2.548046 1_555
O56 Sr6 2.704218 1_555
O57 Sr3 2.543377 1_555
O57 Sr7 2.741845 1_555
O58 Sr8 2.790054 1_555
O59 Sr5 2.458835 1_555
O60 Sr1 2.545542 1_655
O60 Sr9 2.661354 1_655
O60 Sr0 3.049537 1_655
O61 Sr0 2.541346 1_655
O61 Sr10 2.657942 1_655
O62 Sr11 2.659329 1_655
O63 Sr2 2.524114 1_655
O64 Sr9 2.479549 1_555
O64 Sr1 2.629849 1_555
O65 Sr10 2.469442 1_555
O65 Sr0 2.648617 1_555
O66 Sr11 2.460666 1_555
O67 Sr2 2.582124 1_555
O68 Sr1 2.813134 1_655
O69 Sr0 2.872538 1_655
O71 Sr2 2.853878 1_655
O72 Sr4 2.541822 1_555
O72 Sr6 2.748915 1_555
O72 Sr7 2.958525 1_555
O73 Sr3 2.557485 1_555
O73 Sr7 2.687731 1_555
O73 Sr6 3.041755 1_556
O74 Sr8 2.655267 1_555
O75 Sr5 2.556713 1_555
O75 Sr8 3.185004 1_556
O76 Sr4 2.586136 1_555
O77 Sr3 2.601251 1_555
O79 Sr5 2.622775 1_555
