# generated using pymatgen
data_LiV2O5
_symmetry_space_group_name_H-M   'P 1'
_cell_length_a   3.62219515
_cell_length_b   4.72743159
_cell_length_c   11.48918170
_cell_angle_alpha   90.00000000
_cell_angle_beta   90.00000000
_cell_angle_gamma   90.00000000
_symmetry_Int_Tables_number   1
_chemical_formula_structural   LiV2O5
_chemical_formula_sum   'Li2 V4 O10'
_cell_volume   196.73706833
_cell_formula_units_Z   2
loop_
 _symmetry_equiv_pos_site_id
 _symmetry_equiv_pos_as_xyz
  1  'x, y, z'
loop_
 _atom_site_type_symbol
 _atom_site_label
 _atom_site_symmetry_multiplicity
 _atom_site_fract_x
 _atom_site_fract_y
 _atom_site_fract_z
 _atom_site_occupancy
  Li  Li0  1  0.25000065  0.71520128  0.75000018  1
  Li  Li1  1  0.74999916  0.28479898  0.24999977  1
  O  O0  1  0.74999916  0.45143820  0.88109250  1
  O  O1  1  0.25000065  0.03188268  0.24999977  1
  O  O2  1  0.25000065  0.54855998  0.11890745  1
  O  O3  1  0.74999916  0.96811759  0.75000018  1
  O  O4  1  0.25000065  0.54855998  0.38109296  1
  O  O5  1  0.74999916  0.45143820  0.61890698  1
  O  O6  1  0.74999916  0.02444268  0.07276383  1
  O  O7  1  0.74999916  0.02444268  0.42723571  1
  O  O8  1  0.25000065  0.97555759  0.92723612  1
  O  O9  1  0.25000065  0.97555759  0.57276424  1
  V  V0  1  0.74999916  0.10753354  0.90068721  1
  V  V1  1  0.25000065  0.89246673  0.09931273  1
  V  V2  1  0.74999916  0.10753354  0.59931314  1
  V  V3  1  0.25000065  0.89246673  0.40068681  1
loop_
_geom_bond_atom_site_label_1
_geom_bond_atom_site_label_2
_geom_bond_distance
_geom_bond_site_symmetry_2
Li0 O3 2.170166 1_555
Li0 O3 2.170175 1_455
Li0 O9 2.379372 1_555
Li0 O8 2.379372 1_555
Li1 O1 2.170166 1_555
Li1 O1 2.170175 1_655
Li1 O7 2.379372 1_555
Li1 O6 2.379372 1_555
O0 V0 1.641299 1_555
O1 V1 1.852481 1_545
O1 V3 1.852481 1_545
O2 V1 1.641309 1_555
O3 V0 1.852480 1_565
O3 V2 1.852481 1_565
O4 V3 1.641307 1_555
O5 V2 1.641297 1_555
O6 V1 1.939679 1_545
O6 V1 1.939689 1_645
O6 V0 2.015664 1_554
O7 V3 1.939679 1_545
O7 V3 1.939689 1_645
O7 V2 2.015674 1_555
O8 V0 1.939679 1_565
O8 V0 1.939689 1_465
O8 V1 2.015664 1_556
O9 V2 1.939679 1_565
O9 V2 1.939689 1_465
O9 V3 2.015674 1_555
