# generated using pymatgen
data_Ba2CaY2(Fe2O5)2
_symmetry_space_group_name_H-M   'P 1'
_cell_length_a   3.84425400
_cell_length_b   9.90290500
_cell_length_c   8.14982700
_cell_angle_alpha   90.00000000
_cell_angle_beta   90.00000000
_cell_angle_gamma   90.00000000
_symmetry_Int_Tables_number   1
_chemical_formula_structural   Ba2CaY2(Fe2O5)2
_chemical_formula_sum   'Ba2 Ca1 Y2 Fe4 O10'
_cell_volume   310.25806360
_cell_formula_units_Z   1
loop_
 _symmetry_equiv_pos_site_id
 _symmetry_equiv_pos_as_xyz
  1  'x, y, z'
loop_
 _atom_site_type_symbol
 _atom_site_label
 _atom_site_symmetry_multiplicity
 _atom_site_fract_x
 _atom_site_fract_y
 _atom_site_fract_z
 _atom_site_occupancy
  Ba  Ba0  1  0.00000000  0.11309800  0.48643000  1
  Ba  Ba1  1  0.00000000  0.11309800  0.01357000  1
  Ca  Ca0  1  0.00000000  0.83151700  0.75000000  1
  Y  Y0  1  0.00000000  0.50680200  0.02632200  1
  Y  Y1  1  0.00000000  0.50680200  0.47367800  1
  Fe  Fe0  1  0.49999900  0.69387000  0.25000000  1
  Fe  Fe1  1  0.49999900  0.31504800  0.75000000  1
  Fe  Fe2  1  0.49999900  0.31243700  0.25000000  1
  Fe  Fe3  1  0.49999900  0.60916900  0.75000000  1
  O  O0  1  0.49999900  0.65779900  0.50461100  1
  O  O1  1  0.49999900  0.36669300  0.51047100  1
  O  O2  1  0.49999900  0.65779900  0.99538800  1
  O  O3  1  0.49999900  0.36669300  0.98952900  1
  O  O4  1  0.00000000  0.58184200  0.75000000  1
  O  O5  1  0.00000000  0.36123400  0.25000000  1
  O  O6  1  0.00000000  0.64617300  0.25000000  1
  O  O7  1  0.00000000  0.25593500  0.75000000  1
  O  O8  1  0.49999900  0.10269600  0.25000000  1
  O  O9  1  0.49999900  0.95129600  0.75000000  1
loop_
_geom_bond_atom_site_label_1
_geom_bond_atom_site_label_2
_geom_bond_distance
_geom_bond_site_symmetry_2
Ba0 O7 2.571951 1_555
Ba0 O8 2.723595 1_555
Ba0 O8 2.723601 1_455
Ba1 O7 2.571951 1_554
Ba1 O8 2.723595 1_555
Ba1 O8 2.723601 1_455
Ca0 O9 2.258657 1_555
Ca0 O9 2.258664 1_455
Ca0 O4 2.472508 1_555
Fe0 O6 1.979308 1_555
Fe0 O6 1.979316 1_655
Fe0 O0 2.105557 1_555
Fe0 O2 2.105565 1_554
Fe1 O7 2.009288 1_555
Fe1 O7 2.009296 1_655
Fe1 O3 2.018004 1_555
Fe1 O1 2.018004 1_555
Fe2 O5 1.981936 1_555
Fe2 O5 1.981944 1_655
Fe2 O8 2.077045 1_555
Fe2 O1 2.189734 1_555
Fe2 O3 2.189734 1_554
Fe3 O4 1.941080 1_555
Fe3 O4 1.941087 1_655
Fe3 O2 2.057036 1_555
Fe3 O0 2.057044 1_555
O0 Y1 2.448277 1_555
O0 Y1 2.448283 1_655
O1 Y1 2.389475 1_555
O1 Y1 2.389481 1_655
O2 Y0 2.448278 1_556
O2 Y0 2.448284 1_656
O3 Y0 2.389475 1_556
O3 Y0 2.389481 1_656
O4 Y0 2.371417 1_556
O4 Y1 2.371417 1_555
O5 Y1 2.324038 1_555
O5 Y0 2.324038 1_555
O6 Y1 2.286480 1_555
O6 Y0 2.286480 1_555
