# generated using pymatgen
data_LiEr4Zr4O14
_symmetry_space_group_name_H-M   'P 1'
_cell_length_a   3.62552145
_cell_length_b   14.96335106
_cell_length_c   12.92654969
_cell_angle_alpha   30.24486326
_cell_angle_beta   55.89267901
_cell_angle_gamma   61.02574409
_symmetry_Int_Tables_number   1
_chemical_formula_structural   LiEr4Zr4O14
_chemical_formula_sum   'Li1 Er4 Zr4 O14'
_cell_volume   292.46596147
_cell_formula_units_Z   1
loop_
 _symmetry_equiv_pos_site_id
 _symmetry_equiv_pos_as_xyz
  1  'x, y, z'
loop_
 _atom_site_type_symbol
 _atom_site_label
 _atom_site_symmetry_multiplicity
 _atom_site_fract_x
 _atom_site_fract_y
 _atom_site_fract_z
 _atom_site_occupancy
  Li  Li0  1  0.49004300  0.00000000  0.25482800  1
  Er  Er0  1  0.01248600  0.27198500  0.97165500  1
  Er  Er1  1  0.95132800  0.00000000  0.52421400  1
  Er  Er2  1  0.01248600  0.72801500  0.51562400  1
  Er  Er3  1  0.03098600  0.50000000  0.48449300  1
  Zr  Zr0  1  0.99917400  0.00000000  0.00056800  1
  Zr  Zr1  1  0.98147500  0.50000000  0.00919000  1
  Zr  Zr2  1  0.00183400  0.26038800  0.48866100  1
  Zr  Zr3  1  0.00183400  0.73961200  0.00943700  1
  O  O0  1  0.15197300  0.00000000  0.17375600  1
  O  O1  1  0.27597000  0.19723300  0.16469200  1
  O  O2  1  0.21040700  0.00000000  0.64472100  1
  O  O3  1  0.21984500  0.50000000  0.14003700  1
  O  O4  1  0.30238400  0.23431200  0.61450700  1
  O  O5  1  0.30238400  0.76568800  0.08313300  1
  O  O6  1  0.77865900  0.26787900  0.34274400  1
  O  O7  1  0.68165500  0.00000000  0.90922300  1
  O  O8  1  0.75004700  0.50000000  0.37494700  1
  O  O9  1  0.79623300  0.25446600  0.84728400  1
  O  O10  1  0.79623300  0.74553400  0.35621600  1
  O  O11  1  0.27597000  0.80276700  0.55915600  1
  O  O12  1  0.71579200  0.50000000  0.89199700  1
  O  O13  1  0.77865900  0.73212100  0.87850100  1
loop_
_geom_bond_atom_site_label_1
_geom_bond_atom_site_label_2
_geom_bond_distance
_geom_bond_site_symmetry_2
Li0 O11 1.877147 1_545
Li0 O1 1.877160 1_555
Li0 O0 2.009221 1_655
Li0 O0 2.010248 1_555
Li0 O10 2.522443 1_545
Li0 O9 2.522443 1_554
Er0 O0 2.182143 1_556
Er0 O1 2.281649 1_556
Er0 O1 2.281817 1_456
Er0 O12 2.339815 1_455
Er0 O9 2.368326 1_455
Er0 O9 2.368696 1_555
Er1 O13 2.220737 1_545
Er1 O6 2.220741 1_555
Er1 O2 2.224759 1_555
Er1 O2 2.224808 1_655
Er1 O1 2.286247 1_655
Er1 O11 2.286264 1_645
Er2 O0 2.182139 1_565
Er2 O11 2.281637 1_555
Er2 O11 2.281816 1_455
Er2 O12 2.339822 1_455
Er2 O10 2.368314 1_455
Er2 O10 2.368695 1_555
Er3 O8 2.158748 1_455
Er3 O8 2.159028 1_555
Er3 O9 2.236004 1_455
Er3 O10 2.236004 1_455
Er3 O5 2.473572 1_555
Er3 O4 2.473584 1_555
O0 Zr0 2.590298 1_455
O0 Zr0 2.595097 1_555
O1 Zr1 2.773383 1_455
O2 Zr3 2.257969 1_546
O2 Zr2 2.257969 1_555
O3 Zr3 2.150068 1_555
O3 Zr2 2.150068 1_555
O3 Zr1 2.290638 1_455
O3 Zr1 2.290798 1_555
O4 Zr2 2.112996 1_655
O4 Zr2 2.113120 1_555
O4 Zr0 2.399318 1_456
O5 Zr3 2.112994 1_655
O5 Zr3 2.113143 1_555
O5 Zr0 2.399303 1_465
O6 Zr1 2.058967 1_555
O6 Zr2 2.341675 1_655
O6 Zr2 2.342069 1_555
O7 Zr0 2.059134 1_456
O7 Zr0 2.060059 1_556
O7 Zr2 2.605870 1_655
O7 Zr3 2.605870 1_646
O8 Zr2 2.253264 1_655
O8 Zr3 2.253264 1_655
O9 Zr0 2.202536 1_556
O10 Zr0 2.202536 1_565
O11 Zr1 2.773395 1_456
O12 Zr1 2.204370 1_556
O12 Zr1 2.204450 1_456
O13 Zr1 2.058961 1_556
O13 Zr3 2.341687 1_656
O13 Zr3 2.342070 1_556
