# generated using pymatgen
data_Nb2Co4O9
_symmetry_space_group_name_H-M   'P 1'
_cell_length_a   5.21472082
_cell_length_b   5.22288338
_cell_length_c   14.31262784
_cell_angle_alpha   90.08050155
_cell_angle_beta   90.06389233
_cell_angle_gamma   60.05604724
_symmetry_Int_Tables_number   1
_chemical_formula_structural   Nb2Co4O9
_chemical_formula_sum   'Nb4 Co8 O18'
_cell_volume   337.78154897
_cell_formula_units_Z   2
loop_
 _symmetry_equiv_pos_site_id
 _symmetry_equiv_pos_as_xyz
  1  'x, y, z'
loop_
 _atom_site_type_symbol
 _atom_site_label
 _atom_site_symmetry_multiplicity
 _atom_site_fract_x
 _atom_site_fract_y
 _atom_site_fract_z
 _atom_site_occupancy
  Nb  Nb0  1  0.00093300  0.00006900  0.64284900  1
  Nb  Nb1  1  0.00094000  0.99828600  0.85894900  1
  Nb  Nb2  1  0.99893500  0.00051300  0.35850600  1
  Nb  Nb3  1  0.00013800  0.00021300  0.14139100  1
  Co  Co0  1  0.33352100  0.33333400  0.51344300  1
  Co  Co1  1  0.66637900  0.66641800  0.98604500  1
  Co  Co2  1  0.33350500  0.33416400  0.80561400  1
  Co  Co3  1  0.66651800  0.66654500  0.19517300  1
  Co  Co4  1  0.66842000  0.66514200  0.48717000  1
  Co  Co5  1  0.33604800  0.33204600  0.01218500  1
  Co  Co6  1  0.67251900  0.66314000  0.68894700  1
  Co  Co7  1  0.33326900  0.33376600  0.30459600  1
  O  O0  1  0.71028200  0.28978400  0.25010900  1
  O  O1  1  0.99993000  0.71021500  0.25025500  1
  O  O2  1  0.29006200  0.00029400  0.25018500  1
  O  O3  1  0.29003900  0.71291600  0.75056700  1
  O  O4  1  0.99737300  0.29159200  0.75049400  1
  O  O5  1  0.70857900  0.99983300  0.75030200  1
  O  O6  1  0.34329500  0.97774400  0.58368400  1
  O  O7  1  0.67848300  0.34368100  0.58425600  1
  O  O8  1  0.97831000  0.67747300  0.58462300  1
  O  O9  1  0.32096600  0.02218200  0.91666800  1
  O  O10  1  0.02239700  0.65608000  0.91694300  1
  O  O11  1  0.65517900  0.32186400  0.91600700  1
  O  O12  1  0.65578300  0.02092800  0.41614600  1
  O  O13  1  0.32102500  0.65677100  0.41617200  1
  O  O14  1  0.01913000  0.32312800  0.41654200  1
  O  O15  1  0.67645000  0.98023800  0.08407000  1
  O  O16  1  0.97816000  0.34415000  0.08397200  1
  O  O17  1  0.34343000  0.67749300  0.08413700  1
loop_
_geom_bond_atom_site_label_1
_geom_bond_atom_site_label_2
_geom_bond_distance
_geom_bond_site_symmetry_2
Nb0 O6 1.927000 1_545
Nb0 O7 1.933897 1_455
Nb0 O8 1.934299 1_445
Nb0 O3 2.154806 1_545
Nb0 O4 2.158144 1_455
Nb0 O5 2.167162 1_445
Nb1 O9 1.920325 1_565
Nb1 O10 1.923606 1_555
Nb1 O11 1.931692 1_465
Nb1 O3 2.157801 1_555
Nb1 O5 2.173698 1_455
Nb1 O4 2.175961 1_465
Nb2 O12 1.925262 1_555
Nb2 O14 1.926978 1_655
Nb2 O13 1.927751 1_645
Nb2 O1 2.164471 1_545
Nb2 O0 2.164813 1_555
Nb2 O2 2.170689 1_655
Nb3 O17 1.924668 1_545
Nb3 O15 1.924989 1_445
Nb3 O16 1.927116 1_455
Nb3 O2 2.169284 1_555
Nb3 O0 2.170203 1_455
Nb3 O1 2.174888 1_445
Co0 O7 2.087808 1_555
Co0 O6 2.091205 1_545
Co0 O8 2.091647 1_455
Co0 O12 2.164983 1_555
Co0 O13 2.166250 1_555
Co0 O14 2.167061 1_555
Co1 O10 2.081272 1_655
Co1 O9 2.083982 1_565
Co1 O11 2.084810 1_555
Co1 O16 2.170372 1_556
Co1 O17 2.172184 1_556
Co1 O15 2.176449 1_556
Co2 O5 2.022726 1_545
Co2 O4 2.032179 1_455
Co2 O3 2.035107 1_555
Co2 O11 2.280608 1_555
Co2 O10 2.296299 1_555
Co2 O9 2.302102 1_555
Co3 O1 2.022072 1_555
Co3 O2 2.023782 1_565
Co3 O0 2.024376 1_555
Co3 O17 2.294687 1_555
Co3 O16 2.296929 1_555
Co3 O15 2.303878 1_555
Co4 O14 2.072472 1_655
Co4 O12 2.091321 1_565
Co4 O13 2.095501 1_555
Co4 O8 2.158629 1_555
Co4 O7 2.161236 1_555
Co4 O6 2.164210 1_555
Co5 O15 2.081076 1_545
Co5 O17 2.093152 1_555
Co5 O16 2.104521 1_455
Co5 O11 2.140979 1_554
Co5 O9 2.148237 1_554
Co5 O10 2.153072 1_554
Co6 O4 2.032522 1_555
Co6 O5 2.055302 1_555
Co6 O3 2.075856 1_555
Co6 O8 2.214203 1_555
Co6 O7 2.229650 1_555
Co6 O6 2.258799 1_555
Co7 O0 2.019461 1_555
Co7 O2 2.019471 1_555
Co7 O1 2.020301 1_455
Co7 O13 2.299014 1_555
Co7 O12 2.303323 1_555
Co7 O14 2.313170 1_555
