# generated using pymatgen
data_Cr
_symmetry_space_group_name_H-M   'P 1'
_cell_length_a   4.51219083
_cell_length_b   4.51219083
_cell_length_c   4.51219083
_cell_angle_alpha   90.00000000
_cell_angle_beta   90.00000000
_cell_angle_gamma   90.00000000
_symmetry_Int_Tables_number   1
_chemical_formula_structural   Cr
_chemical_formula_sum   Cr8
_cell_volume   91.86760105
_cell_formula_units_Z   8
loop_
 _symmetry_equiv_pos_site_id
 _symmetry_equiv_pos_as_xyz
  1  'x, y, z'
loop_
 _atom_site_type_symbol
 _atom_site_label
 _atom_site_symmetry_multiplicity
 _atom_site_fract_x
 _atom_site_fract_y
 _atom_site_fract_z
 _atom_site_occupancy
  Cr  Cr0  1  0.00000000  0.00000000  -0.00000000  1
  Cr  Cr1  1  0.50000000  0.50000000  0.50000000  1
  Cr  Cr2  1  0.25000000  0.00000000  0.50000000  1
  Cr  Cr3  1  0.75000000  0.00000000  0.50000000  1
  Cr  Cr4  1  0.00000000  0.50000000  0.25000000  1
  Cr  Cr5  1  0.00000000  0.50000000  0.75000000  1
  Cr  Cr6  1  0.50000000  0.75000000  -0.00000000  1
  Cr  Cr7  1  0.50000000  0.25000000  -0.00000000  1
loop_
_geom_bond_atom_site_label_1
_geom_bond_atom_site_label_2
_geom_bond_distance
_geom_bond_site_symmetry_2
Cr0 Cr6 2.522391 1_545
Cr0 Cr5 2.522391 1_554
Cr0 Cr2 2.522391 1_554
Cr0 Cr4 2.522391 1_545
Cr0 Cr3 2.522391 1_455
Cr0 Cr2 2.522391 1_555
Cr0 Cr7 2.522391 1_455
Cr0 Cr5 2.522391 1_544
Cr0 Cr6 2.522391 1_445
Cr0 Cr4 2.522391 1_555
Cr0 Cr3 2.522391 1_454
Cr0 Cr7 2.522391 1_555
Cr1 Cr6 2.522391 1_555
Cr1 Cr3 2.522391 1_555
Cr1 Cr2 2.522391 1_555
Cr1 Cr4 2.522391 1_655
Cr1 Cr6 2.522391 1_556
Cr1 Cr2 2.522391 1_565
Cr1 Cr5 2.522391 1_655
Cr1 Cr3 2.522391 1_565
Cr1 Cr4 2.522391 1_555
Cr1 Cr7 2.522391 1_556
Cr1 Cr5 2.522391 1_555
Cr1 Cr7 2.522391 1_555
Cr2 Cr3 2.256095 1_455
Cr2 Cr3 2.256095 1_555
Cr2 Cr7 2.763141 1_555
Cr2 Cr6 2.763141 1_545
Cr2 Cr4 2.763141 1_555
Cr2 Cr7 2.763141 1_556
Cr2 Cr6 2.763141 1_546
Cr2 Cr5 2.763141 1_555
Cr2 Cr5 2.763141 1_545
Cr2 Cr4 2.763141 1_545
Cr3 Cr5 2.763141 1_655
Cr3 Cr6 2.763141 1_545
Cr3 Cr7 2.763141 1_555
Cr3 Cr7 2.763141 1_556
Cr3 Cr6 2.763141 1_546
Cr3 Cr5 2.763141 1_645
Cr3 Cr4 2.763141 1_655
Cr3 Cr4 2.763141 1_645
Cr4 Cr5 2.256095 1_555
Cr4 Cr5 2.256095 1_554
Cr4 Cr7 2.763141 1_555
Cr4 Cr6 2.763141 1_555
Cr4 Cr6 2.763141 1_455
Cr4 Cr7 2.763141 1_455
Cr5 Cr7 2.763141 1_556
Cr5 Cr7 2.763141 1_456
Cr5 Cr6 2.763141 1_556
Cr5 Cr6 2.763141 1_456
Cr6 Cr7 2.256095 1_565
Cr6 Cr7 2.256095 1_555
