# generated using pymatgen
data_MgU8Se17
_symmetry_space_group_name_H-M   'P 1'
_cell_length_a   8.33041474
_cell_length_b   8.33041474
_cell_length_c   11.06927800
_cell_angle_alpha   79.88639111
_cell_angle_beta   79.88639111
_cell_angle_gamma   64.03181551
_symmetry_Int_Tables_number   1
_chemical_formula_structural   MgU8Se17
_chemical_formula_sum   'Mg1 U8 Se17'
_cell_volume   675.63333581
_cell_formula_units_Z   1
loop_
 _symmetry_equiv_pos_site_id
 _symmetry_equiv_pos_as_xyz
  1  'x, y, z'
loop_
 _atom_site_type_symbol
 _atom_site_label
 _atom_site_symmetry_multiplicity
 _atom_site_fract_x
 _atom_site_fract_y
 _atom_site_fract_z
 _atom_site_occupancy
  Mg  Mg0  1  0.00000000  -0.00000000  -0.00000000  1
  U  U0  1  0.18471700  0.69782410  0.70238512  1
  U  U1  1  0.69782410  0.18471700  0.70238512  1
  U  U2  1  0.81528300  0.30217590  0.29761488  1
  U  U3  1  0.30217590  0.81528300  0.29761488  1
  U  U4  1  0.79638912  0.79638912  0.45844707  1
  U  U5  1  0.20361088  0.20361088  0.54155293  1
  U  U6  1  0.31863335  0.31863335  0.01584825  1
  U  U7  1  0.68136665  0.68136665  0.98415175  1
  Se  Se0  1  0.17693927  0.56752649  0.46654100  1
  Se  Se1  1  0.56752649  0.17693927  0.46654100  1
  Se  Se2  1  0.82306073  0.43247351  0.53345900  1
  Se  Se3  1  0.43247351  0.82306073  0.53345900  1
  Se  Se4  1  0.05736857  0.67004421  0.96559322  1
  Se  Se5  1  0.67004421  0.05736857  0.96559322  1
  Se  Se6  1  0.94263143  0.32995579  0.03440678  1
  Se  Se7  1  0.32995579  0.94263143  0.03440678  1
  Se  Se8  1  0.79015846  0.79015846  0.72124422  1
  Se  Se9  1  0.20984154  0.20984154  0.27875578  1
  Se  Se10  1  0.94096399  0.94096399  0.23279883  1
  Se  Se11  1  0.05903601  0.05903601  0.76720117  1
  Se  Se12  1  0.69670504  0.69670504  0.24853976  1
  Se  Se13  1  0.30329496  0.30329496  0.75146024  1
  Se  Se14  1  0.47971859  0.47971859  0.17035936  1
  Se  Se15  1  0.52028141  0.52028141  0.82964064  1
  Se  Se16  1  0.00000000  -0.00000000  0.50000000  1
loop_
_geom_bond_atom_site_label_1
_geom_bond_atom_site_label_2
_geom_bond_distance
_geom_bond_site_symmetry_2
Mg0 Se10 2.538870 1_445
Mg0 Se11 2.538870 1_554
Mg0 Se5 2.661199 1_454
Mg0 Se4 2.661199 1_544
Mg0 Se7 2.661199 1_545
Mg0 Se6 2.661199 1_455
Se0 U4 2.905074 1_455
Se0 U5 2.918919 1_555
Se0 U3 2.947849 1_555
Se0 U0 3.018923 1_555
Se1 U4 2.905074 1_545
Se1 U5 2.918919 1_555
Se1 U2 2.947849 1_555
Se1 U1 3.018923 1_555
Se2 U5 2.905074 1_655
Se2 U4 2.918919 1_555
Se2 U1 2.947849 1_555
Se2 U2 3.018923 1_555
Se3 U5 2.905074 1_565
Se3 U4 2.918919 1_555
Se3 U0 2.947849 1_555
Se3 U3 3.018923 1_555
Se4 U6 2.808855 1_556
Se4 U0 2.925799 1_555
Se4 U7 3.063363 1_455
Se5 U6 2.808855 1_556
Se5 U1 2.925799 1_555
Se5 U7 3.063363 1_545
Se6 U7 2.808855 1_554
Se6 U2 2.925799 1_555
Se6 U6 3.063363 1_655
Se7 U7 2.808855 1_554
Se7 U3 2.925799 1_555
Se7 U6 3.063363 1_565
Se8 U4 2.892028 1_555
Se8 U7 2.996442 1_555
Se8 U1 3.006642 1_565
Se8 U0 3.006642 1_655
Se9 U5 2.892028 1_555
Se9 U6 2.996442 1_555
Se9 U2 3.006642 1_455
Se9 U3 3.006642 1_545
Se10 U4 2.880471 1_555
Se10 U2 2.898400 1_565
Se10 U3 2.898400 1_655
Se11 U5 2.880471 1_555
Se11 U1 2.898400 1_455
Se11 U0 2.898400 1_545
Se12 U4 2.955855 1_555
Se12 U3 2.964938 1_555
Se12 U2 2.964938 1_555
Se12 U7 2.979011 1_554
Se13 U5 2.955855 1_555
Se13 U0 2.964938 1_555
Se13 U1 2.964938 1_555
Se13 U6 2.979011 1_556
Se14 U2 3.002741 1_555
Se14 U3 3.002741 1_555
Se14 U6 3.117000 1_555
Se14 U7 3.151375 1_554
Se15 U0 3.002741 1_555
Se15 U1 3.002741 1_555
Se15 U7 3.117000 1_555
Se15 U6 3.151375 1_556
Se16 U5 3.005492 1_555
Se16 U4 3.005492 1_445
Se16 U3 3.092102 1_545
Se16 U0 3.092102 1_545
Se16 U1 3.092102 1_455
Se16 U2 3.092102 1_455
