# generated using pymatgen
data_MgCo4(Te2O5)4
_symmetry_space_group_name_H-M   'P 1'
_cell_length_a   7.57905523
_cell_length_b   10.66615919
_cell_length_c   6.26340516
_cell_angle_alpha   89.99988895
_cell_angle_beta   92.15007331
_cell_angle_gamma   89.99995394
_symmetry_Int_Tables_number   1
_chemical_formula_structural   MgCo4(Te2O5)4
_chemical_formula_sum   'Mg1 Co4 Te8 O20'
_cell_volume   505.97351260
_cell_formula_units_Z   1
loop_
 _symmetry_equiv_pos_site_id
 _symmetry_equiv_pos_as_xyz
  1  'x, y, z'
loop_
 _atom_site_type_symbol
 _atom_site_label
 _atom_site_symmetry_multiplicity
 _atom_site_fract_x
 _atom_site_fract_y
 _atom_site_fract_z
 _atom_site_occupancy
  Mg  Mg0  1  0.50000000  0.30542545  0.25000000  1
  Co  Co0  1  0.00000000  0.06851214  0.25000000  1
  Co  Co1  1  1.00000000  0.94653420  0.75000000  1
  Co  Co2  1  0.50000000  0.57509463  0.25000000  1
  Co  Co3  1  0.50000000  0.43422592  0.75000000  1
  Te  Te0  1  0.13768027  0.34489171  0.49370031  1
  Te  Te1  1  0.13907360  0.65723964  0.98581945  1
  Te  Te2  1  0.34280382  0.13259497  0.96019824  1
  Te  Te3  1  0.36675533  0.84838807  0.48229144  1
  Te  Te4  1  0.65719618  0.13259497  0.53980176  1
  Te  Te5  1  0.63324467  0.84838907  0.01770756  1
  Te  Te6  1  0.86092640  0.65723864  0.51418055  1
  Te  Te7  1  0.86231973  0.34489171  0.00630069  1
  O  O0  1  1.00000000  0.43507821  0.25000000  1
  O  O1  1  0.00000000  0.56586607  0.75000000  1
  O  O2  1  0.09336334  0.09172404  0.94633649  1
  O  O3  1  0.15301428  0.93520909  0.44170508  1
  O  O4  1  0.20075766  0.20815522  0.32380702  1
  O  O5  1  0.19139478  0.80251459  0.82460705  1
  O  O6  1  0.31517957  0.28315232  0.77480406  1
  O  O7  1  0.30879326  0.70605855  0.30517229  1
  O  O8  1  0.36350453  0.42772942  0.43095734  1
  O  O9  1  0.35084626  0.56340601  0.94709338  1
  O  O10  1  0.49999900  0.93765041  0.25000000  1
  O  O11  1  0.50000000  0.04198672  0.75000000  1
  O  O12  1  0.63649447  0.42772942  0.06904266  1
  O  O13  1  0.64915474  0.56340501  0.55290662  1
  O  O14  1  0.68482043  0.28315132  0.72519594  1
  O  O15  1  0.69120774  0.70605855  0.19482671  1
  O  O16  1  0.79924334  0.20815522  0.17619198  1
  O  O17  1  0.80860322  0.80251359  0.67539395  1
  O  O18  1  0.90663766  0.09172304  0.55366351  1
  O  O19  1  0.84698672  0.93520809  0.05829492  1
loop_
_geom_bond_atom_site_label_1
_geom_bond_atom_site_label_2
_geom_bond_distance
_geom_bond_site_symmetry_2
Mg0 O12 2.035813 1_555
Mg0 O8 2.035819 1_555
Mg0 O4 2.551958 1_555
Mg0 O16 2.551965 1_555
Co0 O18 2.068925 1_455
Co0 O2 2.068929 1_554
Co0 O16 2.166681 1_455
Co0 O4 2.166688 1_555
Co0 O3 2.168817 1_545
Co0 O19 2.168825 1_445
Co1 O18 2.084665 1_565
Co1 O2 2.084680 1_665
Co1 O5 2.152075 1_655
Co1 O17 2.152094 1_555
Co1 O19 2.292637 1_556
Co1 O3 2.292641 1_655
Co2 O7 2.051427 1_555
Co2 O15 2.051434 1_555
Co2 O9 2.175314 1_554
Co2 O13 2.175318 1_555
Co2 O12 2.216621 1_555
Co2 O8 2.216623 1_555
Co3 O6 2.144560 1_555
Co3 O14 2.144567 1_555
Co3 O13 2.192035 1_555
Co3 O9 2.192039 1_555
Co3 O12 2.216541 1_556
Co3 O8 2.216544 1_555
O0 Te7 2.055372 1_555
O0 Te0 2.055373 1_655
O1 Te6 2.031169 1_455
O1 Te1 2.031178 1_555
O2 Te2 1.938902 1_555
O3 Te3 1.874977 1_555
O4 Te0 1.877802 1_555
O4 Te2 2.679405 1_554
O5 Te1 1.899444 1_555
O5 Te3 2.610870 1_555
O6 Te2 1.988160 1_555
O6 Te0 2.272804 1_555
O7 Te3 1.921400 1_555
O7 Te1 2.394501 1_554
O8 Te0 1.978620 1_555
O9 Te1 1.914648 1_555
O10 Te3 2.037981 1_555
O10 Te5 2.037991 1_555
O11 Te4 2.050476 1_555
O11 Te2 2.050478 1_555
O12 Te7 1.978624 1_555
O13 Te6 1.914642 1_555
O14 Te4 1.988156 1_555
O14 Te7 2.272814 1_556
O15 Te5 1.921406 1_555
O15 Te6 2.394503 1_555
O16 Te7 1.877790 1_555
O16 Te4 2.679411 1_555
O17 Te6 1.899454 1_555
O17 Te5 2.610856 1_556
O18 Te4 1.938911 1_555
O19 Te5 1.874975 1_555
