# generated using pymatgen
data_K5HfIn(MoO4)6
_symmetry_space_group_name_H-M   'P 1'
_cell_length_a   14.26020705
_cell_length_b   14.26020705
_cell_length_c   14.26020721
_cell_angle_alpha   44.44746809
_cell_angle_beta   44.44746809
_cell_angle_gamma   44.44747150
_symmetry_Int_Tables_number   1
_chemical_formula_structural   K5HfIn(MoO4)6
_chemical_formula_sum   'K10 Hf2 In2 Mo12 O48'
_cell_volume   1292.74091648
_cell_formula_units_Z   2
loop_
 _symmetry_equiv_pos_site_id
 _symmetry_equiv_pos_as_xyz
  1  'x, y, z'
loop_
 _atom_site_type_symbol
 _atom_site_label
 _atom_site_symmetry_multiplicity
 _atom_site_fract_x
 _atom_site_fract_y
 _atom_site_fract_z
 _atom_site_occupancy
  K  K0  1  0.85307600  0.85307600  0.85307600  1
  K  K1  1  0.35384300  0.35384300  0.35384300  1
  K  K2  1  0.14615300  0.14615300  0.14615300  1
  K  K3  1  0.64679000  0.64679000  0.64679000  1
  K  K4  1  0.75000100  0.36459600  0.13686900  1
  K  K5  1  0.36459600  0.13686900  0.75000100  1
  K  K6  1  0.13686900  0.75000100  0.36459600  1
  K  K7  1  0.63627800  0.86253700  0.24984100  1
  K  K8  1  0.86253700  0.24984100  0.63627800  1
  K  K9  1  0.24984100  0.63627800  0.86253700  1
  Hf  Hf0  1  0.00076100  0.00076100  0.00076100  1
  Hf  Hf1  1  0.24923000  0.24923000  0.24923000  1
  In  In0  1  0.49944100  0.49944100  0.49944100  1
  In  In1  1  0.75068300  0.75068300  0.75068300  1
  Mo  Mo0  1  0.47674200  0.23812100  0.88280200  1
  Mo  Mo1  1  0.23812100  0.88280200  0.47674200  1
  Mo  Mo2  1  0.88280200  0.47674200  0.23812100  1
  Mo  Mo3  1  0.38180700  0.73857200  0.97716000  1
  Mo  Mo4  1  0.73857200  0.97716000  0.38180700  1
  Mo  Mo5  1  0.97716000  0.38180700  0.73857200  1
  Mo  Mo6  1  0.52267200  0.76271600  0.11753000  1
  Mo  Mo7  1  0.76271600  0.11753000  0.52267200  1
  Mo  Mo8  1  0.11753000  0.52267200  0.76271600  1
  Mo  Mo9  1  0.61787000  0.26062700  0.02349100  1
  Mo  Mo10  1  0.26062700  0.02349100  0.61787000  1
  Mo  Mo11  1  0.02349100  0.61787000  0.26062700  1
  O  O0  1  0.64240700  0.11231400  0.90606100  1
  O  O1  1  0.11231400  0.90606100  0.64240700  1
  O  O2  1  0.90606100  0.64240700  0.11231400  1
  O  O3  1  0.40600500  0.61126300  0.14210200  1
  O  O4  1  0.61126300  0.14210200  0.40600500  1
  O  O5  1  0.14210200  0.40600500  0.61126300  1
  O  O6  1  0.35643400  0.88897200  0.09350100  1
  O  O7  1  0.88897200  0.09350100  0.35643400  1
  O  O8  1  0.09350100  0.35643400  0.88897200  1
  O  O9  1  0.59438800  0.38743900  0.85883800  1
  O  O10  1  0.38743900  0.85883800  0.59438800  1
  O  O11  1  0.85883800  0.59438800  0.38743900  1
  O  O12  1  0.32066200  0.29823100  0.03777800  1
  O  O13  1  0.29823100  0.03777800  0.32066200  1
  O  O14  1  0.03777800  0.32066200  0.29823100  1
  O  O15  1  0.52941500  0.80055900  0.82180900  1
  O  O16  1  0.80055900  0.82180900  0.52941500  1
  O  O17  1  0.82180900  0.52941500  0.80055900  1
  O  O18  1  0.67875300  0.69792700  0.97047300  1
  O  O19  1  0.69792700  0.97047300  0.67875300  1
  O  O20  1  0.97047300  0.67875300  0.69792700  1
  O  O21  1  0.46340900  0.20263000  0.17852400  1
  O  O22  1  0.20263000  0.17852400  0.46340900  1
  O  O23  1  0.17852400  0.46340900  0.20263100  1
  O  O24  1  0.50468200  0.39352800  0.70605400  1
  O  O25  1  0.39352800  0.70605400  0.50468200  1
  O  O26  1  0.70605400  0.50468200  0.39352800  1
  O  O27  1  0.19816400  0.89632900  0.00380600  1
  O  O28  1  0.89632900  0.00380600  0.19816400  1
  O  O29  1  0.00380600  0.19816400  0.89632900  1
  O  O30  1  0.49533500  0.60596300  0.29479100  1
  O  O31  1  0.60596300  0.29479100  0.49533500  1
  O  O32  1  0.29479100  0.49533500  0.60596300  1
  O  O33  1  0.80033400  0.10444600  0.99615900  1
  O  O34  1  0.10444600  0.99615900  0.80033400  1
  O  O35  1  0.99615900  0.80033400  0.10444600  1
  O  O36  1  0.42932700  0.15380000  0.88253800  1
  O  O37  1  0.15380000  0.88253800  0.42932700  1
  O  O38  1  0.88253800  0.42932700  0.15380000  1
  O  O39  1  0.38246400  0.65328100  0.92965700  1
  O  O40  1  0.65328100  0.92965700  0.38246400  1
  O  O41  1  0.92965700  0.38246400  0.65328100  1
  O  O42  1  0.57059900  0.84707800  0.11805800  1
  O  O43  1  0.84707800  0.11805800  0.57059900  1
  O  O44  1  0.11805800  0.57059900  0.84707800  1
  O  O45  1  0.61700600  0.34599400  0.07050400  1
  O  O46  1  0.34599400  0.07050400  0.61700600  1
  O  O47  1  0.07050400  0.61700600  0.34599400  1
loop_
_geom_bond_atom_site_label_1
_geom_bond_atom_site_label_2
_geom_bond_distance
_geom_bond_site_symmetry_2
K0 O1 2.855292 1_655
K0 O2 2.855293 1_556
K0 O0 2.855293 1_565
K0 O42 2.968141 1_556
K0 O43 2.968141 1_565
K0 O44 2.968141 1_655
K0 O18 3.240312 1_555
K0 O19 3.240312 1_555
K0 O20 3.240312 1_555
K1 O3 2.830526 1_555
K1 O5 2.830526 1_555
K1 O4 2.830526 1_555
K1 O46 2.969466 1_555
K1 O45 2.969466 1_555
K1 O47 2.969466 1_555
K1 O23 3.263568 1_555
K1 O22 3.263580 1_555
K1 O21 3.263580 1_555
K2 O7 2.832118 1_455
K2 O8 2.832118 1_554
K2 O6 2.832118 1_545
K2 O36 2.969747 1_554
K2 O37 2.969747 1_545
K2 O38 2.969747 1_455
K2 O12 3.273125 1_555
K2 O13 3.273125 1_555
K2 O14 3.273125 1_555
K3 O9 2.851740 1_555
K3 O11 2.851740 1_555
K3 O10 2.851740 1_555
K3 O40 2.968785 1_555
K3 O39 2.968785 1_555
K3 O41 2.968785 1_555
K3 O16 3.232331 1_555
K3 O15 3.232332 1_555
K3 O17 3.232332 1_555
K4 O38 2.818362 1_555
K4 O45 2.863956 1_555
K4 O7 3.051936 1_555
K4 O4 3.073375 1_555
K4 O18 3.114465 1_554
K4 O17 3.146992 1_554
K5 O36 2.818362 1_555
K5 O46 2.863956 1_555
K5 O8 3.051936 1_555
K5 O5 3.073375 1_555
K5 O19 3.114465 1_545
K5 O15 3.146992 1_545
K6 O37 2.818362 1_555
K6 O47 2.863956 1_555
K6 O6 3.051936 1_555
K6 O3 3.073375 1_555
K6 O20 3.114464 1_455
K6 O16 3.146992 1_455
K7 O42 2.802989 1_555
K7 O40 2.849966 1_555
K7 O2 3.045533 1_555
K7 O11 3.065263 1_555
K7 O13 3.155237 1_565
K7 O21 3.177938 1_565
K8 O43 2.802989 1_555
K8 O41 2.849966 1_555
K8 O0 3.045533 1_555
K8 O9 3.065263 1_555
K8 O14 3.155237 1_655
K8 O22 3.177938 1_655
K9 O44 2.802989 1_555
K9 O39 2.849966 1_555
K9 O1 3.045533 1_555
K9 O10 3.065263 1_555
K9 O12 3.155237 1_556
K9 O23 3.177948 1_556
Hf0 O29 2.059274 1_554
Hf0 O28 2.059274 1_455
Hf0 O27 2.059274 1_545
Hf0 O35 2.110665 1_445
Hf0 O34 2.110665 1_544
Hf0 O33 2.110665 1_454
Hf1 O12 2.059278 1_555
Hf1 O13 2.059278 1_555
Hf1 O14 2.059278 1_555
Hf1 O22 2.109141 1_555
Hf1 O21 2.109141 1_555
Hf1 O23 2.109146 1_555
In0 O32 2.148297 1_555
In0 O30 2.148297 1_555
In0 O31 2.148297 1_555
In0 O26 2.183408 1_555
In0 O24 2.183408 1_555
In0 O25 2.183408 1_555
In1 O18 2.141632 1_555
In1 O19 2.141632 1_555
In1 O20 2.141632 1_555
In1 O16 2.178769 1_555
In1 O15 2.178769 1_555
In1 O17 2.178769 1_555
Mo0 O36 1.753271 1_555
Mo0 O0 1.768454 1_555
Mo0 O24 1.809544 1_555
Mo0 O12 1.878929 1_556
Mo1 O37 1.753271 1_555
Mo1 O1 1.768454 1_555
Mo1 O25 1.809544 1_555
Mo1 O13 1.878929 1_565
Mo2 O38 1.753271 1_555
Mo2 O2 1.768454 1_555
Mo2 O26 1.809544 1_555
Mo2 O14 1.878929 1_655
Mo3 O39 1.757639 1_555
Mo3 O3 1.764910 1_556
Mo3 O15 1.822772 1_555
Mo3 O27 1.857820 1_556
Mo4 O40 1.757639 1_555
Mo4 O4 1.764910 1_565
Mo4 O16 1.822772 1_555
Mo4 O28 1.857820 1_565
Mo5 O41 1.757639 1_555
Mo5 O5 1.764910 1_655
Mo5 O17 1.822772 1_555
Mo5 O29 1.857820 1_655
Mo6 O42 1.763129 1_555
Mo6 O6 1.778678 1_555
Mo6 O30 1.818783 1_555
Mo6 O18 1.836093 1_554
Mo7 O43 1.763129 1_555
Mo7 O7 1.778678 1_555
Mo7 O31 1.818783 1_555
Mo7 O19 1.836093 1_545
Mo8 O44 1.763129 1_555
Mo8 O8 1.778678 1_555
Mo8 O32 1.818783 1_555
Mo8 O20 1.836093 1_455
Mo9 O45 1.750315 1_555
Mo9 O9 1.758109 1_554
Mo9 O33 1.843861 1_554
Mo9 O21 1.860352 1_555
Mo10 O46 1.750315 1_555
Mo10 O10 1.758109 1_545
Mo10 O34 1.843861 1_545
Mo10 O22 1.860352 1_555
Mo11 O47 1.750315 1_555
Mo11 O11 1.758109 1_455
Mo11 O35 1.843861 1_455
Mo11 O23 1.860346 1_555
