# generated using pymatgen
data_MgSi2
_symmetry_space_group_name_H-M   'P 1'
_cell_length_a   3.71146300
_cell_length_b   6.94834100
_cell_length_c   9.28764859
_cell_angle_alpha   69.69294483
_cell_angle_beta   90.00000000
_cell_angle_gamma   90.00000000
_symmetry_Int_Tables_number   1
_chemical_formula_structural   MgSi2
_chemical_formula_sum   'Mg4 Si8'
_cell_volume   224.62788111
_cell_formula_units_Z   4
loop_
 _symmetry_equiv_pos_site_id
 _symmetry_equiv_pos_as_xyz
  1  'x, y, z'
loop_
 _atom_site_type_symbol
 _atom_site_label
 _atom_site_symmetry_multiplicity
 _atom_site_fract_x
 _atom_site_fract_y
 _atom_site_fract_z
 _atom_site_occupancy
  Mg  Mg0  1  0.00000000  0.06441500  0.00336100  1
  Mg  Mg1  1  0.50000000  0.29199000  0.47290400  1
  Mg  Mg2  1  0.50000000  0.47330900  0.00565000  1
  Mg  Mg3  1  0.00000000  0.59109200  0.56750700  1
  Si  Si0  1  0.50000000  0.30752800  0.77264600  1
  Si  Si1  1  0.00000000  0.21526300  0.23924100  1
  Si  Si2  1  0.00000000  0.54915800  0.27772900  1
  Si  Si3  1  0.00000000  0.76013800  0.80582400  1
  Si  Si4  1  0.50000000  0.86689000  0.62710000  1
  Si  Si5  1  0.50000000  0.77103900  0.17839500  1
  Si  Si6  1  0.50000000  0.98108100  0.34417900  1
  Si  Si7  1  0.00000000  0.12809700  0.70546500  1
loop_
_geom_bond_atom_site_label_1
_geom_bond_atom_site_label_2
_geom_bond_distance
_geom_bond_site_symmetry_2
Mg0 Si7 2.645934 1_554
Mg0 Si1 2.737135 1_555
Mg0 Si5 2.818106 1_545
Mg0 Si5 2.818106 1_445
Mg0 Si0 2.894202 1_554
Mg0 Si0 2.894202 1_454
Mg1 Si2 2.770266 1_555
Mg1 Si2 2.770266 1_655
Mg1 Si7 2.774642 1_555
Mg1 Si7 2.774642 1_655
Mg1 Si4 2.799896 1_545
Mg1 Si6 2.808727 1_545
Mg1 Si0 2.823183 1_555
Mg1 Si1 3.039853 1_555
Mg1 Si1 3.039853 1_655
Mg2 Si0 2.782136 1_554
Mg2 Si3 2.879721 1_554
Mg2 Si3 2.879721 1_654
Mg2 Si1 2.943695 1_655
Mg2 Si1 2.943695 1_555
Mg2 Si5 3.026135 1_555
Mg3 Si2 2.805815 1_555
Mg3 Si3 2.843128 1_555
Mg3 Si4 2.856332 1_555
Mg3 Si4 2.856332 1_455
Mg3 Si0 2.889675 1_455
Mg3 Si0 2.889675 1_555
Mg3 Si7 3.021594 1_555
Si0 Si7 2.434623 1_555
Si0 Si7 2.434623 1_655
Si1 Si6 2.437329 1_445
Si1 Si6 2.437329 1_545
Si1 Si2 2.466959 1_555
Si2 Si5 2.384217 1_555
Si2 Si5 2.384217 1_455
Si3 Si7 2.398214 1_565
Si3 Si4 2.427895 1_555
Si3 Si4 2.427895 1_455
Si4 Si6 2.467198 1_555
Si4 Si7 2.860843 1_665
Si4 Si7 2.860843 1_565
Si5 Si6 2.461818 1_555
