# generated using pymatgen
data_AlAs2
_symmetry_space_group_name_H-M   'P 1'
_cell_length_a   9.47179078
_cell_length_b   9.47179078
_cell_length_c   9.47179078
_cell_angle_alpha   130.87557361
_cell_angle_beta   121.77027023
_cell_angle_gamma   79.57587641
_symmetry_Int_Tables_number   1
_chemical_formula_structural   AlAs2
_chemical_formula_sum   'Al8 As16'
_cell_volume   528.26571995
_cell_formula_units_Z   8
loop_
 _symmetry_equiv_pos_site_id
 _symmetry_equiv_pos_as_xyz
  1  'x, y, z'
loop_
 _atom_site_type_symbol
 _atom_site_label
 _atom_site_symmetry_multiplicity
 _atom_site_fract_x
 _atom_site_fract_y
 _atom_site_fract_z
 _atom_site_occupancy
  Al  Al0  1  0.50209800  0.55174400  0.30088400  1
  Al  Al1  1  0.99790200  0.29878600  0.04964700  1
  Al  Al2  1  0.74913900  0.94825600  0.45035300  1
  Al  Al3  1  0.75086100  0.20121400  0.19911600  1
  Al  Al4  1  0.49790200  0.44825600  0.69911600  1
  Al  Al5  1  0.00209800  0.70121400  0.95035300  1
  Al  Al6  1  0.25086100  0.05174400  0.54964700  1
  Al  Al7  1  0.24913900  0.79878600  0.80088400  1
  As  As0  1  0.50000000  0.50000000  0.00000000  1
  As  As1  1  0.00000000  0.00000000  0.00000000  1
  As  As2  1  0.50000000  0.00000000  0.50000000  1
  As  As3  1  0.00000000  0.50000000  0.50000000  1
  As  As4  1  0.25000000  0.58337900  0.33337900  1
  As  As5  1  0.75000000  0.91662100  0.16662100  1
  As  As6  1  0.75000000  0.41662100  0.66662100  1
  As  As7  1  0.25000000  0.08337900  0.83337900  1
  As  As8  1  0.80103300  0.75000000  0.55103300  1
  As  As9  1  0.69896700  0.25000000  0.94896700  1
  As  As10  1  0.19896700  0.25000000  0.44896700  1
  As  As11  1  0.30103300  0.75000000  0.05103300  1
  As  As12  1  0.50632100  0.25632100  0.25000000  1
  As  As13  1  0.99367900  0.24367900  0.75000000  1
  As  As14  1  0.49367900  0.74367900  0.75000000  1
  As  As15  1  0.00632100  0.75632100  0.25000000  1
loop_
_geom_bond_atom_site_label_1
_geom_bond_atom_site_label_2
_geom_bond_distance
_geom_bond_site_symmetry_2
Al0 As8 2.488662 1_555
Al0 As12 2.505674 1_555
Al0 As4 2.506091 1_555
Al0 As0 2.545258 1_555
Al1 As9 2.488659 1_554
Al1 As13 2.505683 1_554
Al1 As4 2.506092 1_655
Al1 As1 2.545253 1_655
Al2 As8 2.488668 1_555
Al2 As13 2.505678 1_565
Al2 As5 2.506086 1_555
Al2 As2 2.545254 1_565
Al3 As9 2.488659 1_554
Al3 As12 2.505683 1_555
Al3 As5 2.506092 1_545
Al3 As3 2.545253 1_655
Al4 As10 2.488662 1_555
Al4 As14 2.505674 1_555
Al4 As6 2.506091 1_555
Al4 As0 2.545258 1_556
Al5 As11 2.488659 1_556
Al5 As15 2.505683 1_556
Al5 As6 2.506092 1_455
Al5 As1 2.545253 1_566
Al6 As10 2.488668 1_555
Al6 As15 2.505678 1_545
Al6 As7 2.506086 1_555
Al6 As2 2.545254 1_555
Al7 As11 2.488659 1_556
Al7 As14 2.505683 1_555
Al7 As7 2.506092 1_565
Al7 As3 2.545253 1_555
