# generated using pymatgen
data_Si(AgP)2
_symmetry_space_group_name_H-M   'P 1'
_cell_length_a   6.29542189
_cell_length_b   6.29542189
_cell_length_c   6.29542189
_cell_angle_alpha   117.31907069
_cell_angle_beta   117.31907069
_cell_angle_gamma   94.70982422
_symmetry_Int_Tables_number   1
_chemical_formula_structural   Si(AgP)2
_chemical_formula_sum   'Si2 Ag4 P4'
_cell_volume   182.90524136
_cell_formula_units_Z   2
loop_
 _symmetry_equiv_pos_site_id
 _symmetry_equiv_pos_as_xyz
  1  'x, y, z'
loop_
 _atom_site_type_symbol
 _atom_site_label
 _atom_site_symmetry_multiplicity
 _atom_site_fract_x
 _atom_site_fract_y
 _atom_site_fract_z
 _atom_site_occupancy
  Si  Si0  1  0.00000000  0.00000000  0.00000000  1
  Si  Si1  1  0.75000000  0.25000000  0.50000000  1
  Ag  Ag0  1  0.37500000  0.67754862  0.80254862  1
  Ag  Ag1  1  0.87500000  0.57245138  0.19745138  1
  Ag  Ag2  1  0.32245138  0.12500000  0.69745138  1
  Ag  Ag3  1  0.42754862  0.62500000  0.30254862  1
  P  P0  1  0.37500000  0.29494382  0.41994382  1
  P  P1  1  0.87500000  0.95505618  0.58005618  1
  P  P2  1  0.70505618  0.12500000  0.08005618  1
  P  P3  1  0.04494382  0.62500000  0.91994382  1
loop_
_geom_bond_atom_site_label_1
_geom_bond_atom_site_label_2
_geom_bond_distance
_geom_bond_site_symmetry_2
Ag0 P0 2.505595 1_555
Ag0 P2 2.548362 1_566
Ag0 P3 2.548362 1_555
Ag1 P1 2.505595 1_555
Ag1 P2 2.548362 1_555
Ag1 P3 2.548362 1_654
Ag2 P2 2.505595 1_556
Ag2 P0 2.548362 1_555
Ag2 P1 2.548362 1_445
Ag3 P3 2.505595 1_554
Ag3 P0 2.548362 1_555
Ag3 P1 2.548362 1_555
P0 Si0 2.248516 1_555
P0 Si1 2.248516 1_555
P1 Si1 2.248516 1_565
P1 Si0 2.248516 1_666
P2 Si0 2.248516 1_655
P2 Si1 2.248516 1_555
P3 Si1 2.248516 1_455
P3 Si0 2.248516 1_566
