# generated using pymatgen
data_Ho3Sc2S7
_symmetry_space_group_name_H-M   'P 1'
_cell_length_a   6.44790030
_cell_length_b   6.44790030
_cell_length_c   11.34815914
_cell_angle_alpha   76.29018991
_cell_angle_beta   76.29018991
_cell_angle_gamma   33.49323229
_symmetry_Int_Tables_number   1
_chemical_formula_structural   Ho3Sc2S7
_chemical_formula_sum   'Ho3 Sc2 S7'
_cell_volume   252.25942132
_cell_formula_units_Z   1
loop_
 _symmetry_equiv_pos_site_id
 _symmetry_equiv_pos_as_xyz
  1  'x, y, z'
loop_
 _atom_site_type_symbol
 _atom_site_label
 _atom_site_symmetry_multiplicity
 _atom_site_fract_x
 _atom_site_fract_y
 _atom_site_fract_z
 _atom_site_occupancy
  Ho  Ho0  1  0.70017442  0.70017442  0.18515524  1
  Ho  Ho1  1  0.30093673  0.30093673  0.81025726  1
  Ho  Ho2  1  0.88889448  0.88889448  0.42449594  1
  Sc  Sc0  1  0.11161112  0.11161112  0.58043351  1
  Sc  Sc1  1  0.00075728  0.00075728  0.99720397  1
  S  S0  1  0.03605083  0.03605083  0.20886968  1
  S  S1  1  0.96647198  0.96647198  0.78510541  1
  S  S2  1  0.73613212  0.73613212  0.64675046  1
  S  S3  1  0.25362404  0.25362404  0.35751099  1
  S  S4  1  0.34737710  0.34737710  0.04829950  1
  S  S5  1  0.65447435  0.65447535  0.94939935  1
  S  S6  1  0.50349556  0.50349556  0.50651770  1
loop_
_geom_bond_atom_site_label_1
_geom_bond_atom_site_label_2
_geom_bond_distance
_geom_bond_site_symmetry_2
Ho0 S0 2.713281 1_655
Ho0 S0 2.713281 1_565
Ho0 S4 2.787591 1_565
Ho0 S4 2.787591 1_655
Ho0 S5 2.867680 1_554
Ho0 S3 2.890000 1_565
Ho0 S3 2.890000 1_655
Ho1 S1 2.724532 1_545
Ho1 S1 2.724532 1_455
Ho1 S5 2.793305 1_545
Ho1 S5 2.793307 1_455
Ho1 S2 2.875780 1_455
Ho1 S2 2.875780 1_545
Ho1 S4 2.897064 1_556
Ho2 S6 2.640640 1_565
Ho2 S6 2.640640 1_655
Ho2 S0 2.662476 1_665
Ho2 S3 2.729199 1_565
Ho2 S3 2.729199 1_655
Ho2 S2 2.750429 1_555
S0 Sc1 2.545161 1_554
S1 Sc1 2.544994 1_665
S1 Sc0 2.558595 1_665
S2 Sc0 2.637325 1_565
S2 Sc0 2.637325 1_655
S3 Sc0 2.697980 1_555
S4 Sc1 2.613783 1_654
S4 Sc1 2.613783 1_564
S5 Sc1 2.615269 1_565
S5 Sc1 2.615272 1_655
S6 Sc0 2.547986 1_565
S6 Sc0 2.547986 1_655
