# generated using pymatgen
data_Li4Sc3In(SiO3)8
_symmetry_space_group_name_H-M   'P 1'
_cell_length_a   6.73684400
_cell_length_b   7.48450892
_cell_length_c   9.67414768
_cell_angle_alpha   102.74871960
_cell_angle_beta   101.74726950
_cell_angle_gamma   96.27656076
_symmetry_Int_Tables_number   1
_chemical_formula_structural   Li4Sc3In(SiO3)8
_chemical_formula_sum   'Li4 Sc3 In1 Si8 O24'
_cell_volume   459.68180417
_cell_formula_units_Z   1
loop_
 _symmetry_equiv_pos_site_id
 _symmetry_equiv_pos_as_xyz
  1  'x, y, z'
loop_
 _atom_site_type_symbol
 _atom_site_label
 _atom_site_symmetry_multiplicity
 _atom_site_fract_x
 _atom_site_fract_y
 _atom_site_fract_z
 _atom_site_occupancy
  Li  Li0  1  0.74771200  0.25077500  0.49898500  1
  Li  Li1  1  0.74893600  0.75089200  0.99934600  1
  Li  Li2  1  0.25207500  0.74937300  0.50037000  1
  Li  Li3  1  0.25133600  0.24897400  0.00133600  1
  Sc  Sc0  1  0.39135300  0.42906400  0.32090400  1
  Sc  Sc1  1  0.60956200  0.07206700  0.18092100  1
  Sc  Sc2  1  0.60838800  0.56892400  0.67806500  1
  In  In0  1  0.39490900  0.92773800  0.82224600  1
  Si  Si0  1  0.88523000  0.99618700  0.78122600  1
  Si  Si1  1  0.88584700  0.49537400  0.28180000  1
  Si  Si2  1  0.28580400  0.16918100  0.55325600  1
  Si  Si3  1  0.28563400  0.66801000  0.05494700  1
  Si  Si4  1  0.11399100  0.00510000  0.21781900  1
  Si  Si5  1  0.11330900  0.50368400  0.71814800  1
  Si  Si6  1  0.71311500  0.83115800  0.44548400  1
  Si  Si7  1  0.71410000  0.33280500  0.94584900  1
  O  O0  1  0.84300000  0.70785500  0.34264200  1
  O  O1  1  0.84066200  0.20818400  0.84169600  1
  O  O2  1  0.13350700  0.05432900  0.39547400  1
  O  O3  1  0.13472500  0.55366600  0.89613800  1
  O  O4  1  0.15634300  0.29126600  0.65733900  1
  O  O5  1  0.15642500  0.79218100  0.15747000  1
  O  O6  1  0.86547900  0.94694200  0.60339000  1
  O  O7  1  0.86594000  0.44758200  0.10391600  1
  O  O8  1  0.11547400  0.99278600  0.86837500  1
  O  O9  1  0.11978400  0.48870400  0.36194600  1
  O  O10  1  0.37572200  0.01211300  0.62694300  1
  O  O11  1  0.37302300  0.51435100  0.13464100  1
  O  O12  1  0.87961100  0.01110800  0.13789600  1
  O  O13  1  0.87975100  0.51085100  0.63772600  1
  O  O14  1  0.62686400  0.98534400  0.36558800  1
  O  O15  1  0.62686800  0.48615400  0.86534700  1
  O  O16  1  0.70701100  0.84559500  0.80937600  1
  O  O17  1  0.70506600  0.34770100  0.30970500  1
  O  O18  1  0.46152500  0.32012300  0.52331900  1
  O  O19  1  0.46420400  0.81771900  0.02645600  1
  O  O20  1  0.29574100  0.15262700  0.19084200  1
  O  O21  1  0.29438800  0.64713200  0.68645800  1
  O  O22  1  0.53829200  0.68039600  0.47599900  1
  O  O23  1  0.53929300  0.18598400  0.98061300  1
loop_
_geom_bond_atom_site_label_1
_geom_bond_atom_site_label_2
_geom_bond_distance
_geom_bond_site_symmetry_2
Li0 O14 2.088517 1_545
Li0 O13 2.089002 1_555
Li0 O17 2.092715 1_555
Li0 O18 2.095634 1_555
Li1 O19 2.086902 1_556
Li1 O12 2.087379 1_566
Li1 O15 2.087772 1_555
Li1 O16 2.089740 1_555
Li2 O10 2.055247 1_565
Li2 O21 2.086729 1_555
Li2 O9 2.091564 1_555
Li2 O22 2.095022 1_555
Li3 O8 2.053578 1_544
Li3 O23 2.083836 1_554
Li3 O11 2.088825 1_555
Li3 O20 2.092328 1_555
In0 O8 2.103949 1_555
In0 O10 2.104830 1_565
In0 O21 2.168918 1_555
In0 O23 2.168963 1_565
In0 O16 2.273718 1_555
In0 O19 2.285891 1_556
O0 Si1 1.647816 1_555
O0 Si6 1.653175 1_555
O1 Si0 1.648025 1_545
O1 Si7 1.649581 1_555
O2 Si2 1.646778 1_555
O2 Si4 1.650682 1_555
O3 Si3 1.649180 1_556
O3 Si5 1.651802 1_555
O4 Si5 1.647777 1_555
O4 Si2 1.653856 1_555
O5 Si4 1.648958 1_565
O5 Si3 1.651282 1_555
O6 Si6 1.649521 1_555
O6 Si0 1.652142 1_555
O7 Si7 1.647371 1_554
O7 Si1 1.652637 1_555
O8 Si0 1.613390 1_455
O9 Si1 1.619920 1_455
O9 Sc0 2.024886 1_555
O10 Si2 1.614569 1_555
O11 Si3 1.618084 1_555
O11 Sc0 2.025827 1_555
O12 Si4 1.620733 1_655
O12 Sc1 2.024154 1_555
O13 Si5 1.619357 1_655
O13 Sc2 2.018080 1_555
O14 Si6 1.619934 1_555
O14 Sc1 2.017422 1_565
O15 Si7 1.620124 1_555
O15 Sc2 2.025402 1_555
O16 Si0 1.660953 1_555
O16 Sc2 2.130179 1_555
O17 Si1 1.658003 1_555
O17 Sc1 2.114492 1_555
O17 Sc0 2.279190 1_555
O18 Si2 1.659258 1_555
O18 Sc2 2.109812 1_555
O18 Sc0 2.266021 1_555
O19 Si3 1.659902 1_555
O19 Sc1 2.134693 1_565
O20 Si4 1.657766 1_555
O20 Sc0 2.123305 1_555
O20 Sc1 2.275579 1_555
O21 Si5 1.657112 1_555
O21 Sc2 2.267977 1_555
O22 Si6 1.656955 1_555
O22 Sc0 2.124158 1_555
O22 Sc2 2.273864 1_555
O23 Si7 1.657987 1_555
O23 Sc1 2.269377 1_556
