# generated using pymatgen
data_MgV5(MoO5)5
_symmetry_space_group_name_H-M   'P 1'
_cell_length_a   19.05693859
_cell_length_b   5.49068884
_cell_length_c   6.43741403
_cell_angle_alpha   99.62049847
_cell_angle_beta   104.74174884
_cell_angle_gamma   47.09790316
_symmetry_Int_Tables_number   1
_chemical_formula_structural   MgV5(MoO5)5
_chemical_formula_sum   'Mg1 V5 Mo5 O25'
_cell_volume   477.15244060
_cell_formula_units_Z   1
loop_
 _symmetry_equiv_pos_site_id
 _symmetry_equiv_pos_as_xyz
  1  'x, y, z'
loop_
 _atom_site_type_symbol
 _atom_site_label
 _atom_site_symmetry_multiplicity
 _atom_site_fract_x
 _atom_site_fract_y
 _atom_site_fract_z
 _atom_site_occupancy
  Mg  Mg0  1  0.17291200  0.61707400  0.28371900  1
  V  V0  1  0.02953100  0.18078500  0.60841300  1
  V  V1  1  0.22771400  0.19085500  0.61970600  1
  V  V2  1  0.41427700  0.90883300  0.98632000  1
  V  V3  1  0.59790700  0.96599100  0.97881200  1
  V  V4  1  0.78043200  0.04619800  0.98224000  1
  Mo  Mo0  1  0.97439600  0.10025900  0.00796600  1
  Mo  Mo1  1  0.18266200  0.08277900  0.01170700  1
  Mo  Mo2  1  0.42892900  0.12502100  0.57920500  1
  Mo  Mo3  1  0.63589600  0.11077100  0.57867600  1
  Mo  Mo4  1  0.83601500  0.12393000  0.57860100  1
  O  O0  1  0.03038900  0.06141000  0.29816800  1
  O  O1  1  0.05177100  0.16682800  0.92054200  1
  O  O2  1  0.14650900  0.12327100  0.67697400  1
  O  O3  1  0.08476100  0.61039900  0.00935700  1
  O  O4  1  0.22436300  0.16353000  0.31442500  1
  O  O5  1  0.15488000  0.61389900  0.60849700  1
  O  O6  1  0.28322100  0.05373000  0.93358200  1
  O  O7  1  0.36358200  0.01334300  0.66477000  1
  O  O8  1  0.23131300  0.69484800  0.10172300  1
  O  O9  1  0.41863600  0.04460700  0.29194300  1
  O  O10  1  0.33443100  0.55554700  0.56971600  1
  O  O11  1  0.47627900  0.04584100  0.91531300  1
  O  O12  1  0.54840800  0.06281200  0.64893900  1
  O  O13  1  0.49441500  0.49750200  0.00319700  1
  O  O14  1  0.62279500  0.02225000  0.29656600  1
  O  O15  1  0.55120400  0.54461100  0.57627400  1
  O  O16  1  0.67451900  0.04921100  0.91117400  1
  O  O17  1  0.75455900  0.04130200  0.64275500  1
  O  O18  1  0.68185900  0.54197500  0.97772400  1
  O  O19  1  0.81209800  0.09017700  0.29681500  1
  O  O20  1  0.74444400  0.55926900  0.60563100  1
  O  O21  1  0.88248400  0.03749200  0.92735100  1
  O  O22  1  0.94590200  0.09285600  0.65030000  1
  O  O23  1  0.87557800  0.55090600  0.01194600  1
  O  O24  1  0.94125800  0.59513000  0.57304500  1
loop_
_geom_bond_atom_site_label_1
_geom_bond_atom_site_label_2
_geom_bond_distance
_geom_bond_site_symmetry_2
Mg0 O4 1.985803 1_555
Mg0 O8 2.066759 1_555
Mg0 O0 2.090147 1_565
Mg0 O3 2.120137 1_555
Mg0 O5 2.208057 1_555
Mo0 O23 1.824482 1_555
Mo0 O0 1.866251 1_655
Mo0 O21 1.937920 1_554
Mo0 O1 1.961997 1_654
Mo0 O3 1.988584 1_645
Mo0 O22 2.227161 1_554
Mo1 O8 1.784023 1_545
Mo1 O6 1.999571 1_554
Mo1 O4 2.007094 1_555
Mo1 O2 2.088866 1_554
Mo1 O3 2.124891 1_555
Mo1 O1 2.134853 1_554
Mo2 O10 1.741014 1_555
Mo2 O9 1.820292 1_555
Mo2 O7 1.931799 1_555
Mo2 O12 1.993661 1_555
Mo2 O11 2.114563 1_555
Mo2 O15 2.340516 1_545
Mo3 O15 1.744890 1_555
Mo3 O14 1.798909 1_555
Mo3 O17 1.957770 1_555
Mo3 O12 2.018664 1_555
Mo3 O16 2.082966 1_555
Mo3 O20 2.223360 1_545
Mo4 O19 1.764782 1_555
Mo4 O20 1.767907 1_555
Mo4 O22 1.917136 1_555
Mo4 O17 2.033164 1_555
Mo4 O24 2.127770 1_545
Mo4 O21 2.195863 1_555
O0 V0 1.995766 1_555
O1 V0 1.948499 1_555
O2 V1 1.945853 1_555
O2 V0 1.962509 1_555
O4 V1 1.933728 1_555
O5 V1 1.715426 1_555
O5 V0 2.295927 1_565
O6 V2 1.984774 1_545
O6 V1 2.026040 1_555
O7 V1 2.003637 1_555
O7 V2 2.042503 1_545
O9 V2 1.986030 1_544
O11 V2 1.941888 1_545
O11 V3 1.981390 1_545
O12 V3 2.087328 1_545
O13 V2 1.657248 1_554
O13 V3 2.144592 1_544
O14 V3 1.999758 1_544
O16 V4 1.941791 1_555
O16 V3 1.956592 1_545
O17 V4 2.114203 1_555
O18 V3 1.705559 1_555
O18 V4 1.994066 1_555
O19 V4 1.984018 1_554
O21 V4 2.031474 1_555
O22 V0 2.038506 1_655
O23 V4 2.000939 1_564
O24 V0 1.680807 1_655
