# generated using pymatgen
data_Sr3AlSb3
_symmetry_space_group_name_H-M   'P 1'
_cell_length_a   10.85632845
_cell_length_b   10.85632845
_cell_length_c   13.60284658
_cell_angle_alpha   90.00000000
_cell_angle_beta   90.00000000
_cell_angle_gamma   142.68013278
_symmetry_Int_Tables_number   1
_chemical_formula_structural   Sr3AlSb3
_chemical_formula_sum   'Sr12 Al4 Sb12'
_cell_volume   971.98075722
_cell_formula_units_Z   4
loop_
 _symmetry_equiv_pos_site_id
 _symmetry_equiv_pos_as_xyz
  1  'x, y, z'
loop_
 _atom_site_type_symbol
 _atom_site_label
 _atom_site_symmetry_multiplicity
 _atom_site_fract_x
 _atom_site_fract_y
 _atom_site_fract_z
 _atom_site_occupancy
  Sr  Sr0  1  0.81074445  0.81074445  0.35380319  1
  Sr  Sr1  1  0.31074445  0.31074445  0.14619681  1
  Sr  Sr2  1  0.68925555  0.68925555  0.85380319  1
  Sr  Sr3  1  0.18925555  0.18925555  0.64619681  1
  Sr  Sr4  1  0.47870999  0.12689050  0.87063384  1
  Sr  Sr5  1  0.62689050  0.97870999  0.62936616  1
  Sr  Sr6  1  0.02129001  0.37310950  0.37063384  1
  Sr  Sr7  1  0.87310950  0.52129001  0.12936616  1
  Sr  Sr8  1  0.52129001  0.87310950  0.12936616  1
  Sr  Sr9  1  0.37310950  0.02129001  0.37063384  1
  Sr  Sr10  1  0.97870999  0.62689050  0.62936616  1
  Sr  Sr11  1  0.12689050  0.47870999  0.87063384  1
  Al  Al0  1  0.08623017  0.91376983  -0.00000000  1
  Al  Al1  1  0.41376983  0.58623017  0.50000000  1
  Al  Al2  1  0.91376983  0.08623017  -0.00000000  1
  Al  Al3  1  0.58623017  0.41376983  0.50000000  1
  Sb  Sb0  1  0.28896726  0.28896726  0.39304095  1
  Sb  Sb1  1  0.78896726  0.78896726  0.10695905  1
  Sb  Sb2  1  0.21103274  0.21103274  0.89304095  1
  Sb  Sb3  1  0.71103274  0.71103274  0.60695905  1
  Sb  Sb4  1  0.94883590  0.62841777  0.87770491  1
  Sb  Sb5  1  0.12841777  0.44883590  0.62229509  1
  Sb  Sb6  1  0.55116410  0.87158223  0.37770491  1
  Sb  Sb7  1  0.37158223  0.05116410  0.12229509  1
  Sb  Sb8  1  0.05116410  0.37158223  0.12229509  1
  Sb  Sb9  1  0.87158223  0.55116410  0.37770491  1
  Sb  Sb10  1  0.44883590  0.12841777  0.62229509  1
  Sb  Sb11  1  0.62841777  0.94883590  0.87770491  1
loop_
_geom_bond_atom_site_label_1
_geom_bond_atom_site_label_2
_geom_bond_distance
_geom_bond_site_symmetry_2
Al0 Sb4 2.690661 1_454
Al0 Sb7 2.690661 1_565
Al0 Sb1 2.722637 1_455
Al0 Sb2 2.722637 1_564
Al0 Sr4 3.305300 1_564
Al0 Sr7 3.305300 1_455
Al0 Sr2 3.429525 1_454
Al0 Sr1 3.429525 1_565
Al1 Sb5 2.690661 1_555
Al1 Sb6 2.690661 1_555
Al1 Sb0 2.722637 1_555
Al1 Sb3 2.722637 1_555
Al1 Sr5 3.305300 1_555
Al1 Sr6 3.305300 1_555
Al1 Sr3 3.429525 1_555
Al1 Sr0 3.429525 1_555
Al2 Sb11 2.690661 1_544
Al2 Sb8 2.690661 1_655
Al2 Sb1 2.722637 1_545
Al2 Sb2 2.722637 1_654
Al2 Sr11 3.305300 1_654
Al2 Sr8 3.305300 1_545
Al2 Sr2 3.429525 1_544
Al2 Sr1 3.429525 1_655
Al3 Sb10 2.690661 1_555
Al3 Sb9 2.690661 1_555
Al3 Sb0 2.722637 1_555
Al3 Sb3 2.722637 1_555
Al3 Sr9 3.305300 1_555
Al3 Sr10 3.305300 1_555
Al3 Sr0 3.429525 1_555
Al3 Sr3 3.429525 1_555
Sb0 Sr1 3.361189 1_555
Sb0 Sr0 3.364805 1_445
Sb0 Sr3 3.512618 1_555
Sb0 Sr0 3.663860 1_555
Sb0 Sr6 3.687041 1_555
Sb0 Sr9 3.687041 1_555
Sb1 Sr0 3.361189 1_555
Sb1 Sr1 3.364805 1_555
Sb1 Sr2 3.512618 1_554
Sb1 Sr1 3.663860 1_665
Sb1 Sr8 3.687041 1_555
Sb1 Sr7 3.687041 1_555
Sb2 Sr3 3.361189 1_555
Sb2 Sr2 3.364805 1_555
Sb2 Sr1 3.512618 1_556
Sb2 Sr2 3.663860 1_445
Sb2 Sr4 3.687041 1_555
Sb2 Sr11 3.687041 1_555
Sb3 Sr2 3.361189 1_555
Sb3 Sr3 3.364805 1_665
Sb3 Sr0 3.512618 1_555
Sb3 Sr3 3.663860 1_555
Sb3 Sr5 3.687041 1_555
Sb3 Sr10 3.687041 1_555
Sb4 Sr11 3.374060 1_655
Sb4 Sr2 3.382895 1_555
Sb4 Sr4 3.391809 1_555
Sb4 Sr10 3.394947 1_555
Sb4 Sr7 3.496680 1_556
Sb4 Sr4 3.587813 1_665
Sb5 Sr10 3.374060 1_455
Sb5 Sr3 3.382895 1_555
Sb5 Sr5 3.391809 1_445
Sb5 Sr11 3.394947 1_555
Sb5 Sr6 3.496680 1_555
Sb5 Sr5 3.587813 1_555
Sb6 Sr9 3.374060 1_565
Sb6 Sr0 3.382895 1_555
Sb6 Sr6 3.391809 1_665
Sb6 Sr8 3.394947 1_555
Sb6 Sr5 3.496680 1_555
Sb6 Sr6 3.587813 1_555
Sb7 Sr8 3.374060 1_545
Sb7 Sr1 3.382895 1_555
Sb7 Sr7 3.391809 1_555
Sb7 Sr9 3.394947 1_555
Sb7 Sr4 3.496680 1_554
Sb7 Sr7 3.587813 1_445
Sb8 Sr7 3.374060 1_455
Sb8 Sr1 3.382895 1_555
Sb8 Sr8 3.391809 1_555
Sb8 Sr6 3.394947 1_555
Sb8 Sr11 3.496680 1_554
Sb8 Sr8 3.587813 1_445
Sb9 Sr6 3.374060 1_655
Sb9 Sr0 3.382895 1_555
Sb9 Sr9 3.391809 1_665
Sb9 Sr7 3.394947 1_555
Sb9 Sr10 3.496680 1_555
Sb9 Sr9 3.587813 1_555
Sb10 Sr5 3.374060 1_545
Sb10 Sr3 3.382895 1_555
Sb10 Sr10 3.391809 1_445
Sb10 Sr4 3.394947 1_555
Sb10 Sr9 3.496680 1_555
Sb10 Sr10 3.587813 1_555
Sb11 Sr4 3.374060 1_565
Sb11 Sr2 3.382895 1_555
Sb11 Sr11 3.391809 1_555
Sb11 Sr5 3.394947 1_555
Sb11 Sr8 3.496680 1_556
Sb11 Sr11 3.587813 1_665
