# generated using pymatgen
data_Cd2GaAgSe4
_symmetry_space_group_name_H-M   'P 1'
_cell_length_a   4.28445500
_cell_length_b   7.05435000
_cell_length_c   7.51958193
_cell_angle_alpha   89.65422303
_cell_angle_beta   90.00000000
_cell_angle_gamma   90.00000000
_symmetry_Int_Tables_number   1
_chemical_formula_structural   Cd2GaAgSe4
_chemical_formula_sum   'Cd2 Ga1 Ag1 Se4'
_cell_volume   227.26804503
_cell_formula_units_Z   1
loop_
 _symmetry_equiv_pos_site_id
 _symmetry_equiv_pos_as_xyz
  1  'x, y, z'
loop_
 _atom_site_type_symbol
 _atom_site_label
 _atom_site_symmetry_multiplicity
 _atom_site_fract_x
 _atom_site_fract_y
 _atom_site_fract_z
 _atom_site_occupancy
  Cd  Cd0  1  0.50000000  0.99757500  0.16817600  1
  Cd  Cd1  1  0.50000000  0.46662800  0.81826000  1
  Ga  Ga0  1  0.00000000  0.47456700  0.34122000  1
  Ag  Ag0  1  0.00000000  0.98989800  0.67232100  1
  Se  Se0  1  0.50000000  0.59994500  0.18064300  1
  Se  Se1  1  0.50000000  0.09785600  0.83691700  1
  Se  Se2  1  0.00000000  0.13030000  0.34314800  1
  Se  Se3  1  0.00000000  0.61203100  0.63931500  1
loop_
_geom_bond_atom_site_label_1
_geom_bond_atom_site_label_2
_geom_bond_distance
_geom_bond_site_symmetry_2
Cd0 Se1 2.585324 1_564
Cd0 Se2 2.685471 1_665
Cd0 Se2 2.685471 1_565
Cd0 Se0 2.806022 1_555
Cd1 Se1 2.604381 1_555
Cd1 Se3 2.726757 1_555
Cd1 Se3 2.726757 1_655
Cd1 Se0 2.888055 1_556
Ga0 Se2 2.428536 1_555
Ga0 Se3 2.447680 1_555
Ga0 Se0 2.610844 1_555
Ga0 Se0 2.610844 1_455
Ag0 Se1 2.590829 1_465
Ag0 Se1 2.590829 1_565
Ag0 Se2 2.660492 1_565
Ag0 Se3 2.678626 1_555
