# generated using pymatgen
data_InFeRh2
_symmetry_space_group_name_H-M   'P 1'
_cell_length_a   10.55519186
_cell_length_b   10.55519186
_cell_length_c   10.55519186
_cell_angle_alpha   125.92068759
_cell_angle_beta   118.09619141
_cell_angle_gamma   86.69690011
_symmetry_Int_Tables_number   1
_chemical_formula_structural   InFeRh2
_chemical_formula_sum   'In1 Fe1 Rh2'
_cell_volume   799.79013756
_cell_formula_units_Z   1
loop_
 _symmetry_equiv_pos_site_id
 _symmetry_equiv_pos_as_xyz
  1  'x, y, z'
loop_
 _atom_site_type_symbol
 _atom_site_label
 _atom_site_symmetry_multiplicity
 _atom_site_fract_x
 _atom_site_fract_y
 _atom_site_fract_z
 _atom_site_occupancy
  In  In0  1  0.00000000  0.50000000  0.50000000  1
  Fe  Fe0  1  0.00000000  0.00000000  0.00000000  1
  Rh  Rh0  1  0.00000000  0.23056800  0.23056800  1
  Rh  Rh1  1  0.00000000  0.76943200  0.76943200  1
loop_
_geom_bond_atom_site_label_1
_geom_bond_atom_site_label_2
_geom_bond_distance
_geom_bond_site_symmetry_2
In0 Rh0 2.585720 1_555
In0 Rh1 2.585720 1_555
Fe0 Rh1 2.212745 1_544
Fe0 Rh0 2.212745 1_555
