# generated using pymatgen
data_KDy(MoO4)2
_symmetry_space_group_name_H-M   'P 1'
_cell_length_a   5.31937600
_cell_length_b   6.98189753
_cell_length_c   10.77215841
_cell_angle_alpha   94.37054931
_cell_angle_beta   103.24555797
_cell_angle_gamma   112.04214633
_symmetry_Int_Tables_number   1
_chemical_formula_structural   KDy(MoO4)2
_chemical_formula_sum   'K2 Dy2 Mo4 O16'
_cell_volume   355.08335833
_cell_formula_units_Z   2
loop_
 _symmetry_equiv_pos_site_id
 _symmetry_equiv_pos_as_xyz
  1  'x, y, z'
loop_
 _atom_site_type_symbol
 _atom_site_label
 _atom_site_symmetry_multiplicity
 _atom_site_fract_x
 _atom_site_fract_y
 _atom_site_fract_z
 _atom_site_occupancy
  K  K0  1  0.18486900  0.30501000  0.05170200  1
  K  K1  1  0.81513100  0.69499000  0.94829800  1
  Dy  Dy0  1  0.69501200  0.81618900  0.56253500  1
  Dy  Dy1  1  0.30498800  0.18381100  0.43746500  1
  Mo  Mo0  1  0.57478500  0.94038400  0.21840400  1
  Mo  Mo1  1  0.42521500  0.05961600  0.78159600  1
  Mo  Mo2  1  0.96064800  0.57087300  0.33147200  1
  Mo  Mo3  1  0.03935200  0.42912700  0.66852800  1
  O  O0  1  0.82894600  0.94495000  0.37436100  1
  O  O1  1  0.17105400  0.05505000  0.62563900  1
  O  O2  1  0.28660000  0.48525200  0.56713500  1
  O  O3  1  0.71340000  0.51474800  0.43286500  1
  O  O4  1  0.74755100  0.00136500  0.09695800  1
  O  O5  1  0.25244900  0.99863500  0.90304200  1
  O  O6  1  0.58140000  0.87462600  0.74919900  1
  O  O7  1  0.41860000  0.12537400  0.25080100  1
  O  O8  1  0.06388800  0.35659400  0.30732700  1
  O  O9  1  0.93611200  0.64340600  0.69267300  1
  O  O10  1  0.29021200  0.69513900  0.15232600  1
  O  O11  1  0.70978800  0.30486100  0.84767400  1
  O  O12  1  0.27917500  0.81384000  0.41689100  1
  O  O13  1  0.72082500  0.18616000  0.58310900  1
  O  O14  1  0.76638300  0.58773500  0.18133300  1
  O  O15  1  0.23361700  0.41226500  0.81866700  1
loop_
_geom_bond_atom_site_label_1
_geom_bond_atom_site_label_2
_geom_bond_distance
_geom_bond_site_symmetry_2
K0 O10 2.652220 1_555
K0 O4 2.668182 1_455
K0 O15 2.714520 1_554
K0 O5 2.754671 1_544
K0 O7 2.842027 1_555
K0 O14 2.903850 1_555
K0 O11 2.944368 1_454
K0 O8 2.993530 1_555
K1 O11 2.652220 1_555
K1 O5 2.668182 1_655
K1 O14 2.714520 1_556
K1 O4 2.754671 1_566
K1 O6 2.842027 1_555
K1 O15 2.903850 1_555
K1 O10 2.944368 1_656
K1 O9 2.993530 1_555
Dy0 O6 2.278554 1_555
Dy0 O1 2.350381 1_665
Dy0 O9 2.379170 1_555
Dy0 O12 2.394404 1_555
Dy0 O0 2.425584 1_555
Dy0 O3 2.481777 1_555
Dy0 O2 2.521910 1_555
Dy0 O13 2.524472 1_565
Dy1 O7 2.278554 1_555
Dy1 O0 2.350381 1_445
Dy1 O8 2.379170 1_555
Dy1 O13 2.394404 1_555
Dy1 O1 2.425584 1_555
Dy1 O2 2.481777 1_555
Dy1 O3 2.521910 1_555
Dy1 O12 2.524472 1_545
Mo0 O4 1.754845 1_565
Mo0 O10 1.762103 1_555
Mo0 O7 1.830243 1_565
Mo0 O0 1.889417 1_555
Mo1 O5 1.754845 1_545
Mo1 O11 1.762103 1_555
Mo1 O6 1.830243 1_545
Mo1 O1 1.889417 1_555
Mo2 O14 1.746970 1_555
Mo2 O8 1.797304 1_655
Mo2 O3 1.847415 1_555
Mo2 O12 1.866952 1_655
Mo3 O15 1.746970 1_555
Mo3 O9 1.797304 1_455
Mo3 O2 1.847415 1_555
Mo3 O13 1.866952 1_455
