# generated using pymatgen
data_Ce(PIr)2
_symmetry_space_group_name_H-M   'P 1'
_cell_length_a   4.16598822
_cell_length_b   4.16598822
_cell_length_c   9.54999345
_cell_angle_alpha   90.00000000
_cell_angle_beta   90.00000000
_cell_angle_gamma   90.00000000
_symmetry_Int_Tables_number   1
_chemical_formula_structural   Ce(PIr)2
_chemical_formula_sum   'Ce2 P4 Ir4'
_cell_volume   165.74450878
_cell_formula_units_Z   2
loop_
 _symmetry_equiv_pos_site_id
 _symmetry_equiv_pos_as_xyz
  1  'x, y, z'
loop_
 _atom_site_type_symbol
 _atom_site_label
 _atom_site_symmetry_multiplicity
 _atom_site_fract_x
 _atom_site_fract_y
 _atom_site_fract_z
 _atom_site_occupancy
  Ce  Ce0  1  -0.00000000  0.50000000  0.24226383  1
  Ce  Ce1  1  0.50000000  -0.00000000  0.75773617  1
  P  P0  1  -0.00000000  -0.00000000  0.00000000  1
  P  P1  1  0.50000000  0.50000000  0.00000000  1
  P  P2  1  -0.00000000  0.50000000  0.63992313  1
  P  P3  1  0.50000000  0.00000000  0.36007687  1
  Ir  Ir0  1  -0.00000000  -0.00000000  0.50000000  1
  Ir  Ir1  1  0.50000000  0.50000000  0.50000000  1
  Ir  Ir2  1  0.00000000  0.50000000  0.88688433  1
  Ir  Ir3  1  0.50000000  0.00000000  0.11311567  1
loop_
_geom_bond_atom_site_label_1
_geom_bond_atom_site_label_2
_geom_bond_distance
_geom_bond_site_symmetry_2
Ce0 P1 3.113148 1_555
Ce0 P1 3.113148 1_455
Ce0 P0 3.113148 1_565
Ce0 P0 3.113148 1_555
Ce0 P3 3.153349 1_455
Ce0 P3 3.153349 1_565
Ce0 P3 3.153349 1_555
Ce0 P3 3.153349 1_465
Ce0 Ir3 3.193574 1_565
Ce0 Ir3 3.193574 1_555
Ce0 Ir3 3.193574 1_465
Ce0 Ir3 3.193574 1_455
Ce0 Ir0 3.224477 1_565
Ce0 Ir1 3.224477 1_455
Ce0 Ir0 3.224477 1_555
Ce0 Ir1 3.224477 1_555
Ce1 P0 3.113148 1_556
Ce1 P1 3.113148 1_546
Ce1 P0 3.113148 1_656
Ce1 P1 3.113148 1_556
Ce1 P2 3.153349 1_655
Ce1 P2 3.153349 1_645
Ce1 P2 3.153349 1_545
Ce1 P2 3.153349 1_555
Ce1 Ir2 3.193574 1_555
Ce1 Ir2 3.193574 1_655
Ce1 Ir2 3.193574 1_545
Ce1 Ir2 3.193574 1_645
Ce1 Ir0 3.224477 1_655
Ce1 Ir0 3.224477 1_555
Ce1 Ir1 3.224477 1_545
Ce1 Ir1 3.224477 1_555
Ir0 P3 2.474766 1_455
Ir0 P2 2.474766 1_545
Ir0 P2 2.474766 1_555
Ir0 P3 2.474766 1_555
Ir1 P2 2.474766 1_655
Ir1 P2 2.474766 1_555
Ir1 P3 2.474766 1_565
Ir1 P3 2.474766 1_555
Ir2 P1 2.346447 1_456
Ir2 P1 2.346447 1_556
Ir2 P0 2.346447 1_566
Ir2 P0 2.346447 1_556
Ir2 P2 2.358478 1_555
Ir3 P0 2.346447 1_555
Ir3 P1 2.346447 1_545
Ir3 P0 2.346447 1_655
Ir3 P1 2.346447 1_555
Ir3 P3 2.358478 1_555
