# generated using pymatgen
data_MgZn3Cu2H14(SO9)2
_symmetry_space_group_name_H-M   'P 1'
_cell_length_a   5.45471422
_cell_length_b   6.51454441
_cell_length_c   12.03118192
_cell_angle_alpha   99.86321662
_cell_angle_beta   97.86800949
_cell_angle_gamma   85.29817811
_symmetry_Int_Tables_number   1
_chemical_formula_structural   MgZn3Cu2H14(SO9)2
_chemical_formula_sum   'Mg1 Zn3 Cu2 H14 S2 O18'
_cell_volume   416.49267046
_cell_formula_units_Z   1
loop_
 _symmetry_equiv_pos_site_id
 _symmetry_equiv_pos_as_xyz
  1  'x, y, z'
loop_
 _atom_site_type_symbol
 _atom_site_label
 _atom_site_symmetry_multiplicity
 _atom_site_fract_x
 _atom_site_fract_y
 _atom_site_fract_z
 _atom_site_occupancy
  Mg  Mg0  1  0.48210760  0.74830825  0.68982088  1
  Zn  Zn0  1  0.00578235  0.00369074  0.01346846  1
  Zn  Zn1  1  0.65053787  0.83575962  0.44666132  1
  Zn  Zn2  1  0.56609980  0.34496071  0.46805755  1
  Cu  Cu0  1  0.10807744  0.01741339  0.50519980  1
  Cu  Cu1  1  0.06472133  0.52618348  0.50401160  1
  H  H0  1  0.76208984  0.34688770  0.05773408  1
  H  H1  1  0.16747412  0.61516255  0.95724868  1
  H  H2  1  0.59839149  0.23658655  0.94225387  1
  H  H3  1  0.35033862  0.71971768  0.06933832  1
  H  H4  1  0.72347039  0.61887019  0.86498100  1
  H  H5  1  0.19240490  0.33178611  0.13894479  1
  H  H6  1  0.48420408  0.74948798  0.91082971  1
  H  H7  1  0.42378813  0.19199763  0.09135213  1
  H  H8  1  0.94264333  0.23048103  0.35727204  1
  H  H9  1  0.99263503  0.82679019  0.63225342  1
  H  H10  1  0.37069855  0.06011494  0.32302111  1
  H  H11  1  0.72343415  0.05593189  0.64737772  1
  H  H12  1  0.41268625  0.57803147  0.31684945  1
  H  H13  1  0.74362406  0.39851304  0.66665385  1
  S  S0  1  0.12711807  0.25347139  0.81900767  1
  S  S1  1  0.79340525  0.71666156  0.19497678  1
  O  O0  1  0.01649391  0.24481012  0.69853825  1
  O  O1  1  0.88123997  0.78364581  0.31914773  1
  O  O2  1  0.39825511  0.27302283  0.83044335  1
  O  O3  1  0.52348028  0.67866155  0.18177495  1
  O  O4  1  0.00552149  0.43540256  0.89075728  1
  O  O5  1  0.93433243  0.52069539  0.15176866  1
  O  O6  1  0.07638380  0.05298116  0.85712715  1
  O  O7  1  0.83169604  0.88761789  0.13261392  1
  O  O8  1  0.42265562  0.07657944  0.40492597  1
  O  O9  1  0.67822800  0.91297187  0.61681894  1
  O  O10  1  0.44472008  0.59122030  0.39981118  1
  O  O11  1  0.59780245  0.46692236  0.62665344  1
  O  O12  1  0.93628565  0.26403135  0.43911624  1
  O  O13  1  0.14893326  0.78527516  0.59689499  1
  O  O14  1  0.25686664  0.74631547  0.99373659  1
  O  O15  1  0.69001237  0.21280376  0.01828792  1
  O  O16  1  0.61010888  0.74387840  0.85645792  1
  O  O17  1  0.26601337  0.18718949  0.12406028  1
loop_
_geom_bond_atom_site_label_1
_geom_bond_atom_site_label_2
_geom_bond_distance
_geom_bond_site_symmetry_2
Mg0 O11 1.949481 1_555
Mg0 O9 1.958238 1_555
Mg0 O13 2.018659 1_555
Mg0 O16 2.034943 1_555
Cu0 O13 2.000674 1_545
Cu0 O12 2.019463 1_455
Cu0 O8 2.320113 1_555
Cu1 O12 1.899098 1_455
Cu1 O13 1.910252 1_555
H0 O15 1.002994 1_555
H1 O14 1.020626 1_555
H1 O4 1.564257 1_555
H2 O15 1.010587 1_556
H2 O2 1.650020 1_555
H3 O14 1.014819 1_554
H3 O3 1.589396 1_555
H4 O16 0.992357 1_555
H5 O17 0.990202 1_555
H6 O16 1.005789 1_555
H7 O17 0.998930 1_555
H8 O12 0.976190 1_555
H9 O13 1.001526 1_655
H10 O8 0.977331 1_555
H11 O9 0.979211 1_545
H12 O10 0.979543 1_555
H13 O11 0.986640 1_555
O0 S0 1.485311 1_555
O1 S1 1.505573 1_555
O1 Zn1 2.081474 1_555
O2 S0 1.480435 1_555
O3 S1 1.495534 1_555
O4 S0 1.505714 1_555
O5 S1 1.487316 1_555
O6 S0 1.513950 1_555
O6 Zn0 2.053044 1_556
O7 S1 1.488026 1_555
O7 Zn0 2.095245 1_665
O8 Zn2 1.962799 1_555
O8 Zn1 2.009424 1_545
O9 Zn1 2.010437 1_555
O10 Zn2 1.953083 1_555
O10 Zn1 1.981991 1_555
O11 Zn2 1.927384 1_555
O12 Zn2 2.105156 1_555
O14 Zn0 2.078362 1_566
O15 Zn0 2.107498 1_655
O17 Zn0 2.104873 1_555
