# generated using pymatgen
data_PrFeSb3
_symmetry_space_group_name_H-M   'P 1'
_cell_length_a   6.18337700
_cell_length_b   12.18688500
_cell_length_c   12.88802400
_cell_angle_alpha   90.00000000
_cell_angle_beta   90.00000000
_cell_angle_gamma   90.00000000
_symmetry_Int_Tables_number   1
_chemical_formula_structural   PrFeSb3
_chemical_formula_sum   'Pr8 Fe8 Sb24'
_cell_volume   971.19128219
_cell_formula_units_Z   8
loop_
 _symmetry_equiv_pos_site_id
 _symmetry_equiv_pos_as_xyz
  1  'x, y, z'
loop_
 _atom_site_type_symbol
 _atom_site_label
 _atom_site_symmetry_multiplicity
 _atom_site_fract_x
 _atom_site_fract_y
 _atom_site_fract_z
 _atom_site_occupancy
  Pr  Pr0  1  0.25000000  0.50000000  0.70275800  1
  Pr  Pr1  1  0.75000000  0.00000000  0.29724200  1
  Pr  Pr2  1  0.75000000  0.50000000  0.29724200  1
  Pr  Pr3  1  0.25000000  0.00000000  0.70275800  1
  Pr  Pr4  1  0.22352900  0.25000000  0.30337600  1
  Pr  Pr5  1  0.77647100  0.75000000  0.69662400  1
  Pr  Pr6  1  0.27647100  0.75000000  0.30337600  1
  Pr  Pr7  1  0.72352900  0.25000000  0.69662400  1
  Fe  Fe0  1  0.46306800  0.36191800  0.09892500  1
  Fe  Fe1  1  0.53693200  0.86191800  0.90107500  1
  Fe  Fe2  1  0.03693200  0.63808200  0.09892500  1
  Fe  Fe3  1  0.96306800  0.13808200  0.90107500  1
  Fe  Fe4  1  0.53693200  0.63808200  0.90107500  1
  Fe  Fe5  1  0.46306800  0.13808200  0.09892500  1
  Fe  Fe6  1  0.96306800  0.36191800  0.90107500  1
  Fe  Fe7  1  0.03693200  0.86191800  0.09892500  1
  Sb  Sb0  1  0.25000000  0.50000000  0.97221100  1
  Sb  Sb1  1  0.75000000  0.00000000  0.02778900  1
  Sb  Sb2  1  0.75000000  0.50000000  0.02778900  1
  Sb  Sb3  1  0.25000000  0.00000000  0.97221100  1
  Sb  Sb4  1  0.23249600  0.25000000  0.78757000  1
  Sb  Sb5  1  0.76750400  0.75000000  0.21243000  1
  Sb  Sb6  1  0.26750400  0.75000000  0.78757000  1
  Sb  Sb7  1  0.73249600  0.25000000  0.21243000  1
  Sb  Sb8  1  0.98694600  0.37614400  0.50270500  1
  Sb  Sb9  1  0.01305400  0.87614400  0.49729500  1
  Sb  Sb10  1  0.51305400  0.62385600  0.50270500  1
  Sb  Sb11  1  0.48694600  0.12385600  0.49729500  1
  Sb  Sb12  1  0.01305400  0.62385600  0.49729500  1
  Sb  Sb13  1  0.98694600  0.12385600  0.50270500  1
  Sb  Sb14  1  0.48694600  0.37614400  0.49729500  1
  Sb  Sb15  1  0.51305400  0.87614400  0.50270500  1
  Sb  Sb16  1  0.25000000  0.50000000  0.21530200  1
  Sb  Sb17  1  0.75000000  0.00000000  0.78469800  1
  Sb  Sb18  1  0.75000000  0.50000000  0.78469800  1
  Sb  Sb19  1  0.25000000  0.00000000  0.21530200  1
  Sb  Sb20  1  0.61343500  0.25000000  0.94345200  1
  Sb  Sb21  1  0.38656500  0.75000000  0.05654800  1
  Sb  Sb22  1  0.88656500  0.75000000  0.94345200  1
  Sb  Sb23  1  0.11343500  0.25000000  0.05654800  1
loop_
_geom_bond_atom_site_label_1
_geom_bond_atom_site_label_2
_geom_bond_distance
_geom_bond_site_symmetry_2
Pr0 Sb4 3.238673 1_555
Pr0 Sb6 3.238673 1_555
Pr0 Sb18 3.267073 1_455
Pr0 Sb18 3.267073 1_555
Pr0 Sb12 3.381850 1_555
Pr0 Sb14 3.381850 1_555
Pr0 Sb8 3.401708 1_455
Pr0 Sb10 3.401708 1_555
Pr0 Sb0 3.472717 1_555
Pr1 Sb5 3.238673 1_545
Pr1 Sb7 3.238673 1_555
Pr1 Sb19 3.267073 1_655
Pr1 Sb19 3.267073 1_555
Pr1 Sb15 3.381850 1_545
Pr1 Sb13 3.381850 1_555
Pr1 Sb9 3.401708 1_645
Pr1 Sb11 3.401708 1_555
Pr1 Sb1 3.472717 1_555
Pr2 Sb7 3.238673 1_555
Pr2 Sb5 3.238673 1_555
Pr2 Sb16 3.267073 1_655
Pr2 Sb16 3.267073 1_555
Pr2 Sb10 3.381850 1_555
Pr2 Sb8 3.381850 1_555
Pr2 Sb12 3.401708 1_655
Pr2 Sb14 3.401708 1_555
Pr2 Sb2 3.472717 1_555
Pr3 Sb4 3.238673 1_555
Pr3 Sb6 3.238673 1_545
Pr3 Sb17 3.267073 1_555
Pr3 Sb17 3.267073 1_455
Pr3 Sb9 3.381850 1_545
Pr3 Sb11 3.381850 1_555
Pr3 Sb13 3.401708 1_455
Pr3 Sb15 3.401708 1_545
Pr3 Sb3 3.472717 1_555
Pr4 Sb23 3.253150 1_555
Pr4 Sb7 3.254630 1_455
Pr4 Sb19 3.255419 1_555
Pr4 Sb16 3.255419 1_555
Pr4 Sb13 3.332096 1_455
Pr4 Sb8 3.332096 1_455
Pr4 Sb14 3.355961 1_555
Pr4 Sb11 3.355961 1_555
Pr4 Sb7 3.358319 1_555
Pr5 Sb22 3.253150 1_555
Pr5 Sb6 3.254630 1_655
Pr5 Sb18 3.255419 1_555
Pr5 Sb17 3.255419 1_565
Pr5 Sb9 3.332096 1_655
Pr5 Sb12 3.332096 1_655
Pr5 Sb10 3.355961 1_555
Pr5 Sb15 3.355961 1_555
Pr5 Sb6 3.358319 1_555
Pr6 Sb21 3.253150 1_555
Pr6 Sb5 3.254630 1_555
Pr6 Sb19 3.255419 1_565
Pr6 Sb16 3.255419 1_555
Pr6 Sb15 3.332096 1_555
Pr6 Sb10 3.332096 1_555
Pr6 Sb12 3.355961 1_555
Pr6 Sb9 3.355961 1_555
Pr6 Sb5 3.358319 1_455
Pr7 Sb20 3.253150 1_555
Pr7 Sb4 3.254630 1_555
Pr7 Sb17 3.255419 1_555
Pr7 Sb18 3.255419 1_555
Pr7 Sb14 3.332096 1_555
Pr7 Sb11 3.332096 1_555
Pr7 Sb13 3.355961 1_555
Pr7 Sb8 3.355961 1_555
Pr7 Sb4 3.358319 1_655
Fe0 Sb20 2.596106 1_554
Fe0 Sb7 2.603023 1_555
Fe0 Sb16 2.610966 1_555
Fe0 Sb2 2.611537 1_555
Fe0 Sb23 2.613898 1_555
Fe0 Sb0 2.689707 1_554
Fe0 Pr4 3.316204 1_555
Fe0 Pr2 3.537272 1_555
Fe1 Sb21 2.596106 1_556
Fe1 Sb6 2.603023 1_555
Fe1 Sb17 2.610966 1_565
Fe1 Sb3 2.611537 1_565
Fe1 Sb22 2.613898 1_555
Fe1 Sb1 2.689707 1_566
Fe1 Pr5 3.316204 1_555
Fe1 Pr3 3.537272 1_565
Fe2 Sb22 2.596106 1_454
Fe2 Sb5 2.603023 1_455
Fe2 Sb16 2.610966 1_555
Fe2 Sb2 2.611537 1_455
Fe2 Sb21 2.613898 1_555
Fe2 Sb0 2.689707 1_554
Fe2 Pr6 3.316204 1_555
Fe2 Pr2 3.537272 1_455
Fe3 Sb23 2.596106 1_656
Fe3 Sb4 2.603023 1_655
Fe3 Sb17 2.610966 1_555
Fe3 Sb3 2.611537 1_655
Fe3 Sb20 2.613898 1_555
Fe3 Sb1 2.689707 1_556
Fe3 Pr7 3.316204 1_555
Fe3 Pr3 3.537272 1_655
Fe4 Sb21 2.596106 1_556
Fe4 Sb6 2.603023 1_555
Fe4 Sb18 2.610966 1_555
Fe4 Sb0 2.611537 1_555
Fe4 Sb22 2.613898 1_555
Fe4 Sb2 2.689707 1_556
Fe4 Pr5 3.316204 1_555
Fe4 Pr0 3.537272 1_555
Fe5 Sb20 2.596106 1_554
Fe5 Sb7 2.603023 1_555
Fe5 Sb19 2.610966 1_555
Fe5 Sb1 2.611537 1_555
Fe5 Sb23 2.613898 1_555
Fe5 Sb3 2.689707 1_554
Fe5 Pr4 3.316204 1_555
Fe5 Pr1 3.537272 1_555
Fe6 Sb23 2.596106 1_656
Fe6 Sb4 2.603023 1_655
Fe6 Sb18 2.610966 1_555
Fe6 Sb0 2.611537 1_655
Fe6 Sb20 2.613898 1_555
Fe6 Sb2 2.689707 1_556
Fe6 Pr7 3.316204 1_555
Fe6 Pr0 3.537272 1_655
Fe7 Sb22 2.596106 1_454
Fe7 Sb5 2.603023 1_455
Fe7 Sb19 2.610966 1_565
Fe7 Sb1 2.611537 1_465
Fe7 Sb21 2.613898 1_555
Fe7 Sb3 2.689707 1_564
Fe7 Pr6 3.316204 1_555
Fe7 Pr1 3.537272 1_465
Sb10 Sb14 3.023955 1_555
Sb10 Sb15 3.074605 1_555
Sb10 Sb12 3.092475 1_655
Sb10 Sb12 3.092475 1_555
Sb11 Sb15 3.023955 1_545
Sb11 Sb14 3.074605 1_555
Sb11 Sb13 3.092475 1_455
Sb11 Sb13 3.092475 1_555
Sb12 Sb8 3.023955 1_455
Sb12 Sb9 3.074605 1_555
Sb13 Sb9 3.023955 1_645
Sb13 Sb8 3.074605 1_555
Sb14 Sb8 3.092475 1_555
Sb14 Sb8 3.092475 1_455
Sb15 Sb9 3.092475 1_655
Sb15 Sb9 3.092475 1_555
Sb20 Sb4 3.095877 1_555
Sb21 Sb5 3.095877 1_555
Sb22 Sb6 3.095877 1_655
Sb23 Sb7 3.095877 1_455
