# generated using pymatgen
data_Ba2ErCoCu2O7
_symmetry_space_group_name_H-M   'P 1'
_cell_length_a   3.86457900
_cell_length_b   3.92210600
_cell_length_c   11.80339000
_cell_angle_alpha   90.00000000
_cell_angle_beta   90.00000000
_cell_angle_gamma   90.00000000
_symmetry_Int_Tables_number   1
_chemical_formula_structural   Ba2ErCoCu2O7
_chemical_formula_sum   'Ba2 Er1 Co1 Cu2 O7'
_cell_volume   178.90738731
_cell_formula_units_Z   1
loop_
 _symmetry_equiv_pos_site_id
 _symmetry_equiv_pos_as_xyz
  1  'x, y, z'
loop_
 _atom_site_type_symbol
 _atom_site_label
 _atom_site_symmetry_multiplicity
 _atom_site_fract_x
 _atom_site_fract_y
 _atom_site_fract_z
 _atom_site_occupancy
  Ba  Ba0  1  0.50000000  0.50000000  0.18464100  1
  Ba  Ba1  1  0.50000000  0.50000000  0.81535900  1
  Er  Er0  1  0.50000000  0.50000000  0.50000000  1
  Co  Co0  1  0.00000000  0.00000000  0.00000000  1
  Cu  Cu0  1  0.00000000  0.00000000  0.35985600  1
  Cu  Cu1  1  0.00000000  0.00000000  0.64014400  1
  O  O0  1  0.50000000  0.00000000  0.38013000  1
  O  O1  1  0.50000000  0.00000000  0.61987000  1
  O  O2  1  0.00000000  0.00000000  0.15333000  1
  O  O3  1  0.00000000  0.00000000  0.84667000  1
  O  O4  1  0.00000000  0.50000000  0.37999300  1
  O  O5  1  0.00000000  0.50000000  0.62000700  1
  O  O6  1  0.00000000  0.50000000  0.00000000  1
loop_
_geom_bond_atom_site_label_1
_geom_bond_atom_site_label_2
_geom_bond_distance
_geom_bond_site_symmetry_2
Ba0 O2 2.777779 1_555
Ba0 O2 2.777779 1_655
Ba0 O2 2.777779 1_565
Ba0 O2 2.777779 1_665
Ba0 O6 2.912642 1_655
Ba0 O6 2.912642 1_555
Ba0 O4 3.008410 1_555
Ba0 O4 3.008410 1_655
Ba0 O0 3.028197 1_565
Ba0 O0 3.028197 1_555
Ba1 O3 2.777779 1_555
Ba1 O3 2.777779 1_565
Ba1 O3 2.777779 1_655
Ba1 O3 2.777779 1_665
Ba1 O6 2.912642 1_556
Ba1 O6 2.912642 1_656
Ba1 O5 3.008410 1_555
Ba1 O5 3.008410 1_655
Ba1 O1 3.028197 1_565
Ba1 O1 3.028197 1_555
Er0 O5 2.395868 1_555
Er0 O5 2.395868 1_655
Er0 O4 2.395868 1_655
Er0 O4 2.395868 1_555
Er0 O0 2.418180 1_555
Er0 O0 2.418180 1_565
Er0 O1 2.418180 1_565
Er0 O1 2.418180 1_555
Co0 O3 1.809814 1_554
Co0 O2 1.809814 1_555
Co0 O6 1.961053 1_545
Co0 O6 1.961053 1_555
Cu0 O0 1.947051 1_455
Cu0 O0 1.947051 1_555
Cu0 O4 1.975405 1_545
Cu0 O4 1.975405 1_555
Cu0 O2 2.437707 1_555
Cu1 O1 1.947051 1_455
Cu1 O1 1.947051 1_555
Cu1 O5 1.975405 1_545
Cu1 O5 1.975405 1_555
Cu1 O3 2.437707 1_555
