# generated using pymatgen
data_Mg3MoN4
_symmetry_space_group_name_H-M   'P 1'
_cell_length_a   5.83590381
_cell_length_b   5.83590381
_cell_length_c   6.07059460
_cell_angle_alpha   90.50529587
_cell_angle_beta   90.50529587
_cell_angle_gamma   75.82642073
_symmetry_Int_Tables_number   1
_chemical_formula_structural   Mg3MoN4
_chemical_formula_sum   'Mg6 Mo2 N8'
_cell_volume   200.44457406
_cell_formula_units_Z   2
loop_
 _symmetry_equiv_pos_site_id
 _symmetry_equiv_pos_as_xyz
  1  'x, y, z'
loop_
 _atom_site_type_symbol
 _atom_site_label
 _atom_site_symmetry_multiplicity
 _atom_site_fract_x
 _atom_site_fract_y
 _atom_site_fract_z
 _atom_site_occupancy
  Mg  Mg0  1  0.15042800  0.61467400  0.16849800  1
  Mg  Mg1  1  0.84957200  0.38532600  0.83150200  1
  Mg  Mg2  1  0.38532600  0.84957200  0.83150200  1
  Mg  Mg3  1  0.61467400  0.15042800  0.16849800  1
  Mg  Mg4  1  0.11396500  0.11396500  0.32394400  1
  Mg  Mg5  1  0.88603500  0.88603500  0.67605600  1
  Mo  Mo0  1  0.66980800  0.66980800  0.32977200  1
  Mo  Mo1  1  0.33019200  0.33019200  0.67022800  1
  N  N0  1  0.12352800  0.12352800  0.68245500  1
  N  N1  1  0.87647200  0.87647200  0.31754500  1
  N  N2  1  0.60137600  0.15204500  0.81974500  1
  N  N3  1  0.39862400  0.84795500  0.18025500  1
  N  N4  1  0.84795500  0.39862400  0.18025500  1
  N  N5  1  0.15204500  0.60137600  0.81974500  1
  N  N6  1  0.35617600  0.35617600  0.36692600  1
  N  N7  1  0.64382400  0.64382400  0.63307400  1
loop_
_geom_bond_atom_site_label_1
_geom_bond_atom_site_label_2
_geom_bond_distance
_geom_bond_site_symmetry_2
Mg0 N6 2.070748 1_555
Mg0 N5 2.117895 1_554
Mg0 N1 2.124603 1_455
Mg0 N3 2.217809 1_555
Mg0 N4 2.409259 1_455
Mg1 N7 2.070748 1_555
Mg1 N4 2.117895 1_556
Mg1 N0 2.124603 1_655
Mg1 N2 2.217809 1_555
Mg1 N5 2.409259 1_655
Mg2 N7 2.070748 1_555
Mg2 N3 2.117895 1_556
Mg2 N0 2.124603 1_565
Mg2 N5 2.217809 1_555
Mg2 N2 2.409259 1_565
Mg3 N6 2.070748 1_555
Mg3 N2 2.117895 1_554
Mg3 N1 2.124603 1_545
Mg3 N4 2.217809 1_555
Mg3 N3 2.409259 1_545
Mg4 N4 2.160854 1_455
Mg4 N3 2.160854 1_545
Mg4 N0 2.177172 1_555
Mg4 N1 2.186838 1_445
Mg4 N6 2.242684 1_555
Mg5 N2 2.160854 1_565
Mg5 N5 2.160854 1_655
Mg5 N1 2.177172 1_555
Mg5 N0 2.186838 1_665
Mg5 N7 2.242684 1_555
Mo0 N7 1.859356 1_555
Mo0 N3 1.896020 1_555
Mo0 N4 1.896020 1_555
Mo0 N1 1.905317 1_555
Mo1 N6 1.859356 1_555
Mo1 N2 1.896020 1_555
Mo1 N5 1.896020 1_555
Mo1 N0 1.905317 1_555
