# generated using pymatgen
data_Si3NCl9
_symmetry_space_group_name_H-M   'P 1'
_cell_length_a   6.83892400
_cell_length_b   8.87859784
_cell_length_c   14.61837297
_cell_angle_alpha   93.07850741
_cell_angle_beta   99.77036538
_cell_angle_gamma   112.17815522
_symmetry_Int_Tables_number   1
_chemical_formula_structural   Si3NCl9
_chemical_formula_sum   'Si6 N2 Cl18'
_cell_volume   803.26217450
_cell_formula_units_Z   2
loop_
 _symmetry_equiv_pos_site_id
 _symmetry_equiv_pos_as_xyz
  1  'x, y, z'
loop_
 _atom_site_type_symbol
 _atom_site_label
 _atom_site_symmetry_multiplicity
 _atom_site_fract_x
 _atom_site_fract_y
 _atom_site_fract_z
 _atom_site_occupancy
  Si  Si0  1  0.95447200  0.11576300  0.82892200  1
  Si  Si1  1  0.17092300  0.93742500  0.24874600  1
  Si  Si2  1  0.79527800  0.62798300  0.14686100  1
  Si  Si3  1  0.22244000  0.45957800  0.79009300  1
  Si  Si4  1  0.86076300  0.22072500  0.63660600  1
  Si  Si5  1  0.99622200  0.63939700  0.35132600  1
  N  N0  1  0.00985500  0.26627900  0.75257400  1
  N  N1  1  0.98999200  0.73423900  0.24860200  1
  Cl  Cl0  1  0.51268900  0.44211300  0.82852600  1
  Cl  Cl1  1  0.48848700  0.56398300  0.16745300  1
  Cl  Cl2  1  0.16025100  0.20239300  0.95631100  1
  Cl  Cl3  1  0.82177100  0.77466800  0.04271800  1
  Cl  Cl4  1  0.70848700  0.37564500  0.60673700  1
  Cl  Cl5  1  0.27940000  0.61192100  0.39316900  1
  Cl  Cl6  1  0.62145100  0.99096200  0.61636300  1
  Cl  Cl7  1  0.38107900  0.02160000  0.37512000  1
  Cl  Cl8  1  0.65267600  0.04892300  0.85671700  1
  Cl  Cl9  1  0.35861600  0.95644200  0.15166800  1
  Cl  Cl10  1  0.25384200  0.60139900  0.68341100  1
  Cl  Cl11  1  0.76171800  0.40770700  0.32946800  1
  Cl  Cl12  1  0.99921200  0.91441000  0.77893000  1
  Cl  Cl13  1  0.01464400  0.09254000  0.23133400  1
  Cl  Cl14  1  0.16330800  0.58465000  0.89603800  1
  Cl  Cl15  1  0.83936200  0.42602300  0.09753700  1
  Cl  Cl16  1  0.04982900  0.21963300  0.54278700  1
  Cl  Cl17  1  0.93563300  0.76409800  0.45718100  1
loop_
_geom_bond_atom_site_label_1
_geom_bond_atom_site_label_2
_geom_bond_distance
_geom_bond_site_symmetry_2
N0 Si0 1.759694 1_455
N0 Si3 1.761938 1_555
N0 Si4 1.762239 1_455
N1 Si1 1.760388 1_655
N1 Si2 1.761800 1_555
N1 Si5 1.762683 1_555
Cl0 Si3 2.035465 1_555
Cl1 Si2 2.036724 1_555
Cl2 Si0 2.044369 1_455
Cl3 Si2 2.043305 1_555
Cl4 Si4 2.039294 1_555
Cl5 Si5 2.038348 1_455
Cl6 Si4 2.043965 1_565
Cl7 Si1 2.043682 1_545
Cl8 Si0 2.040343 1_555
Cl9 Si1 2.042169 1_555
Cl10 Si3 2.045522 1_555
Cl11 Si5 2.042177 1_555
Cl12 Si0 2.042600 1_565
Cl13 Si1 2.039696 1_545
Cl14 Si3 2.040137 1_555
Cl15 Si2 2.041844 1_555
Cl16 Si4 2.040301 1_455
Cl17 Si5 2.042552 1_555
