# generated using pymatgen
data_CrO2
_symmetry_space_group_name_H-M   'P 1'
_cell_length_a   2.99871500
_cell_length_b   8.68041509
_cell_length_c   10.40384906
_cell_angle_alpha   90.01462576
_cell_angle_beta   90.00002461
_cell_angle_gamma   90.00003231
_symmetry_Int_Tables_number   1
_chemical_formula_structural   CrO2
_chemical_formula_sum   'Cr8 O16'
_cell_volume   270.81312842
_cell_formula_units_Z   8
loop_
 _symmetry_equiv_pos_site_id
 _symmetry_equiv_pos_as_xyz
  1  'x, y, z'
loop_
 _atom_site_type_symbol
 _atom_site_label
 _atom_site_symmetry_multiplicity
 _atom_site_fract_x
 _atom_site_fract_y
 _atom_site_fract_z
 _atom_site_occupancy
  Cr  Cr0  1  0.24999900  0.41578600  0.10517500  1
  Cr  Cr1  1  0.75000000  0.08418700  0.60509900  1
  Cr  Cr2  1  0.25000000  0.91588100  0.39492400  1
  Cr  Cr3  1  0.75000000  0.58415300  0.89484900  1
  Cr  Cr4  1  0.74999900  0.55728900  0.38502500  1
  Cr  Cr5  1  0.25000000  0.44275200  0.61493900  1
  Cr  Cr6  1  0.75000000  0.05708500  0.11507900  1
  Cr  Cr7  1  0.25000000  0.94286500  0.88491400  1
  O  O0  1  0.24999900  0.92153000  0.06845000  1
  O  O1  1  0.75000000  0.07842800  0.93159100  1
  O  O2  1  0.24999900  0.42164900  0.43147800  1
  O  O3  1  0.75000000  0.57840100  0.56845800  1
  O  O4  1  0.25000000  0.02840500  0.71775700  1
  O  O5  1  0.74999900  0.97163900  0.28225800  1
  O  O6  1  0.24999900  0.52826100  0.78220800  1
  O  O7  1  0.74999900  0.47173500  0.21778900  1
  O  O8  1  0.25000000  0.61077100  0.01592900  1
  O  O9  1  0.74999900  0.38916600  0.98402800  1
  O  O10  1  0.25000000  0.11081600  0.48405400  1
  O  O11  1  0.74999900  0.88925000  0.51599900  1
  O  O12  1  0.74999900  0.79866500  0.85872600  1
  O  O13  1  0.25000000  0.20125100  0.14129800  1
  O  O14  1  0.25000000  0.70138200  0.35873500  1
  O  O15  1  0.74999900  0.29865300  0.64124100  1
loop_
_geom_bond_atom_site_label_1
_geom_bond_atom_site_label_2
_geom_bond_distance
_geom_bond_site_symmetry_2
Cr0 O13 1.899890 1_555
Cr0 O8 1.930711 1_555
Cr0 O7 1.963756 1_555
Cr0 O7 1.963757 1_455
Cr0 O9 1.972286 1_454
Cr0 O9 1.972287 1_554
Cr1 O15 1.899154 1_555
Cr1 O11 1.929200 1_545
Cr1 O4 1.963819 1_655
Cr1 O4 1.963820 1_555
Cr1 O10 1.971693 1_555
Cr1 O10 1.971694 1_655
Cr2 O14 1.899532 1_555
Cr2 O10 1.929335 1_565
Cr2 O5 1.963816 1_555
Cr2 O5 1.963820 1_455
Cr2 O11 1.971892 1_555
Cr2 O11 1.971897 1_455
Cr3 O12 1.899694 1_555
Cr3 O9 1.930391 1_555
Cr3 O6 1.963800 1_655
Cr3 O6 1.963804 1_555
Cr3 O8 1.971839 1_656
Cr3 O8 1.971840 1_556
Cr4 O7 1.891588 1_555
Cr4 O3 1.917142 1_555
Cr4 O2 1.966781 1_555
Cr4 O2 1.966782 1_655
Cr4 O14 1.971680 1_555
Cr4 O14 1.971683 1_655
Cr5 O6 1.891751 1_555
Cr5 O2 1.917424 1_555
Cr5 O3 1.966900 1_555
Cr5 O3 1.966901 1_455
Cr5 O15 1.971730 1_555
Cr5 O15 1.971734 1_455
Cr6 O5 1.891023 1_545
Cr6 O1 1.917997 1_554
Cr6 O0 1.966641 1_645
Cr6 O0 1.966645 1_545
Cr6 O13 1.971892 1_655
Cr6 O13 1.971893 1_555
Cr7 O4 1.891133 1_565
Cr7 O0 1.918488 1_556
Cr7 O1 1.966807 1_565
Cr7 O1 1.966808 1_465
Cr7 O12 1.972034 1_555
Cr7 O12 1.972037 1_455
