# generated using pymatgen
data_KB2SbO6
_symmetry_space_group_name_H-M   'P 1'
_cell_length_a   6.89307131
_cell_length_b   6.89307131
_cell_length_c   7.26887321
_cell_angle_alpha   94.11116602
_cell_angle_beta   116.00026864
_cell_angle_gamma   117.52428708
_symmetry_Int_Tables_number   1
_chemical_formula_structural   KB2SbO6
_chemical_formula_sum   'K2 B4 Sb2 O12'
_cell_volume   258.47470344
_cell_formula_units_Z   2
loop_
 _symmetry_equiv_pos_site_id
 _symmetry_equiv_pos_as_xyz
  1  'x, y, z'
loop_
 _atom_site_type_symbol
 _atom_site_label
 _atom_site_symmetry_multiplicity
 _atom_site_fract_x
 _atom_site_fract_y
 _atom_site_fract_z
 _atom_site_occupancy
  K  K0  1  0.75172500  0.15480800  0.94183400  1
  K  K1  1  0.28702600  0.19010800  0.44183400  1
  B  B0  1  0.10656000  0.59124600  0.43721600  1
  B  B1  1  0.34597000  0.33065600  0.93721600  1
  B  B2  1  0.82073300  0.28479900  0.52983900  1
  B  B3  1  0.74504000  0.70910700  0.02983900  1
  Sb  Sb0  1  0.02185800  0.77684900  0.76826900  1
  Sb  Sb1  1  0.49142000  0.74641100  0.26826900  1
  O  O0  1  0.34883600  0.84950200  0.02253200  1
  O  O1  1  0.67302900  0.67369500  0.52253200  1
  O  O2  1  0.64008500  0.05579600  0.47462200  1
  O  O3  1  0.91882600  0.83453700  0.97462200  1
  O  O4  1  0.86894700  0.43223500  0.70552500  1
  O  O5  1  0.77328900  0.83657800  0.20552500  1
  O  O6  1  0.17934000  0.78050600  0.58770100  1
  O  O7  1  0.30719500  0.40836200  0.08770100  1
  O  O8  1  0.93934300  0.35962700  0.41257600  1
  O  O9  1  0.55294900  0.47323300  0.91257600  1
  O  O10  1  0.17876500  0.60973400  0.28853700  1
  O  O11  1  0.17880300  0.10977200  0.78853700  1
loop_
_geom_bond_atom_site_label_1
_geom_bond_atom_site_label_2
_geom_bond_distance
_geom_bond_site_symmetry_2
K0 O4 2.742278 1_555
K0 O3 2.905555 1_545
K0 O10 2.946327 1_656
K0 O0 2.947710 1_546
K0 O7 2.971390 1_656
K0 O8 3.018972 1_556
K0 O5 3.026913 1_546
K0 O9 3.054732 1_555
K0 O2 3.079354 1_555
K0 O6 3.095899 1_545
K1 O5 2.742280 1_445
K1 O2 2.905550 1_555
K1 O11 2.946326 1_555
K1 O1 2.947708 1_555
K1 O6 2.971385 1_545
K1 O9 3.018974 1_555
K1 O4 3.026913 1_555
K1 O8 3.054737 1_455
K1 O3 3.079351 1_444
K1 O7 3.095906 1_555
B0 O6 1.363633 1_555
B0 O10 1.365525 1_555
B0 O8 1.409544 1_455
B1 O7 1.363636 1_556
B1 O11 1.365525 1_555
B1 O9 1.409544 1_555
B2 O2 1.362967 1_555
B2 O4 1.379766 1_555
B2 O8 1.394740 1_555
B3 O3 1.362965 1_554
B3 O5 1.379767 1_555
B3 O9 1.394745 1_554
O0 Sb0 1.979512 1_554
O0 Sb1 1.987430 1_555
O1 Sb1 1.979514 1_555
O1 Sb0 1.987432 1_655
O2 Sb1 2.005457 1_545
O3 Sb0 2.005457 1_655
O4 Sb0 2.017623 1_655
O5 Sb1 2.017617 1_555
O6 Sb0 2.032335 1_555
O7 Sb1 2.032329 1_555
O10 Sb1 1.993903 1_555
O11 Sb0 1.993903 1_545
