# generated using pymatgen
data_ZnIn2Cu2S5
_symmetry_space_group_name_H-M   'P 1'
_cell_length_a   10.41496347
_cell_length_b   10.41496347
_cell_length_c   5.53716272
_cell_angle_alpha   74.63066768
_cell_angle_beta   74.63066768
_cell_angle_gamma   21.80948903
_symmetry_Int_Tables_number   1
_chemical_formula_structural   ZnIn2Cu2S5
_chemical_formula_sum   'Zn1 In2 Cu2 S5'
_cell_volume   214.86270599
_cell_formula_units_Z   1
loop_
 _symmetry_equiv_pos_site_id
 _symmetry_equiv_pos_as_xyz
  1  'x, y, z'
loop_
 _atom_site_type_symbol
 _atom_site_label
 _atom_site_symmetry_multiplicity
 _atom_site_fract_x
 _atom_site_fract_y
 _atom_site_fract_z
 _atom_site_occupancy
  Zn  Zn0  1  0.59545700  0.59545700  0.40518700  1
  In  In0  1  0.19897400  0.19897400  0.80938500  1
  In  In1  1  0.40359300  0.40359300  0.59826700  1
  Cu  Cu0  1  0.00051600  0.00051600  0.99227800  1
  Cu  Cu1  1  0.80096600  0.80096600  0.19694400  1
  S  S0  1  0.50466500  0.50466500  0.76618600  1
  S  S1  1  0.09354200  0.09354200  0.16366600  1
  S  S2  1  0.70103200  0.70103200  0.52322800  1
  S  S3  1  0.30068900  0.30068900  0.97485800  1
  S  S4  1  0.90056800  0.90056800  0.32000200  1
loop_
_geom_bond_atom_site_label_1
_geom_bond_atom_site_label_2
_geom_bond_distance
_geom_bond_site_symmetry_2
In0 S3 2.489348 1_555
In0 S1 2.493001 1_556
In0 S2 2.521579 1_545
In0 S2 2.521579 1_455
In1 S0 2.485139 1_555
In1 S4 2.512232 1_455
In1 S4 2.512232 1_545
In1 S3 2.531610 1_555
Cu0 S0 2.323593 1_455
Cu0 S0 2.323593 1_545
Cu0 S4 2.338718 1_446
Cu0 S1 2.344307 1_556
Cu1 S4 2.316033 1_555
Cu1 S3 2.323355 1_564
Cu1 S3 2.323355 1_654
Cu1 S2 2.334232 1_555
S0 Zn0 2.332461 1_555
S1 Zn0 2.387520 1_455
S1 Zn0 2.387520 1_545
S2 Zn0 2.419129 1_555
