# generated using pymatgen
data_Ti3(SeS2)2
_symmetry_space_group_name_H-M   'P 1'
_cell_length_a   3.46491711
_cell_length_b   3.46491711
_cell_length_c   18.28123351
_cell_angle_alpha   90.00000000
_cell_angle_beta   90.00000000
_cell_angle_gamma   120.00001127
_symmetry_Int_Tables_number   1
_chemical_formula_structural   Ti3(SeS2)2
_chemical_formula_sum   'Ti3 Se2 S4'
_cell_volume   190.07359008
_cell_formula_units_Z   1
loop_
 _symmetry_equiv_pos_site_id
 _symmetry_equiv_pos_as_xyz
  1  'x, y, z'
loop_
 _atom_site_type_symbol
 _atom_site_label
 _atom_site_symmetry_multiplicity
 _atom_site_fract_x
 _atom_site_fract_y
 _atom_site_fract_z
 _atom_site_occupancy
  Ti  Ti0  1  0.66666700  0.33333300  0.00676243  1
  Ti  Ti1  1  0.66666700  0.33333300  0.33189479  1
  Ti  Ti2  1  0.66666700  0.33333300  0.67083506  1
  Se  Se0  1  0.33333300  0.66666700  0.58336300  1
  Se  Se1  1  0.33333300  0.66666700  0.91910752  1
  S  S0  1  -0.00000000  0.00000000  0.08005264  1
  S  S1  1  -0.00000000  0.00000000  0.40780773  1
  S  S2  1  -0.00000000  0.00000000  0.74432980  1
  S  S3  1  0.33333300  0.66666700  0.25584603  1
loop_
_geom_bond_atom_site_label_1
_geom_bond_atom_site_label_2
_geom_bond_distance
_geom_bond_site_symmetry_2
Se0 Ti2 2.561052 1_455
Se0 Ti2 2.561052 1_565
Se0 Ti2 2.561057 1_555
Se1 Ti0 2.563140 1_456
Se1 Ti0 2.563140 1_566
Se1 Ti0 2.563145 1_556
S0 Ti0 2.407703 1_455
S0 Ti0 2.407705 1_445
S0 Ti0 2.407705 1_555
S1 Ti1 2.434711 1_455
S1 Ti1 2.434713 1_445
S1 Ti1 2.434713 1_555
S2 Ti2 2.409786 1_455
S2 Ti2 2.409788 1_555
S2 Ti2 2.409788 1_445
S3 Ti1 2.436126 1_455
S3 Ti1 2.436126 1_565
S3 Ti1 2.436132 1_555
