# generated using pymatgen
data_SnHBr3N
_symmetry_space_group_name_H-M   'P 1'
_cell_length_a   3.58380600
_cell_length_b   10.83040554
_cell_length_c   10.00396926
_cell_angle_alpha   96.74540856
_cell_angle_beta   90.00000000
_cell_angle_gamma   90.00000000
_symmetry_Int_Tables_number   1
_chemical_formula_structural   SnHBr3N
_chemical_formula_sum   'Sn2 H2 Br6 N2'
_cell_volume   385.60696100
_cell_formula_units_Z   2
loop_
 _symmetry_equiv_pos_site_id
 _symmetry_equiv_pos_as_xyz
  1  'x, y, z'
loop_
 _atom_site_type_symbol
 _atom_site_label
 _atom_site_symmetry_multiplicity
 _atom_site_fract_x
 _atom_site_fract_y
 _atom_site_fract_z
 _atom_site_occupancy
  Sn  Sn0  1  0.75000000  0.17672700  0.14817800  1
  Sn  Sn1  1  0.25000000  0.82327300  0.85182200  1
  H  H0  1  0.75000000  0.92181000  0.34286200  1
  H  H1  1  0.25000000  0.07819000  0.65713800  1
  Br  Br0  1  0.75000000  0.05736300  0.69039700  1
  Br  Br1  1  0.25000000  0.94263700  0.30960300  1
  Br  Br2  1  0.75000000  0.69722100  0.99639700  1
  Br  Br3  1  0.25000000  0.30277900  0.00360300  1
  Br  Br4  1  0.75000000  0.33306000  0.36026600  1
  Br  Br5  1  0.25000000  0.66694000  0.63973400  1
  N  N0  1  0.75000000  0.41267900  0.76259900  1
  N  N1  1  0.25000000  0.58732100  0.23740100  1
loop_
_geom_bond_atom_site_label_1
_geom_bond_atom_site_label_2
_geom_bond_distance
_geom_bond_site_symmetry_2
Br0 H1 1.841231 1_555
Br0 H1 1.841231 1_655
Br1 H0 1.841231 1_555
Br1 H0 1.841231 1_455
Br2 Sn1 2.762312 1_655
Br2 Sn1 2.762312 1_555
Br3 Sn0 2.762312 1_555
Br3 Sn0 2.762312 1_455
Br4 Sn0 2.554320 1_555
Br5 Sn1 2.554320 1_555
