# generated using pymatgen
data_Mg3Cu(SnS4)2
_symmetry_space_group_name_H-M   'P 1'
_cell_length_a   7.47381363
_cell_length_b   7.47381363
_cell_length_c   7.47381363
_cell_angle_alpha   120.40796427
_cell_angle_beta   118.85431618
_cell_angle_gamma   90.64528766
_symmetry_Int_Tables_number   1
_chemical_formula_structural   Mg3Cu(SnS4)2
_chemical_formula_sum   'Mg3 Cu1 Sn2 S8'
_cell_volume   296.75506291
_cell_formula_units_Z   1
loop_
 _symmetry_equiv_pos_site_id
 _symmetry_equiv_pos_as_xyz
  1  'x, y, z'
loop_
 _atom_site_type_symbol
 _atom_site_label
 _atom_site_symmetry_multiplicity
 _atom_site_fract_x
 _atom_site_fract_y
 _atom_site_fract_z
 _atom_site_occupancy
  Mg  Mg0  1  0.98488100  0.98488100  0.00000000  1
  Mg  Mg1  1  0.37551200  0.62579200  0.25028000  1
  Mg  Mg2  1  0.37551200  0.12523200  0.74972000  1
  Cu  Cu0  1  0.76353600  0.26353600  0.50000000  1
  Sn  Sn0  1  0.87363200  0.62454100  0.24909100  1
  Sn  Sn1  1  0.37545000  0.62454100  0.75090900  1
  S  S0  1  0.13181200  0.87110000  0.73928800  1
  S  S1  1  0.13181200  0.39252300  0.26071200  1
  S  S2  1  0.59500700  0.86439500  0.73061200  1
  S  S3  1  0.13378400  0.86439500  0.26938800  1
  S  S4  1  0.62293700  0.37440800  0.75147000  1
  S  S5  1  0.62293700  0.87146700  0.24853000  1
  S  S6  1  0.14026700  0.38159400  0.75867300  1
  S  S7  1  0.62292200  0.38159400  0.24132700  1
loop_
_geom_bond_atom_site_label_1
_geom_bond_atom_site_label_2
_geom_bond_distance
_geom_bond_site_symmetry_2
Mg0 S2 2.407965 1_554
Mg0 S3 2.407965 1_655
Mg0 S1 2.476809 1_665
Mg0 S0 2.476815 1_654
Mg1 S3 2.555026 1_555
Mg1 S2 2.555031 1_555
Mg1 S1 2.562435 1_555
Mg1 S5 2.600440 1_555
Mg1 S6 2.612732 1_554
Mg1 S7 2.612737 1_555
Mg2 S3 2.555031 1_545
Mg2 S2 2.555031 1_545
Mg2 S0 2.562430 1_545
Mg2 S4 2.600445 1_555
Mg2 S6 2.612732 1_555
Mg2 S7 2.612732 1_556
Cu0 S7 2.325350 1_555
Cu0 S6 2.325351 1_655
Cu0 S4 2.381671 1_555
Cu0 S5 2.381671 1_545
S0 Sn0 2.608423 1_455
S0 Sn1 2.608423 1_555
S1 Sn1 2.608422 1_555
S1 Sn0 2.608428 1_455
S2 Sn1 2.525556 1_555
S3 Sn0 2.525562 1_455
S4 Sn1 2.644706 1_555
S4 Sn0 2.644712 1_556
S5 Sn1 2.644712 1_554
S5 Sn0 2.644712 1_555
S6 Sn1 2.554027 1_555
S7 Sn0 2.554021 1_555
