# generated using pymatgen
data_ZnP2
_symmetry_space_group_name_H-M   'P 1'
_cell_length_a   7.25615365
_cell_length_b   7.52721806
_cell_length_c   8.80757936
_cell_angle_alpha   102.36090398
_cell_angle_beta   90.00000000
_cell_angle_gamma   90.00000000
_symmetry_Int_Tables_number   1
_chemical_formula_structural   ZnP2
_chemical_formula_sum   'Zn8 P16'
_cell_volume   469.90649005
_cell_formula_units_Z   8
loop_
 _symmetry_equiv_pos_site_id
 _symmetry_equiv_pos_as_xyz
  1  'x, y, z'
loop_
 _atom_site_type_symbol
 _atom_site_label
 _atom_site_symmetry_multiplicity
 _atom_site_fract_x
 _atom_site_fract_y
 _atom_site_fract_z
 _atom_site_occupancy
  Zn  Zn0  1  0.40519993  0.72463888  0.39212146  1
  Zn  Zn1  1  0.90519993  0.77536112  0.60787854  1
  Zn  Zn2  1  0.59480007  0.27536112  0.60787854  1
  Zn  Zn3  1  0.09480007  0.22463888  0.39212146  1
  Zn  Zn4  1  0.75316362  0.89445332  0.08189009  1
  Zn  Zn5  1  0.25316362  0.60554668  0.91810991  1
  Zn  Zn6  1  0.24683638  0.10554668  0.91810991  1
  Zn  Zn7  1  0.74683638  0.39445332  0.08189009  1
  P  P0  1  0.24382843  0.89500844  0.07706701  1
  P  P1  1  0.74382843  0.60499156  0.92293299  1
  P  P2  1  0.75617157  0.10499156  0.92293299  1
  P  P3  1  0.25617157  0.39500844  0.07706701  1
  P  P4  1  0.01591842  0.92782535  0.24199337  1
  P  P5  1  0.51591842  0.57217465  0.75800663  1
  P  P6  1  0.98408158  0.07217465  0.75800663  1
  P  P7  1  0.48408158  0.42782535  0.24199337  1
  P  P8  1  0.42647687  0.21671984  0.37517674  1
  P  P9  1  0.92647687  0.28328016  0.62482326  1
  P  P10  1  0.57352313  0.78328016  0.62482326  1
  P  P11  1  0.07352313  0.71671984  0.37517674  1
  P  P12  1  0.01940526  0.44101390  0.23494263  1
  P  P13  1  0.51940526  0.05898610  0.76505737  1
  P  P14  1  0.98059474  0.55898610  0.76505737  1
  P  P15  1  0.48059474  0.94101390  0.23494263  1
loop_
_geom_bond_atom_site_label_1
_geom_bond_atom_site_label_2
_geom_bond_distance
_geom_bond_site_symmetry_2
P0 P4 2.179985 1_555
P0 P15 2.190622 1_555
P0 Zn5 2.325083 1_554
P0 Zn6 2.328509 1_564
P1 P5 2.179985 1_555
P1 P14 2.190622 1_555
P1 Zn4 2.325083 1_556
P1 Zn7 2.328509 1_556
P2 P6 2.179985 1_555
P2 Zn7 2.325083 1_556
P2 Zn4 2.328509 1_546
P3 P7 2.179985 1_555
P3 Zn6 2.325083 1_554
P3 Zn5 2.328509 1_554
P4 Zn4 2.352652 1_455
P4 Zn3 2.408893 1_565
P5 Zn5 2.352652 1_555
P5 Zn2 2.408893 1_555
P6 P9 2.207663 1_555
P6 Zn6 2.352652 1_655
P6 Zn1 2.408893 1_545
P7 P8 2.207663 1_555
P7 Zn7 2.352652 1_555
P7 Zn0 2.408893 1_555
P8 Zn2 2.345185 1_555
P8 Zn3 2.411268 1_555
P9 Zn3 2.345185 1_655
P9 Zn2 2.411268 1_555
P10 P5 2.207663 1_555
P10 P13 2.211148 1_565
P10 Zn0 2.345185 1_555
P10 Zn1 2.411268 1_555
P11 P4 2.207663 1_555
P11 P12 2.211148 1_555
P11 Zn1 2.345185 1_455
P11 Zn0 2.411268 1_555
P12 P3 2.190622 1_555
P12 Zn7 2.376852 1_455
P12 Zn3 2.415318 1_555
P13 P2 2.190622 1_555
P13 Zn6 2.376852 1_555
P13 Zn2 2.415318 1_555
P14 P9 2.211148 1_555
P14 Zn5 2.376852 1_655
P14 Zn1 2.415318 1_555
P15 P8 2.211148 1_565
P15 Zn4 2.376852 1_555
P15 Zn0 2.415318 1_555
