# generated using pymatgen
data_KNb(CuS2)2
_symmetry_space_group_name_H-M   'P 1'
_cell_length_a   9.59673894
_cell_length_b   9.59673894
_cell_length_c   7.43031800
_cell_angle_alpha   90.00000000
_cell_angle_beta   90.00000000
_cell_angle_gamma   146.41197020
_symmetry_Int_Tables_number   1
_chemical_formula_structural   KNb(CuS2)2
_chemical_formula_sum   'K2 Nb2 Cu4 S8'
_cell_volume   378.57391939
_cell_formula_units_Z   2
loop_
 _symmetry_equiv_pos_site_id
 _symmetry_equiv_pos_as_xyz
  1  'x, y, z'
loop_
 _atom_site_type_symbol
 _atom_site_label
 _atom_site_symmetry_multiplicity
 _atom_site_fract_x
 _atom_site_fract_y
 _atom_site_fract_z
 _atom_site_occupancy
  K  K0  1  0.92818800  0.56346300  0.75000000  1
  K  K1  1  0.56346300  0.92818800  0.25000000  1
  Nb  Nb0  1  0.38705300  0.61297700  0.75000000  1
  Nb  Nb1  1  0.61297700  0.38705300  0.25000000  1
  Cu  Cu0  1  0.47886100  0.47886100  0.50000000  1
  Cu  Cu1  1  0.47886100  0.47886100  0.00000000  1
  Cu  Cu2  1  0.89123800  0.10864200  0.75000000  1
  Cu  Cu3  1  0.10864200  0.89123800  0.25000000  1
  S  S0  1  0.72897700  0.74520700  0.75000000  1
  S  S1  1  0.74520700  0.72897700  0.25000000  1
  S  S2  1  0.54098800  0.96495800  0.75000000  1
  S  S3  1  0.96495800  0.54098800  0.25000000  1
  S  S4  1  0.36153800  0.14675500  0.50240800  1
  S  S5  1  0.14675500  0.36153800  0.49759200  1
  S  S6  1  0.36153800  0.14675500  0.99759200  1
  S  S7  1  0.14675500  0.36153800  0.00240800  1
loop_
_geom_bond_atom_site_label_1
_geom_bond_atom_site_label_2
_geom_bond_distance
_geom_bond_site_symmetry_2
K0 S2 3.352468 1_545
K0 S2 3.417406 1_655
K0 S0 3.500334 1_555
K0 S6 3.566069 1_555
K0 S4 3.566069 1_555
K0 S6 3.637121 1_665
K0 S4 3.637121 1_665
K0 S3 3.755030 1_556
K0 S3 3.755030 1_555
K1 S3 3.352468 1_455
K1 S3 3.417406 1_565
K1 S1 3.500334 1_555
K1 S5 3.566069 1_555
K1 S7 3.566069 1_555
K1 S5 3.637121 1_665
K1 S7 3.637121 1_665
K1 S2 3.755030 1_555
K1 S2 3.755030 1_554
Nb0 S2 2.297514 1_555
Nb0 S7 2.320986 1_556
Nb0 S5 2.320986 1_555
Nb0 S0 2.332407 1_555
Nb1 S3 2.297514 1_555
Nb1 S4 2.320986 1_555
Nb1 S6 2.320986 1_554
Nb1 S1 2.332407 1_555
Cu0 S4 2.333926 1_555
Cu0 S5 2.333926 1_555
Cu0 S1 2.350233 1_555
Cu0 S0 2.350233 1_555
Cu1 S6 2.333926 1_554
Cu1 S7 2.333926 1_555
Cu1 S1 2.350233 1_555
Cu1 S0 2.350233 1_554
Cu2 S2 2.340394 1_545
Cu2 S7 2.346340 1_656
Cu2 S5 2.346340 1_655
Cu2 S0 2.353903 1_545
Cu3 S3 2.340394 1_455
Cu3 S4 2.346340 1_565
Cu3 S6 2.346340 1_564
Cu3 S1 2.353903 1_455
