# generated using pymatgen
data_Nb12Ga3Ge
_symmetry_space_group_name_H-M   'P 1'
_cell_length_a   5.18842800
_cell_length_b   5.19211100
_cell_length_c   10.36822500
_cell_angle_alpha   90.00000000
_cell_angle_beta   90.00000000
_cell_angle_gamma   90.00000000
_symmetry_Int_Tables_number   1
_chemical_formula_structural   Nb12Ga3Ge
_chemical_formula_sum   'Nb12 Ga3 Ge1'
_cell_volume   279.30851519
_cell_formula_units_Z   1
loop_
 _symmetry_equiv_pos_site_id
 _symmetry_equiv_pos_as_xyz
  1  'x, y, z'
loop_
 _atom_site_type_symbol
 _atom_site_label
 _atom_site_symmetry_multiplicity
 _atom_site_fract_x
 _atom_site_fract_y
 _atom_site_fract_z
 _atom_site_occupancy
  Nb  Nb0  1  0.50000000  0.00000000  0.37508000  1
  Nb  Nb1  1  0.50000000  0.00000000  0.87564800  1
  Nb  Nb2  1  0.75085300  0.50000000  0.00000000  1
  Nb  Nb3  1  0.75097800  0.50000000  0.50000000  1
  Nb  Nb4  1  0.00000000  0.75042300  0.25022100  1
  Nb  Nb5  1  0.00000000  0.75042300  0.74977900  1
  Nb  Nb6  1  0.50000000  0.00000000  0.12435200  1
  Nb  Nb7  1  0.50000000  0.00000000  0.62492000  1
  Nb  Nb8  1  0.24914700  0.50000000  0.00000000  1
  Nb  Nb9  1  0.24902200  0.50000000  0.50000000  1
  Nb  Nb10  1  0.00000000  0.24957700  0.25022100  1
  Nb  Nb11  1  0.00000000  0.24957700  0.74977900  1
  Ga  Ga0  1  0.50000000  0.50000000  0.25017400  1
  Ga  Ga1  1  0.50000000  0.50000000  0.74982600  1
  Ga  Ga2  1  0.00000000  0.00000000  0.00000000  1
  Ge  Ge0  1  0.00000000  0.00000000  0.50000000  1
loop_
_geom_bond_atom_site_label_1
_geom_bond_atom_site_label_2
_geom_bond_distance
_geom_bond_site_symmetry_2
Nb0 Nb7 2.590397 1_555
Nb0 Nb6 2.599604 1_555
Nb1 Nb6 2.578619 1_556
Nb1 Nb7 2.599604 1_555
Nb2 Nb8 2.585363 1_655
Nb2 Nb8 2.603065 1_555
Nb3 Nb9 2.584065 1_655
Nb3 Nb9 2.604363 1_555
Nb10 Nb4 2.591663 1_545
Nb10 Nb4 2.600448 1_555
Nb11 Nb5 2.591663 1_545
Nb11 Nb5 2.600448 1_555
Ga0 Nb3 2.899152 1_555
Ga0 Nb9 2.899152 1_555
Ga0 Nb0 2.901149 1_555
Ga0 Nb0 2.901149 1_565
Ga0 Nb4 2.901815 1_555
Ga0 Nb4 2.901815 1_655
Ga0 Nb10 2.901815 1_655
Ga0 Nb10 2.901815 1_555
Ga0 Nb2 2.902085 1_555
Ga0 Nb8 2.902085 1_555
Ga0 Nb6 2.905401 1_555
Ga0 Nb6 2.905401 1_565
Ga1 Nb3 2.899152 1_555
Ga1 Nb9 2.899152 1_555
Ga1 Nb7 2.901149 1_555
Ga1 Nb7 2.901149 1_565
Ga1 Nb5 2.901815 1_555
Ga1 Nb5 2.901815 1_655
Ga1 Nb11 2.901815 1_555
Ga1 Nb11 2.901815 1_655
Ga1 Nb2 2.902085 1_556
Ga1 Nb8 2.902085 1_556
Ga1 Nb1 2.905401 1_555
Ga1 Nb1 2.905401 1_565
Ga2 Nb6 2.896941 1_455
Ga2 Nb6 2.896941 1_555
Ga2 Nb1 2.896941 1_554
Ga2 Nb1 2.896941 1_454
Ga2 Nb10 2.899969 1_555
Ga2 Nb4 2.899969 1_545
Ga2 Nb11 2.899969 1_554
Ga2 Nb5 2.899969 1_544
Ga2 Nb8 2.900091 1_555
Ga2 Nb8 2.900091 1_545
Ga2 Nb2 2.900091 1_455
Ga2 Nb2 2.900091 1_445
Ge0 Nb11 2.895870 1_555
Ge0 Nb5 2.895870 1_545
Ge0 Nb10 2.895870 1_555
Ge0 Nb4 2.895870 1_545
Ge0 Nb0 2.899566 1_555
Ge0 Nb0 2.899566 1_455
Ge0 Nb7 2.899566 1_455
Ge0 Nb7 2.899566 1_555
Ge0 Nb9 2.899802 1_545
Ge0 Nb9 2.899802 1_555
Ge0 Nb3 2.899802 1_455
Ge0 Nb3 2.899802 1_445
