# generated using pymatgen
data_Tb3Fe2Si7
_symmetry_space_group_name_H-M   'P 1'
_cell_length_a   12.44952259
_cell_length_b   12.44952259
_cell_length_c   4.09523000
_cell_angle_alpha   90.00000000
_cell_angle_beta   90.00000000
_cell_angle_gamma   161.32209972
_symmetry_Int_Tables_number   1
_chemical_formula_structural   Tb3Fe2Si7
_chemical_formula_sum   'Tb3 Fe2 Si7'
_cell_volume   203.26827342
_cell_formula_units_Z   1
loop_
 _symmetry_equiv_pos_site_id
 _symmetry_equiv_pos_as_xyz
  1  'x, y, z'
loop_
 _atom_site_type_symbol
 _atom_site_label
 _atom_site_symmetry_multiplicity
 _atom_site_fract_x
 _atom_site_fract_y
 _atom_site_fract_z
 _atom_site_occupancy
  Tb  Tb0  1  0.09737800  0.90262200  0.50000000  1
  Tb  Tb1  1  0.46661500  0.53338500  0.50000000  1
  Tb  Tb2  1  0.78186200  0.21813800  0.00000000  1
  Fe  Fe0  1  0.65516000  0.34484000  0.00000000  1
  Fe  Fe1  1  0.90985700  0.09014300  0.00000000  1
  Si  Si0  1  0.37140800  0.62859200  0.00000000  1
  Si  Si1  1  0.56254300  0.43745700  0.00000000  1
  Si  Si2  1  0.87186100  0.12813900  0.50000000  1
  Si  Si3  1  0.00259400  0.99740600  0.00000000  1
  Si  Si4  1  0.19327200  0.80672800  0.00000000  1
  Si  Si5  1  0.29109800  0.70890200  0.50000000  1
  Si  Si6  1  0.69305100  0.30694900  0.50000000  1
loop_
_geom_bond_atom_site_label_1
_geom_bond_atom_site_label_2
_geom_bond_distance
_geom_bond_site_symmetry_2
Fe0 Si4 2.226696 1_655
Fe0 Si4 2.226696 1_545
Fe0 Si6 2.249308 1_555
Fe0 Si6 2.249308 1_554
Fe0 Si1 2.275509 1_555
Fe0 Tb2 3.112944 1_555
Fe0 Tb0 3.207726 1_545
Fe0 Tb0 3.207726 1_544
Fe0 Tb0 3.207726 1_655
Fe0 Tb0 3.207726 1_654
Fe1 Si0 2.230191 1_545
Fe1 Si0 2.230191 1_655
Fe1 Si2 2.250377 1_554
Fe1 Si2 2.250377 1_555
Fe1 Si3 2.278458 1_645
Fe1 Tb2 3.144712 1_555
Fe1 Tb1 3.196671 1_544
Fe1 Tb1 3.196671 1_545
Fe1 Tb1 3.196671 1_655
Fe1 Tb1 3.196671 1_654
Si0 Tb2 2.986910 1_565
Si0 Tb2 2.986910 1_455
Si0 Tb1 3.108749 1_554
Si0 Tb1 3.108749 1_555
Si1 Si3 2.500156 1_545
Si1 Si3 2.500156 1_655
Si1 Tb0 3.001101 1_545
Si1 Tb0 3.001101 1_544
Si1 Tb0 3.001101 1_655
Si1 Tb0 3.001101 1_654
Si1 Tb1 3.122099 1_554
Si1 Tb1 3.122099 1_555
Si2 Tb2 3.013649 1_555
Si2 Tb2 3.013649 1_556
Si2 Tb1 3.082373 1_655
Si2 Tb1 3.082373 1_545
Si3 Tb1 3.009237 1_455
Si3 Tb1 3.009237 1_454
Si3 Tb1 3.009237 1_565
Si3 Tb1 3.009237 1_564
Si3 Tb0 3.100936 1_555
Si3 Tb0 3.100936 1_554
Si4 Tb2 2.969652 1_455
Si4 Tb2 2.969652 1_565
Si4 Tb0 3.121469 1_555
Si4 Tb0 3.121469 1_554
Si5 Tb2 2.885411 1_565
Si5 Tb2 2.885411 1_566
Si5 Tb2 2.885411 1_456
Si5 Tb2 2.885411 1_455
Si6 Tb2 2.992298 1_555
Si6 Tb2 2.992298 1_556
Si6 Tb0 3.099461 1_545
Si6 Tb0 3.099461 1_655
