# generated using pymatgen
data_Mg(NiO2)2
_symmetry_space_group_name_H-M   'P 1'
_cell_length_a   2.93979515
_cell_length_b   7.31995403
_cell_length_c   7.29760047
_cell_angle_alpha   77.80577811
_cell_angle_beta   77.65232508
_cell_angle_gamma   76.84851200
_symmetry_Int_Tables_number   1
_chemical_formula_structural   Mg(NiO2)2
_chemical_formula_sum   'Mg2 Ni4 O8'
_cell_volume   147.18437941
_cell_formula_units_Z   2
loop_
 _symmetry_equiv_pos_site_id
 _symmetry_equiv_pos_as_xyz
  1  'x, y, z'
loop_
 _atom_site_type_symbol
 _atom_site_label
 _atom_site_symmetry_multiplicity
 _atom_site_fract_x
 _atom_site_fract_y
 _atom_site_fract_z
 _atom_site_occupancy
  Mg  Mg0  1  0.31704900  0.14812300  0.20497000  1
  Mg  Mg1  1  0.67003500  0.82830300  0.82428000  1
  Ni  Ni0  1  0.62213600  0.17377800  0.55916100  1
  Ni  Ni1  1  0.15269900  0.51294100  0.19693900  1
  Ni  Ni2  1  0.83198700  0.46304200  0.83352700  1
  Ni  Ni3  1  0.36380600  0.80286100  0.47053000  1
  O  O0  1  0.86296300  0.66327100  0.61146200  1
  O  O1  1  0.43640600  0.30930600  0.77338900  1
  O  O2  1  0.54684200  0.66532000  0.25917000  1
  O  O3  1  0.12312900  0.31285000  0.41820000  1
  O  O4  1  0.15371200  0.98872900  0.68102300  1
  O  O5  1  0.76758000  0.33607300  0.09483500  1
  O  O6  1  0.83430500  0.98644900  0.34626300  1
  O  O7  1  0.21866800  0.64190100  0.93614000  1
loop_
_geom_bond_atom_site_label_1
_geom_bond_atom_site_label_2
_geom_bond_distance
_geom_bond_site_symmetry_2
Mg0 O6 2.025014 1_445
Mg0 O6 2.027854 1_545
Mg0 O5 2.049332 1_555
Mg0 O5 2.055450 1_455
Mg0 O3 2.073819 1_555
Mg1 O4 2.024650 1_655
Mg1 O4 2.030968 1_555
Mg1 O7 2.044241 1_555
Mg1 O7 2.054403 1_655
Mg1 O0 2.072939 1_555
Ni0 O3 1.941640 1_555
Ni0 O1 1.941649 1_555
Ni0 O3 1.963570 1_655
Ni0 O4 2.046949 1_645
Ni0 O4 2.082824 1_545
Ni0 O6 2.186206 1_545
Ni1 O2 1.893858 1_455
Ni1 O7 1.928051 1_554
Ni1 O3 1.938757 1_555
Ni1 O2 1.954514 1_555
Ni1 O5 2.065284 1_555
Ni1 O5 2.224522 1_455
Ni2 O1 1.892475 1_655
Ni2 O5 1.926899 1_556
Ni2 O0 1.943412 1_555
Ni2 O1 1.958016 1_555
Ni2 O7 2.070822 1_555
Ni2 O7 2.241109 1_655
Ni3 O2 1.933074 1_555
Ni3 O0 1.942763 1_555
Ni3 O0 1.965379 1_455
Ni3 O6 2.046556 1_455
Ni3 O6 2.082316 1_555
Ni3 O4 2.164920 1_555
