# generated using pymatgen
data_Li3Yb(NO3)6
_symmetry_space_group_name_H-M   'P 1'
_cell_length_a   7.70786489
_cell_length_b   7.91083667
_cell_length_c   24.33059707
_cell_angle_alpha   91.43362520
_cell_angle_beta   90.00000000
_cell_angle_gamma   90.00000000
_symmetry_Int_Tables_number   1
_chemical_formula_structural   Li3Yb(NO3)6
_chemical_formula_sum   'Li12 Yb4 N24 O72'
_cell_volume   1483.10983065
_cell_formula_units_Z   4
loop_
 _symmetry_equiv_pos_site_id
 _symmetry_equiv_pos_as_xyz
  1  'x, y, z'
loop_
 _atom_site_type_symbol
 _atom_site_label
 _atom_site_symmetry_multiplicity
 _atom_site_fract_x
 _atom_site_fract_y
 _atom_site_fract_z
 _atom_site_occupancy
  Li  Li0  1  0.81536184  0.70658011  0.63222406  1
  Li  Li1  1  0.18463816  0.29341989  0.36777594  1
  Li  Li2  1  0.31536184  0.79341989  0.86777594  1
  Li  Li3  1  0.68463816  0.20658011  0.13222406  1
  Li  Li4  1  0.55771130  0.00453717  0.74526922  1
  Li  Li5  1  0.44228870  0.99546283  0.25473078  1
  Li  Li6  1  0.05771130  0.49546283  0.75473078  1
  Li  Li7  1  0.94228870  0.50453717  0.24526922  1
  Li  Li8  1  0.29166939  0.73966748  0.52810517  1
  Li  Li9  1  0.70833061  0.26033252  0.47189483  1
  Li  Li10  1  0.79166939  0.76033252  0.97189483  1
  Li  Li11  1  0.20833061  0.23966748  0.02810517  1
  Yb  Yb0  1  0.30638765  0.24469974  0.61084710  1
  Yb  Yb1  1  0.69361235  0.75530026  0.38915290  1
  Yb  Yb2  1  0.80638765  0.25530026  0.88915290  1
  Yb  Yb3  1  0.19361235  0.74469974  0.11084710  1
  N  N0  1  0.79823718  0.73555989  0.73496350  1
  N  N1  1  0.20176282  0.26444011  0.26503650  1
  N  N2  1  0.29823718  0.76444011  0.76503650  1
  N  N3  1  0.70176282  0.23555989  0.23496350  1
  N  N4  1  0.30204994  0.26113048  0.72981832  1
  N  N5  1  0.69795006  0.73886952  0.27018168  1
  N  N6  1  0.80204994  0.23886952  0.77018168  1
  N  N7  1  0.19795006  0.76113048  0.22981832  1
  N  N8  1  0.49065131  0.14506357  0.94646010  1
  N  N9  1  0.50934869  0.85493643  0.05353990  1
  N  N10  1  0.99065131  0.35493643  0.55353990  1
  N  N11  1  0.00934869  0.64506357  0.44646010  1
  N  N12  1  0.12955296  0.40177366  0.93637796  1
  N  N13  1  0.87044704  0.59822634  0.06362204  1
  N  N14  1  0.62955296  0.09822634  0.56362204  1
  N  N15  1  0.37044704  0.90177366  0.43637796  1
  N  N16  1  0.11454324  0.92466395  0.60644973  1
  N  N17  1  0.88545676  0.07533605  0.39355027  1
  N  N18  1  0.61454324  0.57533605  0.89355027  1
  N  N19  1  0.38545676  0.42466395  0.10644973  1
  N  N20  1  0.00735650  0.94543270  0.90257572  1
  N  N21  1  0.99264350  0.05456730  0.09742428  1
  N  N22  1  0.50735650  0.55456730  0.59742428  1
  N  N23  1  0.49264350  0.44543270  0.40257572  1
  O  O0  1  0.39657236  0.15494831  0.70276333  1
  O  O1  1  0.60342764  0.84505169  0.29723667  1
  O  O2  1  0.89657236  0.34505169  0.79723667  1
  O  O3  1  0.10342764  0.65494831  0.20276333  1
  O  O4  1  0.51872510  0.09089496  0.89787796  1
  O  O5  1  0.48127490  0.90910504  0.10212204  1
  O  O6  1  0.01872510  0.40910504  0.60212204  1
  O  O7  1  0.98127490  0.59089496  0.39787796  1
  O  O8  1  0.60077745  0.24323881  0.96872102  1
  O  O9  1  0.39922255  0.75676119  0.03127898  1
  O  O10  1  0.10077745  0.25676119  0.53127898  1
  O  O11  1  0.89922255  0.74323881  0.46872102  1
  O  O12  1  0.30017997  0.26885518  0.78058804  1
  O  O13  1  0.69982003  0.73114482  0.21941196  1
  O  O14  1  0.80017997  0.23114482  0.71941196  1
  O  O15  1  0.19982003  0.76885518  0.28058804  1
  O  O16  1  0.26542773  0.45911424  0.95750333  1
  O  O17  1  0.73457227  0.54088576  0.04249667  1
  O  O18  1  0.76542773  0.04088576  0.54249667  1
  O  O19  1  0.23457227  0.95911424  0.45750333  1
  O  O20  1  0.05083966  0.05270292  0.86755683  1
  O  O21  1  0.94916034  0.94729708  0.13244317  1
  O  O22  1  0.55083966  0.44729708  0.63244317  1
  O  O23  1  0.44916034  0.55270292  0.36755683  1
  O  O24  1  0.35611240  0.10094514  0.97152885  1
  O  O25  1  0.64388760  0.89905486  0.02847115  1
  O  O26  1  0.85611240  0.39905486  0.52847115  1
  O  O27  1  0.14388760  0.60094514  0.47152885  1
  O  O28  1  0.29646005  0.75445515  0.71409691  1
  O  O29  1  0.70353995  0.24554485  0.28590309  1
  O  O30  1  0.79646005  0.74554485  0.78590309  1
  O  O31  1  0.20353995  0.25445515  0.21409691  1
  O  O32  1  0.63518293  0.46958917  0.42896014  1
  O  O33  1  0.36481707  0.53041083  0.57103986  1
  O  O34  1  0.13518293  0.03041083  0.07103986  1
  O  O35  1  0.86481707  0.96958917  0.92896014  1
  O  O36  1  0.03238347  0.78937572  0.59870373  1
  O  O37  1  0.96761653  0.21062428  0.40129627  1
  O  O38  1  0.53238347  0.71062428  0.90129627  1
  O  O39  1  0.46761653  0.28937572  0.09870373  1
  O  O40  1  0.02857350  0.30824042  0.96486786  1
  O  O41  1  0.97142650  0.69175958  0.03513214  1
  O  O42  1  0.52857350  0.19175958  0.53513214  1
  O  O43  1  0.47142650  0.80824042  0.46486786  1
  O  O44  1  0.08758790  0.43071867  0.88765548  1
  O  O45  1  0.91241210  0.56928133  0.11234452  1
  O  O46  1  0.58758790  0.06928133  0.61234452  1
  O  O47  1  0.41241210  0.93071867  0.38765548  1
  O  O48  1  0.20864108  0.35999061  0.70099629  1
  O  O49  1  0.79135892  0.64000939  0.29900371  1
  O  O50  1  0.70864108  0.14000939  0.79900371  1
  O  O51  1  0.29135892  0.85999061  0.20099629  1
  O  O52  1  0.59874820  0.68144978  0.58762312  1
  O  O53  1  0.40125180  0.31855022  0.41237688  1
  O  O54  1  0.09874820  0.81855022  0.91237688  1
  O  O55  1  0.90125180  0.18144978  0.08762312  1
  O  O56  1  0.06307135  0.04266057  0.63792806  1
  O  O57  1  0.93692865  0.95733943  0.36207194  1
  O  O58  1  0.56307135  0.45733943  0.86207194  1
  O  O59  1  0.43692865  0.54266057  0.13792806  1
  O  O60  1  0.25837534  0.94473776  0.58068561  1
  O  O61  1  0.74162466  0.05526224  0.41931439  1
  O  O62  1  0.75837534  0.55526224  0.91931439  1
  O  O63  1  0.24162466  0.44473776  0.08068561  1
  O  O64  1  0.39161298  0.87407089  0.79101364  1
  O  O65  1  0.60838702  0.12592911  0.20898636  1
  O  O66  1  0.89161298  0.62592911  0.70898636  1
  O  O67  1  0.10838702  0.37407089  0.29101364  1
  O  O68  1  0.70791451  0.83347918  0.70533110  1
  O  O69  1  0.29208549  0.16652082  0.29466890  1
  O  O70  1  0.20791451  0.66652082  0.79466890  1
  O  O71  1  0.79208549  0.33347918  0.20533110  1
loop_
_geom_bond_atom_site_label_1
_geom_bond_atom_site_label_2
_geom_bond_distance
_geom_bond_site_symmetry_2
Li0 O36 1.979661 1_655
Li0 O52 1.998493 1_555
Li0 O66 2.073722 1_555
Li0 O68 2.183627 1_555
Li1 O37 1.979661 1_455
Li1 O53 1.998493 1_555
Li1 O67 2.073722 1_555
Li1 O69 2.183627 1_555
Li2 O38 1.979661 1_555
Li2 O54 1.998493 1_555
Li2 O64 2.073722 1_555
Li2 O70 2.183627 1_555
Li3 O39 1.979661 1_555
Li3 O55 1.998493 1_555
Li3 O65 2.073722 1_555
Li3 O71 2.183627 1_555
Li4 O64 2.000131 1_545
Li4 O68 2.012461 1_545
Li4 O0 2.022275 1_555
Li4 O50 2.034964 1_555
Li5 O65 2.000131 1_565
Li5 O69 2.012461 1_565
Li5 O1 2.022275 1_555
Li5 O51 2.034964 1_555
Li6 O66 2.000131 1_455
Li6 O70 2.012461 1_555
Li6 O2 2.022275 1_455
Li6 O48 2.034964 1_555
Li7 O67 2.000131 1_655
Li7 O71 2.012461 1_555
Li7 O3 2.022275 1_655
Li7 O49 2.034964 1_555
Li8 O60 2.056802 1_555
Li8 O33 2.058152 1_555
Li8 O27 2.078720 1_555
Li8 O43 2.150131 1_555
Li9 O61 2.056802 1_555
Li9 O32 2.058152 1_555
Li9 O26 2.078720 1_555
Li9 O42 2.150131 1_555
Li10 O62 2.056802 1_555
Li10 O35 2.058152 1_555
Li10 O25 2.078720 1_556
Li10 O41 2.150131 1_556
Li11 O63 2.056802 1_555
Li11 O34 2.058152 1_555
Li11 O24 2.078720 1_554
Li11 O40 2.150131 1_554
N0 O30 1.240007 1_555
N0 O68 1.277685 1_555
N0 O66 1.281489 1_555
N1 O31 1.240007 1_555
N1 O69 1.277685 1_555
N1 O67 1.281489 1_555
N2 O28 1.240007 1_555
N2 O70 1.277685 1_555
N2 O64 1.281489 1_555
N3 O29 1.240007 1_555
N3 O71 1.277685 1_555
N3 O65 1.281489 1_555
N4 O12 1.235324 1_555
N4 O0 1.281419 1_555
N4 O48 1.284215 1_555
N5 O13 1.235324 1_555
N5 O1 1.281419 1_555
N5 O49 1.284215 1_555
N6 O14 1.235324 1_555
N6 O2 1.281419 1_555
N6 O50 1.284215 1_555
N7 O15 1.235324 1_555
N7 O3 1.281419 1_555
N7 O51 1.284215 1_555
N8 O24 1.256929 1_555
N8 O8 1.263334 1_555
N8 O4 1.265823 1_555
N9 O25 1.256929 1_555
N9 O9 1.263334 1_555
N9 O5 1.265823 1_555
N10 O26 1.256929 1_555
N10 O10 1.263334 1_655
N10 O6 1.265823 1_655
N11 O27 1.256929 1_555
N11 O11 1.263334 1_455
N11 O7 1.265823 1_455
N12 O16 1.247050 1_555
N12 O44 1.255359 1_555
N12 O40 1.288199 1_555
N13 O17 1.247050 1_555
N13 O45 1.255359 1_555
N13 O41 1.288199 1_555
N14 O18 1.247050 1_555
N14 O46 1.255359 1_555
N14 O42 1.288199 1_555
N15 O19 1.247050 1_555
N15 O47 1.255359 1_555
N15 O43 1.288199 1_555
N16 O36 1.253749 1_555
N16 O56 1.256799 1_565
N16 O60 1.285390 1_555
N17 O37 1.253749 1_555
N17 O57 1.256799 1_545
N17 O61 1.285390 1_555
N18 O38 1.253749 1_555
N18 O58 1.256799 1_555
N18 O62 1.285390 1_555
N19 O39 1.253749 1_555
N19 O59 1.256799 1_555
N19 O63 1.285390 1_555
N20 O54 1.254025 1_555
N20 O20 1.262769 1_565
N20 O35 1.284354 1_455
N21 O55 1.254025 1_555
N21 O21 1.262769 1_545
N21 O34 1.284354 1_655
N22 O52 1.254025 1_555
N22 O22 1.262769 1_555
N22 O33 1.284354 1_555
N23 O53 1.254025 1_555
N23 O23 1.262769 1_555
N23 O32 1.284354 1_555
O0 Yb0 2.463362 1_555
O1 Yb1 2.463362 1_555
O2 Yb2 2.463362 1_555
O3 Yb3 2.463362 1_555
O4 Yb2 2.581987 1_555
O5 Yb3 2.581987 1_555
O6 Yb0 2.581987 1_555
O7 Yb1 2.581987 1_555
O8 Yb2 2.505564 1_555
O9 Yb3 2.505564 1_555
O10 Yb0 2.505564 1_555
O11 Yb1 2.505564 1_555
O20 Yb2 2.520490 1_455
O21 Yb3 2.520490 1_655
O22 Yb0 2.520490 1_555
O23 Yb1 2.520490 1_555
O32 Yb1 2.521704 1_555
O33 Yb0 2.521704 1_555
O34 Yb3 2.521704 1_545
O35 Yb2 2.521704 1_565
O40 Yb2 2.542318 1_455
O41 Yb3 2.542318 1_655
O42 Yb0 2.542318 1_555
O43 Yb1 2.542318 1_555
O44 Yb2 2.574382 1_455
O45 Yb3 2.574382 1_655
O46 Yb0 2.574382 1_555
O47 Yb1 2.574382 1_555
O48 Yb0 2.471902 1_555
O49 Yb1 2.471902 1_555
O50 Yb2 2.471902 1_555
O51 Yb3 2.471902 1_555
O56 Yb0 2.560997 1_555
O57 Yb1 2.560997 1_555
O58 Yb2 2.560997 1_555
O59 Yb3 2.560997 1_555
O60 Yb0 2.493841 1_565
O61 Yb1 2.493841 1_545
O62 Yb2 2.493841 1_555
O63 Yb3 2.493841 1_555
