# generated using pymatgen
data_RbB(CN)4
_symmetry_space_group_name_H-M   'P 1'
_cell_length_a   9.14748880
_cell_length_b   9.14748880
_cell_length_c   9.14748880
_cell_angle_alpha   132.97785121
_cell_angle_beta   132.97785121
_cell_angle_gamma   68.68893328
_symmetry_Int_Tables_number   1
_chemical_formula_structural   RbB(CN)4
_chemical_formula_sum   'Rb2 B2 C8 N8'
_cell_volume   402.30241038
_cell_formula_units_Z   2
loop_
 _symmetry_equiv_pos_site_id
 _symmetry_equiv_pos_as_xyz
  1  'x, y, z'
loop_
 _atom_site_type_symbol
 _atom_site_label
 _atom_site_symmetry_multiplicity
 _atom_site_fract_x
 _atom_site_fract_y
 _atom_site_fract_z
 _atom_site_occupancy
  Rb  Rb0  1  0.75000000  0.25000000  0.50000000  1
  Rb  Rb1  1  0.00000000  0.00000000  0.00000000  1
  B  B0  1  0.25000000  0.75000000  0.50000000  1
  B  B1  1  0.50000000  0.50000000  0.00000000  1
  C  C0  1  0.28946300  0.84005100  0.74854000  1
  C  C1  1  0.59005100  0.34151100  0.05058800  1
  C  C2  1  0.29092300  0.53946300  0.94941200  1
  C  C3  1  0.09151100  0.54092300  0.25146000  1
  C  C4  1  0.46053700  0.40994900  0.75146000  1
  C  C5  1  0.15994900  0.90848900  0.44941200  1
  C  C6  1  0.45907700  0.71053700  0.55058800  1
  C  C7  1  0.65848900  0.70907700  0.24854000  1
  N  N0  1  0.32141200  0.91039200  0.93449400  1
  N  N1  1  0.66039200  0.22589800  0.08898100  1
  N  N2  1  0.13691700  0.57141200  0.91101900  1
  N  N3  1  0.97589800  0.38691700  0.06550600  1
  N  N4  1  0.42858800  0.33960800  0.56550600  1
  N  N5  1  0.08960800  0.02410200  0.41101900  1
  N  N6  1  0.61308300  0.67858800  0.58898100  1
  N  N7  1  0.77410200  0.86308300  0.43449400  1
loop_
_geom_bond_atom_site_label_1
_geom_bond_atom_site_label_2
_geom_bond_distance
_geom_bond_site_symmetry_2
B0 C6 1.587916 1_555
B0 C5 1.587916 1_555
B0 C3 1.587916 1_555
B0 C0 1.587916 1_555
B1 C2 1.587916 1_554
B1 C4 1.587916 1_554
B1 C7 1.587916 1_555
B1 C1 1.587916 1_555
C0 N0 1.165967 1_555
C1 N1 1.165972 1_555
C2 N2 1.165972 1_555
C3 N3 1.165972 1_455
C4 N4 1.165967 1_555
C5 N5 1.165972 1_565
C6 N6 1.165972 1_555
C7 N7 1.165972 1_555
N0 Rb1 3.107387 1_566
N0 Rb0 3.327392 1_566
N1 Rb0 3.107378 1_555
N1 Rb1 3.327396 1_655
N2 Rb0 3.107383 1_455
N2 Rb1 3.327388 1_566
N3 Rb1 3.107378 1_655
N3 Rb0 3.327396 1_554
N4 Rb0 3.107387 1_555
N4 Rb1 3.327392 1_555
N5 Rb1 3.107378 1_555
N5 Rb0 3.327396 1_455
N6 Rb1 3.107383 1_666
N6 Rb0 3.327388 1_555
N7 Rb0 3.107378 1_565
N7 Rb1 3.327396 1_666
