# generated using pymatgen
data_LaTb2RuO7
_symmetry_space_group_name_H-M   'P 1'
_cell_length_a   6.49804798
_cell_length_b   6.49804798
_cell_length_c   7.55765400
_cell_angle_alpha   90.00000000
_cell_angle_beta   90.00000000
_cell_angle_gamma   110.24762694
_symmetry_Int_Tables_number   1
_chemical_formula_structural   LaTb2RuO7
_chemical_formula_sum   'La2 Tb4 Ru2 O14'
_cell_volume   299.39937319
_cell_formula_units_Z   2
loop_
 _symmetry_equiv_pos_site_id
 _symmetry_equiv_pos_as_xyz
  1  'x, y, z'
loop_
 _atom_site_type_symbol
 _atom_site_label
 _atom_site_symmetry_multiplicity
 _atom_site_fract_x
 _atom_site_fract_y
 _atom_site_fract_z
 _atom_site_occupancy
  La  La0  1  0.00000000  0.00000000  0.50000000  1
  La  La1  1  0.00000000  0.00000000  0.00000000  1
  Tb  Tb0  1  0.52129900  0.07382100  0.25000000  1
  Tb  Tb1  1  0.92617900  0.47870100  0.75000000  1
  Tb  Tb2  1  0.47870100  0.92617900  0.75000000  1
  Tb  Tb3  1  0.07382100  0.52129900  0.25000000  1
  Ru  Ru0  1  0.50000000  0.50000000  0.50000000  1
  Ru  Ru1  1  0.50000000  0.50000000  0.00000000  1
  O  O0  1  0.44379800  0.18406000  0.53642900  1
  O  O1  1  0.81594000  0.55620200  0.46357100  1
  O  O2  1  0.44379800  0.18406000  0.96357100  1
  O  O3  1  0.81594000  0.55620200  0.03642900  1
  O  O4  1  0.55620200  0.81594000  0.46357100  1
  O  O5  1  0.18406000  0.44379800  0.53642900  1
  O  O6  1  0.55620200  0.81594000  0.03642900  1
  O  O7  1  0.18406000  0.44379800  0.96357100  1
  O  O8  1  0.16365500  0.88553400  0.25000000  1
  O  O9  1  0.11446600  0.83634500  0.75000000  1
  O  O10  1  0.83634500  0.11446600  0.75000000  1
  O  O11  1  0.88553400  0.16365500  0.25000000  1
  O  O12  1  0.41564000  0.41564000  0.25000000  1
  O  O13  1  0.58436000  0.58436000  0.75000000  1
loop_
_geom_bond_atom_site_label_1
_geom_bond_atom_site_label_2
_geom_bond_distance
_geom_bond_site_symmetry_2
La0 O11 2.408634 1_455
La0 O9 2.408634 1_545
La0 O10 2.408634 1_455
La0 O8 2.408634 1_545
La0 O4 2.726787 1_445
La0 O1 2.726787 1_445
La0 O5 2.726787 1_555
La0 O0 2.726787 1_555
La1 O9 2.408634 1_544
La1 O11 2.408634 1_455
La1 O10 2.408634 1_454
La1 O8 2.408634 1_545
La1 O6 2.726787 1_445
La1 O3 2.726787 1_445
La1 O2 2.726787 1_554
La1 O7 2.726787 1_554
O0 Ru0 1.976108 1_555
O0 Tb0 2.387994 1_555
O0 Tb2 2.393293 1_545
O1 Ru0 1.976108 1_555
O1 Tb1 2.387994 1_555
O1 Tb3 2.393293 1_655
O2 Ru1 1.976108 1_556
O2 Tb0 2.387994 1_556
O2 Tb2 2.393293 1_545
O3 Ru1 1.976108 1_555
O3 Tb1 2.387994 1_554
O3 Tb3 2.393293 1_655
O4 Ru0 1.976108 1_555
O4 Tb2 2.387994 1_555
O4 Tb0 2.393293 1_565
O5 Ru0 1.976108 1_555
O5 Tb3 2.387994 1_555
O5 Tb1 2.393293 1_455
O6 Ru1 1.976108 1_555
O6 Tb2 2.387994 1_554
O6 Tb0 2.393293 1_565
O7 Ru1 1.976108 1_556
O7 Tb3 2.387994 1_556
O7 Tb1 2.393293 1_455
O8 Tb0 2.220314 1_565
O8 Tb3 2.232999 1_555
O9 Tb1 2.220314 1_455
O9 Tb2 2.232999 1_555
O10 Tb2 2.220314 1_545
O10 Tb1 2.232999 1_555
O11 Tb3 2.220314 1_655
O11 Tb0 2.232999 1_555
O12 Ru0 1.990700 1_555
O12 Ru1 1.990700 1_555
O12 Tb3 2.541743 1_555
O12 Tb0 2.541743 1_555
O13 Ru0 1.990700 1_555
O13 Ru1 1.990700 1_556
O13 Tb2 2.541743 1_555
O13 Tb1 2.541743 1_555
