# generated using pymatgen
data_TbPu3
_symmetry_space_group_name_H-M   'P 1'
_cell_length_a   6.93052413
_cell_length_b   6.93052413
_cell_length_c   5.56724100
_cell_angle_alpha   90.00000000
_cell_angle_beta   90.00000000
_cell_angle_gamma   120.00000128
_symmetry_Int_Tables_number   1
_chemical_formula_structural   TbPu3
_chemical_formula_sum   'Tb2 Pu6'
_cell_volume   231.58093782
_cell_formula_units_Z   2
loop_
 _symmetry_equiv_pos_site_id
 _symmetry_equiv_pos_as_xyz
  1  'x, y, z'
loop_
 _atom_site_type_symbol
 _atom_site_label
 _atom_site_symmetry_multiplicity
 _atom_site_fract_x
 _atom_site_fract_y
 _atom_site_fract_z
 _atom_site_occupancy
  Tb  Tb0  1  0.33333300  0.66666700  0.75000000  1
  Tb  Tb1  1  0.66666700  0.33333300  0.25000000  1
  Pu  Pu0  1  0.16344500  0.32689000  0.25000000  1
  Pu  Pu1  1  0.67311000  0.83655500  0.25000000  1
  Pu  Pu2  1  0.16344500  0.83655500  0.25000000  1
  Pu  Pu3  1  0.83655500  0.67311000  0.75000000  1
  Pu  Pu4  1  0.32689000  0.16344500  0.75000000  1
  Pu  Pu5  1  0.83655500  0.16344500  0.75000000  1
loop_
_geom_bond_atom_site_label_1
_geom_bond_atom_site_label_2
_geom_bond_distance
_geom_bond_site_symmetry_2
Pu0 Pu1 3.398278 1_445
Pu0 Pu2 3.398279 1_545
Pu0 Pu5 3.405580 1_455
Pu0 Pu5 3.405580 1_454
Pu0 Pu4 3.405580 1_554
Pu0 Pu4 3.405580 1_555
Pu0 Tb0 3.450720 1_555
Pu0 Tb0 3.450720 1_554
Pu0 Tb1 3.465474 1_455
Pu0 Tb1 3.465481 1_555
Pu0 Pu1 3.532246 1_555
Pu0 Pu2 3.532246 1_555
Pu1 Pu2 3.398279 1_655
Pu1 Pu5 3.405580 1_565
Pu1 Pu5 3.405580 1_564
Pu1 Pu3 3.405580 1_555
Pu1 Pu3 3.405580 1_554
Pu1 Tb0 3.450720 1_555
Pu1 Tb0 3.450720 1_554
Pu1 Tb1 3.465474 1_565
Pu1 Tb1 3.465481 1_555
Pu1 Pu2 3.532246 1_555
Pu2 Pu3 3.405580 1_455
Pu2 Pu4 3.405580 1_564
Pu2 Pu4 3.405580 1_565
Pu2 Pu3 3.405580 1_454
Pu2 Tb0 3.450717 1_554
Pu2 Tb0 3.450717 1_555
Pu2 Tb1 3.465478 1_565
Pu2 Tb1 3.465478 1_455
Pu3 Pu4 3.398278 1_665
Pu3 Pu5 3.398279 1_565
Pu3 Tb1 3.450720 1_556
Pu3 Tb1 3.450720 1_555
Pu3 Tb0 3.465474 1_655
Pu3 Tb0 3.465481 1_555
Pu3 Pu4 3.532246 1_555
Pu3 Pu5 3.532246 1_555
Pu4 Pu5 3.398279 1_455
Pu4 Tb1 3.450720 1_555
Pu4 Tb1 3.450720 1_556
Pu4 Tb0 3.465474 1_545
Pu4 Tb0 3.465481 1_555
Pu4 Pu5 3.532246 1_555
Pu5 Tb1 3.450717 1_555
Pu5 Tb1 3.450717 1_556
Pu5 Tb0 3.465478 1_545
Pu5 Tb0 3.465478 1_655
