# generated using pymatgen
data_RbCrCoF6
_symmetry_space_group_name_H-M   'P 1'
_cell_length_a   7.40317838
_cell_length_b   7.40317838
_cell_length_c   7.40317838
_cell_angle_alpha   120.37873455
_cell_angle_beta   120.01523079
_cell_angle_gamma   89.65944327
_symmetry_Int_Tables_number   1
_chemical_formula_structural   RbCrCoF6
_chemical_formula_sum   'Rb2 Cr2 Co2 F12'
_cell_volume   286.04267626
_cell_formula_units_Z   2
loop_
 _symmetry_equiv_pos_site_id
 _symmetry_equiv_pos_as_xyz
  1  'x, y, z'
loop_
 _atom_site_type_symbol
 _atom_site_label
 _atom_site_symmetry_multiplicity
 _atom_site_fract_x
 _atom_site_fract_y
 _atom_site_fract_z
 _atom_site_occupancy
  Rb  Rb0  1  0.87135200  0.12135200  0.75000000  1
  Rb  Rb1  1  0.12864800  0.87864800  0.25000000  1
  Cr  Cr0  1  0.50000000  0.50000000  0.00000000  1
  Cr  Cr1  1  0.00000000  0.50000000  0.50000000  1
  Co  Co0  1  0.50000000  0.50000000  0.50000000  1
  Co  Co1  1  0.50000000  0.00000000  0.00000000  1
  F  F0  1  0.81548500  0.56548500  0.25000000  1
  F  F1  1  0.42263000  0.17263000  0.25000000  1
  F  F2  1  0.83217300  0.18515300  0.26340500  1
  F  F3  1  0.42174900  0.56876900  0.23659500  1
  F  F4  1  0.83217300  0.56876900  0.64702000  1
  F  F5  1  0.42174900  0.18515300  0.85298000  1
  F  F6  1  0.18451500  0.43451500  0.75000000  1
  F  F7  1  0.57737000  0.82737000  0.75000000  1
  F  F8  1  0.16782700  0.81484700  0.73659500  1
  F  F9  1  0.57825100  0.43123100  0.76340500  1
  F  F10  1  0.16782700  0.43123100  0.35298000  1
  F  F11  1  0.57825100  0.81484700  0.14702000  1
loop_
_geom_bond_atom_site_label_1
_geom_bond_atom_site_label_2
_geom_bond_distance
_geom_bond_site_symmetry_2
Cr0 F9 1.942282 1_554
Cr0 F3 1.942282 1_555
Cr0 F5 1.942288 1_554
Cr0 F11 1.942288 1_555
Cr0 F6 1.974010 1_554
Cr0 F0 1.974010 1_555
Cr1 F4 1.942288 1_455
Cr1 F10 1.942288 1_555
Cr1 F8 1.942289 1_555
Cr1 F2 1.942289 1_455
Cr1 F0 1.974010 1_455
Cr1 F6 1.974010 1_555
Co0 F1 2.011557 1_555
Co0 F7 2.011557 1_555
Co0 F10 2.065871 1_555
Co0 F4 2.065871 1_555
Co0 F3 2.065878 1_555
Co0 F9 2.065878 1_555
Co1 F1 2.011557 1_555
Co1 F7 2.011557 1_544
Co1 F11 2.065871 1_545
Co1 F5 2.065871 1_554
Co1 F8 2.065872 1_544
Co1 F2 2.065872 1_555
F0 Rb1 3.288444 1_655
F1 Rb1 3.087030 1_545
F2 Rb1 3.147549 1_645
F3 Rb1 3.147549 1_555
F4 Rb1 3.147549 1_656
F5 Rb1 3.147549 1_545
F6 Rb0 3.288444 1_455
F7 Rb0 3.087030 1_565
F8 Rb0 3.147549 1_465
F9 Rb0 3.147549 1_555
F10 Rb0 3.147549 1_454
F11 Rb0 3.147549 1_565
