# generated using pymatgen
data_LaYMg4
_symmetry_space_group_name_H-M   'P 1'
_cell_length_a   6.12767706
_cell_length_b   6.12767706
_cell_length_c   6.12767706
_cell_angle_alpha   60.00000000
_cell_angle_beta   60.00000000
_cell_angle_gamma   60.00000000
_symmetry_Int_Tables_number   1
_chemical_formula_structural   LaYMg4
_chemical_formula_sum   'La1 Y1 Mg4'
_cell_volume   162.69440158
_cell_formula_units_Z   1
loop_
 _symmetry_equiv_pos_site_id
 _symmetry_equiv_pos_as_xyz
  1  'x, y, z'
loop_
 _atom_site_type_symbol
 _atom_site_label
 _atom_site_symmetry_multiplicity
 _atom_site_fract_x
 _atom_site_fract_y
 _atom_site_fract_z
 _atom_site_occupancy
  La  La0  1  0.25000000  0.25000000  0.25000000  1
  Y  Y0  1  0.00000000  0.00000000  0.00000000  1
  Mg  Mg0  1  0.62511800  0.62511800  0.12464700  1
  Mg  Mg1  1  0.62511800  0.12464700  0.62511800  1
  Mg  Mg2  1  0.12464700  0.62511800  0.62511800  1
  Mg  Mg3  1  0.62511800  0.62511800  0.62511800  1
loop_
_geom_bond_atom_site_label_1
_geom_bond_atom_site_label_2
_geom_bond_distance
_geom_bond_site_symmetry_2
La0 Mg0 3.592975 1_455
La0 Mg1 3.592975 1_554
La0 Mg0 3.592975 1_545
La0 Mg1 3.592975 1_455
La0 Mg2 3.592975 1_554
La0 Mg2 3.592975 1_545
La0 Mg3 3.592978 1_455
La0 Mg3 3.592978 1_545
La0 Mg3 3.592978 1_554
La0 Mg0 3.592980 1_555
La0 Mg2 3.592980 1_555
La0 Mg1 3.592980 1_555
La0 Y0 3.752421 1_556
La0 Y0 3.752421 1_565
La0 Y0 3.752421 1_655
La0 Y0 3.752421 1_555
Mg0 Mg1 3.060952 1_564
Mg0 Mg3 3.060952 1_554
Mg0 Mg2 3.060952 1_654
Mg0 Mg1 3.066725 1_555
Mg0 Mg2 3.066725 1_555
Mg0 Mg3 3.066725 1_555
Mg0 Y0 3.592359 1_665
Mg0 Y0 3.592364 1_565
Mg0 Y0 3.592364 1_655
Mg1 Mg2 3.060952 1_645
Mg1 Mg3 3.060952 1_545
Mg1 Mg2 3.066725 1_555
Mg1 Mg3 3.066725 1_555
Mg1 Y0 3.592359 1_656
Mg1 Y0 3.592364 1_556
Mg1 Y0 3.592364 1_655
Mg2 Mg3 3.060952 1_455
Mg2 Mg3 3.066725 1_555
Mg2 Y0 3.592359 1_566
Mg2 Y0 3.592364 1_556
Mg2 Y0 3.592364 1_565
Mg3 Y0 3.592361 1_566
Mg3 Y0 3.592361 1_656
Mg3 Y0 3.592361 1_665
