# generated using pymatgen
data_CaNdEuSbO6
_symmetry_space_group_name_H-M   'P 1'
_cell_length_a   5.89890880
_cell_length_b   5.89890880
_cell_length_c   8.56825294
_cell_angle_alpha   90.00000000
_cell_angle_beta   90.00000000
_cell_angle_gamma   90.00000000
_symmetry_Int_Tables_number   1
_chemical_formula_structural   CaNdEuSbO6
_chemical_formula_sum   'Ca2 Nd2 Eu2 Sb2 O12'
_cell_volume   298.15056885
_cell_formula_units_Z   2
loop_
 _symmetry_equiv_pos_site_id
 _symmetry_equiv_pos_as_xyz
  1  'x, y, z'
loop_
 _atom_site_type_symbol
 _atom_site_label
 _atom_site_symmetry_multiplicity
 _atom_site_fract_x
 _atom_site_fract_y
 _atom_site_fract_z
 _atom_site_occupancy
  Ca  Ca0  1  -0.00000000  0.50000000  0.25000000  1
  Ca  Ca1  1  0.50000000  0.00000000  0.75000000  1
  Nd  Nd0  1  0.00000000  0.00000000  0.00000000  1
  Nd  Nd1  1  0.50000000  0.50000000  0.50000000  1
  Eu  Eu0  1  0.50000000  -0.00000000  0.25000000  1
  Eu  Eu1  1  -0.00000000  0.50000000  0.75000000  1
  Sb  Sb0  1  0.00000000  -0.00000000  0.50000000  1
  Sb  Sb1  1  0.50000000  0.50000000  0.00000000  1
  O  O0  1  -0.00000000  -0.00000000  0.26637667  1
  O  O1  1  0.50000000  0.50000000  0.23362333  1
  O  O2  1  0.00000000  0.00000000  0.73362333  1
  O  O3  1  0.50000000  0.50000000  0.76637667  1
  O  O4  1  0.34797553  0.19391117  0.99213788  1
  O  O5  1  0.65202447  0.80608883  0.99213788  1
  O  O6  1  0.80608883  0.34797553  0.00786212  1
  O  O7  1  0.19391117  0.65202447  0.00786212  1
  O  O8  1  0.84797553  0.30608883  0.49213788  1
  O  O9  1  0.15202447  0.69391117  0.49213788  1
  O  O10  1  0.30608883  0.15202447  0.50786212  1
  O  O11  1  0.69391117  0.84797553  0.50786212  1
loop_
_geom_bond_atom_site_label_1
_geom_bond_atom_site_label_2
_geom_bond_distance
_geom_bond_site_symmetry_2
Ca0 O8 2.533182 1_455
Ca0 O7 2.533182 1_555
Ca0 O9 2.533182 1_555
Ca0 O6 2.533182 1_455
Ca0 O1 2.952790 1_455
Ca0 O1 2.952790 1_555
Ca0 O0 2.952790 1_565
Ca0 O0 2.952790 1_555
Ca1 O11 2.533182 1_545
Ca1 O5 2.533182 1_545
Ca1 O4 2.533182 1_555
Ca1 O10 2.533182 1_555
Ca1 O2 2.952790 1_655
Ca1 O3 2.952790 1_545
Ca1 O2 2.952790 1_555
Ca1 O3 2.952790 1_555
Nd0 O2 2.282383 1_554
Nd0 O0 2.282383 1_555
Nd0 O4 2.350839 1_554
Nd0 O5 2.350839 1_444
Nd0 O7 2.350839 1_545
Nd0 O6 2.350839 1_455
Nd1 O1 2.282383 1_555
Nd1 O3 2.282383 1_555
Nd1 O8 2.350839 1_555
Nd1 O10 2.350839 1_555
Nd1 O11 2.350839 1_555
Nd1 O9 2.350839 1_555
Eu0 O10 2.644657 1_555
Eu0 O11 2.644657 1_545
Eu0 O5 2.644657 1_544
Eu0 O4 2.644657 1_554
Eu0 O0 2.952790 1_655
Eu0 O1 2.952790 1_555
Eu0 O1 2.952790 1_545
Eu0 O0 2.952790 1_555
Eu1 O7 2.644657 1_556
Eu1 O9 2.644657 1_555
Eu1 O8 2.644657 1_455
Eu1 O6 2.644657 1_456
Eu1 O2 2.952790 1_565
Eu1 O3 2.952790 1_555
Eu1 O2 2.952790 1_555
Eu1 O3 2.952790 1_455
O0 Sb0 2.001744 1_555
O1 Sb1 2.001744 1_555
O2 Sb0 2.001744 1_555
O3 Sb1 2.001744 1_556
O4 Sb1 2.017153 1_556
O5 Sb1 2.017153 1_556
O6 Sb1 2.017153 1_555
O7 Sb1 2.017153 1_555
O8 Sb0 2.017153 1_655
O9 Sb0 2.017153 1_565
O10 Sb0 2.017153 1_555
O11 Sb0 2.017153 1_665
