# generated using pymatgen
data_ThSiNi
_symmetry_space_group_name_H-M   'P 1'
_cell_length_a   7.54795651
_cell_length_b   7.54795651
_cell_length_c   7.54795651
_cell_angle_alpha   148.59695221
_cell_angle_beta   148.59695221
_cell_angle_gamma   45.00491159
_symmetry_Int_Tables_number   1
_chemical_formula_structural   ThSiNi
_chemical_formula_sum   'Th2 Si2 Ni2'
_cell_volume   116.38445924
_cell_formula_units_Z   2
loop_
 _symmetry_equiv_pos_site_id
 _symmetry_equiv_pos_as_xyz
  1  'x, y, z'
loop_
 _atom_site_type_symbol
 _atom_site_label
 _atom_site_symmetry_multiplicity
 _atom_site_fract_x
 _atom_site_fract_y
 _atom_site_fract_z
 _atom_site_occupancy
  Th  Th0  1  0.74821914  0.24821914  0.50000000  1
  Th  Th1  1  0.99821914  0.99821914  0.00000000  1
  Si  Si0  1  0.16803807  0.66803807  0.50000000  1
  Si  Si1  1  0.41803807  0.41803807  0.00000000  1
  Ni  Ni0  1  0.33774278  0.83774278  0.50000000  1
  Ni  Ni1  1  0.58774278  0.58774278  -0.00000000  1
loop_
_geom_bond_atom_site_label_1
_geom_bond_atom_site_label_2
_geom_bond_distance
_geom_bond_site_symmetry_2
Si0 Th0 3.097663 1_454
Si0 Th0 3.097663 1_555
Si0 Th0 3.097663 1_465
Si0 Th0 3.097663 1_566
Si0 Th1 3.127584 1_445
Si0 Th1 3.127584 1_456
Si1 Th1 3.097663 1_444
Si1 Th1 3.097663 1_545
Si1 Th1 3.097663 1_455
Si1 Th1 3.097663 1_556
Si1 Th0 3.127584 1_454
Si1 Th0 3.127584 1_555
Ni0 Si1 2.329499 1_566
Ni0 Si1 2.329499 1_555
Ni0 Si0 2.366796 1_555
Ni0 Th1 3.030111 1_556
Ni0 Th1 3.030111 1_455
Ni0 Th0 3.147046 1_555
Ni0 Th0 3.147046 1_566
Ni0 Th0 3.147046 1_465
Ni0 Th0 3.147046 1_454
Ni1 Si0 2.329499 1_554
Ni1 Si0 2.329499 1_655
Ni1 Si1 2.366796 1_555
Ni1 Th0 3.030111 1_554
Ni1 Th0 3.030111 1_565
Ni1 Th1 3.147046 1_556
Ni1 Th1 3.147046 1_545
Ni1 Th1 3.147046 1_444
Ni1 Th1 3.147046 1_455
