# generated using pymatgen
data_Mg(BH4)2
_symmetry_space_group_name_H-M   'P 1'
_cell_length_a   5.62095400
_cell_length_b   5.62095400
_cell_length_c   5.94846600
_cell_angle_alpha   90.00000000
_cell_angle_beta   90.00000000
_cell_angle_gamma   90.00000000
_symmetry_Int_Tables_number   1
_chemical_formula_structural   Mg(BH4)2
_chemical_formula_sum   'Mg2 B4 H16'
_cell_volume   187.94252011
_cell_formula_units_Z   2
loop_
 _symmetry_equiv_pos_site_id
 _symmetry_equiv_pos_as_xyz
  1  'x, y, z'
loop_
 _atom_site_type_symbol
 _atom_site_label
 _atom_site_symmetry_multiplicity
 _atom_site_fract_x
 _atom_site_fract_y
 _atom_site_fract_z
 _atom_site_occupancy
  Mg  Mg0  1  0.00000000  0.00000000  0.00000000  1
  Mg  Mg1  1  0.50000000  0.50000000  0.50000000  1
  B  B0  1  0.75009600  0.25009600  0.75000000  1
  B  B1  1  0.24990400  0.74990400  0.75000000  1
  B  B2  1  0.74990400  0.75009600  0.25000000  1
  B  B3  1  0.25009600  0.24990400  0.25000000  1
  H  H0  1  0.71791600  0.46023600  0.78890900  1
  H  H1  1  0.28208400  0.53976400  0.78890900  1
  H  H2  1  0.53976400  0.71791600  0.21109100  1
  H  H3  1  0.46023600  0.28208400  0.21109100  1
  H  H4  1  0.67328300  0.13851500  0.91020800  1
  H  H5  1  0.32671700  0.86148500  0.91020800  1
  H  H6  1  0.86148500  0.67328300  0.08979200  1
  H  H7  1  0.13851500  0.32671700  0.08979200  1
  H  H8  1  0.96023600  0.21791600  0.71109100  1
  H  H9  1  0.03976400  0.78208400  0.71109100  1
  H  H10  1  0.78208400  0.96023600  0.28890900  1
  H  H11  1  0.21791600  0.03976400  0.28890900  1
  H  H12  1  0.63851500  0.17328300  0.58979200  1
  H  H13  1  0.36148500  0.82671700  0.58979200  1
  H  H14  1  0.82671700  0.63851500  0.41020800  1
  H  H15  1  0.17328300  0.36148500  0.41020800  1
loop_
_geom_bond_atom_site_label_1
_geom_bond_atom_site_label_2
_geom_bond_distance
_geom_bond_site_symmetry_2
B0 H0 1.217165 1_555
B0 H8 1.217165 1_555
B0 H4 1.219828 1_555
B0 H12 1.219828 1_555
B1 H1 1.217165 1_555
B1 H9 1.217165 1_555
B1 H5 1.219828 1_555
B1 H13 1.219828 1_555
B2 H10 1.217165 1_555
B2 H2 1.217165 1_555
B2 H14 1.219828 1_555
B2 H6 1.219828 1_555
B3 H11 1.217165 1_555
B3 H3 1.217165 1_555
B3 H15 1.219828 1_555
B3 H7 1.219828 1_555
H0 Mg1 2.122214 1_555
H1 Mg1 2.122214 1_555
H2 Mg1 2.122214 1_555
H3 Mg1 2.122214 1_555
H4 Mg0 2.064964 1_656
H5 Mg0 2.064964 1_566
H6 Mg0 2.064964 1_665
H7 Mg0 2.064964 1_555
H8 Mg0 2.122214 1_656
H9 Mg0 2.122214 1_566
H10 Mg0 2.122214 1_665
H11 Mg0 2.122214 1_555
H12 Mg1 2.064964 1_555
H13 Mg1 2.064964 1_555
H14 Mg1 2.064964 1_555
H15 Mg1 2.064964 1_555
