# generated using pymatgen
data_CrInN2
_symmetry_space_group_name_H-M   'P 1'
_cell_length_a   6.02801162
_cell_length_b   12.16779567
_cell_length_c   13.86482012
_cell_angle_alpha   90.00000000
_cell_angle_beta   90.00000000
_cell_angle_gamma   90.00000000
_symmetry_Int_Tables_number   1
_chemical_formula_structural   CrInN2
_chemical_formula_sum   'Cr16 In16 N32'
_cell_volume   1016.95147002
_cell_formula_units_Z   16
loop_
 _symmetry_equiv_pos_site_id
 _symmetry_equiv_pos_as_xyz
  1  'x, y, z'
loop_
 _atom_site_type_symbol
 _atom_site_label
 _atom_site_symmetry_multiplicity
 _atom_site_fract_x
 _atom_site_fract_y
 _atom_site_fract_z
 _atom_site_occupancy
  Cr  Cr0  1  0.12151877  0.93524631  0.45405616  1
  Cr  Cr1  1  0.62151877  0.56475369  0.54594384  1
  Cr  Cr2  1  0.87848123  0.43524631  0.04594384  1
  Cr  Cr3  1  0.37848123  0.06475369  0.95405616  1
  Cr  Cr4  1  0.87848123  0.06475369  0.54594384  1
  Cr  Cr5  1  0.37848123  0.43524631  0.45405616  1
  Cr  Cr6  1  0.12151877  0.56475369  0.95405616  1
  Cr  Cr7  1  0.62151877  0.93524631  0.04594384  1
  Cr  Cr8  1  0.40310599  0.28646363  0.25916439  1
  Cr  Cr9  1  0.90310599  0.21353637  0.74083561  1
  Cr  Cr10  1  0.59689401  0.78646363  0.24083561  1
  Cr  Cr11  1  0.09689401  0.71353637  0.75916439  1
  Cr  Cr12  1  0.59689401  0.71353637  0.74083561  1
  Cr  Cr13  1  0.09689401  0.78646363  0.25916439  1
  Cr  Cr14  1  0.40310599  0.21353637  0.75916439  1
  Cr  Cr15  1  0.90310599  0.28646363  0.24083561  1
  In  In0  1  0.51974508  0.05551218  0.34425982  1
  In  In1  1  0.01974508  0.44448782  0.65574018  1
  In  In2  1  0.48025492  0.55551218  0.15574018  1
  In  In3  1  0.98025492  0.94448782  0.84425982  1
  In  In4  1  0.48025492  0.94448782  0.65574018  1
  In  In5  1  0.98025492  0.55551218  0.34425982  1
  In  In6  1  0.51974508  0.44448782  0.84425982  1
  In  In7  1  0.01974508  0.05551218  0.15574018  1
  In  In8  1  0.87888157  0.30251063  0.43323944  1
  In  In9  1  0.37888157  0.19748937  0.56676056  1
  In  In10  1  0.12111843  0.80251063  0.06676056  1
  In  In11  1  0.62111843  0.69748937  0.93323944  1
  In  In12  1  0.12111843  0.69748937  0.56676056  1
  In  In13  1  0.62111843  0.80251063  0.43323944  1
  In  In14  1  0.87888157  0.19748937  0.93323944  1
  In  In15  1  0.37888157  0.30251063  0.06676056  1
  N  N0  1  0.19345737  0.34609746  0.51273960  1
  N  N1  1  0.69345737  0.15390254  0.48726040  1
  N  N2  1  0.80654263  0.84609746  0.98726040  1
  N  N3  1  0.30654263  0.65390254  0.01273960  1
  N  N4  1  0.80654263  0.65390254  0.48726040  1
  N  N5  1  0.30654263  0.84609746  0.51273960  1
  N  N6  1  0.19345737  0.15390254  0.01273960  1
  N  N7  1  0.69345737  0.34609746  0.98726040  1
  N  N8  1  0.65410037  0.42152950  0.50377383  1
  N  N9  1  0.15410037  0.07847050  0.49622617  1
  N  N10  1  0.34589963  0.92152950  0.99622617  1
  N  N11  1  0.84589963  0.57847050  0.00377383  1
  N  N12  1  0.34589963  0.57847050  0.49622617  1
  N  N13  1  0.84589963  0.92152950  0.50377383  1
  N  N14  1  0.65410037  0.07847050  0.00377383  1
  N  N15  1  0.15410037  0.42152950  0.99622617  1
  N  N16  1  0.15163717  0.21048541  0.26363298  1
  N  N17  1  0.65163717  0.28951459  0.73636702  1
  N  N18  1  0.84836283  0.71048541  0.23636702  1
  N  N19  1  0.34836283  0.78951459  0.76363298  1
  N  N20  1  0.84836283  0.78951459  0.73636702  1
  N  N21  1  0.34836283  0.71048541  0.26363298  1
  N  N22  1  0.15163717  0.28951459  0.76363298  1
  N  N23  1  0.65163717  0.21048541  0.23636702  1
  N  N24  1  0.90024698  0.40657680  0.17117649  1
  N  N25  1  0.40024698  0.09342320  0.82882351  1
  N  N26  1  0.09975302  0.90657680  0.32882351  1
  N  N27  1  0.59975302  0.59342320  0.67117649  1
  N  N28  1  0.09975302  0.59342320  0.82882351  1
  N  N29  1  0.59975302  0.90657680  0.17117649  1
  N  N30  1  0.90024698  0.09342320  0.67117649  1
  N  N31  1  0.40024698  0.40657680  0.32882351  1
loop_
_geom_bond_atom_site_label_1
_geom_bond_atom_site_label_2
_geom_bond_distance
_geom_bond_site_symmetry_2
Cr0 N5 1.755741 1_555
Cr0 N26 1.775878 1_555
Cr0 N13 1.806487 1_455
Cr0 N9 1.848650 1_565
Cr1 N4 1.755741 1_555
Cr1 N27 1.775878 1_555
Cr1 N12 1.806487 1_555
Cr1 N8 1.848650 1_555
Cr2 N7 1.755741 1_554
Cr2 N24 1.775878 1_555
Cr2 N15 1.806487 1_654
Cr2 N11 1.848650 1_555
Cr3 N6 1.755741 1_556
Cr3 N25 1.775878 1_555
Cr3 N14 1.806487 1_556
Cr3 N10 1.848650 1_545
Cr4 N1 1.755741 1_555
Cr4 N30 1.775878 1_555
Cr4 N9 1.806487 1_655
Cr4 N13 1.848650 1_545
Cr5 N0 1.755741 1_555
Cr5 N31 1.775878 1_555
Cr5 N8 1.806487 1_555
Cr5 N12 1.848650 1_555
Cr6 N3 1.755741 1_556
Cr6 N28 1.775878 1_555
Cr6 N11 1.806487 1_456
Cr6 N15 1.848650 1_555
Cr7 N2 1.755741 1_554
Cr7 N29 1.775878 1_555
Cr7 N10 1.806487 1_554
Cr7 N14 1.848650 1_565
Cr8 N31 1.751887 1_555
Cr8 N16 1.776609 1_555
Cr8 N23 1.788584 1_555
Cr9 N30 1.751887 1_555
Cr9 N17 1.776609 1_555
Cr9 N22 1.788584 1_655
Cr10 N29 1.751887 1_555
Cr10 N18 1.776609 1_555
Cr10 N21 1.788584 1_555
Cr11 N28 1.751887 1_555
Cr11 N19 1.776609 1_555
Cr11 N20 1.788584 1_455
Cr12 N27 1.751887 1_555
Cr12 N20 1.776609 1_555
Cr12 N19 1.788584 1_555
Cr13 N26 1.751887 1_555
Cr13 N21 1.776609 1_555
Cr13 N18 1.788584 1_455
Cr14 N25 1.751887 1_555
Cr14 N22 1.776609 1_555
Cr14 N17 1.788584 1_555
Cr15 N24 1.751887 1_555
Cr15 N23 1.776609 1_555
Cr15 N16 1.788584 1_655
In0 N23 2.534888 1_555
In0 N1 2.541807 1_555
In1 N22 2.534888 1_555
In1 N0 2.541807 1_555
In2 N21 2.534888 1_555
In2 N3 2.541807 1_555
In3 N20 2.534888 1_555
In3 N2 2.541807 1_555
In4 N19 2.534888 1_555
In4 N5 2.541807 1_555
In5 N18 2.534888 1_555
In5 N4 2.541807 1_555
In6 N17 2.534888 1_555
In6 N7 2.541807 1_555
In7 N16 2.534888 1_555
In7 N6 2.541807 1_555
In8 N8 2.211252 1_555
In8 N1 2.253893 1_555
In8 N0 2.256562 1_655
In9 N9 2.211252 1_555
In9 N0 2.253893 1_555
In9 N1 2.256562 1_555
In10 N10 2.211252 1_554
In10 N3 2.253893 1_555
In10 N2 2.256562 1_454
In11 N11 2.211252 1_556
In11 N2 2.253893 1_555
In11 N3 2.256562 1_556
In12 N12 2.211252 1_555
In12 N5 2.253893 1_555
In12 N4 2.256562 1_455
In13 N13 2.211252 1_555
In13 N4 2.253893 1_555
In13 N5 2.256562 1_555
In14 N14 2.211252 1_556
In14 N7 2.253893 1_555
In14 N6 2.256562 1_656
In15 N15 2.211252 1_554
In15 N6 2.253893 1_555
In15 N7 2.256562 1_554
