# generated using pymatgen
data_TbAgS2
_symmetry_space_group_name_H-M   'P 1'
_cell_length_a   7.67725900
_cell_length_b   7.67973300
_cell_length_c   12.65202724
_cell_angle_alpha   89.93461628
_cell_angle_beta   90.00000000
_cell_angle_gamma   90.00000000
_symmetry_Int_Tables_number   1
_chemical_formula_structural   TbAgS2
_chemical_formula_sum   'Tb8 Ag8 S16'
_cell_volume   745.95417487
_cell_formula_units_Z   8
loop_
 _symmetry_equiv_pos_site_id
 _symmetry_equiv_pos_as_xyz
  1  'x, y, z'
loop_
 _atom_site_type_symbol
 _atom_site_label
 _atom_site_symmetry_multiplicity
 _atom_site_fract_x
 _atom_site_fract_y
 _atom_site_fract_z
 _atom_site_occupancy
  Tb  Tb0  1  0.27530800  0.50209400  0.25417400  1
  Tb  Tb1  1  0.77530800  0.49790600  0.74582600  1
  Tb  Tb2  1  0.02786400  0.24615400  0.50265600  1
  Tb  Tb3  1  0.52786400  0.75384600  0.49734400  1
  Tb  Tb4  1  0.28334200  0.99879000  0.75313900  1
  Tb  Tb5  1  0.78334200  0.00121000  0.24686100  1
  Tb  Tb6  1  0.52960100  0.25295700  0.00341200  1
  Tb  Tb7  1  0.02960100  0.74704300  0.99658800  1
  Ag  Ag0  1  0.28113500  0.00029500  0.28645500  1
  Ag  Ag1  1  0.78113500  0.99970500  0.71354500  1
  Ag  Ag2  1  0.52872100  0.25417700  0.52617300  1
  Ag  Ag3  1  0.02872100  0.74582300  0.47382700  1
  Ag  Ag4  1  0.77849300  0.49744200  0.19929400  1
  Ag  Ag5  1  0.27849300  0.50255800  0.80070600  1
  Ag  Ag6  1  0.03060900  0.24467300  0.02302700  1
  Ag  Ag7  1  0.53060900  0.75532700  0.97697300  1
  S  S0  1  0.54968000  0.27197700  0.22287800  1
  S  S1  1  0.04968000  0.72802300  0.77712200  1
  S  S2  1  0.25363600  0.47459500  0.03434100  1
  S  S3  1  0.75363600  0.52540500  0.96565900  1
  S  S4  1  0.30244800  0.02410000  0.53490100  1
  S  S5  1  0.80244800  0.97590000  0.46509900  1
  S  S6  1  0.05239200  0.22781500  0.28487800  1
  S  S7  1  0.55239200  0.77218500  0.71512200  1
  S  S8  1  0.25859400  0.51970000  0.47331600  1
  S  S9  1  0.75859400  0.48030000  0.52668400  1
  S  S10  1  0.00823200  0.22792000  0.72284000  1
  S  S11  1  0.50823200  0.77208000  0.27716000  1
  S  S12  1  0.80118000  0.02149400  0.02690700  1
  S  S13  1  0.30118000  0.97850600  0.97309300  1
  S  S14  1  0.00556700  0.72711700  0.21457000  1
  S  S15  1  0.50556700  0.27288300  0.78543000  1
loop_
_geom_bond_atom_site_label_1
_geom_bond_atom_site_label_2
_geom_bond_distance
_geom_bond_site_symmetry_2
Ag0 S11 2.475024 1_545
Ag0 S6 2.477359 1_555
Ag0 S0 3.040890 1_555
Ag0 S14 3.115870 1_545
Ag0 S4 3.153114 1_555
Ag1 S10 2.475024 1_665
Ag1 S7 2.477359 1_555
Ag1 S1 3.040890 1_655
Ag1 S15 3.115870 1_565
Ag1 S5 3.153114 1_555
Ag2 S9 2.475929 1_555
Ag2 S4 2.480222 1_555
Ag2 S8 2.983793 1_555
Ag2 S5 3.095837 1_545
Ag3 S8 2.475929 1_555
Ag3 S5 2.480222 1_455
Ag3 S9 2.983793 1_455
Ag3 S4 3.095837 1_565
Ag4 S0 2.484316 1_555
Ag4 S14 2.487647 1_655
Ag4 S3 2.969640 1_554
Ag4 S11 3.119110 1_555
Ag4 S6 3.142730 1_655
Ag5 S1 2.484316 1_555
Ag5 S15 2.487647 1_555
Ag5 S2 2.969640 1_556
Ag5 S10 3.119110 1_555
Ag5 S7 3.142730 1_555
Ag6 S12 2.458117 1_455
Ag6 S2 2.463870 1_555
Ag6 S13 2.982504 1_544
Ag6 S3 3.113342 1_454
Ag7 S13 2.458117 1_555
Ag7 S3 2.463870 1_555
Ag7 S12 2.982504 1_566
Ag7 S2 3.113342 1_556
S0 Tb5 2.762722 1_555
S0 Tb0 2.778225 1_555
S0 Tb6 2.784965 1_555
S1 Tb4 2.762722 1_555
S1 Tb1 2.778225 1_455
S1 Tb7 2.784965 1_555
S2 Tb6 2.746008 1_555
S2 Tb7 2.749913 1_554
S2 Tb0 2.794537 1_555
S3 Tb7 2.746008 1_655
S3 Tb6 2.749913 1_556
S3 Tb1 2.794537 1_555
S4 Tb2 2.741684 1_555
S4 Tb3 2.744184 1_545
S4 Tb4 2.771649 1_545
S5 Tb3 2.741684 1_555
S5 Tb2 2.744184 1_665
S5 Tb5 2.771649 1_565
S6 Tb0 2.741305 1_555
S6 Tb5 2.743785 1_455
S6 Tb2 2.765509 1_555
S7 Tb1 2.741305 1_555
S7 Tb4 2.743785 1_555
S7 Tb3 2.765509 1_555
S8 Tb3 2.756929 1_555
S8 Tb2 2.772540 1_555
S8 Tb0 2.779004 1_555
S9 Tb2 2.756929 1_655
S9 Tb3 2.772540 1_555
S9 Tb1 2.779004 1_555
S10 Tb1 2.753679 1_455
S10 Tb4 2.775380 1_545
S10 Tb2 2.793201 1_555
S11 Tb0 2.753679 1_555
S11 Tb5 2.775380 1_565
S11 Tb3 2.793201 1_555
S12 Tb6 2.755735 1_555
S12 Tb7 2.768883 1_644
S12 Tb5 2.790406 1_555
S13 Tb7 2.755735 1_555
S13 Tb6 2.768883 1_566
S13 Tb4 2.790406 1_555
S14 Tb5 2.740518 1_465
S14 Tb0 2.742990 1_555
S14 Tb7 2.768138 1_554
S15 Tb4 2.740518 1_545
S15 Tb1 2.742990 1_555
S15 Tb6 2.768138 1_556
