# generated using pymatgen
data_La3Ta(ClO2)3
_symmetry_space_group_name_H-M   'P 1'
_cell_length_a   9.60753082
_cell_length_b   9.60753082
_cell_length_c   5.42361900
_cell_angle_alpha   90.00000000
_cell_angle_beta   90.00000000
_cell_angle_gamma   120.00000568
_symmetry_Int_Tables_number   1
_chemical_formula_structural   La3Ta(ClO2)3
_chemical_formula_sum   'La6 Ta2 Cl6 O12'
_cell_volume   433.55415570
_cell_formula_units_Z   2
loop_
 _symmetry_equiv_pos_site_id
 _symmetry_equiv_pos_as_xyz
  1  'x, y, z'
loop_
 _atom_site_type_symbol
 _atom_site_label
 _atom_site_symmetry_multiplicity
 _atom_site_fract_x
 _atom_site_fract_y
 _atom_site_fract_z
 _atom_site_occupancy
  La  La0  1  0.59521200  0.68523000  0.25000000  1
  La  La1  1  0.09001800  0.40478800  0.25000000  1
  La  La2  1  0.31477000  0.90998200  0.25000000  1
  La  La3  1  0.40478800  0.31477000  0.75000000  1
  La  La4  1  0.90998200  0.59521200  0.75000000  1
  La  La5  1  0.68523000  0.09001800  0.75000000  1
  Ta  Ta0  1  0.33333300  0.66666700  0.75000000  1
  Ta  Ta1  1  0.66666700  0.33333300  0.25000000  1
  Cl  Cl0  1  0.94941200  0.75958400  0.25000000  1
  Cl  Cl1  1  0.81017200  0.05058800  0.25000000  1
  Cl  Cl2  1  0.24041600  0.18982800  0.25000000  1
  Cl  Cl3  1  0.05058800  0.24041600  0.75000000  1
  Cl  Cl4  1  0.18982800  0.94941200  0.75000000  1
  Cl  Cl5  1  0.75958400  0.81017200  0.75000000  1
  O  O0  1  0.63585900  0.47708400  0.48448200  1
  O  O1  1  0.84122500  0.36414100  0.48448200  1
  O  O2  1  0.52291600  0.15877500  0.48448200  1
  O  O3  1  0.36414100  0.52291600  0.98448200  1
  O  O4  1  0.15877500  0.63585900  0.98448200  1
  O  O5  1  0.47708400  0.84122500  0.98448200  1
  O  O6  1  0.36414100  0.52291600  0.51551800  1
  O  O7  1  0.15877500  0.63585900  0.51551800  1
  O  O8  1  0.47708400  0.84122500  0.51551800  1
  O  O9  1  0.63585900  0.47708400  0.01551800  1
  O  O10  1  0.84122500  0.36414100  0.01551800  1
  O  O11  1  0.52291600  0.15877500  0.01551800  1
loop_
_geom_bond_atom_site_label_1
_geom_bond_atom_site_label_2
_geom_bond_distance
_geom_bond_site_symmetry_2
La0 O3 2.443799 1_554
La0 O6 2.443799 1_555
La0 O0 2.559267 1_555
La0 O9 2.559267 1_555
La0 O5 2.703507 1_554
La0 O8 2.703507 1_555
La1 O7 2.443799 1_555
La1 O4 2.443799 1_554
La1 O1 2.559267 1_455
La1 O10 2.559267 1_455
La1 O3 2.703507 1_554
La1 O6 2.703507 1_555
La2 O5 2.443799 1_554
La2 O8 2.443799 1_555
La2 O2 2.559267 1_565
La2 O11 2.559267 1_565
La2 O4 2.703507 1_554
La2 O7 2.703507 1_555
La3 O9 2.443799 1_556
La3 O0 2.443799 1_555
La3 O6 2.559267 1_555
La3 O3 2.559267 1_555
La3 O11 2.703507 1_556
La3 O2 2.703507 1_555
La4 O10 2.443799 1_556
La4 O1 2.443799 1_555
La4 O7 2.559267 1_655
La4 O4 2.559267 1_655
La4 O9 2.703507 1_556
La4 O0 2.703507 1_555
La5 O11 2.443799 1_556
La5 O2 2.443799 1_555
La5 O5 2.559267 1_545
La5 O8 2.559267 1_545
La5 O10 2.703507 1_556
La5 O1 2.703507 1_555
Cl0 La2 3.055692 1_655
Cl0 La4 3.064813 1_554
Cl0 La4 3.064813 1_555
Cl0 La0 3.108002 1_555
Cl1 La0 3.055692 1_545
Cl1 La5 3.064813 1_555
Cl1 La5 3.064813 1_554
Cl1 La1 3.108002 1_655
Cl2 La1 3.055692 1_555
Cl2 La3 3.064813 1_555
Cl2 La3 3.064813 1_554
Cl2 La2 3.108002 1_545
Cl3 La5 3.055692 1_455
Cl3 La1 3.064813 1_555
Cl3 La1 3.064813 1_556
Cl3 La3 3.108002 1_555
Cl4 La3 3.055692 1_565
Cl4 La2 3.064813 1_556
Cl4 La2 3.064813 1_555
Cl4 La4 3.108002 1_455
Cl5 La4 3.055692 1_555
Cl5 La0 3.064813 1_555
Cl5 La0 3.064813 1_556
Cl5 La5 3.108002 1_565
O0 Ta1 2.005278 1_555
O1 Ta1 2.005270 1_555
O2 Ta1 2.005273 1_555
O3 Ta0 2.005278 1_555
O4 Ta0 2.005270 1_555
O5 Ta0 2.005273 1_555
O6 Ta0 2.005278 1_555
O7 Ta0 2.005270 1_555
O8 Ta0 2.005273 1_555
O9 Ta1 2.005278 1_555
O10 Ta1 2.005270 1_555
O11 Ta1 2.005273 1_555
