# generated using pymatgen
data_Al2O3
_symmetry_space_group_name_H-M   'P 1'
_cell_length_a   10.40062292
_cell_length_b   9.71002326
_cell_length_c   10.75781557
_cell_angle_alpha   91.54746989
_cell_angle_beta   94.30571423
_cell_angle_gamma   89.83129683
_symmetry_Int_Tables_number   1
_chemical_formula_structural   Al2O3
_chemical_formula_sum   'Al40 O60'
_cell_volume   1082.97305079
_cell_formula_units_Z   20
loop_
 _symmetry_equiv_pos_site_id
 _symmetry_equiv_pos_as_xyz
  1  'x, y, z'
loop_
 _atom_site_type_symbol
 _atom_site_label
 _atom_site_symmetry_multiplicity
 _atom_site_fract_x
 _atom_site_fract_y
 _atom_site_fract_z
 _atom_site_occupancy
  Al  Al0  1  0.59544000  0.29869100  0.81707800  1
  Al  Al1  1  0.01387700  0.01640000  0.48652000  1
  Al  Al2  1  0.31539600  0.95140500  0.02002500  1
  Al  Al3  1  0.15215900  0.76649200  0.39042700  1
  Al  Al4  1  0.81736400  0.79553400  0.17027200  1
  Al  Al5  1  0.51585700  0.53653700  0.20754800  1
  Al  Al6  1  0.06146700  0.25974700  0.65648100  1
  Al  Al7  1  0.36139200  0.29804700  0.69436300  1
  Al  Al8  1  0.17402000  0.16786800  0.90180700  1
  Al  Al9  1  0.62262700  0.59031900  0.45084200  1
  Al  Al10  1  0.42099400  0.76065700  0.55825000  1
  Al  Al11  1  0.08955400  0.47179200  0.96174900  1
  Al  Al12  1  0.56892600  0.81906700  0.93540600  1
  Al  Al13  1  0.75618900  0.77968500  0.68745000  1
  Al  Al14  1  0.63200900  0.29645600  0.42707700  1
  Al  Al15  1  0.55233500  0.55876200  0.73924500  1
  Al  Al16  1  0.85149700  0.36132300  0.84934400  1
  Al  Al17  1  0.88650100  0.71808300  0.47466500  1
  Al  Al18  1  0.23312500  0.02777600  0.27763400  1
  Al  Al19  1  0.48058700  0.84157900  0.25718900  1
  Al  Al20  1  0.94456900  0.17945400  0.02385200  1
  Al  Al21  1  0.26468800  0.69744300  0.79801700  1
  Al  Al22  1  0.38963600  0.60543900  0.98904100  1
  Al  Al23  1  0.22979800  0.58141100  0.20182900  1
  Al  Al24  1  0.02252900  0.95184400  0.78219500  1
  Al  Al25  1  0.42777500  0.26596000  0.02981400  1
  Al  Al26  1  0.01855300  0.62807300  0.74066000  1
  Al  Al27  1  0.72303100  0.28893700  0.14640100  1
  Al  Al28  1  0.71227200  0.54901400  0.01872500  1
  Al  Al29  1  0.70060400  0.93849700  0.45956600  1
  Al  Al30  1  0.79290800  0.11764800  0.69097500  1
  Al  Al31  1  0.35723100  0.34134900  0.39998000  1
  Al  Al32  1  0.44177200  0.05219000  0.49531800  1
  Al  Al33  1  0.38105900  0.98154600  0.76220400  1
  Al  Al34  1  0.88958900  0.34491200  0.42101100  1
  Al  Al35  1  0.96083200  0.57957400  0.22052500  1
  Al  Al36  1  0.11577600  0.32755200  0.24999900  1
  Al  Al37  1  0.16972800  0.51738800  0.52790500  1
  Al  Al38  1  0.91497600  0.08714200  0.25022400  1
  Al  Al39  1  0.63341100  0.02026800  0.13268200  1
  O  O0  1  0.85783400  0.63608900  0.08100000  1
  O  O1  1  0.10422600  0.69099200  0.24295000  1
  O  O2  1  0.24385700  0.00676800  0.85257700  1
  O  O3  1  0.03383300  0.18107200  0.17288200  1
  O  O4  1  0.68693500  0.46170200  0.86078700  1
  O  O5  1  0.71077700  0.11415800  0.53911800  1
  O  O6  1  0.37362600  0.66709100  0.17250600  1
  O  O7  1  0.24326800  0.20956500  0.31824200  1
  O  O8  1  0.41081800  0.43954200  0.08465800  1
  O  O9  1  0.05418400  0.06521300  0.64440800  1
  O  O10  1  0.37977400  0.11014600  0.64054900  1
  O  O11  1  0.84549300  0.67660000  0.30959300  1
  O  O12  1  0.96653700  0.41783000  0.29641500  1
  O  O13  1  0.57196900  0.19658400  0.10334200  1
  O  O14  1  0.64322700  0.95105300  0.29723900  1
  O  O15  1  0.20224200  0.27218400  0.75965800  1
  O  O16  1  0.95807300  0.51453600  0.85097600  1
  O  O17  1  0.35948700  0.78767200  0.93727300  1
  O  O18  1  0.38120600  0.95652000  0.35236800  1
  O  O19  1  0.72889400  0.19484800  0.82322500  1
  O  O20  1  0.21401400  0.93513500  0.13945500  1
  O  O21  1  0.05252000  0.66260600  0.47734500  1
  O  O22  1  0.56748900  0.68498000  0.31197700  1
  O  O23  1  0.90371600  0.26743200  0.71016700  1
  O  O24  1  0.66462900  0.46153500  0.15123200  1
  O  O25  1  0.29869200  0.38377800  0.55117100  1
  O  O26  1  0.08748100  0.78656500  0.79755000  1
  O  O27  1  0.05565200  0.29526900  0.94196000  1
  O  O28  1  0.74036300  0.44279700  0.48274900  1
  O  O29  1  0.16895500  0.57512900  0.68848900  1
  O  O30  1  0.53336900  0.90572400  0.54017800  1
  O  O31  1  0.14102200  0.94951600  0.40291300  1
  O  O32  1  0.71437000  0.75133700  0.51251600  1
  O  O33  1  0.29536800  0.69372700  0.45578600  1
  O  O34  1  0.70357300  0.87126300  0.05529100  1
  O  O35  1  0.84091900  0.94118400  0.72890400  1
  O  O36  1  0.44391100  0.26889100  0.86629800  1
  O  O37  1  0.83590700  0.33541200  0.01915700  1
  O  O38  1  0.33914900  0.81749500  0.68810700  1
  O  O39  1  0.56661100  0.65072700  0.01672100  1
  O  O40  1  0.51129300  0.43800000  0.35676600  1
  O  O41  1  0.53028800  0.37165900  0.67902100  1
  O  O42  1  0.21513600  0.58287100  0.94248700  1
  O  O43  1  0.79838000  0.11708100  0.12090100  1
  O  O44  1  0.52232800  0.97314200  0.85968100  1
  O  O45  1  0.95601800  0.16153900  0.40536200  1
  O  O46  1  0.23468600  0.46003600  0.32851900  1
  O  O47  1  0.48310000  0.21045000  0.43628800  1
  O  O48  1  0.47457700  0.93498200  0.11260000  1
  O  O49  1  0.64569100  0.72367800  0.79257700  1
  O  O50  1  0.03560400  0.38181700  0.53521200  1
  O  O51  1  0.92970200  0.91461600  0.22453700  1
  O  O52  1  0.74728500  0.26119900  0.31462800  1
  O  O53  1  0.40977400  0.57232900  0.81704000  1
  O  O54  1  0.52421300  0.61571400  0.58046000  1
  O  O55  1  0.29124200  0.16486300  0.03488200  1
  O  O56  1  0.88271900  0.66743400  0.64606000  1
  O  O57  1  0.01141600  0.05904300  0.91470500  1
  O  O58  1  0.10431100  0.46719400  0.12681000  1
  O  O59  1  0.88240400  0.90573400  0.47615900  1
loop_
_geom_bond_atom_site_label_1
_geom_bond_atom_site_label_2
_geom_bond_distance
_geom_bond_site_symmetry_2
Al0 O19 1.711494 1_555
Al0 O36 1.727462 1_555
Al0 O41 1.752101 1_555
Al0 O4 1.879766 1_555
Al1 O59 1.736723 1_445
Al1 O45 1.758723 1_455
Al1 O31 1.766762 1_545
Al1 O9 1.770923 1_555
Al2 O20 1.732884 1_555
Al2 O17 1.873764 1_554
Al2 O48 1.875540 1_555
Al2 O2 1.983996 1_564
Al2 O55 2.090392 1_565
Al3 O33 1.753702 1_555
Al3 O1 1.767379 1_555
Al3 O21 1.779999 1_555
Al3 O31 1.782699 1_555
Al4 O51 1.706458 1_555
Al4 O34 1.815377 1_555
Al4 O0 1.863600 1_555
Al4 O11 1.921275 1_555
Al5 O24 1.844428 1_555
Al5 O22 1.858647 1_555
Al5 O8 1.884204 1_555
Al5 O40 1.894528 1_555
Al5 O6 1.966841 1_555
Al6 O15 1.772032 1_555
Al6 O23 1.780530 1_455
Al6 O50 1.791145 1_555
Al6 O9 1.891237 1_555
Al7 O25 1.845641 1_555
Al7 O15 1.866259 1_555
Al7 O10 1.912617 1_555
Al7 O41 1.918637 1_555
Al7 O36 2.006592 1_555
Al8 O2 1.805929 1_555
Al8 O27 1.809573 1_555
Al8 O55 1.810163 1_556
Al8 O15 1.898275 1_555
Al8 O57 2.012370 1_555
Al9 O54 1.801977 1_555
Al9 O22 1.829708 1_555
Al9 O28 1.903232 1_555
Al9 O32 1.911247 1_555
Al9 O40 2.075056 1_555
Al10 O33 1.759154 1_555
Al10 O38 1.764907 1_555
Al10 O54 1.777949 1_555
Al10 O30 1.856500 1_555
Al11 O42 1.724314 1_555
Al11 O27 1.755041 1_555
Al11 O58 1.772559 1_556
Al11 O16 1.800290 1_455
Al12 O44 1.771727 1_555
Al12 O39 1.875713 1_556
Al12 O34 1.891833 1_556
Al12 O49 1.989787 1_555
Al12 O17 2.202072 1_555
Al12 O48 2.453962 1_556
Al13 O49 1.768502 1_555
Al13 O56 1.780852 1_555
Al13 O35 1.829193 1_555
Al13 O32 1.912156 1_555
Al14 O47 1.772284 1_555
Al14 O52 1.791940 1_555
Al14 O28 1.873498 1_555
Al14 O40 1.985149 1_555
Al14 O5 2.283786 1_555
Al15 O53 1.759390 1_555
Al15 O54 1.812260 1_555
Al15 O41 1.920825 1_555
Al15 O49 1.926683 1_555
Al15 O4 2.083643 1_555
Al16 O23 1.847519 1_555
Al16 O16 1.856777 1_555
Al16 O37 1.869865 1_556
Al16 O4 1.977343 1_555
Al16 O19 2.061978 1_555
Al16 O27 2.370965 1_655
Al17 O21 1.805656 1_655
Al17 O59 1.822133 1_555
Al17 O11 1.829296 1_555
Al17 O32 1.890527 1_555
Al17 O56 1.924352 1_555
Al18 O20 1.715474 1_545
Al18 O7 1.808409 1_555
Al18 O18 1.826185 1_545
Al18 O31 1.888098 1_545
Al19 O48 1.818565 1_555
Al19 O22 1.853859 1_555
Al19 O18 1.858178 1_555
Al19 O14 2.013299 1_555
Al19 O6 2.171094 1_555
Al20 O3 1.791025 1_655
Al20 O57 1.809071 1_654
Al20 O37 1.886412 1_555
Al20 O27 1.894613 1_654
Al20 O43 2.011600 1_555
Al21 O29 1.882954 1_555
Al21 O38 1.890487 1_555
Al21 O17 1.922605 1_555
Al21 O53 1.936766 1_555
Al21 O26 2.033528 1_555
Al21 O42 2.033660 1_555
Al22 O42 1.858135 1_555
Al22 O17 1.887669 1_555
Al22 O39 1.893525 1_556
Al22 O53 1.896500 1_555
Al22 O8 1.937750 1_556
Al22 O6 2.065543 1_556
Al23 O1 1.756905 1_555
Al23 O6 1.766844 1_555
Al23 O46 1.823483 1_555
Al23 O58 1.840306 1_555
Al24 O26 1.746541 1_555
Al24 O57 1.752950 1_565
Al24 O9 1.918569 1_565
Al24 O35 1.934556 1_455
Al24 O2 2.424951 1_565
Al25 O55 1.733731 1_555
Al25 O36 1.780556 1_554
Al25 O13 1.781377 1_555
Al25 O8 1.783320 1_555
Al26 O56 1.726150 1_455
Al26 O29 1.771369 1_555
Al26 O26 1.773878 1_555
Al26 O16 1.790616 1_455
Al27 O24 1.781696 1_555
Al27 O13 1.834064 1_555
Al27 O52 1.835420 1_555
Al27 O43 1.863841 1_555
Al27 O37 1.932218 1_555
Al28 O24 1.781293 1_555
Al28 O39 1.805116 1_555
Al28 O0 1.811172 1_555
Al28 O4 1.879182 1_554
Al28 O37 2.437055 1_555
Al29 O14 1.809719 1_555
Al29 O5 1.887205 1_565
Al29 O59 1.912371 1_555
Al29 O32 1.920882 1_555
Al29 O30 2.030593 1_555
Al30 O19 1.763808 1_555
Al30 O5 1.785295 1_555
Al30 O35 1.831377 1_545
Al30 O23 1.855813 1_555
Al31 O25 1.815737 1_555
Al31 O47 1.849894 1_555
Al31 O46 1.853560 1_555
Al31 O7 1.899266 1_555
Al31 O40 1.951574 1_555
Al32 O47 1.745590 1_555
Al32 O30 1.767243 1_545
Al32 O10 1.809731 1_555
Al32 O18 1.845404 1_545
Al33 O44 1.742890 1_555
Al33 O2 1.798575 1_565
Al33 O38 1.801720 1_555
Al33 O10 1.832430 1_565
Al34 O12 1.775978 1_555
Al34 O50 1.908748 1_655
Al34 O45 1.915750 1_555
Al34 O52 1.965590 1_555
Al34 O28 1.966047 1_555
Al35 O12 1.788314 1_555
Al35 O11 1.833553 1_555
Al35 O1 1.842352 1_655
Al35 O0 1.871161 1_555
Al35 O58 2.142643 1_655
Al36 O3 1.809653 1_555
Al36 O7 1.870848 1_555
Al36 O12 1.873966 1_455
Al36 O58 1.918698 1_555
Al36 O46 1.921391 1_555
Al37 O29 1.802367 1_555
Al37 O25 1.871299 1_555
Al37 O21 1.924040 1_555
Al37 O50 1.928186 1_555
Al37 O33 2.340612 1_555
Al37 O46 2.349101 1_555
Al38 O51 1.698841 1_545
Al38 O3 1.803985 1_655
Al38 O43 1.804730 1_555
Al38 O45 1.821860 1_555
Al39 O34 1.827281 1_545
Al39 O48 1.845613 1_545
Al39 O13 1.852431 1_555
Al39 O14 1.905964 1_545
Al39 O43 1.972880 1_555
