# generated using pymatgen
data_MgSb2P2O9
_symmetry_space_group_name_H-M   'P 1'
_cell_length_a   6.69528600
_cell_length_b   6.94778200
_cell_length_c   15.78809400
_cell_angle_alpha   90.00000000
_cell_angle_beta   90.00000000
_cell_angle_gamma   90.00000000
_symmetry_Int_Tables_number   1
_chemical_formula_structural   MgSb2P2O9
_chemical_formula_sum   'Mg4 Sb8 P8 O36'
_cell_volume   734.42088736
_cell_formula_units_Z   4
loop_
 _symmetry_equiv_pos_site_id
 _symmetry_equiv_pos_as_xyz
  1  'x, y, z'
loop_
 _atom_site_type_symbol
 _atom_site_label
 _atom_site_symmetry_multiplicity
 _atom_site_fract_x
 _atom_site_fract_y
 _atom_site_fract_z
 _atom_site_occupancy
  Mg  Mg0  1  0.07787600  0.75000000  0.76934300  1
  Mg  Mg1  1  0.42212400  0.75000000  0.26934300  1
  Mg  Mg2  1  0.57787600  0.25000000  0.73065700  1
  Mg  Mg3  1  0.92212400  0.25000000  0.23065700  1
  Sb  Sb0  1  0.59991900  0.75000000  0.88273500  1
  Sb  Sb1  1  0.40008100  0.25000000  0.11726500  1
  Sb  Sb2  1  0.09991900  0.25000000  0.61726500  1
  Sb  Sb3  1  0.90008100  0.75000000  0.38273500  1
  Sb  Sb4  1  0.00000000  0.00000000  0.00000000  1
  Sb  Sb5  1  0.50000000  0.00000000  0.50000000  1
  Sb  Sb6  1  0.50000000  0.50000000  0.50000000  1
  Sb  Sb7  1  0.00000000  0.50000000  0.00000000  1
  P  P0  1  0.58116000  0.25000000  0.91156000  1
  P  P1  1  0.41884000  0.75000000  0.08844000  1
  P  P2  1  0.08116000  0.75000000  0.58844000  1
  P  P3  1  0.91884000  0.25000000  0.41156000  1
  P  P4  1  0.57308100  0.75000000  0.69720800  1
  P  P5  1  0.92691900  0.75000000  0.19720800  1
  P  P6  1  0.07308100  0.25000000  0.80279200  1
  P  P7  1  0.42691900  0.25000000  0.30279200  1
  O  O0  1  0.41624300  0.43909100  0.35483600  1
  O  O1  1  0.58375700  0.93909100  0.64516400  1
  O  O2  1  0.91624300  0.56090900  0.14516400  1
  O  O3  1  0.08375700  0.06090900  0.85483600  1
  O  O4  1  0.58375700  0.56090900  0.64516400  1
  O  O5  1  0.41624300  0.06090900  0.35483600  1
  O  O6  1  0.08375700  0.43909100  0.85483600  1
  O  O7  1  0.91624300  0.93909100  0.14516400  1
  O  O8  1  0.73350100  0.25000000  0.47496400  1
  O  O9  1  0.26649900  0.75000000  0.52503600  1
  O  O10  1  0.23350100  0.75000000  0.02503600  1
  O  O11  1  0.76649900  0.25000000  0.97496400  1
  O  O12  1  0.89686400  0.75000000  0.91922200  1
  O  O13  1  0.10313600  0.25000000  0.08077800  1
  O  O14  1  0.39686400  0.25000000  0.58077800  1
  O  O15  1  0.60313600  0.75000000  0.41922200  1
  O  O16  1  0.75632300  0.75000000  0.76207400  1
  O  O17  1  0.24367700  0.25000000  0.23792600  1
  O  O18  1  0.25632300  0.25000000  0.73792600  1
  O  O19  1  0.74367700  0.75000000  0.26207400  1
  O  O20  1  0.90379400  0.07561500  0.35036600  1
  O  O21  1  0.09620600  0.57561500  0.64963400  1
  O  O22  1  0.40379400  0.92438500  0.14963400  1
  O  O23  1  0.59620600  0.42438500  0.85036600  1
  O  O24  1  0.09620600  0.92438500  0.64963400  1
  O  O25  1  0.90379400  0.42438500  0.35036600  1
  O  O26  1  0.59620600  0.07561500  0.85036600  1
  O  O27  1  0.40379400  0.57561500  0.14963400  1
  O  O28  1  0.60844100  0.75000000  0.03474500  1
  O  O29  1  0.88846800  0.25000000  0.74272000  1
  O  O30  1  0.61153200  0.25000000  0.24272000  1
  O  O31  1  0.38846800  0.75000000  0.75728000  1
  O  O32  1  0.89155900  0.75000000  0.53474500  1
  O  O33  1  0.10844100  0.25000000  0.46525500  1
  O  O34  1  0.39155900  0.25000000  0.96525500  1
  O  O35  1  0.11153200  0.75000000  0.25728000  1
loop_
_geom_bond_atom_site_label_1
_geom_bond_atom_site_label_2
_geom_bond_distance
_geom_bond_site_symmetry_2
Mg0 O31 2.088205 1_555
Mg0 O16 2.155946 1_455
Mg0 O21 2.248338 1_555
Mg0 O24 2.248338 1_555
Mg0 O6 2.547467 1_555
Mg0 O3 2.547467 1_565
Mg0 O12 2.658601 1_455
Mg1 O35 2.088205 1_555
Mg1 O19 2.155946 1_555
Mg1 O27 2.248338 1_555
Mg1 O22 2.248338 1_555
Mg1 O0 2.547467 1_555
Mg1 O5 2.547467 1_565
Mg1 O15 2.658601 1_555
Mg2 O29 2.088205 1_555
Mg2 O18 2.155946 1_555
Mg2 O26 2.248338 1_555
Mg2 O23 2.248338 1_555
Mg2 O4 2.547467 1_555
Mg2 O1 2.547467 1_545
Mg2 O14 2.658601 1_555
Mg3 O30 2.088205 1_555
Mg3 O17 2.155946 1_655
Mg3 O20 2.248338 1_555
Mg3 O25 2.248338 1_555
Mg3 O2 2.547467 1_555
Mg3 O7 2.547467 1_545
Mg3 O13 2.658601 1_655
O0 P7 1.551204 1_555
O0 Sb6 2.397121 1_555
O1 P4 1.551204 1_555
O1 Sb5 2.397121 1_565
O2 P5 1.551204 1_555
O2 Sb7 2.397121 1_655
O3 P6 1.551204 1_555
O3 Sb4 2.397121 1_556
O4 P4 1.551204 1_555
O4 Sb6 2.397121 1_555
O5 P7 1.551204 1_555
O5 Sb5 2.397121 1_555
O6 P6 1.551204 1_555
O6 Sb7 2.397121 1_556
O7 P5 1.551204 1_555
O7 Sb4 2.397121 1_665
O8 P3 1.594329 1_555
O8 Sb6 2.370084 1_555
O8 Sb5 2.370084 1_555
O9 P2 1.594329 1_555
O9 Sb6 2.370084 1_555
O9 Sb5 2.370084 1_565
O10 P1 1.594329 1_555
O10 Sb4 2.370084 1_565
O10 Sb7 2.370084 1_555
O11 P0 1.594329 1_555
O11 Sb7 2.370084 1_656
O11 Sb4 2.370084 1_656
O12 Sb0 2.069907 1_555
O12 Sb4 2.262802 1_666
O12 Sb7 2.262802 1_656
O13 Sb1 2.069907 1_555
O13 Sb4 2.262802 1_555
O13 Sb7 2.262802 1_555
O14 Sb2 2.069907 1_555
O14 Sb6 2.262802 1_555
O14 Sb5 2.262802 1_555
O15 Sb3 2.069907 1_555
O15 Sb5 2.262802 1_565
O15 Sb6 2.262802 1_555
O16 P4 1.598118 1_555
O16 Sb0 2.173848 1_555
O17 P7 1.598118 1_555
O17 Sb1 2.173848 1_555
O18 P6 1.598118 1_555
O18 Sb2 2.173848 1_555
O19 P5 1.598118 1_555
O19 Sb3 2.173848 1_555
O20 P3 1.552906 1_555
O20 Sb3 2.319439 1_545
O21 P2 1.552906 1_555
O21 Sb2 2.319439 1_555
O22 P1 1.552906 1_555
O22 Sb1 2.319439 1_565
O23 P0 1.552906 1_555
O23 Sb0 2.319439 1_555
O24 P2 1.552906 1_555
O24 Sb2 2.319439 1_565
O25 P3 1.552906 1_555
O25 Sb3 2.319439 1_555
O26 P0 1.552906 1_555
O26 Sb0 2.319439 1_545
O27 P1 1.552906 1_555
O27 Sb1 2.319439 1_555
O28 P1 1.526475 1_555
O28 Sb0 2.400626 1_554
O29 P6 1.557977 1_655
O29 Sb2 2.434632 1_655
O30 P7 1.557977 1_555
O30 Sb1 2.434632 1_555
O31 P4 1.557977 1_555
O31 Sb0 2.434632 1_555
O32 P2 1.526475 1_655
O32 Sb3 2.400626 1_555
O33 P3 1.526475 1_455
O33 Sb2 2.400626 1_555
O34 P0 1.526475 1_555
O34 Sb1 2.400626 1_556
O35 P5 1.557977 1_455
O35 Sb3 2.434632 1_455
