# generated using pymatgen
data_MgBi3P3O13
_symmetry_space_group_name_H-M   'P 1'
_cell_length_a   7.11563300
_cell_length_b   8.47175800
_cell_length_c   10.94178159
_cell_angle_alpha   79.35974139
_cell_angle_beta   90.00000000
_cell_angle_gamma   90.00000000
_symmetry_Int_Tables_number   1
_chemical_formula_structural   MgBi3P3O13
_chemical_formula_sum   'Mg2 Bi6 P6 O26'
_cell_volume   648.25049669
_cell_formula_units_Z   2
loop_
 _symmetry_equiv_pos_site_id
 _symmetry_equiv_pos_as_xyz
  1  'x, y, z'
loop_
 _atom_site_type_symbol
 _atom_site_label
 _atom_site_symmetry_multiplicity
 _atom_site_fract_x
 _atom_site_fract_y
 _atom_site_fract_z
 _atom_site_occupancy
  Mg  Mg0  1  0.75000000  0.42476800  0.16446000  1
  Mg  Mg1  1  0.25000000  0.57523200  0.83554000  1
  Bi  Bi0  1  0.25000000  0.64336700  0.23168100  1
  Bi  Bi1  1  0.75000000  0.35663300  0.76831900  1
  Bi  Bi2  1  0.25000000  0.19924500  0.43411500  1
  Bi  Bi3  1  0.50000000  0.00000000  0.00000000  1
  Bi  Bi4  1  0.75000000  0.80075500  0.56588500  1
  Bi  Bi5  1  0.00000000  0.00000000  0.00000000  1
  P  P0  1  0.25000000  0.77052200  0.52495700  1
  P  P1  1  0.75000000  0.22947800  0.47504300  1
  P  P2  1  0.25000000  0.28199000  0.76239500  1
  P  P3  1  0.75000000  0.71801000  0.23760500  1
  P  P4  1  0.75000000  0.67354200  0.89958800  1
  P  P5  1  0.25000000  0.32645800  0.10041200  1
  O  O0  1  0.75000000  0.64159800  0.76160500  1
  O  O1  1  0.57557600  0.24958600  0.38775400  1
  O  O2  1  0.25000000  0.23434800  0.63526200  1
  O  O3  1  0.56508800  0.76461800  0.91507900  1
  O  O4  1  0.75000000  0.35716900  0.56049000  1
  O  O5  1  0.75000000  0.12272500  0.89012900  1
  O  O6  1  0.25000000  0.64283100  0.43951000  1
  O  O7  1  0.06508800  0.23538200  0.08492100  1
  O  O8  1  0.25000000  0.93880200  0.43593700  1
  O  O9  1  0.75000000  0.06119800  0.56406300  1
  O  O10  1  0.08209700  0.39338900  0.78372100  1
  O  O11  1  0.25000000  0.87727500  0.10987100  1
  O  O12  1  0.58209700  0.60661100  0.21627900  1
  O  O13  1  0.75000000  0.50222000  0.98131200  1
  O  O14  1  0.75000000  0.76565200  0.36473800  1
  O  O15  1  0.43491200  0.23538200  0.08492100  1
  O  O16  1  0.92442400  0.24958600  0.38775400  1
  O  O17  1  0.42442400  0.75041400  0.61224600  1
  O  O18  1  0.41790300  0.39338900  0.78372100  1
  O  O19  1  0.25000000  0.35840200  0.23839500  1
  O  O20  1  0.75000000  0.87616600  0.13751700  1
  O  O21  1  0.25000000  0.12383400  0.86248300  1
  O  O22  1  0.91790300  0.60661100  0.21627900  1
  O  O23  1  0.93491200  0.76461800  0.91507900  1
  O  O24  1  0.07557600  0.75041400  0.61224600  1
  O  O25  1  0.25000000  0.49778000  0.01868800  1
loop_
_geom_bond_atom_site_label_1
_geom_bond_atom_site_label_2
_geom_bond_distance
_geom_bond_site_symmetry_2
Mg0 O13 1.990186 1_554
Mg0 O22 2.108237 1_555
Mg0 O12 2.108237 1_555
Mg1 O25 1.990186 1_556
Mg1 O18 2.108237 1_555
Mg1 O10 2.108237 1_555
Bi0 O11 2.174365 1_555
Bi0 O6 2.273185 1_555
Bi0 O12 2.393510 1_555
Bi0 O22 2.393510 1_455
Bi0 O19 2.401676 1_555
Bi1 O5 2.174365 1_555
Bi1 O4 2.273185 1_555
Bi1 O10 2.393510 1_655
Bi1 O18 2.393510 1_555
Bi1 O0 2.401676 1_555
Bi2 O8 2.202816 1_545
Bi2 O2 2.274671 1_555
Bi2 O19 2.310377 1_555
Bi2 O1 2.392973 1_555
Bi2 O16 2.392973 1_455
Bi3 O5 2.286736 1_554
Bi3 O11 2.286736 1_545
Bi3 O15 2.395530 1_555
Bi3 O3 2.395530 1_544
Bi3 O21 2.438491 1_554
Bi3 O20 2.438491 1_545
Bi4 O9 2.202816 1_565
Bi4 O14 2.274671 1_555
Bi4 O0 2.310377 1_555
Bi4 O24 2.392973 1_655
Bi4 O17 2.392973 1_555
Bi5 O5 2.286736 1_454
Bi5 O11 2.286736 1_545
Bi5 O7 2.395530 1_555
Bi5 O23 2.395530 1_444
Bi5 O21 2.438491 1_554
Bi5 O20 2.438491 1_445
O0 P4 1.582262 1_555
O1 P1 1.556139 1_555
O2 P2 1.518318 1_555
O3 P4 1.550352 1_555
O4 P1 1.554937 1_555
O6 P0 1.554937 1_555
O7 P5 1.550352 1_555
O8 P0 1.571105 1_555
O9 P1 1.571105 1_555
O10 P2 1.566468 1_555
O12 P3 1.566468 1_555
O13 P4 1.557847 1_555
O14 P3 1.518318 1_555
O15 P5 1.550352 1_555
O16 P1 1.556139 1_555
O17 P0 1.556139 1_555
O18 P2 1.566468 1_555
O19 P5 1.582262 1_555
O20 P3 1.566108 1_555
O21 P2 1.566108 1_555
O22 P3 1.566468 1_555
O23 P4 1.550352 1_555
O24 P0 1.556139 1_555
O25 P5 1.557847 1_555
