# generated using pymatgen
data_Te2MoWSe2
_symmetry_space_group_name_H-M   'P 1'
_cell_length_a   3.43542670
_cell_length_b   3.43542670
_cell_length_c   39.11859700
_cell_angle_alpha   90.00000000
_cell_angle_beta   90.00000000
_cell_angle_gamma   120.00001353
_symmetry_Int_Tables_number   1
_chemical_formula_structural   Te2MoWSe2
_chemical_formula_sum   'Te4 Mo2 W2 Se4'
_cell_volume   399.82985249
_cell_formula_units_Z   2
loop_
 _symmetry_equiv_pos_site_id
 _symmetry_equiv_pos_as_xyz
  1  'x, y, z'
loop_
 _atom_site_type_symbol
 _atom_site_label
 _atom_site_symmetry_multiplicity
 _atom_site_fract_x
 _atom_site_fract_y
 _atom_site_fract_z
 _atom_site_occupancy
  Te  Te0  1  0.33333300  0.66666700  0.32928200  1
  Te  Te1  1  0.66666700  0.33333300  0.67071800  1
  Te  Te2  1  0.66666700  0.33333300  0.76568300  1
  Te  Te3  1  0.33333300  0.66666700  0.23431700  1
  Mo  Mo0  1  0.33333300  0.66666700  0.71819100  1
  Mo  Mo1  1  0.66666700  0.33333300  0.28180900  1
  W  W0  1  0.33333300  0.66666700  0.09391100  1
  W  W1  1  0.66666700  0.33333300  0.90608900  1
  Se  Se0  1  0.33333300  0.66666700  0.94810900  1
  Se  Se1  1  0.66666700  0.33333300  0.05189100  1
  Se  Se2  1  0.66666700  0.33333300  0.13595200  1
  Se  Se3  1  0.33333300  0.66666700  0.86404800  1
loop_
_geom_bond_atom_site_label_1
_geom_bond_atom_site_label_2
_geom_bond_distance
_geom_bond_site_symmetry_2
Mo0 Te1 2.717127 1_455
Mo0 Te1 2.717127 1_565
Mo0 Te1 2.717132 1_555
Mo0 Te2 2.717635 1_455
Mo0 Te2 2.717635 1_565
Mo0 Te2 2.717640 1_555
Mo1 Te0 2.717127 1_545
Mo1 Te0 2.717127 1_655
Mo1 Te0 2.717132 1_555
Mo1 Te3 2.717635 1_545
Mo1 Te3 2.717635 1_655
Mo1 Te3 2.717640 1_555
Se0 W1 2.576044 1_455
Se0 W1 2.576044 1_565
Se0 W1 2.576049 1_555
Se1 W0 2.576044 1_655
Se1 W0 2.576044 1_545
Se1 W0 2.576049 1_555
Se2 W0 2.576568 1_545
Se2 W0 2.576568 1_655
Se2 W0 2.576573 1_555
Se3 W1 2.576568 1_455
Se3 W1 2.576568 1_565
Se3 W1 2.576573 1_555
