# generated using pymatgen
data_Cs2KBiI6
_symmetry_space_group_name_H-M   'P 1'
_cell_length_a   9.14944273
_cell_length_b   9.14944273
_cell_length_c   9.14944273
_cell_angle_alpha   60.00000000
_cell_angle_beta   60.00000000
_cell_angle_gamma   60.00000000
_symmetry_Int_Tables_number   1
_chemical_formula_structural   Cs2KBiI6
_chemical_formula_sum   'Cs2 K1 Bi1 I6'
_cell_volume   541.58787353
_cell_formula_units_Z   1
loop_
 _symmetry_equiv_pos_site_id
 _symmetry_equiv_pos_as_xyz
  1  'x, y, z'
loop_
 _atom_site_type_symbol
 _atom_site_label
 _atom_site_symmetry_multiplicity
 _atom_site_fract_x
 _atom_site_fract_y
 _atom_site_fract_z
 _atom_site_occupancy
  Cs  Cs0  1  0.75000000  0.75000000  0.75000000  1
  Cs  Cs1  1  0.25000000  0.25000000  0.25000000  1
  K  K0  1  0.50000000  0.50000000  0.50000000  1
  Bi  Bi0  1  0.00000000  0.00000000  0.00000000  1
  I  I0  1  0.76168900  0.23831100  0.23831100  1
  I  I1  1  0.23831100  0.23831100  0.76168900  1
  I  I2  1  0.23831100  0.76168900  0.76168900  1
  I  I3  1  0.23831100  0.76168900  0.23831100  1
  I  I4  1  0.76168900  0.23831100  0.76168900  1
  I  I5  1  0.76168900  0.76168900  0.23831100  1
loop_
_geom_bond_atom_site_label_1
_geom_bond_atom_site_label_2
_geom_bond_distance
_geom_bond_site_symmetry_2
Cs0 I5 4.577221 1_556
Cs0 I2 4.577221 1_655
Cs0 I4 4.577221 1_565
Cs0 I3 4.577221 1_556
Cs0 I0 4.577221 1_556
Cs0 I0 4.577221 1_565
Cs0 I2 4.577221 1_555
Cs0 I3 4.577221 1_655
Cs0 I1 4.577221 1_565
Cs0 I1 4.577221 1_655
Cs0 I5 4.577221 1_555
Cs0 I4 4.577221 1_555
Cs1 I1 4.577221 1_555
Cs1 I3 4.577221 1_555
Cs1 I0 4.577221 1_555
Cs1 I4 4.577221 1_455
Cs1 I5 4.577221 1_545
Cs1 I2 4.577221 1_545
Cs1 I4 4.577221 1_554
Cs1 I1 4.577221 1_554
Cs1 I0 4.577221 1_455
Cs1 I5 4.577221 1_455
Cs1 I3 4.577221 1_545
Cs1 I2 4.577221 1_554
Bi0 I1 3.083569 1_554
Bi0 I3 3.083569 1_545
Bi0 I0 3.083569 1_455
Bi0 I4 3.083569 1_454
Bi0 I5 3.083569 1_445
Bi0 I2 3.083569 1_544
I0 K0 3.386064 1_555
I1 K0 3.386064 1_555
I2 K0 3.386064 1_555
I3 K0 3.386064 1_555
I4 K0 3.386064 1_555
I5 K0 3.386064 1_555
