# generated using pymatgen
data_NbNiGe
_symmetry_space_group_name_H-M   'P 1'
_cell_length_a   3.75823376
_cell_length_b   6.31382525
_cell_length_c   7.19147975
_cell_angle_alpha   90.00000000
_cell_angle_beta   90.00000000
_cell_angle_gamma   90.00000000
_symmetry_Int_Tables_number   1
_chemical_formula_structural   NbNiGe
_chemical_formula_sum   'Nb4 Ni4 Ge4'
_cell_volume   170.64540913
_cell_formula_units_Z   4
loop_
 _symmetry_equiv_pos_site_id
 _symmetry_equiv_pos_as_xyz
  1  'x, y, z'
loop_
 _atom_site_type_symbol
 _atom_site_label
 _atom_site_symmetry_multiplicity
 _atom_site_fract_x
 _atom_site_fract_y
 _atom_site_fract_z
 _atom_site_occupancy
  Nb  Nb0  1  0.25000000  0.01723669  0.82397577  1
  Nb  Nb1  1  0.25000000  0.51723669  0.67602423  1
  Nb  Nb2  1  0.75000000  0.98276331  0.17602423  1
  Nb  Nb3  1  0.75000000  0.48276331  0.32397577  1
  Ni  Ni0  1  0.25000000  0.15839946  0.43012853  1
  Ni  Ni1  1  0.25000000  0.65839946  0.06987147  1
  Ni  Ni2  1  0.75000000  0.84160054  0.56987147  1
  Ni  Ni3  1  0.75000000  0.34160054  0.93012853  1
  Ge  Ge0  1  0.25000000  0.78260637  0.38389453  1
  Ge  Ge1  1  0.25000000  0.28260637  0.11610547  1
  Ge  Ge2  1  0.75000000  0.21739363  0.61610547  1
  Ge  Ge3  1  0.75000000  0.71739363  0.88389453  1
loop_
_geom_bond_atom_site_label_1
_geom_bond_atom_site_label_2
_geom_bond_distance
_geom_bond_site_symmetry_2
Nb0 Ni2 2.846078 1_545
Nb0 Ni2 2.846078 1_445
Nb0 Ni1 2.874053 1_546
Nb0 Ni3 2.882371 1_455
Nb0 Ni3 2.882371 1_555
Nb0 Ni0 2.969268 1_555
Nb1 Ni3 2.846078 1_455
Nb1 Ni3 2.846078 1_555
Nb1 Ni0 2.874053 1_555
Nb1 Ni2 2.882371 1_555
Nb1 Ni2 2.882371 1_455
Nb1 Ni1 2.969268 1_556
Nb2 Ni0 2.846078 1_565
Nb2 Ni0 2.846078 1_665
Nb2 Ni3 2.874053 1_564
Nb2 Ni1 2.882371 1_555
Nb2 Ni1 2.882371 1_655
Nb2 Ni2 2.969268 1_555
Nb3 Ni1 2.846078 1_555
Nb3 Ni1 2.846078 1_655
Nb3 Ni2 2.874053 1_555
Nb3 Ni0 2.882371 1_655
Nb3 Ni0 2.882371 1_555
Nb3 Ni3 2.969268 1_554
Ge0 Ni2 2.336363 1_455
Ge0 Ni2 2.336363 1_555
Ge0 Ni1 2.390581 1_555
Ge0 Ni0 2.395875 1_565
Ge0 Nb1 2.687162 1_555
Ge0 Nb3 2.701999 1_455
Ge0 Nb3 2.701999 1_555
Ge0 Nb2 2.713461 1_555
Ge0 Nb2 2.713461 1_455
Ge1 Ni3 2.336363 1_554
Ge1 Ni3 2.336363 1_454
Ge1 Ni0 2.390581 1_555
Ge1 Ni1 2.395875 1_555
Ge1 Nb0 2.687162 1_554
Ge1 Nb2 2.701999 1_545
Ge1 Nb2 2.701999 1_445
Ge1 Nb3 2.713461 1_555
Ge1 Nb3 2.713461 1_455
Ge2 Ni0 2.336363 1_555
Ge2 Ni0 2.336363 1_655
Ge2 Ni3 2.390581 1_555
Ge2 Ni2 2.395875 1_545
Ge2 Nb3 2.687162 1_555
Ge2 Nb1 2.701999 1_655
Ge2 Nb1 2.701999 1_555
Ge2 Nb0 2.713461 1_555
Ge2 Nb0 2.713461 1_655
Ge3 Ni1 2.336363 1_656
Ge3 Ni1 2.336363 1_556
Ge3 Ni2 2.390581 1_555
Ge3 Ni3 2.395875 1_555
Ge3 Nb2 2.687162 1_556
Ge3 Nb0 2.701999 1_665
Ge3 Nb0 2.701999 1_565
Ge3 Nb1 2.713461 1_655
Ge3 Nb1 2.713461 1_555
