# generated using pymatgen
data_La(GePt)2
_symmetry_space_group_name_H-M   'P 1'
_cell_length_a   4.44386700
_cell_length_b   4.44386700
_cell_length_c   10.10645100
_cell_angle_alpha   90.00000000
_cell_angle_beta   90.00000000
_cell_angle_gamma   90.00000000
_symmetry_Int_Tables_number   1
_chemical_formula_structural   La(GePt)2
_chemical_formula_sum   'La2 Ge4 Pt4'
_cell_volume   199.58172858
_cell_formula_units_Z   2
loop_
 _symmetry_equiv_pos_site_id
 _symmetry_equiv_pos_as_xyz
  1  'x, y, z'
loop_
 _atom_site_type_symbol
 _atom_site_label
 _atom_site_symmetry_multiplicity
 _atom_site_fract_x
 _atom_site_fract_y
 _atom_site_fract_z
 _atom_site_occupancy
  La  La0  1  0.00000000  0.50000000  0.25357900  1
  La  La1  1  0.50000000  0.00000000  0.74642100  1
  Ge  Ge0  1  0.50000000  0.50000000  0.50000000  1
  Ge  Ge1  1  0.00000000  0.00000000  0.50000000  1
  Ge  Ge2  1  0.00000000  0.50000000  0.86862000  1
  Ge  Ge3  1  0.50000000  0.00000000  0.13138000  1
  Pt  Pt0  1  0.50000000  0.50000000  0.00000000  1
  Pt  Pt1  1  0.00000000  0.00000000  0.00000000  1
  Pt  Pt2  1  0.00000000  0.50000000  0.62227000  1
  Pt  Pt3  1  0.50000000  0.00000000  0.37773000  1
loop_
_geom_bond_atom_site_label_1
_geom_bond_atom_site_label_2
_geom_bond_distance
_geom_bond_site_symmetry_2
La0 Pt3 3.383536 1_465
La0 Pt3 3.383536 1_455
La0 Pt3 3.383536 1_555
La0 Pt3 3.383536 1_565
La0 Pt1 3.391880 1_555
La0 Pt0 3.391880 1_455
La0 Pt1 3.391880 1_565
La0 Pt0 3.391880 1_555
La1 Pt2 3.383536 1_645
La1 Pt2 3.383536 1_555
La1 Pt2 3.383536 1_655
La1 Pt2 3.383536 1_545
La1 Pt1 3.391880 1_556
La1 Pt0 3.391880 1_546
La1 Pt1 3.391880 1_656
La1 Pt0 3.391880 1_556
Ge0 Pt3 2.542436 1_565
Ge0 Pt2 2.542436 1_555
Ge0 Pt3 2.542436 1_555
Ge0 Pt2 2.542436 1_655
Ge0 La1 3.337557 1_565
Ge0 La0 3.337557 1_555
Ge0 La1 3.337557 1_555
Ge0 La0 3.337557 1_655
Ge1 Pt2 2.542436 1_545
Ge1 Pt2 2.542436 1_555
Ge1 Pt3 2.542436 1_455
Ge1 Pt3 2.542436 1_555
Ge1 La0 3.337557 1_545
Ge1 La1 3.337557 1_455
Ge1 La0 3.337557 1_555
Ge1 La1 3.337557 1_555
Ge2 Pt2 2.489724 1_555
Ge2 Pt0 2.588436 1_556
Ge2 Pt1 2.588436 1_566
Ge2 Pt1 2.588436 1_556
Ge2 Pt0 2.588436 1_456
Ge2 La1 3.376270 1_455
Ge2 La1 3.376270 1_565
Ge2 La1 3.376270 1_465
Ge2 La1 3.376270 1_555
Ge3 Pt3 2.489724 1_555
Ge3 Pt1 2.588436 1_555
Ge3 Pt0 2.588436 1_545
Ge3 Pt1 2.588436 1_655
Ge3 Pt0 2.588436 1_555
Ge3 La0 3.376270 1_645
Ge3 La0 3.376270 1_545
Ge3 La0 3.376270 1_555
Ge3 La0 3.376270 1_655
