# generated using pymatgen
data_LiAcHg2
_symmetry_space_group_name_H-M   'P 1'
_cell_length_a   5.36330379
_cell_length_b   5.36330379
_cell_length_c   5.36330379
_cell_angle_alpha   60.00000000
_cell_angle_beta   60.00000000
_cell_angle_gamma   60.00000000
_symmetry_Int_Tables_number   1
_chemical_formula_structural   LiAcHg2
_chemical_formula_sum   'Li1 Ac1 Hg2'
_cell_volume   109.08930972
_cell_formula_units_Z   1
loop_
 _symmetry_equiv_pos_site_id
 _symmetry_equiv_pos_as_xyz
  1  'x, y, z'
loop_
 _atom_site_type_symbol
 _atom_site_label
 _atom_site_symmetry_multiplicity
 _atom_site_fract_x
 _atom_site_fract_y
 _atom_site_fract_z
 _atom_site_occupancy
  Li  Li0  1  -0.00000000  -0.00000000  0.00000000  1
  Ac  Ac0  1  0.50000000  0.50000000  0.50000000  1
  Hg  Hg0  1  0.25000000  0.25000000  0.25000000  1
  Hg  Hg1  1  0.75000000  0.75000000  0.75000000  1
loop_
_geom_bond_atom_site_label_1
_geom_bond_atom_site_label_2
_geom_bond_distance
_geom_bond_site_symmetry_2
Ac0 Hg0 3.284339 1_556
Ac0 Hg0 3.284339 1_555
Ac0 Hg1 3.284339 1_545
Ac0 Hg1 3.284339 1_455
Ac0 Hg0 3.284339 1_565
Ac0 Hg1 3.284339 1_554
Ac0 Hg1 3.284339 1_555
Ac0 Hg0 3.284339 1_655
Ac0 Li0 3.792428 1_565
Ac0 Li0 3.792428 1_656
Ac0 Li0 3.792428 1_655
Ac0 Li0 3.792428 1_665
Ac0 Li0 3.792428 1_566
Ac0 Li0 3.792428 1_556
Hg0 Li0 3.284339 1_565
Hg0 Li0 3.284339 1_655
Hg0 Li0 3.284339 1_555
Hg0 Li0 3.284339 1_556
Hg1 Li0 3.284339 1_566
Hg1 Li0 3.284339 1_666
Hg1 Li0 3.284339 1_656
Hg1 Li0 3.284339 1_665
