# generated using pymatgen
data_P3W2N2(Cl5O)3
_symmetry_space_group_name_H-M   'P 1'
_cell_length_a   12.45634400
_cell_length_b   12.93069484
_cell_length_c   20.13745863
_cell_angle_alpha   72.21102278
_cell_angle_beta   74.18672938
_cell_angle_gamma   84.82778188
_symmetry_Int_Tables_number   1
_chemical_formula_structural   P3W2N2(Cl5O)3
_chemical_formula_sum   'P12 W8 N8 Cl60 O12'
_cell_volume   2971.47853624
_cell_formula_units_Z   4
loop_
 _symmetry_equiv_pos_site_id
 _symmetry_equiv_pos_as_xyz
  1  'x, y, z'
loop_
 _atom_site_type_symbol
 _atom_site_label
 _atom_site_symmetry_multiplicity
 _atom_site_fract_x
 _atom_site_fract_y
 _atom_site_fract_z
 _atom_site_occupancy
  P  P0  1  0.74007800  0.99844000  0.30454200  1
  P  P1  1  0.25992200  0.00156000  0.69545800  1
  P  P2  1  0.39642400  0.22309600  0.02252300  1
  P  P3  1  0.60357600  0.77690400  0.97747700  1
  P  P4  1  0.09714800  0.69604500  0.38964500  1
  P  P5  1  0.90285200  0.30395500  0.61035500  1
  P  P6  1  0.68711600  0.41822700  0.21363300  1
  P  P7  1  0.31288400  0.58177300  0.78636700  1
  P  P8  1  0.79963600  0.50495200  0.86006800  1
  P  P9  1  0.20036400  0.49504800  0.13993200  1
  P  P10  1  0.78984500  0.90501500  0.62083000  1
  P  P11  1  0.21015500  0.09498500  0.37917000  1
  W  W0  1  0.82466700  0.95360700  0.11739300  1
  W  W1  1  0.17533300  0.04639300  0.88260700  1
  W  W2  1  0.09799600  0.10622300  0.06263000  1
  W  W3  1  0.90200400  0.89377700  0.93737000  1
  W  W4  1  0.37943300  0.55493900  0.40240100  1
  W  W5  1  0.62056700  0.44506100  0.59759900  1
  W  W6  1  0.65537700  0.40951100  0.41252700  1
  W  W7  1  0.34462300  0.59048900  0.58747300  1
  N  N0  1  0.84660800  0.92079600  0.03605400  1
  N  N1  1  0.15339200  0.07920400  0.96394600  1
  N  N2  1  0.97217700  0.03492000  0.09299600  1
  N  N3  1  0.02782300  0.96508000  0.90700400  1
  N  N4  1  0.49289800  0.51566600  0.60021200  1
  N  N5  1  0.50710200  0.48433400  0.39978800  1
  N  N6  1  0.64652600  0.42415500  0.49761600  1
  N  N7  1  0.35347400  0.57584500  0.50238400  1
  Cl  Cl0  1  0.74646700  0.12734300  0.08277200  1
  Cl  Cl1  1  0.25353300  0.87265700  0.91722800  1
  Cl  Cl2  1  0.64701100  0.87809500  0.17702500  1
  Cl  Cl3  1  0.35298900  0.12190500  0.82297500  1
  Cl  Cl4  1  0.91060400  0.80033400  0.17928000  1
  Cl  Cl5  1  0.08939600  0.19966600  0.82072000  1
  Cl  Cl6  1  0.71872500  0.85003800  0.37395100  1
  Cl  Cl7  1  0.28127500  0.14996200  0.62604900  1
  Cl  Cl8  1  0.82137600  0.08094000  0.34399300  1
  Cl  Cl9  1  0.17862400  0.91906000  0.65600700  1
  Cl  Cl10  1  0.58706100  0.06425800  0.31598800  1
  Cl  Cl11  1  0.41293900  0.93574200  0.68401200  1
  Cl  Cl12  1  0.21738500  0.96197200  0.10181400  1
  Cl  Cl13  1  0.78261500  0.03802800  0.89818600  1
  Cl  Cl14  1  0.08977700  0.16592600  0.16305900  1
  Cl  Cl15  1  0.91022300  0.83407400  0.83694100  1
  Cl  Cl16  1  0.03831300  0.27605300  0.00093800  1
  Cl  Cl17  1  0.96168700  0.72394700  0.99906200  1
  Cl  Cl18  1  0.45105200  0.37568500  0.98937600  1
  Cl  Cl19  1  0.54894800  0.62431500  0.01062400  1
  Cl  Cl20  1  0.50904600  0.14957600  0.96031400  1
  Cl  Cl21  1  0.49095400  0.85042400  0.03968600  1
  Cl  Cl22  1  0.42042000  0.16116400  0.12108300  1
  Cl  Cl23  1  0.57958000  0.83883600  0.87891700  1
  Cl  Cl24  1  0.26104200  0.40438000  0.46015000  1
  Cl  Cl25  1  0.73895800  0.59562000  0.53985000  1
  Cl  Cl26  1  0.55342200  0.26737900  0.64359000  1
  Cl  Cl27  1  0.44657800  0.73262100  0.35641000  1
  Cl  Cl28  1  0.35573000  0.55979700  0.28931400  1
  Cl  Cl29  1  0.64427000  0.44020300  0.71068600  1
  Cl  Cl30  1  0.00221900  0.57782500  0.39284800  1
  Cl  Cl31  1  0.99778100  0.42217500  0.60715200  1
  Cl  Cl32  1  0.99871400  0.22176700  0.54660900  1
  Cl  Cl33  1  0.00128600  0.77823300  0.45339100  1
  Cl  Cl34  1  0.88205200  0.20263000  0.71014100  1
  Cl  Cl35  1  0.11794800  0.79737000  0.28985900  1
  Cl  Cl36  1  0.73848000  0.57588100  0.34006600  1
  Cl  Cl37  1  0.26152000  0.42411900  0.65993400  1
  Cl  Cl38  1  0.56267100  0.24340400  0.45008200  1
  Cl  Cl39  1  0.43732900  0.75659600  0.54991800  1
  Cl  Cl40  1  0.83057700  0.32109400  0.39430300  1
  Cl  Cl41  1  0.16942300  0.67890600  0.60569700  1
  Cl  Cl42  1  0.82361600  0.34507300  0.16931700  1
  Cl  Cl43  1  0.17638400  0.65492700  0.83068300  1
  Cl  Cl44  1  0.70956800  0.57566400  0.16205300  1
  Cl  Cl45  1  0.29043200  0.42433600  0.83794700  1
  Cl  Cl46  1  0.56459800  0.37483300  0.18136900  1
  Cl  Cl47  1  0.43540200  0.62516700  0.81863100  1
  Cl  Cl48  1  0.79191000  0.34352300  0.88059300  1
  Cl  Cl49  1  0.20809000  0.65647700  0.11940700  1
  Cl  Cl50  1  0.85732000  0.52166400  0.94024200  1
  Cl  Cl51  1  0.14268000  0.47833600  0.05975800  1
  Cl  Cl52  1  0.92776800  0.55094500  0.77206700  1
  Cl  Cl53  1  0.07223200  0.44905500  0.22793300  1
  Cl  Cl54  1  0.72379700  0.97437900  0.53673900  1
  Cl  Cl55  1  0.27620300  0.02562100  0.46326100  1
  Cl  Cl56  1  0.73010200  0.99914900  0.68621500  1
  Cl  Cl57  1  0.26989800  0.00085100  0.31378500  1
  Cl  Cl58  1  0.70599900  0.76534300  0.67187600  1
  Cl  Cl59  1  0.29400100  0.23465700  0.32812400  1
  O  O0  1  0.79787700  0.00109000  0.22912800  1
  O  O1  1  0.20212300  0.99891000  0.77087200  1
  O  O2  1  0.28066100  0.21478100  0.01868400  1
  O  O3  1  0.71933900  0.78521900  0.98131600  1
  O  O4  1  0.20197800  0.65702500  0.41050300  1
  O  O5  1  0.79802200  0.34297500  0.58949700  1
  O  O6  1  0.66351500  0.39019800  0.29332600  1
  O  O7  1  0.33648500  0.60980200  0.70667400  1
  O  O8  1  0.69423900  0.56368600  0.85350600  1
  O  O9  1  0.30576100  0.43631400  0.14649400  1
  O  O10  1  0.91173000  0.89267300  0.60156200  1
  O  O11  1  0.08827000  0.10732700  0.39843800  1
loop_
_geom_bond_atom_site_label_1
_geom_bond_atom_site_label_2
_geom_bond_distance
_geom_bond_site_symmetry_2
N0 W0 1.759930 1_555
N0 W3 2.044692 1_554
N1 W1 1.759930 1_555
N1 W2 2.044692 1_556
N2 W2 1.753279 1_655
N2 W0 2.064887 1_545
N3 W3 1.753279 1_455
N3 W1 2.064887 1_565
N4 W5 1.757065 1_555
N4 W7 2.048793 1_555
N5 W4 1.757065 1_555
N5 W6 2.048793 1_555
N6 W6 1.753722 1_555
N6 W5 2.047783 1_555
N7 W7 1.753722 1_555
N7 W4 2.047783 1_555
Cl0 W0 2.345283 1_545
Cl1 W1 2.345283 1_565
Cl2 W0 2.348912 1_555
Cl3 W1 2.348912 1_555
Cl4 W0 2.337176 1_555
Cl5 W1 2.337176 1_555
Cl6 P0 1.989286 1_555
Cl7 P1 1.989286 1_555
Cl8 P0 1.986394 1_545
Cl9 P1 1.986394 1_565
Cl10 P0 1.999590 1_545
Cl11 P1 1.999590 1_565
Cl12 W2 2.356596 1_565
Cl13 W3 2.356596 1_545
Cl14 W2 2.350191 1_555
Cl15 W3 2.350191 1_555
Cl16 W2 2.336789 1_555
Cl17 W3 2.336789 1_555
Cl18 P2 1.997856 1_556
Cl19 P3 1.997856 1_554
Cl20 P2 1.992622 1_556
Cl21 P3 1.992622 1_554
Cl22 P2 1.994710 1_555
Cl23 P3 1.994710 1_555
Cl24 W4 2.348817 1_555
Cl25 W5 2.348817 1_555
Cl26 W5 2.336695 1_555
Cl27 W4 2.336695 1_555
Cl28 W4 2.356447 1_555
Cl29 W5 2.356447 1_555
Cl30 P4 1.990806 1_555
Cl31 P5 1.990806 1_555
Cl32 P5 1.993112 1_555
Cl33 P4 1.993112 1_555
Cl34 P5 1.997590 1_555
Cl35 P4 1.997590 1_555
Cl36 W6 2.342859 1_555
Cl37 W7 2.342859 1_555
Cl38 W6 2.344684 1_555
Cl39 W7 2.344684 1_555
Cl40 W6 2.361032 1_555
Cl41 W7 2.361032 1_555
Cl42 P6 1.995250 1_555
Cl43 P7 1.995250 1_555
Cl44 P6 1.988405 1_555
Cl45 P7 1.988405 1_555
Cl46 P6 1.995894 1_555
Cl47 P7 1.995894 1_555
Cl48 P8 2.006156 1_555
Cl49 P9 2.006156 1_555
Cl50 P8 2.010726 1_555
Cl51 P9 2.010726 1_555
Cl52 P8 2.006780 1_555
Cl53 P9 2.006780 1_555
Cl54 P10 2.011732 1_555
Cl55 P11 2.011732 1_555
Cl56 P10 2.012717 1_555
Cl57 P11 2.012717 1_555
Cl58 P10 2.007461 1_555
Cl59 P11 2.007461 1_555
O0 P0 1.484105 1_545
O0 W0 2.439073 1_545
O1 P1 1.484105 1_565
O1 W1 2.439073 1_565
O2 P2 1.480082 1_555
O2 W2 2.578796 1_555
O3 P3 1.480082 1_555
O3 W3 2.578796 1_555
O4 P4 1.478765 1_555
O4 W4 2.462546 1_555
O5 P5 1.478765 1_555
O5 W5 2.462546 1_555
O6 P6 1.483207 1_555
O6 W6 2.462456 1_555
O7 P7 1.483207 1_555
O7 W7 2.462456 1_555
O8 P8 1.473540 1_555
O9 P9 1.473540 1_555
O10 P10 1.467709 1_555
O11 P11 1.467709 1_555
