# generated using pymatgen
data_Sr2IrN3
_symmetry_space_group_name_H-M   'P 1'
_cell_length_a   6.30932612
_cell_length_b   11.34360524
_cell_length_c   12.49502904
_cell_angle_alpha   90.00000124
_cell_angle_beta   92.37714016
_cell_angle_gamma   154.02109092
_symmetry_Int_Tables_number   1
_chemical_formula_structural   Sr2IrN3
_chemical_formula_sum   'Sr8 Ir4 N12'
_cell_volume   389.96866564
_cell_formula_units_Z   4
loop_
 _symmetry_equiv_pos_site_id
 _symmetry_equiv_pos_as_xyz
  1  'x, y, z'
loop_
 _atom_site_type_symbol
 _atom_site_label
 _atom_site_symmetry_multiplicity
 _atom_site_fract_x
 _atom_site_fract_y
 _atom_site_fract_z
 _atom_site_occupancy
  Sr  Sr0  1  0.44209500  0.02143400  0.85582800  1
  Sr  Sr1  1  0.55790500  0.57933900  0.64417200  1
  Sr  Sr2  1  0.55790500  0.97856600  0.14417200  1
  Sr  Sr3  1  0.44209500  0.42066100  0.35582800  1
  Sr  Sr4  1  0.53190000  0.87402500  0.57473400  1
  Sr  Sr5  1  0.46810000  0.34212500  0.92526600  1
  Sr  Sr6  1  0.46810000  0.12597500  0.42526600  1
  Sr  Sr7  1  0.53190000  0.65787500  0.07473400  1
  Ir  Ir0  1  0.58747800  0.28955000  0.66884000  1
  Ir  Ir1  1  0.41252200  0.70207200  0.83116000  1
  Ir  Ir2  1  0.41252200  0.71045000  0.33116000  1
  Ir  Ir3  1  0.58747800  0.29792800  0.16884000  1
  N  N0  1  0.00000000  0.61783600  0.75000000  1
  N  N1  1  0.00000000  0.38216400  0.25000000  1
  N  N2  1  0.58504600  0.12498300  0.63368200  1
  N  N3  1  0.41495400  0.53993700  0.86631800  1
  N  N4  1  0.41495400  0.87501700  0.36631800  1
  N  N5  1  0.58504600  0.46006300  0.13368200  1
  N  N6  1  0.50386700  0.15714400  0.04300500  1
  N  N7  1  0.49613300  0.65327800  0.45699500  1
  N  N8  1  0.49613300  0.84285600  0.95699500  1
  N  N9  1  0.50386700  0.34672200  0.54300500  1
  N  N10  1  0.00000000  0.00122600  0.75000000  1
  N  N11  1  0.00000000  0.99877400  0.25000000  1
loop_
_geom_bond_atom_site_label_1
_geom_bond_atom_site_label_2
_geom_bond_distance
_geom_bond_site_symmetry_2
Ir0 N2 1.904216 1_555
Ir0 N9 1.928043 1_555
Ir0 N10 1.995036 1_555
Ir0 N0 2.006314 1_655
Ir1 N3 1.904216 1_555
Ir1 N8 1.928050 1_555
Ir1 N10 1.995036 1_665
Ir1 N0 2.006314 1_555
Ir2 N4 1.904216 1_555
Ir2 N7 1.928043 1_555
Ir2 N11 1.995036 1_655
Ir2 N1 2.006314 1_555
Ir3 N5 1.904216 1_555
Ir3 N6 1.928050 1_555
Ir3 N11 1.995036 1_545
Ir3 N1 2.006314 1_655
N0 Sr1 2.687673 1_455
N0 Sr0 2.687673 1_565
N0 Sr4 2.752964 1_555
N0 Sr5 2.752964 1_455
N1 Sr3 2.687673 1_555
N1 Sr2 2.687673 1_445
N1 Sr6 2.752964 1_455
N1 Sr7 2.752964 1_555
N2 Sr4 2.649968 1_545
N2 Sr6 2.679879 1_555
N2 Sr1 2.704084 1_655
N2 Sr0 2.863697 1_555
N2 Sr1 2.877241 1_445
N3 Sr5 2.649968 1_555
N3 Sr7 2.679879 1_556
N3 Sr0 2.704084 1_455
N3 Sr1 2.863697 1_555
N3 Sr0 2.877241 1_665
N4 Sr6 2.649968 1_565
N4 Sr4 2.679879 1_555
N4 Sr3 2.704084 1_455
N4 Sr2 2.863697 1_555
N4 Sr3 2.877241 1_665
N5 Sr7 2.649968 1_555
N5 Sr5 2.679879 1_554
N5 Sr2 2.704084 1_655
N5 Sr3 2.863697 1_555
N5 Sr2 2.877241 1_445
N6 Sr0 2.614833 1_554
N6 Sr2 2.650221 1_545
N6 Sr5 2.728023 1_554
N6 Sr7 2.756371 1_445
N6 Sr7 2.835326 1_655
N7 Sr1 2.614838 1_555
N7 Sr3 2.650231 1_555
N7 Sr4 2.728014 1_555
N7 Sr6 2.756371 1_665
N7 Sr6 2.835327 1_455
N8 Sr2 2.614833 1_556
N8 Sr0 2.650221 1_565
N8 Sr7 2.728023 1_556
N8 Sr5 2.756371 1_665
N8 Sr5 2.835326 1_455
N9 Sr3 2.614838 1_555
N9 Sr1 2.650231 1_555
N9 Sr6 2.728014 1_555
N9 Sr4 2.756371 1_445
N9 Sr4 2.835327 1_655
N10 Sr4 2.720683 1_445
N10 Sr5 2.720683 1_555
N10 Sr0 2.850588 1_555
N10 Sr1 2.850588 1_445
N11 Sr6 2.720683 1_565
N11 Sr7 2.720683 1_455
N11 Sr2 2.850588 1_455
N11 Sr3 2.850588 1_565
