# generated using pymatgen
data_CoRe3H15(NO3)5
_symmetry_space_group_name_H-M   'P 1'
_cell_length_a   8.13245800
_cell_length_b   13.34906400
_cell_length_c   19.52512601
_cell_angle_alpha   90.00000000
_cell_angle_beta   114.10304211
_cell_angle_gamma   90.00000000
_symmetry_Int_Tables_number   1
_chemical_formula_structural   CoRe3H15(NO3)5
_chemical_formula_sum   'Co4 Re12 H60 N20 O60'
_cell_volume   1934.85340552
_cell_formula_units_Z   4
loop_
 _symmetry_equiv_pos_site_id
 _symmetry_equiv_pos_as_xyz
  1  'x, y, z'
loop_
 _atom_site_type_symbol
 _atom_site_label
 _atom_site_symmetry_multiplicity
 _atom_site_fract_x
 _atom_site_fract_y
 _atom_site_fract_z
 _atom_site_occupancy
  Co  Co0  1  0.51090800  0.24953500  0.64030900  1
  Co  Co1  1  0.51090800  0.25046500  0.14030900  1
  Co  Co2  1  0.48909200  0.75046500  0.35969100  1
  Co  Co3  1  0.48909200  0.74953500  0.85969100  1
  Re  Re0  1  0.80650300  0.33887400  0.93710800  1
  Re  Re1  1  0.80650300  0.16112600  0.43710800  1
  Re  Re2  1  0.19349700  0.66112600  0.06289200  1
  Re  Re3  1  0.19349700  0.83887400  0.56289200  1
  Re  Re4  1  0.21054900  0.36828400  0.83448400  1
  Re  Re5  1  0.21054900  0.13171600  0.33448400  1
  Re  Re6  1  0.78945100  0.63171600  0.16551600  1
  Re  Re7  1  0.78945100  0.86828400  0.66551600  1
  Re  Re8  1  0.00262100  0.02858600  0.88067800  1
  Re  Re9  1  0.00262100  0.47141400  0.38067800  1
  Re  Re10  1  0.99737900  0.97141400  0.11932200  1
  Re  Re11  1  0.99737900  0.52858600  0.61932200  1
  H  H0  1  0.30764400  0.14557100  0.52819500  1
  H  H1  1  0.30764400  0.35442900  0.02819500  1
  H  H2  1  0.69235600  0.85442900  0.47180500  1
  H  H3  1  0.69235600  0.64557100  0.97180500  1
  H  H4  1  0.44101500  0.07132000  0.59662300  1
  H  H5  1  0.44101500  0.42868000  0.09662300  1
  H  H6  1  0.55898500  0.92868000  0.40337700  1
  H  H7  1  0.55898500  0.57132000  0.90337700  1
  H  H8  1  0.52370400  0.13026600  0.54192200  1
  H  H9  1  0.52370400  0.36973400  0.04192200  1
  H  H10  1  0.47629600  0.86973400  0.45807800  1
  H  H11  1  0.47629600  0.63026600  0.95807800  1
  H  H12  1  0.77806000  0.19812100  0.61441600  1
  H  H13  1  0.77806000  0.30187900  0.11441600  1
  H  H14  1  0.22194000  0.80187900  0.38558400  1
  H  H15  1  0.22194000  0.69812100  0.88558400  1
  H  H16  1  0.81023900  0.16360200  0.70231600  1
  H  H17  1  0.81023900  0.33639800  0.20231600  1
  H  H18  1  0.18976100  0.83639800  0.29768400  1
  H  H19  1  0.18976100  0.66360200  0.79768400  1
  H  H20  1  0.84356600  0.28224400  0.68446200  1
  H  H21  1  0.84356600  0.21775600  0.18446200  1
  H  H22  1  0.15643400  0.71775600  0.31553800  1
  H  H23  1  0.15643400  0.78224400  0.81553800  1
  H  H24  1  0.56261200  0.43492200  0.67866300  1
  H  H25  1  0.56261200  0.06507800  0.17866300  1
  H  H26  1  0.43738800  0.56507800  0.32133700  1
  H  H27  1  0.43738800  0.93492200  0.82133700  1
  H  H28  1  0.71517000  0.36342000  0.74458000  1
  H  H29  1  0.71517000  0.13658000  0.24458000  1
  H  H30  1  0.28483000  0.63658000  0.25542000  1
  H  H31  1  0.28483000  0.86342000  0.75542000  1
  H  H32  1  0.50104200  0.36878300  0.73698000  1
  H  H33  1  0.50104200  0.13121700  0.23698000  1
  H  H34  1  0.49895800  0.63121700  0.26302000  1
  H  H35  1  0.49895800  0.86878300  0.76302000  1
  H  H36  1  0.24183300  0.36208200  0.61639500  1
  H  H37  1  0.24183300  0.13791800  0.11639500  1
  H  H38  1  0.75816700  0.63791800  0.38360500  1
  H  H39  1  0.75816700  0.86208200  0.88360500  1
  H  H40  1  0.21819000  0.24775500  0.64842900  1
  H  H41  1  0.21819000  0.25224500  0.14842900  1
  H  H42  1  0.78181000  0.75224500  0.35157100  1
  H  H43  1  0.78181000  0.74775500  0.85157100  1
  H  H44  1  0.17721800  0.26255500  0.55792400  1
  H  H45  1  0.17721800  0.23744500  0.05792400  1
  H  H46  1  0.82278200  0.73744500  0.44207600  1
  H  H47  1  0.82278200  0.76255500  0.94207600  1
  H  H48  1  0.56760900  0.40189300  0.57301200  1
  H  H49  1  0.56760900  0.09810700  0.07301200  1
  H  H50  1  0.43239100  0.59810700  0.42698800  1
  H  H51  1  0.43239100  0.90189300  0.92698800  1
  H  H52  1  0.37458100  0.34903500  0.51464100  1
  H  H53  1  0.37458100  0.15096500  0.01464100  1
  H  H54  1  0.62541900  0.65096500  0.48535900  1
  H  H55  1  0.62541900  0.84903500  0.98535900  1
  H  H56  1  0.57298700  0.30097300  0.52570400  1
  H  H57  1  0.57298700  0.19902700  0.02570400  1
  H  H58  1  0.42701300  0.69902700  0.47429600  1
  H  H59  1  0.42701300  0.80097300  0.97429600  1
  N  N0  1  0.43744100  0.13678500  0.56824900  1
  N  N1  1  0.43744100  0.36321500  0.06824900  1
  N  N2  1  0.56255900  0.86321500  0.43175100  1
  N  N3  1  0.56255900  0.63678500  0.93175100  1
  N  N4  1  0.76519200  0.21986800  0.66267500  1
  N  N5  1  0.76519200  0.28013200  0.16267500  1
  N  N6  1  0.23480800  0.78013200  0.33732500  1
  N  N7  1  0.23480800  0.71986800  0.83732500  1
  N  N8  1  0.58126900  0.36799100  0.70728800  1
  N  N9  1  0.58126900  0.13200900  0.20728800  1
  N  N10  1  0.41873100  0.63200900  0.29271200  1
  N  N11  1  0.41873100  0.86799100  0.79271200  1
  N  N12  1  0.25736500  0.28554900  0.61176400  1
  N  N13  1  0.25736500  0.21445100  0.11176400  1
  N  N14  1  0.74263500  0.71445100  0.38823600  1
  N  N15  1  0.74263500  0.78554900  0.88823600  1
  N  N16  1  0.50425500  0.33486900  0.55357300  1
  N  N17  1  0.50425500  0.16513100  0.05357300  1
  N  N18  1  0.49574500  0.66513100  0.44642700  1
  N  N19  1  0.49574500  0.83486900  0.94642700  1
  O  O0  1  0.73418100  0.24462400  0.86961600  1
  O  O1  1  0.73418100  0.25537600  0.36961600  1
  O  O2  1  0.26581900  0.75537600  0.13038400  1
  O  O3  1  0.26581900  0.74462400  0.63038400  1
  O  O4  1  0.72039200  0.31593900  0.00537900  1
  O  O5  1  0.72039200  0.18406100  0.50537900  1
  O  O6  1  0.27960800  0.68406100  0.99462100  1
  O  O7  1  0.27960800  0.81593900  0.49462100  1
  O  O8  1  0.04371400  0.33804500  0.98092900  1
  O  O9  1  0.04371400  0.16195500  0.48092900  1
  O  O10  1  0.95628600  0.66195500  0.01907100  1
  O  O11  1  0.95628600  0.83804500  0.51907100  1
  O  O12  1  0.72728200  0.45461000  0.89294400  1
  O  O13  1  0.72728200  0.04539000  0.39294400  1
  O  O14  1  0.27271800  0.54539000  0.10705600  1
  O  O15  1  0.27271800  0.95461000  0.60705600  1
  O  O16  1  0.97413100  0.35559100  0.79257300  1
  O  O17  1  0.97413100  0.14440900  0.29257300  1
  O  O18  1  0.02586900  0.64440900  0.20742700  1
  O  O19  1  0.02586900  0.85559100  0.70742700  1
  O  O20  1  0.29412500  0.36106700  0.76448300  1
  O  O21  1  0.29412500  0.13893300  0.26448300  1
  O  O22  1  0.70587500  0.63893300  0.23551700  1
  O  O23  1  0.70587500  0.86106700  0.73551700  1
  O  O24  1  0.27093200  0.48336000  0.88119300  1
  O  O25  1  0.27093200  0.01664000  0.38119300  1
  O  O26  1  0.72906800  0.51664000  0.11880700  1
  O  O27  1  0.72906800  0.98336000  0.61880700  1
  O  O28  1  0.30719400  0.27237900  0.89980100  1
  O  O29  1  0.30719400  0.22762100  0.39980100  1
  O  O30  1  0.69280600  0.72762100  0.10019900  1
  O  O31  1  0.69280600  0.77237900  0.60019900  1
  O  O32  1  0.12865300  0.10066200  0.96033100  1
  O  O33  1  0.12865300  0.39933800  0.46033100  1
  O  O34  1  0.87134700  0.89933800  0.03966900  1
  O  O35  1  0.87134700  0.60066200  0.53966900  1
  O  O36  1  0.98114200  0.09203800  0.79895400  1
  O  O37  1  0.98114200  0.40796200  0.29895400  1
  O  O38  1  0.01885800  0.90796200  0.20104600  1
  O  O39  1  0.01885800  0.59203800  0.70104600  1
  O  O40  1  0.78921500  0.99974000  0.87850800  1
  O  O41  1  0.78921500  0.50026000  0.37850800  1
  O  O42  1  0.21078500  0.00026000  0.12149200  1
  O  O43  1  0.21078500  0.49974000  0.62149200  1
  O  O44  1  0.11909200  0.91573700  0.88626300  1
  O  O45  1  0.11909200  0.58426300  0.38626300  1
  O  O46  1  0.88090800  0.08426300  0.11373700  1
  O  O47  1  0.88090800  0.41573700  0.61373700  1
  O  O48  1  0.51212100  0.17734900  0.70874400  1
  O  O49  1  0.51212100  0.32265100  0.20874400  1
  O  O50  1  0.48787900  0.82265100  0.29125600  1
  O  O51  1  0.48787900  0.67734900  0.79125600  1
  O  O52  1  0.81077600  0.59915100  0.80249900  1
  O  O53  1  0.81077600  0.90084900  0.30249900  1
  O  O54  1  0.18922400  0.40084900  0.19750100  1
  O  O55  1  0.18922400  0.09915100  0.69750100  1
  O  O56  1  0.47504500  0.06366000  0.89083300  1
  O  O57  1  0.47504500  0.43634000  0.39083300  1
  O  O58  1  0.52495500  0.93634000  0.10916700  1
  O  O59  1  0.52495500  0.56366000  0.60916700  1
loop_
_geom_bond_atom_site_label_1
_geom_bond_atom_site_label_2
_geom_bond_distance
_geom_bond_site_symmetry_2
Co0 O48 1.644178 1_555
Co0 N12 1.963334 1_555
Co0 N4 1.971391 1_555
Co0 N0 1.978717 1_555
Co0 N8 1.981649 1_555
Co0 N16 2.023302 1_555
Co1 O49 1.644178 1_555
Co1 N13 1.963334 1_555
Co1 N5 1.971391 1_555
Co1 N1 1.978717 1_555
Co1 N9 1.981649 1_555
Co1 N17 2.023302 1_555
Co2 O50 1.644178 1_555
Co2 N14 1.963334 1_555
Co2 N6 1.971391 1_555
Co2 N2 1.978717 1_555
Co2 N10 1.981649 1_555
Co2 N18 2.023302 1_555
Co3 O51 1.644178 1_555
Co3 N15 1.963334 1_555
Co3 N7 1.971391 1_555
Co3 N3 1.978717 1_555
Co3 N11 1.981649 1_555
Co3 N19 2.023302 1_555
H0 N0 1.032158 1_555
H1 N1 1.032158 1_555
H2 N2 1.032158 1_555
H3 N3 1.032158 1_555
H4 N0 1.028742 1_555
H5 N1 1.028742 1_555
H6 N2 1.028742 1_555
H7 N3 1.028742 1_555
H8 N0 1.028828 1_555
H9 N1 1.028828 1_555
H10 N2 1.028828 1_555
H11 N3 1.028828 1_555
H12 N4 1.031321 1_555
H13 N5 1.031321 1_555
H14 N6 1.031321 1_555
H15 N7 1.031321 1_555
H16 N4 1.032393 1_555
H17 N5 1.032393 1_555
H18 N6 1.032393 1_555
H19 N7 1.032393 1_555
H20 N4 1.029115 1_555
H21 N5 1.029115 1_555
H22 N6 1.029115 1_555
H23 N7 1.029115 1_555
H24 N8 1.031706 1_555
H25 N9 1.031706 1_555
H26 N10 1.031706 1_555
H27 N11 1.031706 1_555
H28 N8 1.035420 1_555
H29 N9 1.035420 1_555
H30 N10 1.035420 1_555
H31 N11 1.035420 1_555
H32 N8 1.034808 1_555
H33 N9 1.034808 1_555
H34 N10 1.034808 1_555
H35 N11 1.034808 1_555
H36 N12 1.037890 1_555
H37 N13 1.037890 1_555
H38 N14 1.037890 1_555
H39 N15 1.037890 1_555
H40 N12 1.027040 1_555
H41 N13 1.027040 1_555
H42 N14 1.027040 1_555
H43 N15 1.027040 1_555
H44 N12 1.031751 1_555
H45 N13 1.031751 1_555
H46 N14 1.031751 1_555
H47 N15 1.031751 1_555
H48 N16 1.024839 1_555
H49 N17 1.024839 1_555
H50 N18 1.024839 1_555
H51 N19 1.024839 1_555
H52 N16 1.034875 1_555
H53 N17 1.034875 1_555
H54 N18 1.034875 1_555
H55 N19 1.034875 1_555
H56 N16 1.030384 1_555
H57 N17 1.030384 1_555
H58 N18 1.030384 1_555
H59 N19 1.030384 1_555
O0 Re0 1.741378 1_555
O1 Re1 1.741378 1_555
O2 Re2 1.741378 1_555
O3 Re3 1.741378 1_555
O4 Re0 1.767335 1_554
O5 Re1 1.767335 1_555
O6 Re2 1.767335 1_556
O7 Re3 1.767335 1_555
O8 Re0 1.762254 1_455
O9 Re1 1.762254 1_455
O10 Re2 1.762254 1_655
O11 Re3 1.762254 1_655
O12 Re0 1.758357 1_555
O13 Re1 1.758357 1_555
O14 Re2 1.758357 1_555
O15 Re3 1.758357 1_555
O16 Re4 1.763499 1_655
O17 Re5 1.763499 1_655
O18 Re6 1.763499 1_455
O19 Re7 1.763499 1_455
O20 Re4 1.760134 1_555
O21 Re5 1.760134 1_555
O22 Re6 1.760134 1_555
O23 Re7 1.760134 1_555
O24 Re4 1.751251 1_555
O25 Re5 1.751251 1_555
O26 Re6 1.751251 1_555
O27 Re7 1.751251 1_555
O28 Re4 1.750578 1_555
O29 Re5 1.750578 1_555
O30 Re6 1.750578 1_555
O31 Re7 1.750578 1_555
O32 Re8 1.758710 1_555
O33 Re9 1.758710 1_555
O34 Re10 1.758710 1_555
O35 Re11 1.758710 1_555
O36 Re8 1.751136 1_655
O37 Re9 1.751136 1_655
O38 Re10 1.751136 1_455
O39 Re11 1.751136 1_455
O40 Re8 1.761257 1_665
O41 Re9 1.761257 1_655
O42 Re10 1.761257 1_445
O43 Re11 1.761257 1_455
O44 Re8 1.758987 1_565
O45 Re9 1.758987 1_555
O46 Re10 1.758987 1_545
O47 Re11 1.758987 1_555
