# generated using pymatgen
data_KLaHf4O12
_symmetry_space_group_name_H-M   'P 1'
_cell_length_a   5.77580221
_cell_length_b   5.77580221
_cell_length_c   8.29726731
_cell_angle_alpha   90.00000000
_cell_angle_beta   90.00000000
_cell_angle_gamma   89.36471587
_symmetry_Int_Tables_number   1
_chemical_formula_structural   KLaHf4O12
_chemical_formula_sum   'K1 La1 Hf4 O12'
_cell_volume   276.77891975
_cell_formula_units_Z   1
loop_
 _symmetry_equiv_pos_site_id
 _symmetry_equiv_pos_as_xyz
  1  'x, y, z'
loop_
 _atom_site_type_symbol
 _atom_site_label
 _atom_site_symmetry_multiplicity
 _atom_site_fract_x
 _atom_site_fract_y
 _atom_site_fract_z
 _atom_site_occupancy
  K  K0  1  0.99983696  0.00016304  -0.00000000  1
  La  La0  1  0.50551547  0.49448453  0.50000000  1
  Hf  Hf0  1  0.50031609  0.99770968  0.24261521  1
  Hf  Hf1  1  0.50031609  0.99770968  0.75738479  1
  Hf  Hf2  1  0.00229032  0.49968391  0.75738479  1
  Hf  Hf3  1  0.00229032  0.49968391  0.24261521  1
  O  O0  1  0.27875011  0.27522180  0.28036638  1
  O  O1  1  0.72477820  0.72124989  0.28036638  1
  O  O2  1  0.72477820  0.72124989  0.71963362  1
  O  O3  1  0.27875011  0.27522180  0.71963362  1
  O  O4  1  0.23048699  0.76951301  0.24168640  1
  O  O5  1  0.74749035  0.25250965  0.29096658  1
  O  O6  1  0.74749035  0.25250965  0.70903342  1
  O  O7  1  0.23048699  0.76951301  0.75831360  1
  O  O8  1  0.51842049  0.00929577  -0.00000000  1
  O  O9  1  0.47953193  0.95073318  0.50000000  1
  O  O10  1  0.99070423  0.48157951  -0.00000000  1
  O  O11  1  0.04926682  0.52046807  0.50000000  1
loop_
_geom_bond_atom_site_label_1
_geom_bond_atom_site_label_2
_geom_bond_distance
_geom_bond_site_symmetry_2
K0 O4 2.744353 1_645
K0 O7 2.744353 1_644
K0 O10 2.780482 1_555
K0 O8 2.780482 1_555
K0 O8 2.996285 1_655
K0 O10 2.996285 1_545
K0 O6 3.167021 1_554
K0 O5 3.167021 1_555
K0 O0 3.253825 1_655
K0 O3 3.253825 1_654
K0 O2 3.253825 1_544
K0 O1 3.253825 1_545
La0 O1 2.583997 1_555
La0 O2 2.583997 1_555
La0 O3 2.583997 1_555
La0 O0 2.583997 1_555
La0 O5 2.621339 1_555
La0 O6 2.621339 1_555
La0 O11 2.637810 1_555
La0 O9 2.637810 1_555
Hf0 O8 2.016906 1_565
Hf0 O4 2.052228 1_555
Hf0 O0 2.063846 1_565
Hf0 O1 2.069465 1_555
Hf0 O5 2.100355 1_565
Hf0 O9 2.156269 1_555
Hf1 O8 2.016906 1_566
Hf1 O7 2.052228 1_555
Hf1 O3 2.063846 1_565
Hf1 O2 2.069465 1_555
Hf1 O6 2.100355 1_565
Hf1 O9 2.156269 1_555
Hf2 O10 2.016906 1_456
Hf2 O7 2.052228 1_555
Hf2 O2 2.063846 1_455
Hf2 O3 2.069465 1_555
Hf2 O6 2.100355 1_455
Hf2 O11 2.156269 1_555
Hf3 O10 2.016906 1_455
Hf3 O4 2.052228 1_555
Hf3 O1 2.063846 1_455
Hf3 O0 2.069465 1_555
Hf3 O5 2.100355 1_455
Hf3 O11 2.156269 1_555
