# generated using pymatgen
data_SnH12C6(S2N)2
_symmetry_space_group_name_H-M   'P 1'
_cell_length_a   7.69755065
_cell_length_b   7.69755065
_cell_length_c   12.44437587
_cell_angle_alpha   78.66908331
_cell_angle_beta   78.66908331
_cell_angle_gamma   107.52497346
_symmetry_Int_Tables_number   1
_chemical_formula_structural   SnH12C6(S2N)2
_chemical_formula_sum   'Sn2 H24 C12 S8 N4'
_cell_volume   663.16000105
_cell_formula_units_Z   2
loop_
 _symmetry_equiv_pos_site_id
 _symmetry_equiv_pos_as_xyz
  1  'x, y, z'
loop_
 _atom_site_type_symbol
 _atom_site_label
 _atom_site_symmetry_multiplicity
 _atom_site_fract_x
 _atom_site_fract_y
 _atom_site_fract_z
 _atom_site_occupancy
  Sn  Sn0  1  0.52308800  0.47691200  0.25000000  1
  Sn  Sn1  1  0.47691200  0.52308800  0.75000000  1
  H  H0  1  0.02016700  0.22649700  0.63142200  1
  H  H1  1  0.77350300  0.97983300  0.86857800  1
  H  H2  1  0.97983300  0.77350300  0.36857800  1
  H  H3  1  0.22649700  0.02016700  0.13142200  1
  H  H4  1  0.82978900  0.01830200  0.63923900  1
  H  H5  1  0.98169800  0.17021100  0.86076100  1
  H  H6  1  0.17021100  0.98169800  0.36076100  1
  H  H7  1  0.01830200  0.82978900  0.13923900  1
  H  H8  1  0.78702000  0.23435600  0.63937900  1
  H  H9  1  0.76564400  0.21298000  0.86062100  1
  H  H10  1  0.21298000  0.76564400  0.36062100  1
  H  H11  1  0.23435600  0.78702000  0.13937900  1
  H  H12  1  0.81960700  0.20375200  0.34225600  1
  H  H13  1  0.79624800  0.18039300  0.15774400  1
  H  H14  1  0.18039300  0.79624800  0.65774400  1
  H  H15  1  0.20375200  0.81960700  0.84225600  1
  H  H16  1  0.66787400  0.22234700  0.46501800  1
  H  H17  1  0.77765300  0.33212600  0.03498200  1
  H  H18  1  0.33212600  0.77765300  0.53498200  1
  H  H19  1  0.22234700  0.66787400  0.96501800  1
  H  H20  1  0.70957300  0.00476200  0.46499100  1
  H  H21  1  0.99523800  0.29042700  0.03500900  1
  H  H22  1  0.29042700  0.99523800  0.53500900  1
  H  H23  1  0.00476200  0.70957300  0.96499100  1
  C  C0  1  0.11309200  0.32539700  0.41425900  1
  C  C1  1  0.67460300  0.88690800  0.08574100  1
  C  C2  1  0.88690800  0.67460300  0.58574100  1
  C  C3  1  0.32539700  0.11309200  0.91425900  1
  C  C4  1  0.89060100  0.17330500  0.60524600  1
  C  C5  1  0.82669500  0.10940000  0.89475400  1
  C  C6  1  0.10939900  0.82669500  0.39475400  1
  C  C7  1  0.17330500  0.89060100  0.10524600  1
  C  C8  1  0.77366000  0.16017800  0.43543300  1
  C  C9  1  0.83982200  0.22634000  0.06456700  1
  C  C10  1  0.22634000  0.83982200  0.56456700  1
  C  C11  1  0.16017800  0.77366000  0.93543300  1
  S  S0  1  0.16032200  0.38178100  0.26645700  1
  S  S1  1  0.61821900  0.83967800  0.23354300  1
  S  S2  1  0.83967800  0.61821900  0.73354300  1
  S  S3  1  0.38178100  0.16032200  0.76645700  1
  S  S4  1  0.29985700  0.39968000  0.47107500  1
  S  S5  1  0.60032000  0.70014300  0.02892500  1
  S  S6  1  0.70014300  0.60032000  0.52892500  1
  S  S7  1  0.39968000  0.29985700  0.97107500  1
  N  N0  1  0.93634000  0.22512000  0.48068200  1
  N  N1  1  0.77488000  0.06366000  0.01931800  1
  N  N2  1  0.06366000  0.77488000  0.51931800  1
  N  N3  1  0.22512000  0.93634000  0.98068200  1
loop_
_geom_bond_atom_site_label_1
_geom_bond_atom_site_label_2
_geom_bond_distance
_geom_bond_site_symmetry_2
C0 N0 1.343529 1_455
C0 S4 1.719554 1_555
C0 S0 1.741294 1_555
C1 N1 1.343529 1_565
C1 S5 1.719554 1_555
C1 S1 1.741294 1_555
C2 N2 1.343529 1_655
C2 S6 1.719554 1_555
C2 S2 1.741294 1_555
C3 N3 1.343529 1_545
C3 S7 1.719554 1_555
C3 S3 1.741294 1_555
C4 H0 1.096624 1_655
C4 H8 1.099093 1_555
C4 H4 1.099616 1_555
C4 N0 1.464220 1_555
C5 H1 1.096631 1_545
C5 H9 1.099087 1_555
C5 H5 1.099615 1_555
C5 N1 1.464219 1_556
C6 H2 1.096624 1_455
C6 H10 1.099093 1_555
C6 H6 1.099616 1_555
C6 N2 1.464220 1_555
C7 H3 1.096624 1_565
C7 H11 1.099093 1_555
C7 H7 1.099616 1_555
C7 N3 1.464220 1_554
C8 H12 1.093929 1_555
C8 H20 1.100093 1_555
C8 H16 1.101698 1_555
C8 N0 1.464843 1_555
C9 H13 1.093929 1_555
C9 H21 1.100093 1_555
C9 H17 1.101698 1_555
C9 N1 1.464843 1_555
C10 H14 1.093929 1_555
C10 H22 1.100093 1_555
C10 H18 1.101698 1_555
C10 N2 1.464843 1_555
C11 H15 1.093929 1_555
C11 H23 1.100093 1_555
C11 H19 1.101698 1_555
C11 N3 1.464843 1_555
S0 Sn0 2.619274 1_555
S1 Sn0 2.619274 1_555
S2 Sn1 2.619274 1_555
S3 Sn1 2.619274 1_555
S4 Sn0 2.785558 1_555
S5 Sn0 2.785558 1_555
S6 Sn1 2.785558 1_555
S7 Sn1 2.785558 1_555
