# generated using pymatgen
data_SmGa2Co3
_symmetry_space_group_name_H-M   'P 1'
_cell_length_a   3.85013200
_cell_length_b   9.06518928
_cell_length_c   9.05254587
_cell_angle_alpha   120.04621168
_cell_angle_beta   90.00000000
_cell_angle_gamma   90.00000000
_symmetry_Int_Tables_number   1
_chemical_formula_structural   SmGa2Co3
_chemical_formula_sum   'Sm3 Ga6 Co9'
_cell_volume   273.49629045
_cell_formula_units_Z   3
loop_
 _symmetry_equiv_pos_site_id
 _symmetry_equiv_pos_as_xyz
  1  'x, y, z'
loop_
 _atom_site_type_symbol
 _atom_site_label
 _atom_site_symmetry_multiplicity
 _atom_site_fract_x
 _atom_site_fract_y
 _atom_site_fract_z
 _atom_site_occupancy
  Sm  Sm0  1  0.00000000  0.99999100  0.00000000  1
  Sm  Sm1  1  0.50000000  0.33356800  0.66714000  1
  Sm  Sm2  1  0.50000000  0.66642800  0.33286000  1
  Ga  Ga0  1  0.50000000  0.31468100  0.00000000  1
  Ga  Ga1  1  0.50000000  0.68560100  0.68555900  1
  Ga  Ga2  1  0.50000000  0.00004200  0.31444100  1
  Ga  Ga3  1  0.50000000  0.68530900  0.00000000  1
  Ga  Ga4  1  0.50000000  0.31438600  0.31444200  1
  Ga  Ga5  1  0.50000000  0.99994400  0.68555800  1
  Co  Co0  1  0.00000000  0.49999500  0.00000000  1
  Co  Co1  1  0.00000000  0.49999200  0.50000000  1
  Co  Co2  1  0.00000000  0.99999200  0.50000000  1
  Co  Co3  1  0.00000000  0.18333900  0.36669000  1
  Co  Co4  1  0.00000000  0.18328500  0.81648700  1
  Co  Co5  1  0.00000000  0.63319400  0.81648800  1
  Co  Co6  1  0.00000000  0.81664900  0.63331000  1
  Co  Co7  1  0.00000000  0.36679800  0.18351300  1
  Co  Co8  1  0.00000000  0.81670600  0.18351200  1
loop_
_geom_bond_atom_site_label_1
_geom_bond_atom_site_label_2
_geom_bond_distance
_geom_bond_site_symmetry_2
Ga0 Ga4 2.847841 1_555
Ga0 Ga5 2.847841 1_544
Ga0 Sm1 3.102499 1_554
Ga0 Sm2 3.102499 1_555
Ga0 Sm0 3.441499 1_545
Ga0 Sm0 3.441499 1_645
Ga1 Ga3 2.847818 1_556
Ga1 Ga5 2.849583 1_555
Ga1 Sm2 3.109441 1_555
Ga1 Sm1 3.111110 1_555
Ga1 Sm0 3.436143 1_656
Ga1 Sm0 3.436143 1_556
Ga2 Ga3 2.847818 1_545
Ga2 Ga4 2.849583 1_555
Ga2 Sm1 3.109441 1_555
Ga2 Sm2 3.111110 1_545
Ga2 Sm0 3.436143 1_645
Ga2 Sm0 3.436143 1_545
Ga3 Sm2 3.102470 1_555
Ga3 Sm1 3.102470 1_554
Ga3 Sm0 3.441439 1_555
Ga3 Sm0 3.441439 1_655
Ga4 Sm1 3.109395 1_555
Ga4 Sm2 3.111195 1_555
Ga4 Sm0 3.436165 1_545
Ga4 Sm0 3.436165 1_645
Ga5 Sm2 3.109395 1_555
Ga5 Sm1 3.111195 1_565
Ga5 Sm0 3.436165 1_556
Ga5 Sm0 3.436165 1_656
Co0 Co7 2.495282 1_555
Co0 Co4 2.495282 1_554
Co0 Co5 2.495289 1_554
Co0 Co8 2.495289 1_555
Co0 Ga0 2.554988 1_455
Co0 Ga0 2.554988 1_555
Co0 Ga3 2.554988 1_555
Co0 Ga3 2.554988 1_455
Co0 Sm1 3.241790 1_454
Co0 Sm1 3.241790 1_554
Co0 Sm2 3.241790 1_555
Co0 Sm2 3.241790 1_455
Co1 Co7 2.490392 1_555
Co1 Co5 2.490394 1_555
Co1 Co3 2.495450 1_555
Co1 Co6 2.495483 1_555
Co1 Ga4 2.555043 1_455
Co1 Ga4 2.555043 1_555
Co1 Ga1 2.555055 1_555
Co1 Ga1 2.555055 1_455
Co1 Sm1 3.249171 1_455
Co1 Sm1 3.249171 1_555
Co1 Sm2 3.249246 1_455
Co1 Sm2 3.249246 1_555
Co2 Co4 2.490392 1_565
Co2 Co8 2.490394 1_555
Co2 Co6 2.495450 1_555
Co2 Co3 2.495483 1_565
Co2 Ga5 2.555043 1_555
Co2 Ga5 2.555043 1_455
Co2 Ga2 2.555055 1_465
Co2 Ga2 2.555055 1_565
Co2 Sm2 3.249171 1_555
Co2 Sm2 3.249171 1_455
Co2 Sm1 3.249246 1_565
Co2 Sm1 3.249246 1_465
Co3 Ga4 2.429715 1_455
Co3 Ga4 2.429715 1_555
Co3 Ga2 2.429724 1_555
Co3 Ga2 2.429724 1_455
Co3 Sm0 2.873413 1_545
Co3 Sm1 3.041192 1_555
Co3 Sm1 3.041192 1_455
Co4 Ga5 2.429062 1_545
Co4 Ga5 2.429062 1_445
Co4 Ga0 2.429591 1_456
Co4 Ga0 2.429591 1_556
Co4 Sm0 2.878346 1_546
Co4 Sm1 3.038767 1_555
Co4 Sm1 3.038767 1_455
Co5 Ga1 2.429042 1_455
Co5 Ga1 2.429042 1_555
Co5 Ga3 2.429589 1_556
Co5 Ga3 2.429589 1_456
Co5 Sm0 2.878268 1_556
Co5 Sm1 3.038743 1_555
Co5 Sm1 3.038743 1_455
Co6 Ga5 2.429715 1_555
Co6 Ga5 2.429715 1_455
Co6 Ga1 2.429724 1_455
Co6 Ga1 2.429724 1_555
Co6 Sm0 2.873413 1_556
Co6 Sm2 3.041192 1_555
Co6 Sm2 3.041192 1_455
Co7 Ga4 2.429062 1_555
Co7 Ga4 2.429062 1_455
Co7 Ga0 2.429591 1_455
Co7 Ga0 2.429591 1_555
Co7 Sm0 2.878346 1_545
Co7 Sm2 3.038767 1_555
Co7 Sm2 3.038767 1_455
Co8 Ga2 2.429042 1_565
Co8 Ga2 2.429042 1_465
Co8 Ga3 2.429589 1_555
Co8 Ga3 2.429589 1_455
Co8 Sm0 2.878268 1_555
Co8 Sm2 3.038743 1_555
Co8 Sm2 3.038743 1_455
