# generated using pymatgen
data_Mn3Fe2Co3O16
_symmetry_space_group_name_H-M   'P 1'
_cell_length_a   5.69945909
_cell_length_b   5.71816797
_cell_length_c   9.08084658
_cell_angle_alpha   90.03790297
_cell_angle_beta   91.16929212
_cell_angle_gamma   120.10239978
_symmetry_Int_Tables_number   1
_chemical_formula_structural   Mn3Fe2Co3O16
_chemical_formula_sum   'Mn3 Fe2 Co3 O16'
_cell_volume   255.96085857
_cell_formula_units_Z   1
loop_
 _symmetry_equiv_pos_site_id
 _symmetry_equiv_pos_as_xyz
  1  'x, y, z'
loop_
 _atom_site_type_symbol
 _atom_site_label
 _atom_site_symmetry_multiplicity
 _atom_site_fract_x
 _atom_site_fract_y
 _atom_site_fract_z
 _atom_site_occupancy
  Mn  Mn0  1  0.66397200  0.83327000  0.21496200  1
  Mn  Mn1  1  0.83444800  0.66425900  0.71291500  1
  Mn  Mn2  1  0.83405500  0.16842200  0.71339200  1
  Fe  Fe0  1  0.33317900  0.66620800  0.49097200  1
  Fe  Fe1  1  0.66658500  0.33429400  0.99345900  1
  Co  Co0  1  0.16816200  0.83482800  0.20972500  1
  Co  Co1  1  0.16776600  0.33394500  0.20905900  1
  Co  Co2  1  0.33281600  0.16564000  0.70808100  1
  O  O0  1  0.16568700  0.84167500  0.60336500  1
  O  O1  1  0.04400000  0.52160400  0.32900100  1
  O  O2  1  0.32952100  0.66524200  0.10366800  1
  O  O3  1  0.00749200  0.00465100  0.31741200  1
  O  O4  1  0.00539400  0.00215400  0.81821000  1
  O  O5  1  0.16578000  0.32162100  0.60388800  1
  O  O6  1  0.47719100  0.96321300  0.33415100  1
  O  O7  1  0.47687800  0.51638800  0.33395300  1
  O  O8  1  0.31980300  0.15984800  0.10855500  1
  O  O9  1  0.67256200  0.83555800  0.59835700  1
  O  O10  1  0.51309100  0.47301300  0.83222600  1
  O  O11  1  0.51345000  0.04000400  0.83231500  1
  O  O12  1  0.66363900  0.33091600  0.60309800  1
  O  O13  1  0.84020100  0.67543200  0.10405300  1
  O  O14  1  0.96476700  0.48184300  0.83714900  1
  O  O15  1  0.83956400  0.16617200  0.10375600  1
loop_
_geom_bond_atom_site_label_1
_geom_bond_atom_site_label_2
_geom_bond_distance
_geom_bond_site_symmetry_2
Mn0 O3 1.912852 1_665
Mn0 O2 1.913388 1_555
Mn0 O6 1.922559 1_555
Mn0 O7 1.923377 1_555
Mn0 O15 1.943662 1_565
Mn0 O13 1.946069 1_555
Mn1 O14 1.912310 1_555
Mn1 O4 1.915179 1_665
Mn1 O12 1.916235 1_555
Mn1 O0 1.933845 1_655
Mn1 O9 1.939506 1_555
Mn1 O10 1.948791 1_555
Mn2 O14 1.911493 1_555
Mn2 O4 1.912622 1_655
Mn2 O12 1.917463 1_555
Mn2 O5 1.935794 1_655
Mn2 O9 1.939594 1_545
Mn2 O11 1.944228 1_555
Fe0 O9 1.916513 1_555
Fe0 O0 1.989687 1_555
Fe0 O5 2.000254 1_555
Fe0 O1 2.023840 1_555
Fe0 O7 2.046374 1_555
Fe0 O6 2.058785 1_555
Fe1 O15 1.952188 1_556
Fe1 O13 1.952831 1_556
Fe1 O8 2.025309 1_556
Fe1 O10 2.045373 1_555
Fe1 O11 2.050911 1_555
Fe1 O14 2.067988 1_555
Co0 O13 1.860685 1_455
Co0 O8 1.862395 1_565
Co0 O6 1.881073 1_555
Co0 O2 1.908705 1_555
Co0 O1 1.909013 1_555
Co0 O3 1.914448 1_565
Co1 O15 1.859971 1_455
Co1 O8 1.863132 1_555
Co1 O7 1.884600 1_555
Co1 O1 1.903799 1_555
Co1 O2 1.908184 1_555
Co1 O3 1.913603 1_555
Co2 O5 1.847482 1_555
Co2 O0 1.853090 1_545
Co2 O11 1.882633 1_555
Co2 O10 1.885315 1_555
Co2 O12 1.908995 1_555
Co2 O4 1.919366 1_555
