# generated using pymatgen
data_Li9Mn7O16
_symmetry_space_group_name_H-M   'P 1'
_cell_length_a   2.88135900
_cell_length_b   8.85699100
_cell_length_c   11.70990112
_cell_angle_alpha   89.13542970
_cell_angle_beta   90.00000000
_cell_angle_gamma   90.00000000
_symmetry_Int_Tables_number   1
_chemical_formula_structural   Li9Mn7O16
_chemical_formula_sum   'Li9 Mn7 O16'
_cell_volume   298.80465437
_cell_formula_units_Z   1
loop_
 _symmetry_equiv_pos_site_id
 _symmetry_equiv_pos_as_xyz
  1  'x, y, z'
loop_
 _atom_site_type_symbol
 _atom_site_label
 _atom_site_symmetry_multiplicity
 _atom_site_fract_x
 _atom_site_fract_y
 _atom_site_fract_z
 _atom_site_occupancy
  Li  Li0  1  0.50000000  0.00587200  0.74242900  1
  Li  Li1  1  0.50000000  0.50000000  0.00000000  1
  Li  Li2  1  0.50000000  0.99412800  0.25757100  1
  Li  Li3  1  0.00000000  0.76892800  0.62205700  1
  Li  Li4  1  0.00000000  0.24592300  0.87561100  1
  Li  Li5  1  0.00000000  0.75407700  0.12438900  1
  Li  Li6  1  0.50000000  0.50000000  0.50000000  1
  Li  Li7  1  0.00000000  0.23107200  0.37794300  1
  Li  Li8  1  0.50000000  0.00000000  0.50000000  1
  Mn  Mn0  1  0.00000000  0.23313800  0.62061900  1
  Mn  Mn1  1  0.00000000  0.76686200  0.37938100  1
  Mn  Mn2  1  0.00000000  0.74986000  0.87108300  1
  Mn  Mn3  1  0.00000000  0.25014000  0.12891700  1
  Mn  Mn4  1  0.50000000  0.49105300  0.74689900  1
  Mn  Mn5  1  0.50000000  0.00000000  0.00000000  1
  Mn  Mn6  1  0.50000000  0.50894700  0.25310100  1
  O  O0  1  0.50000000  0.24340000  0.73481400  1
  O  O1  1  0.50000000  0.74137700  0.98578800  1
  O  O2  1  0.50000000  0.24690700  0.24427400  1
  O  O3  1  0.00000000  0.02701400  0.62406600  1
  O  O4  1  0.00000000  0.49170500  0.86084600  1
  O  O5  1  0.00000000  0.99403100  0.11352400  1
  O  O6  1  0.50000000  0.74807800  0.49061100  1
  O  O7  1  0.00000000  0.52257500  0.36762700  1
  O  O8  1  0.50000000  0.75309300  0.75572600  1
  O  O9  1  0.50000000  0.25862300  0.01421200  1
  O  O10  1  0.50000000  0.75660000  0.26518600  1
  O  O11  1  0.00000000  0.47742500  0.63237300  1
  O  O12  1  0.00000000  0.00596900  0.88647600  1
  O  O13  1  0.00000000  0.50829500  0.13915400  1
  O  O14  1  0.50000000  0.25192200  0.50938900  1
  O  O15  1  0.00000000  0.97298600  0.37593400  1
loop_
_geom_bond_atom_site_label_1
_geom_bond_atom_site_label_2
_geom_bond_distance
_geom_bond_site_symmetry_2
Li0 O3 2.005951 1_655
Li0 O3 2.005951 1_555
Li0 O0 2.104328 1_555
Li0 O12 2.218291 1_655
Li0 O12 2.218291 1_555
Li0 O8 2.241924 1_545
Li1 O1 2.141837 1_554
Li1 O9 2.141837 1_555
Li1 O13 2.177102 1_655
Li1 O13 2.177102 1_555
Li1 O4 2.177102 1_654
Li1 O4 2.177102 1_554
Li2 O15 2.005951 1_555
Li2 O15 2.005951 1_655
Li2 O10 2.104328 1_555
Li2 O5 2.218291 1_555
Li2 O5 2.218291 1_655
Li2 O2 2.241924 1_565
Li3 O6 2.118357 1_455
Li3 O6 2.118357 1_555
Li3 O8 2.130402 1_555
Li3 O8 2.130402 1_455
Li3 O3 2.286341 1_565
Li3 O11 2.582842 1_555
Li4 O12 2.127158 1_555
Li4 O9 2.174365 1_456
Li4 O9 2.174365 1_556
Li4 O4 2.181142 1_555
Li4 O0 2.189850 1_455
Li4 O0 2.189850 1_555
Li5 O5 2.127158 1_555
Li5 O1 2.174365 1_554
Li5 O1 2.174365 1_454
Li5 O13 2.181142 1_555
Li5 O10 2.189850 1_455
Li5 O10 2.189850 1_555
Li6 O11 2.123420 1_655
Li6 O11 2.123420 1_555
Li6 O7 2.123420 1_655
Li6 O7 2.123420 1_555
Li6 O14 2.198316 1_555
Li6 O6 2.198316 1_555
Li7 O14 2.118357 1_555
Li7 O14 2.118357 1_455
Li7 O2 2.130402 1_555
Li7 O2 2.130402 1_455
Li7 O15 2.286341 1_545
Li7 O7 2.582842 1_555
Li8 O3 2.062504 1_655
Li8 O3 2.062504 1_555
Li8 O15 2.062504 1_645
Li8 O15 2.062504 1_545
Li8 O14 2.235634 1_555
Li8 O6 2.235634 1_545
Mn0 O3 1.825476 1_555
Mn0 O14 1.947610 1_455
Mn0 O14 1.947610 1_555
Mn0 O0 1.968660 1_455
Mn0 O0 1.968660 1_555
Mn0 O11 2.170093 1_555
Mn1 O15 1.825476 1_555
Mn1 O6 1.947610 1_555
Mn1 O6 1.947610 1_455
Mn1 O10 1.968660 1_455
Mn1 O10 1.968660 1_555
Mn1 O7 2.170093 1_555
Mn2 O1 1.970356 1_555
Mn2 O1 1.970356 1_455
Mn2 O8 1.974822 1_555
Mn2 O8 1.974822 1_455
Mn2 O12 2.278215 1_565
Mn2 O4 2.291422 1_555
Mn3 O9 1.970356 1_455
Mn3 O9 1.970356 1_555
Mn3 O2 1.974822 1_555
Mn3 O2 1.974822 1_455
Mn3 O5 2.278215 1_545
Mn3 O13 2.291422 1_555
Mn4 O4 1.963721 1_555
Mn4 O4 1.963721 1_655
Mn4 O11 1.973203 1_655
Mn4 O11 1.973203 1_555
Mn4 O0 2.200150 1_555
Mn4 O8 2.324744 1_555
Mn5 O5 1.960463 1_545
Mn5 O5 1.960463 1_645
Mn5 O12 1.960463 1_654
Mn5 O12 1.960463 1_554
Mn5 O9 2.299162 1_555
Mn5 O1 2.299162 1_544
Mn6 O13 1.963721 1_655
Mn6 O13 1.963721 1_555
Mn6 O7 1.973203 1_555
Mn6 O7 1.973203 1_655
Mn6 O10 2.200150 1_555
Mn6 O2 2.324744 1_555
