# generated using pymatgen
data_Tm2SiPd2
_symmetry_space_group_name_H-M   'P 1'
_cell_length_a   4.10567900
_cell_length_b   7.49279500
_cell_length_c   13.61214200
_cell_angle_alpha   90.00000000
_cell_angle_beta   90.00000000
_cell_angle_gamma   90.00000000
_symmetry_Int_Tables_number   1
_chemical_formula_structural   Tm2SiPd2
_chemical_formula_sum   'Tm8 Si4 Pd8'
_cell_volume   418.75047521
_cell_formula_units_Z   4
loop_
 _symmetry_equiv_pos_site_id
 _symmetry_equiv_pos_as_xyz
  1  'x, y, z'
loop_
 _atom_site_type_symbol
 _atom_site_label
 _atom_site_symmetry_multiplicity
 _atom_site_fract_x
 _atom_site_fract_y
 _atom_site_fract_z
 _atom_site_occupancy
  Tm  Tm0  1  0.50000000  0.04250300  0.37409300  1
  Tm  Tm1  1  0.50000000  0.95749600  0.62590700  1
  Tm  Tm2  1  0.00000000  0.54250400  0.12590700  1
  Tm  Tm3  1  0.00000000  0.45749600  0.87409300  1
  Tm  Tm4  1  0.50000000  0.94863700  0.13077100  1
  Tm  Tm5  1  0.50000000  0.05136300  0.86922900  1
  Tm  Tm6  1  0.00000000  0.44863700  0.36922900  1
  Tm  Tm7  1  0.00000000  0.55136300  0.63077100  1
  Si  Si0  1  0.50000000  0.65286000  0.47225400  1
  Si  Si1  1  0.50000000  0.34714000  0.52774600  1
  Si  Si2  1  0.00000000  0.15286000  0.02774600  1
  Si  Si3  1  0.00000000  0.84714000  0.97225400  1
  Pd  Pd0  1  0.50000000  0.67277200  0.28096900  1
  Pd  Pd1  1  0.50000000  0.32722800  0.71903100  1
  Pd  Pd2  1  0.00000000  0.17277200  0.21903100  1
  Pd  Pd3  1  0.00000000  0.82722800  0.78096900  1
  Pd  Pd4  1  0.50000000  0.67872000  0.98081900  1
  Pd  Pd5  1  0.50000000  0.32128000  0.01918100  1
  Pd  Pd6  1  0.00000000  0.17872000  0.51918100  1
  Pd  Pd7  1  0.00000000  0.82128000  0.48081900  1
loop_
_geom_bond_atom_site_label_1
_geom_bond_atom_site_label_2
_geom_bond_distance
_geom_bond_site_symmetry_2
Si0 Si1 2.412026 1_555
Si0 Tm6 2.919309 1_655
Si0 Tm6 2.919309 1_555
Si0 Tm7 3.073827 1_655
Si0 Tm7 3.073827 1_555
Si0 Tm1 3.095919 1_555
Si0 Tm0 3.210755 1_565
Si1 Tm7 2.919309 1_655
Si1 Tm7 2.919309 1_555
Si1 Tm6 3.073827 1_655
Si1 Tm6 3.073827 1_555
Si1 Tm0 3.095925 1_555
Si1 Tm1 3.210762 1_545
Si2 Si3 2.412026 1_544
Si2 Tm4 2.919309 1_445
Si2 Tm4 2.919309 1_545
Si2 Tm5 3.073827 1_454
Si2 Tm5 3.073827 1_554
Si2 Tm3 3.095919 1_554
Si2 Tm2 3.210762 1_555
Si3 Tm5 2.919309 1_565
Si3 Tm5 2.919309 1_465
Si3 Tm4 3.073827 1_456
Si3 Tm4 3.073827 1_556
Si3 Tm2 3.095919 1_556
Si3 Tm3 3.210762 1_555
Pd0 Si0 2.608070 1_555
Pd0 Tm4 2.907325 1_555
Pd0 Tm6 2.911685 1_655
Pd0 Tm6 2.911685 1_555
Pd0 Tm0 3.046558 1_565
Pd0 Tm2 3.101940 1_655
Pd0 Tm2 3.101940 1_555
Pd1 Si1 2.608070 1_555
Pd1 Tm5 2.907325 1_555
Pd1 Tm7 2.911685 1_555
Pd1 Tm7 2.911685 1_655
Pd1 Tm1 3.046565 1_545
Pd1 Tm3 3.101940 1_555
Pd1 Tm3 3.101940 1_655
Pd2 Si2 2.608070 1_555
Pd2 Tm6 2.907325 1_555
Pd2 Tm4 2.911685 1_545
Pd2 Tm4 2.911685 1_445
Pd2 Tm2 3.046565 1_555
Pd2 Tm0 3.101942 1_555
Pd2 Tm0 3.101942 1_455
Pd3 Si3 2.608070 1_555
Pd3 Tm7 2.907325 1_555
Pd3 Tm5 2.911685 1_565
Pd3 Tm5 2.911685 1_465
Pd3 Tm3 3.046565 1_555
Pd3 Tm1 3.101940 1_555
Pd3 Tm1 3.101940 1_455
Pd4 Si3 2.412515 1_655
Pd4 Si3 2.412515 1_555
Pd4 Pd5 2.728657 1_556
Pd4 Tm4 2.873430 1_556
Pd4 Tm3 3.012023 1_655
Pd4 Tm3 3.012023 1_555
Pd4 Tm2 3.025940 1_656
Pd4 Tm2 3.025940 1_556
Pd4 Tm5 3.178573 1_565
Pd5 Si2 2.412515 1_655
Pd5 Si2 2.412515 1_555
Pd5 Tm5 2.873430 1_554
Pd5 Tm2 3.012023 1_655
Pd5 Tm2 3.012023 1_555
Pd5 Tm3 3.025940 1_554
Pd5 Tm3 3.025940 1_654
Pd5 Tm4 3.178573 1_545
Pd6 Si1 2.412515 1_555
Pd6 Si1 2.412515 1_455
Pd6 Pd7 2.728657 1_545
Pd6 Tm6 2.873430 1_555
Pd6 Tm1 3.012023 1_445
Pd6 Tm1 3.012023 1_545
Pd6 Tm0 3.025943 1_555
Pd6 Tm0 3.025943 1_455
Pd6 Tm7 3.178573 1_555
Pd7 Si0 2.412515 1_555
Pd7 Si0 2.412515 1_455
Pd7 Tm7 2.873430 1_555
Pd7 Tm0 3.012019 1_565
Pd7 Tm0 3.012019 1_465
Pd7 Tm1 3.025940 1_455
Pd7 Tm1 3.025940 1_555
Pd7 Tm6 3.178573 1_555
