# generated using pymatgen
data_LiCa3Si2N5
_symmetry_space_group_name_H-M   'P 1'
_cell_length_a   10.58130456
_cell_length_b   10.58130456
_cell_length_c   10.42045936
_cell_angle_alpha   89.74132836
_cell_angle_beta   89.74132836
_cell_angle_gamma   151.65282613
_symmetry_Int_Tables_number   1
_chemical_formula_structural   LiCa3Si2N5
_chemical_formula_sum   'Li4 Ca12 Si8 N20'
_cell_volume   553.87791009
_cell_formula_units_Z   4
loop_
 _symmetry_equiv_pos_site_id
 _symmetry_equiv_pos_as_xyz
  1  'x, y, z'
loop_
 _atom_site_type_symbol
 _atom_site_label
 _atom_site_symmetry_multiplicity
 _atom_site_fract_x
 _atom_site_fract_y
 _atom_site_fract_z
 _atom_site_occupancy
  Li  Li0  1  0.84507100  0.15492900  0.25000000  1
  Li  Li1  1  0.15492900  0.84507100  0.75000000  1
  Li  Li2  1  0.37220900  0.62779100  0.25000000  1
  Li  Li3  1  0.62779100  0.37220900  0.75000000  1
  Ca  Ca0  1  0.96879700  0.53869300  0.14560300  1
  Ca  Ca1  1  0.46130700  0.03120300  0.35439700  1
  Ca  Ca2  1  0.03120300  0.46130700  0.85439700  1
  Ca  Ca3  1  0.53869300  0.96879700  0.64560300  1
  Ca  Ca4  1  0.83673300  0.65734600  0.35537400  1
  Ca  Ca5  1  0.34265400  0.16326700  0.14462600  1
  Ca  Ca6  1  0.16326700  0.34265400  0.64462600  1
  Ca  Ca7  1  0.65734600  0.83673300  0.85537400  1
  Ca  Ca8  1  0.23023600  0.26829700  0.36790600  1
  Ca  Ca9  1  0.73170300  0.76976400  0.13209400  1
  Ca  Ca10  1  0.76976400  0.73170300  0.63209400  1
  Ca  Ca11  1  0.26829700  0.23023600  0.86790600  1
  Si  Si0  1  0.90139600  0.69194600  0.96205100  1
  Si  Si1  1  0.30805400  0.09860400  0.53794900  1
  Si  Si2  1  0.09860400  0.30805400  0.03794900  1
  Si  Si3  1  0.69194600  0.90139600  0.46205100  1
  Si  Si4  1  0.49393500  0.88686300  0.04762900  1
  Si  Si5  1  0.11313700  0.50606500  0.45237100  1
  Si  Si6  1  0.50606500  0.11313700  0.95237100  1
  Si  Si7  1  0.88686300  0.49393500  0.54762900  1
  N  N0  1  0.95408000  0.50190700  0.38346600  1
  N  N1  1  0.49809300  0.04592000  0.11653400  1
  N  N2  1  0.04592000  0.49809300  0.61653400  1
  N  N3  1  0.50190700  0.95408000  0.88346600  1
  N  N4  1  0.25433400  0.99831300  0.92316400  1
  N  N5  1  0.00168700  0.74566600  0.57683600  1
  N  N6  1  0.74566600  0.00168700  0.07683600  1
  N  N7  1  0.99831300  0.25433400  0.42316400  1
  N  N8  1  0.23380300  0.29994200  0.12275100  1
  N  N9  1  0.70005800  0.76619700  0.37724900  1
  N  N10  1  0.76619700  0.70005800  0.87724900  1
  N  N11  1  0.29994200  0.23380300  0.62275100  1
  N  N12  1  0.86211100  0.66665200  0.13022700  1
  N  N13  1  0.33334800  0.13788900  0.36977300  1
  N  N14  1  0.13788900  0.33334800  0.86977300  1
  N  N15  1  0.66665200  0.86211100  0.63022700  1
  N  N16  1  0.19548100  0.54815900  0.08789200  1
  N  N17  1  0.45184100  0.80451900  0.41210800  1
  N  N18  1  0.80451900  0.45184100  0.91210800  1
  N  N19  1  0.54815900  0.19548100  0.58789200  1
loop_
_geom_bond_atom_site_label_1
_geom_bond_atom_site_label_2
_geom_bond_distance
_geom_bond_site_symmetry_2
Li0 N6 2.008269 1_555
Li0 N7 2.008269 1_555
Li0 N17 2.576583 1_545
Li0 N16 2.576583 1_655
Li1 N5 2.008269 1_555
Li1 N4 2.008269 1_555
Li1 N18 2.576583 1_455
Li1 N19 2.576583 1_565
Li2 N16 2.080470 1_555
Li2 N17 2.080470 1_555
Li2 N7 2.622338 1_455
Li2 N6 2.622338 1_565
Li2 N8 2.655938 1_555
Li2 N9 2.655938 1_555
Li3 N18 2.080470 1_555
Li3 N19 2.080470 1_555
Li3 N4 2.622338 1_545
Li3 N5 2.622338 1_655
Li3 N11 2.655938 1_555
Li3 N10 2.655938 1_555
Ca0 N16 2.385073 1_655
Ca0 N12 2.413156 1_555
Ca0 N0 2.490088 1_555
Ca0 N1 2.530313 1_555
Ca0 N18 2.651942 1_554
Ca0 N1 2.706532 1_665
Ca1 N17 2.385073 1_545
Ca1 N13 2.413156 1_555
Ca1 N1 2.490088 1_555
Ca1 N0 2.530313 1_555
Ca1 N19 2.651942 1_555
Ca1 N0 2.706532 1_445
Ca2 N18 2.385073 1_455
Ca2 N14 2.413156 1_555
Ca2 N2 2.490088 1_555
Ca2 N3 2.530313 1_555
Ca2 N16 2.651942 1_556
Ca2 N3 2.706532 1_445
Ca3 N19 2.385073 1_565
Ca3 N15 2.413156 1_555
Ca3 N3 2.490088 1_555
Ca3 N2 2.530313 1_555
Ca3 N17 2.651942 1_555
Ca3 N2 2.706532 1_665
Ca4 N12 2.351986 1_555
Ca4 N9 2.530099 1_555
Ca4 N5 2.535789 1_655
Ca4 N13 2.544311 1_665
Ca4 N13 2.656728 1_555
Ca4 N0 2.815373 1_555
Ca5 N13 2.351986 1_555
Ca5 N8 2.530099 1_555
Ca5 N4 2.535789 1_544
Ca5 N12 2.544311 1_445
Ca5 N12 2.656728 1_555
Ca5 N1 2.815373 1_555
Ca6 N14 2.351986 1_555
Ca6 N11 2.530099 1_555
Ca6 N7 2.535789 1_455
Ca6 N15 2.544311 1_445
Ca6 N15 2.656728 1_555
Ca6 N2 2.815373 1_555
Ca7 N15 2.351986 1_555
Ca7 N10 2.530099 1_555
Ca7 N6 2.535789 1_566
Ca7 N14 2.544311 1_665
Ca7 N14 2.656728 1_555
Ca7 N3 2.815373 1_555
Ca8 N7 2.392491 1_455
Ca8 N13 2.396839 1_555
Ca8 N9 2.527464 1_555
Ca8 N8 2.570764 1_555
Ca8 N9 2.690018 1_445
Ca8 N11 2.865704 1_555
Ca9 N6 2.392491 1_565
Ca9 N12 2.396839 1_555
Ca9 N8 2.527464 1_555
Ca9 N9 2.570764 1_555
Ca9 N8 2.690018 1_665
Ca9 N10 2.865704 1_554
Ca10 N5 2.392491 1_655
Ca10 N15 2.396839 1_555
Ca10 N11 2.527464 1_555
Ca10 N10 2.570764 1_555
Ca10 N11 2.690018 1_665
Ca10 N9 2.865704 1_555
Ca11 N4 2.392491 1_545
Ca11 N14 2.396839 1_555
Ca11 N10 2.527464 1_555
Ca11 N11 2.570764 1_555
Ca11 N10 2.690018 1_445
Ca11 N8 2.865704 1_556
N0 Si5 1.797482 1_655
N0 Si7 1.822478 1_555
N1 Si4 1.797482 1_545
N1 Si6 1.822478 1_554
N2 Si7 1.797482 1_455
N2 Si5 1.822478 1_555
N3 Si6 1.797482 1_565
N3 Si4 1.822478 1_556
N4 Si6 1.725699 1_565
N4 Si0 1.812450 1_455
N5 Si7 1.725699 1_455
N5 Si1 1.812450 1_565
N6 Si4 1.725699 1_545
N6 Si2 1.812450 1_655
N7 Si5 1.725699 1_655
N7 Si3 1.812450 1_545
N8 Si2 1.749767 1_555
N9 Si3 1.749767 1_555
N10 Si0 1.749767 1_555
N11 Si1 1.749767 1_555
N12 Si0 1.763219 1_554
N13 Si1 1.763219 1_555
N14 Si2 1.763219 1_556
N15 Si3 1.763219 1_555
N16 Si4 1.745358 1_555
N16 Si2 1.791383 1_555
N17 Si5 1.745358 1_555
N17 Si3 1.791383 1_555
N18 Si6 1.745358 1_555
N18 Si0 1.791383 1_555
N19 Si7 1.745358 1_555
N19 Si1 1.791383 1_555
