# generated using pymatgen
data_LuCuSn
_symmetry_space_group_name_H-M   'P 1'
_cell_length_a   4.45043124
_cell_length_b   4.45045323
_cell_length_c   7.11460011
_cell_angle_alpha   90.00005833
_cell_angle_beta   89.99995004
_cell_angle_gamma   119.99860961
_symmetry_Int_Tables_number   1
_chemical_formula_structural   LuCuSn
_chemical_formula_sum   'Lu2 Cu2 Sn2'
_cell_volume   122.03756876
_cell_formula_units_Z   2
loop_
 _symmetry_equiv_pos_site_id
 _symmetry_equiv_pos_as_xyz
  1  'x, y, z'
loop_
 _atom_site_type_symbol
 _atom_site_label
 _atom_site_symmetry_multiplicity
 _atom_site_fract_x
 _atom_site_fract_y
 _atom_site_fract_z
 _atom_site_occupancy
  Lu  Lu0  1  1.00001775  1.00000421  0.49627648  1
  Lu  Lu1  1  0.99998356  0.99999907  0.99627519  1
  Cu  Cu0  1  0.33340087  0.66667348  0.32914915  1
  Cu  Cu1  1  0.66659725  0.33332306  0.82914706  1
  Sn  Sn0  1  0.66672309  0.33334587  0.22713862  1
  Sn  Sn1  1  0.33327748  0.66665532  0.72713450  1
loop_
_geom_bond_atom_site_label_1
_geom_bond_atom_site_label_2
_geom_bond_distance
_geom_bond_site_symmetry_2
Lu0 Sn1 3.049360 1_655
Lu0 Sn1 3.049546 1_665
Lu0 Sn1 3.049825 1_555
Lu0 Sn0 3.204365 1_565
Lu0 Sn0 3.204478 1_555
Lu0 Sn0 3.204614 1_665
Lu1 Sn0 3.049373 1_566
Lu1 Sn0 3.049576 1_556
Lu1 Sn0 3.049845 1_666
Lu1 Sn1 3.204378 1_655
Lu1 Sn1 3.204486 1_665
Lu1 Sn1 3.204630 1_555
Cu0 Sn0 2.669916 1_555
Cu0 Sn0 2.670059 1_565
Cu0 Sn0 2.670066 1_455
Cu0 Lu0 2.831102 1_555
Cu0 Lu0 2.831297 1_445
Cu0 Lu0 2.831397 1_455
Cu0 Sn1 2.831507 1_555
Cu0 Lu1 3.494182 1_554
Cu0 Lu1 3.494451 1_444
Cu0 Lu1 3.494604 1_454
Cu1 Sn1 2.669929 1_555
Cu1 Sn1 2.670044 1_545
Cu1 Sn1 2.670079 1_655
Cu1 Lu1 2.831093 1_445
Cu1 Lu1 2.831322 1_555
Cu1 Lu1 2.831389 1_545
Cu1 Sn0 2.831551 1_556
Cu1 Lu0 3.494158 1_445
Cu1 Lu0 3.494456 1_555
Cu1 Lu0 3.494574 1_545
