# generated using pymatgen
data_MgSi2
_symmetry_space_group_name_H-M   'P 1'
_cell_length_a   3.63162200
_cell_length_b   5.33238800
_cell_length_c   11.86567472
_cell_angle_alpha   85.55892577
_cell_angle_beta   90.00000000
_cell_angle_gamma   90.00000000
_symmetry_Int_Tables_number   1
_chemical_formula_structural   MgSi2
_chemical_formula_sum   'Mg4 Si8'
_cell_volume   229.09145342
_cell_formula_units_Z   4
loop_
 _symmetry_equiv_pos_site_id
 _symmetry_equiv_pos_as_xyz
  1  'x, y, z'
loop_
 _atom_site_type_symbol
 _atom_site_label
 _atom_site_symmetry_multiplicity
 _atom_site_fract_x
 _atom_site_fract_y
 _atom_site_fract_z
 _atom_site_occupancy
  Mg  Mg0  1  0.50000000  0.98057500  0.96064000  1
  Mg  Mg1  1  0.00000000  0.16867800  0.17803300  1
  Mg  Mg2  1  0.00000000  0.65152500  0.35619600  1
  Mg  Mg3  1  0.50000000  0.35568500  0.59375400  1
  Si  Si0  1  0.50000000  0.47732200  0.04205400  1
  Si  Si1  1  0.50000000  0.48174200  0.84005500  1
  Si  Si2  1  0.50000000  0.86784900  0.71717400  1
  Si  Si3  1  0.50000000  0.25739300  0.34916800  1
  Si  Si4  1  0.00000000  0.20971700  0.79219200  1
  Si  Si5  1  0.00000000  0.69275100  0.11911700  1
  Si  Si6  1  0.00000000  0.09708800  0.45570700  1
  Si  Si7  1  0.00000000  0.75974300  0.59581100  1
loop_
_geom_bond_atom_site_label_1
_geom_bond_atom_site_label_2
_geom_bond_distance
_geom_bond_site_symmetry_2
Mg0 Si0 2.780851 1_556
Mg0 Si0 2.888927 1_566
Mg0 Si4 2.899470 1_565
Mg0 Si4 2.899470 1_665
Mg0 Si1 2.932045 1_565
Mg0 Si5 2.956659 1_656
Mg0 Si5 2.956659 1_556
Mg0 Si2 2.995985 1_555
Mg0 Si1 3.116427 1_555
Mg1 Si5 2.684033 1_545
Mg1 Si3 2.791629 1_555
Mg1 Si3 2.791629 1_455
Mg1 Si5 2.827672 1_555
Mg1 Si0 2.863204 1_555
Mg1 Si0 2.863204 1_455
Mg2 Si6 2.733796 1_565
Mg2 Si3 2.783570 1_555
Mg2 Si3 2.783570 1_455
Mg2 Si5 2.804657 1_555
Mg2 Si7 2.944629 1_555
Mg2 Si6 3.097469 1_555
Mg3 Si7 2.819253 1_555
Mg3 Si7 2.819253 1_655
Mg3 Si6 2.869070 1_655
Mg3 Si6 2.869070 1_555
Mg3 Si2 2.884717 1_545
Mg3 Si3 2.988799 1_555
Mg3 Si4 3.027099 1_655
Mg3 Si4 3.027099 1_555
Mg3 Si1 3.049137 1_555
Si0 Si5 2.369728 1_555
Si0 Si5 2.369728 1_655
Si0 Si1 2.395145 1_554
Si1 Si4 2.418960 1_555
Si1 Si4 2.418960 1_655
Si1 Si2 2.428992 1_555
Si2 Si7 2.414911 1_655
Si2 Si7 2.414911 1_555
Si2 Si4 2.768402 1_565
Si2 Si4 2.768402 1_665
Si3 Si6 2.336367 1_555
Si3 Si6 2.336367 1_655
Si6 Si7 2.352960 1_545
