# generated using pymatgen
data_Ce5Nd5Si6
_symmetry_space_group_name_H-M   'P 1'
_cell_length_a   7.73460178
_cell_length_b   7.73460178
_cell_length_c   8.77342408
_cell_angle_alpha   64.13949598
_cell_angle_beta   64.13949598
_cell_angle_gamma   90.19171258
_symmetry_Int_Tables_number   1
_chemical_formula_structural   Ce5Nd5Si6
_chemical_formula_sum   'Ce5 Nd5 Si6'
_cell_volume   412.67860213
_cell_formula_units_Z   1
loop_
 _symmetry_equiv_pos_site_id
 _symmetry_equiv_pos_as_xyz
  1  'x, y, z'
loop_
 _atom_site_type_symbol
 _atom_site_label
 _atom_site_symmetry_multiplicity
 _atom_site_fract_x
 _atom_site_fract_y
 _atom_site_fract_z
 _atom_site_occupancy
  Ce  Ce0  1  0.48860700  0.48153200  0.02657100  1
  Ce  Ce1  1  0.98153200  0.98860700  0.02657100  1
  Ce  Ce2  1  0.67825100  0.53633400  0.28551600  1
  Ce  Ce3  1  0.03633400  0.17825100  0.28551600  1
  Ce  Ce4  1  0.53780200  0.03780200  0.28567100  1
  Nd  Nd0  1  0.17973000  0.67973000  0.29202200  1
  Nd  Nd1  1  0.32847600  0.46662600  0.70557900  1
  Nd  Nd2  1  0.96662600  0.82847600  0.70557900  1
  Nd  Nd3  1  0.46786600  0.96786600  0.70270800  1
  Nd  Nd4  1  0.82237200  0.32237200  0.70986500  1
  Si  Si0  1  0.61471700  0.88593600  0.99723600  1
  Si  Si1  1  0.38593600  0.11471700  0.99723600  1
  Si  Si2  1  0.88824700  0.38824700  0.99791700  1
  Si  Si3  1  0.11647000  0.61647000  0.99772600  1
  Si  Si4  1  0.25418300  0.25285100  0.49214300  1
  Si  Si5  1  0.75285100  0.75418300  0.49214300  1
loop_
_geom_bond_atom_site_label_1
_geom_bond_atom_site_label_2
_geom_bond_distance
_geom_bond_site_symmetry_2
Ce0 Si1 3.089757 1_554
Ce0 Si2 3.103819 1_554
Ce0 Si0 3.140025 1_554
Ce0 Si3 3.140583 1_554
Ce0 Si4 3.211786 1_555
Ce0 Si5 3.687062 1_554
Ce1 Si0 3.089757 1_554
Ce1 Si2 3.103819 1_564
Ce1 Si1 3.140025 1_664
Ce1 Si3 3.140583 1_654
Ce1 Si5 3.211786 1_555
Ce1 Si4 3.687062 1_664
Ce2 Si0 3.012829 1_554
Ce2 Si2 3.045519 1_554
Ce2 Si3 3.066378 1_654
Ce2 Si5 3.166874 1_555
Ce2 Si4 3.185838 1_555
Ce3 Si1 3.012829 1_554
Ce3 Si2 3.045519 1_454
Ce3 Si3 3.066378 1_554
Ce3 Si4 3.166874 1_555
Ce3 Si5 3.185838 1_445
Ce4 Si2 3.013197 1_554
Ce4 Si0 3.069502 1_544
Ce4 Si1 3.069502 1_554
Ce4 Si5 3.169634 1_545
Ce4 Si4 3.169634 1_555
Nd0 Si1 3.054018 1_564
Nd0 Si0 3.054018 1_554
Nd0 Si3 3.057455 1_554
Nd0 Si4 3.186438 1_555
Nd0 Si5 3.186438 1_455
Nd1 Si1 3.012981 1_555
Nd1 Si3 3.088596 1_555
Nd1 Si2 3.090476 1_455
Nd1 Si5 3.191113 1_555
Nd1 Si4 3.194369 1_555
Nd2 Si0 3.012981 1_555
Nd2 Si3 3.088596 1_655
Nd2 Si2 3.090476 1_555
Nd2 Si4 3.191113 1_665
Nd2 Si5 3.194369 1_555
Nd3 Si3 3.024927 1_555
Nd3 Si1 3.083112 1_565
Nd3 Si0 3.083112 1_555
Nd3 Si4 3.184131 1_565
Nd3 Si5 3.184131 1_555
Nd4 Si2 3.025034 1_555
Nd4 Si0 3.055807 1_545
Nd4 Si1 3.055807 1_555
Nd4 Si5 3.230374 1_555
Nd4 Si4 3.230374 1_655
Si0 Si1 2.506676 1_565
Si2 Si3 2.491175 1_655
