# generated using pymatgen
data_Yb(GaFe)6
_symmetry_space_group_name_H-M   'P 1'
_cell_length_a   6.53519626
_cell_length_b   6.53519626
_cell_length_c   6.53519626
_cell_angle_alpha   135.06487021
_cell_angle_beta   98.91044950
_cell_angle_gamma   97.88600034
_symmetry_Int_Tables_number   1
_chemical_formula_structural   Yb(GaFe)6
_chemical_formula_sum   'Yb1 Ga6 Fe6'
_cell_volume   182.16395607
_cell_formula_units_Z   1
loop_
 _symmetry_equiv_pos_site_id
 _symmetry_equiv_pos_as_xyz
  1  'x, y, z'
loop_
 _atom_site_type_symbol
 _atom_site_label
 _atom_site_symmetry_multiplicity
 _atom_site_fract_x
 _atom_site_fract_y
 _atom_site_fract_z
 _atom_site_occupancy
  Yb  Yb0  1  0.00000000  0.00000000  0.00000000  1
  Ga  Ga0  1  0.33262176  0.00000000  0.33262176  1
  Ga  Ga1  1  0.66737824  0.00000000  0.66737824  1
  Ga  Ga2  1  0.65569722  0.65569722  0.00000000  1
  Ga  Ga3  1  0.34430278  0.34430278  0.00000000  1
  Ga  Ga4  1  0.18437797  0.68437797  0.50000000  1
  Ga  Ga5  1  0.81562203  0.31562203  0.50000000  1
  Fe  Fe0  1  0.75785330  0.50000000  0.25785330  1
  Fe  Fe1  1  0.24214670  0.50000000  0.74214670  1
  Fe  Fe2  1  0.00000000  0.00000000  0.50000000  1
  Fe  Fe3  1  0.00000000  0.50000000  0.00000000  1
  Fe  Fe4  1  0.50000000  0.00000000  0.00000000  1
  Fe  Fe5  1  0.50000000  0.50000000  0.50000000  1
loop_
_geom_bond_atom_site_label_1
_geom_bond_atom_site_label_2
_geom_bond_distance
_geom_bond_site_symmetry_2
Ga0 Yb0 2.826056 1_555
Ga0 Ga1 2.844193 1_555
Ga1 Yb0 2.826056 1_656
Ga2 Ga3 2.673246 1_555
Ga2 Ga5 2.849977 1_565
Ga2 Ga5 2.849977 1_554
Ga2 Yb0 2.955756 1_665
Ga3 Ga4 2.849977 1_544
Ga3 Ga4 2.849977 1_555
Ga3 Yb0 2.955756 1_555
Ga4 Yb0 2.956832 1_555
Ga4 Yb0 2.956832 1_566
Ga5 Yb0 2.956832 1_655
Ga5 Yb0 2.956832 1_666
Fe0 Fe3 2.483938 1_655
Fe0 Fe2 2.483938 1_665
Fe0 Fe4 2.483938 1_555
Fe0 Fe5 2.483938 1_555
Fe0 Ga2 2.566353 1_555
Fe0 Ga3 2.566353 1_555
Fe0 Ga4 2.595782 1_655
Fe0 Ga5 2.595782 1_555
Fe0 Ga1 2.613116 1_554
Fe0 Ga1 2.613116 1_565
Fe1 Fe3 2.483938 1_556
Fe1 Fe5 2.483938 1_555
Fe1 Fe4 2.483938 1_566
Fe1 Fe2 2.483938 1_555
Fe1 Ga2 2.566353 1_556
Fe1 Ga3 2.566353 1_556
Fe1 Ga4 2.595782 1_555
Fe1 Ga5 2.595782 1_455
Fe1 Ga0 2.613116 1_555
Fe1 Ga0 2.613116 1_566
Fe2 Fe3 2.497493 1_556
Fe2 Fe3 2.497493 1_545
Fe2 Ga5 2.527534 1_455
Fe2 Ga4 2.527534 1_545
Fe2 Ga0 2.580363 1_555
Fe2 Ga1 2.580363 1_455
Fe2 Ga3 2.593543 1_556
Fe2 Ga2 2.593543 1_445
Fe3 Ga5 2.527534 1_454
Fe3 Ga4 2.527534 1_555
Fe3 Ga0 2.580363 1_565
Fe3 Ga1 2.580363 1_454
Fe3 Ga3 2.593543 1_555
Fe3 Ga2 2.593543 1_455
Fe4 Fe5 2.497493 1_544
Fe4 Fe5 2.497493 1_555
Fe4 Ga5 2.527534 1_555
Fe4 Ga4 2.527534 1_544
Fe4 Ga0 2.580363 1_555
Fe4 Ga1 2.580363 1_554
Fe4 Ga3 2.593543 1_555
Fe4 Ga2 2.593543 1_545
Fe5 Ga5 2.527534 1_555
Fe5 Ga4 2.527534 1_555
Fe5 Ga0 2.580363 1_555
Fe5 Ga1 2.580363 1_565
Fe5 Ga3 2.593543 1_555
Fe5 Ga2 2.593543 1_556
