# generated using pymatgen
data_Nd5Si3C
_symmetry_space_group_name_H-M   'P 1'
_cell_length_a   8.77776300
_cell_length_b   8.77776210
_cell_length_c   6.72673100
_cell_angle_alpha   90.00000000
_cell_angle_beta   90.00000000
_cell_angle_gamma   119.99999961
_symmetry_Int_Tables_number   1
_chemical_formula_structural   Nd5Si3C
_chemical_formula_sum   'Nd10 Si6 C2'
_cell_volume   448.85115924
_cell_formula_units_Z   2
loop_
 _symmetry_equiv_pos_site_id
 _symmetry_equiv_pos_as_xyz
  1  'x, y, z'
loop_
 _atom_site_type_symbol
 _atom_site_label
 _atom_site_symmetry_multiplicity
 _atom_site_fract_x
 _atom_site_fract_y
 _atom_site_fract_z
 _atom_site_occupancy
  Nd  Nd0  1  0.66666700  0.33333300  0.00000000  1
  Nd  Nd1  1  0.33333300  0.66666700  0.00000000  1
  Nd  Nd2  1  0.33333300  0.66666700  0.50000000  1
  Nd  Nd3  1  0.66666700  0.33333300  0.50000000  1
  Nd  Nd4  1  0.77575700  0.77575700  0.75000000  1
  Nd  Nd5  1  0.22424300  0.00000000  0.75000000  1
  Nd  Nd6  1  0.00000000  0.22424300  0.75000000  1
  Nd  Nd7  1  0.22424300  0.22424300  0.25000000  1
  Nd  Nd8  1  0.77575700  0.00000000  0.25000000  1
  Nd  Nd9  1  0.00000000  0.77575700  0.25000000  1
  Si  Si0  1  0.40884100  0.40884100  0.75000000  1
  Si  Si1  1  0.59115900  0.00000000  0.75000000  1
  Si  Si2  1  0.00000000  0.59115900  0.75000000  1
  Si  Si3  1  0.59115900  0.59115900  0.25000000  1
  Si  Si4  1  0.40884100  0.00000000  0.25000000  1
  Si  Si5  1  0.00000000  0.40884100  0.25000000  1
  C  C0  1  0.00000000  0.00000000  0.00000000  1
  C  C1  1  0.00000000  0.00000000  0.50000000  1
loop_
_geom_bond_atom_site_label_1
_geom_bond_atom_site_label_2
_geom_bond_distance
_geom_bond_site_symmetry_2
Nd0 Si1 3.144689 1_554
Nd0 Si5 3.144690 1_655
Nd0 Si4 3.144692 1_555
Nd0 Si2 3.144692 1_654
Nd0 Si3 3.144697 1_555
Nd0 Si0 3.144697 1_554
Nd1 Si4 3.144689 1_565
Nd1 Si2 3.144690 1_554
Nd1 Si1 3.144692 1_564
Nd1 Si5 3.144692 1_555
Nd1 Si0 3.144697 1_554
Nd1 Si3 3.144697 1_555
Nd2 Si4 3.144689 1_565
Nd2 Si2 3.144690 1_555
Nd2 Si1 3.144692 1_565
Nd2 Si5 3.144692 1_555
Nd2 Si0 3.144697 1_555
Nd2 Si3 3.144697 1_555
Nd3 Si1 3.144689 1_555
Nd3 Si5 3.144690 1_655
Nd3 Si4 3.144692 1_555
Nd3 Si2 3.144692 1_655
Nd3 Si3 3.144697 1_555
Nd3 Si0 3.144697 1_555
Nd4 Si1 3.112780 1_565
Nd4 Si2 3.112780 1_655
Nd4 Si0 3.220702 1_555
Nd5 Si0 3.112780 1_555
Nd5 Si2 3.112780 1_545
Nd5 Si1 3.220702 1_555
Nd6 Si1 3.112780 1_455
Nd6 Si0 3.112780 1_555
Nd6 Si2 3.220701 1_555
Nd7 Si4 3.112780 1_555
Nd7 Si5 3.112780 1_555
Nd7 Si3 3.220702 1_555
Nd8 Si3 3.112780 1_545
Nd8 Si5 3.112780 1_655
Nd8 Si4 3.220702 1_555
Nd9 Si4 3.112780 1_565
Nd9 Si3 3.112780 1_455
Nd9 Si5 3.220701 1_555
C0 Nd6 2.588912 1_554
C0 Nd9 2.588912 1_545
C0 Nd4 2.588912 1_444
C0 Nd7 2.588912 1_555
C0 Nd8 2.588912 1_455
C0 Nd5 2.588912 1_554
C1 Nd9 2.588912 1_545
C1 Nd6 2.588912 1_555
C1 Nd4 2.588912 1_445
C1 Nd7 2.588912 1_555
C1 Nd8 2.588912 1_455
C1 Nd5 2.588912 1_555
