# generated using pymatgen
data_AlSb2Te2BrCl4
_symmetry_space_group_name_H-M   'P 1'
_cell_length_a   8.49849600
_cell_length_b   11.60350725
_cell_length_c   13.65243789
_cell_angle_alpha   97.94857940
_cell_angle_beta   90.00000000
_cell_angle_gamma   111.48168302
_symmetry_Int_Tables_number   1
_chemical_formula_structural   AlSb2Te2BrCl4
_chemical_formula_sum   'Al4 Sb8 Te8 Br4 Cl16'
_cell_volume   1238.86753083
_cell_formula_units_Z   4
loop_
 _symmetry_equiv_pos_site_id
 _symmetry_equiv_pos_as_xyz
  1  'x, y, z'
loop_
 _atom_site_type_symbol
 _atom_site_label
 _atom_site_symmetry_multiplicity
 _atom_site_fract_x
 _atom_site_fract_y
 _atom_site_fract_z
 _atom_site_occupancy
  Al  Al0  1  0.10697100  0.46249400  0.67168400  1
  Al  Al1  1  0.64447800  0.53750600  0.82831600  1
  Al  Al2  1  0.89302900  0.53750600  0.32831600  1
  Al  Al3  1  0.35552200  0.46249400  0.17168400  1
  Sb  Sb0  1  0.18602800  0.12833000  0.60839600  1
  Sb  Sb1  1  0.05769800  0.87167000  0.89160400  1
  Sb  Sb2  1  0.81397200  0.87167000  0.39160400  1
  Sb  Sb3  1  0.94230200  0.12833000  0.10839600  1
  Sb  Sb4  1  0.31243900  0.88112400  0.39122400  1
  Sb  Sb5  1  0.43131600  0.11887600  0.10877600  1
  Sb  Sb6  1  0.68756100  0.11887600  0.60877600  1
  Sb  Sb7  1  0.56868400  0.88112400  0.89122400  1
  Te  Te0  1  0.05579800  0.85840100  0.54035900  1
  Te  Te1  1  0.19739700  0.14159900  0.95964100  1
  Te  Te2  1  0.94420200  0.14159900  0.45964100  1
  Te  Te3  1  0.80260300  0.85840100  0.04035900  1
  Te  Te4  1  0.45203000  0.15121300  0.46421200  1
  Te  Te5  1  0.30081700  0.84878700  0.03578800  1
  Te  Te6  1  0.54797000  0.84878700  0.53578800  1
  Te  Te7  1  0.69918300  0.15121300  0.96421200  1
  Br  Br0  1  0.37517300  0.00000000  0.75000000  1
  Br  Br1  1  0.62482700  0.00000000  0.25000000  1
  Br  Br2  1  0.12484900  0.00000000  0.25000000  1
  Br  Br3  1  0.87515100  0.00000000  0.75000000  1
  Cl  Cl0  1  0.86621900  0.40678800  0.58659600  1
  Cl  Cl1  1  0.45943200  0.59321200  0.91340400  1
  Cl  Cl2  1  0.13378100  0.59321200  0.41340400  1
  Cl  Cl3  1  0.54056800  0.40678800  0.08659600  1
  Cl  Cl4  1  0.29180900  0.41950500  0.57840100  1
  Cl  Cl5  1  0.87230400  0.58049500  0.92159900  1
  Cl  Cl6  1  0.70819100  0.58049500  0.42159900  1
  Cl  Cl7  1  0.12769600  0.41950500  0.07840100  1
  Cl  Cl8  1  0.05516800  0.34409500  0.78446000  1
  Cl  Cl9  1  0.71107300  0.65590500  0.71554000  1
  Cl  Cl10  1  0.94483200  0.65590500  0.21554000  1
  Cl  Cl11  1  0.28892700  0.34409500  0.28446000  1
  Cl  Cl12  1  0.20060900  0.66056600  0.72212000  1
  Cl  Cl13  1  0.54004300  0.33943400  0.77788000  1
  Cl  Cl14  1  0.79939100  0.33943400  0.27788000  1
  Cl  Cl15  1  0.45995700  0.66056600  0.22212000  1
loop_
_geom_bond_atom_site_label_1
_geom_bond_atom_site_label_2
_geom_bond_distance
_geom_bond_site_symmetry_2
Al0 Cl8 2.143332 1_555
Al0 Cl12 2.147669 1_555
Al0 Cl4 2.176346 1_555
Al0 Cl0 2.185682 1_455
Al1 Cl9 2.143332 1_555
Al1 Cl13 2.147669 1_555
Al1 Cl5 2.176339 1_555
Al1 Cl1 2.185682 1_555
Al2 Cl10 2.143332 1_555
Al2 Cl14 2.147669 1_555
Al2 Cl6 2.176346 1_555
Al2 Cl2 2.185682 1_655
Al3 Cl11 2.143332 1_555
Al3 Cl15 2.147669 1_555
Al3 Cl7 2.176339 1_555
Al3 Cl3 2.185682 1_555
Sb0 Te0 2.924788 1_545
Sb0 Te2 2.947887 1_455
Sb0 Te4 2.959843 1_555
Sb1 Te1 2.924788 1_565
Sb1 Te3 2.947887 1_456
Sb1 Te5 2.959843 1_556
Sb2 Te2 2.924788 1_565
Sb2 Te0 2.947887 1_655
Sb2 Te6 2.959843 1_555
Sb3 Te3 2.924788 1_545
Sb3 Te1 2.947887 1_654
Sb3 Te7 2.959843 1_554
Sb4 Te4 2.938607 1_565
Sb4 Te0 2.949468 1_555
Sb4 Te6 2.966080 1_555
Sb5 Te5 2.938606 1_545
Sb5 Te1 2.949474 1_554
Sb5 Te7 2.966074 1_554
Sb6 Te6 2.938607 1_545
Sb6 Te2 2.949468 1_555
Sb6 Te4 2.966080 1_555
Sb7 Te7 2.938606 1_565
Sb7 Te3 2.949474 1_556
Sb7 Te5 2.966074 1_556
Br0 Sb7 3.274385 1_545
Br0 Sb6 3.274391 1_555
Br0 Sb0 3.329855 1_555
Br0 Sb1 3.329855 1_545
Br1 Sb5 3.274385 1_555
Br1 Sb4 3.274391 1_545
Br1 Sb3 3.329855 1_555
Br1 Sb2 3.329855 1_545
Br2 Sb4 3.241572 1_545
Br2 Sb5 3.241577 1_555
Br2 Sb2 3.293881 1_445
Br2 Sb3 3.293881 1_455
Br3 Sb6 3.241572 1_555
Br3 Sb7 3.241577 1_545
Br3 Sb0 3.293881 1_655
Br3 Sb1 3.293881 1_645
Cl0 Sb6 3.181602 1_555
Cl1 Sb7 3.181604 1_555
Cl2 Sb4 3.181602 1_555
Cl3 Sb5 3.181604 1_555
Cl4 Sb0 3.247957 1_555
Cl5 Sb1 3.247957 1_655
Cl6 Sb2 3.247957 1_555
Cl7 Sb3 3.247957 1_455
