# generated using pymatgen
data_Ba4Cu2Si21
_symmetry_space_group_name_H-M   'P 1'
_cell_length_a   10.40661007
_cell_length_b   10.40661007
_cell_length_c   10.37179200
_cell_angle_alpha   90.00000000
_cell_angle_beta   90.00000000
_cell_angle_gamma   90.04433491
_symmetry_Int_Tables_number   1
_chemical_formula_structural   Ba4Cu2Si21
_chemical_formula_sum   'Ba8 Cu4 Si42'
_cell_volume   1123.23915200
_cell_formula_units_Z   2
loop_
 _symmetry_equiv_pos_site_id
 _symmetry_equiv_pos_as_xyz
  1  'x, y, z'
loop_
 _atom_site_type_symbol
 _atom_site_label
 _atom_site_symmetry_multiplicity
 _atom_site_fract_x
 _atom_site_fract_y
 _atom_site_fract_z
 _atom_site_occupancy
  Ba  Ba0  1  0.49787700  0.00226800  0.25000000  1
  Ba  Ba1  1  0.00226800  0.49787700  0.75000000  1
  Ba  Ba2  1  0.74167000  0.49099900  0.25000000  1
  Ba  Ba3  1  0.49099900  0.74167000  0.75000000  1
  Ba  Ba4  1  0.00973600  0.00973600  0.50000000  1
  Ba  Ba5  1  0.25893400  0.48960000  0.25000000  1
  Ba  Ba6  1  0.48960000  0.25893400  0.75000000  1
  Ba  Ba7  1  0.00973600  0.00973600  0.00000000  1
  Cu  Cu0  1  0.49966100  0.49966100  0.50000000  1
  Cu  Cu1  1  0.25036700  0.00064500  0.75000000  1
  Cu  Cu2  1  0.00064500  0.25036700  0.25000000  1
  Cu  Cu3  1  0.49966100  0.49966100  0.00000000  1
  Si  Si0  1  0.50061000  0.68828900  0.36925800  1
  Si  Si1  1  0.61636700  0.99969400  0.55629700  1
  Si  Si2  1  0.80716200  0.88372300  0.25000000  1
  Si  Si3  1  0.50052100  0.30961900  0.12941000  1
  Si  Si4  1  0.37785900  0.99977900  0.93713700  1
  Si  Si5  1  0.18817600  0.12358400  0.25000000  1
  Si  Si6  1  0.50052100  0.30961900  0.37059000  1
  Si  Si7  1  0.37785900  0.99977900  0.56286300  1
  Si  Si8  1  0.50061000  0.68828900  0.13074200  1
  Si  Si9  1  0.61636700  0.99969400  0.94370300  1
  Si  Si10  1  0.81353200  0.12259000  0.25000000  1
  Si  Si11  1  0.19398600  0.88170400  0.25000000  1
  Si  Si12  1  0.68828900  0.50061000  0.86925800  1
  Si  Si13  1  0.99969400  0.61636700  0.05629700  1
  Si  Si14  1  0.88372300  0.80716200  0.75000000  1
  Si  Si15  1  0.30961900  0.50052100  0.62941000  1
  Si  Si16  1  0.99977900  0.37785900  0.43713700  1
  Si  Si17  1  0.12358400  0.18817600  0.75000000  1
  Si  Si18  1  0.30961900  0.50052100  0.87059000  1
  Si  Si19  1  0.99977900  0.37785900  0.06286300  1
  Si  Si20  1  0.68828900  0.50061000  0.63074200  1
  Si  Si21  1  0.99969400  0.61636700  0.44370300  1
  Si  Si22  1  0.12259000  0.81353200  0.75000000  1
  Si  Si23  1  0.88170400  0.19398600  0.75000000  1
  Si  Si24  1  0.68430900  0.81383200  0.43316000  1
  Si  Si25  1  0.31585600  0.18371700  0.06600200  1
  Si  Si26  1  0.31585600  0.18371700  0.43399800  1
  Si  Si27  1  0.68430900  0.81383200  0.06684000  1
  Si  Si28  1  0.68581200  0.18464600  0.06722400  1
  Si  Si29  1  0.31742300  0.81490600  0.43492700  1
  Si  Si30  1  0.31742300  0.81490600  0.06507300  1
  Si  Si31  1  0.68581200  0.18464600  0.43277600  1
  Si  Si32  1  0.81383200  0.68430900  0.93316000  1
  Si  Si33  1  0.18371700  0.31585600  0.56600200  1
  Si  Si34  1  0.18371700  0.31585600  0.93399800  1
  Si  Si35  1  0.81383200  0.68430900  0.56684000  1
  Si  Si36  1  0.18464600  0.68581200  0.56722400  1
  Si  Si37  1  0.81490600  0.31742300  0.93492700  1
  Si  Si38  1  0.81490600  0.31742300  0.56507300  1
  Si  Si39  1  0.18464600  0.68581200  0.93277600  1
  Si  Si40  1  0.74728900  0.00062100  0.75000000  1
  Si  Si41  1  0.00062100  0.74728900  0.25000000  1
loop_
_geom_bond_atom_site_label_1
_geom_bond_atom_site_label_2
_geom_bond_distance
_geom_bond_site_symmetry_2
Ba0 Si26 3.286506 1_555
Ba0 Si25 3.286506 1_555
Ba0 Si29 3.316843 1_545
Ba0 Si30 3.316843 1_545
Ba0 Si28 3.318912 1_555
Ba0 Si31 3.318912 1_555
Ba0 Si24 3.350264 1_545
Ba0 Si27 3.350264 1_545
Ba0 Si11 3.401365 1_545
Ba0 Si9 3.407876 1_544
Ba0 Si1 3.407876 1_545
Ba0 Si3 3.434421 1_555
Ba0 Si6 3.434421 1_555
Ba0 Si2 3.447823 1_545
Ba0 Si5 3.462297 1_555
Ba0 Si7 3.477107 1_545
Ba0 Si4 3.477107 1_544
Ba0 Si0 3.493880 1_545
Ba0 Si8 3.493880 1_545
Ba0 Si10 3.514549 1_555
Ba1 Si33 3.286506 1_555
Ba1 Si34 3.286506 1_555
Ba1 Si37 3.316843 1_455
Ba1 Si38 3.316843 1_455
Ba1 Si36 3.318912 1_555
Ba1 Si39 3.318912 1_555
Ba1 Si35 3.350264 1_455
Ba1 Si32 3.350264 1_455
Ba1 Si23 3.401365 1_455
Ba1 Si21 3.407876 1_455
Ba1 Si13 3.407876 1_456
Ba1 Si15 3.434421 1_555
Ba1 Si18 3.434421 1_555
Ba1 Si14 3.447823 1_455
Ba1 Si17 3.462297 1_555
Ba1 Si16 3.477107 1_455
Ba1 Si19 3.477107 1_456
Ba1 Si12 3.493880 1_455
Ba1 Si20 3.493880 1_455
Ba1 Si22 3.514549 1_555
Ba2 Si3 3.379003 1_555
Ba2 Si6 3.379003 1_555
Ba2 Si0 3.470793 1_555
Ba2 Si8 3.470793 1_555
Ba2 Si19 3.517564 1_555
Ba2 Si16 3.517564 1_555
Ba2 Si21 3.597643 1_555
Ba2 Si13 3.597643 1_555
Ba2 Cu3 3.615891 1_555
Ba2 Cu0 3.615891 1_555
Ba2 Cu2 3.680297 1_655
Ba3 Si15 3.379003 1_555
Ba3 Si18 3.379003 1_555
Ba3 Si20 3.470793 1_555
Ba3 Si12 3.470793 1_555
Ba3 Si7 3.517564 1_555
Ba3 Si4 3.517564 1_555
Ba3 Si1 3.597643 1_555
Ba3 Si9 3.597643 1_555
Ba3 Cu3 3.615891 1_556
Ba3 Cu0 3.615891 1_555
Ba3 Cu1 3.680297 1_565
Ba4 Si5 3.401756 1_555
Ba4 Si17 3.401756 1_555
Ba4 Si11 3.489851 1_545
Ba4 Si23 3.489851 1_455
Ba4 Si10 3.503626 1_455
Ba4 Si22 3.503626 1_545
Ba4 Si2 3.589277 1_445
Ba4 Si14 3.589277 1_445
Ba4 Cu1 3.606034 1_555
Ba4 Cu2 3.606034 1_555
Ba5 Si3 3.376452 1_555
Ba5 Si6 3.376452 1_555
Ba5 Si0 3.481750 1_555
Ba5 Si8 3.481750 1_555
Ba5 Si16 3.519664 1_455
Ba5 Si19 3.519664 1_455
Ba5 Cu3 3.606899 1_555
Ba5 Cu0 3.606899 1_555
Ba5 Si21 3.613901 1_455
Ba5 Si13 3.613901 1_455
Ba5 Cu2 3.662329 1_555
Ba5 Si26 3.758797 1_555
Ba5 Si25 3.758797 1_555
Ba5 Si41 3.798516 1_555
Ba5 Si33 3.823839 1_555
Ba5 Si34 3.823839 1_554
Ba5 Si5 3.878949 1_555
Ba5 Si30 3.937841 1_555
Ba5 Si29 3.937841 1_555
Ba5 Si39 3.949020 1_554
Ba5 Si36 3.949020 1_555
Ba5 Si18 3.971968 1_554
Ba5 Si15 3.971968 1_555
Ba6 Si15 3.376452 1_555
Ba6 Si18 3.376452 1_555
Ba6 Si12 3.481750 1_555
Ba6 Si20 3.481750 1_555
Ba6 Si4 3.519664 1_545
Ba6 Si7 3.519664 1_545
Ba6 Cu3 3.606899 1_556
Ba6 Cu0 3.606899 1_555
Ba6 Si1 3.613901 1_545
Ba6 Si9 3.613901 1_545
Ba6 Cu1 3.662329 1_555
Ba6 Si34 3.758797 1_555
Ba6 Si33 3.758797 1_555
Ba6 Si40 3.798516 1_555
Ba6 Si26 3.823839 1_555
Ba6 Si25 3.823839 1_556
Ba6 Si17 3.878949 1_555
Ba6 Si38 3.937841 1_555
Ba6 Si37 3.937841 1_555
Ba6 Si28 3.949020 1_556
Ba6 Si31 3.949020 1_555
Ba6 Si6 3.971968 1_555
Ba6 Si3 3.971968 1_556
Ba7 Si5 3.401756 1_555
Ba7 Si17 3.401756 1_554
Ba7 Si23 3.489851 1_454
Ba7 Si11 3.489851 1_545
Ba7 Si10 3.503626 1_455
Ba7 Si22 3.503626 1_544
Ba7 Si2 3.589277 1_445
Ba7 Si14 3.589277 1_444
Ba7 Cu1 3.606034 1_554
Ba7 Cu2 3.606034 1_555
Cu0 Si0 2.385826 1_555
Cu0 Si20 2.385826 1_555
Cu0 Si15 2.390170 1_555
Cu0 Si6 2.390170 1_555
Cu1 Si4 2.351098 1_545
Cu1 Si7 2.351098 1_545
Cu1 Si17 2.356554 1_555
Cu1 Si22 2.357074 1_545
Cu2 Si16 2.351098 1_455
Cu2 Si19 2.351098 1_455
Cu2 Si5 2.356554 1_555
Cu2 Si10 2.357074 1_455
Cu3 Si12 2.385826 1_554
Cu3 Si8 2.385826 1_555
Cu3 Si3 2.390170 1_555
Cu3 Si18 2.390170 1_554
Si0 Si24 2.407660 1_555
Si0 Si29 2.416236 1_555
Si0 Si8 2.473838 1_555
Si1 Si31 2.421980 1_565
Si1 Si24 2.423685 1_555
Si1 Si40 2.427473 1_565
Si1 Si7 2.482995 1_555
Si2 Si24 2.402278 1_555
Si2 Si27 2.402278 1_555
Si2 Si41 2.464444 1_655
Si3 Si6 2.501469 1_555
Si4 Si9 2.482995 1_555
Si10 Si31 2.403893 1_555
Si10 Si28 2.403893 1_555
Si10 Si2 2.486628 1_545
Si11 Si29 2.411123 1_555
Si11 Si30 2.411123 1_555
Si11 Si41 2.449805 1_555
Si11 Si5 2.517924 1_565
Si12 Si32 2.407660 1_555
Si12 Si37 2.416236 1_555
Si12 Si20 2.473838 1_555
Si13 Si39 2.421980 1_654
Si13 Si32 2.423685 1_554
Si13 Si41 2.427473 1_655
Si13 Si19 2.482995 1_555
Si14 Si32 2.402278 1_555
Si14 Si35 2.402278 1_555
Si14 Si40 2.464444 1_565
Si14 Si22 2.486628 1_655
Si15 Si36 2.414426 1_555
Si15 Si33 2.416266 1_555
Si15 Si18 2.501469 1_555
Si16 Si38 2.419879 1_555
Si16 Si33 2.422539 1_655
Si16 Si21 2.482995 1_555
Si17 Si34 2.407852 1_555
Si17 Si33 2.407852 1_555
Si17 Si23 2.517924 1_455
Si18 Si39 2.414426 1_555
Si18 Si34 2.416266 1_555
Si19 Si37 2.419879 1_554
Si19 Si34 2.422539 1_654
Si20 Si35 2.407660 1_555
Si20 Si38 2.416236 1_555
Si21 Si36 2.421980 1_655
Si21 Si35 2.423685 1_555
Si21 Si41 2.427473 1_655
Si22 Si36 2.403893 1_555
Si22 Si39 2.403893 1_555
Si23 Si37 2.411123 1_555
Si23 Si38 2.411123 1_555
Si23 Si40 2.449805 1_555
Si24 Si35 2.357719 1_555
Si25 Si34 2.378932 1_554
Si25 Si5 2.407852 1_555
Si25 Si3 2.416266 1_555
Si25 Si4 2.422539 1_544
Si26 Si33 2.378932 1_555
Si26 Si5 2.407852 1_555
Si26 Si6 2.416266 1_555
Si26 Si7 2.422539 1_545
Si27 Si32 2.357719 1_554
Si27 Si8 2.407660 1_555
Si27 Si9 2.423685 1_554
Si28 Si37 2.365165 1_554
Si28 Si3 2.414426 1_555
Si28 Si9 2.421980 1_544
Si29 Si36 2.365165 1_555
Si29 Si7 2.419879 1_555
Si30 Si39 2.365165 1_554
Si30 Si8 2.416236 1_555
Si30 Si4 2.419879 1_554
Si31 Si38 2.365165 1_555
Si31 Si6 2.414426 1_555
Si40 Si9 2.427473 1_545
