# generated using pymatgen
data_TiCrCuS4
_symmetry_space_group_name_H-M   'P 1'
_cell_length_a   11.40241600
_cell_length_b   3.43379100
_cell_length_c   12.05439000
_cell_angle_alpha   90.00000000
_cell_angle_beta   90.00000000
_cell_angle_gamma   90.00000000
_symmetry_Int_Tables_number   1
_chemical_formula_structural   TiCrCuS4
_chemical_formula_sum   'Ti4 Cr4 Cu4 S16'
_cell_volume   471.97172086
_cell_formula_units_Z   4
loop_
 _symmetry_equiv_pos_site_id
 _symmetry_equiv_pos_as_xyz
  1  'x, y, z'
loop_
 _atom_site_type_symbol
 _atom_site_label
 _atom_site_symmetry_multiplicity
 _atom_site_fract_x
 _atom_site_fract_y
 _atom_site_fract_z
 _atom_site_occupancy
  Ti  Ti0  1  0.14658200  0.25000000  0.70633200  1
  Ti  Ti1  1  0.85341800  0.75000000  0.29366800  1
  Ti  Ti2  1  0.35341800  0.75000000  0.20633200  1
  Ti  Ti3  1  0.64658200  0.25000000  0.79366800  1
  Cr  Cr0  1  0.11342400  0.25000000  0.07188600  1
  Cr  Cr1  1  0.88657600  0.75000000  0.92811400  1
  Cr  Cr2  1  0.38657600  0.75000000  0.57188600  1
  Cr  Cr3  1  0.61342400  0.25000000  0.42811400  1
  Cu  Cu0  1  0.12309500  0.75000000  0.42301500  1
  Cu  Cu1  1  0.87690500  0.25000000  0.57698500  1
  Cu  Cu2  1  0.37690500  0.25000000  0.92301500  1
  Cu  Cu3  1  0.62309500  0.75000000  0.07698500  1
  S  S0  1  0.03361000  0.75000000  0.61219700  1
  S  S1  1  0.96639000  0.25000000  0.38780300  1
  S  S2  1  0.46639000  0.25000000  0.11219700  1
  S  S3  1  0.53361000  0.75000000  0.88780300  1
  S  S4  1  0.02912400  0.25000000  0.88294300  1
  S  S5  1  0.97087600  0.75000000  0.11705700  1
  S  S6  1  0.47087600  0.75000000  0.38294300  1
  S  S7  1  0.52912400  0.25000000  0.61705700  1
  S  S8  1  0.20918700  0.25000000  0.25296700  1
  S  S9  1  0.79081300  0.75000000  0.74703300  1
  S  S10  1  0.29081300  0.75000000  0.75296700  1
  S  S11  1  0.70918700  0.25000000  0.24703300  1
  S  S12  1  0.24714900  0.75000000  0.02475600  1
  S  S13  1  0.75285100  0.25000000  0.97524400  1
  S  S14  1  0.25285100  0.25000000  0.52475600  1
  S  S15  1  0.74714900  0.75000000  0.47524400  1
loop_
_geom_bond_atom_site_label_1
_geom_bond_atom_site_label_2
_geom_bond_distance
_geom_bond_site_symmetry_2
Cr0 S12 2.365475 1_545
Cr0 S12 2.365475 1_555
Cr0 S5 2.426132 1_455
Cr0 S5 2.426132 1_445
Cr0 S8 2.440700 1_555
Cr0 S4 2.472120 1_554
Cr1 S13 2.365475 1_555
Cr1 S13 2.365475 1_565
Cr1 S4 2.426132 1_655
Cr1 S4 2.426132 1_665
Cr1 S9 2.440700 1_555
Cr1 S5 2.472120 1_556
Cr2 S14 2.365475 1_565
Cr2 S14 2.365475 1_555
Cr2 S7 2.426132 1_565
Cr2 S7 2.426132 1_555
Cr2 S10 2.440700 1_555
Cr2 S6 2.472120 1_555
Cr3 S15 2.365475 1_555
Cr3 S15 2.365475 1_545
Cr3 S6 2.426132 1_555
Cr3 S6 2.426132 1_545
Cr3 S11 2.440700 1_555
Cr3 S7 2.472120 1_555
Cu0 S0 2.498332 1_555
Cu0 S1 2.514081 1_465
Cu0 S1 2.514081 1_455
Cu0 S14 2.576988 1_565
Cu0 S14 2.576988 1_555
Cu0 S8 2.848361 1_565
Cu0 S8 2.848361 1_555
Cu1 S1 2.498332 1_555
Cu1 S0 2.514081 1_655
Cu1 S0 2.514081 1_645
Cu1 S15 2.576988 1_555
Cu1 S15 2.576988 1_545
Cu1 S9 2.848361 1_545
Cu1 S9 2.848361 1_555
Cu2 S2 2.498332 1_556
Cu2 S3 2.514081 1_555
Cu2 S3 2.514081 1_545
Cu2 S12 2.576988 1_556
Cu2 S12 2.576988 1_546
Cu2 S10 2.848361 1_555
Cu2 S10 2.848361 1_545
Cu3 S3 2.498332 1_554
Cu3 S2 2.514081 1_555
Cu3 S2 2.514081 1_565
Cu3 S13 2.576988 1_564
Cu3 S13 2.576988 1_554
Cu3 S11 2.848361 1_555
Cu3 S11 2.848361 1_565
S0 Ti0 2.427901 1_555
S0 Ti0 2.427901 1_565
S1 Ti1 2.427901 1_545
S1 Ti1 2.427901 1_555
S2 Ti2 2.427901 1_555
S2 Ti2 2.427901 1_545
S3 Ti3 2.427901 1_555
S3 Ti3 2.427901 1_565
S4 Ti0 2.515177 1_555
S5 Ti1 2.515177 1_555
S6 Ti2 2.515177 1_555
S7 Ti3 2.515177 1_555
S8 Ti2 2.443031 1_555
S8 Ti2 2.443031 1_545
S9 Ti3 2.443031 1_555
S9 Ti3 2.443031 1_565
S10 Ti0 2.443031 1_555
S10 Ti0 2.443031 1_565
S11 Ti1 2.443031 1_545
S11 Ti1 2.443031 1_555
S12 Ti2 2.501813 1_555
S13 Ti3 2.501813 1_555
S14 Ti0 2.501813 1_555
S15 Ti1 2.501813 1_555
