# generated using pymatgen
data_GaFeN2
_symmetry_space_group_name_H-M   'P 1'
_cell_length_a   5.42743800
_cell_length_b   6.28608700
_cell_length_c   5.10055200
_cell_angle_alpha   90.00000000
_cell_angle_beta   90.00000000
_cell_angle_gamma   90.00000000
_symmetry_Int_Tables_number   1
_chemical_formula_structural   GaFeN2
_chemical_formula_sum   'Ga4 Fe4 N8'
_cell_volume   174.01730480
_cell_formula_units_Z   4
loop_
 _symmetry_equiv_pos_site_id
 _symmetry_equiv_pos_as_xyz
  1  'x, y, z'
loop_
 _atom_site_type_symbol
 _atom_site_label
 _atom_site_symmetry_multiplicity
 _atom_site_fract_x
 _atom_site_fract_y
 _atom_site_fract_z
 _atom_site_occupancy
  Ga  Ga0  1  0.58738100  0.37732600  0.00607700  1
  Ga  Ga1  1  0.41261900  0.62267400  0.50607700  1
  Ga  Ga2  1  0.91261900  0.87732600  0.50607700  1
  Ga  Ga3  1  0.08738100  0.12267400  0.00607700  1
  Fe  Fe0  1  0.57345600  0.87547700  0.00175900  1
  Fe  Fe1  1  0.42654400  0.12452300  0.50175900  1
  Fe  Fe2  1  0.92654400  0.37547700  0.50175900  1
  Fe  Fe3  1  0.07345600  0.62452300  0.00175900  1
  N  N0  1  0.59723400  0.36769900  0.39585400  1
  N  N1  1  0.40276600  0.63230100  0.89585400  1
  N  N2  1  0.90276600  0.86769900  0.89585400  1
  N  N3  1  0.09723400  0.13230100  0.39585400  1
  N  N4  1  0.57733000  0.87822600  0.36631000  1
  N  N5  1  0.42266900  0.12177400  0.86631000  1
  N  N6  1  0.92267000  0.37822600  0.86631000  1
  N  N7  1  0.07733000  0.62177400  0.36631000  1
loop_
_geom_bond_atom_site_label_1
_geom_bond_atom_site_label_2
_geom_bond_distance
_geom_bond_site_symmetry_2
Ga0 N6 1.954423 1_554
Ga0 N5 1.971795 1_554
Ga0 N1 1.972054 1_554
Ga0 N0 1.989717 1_555
Ga1 N7 1.954423 1_555
Ga1 N4 1.971792 1_555
Ga1 N0 1.972054 1_555
Ga1 N1 1.989717 1_555
Ga2 N4 1.954423 1_555
Ga2 N7 1.971792 1_655
Ga2 N3 1.972054 1_665
Ga2 N2 1.989717 1_555
Ga3 N5 1.954418 1_554
Ga3 N6 1.971792 1_454
Ga3 N2 1.972054 1_444
Ga3 N3 1.989717 1_555
Fe0 N4 1.859610 1_555
Fe0 N1 1.867276 1_554
Fe0 N2 1.867794 1_554
Fe0 N5 1.882581 1_564
Fe1 N5 1.859611 1_555
Fe1 N0 1.867276 1_555
Fe1 N3 1.867794 1_555
Fe1 N4 1.882579 1_545
Fe2 N6 1.859610 1_555
Fe2 N3 1.867276 1_655
Fe2 N0 1.867794 1_555
Fe2 N7 1.882579 1_655
Fe3 N7 1.859610 1_555
Fe3 N2 1.867276 1_454
Fe3 N1 1.867794 1_554
Fe3 N6 1.882579 1_454
