# generated using pymatgen
data_LiErS2
_symmetry_space_group_name_H-M   'P 1'
_cell_length_a   6.51071174
_cell_length_b   6.51071171
_cell_length_c   6.51071202
_cell_angle_alpha   34.50237213
_cell_angle_beta   34.50237407
_cell_angle_gamma   34.50237878
_symmetry_Int_Tables_number   1
_chemical_formula_structural   LiErS2
_chemical_formula_sum   'Li1 Er1 S2'
_cell_volume   78.99878352
_cell_formula_units_Z   1
loop_
 _symmetry_equiv_pos_site_id
 _symmetry_equiv_pos_as_xyz
  1  'x, y, z'
loop_
 _atom_site_type_symbol
 _atom_site_label
 _atom_site_symmetry_multiplicity
 _atom_site_fract_x
 _atom_site_fract_y
 _atom_site_fract_z
 _atom_site_occupancy
  Li  Li0  1  0.50000000  0.50000000  0.50000000  1
  Er  Er0  1  0.00000000  0.00000000  -0.00000000  1
  S  S0  1  0.25036225  0.25036225  0.25036225  1
  S  S1  1  0.74963775  0.74963775  0.74963775  1
loop_
_geom_bond_atom_site_label_1
_geom_bond_atom_site_label_2
_geom_bond_distance
_geom_bond_site_symmetry_2
Li0 S1 2.707364 1_545
Li0 S0 2.707364 1_565
Li0 S0 2.707364 1_556
Li0 S1 2.707364 1_554
Li0 S0 2.707364 1_655
Li0 S1 2.707364 1_455
Er0 S1 2.699844 1_454
Er0 S0 2.699844 1_545
Er0 S1 2.699844 1_445
Er0 S0 2.699844 1_554
Er0 S0 2.699844 1_455
Er0 S1 2.699844 1_544
