# generated using pymatgen
data_Ca5Al11TlSi13O48
_symmetry_space_group_name_H-M   'P 1'
_cell_length_a   12.61572088
_cell_length_b   12.32962487
_cell_length_c   12.16438197
_cell_angle_alpha   90.52166638
_cell_angle_beta   89.44771355
_cell_angle_gamma   90.26958583
_symmetry_Int_Tables_number   1
_chemical_formula_structural   Ca5Al11TlSi13O48
_chemical_formula_sum   'Ca5 Al11 Tl1 Si13 O48'
_cell_volume   1891.94791321
_cell_formula_units_Z   1
loop_
 _symmetry_equiv_pos_site_id
 _symmetry_equiv_pos_as_xyz
  1  'x, y, z'
loop_
 _atom_site_type_symbol
 _atom_site_label
 _atom_site_symmetry_multiplicity
 _atom_site_fract_x
 _atom_site_fract_y
 _atom_site_fract_z
 _atom_site_occupancy
  Ca  Ca0  1  0.78477189  0.19064204  0.19816463  1
  Ca  Ca1  1  0.77508269  0.18606870  0.81300235  1
  Ca  Ca2  1  0.77972800  0.81019177  0.18249977  1
  Ca  Ca3  1  0.81992982  0.77353175  0.80087247  1
  Ca  Ca4  1  0.20499555  0.00017438  0.00591854  1
  Al  Al0  1  0.61346725  0.18470797  0.00782447  1
  Al  Al1  1  0.61593153  0.00541031  0.18414365  1
  Al  Al2  1  0.62245517  0.81403061  0.98086446  1
  Al  Al3  1  0.61754441  0.99303697  0.80410684  1
  Al  Al4  1  0.83433428  0.99557115  0.35959633  1
  Al  Al5  1  0.83303972  0.35825705  0.99860203  1
  Al  Al6  1  0.82477770  0.62406679  0.01485736  1
  Al  Al7  1  0.81945589  0.01224312  0.63130371  1
  Al  Al8  1  0.00400691  0.62835214  0.18939575  1
  Al  Al9  1  0.00939654  0.62449059  0.81579829  1
  Al  Al10  1  0.99453957  0.82582524  0.63584286  1
  Tl  Tl0  1  0.49662333  0.74903799  0.74814798  1
  Si  Si0  1  0.17888484  0.99841150  0.37045292  1
  Si  Si1  1  0.18042300  0.36989541  0.99982554  1
  Si  Si2  1  0.18281754  0.62239846  0.99307435  1
  Si  Si3  1  0.17749253  0.99542978  0.62596611  1
  Si  Si4  1  0.36432854  0.18662152  0.99771437  1
  Si  Si5  1  0.35896349  0.81122486  0.99318717  1
  Si  Si6  1  0.36591254  0.99698863  0.18684663  1
  Si  Si7  1  0.35672256  0.99619284  0.80972576  1
  Si  Si8  1  0.00848909  0.18413847  0.36865456  1
  Si  Si9  1  0.00576296  0.18530261  0.62823724  1
  Si  Si10  1  0.00676380  0.36366143  0.18508115  1
  Si  Si11  1  0.00864007  0.36392802  0.81182222  1
  Si  Si12  1  0.00570801  0.81701349  0.36416236  1
  O  O0  1  0.99237304  0.21426542  0.49806316  1
  O  O1  1  0.99599989  0.48876511  0.21144698  1
  O  O2  1  0.02889631  0.29473284  0.69822856  1
  O  O3  1  0.02531847  0.70042318  0.31053127  1
  O  O4  1  0.99017348  0.81842506  0.49427065  1
  O  O5  1  0.97232947  0.70707596  0.70725743  1
  O  O6  1  0.11627347  0.11235500  0.35206494  1
  O  O7  1  0.10833393  0.10617155  0.64207434  1
  O  O8  1  0.11154328  0.33562065  0.10817595  1
  O  O9  1  0.10697821  0.65506103  0.09417794  1
  O  O10  1  0.11315590  0.34291492  0.88969290  1
  O  O11  1  0.13610001  0.64312952  0.87272074  1
  O  O12  1  0.11540759  0.89131439  0.66948588  1
  O  O13  1  0.10808713  0.89714485  0.32965970  1
  O  O14  1  0.22464321  0.49406741  0.00414535  1
  O  O15  1  0.21959360  0.98912280  0.49707398  1
  O  O16  1  0.27878773  0.28215663  0.99889124  1
  O  O17  1  0.28454831  0.00916095  0.70326561  1
  O  O18  1  0.29192628  0.70182633  0.00126726  1
  O  O19  1  0.28066742  0.00222932  0.28531461  1
  O  O20  1  0.33416279  0.10184397  0.10343183  1
  O  O21  1  0.32640372  0.09918595  0.89593725  1
  O  O22  1  0.32739623  0.89516754  0.09944105  1
  O  O23  1  0.31054871  0.89282629  0.89096678  1
  O  O24  1  0.48345777  0.98622511  0.22730883  1
  O  O25  1  0.48223427  0.22848987  0.98908550  1
  O  O26  1  0.47823742  0.97695385  0.77856334  1
  O  O27  1  0.48212600  0.78884039  0.97072193  1
  O  O28  1  0.62495677  0.14050254  0.14266297  1
  O  O29  1  0.63994286  0.08889418  0.90593767  1
  O  O30  1  0.64486549  0.90080195  0.09117113  1
  O  O31  1  0.65052532  0.85702532  0.84186757  1
  O  O32  1  0.70287206  0.04444013  0.70501845  1
  O  O33  1  0.72851045  0.26359296  0.99193401  1
  O  O34  1  0.71527414  0.71421095  0.00191701  1
  O  O35  1  0.73000554  0.99940503  0.26515241  1
  O  O36  1  0.79505128  0.48883392  0.00631995  1
  O  O37  1  0.80185800  0.00344476  0.49357787  1
  O  O38  1  0.89592518  0.13148132  0.67534513  1
  O  O39  1  0.87913072  0.67131039  0.14069977  1
  O  O40  1  0.90955986  0.66792540  0.90919155  1
  O  O41  1  0.88425307  0.90176599  0.69043940  1
  O  O42  1  0.90586396  0.11772063  0.31864711  1
  O  O43  1  0.90169067  0.31164776  0.12081831  1
  O  O44  1  0.90410592  0.31145640  0.87675783  1
  O  O45  1  0.90084798  0.87754328  0.30791445  1
  O  O46  1  0.01890770  0.29481427  0.29900005  1
  O  O47  1  0.99195918  0.48764336  0.78347152  1
loop_
_geom_bond_atom_site_label_1
_geom_bond_atom_site_label_2
_geom_bond_distance
_geom_bond_site_symmetry_2
Ca0 O28 2.215829 1_555
Ca0 O43 2.294544 1_555
Ca0 O42 2.317364 1_555
Ca0 O35 2.590323 1_545
Ca0 O33 2.772661 1_554
Ca1 O38 2.349692 1_555
Ca1 O32 2.360291 1_555
Ca1 O29 2.363992 1_555
Ca1 O44 2.370619 1_555
Ca1 O33 2.437037 1_555
Ca2 O39 2.180682 1_555
Ca2 O45 2.315554 1_555
Ca2 O30 2.335376 1_555
Ca2 O35 2.608795 1_555
Ca2 O34 2.620128 1_555
Ca3 O40 2.187236 1_555
Ca3 O41 2.229013 1_555
Ca3 O5 2.370719 1_555
Ca3 O31 2.422127 1_555
Ca3 O34 2.867102 1_556
Ca4 O23 2.329663 1_544
Ca4 O22 2.331188 1_545
Ca4 O21 2.366167 1_554
Ca4 O20 2.371663 1_555
Al0 O29 1.735599 1_554
Al0 O28 1.740697 1_555
Al0 O33 1.753429 1_554
Al0 O25 1.761333 1_554
Al1 O30 1.745206 1_545
Al1 O28 1.747664 1_555
Al1 O35 1.754221 1_545
Al1 O24 1.762489 1_545
Al2 O34 1.725275 1_556
Al2 O30 1.733008 1_556
Al2 O27 1.801160 1_555
Al2 O31 1.807837 1_555
Al3 O29 1.728596 1_565
Al3 O32 1.730841 1_565
Al3 O31 1.794610 1_555
Al3 O26 1.797402 1_555
Al4 O37 1.678739 1_565
Al4 O35 1.756461 1_555
Al4 O45 1.789340 1_555
Al4 O42 1.822872 1_565
Al5 O36 1.683485 1_556
Al5 O33 1.758899 1_555
Al5 O44 1.815832 1_555
Al5 O43 1.826375 1_556
Al6 O36 1.709755 1_555
Al6 O40 1.751941 1_554
Al6 O39 1.775687 1_555
Al6 O34 1.786158 1_555
Al7 O37 1.694546 1_555
Al7 O41 1.755220 1_545
Al7 O32 1.760244 1_555
Al7 O38 1.833396 1_555
Al8 O3 1.736311 1_555
Al8 O1 1.746550 1_455
Al8 O9 1.763941 1_555
Al8 O39 1.773380 1_455
Al9 O47 1.742417 1_455
Al9 O5 1.743458 1_455
Al9 O11 1.761338 1_555
Al9 O40 1.769607 1_455
Al10 O4 1.725120 1_555
Al10 O5 1.729587 1_555
Al10 O12 1.771729 1_655
Al10 O41 1.799091 1_555
O0 Si8 1.625188 1_655
O0 Si9 1.636921 1_655
O1 Si10 1.578821 1_655
O2 Si9 1.615752 1_555
O2 Si11 1.635943 1_555
O3 Si12 1.592616 1_555
O4 Si12 1.592846 1_655
O6 Si0 1.633161 1_545
O6 Si8 1.635799 1_555
O7 Si3 1.633095 1_545
O7 Si9 1.635164 1_555
O8 Si1 1.629559 1_554
O8 Si10 1.648213 1_555
O9 Si2 1.600647 1_554
O10 Si1 1.623808 1_555
O10 Si11 1.653699 1_555
O11 Si2 1.606530 1_555
O12 Si3 1.592653 1_555
O13 Si0 1.609255 1_555
O13 Si12 1.674981 1_555
O14 Si1 1.627571 1_554
O14 Si2 1.677277 1_554
O15 Si0 1.633496 1_555
O15 Si3 1.651834 1_555
O16 Si4 1.601132 1_555
O16 Si1 1.649989 1_555
O17 Si7 1.599870 1_545
O17 Si3 1.660223 1_545
O18 Si5 1.591968 1_554
O18 Si2 1.688753 1_554
O19 Si6 1.603079 1_545
O19 Si0 1.642647 1_545
O20 Si6 1.702360 1_545
O20 Si4 1.703670 1_554
O21 Si7 1.682629 1_545
O21 Si4 1.704742 1_555
O22 Si5 1.694099 1_554
O22 Si6 1.709550 1_555
O23 Si7 1.716125 1_555
O23 Si5 1.724731 1_555
O24 Si6 1.573540 1_555
O25 Si4 1.575058 1_555
O26 Si7 1.593934 1_555
O26 Tl0 2.841302 1_555
O27 Si5 1.599866 1_555
O27 Tl0 2.751692 1_555
O31 Tl0 2.613980 1_555
O38 Si9 1.634568 1_655
O42 Si8 1.647121 1_655
O43 Si10 1.668038 1_655
O44 Si11 1.662184 1_655
O45 Si12 1.676663 1_655
O46 Si8 1.616950 1_555
O46 Si10 1.640452 1_555
O47 Si11 1.582389 1_655
