# generated using pymatgen
data_Zr3Rh
_symmetry_space_group_name_H-M   'P 1'
_cell_length_a   5.75160336
_cell_length_b   8.11347589
_cell_length_c   8.11322857
_cell_angle_alpha   82.75893128
_cell_angle_beta   69.19874125
_cell_angle_gamma   69.20039577
_symmetry_Int_Tables_number   1
_chemical_formula_structural   Zr3Rh
_chemical_formula_sum   'Zr12 Rh4'
_cell_volume   330.86312646
_cell_formula_units_Z   4
loop_
 _symmetry_equiv_pos_site_id
 _symmetry_equiv_pos_as_xyz
  1  'x, y, z'
loop_
 _atom_site_type_symbol
 _atom_site_label
 _atom_site_symmetry_multiplicity
 _atom_site_fract_x
 _atom_site_fract_y
 _atom_site_fract_z
 _atom_site_occupancy
  Zr  Zr0  1  0.66603069  0.19167066  0.00007707  1
  Zr  Zr1  1  0.85948911  0.80787083  0.00033933  1
  Zr  Zr2  1  0.14042551  -0.00019101  0.19211610  1
  Zr  Zr3  1  0.33413308  0.99964051  0.80827078  1
  Zr  Zr4  1  0.00011656  0.35459047  0.64514855  1
  Zr  Zr5  1  0.99976298  0.64554427  0.35481849  1
  Zr  Zr6  1  0.64498888  0.35487303  0.35444846  1
  Zr  Zr7  1  0.35511706  0.64537414  0.64536992  1
  Zr  Zr8  1  0.04725387  0.40909572  0.99951749  1
  Zr  Zr9  1  0.45658048  0.59056941  -0.00014203  1
  Zr  Zr10  1  0.54324619  0.00044049  0.40947137  1
  Zr  Zr11  1  0.95293978  0.00006384  0.59095835  1
  Rh  Rh0  1  0.50008833  0.29356910  0.70612948  1
  Rh  Rh1  1  0.49977874  0.70681653  0.29352753  1
  Rh  Rh2  1  0.20648846  0.29365822  0.29331576  1
  Rh  Rh3  1  0.79356227  0.70641279  0.70663836  1
loop_
_geom_bond_atom_site_label_1
_geom_bond_atom_site_label_2
_geom_bond_distance
_geom_bond_site_symmetry_2
Rh0 Zr6 2.707545 1_555
Rh0 Zr7 2.707874 1_555
Rh0 Zr8 2.784493 1_555
Rh0 Zr11 2.784833 1_555
Rh0 Zr0 2.800227 1_556
Rh0 Zr3 2.800292 1_545
Rh0 Zr4 2.949038 1_555
Rh0 Zr4 2.949567 1_655
Rh1 Zr7 2.708934 1_555
Rh1 Zr6 2.709115 1_555
Rh1 Zr10 2.788860 1_565
Rh1 Zr9 2.789534 1_555
Rh1 Zr2 2.797358 1_565
Rh1 Zr1 2.797951 1_555
Rh1 Zr5 2.949943 1_555
Rh1 Zr5 2.949999 1_455
Rh2 Zr4 2.708131 1_555
Rh2 Zr5 2.709376 1_455
Rh2 Zr10 2.785341 1_555
Rh2 Zr8 2.788611 1_554
Rh2 Zr0 2.794214 1_555
Rh2 Zr2 2.803755 1_555
Rh2 Zr6 2.948516 1_555
Rh2 Zr6 2.950891 1_455
Rh3 Zr5 2.707953 1_555
Rh3 Zr4 2.708884 1_655
Rh3 Zr9 2.784711 1_556
Rh3 Zr11 2.788178 1_565
Rh3 Zr3 2.793699 1_555
Rh3 Zr1 2.803095 1_556
Rh3 Zr7 2.948045 1_555
Rh3 Zr7 2.951266 1_655
