# generated using pymatgen
data_MgAu5
_symmetry_space_group_name_H-M   'P 1'
_cell_length_a   5.60146899
_cell_length_b   5.60146899
_cell_length_c   5.60146900
_cell_angle_alpha   53.24685024
_cell_angle_beta   53.24685024
_cell_angle_gamma   53.24684383
_symmetry_Int_Tables_number   1
_chemical_formula_structural   MgAu5
_chemical_formula_sum   'Mg1 Au5'
_cell_volume   104.62186356
_cell_formula_units_Z   1
loop_
 _symmetry_equiv_pos_site_id
 _symmetry_equiv_pos_as_xyz
  1  'x, y, z'
loop_
 _atom_site_type_symbol
 _atom_site_label
 _atom_site_symmetry_multiplicity
 _atom_site_fract_x
 _atom_site_fract_y
 _atom_site_fract_z
 _atom_site_occupancy
  Mg  Mg0  1  0.50000000  0.50000000  0.50000000  1
  Au  Au0  1  1.00000000  0.66614494  0.33385506  1
  Au  Au1  1  0.66614494  0.33385506  0.00000000  1
  Au  Au2  1  0.33385506  0.00000000  0.66614494  1
  Au  Au3  1  0.83253790  0.83253790  0.83253790  1
  Au  Au4  1  0.16746210  0.16746210  0.16746210  1
loop_
_geom_bond_atom_site_label_1
_geom_bond_atom_site_label_2
_geom_bond_distance
_geom_bond_site_symmetry_2
Au0 Au2 2.896213 1_655
Au0 Au2 2.896213 1_565
Au0 Au1 2.896213 1_655
Au0 Au1 2.896213 1_556
Au0 Au1 2.903015 1_565
Au0 Au2 2.903015 1_664
Au0 Au4 2.912926 1_655
Au0 Au3 2.912926 1_555
Au0 Mg0 2.922300 1_655
Au0 Mg0 2.922300 1_555
Au0 Au3 2.933929 1_554
Au0 Au4 2.933929 1_665
Au1 Au2 2.896213 1_564
Au1 Au2 2.896213 1_555
Au1 Au2 2.903015 1_654
Au1 Au3 2.912927 1_554
Au1 Au4 2.912927 1_555
Au1 Mg0 2.922300 1_555
Au1 Mg0 2.922300 1_554
Au1 Au4 2.933929 1_655
Au1 Au3 2.933929 1_544
Au2 Au3 2.912926 1_545
Au2 Au4 2.912926 1_555
Au2 Mg0 2.922300 1_545
Au2 Mg0 2.922300 1_555
Au2 Au4 2.933929 1_556
Au2 Au3 2.933929 1_445
Au3 Mg0 2.898501 1_565
Au3 Mg0 2.898501 1_655
Au3 Mg0 2.898501 1_556
Au3 Au4 2.898569 1_656
Au3 Au4 2.898569 1_566
Au3 Au4 2.898569 1_665
Au4 Mg0 2.898501 1_545
Au4 Mg0 2.898501 1_455
Au4 Mg0 2.898501 1_554
