# generated using pymatgen
data_Li6Zn3(PS4)4
_symmetry_space_group_name_H-M   'P 1'
_cell_length_a   9.33523410
_cell_length_b   11.60831412
_cell_length_c   23.14778419
_cell_angle_alpha   89.91307795
_cell_angle_beta   90.05461148
_cell_angle_gamma   90.00801212
_symmetry_Int_Tables_number   1
_chemical_formula_structural   Li6Zn3(PS4)4
_chemical_formula_sum   'Li24 Zn12 P16 S64'
_cell_volume   2508.43636537
_cell_formula_units_Z   4
loop_
 _symmetry_equiv_pos_site_id
 _symmetry_equiv_pos_as_xyz
  1  'x, y, z'
loop_
 _atom_site_type_symbol
 _atom_site_label
 _atom_site_symmetry_multiplicity
 _atom_site_fract_x
 _atom_site_fract_y
 _atom_site_fract_z
 _atom_site_occupancy
  Li  Li0  1  0.74725431  0.99430586  0.87376785  1
  Li  Li1  1  0.25060689  0.75390631  0.74882456  1
  Li  Li2  1  0.24836221  0.24563251  0.74799028  1
  Li  Li3  1  0.24907470  0.74269668  0.99946488  1
  Li  Li4  1  0.50316340  0.49820102  0.25109562  1
  Li  Li5  1  0.50085641  0.99944164  0.25087462  1
  Li  Li6  1  0.50044237  0.49804704  0.49979848  1
  Li  Li7  1  0.50497793  0.00220648  0.49966570  1
  Li  Li8  1  0.00164166  0.74985195  0.37550378  1
  Li  Li9  1  0.00369929  0.25109999  0.37452586  1
  Li  Li10  1  0.51086599  0.50201189  0.74893985  1
  Li  Li11  1  0.50479452  0.00091354  0.74798483  1
  Li  Li12  1  0.99457394  0.75251404  0.62297077  1
  Li  Li13  1  0.99273489  0.24941745  0.62310663  1
  Li  Li14  1  0.50478420  0.49759059  0.99986514  1
  Li  Li15  1  0.49887643  0.00129466  0.00195803  1
  Li  Li16  1  0.99170250  0.74656494  0.87412170  1
  Li  Li17  1  0.00068175  0.25180352  0.87687088  1
  Li  Li18  1  0.99932401  0.74784768  0.12679427  1
  Li  Li19  1  0.99878004  0.25079052  0.12536146  1
  Li  Li20  1  0.50612572  0.24802462  0.62347274  1
  Li  Li21  1  0.50650662  0.74847331  0.87538855  1
  Li  Li22  1  0.99455525  0.99884551  0.74804351  1
  Li  Li23  1  0.99371629  0.49875790  0.99995202  1
  Zn  Zn0  1  0.49939762  0.25186015  0.12468763  1
  Zn  Zn1  1  0.50653836  0.74799874  0.12674383  1
  Zn  Zn2  1  0.50006351  0.25099996  0.37574893  1
  Zn  Zn3  1  0.49883223  0.75016225  0.37529191  1
  Zn  Zn4  1  0.00013217  0.50029635  0.25026895  1
  Zn  Zn5  1  0.99851208  0.00097624  0.25082476  1
  Zn  Zn6  1  0.50501051  0.75177655  0.62370199  1
  Zn  Zn7  1  0.99781823  0.49859160  0.50005537  1
  Zn  Zn8  1  0.99908040  0.00148749  0.49958645  1
  Zn  Zn9  1  0.50112170  0.25143421  0.87586397  1
  Zn  Zn10  1  0.98807138  0.49937529  0.75035931  1
  Zn  Zn11  1  0.99835380  0.00080951  0.00198064  1
  P  P0  1  0.74989566  0.24950731  0.24983703  1
  P  P1  1  0.75042423  0.74996426  0.25035897  1
  P  P2  1  0.75104364  0.24612649  0.49870210  1
  P  P3  1  0.75007410  0.75003068  0.49956273  1
  P  P4  1  0.25010635  0.50013812  0.37499185  1
  P  P5  1  0.25033187  0.99979301  0.37499240  1
  P  P6  1  0.75268291  0.25413165  0.74916232  1
  P  P7  1  0.74650038  0.74650350  0.75183567  1
  P  P8  1  0.24886910  0.50122987  0.62382858  1
  P  P9  1  0.24972207  0.99454981  0.62704526  1
  P  P10  1  0.74643436  0.24767451  0.00189208  1
  P  P11  1  0.75267802  0.75712328  0.99868834  1
  P  P12  1  0.24733698  0.49646885  0.87623934  1
  P  P13  1  0.25224140  0.00403695  0.87316204  1
  P  P14  1  0.25354309  0.50486902  0.12529189  1
  P  P15  1  0.24731463  0.99975118  0.12482175  1
  S  S0  1  0.86410534  0.35350747  0.05178736  1
  S  S1  1  0.86964086  0.86215576  0.05379750  1
  S  S2  1  0.86465330  0.36098644  0.30159085  1
  S  S3  1  0.86540361  0.86083541  0.30228581  1
  S  S4  1  0.37075418  0.61159336  0.17858771  1
  S  S5  1  0.36618132  0.10853236  0.17586814  1
  S  S6  1  0.86318896  0.36047750  0.55086863  1
  S  S7  1  0.86249342  0.86267743  0.55124447  1
  S  S8  1  0.36452740  0.61129782  0.42700746  1
  S  S9  1  0.36454308  0.11104005  0.42687517  1
  S  S10  1  0.86709697  0.36003720  0.80472242  1
  S  S11  1  0.86722036  0.85693019  0.80242613  1
  S  S12  1  0.36861749  0.61203922  0.67720181  1
  S  S13  1  0.36701579  0.10589638  0.67777719  1
  S  S14  1  0.36970644  0.60504730  0.92595995  1
  S  S15  1  0.36923557  0.10909584  0.92709824  1
  S  S16  1  0.63532511  0.64671564  0.30592727  1
  S  S17  1  0.63454755  0.14653706  0.30546926  1
  S  S18  1  0.63720650  0.64503911  0.55550499  1
  S  S19  1  0.63948372  0.14383429  0.55302849  1
  S  S20  1  0.13608080  0.89616369  0.43077430  1
  S  S21  1  0.13600051  0.39668094  0.43086904  1
  S  S22  1  0.63048681  0.64338794  0.80419171  1
  S  S23  1  0.63254986  0.14661601  0.80616030  1
  S  S24  1  0.12844252  0.88983843  0.67940219  1
  S  S25  1  0.12860348  0.39772175  0.68092399  1
  S  S26  1  0.63273214  0.65197473  0.05307206  1
  S  S27  1  0.62860931  0.14263551  0.05557327  1
  S  S28  1  0.12966800  0.89836727  0.92849209  1
  S  S29  1  0.13094388  0.39482789  0.92839508  1
  S  S30  1  0.13355994  0.89632430  0.18030410  1
  S  S31  1  0.13586457  0.40010008  0.17962256  1
  S  S32  1  0.86424228  0.13816025  0.19774239  1
  S  S33  1  0.86273221  0.63797937  0.19811371  1
  S  S34  1  0.87204984  0.14036955  0.44581350  1
  S  S35  1  0.86497434  0.63893543  0.44778089  1
  S  S36  1  0.36346639  0.38844691  0.32286204  1
  S  S37  1  0.36399186  0.88823384  0.32276525  1
  S  S38  1  0.86747176  0.14571582  0.69905542  1
  S  S39  1  0.86990775  0.64356190  0.69838571  1
  S  S40  1  0.36432345  0.39376515  0.57447987  1
  S  S41  1  0.37018419  0.89085701  0.57338807  1
  S  S42  1  0.86529891  0.13631787  0.94811272  1
  S  S43  1  0.86587353  0.64757494  0.94844155  1
  S  S44  1  0.37262743  0.39222609  0.82199656  1
  S  S45  1  0.37150233  0.89470600  0.82293524  1
  S  S46  1  0.36540364  0.39197874  0.07294341  1
  S  S47  1  0.36762384  0.88711452  0.07339740  1
  S  S48  1  0.63578706  0.35364156  0.19384145  1
  S  S49  1  0.63801884  0.85564518  0.19443275  1
  S  S50  1  0.63808456  0.35347832  0.44311914  1
  S  S51  1  0.63495359  0.85357751  0.44384337  1
  S  S52  1  0.13549113  0.60433918  0.31914963  1
  S  S53  1  0.13709785  0.10403154  0.31862643  1
  S  S54  1  0.62692365  0.35304065  0.69838556  1
  S  S55  1  0.63586015  0.85292097  0.69523417  1
  S  S56  1  0.12717038  0.60524643  0.57140682  1
  S  S57  1  0.13348641  0.09919230  0.57199175  1
  S  S58  1  0.63695029  0.35223775  0.94455576  1
  S  S59  1  0.62701305  0.86111275  0.94708728  1
  S  S60  1  0.13190971  0.60282835  0.81913314  1
  S  S61  1  0.12429128  0.10465196  0.82195246  1
  S  S62  1  0.13244055  0.60583111  0.07089758  1
  S  S63  1  0.13812588  0.10546321  0.06844432  1
loop_
_geom_bond_atom_site_label_1
_geom_bond_atom_site_label_2
_geom_bond_distance
_geom_bond_site_symmetry_2
Li0 S59 2.554632 1_555
Li0 S11 2.556641 1_555
Li0 S23 2.590502 1_565
Li0 S42 2.626407 1_565
Li1 S24 2.522335 1_555
Li1 S12 2.585857 1_555
Li1 S45 2.625331 1_555
Li1 S60 2.635609 1_555
Li2 S13 2.551780 1_555
Li2 S25 2.601124 1_555
Li2 S61 2.635467 1_555
Li2 S44 2.679674 1_555
Li3 S62 2.537476 1_556
Li3 S14 2.593992 1_555
Li3 S47 2.639811 1_556
Li3 S28 2.682370 1_555
Li4 S4 2.463192 1_555
Li4 S36 2.465940 1_555
Li4 S16 2.471510 1_555
Li4 S48 2.472997 1_555
Li5 S37 2.462776 1_555
Li5 S17 2.464397 1_565
Li5 S49 2.478555 1_555
Li5 S5 2.487649 1_565
Li6 S40 2.462910 1_555
Li6 S8 2.483321 1_555
Li6 S50 2.489824 1_555
Li6 S18 2.491442 1_555
Li7 S19 2.409978 1_555
Li7 S51 2.475686 1_545
Li7 S9 2.478635 1_555
Li7 S41 2.482595 1_545
Li8 S35 2.466111 1_455
Li8 S20 2.469722 1_555
Li8 S52 2.475193 1_555
Li8 S3 2.477800 1_455
Li9 S34 2.425410 1_455
Li9 S21 2.466846 1_555
Li9 S53 2.479929 1_555
Li9 S2 2.480337 1_455
Li10 S54 2.354316 1_555
Li10 S22 2.362031 1_555
Li10 S12 2.478316 1_555
Li10 S44 2.479216 1_555
Li11 S13 2.402297 1_555
Li11 S55 2.439087 1_545
Li11 S45 2.464860 1_545
Li11 S23 2.469770 1_555
Li12 S24 2.410783 1_655
Li12 S56 2.426714 1_655
Li12 S7 2.429478 1_555
Li12 S39 2.449120 1_555
Li13 S38 2.429891 1_555
Li13 S6 2.431197 1_555
Li13 S57 2.485423 1_655
Li13 S25 2.523259 1_655
Li14 S58 2.453272 1_555
Li14 S46 2.460686 1_556
Li14 S14 2.462225 1_555
Li14 S26 2.481653 1_556
Li15 S27 2.387833 1_555
Li15 S59 2.387853 1_544
Li15 S47 2.447334 1_545
Li15 S15 2.454221 1_554
Li16 S43 2.378503 1_555
Li16 S11 2.395058 1_555
Li16 S60 2.475393 1_655
Li16 S28 2.520118 1_655
Li17 S29 2.379153 1_555
Li17 S61 2.423925 1_555
Li17 S10 2.431655 1_455
Li17 S42 2.471993 1_455
Li18 S62 2.438499 1_655
Li18 S33 2.444408 1_555
Li18 S1 2.463983 1_555
Li18 S30 2.465384 1_655
Li19 S0 2.427550 1_555
Li19 S32 2.467970 1_555
Li19 S31 2.494451 1_655
Li19 S63 2.506907 1_655
Li20 S19 2.383673 1_555
Li20 S54 2.401468 1_555
Li20 S40 2.427468 1_555
Li20 S13 2.446391 1_555
Li21 S22 2.356651 1_555
Li21 S59 2.394229 1_555
Li21 S14 2.401994 1_555
Li21 S45 2.436301 1_555
Li22 S38 2.364781 1_565
Li22 S24 2.387110 1_655
Li22 S11 2.389061 1_555
Li22 S61 2.429878 1_665
Li23 S0 2.396394 1_556
Li23 S43 2.412868 1_555
Li23 S29 2.418837 1_655
Li23 S62 2.433228 1_656
P0 S17 2.060150 1_555
P0 S2 2.063821 1_555
P0 S48 2.066158 1_555
P0 S32 2.066845 1_555
P1 S16 2.059885 1_555
P1 S3 2.062806 1_555
P1 S33 2.063782 1_555
P1 S49 2.067592 1_555
P2 S19 2.018322 1_555
P2 S34 2.071129 1_555
P2 S50 2.076832 1_555
P2 S6 2.078045 1_555
P3 S7 2.060202 1_555
P3 S51 2.063078 1_555
P3 S35 2.063470 1_555
P3 S18 2.066374 1_555
P4 S21 2.060946 1_555
P4 S8 2.063399 1_555
P4 S36 2.065085 1_555
P4 S52 2.066833 1_555
P5 S9 2.061227 1_565
P5 S20 2.061429 1_555
P5 S37 2.066880 1_555
P5 S53 2.068060 1_565
P6 S54 2.017843 1_555
P6 S38 2.021047 1_555
P6 S10 2.075580 1_555
P6 S23 2.133911 1_555
P7 S22 2.017976 1_555
P7 S11 2.070316 1_555
P7 S39 2.072084 1_555
P7 S55 2.074200 1_555
P8 S40 2.007432 1_555
P8 S56 2.052903 1_555
P8 S12 2.105332 1_555
P8 S25 2.109159 1_555
P9 S24 2.055696 1_555
P9 S13 2.061658 1_565
P9 S41 2.064882 1_555
P9 S57 2.066401 1_565
P10 S0 2.012819 1_555
P10 S27 2.058708 1_555
P10 S58 2.066949 1_554
P10 S42 2.111842 1_554
P11 S43 2.023312 1_555
P11 S59 2.062388 1_555
P11 S1 2.075512 1_556
P11 S26 2.079907 1_556
P12 S29 2.007011 1_555
P12 S14 2.054194 1_555
P12 S44 2.101580 1_555
P12 S60 2.103697 1_555
P13 S61 2.046824 1_555
P13 S45 2.051660 1_545
P13 S15 2.059262 1_555
P13 S28 2.109970 1_545
P14 S62 2.056743 1_555
P14 S4 2.062949 1_555
P14 S31 2.065239 1_555
P14 S46 2.069715 1_555
P15 S30 2.053322 1_555
P15 S5 2.055173 1_565
P15 S63 2.059335 1_565
P15 S47 2.096578 1_555
S1 Zn11 2.338672 1_565
S2 Zn4 2.371181 1_655
S3 Zn5 2.367674 1_565
S4 Zn1 2.356006 1_555
S5 Zn0 2.390516 1_555
S6 Zn7 2.351601 1_555
S7 Zn8 2.376680 1_565
S8 Zn3 2.366412 1_555
S9 Zn2 2.374275 1_555
S10 Zn10 2.339054 1_555
S12 Zn6 2.404667 1_555
S15 Zn9 2.376703 1_555
S16 Zn3 2.377780 1_555
S17 Zn2 2.388193 1_555
S18 Zn6 2.358021 1_555
S20 Zn8 2.382832 1_465
S21 Zn7 2.374546 1_455
S23 Zn9 2.366286 1_555
S25 Zn10 2.388950 1_455
S26 Zn1 2.355514 1_555
S27 Zn0 2.373255 1_555
S28 Zn11 2.412698 1_466
S30 Zn5 2.395888 1_465
S31 Zn4 2.375440 1_555
S32 Zn5 2.368243 1_555
S33 Zn4 2.376755 1_655
S34 Zn8 2.355076 1_555
S35 Zn7 2.376548 1_555
S36 Zn2 2.379522 1_555
S37 Zn3 2.371388 1_555
S39 Zn10 2.336139 1_555
S41 Zn6 2.353557 1_555
S42 Zn11 2.358744 1_556
S44 Zn9 2.378294 1_555
S46 Zn0 2.374182 1_555
S47 Zn1 2.409550 1_555
S48 Zn0 2.362400 1_555
S49 Zn1 2.350502 1_555
S50 Zn2 2.347040 1_555
S51 Zn3 2.361223 1_555
S52 Zn4 2.366261 1_555
S53 Zn5 2.359971 1_455
S55 Zn6 2.369387 1_555
S56 Zn7 2.391828 1_455
S57 Zn8 2.381406 1_455
S58 Zn9 2.346649 1_555
S60 Zn10 2.404336 1_455
S63 Zn11 2.355149 1_455
