# generated using pymatgen
data_Tb2Fe17N3
_symmetry_space_group_name_H-M   'P 1'
_cell_length_a   6.51139626
_cell_length_b   6.51139626
_cell_length_c   6.51139608
_cell_angle_alpha   82.96863558
_cell_angle_beta   82.96863558
_cell_angle_gamma   82.96864154
_symmetry_Int_Tables_number   1
_chemical_formula_structural   Tb2Fe17N3
_chemical_formula_sum   'Tb2 Fe17 N3'
_cell_volume   270.31299663
_cell_formula_units_Z   1
loop_
 _symmetry_equiv_pos_site_id
 _symmetry_equiv_pos_as_xyz
  1  'x, y, z'
loop_
 _atom_site_type_symbol
 _atom_site_label
 _atom_site_symmetry_multiplicity
 _atom_site_fract_x
 _atom_site_fract_y
 _atom_site_fract_z
 _atom_site_occupancy
  Tb  Tb0  1  0.65874500  0.65874500  0.65874500  1
  Tb  Tb1  1  0.34125500  0.34125500  0.34125500  1
  Fe  Fe0  1  0.00000000  0.00000000  0.50000000  1
  Fe  Fe1  1  0.50000000  0.00000000  0.00000000  1
  Fe  Fe2  1  0.00000000  0.50000000  0.00000000  1
  Fe  Fe3  1  0.71791600  0.28208400  0.00000000  1
  Fe  Fe4  1  0.00000000  0.71791600  0.28208400  1
  Fe  Fe5  1  0.28208400  0.00000000  0.71791600  1
  Fe  Fe6  1  0.00000000  0.28208400  0.71791600  1
  Fe  Fe7  1  0.71791600  0.00000000  0.28208400  1
  Fe  Fe8  1  0.28208400  0.71791600  0.00000000  1
  Fe  Fe9  1  0.34288100  0.34288100  0.85662400  1
  Fe  Fe10  1  0.85662400  0.34288100  0.34288100  1
  Fe  Fe11  1  0.34288100  0.85662400  0.34288100  1
  Fe  Fe12  1  0.65711900  0.65711900  0.14337600  1
  Fe  Fe13  1  0.14337600  0.65711900  0.65711900  1
  Fe  Fe14  1  0.65711900  0.14337600  0.65711900  1
  Fe  Fe15  1  0.90492100  0.90492100  0.90492100  1
  Fe  Fe16  1  0.09507900  0.09507900  0.09507900  1
  N  N0  1  0.50000000  0.50000000  0.00000000  1
  N  N1  1  0.00000000  0.50000000  0.50000000  1
  N  N2  1  0.50000000  0.00000000  0.50000000  1
loop_
_geom_bond_atom_site_label_1
_geom_bond_atom_site_label_2
_geom_bond_distance
_geom_bond_site_symmetry_2
Fe0 Fe5 2.454618 1_555
Fe0 Fe4 2.454618 1_545
Fe0 Fe7 2.454618 1_455
Fe0 Fe6 2.454618 1_555
Fe0 Fe13 2.463170 1_545
Fe0 Fe14 2.463170 1_455
Fe0 Fe10 2.463170 1_455
Fe0 Fe11 2.463170 1_545
Fe0 Fe15 2.648169 1_445
Fe0 Fe16 2.648169 1_555
Fe0 Tb0 3.320783 1_445
Fe0 Tb1 3.320783 1_555
Fe1 Fe3 2.454618 1_555
Fe1 Fe8 2.454618 1_545
Fe1 Fe7 2.454618 1_555
Fe1 Fe5 2.454618 1_554
Fe1 Fe14 2.463170 1_554
Fe1 Fe11 2.463170 1_545
Fe1 Fe12 2.463170 1_545
Fe1 Fe9 2.463170 1_554
Fe1 Fe15 2.648170 1_544
Fe1 Fe16 2.648170 1_555
Fe1 Tb1 3.320783 1_555
Fe1 Tb0 3.320783 1_544
Fe2 Fe8 2.454618 1_555
Fe2 Fe3 2.454618 1_455
Fe2 Fe4 2.454618 1_555
Fe2 Fe6 2.454618 1_554
Fe2 Fe9 2.463170 1_554
Fe2 Tb1 3.320783 1_555
Fe2 Tb0 3.320783 1_454
Fe3 N0 1.879851 1_555
Fe4 N1 1.879851 1_555
Fe5 N2 1.879851 1_555
Fe6 N1 1.879851 1_555
Fe7 N2 1.879851 1_555
Fe8 N0 1.879851 1_555
Fe9 N0 1.920627 1_556
Fe10 N1 1.920627 1_655
Fe10 Fe2 2.463170 1_655
Fe10 Fe16 2.651129 1_655
Fe11 N2 1.920627 1_565
Fe11 Fe16 2.651129 1_565
Fe12 N0 1.920627 1_555
Fe12 Fe2 2.463170 1_655
Fe12 Fe15 2.651129 1_554
Fe13 N1 1.920627 1_555
Fe13 Fe2 2.463170 1_556
Fe13 Fe15 2.651129 1_455
Fe14 N2 1.920627 1_555
Fe14 Fe15 2.651129 1_545
Fe15 Fe16 2.392784 1_666
Fe15 Fe2 2.648170 1_656
Fe15 Fe5 2.711599 1_665
Fe15 Fe6 2.711599 1_665
Fe15 Fe7 2.711599 1_566
Fe15 Fe4 2.711599 1_656
Fe15 Fe3 2.711599 1_566
Fe15 Fe8 2.711599 1_656
Fe15 Tb0 3.097666 1_555
Fe16 Fe2 2.648170 1_555
Fe16 Fe9 2.651129 1_554
Fe16 Fe4 2.711599 1_545
Fe16 Fe7 2.711599 1_455
Fe16 Fe6 2.711599 1_554
Fe16 Fe5 2.711599 1_554
Fe16 Fe3 2.711599 1_455
Fe16 Fe8 2.711599 1_545
Fe16 Tb1 3.097666 1_555
N0 Tb0 2.492248 1_554
N0 Tb1 2.492248 1_555
N1 Tb0 2.492248 1_455
N1 Tb1 2.492248 1_555
N2 Tb0 2.492248 1_545
N2 Tb1 2.492248 1_555
