# generated using pymatgen
data_LiMn2O4
_symmetry_space_group_name_H-M   'P 1'
_cell_length_a   8.70631317
_cell_length_b   13.10418449
_cell_length_c   13.20360767
_cell_angle_alpha   83.75446196
_cell_angle_beta   70.73092670
_cell_angle_gamma   70.60259348
_symmetry_Int_Tables_number   1
_chemical_formula_structural   LiMn2O4
_chemical_formula_sum   'Li18 Mn36 O72'
_cell_volume   1341.28261115
_cell_formula_units_Z   18
loop_
 _symmetry_equiv_pos_site_id
 _symmetry_equiv_pos_as_xyz
  1  'x, y, z'
loop_
 _atom_site_type_symbol
 _atom_site_label
 _atom_site_symmetry_multiplicity
 _atom_site_fract_x
 _atom_site_fract_y
 _atom_site_fract_z
 _atom_site_occupancy
  Li  Li0  1  0.78862081  0.75019512  0.41976590  1
  Li  Li1  1  0.46285638  0.74952626  0.07953652  1
  Li  Li2  1  0.20507004  0.91564421  0.91307425  1
  Li  Li3  1  0.79511920  0.08237243  0.08523166  1
  Li  Li4  1  0.88256173  0.91628609  0.58640260  1
  Li  Li5  1  0.20689197  0.58592951  0.24980252  1
  Li  Li6  1  0.45788190  0.08565459  0.74963848  1
  Li  Li7  1  0.87655418  0.25096232  0.25123986  1
  Li  Li8  1  0.54208409  0.25055644  0.91883077  1
  Li  Li9  1  0.79284069  0.41323722  0.75071872  1
  Li  Li10  1  0.54442158  0.91318256  0.25084701  1
  Li  Li11  1  0.11631929  0.41640213  0.08587934  1
  Li  Li12  1  0.46700424  0.41581960  0.41394229  1
  Li  Li13  1  0.20952613  0.24962247  0.58086587  1
  Li  Li14  1  0.88460099  0.58294216  0.91391893  1
  Li  Li15  1  0.53668972  0.58344797  0.58638139  1
  Li  Li16  1  0.12299228  0.75027848  0.75050315  1
  Li  Li17  1  0.11795184  0.08273557  0.41470569  1
  Mn  Mn0  1  0.82871187  0.33437743  0.49718954  1
  Mn  Mn1  1  0.99546617  0.16867474  0.83486846  1
  Mn  Mn2  1  0.16823430  0.83070516  0.33352543  1
  Mn  Mn3  1  0.67219414  0.50219682  0.16453668  1
  Mn  Mn4  1  0.16286066  0.16626096  0.00318606  1
  Mn  Mn5  1  0.16741206  0.99730682  0.16625347  1
  Mn  Mn6  1  0.50309863  0.66882848  0.33596305  1
  Mn  Mn7  1  0.16818785  0.66668245  0.50468074  1
  Mn  Mn8  1  0.50525586  0.16573492  0.33087355  1
  Mn  Mn9  1  0.16925175  0.33088576  0.83403172  1
  Mn  Mn10  1  0.00176305  0.83120911  0.16571784  1
  Mn  Mn11  1  0.84168568  0.83405359  0.99554493  1
  Mn  Mn12  1  0.67537574  0.16485478  0.49682508  1
  Mn  Mn13  1  0.33076737  0.49802297  0.83395535  1
  Mn  Mn14  1  0.50481050  0.33212875  0.16830585  1
  Mn  Mn15  1  0.83713673  0.33403701  0.00406499  1
  Mn  Mn16  1  0.32452050  0.83430565  0.50522296  1
  Mn  Mn17  1  0.99827218  0.49982731  0.49960786  1
  Mn  Mn18  1  0.82521221  0.50223252  0.33578376  1
  Mn  Mn19  1  0.83856884  0.66623624  0.66945564  1
  Mn  Mn20  1  0.32539343  0.16661224  0.16912396  1
  Mn  Mn21  1  0.16080338  0.33189713  0.33070479  1
  Mn  Mn22  1  0.49621301  0.83213672  0.66838325  1
  Mn  Mn23  1  0.50026545  0.50057771  0.00056765  1
  Mn  Mn24  1  0.67796202  0.83109272  0.83059396  1
  Mn  Mn25  1  0.50332943  0.99952079  0.99879696  1
  Mn  Mn26  1  0.49969956  0.00027870  0.50073413  1
  Mn  Mn27  1  0.49996019  0.66574526  0.83115345  1
  Mn  Mn28  1  0.16872894  0.49749094  0.66715691  1
  Mn  Mn29  1  0.16280785  0.00231092  0.66557496  1
  Mn  Mn30  1  0.82911044  0.66885902  0.16471372  1
  Mn  Mn31  1  0.16389301  0.66548932  0.99477976  1
  Mn  Mn32  1  0.83892847  0.99781970  0.33438273  1
  Mn  Mn33  1  0.83556730  0.16927613  0.66634842  1
  Mn  Mn34  1  0.50073429  0.33114029  0.66603141  1
  Mn  Mn35  1  0.83676673  0.00225892  0.83466274  1
  O  O0  1  0.54889455  0.16883840  0.17197845  1
  O  O1  1  0.39253660  0.00683134  0.15910760  1
  O  O2  1  0.76286614  0.82363362  0.15016466  1
  O  O3  1  0.24172061  0.84389372  0.17294240  1
  O  O4  1  0.24710230  0.50920918  0.98822519  1
  O  O5  1  0.06684605  0.82430014  0.00534585  1
  O  O6  1  0.76269522  0.15727855  0.82786957  1
  O  O7  1  0.75654319  0.00830583  0.48882205  1
  O  O8  1  0.76117008  0.32478706  0.65172085  1
  O  O9  1  0.61421799  0.84063654  0.98811955  1
  O  O10  1  0.42455551  0.32275623  0.32222490  1
  O  O11  1  0.88806971  0.51071358  0.17765847  1
  O  O12  1  0.60510233  0.00609236  0.34096294  1
  O  O13  1  0.92604284  0.01068749  0.67695977  1
  O  O14  1  0.76472502  0.99072828  0.98910119  1
  O  O15  1  0.93500660  0.17619527  0.00096209  1
  O  O16  1  0.60998483  0.66938971  0.67213876  1
  O  O17  1  0.05328135  0.49443731  0.34096891  1
  O  O18  1  0.94095004  0.50657078  0.65970814  1
  O  O19  1  0.23630630  0.01016477  0.01225091  1
  O  O20  1  0.07159111  0.32386956  0.99597026  1
  O  O21  1  0.89800730  0.34681290  0.34336373  1
  O  O22  1  0.75841449  0.15308672  0.34164619  1
  O  O23  1  0.45256648  0.49611914  0.15880782  1
  O  O24  1  0.75477933  0.49048160  0.48990574  1
  O  O25  1  0.39042467  0.15909589  0.01084421  1
  O  O26  1  0.59153840  0.17414066  0.65160467  1
  O  O27  1  0.75328484  0.82115391  0.67516666  1
  O  O28  1  0.93822074  0.99205132  0.17663262  1
  O  O29  1  0.54984572  0.50569088  0.84117826  1
  O  O30  1  0.25031429  0.67378275  0.34928305  1
  O  O31  1  0.54638862  0.84075265  0.51150647  1
  O  O32  1  0.41471556  0.34266849  0.82440572  1
  O  O33  1  0.59967866  0.65652458  0.16711414  1
  O  O34  1  0.38370225  0.67733881  0.50627266  1
  O  O35  1  0.60218271  0.34058850  0.01160714  1
  O  O36  1  0.39766709  0.65916332  0.99017540  1
  O  O37  1  0.07451762  0.65729499  0.66150473  1
  O  O38  1  0.75567616  0.48989292  0.01048892  1
  O  O39  1  0.24416088  0.84551901  0.65865189  1
  O  O40  1  0.06460537  0.01087619  0.82369237  1
  O  O41  1  0.23403440  0.17429418  0.84949376  1
  O  O42  1  0.10632391  0.15703992  0.16064065  1
  O  O43  1  0.45474643  0.15904689  0.49004783  1
  O  O44  1  0.93579789  0.67762589  0.99616676  1
  O  O45  1  0.25166906  0.65376629  0.84009620  1
  O  O46  1  0.93974481  0.65919522  0.51079827  1
  O  O47  1  0.92008351  0.84178100  0.32364767  1
  O  O48  1  0.10881396  0.82424435  0.49602658  1
  O  O49  1  0.60104476  0.51105513  0.32287001  1
  O  O50  1  0.41263316  0.82356822  0.35037847  1
  O  O51  1  0.07577998  0.67323657  0.15141384  1
  O  O52  1  0.11274214  0.48937210  0.82401695  1
  O  O53  1  0.74395232  0.65682411  0.33346223  1
  O  O54  1  0.24056099  0.51064251  0.51306386  1
  O  O55  1  0.91562247  0.32369232  0.84933841  1
  O  O56  1  0.05702628  0.34112133  0.48908935  1
  O  O57  1  0.75291731  0.67141207  0.82248606  1
  O  O58  1  0.60511873  0.32360825  0.50543927  1
  O  O59  1  0.24510634  0.99068831  0.51112952  1
  O  O60  1  0.07592771  0.98873265  0.32356606  1
  O  O61  1  0.91282972  0.84703178  0.84215998  1
  O  O62  1  0.89037668  0.17641626  0.50314606  1
  O  O63  1  0.25170369  0.17273540  0.32200888  1
  O  O64  1  0.43312311  0.82301927  0.82245423  1
  O  O65  1  0.75274385  0.34520917  0.15805006  1
  O  O66  1  0.39385735  0.49188565  0.67649803  1
  O  O67  1  0.25234295  0.32171731  0.17474439  1
  O  O68  1  0.39515087  0.99474857  0.65930977  1
  O  O69  1  0.08316702  0.15647473  0.67214880  1
  O  O70  1  0.24088466  0.34454792  0.67386786  1
  O  O71  1  0.61208371  0.99403155  0.84039961  1
loop_
_geom_bond_atom_site_label_1
_geom_bond_atom_site_label_2
_geom_bond_distance
_geom_bond_site_symmetry_2
Li0 O53 1.964368 1_555
Li0 O47 1.995831 1_555
Li0 O31 2.070627 1_555
Li0 O46 2.070651 1_555
Li1 O33 1.969666 1_555
Li1 O3 1.984985 1_555
Li1 O9 2.073809 1_554
Li1 O36 2.075767 1_554
Li2 O64 1.998586 1_555
Li2 O5 2.009267 1_556
Li2 O40 2.015959 1_565
Li2 O19 2.033366 1_566
Li3 O14 1.971726 1_544
Li3 O15 2.008852 1_555
Li3 O28 2.027712 1_545
Li3 O0 2.059032 1_555
Li4 O27 1.984430 1_555
Li4 O48 1.985576 1_655
Li4 O7 2.008480 1_565
Li4 O13 2.008705 1_565
Li5 O51 2.021747 1_555
Li5 O30 2.034557 1_555
Li5 O23 2.083994 1_555
Li5 O17 2.088904 1_555
Li6 O26 1.987374 1_555
Li6 O41 2.004825 1_555
Li6 O68 2.076298 1_545
Li6 O71 2.087619 1_545
Li7 O21 1.931393 1_555
Li7 O22 1.964854 1_555
Li7 O65 1.965118 1_555
Li7 O42 2.013230 1_655
Li8 O6 1.965477 1_555
Li8 O32 1.984190 1_555
Li8 O35 2.076972 1_556
Li8 O25 2.081220 1_556
Li9 O8 1.976832 1_555
Li9 O55 1.992043 1_555
Li9 O18 2.075512 1_555
Li9 O29 2.077185 1_555
Li10 O2 1.987359 1_555
Li10 O50 1.996647 1_555
Li10 O12 2.081951 1_565
Li10 O1 2.092293 1_565
Li11 O67 1.985708 1_555
Li11 O20 1.990774 1_554
Li11 O4 2.011889 1_554
Li11 O11 2.012469 1_455
Li12 O10 2.001605 1_555
Li12 O58 2.010363 1_555
Li12 O49 2.019901 1_555
Li12 O54 2.041394 1_555
Li13 O69 1.962037 1_555
Li13 O70 1.977112 1_555
Li13 O43 2.083637 1_555
Li13 O56 2.087391 1_555
Li14 O57 1.960104 1_555
Li14 O44 1.974204 1_555
Li14 O38 1.999679 1_556
Li14 O52 2.000143 1_655
Li15 O24 1.979102 1_555
Li15 O34 1.991189 1_555
Li15 O66 2.026250 1_555
Li15 O16 2.046793 1_555
Li16 O61 1.936865 1_455
Li16 O39 1.960132 1_555
Li16 O45 1.965193 1_555
Li16 O37 2.006012 1_555
Li17 O63 1.975462 1_555
Li17 O62 1.991371 1_455
Li17 O59 2.002625 1_545
Li17 O60 2.002965 1_545
Mn0 O21 1.923608 1_555
Mn0 O8 1.930311 1_555
Mn0 O24 1.931725 1_555
Mn0 O62 1.957907 1_555
Mn0 O58 1.964814 1_555
Mn0 O56 1.986156 1_655
Mn1 O55 1.924849 1_555
Mn1 O40 1.959841 1_655
Mn1 O69 2.033588 1_655
Mn1 O15 2.084913 1_556
Mn1 O6 2.113171 1_555
Mn1 O41 2.173997 1_655
Mn2 O30 1.952293 1_555
Mn2 O60 1.963801 1_555
Mn2 O3 2.008273 1_555
Mn2 O48 2.033561 1_555
Mn2 O47 2.163172 1_455
Mn2 O50 2.182119 1_555
Mn3 O33 1.908484 1_555
Mn3 O38 1.925917 1_555
Mn3 O65 1.942061 1_555
Mn3 O23 1.966291 1_555
Mn3 O49 1.979395 1_555
Mn3 O11 1.983274 1_555
Mn4 O41 1.918331 1_554
Mn4 O19 1.932813 1_555
Mn4 O15 1.954284 1_455
Mn4 O20 1.955284 1_554
Mn4 O42 1.971914 1_555
Mn4 O25 1.987702 1_555
Mn5 O3 1.898168 1_555
Mn5 O19 1.926250 1_565
Mn5 O60 1.969288 1_555
Mn5 O1 1.975848 1_565
Mn5 O28 1.978367 1_455
Mn5 O42 1.980536 1_565
Mn6 O50 1.921583 1_555
Mn6 O49 1.959840 1_555
Mn6 O53 2.039448 1_555
Mn6 O33 2.110501 1_555
Mn6 O30 2.128583 1_555
Mn6 O34 2.141128 1_555
Mn7 O54 1.931673 1_555
Mn7 O34 1.934241 1_555
Mn7 O30 1.940154 1_555
Mn7 O48 1.955005 1_555
Mn7 O37 1.965822 1_555
Mn7 O46 1.998430 1_455
Mn8 O10 1.944762 1_555
Mn8 O12 1.989389 1_555
Mn8 O43 1.998407 1_555
Mn8 O0 2.003289 1_555
Mn8 O22 2.205628 1_555
Mn8 O63 2.220107 1_555
Mn9 O41 1.945919 1_555
Mn9 O52 1.969076 1_555
Mn9 O70 2.003609 1_555
Mn9 O20 2.027914 1_555
Mn9 O32 2.154708 1_555
Mn9 O55 2.182966 1_455
Mn10 O51 1.963391 1_555
Mn10 O47 1.972775 1_455
Mn10 O28 2.002049 1_455
Mn10 O5 2.007177 1_555
Mn10 O3 2.183323 1_555
Mn10 O2 2.191244 1_455
Mn11 O61 1.918658 1_555
Mn11 O2 1.932452 1_556
Mn11 O14 1.938362 1_555
Mn11 O44 1.938680 1_555
Mn11 O5 1.968078 1_656
Mn11 O9 1.987936 1_555
Mn12 O26 1.932528 1_555
Mn12 O7 1.937503 1_555
Mn12 O22 1.939474 1_555
Mn12 O62 1.956536 1_555
Mn12 O58 1.968554 1_555
Mn12 O43 1.978780 1_555
Mn13 O32 1.923859 1_555
Mn13 O45 1.926561 1_555
Mn13 O4 1.927663 1_555
Mn13 O66 1.970729 1_555
Mn13 O29 1.976532 1_555
Mn13 O52 1.985897 1_555
Mn14 O10 1.923269 1_555
Mn14 O35 1.966356 1_555
Mn14 O23 2.042154 1_555
Mn14 O0 2.042679 1_555
Mn14 O65 2.180597 1_555
Mn14 O67 2.220509 1_555
Mn15 O65 1.924155 1_555
Mn15 O38 1.928028 1_555
Mn15 O55 1.932952 1_554
Mn15 O15 1.957210 1_555
Mn15 O20 1.968315 1_654
Mn15 O35 1.988079 1_555
Mn16 O39 1.917300 1_555
Mn16 O59 1.934338 1_555
Mn16 O50 1.934948 1_555
Mn16 O34 1.947084 1_555
Mn16 O48 1.969138 1_555
Mn16 O31 1.990226 1_555
Mn17 O56 1.978755 1_655
Mn17 O46 1.988325 1_555
Mn17 O17 1.992325 1_655
Mn17 O18 2.010102 1_555
Mn17 O24 2.209206 1_555
Mn17 O54 2.225492 1_655
Mn18 O53 1.911578 1_555
Mn18 O21 1.923474 1_555
Mn18 O24 1.926594 1_555
Mn18 O11 1.976526 1_555
Mn18 O17 1.977717 1_655
Mn18 O49 1.979124 1_555
Mn19 O57 1.909208 1_555
Mn19 O27 1.916588 1_555
Mn19 O16 1.965379 1_555
Mn19 O18 1.983137 1_555
Mn19 O46 1.985699 1_555
Mn19 O37 1.986236 1_655
Mn20 O63 1.907669 1_555
Mn20 O67 1.919422 1_555
Mn20 O0 1.968510 1_555
Mn20 O25 1.981057 1_555
Mn20 O1 1.984798 1_555
Mn20 O42 1.992235 1_555
Mn21 O67 1.949205 1_555
Mn21 O63 1.971120 1_555
Mn21 O56 1.984856 1_555
Mn21 O17 2.021400 1_555
Mn21 O21 2.181438 1_455
Mn21 O10 2.224958 1_555
Mn22 O64 1.925499 1_555
Mn22 O31 1.969440 1_555
Mn22 O68 2.024324 1_555
Mn22 O16 2.034233 1_555
Mn22 O39 2.188248 1_555
Mn22 O27 2.225664 1_555
Mn23 O36 1.980203 1_554
Mn23 O23 1.989499 1_555
Mn23 O35 1.996801 1_555
Mn23 O29 2.002188 1_554
Mn23 O38 2.227779 1_555
Mn23 O4 2.228217 1_554
Mn24 O27 1.942093 1_555
Mn24 O9 1.974410 1_555
Mn24 O57 1.977731 1_555
Mn24 O71 2.025440 1_555
Mn24 O61 2.178307 1_555
Mn24 O64 2.206837 1_555
Mn25 O9 1.981345 1_555
Mn25 O71 1.989026 1_555
Mn25 O25 1.992006 1_566
Mn25 O1 2.013734 1_566
Mn25 O14 2.201281 1_555
Mn25 O19 2.230040 1_566
Mn26 O43 1.983277 1_555
Mn26 O31 1.991108 1_545
Mn26 O68 1.992635 1_545
Mn26 O12 2.007964 1_555
Mn26 O59 2.219975 1_545
Mn26 O7 2.226371 1_555
Mn27 O64 1.948157 1_555
Mn27 O29 1.994399 1_555
Mn27 O36 1.996652 1_555
Mn27 O16 2.002303 1_555
Mn27 O45 2.182758 1_555
Mn27 O57 2.193006 1_555
Mn28 O70 1.892374 1_555
Mn28 O54 1.927652 1_555
Mn28 O52 1.964343 1_555
Mn28 O66 1.980987 1_555
Mn28 O18 1.981419 1_455
Mn28 O37 1.982192 1_555
Mn29 O69 1.907217 1_555
Mn29 O59 1.930233 1_545
Mn29 O39 1.939851 1_545
Mn29 O68 1.966412 1_545
Mn29 O40 1.977705 1_555
Mn29 O13 1.983076 1_455
Mn30 O2 1.922101 1_555
Mn30 O11 1.965108 1_555
Mn30 O33 2.046635 1_555
Mn30 O53 2.109471 1_555
Mn30 O51 2.115885 1_655
Mn30 O44 2.116470 1_554
Mn31 O44 1.932910 1_455
Mn31 O4 1.933395 1_555
Mn31 O45 1.933668 1_555
Mn31 O51 1.955200 1_556
Mn31 O5 1.970199 1_556
Mn31 O36 1.990079 1_555
Mn32 O22 1.921219 1_565
Mn32 O7 1.929162 1_565
Mn32 O47 1.933305 1_555
Mn32 O28 1.973277 1_555
Mn32 O12 1.975438 1_565
Mn32 O60 1.984477 1_655
Mn33 O8 1.931275 1_555
Mn33 O13 1.970041 1_555
Mn33 O6 2.018850 1_555
Mn33 O62 2.046217 1_555
Mn33 O69 2.132354 1_655
Mn33 O26 2.176274 1_555
Mn34 O26 1.949228 1_555
Mn34 O32 1.978992 1_555
Mn34 O66 1.999635 1_555
Mn34 O58 2.011428 1_555
Mn34 O70 2.178338 1_555
Mn34 O8 2.186129 1_555
Mn35 O6 1.918045 1_555
Mn35 O61 1.921120 1_545
Mn35 O14 1.930314 1_545
Mn35 O71 1.970898 1_545
Mn35 O13 1.972532 1_555
Mn35 O40 1.980941 1_655
