# generated using pymatgen
data_LuSiPd2
_symmetry_space_group_name_H-M   'P 1'
_cell_length_a   5.43005493
_cell_length_b   6.93615848
_cell_length_c   7.15994152
_cell_angle_alpha   90.00009412
_cell_angle_beta   89.99988461
_cell_angle_gamma   89.99994500
_symmetry_Int_Tables_number   1
_chemical_formula_structural   LuSiPd2
_chemical_formula_sum   'Lu4 Si4 Pd8'
_cell_volume   269.67004372
_cell_formula_units_Z   4
loop_
 _symmetry_equiv_pos_site_id
 _symmetry_equiv_pos_as_xyz
  1  'x, y, z'
loop_
 _atom_site_type_symbol
 _atom_site_label
 _atom_site_symmetry_multiplicity
 _atom_site_fract_x
 _atom_site_fract_y
 _atom_site_fract_z
 _atom_site_occupancy
  Lu  Lu0  1  0.35899745  0.75004295  0.02677502  1
  Lu  Lu1  1  0.14099430  0.75004201  0.52676689  1
  Lu  Lu2  1  0.64100197  0.24995681  0.97323949  1
  Lu  Lu3  1  0.85899827  0.24995928  0.47321766  1
  Si  Si0  1  0.63963992  0.74999515  0.37865574  1
  Si  Si1  1  0.86035276  0.74999760  0.87866472  1
  Si  Si2  1  0.36034972  0.25000267  0.62134593  1
  Si  Si3  1  0.13964333  0.25000267  0.12133133  1
  Pd  Pd0  1  0.90686858  0.55122816  0.17967255  1
  Pd  Pd1  1  0.59314726  0.94880346  0.67966858  1
  Pd  Pd2  1  0.09314297  0.05118831  0.82035613  1
  Pd  Pd3  1  0.40686087  0.44878355  0.32030287  1
  Pd  Pd4  1  0.09313823  0.44878447  0.82035537  1
  Pd  Pd5  1  0.40686074  0.05118861  0.32030205  1
  Pd  Pd6  1  0.90686420  0.94880100  0.17967630  1
  Pd  Pd7  1  0.59314243  0.55122430  0.67966837  1
loop_
_geom_bond_atom_site_label_1
_geom_bond_atom_site_label_2
_geom_bond_distance
_geom_bond_site_symmetry_2
Lu0 Si1 2.907930 1_454
Lu0 Si1 2.921636 1_554
Lu0 Pd2 2.937922 1_564
Lu0 Pd4 2.938494 1_554
Lu0 Si0 2.944470 1_555
Lu0 Pd5 2.974470 1_565
Lu0 Pd3 2.975033 1_555
Lu0 Pd6 3.021031 1_455
Lu0 Pd0 3.021186 1_455
Lu0 Pd1 3.113477 1_554
Lu0 Pd7 3.113641 1_554
Lu1 Si0 2.907933 1_555
Lu1 Si0 2.921637 1_455
Lu1 Pd5 2.938125 1_565
Lu1 Pd3 2.938668 1_555
Lu1 Si1 2.944567 1_455
Lu1 Pd2 2.974781 1_565
Lu1 Pd4 2.975327 1_555
Lu1 Pd1 3.021136 1_555
Lu1 Pd7 3.021291 1_555
Lu1 Pd6 3.113341 1_455
Lu1 Pd0 3.113518 1_455
Lu2 Si3 2.907865 1_656
Lu2 Si3 2.921605 1_556
Lu2 Pd6 2.938059 1_546
Lu2 Pd0 2.938625 1_556
Lu2 Si2 2.944576 1_555
Lu2 Pd1 2.974726 1_545
Lu2 Pd7 2.975289 1_555
Lu2 Pd2 3.021052 1_655
Lu2 Pd4 3.021224 1_655
Lu2 Pd5 3.113230 1_556
Lu2 Pd3 3.113410 1_556
Lu3 Si2 2.907992 1_555
Lu3 Si2 2.921667 1_655
Lu3 Pd1 2.938079 1_545
Lu3 Pd7 2.938624 1_555
Lu3 Si3 2.944506 1_655
Lu3 Pd6 2.974604 1_545
Lu3 Pd0 2.975169 1_555
Lu3 Pd5 3.021133 1_555
Lu3 Pd3 3.021299 1_555
Lu3 Pd2 3.113683 1_655
Lu3 Pd4 3.113833 1_655
Pd0 Si0 2.456853 1_555
Pd0 Si3 2.477397 1_655
Pd0 Si1 2.570894 1_554
Pd1 Si1 2.456989 1_555
Pd1 Si2 2.477287 1_565
Pd1 Si0 2.571051 1_555
Pd2 Si2 2.457083 1_555
Pd2 Si1 2.477201 1_445
Pd2 Si3 2.570853 1_556
Pd3 Si3 2.456828 1_555
Pd3 Si0 2.477345 1_555
Pd3 Si2 2.571144 1_555
Pd4 Si2 2.456964 1_555
Pd4 Si1 2.477316 1_455
Pd4 Si3 2.570743 1_556
Pd5 Si3 2.456954 1_555
Pd5 Si0 2.477239 1_545
Pd5 Si2 2.571269 1_555
Pd6 Si0 2.456978 1_555
Pd6 Si3 2.477278 1_665
Pd6 Si1 2.571037 1_554
Pd7 Si1 2.456878 1_555
Pd7 Si2 2.477405 1_555
Pd7 Si0 2.570917 1_555
