# generated using pymatgen
data_UAlFe
_symmetry_space_group_name_H-M   'P 1'
_cell_length_a   5.07066691
_cell_length_b   5.07066691
_cell_length_c   8.52864100
_cell_angle_alpha   90.00000000
_cell_angle_beta   90.00000000
_cell_angle_gamma   117.93654350
_symmetry_Int_Tables_number   1
_chemical_formula_structural   UAlFe
_chemical_formula_sum   'U4 Al4 Fe4'
_cell_volume   193.73154068
_cell_formula_units_Z   4
loop_
 _symmetry_equiv_pos_site_id
 _symmetry_equiv_pos_as_xyz
  1  'x, y, z'
loop_
 _atom_site_type_symbol
 _atom_site_label
 _atom_site_symmetry_multiplicity
 _atom_site_fract_x
 _atom_site_fract_y
 _atom_site_fract_z
 _atom_site_occupancy
  U  U0  1  0.65809200  0.34190800  0.32213600  1
  U  U1  1  0.35074600  0.64925400  0.22334300  1
  U  U2  1  0.35074600  0.64925400  0.77665700  1
  U  U3  1  0.65809200  0.34190800  0.67786400  1
  Al  Al0  1  0.14588300  0.85411700  0.50000000  1
  Al  Al1  1  0.33797300  0.15510500  0.00000000  1
  Al  Al2  1  0.84489500  0.66202700  0.00000000  1
  Al  Al3  1  0.84156000  0.15844000  0.00000000  1
  Fe  Fe0  1  0.00448100  0.99551900  0.24673300  1
  Fe  Fe1  1  0.00448100  0.99551900  0.75326700  1
  Fe  Fe2  1  0.65395700  0.85170800  0.50000000  1
  Fe  Fe3  1  0.14829200  0.34604300  0.50000000  1
loop_
_geom_bond_atom_site_label_1
_geom_bond_atom_site_label_2
_geom_bond_distance
_geom_bond_site_symmetry_2
U0 U1 2.800566 1_555
U0 U3 3.033876 1_555
U0 U1 3.216467 1_545
U0 U1 3.216467 1_655
U2 U3 2.800566 1_555
U2 U3 3.216467 1_455
U2 U3 3.216467 1_565
Al0 Fe1 2.485072 1_555
Al0 Fe0 2.485072 1_555
Al0 Fe2 2.488694 1_455
Al0 Fe3 2.488694 1_565
Al0 Fe3 2.582019 1_555
Al0 Fe2 2.582019 1_555
Al0 U2 2.955765 1_555
Al0 U1 2.955765 1_555
Al0 U3 3.024123 1_455
Al0 U0 3.024123 1_455
Al0 U3 3.024123 1_565
Al0 U0 3.024123 1_565
Al1 Al3 2.525112 1_455
Al1 Al3 2.545643 1_555
Al1 Al2 2.577805 1_445
Al1 Fe0 2.580754 1_545
Al1 Fe1 2.580754 1_544
Al1 Al2 2.650181 1_555
Al1 U3 3.104756 1_554
Al1 U0 3.104756 1_555
Al1 U1 3.123908 1_555
Al1 U2 3.123908 1_554
Al1 U1 3.219845 1_545
Al1 U2 3.219845 1_544
Al2 Al3 2.525112 1_565
Al2 Al3 2.545643 1_555
Al2 Fe0 2.580754 1_655
Al2 Fe1 2.580754 1_654
Al2 U0 3.104756 1_555
Al2 U3 3.104756 1_554
Al2 U1 3.123908 1_555
Al2 U2 3.123908 1_554
Al2 U1 3.219845 1_655
Al2 U2 3.219845 1_654
Al3 Fe0 2.536233 1_645
Al3 Fe1 2.536233 1_644
Al3 U0 3.176472 1_555
Al3 U3 3.176472 1_554
Al3 U1 3.235373 1_655
Al3 U1 3.235373 1_545
Al3 U2 3.235373 1_654
Al3 U2 3.235373 1_544
Fe0 Fe2 2.672479 1_455
Fe0 Fe3 2.672479 1_565
Fe0 U1 2.942364 1_455
Fe0 U1 2.942364 1_565
Fe0 U0 3.004728 1_455
Fe0 U0 3.004728 1_565
Fe0 U1 3.015622 1_555
Fe0 U0 3.078024 1_465
Fe1 Fe2 2.672479 1_455
Fe1 Fe3 2.672479 1_565
Fe1 U2 2.942364 1_455
Fe1 U2 2.942364 1_565
Fe1 U3 3.004728 1_455
Fe1 U3 3.004728 1_565
Fe1 U2 3.015622 1_555
Fe1 U3 3.078024 1_465
Fe2 Fe3 2.584376 1_665
Fe2 Fe3 2.643610 1_555
Fe2 U2 2.739727 1_555
Fe2 U1 2.739727 1_555
Fe2 U3 2.903639 1_565
Fe2 U0 2.903639 1_565
Fe2 U3 3.005775 1_555
Fe2 U0 3.005775 1_555
Fe3 U2 2.739727 1_555
Fe3 U1 2.739727 1_555
Fe3 U0 2.903639 1_455
Fe3 U3 2.903639 1_455
Fe3 U0 3.005775 1_555
Fe3 U3 3.005775 1_555
