# generated using pymatgen
data_Er2SiRh3
_symmetry_space_group_name_H-M   'P 1'
_cell_length_a   4.98109034
_cell_length_b   4.98109034
_cell_length_c   4.98109071
_cell_angle_alpha   67.38114643
_cell_angle_beta   67.38114643
_cell_angle_gamma   67.38116631
_symmetry_Int_Tables_number   1
_chemical_formula_structural   Er2SiRh3
_chemical_formula_sum   'Er2 Si1 Rh3'
_cell_volume   101.16253721
_cell_formula_units_Z   1
loop_
 _symmetry_equiv_pos_site_id
 _symmetry_equiv_pos_as_xyz
  1  'x, y, z'
loop_
 _atom_site_type_symbol
 _atom_site_label
 _atom_site_symmetry_multiplicity
 _atom_site_fract_x
 _atom_site_fract_y
 _atom_site_fract_z
 _atom_site_occupancy
  Er  Er0  1  0.62997243  0.62997243  0.62997243  1
  Er  Er1  1  0.37002757  0.37002757  0.37002757  1
  Si  Si0  1  0.00000000  0.00000000  0.00000000  1
  Rh  Rh0  1  0.00000000  0.00000000  0.50000000  1
  Rh  Rh1  1  0.50000000  0.00000000  0.00000000  1
  Rh  Rh2  1  0.00000000  0.50000000  0.00000000  1
loop_
_geom_bond_atom_site_label_1
_geom_bond_atom_site_label_2
_geom_bond_distance
_geom_bond_site_symmetry_2
Er0 Rh0 2.826811 1_665
Er0 Rh2 2.826811 1_656
Er0 Rh1 2.826811 1_566
Er0 Rh2 3.139908 1_556
Er0 Rh1 3.139908 1_556
Er0 Rh1 3.139908 1_565
Er0 Rh2 3.139908 1_655
Er0 Rh0 3.139908 1_655
Er0 Rh0 3.139908 1_565
Er1 Rh0 2.826811 1_555
Er1 Rh1 2.826811 1_555
Er1 Rh2 2.826811 1_555
Er1 Rh1 3.139908 1_565
Er1 Rh2 3.139908 1_655
Er1 Rh1 3.139908 1_556
Er1 Rh2 3.139908 1_556
Er1 Rh0 3.139908 1_565
Er1 Rh0 3.139908 1_655
Rh0 Si0 2.490545 1_555
Rh0 Si0 2.490545 1_556
Rh0 Rh1 2.763048 1_555
Rh0 Rh2 2.763048 1_546
Rh0 Rh1 2.763048 1_456
Rh0 Rh2 2.763048 1_555
Rh1 Si0 2.490545 1_555
Rh1 Si0 2.490545 1_655
Rh1 Rh2 2.763049 1_555
Rh1 Rh2 2.763049 1_645
Rh2 Si0 2.490545 1_565
Rh2 Si0 2.490545 1_555
