# generated using pymatgen
data_Ce2CuBiS5
_symmetry_space_group_name_H-M   'P 1'
_cell_length_a   3.95710300
_cell_length_b   12.01866600
_cell_length_c   17.04530000
_cell_angle_alpha   90.00000000
_cell_angle_beta   90.00000000
_cell_angle_gamma   90.00000000
_symmetry_Int_Tables_number   1
_chemical_formula_structural   Ce2CuBiS5
_chemical_formula_sum   'Ce8 Cu4 Bi4 S20'
_cell_volume   810.65911504
_cell_formula_units_Z   4
loop_
 _symmetry_equiv_pos_site_id
 _symmetry_equiv_pos_as_xyz
  1  'x, y, z'
loop_
 _atom_site_type_symbol
 _atom_site_label
 _atom_site_symmetry_multiplicity
 _atom_site_fract_x
 _atom_site_fract_y
 _atom_site_fract_z
 _atom_site_occupancy
  Ce  Ce0  1  0.25000000  0.03834500  0.67593700  1
  Ce  Ce1  1  0.25000000  0.53834500  0.82406300  1
  Ce  Ce2  1  0.75000000  0.96165500  0.32406300  1
  Ce  Ce3  1  0.75000000  0.46165500  0.17593700  1
  Ce  Ce4  1  0.25000000  0.37601600  0.59878100  1
  Ce  Ce5  1  0.25000000  0.87601600  0.90121900  1
  Ce  Ce6  1  0.75000000  0.62398400  0.40121900  1
  Ce  Ce7  1  0.75000000  0.12398400  0.09878100  1
  Cu  Cu0  1  0.25000000  0.40360400  0.99686000  1
  Cu  Cu1  1  0.25000000  0.90360400  0.50314000  1
  Cu  Cu2  1  0.75000000  0.59639600  0.00314000  1
  Cu  Cu3  1  0.75000000  0.09639600  0.49686000  1
  Bi  Bi0  1  0.25000000  0.30069700  0.36303100  1
  Bi  Bi1  1  0.25000000  0.80069700  0.13696900  1
  Bi  Bi2  1  0.75000000  0.69930300  0.63696900  1
  Bi  Bi3  1  0.75000000  0.19930300  0.86303100  1
  S  S0  1  0.25000000  0.01165800  0.20183800  1
  S  S1  1  0.25000000  0.51165800  0.29816200  1
  S  S2  1  0.75000000  0.98834200  0.79816200  1
  S  S3  1  0.75000000  0.48834200  0.70183800  1
  S  S4  1  0.25000000  0.08243900  0.42271300  1
  S  S5  1  0.25000000  0.58243900  0.07728700  1
  S  S6  1  0.75000000  0.91756100  0.57728700  1
  S  S7  1  0.75000000  0.41756100  0.92271300  1
  S  S8  1  0.25000000  0.10513300  0.97058200  1
  S  S9  1  0.25000000  0.60513300  0.52941800  1
  S  S10  1  0.75000000  0.89486700  0.02941800  1
  S  S11  1  0.75000000  0.39486700  0.47058200  1
  S  S12  1  0.25000000  0.26461300  0.76350000  1
  S  S13  1  0.25000000  0.76461300  0.73650000  1
  S  S14  1  0.75000000  0.73538700  0.23650000  1
  S  S15  1  0.75000000  0.23538700  0.26350000  1
  S  S16  1  0.25000000  0.30600500  0.11134200  1
  S  S17  1  0.25000000  0.80600500  0.38865800  1
  S  S18  1  0.75000000  0.69399500  0.88865800  1
  S  S19  1  0.75000000  0.19399500  0.61134200  1
loop_
_geom_bond_atom_site_label_1
_geom_bond_atom_site_label_2
_geom_bond_distance
_geom_bond_site_symmetry_2
Ce0 S2 2.935341 1_445
Ce0 S2 2.935341 1_545
Ce0 S19 2.937090 1_455
Ce0 S19 2.937090 1_555
Ce0 S6 2.974810 1_445
Ce0 S6 2.974810 1_545
Ce0 S12 3.102099 1_555
Ce0 S13 3.448053 1_545
Ce1 S3 2.935341 1_555
Ce1 S3 2.935341 1_455
Ce1 S18 2.937090 1_555
Ce1 S18 2.937090 1_455
Ce1 S7 2.974810 1_455
Ce1 S7 2.974810 1_555
Ce1 S13 3.102099 1_555
Ce1 S12 3.448053 1_555
Ce2 S0 2.935341 1_565
Ce2 S0 2.935341 1_665
Ce2 S17 2.937090 1_555
Ce2 S17 2.937090 1_655
Ce2 S4 2.974810 1_565
Ce2 S4 2.974810 1_665
Ce2 S14 3.102099 1_555
Ce2 S15 3.448053 1_565
Ce3 S1 2.935341 1_555
Ce3 S1 2.935341 1_655
Ce3 S16 2.937090 1_655
Ce3 S16 2.937090 1_555
Ce3 S5 2.974810 1_555
Ce3 S5 2.974810 1_655
Ce3 S15 3.102099 1_555
Ce3 S14 3.448053 1_555
Ce4 S11 2.956527 1_455
Ce4 S11 2.956527 1_555
Ce4 S19 2.957417 1_555
Ce4 S19 2.957417 1_455
Ce4 S3 2.970348 1_455
Ce4 S3 2.970348 1_555
Ce4 S9 2.996769 1_555
Ce4 S12 3.110593 1_555
Ce5 S10 2.956527 1_456
Ce5 S10 2.956527 1_556
Ce5 S18 2.957417 1_455
Ce5 S18 2.957417 1_555
Ce5 S2 2.970348 1_455
Ce5 S2 2.970348 1_555
Ce5 S8 2.996769 1_565
Ce5 S13 3.110593 1_555
Ce6 S9 2.956527 1_555
Ce6 S9 2.956527 1_655
Ce6 S17 2.957417 1_555
Ce6 S17 2.957417 1_655
Ce6 S1 2.970348 1_555
Ce6 S1 2.970348 1_655
Ce6 S11 2.996769 1_555
Ce6 S14 3.110593 1_555
Ce7 S8 2.956527 1_654
Ce7 S8 2.956527 1_554
Ce7 S16 2.957417 1_555
Ce7 S16 2.957417 1_655
Ce7 S0 2.970348 1_555
Ce7 S0 2.970348 1_655
Ce7 S10 2.996769 1_545
Ce7 S15 3.110593 1_555
Cu0 S16 2.276804 1_556
Cu0 S7 2.353750 1_555
Cu0 S7 2.353750 1_455
Cu0 S5 2.549336 1_556
Cu1 S17 2.276804 1_555
Cu1 S6 2.353750 1_555
Cu1 S6 2.353750 1_455
Cu1 S4 2.549336 1_565
Cu2 S18 2.276804 1_554
Cu2 S5 2.353750 1_655
Cu2 S5 2.353750 1_555
Cu2 S7 2.549336 1_554
Cu3 S19 2.276804 1_555
Cu3 S4 2.353750 1_655
Cu3 S4 2.353750 1_555
Cu3 S6 2.549336 1_545
Bi0 S15 2.721953 1_455
Bi0 S15 2.721953 1_555
Bi0 S1 2.766081 1_555
Bi0 S4 2.813524 1_555
Bi0 S11 2.925132 1_455
Bi0 S11 2.925132 1_555
Bi1 S14 2.721953 1_455
Bi1 S14 2.721953 1_555
Bi1 S0 2.766081 1_565
Bi1 S5 2.813524 1_555
Bi1 S10 2.925132 1_555
Bi1 S10 2.925132 1_455
Bi2 S13 2.721953 1_555
Bi2 S13 2.721953 1_655
Bi2 S3 2.766081 1_555
Bi2 S6 2.813524 1_555
Bi2 S9 2.925132 1_555
Bi2 S9 2.925132 1_655
Bi3 S12 2.721953 1_555
Bi3 S12 2.721953 1_655
Bi3 S2 2.766081 1_545
Bi3 S7 2.813524 1_555
Bi3 S8 2.925132 1_655
Bi3 S8 2.925132 1_555
