# generated using pymatgen
data_SmCoC6N6O5
_symmetry_space_group_name_H-M   'P 1'
_cell_length_a   7.68205767
_cell_length_b   7.68205717
_cell_length_c   12.89095600
_cell_angle_alpha   90.00000000
_cell_angle_beta   90.00000000
_cell_angle_gamma   120.00000361
_symmetry_Int_Tables_number   1
_chemical_formula_structural   SmCoC6N6O5
_chemical_formula_sum   'Sm2 Co2 C12 N12 O10'
_cell_volume   658.82616688
_cell_formula_units_Z   2
loop_
 _symmetry_equiv_pos_site_id
 _symmetry_equiv_pos_as_xyz
  1  'x, y, z'
loop_
 _atom_site_type_symbol
 _atom_site_label
 _atom_site_symmetry_multiplicity
 _atom_site_fract_x
 _atom_site_fract_y
 _atom_site_fract_z
 _atom_site_occupancy
  Sm  Sm0  1  0.33333300  0.66666700  0.75000000  1
  Sm  Sm1  1  0.66666700  0.33333300  0.25000000  1
  Co  Co0  1  0.00000000  0.00000000  0.00000000  1
  Co  Co1  1  0.00000000  0.00000000  0.50000000  1
  C  C0  1  0.76876200  0.89712700  0.91844300  1
  C  C1  1  0.23123800  0.10287300  0.08155700  1
  C  C2  1  0.12836500  0.23123800  0.91844300  1
  C  C3  1  0.23123800  0.10287300  0.41844300  1
  C  C4  1  0.87163500  0.76876200  0.08155700  1
  C  C5  1  0.76876200  0.89712700  0.58155700  1
  C  C6  1  0.10287300  0.87163500  0.91844300  1
  C  C7  1  0.87163500  0.76876200  0.41844300  1
  C  C8  1  0.89712700  0.12836500  0.08155700  1
  C  C9  1  0.12836500  0.23123800  0.58155700  1
  C  C10  1  0.89712700  0.12836500  0.41844300  1
  C  C11  1  0.10287300  0.87163500  0.58155700  1
  N  N0  1  0.62162900  0.82992200  0.86889700  1
  N  N1  1  0.37837100  0.17007800  0.13110300  1
  N  N2  1  0.20829300  0.37837100  0.86889700  1
  N  N3  1  0.37837100  0.17007800  0.36889700  1
  N  N4  1  0.79170700  0.62162900  0.13110300  1
  N  N5  1  0.62162900  0.82992200  0.63110300  1
  N  N6  1  0.17007800  0.79170700  0.86889700  1
  N  N7  1  0.79170700  0.62162900  0.36889700  1
  N  N8  1  0.82992200  0.20829300  0.13110300  1
  N  N9  1  0.20829300  0.37837100  0.63110300  1
  N  N10  1  0.82992200  0.20829300  0.36889700  1
  N  N11  1  0.17007800  0.79170700  0.63110300  1
  O  O0  1  0.66666700  0.33333300  0.83966000  1
  O  O1  1  0.33333300  0.66666700  0.16034000  1
  O  O2  1  0.33333300  0.66666700  0.33966000  1
  O  O3  1  0.66666700  0.33333300  0.66034000  1
  O  O4  1  0.93059800  0.44088100  0.75000000  1
  O  O5  1  0.06940200  0.55911900  0.25000000  1
  O  O6  1  0.51028300  0.06940200  0.75000000  1
  O  O7  1  0.48971700  0.93059800  0.25000000  1
  O  O8  1  0.55911900  0.48971700  0.75000000  1
  O  O9  1  0.44088100  0.51028300  0.25000000  1
loop_
_geom_bond_atom_site_label_1
_geom_bond_atom_site_label_2
_geom_bond_distance
_geom_bond_site_symmetry_2
C0 N0 1.169819 1_555
C0 Co0 1.865897 1_666
C1 N1 1.169819 1_555
C1 Co0 1.865897 1_555
C2 N2 1.169819 1_555
C2 Co0 1.865897 1_556
C3 N3 1.169819 1_555
C3 Co1 1.865897 1_555
C4 N4 1.169819 1_555
C4 Co0 1.865897 1_665
C5 N5 1.169819 1_555
C5 Co1 1.865897 1_665
C6 N6 1.169819 1_555
C6 Co0 1.865898 1_566
C7 N7 1.169819 1_555
C7 Co1 1.865897 1_665
C8 N8 1.169819 1_555
C8 Co0 1.865898 1_655
C9 N9 1.169819 1_555
C9 Co1 1.865897 1_555
C10 N10 1.169819 1_555
C10 Co1 1.865898 1_655
C11 N11 1.169819 1_555
C11 Co1 1.865898 1_565
N0 Sm0 2.459552 1_555
N1 Sm1 2.459552 1_555
N2 Sm0 2.459552 1_555
N3 Sm1 2.459552 1_555
N4 Sm1 2.459552 1_555
N5 Sm0 2.459552 1_555
N6 Sm0 2.459547 1_555
N7 Sm1 2.459552 1_555
N8 Sm1 2.459547 1_555
N9 Sm0 2.459552 1_555
N10 Sm1 2.459547 1_555
N11 Sm0 2.459547 1_555
O4 Sm0 2.685897 1_655
O5 Sm1 2.685897 1_455
O6 Sm0 2.685896 1_545
O7 Sm1 2.685896 1_565
O8 Sm0 2.685903 1_555
O9 Sm1 2.685903 1_555
