# generated using pymatgen
data_Mg2NiB2Ir5
_symmetry_space_group_name_H-M   'P 1'
_cell_length_a   5.81101234
_cell_length_b   18.68603614
_cell_length_c   18.68603614
_cell_angle_alpha   90.00000000
_cell_angle_beta   90.00000000
_cell_angle_gamma   90.00000000
_symmetry_Int_Tables_number   1
_chemical_formula_structural   Mg2NiB2Ir5
_chemical_formula_sum   'Mg32 Ni16 B32 Ir80'
_cell_volume   2029.01924657
_cell_formula_units_Z   16
loop_
 _symmetry_equiv_pos_site_id
 _symmetry_equiv_pos_as_xyz
  1  'x, y, z'
loop_
 _atom_site_type_symbol
 _atom_site_label
 _atom_site_symmetry_multiplicity
 _atom_site_fract_x
 _atom_site_fract_y
 _atom_site_fract_z
 _atom_site_occupancy
  Mg  Mg0_0  1  0.00000000  0.16169487  0.41169487  1
  Mg  Mg0_1  1  0.00000000  0.16169487  0.91169487  1
  Mg  Mg0_2  1  0.00000000  0.66169487  0.41169487  1
  Mg  Mg0_3  1  0.00000000  0.66169487  0.91169487  1
  Mg  Mg0_4  1  0.50000000  0.16169487  0.41169487  1
  Mg  Mg0_5  1  0.50000000  0.16169487  0.91169487  1
  Mg  Mg0_6  1  0.50000000  0.66169487  0.41169487  1
  Mg  Mg0_7  1  0.50000000  0.66169487  0.91169487  1
  Mg  Mg1_0  1  0.00000000  0.33830513  0.08830513  1
  Mg  Mg1_1  1  0.00000000  0.33830513  0.58830513  1
  Mg  Mg1_2  1  0.00000000  0.83830513  0.08830513  1
  Mg  Mg1_3  1  0.00000000  0.83830513  0.58830513  1
  Mg  Mg1_4  1  0.50000000  0.33830513  0.08830513  1
  Mg  Mg1_5  1  0.50000000  0.33830513  0.58830513  1
  Mg  Mg1_6  1  0.50000000  0.83830513  0.08830513  1
  Mg  Mg1_7  1  0.50000000  0.83830513  0.58830513  1
  Mg  Mg2_0  1  0.00000000  0.08830513  0.16169487  1
  Mg  Mg2_1  1  0.00000000  0.08830513  0.66169487  1
  Mg  Mg2_2  1  0.00000000  0.58830513  0.16169487  1
  Mg  Mg2_3  1  0.00000000  0.58830513  0.66169487  1
  Mg  Mg2_4  1  0.50000000  0.08830513  0.16169487  1
  Mg  Mg2_5  1  0.50000000  0.08830513  0.66169487  1
  Mg  Mg2_6  1  0.50000000  0.58830513  0.16169487  1
  Mg  Mg2_7  1  0.50000000  0.58830513  0.66169487  1
  Mg  Mg3_0  1  0.00000000  0.41169487  0.33830513  1
  Mg  Mg3_1  1  0.00000000  0.41169487  0.83830513  1
  Mg  Mg3_2  1  0.00000000  0.91169487  0.33830513  1
  Mg  Mg3_3  1  0.00000000  0.91169487  0.83830513  1
  Mg  Mg3_4  1  0.50000000  0.41169487  0.33830513  1
  Mg  Mg3_5  1  0.50000000  0.41169487  0.83830513  1
  Mg  Mg3_6  1  0.50000000  0.91169487  0.33830513  1
  Mg  Mg3_7  1  0.50000000  0.91169487  0.83830513  1
  Ni  Ni0_0  1  0.00000000  0.25000000  0.25000000  1
  Ni  Ni0_1  1  0.00000000  0.25000000  0.75000000  1
  Ni  Ni0_2  1  0.00000000  0.75000000  0.25000000  1
  Ni  Ni0_3  1  0.00000000  0.75000000  0.75000000  1
  Ni  Ni0_4  1  0.50000000  0.25000000  0.25000000  1
  Ni  Ni0_5  1  0.50000000  0.25000000  0.75000000  1
  Ni  Ni0_6  1  0.50000000  0.75000000  0.25000000  1
  Ni  Ni0_7  1  0.50000000  0.75000000  0.75000000  1
  Ni  Ni1_0  1  0.00000000  0.00000000  0.00000000  1
  Ni  Ni1_1  1  0.00000000  0.00000000  0.50000000  1
  Ni  Ni1_2  1  0.00000000  0.50000000  0.00000000  1
  Ni  Ni1_3  1  0.00000000  0.50000000  0.50000000  1
  Ni  Ni1_4  1  0.50000000  0.00000000  0.00000000  1
  Ni  Ni1_5  1  0.50000000  0.00000000  0.50000000  1
  Ni  Ni1_6  1  0.50000000  0.50000000  0.00000000  1
  Ni  Ni1_7  1  0.50000000  0.50000000  0.50000000  1
  B  B0_0  1  0.00000000  0.06359197  0.31359198  1
  B  B0_1  1  0.00000000  0.06359197  0.81359198  1
  B  B0_2  1  0.00000000  0.56359198  0.31359198  1
  B  B0_3  1  0.00000000  0.56359198  0.81359198  1
  B  B0_4  1  0.50000000  0.06359197  0.31359198  1
  B  B0_5  1  0.50000000  0.06359197  0.81359198  1
  B  B0_6  1  0.50000000  0.56359198  0.31359198  1
  B  B0_7  1  0.50000000  0.56359198  0.81359198  1
  B  B1_0  1  0.00000000  0.43640803  0.18640803  1
  B  B1_1  1  0.00000000  0.43640803  0.68640802  1
  B  B1_2  1  0.00000000  0.93640802  0.18640803  1
  B  B1_3  1  0.00000000  0.93640802  0.68640802  1
  B  B1_4  1  0.50000000  0.43640803  0.18640803  1
  B  B1_5  1  0.50000000  0.43640803  0.68640802  1
  B  B1_6  1  0.50000000  0.93640802  0.18640803  1
  B  B1_7  1  0.50000000  0.93640802  0.68640802  1
  B  B2_0  1  0.00000000  0.18640803  0.06359197  1
  B  B2_1  1  0.00000000  0.18640803  0.56359198  1
  B  B2_2  1  0.00000000  0.68640802  0.06359197  1
  B  B2_3  1  0.00000000  0.68640802  0.56359198  1
  B  B2_4  1  0.50000000  0.18640803  0.06359197  1
  B  B2_5  1  0.50000000  0.18640803  0.56359198  1
  B  B2_6  1  0.50000000  0.68640802  0.06359197  1
  B  B2_7  1  0.50000000  0.68640802  0.56359198  1
  B  B3_0  1  0.00000000  0.31359198  0.43640803  1
  B  B3_1  1  0.00000000  0.31359198  0.93640802  1
  B  B3_2  1  0.00000000  0.81359198  0.43640803  1
  B  B3_3  1  0.00000000  0.81359198  0.93640802  1
  B  B3_4  1  0.50000000  0.31359198  0.43640803  1
  B  B3_5  1  0.50000000  0.31359198  0.93640802  1
  B  B3_6  1  0.50000000  0.81359198  0.43640803  1
  B  B3_7  1  0.50000000  0.81359198  0.93640802  1
  Ir  Ir0_0  1  0.25000000  0.00000000  0.25000000  1
  Ir  Ir0_1  1  0.25000000  0.00000000  0.75000000  1
  Ir  Ir0_2  1  0.25000000  0.50000000  0.25000000  1
  Ir  Ir0_3  1  0.25000000  0.50000000  0.75000000  1
  Ir  Ir0_4  1  0.75000000  0.00000000  0.25000000  1
  Ir  Ir0_5  1  0.75000000  0.00000000  0.75000000  1
  Ir  Ir0_6  1  0.75000000  0.50000000  0.25000000  1
  Ir  Ir0_7  1  0.75000000  0.50000000  0.75000000  1
  Ir  Ir1_0  1  0.25000000  0.25000000  0.00000000  1
  Ir  Ir1_1  1  0.25000000  0.25000000  0.50000000  1
  Ir  Ir1_2  1  0.25000000  0.75000000  0.00000000  1
  Ir  Ir1_3  1  0.25000000  0.75000000  0.50000000  1
  Ir  Ir1_4  1  0.75000000  0.25000000  0.00000000  1
  Ir  Ir1_5  1  0.75000000  0.25000000  0.50000000  1
  Ir  Ir1_6  1  0.75000000  0.75000000  0.00000000  1
  Ir  Ir1_7  1  0.75000000  0.75000000  0.50000000  1
  Ir  Ir2_0  1  0.25000000  0.28536304  0.35624303  1
  Ir  Ir2_1  1  0.25000000  0.28536304  0.85624303  1
  Ir  Ir2_2  1  0.25000000  0.78536304  0.35624303  1
  Ir  Ir2_3  1  0.25000000  0.78536304  0.85624303  1
  Ir  Ir2_4  1  0.75000000  0.28536304  0.35624303  1
  Ir  Ir2_5  1  0.75000000  0.28536304  0.85624303  1
  Ir  Ir2_6  1  0.75000000  0.78536304  0.35624303  1
  Ir  Ir2_7  1  0.75000000  0.78536304  0.85624303  1
  Ir  Ir3_0  1  0.25000000  0.21463696  0.14375697  1
  Ir  Ir3_1  1  0.25000000  0.21463696  0.64375697  1
  Ir  Ir3_2  1  0.25000000  0.71463696  0.14375697  1
  Ir  Ir3_3  1  0.25000000  0.71463696  0.64375697  1
  Ir  Ir3_4  1  0.75000000  0.21463696  0.14375697  1
  Ir  Ir3_5  1  0.75000000  0.21463696  0.64375697  1
  Ir  Ir3_6  1  0.75000000  0.71463696  0.14375697  1
  Ir  Ir3_7  1  0.75000000  0.71463696  0.64375697  1
  Ir  Ir4_0  1  0.25000000  0.46463696  0.10624303  1
  Ir  Ir4_1  1  0.25000000  0.46463696  0.60624303  1
  Ir  Ir4_2  1  0.25000000  0.96463696  0.10624303  1
  Ir  Ir4_3  1  0.25000000  0.96463696  0.60624303  1
  Ir  Ir4_4  1  0.75000000  0.46463696  0.10624303  1
  Ir  Ir4_5  1  0.75000000  0.46463696  0.60624303  1
  Ir  Ir4_6  1  0.75000000  0.96463696  0.10624303  1
  Ir  Ir4_7  1  0.75000000  0.96463696  0.60624303  1
  Ir  Ir5_0  1  0.25000000  0.03536304  0.39375697  1
  Ir  Ir5_1  1  0.25000000  0.03536304  0.89375697  1
  Ir  Ir5_2  1  0.25000000  0.53536304  0.39375697  1
  Ir  Ir5_3  1  0.25000000  0.53536304  0.89375697  1
  Ir  Ir5_4  1  0.75000000  0.03536304  0.39375697  1
  Ir  Ir5_5  1  0.75000000  0.03536304  0.89375697  1
  Ir  Ir5_6  1  0.75000000  0.53536304  0.39375697  1
  Ir  Ir5_7  1  0.75000000  0.53536304  0.89375697  1
  Ir  Ir6_0  1  0.25000000  0.35624303  0.21463696  1
  Ir  Ir6_1  1  0.25000000  0.35624303  0.71463696  1
  Ir  Ir6_2  1  0.25000000  0.85624303  0.21463696  1
  Ir  Ir6_3  1  0.25000000  0.85624303  0.71463696  1
  Ir  Ir6_4  1  0.75000000  0.35624303  0.21463696  1
  Ir  Ir6_5  1  0.75000000  0.35624303  0.71463696  1
  Ir  Ir6_6  1  0.75000000  0.85624303  0.21463696  1
  Ir  Ir6_7  1  0.75000000  0.85624303  0.71463696  1
  Ir  Ir7_0  1  0.25000000  0.14375697  0.28536304  1
  Ir  Ir7_1  1  0.25000000  0.14375697  0.78536304  1
  Ir  Ir7_2  1  0.25000000  0.64375697  0.28536304  1
  Ir  Ir7_3  1  0.25000000  0.64375697  0.78536304  1
  Ir  Ir7_4  1  0.75000000  0.14375697  0.28536304  1
  Ir  Ir7_5  1  0.75000000  0.14375697  0.78536304  1
  Ir  Ir7_6  1  0.75000000  0.64375697  0.28536304  1
  Ir  Ir7_7  1  0.75000000  0.64375697  0.78536304  1
  Ir  Ir8_0  1  0.25000000  0.10624303  0.03536304  1
  Ir  Ir8_1  1  0.25000000  0.10624303  0.53536304  1
  Ir  Ir8_2  1  0.25000000  0.60624303  0.03536304  1
  Ir  Ir8_3  1  0.25000000  0.60624303  0.53536304  1
  Ir  Ir8_4  1  0.75000000  0.10624303  0.03536304  1
  Ir  Ir8_5  1  0.75000000  0.10624303  0.53536304  1
  Ir  Ir8_6  1  0.75000000  0.60624303  0.03536304  1
  Ir  Ir8_7  1  0.75000000  0.60624303  0.53536304  1
  Ir  Ir9_0  1  0.25000000  0.39375697  0.46463696  1
  Ir  Ir9_1  1  0.25000000  0.39375697  0.96463696  1
  Ir  Ir9_2  1  0.25000000  0.89375697  0.46463696  1
  Ir  Ir9_3  1  0.25000000  0.89375697  0.96463696  1
  Ir  Ir9_4  1  0.75000000  0.39375697  0.46463696  1
  Ir  Ir9_5  1  0.75000000  0.39375697  0.96463696  1
  Ir  Ir9_6  1  0.75000000  0.89375697  0.46463696  1
  Ir  Ir9_7  1  0.75000000  0.89375697  0.96463696  1
loop_
_geom_bond_atom_site_label_1
_geom_bond_atom_site_label_2
_geom_bond_distance
_geom_bond_site_symmetry_2
Mg0_0 Mg0_4 2.905506 1_455
Mg0_0 Mg0_4 2.905506 1_555
Mg0_1 Mg0_5 2.905506 1_555
Mg0_1 Mg0_5 2.905506 1_455
Mg0_2 Mg0_6 2.905506 1_455
Mg0_2 Mg0_6 2.905506 1_555
Mg0_3 Mg0_7 2.905506 1_455
Mg0_3 Mg0_7 2.905506 1_555
Mg1_0 Mg1_4 2.905506 1_555
Mg1_0 Mg1_4 2.905506 1_455
Mg1_1 Mg1_5 2.905506 1_455
Mg1_1 Mg1_5 2.905506 1_555
Mg1_2 Mg1_6 2.905506 1_555
Mg1_2 Mg1_6 2.905506 1_455
Mg1_3 Mg1_7 2.905506 1_555
Mg1_3 Mg1_7 2.905506 1_455
Mg2_0 Mg2_4 2.905506 1_455
Mg2_0 Mg2_4 2.905506 1_555
Mg2_1 Mg2_5 2.905506 1_555
Mg2_1 Mg2_5 2.905506 1_455
Mg2_2 Mg2_6 2.905506 1_455
Mg2_2 Mg2_6 2.905506 1_555
Mg2_3 Mg2_7 2.905506 1_455
Mg2_3 Mg2_7 2.905506 1_555
Mg3_0 Mg3_4 2.905506 1_555
Mg3_0 Mg3_4 2.905506 1_455
Mg3_1 Mg3_5 2.905506 1_455
Mg3_1 Mg3_5 2.905506 1_555
Mg3_2 Mg3_6 2.905506 1_455
Mg3_2 Mg3_6 2.905506 1_555
Mg3_3 Mg3_7 2.905506 1_555
Mg3_3 Mg3_7 2.905506 1_455
B0_0 Ir5_4 2.152356 1_455
B0_0 Ir5_0 2.152356 1_555
B0_0 Ir7_0 2.152356 1_555
B0_0 Ir7_4 2.152356 1_455
B0_0 Ir0_4 2.221378 1_455
B0_0 Ir0_0 2.221378 1_555
B0_0 Mg0_0 2.592472 1_555
B0_0 Mg3_2 2.875675 1_545
B0_0 Mg2_0 2.875675 1_555
B0_1 Ir7_1 2.152356 1_555
B0_1 Ir7_5 2.152356 1_455
B0_1 Ir5_1 2.152356 1_555
B0_1 Ir5_5 2.152356 1_455
B0_1 Ir0_1 2.221378 1_555
B0_1 Ir0_5 2.221378 1_455
B0_1 Mg0_1 2.592472 1_555
B0_1 Mg3_3 2.875675 1_545
B0_1 Mg2_1 2.875675 1_555
B0_2 Ir5_2 2.152356 1_555
B0_2 Ir5_6 2.152356 1_455
B0_2 Ir7_2 2.152356 1_555
B0_2 Ir7_6 2.152356 1_455
B0_2 Ir0_6 2.221378 1_455
B0_2 Ir0_2 2.221378 1_555
B0_2 Mg0_2 2.592472 1_555
B0_2 Mg2_2 2.875675 1_555
B0_2 Mg3_0 2.875675 1_555
B0_3 Ir5_7 2.152356 1_455
B0_3 Ir7_3 2.152356 1_555
B0_3 Ir5_3 2.152356 1_555
B0_3 Ir7_7 2.152356 1_455
B0_3 Ir0_3 2.221378 1_555
B0_3 Ir0_7 2.221378 1_455
B0_3 Mg0_3 2.592472 1_555
B0_3 Mg2_3 2.875675 1_555
B0_3 Mg3_1 2.875675 1_555
B0_4 Ir5_4 2.152356 1_555
B0_4 Ir5_0 2.152356 1_555
B0_4 Ir7_0 2.152356 1_555
B0_4 Ir7_4 2.152356 1_555
B0_4 Ir0_0 2.221378 1_555
B0_4 Ir0_4 2.221378 1_555
B0_4 Mg0_4 2.592472 1_555
B0_4 Mg3_6 2.875675 1_545
B0_4 Mg2_4 2.875675 1_555
B0_5 Ir7_1 2.152356 1_555
B0_5 Ir7_5 2.152356 1_555
B0_5 Ir5_1 2.152356 1_555
B0_5 Ir5_5 2.152356 1_555
B0_5 Ir0_5 2.221378 1_555
B0_5 Ir0_1 2.221378 1_555
B0_5 Mg0_5 2.592472 1_555
B0_5 Mg3_7 2.875675 1_545
B0_5 Mg2_5 2.875675 1_555
B0_6 Ir5_2 2.152356 1_555
B0_6 Ir5_6 2.152356 1_555
B0_6 Ir7_6 2.152356 1_555
B0_6 Ir7_2 2.152356 1_555
B0_6 Ir0_6 2.221378 1_555
B0_6 Ir0_2 2.221378 1_555
B0_6 Mg0_6 2.592472 1_555
B0_6 Mg2_6 2.875675 1_555
B0_6 Mg3_4 2.875675 1_555
B0_7 Ir7_3 2.152356 1_555
B0_7 Ir5_3 2.152356 1_555
B0_7 Ir5_7 2.152356 1_555
B0_7 Ir7_7 2.152356 1_555
B0_7 Ir0_3 2.221378 1_555
B0_7 Ir0_7 2.221378 1_555
B0_7 Mg0_7 2.592472 1_555
B0_7 Mg2_7 2.875675 1_555
B0_7 Mg3_5 2.875675 1_555
B1_0 Ir4_0 2.152356 1_555
B1_0 Ir4_4 2.152356 1_455
B1_0 Ir6_0 2.152356 1_555
B1_0 Ir6_4 2.152356 1_455
B1_0 Ir0_6 2.221378 1_455
B1_0 Ir0_2 2.221378 1_555
B1_0 Mg1_0 2.592472 1_555
B1_0 Mg2_2 2.875675 1_555
B1_0 Mg3_0 2.875675 1_555
B1_1 Ir4_1 2.152356 1_555
B1_1 Ir4_5 2.152356 1_455
B1_1 Ir6_1 2.152356 1_555
B1_1 Ir6_5 2.152356 1_455
B1_1 Ir0_3 2.221378 1_555
B1_1 Ir0_7 2.221378 1_455
B1_1 Mg1_1 2.592472 1_555
B1_1 Mg2_3 2.875675 1_555
B1_1 Mg3_1 2.875675 1_555
B1_2 Ir6_6 2.152356 1_455
B1_2 Ir6_2 2.152356 1_555
B1_2 Ir4_2 2.152356 1_555
B1_2 Ir4_6 2.152356 1_455
B1_2 Ir0_4 2.221378 1_465
B1_2 Ir0_0 2.221378 1_565
B1_2 Mg1_2 2.592472 1_555
B1_2 Mg2_0 2.875675 1_565
B1_2 Mg3_2 2.875675 1_555
B1_3 Ir6_3 2.152356 1_555
B1_3 Ir6_7 2.152356 1_455
B1_3 Ir4_3 2.152356 1_555
B1_3 Ir4_7 2.152356 1_455
B1_3 Ir0_1 2.221378 1_565
B1_3 Ir0_5 2.221378 1_465
B1_3 Mg1_3 2.592472 1_555
B1_3 Mg2_1 2.875675 1_565
B1_3 Mg3_3 2.875675 1_555
B1_4 Ir4_0 2.152356 1_555
B1_4 Ir4_4 2.152356 1_555
B1_4 Ir6_0 2.152356 1_555
B1_4 Ir6_4 2.152356 1_555
B1_4 Ir0_6 2.221378 1_555
B1_4 Ir0_2 2.221378 1_555
B1_4 Mg1_4 2.592472 1_555
B1_4 Mg2_6 2.875675 1_555
B1_4 Mg3_4 2.875675 1_555
B1_5 Ir4_1 2.152356 1_555
B1_5 Ir4_5 2.152356 1_555
B1_5 Ir6_5 2.152356 1_555
B1_5 Ir6_1 2.152356 1_555
B1_5 Ir0_3 2.221378 1_555
B1_5 Ir0_7 2.221378 1_555
B1_5 Mg1_5 2.592472 1_555
B1_5 Mg2_7 2.875675 1_555
B1_5 Mg3_5 2.875675 1_555
B1_6 Ir6_2 2.152356 1_555
B1_6 Ir6_6 2.152356 1_555
B1_6 Ir4_6 2.152356 1_555
B1_6 Ir4_2 2.152356 1_555
B1_6 Ir0_0 2.221378 1_565
B1_6 Ir0_4 2.221378 1_565
B1_6 Mg1_6 2.592472 1_555
B1_6 Mg2_4 2.875675 1_565
B1_6 Mg3_6 2.875675 1_555
B1_7 Ir6_3 2.152356 1_555
B1_7 Ir4_3 2.152356 1_555
B1_7 Ir6_7 2.152356 1_555
B1_7 Ir4_7 2.152356 1_555
B1_7 Ir0_1 2.221378 1_565
B1_7 Ir0_5 2.221378 1_565
B1_7 Mg1_7 2.592472 1_555
B1_7 Mg2_5 2.875675 1_565
B1_7 Mg3_7 2.875675 1_555
B2_0 Ir8_0 2.152356 1_555
B2_0 Ir8_4 2.152356 1_455
B2_0 Ir3_4 2.152356 1_455
B2_0 Ir3_0 2.152356 1_555
B2_0 Ir1_0 2.221378 1_555
B2_0 Ir1_4 2.221378 1_455
B2_0 Mg2_0 2.592472 1_555
B2_0 Mg0_1 2.875675 1_554
B2_0 Mg1_0 2.875675 1_555
B2_1 Ir8_5 2.152356 1_455
B2_1 Ir8_1 2.152356 1_555
B2_1 Ir3_1 2.152356 1_555
B2_1 Ir3_5 2.152356 1_455
B2_1 Ir1_1 2.221378 1_555
B2_1 Ir1_5 2.221378 1_455
B2_1 Mg2_1 2.592472 1_555
B2_1 Mg0_0 2.875675 1_555
B2_1 Mg1_1 2.875675 1_555
B2_2 Ir8_6 2.152356 1_455
B2_2 Ir8_2 2.152356 1_555
B2_2 Ir3_6 2.152356 1_455
B2_2 Ir3_2 2.152356 1_555
B2_2 Ir1_2 2.221378 1_555
B2_2 Ir1_6 2.221378 1_455
B2_2 Mg2_2 2.592472 1_555
B2_2 Mg0_3 2.875675 1_554
B2_2 Mg1_2 2.875675 1_555
B2_3 Ir8_7 2.152356 1_455
B2_3 Ir8_3 2.152356 1_555
B2_3 Ir3_3 2.152356 1_555
B2_3 Ir3_7 2.152356 1_455
B2_3 Ir1_7 2.221378 1_455
B2_3 Ir1_3 2.221378 1_555
B2_3 Mg2_3 2.592472 1_555
B2_3 Mg0_2 2.875675 1_555
B2_3 Mg1_3 2.875675 1_555
B2_4 Ir8_0 2.152356 1_555
B2_4 Ir8_4 2.152356 1_555
B2_4 Ir3_0 2.152356 1_555
B2_4 Ir3_4 2.152356 1_555
B2_4 Ir1_0 2.221378 1_555
B2_4 Ir1_4 2.221378 1_555
B2_4 Mg2_4 2.592472 1_555
B2_4 Mg0_5 2.875675 1_554
B2_4 Mg1_4 2.875675 1_555
B2_5 Ir8_1 2.152356 1_555
B2_5 Ir8_5 2.152356 1_555
B2_5 Ir3_1 2.152356 1_555
B2_5 Ir3_5 2.152356 1_555
B2_5 Ir1_1 2.221378 1_555
B2_5 Ir1_5 2.221378 1_555
B2_5 Mg2_5 2.592472 1_555
B2_5 Mg1_5 2.875675 1_555
B2_5 Mg0_4 2.875675 1_555
B2_6 Ir8_6 2.152356 1_555
B2_6 Ir8_2 2.152356 1_555
B2_6 Ir3_6 2.152356 1_555
B2_6 Ir3_2 2.152356 1_555
B2_6 Ir1_2 2.221378 1_555
B2_6 Ir1_6 2.221378 1_555
B2_6 Mg2_6 2.592472 1_555
B2_6 Mg0_7 2.875675 1_554
B2_6 Mg1_6 2.875675 1_555
B2_7 Ir8_7 2.152356 1_555
B2_7 Ir8_3 2.152356 1_555
B2_7 Ir3_3 2.152356 1_555
B2_7 Ir3_7 2.152356 1_555
B2_7 Ir1_3 2.221378 1_555
B2_7 Ir1_7 2.221378 1_555
B2_7 Mg2_7 2.592472 1_555
B2_7 Mg0_6 2.875675 1_555
B2_7 Mg1_7 2.875675 1_555
B3_0 Ir9_0 2.152356 1_555
B3_0 Ir9_4 2.152356 1_455
B3_0 Ir2_4 2.152356 1_455
B3_0 Ir2_0 2.152356 1_555
B3_0 Ir1_1 2.221378 1_555
B3_0 Ir1_5 2.221378 1_455
B3_0 Mg3_0 2.592472 1_555
B3_0 Mg1_1 2.875675 1_555
B3_0 Mg0_0 2.875675 1_555
B3_1 Ir2_5 2.152356 1_455
B3_1 Ir2_1 2.152356 1_555
B3_1 Ir9_5 2.152356 1_455
B3_1 Ir9_1 2.152356 1_555
B3_1 Ir1_4 2.221378 1_456
B3_1 Ir1_0 2.221378 1_556
B3_1 Mg3_1 2.592472 1_555
B3_1 Mg0_1 2.875675 1_555
B3_1 Mg1_0 2.875675 1_556
B3_2 Ir2_2 2.152356 1_555
B3_2 Ir2_6 2.152356 1_455
B3_2 Ir9_2 2.152356 1_555
B3_2 Ir9_6 2.152356 1_455
B3_2 Ir1_3 2.221378 1_555
B3_2 Ir1_7 2.221378 1_455
B3_2 Mg3_2 2.592472 1_555
B3_2 Mg1_3 2.875675 1_555
B3_2 Mg0_2 2.875675 1_555
B3_3 Ir2_3 2.152356 1_555
B3_3 Ir2_7 2.152356 1_455
B3_3 Ir9_3 2.152356 1_555
B3_3 Ir9_7 2.152356 1_455
B3_3 Ir1_6 2.221378 1_456
B3_3 Ir1_2 2.221378 1_556
B3_3 Mg3_3 2.592472 1_555
B3_3 Mg1_2 2.875675 1_556
B3_3 Mg0_3 2.875675 1_555
B3_4 Ir9_4 2.152356 1_555
B3_4 Ir9_0 2.152356 1_555
B3_4 Ir2_4 2.152356 1_555
B3_4 Ir2_0 2.152356 1_555
B3_4 Ir1_1 2.221378 1_555
B3_4 Ir1_5 2.221378 1_555
B3_4 Mg3_4 2.592472 1_555
B3_4 Mg1_5 2.875675 1_555
B3_4 Mg0_4 2.875675 1_555
B3_5 Ir2_1 2.152356 1_555
B3_5 Ir2_5 2.152356 1_555
B3_5 Ir9_1 2.152356 1_555
B3_5 Ir9_5 2.152356 1_555
B3_5 Ir1_4 2.221378 1_556
B3_5 Ir1_0 2.221378 1_556
B3_5 Mg3_5 2.592472 1_555
B3_5 Mg1_4 2.875675 1_556
B3_5 Mg0_5 2.875675 1_555
B3_6 Ir2_2 2.152356 1_555
B3_6 Ir2_6 2.152356 1_555
B3_6 Ir9_2 2.152356 1_555
B3_6 Ir9_6 2.152356 1_555
B3_6 Ir1_3 2.221378 1_555
B3_6 Ir1_7 2.221378 1_555
B3_6 Mg3_6 2.592472 1_555
B3_6 Mg1_7 2.875675 1_555
B3_6 Mg0_6 2.875675 1_555
B3_7 Ir2_7 2.152356 1_555
B3_7 Ir2_3 2.152356 1_555
B3_7 Ir9_7 2.152356 1_555
B3_7 Ir9_3 2.152356 1_555
B3_7 Ir1_2 2.221378 1_556
B3_7 Ir1_6 2.221378 1_556
B3_7 Mg3_7 2.592472 1_555
B3_7 Mg1_6 2.875675 1_556
B3_7 Mg0_7 2.875675 1_555
Ir0_0 Mg2_0 2.748813 1_555
Ir0_0 Mg2_4 2.748813 1_555
Ir0_0 Mg3_2 2.748813 1_545
Ir0_0 Mg3_6 2.748813 1_545
Ir0_1 Mg2_5 2.748813 1_555
Ir0_1 Mg2_1 2.748813 1_555
Ir0_1 Mg3_3 2.748813 1_545
Ir0_1 Mg3_7 2.748813 1_545
Ir0_2 Mg2_6 2.748813 1_555
Ir0_2 Mg2_2 2.748813 1_555
Ir0_2 Mg3_0 2.748813 1_555
Ir0_2 Mg3_4 2.748813 1_555
Ir0_3 Mg2_7 2.748813 1_555
Ir0_3 Mg2_3 2.748813 1_555
Ir0_3 Mg3_1 2.748813 1_555
Ir0_3 Mg3_5 2.748813 1_555
Ir0_4 Mg2_0 2.748813 1_655
Ir0_4 Mg2_4 2.748813 1_555
Ir0_4 Mg3_2 2.748813 1_645
Ir0_4 Mg3_6 2.748813 1_545
Ir0_5 Mg2_1 2.748813 1_655
Ir0_5 Mg2_5 2.748813 1_555
Ir0_5 Mg3_3 2.748813 1_645
Ir0_5 Mg3_7 2.748813 1_545
Ir0_6 Mg2_6 2.748813 1_555
Ir0_6 Mg2_2 2.748813 1_655
Ir0_6 Mg3_4 2.748813 1_555
Ir0_6 Mg3_0 2.748813 1_655
Ir0_7 Mg2_3 2.748813 1_655
Ir0_7 Mg2_7 2.748813 1_555
Ir0_7 Mg3_1 2.748813 1_655
Ir0_7 Mg3_5 2.748813 1_555
Ir1_0 Mg0_1 2.748813 1_554
Ir1_0 Mg0_5 2.748813 1_554
Ir1_0 Mg1_0 2.748813 1_555
Ir1_0 Mg1_4 2.748813 1_555
Ir1_1 Mg1_5 2.748813 1_555
Ir1_1 Mg1_1 2.748813 1_555
Ir1_1 Mg0_0 2.748813 1_555
Ir1_1 Mg0_4 2.748813 1_555
Ir1_2 Mg0_3 2.748813 1_554
Ir1_2 Mg0_7 2.748813 1_554
Ir1_2 Mg1_6 2.748813 1_555
Ir1_2 Mg1_2 2.748813 1_555
Ir1_3 Mg0_2 2.748813 1_555
Ir1_3 Mg0_6 2.748813 1_555
Ir1_3 Mg1_3 2.748813 1_555
Ir1_3 Mg1_7 2.748813 1_555
Ir1_4 Mg0_1 2.748813 1_654
Ir1_4 Mg0_5 2.748813 1_554
Ir1_4 Mg1_4 2.748813 1_555
Ir1_4 Mg1_0 2.748813 1_655
Ir1_5 Mg1_1 2.748813 1_655
Ir1_5 Mg1_5 2.748813 1_555
Ir1_5 Mg0_0 2.748813 1_655
Ir1_5 Mg0_4 2.748813 1_555
Ir1_6 Mg0_3 2.748813 1_654
Ir1_6 Mg0_7 2.748813 1_554
Ir1_6 Mg1_6 2.748813 1_555
Ir1_6 Mg1_2 2.748813 1_655
Ir1_7 Mg0_6 2.748813 1_555
Ir1_7 Mg0_2 2.748813 1_655
Ir1_7 Mg1_3 2.748813 1_655
Ir1_7 Mg1_7 2.748813 1_555
Ir2_0 Ni0_4 2.547234 1_555
Ir2_0 Ni0_0 2.547234 1_555
Ir2_0 Mg3_4 2.792037 1_555
Ir2_0 Mg3_0 2.792037 1_555
Ir2_0 Mg0_0 2.919634 1_555
Ir2_0 Mg0_4 2.919634 1_555
Ir2_1 Ni0_5 2.547234 1_555
Ir2_1 Ni0_1 2.547234 1_555
Ir2_1 Mg3_1 2.792037 1_555
Ir2_1 Mg3_5 2.792037 1_555
Ir2_1 Mg0_1 2.919634 1_555
Ir2_1 Mg0_5 2.919634 1_555
Ir2_2 Ni0_6 2.547234 1_555
Ir2_2 Ni0_2 2.547234 1_555
Ir2_2 Mg3_2 2.792037 1_555
Ir2_2 Mg3_6 2.792037 1_555
Ir2_2 Mg0_2 2.919634 1_555
Ir2_2 Mg0_6 2.919634 1_555
Ir2_3 Ni0_3 2.547234 1_555
Ir2_3 Ni0_7 2.547234 1_555
Ir2_3 Mg3_3 2.792037 1_555
Ir2_3 Mg3_7 2.792037 1_555
Ir2_3 Mg0_3 2.919634 1_555
Ir2_3 Mg0_7 2.919634 1_555
Ir2_4 Ni0_4 2.547234 1_555
Ir2_4 Ni0_0 2.547234 1_655
Ir2_4 Mg3_4 2.792037 1_555
Ir2_4 Mg3_0 2.792037 1_655
Ir2_4 Mg0_0 2.919634 1_655
Ir2_4 Mg0_4 2.919634 1_555
Ir2_5 Ni0_5 2.547234 1_555
Ir2_5 Ni0_1 2.547234 1_655
Ir2_5 Mg3_1 2.792037 1_655
Ir2_5 Mg3_5 2.792037 1_555
Ir2_5 Mg0_1 2.919634 1_655
Ir2_5 Mg0_5 2.919634 1_555
Ir2_6 Ni0_6 2.547234 1_555
Ir2_6 Ni0_2 2.547234 1_655
Ir2_6 Mg3_2 2.792037 1_655
Ir2_6 Mg3_6 2.792037 1_555
Ir2_6 Mg0_6 2.919634 1_555
Ir2_6 Mg0_2 2.919634 1_655
Ir2_7 Ni0_3 2.547234 1_655
Ir2_7 Ni0_7 2.547234 1_555
Ir2_7 Mg3_3 2.792037 1_655
Ir2_7 Mg3_7 2.792037 1_555
Ir2_7 Mg0_7 2.919634 1_555
Ir2_7 Mg0_3 2.919634 1_655
Ir3_0 Ni0_0 2.547234 1_555
Ir3_0 Ni0_4 2.547234 1_555
Ir3_0 Mg2_0 2.792037 1_555
Ir3_0 Mg2_4 2.792037 1_555
Ir3_0 Mg1_0 2.919634 1_555
Ir3_0 Mg1_4 2.919634 1_555
Ir3_1 Ni0_1 2.547234 1_555
Ir3_1 Ni0_5 2.547234 1_555
Ir3_1 Mg2_1 2.792037 1_555
Ir3_1 Mg2_5 2.792037 1_555
Ir3_1 Mg1_1 2.919634 1_555
Ir3_1 Mg1_5 2.919634 1_555
Ir3_2 Ni0_2 2.547234 1_555
Ir3_2 Ni0_6 2.547234 1_555
Ir3_2 Mg2_2 2.792037 1_555
Ir3_2 Mg2_6 2.792037 1_555
Ir3_2 Mg1_2 2.919634 1_555
Ir3_2 Mg1_6 2.919634 1_555
Ir3_3 Ni0_3 2.547234 1_555
Ir3_3 Ni0_7 2.547234 1_555
Ir3_3 Mg2_7 2.792037 1_555
Ir3_3 Mg2_3 2.792037 1_555
Ir3_3 Mg1_3 2.919634 1_555
Ir3_3 Mg1_7 2.919634 1_555
Ir3_4 Ni0_0 2.547234 1_655
Ir3_4 Ni0_4 2.547234 1_555
Ir3_4 Mg2_0 2.792037 1_655
Ir3_4 Mg2_4 2.792037 1_555
Ir3_4 Mg1_4 2.919634 1_555
Ir3_4 Mg1_0 2.919634 1_655
Ir3_5 Ni0_5 2.547234 1_555
Ir3_5 Ni0_1 2.547234 1_655
Ir3_5 Mg2_1 2.792037 1_655
Ir3_5 Mg2_5 2.792037 1_555
Ir3_5 Mg1_5 2.919634 1_555
Ir3_5 Mg1_1 2.919634 1_655
Ir3_6 Ni0_6 2.547234 1_555
Ir3_6 Ni0_2 2.547234 1_655
Ir3_6 Mg2_2 2.792037 1_655
Ir3_6 Mg2_6 2.792037 1_555
Ir3_6 Mg1_2 2.919634 1_655
Ir3_6 Mg1_6 2.919634 1_555
Ir3_7 Ni0_3 2.547234 1_655
Ir3_7 Ni0_7 2.547234 1_555
Ir3_7 Mg2_3 2.792037 1_655
Ir3_7 Mg2_7 2.792037 1_555
Ir3_7 Mg1_7 2.919634 1_555
Ir3_7 Mg1_3 2.919634 1_655
Ir4_0 Ni1_2 2.547234 1_555
Ir4_0 Ni1_6 2.547234 1_555
Ir4_0 Mg1_0 2.792037 1_555
Ir4_0 Mg1_4 2.792037 1_555
Ir4_0 Mg2_2 2.919634 1_555
Ir4_0 Mg2_6 2.919634 1_555
Ir4_1 Ni1_3 2.547234 1_555
Ir4_1 Ni1_7 2.547234 1_555
Ir4_1 Mg1_1 2.792037 1_555
Ir4_1 Mg1_5 2.792037 1_555
Ir4_1 Mg2_7 2.919634 1_555
Ir4_1 Mg2_3 2.919634 1_555
Ir4_2 Ni1_4 2.547234 1_565
Ir4_2 Ni1_0 2.547234 1_565
Ir4_2 Mg1_2 2.792037 1_555
Ir4_2 Mg1_6 2.792037 1_555
Ir4_2 Mg2_0 2.919634 1_565
Ir4_2 Mg2_4 2.919634 1_565
Ir4_3 Ni1_1 2.547234 1_565
Ir4_3 Ni1_5 2.547234 1_565
Ir4_3 Mg1_7 2.792037 1_555
Ir4_3 Mg1_3 2.792037 1_555
Ir4_3 Mg2_5 2.919634 1_565
Ir4_3 Mg2_1 2.919634 1_565
Ir4_4 Ni1_2 2.547234 1_655
Ir4_4 Ni1_6 2.547234 1_555
Ir4_4 Mg1_0 2.792037 1_655
Ir4_4 Mg1_4 2.792037 1_555
Ir4_4 Mg2_2 2.919634 1_655
Ir4_4 Mg2_6 2.919634 1_555
Ir4_5 Ni1_7 2.547234 1_555
Ir4_5 Ni1_3 2.547234 1_655
Ir4_5 Mg1_5 2.792037 1_555
Ir4_5 Mg1_1 2.792037 1_655
Ir4_5 Mg2_3 2.919634 1_655
Ir4_5 Mg2_7 2.919634 1_555
Ir4_6 Ni1_4 2.547234 1_565
Ir4_6 Ni1_0 2.547234 1_665
Ir4_6 Mg1_2 2.792037 1_655
Ir4_6 Mg1_6 2.792037 1_555
Ir4_6 Mg2_0 2.919634 1_665
Ir4_6 Mg2_4 2.919634 1_565
Ir4_7 Ni1_5 2.547234 1_565
Ir4_7 Ni1_1 2.547234 1_665
Ir4_7 Mg1_3 2.792037 1_655
Ir4_7 Mg1_7 2.792037 1_555
Ir4_7 Mg2_5 2.919634 1_565
Ir4_7 Mg2_1 2.919634 1_665
Ir5_0 Ni1_1 2.547234 1_555
Ir5_0 Ni1_5 2.547234 1_555
Ir5_0 Mg0_0 2.792037 1_555
Ir5_0 Mg0_4 2.792037 1_555
Ir5_0 Mg3_6 2.919634 1_545
Ir5_0 Mg3_2 2.919634 1_545
Ir5_1 Ni1_0 2.547234 1_556
Ir5_1 Ni1_4 2.547234 1_556
Ir5_1 Mg0_1 2.792037 1_555
Ir5_1 Mg0_5 2.792037 1_555
Ir5_1 Mg3_3 2.919634 1_545
Ir5_1 Mg3_7 2.919634 1_545
Ir5_2 Ni1_3 2.547234 1_555
Ir5_2 Ni1_7 2.547234 1_555
Ir5_2 Mg0_2 2.792037 1_555
Ir5_2 Mg0_6 2.792037 1_555
Ir5_2 Mg3_0 2.919634 1_555
Ir5_2 Mg3_4 2.919634 1_555
Ir5_3 Ni1_2 2.547234 1_556
Ir5_3 Ni1_6 2.547234 1_556
Ir5_3 Mg0_7 2.792037 1_555
Ir5_3 Mg0_3 2.792037 1_555
Ir5_3 Mg3_1 2.919634 1_555
Ir5_3 Mg3_5 2.919634 1_555
Ir5_4 Ni1_5 2.547234 1_555
Ir5_4 Ni1_1 2.547234 1_655
Ir5_4 Mg0_4 2.792037 1_555
Ir5_4 Mg0_0 2.792037 1_655
Ir5_4 Mg3_6 2.919634 1_545
Ir5_4 Mg3_2 2.919634 1_645
Ir5_5 Ni1_0 2.547234 1_656
Ir5_5 Ni1_4 2.547234 1_556
Ir5_5 Mg0_1 2.792037 1_655
Ir5_5 Mg0_5 2.792037 1_555
Ir5_5 Mg3_3 2.919634 1_645
Ir5_5 Mg3_7 2.919634 1_545
Ir5_6 Ni1_7 2.547234 1_555
Ir5_6 Ni1_3 2.547234 1_655
Ir5_6 Mg0_2 2.792037 1_655
Ir5_6 Mg0_6 2.792037 1_555
Ir5_6 Mg3_0 2.919634 1_655
Ir5_6 Mg3_4 2.919634 1_555
Ir5_7 Ni1_2 2.547234 1_656
Ir5_7 Ni1_6 2.547234 1_556
Ir5_7 Mg0_3 2.792037 1_655
Ir5_7 Mg0_7 2.792037 1_555
Ir5_7 Mg3_1 2.919634 1_655
Ir5_7 Mg3_5 2.919634 1_555
Ir6_0 Ni0_0 2.547234 1_555
Ir6_0 Ni0_4 2.547234 1_555
Ir6_0 Mg1_0 2.792037 1_555
Ir6_0 Mg1_4 2.792037 1_555
Ir6_0 Mg3_0 2.919634 1_555
Ir6_0 Mg3_4 2.919634 1_555
Ir6_1 Ni0_1 2.547234 1_555
Ir6_1 Ni0_5 2.547234 1_555
Ir6_1 Mg1_1 2.792037 1_555
Ir6_1 Mg1_5 2.792037 1_555
Ir6_1 Mg3_5 2.919634 1_555
Ir6_1 Mg3_1 2.919634 1_555
Ir6_2 Ni0_2 2.547234 1_555
Ir6_2 Ni0_6 2.547234 1_555
Ir6_2 Mg1_6 2.792037 1_555
Ir6_2 Mg1_2 2.792037 1_555
Ir6_2 Mg3_2 2.919634 1_555
Ir6_2 Mg3_6 2.919634 1_555
Ir6_3 Ni0_3 2.547234 1_555
Ir6_3 Ni0_7 2.547234 1_555
Ir6_3 Mg1_3 2.792037 1_555
Ir6_3 Mg1_7 2.792037 1_555
Ir6_3 Mg3_7 2.919634 1_555
Ir6_3 Mg3_3 2.919634 1_555
Ir6_4 Ni0_0 2.547234 1_655
Ir6_4 Ni0_4 2.547234 1_555
Ir6_4 Mg1_0 2.792037 1_655
Ir6_4 Mg1_4 2.792037 1_555
Ir6_4 Mg3_0 2.919634 1_655
Ir6_4 Mg3_4 2.919634 1_555
Ir6_5 Ni0_5 2.547234 1_555
Ir6_5 Ni0_1 2.547234 1_655
Ir6_5 Mg1_1 2.792037 1_655
Ir6_5 Mg1_5 2.792037 1_555
Ir6_5 Mg3_1 2.919634 1_655
Ir6_5 Mg3_5 2.919634 1_555
Ir6_6 Ni0_6 2.547234 1_555
Ir6_6 Ni0_2 2.547234 1_655
Ir6_6 Mg1_6 2.792037 1_555
Ir6_6 Mg1_2 2.792037 1_655
Ir6_6 Mg3_2 2.919634 1_655
Ir6_6 Mg3_6 2.919634 1_555
Ir6_7 Ni0_3 2.547234 1_655
Ir6_7 Ni0_7 2.547234 1_555
Ir6_7 Mg1_7 2.792037 1_555
Ir6_7 Mg1_3 2.792037 1_655
Ir6_7 Mg3_7 2.919634 1_555
Ir6_7 Mg3_3 2.919634 1_655
Ir7_0 Ni0_0 2.547234 1_555
Ir7_0 Ni0_4 2.547234 1_555
Ir7_0 Mg0_0 2.792037 1_555
Ir7_0 Mg0_4 2.792037 1_555
Ir7_0 Mg2_4 2.919634 1_555
Ir7_0 Mg2_0 2.919634 1_555
Ir7_1 Ni0_1 2.547234 1_555
Ir7_1 Ni0_5 2.547234 1_555
Ir7_1 Mg0_1 2.792037 1_555
Ir7_1 Mg0_5 2.792037 1_555
Ir7_1 Mg2_5 2.919634 1_555
Ir7_1 Mg2_1 2.919634 1_555
Ir7_2 Ni0_2 2.547234 1_555
Ir7_2 Ni0_6 2.547234 1_555
Ir7_2 Mg0_6 2.792037 1_555
Ir7_2 Mg0_2 2.792037 1_555
Ir7_2 Mg2_2 2.919634 1_555
Ir7_2 Mg2_6 2.919634 1_555
Ir7_3 Ni0_3 2.547234 1_555
Ir7_3 Ni0_7 2.547234 1_555
Ir7_3 Mg0_7 2.792037 1_555
Ir7_3 Mg0_3 2.792037 1_555
Ir7_3 Mg2_7 2.919634 1_555
Ir7_3 Mg2_3 2.919634 1_555
Ir7_4 Ni0_0 2.547234 1_655
Ir7_4 Ni0_4 2.547234 1_555
Ir7_4 Mg0_4 2.792037 1_555
Ir7_4 Mg0_0 2.792037 1_655
Ir7_4 Mg2_4 2.919634 1_555
Ir7_4 Mg2_0 2.919634 1_655
Ir7_5 Ni0_1 2.547234 1_655
Ir7_5 Ni0_5 2.547234 1_555
Ir7_5 Mg0_1 2.792037 1_655
Ir7_5 Mg0_5 2.792037 1_555
Ir7_5 Mg2_5 2.919634 1_555
Ir7_5 Mg2_1 2.919634 1_655
Ir7_6 Ni0_2 2.547234 1_655
Ir7_6 Ni0_6 2.547234 1_555
Ir7_6 Mg0_6 2.792037 1_555
Ir7_6 Mg0_2 2.792037 1_655
Ir7_6 Mg2_2 2.919634 1_655
Ir7_6 Mg2_6 2.919634 1_555
Ir7_7 Ni0_7 2.547234 1_555
Ir7_7 Ni0_3 2.547234 1_655
Ir7_7 Mg0_3 2.792037 1_655
Ir7_7 Mg0_7 2.792037 1_555
Ir7_7 Mg2_3 2.919634 1_655
Ir7_7 Mg2_7 2.919634 1_555
Ir8_0 Ni1_0 2.547234 1_555
Ir8_0 Ni1_4 2.547234 1_555
Ir8_0 Mg2_0 2.792037 1_555
Ir8_0 Mg2_4 2.792037 1_555
Ir8_0 Mg0_1 2.919634 1_554
Ir8_0 Mg0_5 2.919634 1_554
Ir8_1 Ni1_1 2.547234 1_555
Ir8_1 Ni1_5 2.547234 1_555
Ir8_1 Mg2_1 2.792037 1_555
Ir8_1 Mg2_5 2.792037 1_555
Ir8_1 Mg0_0 2.919634 1_555
Ir8_1 Mg0_4 2.919634 1_555
Ir8_2 Ni1_6 2.547234 1_555
Ir8_2 Ni1_2 2.547234 1_555
Ir8_2 Mg2_6 2.792037 1_555
Ir8_2 Mg2_2 2.792037 1_555
Ir8_2 Mg0_3 2.919634 1_554
Ir8_2 Mg0_7 2.919634 1_554
Ir8_3 Ni1_3 2.547234 1_555
Ir8_3 Ni1_7 2.547234 1_555
Ir8_3 Mg2_7 2.792037 1_555
Ir8_3 Mg2_3 2.792037 1_555
Ir8_3 Mg0_2 2.919634 1_555
Ir8_3 Mg0_6 2.919634 1_555
Ir8_4 Ni1_0 2.547234 1_655
Ir8_4 Ni1_4 2.547234 1_555
Ir8_4 Mg2_0 2.792037 1_655
Ir8_4 Mg2_4 2.792037 1_555
Ir8_4 Mg0_1 2.919634 1_654
Ir8_4 Mg0_5 2.919634 1_554
Ir8_5 Ni1_5 2.547234 1_555
Ir8_5 Ni1_1 2.547234 1_655
Ir8_5 Mg2_1 2.792037 1_655
Ir8_5 Mg2_5 2.792037 1_555
Ir8_5 Mg0_0 2.919634 1_655
Ir8_5 Mg0_4 2.919634 1_555
Ir8_6 Ni1_2 2.547234 1_655
Ir8_6 Ni1_6 2.547234 1_555
Ir8_6 Mg2_6 2.792037 1_555
Ir8_6 Mg2_2 2.792037 1_655
Ir8_6 Mg0_3 2.919634 1_654
Ir8_6 Mg0_7 2.919634 1_554
Ir8_7 Ni1_7 2.547234 1_555
Ir8_7 Ni1_3 2.547234 1_655
Ir8_7 Mg2_3 2.792037 1_655
Ir8_7 Mg2_7 2.792037 1_555
Ir8_7 Mg0_6 2.919634 1_555
Ir8_7 Mg0_2 2.919634 1_655
Ir9_0 Ni1_3 2.547234 1_555
Ir9_0 Ni1_7 2.547234 1_555
Ir9_0 Mg3_4 2.792037 1_555
Ir9_0 Mg3_0 2.792037 1_555
Ir9_0 Mg1_1 2.919634 1_555
Ir9_0 Mg1_5 2.919634 1_555
Ir9_1 Ni1_2 2.547234 1_556
Ir9_1 Ni1_6 2.547234 1_556
Ir9_1 Mg3_1 2.792037 1_555
Ir9_1 Mg3_5 2.792037 1_555
Ir9_1 Mg1_4 2.919634 1_556
Ir9_1 Mg1_0 2.919634 1_556
Ir9_2 Ni1_5 2.547234 1_565
Ir9_2 Ni1_1 2.547234 1_565
Ir9_2 Mg3_2 2.792037 1_555
Ir9_2 Mg3_6 2.792037 1_555
Ir9_2 Mg1_3 2.919634 1_555
Ir9_2 Mg1_7 2.919634 1_555
Ir9_3 Ni1_0 2.547234 1_566
Ir9_3 Ni1_4 2.547234 1_566
Ir9_3 Mg3_3 2.792037 1_555
Ir9_3 Mg3_7 2.792037 1_555
Ir9_3 Mg1_6 2.919634 1_556
Ir9_3 Mg1_2 2.919634 1_556
Ir9_4 Ni1_7 2.547234 1_555
Ir9_4 Ni1_3 2.547234 1_655
Ir9_4 Mg3_4 2.792037 1_555
Ir9_4 Mg3_0 2.792037 1_655
Ir9_4 Mg1_1 2.919634 1_655
Ir9_4 Mg1_5 2.919634 1_555
Ir9_5 Ni1_2 2.547234 1_656
Ir9_5 Ni1_6 2.547234 1_556
Ir9_5 Mg3_1 2.792037 1_655
Ir9_5 Mg3_5 2.792037 1_555
Ir9_5 Mg1_4 2.919634 1_556
Ir9_5 Mg1_0 2.919634 1_656
Ir9_6 Ni1_5 2.547234 1_565
Ir9_6 Ni1_1 2.547234 1_665
Ir9_6 Mg3_2 2.792037 1_655
Ir9_6 Mg3_6 2.792037 1_555
Ir9_6 Mg1_7 2.919634 1_555
Ir9_6 Mg1_3 2.919634 1_655
Ir9_7 Ni1_0 2.547234 1_666
Ir9_7 Ni1_4 2.547234 1_566
Ir9_7 Mg3_3 2.792037 1_655
Ir9_7 Mg3_7 2.792037 1_555
Ir9_7 Mg1_2 2.919634 1_656
Ir9_7 Mg1_6 2.919634 1_556
