# generated using pymatgen
data_Zn3(Se2O7)2
_symmetry_space_group_name_H-M   'P 1'
_cell_length_a   9.43821400
_cell_length_b   8.27611800
_cell_length_c   8.82441034
_cell_angle_alpha   68.43775434
_cell_angle_beta   90.00000000
_cell_angle_gamma   90.00000000
_symmetry_Int_Tables_number   1
_chemical_formula_structural   Zn3(Se2O7)2
_chemical_formula_sum   'Zn6 Se8 O28'
_cell_volume   641.05300840
_cell_formula_units_Z   2
loop_
 _symmetry_equiv_pos_site_id
 _symmetry_equiv_pos_as_xyz
  1  'x, y, z'
loop_
 _atom_site_type_symbol
 _atom_site_label
 _atom_site_symmetry_multiplicity
 _atom_site_fract_x
 _atom_site_fract_y
 _atom_site_fract_z
 _atom_site_occupancy
  Zn  Zn0  1  0.62559800  0.06202200  0.09924500  1
  Zn  Zn1  1  0.12559800  0.43797800  0.90075500  1
  Zn  Zn2  1  0.37440200  0.93797800  0.90075500  1
  Zn  Zn3  1  0.87440200  0.56202200  0.09924500  1
  Zn  Zn4  1  0.50000000  0.50000000  0.00000000  1
  Zn  Zn5  1  0.00000000  0.00000000  0.00000000  1
  Se  Se0  1  0.67841400  0.25011100  0.38166800  1
  Se  Se1  1  0.17841400  0.24988900  0.61833200  1
  Se  Se2  1  0.32158600  0.74988900  0.61833200  1
  Se  Se3  1  0.82158600  0.75011100  0.38166800  1
  Se  Se4  1  0.80310000  0.34352200  0.83584200  1
  Se  Se5  1  0.30310000  0.15647800  0.16415800  1
  Se  Se6  1  0.19690000  0.65647800  0.16415800  1
  Se  Se7  1  0.69690000  0.84352200  0.83584200  1
  O  O0  1  0.82243300  0.15077800  0.01022800  1
  O  O1  1  0.32243300  0.34922200  0.98977200  1
  O  O2  1  0.17756700  0.84922200  0.98977200  1
  O  O3  1  0.67756700  0.65077800  0.01022800  1
  O  O4  1  0.13321700  0.10284300  0.13173300  1
  O  O5  1  0.63321700  0.39715700  0.86826700  1
  O  O6  1  0.86678300  0.89715700  0.86826700  1
  O  O7  1  0.36678300  0.60284300  0.13173300  1
  O  O8  1  0.57821200  0.26589100  0.21023900  1
  O  O9  1  0.07821200  0.23410900  0.78976100  1
  O  O10  1  0.42178800  0.73410900  0.78976100  1
  O  O11  1  0.92178800  0.76589100  0.21023900  1
  O  O12  1  0.83319300  0.35920200  0.30084700  1
  O  O13  1  0.33319300  0.14079800  0.69915300  1
  O  O14  1  0.16680700  0.64079800  0.69915300  1
  O  O15  1  0.66680700  0.85920200  0.30084700  1
  O  O16  1  0.99069900  0.14328900  0.32460300  1
  O  O17  1  0.49069900  0.35671100  0.67539700  1
  O  O18  1  0.00930100  0.85671100  0.67539700  1
  O  O19  1  0.50930100  0.64328900  0.32460300  1
  O  O20  1  0.61307800  0.40363200  0.45529800  1
  O  O21  1  0.11307800  0.09636800  0.54470200  1
  O  O22  1  0.38692200  0.59636800  0.54470200  1
  O  O23  1  0.88692200  0.90363200  0.45529800  1
  O  O24  1  0.91043500  0.48171200  0.89620000  1
  O  O25  1  0.41043500  0.01828800  0.10380000  1
  O  O26  1  0.08956500  0.51828800  0.10380000  1
  O  O27  1  0.58956500  0.98171200  0.89620000  1
loop_
_geom_bond_atom_site_label_1
_geom_bond_atom_site_label_2
_geom_bond_distance
_geom_bond_site_symmetry_2
O0 Se4 1.772470 1_554
O0 Zn0 2.045437 1_555
O0 Zn5 2.111106 1_655
O1 Se5 1.772470 1_556
O1 Zn1 2.045437 1_555
O1 Zn4 2.111106 1_556
O2 Se6 1.772470 1_556
O2 Zn2 2.045437 1_555
O2 Zn5 2.111106 1_566
O3 Se7 1.772470 1_554
O3 Zn3 2.045437 1_555
O3 Zn4 2.111106 1_555
O4 Se5 1.715556 1_555
O4 Zn5 2.093776 1_555
O5 Se4 1.715556 1_555
O5 Zn4 2.093776 1_556
O6 Se7 1.715556 1_555
O6 Zn5 2.093776 1_666
O7 Se6 1.715556 1_555
O7 Zn4 2.093776 1_555
O8 Se0 1.747766 1_555
O8 Zn4 2.258029 1_555
O8 Zn0 2.284915 1_555
O9 Se1 1.747766 1_555
O9 Zn5 2.258029 1_556
O9 Zn1 2.284915 1_555
O10 Se2 1.747766 1_555
O10 Zn4 2.258029 1_556
O10 Zn2 2.284915 1_555
O11 Se3 1.747766 1_555
O11 Zn5 2.258029 1_665
O11 Zn3 2.284915 1_555
O12 Se0 1.727584 1_555
O12 Zn3 1.984649 1_555
O13 Se1 1.727584 1_555
O13 Zn2 1.984649 1_545
O14 Se2 1.727584 1_555
O14 Zn1 1.984649 1_555
O15 Se3 1.727584 1_555
O15 Zn0 1.984649 1_565
O20 Se0 1.738831 1_555
O21 Se1 1.738831 1_555
O22 Se2 1.738831 1_555
O23 Se3 1.738831 1_555
O24 Se4 1.750913 1_555
O24 Zn1 2.060556 1_655
O24 Zn3 2.154795 1_556
O25 Se5 1.750913 1_555
O25 Zn0 2.060556 1_555
O25 Zn2 2.154795 1_544
O26 Se6 1.750913 1_555
O26 Zn3 2.060556 1_455
O26 Zn1 2.154795 1_554
O27 Se7 1.750913 1_555
O27 Zn2 2.060556 1_555
O27 Zn0 2.154795 1_566
