# generated using pymatgen
data_Li7Mn5O12
_symmetry_space_group_name_H-M   'P 1'
_cell_length_a   6.91523351
_cell_length_b   7.80057915
_cell_length_c   8.75984177
_cell_angle_alpha   84.62308288
_cell_angle_beta   80.03949870
_cell_angle_gamma   72.19486746
_symmetry_Int_Tables_number   1
_chemical_formula_structural   Li7Mn5O12
_chemical_formula_sum   'Li14 Mn10 O24'
_cell_volume   442.69621013
_cell_formula_units_Z   2
loop_
 _symmetry_equiv_pos_site_id
 _symmetry_equiv_pos_as_xyz
  1  'x, y, z'
loop_
 _atom_site_type_symbol
 _atom_site_label
 _atom_site_symmetry_multiplicity
 _atom_site_fract_x
 _atom_site_fract_y
 _atom_site_fract_z
 _atom_site_occupancy
  Li  Li0  1  0.24390500  0.00037500  0.25092300  1
  Li  Li1  1  0.75607000  0.99960400  0.74908300  1
  Li  Li2  1  0.27835400  0.15516400  0.78862800  1
  Li  Li3  1  0.79533900  0.16894400  0.29689100  1
  Li  Li4  1  0.72166800  0.84487100  0.21140900  1
  Li  Li5  1  0.20468300  0.83100600  0.70305900  1
  Li  Li6  1  0.55301300  0.15898700  0.03604000  1
  Li  Li7  1  0.04985300  0.16046000  0.53109100  1
  Li  Li8  1  0.44694700  0.84096700  0.96391000  1
  Li  Li9  1  0.95017000  0.83943800  0.46901000  1
  Li  Li10  1  0.39333400  0.50444700  0.87326200  1
  Li  Li11  1  0.87778700  0.49678100  0.37120100  1
  Li  Li12  1  0.60655000  0.49547600  0.12665500  1
  Li  Li13  1  0.12226100  0.50320100  0.62886200  1
  Mn  Mn0  1  0.49991700  0.00007500  0.50005600  1
  Mn  Mn1  1  0.99998600  0.00005600  0.99998700  1
  Mn  Mn2  1  0.58262200  0.33043600  0.58350800  1
  Mn  Mn3  1  0.08113000  0.32740700  0.08657600  1
  Mn  Mn4  1  0.41751100  0.66955900  0.41644200  1
  Mn  Mn5  1  0.91884600  0.67250400  0.91342200  1
  Mn  Mn6  1  0.82802300  0.33139200  0.83182800  1
  Mn  Mn7  1  0.32563000  0.32617800  0.33198100  1
  Mn  Mn8  1  0.17193600  0.66873900  0.16814000  1
  Mn  Mn9  1  0.67434900  0.67383900  0.66813400  1
  O  O0  1  0.51154200  0.08999900  0.28468300  1
  O  O1  1  0.00895900  0.09468500  0.78606300  1
  O  O2  1  0.48849100  0.91007300  0.71536600  1
  O  O3  1  0.99108900  0.90530000  0.21385200  1
  O  O4  1  0.23400800  0.08560600  0.01874100  1
  O  O5  1  0.73489700  0.08678300  0.52019800  1
  O  O6  1  0.76598600  0.91442100  0.98124000  1
  O  O7  1  0.26521100  0.91324800  0.47980300  1
  O  O8  1  0.59590200  0.42774100  0.36590800  1
  O  O9  1  0.06856100  0.41343900  0.86533100  1
  O  O10  1  0.40411900  0.57223200  0.63407100  1
  O  O11  1  0.93141200  0.58658800  0.13471200  1
  O  O12  1  0.34591600  0.42516700  0.11281400  1
  O  O13  1  0.85112100  0.42483000  0.62050400  1
  O  O14  1  0.65406700  0.57477700  0.88714200  1
  O  O15  1  0.14886800  0.57518800  0.37948300  1
  O  O16  1  0.18793300  0.76192900  0.95267400  1
  O  O17  1  0.68472900  0.76443600  0.44818000  1
  O  O18  1  0.81209300  0.23801800  0.04727100  1
  O  O19  1  0.31523300  0.23570500  0.55186900  1
  O  O20  1  0.40942600  0.73630000  0.19480500  1
  O  O21  1  0.94342200  0.74651900  0.70021200  1
  O  O22  1  0.59055200  0.26366400  0.80515000  1
  O  O23  1  0.05658000  0.25344800  0.29983200  1
loop_
_geom_bond_atom_site_label_1
_geom_bond_atom_site_label_2
_geom_bond_distance
_geom_bond_site_symmetry_2
Li0 O23 2.039936 1_555
Li0 O7 2.070997 1_545
Li0 O20 2.085261 1_545
Li0 O4 2.085730 1_555
Li0 O3 2.178636 1_445
Li0 O0 2.240754 1_555
Li1 O21 2.040003 1_555
Li1 O5 2.070999 1_565
Li1 O22 2.085054 1_565
Li1 O6 2.085454 1_555
Li1 O1 2.178880 1_665
Li1 O2 2.239843 1_555
Li2 O4 2.033383 1_556
Li2 O1 2.060954 1_555
Li2 O2 2.094509 1_545
Li2 O19 2.105214 1_555
Li2 O9 2.178110 1_555
Li2 O22 2.578126 1_555
Li3 O5 2.014433 1_555
Li3 O23 2.108632 1_655
Li3 O8 2.140231 1_555
Li3 O18 2.194273 1_555
Li3 O3 2.197322 1_545
Li3 O0 2.250825 1_555
Li4 O6 2.033818 1_554
Li4 O3 2.060731 1_555
Li4 O0 2.094721 1_565
Li4 O17 2.105129 1_555
Li4 O11 2.178030 1_555
Li4 O20 2.578908 1_555
Li5 O7 2.014294 1_555
Li5 O21 2.108532 1_455
Li5 O10 2.140024 1_555
Li5 O16 2.194236 1_555
Li5 O1 2.197390 1_565
Li5 O2 2.251611 1_555
Li6 O6 2.061012 1_544
Li6 O18 2.085035 1_555
Li6 O22 2.112666 1_554
Li6 O0 2.185057 1_555
Li6 O12 2.219125 1_555
Li6 O4 2.474101 1_555
Li7 O7 2.076781 1_545
Li7 O23 2.084416 1_555
Li7 O19 2.130679 1_555
Li7 O13 2.225326 1_455
Li7 O1 2.233220 1_555
Li7 O5 2.435316 1_455
Li8 O4 2.061388 1_566
Li8 O16 2.084639 1_555
Li8 O20 2.112670 1_556
Li8 O2 2.184428 1_555
Li8 O14 2.219219 1_555
Li8 O6 2.474684 1_555
Li9 O5 2.077149 1_565
Li9 O21 2.083801 1_555
Li9 O17 2.130167 1_555
Li9 O15 2.224872 1_655
Li9 O3 2.234902 1_555
Li9 O7 2.436231 1_655
Li10 O22 2.026265 1_555
Li10 O14 2.063966 1_555
Li10 O10 2.106597 1_555
Li10 O12 2.129832 1_556
Li10 O16 2.170454 1_555
Li10 O9 2.567308 1_555
Li11 O23 2.010525 1_655
Li11 O11 2.130954 1_555
Li11 O15 2.156378 1_655
Li11 O8 2.184015 1_555
Li11 O13 2.193742 1_555
Li11 O17 2.200908 1_555
Li12 O20 2.026373 1_555
Li12 O12 2.063136 1_555
Li12 O8 2.107113 1_555
Li12 O14 2.129603 1_554
Li12 O18 2.170551 1_555
Li12 O11 2.568571 1_555
Li13 O21 2.010472 1_455
Li13 O9 2.130748 1_555
Li13 O13 2.156755 1_455
Li13 O10 2.183651 1_555
Li13 O15 2.194436 1_555
Li13 O19 2.199805 1_555
Mn0 O19 1.932802 1_555
Mn0 O17 1.933263 1_545
Mn0 O2 1.946959 1_545
Mn0 O0 1.947277 1_555
Mn0 O7 1.979624 1_545
Mn0 O5 1.980591 1_555
Mn1 O3 1.946346 1_546
Mn1 O18 1.946370 1_556
Mn1 O1 1.946516 1_655
Mn1 O16 1.947534 1_645
Mn1 O4 1.965773 1_656
Mn1 O6 1.966011 1_545
Mn2 O5 1.949453 1_555
Mn2 O10 1.954744 1_555
Mn2 O22 1.968185 1_555
Mn2 O8 1.982135 1_555
Mn2 O19 2.256806 1_555
Mn2 O13 2.276764 1_555
Mn3 O23 1.897266 1_555
Mn3 O4 1.949795 1_555
Mn3 O9 1.998222 1_554
Mn3 O11 2.016400 1_455
Mn3 O12 2.240427 1_555
Mn3 O18 2.264065 1_455
Mn4 O7 1.949847 1_555
Mn4 O8 1.954598 1_555
Mn4 O20 1.968229 1_555
Mn4 O10 1.982419 1_555
Mn4 O17 2.256621 1_555
Mn4 O15 2.277492 1_555
Mn5 O21 1.896994 1_555
Mn5 O6 1.950478 1_555
Mn5 O11 1.998384 1_556
Mn5 O9 2.015529 1_655
Mn5 O14 2.240329 1_555
Mn5 O16 2.264402 1_655
Mn6 O1 1.920403 1_655
Mn6 O13 1.923439 1_555
Mn6 O22 1.927933 1_555
Mn6 O18 1.955476 1_556
Mn6 O14 1.964786 1_555
Mn6 O9 2.029214 1_655
Mn7 O0 1.931052 1_555
Mn7 O19 1.985392 1_555
Mn7 O15 1.990923 1_555
Mn7 O12 1.999265 1_555
Mn7 O23 2.172451 1_555
Mn7 O8 2.313212 1_555
Mn8 O3 1.919229 1_455
Mn8 O15 1.923861 1_555
Mn8 O20 1.927315 1_555
Mn8 O16 1.955234 1_554
Mn8 O12 1.966026 1_555
Mn8 O11 2.029385 1_455
Mn9 O2 1.931148 1_555
Mn9 O17 1.986199 1_555
Mn9 O13 1.991154 1_555
Mn9 O14 1.998176 1_555
Mn9 O21 2.172207 1_555
Mn9 O10 2.313505 1_555
