# generated using pymatgen
data_CaNb2Ga2(CuO4)3
_symmetry_space_group_name_H-M   'P 1'
_cell_length_a   6.57554242
_cell_length_b   6.54614218
_cell_length_c   6.57554242
_cell_angle_alpha   70.39914195
_cell_angle_beta   70.33246952
_cell_angle_gamma   109.32658666
_symmetry_Int_Tables_number   1
_chemical_formula_structural   CaNb2Ga2(CuO4)3
_chemical_formula_sum   'Ca1 Nb2 Ga2 Cu3 O12'
_cell_volume   217.39415218
_cell_formula_units_Z   1
loop_
 _symmetry_equiv_pos_site_id
 _symmetry_equiv_pos_as_xyz
  1  'x, y, z'
loop_
 _atom_site_type_symbol
 _atom_site_label
 _atom_site_symmetry_multiplicity
 _atom_site_fract_x
 _atom_site_fract_y
 _atom_site_fract_z
 _atom_site_occupancy
  Ca  Ca0  1  0.00000000  0.00000000  0.00000000  1
  Nb  Nb0  1  0.50000000  0.00000000  0.00000000  1
  Nb  Nb1  1  0.00000000  0.00000000  0.50000000  1
  Ga  Ga0  1  0.00000000  0.50000000  0.00000000  1
  Ga  Ga1  1  0.50000000  0.50000000  0.50000000  1
  Cu  Cu0  1  0.50000000  0.00000000  0.50000000  1
  Cu  Cu1  1  0.50000000  0.50000000  0.00000000  1
  Cu  Cu2  1  0.00000000  0.50000000  0.50000000  1
  O  O0  1  0.82685100  0.52229500  0.30455600  1
  O  O1  1  0.17314900  0.47770500  0.69544400  1
  O  O2  1  0.82620100  0.13013700  0.69606400  1
  O  O3  1  0.17379900  0.86986300  0.30393600  1
  O  O4  1  0.69264900  0.17126800  0.13116300  1
  O  O5  1  0.30735100  0.82873200  0.86883700  1
  O  O6  1  0.30243100  0.17126800  0.52138000  1
  O  O7  1  0.69756900  0.82873200  0.47862000  1
  O  O8  1  0.47887100  0.30383800  0.82676800  1
  O  O9  1  0.52112900  0.69616200  0.17323200  1
  O  O10  1  0.86939400  0.69616200  0.82496700  1
  O  O11  1  0.13060600  0.30383800  0.17503300  1
loop_
_geom_bond_atom_site_label_1
_geom_bond_atom_site_label_2
_geom_bond_distance
_geom_bond_site_symmetry_2
Ca0 O0 2.644355 1_445
Ca0 O1 2.644355 1_554
Ca0 O5 2.657159 1_544
Ca0 O4 2.657159 1_455
Ca0 O7 2.657164 1_445
Ca0 O6 2.657164 1_554
Ca0 O3 2.658094 1_545
Ca0 O2 2.658094 1_454
Ca0 O8 2.662477 1_554
Ca0 O11 2.662477 1_555
Ca0 O9 2.662477 1_445
Ca0 O10 2.662477 1_444
Nb0 O8 2.010519 1_554
Nb0 O9 2.010519 1_545
Nb0 O4 2.012373 1_555
Nb0 O5 2.012373 1_544
Nb0 O2 2.020744 1_554
Nb0 O3 2.020744 1_545
Nb1 O11 2.010519 1_555
Nb1 O10 2.010519 1_445
Nb1 O7 2.012369 1_445
Nb1 O6 2.012369 1_555
Nb1 O3 2.020744 1_545
Nb1 O2 2.020744 1_455
Ga0 O0 2.024695 1_455
Ga0 O1 2.024695 1_554
Ga0 O10 2.028503 1_454
Ga0 O11 2.028503 1_555
Ga0 O5 2.040077 1_554
Ga0 O4 2.040077 1_455
Ga1 O0 2.024695 1_555
Ga1 O1 2.024695 1_555
Ga1 O8 2.028503 1_555
Ga1 O9 2.028503 1_555
Ga1 O6 2.040080 1_555
Ga1 O7 2.040080 1_555
Cu0 O7 1.977708 1_545
Cu0 O6 1.977708 1_555
Cu0 O4 1.977709 1_555
Cu0 O5 1.977709 1_545
Cu1 O9 1.983831 1_555
Cu1 O11 1.983831 1_555
Cu1 O10 1.983831 1_554
Cu1 O8 1.983831 1_554
Cu2 O2 1.978065 1_455
Cu2 O3 1.978065 1_555
Cu2 O1 1.984507 1_555
Cu2 O0 1.984507 1_455
