# generated using pymatgen
data_Sr2FeSbO6
_symmetry_space_group_name_H-M   'P 1'
_cell_length_a   8.02295500
_cell_length_b   9.82936986
_cell_length_c   8.02294900
_cell_angle_alpha   114.08654559
_cell_angle_beta   89.99874310
_cell_angle_gamma   65.91344803
_symmetry_Int_Tables_number   1
_chemical_formula_structural   Sr2FeSbO6
_chemical_formula_sum   'Sr8 Fe4 Sb4 O24'
_cell_volume   516.67365948
_cell_formula_units_Z   4
loop_
 _symmetry_equiv_pos_site_id
 _symmetry_equiv_pos_as_xyz
  1  'x, y, z'
loop_
 _atom_site_type_symbol
 _atom_site_label
 _atom_site_symmetry_multiplicity
 _atom_site_fract_x
 _atom_site_fract_y
 _atom_site_fract_z
 _atom_site_occupancy
  Sr  Sr0  1  0.62500300  0.24999900  0.87500100  1
  Sr  Sr1  1  0.37500000  0.74999900  0.62499900  1
  Sr  Sr2  1  0.12499900  0.25000000  0.37500100  1
  Sr  Sr3  1  0.87499900  0.74999900  0.12500000  1
  Sr  Sr4  1  0.37500000  0.75000100  0.12500000  1
  Sr  Sr5  1  0.12499900  0.25000000  0.87500000  1
  Sr  Sr6  1  0.87499900  0.75000000  0.62500100  1
  Sr  Sr7  1  0.62499800  0.25000000  0.37500000  1
  Fe  Fe0  1  0.75000000  0.49999700  0.24999600  1
  Fe  Fe1  1  0.50000000  0.00000800  0.00000200  1
  Fe  Fe2  1  0.00000700  0.00000300  0.49999500  1
  Fe  Fe3  1  0.25000600  0.49999100  0.75000300  1
  Sb  Sb0  1  0.75000100  0.50000000  0.74999900  1
  Sb  Sb1  1  0.50000100  0.00000100  0.50000100  1
  Sb  Sb2  1  0.24999900  0.50000300  0.25000200  1
  Sb  Sb3  1  0.00000100  0.99999800  0.99999800  1
  O  O0  1  0.74877100  0.99988200  0.49993500  1
  O  O1  1  0.49865800  0.50010500  0.25004700  1
  O  O2  1  0.24877000  0.99988300  0.99993600  1
  O  O3  1  0.99865800  0.50010700  0.75004600  1
  O  O4  1  0.25134000  0.99989300  0.49995300  1
  O  O5  1  0.00122800  0.50011700  0.25006400  1
  O  O6  1  0.75134100  0.99989500  0.99995200  1
  O  O7  1  0.50122700  0.50011900  0.75006500  1
  O  O8  1  0.87435200  0.25129000  0.62564800  1
  O  O9  1  0.62435100  0.75129200  0.37565000  1
  O  O10  1  0.37434900  0.25129400  0.12564900  1
  O  O11  1  0.12435400  0.75128800  0.87564700  1
  O  O12  1  0.12564800  0.74870900  0.37435300  1
  O  O13  1  0.87564900  0.24870600  0.12435200  1
  O  O14  1  0.62564900  0.74870600  0.87435100  1
  O  O15  1  0.37564600  0.24871000  0.62435200  1
  O  O16  1  0.99995200  0.00010800  0.75134300  1
  O  O17  1  0.75006500  0.49988300  0.50122900  1
  O  O18  1  0.49995200  0.00010600  0.25134000  1
  O  O19  1  0.25006500  0.49988200  0.00122900  1
  O  O20  1  0.99993400  0.00012000  0.24877200  1
  O  O21  1  0.75004600  0.49989400  0.99865800  1
  O  O22  1  0.49993400  0.00011800  0.74877000  1
  O  O23  1  0.25004800  0.49989200  0.49865900  1
loop_
_geom_bond_atom_site_label_1
_geom_bond_atom_site_label_2
_geom_bond_distance
_geom_bond_site_symmetry_2
Fe0 O21 2.016059 1_554
Fe0 O1 2.016072 1_555
Fe0 O5 2.016073 1_655
Fe0 O17 2.016087 1_555
Fe0 O13 2.017088 1_555
Fe0 O9 2.017120 1_555
Fe1 O6 2.016044 1_544
Fe1 O22 2.016063 1_554
Fe1 O18 2.016079 1_555
Fe1 O2 2.016109 1_544
Fe1 O10 2.017048 1_555
Fe1 O14 2.017176 1_544
Fe2 O4 2.015992 1_545
Fe2 O20 2.016019 1_455
Fe2 O16 2.016131 1_455
Fe2 O0 2.016141 1_445
Fe2 O8 2.017056 1_455
Fe2 O12 2.017112 1_545
Fe3 O19 2.016011 1_556
Fe3 O7 2.016049 1_555
Fe3 O3 2.016089 1_455
Fe3 O23 2.016123 1_555
Fe3 O15 2.017008 1_555
Fe3 O11 2.017136 1_555
O0 Sb1 1.995393 1_565
O0 Sr3 2.836533 1_555
O0 Sr6 2.836653 1_555
O0 Sr7 2.837919 1_565
O0 Sr0 2.837941 1_565
O1 Sb2 1.995389 1_555
O1 Sr1 2.836661 1_555
O1 Sr4 2.836664 1_555
O1 Sr0 2.837796 1_554
O1 Sr7 2.837910 1_555
O2 Sb3 1.995401 1_555
O2 Sr1 2.836547 1_555
O2 Sr4 2.836641 1_556
O2 Sr5 2.837916 1_565
O2 Sr2 2.837936 1_566
O3 Sb0 1.995393 1_555
O3 Sr6 2.836627 1_555
O3 Sr3 2.836667 1_556
O3 Sr2 2.837793 1_655
O3 Sr5 2.837933 1_655
O4 Sb1 1.995429 1_565
O4 Sr1 2.836641 1_555
O4 Sr4 2.836661 1_555
O4 Sr5 2.837804 1_565
O4 Sr2 2.837921 1_565
O5 Sb2 1.995421 1_555
O5 Sr6 2.836544 1_455
O5 Sr3 2.836641 1_455
O5 Sr2 2.837921 1_555
O5 Sr5 2.837930 1_554
O6 Sb3 1.995401 1_655
O6 Sr6 2.836658 1_555
O6 Sr3 2.836670 1_556
O6 Sr7 2.837805 1_566
O6 Sr0 2.837890 1_565
O7 Sb0 1.995425 1_555
O7 Sr4 2.836530 1_556
O7 Sr1 2.836636 1_555
O7 Sr0 2.837941 1_555
O7 Sr7 2.837941 1_555
O8 Sb0 1.996371 1_555
O8 Sr0 2.836490 1_555
O8 Sr2 2.836552 1_655
O8 Sr5 2.836586 1_655
O8 Sr7 2.836603 1_555
O9 Sb1 1.996363 1_565
O9 Sr1 2.836490 1_555
O9 Sr3 2.836558 1_555
O9 Sr6 2.836586 1_555
O9 Sr4 2.836598 1_555
O10 Sb2 1.996363 1_555
O10 Sr2 2.836507 1_555
O10 Sr0 2.836569 1_554
O10 Sr5 2.836586 1_554
O10 Sr7 2.836592 1_555
O11 Sb3 1.996371 1_555
O11 Sr3 2.836513 1_456
O11 Sr1 2.836558 1_555
O11 Sr4 2.836586 1_556
O11 Sr6 2.836598 1_455
O12 Sb2 1.996339 1_555
O12 Sr4 2.836513 1_555
O12 Sr6 2.836563 1_455
O12 Sr1 2.836581 1_555
O12 Sr3 2.836603 1_455
O13 Sb3 1.996355 1_644
O13 Sr5 2.836507 1_654
O13 Sr7 2.836558 1_555
O13 Sr0 2.836575 1_554
O13 Sr2 2.836586 1_655
O14 Sb0 1.996339 1_555
O14 Sr6 2.836496 1_555
O14 Sr4 2.836547 1_556
O14 Sr3 2.836586 1_556
O14 Sr1 2.836598 1_555
O15 Sb1 1.996363 1_555
O15 Sr7 2.836496 1_555
O15 Sr5 2.836558 1_555
O15 Sr2 2.836581 1_555
O15 Sr0 2.836626 1_555
O16 Sb3 1.995388 1_645
O16 Sr5 2.836631 1_655
O16 Sr0 2.836637 1_555
O16 Sr1 2.837817 1_645
O16 Sr6 2.837936 1_545
O17 Sb0 1.995400 1_555
O17 Sr2 2.836529 1_655
O17 Sr7 2.836668 1_555
O17 Sr6 2.837905 1_555
O17 Sr1 2.837934 1_555
O18 Sb1 1.995416 1_555
O18 Sr7 2.836642 1_555
O18 Sr2 2.836668 1_555
O18 Sr3 2.837806 1_545
O18 Sr4 2.837905 1_545
O19 Sb2 1.995408 1_555
O19 Sr0 2.836551 1_554
O19 Sr5 2.836653 1_554
O19 Sr4 2.837928 1_555
O19 Sr3 2.837943 1_455
O20 Sb3 1.995412 1_644
O20 Sr7 2.836531 1_555
O20 Sr2 2.836631 1_655
O20 Sr3 2.837945 1_545
O20 Sr4 2.837948 1_645
O21 Sb0 1.995404 1_555
O21 Sr0 2.836634 1_555
O21 Sr5 2.836668 1_655
O21 Sr4 2.837800 1_556
O21 Sr3 2.837911 1_556
O22 Sb1 1.995392 1_555
O22 Sr5 2.836531 1_555
O22 Sr0 2.836662 1_555
O22 Sr1 2.837922 1_545
O22 Sr6 2.837940 1_545
O23 Sb2 1.995408 1_555
O23 Sr2 2.836642 1_555
O23 Sr7 2.836645 1_555
O23 Sr6 2.837820 1_455
O23 Sr1 2.837922 1_555
