# generated using pymatgen
data_Sr2Zn3(AsO)2
_symmetry_space_group_name_H-M   'P 1'
_cell_length_a   4.13191500
_cell_length_b   4.13191500
_cell_length_c   9.99634707
_cell_angle_alpha   101.92734676
_cell_angle_beta   101.92734676
_cell_angle_gamma   90.00000000
_symmetry_Int_Tables_number   1
_chemical_formula_structural   Sr2Zn3(AsO)2
_chemical_formula_sum   'Sr2 Zn3 As2 O2'
_cell_volume   163.21253777
_cell_formula_units_Z   1
loop_
 _symmetry_equiv_pos_site_id
 _symmetry_equiv_pos_as_xyz
  1  'x, y, z'
loop_
 _atom_site_type_symbol
 _atom_site_label
 _atom_site_symmetry_multiplicity
 _atom_site_fract_x
 _atom_site_fract_y
 _atom_site_fract_z
 _atom_site_occupancy
  Sr  Sr0  1  0.41495000  0.41495000  0.82989900  1
  Sr  Sr1  1  0.58505000  0.58505000  0.17010100  1
  Zn  Zn0  1  0.25000000  0.75000000  0.50000000  1
  Zn  Zn1  1  0.75000000  0.25000000  0.50000000  1
  Zn  Zn2  1  0.00000000  0.00000000  0.00000000  1
  As  As0  1  0.16834400  0.16834400  0.33668900  1
  As  As1  1  0.83165600  0.83165600  0.66331100  1
  O  O0  1  0.00000000  0.50000000  0.00000000  1
  O  O1  1  0.50000000  0.00000000  0.00000000  1
loop_
_geom_bond_atom_site_label_1
_geom_bond_atom_site_label_2
_geom_bond_distance
_geom_bond_site_symmetry_2
As0 Zn0 2.589518 1_545
As0 Zn1 2.589518 1_455
As0 Zn0 2.589521 1_555
As0 Zn1 2.589521 1_555
As0 Sr1 3.327550 1_555
As0 Sr1 3.327551 1_545
As0 Sr1 3.327551 1_455
As0 Sr1 3.327551 1_445
As1 Zn1 2.589518 1_565
As1 Zn0 2.589518 1_655
As1 Zn0 2.589521 1_555
As1 Zn1 2.589521 1_555
As1 Sr0 3.327550 1_555
As1 Sr0 3.327551 1_655
As1 Sr0 3.327551 1_565
As1 Sr0 3.327551 1_665
O0 Zn2 2.065958 1_555
O0 Zn2 2.065958 1_565
O0 Sr0 2.629163 1_454
O0 Sr1 2.629163 1_555
O0 Sr0 2.629166 1_554
O0 Sr1 2.629166 1_455
O1 Zn2 2.065958 1_555
O1 Zn2 2.065958 1_655
O1 Sr0 2.629163 1_544
O1 Sr1 2.629163 1_555
O1 Sr0 2.629166 1_554
O1 Sr1 2.629166 1_545
