# generated using pymatgen
data_LiVO3
_symmetry_space_group_name_H-M   'P 1'
_cell_length_a   7.64851181
_cell_length_b   7.64851181
_cell_length_c   5.79759828
_cell_angle_alpha   68.56626188
_cell_angle_beta   68.56626188
_cell_angle_gamma   83.53101445
_symmetry_Int_Tables_number   1
_chemical_formula_structural   LiVO3
_chemical_formula_sum   'Li4 V4 O12'
_cell_volume   293.78309916
_cell_formula_units_Z   4
loop_
 _symmetry_equiv_pos_site_id
 _symmetry_equiv_pos_as_xyz
  1  'x, y, z'
loop_
 _atom_site_type_symbol
 _atom_site_label
 _atom_site_symmetry_multiplicity
 _atom_site_fract_x
 _atom_site_fract_y
 _atom_site_fract_z
 _atom_site_occupancy
  Li  Li0  1  0.68527600  0.31472400  0.75000000  1
  Li  Li1  1  0.31472400  0.68527600  0.25000000  1
  Li  Li2  1  0.30256400  0.69743600  0.75000000  1
  Li  Li3  1  0.69743600  0.30256400  0.25000000  1
  V  V0  1  0.69399600  0.88253200  0.71306000  1
  V  V1  1  0.30600400  0.11746800  0.28694000  1
  V  V2  1  0.11746800  0.30600400  0.78694000  1
  V  V3  1  0.88253200  0.69399600  0.21306000  1
  O  O0  1  0.88783600  0.35921500  0.87466000  1
  O  O1  1  0.64078500  0.11216400  0.62534000  1
  O  O2  1  0.11216400  0.64078500  0.12534000  1
  O  O3  1  0.50273700  0.25514900  0.12272000  1
  O  O4  1  0.16772300  0.16340800  0.07633400  1
  O  O5  1  0.25514900  0.50273700  0.62272000  1
  O  O6  1  0.35921500  0.88783600  0.37466000  1
  O  O7  1  0.74485100  0.49726300  0.37728000  1
  O  O8  1  0.83659200  0.83227700  0.42366600  1
  O  O9  1  0.49726300  0.74485100  0.87728000  1
  O  O10  1  0.16340800  0.16772300  0.57633400  1
  O  O11  1  0.83227700  0.83659200  0.92366600  1
loop_
_geom_bond_atom_site_label_1
_geom_bond_atom_site_label_2
_geom_bond_distance
_geom_bond_site_symmetry_2
Li0 O7 2.011241 1_555
Li0 O3 2.011241 1_556
Li0 O0 2.038453 1_555
Li0 O1 2.038453 1_555
Li1 O9 2.011241 1_554
Li1 O5 2.011241 1_555
Li1 O6 2.038453 1_555
Li1 O2 2.038453 1_555
Li2 O9 2.003501 1_555
Li2 O5 2.003501 1_555
Li2 O2 2.044704 1_556
Li2 O6 2.044704 1_555
Li3 O7 2.003501 1_555
Li3 O3 2.003501 1_555
Li3 O0 2.044704 1_554
Li3 O1 2.044704 1_555
O0 V2 1.687132 1_655
O1 V0 1.687132 1_545
O2 V3 1.687132 1_455
O3 V1 1.690215 1_555
O4 V2 1.786543 1_554
O4 V1 1.810927 1_555
O5 V2 1.690215 1_555
O6 V1 1.687132 1_565
O7 V3 1.690215 1_555
O8 V0 1.786543 1_555
O8 V3 1.810927 1_555
O9 V0 1.690215 1_555
O10 V1 1.786543 1_555
O10 V2 1.810927 1_555
O11 V3 1.786543 1_556
O11 V0 1.810927 1_555
