# generated using pymatgen
data_Pr3Fe5O12
_symmetry_space_group_name_H-M   'P 1'
_cell_length_a   11.09762018
_cell_length_b   11.09762018
_cell_length_c   11.09762018
_cell_angle_alpha   109.47122063
_cell_angle_beta   109.47122063
_cell_angle_gamma   109.47122063
_symmetry_Int_Tables_number   1
_chemical_formula_structural   Pr3Fe5O12
_chemical_formula_sum   'Pr12 Fe20 O48'
_cell_volume   1052.12582359
_cell_formula_units_Z   4
loop_
 _symmetry_equiv_pos_site_id
 _symmetry_equiv_pos_as_xyz
  1  'x, y, z'
loop_
 _atom_site_type_symbol
 _atom_site_label
 _atom_site_symmetry_multiplicity
 _atom_site_fract_x
 _atom_site_fract_y
 _atom_site_fract_z
 _atom_site_occupancy
  Pr  Pr0  1  0.87500000  0.62500000  0.25000000  1
  Pr  Pr1  1  0.62500000  0.87500000  0.75000000  1
  Pr  Pr2  1  0.62500000  0.25000000  0.87500000  1
  Pr  Pr3  1  0.87500000  0.75000000  0.62500000  1
  Pr  Pr4  1  0.25000000  0.87500000  0.62500000  1
  Pr  Pr5  1  0.75000000  0.62500000  0.87500000  1
  Pr  Pr6  1  0.12500000  0.37500000  0.75000000  1
  Pr  Pr7  1  0.37500000  0.12500000  0.25000000  1
  Pr  Pr8  1  0.37500000  0.75000000  0.12500000  1
  Pr  Pr9  1  0.12500000  0.25000000  0.37500000  1
  Pr  Pr10  1  0.75000000  0.12500000  0.37500000  1
  Pr  Pr11  1  0.25000000  0.37500000  0.12500000  1
  Fe  Fe0  1  0.00000000  0.50000000  0.00000000  1
  Fe  Fe1  1  0.00000000  0.00000000  0.50000000  1
  Fe  Fe2  1  0.50000000  0.00000000  0.00000000  1
  Fe  Fe3  1  0.50000000  0.50000000  0.50000000  1
  Fe  Fe4  1  0.50000000  0.50000000  0.00000000  1
  Fe  Fe5  1  0.50000000  0.00000000  0.50000000  1
  Fe  Fe6  1  0.00000000  0.50000000  0.50000000  1
  Fe  Fe7  1  0.00000000  0.00000000  0.00000000  1
  Fe  Fe8  1  0.87500000  0.12500000  0.75000000  1
  Fe  Fe9  1  0.62500000  0.37500000  0.25000000  1
  Fe  Fe10  1  0.12500000  0.75000000  0.87500000  1
  Fe  Fe11  1  0.37500000  0.25000000  0.62500000  1
  Fe  Fe12  1  0.75000000  0.87500000  0.12500000  1
  Fe  Fe13  1  0.25000000  0.62500000  0.37500000  1
  Fe  Fe14  1  0.12500000  0.87500000  0.25000000  1
  Fe  Fe15  1  0.37500000  0.62500000  0.75000000  1
  Fe  Fe16  1  0.87500000  0.25000000  0.12500000  1
  Fe  Fe17  1  0.62500000  0.75000000  0.37500000  1
  Fe  Fe18  1  0.25000000  0.12500000  0.87500000  1
  Fe  Fe19  1  0.75000000  0.37500000  0.62500000  1
  O  O0  1  0.02511000  0.32153300  0.90497800  1
  O  O1  1  0.91655500  0.12013200  0.59502200  1
  O  O2  1  0.58344500  0.17846700  0.20357700  1
  O  O3  1  0.47489000  0.37986800  0.29642300  1
  O  O4  1  0.32153300  0.90497800  0.02511000  1
  O  O5  1  0.12013200  0.59502200  0.91655500  1
  O  O6  1  0.17846700  0.20357700  0.58344500  1
  O  O7  1  0.37986800  0.29642300  0.47489000  1
  O  O8  1  0.90497800  0.02511000  0.32153300  1
  O  O9  1  0.59502200  0.91655500  0.12013200  1
  O  O10  1  0.20357700  0.58344500  0.17846700  1
  O  O11  1  0.29642300  0.47489000  0.37986800  1
  O  O12  1  0.97489000  0.67846700  0.09502200  1
  O  O13  1  0.08344500  0.87986800  0.40497800  1
  O  O14  1  0.41655500  0.82153300  0.79642300  1
  O  O15  1  0.52511000  0.62013200  0.70357700  1
  O  O16  1  0.67846700  0.09502200  0.97489000  1
  O  O17  1  0.87986800  0.40497800  0.08344500  1
  O  O18  1  0.82153300  0.79642300  0.41655500  1
  O  O19  1  0.62013200  0.70357700  0.52511000  1
  O  O20  1  0.09502200  0.97489000  0.67846700  1
  O  O21  1  0.40497800  0.08344500  0.87986800  1
  O  O22  1  0.79642300  0.41655500  0.82153300  1
  O  O23  1  0.70357700  0.52511000  0.62013200  1
  O  O24  1  0.52511000  0.40497800  0.82153300  1
  O  O25  1  0.41655500  0.09502200  0.62013200  1
  O  O26  1  0.08344500  0.70357700  0.67846700  1
  O  O27  1  0.97489000  0.79642300  0.87986800  1
  O  O28  1  0.82153300  0.52511000  0.40497800  1
  O  O29  1  0.62013200  0.41655500  0.09502200  1
  O  O30  1  0.67846700  0.08344500  0.70357700  1
  O  O31  1  0.87986800  0.97489000  0.79642300  1
  O  O32  1  0.40497800  0.82153300  0.52511000  1
  O  O33  1  0.09502200  0.62013200  0.41655500  1
  O  O34  1  0.70357700  0.67846700  0.08344500  1
  O  O35  1  0.79642300  0.87986800  0.97489000  1
  O  O36  1  0.47489000  0.59502200  0.17846700  1
  O  O37  1  0.58344500  0.90497800  0.37986800  1
  O  O38  1  0.91655500  0.29642300  0.32153300  1
  O  O39  1  0.02511000  0.20357700  0.12013200  1
  O  O40  1  0.17846700  0.47489000  0.59502200  1
  O  O41  1  0.37986800  0.58344500  0.90497800  1
  O  O42  1  0.32153300  0.91655500  0.29642300  1
  O  O43  1  0.12013200  0.02511000  0.20357700  1
  O  O44  1  0.59502200  0.17846700  0.47489000  1
  O  O45  1  0.90497800  0.37986800  0.58344500  1
  O  O46  1  0.29642300  0.32153300  0.91655500  1
  O  O47  1  0.20357700  0.12013200  0.02511000  1
loop_
_geom_bond_atom_site_label_1
_geom_bond_atom_site_label_2
_geom_bond_distance
_geom_bond_site_symmetry_2
Fe0 O0 2.069724 1_554
Fe0 O12 2.069724 1_455
Fe0 O17 2.069724 1_455
Fe0 O5 2.069724 1_554
Fe0 O22 2.069724 1_454
Fe0 O10 2.069724 1_555
Fe1 O6 2.069724 1_555
Fe1 O20 2.069724 1_545
Fe1 O1 2.069724 1_455
Fe1 O8 2.069724 1_455
Fe1 O18 2.069724 1_445
Fe1 O13 2.069724 1_545
Fe2 O2 2.069724 1_555
Fe2 O4 2.069724 1_545
Fe2 O9 2.069724 1_545
Fe2 O21 2.069724 1_554
Fe2 O14 2.069724 1_544
Fe2 O16 2.069724 1_554
Fe3 O3 2.069724 1_555
Fe3 O7 2.069724 1_555
Fe3 O11 2.069724 1_555
Fe3 O23 2.069724 1_555
Fe3 O15 2.069724 1_555
Fe3 O19 2.069724 1_555
Fe4 O29 2.069724 1_555
Fe4 O36 2.069724 1_555
Fe4 O46 2.069724 1_554
Fe4 O24 2.069724 1_554
Fe4 O34 2.069724 1_555
Fe4 O41 2.069724 1_554
Fe5 O25 2.069724 1_555
Fe5 O42 2.069724 1_545
Fe5 O32 2.069724 1_545
Fe5 O44 2.069724 1_555
Fe5 O37 2.069724 1_545
Fe5 O30 2.069724 1_555
Fe6 O38 2.069724 1_455
Fe6 O40 2.069724 1_555
Fe6 O33 2.069724 1_555
Fe6 O28 2.069724 1_455
Fe6 O45 2.069724 1_455
Fe6 O26 2.069724 1_555
Fe7 O43 2.069724 1_555
Fe7 O39 2.069724 1_555
Fe7 O35 2.069724 1_444
Fe7 O47 2.069724 1_555
Fe7 O27 2.069724 1_444
Fe7 O31 2.069724 1_444
Fe8 O31 1.912336 1_545
Fe8 O1 1.912336 1_555
Fe8 O30 1.912336 1_555
Fe8 O0 1.912336 1_655
Fe9 O28 1.912336 1_555
Fe9 O3 1.912336 1_555
Fe9 O2 1.912336 1_555
Fe9 O29 1.912336 1_555
Fe10 O27 1.912336 1_455
Fe10 O5 1.912336 1_555
Fe10 O26 1.912336 1_555
Fe10 O4 1.912336 1_556
Fe11 O24 1.912336 1_555
Fe11 O7 1.912336 1_555
Fe11 O25 1.912336 1_555
Fe11 O6 1.912336 1_555
Fe12 O35 1.912336 1_554
Fe12 O9 1.912336 1_555
Fe12 O34 1.912336 1_555
Fe12 O8 1.912336 1_565
Fe13 O32 1.912336 1_555
Fe13 O33 1.912336 1_555
Fe13 O10 1.912336 1_555
Fe13 O11 1.912336 1_555
Fe14 O43 1.912336 1_565
Fe14 O12 1.912336 1_455
Fe14 O13 1.912336 1_555
Fe14 O42 1.912336 1_555
Fe15 O15 1.912336 1_555
Fe15 O14 1.912336 1_555
Fe15 O41 1.912336 1_555
Fe15 O40 1.912336 1_555
Fe16 O39 1.912336 1_655
Fe16 O16 1.912336 1_554
Fe16 O38 1.912336 1_555
Fe16 O17 1.912336 1_555
Fe17 O18 1.912336 1_555
Fe17 O19 1.912336 1_555
Fe17 O37 1.912336 1_555
Fe17 O36 1.912336 1_555
Fe18 O20 1.912336 1_545
Fe18 O47 1.912336 1_556
Fe18 O46 1.912336 1_555
Fe18 O21 1.912336 1_555
Fe19 O22 1.912336 1_555
Fe19 O45 1.912336 1_555
Fe19 O23 1.912336 1_555
Fe19 O44 1.912336 1_555
O0 Pr6 2.460045 1_555
O0 Pr11 2.554816 1_556
O1 Pr6 2.460045 1_655
O1 Pr10 2.554816 1_555
O2 Pr7 2.460045 1_555
O2 Pr10 2.554816 1_555
O3 Pr7 2.460045 1_555
O3 Pr11 2.554816 1_555
O4 Pr8 2.460045 1_555
O4 Pr7 2.554816 1_565
O5 Pr8 2.460045 1_556
O5 Pr6 2.554816 1_555
O6 Pr9 2.460045 1_555
O6 Pr6 2.554816 1_555
O7 Pr9 2.460045 1_555
O7 Pr7 2.554816 1_555
O8 Pr10 2.460045 1_555
O8 Pr9 2.554816 1_655
O9 Pr10 2.460045 1_565
O9 Pr8 2.554816 1_555
O10 Pr11 2.460045 1_555
O10 Pr8 2.554816 1_555
O11 Pr11 2.460045 1_555
O11 Pr9 2.554816 1_555
O12 Pr0 2.460045 1_555
O12 Pr5 2.554816 1_554
O13 Pr0 2.460045 1_455
O13 Pr4 2.554816 1_555
O14 Pr1 2.460045 1_555
O14 Pr4 2.554816 1_555
O15 Pr1 2.460045 1_555
O15 Pr5 2.554816 1_555
O16 Pr2 2.460045 1_555
O16 Pr1 2.554816 1_545
O17 Pr2 2.460045 1_554
O17 Pr0 2.554816 1_555
O18 Pr3 2.460045 1_555
O18 Pr0 2.554816 1_555
O19 Pr3 2.460045 1_555
O19 Pr1 2.554816 1_555
O20 Pr4 2.460045 1_555
O20 Pr3 2.554816 1_455
O21 Pr4 2.460045 1_545
O21 Pr2 2.554816 1_555
O22 Pr5 2.460045 1_555
O22 Pr2 2.554816 1_555
O23 Pr5 2.460045 1_555
O23 Pr3 2.554816 1_555
O24 Pr2 2.460045 1_555
O24 Pr5 2.554816 1_555
O25 Pr2 2.460045 1_555
O25 Pr4 2.554816 1_545
O26 Pr3 2.460045 1_455
O26 Pr4 2.554816 1_555
O27 Pr3 2.460045 1_555
O27 Pr5 2.554816 1_555
O28 Pr0 2.460045 1_555
O28 Pr3 2.554816 1_555
O29 Pr0 2.460045 1_555
O29 Pr2 2.554816 1_554
O30 Pr1 2.460045 1_545
O30 Pr2 2.554816 1_555
O31 Pr1 2.460045 1_555
O31 Pr3 2.554816 1_555
O32 Pr4 2.460045 1_555
O32 Pr1 2.554816 1_555
O33 Pr4 2.460045 1_555
O33 Pr0 2.554816 1_455
O34 Pr5 2.460045 1_554
O34 Pr0 2.554816 1_555
O35 Pr5 2.460045 1_555
O35 Pr1 2.554816 1_555
O36 Pr8 2.460045 1_555
O36 Pr11 2.554816 1_555
O37 Pr8 2.460045 1_555
O37 Pr10 2.554816 1_565
O38 Pr9 2.460045 1_655
O38 Pr10 2.554816 1_555
O39 Pr9 2.460045 1_555
O39 Pr11 2.554816 1_555
O40 Pr6 2.460045 1_555
O40 Pr9 2.554816 1_555
O41 Pr6 2.460045 1_555
O41 Pr8 2.554816 1_556
O42 Pr7 2.460045 1_565
O42 Pr8 2.554816 1_555
O43 Pr7 2.460045 1_555
O43 Pr9 2.554816 1_555
O44 Pr10 2.460045 1_555
O44 Pr7 2.554816 1_555
O45 Pr10 2.460045 1_555
O45 Pr6 2.554816 1_655
O46 Pr11 2.460045 1_556
O46 Pr6 2.554816 1_555
O47 Pr11 2.460045 1_555
O47 Pr7 2.554816 1_555
