# generated using pymatgen
data_TaRhO4
_symmetry_space_group_name_H-M   'P 1'
_cell_length_a   4.69745397
_cell_length_b   4.69745397
_cell_length_c   3.14404700
_cell_angle_alpha   90.00000000
_cell_angle_beta   90.00000000
_cell_angle_gamma   90.61960304
_symmetry_Int_Tables_number   1
_chemical_formula_structural   TaRhO4
_chemical_formula_sum   'Ta1 Rh1 O4'
_cell_volume   69.37271650
_cell_formula_units_Z   1
loop_
 _symmetry_equiv_pos_site_id
 _symmetry_equiv_pos_as_xyz
  1  'x, y, z'
loop_
 _atom_site_type_symbol
 _atom_site_label
 _atom_site_symmetry_multiplicity
 _atom_site_fract_x
 _atom_site_fract_y
 _atom_site_fract_z
 _atom_site_occupancy
  Ta  Ta0  1  0.00000000  0.00000000  0.00000000  1
  Rh  Rh0  1  0.50000000  0.50000000  0.50000000  1
  O  O0  1  0.19105500  0.80894500  0.50000000  1
  O  O1  1  0.80894500  0.19105500  0.50000000  1
  O  O2  1  0.30092200  0.30092200  0.00000000  1
  O  O3  1  0.69907800  0.69907800  0.00000000  1
loop_
_geom_bond_atom_site_label_1
_geom_bond_atom_site_label_2
_geom_bond_distance
_geom_bond_site_symmetry_2
O0 Ta0 2.024745 1_565
O0 Ta0 2.024745 1_566
O0 Rh0 2.063452 1_555
O1 Ta0 2.024745 1_656
O1 Ta0 2.024745 1_655
O1 Rh0 2.063452 1_555
O2 Ta0 1.988248 1_555
O2 Rh0 2.049730 1_555
O2 Rh0 2.049730 1_554
O3 Ta0 1.988248 1_665
O3 Rh0 2.049730 1_555
O3 Rh0 2.049730 1_554
