# generated using pymatgen
data_Sm3Ge13Rh4
_symmetry_space_group_name_H-M   'P 1'
_cell_length_a   9.08524000
_cell_length_b   9.08524000
_cell_length_c   9.08524000
_cell_angle_alpha   90.00000000
_cell_angle_beta   90.00000000
_cell_angle_gamma   90.00000000
_symmetry_Int_Tables_number   1
_chemical_formula_structural   Sm3Ge13Rh4
_chemical_formula_sum   'Sm6 Ge26 Rh8'
_cell_volume   749.91011750
_cell_formula_units_Z   2
loop_
 _symmetry_equiv_pos_site_id
 _symmetry_equiv_pos_as_xyz
  1  'x, y, z'
loop_
 _atom_site_type_symbol
 _atom_site_label
 _atom_site_symmetry_multiplicity
 _atom_site_fract_x
 _atom_site_fract_y
 _atom_site_fract_z
 _atom_site_occupancy
  Sm  Sm0  1  0.00000000  0.50000000  0.75000000  1
  Sm  Sm1  1  0.50000000  0.25000000  0.00000000  1
  Sm  Sm2  1  0.75000000  0.00000000  0.50000000  1
  Sm  Sm3  1  0.00000000  0.50000000  0.25000000  1
  Sm  Sm4  1  0.50000000  0.75000000  0.00000000  1
  Sm  Sm5  1  0.25000000  0.00000000  0.50000000  1
  Ge  Ge0  1  0.50000000  0.50000000  0.50000000  1
  Ge  Ge1  1  0.00000000  0.00000000  0.00000000  1
  Ge  Ge2  1  0.80892400  0.35067700  0.50000000  1
  Ge  Ge3  1  0.64932300  0.50000000  0.80892400  1
  Ge  Ge4  1  0.50000000  0.19107600  0.64932300  1
  Ge  Ge5  1  0.19107600  0.64932300  0.50000000  1
  Ge  Ge6  1  0.35067700  0.50000000  0.19107600  1
  Ge  Ge7  1  0.50000000  0.80892400  0.35067700  1
  Ge  Ge8  1  0.80892400  0.64932300  0.50000000  1
  Ge  Ge9  1  0.64932300  0.50000000  0.19107600  1
  Ge  Ge10  1  0.19107600  0.35067700  0.50000000  1
  Ge  Ge11  1  0.35067700  0.50000000  0.80892400  1
  Ge  Ge12  1  0.50000000  0.80892400  0.64932300  1
  Ge  Ge13  1  0.50000000  0.19107600  0.35067700  1
  Ge  Ge14  1  0.30892400  0.00000000  0.85067700  1
  Ge  Ge15  1  0.14932300  0.30892400  0.00000000  1
  Ge  Ge16  1  0.00000000  0.14932300  0.69107600  1
  Ge  Ge17  1  0.69107600  0.00000000  0.14932300  1
  Ge  Ge18  1  0.85067700  0.69107600  0.00000000  1
  Ge  Ge19  1  0.00000000  0.85067700  0.30892400  1
  Ge  Ge20  1  0.30892400  0.00000000  0.14932300  1
  Ge  Ge21  1  0.14932300  0.69107600  0.00000000  1
  Ge  Ge22  1  0.69107600  0.00000000  0.85067700  1
  Ge  Ge23  1  0.85067700  0.30892400  0.00000000  1
  Ge  Ge24  1  0.00000000  0.14932300  0.30892400  1
  Ge  Ge25  1  0.00000000  0.85067700  0.69107600  1
  Rh  Rh0  1  0.75000000  0.25000000  0.75000000  1
  Rh  Rh1  1  0.25000000  0.75000000  0.25000000  1
  Rh  Rh2  1  0.75000000  0.75000000  0.25000000  1
  Rh  Rh3  1  0.25000000  0.25000000  0.75000000  1
  Rh  Rh4  1  0.25000000  0.75000000  0.75000000  1
  Rh  Rh5  1  0.75000000  0.25000000  0.25000000  1
  Rh  Rh6  1  0.25000000  0.25000000  0.25000000  1
  Rh  Rh7  1  0.75000000  0.75000000  0.75000000  1
loop_
_geom_bond_atom_site_label_1
_geom_bond_atom_site_label_2
_geom_bond_distance
_geom_bond_site_symmetry_2
Ge0 Ge5 3.117328 1_555
Ge0 Ge8 3.117328 1_555
Ge0 Ge4 3.117328 1_555
Ge0 Ge12 3.117328 1_555
Ge0 Ge3 3.117328 1_555
Ge0 Ge9 3.117328 1_555
Ge0 Ge11 3.117328 1_555
Ge0 Ge6 3.117328 1_555
Ge0 Ge13 3.117328 1_555
Ge0 Ge10 3.117328 1_555
Ge0 Ge7 3.117328 1_555
Ge0 Ge2 3.117328 1_555
Ge1 Ge24 3.117328 1_555
Ge1 Ge15 3.117328 1_555
Ge1 Ge16 3.117328 1_554
Ge1 Ge21 3.117328 1_545
Ge1 Ge17 3.117328 1_455
Ge1 Ge20 3.117328 1_555
Ge1 Ge23 3.117328 1_455
Ge1 Ge19 3.117328 1_545
Ge1 Ge14 3.117328 1_554
Ge1 Ge18 3.117328 1_445
Ge1 Ge22 3.117328 1_454
Ge1 Ge25 3.117328 1_544
Ge2 Rh5 2.506405 1_555
Ge2 Rh0 2.506405 1_555
Ge2 Ge8 2.713271 1_555
Ge2 Sm3 3.164317 1_655
Ge2 Sm0 3.164317 1_655
Ge2 Sm2 3.230648 1_555
Ge3 Rh7 2.506405 1_555
Ge3 Rh0 2.506405 1_555
Ge3 Sm4 3.164317 1_556
Ge3 Sm1 3.164317 1_556
Ge3 Sm0 3.230648 1_655
Ge4 Rh3 2.506405 1_555
Ge4 Rh0 2.506405 1_555
Ge4 Sm2 3.164317 1_555
Ge4 Sm5 3.164317 1_555
Ge4 Sm1 3.230648 1_556
Ge5 Rh1 2.506405 1_555
Ge5 Rh4 2.506405 1_555
Ge5 Sm0 3.164317 1_555
Ge5 Sm3 3.164317 1_555
Ge5 Sm5 3.230648 1_565
Ge6 Rh6 2.506405 1_555
Ge6 Rh1 2.506405 1_555
Ge6 Ge9 2.713271 1_555
Ge6 Sm1 3.164317 1_555
Ge6 Sm4 3.164317 1_555
Ge6 Sm3 3.230648 1_555
Ge7 Rh2 2.506405 1_555
Ge7 Rh1 2.506405 1_555
Ge7 Sm5 3.164317 1_565
Ge7 Sm2 3.164317 1_565
Ge7 Sm4 3.230648 1_555
Ge8 Rh2 2.506405 1_555
Ge8 Rh7 2.506405 1_555
Ge8 Sm3 3.164317 1_655
Ge8 Sm0 3.164317 1_655
Ge8 Sm2 3.230648 1_565
Ge9 Rh5 2.506405 1_555
Ge9 Rh2 2.506405 1_555
Ge9 Sm4 3.164317 1_555
Ge9 Sm1 3.164317 1_555
Ge9 Sm3 3.230648 1_655
Ge10 Rh6 2.506405 1_555
Ge10 Rh3 2.506405 1_555
Ge10 Ge5 2.713271 1_555
Ge10 Sm3 3.164317 1_555
Ge10 Sm0 3.164317 1_555
Ge10 Sm5 3.230648 1_555
Ge11 Rh4 2.506405 1_555
Ge11 Rh3 2.506405 1_555
Ge11 Ge3 2.713271 1_555
Ge11 Sm4 3.164317 1_556
Ge11 Sm1 3.164317 1_556
Ge11 Sm0 3.230648 1_555
Ge12 Rh4 2.506405 1_555
Ge12 Rh7 2.506405 1_555
Ge12 Ge7 2.713271 1_555
Ge12 Sm5 3.164317 1_565
Ge12 Sm2 3.164317 1_565
Ge12 Sm4 3.230648 1_556
Ge13 Rh5 2.506405 1_555
Ge13 Rh6 2.506405 1_555
Ge13 Ge4 2.713271 1_555
Ge13 Sm5 3.164317 1_555
Ge13 Sm2 3.164317 1_555
Ge13 Sm1 3.230648 1_555
Ge14 Rh3 2.506405 1_555
Ge14 Rh4 2.506405 1_545
Ge14 Ge20 2.713271 1_556
Ge14 Sm1 3.164317 1_556
Ge14 Sm4 3.164317 1_546
Ge14 Sm5 3.230648 1_555
Ge15 Rh6 2.506405 1_555
Ge15 Rh3 2.506405 1_554
Ge15 Ge23 2.713271 1_455
Ge15 Sm3 3.164317 1_555
Ge15 Sm0 3.164317 1_554
Ge15 Sm1 3.230648 1_555
Ge16 Rh3 2.506405 1_555
Ge16 Rh0 2.506405 1_455
Ge16 Ge25 2.713271 1_545
Ge16 Sm2 3.164317 1_455
Ge16 Sm5 3.164317 1_555
Ge16 Sm0 3.230648 1_555
Ge17 Rh5 2.506405 1_555
Ge17 Rh2 2.506405 1_545
Ge17 Ge22 2.713271 1_554
Ge17 Sm1 3.164317 1_555
Ge17 Sm4 3.164317 1_545
Ge17 Sm2 3.230648 1_555
Ge18 Rh7 2.506405 1_554
Ge18 Rh2 2.506405 1_555
Ge18 Ge21 2.713271 1_655
Ge18 Sm0 3.164317 1_654
Ge18 Sm3 3.164317 1_655
Ge18 Sm4 3.230648 1_555
Ge19 Rh1 2.506405 1_555
Ge19 Rh2 2.506405 1_455
Ge19 Ge24 2.713271 1_565
Ge19 Sm2 3.164317 1_465
Ge19 Sm5 3.164317 1_565
Ge19 Sm3 3.230648 1_555
Ge20 Rh1 2.506405 1_545
Ge20 Rh6 2.506405 1_555
Ge20 Sm4 3.164317 1_545
Ge20 Sm1 3.164317 1_555
Ge20 Sm5 3.230648 1_555
Ge21 Rh1 2.506405 1_555
Ge21 Rh4 2.506405 1_554
Ge21 Sm3 3.164317 1_555
Ge21 Sm0 3.164317 1_554
Ge21 Sm4 3.230648 1_555
Ge22 Rh7 2.506405 1_545
Ge22 Rh0 2.506405 1_555
Ge22 Sm1 3.164317 1_556
Ge22 Sm4 3.164317 1_546
Ge22 Sm2 3.230648 1_555
Ge23 Rh5 2.506405 1_555
Ge23 Rh0 2.506405 1_554
Ge23 Sm0 3.164317 1_654
Ge23 Sm3 3.164317 1_655
Ge23 Sm1 3.230648 1_555
Ge24 Rh5 2.506405 1_455
Ge24 Rh6 2.506405 1_555
Ge24 Sm2 3.164317 1_455
Ge24 Sm5 3.164317 1_555
Ge24 Sm3 3.230648 1_555
Ge25 Rh4 2.506405 1_555
Ge25 Rh7 2.506405 1_455
Ge25 Sm2 3.164317 1_465
Ge25 Sm5 3.164317 1_565
Ge25 Sm0 3.230648 1_555
Rh0 Sm1 3.212117 1_556
Rh0 Sm0 3.212117 1_655
Rh0 Sm2 3.212117 1_555
Rh1 Sm3 3.212117 1_555
Rh1 Sm4 3.212117 1_555
Rh1 Sm5 3.212117 1_565
Rh2 Sm3 3.212117 1_655
Rh2 Sm4 3.212117 1_555
Rh2 Sm2 3.212117 1_565
Rh3 Sm1 3.212117 1_556
Rh3 Sm5 3.212117 1_555
Rh3 Sm0 3.212117 1_555
Rh4 Sm4 3.212117 1_556
Rh4 Sm5 3.212117 1_565
Rh4 Sm0 3.212117 1_555
Rh5 Sm3 3.212117 1_655
Rh5 Sm2 3.212117 1_555
Rh5 Sm1 3.212117 1_555
Rh6 Sm3 3.212117 1_555
Rh6 Sm5 3.212117 1_555
Rh6 Sm1 3.212117 1_555
Rh7 Sm4 3.212117 1_556
Rh7 Sm0 3.212117 1_655
Rh7 Sm2 3.212117 1_565
