# generated using pymatgen
data_La2VFeO6
_symmetry_space_group_name_H-M   'P 1'
_cell_length_a   5.67931770
_cell_length_b   7.91052372
_cell_length_c   5.61022326
_cell_angle_alpha   89.69830718
_cell_angle_beta   89.54266822
_cell_angle_gamma   90.05762925
_symmetry_Int_Tables_number   1
_chemical_formula_structural   La2VFeO6
_chemical_formula_sum   'La4 V2 Fe2 O12'
_cell_volume   252.03534598
_cell_formula_units_Z   2
loop_
 _symmetry_equiv_pos_site_id
 _symmetry_equiv_pos_as_xyz
  1  'x, y, z'
loop_
 _atom_site_type_symbol
 _atom_site_label
 _atom_site_symmetry_multiplicity
 _atom_site_fract_x
 _atom_site_fract_y
 _atom_site_fract_z
 _atom_site_occupancy
  La  La0  1  0.54294600  0.25121800  0.50972600  1
  La  La1  1  0.04146200  0.24844800  0.98862100  1
  La  La2  1  0.45704700  0.74878100  0.49025900  1
  La  La3  1  0.95854100  0.75156100  0.01136500  1
  V  V0  1  0.49998800  0.50001200  0.99999800  1
  V  V1  1  0.00000300  0.99999900  0.50000200  1
  Fe  Fe0  1  0.99995800  0.49998800  0.50006100  1
  Fe  Fe1  1  0.50001300  0.00001500  0.00001600  1
  O  O0  1  0.97762700  0.24711600  0.41174400  1
  O  O1  1  0.47708300  0.25187200  0.08821700  1
  O  O2  1  0.02238300  0.75287700  0.58824500  1
  O  O3  1  0.52292500  0.74813000  0.91177200  1
  O  O4  1  0.78494500  0.04715700  0.79359700  1
  O  O5  1  0.30004300  0.45090100  0.72067500  1
  O  O6  1  0.21506500  0.95283900  0.20639500  1
  O  O7  1  0.69996400  0.54910000  0.27931200  1
  O  O8  1  0.22868500  0.54512600  0.19104200  1
  O  O9  1  0.71368200  0.95432700  0.28977300  1
  O  O10  1  0.77131200  0.45486300  0.80896300  1
  O  O11  1  0.28632700  0.04566900  0.71021600  1
loop_
_geom_bond_atom_site_label_1
_geom_bond_atom_site_label_2
_geom_bond_distance
_geom_bond_site_symmetry_2
La0 O1 2.397088 1_555
La0 O5 2.407659 1_555
La0 O11 2.446000 1_555
La0 O0 2.525143 1_555
La0 O4 2.653926 1_555
La0 O10 2.674808 1_555
La0 O7 2.822084 1_555
La0 O9 2.827493 1_545
La1 O0 2.398444 1_456
La1 O4 2.427778 1_455
La1 O10 2.459366 1_455
La1 O1 2.540838 1_556
La1 O5 2.629811 1_555
La1 O11 2.634924 1_555
La1 O6 2.815455 1_546
La1 O8 2.823192 1_556
La2 O3 2.397124 1_555
La2 O7 2.407689 1_555
La2 O9 2.446028 1_555
La2 O2 2.525053 1_555
La2 O6 2.653838 1_555
La2 O8 2.674773 1_555
La2 O5 2.822051 1_555
La2 O11 2.827452 1_565
La3 O2 2.398433 1_654
La3 O6 2.427749 1_655
La3 O8 2.459493 1_655
La3 O3 2.540807 1_554
La3 O7 2.629840 1_555
La3 O9 2.634853 1_555
La3 O4 2.815341 1_564
La3 O10 2.823293 1_554
Fe0 O2 2.067325 1_655
Fe0 O0 2.067345 1_555
Fe0 O5 2.148761 1_655
Fe0 O7 2.148824 1_555
Fe0 O10 2.184860 1_555
Fe0 O8 2.185663 1_655
Fe1 O6 2.015712 1_545
Fe1 O4 2.015718 1_554
Fe1 O1 2.059376 1_555
Fe1 O3 2.059644 1_544
Fe1 O9 2.066871 1_545
Fe1 O11 2.067073 1_554
O0 V1 2.018408 1_645
O1 V0 2.025623 1_554
O2 V1 2.018428 1_555
O3 V0 2.025475 1_555
O4 V1 2.078283 1_645
O5 V0 1.982429 1_555
O6 V1 2.078352 1_555
O7 V0 1.982455 1_554
O8 V0 1.904993 1_554
O9 V1 2.049326 1_655
O10 V0 1.905114 1_555
O11 V1 2.049288 1_545
