# generated using pymatgen
data_UReB4
_symmetry_space_group_name_H-M   'P 1'
_cell_length_a   3.60013100
_cell_length_b   5.92739500
_cell_length_c   11.50762900
_cell_angle_alpha   90.00000000
_cell_angle_beta   90.00000000
_cell_angle_gamma   90.00000000
_symmetry_Int_Tables_number   1
_chemical_formula_structural   UReB4
_chemical_formula_sum   'U4 Re4 B16'
_cell_volume   245.56588089
_cell_formula_units_Z   4
loop_
 _symmetry_equiv_pos_site_id
 _symmetry_equiv_pos_as_xyz
  1  'x, y, z'
loop_
 _atom_site_type_symbol
 _atom_site_label
 _atom_site_symmetry_multiplicity
 _atom_site_fract_x
 _atom_site_fract_y
 _atom_site_fract_z
 _atom_site_occupancy
  U  U0  1  0.00000000  0.12900700  0.14991000  1
  U  U1  1  0.00000000  0.87099300  0.85009000  1
  U  U2  1  0.00000000  0.62900700  0.35009000  1
  U  U3  1  0.00000000  0.37099300  0.64991000  1
  Re  Re0  1  0.00000000  0.14058900  0.40617100  1
  Re  Re1  1  0.00000000  0.85941100  0.59382900  1
  Re  Re2  1  0.00000000  0.64058900  0.09382900  1
  Re  Re3  1  0.00000000  0.35941100  0.90617100  1
  B  B0  1  0.50000000  0.47393100  0.19285000  1
  B  B1  1  0.50000000  0.52606900  0.80715000  1
  B  B2  1  0.50000000  0.97393100  0.30715000  1
  B  B3  1  0.50000000  0.02606900  0.69285000  1
  B  B4  1  0.50000000  0.29080200  0.31089700  1
  B  B5  1  0.50000000  0.70919800  0.68910300  1
  B  B6  1  0.50000000  0.79080200  0.18910300  1
  B  B7  1  0.50000000  0.20919800  0.81089700  1
  B  B8  1  0.50000000  0.36787200  0.46781700  1
  B  B9  1  0.50000000  0.63212800  0.53218300  1
  B  B10  1  0.50000000  0.86787200  0.03218300  1
  B  B11  1  0.50000000  0.13212800  0.96781700  1
  B  B12  1  0.50000000  0.38483500  0.04691800  1
  B  B13  1  0.50000000  0.61516500  0.95308200  1
  B  B14  1  0.50000000  0.88483500  0.45308200  1
  B  B15  1  0.50000000  0.11516500  0.54691800  1
loop_
_geom_bond_atom_site_label_1
_geom_bond_atom_site_label_2
_geom_bond_distance
_geom_bond_site_symmetry_2
Re0 Re1 2.727850 1_545
Re0 U0 2.949755 1_555
Re0 U2 2.966106 1_555
Re0 U2 3.100262 1_545
Re0 U3 3.119672 1_555
Re1 U1 2.949755 1_555
Re1 U3 2.966106 1_555
Re1 U3 3.100262 1_565
Re1 U2 3.119672 1_555
Re2 Re3 2.727850 1_554
Re2 U2 2.949755 1_555
Re2 U0 2.966106 1_565
Re2 U0 3.100262 1_555
Re2 U1 3.119672 1_554
Re3 U3 2.949755 1_555
Re3 U1 2.966106 1_545
Re3 U1 3.100262 1_555
Re3 U0 3.119672 1_556
B0 B4 1.738857 1_555
B0 B12 1.760412 1_555
B0 B6 1.878714 1_555
B0 Re2 2.348304 1_655
B0 Re2 2.348304 1_555
B0 U2 2.712803 1_555
B0 U2 2.712803 1_655
B0 U0 2.768464 1_655
B0 U0 2.768464 1_555
B1 B5 1.738857 1_555
B1 B13 1.760412 1_555
B1 B7 1.878714 1_555
B1 Re3 2.348304 1_555
B1 Re3 2.348304 1_655
B1 U3 2.712803 1_555
B1 U3 2.712803 1_655
B1 U1 2.768464 1_555
B1 U1 2.768464 1_655
B2 B6 1.738857 1_555
B2 B4 1.878714 1_565
B2 Re0 2.348304 1_565
B2 Re0 2.348304 1_665
B2 U0 2.712803 1_565
B2 U0 2.712803 1_665
B2 U2 2.768464 1_555
B2 U2 2.768464 1_655
B3 B7 1.738857 1_555
B3 B5 1.878714 1_545
B3 Re1 2.348304 1_545
B3 Re1 2.348304 1_645
B3 U1 2.712803 1_645
B3 U1 2.712803 1_545
B3 U3 2.768464 1_555
B3 U3 2.768464 1_655
B4 B8 1.862665 1_555
B4 Re0 2.288021 1_555
B4 Re0 2.288021 1_655
B4 U2 2.731735 1_555
B4 U2 2.731735 1_655
B4 U0 2.755360 1_555
B4 U0 2.755360 1_655
B5 B9 1.862665 1_555
B5 Re1 2.288021 1_555
B5 Re1 2.288021 1_655
B5 U3 2.731735 1_555
B5 U3 2.731735 1_655
B5 U1 2.755360 1_555
B5 U1 2.755360 1_655
B6 Re2 2.288021 1_655
B6 Re2 2.288021 1_555
B6 U0 2.731735 1_565
B6 U0 2.731735 1_665
B6 U2 2.755360 1_555
B6 U2 2.755360 1_655
B7 Re3 2.288021 1_555
B7 Re3 2.288021 1_655
B7 U1 2.731735 1_645
B7 U1 2.731735 1_545
B7 U3 2.755360 1_555
B7 U3 2.755360 1_655
B8 B9 1.732653 1_555
B8 Re0 2.357630 1_555
B8 Re0 2.357630 1_655
B8 U2 2.733395 1_555
B8 U2 2.733395 1_655
B8 U3 2.762522 1_655
B8 U3 2.762522 1_555
B9 Re1 2.357630 1_655
B9 Re1 2.357630 1_555
B9 U3 2.733395 1_555
B9 U3 2.733395 1_655
B9 U2 2.762522 1_555
B9 U2 2.762522 1_655
B10 B11 1.732653 1_564
B10 B13 1.752789 1_554
B10 B6 1.862665 1_555
B10 Re2 2.357630 1_655
B10 Re2 2.357630 1_555
B10 U0 2.733395 1_665
B10 U0 2.733395 1_565
B10 U1 2.762522 1_654
B10 U1 2.762522 1_554
B11 B12 1.752789 1_556
B11 B7 1.862665 1_555
B11 Re3 2.357630 1_555
B11 Re3 2.357630 1_655
B11 U1 2.733395 1_545
B11 U1 2.733395 1_645
B11 U0 2.762522 1_556
B11 U0 2.762522 1_656
B12 B13 1.740678 1_554
B12 Re2 2.414493 1_655
B12 Re2 2.414493 1_555
B12 Re3 2.426161 1_654
B12 Re3 2.426161 1_554
B12 U0 2.635217 1_655
B12 U0 2.635217 1_555
B13 Re3 2.414493 1_555
B13 Re3 2.414493 1_655
B13 Re2 2.426161 1_556
B13 Re2 2.426161 1_656
B13 U1 2.635217 1_555
B13 U1 2.635217 1_655
B14 B15 1.740678 1_565
B14 B9 1.752789 1_555
B14 B2 1.760412 1_555
B14 Re0 2.414493 1_565
B14 Re0 2.414493 1_665
B14 Re1 2.426161 1_655
B14 Re1 2.426161 1_555
B14 U2 2.635217 1_655
B14 U2 2.635217 1_555
B15 B8 1.752789 1_555
B15 B3 1.760412 1_555
B15 Re1 2.414493 1_545
B15 Re1 2.414493 1_645
B15 Re0 2.426161 1_555
B15 Re0 2.426161 1_655
B15 U3 2.635217 1_655
B15 U3 2.635217 1_555
