# generated using pymatgen
data_BP4(HO2)3
_symmetry_space_group_name_H-M   'P 1'
_cell_length_a   9.07857384
_cell_length_b   16.34383760
_cell_length_c   24.55193988
_cell_angle_alpha   90.00000000
_cell_angle_beta   90.00000000
_cell_angle_gamma   90.00000000
_symmetry_Int_Tables_number   1
_chemical_formula_structural   BP4(HO2)3
_chemical_formula_sum   'B16 P64 H48 O96'
_cell_volume   3642.98581754
_cell_formula_units_Z   16
loop_
 _symmetry_equiv_pos_site_id
 _symmetry_equiv_pos_as_xyz
  1  'x, y, z'
loop_
 _atom_site_type_symbol
 _atom_site_label
 _atom_site_symmetry_multiplicity
 _atom_site_fract_x
 _atom_site_fract_y
 _atom_site_fract_z
 _atom_site_occupancy
  B  B0  1  0.27372738  0.22495905  0.29667627  1
  B  B1  1  0.77372738  0.27504095  0.70332373  1
  B  B2  1  0.72627262  0.72495905  0.20332373  1
  B  B3  1  0.22627262  0.77504095  0.79667627  1
  B  B4  1  0.72627262  0.77504095  0.70332373  1
  B  B5  1  0.22627262  0.72495905  0.29667627  1
  B  B6  1  0.27372738  0.27504095  0.79667627  1
  B  B7  1  0.77372738  0.22495905  0.20332373  1
  B  B8  1  0.71139945  0.92466217  0.46947077  1
  B  B9  1  0.21139945  0.57533783  0.53052923  1
  B  B10  1  0.28860055  0.42466217  0.03052923  1
  B  B11  1  0.78860055  0.07533783  0.96947077  1
  B  B12  1  0.28860055  0.07533783  0.53052923  1
  B  B13  1  0.78860055  0.42466217  0.46947077  1
  B  B14  1  0.71139945  0.57533783  0.96947077  1
  B  B15  1  0.21139945  0.92466217  0.03052923  1
  P  P0  1  0.80025984  0.01136876  0.43234663  1
  P  P1  1  0.30025984  0.48863124  0.56765337  1
  P  P2  1  0.19974016  0.51136876  0.06765337  1
  P  P3  1  0.69974016  0.98863124  0.93234663  1
  P  P4  1  0.19974016  0.98863124  0.56765337  1
  P  P5  1  0.69974016  0.51136876  0.43234663  1
  P  P6  1  0.80025984  0.48863124  0.93234663  1
  P  P7  1  0.30025984  0.01136876  0.06765337  1
  P  P8  1  0.15966095  0.13345375  0.31361395  1
  P  P9  1  0.65966095  0.36654625  0.68638605  1
  P  P10  1  0.84033905  0.63345375  0.18638605  1
  P  P11  1  0.34033905  0.86654625  0.81361395  1
  P  P12  1  0.84033905  0.86654625  0.68638605  1
  P  P13  1  0.34033905  0.63345375  0.31361395  1
  P  P14  1  0.15966095  0.36654625  0.81361395  1
  P  P15  1  0.65966095  0.13345375  0.18638605  1
  P  P16  1  0.16136418  0.96658748  0.26220449  1
  P  P17  1  0.66136418  0.53341252  0.73779551  1
  P  P18  1  0.83863582  0.46658748  0.23779551  1
  P  P19  1  0.33863582  0.03341252  0.76220449  1
  P  P20  1  0.83863582  0.03341252  0.73779551  1
  P  P21  1  0.33863582  0.46658748  0.26220449  1
  P  P22  1  0.16136418  0.53341252  0.76220449  1
  P  P23  1  0.66136418  0.96658748  0.23779551  1
  P  P24  1  0.01303578  0.90521660  0.36765431  1
  P  P25  1  0.51303578  0.59478340  0.63234569  1
  P  P26  1  0.98696422  0.40521660  0.13234569  1
  P  P27  1  0.48696422  0.09478340  0.86765431  1
  P  P28  1  0.98696422  0.09478340  0.63234569  1
  P  P29  1  0.48696422  0.40521660  0.36765431  1
  P  P30  1  0.01303578  0.59478340  0.86765431  1
  P  P31  1  0.51303578  0.90521660  0.13234569  1
  P  P32  1  0.87795528  0.17617760  0.48131530  1
  P  P33  1  0.37795528  0.32382240  0.51868470  1
  P  P34  1  0.12204472  0.67617760  0.01868470  1
  P  P35  1  0.62204472  0.82382240  0.98131530  1
  P  P36  1  0.12204472  0.82382240  0.51868470  1
  P  P37  1  0.62204472  0.67617760  0.48131530  1
  P  P38  1  0.87795528  0.32382240  0.98131530  1
  P  P39  1  0.37795528  0.17617760  0.01868470  1
  P  P40  1  0.92683587  0.23667509  0.36421512  1
  P  P41  1  0.42683587  0.26332491  0.63578488  1
  P  P42  1  0.07316413  0.73667509  0.13578488  1
  P  P43  1  0.57316413  0.76332491  0.86421512  1
  P  P44  1  0.07316413  0.76332491  0.63578488  1
  P  P45  1  0.57316413  0.73667509  0.36421512  1
  P  P46  1  0.92683587  0.26332491  0.86421512  1
  P  P47  1  0.42683587  0.23667509  0.13578488  1
  P  P48  1  0.31150544  0.98897890  0.36801243  1
  P  P49  1  0.81150544  0.51102110  0.63198757  1
  P  P50  1  0.68849456  0.48897890  0.13198757  1
  P  P51  1  0.18849456  0.01102110  0.86801243  1
  P  P52  1  0.68849456  0.01102110  0.63198757  1
  P  P53  1  0.18849456  0.48897890  0.36801243  1
  P  P54  1  0.31150544  0.51102110  0.86801243  1
  P  P55  1  0.81150544  0.98897890  0.13198757  1
  P  P56  1  0.63282711  0.16566466  0.40209828  1
  P  P57  1  0.13282711  0.33433534  0.59790172  1
  P  P58  1  0.36717289  0.66566466  0.09790172  1
  P  P59  1  0.86717289  0.83433534  0.90209828  1
  P  P60  1  0.36717289  0.83433534  0.59790172  1
  P  P61  1  0.86717289  0.66566466  0.40209828  1
  P  P62  1  0.63282711  0.33433534  0.90209828  1
  P  P63  1  0.13282711  0.16566466  0.09790172  1
  H  H0  1  0.81209661  0.88545235  0.48901378  1
  H  H1  1  0.31209661  0.61454765  0.51098622  1
  H  H2  1  0.18790339  0.38545235  0.01098622  1
  H  H3  1  0.68790339  0.11454765  0.98901378  1
  H  H4  1  0.18790339  0.11454765  0.51098622  1
  H  H5  1  0.68790339  0.38545235  0.48901378  1
  H  H6  1  0.81209661  0.61454765  0.98901378  1
  H  H7  1  0.31209661  0.88545235  0.01098622  1
  H  H8  1  0.64441106  0.88918929  0.43356580  1
  H  H9  1  0.14441106  0.61081071  0.56643420  1
  H  H10  1  0.35558894  0.38918929  0.06643420  1
  H  H11  1  0.85558894  0.11081071  0.93356580  1
  H  H12  1  0.35558894  0.11081071  0.56643420  1
  H  H13  1  0.85558894  0.38918929  0.43356580  1
  H  H14  1  0.64441106  0.61081071  0.93356580  1
  H  H15  1  0.14441106  0.88918929  0.06643420  1
  H  H16  1  0.39547259  0.19839893  0.28632574  1
  H  H17  1  0.89547259  0.30160107  0.71367426  1
  H  H18  1  0.60452741  0.69839893  0.21367426  1
  H  H19  1  0.10452741  0.80160107  0.78632574  1
  H  H20  1  0.60452741  0.80160107  0.71367426  1
  H  H21  1  0.10452741  0.69839893  0.28632574  1
  H  H22  1  0.39547259  0.30160107  0.78632574  1
  H  H23  1  0.89547259  0.19839893  0.21367426  1
  H  H24  1  0.26862711  0.26082925  0.34034071  1
  H  H25  1  0.76862711  0.23917075  0.65965929  1
  H  H26  1  0.73137289  0.76082925  0.15965929  1
  H  H27  1  0.23137289  0.73917075  0.84034071  1
  H  H28  1  0.73137289  0.73917075  0.65965929  1
  H  H29  1  0.23137289  0.76082925  0.34034071  1
  H  H30  1  0.26862711  0.23917075  0.84034071  1
  H  H31  1  0.76862711  0.26082925  0.15965929  1
  H  H32  1  0.63175308  0.95780497  0.50261010  1
  H  H33  1  0.13175308  0.54219503  0.49738990  1
  H  H34  1  0.36824692  0.45780497  0.99738990  1
  H  H35  1  0.86824692  0.04219503  0.00261010  1
  H  H36  1  0.36824692  0.04219503  0.49738990  1
  H  H37  1  0.86824692  0.45780497  0.50261010  1
  H  H38  1  0.63175308  0.54219503  0.00261010  1
  H  H39  1  0.13175308  0.95780497  0.99738990  1
  H  H40  1  0.21092529  0.26040206  0.25995164  1
  H  H41  1  0.71092529  0.23959794  0.74004836  1
  H  H42  1  0.78907471  0.76040206  0.24004836  1
  H  H43  1  0.28907471  0.73959794  0.75995164  1
  H  H44  1  0.78907471  0.73959794  0.74004836  1
  H  H45  1  0.28907471  0.76040206  0.25995164  1
  H  H46  1  0.21092529  0.23959794  0.75995164  1
  H  H47  1  0.71092529  0.26040206  0.24004836  1
  O  O0  1  0.30741721  0.96152995  0.30270636  1
  O  O1  1  0.80741721  0.53847005  0.69729364  1
  O  O2  1  0.69258279  0.46152995  0.19729364  1
  O  O3  1  0.19258279  0.03847005  0.80270636  1
  O  O4  1  0.69258279  0.03847005  0.69729364  1
  O  O5  1  0.19258279  0.46152995  0.30270636  1
  O  O6  1  0.30741721  0.53847005  0.80270636  1
  O  O7  1  0.80741721  0.96152995  0.19729364  1
  O  O8  1  0.68683282  0.06752461  0.39848928  1
  O  O9  1  0.18683282  0.43247539  0.60151072  1
  O  O10  1  0.31316718  0.56752461  0.10151072  1
  O  O11  1  0.81316718  0.93247539  0.89848928  1
  O  O12  1  0.31316718  0.93247539  0.60151072  1
  O  O13  1  0.81316718  0.56752461  0.39848928  1
  O  O14  1  0.68683282  0.43247539  0.89848928  1
  O  O15  1  0.18683282  0.06752461  0.10151072  1
  O  O16  1  0.03105644  0.93074322  0.30291431  1
  O  O17  1  0.53105644  0.56925678  0.69708569  1
  O  O18  1  0.96894356  0.43074322  0.19708569  1
  O  O19  1  0.46894356  0.06925678  0.80291431  1
  O  O20  1  0.96894356  0.06925678  0.69708569  1
  O  O21  1  0.46894356  0.43074322  0.30291431  1
  O  O22  1  0.03105644  0.56925678  0.80291431  1
  O  O23  1  0.53105644  0.93074322  0.19708569  1
  O  O24  1  0.17579782  0.93193820  0.39229741  1
  O  O25  1  0.67579782  0.56806180  0.60770259  1
  O  O26  1  0.82420218  0.43193820  0.10770259  1
  O  O27  1  0.32420218  0.06806180  0.89229741  1
  O  O28  1  0.82420218  0.06806180  0.60770259  1
  O  O29  1  0.32420218  0.43193820  0.39229741  1
  O  O30  1  0.17579782  0.56806180  0.89229741  1
  O  O31  1  0.67579782  0.93193820  0.10770259  1
  O  O32  1  0.75245435  0.20950210  0.36036123  1
  O  O33  1  0.25245435  0.29049790  0.63963877  1
  O  O34  1  0.24754565  0.70950210  0.13963877  1
  O  O35  1  0.74754565  0.79049790  0.86036123  1
  O  O36  1  0.24754565  0.79049790  0.63963877  1
  O  O37  1  0.74754565  0.70950210  0.36036123  1
  O  O38  1  0.75245435  0.29049790  0.86036123  1
  O  O39  1  0.25245435  0.20950210  0.13963877  1
  O  O40  1  0.96674216  0.21389718  0.42831003  1
  O  O41  1  0.46674216  0.28610282  0.57168997  1
  O  O42  1  0.03325784  0.71389718  0.07168997  1
  O  O43  1  0.53325784  0.78610282  0.92831003  1
  O  O44  1  0.03325784  0.78610282  0.57168997  1
  O  O45  1  0.53325784  0.71389718  0.42831003  1
  O  O46  1  0.96674216  0.28610282  0.92831003  1
  O  O47  1  0.46674216  0.21389718  0.07168997  1
  O  O48  1  0.99532885  0.15162257  0.33454235  1
  O  O49  1  0.49532885  0.34837743  0.66545765  1
  O  O50  1  0.00467115  0.65162257  0.16545765  1
  O  O51  1  0.50467115  0.84837743  0.83454235  1
  O  O52  1  0.00467115  0.84837743  0.66545765  1
  O  O53  1  0.50467115  0.65162257  0.33454235  1
  O  O54  1  0.99532885  0.34837743  0.83454235  1
  O  O55  1  0.49532885  0.15162257  0.16545765  1
  O  O56  1  0.22764375  0.07989765  0.36278544  1
  O  O57  1  0.72764375  0.42010235  0.63721456  1
  O  O58  1  0.77235625  0.57989765  0.13721456  1
  O  O59  1  0.27235625  0.92010235  0.86278544  1
  O  O60  1  0.77235625  0.92010235  0.63721456  1
  O  O61  1  0.27235625  0.57989765  0.36278544  1
  O  O62  1  0.22764375  0.42010235  0.86278544  1
  O  O63  1  0.72764375  0.07989765  0.13721456  1
  O  O64  1  0.13008740  0.06793102  0.26566259  1
  O  O65  1  0.63008740  0.43206898  0.73433741  1
  O  O66  1  0.86991260  0.56793102  0.23433741  1
  O  O67  1  0.36991260  0.93206898  0.76566259  1
  O  O68  1  0.86991260  0.93206898  0.73433741  1
  O  O69  1  0.36991260  0.56793102  0.26566259  1
  O  O70  1  0.13008740  0.43206898  0.76566259  1
  O  O71  1  0.63008740  0.06793102  0.23433741  1
  O  O72  1  0.70448833  0.19031444  0.46200923  1
  O  O73  1  0.20448833  0.30968556  0.53799077  1
  O  O74  1  0.29551167  0.69031444  0.03799077  1
  O  O75  1  0.79551167  0.80968556  0.96200923  1
  O  O76  1  0.29551167  0.80968556  0.53799077  1
  O  O77  1  0.79551167  0.69031444  0.46200923  1
  O  O78  1  0.70448833  0.30968556  0.96200923  1
  O  O79  1  0.20448833  0.19031444  0.03799077  1
  O  O80  1  0.88992847  0.07485910  0.47012330  1
  O  O81  1  0.38992847  0.42514090  0.52987670  1
  O  O82  1  0.11007153  0.57485910  0.02987670  1
  O  O83  1  0.61007153  0.92514090  0.97012330  1
  O  O84  1  0.11007153  0.92514090  0.52987670  1
  O  O85  1  0.61007153  0.57485910  0.47012330  1
  O  O86  1  0.88992847  0.42514090  0.97012330  1
  O  O87  1  0.38992847  0.07485910  0.02987670  1
  O  O88  1  0.91748272  0.98885427  0.38577146  1
  O  O89  1  0.41748272  0.51114573  0.61422854  1
  O  O90  1  0.08251728  0.48885427  0.11422854  1
  O  O91  1  0.58251728  0.01114573  0.88577146  1
  O  O92  1  0.08251728  0.01114573  0.61422854  1
  O  O93  1  0.58251728  0.48885427  0.38577146  1
  O  O94  1  0.91748272  0.51114573  0.88577146  1
  O  O95  1  0.41748272  0.98885427  0.11422854  1
loop_
_geom_bond_atom_site_label_1
_geom_bond_atom_site_label_2
_geom_bond_distance
_geom_bond_site_symmetry_2
B0 H40 1.213930 1_555
B0 H16 1.214350 1_555
B0 H24 1.222753 1_555
B0 P8 1.866007 1_555
B1 H41 1.213930 1_555
B1 H17 1.214350 1_555
B1 H25 1.222753 1_555
B1 P9 1.866007 1_555
B2 H42 1.213930 1_555
B2 H18 1.214350 1_555
B2 H26 1.222753 1_555
B2 P10 1.866007 1_555
B3 H43 1.213930 1_555
B3 H19 1.214350 1_555
B3 H27 1.222753 1_555
B3 P11 1.866007 1_555
B4 H44 1.213930 1_555
B4 H20 1.214350 1_555
B4 H28 1.222753 1_555
B4 P12 1.866007 1_555
B5 H45 1.213930 1_555
B5 H21 1.214350 1_555
B5 H29 1.222753 1_555
B5 P13 1.866007 1_555
B6 H46 1.213930 1_555
B6 H22 1.214350 1_555
B6 H30 1.222753 1_555
B6 P14 1.866007 1_555
B7 H47 1.213930 1_555
B7 H23 1.214350 1_555
B7 H31 1.222753 1_555
B7 P15 1.866007 1_555
B8 H0 1.215170 1_555
B8 H32 1.215836 1_555
B8 H8 1.217822 1_555
B8 P0 1.868103 1_565
B9 H1 1.215170 1_555
B9 H33 1.215836 1_555
B9 H9 1.217822 1_555
B9 P1 1.868103 1_555
B10 H2 1.215170 1_555
B10 H34 1.215836 1_554
B10 H10 1.217822 1_555
B10 P2 1.868103 1_555
B11 H3 1.215170 1_555
B11 H35 1.215836 1_556
B11 H11 1.217822 1_555
B11 P3 1.868103 1_545
B12 H4 1.215170 1_555
B12 H36 1.215836 1_555
B12 H12 1.217822 1_555
B12 P4 1.868103 1_545
B13 H5 1.215170 1_555
B13 H37 1.215836 1_555
B13 H13 1.217822 1_555
B13 P5 1.868103 1_555
B14 H6 1.215170 1_555
B14 H38 1.215836 1_556
B14 H14 1.217822 1_555
B14 P6 1.868103 1_555
B15 H7 1.215170 1_555
B15 H39 1.215836 1_554
B15 H15 1.217822 1_555
B15 P7 1.868103 1_565
O0 P16 1.659462 1_555
O0 P48 1.665383 1_555
O1 P17 1.659462 1_555
O1 P49 1.665383 1_555
O2 P18 1.659462 1_555
O2 P50 1.665383 1_555
O3 P19 1.659462 1_555
O3 P51 1.665383 1_555
O4 P20 1.659462 1_555
O4 P52 1.665383 1_555
O5 P21 1.659462 1_555
O5 P53 1.665383 1_555
O6 P22 1.659462 1_555
O6 P54 1.665383 1_555
O7 P23 1.659462 1_555
O7 P55 1.665383 1_555
O8 P0 1.610514 1_555
O8 P56 1.679586 1_555
O9 P1 1.610514 1_555
O9 P57 1.679586 1_555
O10 P2 1.610514 1_555
O10 P58 1.679586 1_555
O11 P3 1.610514 1_555
O11 P59 1.679586 1_555
O12 P4 1.610514 1_555
O12 P60 1.679586 1_555
O13 P5 1.610514 1_555
O13 P61 1.679586 1_555
O14 P6 1.610514 1_555
O14 P62 1.679586 1_555
O15 P7 1.610514 1_555
O15 P63 1.679586 1_555
O16 P24 1.651457 1_555
O16 P16 1.655814 1_555
O17 P25 1.651457 1_555
O17 P17 1.655814 1_555
O18 P26 1.651457 1_555
O18 P18 1.655814 1_555
O19 P27 1.651457 1_555
O19 P19 1.655814 1_555
O20 P28 1.651457 1_555
O20 P20 1.655814 1_555
O21 P29 1.651457 1_555
O21 P21 1.655814 1_555
O22 P30 1.651457 1_555
O22 P22 1.655814 1_555
O23 P31 1.651457 1_555
O23 P23 1.655814 1_555
O24 P24 1.655369 1_555
O24 P48 1.656057 1_555
O25 P25 1.655369 1_555
O25 P49 1.656057 1_555
O26 P26 1.655369 1_555
O26 P50 1.656057 1_555
O27 P27 1.655369 1_555
O27 P51 1.656057 1_555
O28 P28 1.655369 1_555
O28 P52 1.656057 1_555
O29 P29 1.655369 1_555
O29 P53 1.656057 1_555
O30 P30 1.655369 1_555
O30 P54 1.656057 1_555
O31 P31 1.655369 1_555
O31 P55 1.656057 1_555
O32 P40 1.646969 1_555
O32 P56 1.656167 1_555
O33 P41 1.646969 1_555
O33 P57 1.656167 1_555
O34 P42 1.646969 1_555
O34 P58 1.656167 1_555
O35 P43 1.646969 1_555
O35 P59 1.656167 1_555
O36 P44 1.646969 1_555
O36 P60 1.656167 1_555
O37 P45 1.646969 1_555
O37 P61 1.656167 1_555
O38 P46 1.646969 1_555
O38 P62 1.656167 1_555
O39 P47 1.646969 1_555
O39 P63 1.656167 1_555
O40 P32 1.650266 1_555
O40 P40 1.657177 1_555
O41 P33 1.650266 1_555
O41 P41 1.657177 1_555
O42 P34 1.650266 1_555
O42 P42 1.657177 1_555
O43 P35 1.650266 1_555
O43 P43 1.657177 1_555
O44 P36 1.650266 1_555
O44 P44 1.657177 1_555
O45 P37 1.650266 1_555
O45 P45 1.657177 1_555
O46 P38 1.650266 1_555
O46 P46 1.657177 1_555
O47 P39 1.650266 1_555
O47 P47 1.657177 1_555
O48 P8 1.605606 1_655
O48 P40 1.688118 1_555
O49 P9 1.605606 1_555
O49 P41 1.688118 1_555
O50 P10 1.605606 1_455
O50 P42 1.688118 1_555
O51 P11 1.605606 1_555
O51 P43 1.688118 1_555
O52 P12 1.605606 1_455
O52 P44 1.688118 1_555
O53 P13 1.605606 1_555
O53 P45 1.688118 1_555
O54 P14 1.605606 1_655
O54 P46 1.688118 1_555
O55 P15 1.605606 1_555
O55 P47 1.688118 1_555
O56 P8 1.613864 1_555
O56 P48 1.674573 1_545
O57 P9 1.613864 1_555
O57 P49 1.674573 1_555
O58 P10 1.613864 1_555
O58 P50 1.674573 1_555
O59 P11 1.613864 1_555
O59 P51 1.674573 1_565
O60 P12 1.613864 1_555
O60 P52 1.674573 1_565
O61 P13 1.613864 1_555
O61 P53 1.674573 1_555
O62 P14 1.613864 1_555
O62 P54 1.674573 1_555
O63 P15 1.613864 1_555
O63 P55 1.674573 1_545
O64 P8 1.613979 1_555
O64 P16 1.682648 1_545
O65 P9 1.613979 1_555
O65 P17 1.682648 1_555
O66 P10 1.613979 1_555
O66 P18 1.682648 1_555
O67 P11 1.613979 1_555
O67 P19 1.682648 1_565
O68 P12 1.613979 1_555
O68 P20 1.682648 1_565
O69 P13 1.613979 1_555
O69 P21 1.682648 1_555
O70 P14 1.613979 1_555
O70 P22 1.682648 1_555
O71 P15 1.613979 1_555
O71 P23 1.682648 1_545
O72 P56 1.658070 1_555
O72 P32 1.660771 1_555
O73 P57 1.658070 1_555
O73 P33 1.660771 1_555
O74 P58 1.658070 1_555
O74 P34 1.660771 1_555
O75 P59 1.658070 1_555
O75 P35 1.660771 1_555
O76 P60 1.658070 1_555
O76 P36 1.660771 1_555
O77 P61 1.658070 1_555
O77 P37 1.660771 1_555
O78 P62 1.658070 1_555
O78 P38 1.660771 1_555
O79 P63 1.658070 1_555
O79 P39 1.660771 1_555
O80 P0 1.612361 1_555
O80 P32 1.682093 1_555
O81 P1 1.612361 1_555
O81 P33 1.682093 1_555
O82 P2 1.612361 1_555
O82 P34 1.682093 1_555
O83 P3 1.612361 1_555
O83 P35 1.682093 1_555
O84 P4 1.612361 1_555
O84 P36 1.682093 1_555
O85 P5 1.612361 1_555
O85 P37 1.682093 1_555
O86 P6 1.612361 1_555
O86 P38 1.682093 1_555
O87 P7 1.612361 1_555
O87 P39 1.682093 1_555
O88 P0 1.604861 1_565
O88 P24 1.678979 1_655
O89 P1 1.604861 1_555
O89 P25 1.678979 1_555
O90 P2 1.604861 1_555
O90 P26 1.678979 1_455
O91 P3 1.604861 1_545
O91 P27 1.678979 1_555
O92 P4 1.604861 1_545
O92 P28 1.678979 1_455
O93 P5 1.604861 1_555
O93 P29 1.678979 1_555
O94 P6 1.604861 1_555
O94 P30 1.678979 1_655
O95 P7 1.604861 1_565
O95 P31 1.678979 1_555
