# generated using pymatgen
data_Co2SnC8SeO8
_symmetry_space_group_name_H-M   'P 1'
_cell_length_a   15.56742253
_cell_length_b   12.83966206
_cell_length_c   12.64485179
_cell_angle_alpha   75.29881504
_cell_angle_beta   52.91829418
_cell_angle_gamma   51.78289077
_symmetry_Int_Tables_number   1
_chemical_formula_structural   Co2SnC8SeO8
_chemical_formula_sum   'Co8 Sn4 C32 Se4 O32'
_cell_volume   1555.25958449
_cell_formula_units_Z   4
loop_
 _symmetry_equiv_pos_site_id
 _symmetry_equiv_pos_as_xyz
  1  'x, y, z'
loop_
 _atom_site_type_symbol
 _atom_site_label
 _atom_site_symmetry_multiplicity
 _atom_site_fract_x
 _atom_site_fract_y
 _atom_site_fract_z
 _atom_site_occupancy
  Co  Co0  1  0.64811300  0.14802300  0.35758500  1
  Co  Co1  1  0.84627900  0.35758500  0.14802300  1
  Co  Co2  1  0.35758500  0.84627900  0.64811300  1
  Co  Co3  1  0.14802300  0.64811300  0.84627900  1
  Co  Co4  1  0.60188700  0.10197700  0.89241500  1
  Co  Co5  1  0.40372100  0.89241500  0.10197700  1
  Co  Co6  1  0.89241500  0.40372100  0.60188700  1
  Co  Co7  1  0.10197700  0.60188700  0.40372100  1
  Sn  Sn0  1  0.63732300  0.36267700  0.36267700  1
  Sn  Sn1  1  0.36267700  0.63732300  0.63732300  1
  Sn  Sn2  1  0.61267700  0.88732300  0.88732300  1
  Sn  Sn3  1  0.88732300  0.61267700  0.61267700  1
  C  C0  1  0.82248900  0.05176600  0.28527200  1
  C  C1  1  0.84047200  0.28527200  0.05176600  1
  C  C2  1  0.28527200  0.84047200  0.82248900  1
  C  C3  1  0.05176600  0.82248900  0.84047200  1
  C  C4  1  0.42751100  0.19823400  0.96472800  1
  C  C5  1  0.40952800  0.96472800  0.19823400  1
  C  C6  1  0.96472800  0.40952800  0.42751100  1
  C  C7  1  0.19823400  0.42751100  0.40952800  1
  C  C8  1  0.53708400  0.19298300  0.53711300  1
  C  C9  1  0.73282100  0.53711300  0.19298300  1
  C  C10  1  0.53711300  0.73282100  0.53708400  1
  C  C11  1  0.19298300  0.53708400  0.73282100  1
  C  C12  1  0.71291600  0.05701700  0.71288700  1
  C  C13  1  0.51717900  0.71288700  0.05701700  1
  C  C14  1  0.71288700  0.51717900  0.71291600  1
  C  C15  1  0.05701700  0.71291600  0.51717900  1
  C  C16  1  0.58309200  0.23793200  0.26193000  1
  C  C17  1  0.91704600  0.26193000  0.23793200  1
  C  C18  1  0.26193000  0.91704600  0.58309200  1
  C  C19  1  0.23793200  0.58309200  0.91704600  1
  C  C20  1  0.66690800  0.01206800  0.98807000  1
  C  C21  1  0.33295400  0.98807000  0.01206800  1
  C  C22  1  0.98807000  0.33295400  0.66690800  1
  C  C23  1  0.01206800  0.66690800  0.33295400  1
  C  C24  1  0.64955600  0.01113600  0.34940200  1
  C  C25  1  0.98990500  0.34940200  0.01113600  1
  C  C26  1  0.34940200  0.98990500  0.64955600  1
  C  C27  1  0.01113600  0.64955600  0.98990500  1
  C  C28  1  0.60044400  0.23886400  0.90059800  1
  C  C29  1  0.26009500  0.90059800  0.23886400  1
  C  C30  1  0.90059800  0.26009500  0.60044400  1
  C  C31  1  0.23886400  0.60044400  0.26009500  1
  Se  Se0  1  0.41234000  0.58766000  0.41234000  1
  Se  Se1  1  0.58766000  0.41234000  0.58766000  1
  Se  Se2  1  0.83766000  0.66234000  0.83766000  1
  Se  Se3  1  0.66234000  0.83766000  0.66234000  1
  O  O0  1  0.93646400  0.98539800  0.23800900  1
  O  O1  1  0.84012800  0.23800900  0.98539800  1
  O  O2  1  0.23800900  0.84012800  0.93646400  1
  O  O3  1  0.98539800  0.93646400  0.84012800  1
  O  O4  1  0.31353600  0.26460200  0.01199100  1
  O  O5  1  0.40987200  0.01199100  0.26460200  1
  O  O6  1  0.01199100  0.40987200  0.31353600  1
  O  O7  1  0.26460200  0.31353600  0.40987200  1
  O  O8  1  0.46670000  0.21325600  0.65391700  1
  O  O9  1  0.66612800  0.65391700  0.21325600  1
  O  O10  1  0.65391600  0.66612800  0.46670000  1
  O  O11  1  0.21325600  0.46670000  0.66612800  1
  O  O12  1  0.78330000  0.03674400  0.59608400  1
  O  O13  1  0.58387200  0.59608400  0.03674400  1
  O  O14  1  0.59608400  0.58387200  0.78330000  1
  O  O15  1  0.03674400  0.78330000  0.58387200  1
  O  O16  1  0.53874900  0.29253000  0.20037000  1
  O  O17  1  0.96835000  0.20037000  0.29253000  1
  O  O18  1  0.20037000  0.96835000  0.53874900  1
  O  O19  1  0.29253000  0.53874900  0.96835000  1
  O  O20  1  0.71125100  0.95747000  0.04963000  1
  O  O21  1  0.28165000  0.04963000  0.95747000  1
  O  O22  1  0.04963000  0.28165000  0.71125100  1
  O  O23  1  0.95747000  0.71125100  0.28165000  1
  O  O24  1  0.64924600  0.92274500  0.34457500  1
  O  O25  1  0.08343300  0.34457500  0.92274500  1
  O  O26  1  0.34457500  0.08343300  0.64924600  1
  O  O27  1  0.92274500  0.64924600  0.08343300  1
  O  O28  1  0.60075400  0.32725500  0.90542500  1
  O  O29  1  0.16656700  0.90542500  0.32725500  1
  O  O30  1  0.90542500  0.16656700  0.60075400  1
  O  O31  1  0.32725500  0.60075400  0.16656700  1
loop_
_geom_bond_atom_site_label_1
_geom_bond_atom_site_label_2
_geom_bond_distance
_geom_bond_site_symmetry_2
Co0 Sn0 2.670692 1_555
Co1 Sn0 2.670692 1_555
Co2 Sn1 2.670692 1_555
Co3 Sn1 2.670692 1_555
Co4 Sn2 2.670692 1_545
Co5 Sn2 2.670692 1_554
Co6 Sn3 2.670692 1_555
Co7 Sn3 2.670692 1_455
C0 O0 1.157794 1_545
C0 Co0 1.778141 1_555
C1 O1 1.157794 1_554
C1 Co1 1.778153 1_555
C2 O2 1.157794 1_555
C2 Co2 1.778143 1_555
C3 O3 1.157794 1_455
C3 Co3 1.778144 1_555
C4 O4 1.157794 1_556
C4 Co4 1.778141 1_555
C5 O5 1.157794 1_565
C5 Co5 1.778153 1_555
C6 O6 1.157794 1_655
C6 Co6 1.778143 1_555
C7 O7 1.157794 1_555
C7 Co7 1.778144 1_555
C8 O8 1.157783 1_555
C8 Co0 1.781308 1_555
C9 O9 1.157783 1_555
C9 Co1 1.781308 1_555
C10 O10 1.157773 1_555
C10 Co2 1.781307 1_555
C11 O11 1.157783 1_555
C11 Co3 1.781298 1_555
C12 O12 1.157773 1_555
C12 Co4 1.781308 1_555
C13 O13 1.157773 1_555
C13 Co5 1.781308 1_555
C14 O14 1.157773 1_555
C14 Co6 1.781307 1_555
C15 O15 1.157783 1_555
C15 Co7 1.781298 1_555
C16 O16 1.160242 1_555
C16 Co0 1.772610 1_555
C17 O17 1.160233 1_555
C17 Co1 1.772610 1_555
C18 O18 1.160243 1_555
C18 Co2 1.772610 1_555
C19 O19 1.160231 1_555
C19 Co3 1.772610 1_555
C20 O20 1.160242 1_546
C20 Co4 1.772610 1_555
C21 O21 1.160233 1_564
C21 Co5 1.772610 1_555
C22 O22 1.160243 1_655
C22 Co6 1.772610 1_555
C23 O23 1.160231 1_455
C23 Co7 1.772610 1_555
C24 O24 1.155016 1_545
C24 Co0 1.772275 1_555
C25 O25 1.155016 1_654
C25 Co1 1.772266 1_555
C26 O26 1.155016 1_565
C26 Co2 1.772263 1_555
C27 O27 1.155016 1_456
C27 Co3 1.772272 1_555
C28 O28 1.155016 1_555
C28 Co4 1.772275 1_555
C29 O29 1.155016 1_555
C29 Co5 1.772266 1_555
C30 O30 1.155016 1_555
C30 Co6 1.772263 1_555
C31 O31 1.155016 1_555
C31 Co7 1.772272 1_555
Se0 Sn1 2.599248 1_555
Se0 Sn0 2.599248 1_555
Se1 Sn1 2.599248 1_555
Se1 Sn0 2.599248 1_555
Se2 Sn2 2.599248 1_555
Se2 Sn3 2.599248 1_555
Se3 Sn2 2.599248 1_555
Se3 Sn3 2.599248 1_555
