# generated using pymatgen
data_Hf9Re4Se
_symmetry_space_group_name_H-M   'P 1'
_cell_length_a   8.65926571
_cell_length_b   8.65926571
_cell_length_c   8.61600400
_cell_angle_alpha   90.00000000
_cell_angle_beta   90.00000000
_cell_angle_gamma   119.99999779
_symmetry_Int_Tables_number   1
_chemical_formula_structural   Hf9Re4Se
_chemical_formula_sum   'Hf18 Re8 Se2'
_cell_volume   559.49816402
_cell_formula_units_Z   2
loop_
 _symmetry_equiv_pos_site_id
 _symmetry_equiv_pos_as_xyz
  1  'x, y, z'
loop_
 _atom_site_type_symbol
 _atom_site_label
 _atom_site_symmetry_multiplicity
 _atom_site_fract_x
 _atom_site_fract_y
 _atom_site_fract_z
 _atom_site_occupancy
  Hf  Hf0  1  0.19146300  0.80853700  0.45148900  1
  Hf  Hf1  1  0.19146300  0.38292600  0.45148900  1
  Hf  Hf2  1  0.61707400  0.80853700  0.45148900  1
  Hf  Hf3  1  0.80853700  0.19146300  0.54851100  1
  Hf  Hf4  1  0.80853700  0.61707400  0.54851100  1
  Hf  Hf5  1  0.38292600  0.19146300  0.54851100  1
  Hf  Hf6  1  0.80853700  0.19146300  0.95148900  1
  Hf  Hf7  1  0.80853700  0.61707400  0.95148900  1
  Hf  Hf8  1  0.38292600  0.19146300  0.95148900  1
  Hf  Hf9  1  0.19146300  0.80853700  0.04851100  1
  Hf  Hf10  1  0.19146300  0.38292600  0.04851100  1
  Hf  Hf11  1  0.61707400  0.80853700  0.04851100  1
  Hf  Hf12  1  0.54391300  0.45608700  0.25000000  1
  Hf  Hf13  1  0.54391300  0.08782600  0.25000000  1
  Hf  Hf14  1  0.91217400  0.45608700  0.25000000  1
  Hf  Hf15  1  0.45608700  0.54391300  0.75000000  1
  Hf  Hf16  1  0.45608700  0.91217400  0.75000000  1
  Hf  Hf17  1  0.08782600  0.54391300  0.75000000  1
  Re  Re0  1  0.88948900  0.11051100  0.25000000  1
  Re  Re1  1  0.88948900  0.77897800  0.25000000  1
  Re  Re2  1  0.22102200  0.11051100  0.25000000  1
  Re  Re3  1  0.11051100  0.88948900  0.75000000  1
  Re  Re4  1  0.11051100  0.22102200  0.75000000  1
  Re  Re5  1  0.77897800  0.88948900  0.75000000  1
  Re  Re6  1  0.00000000  0.00000000  0.50000000  1
  Re  Re7  1  0.00000000  0.00000000  0.00000000  1
  Se  Se0  1  0.33333300  0.66666700  0.25000000  1
  Se  Se1  1  0.66666700  0.33333300  0.75000000  1
loop_
_geom_bond_atom_site_label_1
_geom_bond_atom_site_label_2
_geom_bond_distance
_geom_bond_site_symmetry_2
Hf0 Se0 2.746154 1_555
Hf0 Re3 2.844148 1_555
Hf0 Re6 2.901876 1_565
Hf0 Re1 3.040983 1_455
Hf0 Re2 3.040983 1_565
Hf1 Se0 2.746160 1_555
Hf1 Re4 2.844148 1_555
Hf1 Re6 2.901876 1_555
Hf1 Re2 3.040983 1_555
Hf1 Re0 3.040983 1_455
Hf2 Se0 2.746160 1_555
Hf2 Re5 2.844148 1_555
Hf2 Re6 2.901876 1_665
Hf2 Re1 3.040983 1_555
Hf2 Re0 3.040983 1_565
Hf3 Se1 2.746154 1_555
Hf3 Re0 2.844148 1_555
Hf3 Re6 2.901876 1_655
Hf3 Re5 3.040983 1_545
Hf3 Re4 3.040983 1_655
Hf4 Se1 2.746160 1_555
Hf4 Re1 2.844148 1_555
Hf4 Re6 2.901876 1_665
Hf4 Re5 3.040983 1_555
Hf4 Re3 3.040983 1_655
Hf5 Se1 2.746160 1_555
Hf5 Re2 2.844148 1_555
Hf5 Re6 2.901876 1_555
Hf5 Re4 3.040983 1_555
Hf5 Re3 3.040983 1_545
Hf6 Se1 2.746154 1_555
Hf6 Re0 2.844148 1_556
Hf6 Re7 2.901876 1_656
Hf6 Re5 3.040983 1_545
Hf6 Re4 3.040983 1_655
Hf7 Se1 2.746160 1_555
Hf7 Re1 2.844148 1_556
Hf7 Re7 2.901876 1_666
Hf7 Re5 3.040983 1_555
Hf7 Re3 3.040983 1_655
Hf8 Se1 2.746160 1_555
Hf8 Re2 2.844148 1_556
Hf8 Re7 2.901876 1_556
Hf8 Re4 3.040983 1_555
Hf8 Re3 3.040983 1_545
Hf9 Se0 2.746154 1_555
Hf9 Re3 2.844148 1_554
Hf9 Re7 2.901876 1_565
Hf9 Re1 3.040983 1_455
Hf9 Re2 3.040983 1_565
Hf10 Se0 2.746160 1_555
Hf10 Re4 2.844148 1_554
Hf10 Re7 2.901876 1_555
Hf10 Re2 3.040983 1_555
Hf10 Re0 3.040983 1_455
Hf11 Se0 2.746160 1_555
Hf11 Re5 2.844148 1_554
Hf11 Re7 2.901876 1_665
Hf11 Re1 3.040983 1_555
Hf11 Re0 3.040983 1_565
Hf12 Re1 2.899212 1_555
Hf12 Re2 2.899212 1_555
Hf12 Se0 3.158339 1_555
Hf13 Re2 2.899212 1_555
Hf13 Re0 2.899212 1_555
Hf13 Se0 3.158332 1_545
Hf14 Re1 2.899212 1_555
Hf14 Re0 2.899212 1_555
Hf14 Se0 3.158332 1_655
Hf15 Re4 2.899212 1_555
Hf15 Re5 2.899212 1_555
Hf15 Se1 3.158339 1_555
Hf16 Re5 2.899212 1_555
Hf16 Re3 2.899212 1_555
Hf16 Se1 3.158332 1_565
Hf17 Re4 2.899212 1_555
Hf17 Re3 2.899212 1_555
Hf17 Se1 3.158332 1_455
Re0 Re6 2.717894 1_655
Re0 Re7 2.717894 1_655
Re0 Re2 2.870832 1_655
Re0 Re1 2.870832 1_545
Re1 Re7 2.717894 1_665
Re1 Re6 2.717894 1_665
Re1 Re2 2.870832 1_665
Re2 Re7 2.717894 1_555
Re2 Re6 2.717894 1_555
Re3 Re6 2.717894 1_565
Re3 Re7 2.717894 1_566
Re3 Re5 2.870832 1_455
Re3 Re4 2.870832 1_565
Re4 Re7 2.717894 1_556
Re4 Re6 2.717894 1_555
Re4 Re5 2.870832 1_445
Re5 Re7 2.717894 1_666
Re5 Re6 2.717894 1_665
