# generated using pymatgen
data_Ca(ReO5)2
_symmetry_space_group_name_H-M   'P 1'
_cell_length_a   10.43458892
_cell_length_b   10.43458892
_cell_length_c   14.25364942
_cell_angle_alpha   67.15352874
_cell_angle_beta   67.15352874
_cell_angle_gamma   40.16347386
_symmetry_Int_Tables_number   1
_chemical_formula_structural   Ca(ReO5)2
_chemical_formula_sum   'Ca4 Re8 O40'
_cell_volume   911.42538828
_cell_formula_units_Z   4
loop_
 _symmetry_equiv_pos_site_id
 _symmetry_equiv_pos_as_xyz
  1  'x, y, z'
loop_
 _atom_site_type_symbol
 _atom_site_label
 _atom_site_symmetry_multiplicity
 _atom_site_fract_x
 _atom_site_fract_y
 _atom_site_fract_z
 _atom_site_occupancy
  Ca  Ca0  1  0.67961000  0.94043900  0.96235500  1
  Ca  Ca1  1  0.94043900  0.67961000  0.46235500  1
  Ca  Ca2  1  0.65542000  0.39844800  0.85664600  1
  Ca  Ca3  1  0.39844800  0.65542000  0.35664600  1
  Re  Re0  1  0.63262000  0.85069000  0.72805300  1
  Re  Re1  1  0.85069000  0.63262000  0.22805300  1
  Re  Re2  1  0.48396400  0.70153600  0.59430400  1
  Re  Re3  1  0.70153600  0.48396400  0.09430400  1
  Re  Re4  1  0.84554800  0.13859600  0.49175200  1
  Re  Re5  1  0.13859600  0.84554800  0.99175200  1
  Re  Re6  1  0.19111900  0.49261700  0.83590600  1
  Re  Re7  1  0.49261700  0.19111900  0.33590600  1
  O  O0  1  0.66074700  0.71064800  0.54193900  1
  O  O1  1  0.71064800  0.66074700  0.04193900  1
  O  O2  1  0.60855300  0.68558900  0.78015600  1
  O  O3  1  0.68558900  0.60855300  0.28015600  1
  O  O4  1  0.89000200  0.04646800  0.95476600  1
  O  O5  1  0.04646800  0.89000200  0.45476600  1
  O  O6  1  0.80476200  0.08418300  0.81586400  1
  O  O7  1  0.08418300  0.80476200  0.31586400  1
  O  O8  1  0.26135400  0.91761400  0.64644200  1
  O  O9  1  0.91761400  0.26135400  0.14644200  1
  O  O10  1  0.44253100  0.29057100  0.86843900  1
  O  O11  1  0.29057100  0.44253100  0.36843900  1
  O  O12  1  0.01626400  0.21045900  0.79778800  1
  O  O13  1  0.21045900  0.01626400  0.29778800  1
  O  O14  1  0.10740900  0.39862400  0.83775000  1
  O  O15  1  0.39862400  0.10740900  0.33775000  1
  O  O16  1  0.18047000  0.62844400  0.71484700  1
  O  O17  1  0.62844400  0.18047000  0.21484700  1
  O  O18  1  0.02713600  0.65654900  0.92764700  1
  O  O19  1  0.65654900  0.02713600  0.42764700  1
  O  O20  1  0.68266500  0.43665400  0.99692100  1
  O  O21  1  0.43665400  0.68266500  0.49692100  1
  O  O22  1  0.58093200  0.49154100  0.69195000  1
  O  O23  1  0.49154100  0.58093200  0.19195000  1
  O  O24  1  0.41973600  0.08045400  0.67611500  1
  O  O25  1  0.08045400  0.41973600  0.17611500  1
  O  O26  1  0.66438800  0.88582500  0.82519100  1
  O  O27  1  0.88582500  0.66438800  0.32519100  1
  O  O28  1  0.84353200  0.74554200  0.63041500  1
  O  O29  1  0.74554200  0.84353200  0.13041500  1
  O  O30  1  0.71907300  0.13940500  0.61440400  1
  O  O31  1  0.13940500  0.71907300  0.11440400  1
  O  O32  1  0.94190100  0.21939400  0.49050500  1
  O  O33  1  0.21939400  0.94190100  0.99050500  1
  O  O34  1  0.31025400  0.67252600  0.90444500  1
  O  O35  1  0.67252600  0.31025400  0.40444500  1
  O  O36  1  0.09548600  0.33963200  0.55366100  1
  O  O37  1  0.33963200  0.09548600  0.05366100  1
  O  O38  1  0.24806000  0.52501700  0.51653900  1
  O  O39  1  0.52501700  0.24806000  0.01653900  1
loop_
_geom_bond_atom_site_label_1
_geom_bond_atom_site_label_2
_geom_bond_distance
_geom_bond_site_symmetry_2
Ca0 O26 2.327447 1_555
Ca0 O18 2.344435 1_655
Ca0 O29 2.359996 1_556
Ca0 O37 2.484729 1_566
Ca0 O1 2.485758 1_556
Ca0 O10 2.493901 1_565
Ca0 O39 2.558451 1_566
Ca0 O6 2.599883 1_565
Ca1 O27 2.327447 1_555
Ca1 O19 2.344435 1_565
Ca1 O28 2.359996 1_555
Ca1 O36 2.484729 1_655
Ca1 O0 2.485758 1_555
Ca1 O11 2.493901 1_655
Ca1 O38 2.558451 1_655
Ca1 O7 2.599883 1_655
Ca2 O20 2.339031 1_555
Ca2 O34 2.340828 1_555
Ca2 O22 2.355991 1_555
Ca2 O2 2.458234 1_555
Ca2 O12 2.503020 1_655
Ca2 O4 2.523059 1_555
Ca2 O6 2.546773 1_555
Ca2 O39 2.754348 1_556
Ca3 O21 2.339031 1_555
Ca3 O35 2.340828 1_555
Ca3 O23 2.355991 1_555
Ca3 O3 2.458234 1_555
Ca3 O13 2.503020 1_565
Ca3 O5 2.523059 1_555
Ca3 O7 2.546773 1_555
Ca3 O38 2.754348 1_555
O0 Re2 1.764289 1_555
O1 Re3 1.764289 1_555
O2 Re0 1.762223 1_555
O3 Re1 1.762223 1_555
O4 Re5 1.814846 1_645
O5 Re4 1.814846 1_465
O8 Re2 1.728415 1_555
O9 Re3 1.728415 1_555
O10 Re6 1.809446 1_555
O11 Re7 1.809446 1_555
O14 Re6 1.731218 1_555
O15 Re7 1.731218 1_555
O16 Re6 1.734261 1_555
O17 Re7 1.734261 1_555
O18 Re6 1.757752 1_555
O19 Re7 1.757752 1_555
O20 Re3 1.761281 1_556
O21 Re2 1.761281 1_555
O22 Re2 1.760398 1_555
O23 Re3 1.760398 1_555
O24 Re0 1.728970 1_545
O25 Re1 1.728970 1_455
O26 Re0 1.760014 1_555
O27 Re1 1.760014 1_555
O28 Re0 1.760915 1_555
O29 Re1 1.760915 1_555
O30 Re4 1.732312 1_555
O31 Re5 1.732312 1_554
O32 Re4 1.729742 1_555
O33 Re5 1.729742 1_555
O34 Re5 1.757162 1_555
O35 Re4 1.757162 1_555
