# generated using pymatgen
data_Mg2ZnP2
_symmetry_space_group_name_H-M   'P 1'
_cell_length_a   4.01405146
_cell_length_b   4.01405135
_cell_length_c   6.54387803
_cell_angle_alpha   90.00063333
_cell_angle_beta   90.00062182
_cell_angle_gamma   60.00047277
_symmetry_Int_Tables_number   1
_chemical_formula_structural   Mg2ZnP2
_chemical_formula_sum   'Mg2 Zn1 P2'
_cell_volume   91.31324083
_cell_formula_units_Z   1
loop_
 _symmetry_equiv_pos_site_id
 _symmetry_equiv_pos_as_xyz
  1  'x, y, z'
loop_
 _atom_site_type_symbol
 _atom_site_label
 _atom_site_symmetry_multiplicity
 _atom_site_fract_x
 _atom_site_fract_y
 _atom_site_fract_z
 _atom_site_occupancy
  Mg  Mg0  1  0.33332940  0.33332950  0.36584699  1
  Mg  Mg1  1  0.00000062  0.00000091  0.00572609  1
  Zn  Zn0  1  0.66666480  0.66666454  0.63858332  1
  P  P0  1  0.66666856  0.66666845  0.23329200  1
  P  P1  1  0.33333662  0.33333659  0.75655160  1
loop_
_geom_bond_atom_site_label_1
_geom_bond_atom_site_label_2
_geom_bond_distance
_geom_bond_site_symmetry_2
Mg0 P0 2.474515 1_455
Mg0 P0 2.474516 1_545
Mg0 P0 2.474571 1_555
Mg0 P1 2.556723 1_555
Mg1 P0 2.754723 1_455
Mg1 P0 2.754724 1_445
Mg1 P0 2.754724 1_545
Mg1 P1 2.833652 1_454
Mg1 P1 2.833652 1_544
Mg1 P1 2.833685 1_554
P0 Zn0 2.652177 1_555
P1 Zn0 2.442674 1_555
P1 Zn0 2.442728 1_455
P1 Zn0 2.442728 1_545
