# generated using pymatgen
data_Fe4(PO5)3
_symmetry_space_group_name_H-M   'P 1'
_cell_length_a   10.65795375
_cell_length_b   10.65795375
_cell_length_c   7.26543316
_cell_angle_alpha   79.69724962
_cell_angle_beta   79.69724962
_cell_angle_gamma   41.41813148
_symmetry_Int_Tables_number   1
_chemical_formula_structural   Fe4(PO5)3
_chemical_formula_sum   'Fe8 P6 O30'
_cell_volume   535.90022964
_cell_formula_units_Z   2
loop_
 _symmetry_equiv_pos_site_id
 _symmetry_equiv_pos_as_xyz
  1  'x, y, z'
loop_
 _atom_site_type_symbol
 _atom_site_label
 _atom_site_symmetry_multiplicity
 _atom_site_fract_x
 _atom_site_fract_y
 _atom_site_fract_z
 _atom_site_occupancy
  Fe  Fe0  1  0.65594700  0.18181500  0.65332600  1
  Fe  Fe1  1  0.81818500  0.34405300  0.84667400  1
  Fe  Fe2  1  0.34405300  0.81818500  0.34667400  1
  Fe  Fe3  1  0.18181500  0.65594700  0.15332600  1
  Fe  Fe4  1  0.18398100  0.15563600  0.64578000  1
  Fe  Fe5  1  0.84436400  0.81601900  0.85422000  1
  Fe  Fe6  1  0.81601900  0.84436400  0.35422000  1
  Fe  Fe7  1  0.15563600  0.18398100  0.14578000  1
  P  P0  1  0.46290400  0.19953000  0.08737700  1
  P  P1  1  0.80047000  0.53709600  0.41262300  1
  P  P2  1  0.53709600  0.80047000  0.91262300  1
  P  P3  1  0.19953000  0.46290400  0.58737700  1
  P  P4  1  0.87870000  0.12130000  0.25000000  1
  P  P5  1  0.12130000  0.87870000  0.75000000  1
  O  O0  1  0.65219700  0.34780300  0.75000000  1
  O  O1  1  0.34780300  0.65219700  0.25000000  1
  O  O2  1  0.04693100  0.26440100  0.90280700  1
  O  O3  1  0.73559900  0.95306900  0.59719300  1
  O  O4  1  0.95306900  0.73559900  0.09719300  1
  O  O5  1  0.26440100  0.04693100  0.40280700  1
  O  O6  1  0.22753600  0.74000700  0.92222200  1
  O  O7  1  0.25999300  0.77246400  0.57777800  1
  O  O8  1  0.77246400  0.25999300  0.07777800  1
  O  O9  1  0.74000700  0.22753600  0.42222200  1
  O  O10  1  0.38983400  0.38391900  0.60396500  1
  O  O11  1  0.61608100  0.61016600  0.89603500  1
  O  O12  1  0.61016600  0.61608100  0.39603500  1
  O  O13  1  0.38391900  0.38983400  0.10396500  1
  O  O14  1  0.42913900  0.93786800  0.74022500  1
  O  O15  1  0.06213200  0.57086100  0.75977500  1
  O  O16  1  0.57086100  0.06213200  0.25977500  1
  O  O17  1  0.93786800  0.42913900  0.24022500  1
  O  O18  1  0.61440700  0.10460500  0.91438900  1
  O  O19  1  0.89539500  0.38559300  0.58561100  1
  O  O20  1  0.38559300  0.89539500  0.08561100  1
  O  O21  1  0.10460500  0.61440700  0.41438900  1
  O  O22  1  0.06283100  0.06183700  0.75143300  1
  O  O23  1  0.93816300  0.93716900  0.74856700  1
  O  O24  1  0.93716900  0.93816300  0.24856700  1
  O  O25  1  0.06183700  0.06283100  0.25143300  1
  O  O26  1  0.22399200  0.30689700  0.55705800  1
  O  O27  1  0.69310300  0.77600800  0.94294200  1
  O  O28  1  0.77600800  0.69310300  0.44294200  1
  O  O29  1  0.30689700  0.22399200  0.05705800  1
loop_
_geom_bond_atom_site_label_1
_geom_bond_atom_site_label_2
_geom_bond_distance
_geom_bond_site_symmetry_2
Fe0 O9 1.919218 1_555
Fe0 O10 1.933226 1_555
Fe0 O0 1.988216 1_555
Fe0 O3 1.989575 1_545
Fe0 O18 2.039244 1_555
Fe0 O23 2.158975 1_545
Fe1 O8 1.919218 1_556
Fe1 O11 1.933226 1_555
Fe1 O0 1.988216 1_555
Fe1 O2 1.989575 1_655
Fe1 O19 2.039244 1_555
Fe1 O22 2.158975 1_655
Fe2 O7 1.919218 1_555
Fe2 O12 1.933226 1_555
Fe2 O1 1.988216 1_555
Fe2 O5 1.989575 1_565
Fe2 O20 2.039244 1_555
Fe2 O25 2.158975 1_565
Fe3 O6 1.919218 1_554
Fe3 O13 1.933226 1_555
Fe3 O1 1.988216 1_555
Fe3 O4 1.989575 1_455
Fe3 O21 2.039244 1_555
Fe3 O24 2.158975 1_455
Fe4 O14 1.913402 1_545
Fe4 O26 1.938392 1_555
Fe4 O5 1.973383 1_555
Fe4 O2 2.055161 1_555
Fe4 O19 2.109471 1_455
Fe4 O22 2.136079 1_555
Fe5 O15 1.913402 1_655
Fe5 O27 1.938392 1_555
Fe5 O4 1.973383 1_556
Fe5 O3 2.055161 1_555
Fe5 O18 2.109471 1_565
Fe5 O23 2.136079 1_555
Fe6 O16 1.913402 1_565
Fe6 O28 1.938392 1_555
Fe6 O3 1.973383 1_555
Fe6 O4 2.055161 1_555
Fe6 O21 2.109471 1_655
Fe6 O24 2.136079 1_555
Fe7 O17 1.913402 1_455
Fe7 O29 1.938392 1_555
Fe7 O2 1.973383 1_554
Fe7 O5 2.055161 1_555
Fe7 O20 2.109471 1_545
Fe7 O25 2.136079 1_555
O6 P5 1.538726 1_555
O7 P5 1.538726 1_555
O8 P4 1.538726 1_555
O9 P4 1.538726 1_555
O10 P3 1.525562 1_555
O11 P2 1.525562 1_555
O12 P1 1.525562 1_555
O13 P0 1.525562 1_555
O14 P2 1.539330 1_555
O15 P3 1.539330 1_555
O16 P0 1.539330 1_555
O17 P1 1.539330 1_555
O18 P0 1.577745 1_556
O19 P1 1.577745 1_555
O20 P2 1.577745 1_554
O21 P3 1.577745 1_555
O22 P5 1.542374 1_545
O23 P5 1.542374 1_655
O24 P4 1.542374 1_565
O25 P4 1.542374 1_455
O26 P3 1.530174 1_555
O27 P2 1.530174 1_555
O28 P1 1.530174 1_555
O29 P0 1.530174 1_555
