# generated using pymatgen
data_Sr11(SiN5)2
_symmetry_space_group_name_H-M   'P 1'
_cell_length_a   16.03098200
_cell_length_b   16.03098200
_cell_length_c   3.87727100
_cell_angle_alpha   90.00000000
_cell_angle_beta   90.00000000
_cell_angle_gamma   90.00000000
_symmetry_Int_Tables_number   1
_chemical_formula_structural   Sr11(SiN5)2
_chemical_formula_sum   'Sr22 Si4 N20'
_cell_volume   996.42911726
_cell_formula_units_Z   2
loop_
 _symmetry_equiv_pos_site_id
 _symmetry_equiv_pos_as_xyz
  1  'x, y, z'
loop_
 _atom_site_type_symbol
 _atom_site_label
 _atom_site_symmetry_multiplicity
 _atom_site_fract_x
 _atom_site_fract_y
 _atom_site_fract_z
 _atom_site_occupancy
  Sr  Sr0  1  0.50000000  0.50000000  0.50000000  1
  Sr  Sr1  1  0.00000000  0.00000000  0.00000000  1
  Sr  Sr2  1  0.97997100  0.79689100  0.50000000  1
  Sr  Sr3  1  0.02002900  0.20310900  0.50000000  1
  Sr  Sr4  1  0.52002900  0.29689100  0.00000000  1
  Sr  Sr5  1  0.47997100  0.70310900  0.00000000  1
  Sr  Sr6  1  0.79689100  0.97997100  0.50000000  1
  Sr  Sr7  1  0.20310900  0.02002900  0.50000000  1
  Sr  Sr8  1  0.29689100  0.52002900  0.00000000  1
  Sr  Sr9  1  0.70310900  0.47997100  0.00000000  1
  Sr  Sr10  1  0.66529700  0.66529700  0.50000000  1
  Sr  Sr11  1  0.33470300  0.33470300  0.50000000  1
  Sr  Sr12  1  0.83470300  0.16529700  0.00000000  1
  Sr  Sr13  1  0.16529700  0.83470300  0.00000000  1
  Sr  Sr14  1  0.37818900  0.89703700  0.50000000  1
  Sr  Sr15  1  0.62181100  0.10296300  0.50000000  1
  Sr  Sr16  1  0.12181100  0.39703700  0.00000000  1
  Sr  Sr17  1  0.87818900  0.60296300  0.00000000  1
  Sr  Sr18  1  0.89703700  0.37818900  0.50000000  1
  Sr  Sr19  1  0.10296300  0.62181100  0.50000000  1
  Sr  Sr20  1  0.39703700  0.12181100  0.00000000  1
  Sr  Sr21  1  0.60296300  0.87818900  0.00000000  1
  Si  Si0  1  0.31123500  0.68876500  0.50000000  1
  Si  Si1  1  0.68876500  0.31123500  0.50000000  1
  Si  Si2  1  0.18876500  0.18876500  0.00000000  1
  Si  Si3  1  0.81123500  0.81123500  0.00000000  1
  N  N0  1  0.08829400  0.91170600  0.50000000  1
  N  N1  1  0.91170600  0.08829400  0.50000000  1
  N  N2  1  0.41170600  0.41170600  0.00000000  1
  N  N3  1  0.58829400  0.58829400  0.00000000  1
  N  N4  1  0.48012300  0.18787600  0.50000000  1
  N  N5  1  0.51987700  0.81212400  0.50000000  1
  N  N6  1  0.01987700  0.68787600  0.00000000  1
  N  N7  1  0.98012300  0.31212400  0.00000000  1
  N  N8  1  0.18787600  0.48012300  0.50000000  1
  N  N9  1  0.81212400  0.51987700  0.50000000  1
  N  N10  1  0.68787600  0.01987700  0.00000000  1
  N  N11  1  0.31212400  0.98012300  0.00000000  1
  N  N12  1  0.24004100  0.75995900  0.50000000  1
  N  N13  1  0.75995900  0.24004100  0.50000000  1
  N  N14  1  0.25995900  0.25995900  0.00000000  1
  N  N15  1  0.74004100  0.74004100  0.00000000  1
  N  N16  1  0.38273800  0.61726200  0.50000000  1
  N  N17  1  0.61726200  0.38273800  0.50000000  1
  N  N18  1  0.11726200  0.11726200  0.00000000  1
  N  N19  1  0.88273800  0.88273800  0.00000000  1
loop_
_geom_bond_atom_site_label_1
_geom_bond_atom_site_label_2
_geom_bond_distance
_geom_bond_site_symmetry_2
N0 Sr7 2.530477 1_565
N0 Sr2 2.530477 1_455
N0 Sr13 2.608824 1_555
N0 Sr13 2.608824 1_556
N0 Sr1 2.786619 1_566
N0 Sr1 2.786619 1_565
N1 Sr3 2.530477 1_655
N1 Sr6 2.530477 1_545
N1 Sr12 2.608824 1_555
N1 Sr12 2.608824 1_556
N1 Sr1 2.786619 1_655
N1 Sr1 2.786619 1_656
N2 Sr4 2.530477 1_555
N2 Sr8 2.530477 1_555
N2 Sr11 2.608824 1_555
N2 Sr11 2.608824 1_554
N2 Sr0 2.786619 1_555
N2 Sr0 2.786619 1_554
N3 Sr5 2.530477 1_555
N3 Sr9 2.530477 1_555
N3 Sr10 2.608824 1_554
N3 Sr10 2.608824 1_555
N3 Sr0 2.786619 1_555
N3 Sr0 2.786619 1_554
N4 Sr20 2.579547 1_555
N4 Sr20 2.579547 1_556
N4 Sr15 2.648059 1_555
N4 Sr4 2.687328 1_556
N4 Sr4 2.687328 1_555
N5 Sr21 2.579547 1_556
N5 Sr21 2.579547 1_555
N5 Sr14 2.648059 1_555
N5 Sr5 2.687328 1_555
N5 Sr5 2.687328 1_556
N6 Sr19 2.579547 1_555
N6 Sr19 2.579547 1_554
N6 Sr17 2.648059 1_455
N6 Sr2 2.687328 1_455
N6 Sr2 2.687328 1_454
N7 Sr18 2.579547 1_554
N7 Sr18 2.579547 1_555
N7 Sr16 2.648059 1_655
N7 Sr3 2.687328 1_654
N7 Sr3 2.687328 1_655
N8 Sr16 2.579547 1_555
N8 Sr16 2.579547 1_556
N8 Sr19 2.648059 1_555
N8 Sr8 2.687328 1_556
N8 Sr8 2.687328 1_555
N9 Sr17 2.579547 1_555
N9 Sr17 2.579547 1_556
N9 Sr18 2.648059 1_555
N9 Sr9 2.687328 1_555
N9 Sr9 2.687328 1_556
N10 Sr15 2.579547 1_555
N10 Sr15 2.579547 1_554
N10 Sr21 2.648059 1_545
N10 Sr6 2.687328 1_544
N10 Sr6 2.687328 1_545
N11 Sr14 2.579547 1_554
N11 Sr14 2.579547 1_555
N11 Sr20 2.648059 1_565
N11 Sr7 2.687328 1_565
N11 Sr7 2.687328 1_564
N12 Si0 1.614056 1_555
N12 Sr13 2.574834 1_555
N12 Sr13 2.574834 1_556
N12 Sr19 3.119880 1_555
N12 Sr14 3.119880 1_555
N13 Si1 1.614056 1_555
N13 Sr12 2.574834 1_555
N13 Sr12 2.574834 1_556
N13 Sr15 3.119880 1_555
N13 Sr18 3.119880 1_555
N14 Si2 1.614056 1_555
N14 Sr11 2.574834 1_555
N14 Sr11 2.574834 1_554
N14 Sr16 3.119880 1_555
N14 Sr20 3.119880 1_555
N15 Si3 1.614056 1_555
N15 Sr10 2.574834 1_554
N15 Sr10 2.574834 1_555
N15 Sr21 3.119880 1_555
N15 Sr17 3.119880 1_555
N16 Si0 1.621061 1_555
N16 Sr0 2.658474 1_555
N16 Sr8 2.842875 1_556
N16 Sr8 2.842875 1_555
N16 Sr5 2.842875 1_556
N16 Sr5 2.842875 1_555
N17 Si1 1.621061 1_555
N17 Sr0 2.658474 1_555
N17 Sr4 2.842875 1_556
N17 Sr4 2.842875 1_555
N17 Sr9 2.842875 1_555
N17 Sr9 2.842875 1_556
N18 Si2 1.621061 1_555
N18 Sr1 2.658474 1_555
N18 Sr3 2.842875 1_555
N18 Sr7 2.842875 1_554
N18 Sr7 2.842875 1_555
N18 Sr3 2.842875 1_554
N19 Si3 1.621061 1_555
N19 Sr1 2.658474 1_665
N19 Sr2 2.842875 1_555
N19 Sr2 2.842875 1_554
N19 Sr6 2.842875 1_554
N19 Sr6 2.842875 1_555
