# generated using pymatgen
data_CrN2
_symmetry_space_group_name_H-M   'P 1'
_cell_length_a   9.17002323
_cell_length_b   17.11654779
_cell_length_c   17.11654791
_cell_angle_alpha   75.07850154
_cell_angle_beta   74.46243385
_cell_angle_gamma   74.46243529
_symmetry_Int_Tables_number   1
_chemical_formula_structural   CrN2
_chemical_formula_sum   'Cr32 N64'
_cell_volume   2443.38753453
_cell_formula_units_Z   32
loop_
 _symmetry_equiv_pos_site_id
 _symmetry_equiv_pos_as_xyz
  1  'x, y, z'
loop_
 _atom_site_type_symbol
 _atom_site_label
 _atom_site_symmetry_multiplicity
 _atom_site_fract_x
 _atom_site_fract_y
 _atom_site_fract_z
 _atom_site_occupancy
  Cr  Cr0  1  0.93019456  0.88229256  0.88229256  1
  Cr  Cr1  1  0.06980544  0.11770744  0.11770744  1
  Cr  Cr2  1  0.69477969  0.11770744  0.11770744  1
  Cr  Cr3  1  0.30522031  0.88229256  0.88229256  1
  Cr  Cr4  1  0.92962877  0.75617294  0.75617294  1
  Cr  Cr5  1  0.07037123  0.24382706  0.24382706  1
  Cr  Cr6  1  0.44197465  0.24382706  0.24382706  1
  Cr  Cr7  1  0.55802535  0.75617294  0.75617294  1
  Cr  Cr8  1  0.08560400  0.58590947  0.87037796  1
  Cr  Cr9  1  0.91439600  0.12962204  0.41409053  1
  Cr  Cr10  1  0.54189143  0.41409053  0.12962204  1
  Cr  Cr11  1  0.45810857  0.87037796  0.58590947  1
  Cr  Cr12  1  0.91439600  0.41409053  0.12962204  1
  Cr  Cr13  1  0.08560400  0.87037796  0.58590947  1
  Cr  Cr14  1  0.45810857  0.58590947  0.87037796  1
  Cr  Cr15  1  0.54189143  0.12962204  0.41409053  1
  Cr  Cr16  1  0.97754584  0.60453665  0.06751103  1
  Cr  Cr17  1  0.02245416  0.93248897  0.39546335  1
  Cr  Cr18  1  0.64959351  0.39546335  0.93248897  1
  Cr  Cr19  1  0.35040649  0.06751103  0.60453665  1
  Cr  Cr20  1  0.02245416  0.39546335  0.93248897  1
  Cr  Cr21  1  0.97754584  0.06751103  0.60453665  1
  Cr  Cr22  1  0.35040649  0.60453665  0.06751103  1
  Cr  Cr23  1  0.64959351  0.93248897  0.39546335  1
  Cr  Cr24  1  0.75252837  0.79303362  0.07699150  1
  Cr  Cr25  1  0.24747163  0.92300850  0.20696638  1
  Cr  Cr26  1  0.62255348  0.20696638  0.92300850  1
  Cr  Cr27  1  0.37744652  0.07699150  0.79303362  1
  Cr  Cr28  1  0.24747163  0.20696638  0.92300850  1
  Cr  Cr29  1  0.75252837  0.07699150  0.79303362  1
  Cr  Cr30  1  0.37744652  0.79303362  0.07699150  1
  Cr  Cr31  1  0.62255348  0.92300850  0.20696638  1
  N  N0  1  0.10988999  0.89011001  0.89011001  1
  N  N1  1  0.89011001  0.10988999  0.10988999  1
  N  N2  1  0.95706016  0.81626966  0.81626966  1
  N  N3  1  0.04293984  0.18373034  0.18373034  1
  N  N4  1  0.58959948  0.18373034  0.18373034  1
  N  N5  1  0.41040052  0.81626966  0.81626966  1
  N  N6  1  0.83045930  0.84311862  0.97937305  1
  N  N7  1  0.16954070  0.02062695  0.15688138  1
  N  N8  1  0.65295097  0.15688138  0.02062695  1
  N  N9  1  0.34704903  0.97937305  0.84311862  1
  N  N10  1  0.16954070  0.15688138  0.02062695  1
  N  N11  1  0.83045930  0.97937305  0.84311862  1
  N  N12  1  0.34704903  0.84311862  0.97937305  1
  N  N13  1  0.65295097  0.02062695  0.15688138  1
  N  N14  1  0.73365808  0.76634192  0.76634192  1
  N  N15  1  0.26634192  0.23365808  0.23365808  1
  N  N16  1  0.00854717  0.65303883  0.78939706  1
  N  N17  1  0.99145283  0.21060294  0.34696117  1
  N  N18  1  0.45098306  0.34696117  0.21060294  1
  N  N19  1  0.54901694  0.78939706  0.65303883  1
  N  N20  1  0.99145283  0.34696117  0.21060294  1
  N  N21  1  0.00854717  0.78939706  0.65303883  1
  N  N22  1  0.54901694  0.65303883  0.78939706  1
  N  N23  1  0.45098306  0.21060294  0.34696117  1
  N  N24  1  0.27355154  0.59440499  0.85849193  1
  N  N25  1  0.72644846  0.14150807  0.40559501  1
  N  N26  1  0.72644846  0.40559501  0.14150807  1
  N  N27  1  0.27355154  0.85849193  0.59440499  1
  N  N28  1  0.98303959  0.60973474  0.96475548  1
  N  N29  1  0.01696041  0.03524452  0.39026526  1
  N  N30  1  0.55752981  0.39026526  0.03524452  1
  N  N31  1  0.44247019  0.96475548  0.60973474  1
  N  N32  1  0.01696041  0.39026526  0.03524452  1
  N  N33  1  0.98303959  0.96475548  0.60973474  1
  N  N34  1  0.44247019  0.60973474  0.96475548  1
  N  N35  1  0.55752981  0.03524452  0.39026526  1
  N  N36  1  0.91361169  0.51628904  0.12484862  1
  N  N37  1  0.08638831  0.87515138  0.48371096  1
  N  N38  1  0.55474935  0.48371096  0.87515138  1
  N  N39  1  0.44525065  0.12484862  0.51628904  1
  N  N40  1  0.08638831  0.48371096  0.87515138  1
  N  N41  1  0.91361169  0.12484862  0.51628904  1
  N  N42  1  0.44525065  0.51628904  0.12484862  1
  N  N43  1  0.55474935  0.87515138  0.48371096  1
  N  N44  1  0.16412894  0.59505491  0.07668722  1
  N  N45  1  0.83587106  0.92331278  0.40494509  1
  N  N46  1  0.83587106  0.40494509  0.92331278  1
  N  N47  1  0.16412894  0.07668722  0.59505491  1
  N  N48  1  0.86607505  0.69502326  0.09836703  1
  N  N49  1  0.13392495  0.90163297  0.30497674  1
  N  N50  1  0.65946534  0.30497674  0.90163297  1
  N  N51  1  0.34053466  0.09836703  0.69502326  1
  N  N52  1  0.13392495  0.30497674  0.90163297  1
  N  N53  1  0.86607505  0.09836703  0.69502326  1
  N  N54  1  0.34053466  0.69502326  0.09836703  1
  N  N55  1  0.65946534  0.90163297  0.30497674  1
  N  N56  1  0.56905746  0.78425189  0.07763319  1
  N  N57  1  0.43094254  0.92236681  0.21574811  1
  N  N58  1  0.43094254  0.21574811  0.92236681  1
  N  N59  1  0.56905746  0.07763319  0.78425189  1
  N  N60  1  0.73902470  0.85172421  0.14827579  1
  N  N61  1  0.26097530  0.85172421  0.14827579  1
  N  N62  1  0.73902470  0.14827579  0.85172421  1
  N  N63  1  0.26097530  0.14827579  0.85172421  1
loop_
_geom_bond_atom_site_label_1
_geom_bond_atom_site_label_2
_geom_bond_distance
_geom_bond_site_symmetry_2
Cr0 N2 1.724603 1_555
Cr0 N6 1.728523 1_555
Cr0 N11 1.728524 1_555
Cr0 N0 1.731058 1_655
Cr1 N3 1.724603 1_555
Cr1 N10 1.728523 1_555
Cr1 N7 1.728524 1_555
Cr1 N1 1.731058 1_455
Cr2 N4 1.724603 1_555
Cr2 N13 1.728524 1_555
Cr2 N8 1.728524 1_555
Cr2 N1 1.731058 1_555
Cr3 N5 1.724603 1_555
Cr3 N9 1.728524 1_555
Cr3 N12 1.728524 1_555
Cr3 N0 1.731058 1_555
Cr4 N14 1.723500 1_555
Cr4 N21 1.726982 1_655
Cr4 N16 1.726982 1_655
Cr4 N2 1.732536 1_555
Cr5 N15 1.723500 1_555
Cr5 N17 1.726982 1_455
Cr5 N20 1.726982 1_455
Cr5 N3 1.732536 1_555
Cr6 N15 1.723500 1_555
Cr6 N18 1.726982 1_555
Cr6 N23 1.726982 1_555
Cr6 N4 1.732536 1_555
Cr7 N14 1.723500 1_555
Cr7 N22 1.726982 1_555
Cr7 N19 1.726982 1_555
Cr7 N5 1.732536 1_555
Cr8 N24 1.721659 1_555
Cr8 N28 1.726346 1_455
Cr8 N40 1.728206 1_555
Cr8 N16 1.735052 1_555
Cr9 N25 1.721659 1_555
Cr9 N29 1.726346 1_655
Cr9 N41 1.728206 1_555
Cr9 N17 1.735052 1_555
Cr10 N26 1.721659 1_555
Cr10 N30 1.726346 1_555
Cr10 N42 1.728206 1_555
Cr10 N18 1.735052 1_555
Cr11 N27 1.721659 1_555
Cr11 N31 1.726346 1_555
Cr11 N43 1.728206 1_555
Cr11 N19 1.735052 1_555
Cr12 N26 1.721659 1_555
Cr12 N32 1.726346 1_655
Cr12 N36 1.728206 1_555
Cr12 N20 1.735052 1_555
Cr13 N27 1.721659 1_555
Cr13 N33 1.726346 1_455
Cr13 N37 1.728206 1_555
Cr13 N21 1.735052 1_555
Cr14 N24 1.721659 1_555
Cr14 N34 1.726346 1_555
Cr14 N38 1.728206 1_555
Cr14 N22 1.735052 1_555
Cr15 N25 1.721659 1_555
Cr15 N35 1.726346 1_555
Cr15 N39 1.728206 1_555
Cr15 N23 1.735052 1_555
Cr16 N44 1.720613 1_655
Cr16 N28 1.725759 1_554
Cr16 N36 1.729521 1_555
Cr16 N48 1.733929 1_555
Cr17 N45 1.720613 1_455
Cr17 N29 1.725759 1_565
Cr17 N37 1.729521 1_555
Cr17 N49 1.733929 1_555
Cr18 N46 1.720613 1_555
Cr18 N30 1.725759 1_556
Cr18 N38 1.729521 1_555
Cr18 N50 1.733929 1_555
Cr19 N47 1.720613 1_555
Cr19 N31 1.725759 1_545
Cr19 N39 1.729521 1_555
Cr19 N51 1.733929 1_555
Cr20 N46 1.720613 1_455
Cr20 N32 1.725759 1_556
Cr20 N40 1.729521 1_555
Cr20 N52 1.733929 1_555
Cr21 N47 1.720613 1_655
Cr21 N33 1.725759 1_545
Cr21 N41 1.729521 1_555
Cr21 N53 1.733929 1_555
Cr22 N44 1.720613 1_555
Cr22 N34 1.725759 1_554
Cr22 N42 1.729521 1_555
Cr22 N54 1.733929 1_555
Cr23 N45 1.720613 1_555
Cr23 N35 1.725759 1_565
Cr23 N43 1.729521 1_555
Cr23 N55 1.733929 1_555
Cr24 N56 1.725696 1_555
Cr24 N48 1.727583 1_555
Cr24 N6 1.728677 1_554
Cr24 N60 1.731159 1_555
Cr25 N57 1.725696 1_555
Cr25 N49 1.727583 1_555
Cr25 N7 1.728677 1_565
Cr25 N61 1.731159 1_555
Cr26 N58 1.725696 1_555
Cr26 N50 1.727583 1_555
Cr26 N8 1.728677 1_556
Cr26 N62 1.731159 1_555
Cr27 N59 1.725696 1_555
Cr27 N51 1.727583 1_555
Cr27 N9 1.728677 1_545
Cr27 N63 1.731159 1_555
Cr28 N58 1.725696 1_555
Cr28 N52 1.727583 1_555
Cr28 N10 1.728677 1_556
Cr28 N63 1.731159 1_555
Cr29 N59 1.725696 1_555
Cr29 N53 1.727583 1_555
Cr29 N11 1.728677 1_545
Cr29 N62 1.731159 1_555
Cr30 N56 1.725696 1_555
Cr30 N54 1.727583 1_555
Cr30 N12 1.728677 1_554
Cr30 N61 1.731159 1_555
Cr31 N57 1.725696 1_555
Cr31 N55 1.727583 1_555
Cr31 N13 1.728677 1_565
Cr31 N60 1.731159 1_555
