# generated using pymatgen
data_CsSb2PO8
_symmetry_space_group_name_H-M   'P 1'
_cell_length_a   9.81795432
_cell_length_b   9.81795432
_cell_length_c   13.73261856
_cell_angle_alpha   61.84317587
_cell_angle_beta   61.84317587
_cell_angle_gamma   42.97634751
_symmetry_Int_Tables_number   1
_chemical_formula_structural   CsSb2PO8
_chemical_formula_sum   'Cs4 Sb8 P4 O32'
_cell_volume   777.72518321
_cell_formula_units_Z   4
loop_
 _symmetry_equiv_pos_site_id
 _symmetry_equiv_pos_as_xyz
  1  'x, y, z'
loop_
 _atom_site_type_symbol
 _atom_site_label
 _atom_site_symmetry_multiplicity
 _atom_site_fract_x
 _atom_site_fract_y
 _atom_site_fract_z
 _atom_site_occupancy
  Cs  Cs0  1  0.13650342  0.13650342  0.58546824  1
  Cs  Cs1  1  0.86349658  0.86349658  0.41453176  1
  Cs  Cs2  1  0.88917440  0.88917440  0.92751908  1
  Cs  Cs3  1  0.11082560  0.11082560  0.07248092  1
  Sb  Sb0  1  0.04531401  0.54326424  0.73070676  1
  Sb  Sb1  1  0.54326424  0.04531401  0.73070676  1
  Sb  Sb2  1  0.95468599  0.45673576  0.26929324  1
  Sb  Sb3  1  0.45673576  0.95468599  0.26929324  1
  Sb  Sb4  1  0.54900648  0.54900648  0.23622138  1
  Sb  Sb5  1  0.45099352  0.45099352  0.76377862  1
  Sb  Sb6  1  0.62662035  0.62662035  0.72973853  1
  Sb  Sb7  1  0.37337965  0.37337965  0.27026147  1
  P  P0  1  0.65872822  0.65872822  0.93775504  1
  P  P1  1  0.34127178  0.34127178  0.06224496  1
  P  P2  1  0.60726104  0.60726104  0.50394213  1
  P  P3  1  0.39273896  0.39273896  0.49605787  1
  O  O0  1  0.17492751  0.58800868  0.77035296  1
  O  O1  1  0.58800868  0.17492751  0.77035296  1
  O  O2  1  0.82507249  0.41199132  0.22964704  1
  O  O3  1  0.41199132  0.82507249  0.22964704  1
  O  O4  1  0.51293164  0.51293164  0.59277102  1
  O  O5  1  0.48706836  0.48706836  0.40722898  1
  O  O6  1  0.59634485  0.59634485  0.89390600  1
  O  O7  1  0.40365515  0.40365515  0.10609400  1
  O  O8  1  0.24761259  0.24761259  0.77604724  1
  O  O9  1  0.75238741  0.75238741  0.22395276  1
  O  O10  1  0.54027030  0.89048111  0.89586623  1
  O  O11  1  0.89048111  0.54027030  0.89586623  1
  O  O12  1  0.45972970  0.10951889  0.10413377  1
  O  O13  1  0.10951889  0.45972970  0.10413377  1
  O  O14  1  0.83929553  0.83929553  0.68855777  1
  O  O15  1  0.16070447  0.16070447  0.31144223  1
  O  O16  1  0.66167690  0.66167690  0.56055161  1
  O  O17  1  0.33832310  0.33832310  0.43944839  1
  O  O18  1  0.50305711  0.90972866  0.69197086  1
  O  O19  1  0.90972866  0.50305711  0.69197086  1
  O  O20  1  0.49694289  0.09027134  0.30802914  1
  O  O21  1  0.09027134  0.49694289  0.30802914  1
  O  O22  1  0.35620393  0.71358323  0.76028868  1
  O  O23  1  0.71358323  0.35620393  0.76028868  1
  O  O24  1  0.64379607  0.28641677  0.23971132  1
  O  O25  1  0.28641677  0.64379607  0.23971132  1
  O  O26  1  0.19666188  0.54893046  0.56799930  1
  O  O27  1  0.54893046  0.19666188  0.56799930  1
  O  O28  1  0.80333812  0.45106954  0.43200070  1
  O  O29  1  0.45106954  0.80333812  0.43200070  1
  O  O30  1  0.38961331  0.38961331  0.93552014  1
  O  O31  1  0.61038669  0.61038669  0.06447986  1
loop_
_geom_bond_atom_site_label_1
_geom_bond_atom_site_label_2
_geom_bond_distance
_geom_bond_site_symmetry_2
Cs0 O23 3.167159 1_455
Cs0 O22 3.167159 1_545
Cs0 O17 3.180974 1_555
Cs0 O18 3.196450 1_545
Cs0 O19 3.196450 1_455
Cs0 O28 3.203167 1_455
Cs0 O29 3.203167 1_545
Cs1 O24 3.167159 1_565
Cs1 O25 3.167159 1_655
Cs1 O16 3.180974 1_555
Cs1 O20 3.196450 1_565
Cs1 O21 3.196450 1_655
Cs1 O27 3.203167 1_565
Cs1 O26 3.203167 1_655
Cs2 O0 3.072751 1_655
Cs2 O1 3.072751 1_565
Cs2 O12 3.208340 1_566
Cs2 O13 3.208340 1_656
Cs2 O22 3.391502 1_655
Cs2 O23 3.391502 1_565
Cs2 O9 3.535332 1_556
Cs2 O30 3.598218 1_565
Cs2 O30 3.598218 1_655
Cs2 O10 3.641295 1_555
Cs2 O11 3.641295 1_555
Cs3 O2 3.072751 1_455
Cs3 O3 3.072751 1_545
Cs3 O10 3.208340 1_544
Cs3 O11 3.208340 1_454
Cs3 O24 3.391502 1_455
Cs3 O25 3.391502 1_545
Cs3 O8 3.535332 1_554
Cs3 O31 3.598218 1_545
Cs3 O31 3.598218 1_455
Cs3 O13 3.641295 1_555
Cs3 O12 3.641295 1_555
O0 Sb5 1.926793 1_555
O0 Sb0 1.950991 1_555
O1 Sb5 1.926793 1_555
O1 Sb1 1.950991 1_555
O2 Sb4 1.926793 1_555
O2 Sb2 1.950991 1_555
O3 Sb4 1.926793 1_555
O3 Sb3 1.950991 1_555
O4 P2 1.525146 1_555
O4 Sb5 2.024859 1_555
O5 P3 1.525146 1_555
O5 Sb4 2.024859 1_555
O6 P0 1.535551 1_555
O6 Sb6 2.030677 1_555
O7 P1 1.535551 1_555
O7 Sb7 2.030677 1_555
O8 Sb0 1.945121 1_555
O8 Sb1 1.945121 1_555
O9 Sb2 1.945121 1_555
O9 Sb3 1.945121 1_555
O10 P0 1.544219 1_555
O10 Sb1 2.050458 1_565
O11 P0 1.544219 1_555
O11 Sb0 2.050458 1_655
O12 P1 1.544219 1_555
O12 Sb3 2.050458 1_545
O13 P1 1.544219 1_555
O13 Sb2 2.050458 1_455
O14 Sb1 1.946425 1_565
O14 Sb0 1.946425 1_655
O15 Sb3 1.946425 1_545
O15 Sb2 1.946425 1_455
O16 P2 1.541687 1_555
O16 Sb6 2.073390 1_555
O17 P3 1.541687 1_555
O17 Sb7 2.073390 1_555
O18 Sb6 1.940548 1_555
O18 Sb1 1.961175 1_565
O19 Sb6 1.940548 1_555
O19 Sb0 1.961175 1_655
O20 Sb7 1.940548 1_555
O20 Sb3 1.961175 1_545
O21 Sb7 1.940548 1_555
O21 Sb2 1.961175 1_455
O22 Sb6 1.980809 1_555
O22 Sb5 1.982334 1_555
O23 Sb6 1.980809 1_555
O23 Sb5 1.982334 1_555
O24 Sb7 1.980809 1_555
O24 Sb4 1.982334 1_555
O25 Sb7 1.980809 1_555
O25 Sb4 1.982334 1_555
O26 P3 1.532554 1_555
O26 Sb0 2.018363 1_555
O27 P3 1.532554 1_555
O27 Sb1 2.018363 1_555
O28 P2 1.532554 1_555
O28 Sb2 2.018363 1_555
O29 P2 1.532554 1_555
O29 Sb3 2.018363 1_555
O30 P1 1.499874 1_556
O30 Sb5 2.034045 1_555
O31 P0 1.499874 1_554
O31 Sb4 2.034045 1_555
