# generated using pymatgen
data_Sr3Ti2Mn2BiO12
_symmetry_space_group_name_H-M   'P 1'
_cell_length_a   9.57145452
_cell_length_b   9.57145452
_cell_length_c   9.57145543
_cell_angle_alpha   33.72268545
_cell_angle_beta   33.72268545
_cell_angle_gamma   33.72268228
_symmetry_Int_Tables_number   1
_chemical_formula_structural   Sr3Ti2Mn2BiO12
_chemical_formula_sum   'Sr3 Ti2 Mn2 Bi1 O12'
_cell_volume   240.79809373
_cell_formula_units_Z   1
loop_
 _symmetry_equiv_pos_site_id
 _symmetry_equiv_pos_as_xyz
  1  'x, y, z'
loop_
 _atom_site_type_symbol
 _atom_site_label
 _atom_site_symmetry_multiplicity
 _atom_site_fract_x
 _atom_site_fract_y
 _atom_site_fract_z
 _atom_site_occupancy
  Sr  Sr0  1  0.74873700  0.74873700  0.74873700  1
  Sr  Sr1  1  0.50000000  0.50000000  0.50000000  1
  Sr  Sr2  1  0.25126300  0.25126300  0.25126300  1
  Ti  Ti0  1  0.12458500  0.12458500  0.12458500  1
  Ti  Ti1  1  0.87541500  0.87541500  0.87541500  1
  Mn  Mn0  1  0.62529600  0.62529600  0.62529600  1
  Mn  Mn1  1  0.37470400  0.37470400  0.37470400  1
  Bi  Bi0  1  0.00000000  0.00000000  0.00000000  1
  O  O0  1  0.24642900  0.75287600  0.24642900  1
  O  O1  1  0.50000000  0.00000000  0.50000000  1
  O  O2  1  0.00000000  0.50000000  0.00000000  1
  O  O3  1  0.75357100  0.24712400  0.75357100  1
  O  O4  1  0.50000000  0.50000000  0.00000000  1
  O  O5  1  0.75357100  0.75357100  0.24712400  1
  O  O6  1  0.24642900  0.24642900  0.75287600  1
  O  O7  1  0.00000000  0.00000000  0.50000000  1
  O  O8  1  0.00000000  0.50000000  0.50000000  1
  O  O9  1  0.24712400  0.75357100  0.75357100  1
  O  O10  1  0.75287600  0.24642900  0.24642900  1
  O  O11  1  0.50000000  0.00000000  0.00000000  1
loop_
_geom_bond_atom_site_label_1
_geom_bond_atom_site_label_2
_geom_bond_distance
_geom_bond_site_symmetry_2
Mn0 O1 1.955017 1_565
Mn0 O8 1.955017 1_655
Mn0 O4 1.955018 1_556
Mn0 O3 1.959338 1_555
Mn0 O9 1.959338 1_555
Mn0 O5 1.959339 1_555
Mn1 O1 1.955017 1_555
Mn1 O8 1.955017 1_555
Mn1 O4 1.955018 1_555
Mn1 O0 1.959338 1_555
Mn1 O10 1.959338 1_555
Mn1 O6 1.959339 1_555
Bi0 O6 2.723026 1_554
Bi0 O5 2.723026 1_445
Bi0 O10 2.723026 1_455
Bi0 O0 2.723026 1_545
Bi0 O3 2.723026 1_454
Bi0 O9 2.723026 1_544
Bi0 O4 2.776263 1_545
Bi0 O4 2.776263 1_455
Bi0 O1 2.776263 1_455
Bi0 O8 2.776263 1_545
Bi0 O1 2.776263 1_554
Bi0 O8 2.776263 1_554
O0 Ti0 1.958680 1_565
O0 Sr0 2.776344 1_554
O0 Sr0 2.776344 1_455
O0 Sr1 2.809690 1_555
O1 Sr0 2.738573 1_545
O1 Sr2 2.738573 1_555
O2 Ti1 1.966094 1_454
O2 Ti0 1.966094 1_555
O2 Sr1 2.776263 1_554
O2 Sr1 2.776263 1_455
O2 Sr2 2.794274 1_555
O2 Sr0 2.794274 1_454
O3 Ti1 1.958680 1_545
O3 Sr2 2.776344 1_556
O3 Sr2 2.776344 1_655
O3 Sr1 2.809690 1_555
O4 Sr2 2.738573 1_555
O4 Sr0 2.738573 1_554
O5 Ti1 1.958681 1_554
O5 Sr2 2.776343 1_655
O5 Sr2 2.776343 1_565
O5 Sr1 2.809690 1_555
O6 Ti0 1.958681 1_556
O6 Sr0 2.776343 1_545
O6 Sr0 2.776343 1_455
O6 Sr1 2.809690 1_555
O7 Ti1 1.966095 1_445
O7 Ti0 1.966095 1_555
O7 Sr1 2.776263 1_545
O7 Sr1 2.776263 1_455
O7 Sr0 2.794273 1_445
O7 Sr2 2.794273 1_555
O8 Sr2 2.738573 1_555
O8 Sr0 2.738573 1_455
O9 Ti1 1.958680 1_455
O9 Sr2 2.776344 1_556
O9 Sr2 2.776344 1_565
O9 Sr1 2.809690 1_555
O10 Ti0 1.958680 1_655
O10 Sr0 2.776344 1_554
O10 Sr0 2.776344 1_545
O10 Sr1 2.809690 1_555
O11 Ti1 1.966094 1_544
O11 Ti0 1.966094 1_555
O11 Sr1 2.776263 1_554
O11 Sr1 2.776263 1_545
O11 Sr0 2.794274 1_544
O11 Sr2 2.794274 1_555
