# generated using pymatgen
data_MgSiO3
_symmetry_space_group_name_H-M   'P 1'
_cell_length_a   8.96474800
_cell_length_b   5.27939700
_cell_length_c   18.68860856
_cell_angle_alpha   84.76841032
_cell_angle_beta   90.00000000
_cell_angle_gamma   90.00000000
_symmetry_Int_Tables_number   1
_chemical_formula_structural   MgSiO3
_chemical_formula_sum   'Mg16 Si16 O48'
_cell_volume   880.81853705
_cell_formula_units_Z   16
loop_
 _symmetry_equiv_pos_site_id
 _symmetry_equiv_pos_as_xyz
  1  'x, y, z'
loop_
 _atom_site_type_symbol
 _atom_site_label
 _atom_site_symmetry_multiplicity
 _atom_site_fract_x
 _atom_site_fract_y
 _atom_site_fract_z
 _atom_site_occupancy
  Mg  Mg0  1  0.09815400  0.56689600  0.81288800  1
  Mg  Mg1  1  0.90184600  0.06689600  0.81288800  1
  Mg  Mg2  1  0.74025300  0.56195900  0.81621800  1
  Mg  Mg3  1  0.25974700  0.06195900  0.81621800  1
  Mg  Mg4  1  0.40037100  0.18684600  0.56358400  1
  Mg  Mg5  1  0.59962900  0.68684600  0.56358400  1
  Mg  Mg6  1  0.75544700  0.18538000  0.56408800  1
  Mg  Mg7  1  0.24455300  0.68538000  0.56408800  1
  Mg  Mg8  1  0.09961200  0.81946200  0.31238000  1
  Mg  Mg9  1  0.90038800  0.31946200  0.31238000  1
  Mg  Mg10  1  0.74105700  0.81776300  0.31084500  1
  Mg  Mg11  1  0.25894300  0.31776300  0.31084500  1
  Mg  Mg12  1  0.40158100  0.75865400  0.06057500  1
  Mg  Mg13  1  0.59841900  0.25865400  0.06057500  1
  Mg  Mg14  1  0.23828100  0.26501000  0.05843900  1
  Mg  Mg15  1  0.76171900  0.76501000  0.05843900  1
  Si  Si0  1  0.91368200  0.35484200  0.96316500  1
  Si  Si1  1  0.08631800  0.85484200  0.96316500  1
  Si  Si2  1  0.41341000  0.46981600  0.91107300  1
  Si  Si3  1  0.58659000  0.96981600  0.91107300  1
  Si  Si4  1  0.41071000  0.80466300  0.71120400  1
  Si  Si5  1  0.58929000  0.30466300  0.71120400  1
  Si  Si6  1  0.09082300  0.27877000  0.66686500  1
  Si  Si7  1  0.90917700  0.77877000  0.66686500  1
  Si  Si8  1  0.58881000  0.07309600  0.41608800  1
  Si  Si9  1  0.41119000  0.57309600  0.41608800  1
  Si  Si10  1  0.08969800  0.10685800  0.46077800  1
  Si  Si11  1  0.91030200  0.60685800  0.46077800  1
  Si  Si12  1  0.08996100  0.52826700  0.16385800  1
  Si  Si13  1  0.91003900  0.02826700  0.16385800  1
  Si  Si14  1  0.40992400  0.05239000  0.20647400  1
  Si  Si15  1  0.59007600  0.55239000  0.20647400  1
  O  O0  1  0.91055300  0.38000000  0.87510100  1
  O  O1  1  0.08944700  0.88000000  0.87510100  1
  O  O2  1  0.76895200  0.45131400  0.00378500  1
  O  O3  1  0.23104800  0.95131400  0.00378500  1
  O  O4  1  0.05400700  0.54302100  0.98855400  1
  O  O5  1  0.94599300  0.04302100  0.98855400  1
  O  O6  1  0.40991500  0.44447900  0.99911800  1
  O  O7  1  0.59008500  0.94447900  0.99911800  1
  O  O8  1  0.55356600  0.28138800  0.88576300  1
  O  O9  1  0.44643400  0.78138800  0.88576300  1
  O  O10  1  0.73145300  0.87498400  0.87025700  1
  O  O11  1  0.26854700  0.37498400  0.87025700  1
  O  O12  1  0.41139000  0.83425100  0.62340400  1
  O  O13  1  0.58861000  0.33425100  0.62340400  1
  O  O14  1  0.25261200  0.77035100  0.75099600  1
  O  O15  1  0.74738800  0.27035100  0.75099600  1
  O  O16  1  0.46757800  0.08045900  0.74091800  1
  O  O17  1  0.53242200  0.58045900  0.74091800  1
  O  O18  1  0.09209600  0.25192700  0.75488100  1
  O  O19  1  0.90790400  0.75192700  0.75488100  1
  O  O20  1  0.24587400  0.35435100  0.62613000  1
  O  O21  1  0.75412600  0.85435100  0.62613000  1
  O  O22  1  0.97426300  0.51263000  0.63804200  1
  O  O23  1  0.02573700  0.01263000  0.63804200  1
  O  O24  1  0.40912600  0.54159800  0.50391400  1
  O  O25  1  0.59087400  0.04159800  0.50391400  1
  O  O26  1  0.74142200  0.11807200  0.37198500  1
  O  O27  1  0.25857800  0.61807200  0.37198500  1
  O  O28  1  0.46277500  0.29180700  0.38881200  1
  O  O29  1  0.53722500  0.79180700  0.38881200  1
  O  O30  1  0.09295700  0.13112800  0.37266600  1
  O  O31  1  0.90704300  0.63112800  0.37266600  1
  O  O32  1  0.75863200  0.51759800  0.50280600  1
  O  O33  1  0.24136800  0.01759800  0.50280600  1
  O  O34  1  0.03626000  0.38443500  0.48806100  1
  O  O35  1  0.96374000  0.88443500  0.48806100  1
  O  O36  1  0.08969700  0.50823500  0.25157500  1
  O  O37  1  0.91030300  0.00823500  0.25157500  1
  O  O38  1  0.75206400  0.05825300  0.12339600  1
  O  O39  1  0.24793600  0.55825300  0.12339600  1
  O  O40  1  0.03011400  0.25503800  0.13369800  1
  O  O41  1  0.96988600  0.75503800  0.13369800  1
  O  O42  1  0.40772700  0.07280500  0.11880000  1
  O  O43  1  0.59227300  0.57280500  0.11880000  1
  O  O44  1  0.25492600  0.01856700  0.24966500  1
  O  O45  1  0.74507400  0.51856700  0.24966500  1
  O  O46  1  0.46913200  0.32664200  0.23515200  1
  O  O47  1  0.53086800  0.82664200  0.23515200  1
loop_
_geom_bond_atom_site_label_1
_geom_bond_atom_site_label_2
_geom_bond_distance
_geom_bond_site_symmetry_2
Mg0 O14 2.045090 1_555
Mg0 O18 2.066870 1_555
Mg0 O11 2.076363 1_555
Mg0 O1 2.107320 1_555
Mg0 O19 2.201183 1_455
Mg0 O0 2.223649 1_455
Mg1 O15 2.045090 1_555
Mg1 O19 2.066870 1_545
Mg1 O10 2.076363 1_545
Mg1 O0 2.107320 1_555
Mg1 O18 2.201183 1_655
Mg1 O1 2.223649 1_645
Mg2 O10 2.015326 1_555
Mg2 O15 2.049913 1_555
Mg2 O0 2.066836 1_555
Mg2 O19 2.090228 1_555
Mg2 O17 2.331560 1_555
Mg2 O8 2.516579 1_555
Mg3 O11 2.015326 1_555
Mg3 O14 2.049913 1_545
Mg3 O1 2.066836 1_545
Mg3 O18 2.090228 1_555
Mg3 O16 2.331560 1_555
Mg3 O9 2.516579 1_545
Mg4 O20 2.062804 1_555
Mg4 O33 2.074963 1_555
Mg4 O12 2.084516 1_545
Mg4 O24 2.092012 1_555
Mg4 O13 2.204947 1_555
Mg4 O25 2.214528 1_555
Mg5 O21 2.062804 1_555
Mg5 O32 2.074963 1_555
Mg5 O13 2.084516 1_555
Mg5 O25 2.092012 1_565
Mg5 O12 2.204947 1_555
Mg5 O24 2.214528 1_555
Mg6 O32 2.005582 1_555
Mg6 O21 2.007292 1_545
Mg6 O25 2.042843 1_555
Mg6 O13 2.059714 1_555
Mg7 O33 2.005582 1_565
Mg7 O20 2.007292 1_555
Mg7 O24 2.042843 1_555
Mg7 O12 2.059714 1_555
Mg8 O27 2.046016 1_555
Mg8 O44 2.047586 1_565
Mg8 O30 2.078067 1_565
Mg8 O36 2.083138 1_555
Mg8 O37 2.226699 1_465
Mg8 O31 2.243639 1_455
Mg9 O26 2.046016 1_555
Mg9 O45 2.047586 1_555
Mg9 O31 2.078067 1_555
Mg9 O37 2.083138 1_555
Mg9 O36 2.226699 1_655
Mg9 O30 2.243639 1_655
Mg10 O45 2.032978 1_555
Mg10 O26 2.037060 1_565
Mg10 O31 2.076607 1_555
Mg10 O37 2.082557 1_565
Mg10 O29 2.333351 1_555
Mg10 O47 2.354091 1_555
Mg11 O44 2.032978 1_555
Mg11 O27 2.037060 1_555
Mg11 O30 2.076607 1_555
Mg11 O36 2.082557 1_555
Mg11 O28 2.333351 1_555
Mg11 O46 2.354091 1_555
Mg12 O39 2.041666 1_555
Mg12 O42 2.065653 1_565
Mg12 O3 2.073954 1_555
Mg12 O6 2.103160 1_554
Mg12 O43 2.207818 1_555
Mg12 O7 2.220778 1_554
Mg13 O38 2.041666 1_555
Mg13 O43 2.065653 1_555
Mg13 O2 2.073954 1_555
Mg13 O7 2.103160 1_544
Mg13 O42 2.207818 1_555
Mg13 O6 2.220778 1_554
Mg14 O3 2.024527 1_545
Mg14 O39 2.054426 1_555
Mg14 O6 2.074293 1_554
Mg14 O42 2.097840 1_555
Mg14 O40 2.334532 1_555
Mg14 O4 2.497886 1_554
Mg15 O2 2.024527 1_555
Mg15 O38 2.054426 1_565
Mg15 O7 2.074293 1_554
Mg15 O43 2.097840 1_555
Mg15 O41 2.334532 1_555
Mg15 O5 2.497886 1_564
O0 Si0 1.639268 1_555
O1 Si1 1.639268 1_555
O2 Si0 1.609227 1_554
O3 Si1 1.609227 1_554
O4 Si1 1.696071 1_555
O4 Si0 1.697232 1_455
O5 Si0 1.696071 1_555
O5 Si1 1.697232 1_645
O6 Si2 1.638964 1_555
O7 Si3 1.638964 1_555
O8 Si3 1.695651 1_545
O8 Si2 1.696422 1_555
O9 Si2 1.695651 1_555
O9 Si3 1.696422 1_555
O10 Si3 1.608936 1_555
O11 Si2 1.608936 1_555
O12 Si4 1.634049 1_555
O13 Si5 1.634049 1_555
O14 Si4 1.603134 1_555
O15 Si5 1.603134 1_555
O16 Si5 1.667362 1_555
O16 Si4 1.683974 1_545
O17 Si4 1.667362 1_555
O17 Si5 1.683974 1_555
O18 Si6 1.638105 1_555
O19 Si7 1.638105 1_555
O20 Si6 1.617236 1_555
O21 Si7 1.617236 1_555
O22 Si7 1.656145 1_555
O22 Si6 1.668859 1_655
O23 Si6 1.656145 1_555
O23 Si7 1.668859 1_445
O24 Si9 1.634698 1_555
O25 Si8 1.634698 1_555
O26 Si8 1.603686 1_555
O27 Si9 1.603686 1_555
O28 Si8 1.662036 1_555
O28 Si9 1.678417 1_555
O29 Si9 1.662036 1_555
O29 Si8 1.678417 1_565
O30 Si10 1.640239 1_555
O31 Si11 1.640239 1_555
O32 Si11 1.618712 1_555
O33 Si10 1.618712 1_555
O34 Si10 1.665308 1_555
O34 Si11 1.674732 1_455
O35 Si11 1.665308 1_555
O35 Si10 1.674732 1_665
O36 Si12 1.633067 1_555
O37 Si13 1.633067 1_555
O38 Si13 1.606448 1_555
O39 Si12 1.606448 1_555
O40 Si13 1.669338 1_455
O40 Si12 1.683621 1_555
O41 Si12 1.669338 1_655
O41 Si13 1.683621 1_565
O42 Si14 1.632329 1_555
O43 Si15 1.632329 1_555
O44 Si14 1.608695 1_555
O45 Si15 1.608695 1_555
O46 Si15 1.663351 1_555
O46 Si14 1.675369 1_555
O47 Si14 1.663351 1_565
O47 Si15 1.675369 1_555
