# generated using pymatgen
data_NaSrPO4
_symmetry_space_group_name_H-M   'P 1'
_cell_length_a   5.50831100
_cell_length_b   7.11679300
_cell_length_c   9.77443900
_cell_angle_alpha   90.00000000
_cell_angle_beta   90.00000000
_cell_angle_gamma   90.00000000
_symmetry_Int_Tables_number   1
_chemical_formula_structural   NaSrPO4
_chemical_formula_sum   'Na4 Sr4 P4 O16'
_cell_volume   383.17276006
_cell_formula_units_Z   4
loop_
 _symmetry_equiv_pos_site_id
 _symmetry_equiv_pos_as_xyz
  1  'x, y, z'
loop_
 _atom_site_type_symbol
 _atom_site_label
 _atom_site_symmetry_multiplicity
 _atom_site_fract_x
 _atom_site_fract_y
 _atom_site_fract_z
 _atom_site_occupancy
  Na  Na0  1  0.25000000  0.67456600  0.92888600  1
  Na  Na1  1  0.75000000  0.32543400  0.07111400  1
  Na  Na2  1  0.75000000  0.82543400  0.42888600  1
  Na  Na3  1  0.25000000  0.17456600  0.57111400  1
  Sr  Sr0  1  0.25000000  0.99092200  0.19846300  1
  Sr  Sr1  1  0.75000000  0.00907800  0.80153700  1
  Sr  Sr2  1  0.75000000  0.50907800  0.69846300  1
  Sr  Sr3  1  0.25000000  0.49092200  0.30153700  1
  P  P0  1  0.25000000  0.73039400  0.57913200  1
  P  P1  1  0.75000000  0.26960600  0.42086800  1
  P  P2  1  0.75000000  0.76960600  0.07913200  1
  P  P3  1  0.25000000  0.23039400  0.92086800  1
  O  O0  1  0.01835400  0.80354700  0.65237500  1
  O  O1  1  0.98164600  0.19645300  0.34762500  1
  O  O2  1  0.98164600  0.69645300  0.15237500  1
  O  O3  1  0.51835400  0.19645300  0.34762500  1
  O  O4  1  0.01835400  0.30354700  0.84762500  1
  O  O5  1  0.48164600  0.80354700  0.65237500  1
  O  O6  1  0.48164600  0.30354700  0.84762500  1
  O  O7  1  0.51835400  0.69645300  0.15237500  1
  O  O8  1  0.25000000  0.51156400  0.57761600  1
  O  O9  1  0.75000000  0.48843600  0.42238400  1
  O  O10  1  0.75000000  0.98843600  0.07761600  1
  O  O11  1  0.25000000  0.01156400  0.92238400  1
  O  O12  1  0.25000000  0.30508100  0.07170500  1
  O  O13  1  0.75000000  0.69491900  0.92829500  1
  O  O14  1  0.75000000  0.19491900  0.57170500  1
  O  O15  1  0.25000000  0.80508100  0.42829500  1
loop_
_geom_bond_atom_site_label_1
_geom_bond_atom_site_label_2
_geom_bond_distance
_geom_bond_site_symmetry_2
Na0 O11 2.399187 1_565
Na0 O7 2.642200 1_556
Na0 O2 2.642200 1_456
Na0 O13 2.757968 1_555
Na0 O13 2.757968 1_455
Na1 O10 2.399187 1_545
Na1 O4 2.642200 1_654
Na1 O6 2.642200 1_554
Na1 O12 2.757968 1_555
Na1 O12 2.757968 1_655
Na2 O9 2.399187 1_555
Na2 O0 2.642200 1_655
Na2 O5 2.642200 1_555
Na2 O15 2.757968 1_655
Na2 O15 2.757968 1_555
Na3 O8 2.399187 1_555
Na3 O3 2.642200 1_555
Na3 O1 2.642200 1_455
Na3 O14 2.757968 1_555
Na3 O14 2.757968 1_455
O0 P0 1.552960 1_555
O0 Sr1 2.539735 1_465
O0 Sr2 2.603804 1_455
O1 P1 1.552960 1_555
O1 Sr0 2.539735 1_645
O1 Sr3 2.603804 1_655
O2 P2 1.552960 1_555
O2 Sr3 2.539735 1_655
O2 Sr0 2.603804 1_655
O3 P1 1.552960 1_555
O3 Sr0 2.539735 1_545
O3 Sr3 2.603804 1_555
O4 P3 1.552960 1_555
O4 Sr2 2.539735 1_455
O4 Sr1 2.603804 1_455
O5 P0 1.552960 1_555
O5 Sr1 2.539735 1_565
O5 Sr2 2.603804 1_555
O6 P3 1.552960 1_555
O6 Sr2 2.539735 1_555
O6 Sr1 2.603804 1_555
O7 P2 1.552960 1_555
O7 Sr3 2.539735 1_555
O7 Sr0 2.603804 1_555
O8 P0 1.557438 1_555
O8 Sr3 2.702513 1_555
O8 Sr2 2.996823 1_555
O8 Sr2 2.996823 1_455
O9 P1 1.557438 1_555
O9 Sr2 2.702513 1_555
O9 Sr3 2.996823 1_655
O9 Sr3 2.996823 1_555
O10 P2 1.557438 1_555
O10 Sr1 2.702513 1_564
O10 Sr0 2.996823 1_555
O10 Sr0 2.996823 1_655
O11 P3 1.557438 1_555
O11 Sr0 2.702513 1_546
O11 Sr1 2.996823 1_555
O11 Sr1 2.996823 1_455
O12 P3 1.567235 1_554
O12 Sr0 2.556152 1_545
O12 Sr3 2.606898 1_555
O13 P2 1.567235 1_556
O13 Sr1 2.556152 1_565
O13 Sr2 2.606898 1_555
O14 P1 1.567235 1_555
O14 Sr2 2.556152 1_555
O14 Sr1 2.606898 1_555
O15 P0 1.567235 1_555
O15 Sr3 2.556152 1_555
O15 Sr0 2.606898 1_555
