# generated using pymatgen
data_Mg14TiV
_symmetry_space_group_name_H-M   'P 1'
_cell_length_a   6.30982703
_cell_length_b   6.30982652
_cell_length_c   10.13821263
_cell_angle_alpha   90.00000000
_cell_angle_beta   90.00000000
_cell_angle_gamma   120.00000260
_symmetry_Int_Tables_number   1
_chemical_formula_structural   Mg14TiV
_chemical_formula_sum   'Mg14 Ti1 V1'
_cell_volume   349.56415219
_cell_formula_units_Z   1
loop_
 _symmetry_equiv_pos_site_id
 _symmetry_equiv_pos_as_xyz
  1  'x, y, z'
loop_
 _atom_site_type_symbol
 _atom_site_label
 _atom_site_symmetry_multiplicity
 _atom_site_fract_x
 _atom_site_fract_y
 _atom_site_fract_z
 _atom_site_occupancy
  Mg  Mg0  1  0.16895034  0.83447467  0.12500000  1
  Mg  Mg1  1  0.17034482  0.83517191  0.62500000  1
  Mg  Mg2  1  0.66552533  0.33104966  0.12500000  1
  Mg  Mg3  1  0.66482809  0.32965518  0.62500000  1
  Mg  Mg4  1  0.66552533  0.83447467  0.12500000  1
  Mg  Mg5  1  0.66482809  0.83517191  0.62500000  1
  Mg  Mg6  1  0.32844013  0.17155987  0.37442678  1
  Mg  Mg7  1  0.32844013  0.17155987  0.87557322  1
  Mg  Mg8  1  0.32844013  0.65688125  0.37442678  1
  Mg  Mg9  1  0.32844013  0.65688125  0.87557322  1
  Mg  Mg10  1  0.84311875  0.17155987  0.37442678  1
  Mg  Mg11  1  0.84311875  0.17155987  0.87557322  1
  Mg  Mg12  1  0.83333300  0.66666700  0.37628322  1
  Mg  Mg13  1  0.83333300  0.66666700  0.87371678  1
  Ti  Ti0  1  0.16666700  0.33333300  0.62500000  1
  V  V0  1  0.16666700  0.33333300  0.12500000  1
loop_
_geom_bond_atom_site_label_1
_geom_bond_atom_site_label_2
_geom_bond_distance
_geom_bond_site_symmetry_2
Mg0 Mg9 3.129008 1_554
Mg0 Mg8 3.129008 1_555
Mg0 Mg7 3.129015 1_564
Mg0 Mg6 3.129015 1_565
Mg0 Mg2 3.133302 1_565
Mg0 Mg4 3.133302 1_555
Mg0 Mg12 3.139033 1_455
Mg0 Mg13 3.139033 1_454
Mg0 V0 3.154938 1_555
Mg0 V0 3.154938 1_565
Mg0 Mg2 3.176524 1_455
Mg0 Mg4 3.176525 1_455
Mg1 Mg3 3.120104 1_565
Mg1 Mg5 3.120104 1_555
Mg1 Mg13 3.122441 1_455
Mg1 Mg12 3.122441 1_455
Mg1 Mg8 3.136301 1_555
Mg1 Mg9 3.136301 1_555
Mg1 Mg6 3.136308 1_565
Mg1 Mg7 3.136308 1_565
Mg1 Ti0 3.154977 1_555
Mg1 Ti0 3.154977 1_565
Mg1 Mg3 3.189723 1_455
Mg1 Mg5 3.189723 1_455
Mg2 Mg7 3.129015 1_554
Mg2 Mg6 3.129015 1_555
Mg2 Mg4 3.133302 1_545
Mg2 V0 3.154938 1_555
Mg2 V0 3.154938 1_655
Mg2 Mg4 3.176524 1_555
Mg3 Mg5 3.120104 1_545
Mg3 Mg6 3.136308 1_555
Mg3 Mg7 3.136308 1_555
Mg3 Ti0 3.154978 1_555
Mg3 Ti0 3.154978 1_655
Mg3 Mg5 3.189723 1_555
Mg4 Mg9 3.129014 1_554
Mg4 Mg8 3.129014 1_555
Mg4 V0 3.154938 1_555
Mg4 V0 3.154938 1_665
Mg5 Mg8 3.136307 1_555
Mg5 Mg9 3.136307 1_555
Mg5 Ti0 3.154977 1_555
Mg5 Ti0 3.154977 1_665
Mg6 Mg8 3.062294 1_555
Mg6 V0 3.085513 1_555
Mg6 Ti0 3.095046 1_555
Mg6 Mg8 3.247533 1_545
Mg7 Mg9 3.062294 1_555
Mg7 V0 3.085513 1_556
Mg7 Ti0 3.095046 1_555
Mg7 Mg9 3.247533 1_545
Mg8 V0 3.085519 1_555
Mg8 Ti0 3.095052 1_555
Mg9 V0 3.085519 1_556
Mg9 Ti0 3.095052 1_555
Mg10 Mg8 3.062294 1_655
Mg10 Mg6 3.062294 1_655
Mg10 V0 3.085519 1_655
Mg10 Ti0 3.095052 1_655
Mg10 Mg2 3.129008 1_555
Mg10 Mg4 3.129014 1_545
Mg10 Mg3 3.136301 1_555
Mg10 Mg5 3.136307 1_545
Mg10 Mg12 3.155422 1_545
Mg10 Mg12 3.155423 1_555
Mg10 Mg8 3.247533 1_545
Mg10 Mg6 3.247533 1_555
Mg11 Mg9 3.062294 1_655
Mg11 Mg7 3.062294 1_655
Mg11 V0 3.085519 1_656
Mg11 Ti0 3.095052 1_655
Mg11 Mg2 3.129008 1_556
Mg11 Mg4 3.129014 1_546
Mg11 Mg3 3.136301 1_555
Mg11 Mg5 3.136307 1_545
Mg11 Mg13 3.155422 1_545
Mg11 Mg13 3.155423 1_555
Mg11 Mg9 3.247533 1_545
Mg11 Mg7 3.247533 1_555
Mg12 Mg5 3.122435 1_555
Mg12 Mg3 3.122441 1_555
Mg12 Mg4 3.139026 1_555
Mg12 Mg2 3.139032 1_555
Mg12 Mg6 3.155423 1_665
Mg12 Mg6 3.155423 1_555
Mg12 Mg8 3.155423 1_555
Mg12 Mg8 3.155423 1_655
Mg13 Mg5 3.122435 1_555
Mg13 Mg3 3.122441 1_555
Mg13 Mg4 3.139026 1_556
Mg13 Mg2 3.139032 1_556
Mg13 Mg7 3.155423 1_665
Mg13 Mg7 3.155423 1_555
Mg13 Mg9 3.155423 1_555
Mg13 Mg9 3.155423 1_655
