# generated using pymatgen
data_RbTmBr3
_symmetry_space_group_name_H-M   'P 1'
_cell_length_a   7.59773600
_cell_length_b   8.09805100
_cell_length_c   11.13366000
_cell_angle_alpha   90.00000000
_cell_angle_beta   90.00000000
_cell_angle_gamma   90.00000000
_symmetry_Int_Tables_number   1
_chemical_formula_structural   RbTmBr3
_chemical_formula_sum   'Rb4 Tm4 Br12'
_cell_volume   685.01906899
_cell_formula_units_Z   4
loop_
 _symmetry_equiv_pos_site_id
 _symmetry_equiv_pos_as_xyz
  1  'x, y, z'
loop_
 _atom_site_type_symbol
 _atom_site_label
 _atom_site_symmetry_multiplicity
 _atom_site_fract_x
 _atom_site_fract_y
 _atom_site_fract_z
 _atom_site_occupancy
  Rb  Rb0  1  0.02875100  0.43530600  0.25000000  1
  Rb  Rb1  1  0.97124800  0.56469400  0.75000000  1
  Rb  Rb2  1  0.52875200  0.06469400  0.75000000  1
  Rb  Rb3  1  0.47124900  0.93530600  0.25000000  1
  Tm  Tm0  1  0.00000000  0.00000000  0.00000000  1
  Tm  Tm1  1  0.50000000  0.50000000  0.00000000  1
  Tm  Tm2  1  0.00000000  0.00000000  0.50000000  1
  Tm  Tm3  1  0.50000000  0.50000000  0.50000000  1
  Br  Br0  1  0.29370900  0.21125000  0.03447800  1
  Br  Br1  1  0.70629100  0.78875000  0.96552200  1
  Br  Br2  1  0.79370900  0.28875000  0.96552200  1
  Br  Br3  1  0.70629100  0.78875000  0.53447800  1
  Br  Br4  1  0.20629100  0.71125000  0.03447800  1
  Br  Br5  1  0.29370900  0.21125000  0.46552200  1
  Br  Br6  1  0.20629100  0.71125000  0.46552200  1
  Br  Br7  1  0.79370900  0.28875000  0.53447800  1
  Br  Br8  1  0.57843700  0.51101400  0.25000000  1
  Br  Br9  1  0.42156300  0.48898600  0.75000000  1
  Br  Br10  1  0.07843700  0.98898600  0.75000000  1
  Br  Br11  1  0.92156300  0.01101400  0.25000000  1
loop_
_geom_bond_atom_site_label_1
_geom_bond_atom_site_label_2
_geom_bond_distance
_geom_bond_site_symmetry_2
Br0 Tm0 2.837885 1_555
Br0 Tm1 2.841061 1_555
Br0 Rb3 3.545539 1_545
Br0 Rb0 3.619729 1_555
Br0 Rb2 3.824823 1_554
Br1 Tm0 2.837885 1_666
Br1 Tm1 2.841061 1_556
Br1 Rb2 3.545536 1_565
Br1 Rb1 3.619725 1_555
Br1 Rb3 3.824819 1_556
Br2 Tm1 2.837885 1_556
Br2 Tm0 2.841061 1_656
Br2 Rb1 3.545536 1_555
Br2 Rb2 3.619725 1_555
Br2 Rb0 3.824819 1_656
Br3 Tm2 2.837885 1_665
Br3 Tm3 2.841061 1_555
Br3 Rb2 3.545536 1_565
Br3 Rb1 3.619725 1_555
Br3 Rb3 3.824819 1_555
Br4 Tm1 2.837885 1_555
Br4 Tm0 2.841061 1_565
Br4 Rb0 3.545539 1_555
Br4 Rb3 3.619729 1_555
Br4 Rb1 3.824823 1_454
Br5 Tm2 2.837885 1_555
Br5 Tm3 2.841061 1_555
Br5 Rb3 3.545539 1_545
Br5 Rb0 3.619729 1_555
Br5 Rb2 3.824823 1_555
Br6 Tm3 2.837885 1_555
Br6 Tm2 2.841061 1_565
Br6 Rb0 3.545539 1_555
Br6 Rb3 3.619729 1_555
Br6 Rb1 3.824823 1_455
Br7 Tm3 2.837885 1_555
Br7 Tm2 2.841061 1_655
Br7 Rb1 3.545536 1_555
Br7 Rb2 3.619725 1_555
Br7 Rb0 3.824819 1_655
Br8 Tm1 2.847894 1_555
Br8 Tm3 2.847894 1_555
Br8 Rb0 3.475864 1_655
Br8 Rb3 3.531132 1_555
Br9 Tm3 2.847894 1_555
Br9 Tm1 2.847894 1_556
Br9 Rb1 3.475871 1_455
Br9 Rb2 3.531134 1_555
Br10 Tm0 2.847894 1_566
Br10 Tm2 2.847894 1_565
Br10 Rb2 3.475871 1_565
Br10 Rb1 3.531134 1_455
Br11 Tm2 2.847894 1_655
Br11 Tm0 2.847894 1_655
Br11 Rb3 3.475864 1_545
Br11 Rb0 3.531132 1_655
