# generated using pymatgen
data_LaZnCrFeO6
_symmetry_space_group_name_H-M   'P 1'
_cell_length_a   5.52553800
_cell_length_b   5.35610000
_cell_length_c   9.31581909
_cell_angle_alpha   55.15130346
_cell_angle_beta   90.00000000
_cell_angle_gamma   90.00000000
_symmetry_Int_Tables_number   1
_chemical_formula_structural   LaZnCrFeO6
_chemical_formula_sum   'La2 Zn2 Cr2 Fe2 O12'
_cell_volume   226.26094593
_cell_formula_units_Z   2
loop_
 _symmetry_equiv_pos_site_id
 _symmetry_equiv_pos_as_xyz
  1  'x, y, z'
loop_
 _atom_site_type_symbol
 _atom_site_label
 _atom_site_symmetry_multiplicity
 _atom_site_fract_x
 _atom_site_fract_y
 _atom_site_fract_z
 _atom_site_occupancy
  La  La0  1  0.28375300  0.23701000  0.75223800  1
  La  La1  1  0.71624700  0.23701000  0.25223800  1
  Zn  Zn0  1  0.77861200  0.77317700  0.75149900  1
  Zn  Zn1  1  0.22138800  0.77317700  0.25149900  1
  Cr  Cr0  1  0.75976500  0.49736800  0.50143900  1
  Cr  Cr1  1  0.24023500  0.49736800  0.00143900  1
  Fe  Fe0  1  0.75118800  0.99695900  0.00115100  1
  Fe  Fe1  1  0.24881200  0.99695900  0.50115100  1
  O  O0  1  0.26808700  0.39485200  0.24096000  1
  O  O1  1  0.44852700  0.13763600  0.05909900  1
  O  O2  1  0.46114300  0.74809000  0.44236400  1
  O  O3  1  0.53885700  0.74809000  0.94236400  1
  O  O4  1  0.55147300  0.13763600  0.55909900  1
  O  O5  1  0.73191300  0.39485200  0.74096000  1
  O  O6  1  0.78534400  0.66447100  0.25703000  1
  O  O7  1  0.98716700  0.82674600  0.44056900  1
  O  O8  1  0.98557800  0.22369000  0.05365100  1
  O  O9  1  0.01442200  0.22369000  0.55365100  1
  O  O10  1  0.01283300  0.82674600  0.94056900  1
  O  O11  1  0.21465600  0.66447100  0.75703000  1
loop_
_geom_bond_atom_site_label_1
_geom_bond_atom_site_label_2
_geom_bond_distance
_geom_bond_site_symmetry_2
La0 O11 2.346591 1_555
La0 O10 2.396207 1_545
La0 O9 2.406899 1_555
La0 O3 2.584761 1_545
La0 O5 2.599317 1_555
La0 O4 2.608323 1_555
La0 O1 2.746878 1_556
La0 O2 2.785061 1_555
La1 O6 2.346591 1_555
La1 O7 2.396207 1_545
La1 O8 2.406899 1_555
La1 O2 2.584761 1_545
La1 O0 2.599317 1_555
La1 O1 2.608323 1_555
La1 O4 2.746878 1_555
La1 O3 2.785061 1_554
Cr0 O9 1.884265 1_655
Cr0 O6 1.917363 1_555
Cr0 O7 1.967095 1_555
Cr0 O5 1.975817 1_555
Cr0 O2 1.996069 1_555
Cr0 O4 2.035385 1_555
Cr1 O8 1.884265 1_455
Cr1 O11 1.917363 1_554
Cr1 O10 1.967095 1_554
Cr1 O0 1.975817 1_555
Cr1 O3 1.996069 1_554
Cr1 O1 2.035385 1_555
Fe0 O10 1.956480 1_654
Fe0 O6 2.009435 1_555
Fe0 O8 2.017444 1_565
Fe0 O1 2.029976 1_565
Fe0 O3 2.070623 1_554
Fe0 O5 2.127193 1_564
Fe1 O7 1.956480 1_455
Fe1 O11 2.009435 1_555
Fe1 O9 2.017444 1_565
Fe1 O4 2.029976 1_565
Fe1 O2 2.070623 1_555
Fe1 O0 2.127193 1_565
O0 Zn1 2.099920 1_555
O1 Zn1 2.144719 1_545
O2 Zn1 2.159064 1_555
O3 Zn0 2.159064 1_555
O4 Zn0 2.144719 1_545
O5 Zn0 2.099920 1_555
O6 Zn1 2.472342 1_655
O7 Zn1 2.331767 1_655
O8 Zn1 2.415521 1_645
O9 Zn0 2.415521 1_445
O10 Zn0 2.331767 1_455
O11 Zn0 2.472342 1_455
