# generated using pymatgen
data_Li4Cr3CoO8
_symmetry_space_group_name_H-M   'P 1'
_cell_length_a   5.93657518
_cell_length_b   5.93657518
_cell_length_c   5.93657505
_cell_angle_alpha   59.81710894
_cell_angle_beta   59.81710894
_cell_angle_gamma   59.81710251
_symmetry_Int_Tables_number   1
_chemical_formula_structural   Li4Cr3CoO8
_chemical_formula_sum   'Li4 Cr3 Co1 O8'
_cell_volume   147.32831775
_cell_formula_units_Z   1
loop_
 _symmetry_equiv_pos_site_id
 _symmetry_equiv_pos_as_xyz
  1  'x, y, z'
loop_
 _atom_site_type_symbol
 _atom_site_label
 _atom_site_symmetry_multiplicity
 _atom_site_fract_x
 _atom_site_fract_y
 _atom_site_fract_z
 _atom_site_occupancy
  Li  Li0  1  0.50000000  0.00000000  0.50000000  1
  Li  Li1  1  0.50000000  0.50000000  0.00000000  1
  Li  Li2  1  0.00000000  0.00000000  0.00000000  1
  Li  Li3  1  0.00000000  0.50000000  0.50000000  1
  Cr  Cr0  1  0.50000000  0.00000000  0.00000000  1
  Cr  Cr1  1  0.00000000  0.50000000  0.00000000  1
  Cr  Cr2  1  0.00000000  0.00000000  0.50000000  1
  Co  Co0  1  0.50000000  0.50000000  0.50000000  1
  O  O0  1  0.25825200  0.25825200  0.75614100  1
  O  O1  1  0.25825200  0.75614100  0.25825200  1
  O  O2  1  0.24162900  0.24162900  0.24162900  1
  O  O3  1  0.75614100  0.25825200  0.25825200  1
  O  O4  1  0.24385900  0.74174800  0.74174800  1
  O  O5  1  0.74174800  0.24385900  0.74174800  1
  O  O6  1  0.75837100  0.75837100  0.75837100  1
  O  O7  1  0.74174800  0.74174800  0.24385900  1
loop_
_geom_bond_atom_site_label_1
_geom_bond_atom_site_label_2
_geom_bond_distance
_geom_bond_site_symmetry_2
Li0 O7 2.158648 1_545
Li0 O0 2.158648 1_555
Li0 O3 2.158648 1_555
Li0 O4 2.158648 1_545
Li0 O6 2.168845 1_545
Li0 O2 2.168845 1_555
Li1 O3 2.158648 1_555
Li1 O1 2.158648 1_555
Li1 O4 2.158648 1_554
Li1 O5 2.158648 1_554
Li1 O6 2.168846 1_554
Li1 O2 2.168846 1_555
Li2 O1 2.167200 1_545
Li2 O3 2.167200 1_455
Li2 O4 2.167200 1_544
Li2 O5 2.167200 1_454
Li2 O0 2.167200 1_554
Li2 O7 2.167200 1_445
Li3 O0 2.158648 1_555
Li3 O7 2.158648 1_455
Li3 O1 2.158648 1_555
Li3 O5 2.158648 1_455
Li3 O2 2.168845 1_555
Li3 O6 2.168845 1_455
Cr0 O6 2.027862 1_544
Cr0 O2 2.027862 1_555
Cr0 O7 2.037376 1_545
Cr0 O0 2.037376 1_554
Cr0 O5 2.037377 1_554
Cr0 O1 2.037377 1_545
Cr1 O2 2.027862 1_555
Cr1 O6 2.027862 1_454
Cr1 O7 2.037376 1_455
Cr1 O0 2.037376 1_554
Cr1 O4 2.037377 1_554
Cr1 O3 2.037377 1_455
Cr2 O2 2.027862 1_555
Cr2 O6 2.027862 1_445
Cr2 O4 2.037376 1_545
Cr2 O5 2.037376 1_455
Cr2 O3 2.037376 1_455
Cr2 O1 2.037376 1_545
Co0 O5 2.028277 1_555
Co0 O4 2.028277 1_555
Co0 O3 2.028277 1_555
Co0 O1 2.028277 1_555
Co0 O0 2.028278 1_555
Co0 O7 2.028278 1_555
