# generated using pymatgen
data_Rb2SiS3
_symmetry_space_group_name_H-M   'P 1'
_cell_length_a   6.89625212
_cell_length_b   7.50374363
_cell_length_c   8.63675340
_cell_angle_alpha   72.68817885
_cell_angle_beta   66.46940377
_cell_angle_gamma   62.64381626
_symmetry_Int_Tables_number   1
_chemical_formula_structural   Rb2SiS3
_chemical_formula_sum   'Rb4 Si2 S6'
_cell_volume   360.35161904
_cell_formula_units_Z   2
loop_
 _symmetry_equiv_pos_site_id
 _symmetry_equiv_pos_as_xyz
  1  'x, y, z'
loop_
 _atom_site_type_symbol
 _atom_site_label
 _atom_site_symmetry_multiplicity
 _atom_site_fract_x
 _atom_site_fract_y
 _atom_site_fract_z
 _atom_site_occupancy
  Rb  Rb0  1  0.80646627  0.57440629  0.81266216  1
  Rb  Rb1  1  0.19353373  0.42559371  0.18733784  1
  Rb  Rb2  1  0.58118353  0.20026820  0.63736173  1
  Rb  Rb3  1  0.41881647  0.79973180  0.36263827  1
  Si  Si0  1  0.11538087  0.94705117  0.82218609  1
  Si  Si1  1  0.88461913  0.05294883  0.17781391  1
  S  S0  1  0.23405269  -0.00000000  0.00000000  1
  S  S1  1  0.76594731  0.00000000  -0.00000000  1
  S  S2  1  0.88741553  0.83407268  0.39109626  1
  S  S3  1  0.11258447  0.16592732  0.60890374  1
  S  S4  1  0.71259214  0.35321057  0.22160415  1
  S  S5  1  0.28740786  0.64678943  0.77839585  1
loop_
_geom_bond_atom_site_label_1
_geom_bond_atom_site_label_2
_geom_bond_distance
_geom_bond_site_symmetry_2
Rb0 S3 3.353432 1_655
Rb0 S4 3.364739 1_556
Rb0 S5 3.487008 1_655
Rb0 S5 3.487008 1_555
Rb0 S2 3.538270 1_555
Rb0 S1 3.845617 1_566
Rb0 S0 3.845620 1_566
Rb1 S2 3.353432 1_455
Rb1 S5 3.364739 1_554
Rb1 S4 3.487008 1_455
Rb1 S4 3.487008 1_555
Rb1 S3 3.538270 1_555
Rb1 S0 3.845617 1_555
Rb1 S1 3.845620 1_555
Rb2 S4 3.307129 1_555
Rb2 S5 3.321823 1_555
Rb2 S2 3.330597 1_545
Rb2 S3 3.465129 1_555
Rb2 S3 3.465150 1_655
Rb2 S0 3.509541 1_556
Rb2 S1 3.509553 1_556
Rb3 S5 3.307129 1_555
Rb3 S4 3.321823 1_555
Rb3 S3 3.330597 1_565
Rb3 S2 3.465129 1_555
Rb3 S2 3.465150 1_455
Rb3 S1 3.509541 1_565
Rb3 S0 3.509553 1_565
S0 Si1 2.202636 1_455
S0 Si0 2.202641 1_544
S1 Si0 2.202636 1_644
S1 Si1 2.202641 1_555
S2 Si1 2.071169 1_565
S3 Si0 2.071169 1_545
S4 Si1 2.078266 1_555
S5 Si0 2.078266 1_555
