# generated using pymatgen
data_Li2Al2CrSbO8
_symmetry_space_group_name_H-M   'P 1'
_cell_length_a   5.81787869
_cell_length_b   5.81787869
_cell_length_c   9.55486017
_cell_angle_alpha   89.78119033
_cell_angle_beta   89.78119033
_cell_angle_gamma   60.28925034
_symmetry_Int_Tables_number   1
_chemical_formula_structural   Li2Al2CrSbO8
_chemical_formula_sum   'Li4 Al4 Cr2 Sb2 O16'
_cell_volume   280.89145010
_cell_formula_units_Z   2
loop_
 _symmetry_equiv_pos_site_id
 _symmetry_equiv_pos_as_xyz
  1  'x, y, z'
loop_
 _atom_site_type_symbol
 _atom_site_label
 _atom_site_symmetry_multiplicity
 _atom_site_fract_x
 _atom_site_fract_y
 _atom_site_fract_z
 _atom_site_occupancy
  Li  Li0  1  0.66848200  0.66848200  0.44432200  1
  Li  Li1  1  0.33234500  0.33234500  0.94795800  1
  Li  Li2  1  0.00020900  0.00020900  0.03548800  1
  Li  Li3  1  0.99831700  0.99831700  0.52988600  1
  Al  Al0  1  0.82976300  0.82976300  0.75895100  1
  Al  Al1  1  0.17081000  0.65955500  0.25883500  1
  Al  Al2  1  0.65955500  0.17081000  0.25883500  1
  Al  Al3  1  0.17062300  0.17062300  0.25898200  1
  Cr  Cr0  1  0.83019900  0.33978400  0.75849800  1
  Cr  Cr1  1  0.33978400  0.83019900  0.75849800  1
  Sb  Sb0  1  0.66814800  0.66814800  0.03496600  1
  Sb  Sb1  1  0.33346400  0.33346400  0.52895400  1
  O  O0  1  0.99025800  0.99025800  0.84925000  1
  O  O1  1  0.99983500  0.99983500  0.34044400  1
  O  O2  1  0.83651300  0.32859600  0.14671100  1
  O  O3  1  0.32859600  0.83651300  0.14671100  1
  O  O4  1  0.83613000  0.83613000  0.14785200  1
  O  O5  1  0.15772600  0.66960400  0.64156600  1
  O  O6  1  0.66960400  0.15772600  0.64156600  1
  O  O7  1  0.16263000  0.16263000  0.63715800  1
  O  O8  1  0.67600300  0.67600300  0.65366200  1
  O  O9  1  0.33410800  0.33410800  0.15919300  1
  O  O10  1  0.52256700  0.96591000  0.88759400  1
  O  O11  1  0.96591000  0.52256700  0.88759400  1
  O  O12  1  0.51682100  0.51682100  0.89052500  1
  O  O13  1  0.48152600  0.03666100  0.38246200  1
  O  O14  1  0.03666100  0.48152600  0.38246200  1
  O  O15  1  0.48320400  0.48320400  0.38327500  1
loop_
_geom_bond_atom_site_label_1
_geom_bond_atom_site_label_2
_geom_bond_distance
_geom_bond_site_symmetry_2
Li0 O13 1.951017 1_565
Li0 O14 1.951017 1_655
Li0 O15 1.955871 1_555
Li0 O8 2.001979 1_555
Li1 O12 1.933317 1_555
Li1 O10 1.941177 1_545
Li1 O11 1.941177 1_455
Li1 O9 2.018477 1_556
Li2 O0 1.782734 1_444
Li2 O4 1.965392 1_445
Li2 O3 1.972472 1_545
Li2 O2 1.972472 1_455
Li3 O1 1.810089 1_555
Li3 O7 1.949119 1_665
Li3 O6 1.972307 1_565
Li3 O5 1.972307 1_655
Al0 O0 1.834312 1_555
Al0 O8 1.849193 1_555
Al0 O11 1.979861 1_555
Al0 O10 1.979861 1_555
Al0 O5 1.999042 1_655
Al0 O6 1.999042 1_565
Al1 O1 1.889602 1_455
Al1 O9 1.902053 1_555
Al1 O14 1.965230 1_555
Al1 O15 1.982019 1_555
Al1 O3 1.992790 1_555
Al1 O4 1.998959 1_455
Al2 O1 1.889602 1_545
Al2 O9 1.902053 1_555
Al2 O13 1.965230 1_555
Al2 O15 1.982019 1_555
Al2 O2 1.992790 1_555
Al2 O4 1.998959 1_545
Al3 O1 1.883414 1_445
Al3 O9 1.897711 1_555
Al3 O13 1.970550 1_555
Al3 O14 1.970550 1_555
Al3 O2 2.002846 1_455
Al3 O3 2.002846 1_545
Cr0 O0 1.967192 1_545
Cr0 O8 1.971521 1_555
Cr0 O12 2.026629 1_555
Cr0 O11 2.031122 1_555
Cr0 O7 2.040362 1_655
Cr0 O6 2.059395 1_555
Cr1 O0 1.967192 1_455
Cr1 O8 1.971521 1_555
Cr1 O12 2.026629 1_555
Cr1 O10 2.031122 1_555
Cr1 O7 2.040362 1_565
Cr1 O5 2.059395 1_555
O2 Sb0 2.018851 1_555
O3 Sb0 2.018851 1_555
O4 Sb0 2.009099 1_555
O5 Sb1 2.013273 1_555
O6 Sb1 2.013273 1_555
O7 Sb1 2.002001 1_555
O10 Sb0 2.058459 1_556
O11 Sb0 2.058459 1_556
O12 Sb0 2.059566 1_556
O13 Sb1 2.053717 1_555
O14 Sb1 2.053717 1_555
O15 Sb1 2.046739 1_555
