# generated using pymatgen
data_SmTl(WO4)2
_symmetry_space_group_name_H-M   'P 1'
_cell_length_a   7.75368378
_cell_length_b   7.75368378
_cell_length_c   7.53079262
_cell_angle_alpha   62.49969054
_cell_angle_beta   62.49969054
_cell_angle_gamma   88.93816970
_symmetry_Int_Tables_number   1
_chemical_formula_structural   SmTl(WO4)2
_chemical_formula_sum   'Sm2 Tl2 W4 O16'
_cell_volume   345.13755543
_cell_formula_units_Z   2
loop_
 _symmetry_equiv_pos_site_id
 _symmetry_equiv_pos_as_xyz
  1  'x, y, z'
loop_
 _atom_site_type_symbol
 _atom_site_label
 _atom_site_symmetry_multiplicity
 _atom_site_fract_x
 _atom_site_fract_y
 _atom_site_fract_z
 _atom_site_occupancy
  Sm  Sm0  1  0.22439900  0.77560100  0.75000000  1
  Sm  Sm1  1  0.77560100  0.22439900  0.25000000  1
  Tl  Tl0  1  0.21256500  0.78743500  0.25000000  1
  Tl  Tl1  1  0.78743500  0.21256500  0.75000000  1
  W  W0  1  0.31062600  0.30115200  0.21677700  1
  W  W1  1  0.69884800  0.68937400  0.28322300  1
  W  W2  1  0.30115200  0.31062600  0.71677700  1
  W  W3  1  0.68937400  0.69884800  0.78322300  1
  O  O0  1  0.37174200  0.06437600  0.37122400  1
  O  O1  1  0.93562400  0.62825800  0.12877600  1
  O  O2  1  0.62825800  0.93562400  0.62877600  1
  O  O3  1  0.06437600  0.37174200  0.87122400  1
  O  O4  1  0.22472400  0.04763400  0.80839700  1
  O  O5  1  0.95236600  0.77527600  0.69160300  1
  O  O6  1  0.77527600  0.95236600  0.19160300  1
  O  O7  1  0.04763400  0.22472400  0.30839700  1
  O  O8  1  0.58923000  0.37286700  0.46895600  1
  O  O9  1  0.62713300  0.41077000  0.03104400  1
  O  O10  1  0.41077000  0.62713300  0.53104400  1
  O  O11  1  0.37286700  0.58923000  0.96895600  1
  O  O12  1  0.37621200  0.25096500  0.94090700  1
  O  O13  1  0.74903500  0.62378800  0.55909300  1
  O  O14  1  0.62378800  0.74903500  0.05909300  1
  O  O15  1  0.25096500  0.37621200  0.44090700  1
loop_
_geom_bond_atom_site_label_1
_geom_bond_atom_site_label_2
_geom_bond_distance
_geom_bond_site_symmetry_2
O0 W0 1.858123 1_555
O0 Sm0 2.375331 1_545
O1 W1 1.858123 1_555
O1 Sm0 2.375331 1_654
O2 W3 1.858123 1_555
O2 Sm1 2.375331 1_565
O3 W2 1.858123 1_555
O3 Sm1 2.375331 1_456
O4 W2 1.831187 1_555
O4 Sm0 2.345260 1_545
O5 W3 1.831187 1_555
O5 Sm0 2.345260 1_655
O6 W1 1.831187 1_555
O6 Sm1 2.345260 1_565
O7 W0 1.831187 1_555
O7 Sm1 2.345260 1_455
O8 W2 2.015834 1_555
O8 W1 2.123863 1_555
O8 Sm1 2.371315 1_555
O9 W3 2.015834 1_554
O9 W0 2.123863 1_555
O9 Sm1 2.371315 1_555
O10 W1 2.015834 1_555
O10 W2 2.123863 1_555
O10 Sm0 2.371315 1_555
O11 W0 2.015834 1_556
O11 W3 2.123863 1_555
O11 Sm0 2.371315 1_555
O12 W2 1.891499 1_555
O12 W0 2.118893 1_556
O13 W3 1.891499 1_555
O13 W1 2.118893 1_555
O14 W1 1.891499 1_555
O14 W3 2.118893 1_554
O15 W0 1.891499 1_555
O15 W2 2.118893 1_555
