# generated using pymatgen
data_KPrZr4O12
_symmetry_space_group_name_H-M   'P 1'
_cell_length_a   5.86509468
_cell_length_b   5.86509468
_cell_length_c   8.39805301
_cell_angle_alpha   90.00000000
_cell_angle_beta   90.00000000
_cell_angle_gamma   89.89776844
_symmetry_Int_Tables_number   1
_chemical_formula_structural   KPrZr4O12
_chemical_formula_sum   'K1 Pr1 Zr4 O12'
_cell_volume   288.88698405
_cell_formula_units_Z   1
loop_
 _symmetry_equiv_pos_site_id
 _symmetry_equiv_pos_as_xyz
  1  'x, y, z'
loop_
 _atom_site_type_symbol
 _atom_site_label
 _atom_site_symmetry_multiplicity
 _atom_site_fract_x
 _atom_site_fract_y
 _atom_site_fract_z
 _atom_site_occupancy
  K  K0  1  0.00045039  -0.00045039  0.00000000  1
  Pr  Pr0  1  0.50375702  0.49624298  0.50000000  1
  Zr  Zr0  1  0.49989534  0.99703036  0.24432053  1
  Zr  Zr1  1  0.49989534  0.99703036  0.75567947  1
  Zr  Zr2  1  0.00296964  0.50010466  0.75567947  1
  Zr  Zr3  1  0.00296964  0.50010466  0.24432053  1
  O  O0  1  0.28173024  0.27831218  0.28433548  1
  O  O1  1  0.72168782  0.71826976  0.28433548  1
  O  O2  1  0.72168782  0.71826976  0.71566452  1
  O  O3  1  0.28173024  0.27831218  0.71566452  1
  O  O4  1  0.22185795  0.77814205  0.23380247  1
  O  O5  1  0.74348558  0.25651442  0.30194537  1
  O  O6  1  0.74348558  0.25651442  0.69805463  1
  O  O7  1  0.22185795  0.77814205  0.76619753  1
  O  O8  1  0.52846512  0.00649263  0.00000000  1
  O  O9  1  0.46763806  0.92447111  0.50000000  1
  O  O10  1  0.99350737  0.47153488  0.00000000  1
  O  O11  1  0.07552889  0.53236194  0.50000000  1
loop_
_geom_bond_atom_site_label_1
_geom_bond_atom_site_label_2
_geom_bond_distance
_geom_bond_site_symmetry_2
K0 O7 2.687352 1_544
K0 O4 2.687352 1_545
K0 O10 2.768465 1_455
K0 O8 2.768465 1_455
K0 O8 3.097197 1_555
K0 O10 3.097197 1_445
O0 Zr0 2.112894 1_545
O0 Zr3 2.114378 1_555
O0 Pr0 2.572110 1_555
O1 Zr3 2.112894 1_655
O1 Zr0 2.114378 1_555
O1 Pr0 2.572110 1_555
O2 Zr2 2.112894 1_655
O2 Zr1 2.114378 1_555
O2 Pr0 2.572110 1_555
O3 Zr1 2.112894 1_545
O3 Zr2 2.114378 1_555
O3 Pr0 2.572110 1_555
O4 Zr0 2.079099 1_555
O4 Zr3 2.079099 1_555
O5 Zr0 2.144587 1_545
O5 Zr3 2.144587 1_655
O5 Pr0 2.590997 1_555
O6 Zr1 2.144587 1_545
O6 Zr2 2.144587 1_655
O6 Pr0 2.590997 1_555
O7 Zr2 2.079099 1_555
O7 Zr1 2.079099 1_555
O8 Zr1 2.059404 1_544
O8 Zr0 2.059404 1_545
O9 Zr0 2.197202 1_555
O9 Zr1 2.197202 1_555
O9 Pr0 2.520140 1_555
O10 Zr2 2.059404 1_654
O10 Zr3 2.059404 1_655
O11 Zr3 2.197202 1_555
O11 Zr2 2.197202 1_555
O11 Pr0 2.520140 1_555
