# generated using pymatgen
data_Sr2YbGaCu2O7
_symmetry_space_group_name_H-M   'P 1'
_cell_length_a   12.21647703
_cell_length_b   12.21647703
_cell_length_c   12.21647703
_cell_angle_alpha   154.76898158
_cell_angle_beta   154.27567800
_cell_angle_gamma   36.34246707
_symmetry_Int_Tables_number   1
_chemical_formula_structural   Sr2YbGaCu2O7
_chemical_formula_sum   'Sr4 Yb2 Ga2 Cu4 O14'
_cell_volume   336.88776572
_cell_formula_units_Z   2
loop_
 _symmetry_equiv_pos_site_id
 _symmetry_equiv_pos_as_xyz
  1  'x, y, z'
loop_
 _atom_site_type_symbol
 _atom_site_label
 _atom_site_symmetry_multiplicity
 _atom_site_fract_x
 _atom_site_fract_y
 _atom_site_fract_z
 _atom_site_occupancy
  Sr  Sr0  1  0.63807200  0.65612500  0.99473500  1
  Sr  Sr1  1  0.36192800  0.35666300  0.01805300  1
  Sr  Sr2  1  0.16139000  0.15612500  0.01805300  1
  Sr  Sr3  1  0.83861000  0.85666300  0.99473500  1
  Yb  Yb0  1  0.00000000  0.00766200  0.00766200  1
  Yb  Yb1  1  0.50000000  0.50766200  0.00766200  1
  Ga  Ga0  1  0.18198400  0.80119400  0.48317800  1
  Ga  Ga1  1  0.81801600  0.30119400  0.61921100  1
  Cu  Cu0  1  0.57155000  0.07737300  0.50601600  1
  Cu  Cu1  1  0.42845000  0.93446600  0.50582300  1
  Cu  Cu2  1  0.07135700  0.57737300  0.50582300  1
  Cu  Cu3  1  0.92864300  0.43446600  0.50601600  1
  O  O0  1  0.13766900  0.15675000  0.79441900  1
  O  O1  1  0.86233100  0.65675000  0.01908100  1
  O  O2  1  0.63382100  0.16463900  0.44710200  1
  O  O3  1  0.36617900  0.81328100  0.53081800  1
  O  O4  1  0.21753700  0.66463900  0.53081800  1
  O  O5  1  0.78246300  0.31328100  0.44710200  1
  O  O6  1  0.31518900  0.32089800  0.50939100  1
  O  O7  1  0.68481100  0.19420200  0.00570800  1
  O  O8  1  0.31150700  0.82089800  0.00570800  1
  O  O9  1  0.68849300  0.69420200  0.50939100  1
  O  O10  1  0.81686300  0.82298600  0.50662500  1
  O  O11  1  0.18313700  0.68976200  0.00612200  1
  O  O12  1  0.81636100  0.32298600  0.00612200  1
  O  O13  1  0.18363900  0.18976200  0.50662500  1
loop_
_geom_bond_atom_site_label_1
_geom_bond_atom_site_label_2
_geom_bond_distance
_geom_bond_site_symmetry_2
Ga0 O4 1.855841 1_555
Ga0 O3 1.855841 1_555
Ga0 O1 1.901779 1_455
Ga0 O0 1.912615 1_565
Ga1 O2 1.855832 1_555
Ga1 O5 1.855854 1_555
Ga1 O0 1.901777 1_655
Ga1 O1 1.912612 1_556
Cu0 O10 1.907120 1_545
Cu0 O12 1.908562 1_556
Cu0 O6 1.913541 1_555
Cu0 O8 1.915646 1_545
Cu0 O2 2.431959 1_555
Cu1 O11 1.907124 1_555
Cu1 O13 1.908567 1_565
Cu1 O7 1.913538 1_566
Cu1 O9 1.915643 1_555
Cu1 O3 2.431959 1_555
Cu2 O12 1.907123 1_455
Cu2 O10 1.908567 1_455
Cu2 O8 1.913536 1_556
Cu2 O6 1.915643 1_555
Cu2 O4 2.431959 1_555
Cu3 O13 1.907120 1_655
Cu3 O11 1.908564 1_656
Cu3 O9 1.913541 1_555
Cu3 O7 1.915648 1_555
Cu3 O5 2.431959 1_555
O0 Sr1 2.481060 1_556
O0 Sr2 2.481060 1_556
O1 Sr3 2.481060 1_554
O1 Sr0 2.481060 1_554
O2 Sr2 2.503713 1_555
O2 Sr0 2.649745 1_544
O2 Sr0 2.830913 1_555
O2 Sr2 3.071621 1_656
O3 Sr3 2.503713 1_555
O3 Sr1 2.649745 1_555
O3 Sr1 2.830913 1_566
O3 Sr3 3.071621 1_454
O4 Sr0 2.503713 1_555
O4 Sr2 2.649745 1_555
O4 Sr2 2.830913 1_566
O4 Sr0 3.071621 1_454
O5 Sr1 2.503713 1_555
O5 Sr3 2.649745 1_544
O5 Sr3 2.830913 1_555
O5 Sr1 3.071621 1_656
O6 Yb1 2.401198 1_556
O6 Yb0 2.411850 1_555
O6 Sr0 2.727510 1_555
O6 Sr2 2.743018 1_555
O7 Yb1 2.401191 1_555
O7 Yb0 2.411843 1_655
O7 Sr1 2.727518 1_555
O7 Sr3 2.743027 1_544
O8 Yb0 2.401205 1_565
O8 Yb1 2.411858 1_555
O8 Sr2 2.727501 1_565
O8 Sr0 2.743010 1_554
O9 Yb0 2.401198 1_666
O9 Yb1 2.411850 1_555
O9 Sr3 2.727510 1_555
O9 Sr1 2.743018 1_555
O10 Yb1 2.450573 1_555
O10 Yb0 2.456535 1_666
O10 Sr2 2.743125 1_666
O10 Sr0 2.744437 1_554
O11 Yb1 2.450566 1_555
O11 Yb0 2.456527 1_565
O11 Sr3 2.743133 1_454
O11 Sr1 2.744445 1_555
O12 Yb0 2.450581 1_655
O12 Yb1 2.456542 1_555
O12 Sr0 2.743117 1_554
O12 Sr2 2.744429 1_655
O13 Yb0 2.450573 1_555
O13 Yb1 2.456535 1_556
O13 Sr1 2.743125 1_556
O13 Sr3 2.744437 1_444
