# generated using pymatgen
data_MgAu4Se4(ClO3)4
_symmetry_space_group_name_H-M   'P 1'
_cell_length_a   4.56771312
_cell_length_b   9.86155649
_cell_length_c   11.32220779
_cell_angle_alpha   86.69702371
_cell_angle_beta   92.20919522
_cell_angle_gamma   85.76112810
_symmetry_Int_Tables_number   1
_chemical_formula_structural   MgAu4Se4(ClO3)4
_chemical_formula_sum   'Mg1 Au4 Se4 Cl4 O12'
_cell_volume   507.29660746
_cell_formula_units_Z   1
loop_
 _symmetry_equiv_pos_site_id
 _symmetry_equiv_pos_as_xyz
  1  'x, y, z'
loop_
 _atom_site_type_symbol
 _atom_site_label
 _atom_site_symmetry_multiplicity
 _atom_site_fract_x
 _atom_site_fract_y
 _atom_site_fract_z
 _atom_site_occupancy
  Mg  Mg0  1  0.83479190  0.64022035  0.06753211  1
  Au  Au0  1  0.02379247  0.48561437  0.39965418  1
  Au  Au1  1  0.01461060  0.02022838  0.99466180  1
  Au  Au2  1  0.97995402  0.41702989  0.81845882  1
  Au  Au3  1  0.02710741  0.99343663  0.48894279  1
  Se  Se0  1  0.72504715  0.89783108  0.24325719  1
  Se  Se1  1  0.23030592  0.72417858  0.88431773  1
  Se  Se2  1  0.76654515  0.31129724  0.07731765  1
  Se  Se3  1  0.26381268  0.12439762  0.73223813  1
  Cl  Cl0  1  0.30747133  0.48626676  0.68221169  1
  Cl  Cl1  1  0.51370580  0.52361644  0.35575886  1
  Cl  Cl2  1  0.26443416  0.19244515  0.46157517  1
  Cl  Cl3  1  0.75703386  0.80526840  0.51417859  1
  O  O0  1  0.68841284  0.00364869  0.11035480  1
  O  O1  1  0.65560403  0.36153601  0.92941818  1
  O  O2  1  0.90779480  0.75522961  0.20107878  1
  O  O3  1  0.08938889  0.20452811  0.05381618  1
  O  O4  1  0.93994431  0.44562741  0.12268395  1
  O  O5  1  0.94118463  0.83258550  0.93715677  1
  O  O6  1  0.40495383  0.67478772  0.01566367  1
  O  O7  1  0.94778999  0.23314046  0.75116038  1
  O  O8  1  0.01402581  0.98056069  0.31086686  1
  O  O9  1  0.95603314  0.60262248  0.88902465  1
  O  O10  1  0.33232606  0.04144522  0.87260158  1
  O  O11  1  0.06670725  0.99870721  0.66940251  1
loop_
_geom_bond_atom_site_label_1
_geom_bond_atom_site_label_2
_geom_bond_distance
_geom_bond_site_symmetry_2
Mg0 O2 1.974452 1_555
Mg0 O4 2.001420 1_555
Mg0 O6 2.026088 1_555
Mg0 O9 2.161317 1_554
Mg0 O5 2.425437 1_554
Au0 Cl1 2.361398 1_455
Au0 Cl1 2.362917 1_555
Au0 Cl2 3.048844 1_555
Au1 O3 2.020616 1_556
Au1 O0 2.030864 1_456
Au1 O5 2.043112 1_445
Au1 O10 2.055711 1_555
Au2 O7 2.020076 1_555
Au2 O9 2.036098 1_555
Au2 O1 2.063220 1_555
Au2 Cl0 2.300314 1_655
Au3 O8 2.026362 1_555
Au3 O11 2.048226 1_555
Au3 Cl3 2.313288 1_455
Au3 Cl2 2.322288 1_565
O0 Se0 1.776245 1_545
O1 Se2 1.763016 1_556
O2 Se0 1.684350 1_555
O3 Se2 1.785229 1_455
O4 Se2 1.687645 1_555
O5 Se1 1.780659 1_655
O6 Se1 1.689025 1_554
O7 Se3 1.760983 1_655
O8 Se0 1.774024 1_455
O9 Se1 1.796969 1_655
O10 Se3 1.751218 1_555
O11 Se3 1.752225 1_565
