# generated using pymatgen
data_Rb3EuCl6
_symmetry_space_group_name_H-M   'P 1'
_cell_length_a   8.10690883
_cell_length_b   13.10356152
_cell_length_c   13.86685961
_cell_angle_alpha   99.12471605
_cell_angle_beta   106.99644430
_cell_angle_gamma   90.00000000
_symmetry_Int_Tables_number   1
_chemical_formula_structural   Rb3EuCl6
_chemical_formula_sum   'Rb12 Eu4 Cl24'
_cell_volume   1389.22453865
_cell_formula_units_Z   4
loop_
 _symmetry_equiv_pos_site_id
 _symmetry_equiv_pos_as_xyz
  1  'x, y, z'
loop_
 _atom_site_type_symbol
 _atom_site_label
 _atom_site_symmetry_multiplicity
 _atom_site_fract_x
 _atom_site_fract_y
 _atom_site_fract_z
 _atom_site_occupancy
  Rb  Rb0  1  0.69628502  0.06766302  0.90083046  1
  Rb  Rb1  1  0.30371498  0.93233698  0.09916954  1
  Rb  Rb2  1  0.79545456  0.43233698  0.09916954  1
  Rb  Rb3  1  0.20454544  0.56766302  0.90083046  1
  Rb  Rb4  1  0.53266052  0.35463729  0.69153592  1
  Rb  Rb5  1  0.46733948  0.64536271  0.30846408  1
  Rb  Rb6  1  0.84112460  0.14536271  0.30846408  1
  Rb  Rb7  1  0.15887540  0.85463729  0.69153592  1
  Rb  Rb8  1  0.34828193  0.29873909  0.32317293  1
  Rb  Rb9  1  0.65171807  0.70126091  0.67682707  1
  Rb  Rb10  1  0.02510900  0.20126091  0.67682707  1
  Rb  Rb11  1  0.97489100  0.79873909  0.32317293  1
  Eu  Eu0  1  0.21756436  0.25000000  -0.00000000  1
  Eu  Eu1  1  0.78243564  0.75000000  -0.00000000  1
  Eu  Eu2  1  0.50000000  -0.00000000  0.50000000  1
  Eu  Eu3  1  0.00000000  0.50000000  0.50000000  1
  Cl  Cl0  1  0.37770710  0.08232678  0.66004572  1
  Cl  Cl1  1  0.62229290  0.91767322  0.33995428  1
  Cl  Cl2  1  0.71766139  0.41767322  0.33995428  1
  Cl  Cl3  1  0.28233861  0.58232678  0.66004572  1
  Cl  Cl4  1  0.50984251  0.17741842  0.11922404  1
  Cl  Cl5  1  0.49015749  0.82258158  0.88077596  1
  Cl  Cl6  1  0.39061848  0.32258158  0.88077596  1
  Cl  Cl7  1  0.60938152  0.67741842  0.11922404  1
  Cl  Cl8  1  0.21368211  0.03415832  0.34893930  1
  Cl  Cl9  1  0.78631789  0.96584168  0.65106070  1
  Cl  Cl10  1  0.86474281  0.46584168  0.65106070  1
  Cl  Cl11  1  0.13525719  0.53415832  0.34893930  1
  Cl  Cl12  1  0.09427213  0.69567901  0.11950054  1
  Cl  Cl13  1  0.90572787  0.30432099  0.88049946  1
  Cl  Cl14  1  0.97477159  0.80432099  0.88049946  1
  Cl  Cl15  1  0.02522841  0.19567901  0.11950054  1
  Cl  Cl16  1  0.28204853  0.43905569  0.11910021  1
  Cl  Cl17  1  0.71795147  0.56094431  0.88089979  1
  Cl  Cl18  1  0.16294832  0.06094431  0.88089979  1
  Cl  Cl19  1  0.83705168  0.93905569  0.11910021  1
  Cl  Cl20  1  0.64323904  0.19063654  0.49874385  1
  Cl  Cl21  1  0.35676096  0.80936346  0.50125615  1
  Cl  Cl22  1  0.14449520  0.30936346  0.50125615  1
  Cl  Cl23  1  0.85550480  0.69063654  0.49874385  1
loop_
_geom_bond_atom_site_label_1
_geom_bond_atom_site_label_2
_geom_bond_distance
_geom_bond_site_symmetry_2
Cl0 Eu2 2.756644 1_555
Cl0 Rb10 3.305710 1_555
Cl0 Rb0 3.607998 1_555
Cl0 Rb7 3.620161 1_545
Cl0 Rb4 3.699478 1_555
Cl1 Eu2 2.756644 1_565
Cl1 Rb11 3.305710 1_555
Cl1 Rb1 3.607998 1_555
Cl1 Rb6 3.620161 1_565
Cl1 Rb5 3.699478 1_555
Cl2 Eu3 2.756644 1_655
Cl2 Rb8 3.305710 1_555
Cl2 Rb2 3.607998 1_555
Cl2 Rb5 3.620161 1_555
Cl2 Rb6 3.699478 1_555
Cl3 Eu3 2.756644 1_555
Cl3 Rb9 3.305710 1_555
Cl3 Rb3 3.607998 1_555
Cl3 Rb4 3.620161 1_555
Cl3 Rb7 3.699478 1_555
Cl4 Eu0 2.731437 1_555
Cl4 Rb6 3.241126 1_555
Cl4 Rb1 3.553615 1_545
Cl4 Rb8 3.602860 1_555
Cl4 Rb0 3.849543 1_554
Cl5 Eu1 2.731437 1_556
Cl5 Rb7 3.241126 1_555
Cl5 Rb0 3.553615 1_565
Cl5 Rb9 3.602860 1_555
Cl5 Rb1 3.849543 1_556
Cl6 Eu0 2.731437 1_556
Cl6 Rb4 3.241125 1_555
Cl6 Rb3 3.553615 1_555
Cl6 Rb10 3.602861 1_555
Cl6 Rb2 3.849543 1_556
Cl7 Eu1 2.731437 1_555
Cl7 Rb5 3.241125 1_555
Cl7 Rb2 3.553615 1_555
Cl7 Rb11 3.602861 1_555
Cl7 Rb3 3.849543 1_554
Cl8 Eu2 2.725954 1_555
Cl8 Rb6 3.290726 1_455
Cl8 Rb11 3.554916 1_445
Cl8 Rb8 3.736164 1_555
Cl8 Rb1 3.784326 1_545
Cl9 Eu2 2.725954 1_565
Cl9 Rb7 3.290726 1_655
Cl9 Rb10 3.554916 1_665
Cl9 Rb9 3.736164 1_555
Cl9 Rb0 3.784326 1_565
Cl10 Eu3 2.725954 1_655
Cl10 Rb4 3.290726 1_555
Cl10 Rb9 3.554916 1_555
Cl10 Rb10 3.736164 1_655
Cl10 Rb3 3.784326 1_655
Cl11 Eu3 2.725954 1_555
Cl11 Rb5 3.290726 1_555
Cl11 Rb8 3.554916 1_555
Cl11 Rb11 3.736164 1_455
Cl11 Rb2 3.784326 1_455
Cl12 Eu1 2.751102 1_455
Cl12 Rb11 3.335467 1_455
Cl12 Rb5 3.516075 1_555
Cl12 Rb3 3.574805 1_554
Cl12 Rb1 3.624389 1_555
Cl13 Eu0 2.751102 1_656
Cl13 Rb10 3.335467 1_655
Cl13 Rb4 3.516075 1_555
Cl13 Rb2 3.574805 1_556
Cl13 Rb0 3.624389 1_555
Cl14 Eu1 2.751102 1_556
Cl14 Rb9 3.335467 1_555
Cl14 Rb7 3.516075 1_655
Cl14 Rb1 3.574805 1_656
Cl14 Rb3 3.624389 1_655
Cl15 Eu0 2.751102 1_555
Cl15 Rb8 3.335467 1_555
Cl15 Rb6 3.516075 1_455
Cl15 Rb0 3.574805 1_454
Cl15 Rb2 3.624389 1_455
Cl16 Eu0 2.708415 1_555
Cl16 Rb5 3.449973 1_555
Cl16 Rb8 3.526883 1_555
Cl16 Rb3 3.591895 1_554
Cl16 Rb2 3.873018 1_455
Cl17 Eu1 2.708415 1_556
Cl17 Rb4 3.449973 1_555
Cl17 Rb9 3.526883 1_555
Cl17 Rb2 3.591895 1_556
Cl17 Rb3 3.873018 1_655
Cl18 Eu0 2.708415 1_556
Cl18 Rb7 3.449973 1_545
Cl18 Rb10 3.526883 1_555
Cl18 Rb1 3.591895 1_546
Cl18 Rb0 3.873018 1_455
Cl19 Eu1 2.708415 1_555
Cl19 Rb6 3.449973 1_565
Cl19 Rb11 3.526883 1_555
Cl19 Rb0 3.591895 1_564
Cl19 Rb1 3.873018 1_655
Cl20 Eu2 2.759432 1_555
Cl20 Rb10 3.335122 1_655
Cl20 Rb8 3.367797 1_555
Cl20 Rb6 3.444684 1_555
Cl20 Rb4 3.485383 1_555
Cl21 Eu2 2.759432 1_565
Cl21 Rb11 3.335122 1_455
Cl21 Rb9 3.367797 1_555
Cl21 Rb7 3.444684 1_555
Cl21 Rb5 3.485383 1_555
Cl22 Eu3 2.759432 1_555
Cl22 Rb8 3.335122 1_555
Cl22 Rb10 3.367797 1_555
Cl22 Rb4 3.444684 1_555
Cl22 Rb6 3.485383 1_455
Cl23 Eu3 2.759432 1_655
Cl23 Rb9 3.335122 1_555
Cl23 Rb11 3.367797 1_555
Cl23 Rb5 3.444684 1_555
Cl23 Rb7 3.485383 1_655
