# generated using pymatgen
data_Li3V2(PO4)3
_symmetry_space_group_name_H-M   'P 1'
_cell_length_a   8.70318900
_cell_length_b   8.82861341
_cell_length_c   12.21150112
_cell_angle_alpha   89.81560071
_cell_angle_beta   90.00000000
_cell_angle_gamma   90.00000000
_symmetry_Int_Tables_number   1
_chemical_formula_structural   Li3V2(PO4)3
_chemical_formula_sum   'Li12 V8 P12 O48'
_cell_volume   938.29136531
_cell_formula_units_Z   4
loop_
 _symmetry_equiv_pos_site_id
 _symmetry_equiv_pos_as_xyz
  1  'x, y, z'
loop_
 _atom_site_type_symbol
 _atom_site_label
 _atom_site_symmetry_multiplicity
 _atom_site_fract_x
 _atom_site_fract_y
 _atom_site_fract_z
 _atom_site_occupancy
  Li  Li0  1  0.21027700  0.85931000  0.95567300  1
  Li  Li1  1  0.71027700  0.64069000  0.54432700  1
  Li  Li2  1  0.78972300  0.14069000  0.04432700  1
  Li  Li3  1  0.28972300  0.35931000  0.45567300  1
  Li  Li4  1  0.70726200  0.07714500  0.75522900  1
  Li  Li5  1  0.20726200  0.42285500  0.74477100  1
  Li  Li6  1  0.29273800  0.92285500  0.24477100  1
  Li  Li7  1  0.79273800  0.57714500  0.25522900  1
  Li  Li8  1  0.67425000  0.48197600  0.79295600  1
  Li  Li9  1  0.17425000  0.01802400  0.70704400  1
  Li  Li10  1  0.32575000  0.51802400  0.20704400  1
  Li  Li11  1  0.82575000  0.98197600  0.29295600  1
  V  V0  1  0.03105800  0.74910300  0.61434800  1
  V  V1  1  0.53105800  0.75089700  0.88565200  1
  V  V2  1  0.96894200  0.25089700  0.38565200  1
  V  V3  1  0.46894200  0.24910300  0.11434800  1
  V  V4  1  0.02964100  0.25843300  0.88873300  1
  V  V5  1  0.52964100  0.24156700  0.61126700  1
  V  V6  1  0.97035900  0.74156700  0.11126700  1
  V  V7  1  0.47035900  0.75843300  0.38873300  1
  P  P0  1  0.39559300  0.60324300  0.64635500  1
  P  P1  1  0.89559300  0.89675700  0.85364500  1
  P  P2  1  0.60440700  0.39675700  0.35364500  1
  P  P3  1  0.10440700  0.10324300  0.14635500  1
  P  P4  1  0.39550000  0.10856200  0.85458800  1
  P  P5  1  0.89550000  0.39143800  0.64541200  1
  P  P6  1  0.60450000  0.89143800  0.14541200  1
  P  P7  1  0.10450000  0.60856200  0.35458800  1
  P  P8  1  0.25238400  0.53516100  0.99377600  1
  P  P9  1  0.75238400  0.96483900  0.50622400  1
  P  P10  1  0.74761600  0.46483900  0.00622400  1
  P  P11  1  0.24761600  0.03516100  0.49377600  1
  O  O0  1  0.39788100  0.93382400  0.83905200  1
  O  O1  1  0.89788100  0.56617600  0.66094800  1
  O  O2  1  0.60211900  0.06617600  0.16094800  1
  O  O3  1  0.10211900  0.43382400  0.33905200  1
  O  O4  1  0.37605900  0.42680300  0.62978200  1
  O  O5  1  0.87605900  0.07319700  0.87021800  1
  O  O6  1  0.62394100  0.57319700  0.37021800  1
  O  O7  1  0.12394100  0.92680300  0.12978200  1
  O  O8  1  0.01046800  0.87069500  0.75852900  1
  O  O9  1  0.51046800  0.62930500  0.74147100  1
  O  O10  1  0.98953200  0.12930500  0.24147100  1
  O  O11  1  0.48953200  0.37069500  0.25852900  1
  O  O12  1  0.01111800  0.31437800  0.72612100  1
  O  O13  1  0.51111800  0.18562200  0.77387900  1
  O  O14  1  0.98888200  0.68562200  0.27387900  1
  O  O15  1  0.48888200  0.81437800  0.22612100  1
  O  O16  1  0.46789100  0.67620900  0.54308000  1
  O  O17  1  0.96789100  0.82379100  0.95692000  1
  O  O18  1  0.53210900  0.32379100  0.45692000  1
  O  O19  1  0.03210900  0.17620900  0.04308000  1
  O  O20  1  0.43807600  0.15177500  0.97086900  1
  O  O21  1  0.93807600  0.34822500  0.52913100  1
  O  O22  1  0.56192400  0.84822500  0.02913100  1
  O  O23  1  0.06192400  0.65177500  0.47086900  1
  O  O24  1  0.13035300  0.94294400  0.56054100  1
  O  O25  1  0.63035300  0.55705600  0.93945900  1
  O  O26  1  0.86964700  0.05705600  0.43945900  1
  O  O27  1  0.36964700  0.44294400  0.06054100  1
  O  O28  1  0.17335900  0.43767400  0.90548800  1
  O  O29  1  0.67335900  0.06232600  0.59451200  1
  O  O30  1  0.82664100  0.56232600  0.09451200  1
  O  O31  1  0.32664100  0.93767400  0.40548800  1
  O  O32  1  0.32439000  0.67313100  0.93484000  1
  O  O33  1  0.82439000  0.82686900  0.56516000  1
  O  O34  1  0.67561000  0.32686900  0.06516000  1
  O  O35  1  0.17561000  0.17313100  0.43484000  1
  O  O36  1  0.35621700  0.10099500  0.58210600  1
  O  O37  1  0.85621700  0.39900500  0.91789400  1
  O  O38  1  0.64378300  0.89900500  0.41789400  1
  O  O39  1  0.14378300  0.60099500  0.08210600  1
  O  O40  1  0.23306500  0.65953400  0.67428000  1
  O  O41  1  0.73306500  0.84046600  0.82572000  1
  O  O42  1  0.76693500  0.34046600  0.32572000  1
  O  O43  1  0.26693500  0.15953400  0.17428000  1
  O  O44  1  0.22644300  0.15282800  0.82676100  1
  O  O45  1  0.72644300  0.34717200  0.67323900  1
  O  O46  1  0.77355700  0.84717200  0.17323900  1
  O  O47  1  0.27355700  0.65282800  0.32676100  1
loop_
_geom_bond_atom_site_label_1
_geom_bond_atom_site_label_2
_geom_bond_distance
_geom_bond_site_symmetry_2
Li0 O32 1.937914 1_555
Li0 O17 2.132758 1_455
Li0 O0 2.262904 1_555
Li0 O7 2.334149 1_556
Li1 O33 1.937914 1_555
Li1 O16 2.132758 1_555
Li1 O1 2.262904 1_555
Li1 O6 2.334149 1_555
Li2 O34 1.937914 1_555
Li2 O19 2.132758 1_655
Li2 O2 2.262904 1_555
Li2 O5 2.334149 1_554
Li3 O35 1.937914 1_555
Li3 O18 2.132758 1_555
Li3 O3 2.262904 1_555
Li3 O4 2.334149 1_555
Li4 O13 1.970934 1_555
Li4 O29 1.989375 1_555
Li4 O5 2.032441 1_555
Li4 O41 2.268488 1_545
Li5 O12 1.970934 1_555
Li5 O28 1.989375 1_555
Li5 O4 2.032441 1_555
Li5 O40 2.268488 1_555
Li6 O15 1.970934 1_555
Li6 O31 1.989375 1_555
Li6 O7 2.032441 1_555
Li6 O43 2.268488 1_565
Li7 O14 1.970934 1_555
Li7 O30 1.989375 1_555
Li7 O6 2.032441 1_555
Li7 O42 2.268488 1_555
Li8 O45 1.941952 1_555
Li8 O25 1.947707 1_555
Li8 O9 2.028225 1_555
Li8 O37 2.316285 1_555
Li9 O44 1.941952 1_555
Li9 O24 1.947707 1_545
Li9 O8 2.028225 1_545
Li9 O36 2.316285 1_555
Li10 O47 1.941952 1_555
Li10 O27 1.947707 1_555
Li10 O11 2.028225 1_555
Li10 O39 2.316285 1_555
Li11 O46 1.941952 1_555
Li11 O26 1.947707 1_565
Li11 O10 2.028225 1_565
Li11 O38 2.316285 1_555
O0 P4 1.555060 1_565
O0 V1 2.066286 1_555
O1 P5 1.555060 1_555
O1 V0 2.066286 1_655
O2 P6 1.555060 1_545
O2 V3 2.066286 1_555
O3 P7 1.555060 1_555
O3 V2 2.066286 1_455
O4 P0 1.580628 1_555
O4 V5 2.124759 1_555
O5 P1 1.580628 1_545
O5 V4 2.124759 1_655
O6 P2 1.580628 1_555
O6 V7 2.124759 1_555
O7 P3 1.580628 1_565
O7 V6 2.124759 1_455
O8 P1 1.550266 1_455
O8 V0 2.072825 1_555
O9 P0 1.550266 1_555
O9 V1 2.072825 1_555
O10 P3 1.550266 1_655
O10 V2 2.072825 1_555
O11 P2 1.550266 1_555
O11 V3 2.072825 1_555
O12 P5 1.562828 1_455
O12 V4 2.051043 1_555
O13 P4 1.562828 1_555
O13 V5 2.051043 1_555
O14 P7 1.562828 1_655
O14 V6 2.051043 1_555
O15 P6 1.562828 1_555
O15 V7 2.051043 1_555
O16 P0 1.547951 1_555
O16 V7 2.017702 1_555
O17 P1 1.547951 1_555
O17 V6 2.017702 1_556
O18 P2 1.547951 1_555
O18 V5 2.017702 1_555
O19 P3 1.547951 1_555
O19 V4 2.017702 1_554
O20 P4 1.517447 1_555
O20 V3 1.972317 1_556
O21 P5 1.517447 1_555
O21 V2 1.972317 1_555
O22 P6 1.517447 1_555
O22 V1 1.972317 1_554
O23 P7 1.517447 1_555
O23 V0 1.972317 1_555
O24 P11 1.537799 1_565
O24 V0 2.024850 1_555
O25 P10 1.537799 1_556
O25 V1 2.024850 1_555
O26 P9 1.537799 1_545
O26 V2 2.024850 1_555
O27 P8 1.537799 1_554
O27 V3 2.024850 1_555
O28 P8 1.543413 1_555
O28 V4 2.027956 1_555
O29 P9 1.543413 1_545
O29 V5 2.027956 1_555
O30 P10 1.543413 1_555
O30 V6 2.027956 1_555
O31 P11 1.543413 1_565
O31 V7 2.027956 1_555
O32 P8 1.545568 1_555
O32 V1 2.016117 1_555
O33 P9 1.545568 1_555
O33 V0 2.016117 1_655
O34 P10 1.545568 1_555
O34 V3 2.016117 1_555
O35 P11 1.545568 1_555
O35 V2 2.016117 1_455
O36 P11 1.548767 1_555
O36 V5 1.986953 1_555
O37 P10 1.548767 1_556
O37 V4 1.986953 1_655
O38 P9 1.548767 1_555
O38 V7 1.986953 1_555
O39 P8 1.548767 1_554
O39 V6 1.986953 1_455
O40 P0 1.537921 1_555
O40 V0 2.061103 1_555
O41 P1 1.537921 1_555
O41 V1 2.061103 1_555
O42 P2 1.537921 1_555
O42 V2 2.061103 1_555
O43 P3 1.537921 1_555
O43 V3 2.061103 1_555
O44 P4 1.559543 1_555
O44 V4 2.092896 1_555
O45 P5 1.559543 1_555
O45 V5 2.092896 1_555
O46 P6 1.559543 1_555
O46 V6 2.092896 1_555
O47 P7 1.559543 1_555
O47 V7 2.092896 1_555
