# generated using pymatgen
data_La15Ge9Ru
_symmetry_space_group_name_H-M   'P 1'
_cell_length_a   7.07672843
_cell_length_b   15.66980213
_cell_length_c   15.66969002
_cell_angle_alpha   119.99935915
_cell_angle_beta   90.00039212
_cell_angle_gamma   89.99967204
_symmetry_Int_Tables_number   1
_chemical_formula_structural   La15Ge9Ru
_chemical_formula_sum   'La30 Ge18 Ru2'
_cell_volume   1504.83846546
_cell_formula_units_Z   2
loop_
 _symmetry_equiv_pos_site_id
 _symmetry_equiv_pos_as_xyz
  1  'x, y, z'
loop_
 _atom_site_type_symbol
 _atom_site_label
 _atom_site_symmetry_multiplicity
 _atom_site_fract_x
 _atom_site_fract_y
 _atom_site_fract_z
 _atom_site_occupancy
  La  La0  1  0.98275670  0.65697225  0.67532624  1
  La  La1  1  0.98275549  0.01835084  0.34302290  1
  La  La2  1  0.48275636  0.34304345  0.32468457  1
  La  La3  1  0.98274837  0.01839234  0.67534325  1
  La  La4  1  0.98275561  0.32468025  0.98164032  1
  La  La5  1  0.48276133  0.98164202  0.65696248  1
  La  La6  1  0.98274650  0.32465851  0.34304404  1
  La  La7  1  0.48274784  0.98161656  0.32466096  1
  La  La8  1  0.48274541  0.67532275  0.01834880  1
  La  La9  1  0.48274362  0.67534205  0.65694179  1
  La  La10  1  0.98275793  0.65694994  0.98160846  1
  La  La11  1  0.48274130  0.34304732  0.01837985  1
  La  La12  1  0.72910773  0.41659820  0.83319847  1
  La  La13  1  0.72909200  0.41660198  0.58340327  1
  La  La14  1  0.22911636  0.58340501  0.16679852  1
  La  La15  1  0.72908911  0.16680747  0.58340660  1
  La  La16  1  0.22909871  0.58339776  0.41660162  1
  La  La17  1  0.22909355  0.83318674  0.41659306  1
  La  La18  1  0.70423737  0.08224892  0.16456000  1
  La  La19  1  0.70423177  0.08229406  0.91774535  1
  La  La20  1  0.20420534  0.91775502  0.83544105  1
  La  La21  1  0.70424185  0.83544364  0.91769016  1
  La  La22  1  0.20421290  0.91768211  0.08224844  1
  La  La23  1  0.20420071  0.16455400  0.08230768  1
  La  La24  1  0.76201849  0.74934363  0.49868619  1
  La  La25  1  0.76199699  0.74934535  0.25065862  1
  La  La26  1  0.26200683  0.25064282  0.50130464  1
  La  La27  1  0.76199640  0.50131040  0.25065714  1
  La  La28  1  0.26201675  0.25064220  0.74934263  1
  La  La29  1  0.26200903  0.49870199  0.74934124  1
  Ge  Ge0  1  0.76013850  0.86881556  0.73751514  1
  Ge  Ge1  1  0.76008519  0.86869379  0.13118883  1
  Ge  Ge2  1  0.26008398  0.13118289  0.26249019  1
  Ge  Ge3  1  0.76011173  0.26249618  0.13130628  1
  Ge  Ge4  1  0.26009613  0.13129694  0.86881657  1
  Ge  Ge5  1  0.26016063  0.73752832  0.86870591  1
  Ge  Ge6  1  0.69628601  0.19807482  0.39616587  1
  Ge  Ge7  1  0.69629984  0.19807951  0.80192675  1
  Ge  Ge8  1  0.19627910  0.80191984  0.60382284  1
  Ge  Ge9  1  0.69630024  0.60384788  0.80191632  1
  Ge  Ge10  1  0.19629222  0.80190325  0.19807847  1
  Ge  Ge11  1  0.19630283  0.39618022  0.19809595  1
  Ge  Ge12  1  0.74244276  0.53273975  0.06547236  1
  Ge  Ge13  1  0.74245002  0.53272676  0.46726326  1
  Ge  Ge14  1  0.24244623  0.46726542  0.93453211  1
  Ge  Ge15  1  0.74243553  0.93453418  0.46726420  1
  Ge  Ge16  1  0.24246523  0.46726525  0.53273414  1
  Ge  Ge17  1  0.24242194  0.06545401  0.53272095  1
  Ru  Ru0  1  0.99675523  0.66670619  0.33336018  1
  Ru  Ru1  1  0.49675831  0.33330969  0.66667534  1
loop_
_geom_bond_atom_site_label_1
_geom_bond_atom_site_label_2
_geom_bond_distance
_geom_bond_site_symmetry_2
La12 Ru1 2.794684 1_555
La13 Ru1 2.795076 1_555
La14 Ru0 2.795168 1_455
La15 Ru1 2.794393 1_555
La16 Ru0 2.794938 1_455
La17 Ru0 2.794194 1_455
La24 Ru0 2.791597 1_555
La25 Ru0 2.791821 1_555
La26 Ru1 2.792134 1_555
La27 Ru0 2.792461 1_555
La28 Ru1 2.791705 1_555
La29 Ru1 2.792376 1_555
Ge0 La19 3.142519 1_565
Ge0 La21 3.142809 1_555
Ge0 La24 3.241041 1_555
Ge0 La5 3.286866 1_555
Ge0 La9 3.288037 1_555
Ge0 La3 3.347808 1_565
Ge0 La0 3.349042 1_555
Ge0 La20 3.411963 1_655
Ge1 La21 3.142719 1_554
Ge1 La18 3.142923 1_565
Ge1 La25 3.240876 1_555
Ge1 La8 3.286684 1_555
Ge1 La7 3.287798 1_555
Ge1 La10 3.348000 1_554
Ge1 La1 3.349129 1_565
Ge1 La22 3.412386 1_655
Ge2 La22 3.142768 1_545
Ge2 La23 3.142899 1_555
Ge2 La26 3.240845 1_555
Ge2 La1 3.286543 1_455
Ge2 La6 3.287832 1_455
Ge2 La7 3.347819 1_545
Ge2 La2 3.349445 1_555
Ge2 La18 3.412561 1_555
Ge3 La18 3.142778 1_555
Ge3 La19 3.143120 1_554
Ge3 La27 3.240864 1_555
Ge3 La2 3.286799 1_555
Ge3 La11 3.287962 1_555
Ge3 La6 3.347760 1_555
Ge3 La4 3.349216 1_554
Ge3 La23 3.412199 1_655
Ge4 La23 3.142615 1_556
Ge4 La20 3.142737 1_545
Ge4 La28 3.240890 1_555
Ge4 La4 3.286787 1_455
Ge4 La3 3.287819 1_455
Ge4 La11 3.347922 1_556
Ge4 La5 3.349315 1_545
Ge4 La19 3.412435 1_555
Ge5 La20 3.142637 1_555
Ge5 La22 3.142728 1_556
Ge5 La29 3.241027 1_555
Ge5 La0 3.286993 1_455
Ge5 La10 3.288127 1_455
Ge5 La9 3.347876 1_555
Ge5 La8 3.348910 1_556
Ge5 La21 3.412013 1_555
Ge6 La18 3.143497 1_555
Ge6 La15 3.215557 1_555
Ge6 La13 3.215770 1_555
Ge6 La6 3.223046 1_555
Ge6 La1 3.223241 1_555
Ge6 La2 3.353001 1_555
Ge6 La7 3.353115 1_545
Ge6 La26 3.388327 1_555
Ge7 La19 3.143450 1_555
Ge7 La15 3.215718 1_555
Ge7 La12 3.215732 1_555
Ge7 La3 3.222840 1_555
Ge7 La4 3.223142 1_555
Ge7 La5 3.352930 1_545
Ge7 La11 3.353157 1_556
Ge7 La28 3.388380 1_555
Ge8 La20 3.143661 1_555
Ge8 La17 3.215393 1_555
Ge8 La16 3.215632 1_555
Ge8 La9 3.222948 1_555
Ge8 La5 3.223300 1_555
Ge8 La0 3.352951 1_455
Ge8 La3 3.353227 1_465
Ge8 La24 3.388184 1_455
Ge9 La21 3.143381 1_555
Ge9 La13 3.215672 1_555
Ge9 La12 3.215858 1_555
Ge9 La10 3.222913 1_555
Ge9 La0 3.223119 1_555
Ge9 La8 3.352888 1_556
Ge9 La9 3.353292 1_555
Ge9 La29 3.388447 1_555
Ge10 La22 3.143515 1_555
Ge10 La14 3.215373 1_555
Ge10 La17 3.215567 1_555
Ge10 La7 3.223103 1_555
Ge10 La8 3.223227 1_555
Ge10 La1 3.352974 1_465
Ge10 La10 3.353210 1_454
Ge10 La25 3.388426 1_455
Ge11 La23 3.143788 1_555
Ge11 La16 3.215434 1_555
Ge11 La14 3.215624 1_555
Ge11 La11 3.223039 1_555
Ge11 La2 3.223176 1_555
Ge11 La4 3.353087 1_454
Ge11 La6 3.353251 1_455
Ge11 La27 3.388448 1_455
Ge12 La12 3.153470 1_554
Ge12 La25 3.179778 1_555
Ge12 La27 3.179802 1_555
Ge12 La11 3.250268 1_555
Ge12 La8 3.250284 1_555
Ge12 La4 3.311237 1_554
Ge12 La10 3.311366 1_554
Ge12 La14 3.708399 1_655
Ge12 La14 3.884210 1_555
Ge13 La13 3.153333 1_555
Ge13 La27 3.179761 1_555
Ge13 La24 3.179921 1_555
Ge13 La2 3.250081 1_555
Ge13 La9 3.250216 1_555
Ge13 La6 3.311266 1_555
Ge13 La0 3.311268 1_555
Ge13 La16 3.708280 1_655
Ge13 La16 3.884387 1_555
Ge14 La14 3.153368 1_556
Ge14 La28 3.179971 1_555
Ge14 La29 3.179971 1_555
Ge14 La10 3.250161 1_455
Ge14 La4 3.250167 1_455
Ge14 La8 3.311194 1_556
Ge14 La11 3.311194 1_556
Ge14 La12 3.708368 1_555
Ge14 La12 3.884314 1_455
Ge15 La15 3.153487 1_565
Ge15 La25 3.179788 1_555
Ge15 La24 3.179849 1_555
Ge15 La7 3.250120 1_555
Ge15 La5 3.250161 1_555
Ge15 La1 3.311251 1_565
Ge15 La3 3.311417 1_565
Ge15 La17 3.708409 1_655
Ge15 La17 3.884416 1_555
Ge16 La16 3.153337 1_555
Ge16 La29 3.179652 1_555
Ge16 La26 3.179958 1_555
Ge16 La6 3.250329 1_455
Ge16 La0 3.250399 1_455
Ge16 La2 3.311042 1_555
Ge16 La9 3.311281 1_555
Ge16 La13 3.708116 1_555
Ge16 La13 3.884550 1_455
Ge17 La17 3.153402 1_545
Ge17 La26 3.179770 1_555
Ge17 La28 3.179948 1_555
Ge17 La1 3.250126 1_455
Ge17 La3 3.250140 1_455
Ge17 La5 3.311252 1_545
Ge17 La7 3.311276 1_545
Ge17 La15 3.708507 1_555
Ge17 La15 3.884377 1_455
