# generated using pymatgen
data_MnGa2Ni9
_symmetry_space_group_name_H-M   'P 1'
_cell_length_a   3.54403918
_cell_length_b   3.54403816
_cell_length_c   10.59078357
_cell_angle_alpha   90.00000000
_cell_angle_beta   90.00000000
_cell_angle_gamma   90.00000000
_symmetry_Int_Tables_number   1
_chemical_formula_structural   MnGa2Ni9
_chemical_formula_sum   'Mn1 Ga2 Ni9'
_cell_volume   133.02246670
_cell_formula_units_Z   1
loop_
 _symmetry_equiv_pos_site_id
 _symmetry_equiv_pos_as_xyz
  1  'x, y, z'
loop_
 _atom_site_type_symbol
 _atom_site_label
 _atom_site_symmetry_multiplicity
 _atom_site_fract_x
 _atom_site_fract_y
 _atom_site_fract_z
 _atom_site_occupancy
  Mn  Mn0  1  -0.00000000  -0.00000000  0.00000000  1
  Ga  Ga0  1  0.00000000  -0.00000000  0.33382725  1
  Ga  Ga1  1  -0.00000000  0.00000000  0.66617275  1
  Ni  Ni0  1  0.50000000  0.50000000  0.00000000  1
  Ni  Ni1  1  0.50000000  0.50000000  0.33379484  1
  Ni  Ni2  1  0.50000000  0.50000000  0.66620516  1
  Ni  Ni3  1  0.50000000  -0.00000000  0.16714074  1
  Ni  Ni4  1  0.50000000  -0.00000000  0.50000000  1
  Ni  Ni5  1  0.50000000  0.00000000  0.83285926  1
  Ni  Ni6  1  0.00000000  0.50000000  0.16714074  1
  Ni  Ni7  1  -0.00000000  0.50000000  0.50000000  1
  Ni  Ni8  1  -0.00000000  0.50000000  0.83285926  1
loop_
_geom_bond_atom_site_label_1
_geom_bond_atom_site_label_2
_geom_bond_distance
_geom_bond_site_symmetry_2
Mn0 Ni6 2.504693 1_555
Mn0 Ni6 2.504693 1_545
Mn0 Ni8 2.504693 1_554
Mn0 Ni8 2.504693 1_544
Mn0 Ni5 2.504693 1_454
Mn0 Ni3 2.504693 1_455
Mn0 Ni5 2.504693 1_554
Mn0 Ni3 2.504693 1_555
Mn0 Ni0 2.506014 1_445
Mn0 Ni0 2.506014 1_555
Mn0 Ni0 2.506014 1_455
Mn0 Ni0 2.506014 1_545
Ga0 Ni7 2.497458 1_545
Ga0 Ni7 2.497458 1_555
Ga0 Ni4 2.497459 1_455
Ga0 Ni4 2.497459 1_555
Ga0 Ni6 2.501296 1_555
Ga0 Ni6 2.501296 1_545
Ga0 Ni3 2.501296 1_455
Ga0 Ni3 2.501296 1_555
Ga0 Ni1 2.506014 1_555
Ga0 Ni1 2.506014 1_455
Ga0 Ni1 2.506014 1_545
Ga0 Ni1 2.506014 1_445
Ga1 Ni7 2.497458 1_545
Ga1 Ni7 2.497458 1_555
Ga1 Ni4 2.497459 1_455
Ga1 Ni4 2.497459 1_555
Ga1 Ni8 2.501296 1_555
Ga1 Ni8 2.501296 1_545
Ga1 Ni5 2.501296 1_555
Ga1 Ni5 2.501296 1_455
Ga1 Ni2 2.506014 1_445
Ga1 Ni2 2.506014 1_555
Ga1 Ni2 2.506014 1_455
Ga1 Ni2 2.506014 1_545
Ni0 Ni5 2.504693 1_564
Ni0 Ni5 2.504693 1_554
Ni0 Ni3 2.504693 1_565
Ni0 Ni3 2.504693 1_555
Ni0 Ni8 2.504693 1_654
Ni0 Ni6 2.504693 1_555
Ni0 Ni6 2.504693 1_655
Ni0 Ni8 2.504693 1_554
Ni1 Ni4 2.497700 1_555
Ni1 Ni4 2.497700 1_565
Ni1 Ni7 2.497701 1_555
Ni1 Ni7 2.497701 1_655
Ni1 Ni3 2.501053 1_555
Ni1 Ni3 2.501053 1_565
Ni1 Ni6 2.501054 1_555
Ni1 Ni6 2.501054 1_655
Ni2 Ni4 2.497700 1_555
Ni2 Ni4 2.497700 1_565
Ni2 Ni7 2.497701 1_655
Ni2 Ni7 2.497701 1_555
Ni2 Ni5 2.501053 1_565
Ni2 Ni5 2.501053 1_555
Ni2 Ni8 2.501054 1_555
Ni2 Ni8 2.501054 1_655
Ni3 Ni6 2.506014 1_655
Ni3 Ni6 2.506014 1_645
Ni3 Ni6 2.506014 1_555
Ni3 Ni6 2.506014 1_545
Ni4 Ni7 2.506014 1_545
Ni4 Ni7 2.506014 1_645
Ni4 Ni7 2.506014 1_555
Ni4 Ni7 2.506014 1_655
Ni5 Ni8 2.506014 1_555
Ni5 Ni8 2.506014 1_645
Ni5 Ni8 2.506014 1_545
Ni5 Ni8 2.506014 1_655
