# generated using pymatgen
data_MgP3H16C3NO12
_symmetry_space_group_name_H-M   'P 1'
_cell_length_a   9.29760800
_cell_length_b   16.39419200
_cell_length_c   9.90238544
_cell_angle_alpha   90.00000000
_cell_angle_beta   115.73402856
_cell_angle_gamma   90.00000000
_symmetry_Int_Tables_number   1
_chemical_formula_structural   MgP3H16C3NO12
_chemical_formula_sum   'Mg4 P12 H64 C12 N4 O48'
_cell_volume   1359.68642554
_cell_formula_units_Z   4
loop_
 _symmetry_equiv_pos_site_id
 _symmetry_equiv_pos_as_xyz
  1  'x, y, z'
loop_
 _atom_site_type_symbol
 _atom_site_label
 _atom_site_symmetry_multiplicity
 _atom_site_fract_x
 _atom_site_fract_y
 _atom_site_fract_z
 _atom_site_occupancy
  Mg  Mg0  1  0.53842100  0.71015500  0.67012300  1
  Mg  Mg1  1  0.46157900  0.21015500  0.82987700  1
  Mg  Mg2  1  0.46157900  0.28984500  0.32987700  1
  Mg  Mg3  1  0.53842100  0.78984500  0.17012300  1
  P  P0  1  0.93976700  0.96301500  0.71610700  1
  P  P1  1  0.06023300  0.46301500  0.78389300  1
  P  P2  1  0.06023300  0.03698500  0.28389300  1
  P  P3  1  0.93976700  0.53698500  0.21610700  1
  P  P4  1  0.53912600  0.87952400  0.88061600  1
  P  P5  1  0.46087400  0.37952400  0.61938400  1
  P  P6  1  0.46087400  0.12047600  0.11938400  1
  P  P7  1  0.53912600  0.62047600  0.38061600  1
  P  P8  1  0.17039300  0.78368400  0.48986300  1
  P  P9  1  0.82960700  0.28368400  0.01013700  1
  P  P10  1  0.82960700  0.21631600  0.51013700  1
  P  P11  1  0.17039300  0.71631600  0.98986300  1
  H  H0  1  0.92180800  0.09656800  0.73020500  1
  H  H1  1  0.07819200  0.59656800  0.76979500  1
  H  H2  1  0.07819200  0.90343200  0.26979500  1
  H  H3  1  0.92180800  0.40343200  0.23020500  1
  H  H4  1  0.76253700  0.91682100  0.86770000  1
  H  H5  1  0.23746300  0.41682100  0.63230000  1
  H  H6  1  0.23746300  0.08317900  0.13230000  1
  H  H7  1  0.76253700  0.58317900  0.36770000  1
  H  H8  1  0.01740900  0.66847100  0.41495900  1
  H  H9  1  0.98259100  0.16847100  0.08504100  1
  H  H10  1  0.98259100  0.33152900  0.58504100  1
  H  H11  1  0.01740900  0.83152900  0.91495900  1
  H  H12  1  0.85268800  0.66587500  0.82800700  1
  H  H13  1  0.14731200  0.16587500  0.67199300  1
  H  H14  1  0.14731200  0.33412500  0.17199300  1
  H  H15  1  0.85268800  0.83412500  0.32800700  1
  H  H16  1  0.68390600  0.76758100  0.50634300  1
  H  H17  1  0.31609400  0.26758100  0.99365700  1
  H  H18  1  0.31609400  0.23241900  0.49365700  1
  H  H19  1  0.68390600  0.73241900  0.00634300  1
  H  H20  1  0.21761600  0.92955000  0.89574700  1
  H  H21  1  0.78238400  0.42955000  0.60425300  1
  H  H22  1  0.78238400  0.07045000  0.10425300  1
  H  H23  1  0.21761600  0.57045000  0.39574700  1
  H  H24  1  0.20311800  0.02297000  0.80162100  1
  H  H25  1  0.79688200  0.52297000  0.69837900  1
  H  H26  1  0.79688200  0.97703000  0.19837900  1
  H  H27  1  0.20311800  0.47703000  0.30162100  1
  H  H28  1  0.24984100  0.79811400  0.76028400  1
  H  H29  1  0.75015900  0.29811400  0.73971600  1
  H  H30  1  0.75015900  0.20188600  0.23971600  1
  H  H31  1  0.24984100  0.70188600  0.26028400  1
  H  H32  1  0.04750200  0.82485500  0.64695900  1
  H  H33  1  0.95249800  0.32485500  0.85304100  1
  H  H34  1  0.95249800  0.17514500  0.35304100  1
  H  H35  1  0.04750200  0.67514500  0.14695900  1
  H  H36  1  0.15302700  0.95134000  0.57683700  1
  H  H37  1  0.84697300  0.45134000  0.92316300  1
  H  H38  1  0.84697300  0.04866000  0.42316300  1
  H  H39  1  0.15302700  0.54866000  0.07683700  1
  H  H40  1  0.40553200  0.00222800  0.75051100  1
  H  H41  1  0.59446800  0.50222800  0.74948900  1
  H  H42  1  0.59446800  0.99777200  0.24948900  1
  H  H43  1  0.40553200  0.49777200  0.25051100  1
  H  H44  1  0.40786900  0.92509900  0.62440800  1
  H  H45  1  0.59213100  0.42509900  0.87559200  1
  H  H46  1  0.59213100  0.07490100  0.37559200  1
  H  H47  1  0.40786900  0.57490100  0.12440800  1
  H  H48  1  0.39684600  0.66771600  0.85356600  1
  H  H49  1  0.60315400  0.16771600  0.64643400  1
  H  H50  1  0.60315400  0.33228400  0.14643400  1
  H  H51  1  0.39684600  0.83228400  0.35356600  1
  H  H52  1  0.31878900  0.61032800  0.71324500  1
  H  H53  1  0.68121100  0.11032800  0.78675500  1
  H  H54  1  0.68121100  0.38967200  0.28675500  1
  H  H55  1  0.31878900  0.88967200  0.21324500  1
  H  H56  1  0.77476700  0.61204100  0.90993100  1
  H  H57  1  0.22523300  0.11204100  0.59006900  1
  H  H58  1  0.22523300  0.38795900  0.09006900  1
  H  H59  1  0.77476700  0.88795900  0.40993100  1
  H  H60  1  0.76226100  0.81934000  0.66231700  1
  H  H61  1  0.23773900  0.31934000  0.83768300  1
  H  H62  1  0.23773900  0.18066000  0.33768300  1
  H  H63  1  0.76226100  0.68066000  0.16231700  1
  C  C0  1  0.15918500  0.95996700  0.78677700  1
  C  C1  1  0.84081500  0.45996700  0.71322300  1
  C  C2  1  0.84081500  0.04003300  0.21322300  1
  C  C3  1  0.15918500  0.54003300  0.28677700  1
  C  C4  1  0.38722800  0.93707900  0.72362100  1
  C  C5  1  0.61277200  0.43707900  0.77637900  1
  C  C6  1  0.61277200  0.06292100  0.27637900  1
  C  C7  1  0.38722800  0.56292100  0.22362100  1
  C  C8  1  0.16986100  0.83079000  0.65852200  1
  C  C9  1  0.83013900  0.33079000  0.84147800  1
  C  C10  1  0.83013900  0.16921000  0.34147800  1
  C  C11  1  0.16986100  0.66921000  0.15852200  1
  N  N0  1  0.21272700  0.91985300  0.67936000  1
  N  N1  1  0.78727300  0.41985300  0.82064000  1
  N  N2  1  0.78727300  0.08014700  0.32064000  1
  N  N3  1  0.21272700  0.58014700  0.17936000  1
  O  O0  1  0.86794600  0.96370000  0.54614800  1
  O  O1  1  0.13205400  0.46370000  0.95385200  1
  O  O2  1  0.13205400  0.03630000  0.45385200  1
  O  O3  1  0.86794600  0.53630000  0.04614800  1
  O  O4  1  0.88767600  0.89224400  0.78688800  1
  O  O5  1  0.11232400  0.39224400  0.71311200  1
  O  O6  1  0.11232400  0.10775600  0.21311200  1
  O  O7  1  0.88767600  0.60775600  0.28688800  1
  O  O8  1  0.90650900  0.04490200  0.78209300  1
  O  O9  1  0.09349100  0.54490200  0.71790700  1
  O  O10  1  0.09349100  0.95509800  0.21790700  1
  O  O11  1  0.90650900  0.45509800  0.28209300  1
  O  O12  1  0.56088100  0.79634200  0.82588200  1
  O  O13  1  0.43911900  0.29634200  0.67411800  1
  O  O14  1  0.43911900  0.20365800  0.17411800  1
  O  O15  1  0.56088100  0.70365800  0.32588200  1
  O  O16  1  0.69181300  0.93507200  0.91488600  1
  O  O17  1  0.30818700  0.43507200  0.58511400  1
  O  O18  1  0.30818700  0.06492800  0.08511400  1
  O  O19  1  0.69181300  0.56492800  0.41488600  1
  O  O20  1  0.50043700  0.88064100  0.01375400  1
  O  O21  1  0.49956300  0.38064100  0.48624600  1
  O  O22  1  0.49956300  0.11935900  0.98624600  1
  O  O23  1  0.50043700  0.61935900  0.51375400  1
  O  O24  1  0.34017600  0.77845700  0.50547000  1
  O  O25  1  0.65982400  0.27845700  0.99453000  1
  O  O26  1  0.65982400  0.22154300  0.49453000  1
  O  O27  1  0.34017600  0.72154300  0.00547000  1
  O  O28  1  0.10557800  0.69614200  0.50351900  1
  O  O29  1  0.89442200  0.19614200  0.99648100  1
  O  O30  1  0.89442200  0.30385800  0.49648100  1
  O  O31  1  0.10557800  0.80385800  0.00351900  1
  O  O32  1  0.05230600  0.82968600  0.35298200  1
  O  O33  1  0.94769400  0.32968600  0.14701800  1
  O  O34  1  0.94769400  0.17031400  0.64701800  1
  O  O35  1  0.05230600  0.67031400  0.85298200  1
  O  O36  1  0.41444800  0.64219700  0.77177600  1
  O  O37  1  0.58555200  0.14219700  0.72822400  1
  O  O38  1  0.58555200  0.35780300  0.22822400  1
  O  O39  1  0.41444800  0.85780300  0.27177600  1
  O  O40  1  0.74965500  0.65466700  0.83198100  1
  O  O41  1  0.25034500  0.15466700  0.66801900  1
  O  O42  1  0.25034500  0.34533300  0.16801900  1
  O  O43  1  0.74965500  0.84533300  0.33198100  1
  O  O44  1  0.69058000  0.77400900  0.60737100  1
  O  O45  1  0.30942000  0.27400900  0.89262900  1
  O  O46  1  0.30942000  0.22599100  0.39262900  1
  O  O47  1  0.69058000  0.72599100  0.10737100  1
loop_
_geom_bond_atom_site_label_1
_geom_bond_atom_site_label_2
_geom_bond_distance
_geom_bond_site_symmetry_2
Mg0 O12 2.034536 1_555
Mg0 O44 2.060779 1_555
Mg0 O23 2.064749 1_555
Mg0 O40 2.126048 1_555
Mg0 O36 2.142588 1_555
Mg0 O24 2.167927 1_555
Mg1 O13 2.034536 1_555
Mg1 O45 2.060779 1_555
Mg1 O22 2.064749 1_555
Mg1 O41 2.126048 1_555
Mg1 O37 2.142588 1_555
Mg1 O25 2.167927 1_555
Mg2 O14 2.034536 1_555
Mg2 O46 2.060779 1_555
Mg2 O21 2.064749 1_555
Mg2 O42 2.126048 1_555
Mg2 O38 2.142588 1_555
Mg2 O26 2.167927 1_555
Mg3 O15 2.034536 1_555
Mg3 O47 2.060779 1_555
Mg3 O20 2.064749 1_555
Mg3 O43 2.126048 1_555
Mg3 O39 2.142588 1_555
Mg3 O27 2.167927 1_555
H0 O8 1.032063 1_555
H0 O34 1.539594 1_555
H1 O9 1.032063 1_555
H1 O35 1.539594 1_555
H2 O10 1.032063 1_555
H2 O32 1.539594 1_555
H3 O11 1.032063 1_555
H3 O33 1.539594 1_555
H4 O16 1.003521 1_555
H4 O4 1.721905 1_555
H5 O17 1.003521 1_555
H5 O5 1.721905 1_555
H6 O18 1.003521 1_555
H6 O6 1.721905 1_555
H7 O19 1.003521 1_555
H7 O7 1.721905 1_555
H8 O28 1.011223 1_555
H8 O7 1.650958 1_455
H9 O29 1.011223 1_554
H9 O6 1.650958 1_655
H10 O30 1.011223 1_555
H10 O5 1.650958 1_655
H11 O31 1.011223 1_556
H11 O4 1.650958 1_455
H12 O40 0.992842 1_555
H13 O41 0.992842 1_555
H14 O42 0.992842 1_555
H15 O43 0.992842 1_555
H16 O44 0.980757 1_555
H17 O45 0.980757 1_555
H18 O46 0.980757 1_555
H19 O47 0.980757 1_555
H36 N0 1.056357 1_555
H37 N1 1.056357 1_555
H38 N2 1.056357 1_555
H39 N3 1.056357 1_555
H48 O36 0.986346 1_555
H49 O37 0.986346 1_555
H50 O38 0.986346 1_555
H51 O39 0.986346 1_555
H52 O36 0.975852 1_555
H53 O37 0.975852 1_555
H54 O38 0.975852 1_555
H55 O39 0.975852 1_555
H56 O40 0.991047 1_555
H57 O41 0.991047 1_555
H58 O42 0.991047 1_555
H59 O43 0.991047 1_555
H60 O44 0.988743 1_555
H60 O4 1.749504 1_555
H61 O45 0.988743 1_555
H61 O5 1.749504 1_555
H62 O46 0.988743 1_555
H62 O6 1.749504 1_555
H63 O47 0.988743 1_555
H63 O7 1.749504 1_555
C0 H20 1.095041 1_555
C0 H24 1.096888 1_565
C0 N0 1.507167 1_555
C0 P0 1.847790 1_455
C1 H21 1.095041 1_555
C1 H25 1.096888 1_555
C1 N1 1.507167 1_555
C1 P1 1.847790 1_655
C2 H22 1.095041 1_555
C2 H26 1.096888 1_545
C2 N2 1.507167 1_555
C2 P2 1.847790 1_655
C3 H23 1.095041 1_555
C3 H27 1.096888 1_555
C3 N3 1.507167 1_555
C3 P3 1.847790 1_455
C4 H40 1.096028 1_565
C4 H44 1.097420 1_555
C4 N0 1.512170 1_555
C4 P4 1.842586 1_555
C5 H41 1.096028 1_555
C5 H45 1.097420 1_555
C5 N1 1.512170 1_555
C5 P5 1.842586 1_555
C6 H42 1.096028 1_545
C6 H46 1.097420 1_555
C6 N2 1.512170 1_555
C6 P6 1.842586 1_555
C7 H43 1.096028 1_555
C7 H47 1.097420 1_555
C7 N3 1.512170 1_555
C7 P7 1.842586 1_555
C8 H32 1.097132 1_555
C8 H28 1.097570 1_555
C8 N0 1.503976 1_555
C8 P8 1.841986 1_555
C9 H33 1.097132 1_555
C9 H29 1.097570 1_555
C9 N1 1.503976 1_555
C9 P9 1.841986 1_556
C10 H34 1.097132 1_555
C10 H30 1.097570 1_555
C10 N2 1.503976 1_555
C10 P10 1.841986 1_555
C11 H35 1.097132 1_555
C11 H31 1.097570 1_555
C11 N3 1.503976 1_555
C11 P11 1.841986 1_554
O0 P0 1.517428 1_555
O1 P1 1.517428 1_555
O2 P2 1.517428 1_555
O3 P3 1.517428 1_555
O4 P0 1.538426 1_555
O5 P1 1.538426 1_555
O6 P2 1.538426 1_555
O7 P3 1.538426 1_555
O8 P0 1.581221 1_545
O9 P1 1.581221 1_555
O10 P2 1.581221 1_565
O11 P3 1.581221 1_555
O12 P4 1.513128 1_555
O13 P5 1.513128 1_555
O14 P6 1.513128 1_555
O15 P7 1.513128 1_555
O16 P4 1.594193 1_555
O17 P5 1.594193 1_555
O18 P6 1.594193 1_555
O19 P7 1.594193 1_555
O20 P4 1.509865 1_554
O21 P5 1.509865 1_555
O22 P6 1.509865 1_556
O23 P7 1.509865 1_555
O24 P8 1.520288 1_555
O25 P9 1.520288 1_556
O26 P10 1.520288 1_555
O27 P11 1.520288 1_554
O28 P8 1.584914 1_555
O29 P9 1.584914 1_556
O30 P10 1.584914 1_555
O31 P11 1.584914 1_554
O32 P8 1.522868 1_555
O33 P9 1.522868 1_555
O34 P10 1.522868 1_555
O35 P11 1.522868 1_555
