# generated using pymatgen
data_ZnCu2(SbO4)2
_symmetry_space_group_name_H-M   'P 1'
_cell_length_a   8.82418200
_cell_length_b   6.59246700
_cell_length_c   12.26042864
_cell_angle_alpha   87.95145594
_cell_angle_beta   90.00000000
_cell_angle_gamma   90.00000000
_symmetry_Int_Tables_number   1
_chemical_formula_structural   ZnCu2(SbO4)2
_chemical_formula_sum   'Zn4 Cu8 Sb8 O32'
_cell_volume   712.77166873
_cell_formula_units_Z   4
loop_
 _symmetry_equiv_pos_site_id
 _symmetry_equiv_pos_as_xyz
  1  'x, y, z'
loop_
 _atom_site_type_symbol
 _atom_site_label
 _atom_site_symmetry_multiplicity
 _atom_site_fract_x
 _atom_site_fract_y
 _atom_site_fract_z
 _atom_site_occupancy
  Zn  Zn0  1  0.83007200  0.89686600  0.05395600  1
  Zn  Zn1  1  0.16992800  0.10313400  0.94604400  1
  Zn  Zn2  1  0.33007200  0.10313400  0.44604400  1
  Zn  Zn3  1  0.66992800  0.89686600  0.55395600  1
  Cu  Cu0  1  0.82113900  0.24141200  0.87060700  1
  Cu  Cu1  1  0.94378500  0.61954600  0.62289400  1
  Cu  Cu2  1  0.05621500  0.38045400  0.37710600  1
  Cu  Cu3  1  0.17886100  0.75858800  0.12939300  1
  Cu  Cu4  1  0.67886100  0.24141200  0.37060700  1
  Cu  Cu5  1  0.55621500  0.61954600  0.12289400  1
  Cu  Cu6  1  0.32113900  0.75858800  0.62939300  1
  Cu  Cu7  1  0.44378500  0.38045400  0.87710600  1
  Sb  Sb0  1  0.54984600  0.90228900  0.84373000  1
  Sb  Sb1  1  0.95015400  0.90228900  0.34373000  1
  Sb  Sb2  1  0.91251700  0.39562800  0.13510400  1
  Sb  Sb3  1  0.04984600  0.09771100  0.65627000  1
  Sb  Sb4  1  0.08748300  0.60437200  0.86489600  1
  Sb  Sb5  1  0.41251700  0.60437200  0.36489600  1
  Sb  Sb6  1  0.58748300  0.39562800  0.63510400  1
  Sb  Sb7  1  0.45015400  0.09771100  0.15627000  1
  O  O0  1  0.75029400  0.96640800  0.39722000  1
  O  O1  1  0.97861800  0.34393200  0.58753100  1
  O  O2  1  0.41853100  0.80995800  0.47438400  1
  O  O3  1  0.91853100  0.19004200  0.02561600  1
  O  O4  1  0.74970600  0.96640800  0.89722000  1
  O  O5  1  0.24970600  0.03359200  0.60278000  1
  O  O6  1  0.89715800  0.90719700  0.61112200  1
  O  O7  1  0.11694200  0.48351100  0.14932300  1
  O  O8  1  0.38305800  0.48351100  0.64932300  1
  O  O9  1  0.12758800  0.70288000  0.71440100  1
  O  O10  1  0.62758800  0.29712000  0.78559900  1
  O  O11  1  0.88305800  0.51648900  0.85067700  1
  O  O12  1  0.10284200  0.09280300  0.38887800  1
  O  O13  1  0.46292600  0.12811600  0.30994300  1
  O  O14  1  0.72825800  0.59566400  0.57974100  1
  O  O15  1  0.77174200  0.59566400  0.07974100  1
  O  O16  1  0.96292600  0.87188400  0.19005700  1
  O  O17  1  0.61694200  0.51648900  0.35067700  1
  O  O18  1  0.53707400  0.87188400  0.69005700  1
  O  O19  1  0.58146900  0.19004200  0.52561600  1
  O  O20  1  0.52138200  0.34393200  0.08753100  1
  O  O21  1  0.87241200  0.29712000  0.28559900  1
  O  O22  1  0.25029400  0.03359200  0.10278000  1
  O  O23  1  0.60284200  0.90719700  0.11112200  1
  O  O24  1  0.08146900  0.80995800  0.97438400  1
  O  O25  1  0.22825800  0.40433600  0.92025900  1
  O  O26  1  0.02138200  0.65606800  0.41246900  1
  O  O27  1  0.47861800  0.65606800  0.91246900  1
  O  O28  1  0.39715800  0.09280300  0.88887800  1
  O  O29  1  0.27174200  0.40433600  0.42025900  1
  O  O30  1  0.37241200  0.70288000  0.21440100  1
  O  O31  1  0.03707400  0.12811600  0.80994300  1
loop_
_geom_bond_atom_site_label_1
_geom_bond_atom_site_label_2
_geom_bond_distance
_geom_bond_site_symmetry_2
Cu0 O11 1.901345 1_555
Cu0 O4 1.936053 1_545
Cu0 O10 2.027507 1_555
Cu0 O3 2.102157 1_556
Cu0 O31 2.186665 1_655
Cu1 O1 1.907926 1_555
Cu1 O6 1.940778 1_555
Cu1 O14 1.981841 1_555
Cu1 O9 2.057952 1_655
Cu2 O26 1.907926 1_555
Cu2 O12 1.940778 1_555
Cu2 O29 1.981841 1_555
Cu2 O21 2.057952 1_455
Cu3 O7 1.901345 1_555
Cu3 O22 1.936053 1_565
Cu3 O30 2.027507 1_555
Cu3 O24 2.102157 1_554
Cu3 O16 2.186665 1_455
Cu4 O17 1.901345 1_555
Cu4 O0 1.936053 1_545
Cu4 O21 2.027507 1_555
Cu4 O19 2.102157 1_555
Cu4 O13 2.186665 1_555
Cu5 O20 1.907926 1_555
Cu5 O23 1.940778 1_555
Cu5 O15 1.981841 1_555
Cu5 O30 2.057952 1_555
Cu6 O8 1.901345 1_555
Cu6 O5 1.936053 1_565
Cu6 O9 2.027507 1_555
Cu6 O2 2.102157 1_555
Cu6 O18 2.186665 1_555
Cu7 O27 1.907926 1_555
Cu7 O28 1.940778 1_555
Cu7 O25 1.981841 1_555
Cu7 O10 2.057952 1_555
O0 Sb1 1.933616 1_555
O0 Zn3 2.083951 1_555
O1 Sb3 1.908481 1_655
O2 Sb5 1.942095 1_555
O2 Zn2 2.101798 1_565
O2 Zn3 2.498233 1_555
O3 Sb2 1.942095 1_555
O3 Zn0 2.101798 1_545
O3 Zn1 2.498233 1_654
O4 Sb0 1.933616 1_555
O4 Zn0 2.083951 1_556
O5 Sb3 1.933616 1_555
O5 Zn2 2.083951 1_555
O6 Sb3 1.936201 1_665
O6 Zn3 2.125979 1_555
O7 Sb2 1.904540 1_455
O8 Sb6 1.904540 1_555
O9 Sb4 1.966170 1_555
O10 Sb6 1.966170 1_555
O11 Sb4 1.904540 1_655
O12 Sb1 1.936201 1_445
O12 Zn2 2.125979 1_555
O13 Sb7 1.905177 1_555
O13 Zn2 2.041138 1_555
O14 Sb6 1.918049 1_555
O14 Zn3 2.064669 1_555
O15 Sb2 1.918049 1_555
O15 Zn0 2.064669 1_555
O16 Sb1 1.905177 1_555
O16 Zn0 2.041138 1_555
O17 Sb5 1.904540 1_555
O18 Sb0 1.905177 1_555
O18 Zn3 2.041138 1_555
O19 Sb6 1.942095 1_555
O19 Zn3 2.101798 1_545
O19 Zn2 2.498233 1_555
O20 Sb7 1.908481 1_555
O21 Sb2 1.966170 1_555
O22 Sb7 1.933616 1_555
O22 Zn1 2.083951 1_554
O23 Sb7 1.936201 1_565
O23 Zn0 2.125979 1_555
O24 Sb4 1.942095 1_555
O24 Zn1 2.101798 1_565
O24 Zn0 2.498233 1_456
O25 Sb4 1.918049 1_555
O25 Zn1 2.064669 1_555
O26 Sb1 1.908481 1_455
O27 Sb0 1.908481 1_555
O28 Sb0 1.936201 1_545
O28 Zn1 2.125979 1_555
O29 Sb5 1.918049 1_555
O29 Zn2 2.064669 1_555
O30 Sb5 1.966170 1_555
O31 Sb3 1.905177 1_555
O31 Zn1 2.041138 1_555
