# generated using pymatgen
data_Al2Fe3(BiO4)3
_symmetry_space_group_name_H-M   'P 1'
_cell_length_a   5.36031500
_cell_length_b   5.57874576
_cell_length_c   9.52113908
_cell_angle_alpha   106.93148168
_cell_angle_beta   90.15666013
_cell_angle_gamma   118.25265730
_symmetry_Int_Tables_number   1
_chemical_formula_structural   Al2Fe3(BiO4)3
_chemical_formula_sum   'Al2 Fe3 Bi3 O12'
_cell_volume   236.56580372
_cell_formula_units_Z   1
loop_
 _symmetry_equiv_pos_site_id
 _symmetry_equiv_pos_as_xyz
  1  'x, y, z'
loop_
 _atom_site_type_symbol
 _atom_site_label
 _atom_site_symmetry_multiplicity
 _atom_site_fract_x
 _atom_site_fract_y
 _atom_site_fract_z
 _atom_site_occupancy
  Al  Al0  1  0.45978600  0.44452300  0.49280500  1
  Al  Al1  1  0.92174400  0.23389000  0.63303800  1
  Fe  Fe0  1  0.42866300  0.68455500  0.15399900  1
  Fe  Fe1  1  0.67237600  0.46688300  0.87455900  1
  Fe  Fe2  1  0.15936900  0.91317100  0.40485800  1
  Bi  Bi0  1  0.77511700  0.26415400  0.25706200  1
  Bi  Bi1  1  0.27355500  0.78826600  0.75557900  1
  Bi  Bi2  1  0.02336500  0.03127700  0.00091100  1
  O  O0  1  0.39395500  0.33288200  0.29102800  1
  O  O1  1  0.90873300  0.90028200  0.77510800  1
  O  O2  1  0.05166600  0.18827800  0.48324000  1
  O  O3  1  0.53241700  0.64286100  0.97841900  1
  O  O4  1  0.02607300  0.59023600  0.05872400  1
  O  O5  1  0.51657600  0.10267100  0.56272700  1
  O  O6  1  0.38371500  0.75401000  0.35670600  1
  O  O7  1  0.89777800  0.34860500  0.80110800  1
  O  O8  1  0.85436100  0.89596900  0.23157500  1
  O  O9  1  0.36878700  0.45066700  0.68671800  1
  O  O10  1  0.49777000  0.10598300  0.02138200  1
  O  O11  1  0.89219300  0.59083800  0.52645300  1
loop_
_geom_bond_atom_site_label_1
_geom_bond_atom_site_label_2
_geom_bond_distance
_geom_bond_site_symmetry_2
Al0 O0 1.815084 1_555
Al0 O9 1.905708 1_555
Al0 O2 1.949373 1_555
Al0 O11 2.047867 1_555
Al0 O5 2.336864 1_555
Al1 O7 1.571378 1_555
Al1 O2 1.595541 1_655
Al1 O5 1.975431 1_555
Al1 O9 2.087030 1_655
Al1 O11 2.548544 1_555
Al1 O1 2.577260 1_545
Fe0 O3 1.749038 1_554
Fe0 O6 1.894318 1_555
Fe0 O8 2.019658 1_555
Fe0 O4 2.095954 1_555
Fe1 O3 1.624926 1_555
Fe1 O7 1.695548 1_555
Fe1 O4 2.277398 1_656
Fe1 O9 2.367585 1_555
Fe1 O10 2.597369 1_556
Fe1 O1 2.605304 1_555
Fe2 O6 1.794868 1_555
Fe2 O2 1.849264 1_565
Fe2 O5 2.045849 1_565
Fe2 O8 2.269083 1_455
Fe2 O11 2.325615 1_455
Bi0 O8 2.234844 1_545
Bi0 O0 2.258114 1_555
Bi0 O10 2.368673 1_555
Bi0 O11 2.545538 1_555
Bi1 O9 2.104841 1_555
Bi1 O1 2.310963 1_455
Bi1 O7 2.491588 1_455
Bi1 O10 2.518867 1_566
Bi1 O11 2.568192 1_455
Bi1 O5 2.805486 1_565
Bi2 O1 2.046031 1_444
Bi2 O10 2.371698 1_555
Bi2 O3 2.448417 1_444
Bi2 O8 2.557885 1_445
Bi2 O4 2.679489 1_545
