# generated using pymatgen
data_YbZnRh2
_symmetry_space_group_name_H-M   'P 1'
_cell_length_a   4.47528960
_cell_length_b   4.47528960
_cell_length_c   4.47528960
_cell_angle_alpha   60.00000000
_cell_angle_beta   60.00000000
_cell_angle_gamma   60.00000000
_symmetry_Int_Tables_number   1
_chemical_formula_structural   YbZnRh2
_chemical_formula_sum   'Yb1 Zn1 Rh2'
_cell_volume   63.37944524
_cell_formula_units_Z   1
loop_
 _symmetry_equiv_pos_site_id
 _symmetry_equiv_pos_as_xyz
  1  'x, y, z'
loop_
 _atom_site_type_symbol
 _atom_site_label
 _atom_site_symmetry_multiplicity
 _atom_site_fract_x
 _atom_site_fract_y
 _atom_site_fract_z
 _atom_site_occupancy
  Yb  Yb0  1  0.24999900  0.24999900  0.24999900  1
  Zn  Zn0  1  0.74999900  0.74999900  0.74999900  1
  Rh  Rh0  1  0.00000000  0.00000000  0.00000000  1
  Rh  Rh1  1  0.50000000  0.50000000  0.50000000  1
loop_
_geom_bond_atom_site_label_1
_geom_bond_atom_site_label_2
_geom_bond_distance
_geom_bond_site_symmetry_2
Rh0 Yb0 2.740533 1_555
Rh0 Zn0 2.740540 1_445
Rh0 Zn0 2.740540 1_544
Rh0 Zn0 2.740540 1_454
Rh0 Yb0 2.740548 1_554
Rh0 Yb0 2.740548 1_455
Rh0 Yb0 2.740548 1_545
Rh0 Zn0 2.740555 1_444
Rh1 Zn0 2.740533 1_555
Rh1 Yb0 2.740540 1_556
Rh1 Yb0 2.740540 1_655
Rh1 Yb0 2.740540 1_565
Rh1 Zn0 2.740548 1_554
Rh1 Zn0 2.740548 1_545
Rh1 Zn0 2.740548 1_455
Rh1 Yb0 2.740555 1_555
