# generated using pymatgen
data_K2Hg3(GeS4)2
_symmetry_space_group_name_H-M   'P 1'
_cell_length_a   6.44446817
_cell_length_b   6.44446817
_cell_length_c   19.41557716
_cell_angle_alpha   90.00000000
_cell_angle_beta   90.00000000
_cell_angle_gamma   98.74139354
_symmetry_Int_Tables_number   1
_chemical_formula_structural   K2Hg3(GeS4)2
_chemical_formula_sum   'K4 Hg6 Ge4 S16'
_cell_volume   796.98533828
_cell_formula_units_Z   2
loop_
 _symmetry_equiv_pos_site_id
 _symmetry_equiv_pos_as_xyz
  1  'x, y, z'
loop_
 _atom_site_type_symbol
 _atom_site_label
 _atom_site_symmetry_multiplicity
 _atom_site_fract_x
 _atom_site_fract_y
 _atom_site_fract_z
 _atom_site_occupancy
  K  K0  1  0.85552480  0.45347757  0.88341131  1
  K  K1  1  0.45347757  0.85552480  0.11658869  1
  K  K2  1  0.35552480  0.95347757  0.61658869  1
  K  K3  1  0.95347757  0.35552480  0.38341131  1
  Hg  Hg0  1  0.29662692  0.38747705  0.75469334  1
  Hg  Hg1  1  0.38747705  0.29662692  0.24530666  1
  Hg  Hg2  1  0.79662692  0.88747705  0.74530666  1
  Hg  Hg3  1  0.88747705  0.79662692  0.25469334  1
  Hg  Hg4  1  0.01987789  0.01987789  0.00000000  1
  Hg  Hg5  1  0.51987789  0.51987789  0.50000000  1
  Ge  Ge0  1  0.37108594  0.95082660  0.86474533  1
  Ge  Ge1  1  0.95082660  0.37108594  0.13525467  1
  Ge  Ge2  1  0.87108594  0.45082660  0.63525467  1
  Ge  Ge3  1  0.45082660  0.87108594  0.36474533  1
  S  S0  1  0.21018792  0.41204715  0.63271454  1
  S  S1  1  0.41204715  0.21018792  0.36728546  1
  S  S2  1  0.71018792  0.91204715  0.86728546  1
  S  S3  1  0.91204715  0.71018792  0.13271454  1
  S  S4  1  0.32604515  0.28685387  0.87485513  1
  S  S5  1  0.28685387  0.32604515  0.12514487  1
  S  S6  1  0.82604515  0.78685387  0.62514487  1
  S  S7  1  0.78685387  0.82604515  0.37485513  1
  S  S8  1  0.24596175  0.78700874  0.96208440  1
  S  S9  1  0.78700874  0.24596175  0.03791560  1
  S  S10  1  0.74596175  0.28700874  0.53791560  1
  S  S11  1  0.28700874  0.74596175  0.46208440  1
  S  S12  1  0.22219158  0.80810606  0.77235805  1
  S  S13  1  0.80810606  0.22219158  0.22764195  1
  S  S14  1  0.30810606  0.72219158  0.27235805  1
  S  S15  1  0.72219158  0.30810606  0.72764195  1
loop_
_geom_bond_atom_site_label_1
_geom_bond_atom_site_label_2
_geom_bond_distance
_geom_bond_site_symmetry_2
K0 S15 3.243151 1_555
K0 S2 3.248079 1_555
K0 S9 3.286742 1_556
K0 S4 3.371184 1_655
K0 S8 3.411812 1_655
K0 S4 3.422013 1_555
K0 S2 3.486644 1_545
K1 S14 3.243151 1_555
K1 S3 3.248079 1_555
K1 S8 3.286742 1_554
K1 S5 3.371184 1_565
K1 S9 3.411812 1_565
K1 S5 3.422013 1_555
K1 S3 3.486644 1_455
K2 S12 3.243151 1_555
K2 S0 3.248079 1_565
K2 S11 3.286742 1_555
K2 S6 3.371184 1_555
K2 S10 3.411812 1_565
K2 S6 3.422013 1_455
K2 S0 3.486644 1_555
K3 S13 3.243151 1_555
K3 S1 3.248079 1_655
K3 S10 3.286742 1_555
K3 S7 3.371184 1_555
K3 S11 3.411812 1_655
K3 S7 3.422013 1_545
K3 S1 3.486644 1_555
Hg0 S4 2.436545 1_555
Hg0 S0 2.443559 1_555
Hg0 S12 2.844474 1_555
Hg0 S15 2.912969 1_555
Hg1 S5 2.436545 1_555
Hg1 S1 2.443559 1_555
Hg1 S13 2.844474 1_555
Hg1 S14 2.912969 1_555
Hg2 S6 2.436545 1_555
Hg2 S2 2.443559 1_555
Hg2 S15 2.844474 1_565
Hg2 S12 2.912969 1_655
Hg3 S7 2.436545 1_555
Hg3 S3 2.443559 1_555
Hg3 S14 2.844474 1_655
Hg3 S13 2.912969 1_565
Hg4 S9 2.362518 1_455
Hg4 S8 2.362518 1_544
Hg5 S11 2.362518 1_555
Hg5 S10 2.362518 1_555
Ge0 S12 2.171630 1_555
Ge0 S4 2.236806 1_565
Ge0 S2 2.237535 1_555
Ge0 S8 2.253377 1_555
Ge1 S13 2.171630 1_555
Ge1 S5 2.236806 1_655
Ge1 S3 2.237535 1_555
Ge1 S9 2.253377 1_555
Ge2 S15 2.171630 1_555
Ge2 S6 2.236806 1_555
Ge2 S0 2.237535 1_655
Ge2 S10 2.253377 1_555
Ge3 S14 2.171630 1_555
Ge3 S7 2.236806 1_555
Ge3 S1 2.237535 1_565
Ge3 S11 2.253377 1_555
