# generated using pymatgen
data_Rb2MnV2O7
_symmetry_space_group_name_H-M   'P 1'
_cell_length_a   8.75817000
_cell_length_b   8.75817000
_cell_length_c   12.05909800
_cell_angle_alpha   90.00000000
_cell_angle_beta   90.00000000
_cell_angle_gamma   90.00000000
_symmetry_Int_Tables_number   1
_chemical_formula_structural   Rb2MnV2O7
_chemical_formula_sum   'Rb8 Mn4 V8 O28'
_cell_volume   924.99964509
_cell_formula_units_Z   4
loop_
 _symmetry_equiv_pos_site_id
 _symmetry_equiv_pos_as_xyz
  1  'x, y, z'
loop_
 _atom_site_type_symbol
 _atom_site_label
 _atom_site_symmetry_multiplicity
 _atom_site_fract_x
 _atom_site_fract_y
 _atom_site_fract_z
 _atom_site_occupancy
  Rb  Rb0  1  0.15061900  0.84938100  0.50000000  1
  Rb  Rb1  1  0.65061900  0.65061900  0.00000000  1
  Rb  Rb2  1  0.34938100  0.34938100  0.00000000  1
  Rb  Rb3  1  0.84938100  0.15061900  0.50000000  1
  Rb  Rb4  1  0.67962700  0.67962700  0.50000000  1
  Rb  Rb5  1  0.82037300  0.17962700  0.00000000  1
  Rb  Rb6  1  0.17962700  0.82037300  0.00000000  1
  Rb  Rb7  1  0.32037300  0.32037300  0.50000000  1
  Mn  Mn0  1  0.00000000  0.50000000  0.75000000  1
  Mn  Mn1  1  0.00000000  0.50000000  0.25000000  1
  Mn  Mn2  1  0.50000000  0.00000000  0.75000000  1
  Mn  Mn3  1  0.50000000  0.00000000  0.25000000  1
  V  V0  1  0.63914900  0.36085100  0.71607200  1
  V  V1  1  0.36085100  0.63914900  0.71607200  1
  V  V2  1  0.36085100  0.63914900  0.28392800  1
  V  V3  1  0.86085100  0.86085100  0.21607200  1
  V  V4  1  0.13914900  0.13914900  0.21607200  1
  V  V5  1  0.86085100  0.86085100  0.78392800  1
  V  V6  1  0.13914900  0.13914900  0.78392800  1
  V  V7  1  0.63914900  0.36085100  0.28392800  1
  O  O0  1  0.64022200  0.35977800  0.85553600  1
  O  O1  1  0.35977800  0.64022200  0.85553600  1
  O  O2  1  0.35977800  0.64022200  0.14446400  1
  O  O3  1  0.85977800  0.85977800  0.35553600  1
  O  O4  1  0.14022200  0.14022200  0.35553600  1
  O  O5  1  0.85977800  0.85977800  0.64446400  1
  O  O6  1  0.14022200  0.14022200  0.64446400  1
  O  O7  1  0.64022200  0.35977800  0.14446400  1
  O  O8  1  0.50000000  0.50000000  0.66362600  1
  O  O9  1  0.00000000  0.00000000  0.16362600  1
  O  O10  1  0.00000000  0.00000000  0.83637400  1
  O  O11  1  0.50000000  0.50000000  0.33637400  1
  O  O12  1  0.18349800  0.58669300  0.33747700  1
  O  O13  1  0.81650200  0.41330700  0.33747700  1
  O  O14  1  0.58669300  0.18349800  0.66252300  1
  O  O15  1  0.08669300  0.31650200  0.83747700  1
  O  O16  1  0.91330700  0.68349800  0.83747700  1
  O  O17  1  0.31650200  0.08669300  0.16252300  1
  O  O18  1  0.68349800  0.91330700  0.16252300  1
  O  O19  1  0.41330700  0.81650200  0.66252300  1
  O  O20  1  0.58669300  0.18349800  0.33747700  1
  O  O21  1  0.31650200  0.08669300  0.83747700  1
  O  O22  1  0.68349800  0.91330700  0.83747700  1
  O  O23  1  0.08669300  0.31650200  0.16252300  1
  O  O24  1  0.91330700  0.68349800  0.16252300  1
  O  O25  1  0.41330700  0.81650200  0.33747700  1
  O  O26  1  0.18349800  0.58669300  0.66252300  1
  O  O27  1  0.81650200  0.41330700  0.66252300  1
loop_
_geom_bond_atom_site_label_1
_geom_bond_atom_site_label_2
_geom_bond_distance
_geom_bond_site_symmetry_2
Mn0 O16 2.066903 1_455
Mn0 O15 2.066903 1_555
Mn0 O26 2.066903 1_555
Mn0 O27 2.066903 1_455
Mn1 O24 2.066903 1_455
Mn1 O13 2.066903 1_455
Mn1 O12 2.066903 1_555
Mn1 O23 2.066903 1_555
Mn2 O22 2.066903 1_545
Mn2 O21 2.066903 1_555
Mn2 O14 2.066903 1_555
Mn2 O19 2.066903 1_545
Mn3 O18 2.066903 1_545
Mn3 O20 2.066903 1_555
Mn3 O25 2.066903 1_545
Mn3 O17 2.066903 1_555
O0 V0 1.681863 1_555
O0 Rb5 2.830864 1_556
O0 Rb2 3.087334 1_556
O0 Rb1 3.087334 1_556
O1 V1 1.681863 1_555
O1 Rb6 2.830864 1_556
O1 Rb2 3.087334 1_556
O1 Rb1 3.087334 1_556
O2 V2 1.681863 1_555
O2 Rb6 2.830864 1_555
O2 Rb1 3.087334 1_555
O2 Rb2 3.087334 1_555
O3 V3 1.681863 1_555
O3 Rb4 2.830864 1_555
O3 Rb3 3.087334 1_565
O3 Rb0 3.087334 1_655
O4 V4 1.681863 1_555
O4 Rb7 2.830864 1_555
O4 Rb0 3.087334 1_545
O4 Rb3 3.087334 1_455
O5 V5 1.681863 1_555
O5 Rb4 2.830864 1_555
O5 Rb0 3.087334 1_655
O5 Rb3 3.087334 1_565
O6 V6 1.681863 1_555
O6 Rb7 2.830864 1_555
O6 Rb0 3.087334 1_545
O6 Rb3 3.087334 1_455
O7 V7 1.681863 1_555
O7 Rb5 2.830864 1_555
O7 Rb1 3.087334 1_555
O7 Rb2 3.087334 1_555
O8 V0 1.835867 1_555
O8 V1 1.835867 1_555
O8 Rb4 2.973783 1_555
O8 Rb7 2.973783 1_555
O9 V4 1.835867 1_555
O9 V3 1.835867 1_445
O9 Rb6 2.973783 1_545
O9 Rb5 2.973783 1_455
O10 V6 1.835867 1_555
O10 V5 1.835867 1_445
O10 Rb6 2.973783 1_546
O10 Rb5 2.973783 1_456
O11 V7 1.835867 1_555
O11 V2 1.835867 1_555
O11 Rb4 2.973783 1_555
O11 Rb7 2.973783 1_555
O12 V2 1.743779 1_555
O12 Rb0 3.035971 1_555
O12 Rb7 3.273933 1_555
O13 V7 1.743779 1_555
O13 Rb3 3.035971 1_555
O13 Rb4 3.273933 1_555
O14 V0 1.743779 1_555
O14 Rb3 3.035971 1_555
O14 Rb7 3.273933 1_555
O15 V6 1.743779 1_555
O15 Rb2 3.035971 1_556
O15 Rb5 3.273933 1_456
O16 V5 1.743779 1_555
O16 Rb1 3.035971 1_556
O16 Rb6 3.273933 1_656
O17 V4 1.743779 1_555
O17 Rb2 3.035971 1_555
O17 Rb6 3.273933 1_545
O18 V3 1.743779 1_555
O18 Rb1 3.035971 1_555
O18 Rb5 3.273933 1_565
O19 V1 1.743779 1_555
O19 Rb0 3.035971 1_555
O19 Rb4 3.273933 1_555
O20 V7 1.743779 1_555
O20 Rb3 3.035971 1_555
O20 Rb7 3.273933 1_555
O21 V6 1.743779 1_555
O21 Rb2 3.035971 1_556
O21 Rb6 3.273933 1_546
O22 V5 1.743779 1_555
O22 Rb1 3.035971 1_556
O22 Rb5 3.273933 1_566
O23 V4 1.743779 1_555
O23 Rb2 3.035971 1_555
O23 Rb5 3.273933 1_455
O24 V3 1.743779 1_555
O24 Rb1 3.035971 1_555
O24 Rb6 3.273933 1_655
O25 V2 1.743779 1_555
O25 Rb0 3.035971 1_555
O25 Rb4 3.273933 1_555
O26 V1 1.743779 1_555
O26 Rb0 3.035971 1_555
O26 Rb7 3.273933 1_555
O27 V0 1.743779 1_555
O27 Rb3 3.035971 1_555
O27 Rb4 3.273933 1_555
