# generated using pymatgen
data_Ba4U8As2O33
_symmetry_space_group_name_H-M   'P 1'
_cell_length_a   7.11158900
_cell_length_b   14.35294200
_cell_length_c   15.69411200
_cell_angle_alpha   90.00000000
_cell_angle_beta   90.00000000
_cell_angle_gamma   90.00000000
_symmetry_Int_Tables_number   1
_chemical_formula_structural   Ba4U8As2O33
_chemical_formula_sum   'Ba8 U16 As4 O66'
_cell_volume   1601.93292253
_cell_formula_units_Z   2
loop_
 _symmetry_equiv_pos_site_id
 _symmetry_equiv_pos_as_xyz
  1  'x, y, z'
loop_
 _atom_site_type_symbol
 _atom_site_label
 _atom_site_symmetry_multiplicity
 _atom_site_fract_x
 _atom_site_fract_y
 _atom_site_fract_z
 _atom_site_occupancy
  Ba  Ba0  1  0.29838800  0.74934800  0.74969100  1
  Ba  Ba1  1  0.70161200  0.24934800  0.75030900  1
  Ba  Ba2  1  0.70161200  0.24934800  0.24969100  1
  Ba  Ba3  1  0.29838800  0.74934800  0.25030900  1
  Ba  Ba4  1  0.42303300  0.24190300  0.00000000  1
  Ba  Ba5  1  0.57473000  0.76361800  0.00000000  1
  Ba  Ba6  1  0.42527000  0.26361800  0.50000000  1
  Ba  Ba7  1  0.57696700  0.74190300  0.50000000  1
  U  U0  1  0.50098200  0.99640300  0.86150400  1
  U  U1  1  0.49901800  0.49640300  0.63849600  1
  U  U2  1  0.50098200  0.99640300  0.13849600  1
  U  U3  1  0.49901800  0.49640300  0.36150400  1
  U  U4  1  0.99885600  0.00000300  0.00000000  1
  U  U5  1  0.00114400  0.50000300  0.50000000  1
  U  U6  1  0.49987500  0.00038400  0.62507900  1
  U  U7  1  0.50012500  0.50038500  0.87492100  1
  U  U8  1  0.49987500  0.00038400  0.37492100  1
  U  U9  1  0.50012500  0.50038500  0.12507900  1
  U  U10  1  0.00013700  0.00007300  0.50000000  1
  U  U11  1  0.99986300  0.50007300  0.00000000  1
  U  U12  1  0.00025800  0.00019500  0.76827000  1
  U  U13  1  0.99974200  0.50019500  0.73173000  1
  U  U14  1  0.00025800  0.00019500  0.23173000  1
  U  U15  1  0.99974200  0.50019500  0.26827000  1
  As  As0  1  0.91269000  0.24805300  0.50000000  1
  As  As1  1  0.08723500  0.75159200  0.50000000  1
  As  As2  1  0.91276500  0.25159200  0.00000000  1
  As  As3  1  0.08731000  0.74805300  0.00000000  1
  O  O0  1  0.46445400  0.12591400  0.86199600  1
  O  O1  1  0.53870400  0.86762000  0.85290500  1
  O  O2  1  0.46129600  0.36762000  0.64709500  1
  O  O3  1  0.53554600  0.62591400  0.63800400  1
  O  O4  1  0.53870400  0.86762000  0.14709500  1
  O  O5  1  0.46445400  0.12591400  0.13800400  1
  O  O6  1  0.53554600  0.62591400  0.36199600  1
  O  O7  1  0.46129600  0.36762000  0.35290500  1
  O  O8  1  0.17832700  0.98514400  0.90077500  1
  O  O9  1  0.82162100  0.01618100  0.89994700  1
  O  O10  1  0.17837900  0.51618100  0.60005300  1
  O  O11  1  0.82167300  0.48514400  0.59922500  1
  O  O12  1  0.82162100  0.01618100  0.10005300  1
  O  O13  1  0.17832700  0.98514400  0.09922500  1
  O  O14  1  0.82167300  0.48514400  0.40077500  1
  O  O15  1  0.17837900  0.51618100  0.39994700  1
  O  O16  1  0.77394600  0.24681100  0.58732700  1
  O  O17  1  0.22636000  0.75319300  0.58717900  1
  O  O18  1  0.77364000  0.25319300  0.91282100  1
  O  O19  1  0.22605400  0.74681100  0.91267300  1
  O  O20  1  0.22636000  0.75319300  0.41282100  1
  O  O21  1  0.77394600  0.24681100  0.41267300  1
  O  O22  1  0.22605400  0.74681100  0.08732700  1
  O  O23  1  0.77364000  0.25319300  0.08717900  1
  O  O24  1  0.44535300  0.12655600  0.62410800  1
  O  O25  1  0.55458200  0.87378000  0.62430000  1
  O  O26  1  0.44541800  0.37378000  0.87570000  1
  O  O27  1  0.55464700  0.62655600  0.87589200  1
  O  O28  1  0.55458200  0.87378000  0.37570000  1
  O  O29  1  0.44535300  0.12655600  0.37589200  1
  O  O30  1  0.55464700  0.62655600  0.12410800  1
  O  O31  1  0.44541800  0.37378000  0.12430000  1
  O  O32  1  0.06987100  0.15464200  0.50000000  1
  O  O33  1  0.93019900  0.84514100  0.50000000  1
  O  O34  1  0.06980100  0.34514100  0.00000000  1
  O  O35  1  0.93012900  0.65464200  0.00000000  1
  O  O36  1  0.06295700  0.34549600  0.50000000  1
  O  O37  1  0.93636800  0.65447400  0.50000000  1
  O  O38  1  0.06363200  0.15447400  0.00000000  1
  O  O39  1  0.93704300  0.84549600  0.00000000  1
  O  O40  1  0.31709600  0.97770800  0.73768500  1
  O  O41  1  0.68259000  0.02205800  0.73754000  1
  O  O42  1  0.31741000  0.52205800  0.76246000  1
  O  O43  1  0.68290400  0.47770800  0.76231500  1
  O  O44  1  0.68259000  0.02205800  0.26246000  1
  O  O45  1  0.31709600  0.97770800  0.26231500  1
  O  O46  1  0.68290400  0.47770800  0.23768500  1
  O  O47  1  0.31741000  0.52205800  0.23754000  1
  O  O48  1  0.02133800  0.12744200  0.76796200  1
  O  O49  1  0.97910700  0.87283400  0.76816900  1
  O  O50  1  0.02089300  0.37283400  0.73183100  1
  O  O51  1  0.97866200  0.62744200  0.73203800  1
  O  O52  1  0.97910700  0.87283400  0.23183100  1
  O  O53  1  0.02133800  0.12744200  0.23203800  1
  O  O54  1  0.97866200  0.62744200  0.26796200  1
  O  O55  1  0.02089300  0.37283400  0.26816900  1
  O  O56  1  0.30295500  0.98267900  0.50000000  1
  O  O57  1  0.69724700  0.01714800  0.50000000  1
  O  O58  1  0.30275300  0.51714800  0.00000000  1
  O  O59  1  0.69704500  0.48267900  0.00000000  1
  O  O60  1  0.00006600  0.00002200  0.62179700  1
  O  O61  1  0.99993400  0.50002200  0.87820300  1
  O  O62  1  0.00006600  0.00002200  0.37820300  1
  O  O63  1  0.99993400  0.50002200  0.12179700  1
  O  O64  1  0.50523800  0.98229100  0.00000000  1
  O  O65  1  0.49476200  0.48229100  0.50000000  1
loop_
_geom_bond_atom_site_label_1
_geom_bond_atom_site_label_2
_geom_bond_distance
_geom_bond_site_symmetry_2
Ba0 O17 2.601996 1_555
Ba0 O19 2.609326 1_555
Ba0 O51 2.882399 1_455
Ba0 O49 2.895006 1_455
Ba0 O1 2.902823 1_555
Ba0 O3 3.009259 1_555
Ba0 O27 3.217164 1_555
Ba0 O25 3.222079 1_555
Ba0 O42 3.271228 1_555
Ba0 O40 3.285744 1_555
Ba1 O18 2.601996 1_555
Ba1 O16 2.609326 1_555
Ba1 O48 2.882399 1_655
Ba1 O50 2.895006 1_655
Ba1 O2 2.902823 1_555
Ba1 O0 3.009259 1_555
Ba1 O24 3.217164 1_555
Ba1 O26 3.222079 1_555
Ba1 O41 3.271228 1_555
Ba1 O43 3.285744 1_555
Ba2 O23 2.601996 1_555
Ba2 O21 2.609326 1_555
Ba2 O53 2.882399 1_655
Ba2 O55 2.895006 1_655
Ba2 O7 2.902823 1_555
Ba2 O5 3.009259 1_555
Ba2 O29 3.217164 1_555
Ba2 O31 3.222079 1_555
Ba2 O44 3.271228 1_555
Ba2 O46 3.285744 1_555
Ba3 O20 2.601996 1_555
Ba3 O22 2.609326 1_555
Ba3 O54 2.882399 1_455
Ba3 O52 2.895006 1_455
Ba3 O4 2.902823 1_555
Ba3 O6 3.009259 1_555
Ba3 O30 3.217164 1_555
Ba3 O28 3.222079 1_555
Ba3 O47 3.271228 1_555
Ba3 O45 3.285744 1_555
Ba4 O26 2.722803 1_554
Ba4 O31 2.722803 1_555
Ba4 O5 2.747577 1_555
Ba4 O0 2.747577 1_554
Ba4 O38 2.847344 1_555
Ba4 O23 2.848707 1_555
Ba4 O18 2.848707 1_554
Ba4 O34 2.916503 1_555
Ba5 O4 2.761012 1_555
Ba5 O1 2.761012 1_554
Ba5 O27 2.772045 1_554
Ba5 O30 2.772045 1_555
Ba5 O39 2.831969 1_555
Ba5 O22 2.843437 1_555
Ba5 O19 2.843437 1_554
Ba5 O35 2.972289 1_555
Ba5 O64 3.177270 1_555
Ba6 O2 2.761012 1_555
Ba6 O7 2.761012 1_555
Ba6 O24 2.772045 1_555
Ba6 O29 2.772045 1_555
Ba6 O36 2.831969 1_555
Ba6 O16 2.843437 1_555
Ba6 O21 2.843437 1_555
Ba6 O32 2.972289 1_555
Ba6 O65 3.177270 1_555
Ba7 O28 2.722803 1_555
Ba7 O25 2.722803 1_555
Ba7 O6 2.747577 1_555
Ba7 O3 2.747577 1_555
Ba7 O37 2.847344 1_555
Ba7 O20 2.848707 1_555
Ba7 O17 2.848707 1_555
Ba7 O33 2.916503 1_555
As0 O16 1.688846 1_555
As0 O21 1.688846 1_555
As0 O32 1.745574 1_655
As0 O36 1.760128 1_655
As1 O20 1.688610 1_555
As1 O17 1.688610 1_555
As1 O33 1.746436 1_455
As1 O37 1.759023 1_455
As2 O23 1.688610 1_555
As2 O18 1.688610 1_554
As2 O34 1.746436 1_655
As2 O38 1.759023 1_655
As3 O22 1.688846 1_555
As3 O19 1.688846 1_554
As3 O35 1.745574 1_455
As3 O39 1.760128 1_455
O0 U0 1.876943 1_545
O1 U0 1.872649 1_555
O2 U1 1.872649 1_555
O3 U1 1.876943 1_555
O4 U2 1.872649 1_555
O5 U2 1.876943 1_545
O6 U3 1.876943 1_555
O7 U3 1.872649 1_555
O8 U4 2.024725 1_466
O8 U0 2.381410 1_555
O8 U12 2.444349 1_565
O9 U4 2.026881 1_556
O9 U0 2.375740 1_545
O9 U12 2.436634 1_655
O10 U5 2.026881 1_555
O10 U1 2.375740 1_555
O10 U13 2.436634 1_455
O11 U5 2.024725 1_655
O11 U1 2.381410 1_555
O11 U13 2.444349 1_555
O12 U4 2.026881 1_555
O12 U2 2.375740 1_545
O12 U14 2.436634 1_655
O13 U4 2.024725 1_465
O13 U2 2.381410 1_555
O13 U14 2.444349 1_565
O14 U5 2.024725 1_655
O14 U3 2.381410 1_555
O14 U15 2.444349 1_555
O15 U5 2.026881 1_555
O15 U3 2.375740 1_555
O15 U15 2.436634 1_455
O24 U6 1.852046 1_555
O25 U6 1.858362 1_565
O26 U7 1.858376 1_555
O27 U7 1.852032 1_555
O28 U8 1.858362 1_565
O29 U8 1.852046 1_555
O30 U9 1.852032 1_555
O31 U9 1.858376 1_555
O32 U10 2.273272 1_555
O33 U10 2.278673 1_665
O34 U11 2.278673 1_455
O35 U11 2.273272 1_555
O36 U5 2.260779 1_555
O37 U5 2.264464 1_655
O38 U4 2.264464 1_455
O39 U4 2.260779 1_565
O40 U6 2.217817 1_565
O40 U12 2.326281 1_565
O40 U0 2.357600 1_555
O41 U6 2.213671 1_555
O41 U12 2.331246 1_655
O41 U0 2.364023 1_545
O42 U7 2.213669 1_555
O42 U13 2.331246 1_455
O42 U1 2.364023 1_555
O43 U7 2.217819 1_555
O43 U13 2.326281 1_555
O43 U1 2.357600 1_555
O44 U8 2.213671 1_555
O44 U14 2.331246 1_655
O44 U2 2.364023 1_545
O45 U8 2.217817 1_565
O45 U14 2.326281 1_565
O45 U2 2.357600 1_555
O46 U9 2.217819 1_555
O46 U15 2.326281 1_555
O46 U3 2.357600 1_555
O47 U9 2.213669 1_555
O47 U15 2.331246 1_455
O47 U3 2.364023 1_555
O48 U12 1.832517 1_555
O49 U12 1.834184 1_665
O50 U13 1.834184 1_455
O51 U13 1.832517 1_555
O52 U14 1.834184 1_665
O53 U14 1.832517 1_555
O54 U15 1.832517 1_555
O55 U15 1.834184 1_455
O56 U10 2.167940 1_565
O56 U6 2.424690 1_565
O56 U8 2.424690 1_565
O57 U10 2.167926 1_655
O57 U6 2.425170 1_555
O57 U8 2.425170 1_555
O58 U11 2.167926 1_455
O58 U9 2.425169 1_555
O58 U7 2.425169 1_554
O59 U11 2.167940 1_555
O59 U9 2.424691 1_555
O59 U7 2.424691 1_554
O60 U10 1.911496 1_555
O60 U12 2.298765 1_555
O61 U11 1.911496 1_556
O61 U13 2.298765 1_555
O62 U10 1.911496 1_555
O62 U14 2.298765 1_555
O63 U11 1.911496 1_555
O63 U15 2.298765 1_555
O64 U2 2.183199 1_555
O64 U0 2.183199 1_554
O65 U1 2.183199 1_555
O65 U3 2.183199 1_555
