# generated using pymatgen
data_Mg2Cr3WS8
_symmetry_space_group_name_H-M   'P 1'
_cell_length_a   7.31572244
_cell_length_b   7.31514638
_cell_length_c   7.31525343
_cell_angle_alpha   59.49594098
_cell_angle_beta   59.50048062
_cell_angle_gamma   59.49892217
_symmetry_Int_Tables_number   1
_chemical_formula_structural   Mg2Cr3WS8
_chemical_formula_sum   'Mg2 Cr3 W1 S8'
_cell_volume   273.66059065
_cell_formula_units_Z   1
loop_
 _symmetry_equiv_pos_site_id
 _symmetry_equiv_pos_as_xyz
  1  'x, y, z'
loop_
 _atom_site_type_symbol
 _atom_site_label
 _atom_site_symmetry_multiplicity
 _atom_site_fract_x
 _atom_site_fract_y
 _atom_site_fract_z
 _atom_site_occupancy
  Mg  Mg0  1  0.87415500  0.87416200  0.87413200  1
  Mg  Mg1  1  0.12588700  0.12589200  0.12583500  1
  Cr  Cr0  1  0.49978400  0.50003700  0.99999300  1
  Cr  Cr1  1  0.00008300  0.49987500  0.50005700  1
  Cr  Cr2  1  0.49985200  0.99973200  0.50013300  1
  W  W0  1  0.50003100  0.50005100  0.49997100  1
  S  S0  1  0.73658900  0.73661200  0.73657100  1
  S  S1  1  0.26029200  0.26031300  0.71166900  1
  S  S2  1  0.26030100  0.71170700  0.26024400  1
  S  S3  1  0.71170500  0.26030500  0.26023900  1
  S  S4  1  0.73974400  0.28835100  0.73970800  1
  S  S5  1  0.28835900  0.73974200  0.73972900  1
  S  S6  1  0.26345000  0.26345000  0.26341300  1
  S  S7  1  0.73977400  0.73976600  0.28830700  1
loop_
_geom_bond_atom_site_label_1
_geom_bond_atom_site_label_2
_geom_bond_distance
_geom_bond_site_symmetry_2
Mg0 S7 2.458942 1_556
Mg0 S4 2.458943 1_565
Mg0 S5 2.459344 1_655
Mg0 S0 2.474213 1_555
Mg1 S1 2.458880 1_554
Mg1 S2 2.458921 1_545
Mg1 S3 2.459212 1_455
Mg1 S6 2.474344 1_555
Cr0 S5 2.436950 1_555
Cr0 S2 2.438168 1_556
Cr0 S4 2.438432 1_555
Cr0 S3 2.439271 1_556
Cr0 S6 2.442890 1_556
Cr0 S0 2.445132 1_555
Cr1 S1 2.437599 1_555
Cr1 S4 2.437918 1_455
Cr1 S2 2.438767 1_555
Cr1 S7 2.438813 1_455
Cr1 S6 2.443636 1_555
Cr1 S0 2.444589 1_455
Cr2 S5 2.435835 1_555
Cr2 S7 2.437381 1_555
Cr2 S1 2.439286 1_565
Cr2 S3 2.440739 1_565
Cr2 S0 2.443933 1_555
Cr2 S6 2.443978 1_565
S1 W0 2.481521 1_555
S2 W0 2.481407 1_555
S3 W0 2.481554 1_555
S4 W0 2.481338 1_555
S5 W0 2.481396 1_555
S7 W0 2.481440 1_555
