# generated using pymatgen
data_Ta3(CuS3)2
_symmetry_space_group_name_H-M   'P 1'
_cell_length_a   3.35807816
_cell_length_b   3.35808600
_cell_length_c   41.74184502
_cell_angle_alpha   89.99985900
_cell_angle_beta   89.99699758
_cell_angle_gamma   59.99981250
_symmetry_Int_Tables_number   1
_chemical_formula_structural   Ta3(CuS3)2
_chemical_formula_sum   'Ta6 Cu4 S12'
_cell_volume   407.64682699
_cell_formula_units_Z   2
loop_
 _symmetry_equiv_pos_site_id
 _symmetry_equiv_pos_as_xyz
  1  'x, y, z'
loop_
 _atom_site_type_symbol
 _atom_site_label
 _atom_site_symmetry_multiplicity
 _atom_site_fract_x
 _atom_site_fract_y
 _atom_site_fract_z
 _atom_site_occupancy
  Ta  Ta0  1  0.33333800  0.33333000  0.25724300  1
  Ta  Ta1  1  0.33328200  0.33336000  0.58103700  1
  Ta  Ta2  1  0.33333900  0.33333000  0.91437600  1
  Ta  Ta3  1  0.66671500  0.66664300  0.07605200  1
  Ta  Ta4  1  0.66668000  0.66666200  0.41967500  1
  Ta  Ta5  1  0.66668300  0.66665800  0.75286800  1
  Cu  Cu0  1  0.33337100  0.33331100  0.18673600  1
  Cu  Cu1  1  0.33334800  0.33332400  0.51006100  1
  Cu  Cu2  1  0.33332200  0.33333800  0.84336400  1
  Cu  Cu3  1  0.66664600  0.66667800  0.14659100  1
  S  S0  1  0.33333900  0.33333000  0.11366900  1
  S  S1  1  0.33331500  0.33334300  0.45711100  1
  S  S2  1  0.33332300  0.33333800  0.79034500  1
  S  S3  1  0.66671100  0.66664400  0.21966000  1
  S  S4  1  0.66665900  0.66667200  0.54263100  1
  S  S5  1  0.66669900  0.66665000  0.87596100  1
  S  S6  1  0.66664300  0.66667800  0.29403300  1
  S  S7  1  0.66658700  0.66670700  0.61758800  1
  S  S8  1  0.66664400  0.66667600  0.95091200  1
  S  S9  1  0.33340700  0.33329800  0.03928100  1
  S  S10  1  0.33337500  0.33331500  0.38348000  1
  S  S11  1  0.33337300  0.33331500  0.71665800  1
loop_
_geom_bond_atom_site_label_1
_geom_bond_atom_site_label_2
_geom_bond_distance
_geom_bond_site_symmetry_2
Cu0 S3 2.376387 1_455
Cu0 S3 2.376504 1_545
Cu0 S3 2.376526 1_555
Cu1 S1 2.210231 1_555
Cu1 S4 2.367942 1_455
Cu1 S4 2.367954 1_545
Cu1 S4 2.367978 1_555
Cu2 S2 2.213111 1_555
Cu2 S5 2.368432 1_455
Cu2 S5 2.368687 1_545
Cu2 S5 2.368697 1_555
Cu3 S0 2.376417 1_655
Cu3 S0 2.376421 1_565
Cu3 S0 2.376435 1_555
S0 Ta3 2.494854 1_455
S0 Ta3 2.494895 1_545
S0 Ta3 2.494897 1_555
S1 Ta4 2.490131 1_455
S1 Ta4 2.490133 1_545
S1 Ta4 2.490137 1_555
S2 Ta5 2.491202 1_555
S2 Ta5 2.491205 1_545
S2 Ta5 2.491216 1_455
S3 Ta0 2.493968 1_655
S3 Ta0 2.493999 1_555
S3 Ta0 2.493999 1_565
S4 Ta1 2.515712 1_655
S4 Ta1 2.515754 1_555
S4 Ta1 2.515754 1_565
S5 Ta2 2.515973 1_555
S5 Ta2 2.515976 1_565
S5 Ta2 2.515989 1_655
S6 Ta0 2.473291 1_655
S6 Ta0 2.473301 1_565
S6 Ta0 2.473311 1_555
S7 Ta1 2.467110 1_655
S7 Ta1 2.467121 1_565
S7 Ta1 2.467127 1_555
S8 Ta2 2.466723 1_655
S8 Ta2 2.466736 1_565
S8 Ta2 2.466737 1_555
S9 Ta3 2.472792 1_455
S9 Ta3 2.472816 1_545
S9 Ta3 2.472819 1_555
S10 Ta4 2.457949 1_455
S10 Ta4 2.457959 1_545
S10 Ta4 2.457964 1_555
S11 Ta5 2.458322 1_455
S11 Ta5 2.458351 1_555
S11 Ta5 2.458353 1_545
