# generated using pymatgen
data_GdSi2Ni
_symmetry_space_group_name_H-M   'P 1'
_cell_length_a   8.41211969
_cell_length_b   8.41211969
_cell_length_c   3.97649394
_cell_angle_alpha   90.00000000
_cell_angle_beta   90.00000000
_cell_angle_gamma   152.23562955
_symmetry_Int_Tables_number   1
_chemical_formula_structural   GdSi2Ni
_chemical_formula_sum   'Gd2 Si4 Ni2'
_cell_volume   131.08249479
_cell_formula_units_Z   2
loop_
 _symmetry_equiv_pos_site_id
 _symmetry_equiv_pos_as_xyz
  1  'x, y, z'
loop_
 _atom_site_type_symbol
 _atom_site_label
 _atom_site_symmetry_multiplicity
 _atom_site_fract_x
 _atom_site_fract_y
 _atom_site_fract_z
 _atom_site_occupancy
  Gd  Gd0  1  0.89363807  0.10636193  0.75000000  1
  Gd  Gd1  1  0.10636193  0.89363807  0.25000000  1
  Si  Si0  1  0.54064937  0.45935063  0.75000000  1
  Si  Si1  1  0.45935063  0.54064937  0.25000000  1
  Si  Si2  1  0.24980478  0.75019522  0.75000000  1
  Si  Si3  1  0.75019522  0.24980478  0.25000000  1
  Ni  Ni0  1  0.67926874  0.32073126  0.75000000  1
  Ni  Ni1  1  0.32073126  0.67926874  0.25000000  1
loop_
_geom_bond_atom_site_label_1
_geom_bond_atom_site_label_2
_geom_bond_distance
_geom_bond_site_symmetry_2
Gd0 Si1 3.029608 1_656
Gd0 Si1 3.029608 1_655
Gd0 Si1 3.029608 1_545
Gd0 Si1 3.029608 1_546
Gd0 Si3 3.072778 1_556
Gd0 Si3 3.072778 1_555
Gd0 Ni1 3.073199 1_655
Gd0 Ni1 3.073199 1_656
Gd0 Ni1 3.073199 1_545
Gd0 Ni1 3.073199 1_546
Gd0 Si2 3.097135 1_655
Gd0 Si2 3.097135 1_545
Gd0 Si0 3.136688 1_545
Gd0 Si0 3.136688 1_655
Gd1 Si0 3.029608 1_565
Gd1 Si0 3.029608 1_564
Gd1 Si0 3.029608 1_455
Gd1 Si0 3.029608 1_454
Gd1 Si2 3.072778 1_555
Gd1 Si2 3.072778 1_554
Gd1 Ni0 3.073199 1_565
Gd1 Ni0 3.073199 1_564
Gd1 Ni0 3.073199 1_455
Gd1 Ni0 3.073199 1_454
Gd1 Si3 3.097135 1_565
Gd1 Si3 3.097135 1_455
Gd1 Si1 3.136688 1_455
Gd1 Si1 3.136688 1_565
Si0 Si1 2.390874 1_555
Si0 Si1 2.390874 1_556
Ni0 Si0 2.264046 1_555
Ni0 Si3 2.301105 1_556
Ni0 Si3 2.301105 1_555
Ni0 Si2 2.323943 1_545
Ni0 Si2 2.323943 1_655
Ni1 Si1 2.264046 1_555
Ni1 Si2 2.301105 1_555
Ni1 Si2 2.301105 1_554
Ni1 Si3 2.323943 1_565
Ni1 Si3 2.323943 1_455
