# generated using pymatgen
data_K4Zn2Sn21
_symmetry_space_group_name_H-M   'P 1'
_cell_length_a   12.16092403
_cell_length_b   12.16092403
_cell_length_c   12.15947524
_cell_angle_alpha   90.00000000
_cell_angle_beta   90.00000000
_cell_angle_gamma   90.03957893
_symmetry_Int_Tables_number   1
_chemical_formula_structural   K4Zn2Sn21
_chemical_formula_sum   'K8 Zn4 Sn42'
_cell_volume   1798.24093643
_cell_formula_units_Z   2
loop_
 _symmetry_equiv_pos_site_id
 _symmetry_equiv_pos_as_xyz
  1  'x, y, z'
loop_
 _atom_site_type_symbol
 _atom_site_label
 _atom_site_symmetry_multiplicity
 _atom_site_fract_x
 _atom_site_fract_y
 _atom_site_fract_z
 _atom_site_occupancy
  K  K0  1  0.25890889  0.48609178  0.25000000  1
  K  K1  1  0.51390822  0.74109111  0.75000000  1
  K  K2  1  0.98115713  0.01884287  0.50000000  1
  K  K3  1  0.74174990  0.48457094  0.25000000  1
  K  K4  1  0.51542906  0.25825010  0.75000000  1
  K  K5  1  0.98115713  0.01884287  0.00000000  1
  K  K6  1  0.50252449  0.00316307  0.25000000  1
  K  K7  1  0.99683693  0.49747551  0.75000000  1
  Zn  Zn0  1  0.50092073  0.49907927  0.50000000  1
  Zn  Zn1  1  0.75030449  0.00086998  0.75000000  1
  Zn  Zn2  1  0.99913002  0.24969551  0.25000000  1
  Zn  Zn3  1  0.50092073  0.49907927  0.00000000  1
  Sn  Sn0  1  0.31977230  0.81352985  0.43219762  1
  Sn  Sn1  1  0.68146144  0.18262776  0.06738045  1
  Sn  Sn2  1  0.68146144  0.18262776  0.43261955  1
  Sn  Sn3  1  0.31977230  0.81352985  0.06780238  1
  Sn  Sn4  1  0.31682310  0.18442364  0.06983154  1
  Sn  Sn5  1  0.67984414  0.81587157  0.43425664  1
  Sn  Sn6  1  0.67984414  0.81587157  0.06574336  1
  Sn  Sn7  1  0.31682310  0.18442364  0.43016846  1
  Sn  Sn8  1  0.18647015  0.68022770  0.93219762  1
  Sn  Sn9  1  0.81737224  0.31853856  0.56738045  1
  Sn  Sn10  1  0.81737224  0.31853856  0.93261955  1
  Sn  Sn11  1  0.18647015  0.68022770  0.56780238  1
  Sn  Sn12  1  0.81557636  0.68317690  0.56983154  1
  Sn  Sn13  1  0.18412843  0.32015586  0.93425664  1
  Sn  Sn14  1  0.18412843  0.32015586  0.56574336  1
  Sn  Sn15  1  0.81557636  0.68317690  0.93016846  1
  Sn  Sn16  1  0.50084643  0.67702675  0.36948033  1
  Sn  Sn17  1  0.38736799  0.00027682  0.55746453  1
  Sn  Sn18  1  0.19208065  0.88716868  0.25000000  1
  Sn  Sn19  1  0.50027081  0.32002452  0.12984143  1
  Sn  Sn20  1  0.62462803  -0.00006613  0.92891654  1
  Sn  Sn21  1  0.81907311  0.12508451  0.25000000  1
  Sn  Sn22  1  0.50027081  0.32002452  0.37015857  1
  Sn  Sn23  1  0.62462803  -0.00006613  0.57108346  1
  Sn  Sn24  1  0.50084643  0.67702675  0.13051967  1
  Sn  Sn25  1  0.38736799  0.00027682  0.94253547  1
  Sn  Sn26  1  0.17768080  0.12377372  0.25000000  1
  Sn  Sn27  1  0.80696676  0.88699041  0.25000000  1
  Sn  Sn28  1  0.32297325  0.49915357  0.86948033  1
  Sn  Sn29  1  0.99972318  0.61263201  0.05746453  1
  Sn  Sn30  1  0.11283132  0.80791935  0.75000000  1
  Sn  Sn31  1  0.67997548  0.49972919  0.62984143  1
  Sn  Sn32  1  0.00006613  0.37537197  0.42891654  1
  Sn  Sn33  1  0.87491549  0.18092689  0.75000000  1
  Sn  Sn34  1  0.67997548  0.49972919  0.87015857  1
  Sn  Sn35  1  0.00006613  0.37537197  0.07108346  1
  Sn  Sn36  1  0.32297325  0.49915357  0.63051967  1
  Sn  Sn37  1  0.99972318  0.61263201  0.44253547  1
  Sn  Sn38  1  0.87622628  0.82231920  0.75000000  1
  Sn  Sn39  1  0.11300959  0.19303324  0.75000000  1
  Sn  Sn40  1  0.24991715  0.00024678  0.75000000  1
  Sn  Sn41  1  0.99975322  0.75008285  0.25000000  1
loop_
_geom_bond_atom_site_label_1
_geom_bond_atom_site_label_2
_geom_bond_distance
_geom_bond_site_symmetry_2
K0 Sn19 3.851845 1_555
K0 Sn22 3.851845 1_555
K0 Sn16 4.018597 1_555
K0 Sn24 4.018597 1_555
K0 Sn32 4.055670 1_555
K0 Sn35 4.055670 1_555
K1 Sn31 3.851845 1_555
K1 Sn34 3.851845 1_555
K1 Sn28 4.018597 1_555
K1 Sn36 4.018597 1_555
K1 Sn23 4.055670 1_565
K1 Sn20 4.055670 1_565
K2 Sn33 3.846918 1_555
K2 Sn21 3.846918 1_555
K2 Sn39 4.036634 1_655
K2 Sn27 4.036634 1_545
K2 Sn38 4.071434 1_545
K2 Sn26 4.071434 1_655
K3 Sn22 3.841147 1_555
K3 Sn19 3.841147 1_555
K3 Sn24 4.022490 1_555
K3 Sn16 4.022490 1_555
K3 Sn35 4.046028 1_655
K3 Sn32 4.046028 1_655
K4 Sn31 3.841147 1_555
K4 Sn34 3.841147 1_555
K4 Sn36 4.022490 1_555
K4 Sn28 4.022490 1_555
K4 Sn23 4.046028 1_555
K4 Sn20 4.046028 1_555
K5 Sn21 3.846918 1_555
K5 Sn33 3.846918 1_554
K5 Sn39 4.036634 1_654
K5 Sn27 4.036634 1_545
K5 Sn38 4.071434 1_544
K5 Sn26 4.071434 1_655
K6 Sn1 3.797707 1_555
K6 Sn2 3.797707 1_555
K6 Sn7 3.842541 1_555
K6 Sn4 3.842541 1_555
K6 Sn6 3.855390 1_545
K6 Sn5 3.855390 1_545
K6 Sn0 3.893382 1_545
K6 Sn3 3.893382 1_545
K6 Sn27 3.963604 1_545
K6 Sn25 3.992430 1_554
K6 Sn17 3.992430 1_555
K6 Sn18 4.029293 1_545
K7 Sn10 3.797707 1_555
K7 Sn9 3.797707 1_555
K7 Sn15 3.842541 1_555
K7 Sn12 3.842541 1_555
K7 Sn14 3.855390 1_655
K7 Sn13 3.855390 1_655
K7 Sn8 3.893382 1_655
K7 Sn11 3.893382 1_655
K7 Sn39 3.963604 1_655
K7 Sn37 3.992430 1_555
K7 Sn29 3.992430 1_556
K7 Sn30 4.029293 1_655
Sn0 Sn11 2.823290 1_555
Sn0 Sn18 2.850145 1_555
Sn0 Sn17 2.854950 1_565
Sn0 Sn16 2.862021 1_555
Sn1 Sn10 2.853911 1_554
Sn1 Sn21 2.867532 1_555
Sn1 Sn19 2.868606 1_555
Sn1 Sn20 2.871638 1_554
Sn2 Sn9 2.853911 1_555
Sn2 Sn21 2.867532 1_555
Sn2 Sn22 2.868606 1_555
Sn2 Sn23 2.871638 1_555
Sn3 Sn8 2.823290 1_554
Sn10 Sn33 2.867532 1_555
Sn10 Sn34 2.868606 1_555
Sn10 Sn35 2.871638 1_656
Sn11 Sn30 2.850145 1_555
Sn11 Sn37 2.854950 1_455
Sn11 Sn36 2.862021 1_555
Sn12 Sn5 2.837229 1_555
Sn12 Sn37 2.854711 1_555
Sn12 Sn38 2.864415 1_555
Sn12 Sn31 2.867674 1_555
Sn13 Sn4 2.837229 1_556
Sn13 Sn39 2.855824 1_555
Sn13 Sn28 2.864374 1_555
Sn13 Sn35 2.869022 1_556
Sn14 Sn7 2.837229 1_555
Sn14 Sn39 2.855824 1_555
Sn14 Sn36 2.864374 1_555
Sn14 Sn32 2.869022 1_555
Sn15 Sn6 2.837229 1_556
Sn15 Sn29 2.854711 1_556
Sn15 Sn38 2.864415 1_555
Sn15 Sn34 2.867674 1_555
Sn16 Zn0 2.683590 1_555
Sn16 Sn5 2.864374 1_555
Sn17 Sn7 2.854711 1_555
Sn17 Sn40 2.876613 1_555
Sn17 Sn23 2.890055 1_555
Sn18 Sn3 2.850145 1_555
Sn18 Sn41 2.871264 1_455
Sn18 Sn26 2.882781 1_565
Sn19 Zn3 2.689617 1_555
Sn19 Sn4 2.867674 1_555
Sn20 Zn1 2.658735 1_555
Sn20 Sn6 2.869022 1_546
Sn20 Sn25 2.890055 1_555
Sn21 Zn2 2.662031 1_555
Sn21 Sn27 2.899083 1_545
Sn22 Zn0 2.689617 1_555
Sn22 Sn7 2.867674 1_555
Sn23 Zn1 2.658735 1_555
Sn23 Sn5 2.869022 1_545
Sn24 Zn3 2.683590 1_555
Sn24 Sn3 2.862021 1_555
Sn24 Sn6 2.864374 1_555
Sn25 Sn4 2.854711 1_556
Sn25 Sn3 2.854950 1_546
Sn25 Sn40 2.876613 1_555
Sn26 Zn2 2.657871 1_455
Sn26 Sn7 2.864415 1_555
Sn26 Sn4 2.864415 1_555
Sn27 Sn6 2.855824 1_555
Sn27 Sn5 2.855824 1_555
Sn27 Sn41 2.876432 1_555
Sn28 Zn3 2.683590 1_556
Sn28 Sn8 2.862021 1_555
Sn29 Sn8 2.854950 1_654
Sn29 Sn41 2.876613 1_555
Sn29 Sn35 2.890055 1_655
Sn30 Sn8 2.850145 1_555
Sn30 Sn40 2.871264 1_565
Sn30 Sn38 2.882781 1_455
Sn31 Zn0 2.689617 1_555
Sn31 Sn9 2.868606 1_555
Sn32 Zn2 2.658735 1_455
Sn32 Sn9 2.871638 1_455
Sn32 Sn37 2.890055 1_455
Sn33 Zn1 2.662031 1_555
Sn33 Sn9 2.867532 1_555
Sn33 Sn39 2.899083 1_655
Sn34 Zn3 2.689617 1_556
Sn35 Zn2 2.658735 1_455
Sn36 Zn0 2.683590 1_555
Sn37 Sn41 2.876613 1_555
Sn38 Zn1 2.657871 1_565
Sn39 Sn40 2.876432 1_555
