# generated using pymatgen
data_Cd2Se3N2O15
_symmetry_space_group_name_H-M   'P 1'
_cell_length_a   19.00007400
_cell_length_b   5.49395100
_cell_length_c   7.05788878
_cell_angle_alpha   87.53802603
_cell_angle_beta   90.00000000
_cell_angle_gamma   90.00000000
_symmetry_Int_Tables_number   1
_chemical_formula_structural   Cd2Se3N2O15
_chemical_formula_sum   'Cd4 Se6 N4 O30'
_cell_volume   736.06102829
_cell_formula_units_Z   2
loop_
 _symmetry_equiv_pos_site_id
 _symmetry_equiv_pos_as_xyz
  1  'x, y, z'
loop_
 _atom_site_type_symbol
 _atom_site_label
 _atom_site_symmetry_multiplicity
 _atom_site_fract_x
 _atom_site_fract_y
 _atom_site_fract_z
 _atom_site_occupancy
  Cd  Cd0  1  0.57361700  0.78451700  0.26201800  1
  Cd  Cd1  1  0.07361700  0.21548300  0.73798200  1
  Cd  Cd2  1  0.42638300  0.21548300  0.73798200  1
  Cd  Cd3  1  0.92638300  0.78451700  0.26201800  1
  Se  Se0  1  0.25000000  0.07353500  0.61121700  1
  Se  Se1  1  0.75000000  0.92646500  0.38878300  1
  Se  Se2  1  0.54224600  0.71248900  0.76500300  1
  Se  Se3  1  0.04224600  0.28751100  0.23499700  1
  Se  Se4  1  0.45775400  0.28751100  0.23499700  1
  Se  Se5  1  0.95775400  0.71248900  0.76500300  1
  N  N0  1  0.68655600  0.34705700  0.86532300  1
  N  N1  1  0.18655600  0.65294300  0.13467700  1
  N  N2  1  0.31344400  0.65294300  0.13467700  1
  N  N3  1  0.81344400  0.34705700  0.86532300  1
  O  O0  1  0.25000000  0.37857200  0.53353000  1
  O  O1  1  0.75000000  0.62142800  0.46647000  1
  O  O2  1  0.25000000  0.91279300  0.42042800  1
  O  O3  1  0.75000000  0.08720700  0.57957200  1
  O  O4  1  0.31913400  0.02077200  0.75560500  1
  O  O5  1  0.81913400  0.97922800  0.24439500  1
  O  O6  1  0.68086600  0.97922800  0.24439500  1
  O  O7  1  0.18086600  0.02077200  0.75560500  1
  O  O8  1  0.46466600  0.83390300  0.82635700  1
  O  O9  1  0.96466600  0.16609700  0.17364300  1
  O  O10  1  0.53533400  0.16609700  0.17364300  1
  O  O11  1  0.03533400  0.83390300  0.82635700  1
  O  O12  1  0.47069200  0.57937000  0.28797200  1
  O  O13  1  0.97069200  0.42063000  0.71202800  1
  O  O14  1  0.52930800  0.42063000  0.71202800  1
  O  O15  1  0.02930800  0.57937000  0.28797200  1
  O  O16  1  0.57788100  0.86690900  0.57970300  1
  O  O17  1  0.07788100  0.13309100  0.42029700  1
  O  O18  1  0.42211900  0.13309100  0.42029700  1
  O  O19  1  0.92211900  0.86690900  0.57970300  1
  O  O20  1  0.59867200  0.72443600  0.94795000  1
  O  O21  1  0.09867200  0.27556400  0.05205000  1
  O  O22  1  0.40132800  0.27556400  0.05205000  1
  O  O23  1  0.90132800  0.72443600  0.94795000  1
  O  O24  1  0.64990000  0.46225900  0.37264400  1
  O  O25  1  0.14990000  0.53774100  0.62735600  1
  O  O26  1  0.35010000  0.53774100  0.62735600  1
  O  O27  1  0.85010000  0.46225900  0.37264400  1
  O  O28  1  0.25000000  0.64849300  0.13049000  1
  O  O29  1  0.75000000  0.35150700  0.86951000  1
loop_
_geom_bond_atom_site_label_1
_geom_bond_atom_site_label_2
_geom_bond_distance
_geom_bond_site_symmetry_2
Cd0 O12 2.260620 1_555
Cd0 O10 2.280485 1_565
Cd0 O6 2.302335 1_555
Cd0 O20 2.304778 1_554
Cd0 O16 2.307825 1_555
Cd0 O24 2.392935 1_555
Cd1 O13 2.260620 1_455
Cd1 O11 2.280485 1_545
Cd1 O7 2.302335 1_555
Cd1 O21 2.304778 1_556
Cd1 O17 2.307825 1_555
Cd1 O25 2.392935 1_555
Cd2 O14 2.260620 1_555
Cd2 O8 2.280485 1_545
Cd2 O4 2.302335 1_555
Cd2 O22 2.304778 1_556
Cd2 O18 2.307825 1_555
Cd2 O26 2.392935 1_555
Cd3 O15 2.260620 1_655
Cd3 O9 2.280485 1_565
Cd3 O5 2.302335 1_555
Cd3 O23 2.304778 1_554
Cd3 O19 2.307825 1_555
Cd3 O27 2.392935 1_555
N0 O29 1.206076 1_555
N1 O28 1.206076 1_555
N2 O28 1.206076 1_555
N3 O29 1.206076 1_555
O0 Se0 1.740746 1_555
O1 Se1 1.740746 1_555
O2 Se0 1.641734 1_565
O3 Se1 1.641734 1_545
O4 Se0 1.680053 1_555
O5 Se1 1.680053 1_555
O6 Se1 1.680053 1_555
O7 Se0 1.680053 1_555
O8 Se2 1.682269 1_555
O9 Se3 1.682269 1_655
O10 Se4 1.682269 1_555
O11 Se5 1.682269 1_455
O12 Se4 1.680122 1_555
O13 Se5 1.680122 1_555
O14 Se2 1.680122 1_555
O15 Se3 1.680122 1_555
O16 Se2 1.671302 1_555
O17 Se3 1.671302 1_555
O18 Se4 1.671302 1_555
O19 Se5 1.671302 1_555
O20 Se2 1.681735 1_555
O21 Se3 1.681735 1_555
O22 Se4 1.681735 1_555
O23 Se5 1.681735 1_555
