# generated using pymatgen
data_Ag5Sb23(PbS4)12
_symmetry_space_group_name_H-M   'P 1'
_cell_length_a   8.69541900
_cell_length_b   13.29602981
_cell_length_c   19.62485344
_cell_angle_alpha   90.29708353
_cell_angle_beta   90.02236377
_cell_angle_gamma   90.18961982
_symmetry_Int_Tables_number   1
_chemical_formula_structural   Ag5Sb23(PbS4)12
_chemical_formula_sum   'Ag5 Sb23 Pb12 S48'
_cell_volume   2268.87549057
_cell_formula_units_Z   1
loop_
 _symmetry_equiv_pos_site_id
 _symmetry_equiv_pos_as_xyz
  1  'x, y, z'
loop_
 _atom_site_type_symbol
 _atom_site_label
 _atom_site_symmetry_multiplicity
 _atom_site_fract_x
 _atom_site_fract_y
 _atom_site_fract_z
 _atom_site_occupancy
  Ag  Ag0  1  0.37992200  0.81897700  0.85752900  1
  Ag  Ag1  1  0.88135000  0.67647500  0.35946800  1
  Ag  Ag2  1  0.61787600  0.17783700  0.14069400  1
  Ag  Ag3  1  0.11855500  0.32162100  0.64128700  1
  Ag  Ag4  1  0.88298500  0.85145900  0.86796000  1
  Sb  Sb0  1  0.87762300  0.85525300  0.63115500  1
  Sb  Sb1  1  0.37934300  0.65058700  0.12781800  1
  Sb  Sb2  1  0.12080700  0.14942300  0.37192800  1
  Sb  Sb3  1  0.62017400  0.34942800  0.87060900  1
  Sb  Sb4  1  0.35537800  0.87155100  0.64865900  1
  Sb  Sb5  1  0.85745000  0.62657600  0.14769300  1
  Sb  Sb6  1  0.64379400  0.12909500  0.35157500  1
  Sb  Sb7  1  0.14174800  0.37516800  0.85051200  1
  Sb  Sb8  1  0.38019700  0.12099100  0.55548900  1
  Sb  Sb9  1  0.88004400  0.37848600  0.05512500  1
  Sb  Sb10  1  0.61972700  0.87899300  0.44491400  1
  Sb  Sb11  1  0.12066900  0.62344100  0.94266200  1
  Sb  Sb12  1  0.86499700  0.13207700  0.55238600  1
  Sb  Sb13  1  0.36510700  0.36718600  0.05183200  1
  Sb  Sb14  1  0.13209000  0.86795300  0.44757200  1
  Sb  Sb15  1  0.63697200  0.63506200  0.94671700  1
  Sb  Sb16  1  0.85911500  0.11799500  0.94573600  1
  Sb  Sb17  1  0.36103000  0.38034600  0.44641900  1
  Sb  Sb18  1  0.14017700  0.88074900  0.05248900  1
  Sb  Sb19  1  0.64044300  0.61986300  0.55397400  1
  Sb  Sb20  1  0.37781000  0.64978700  0.37019500  1
  Sb  Sb21  1  0.12206600  0.14951400  0.13076300  1
  Sb  Sb22  1  0.62133000  0.35103600  0.63086100  1
  Pb  Pb0  1  0.09792500  0.07622300  0.75156500  1
  Pb  Pb1  1  0.60251200  0.41851800  0.25159000  1
  Pb  Pb2  1  0.89583900  0.91912300  0.25079500  1
  Pb  Pb3  1  0.39774600  0.58596500  0.75278400  1
  Pb  Pb4  1  0.61371600  0.09103200  0.74632400  1
  Pb  Pb5  1  0.10728500  0.40668500  0.24583100  1
  Pb  Pb6  1  0.39193300  0.90512500  0.25519900  1
  Pb  Pb7  1  0.89303700  0.59992300  0.75731700  1
  Pb  Pb8  1  0.37233100  0.10855800  0.94907600  1
  Pb  Pb9  1  0.87213200  0.38766200  0.45134100  1
  Pb  Pb10  1  0.63226400  0.88779200  0.04661400  1
  Pb  Pb11  1  0.12752100  0.61395800  0.54950100  1
  S  S0  1  0.35724600  0.76324600  0.49600300  1
  S  S1  1  0.85202900  0.73600500  0.99702900  1
  S  S2  1  0.64535100  0.23714100  0.50269300  1
  S  S3  1  0.14629700  0.26531200  0.00402700  1
  S  S4  1  0.86043400  0.93747800  0.74546800  1
  S  S5  1  0.36078200  0.56377600  0.24548500  1
  S  S6  1  0.13855500  0.06395200  0.25421200  1
  S  S7  1  0.63809700  0.43600700  0.75470200  1
  S  S8  1  0.35698700  0.95033100  0.76648600  1
  S  S9  1  0.85716800  0.54876200  0.26678300  1
  S  S10  1  0.64314700  0.04967600  0.23326400  1
  S  S11  1  0.14064100  0.45104600  0.73371700  1
  S  S12  1  0.84968000  0.21765700  0.66506600  1
  S  S13  1  0.34961400  0.28289700  0.16553200  1
  S  S14  1  0.15101800  0.78418200  0.33400400  1
  S  S15  1  0.64346100  0.71229300  0.83454100  1
  S  S16  1  0.40856400  0.23914900  0.83370500  1
  S  S17  1  0.90430100  0.25877300  0.33312600  1
  S  S18  1  0.59153200  0.75968700  0.16689000  1
  S  S19  1  0.09437800  0.74222800  0.66689700  1
  S  S20  1  0.41858500  0.75253700  0.98420200  1
  S  S21  1  0.91595000  0.74721400  0.48085600  1
  S  S22  1  0.58146600  0.25048800  0.01763900  1
  S  S23  1  0.08252500  0.25084500  0.51692200  1
  S  S24  1  0.07166700  0.01721300  0.89858300  1
  S  S25  1  0.57546900  0.48173500  0.39799500  1
  S  S26  1  0.92719000  0.98273600  0.10220600  1
  S  S27  1  0.42528700  0.51724100  0.60086800  1
  S  S28  1  0.65667500  0.99804400  0.91058300  1
  S  S29  1  0.15663000  0.50181000  0.40922500  1
  S  S30  1  0.34393400  0.00076200  0.08987000  1
  S  S31  1  0.84596500  0.49810300  0.58971600  1
  S  S32  1  0.57665300  0.99889300  0.59991200  1
  S  S33  1  0.07463700  0.50151900  0.10285500  1
  S  S34  1  0.42252700  0.00133400  0.39895600  1
  S  S35  1  0.92505500  0.49684600  0.89978100  1
  S  S36  1  0.38768800  0.22458200  0.66163500  1
  S  S37  1  0.88667300  0.27550400  0.16151100  1
  S  S38  1  0.61260000  0.77761100  0.33731000  1
  S  S39  1  0.11507800  0.72167100  0.83868600  1
  S  S40  1  0.83782900  0.22818200  0.84076500  1
  S  S41  1  0.34123200  0.26991500  0.34110400  1
  S  S42  1  0.16097500  0.77141900  0.15799200  1
  S  S43  1  0.66044700  0.72970300  0.65963300  1
  S  S44  1  0.16122600  0.00106100  0.60458800  1
  S  S45  1  0.66212900  0.49824500  0.10594800  1
  S  S46  1  0.84151100  0.99892700  0.39404200  1
  S  S47  1  0.34009400  0.49877000  0.89502700  1
loop_
_geom_bond_atom_site_label_1
_geom_bond_atom_site_label_2
_geom_bond_distance
_geom_bond_site_symmetry_2
Ag0 S8 2.513303 1_555
Ag0 S39 2.662472 1_555
Ag0 S20 2.664091 1_555
Ag0 S15 2.735439 1_555
Ag1 S9 2.490279 1_555
Ag1 S21 2.573803 1_555
Ag1 S38 2.735777 1_555
Ag1 S14 2.790183 1_655
Ag2 S10 2.507306 1_555
Ag2 S22 2.625047 1_555
Ag2 S37 2.699975 1_555
Ag2 S13 2.765055 1_555
Ag3 S11 2.500732 1_555
Ag3 S23 2.629466 1_555
Ag3 S36 2.706550 1_555
Ag3 S12 2.753335 1_455
Ag4 S4 2.674851 1_555
Ag4 S39 2.719293 1_655
Ag4 S24 2.805631 1_665
Ag4 S15 2.855290 1_555
Ag4 S28 2.894912 1_555
Ag4 S1 2.980425 1_555
Pb0 S4 2.766644 1_445
Pb0 S8 2.826930 1_545
Pb0 S24 3.002490 1_555
Pb0 S44 3.097813 1_555
Pb1 S9 2.821318 1_555
Pb1 S5 2.862119 1_555
Pb1 S25 2.998955 1_555
Pb1 S45 3.096887 1_555
Pb2 S10 2.826713 1_565
Pb2 S6 2.852816 1_665
Pb2 S46 3.037322 1_555
Pb2 S26 3.052481 1_555
Pb3 S11 2.884780 1_555
Pb3 S7 2.893620 1_555
Pb3 S47 3.068984 1_555
Pb3 S27 3.123200 1_555
Pb3 S15 3.147418 1_555
Pb4 S8 2.936069 1_545
Pb4 S4 2.966428 1_545
Pb4 S12 3.097575 1_555
Pb4 S32 3.133813 1_545
Pb4 S36 3.135174 1_555
Pb4 S16 3.161003 1_555
Pb4 S40 3.239854 1_555
Pb5 S9 2.913335 1_455
Pb5 S5 3.031685 1_555
Pb5 S37 3.066890 1_455
Pb5 S33 3.095467 1_555
Pb5 S13 3.103388 1_555
Pb5 S17 3.151544 1_455
Pb6 S10 2.938093 1_565
Pb6 S38 3.033209 1_555
Pb6 S6 3.057015 1_565
Pb6 S14 3.061386 1_555
Pb6 S34 3.102593 1_565
Pb6 S18 3.121691 1_555
Pb7 S11 2.964422 1_655
Pb7 S39 2.974592 1_655
Pb7 S15 3.039606 1_555
Pb7 S7 3.103800 1_555
Pb7 S19 3.131966 1_655
Pb7 S35 3.132758 1_555
Pb8 S16 2.877182 1_555
Pb8 S22 2.937293 1_556
Pb8 S28 2.976069 1_545
Pb8 S24 3.042459 1_555
Pb8 S3 3.061922 1_556
Pb8 S30 3.128733 1_556
Pb9 S23 2.890847 1_655
Pb9 S17 2.891311 1_555
Pb9 S2 2.984275 1_555
Pb9 S29 3.015987 1_655
Pb9 S25 3.057404 1_555
Pb9 S31 3.089306 1_555
Pb10 S20 2.853036 1_554
Pb10 S18 2.938787 1_555
Pb10 S1 2.945886 1_554
Pb10 S30 3.045644 1_565
Pb10 S26 3.053300 1_555
Pb10 S28 3.059351 1_554
Pb11 S19 2.874475 1_555
Pb11 S21 2.895320 1_455
Pb11 S31 2.996464 1_455
Pb11 S0 3.004909 1_555
Pb11 S27 3.067129 1_555
Pb11 S29 3.134713 1_555
S0 Sb14 2.589389 1_555
S0 Sb20 2.892576 1_555
S0 Sb10 2.928735 1_555
S1 Sb15 2.498275 1_555
S1 Sb11 2.973798 1_655
S2 Sb12 2.565264 1_555
S2 Sb22 2.937093 1_555
S2 Sb8 2.961300 1_555
S3 Sb13 2.510639 1_555
S3 Sb21 2.939208 1_555
S3 Sb9 2.939251 1_455
S4 Sb0 2.495239 1_555
S5 Sb1 2.591797 1_555
S5 Sb20 2.699846 1_555
S6 Sb2 2.574166 1_555
S6 Sb21 2.685793 1_555
S7 Sb3 2.559250 1_555
S7 Sb22 2.678520 1_555
S8 Sb4 2.533582 1_555
S9 Sb5 2.560791 1_555
S10 Sb6 2.545688 1_555
S11 Sb7 2.509104 1_555
S12 Sb12 2.485480 1_555
S12 Sb22 2.751873 1_555
S13 Sb13 2.505636 1_555
S13 Sb21 2.736583 1_555
S14 Sb14 2.492147 1_555
S14 Sb20 2.760780 1_555
S15 Sb15 2.434568 1_555
S16 Sb3 2.455667 1_555
S16 Sb7 2.963857 1_555
S17 Sb2 2.503287 1_655
S17 Sb6 2.866432 1_555
S18 Sb1 2.462950 1_555
S18 Sb5 2.939682 1_555
S19 Sb0 2.516226 1_455
S19 Sb4 2.866455 1_555
S20 Sb15 2.568216 1_555
S21 Sb14 2.554979 1_655
S22 Sb13 2.531152 1_555
S23 Sb12 2.559002 1_455
S24 Sb16 2.464291 1_455
S25 Sb17 2.489035 1_555
S25 Sb20 2.877786 1_555
S26 Sb18 2.495000 1_655
S26 Sb21 2.839762 1_665
S27 Sb19 2.491250 1_555
S27 Sb22 2.858939 1_555
S28 Sb16 2.467237 1_565
S29 Sb17 2.515978 1_555
S29 Sb20 2.854541 1_555
S30 Sb18 2.488303 1_545
S30 Sb21 2.878841 1_555
S31 Sb19 2.517260 1_555
S31 Sb22 2.878073 1_555
S32 Sb8 2.519040 1_565
S32 Sb4 2.735081 1_555
S33 Sb9 2.526074 1_455
S33 Sb5 2.666933 1_455
S34 Sb10 2.536186 1_545
S34 Sb6 2.729138 1_555
S35 Sb11 2.529790 1_655
S35 Sb7 2.666084 1_655
S36 Sb8 2.492024 1_555
S36 Sb22 2.703325 1_555
S37 Sb9 2.503437 1_555
S37 Sb21 2.715334 1_655
S38 Sb10 2.500008 1_555
S38 Sb20 2.731762 1_555
S39 Sb11 2.428962 1_555
S40 Sb16 2.541100 1_555
S40 Sb3 2.556378 1_555
S41 Sb17 2.534508 1_555
S41 Sb2 2.568435 1_555
S42 Sb18 2.542709 1_555
S42 Sb1 2.558988 1_555
S43 Sb19 2.535614 1_555
S43 Sb0 2.579687 1_555
S44 Sb4 2.568440 1_545
S44 Sb8 2.663425 1_555
S45 Sb5 2.536214 1_555
S45 Sb9 2.669411 1_555
S46 Sb6 2.584424 1_565
S46 Sb10 2.693770 1_555
S47 Sb7 2.530566 1_555
S47 Sb11 2.695985 1_555
