# generated using pymatgen
data_Fe2PO4F
_symmetry_space_group_name_H-M   'P 1'
_cell_length_a   7.37009000
_cell_length_b   7.37009000
_cell_length_c   9.98176777
_cell_angle_alpha   64.99955979
_cell_angle_beta   64.99955979
_cell_angle_gamma   53.23749704
_symmetry_Int_Tables_number   1
_chemical_formula_structural   Fe2PO4F
_chemical_formula_sum   'Fe8 P4 O16 F4'
_cell_volume   382.76320004
_cell_formula_units_Z   4
loop_
 _symmetry_equiv_pos_site_id
 _symmetry_equiv_pos_as_xyz
  1  'x, y, z'
loop_
 _atom_site_type_symbol
 _atom_site_label
 _atom_site_symmetry_multiplicity
 _atom_site_fract_x
 _atom_site_fract_y
 _atom_site_fract_z
 _atom_site_occupancy
  Fe  Fe0  1  0.26101800  0.05501700  0.64149300  1
  Fe  Fe1  1  0.05501700  0.26101800  0.14149300  1
  Fe  Fe2  1  0.73898200  0.94498300  0.35850700  1
  Fe  Fe3  1  0.94498300  0.73898200  0.85850700  1
  Fe  Fe4  1  0.66079100  0.21748800  0.00657200  1
  Fe  Fe5  1  0.78251200  0.33920900  0.49342800  1
  Fe  Fe6  1  0.33920900  0.78251200  0.99342800  1
  Fe  Fe7  1  0.21748800  0.66079100  0.50657200  1
  P  P0  1  0.23422100  0.41942300  0.30628400  1
  P  P1  1  0.58057700  0.76577900  0.19371600  1
  P  P2  1  0.76577900  0.58057700  0.69371600  1
  P  P3  1  0.41942300  0.23422100  0.80628400  1
  O  O0  1  0.35619700  0.07011200  0.80216900  1
  O  O1  1  0.64380300  0.92988800  0.19783100  1
  O  O2  1  0.92988800  0.64380300  0.69783100  1
  O  O3  1  0.07011200  0.35619700  0.30216900  1
  O  O4  1  0.08814000  0.64681200  0.36397300  1
  O  O5  1  0.35318800  0.91186000  0.13602700  1
  O  O6  1  0.91186000  0.35318800  0.63602700  1
  O  O7  1  0.64681200  0.08814000  0.86397300  1
  O  O8  1  0.38468600  0.45837100  0.14417900  1
  O  O9  1  0.39058100  0.22215300  0.41890900  1
  O  O10  1  0.61531400  0.54162900  0.85582100  1
  O  O11  1  0.45837100  0.38468600  0.64417900  1
  O  O12  1  0.22215300  0.39058100  0.91890900  1
  O  O13  1  0.60941900  0.77784700  0.58109100  1
  O  O14  1  0.77784700  0.60941900  0.08109100  1
  O  O15  1  0.54162900  0.61531400  0.35582100  1
  F  F0  1  0.12664400  0.90797500  0.60550500  1
  F  F1  1  0.09202500  0.87335600  0.89449500  1
  F  F2  1  0.87335600  0.09202500  0.39449500  1
  F  F3  1  0.90797500  0.12664400  0.10550500  1
loop_
_geom_bond_atom_site_label_1
_geom_bond_atom_site_label_2
_geom_bond_distance
_geom_bond_site_symmetry_2
Fe0 O0 2.066858 1_555
Fe0 O13 2.140926 1_545
Fe0 O9 2.160302 1_555
Fe0 O6 2.168523 1_455
Fe1 O3 2.066858 1_555
Fe1 O14 2.140926 1_455
Fe1 O12 2.160302 1_554
Fe1 O5 2.168523 1_545
Fe2 O1 2.066858 1_555
Fe2 O9 2.140926 1_565
Fe2 O13 2.160302 1_555
Fe2 O4 2.168523 1_655
Fe3 O2 2.066858 1_555
Fe3 O12 2.140926 1_655
Fe3 O14 2.160302 1_556
Fe3 O7 2.168523 1_565
Fe4 O7 2.081804 1_554
Fe4 O10 2.124401 1_554
Fe4 O8 2.133925 1_555
Fe4 O1 2.201919 1_545
Fe5 O6 2.081804 1_555
Fe5 O11 2.124401 1_555
Fe5 O15 2.133925 1_555
Fe5 O3 2.201919 1_655
Fe6 O5 2.081804 1_556
Fe6 O8 2.124401 1_556
Fe6 O10 2.133925 1_555
Fe6 O0 2.201919 1_565
Fe7 O4 2.081804 1_555
Fe7 O15 2.124401 1_555
Fe7 O11 2.133925 1_555
Fe7 O2 2.201919 1_455
O0 P3 1.553871 1_555
O1 P1 1.553871 1_555
O2 P2 1.553871 1_555
O3 P0 1.553871 1_555
O4 P0 1.559234 1_555
O5 P1 1.559234 1_555
O6 P2 1.559234 1_555
O7 P3 1.559234 1_555
O8 P0 1.549877 1_555
O9 P0 1.553581 1_555
O10 P2 1.549877 1_555
O11 P3 1.549877 1_555
O12 P3 1.553581 1_555
O13 P2 1.553581 1_555
O14 P1 1.553581 1_555
O15 P1 1.549877 1_555
F0 Fe0 2.049074 1_565
F0 Fe7 2.060119 1_555
F0 Fe3 2.490172 1_455
F1 Fe3 2.049074 1_455
F1 Fe6 2.060119 1_555
F1 Fe0 2.490172 1_565
F2 Fe2 2.049074 1_545
F2 Fe5 2.060119 1_555
F2 Fe1 2.490172 1_655
F3 Fe1 2.049074 1_655
F3 Fe4 2.060119 1_555
F3 Fe2 2.490172 1_545
