# generated using pymatgen
data_ZrFeSi
_symmetry_space_group_name_H-M   'P 1'
_cell_length_a   4.00988852
_cell_length_b   6.48252405
_cell_length_c   6.93615122
_cell_angle_alpha   90.00000000
_cell_angle_beta   90.00000000
_cell_angle_gamma   90.00000000
_symmetry_Int_Tables_number   1
_chemical_formula_structural   ZrFeSi
_chemical_formula_sum   'Zr4 Fe4 Si4'
_cell_volume   180.29969350
_cell_formula_units_Z   4
loop_
 _symmetry_equiv_pos_site_id
 _symmetry_equiv_pos_as_xyz
  1  'x, y, z'
loop_
 _atom_site_type_symbol
 _atom_site_label
 _atom_site_symmetry_multiplicity
 _atom_site_fract_x
 _atom_site_fract_y
 _atom_site_fract_z
 _atom_site_occupancy
  Zr  Zr0  1  0.25000000  0.98873317  0.30342533  1
  Zr  Zr1  1  0.25000000  0.48869907  0.19657639  1
  Zr  Zr2  1  0.75000000  0.01130093  0.69657639  1
  Zr  Zr3  1  0.75000000  0.51126683  0.80342533  1
  Fe  Fe0  1  0.25000000  0.15222140  0.93697448  1
  Fe  Fe1  1  0.25000000  0.65223577  0.56301508  1
  Fe  Fe2  1  0.75000000  0.84776423  0.06301508  1
  Fe  Fe3  1  0.75000000  0.34777860  0.43697448  1
  Si  Si0  1  0.25000000  0.29166971  0.60631210  1
  Si  Si1  1  0.25000000  0.79168813  0.89369763  1
  Si  Si2  1  0.75000000  0.70831187  0.39369763  1
  Si  Si3  1  0.75000000  0.20833029  0.10631210  1
loop_
_geom_bond_atom_site_label_1
_geom_bond_atom_site_label_2
_geom_bond_distance
_geom_bond_site_symmetry_2
Fe0 Si3 2.351950 1_456
Fe0 Si3 2.351950 1_556
Fe0 Si1 2.356363 1_545
Fe0 Si0 2.465244 1_555
Fe0 Zr0 2.753860 1_546
Fe0 Zr2 2.763090 1_455
Fe0 Zr2 2.763090 1_555
Fe0 Zr1 2.828434 1_556
Fe1 Si2 2.351847 1_455
Fe1 Si2 2.351847 1_555
Fe1 Si0 2.356592 1_555
Fe1 Si1 2.465384 1_555
Fe1 Zr1 2.753903 1_555
Fe1 Zr3 2.763245 1_555
Fe1 Zr3 2.763245 1_455
Fe1 Zr0 2.828479 1_555
Fe2 Si1 2.351847 1_654
Fe2 Si1 2.351847 1_554
Fe2 Si3 2.356592 1_565
Fe2 Si2 2.465384 1_555
Fe2 Zr2 2.753903 1_564
Fe2 Zr0 2.763245 1_555
Fe2 Zr0 2.763245 1_655
Fe2 Zr3 2.828479 1_554
Fe3 Si0 2.351950 1_655
Fe3 Si0 2.351950 1_555
Fe3 Si2 2.356363 1_555
Fe3 Si3 2.465244 1_555
Fe3 Zr3 2.753860 1_555
Fe3 Zr1 2.763090 1_655
Fe3 Zr1 2.763090 1_555
Fe3 Zr2 2.828434 1_555
Si0 Zr2 2.777604 1_555
Si0 Zr2 2.777604 1_455
Si0 Zr3 2.813456 1_555
Si0 Zr3 2.813456 1_455
Si0 Zr0 2.875784 1_545
Si1 Zr3 2.777839 1_455
Si1 Zr3 2.777839 1_555
Si1 Zr2 2.813534 1_565
Si1 Zr2 2.813534 1_465
Si1 Zr1 2.875976 1_556
Si2 Zr0 2.777839 1_555
Si2 Zr0 2.777839 1_655
Si2 Zr1 2.813534 1_655
Si2 Zr1 2.813534 1_555
Si2 Zr2 2.875976 1_565
Si3 Zr1 2.777604 1_555
Si3 Zr1 2.777604 1_655
Si3 Zr0 2.813456 1_645
Si3 Zr0 2.813456 1_545
Si3 Zr3 2.875784 1_554
