# generated using pymatgen
data_Y7(O2F3)3
_symmetry_space_group_name_H-M   'P 1'
_cell_length_a   6.42700900
_cell_length_b   7.92994985
_cell_length_c   13.22792831
_cell_angle_alpha   103.26627768
_cell_angle_beta   90.00000000
_cell_angle_gamma   90.00000000
_symmetry_Int_Tables_number   1
_chemical_formula_structural   Y7(O2F3)3
_chemical_formula_sum   'Y14 O12 F18'
_cell_volume   656.18182629
_cell_formula_units_Z   2
loop_
 _symmetry_equiv_pos_site_id
 _symmetry_equiv_pos_as_xyz
  1  'x, y, z'
loop_
 _atom_site_type_symbol
 _atom_site_label
 _atom_site_symmetry_multiplicity
 _atom_site_fract_x
 _atom_site_fract_y
 _atom_site_fract_z
 _atom_site_occupancy
  Y  Y0  1  0.38070500  0.22873700  0.10924100  1
  Y  Y1  1  0.16759900  0.75713400  0.94939400  1
  Y  Y2  1  0.38197200  0.58675800  0.37042600  1
  Y  Y3  1  0.30852500  0.69211500  0.66089000  1
  Y  Y4  1  0.19640200  0.99240400  0.53576900  1
  Y  Y5  1  0.34338500  0.11767600  0.84193500  1
  Y  Y6  1  0.16174800  0.88463900  0.23733900  1
  Y  Y7  1  0.83825200  0.38463900  0.23733900  1
  Y  Y8  1  0.65661500  0.61767600  0.84193500  1
  Y  Y9  1  0.80359800  0.49240400  0.53576900  1
  Y  Y10  1  0.69147500  0.19211500  0.66089000  1
  Y  Y11  1  0.61802800  0.08675800  0.37042600  1
  Y  Y12  1  0.83240100  0.25713400  0.94939400  1
  Y  Y13  1  0.61929500  0.72873700  0.10924100  1
  O  O0  1  0.57768900  0.27027000  0.51689500  1
  O  O1  1  0.33385800  0.93550200  0.10955800  1
  O  O2  1  0.61168300  0.31286100  0.82173400  1
  O  O3  1  0.52925400  0.28014100  0.27454800  1
  O  O4  1  0.59896100  0.54859800  0.67187000  1
  O  O5  1  0.55711900  0.11932000  0.97283200  1
  O  O6  1  0.44288100  0.61932000  0.97283200  1
  O  O7  1  0.47074600  0.78014100  0.27454800  1
  O  O8  1  0.40103900  0.04859800  0.67187000  1
  O  O9  1  0.66614200  0.43550200  0.10955800  1
  O  O10  1  0.38831700  0.81286100  0.82173400  1
  O  O11  1  0.42231100  0.77027000  0.51689500  1
  F  F0  1  0.80007800  0.82111300  0.98259400  1
  F  F1  1  0.07039900  0.01883500  0.92683000  1
  F  F2  1  0.98967000  0.68834600  0.12688500  1
  F  F3  1  0.17504500  0.47317300  0.23397400  1
  F  F4  1  0.00714700  0.66507300  0.77737100  1
  F  F5  1  0.10317900  0.77317100  0.38093300  1
  F  F6  1  0.01471300  0.82621900  0.61655300  1
  F  F7  1  0.14740900  0.51774500  0.49767500  1
  F  F8  1  0.26238700  0.08316900  0.38475400  1
  F  F9  1  0.73761300  0.58316900  0.38475400  1
  F  F10  1  0.85259100  0.01774500  0.49767500  1
  F  F11  1  0.89682100  0.27317100  0.38093300  1
  F  F12  1  0.98528700  0.32621900  0.61655300  1
  F  F13  1  0.82495500  0.97317300  0.23397400  1
  F  F14  1  0.99285300  0.16507300  0.77737100  1
  F  F15  1  0.92960100  0.51883500  0.92683000  1
  F  F16  1  0.01033000  0.18834600  0.12688500  1
  F  F17  1  0.19992200  0.32111300  0.98259400  1
loop_
_geom_bond_atom_site_label_1
_geom_bond_atom_site_label_2
_geom_bond_distance
_geom_bond_site_symmetry_2
O0 Y11 2.155169 1_555
O0 Y9 2.251995 1_555
O0 Y10 2.255838 1_555
O1 Y6 2.134524 1_555
O1 Y0 2.345708 1_565
O1 Y13 2.459813 1_555
O1 Y1 2.501147 1_554
O2 Y10 2.184409 1_555
O2 Y12 2.324159 1_555
O2 Y5 2.372832 1_555
O2 Y8 2.387688 1_555
O3 Y7 2.249459 1_555
O3 Y11 2.275595 1_555
O3 Y0 2.334544 1_555
O3 Y2 2.645980 1_555
O4 Y9 2.191196 1_555
O4 Y3 2.208284 1_555
O4 Y8 2.220931 1_555
O4 Y10 2.859635 1_555
O5 Y0 2.139094 1_556
O5 Y12 2.139200 1_555
O5 Y5 2.207908 1_555
O6 Y13 2.139094 1_556
O6 Y1 2.139200 1_555
O6 Y8 2.207908 1_555
O7 Y6 2.249459 1_555
O7 Y2 2.275595 1_555
O7 Y13 2.334544 1_555
O7 Y11 2.645980 1_565
O8 Y4 2.191196 1_545
O8 Y10 2.208284 1_555
O8 Y5 2.220931 1_555
O8 Y3 2.859635 1_545
O9 Y7 2.134524 1_555
O9 Y13 2.345708 1_555
O9 Y0 2.459813 1_555
O9 Y12 2.501147 1_554
O10 Y3 2.184409 1_555
O10 Y1 2.324159 1_555
O10 Y8 2.372832 1_555
O10 Y5 2.387688 1_565
O11 Y2 2.155169 1_555
O11 Y4 2.251995 1_555
O11 Y3 2.255838 1_555
F0 Y13 2.292682 1_556
F0 Y8 2.353089 1_555
F0 Y1 2.434614 1_655
F1 Y1 2.251754 1_545
F1 Y5 2.314655 1_555
F1 Y12 2.396020 1_455
F2 Y6 2.176476 1_655
F2 Y13 2.420267 1_555
F2 Y1 2.775859 1_654
F3 Y2 2.256497 1_555
F3 Y7 2.279166 1_455
F3 Y0 2.599786 1_555
F4 Y1 2.451918 1_555
F4 Y8 2.468486 1_455
F4 Y3 2.514659 1_555
F5 Y6 2.302506 1_555
F5 Y2 2.306686 1_555
F5 Y4 2.437647 1_555
F6 Y4 2.210995 1_555
F6 Y3 2.308010 1_555
F6 Y9 2.948219 1_455
F7 Y9 2.285486 1_455
F7 Y2 2.414178 1_555
F7 Y3 2.505068 1_555
F8 Y11 2.294268 1_555
F8 Y6 2.300088 1_545
F8 Y4 2.312631 1_545
F9 Y2 2.294268 1_555
F9 Y7 2.300088 1_555
F9 Y9 2.312631 1_555
F10 Y4 2.285486 1_645
F10 Y11 2.414178 1_555
F10 Y10 2.505068 1_555
F11 Y7 2.302506 1_555
F11 Y11 2.306686 1_555
F11 Y9 2.437647 1_555
F12 Y9 2.210995 1_555
F12 Y10 2.308010 1_555
F12 Y4 2.948219 1_645
F13 Y11 2.256497 1_565
F13 Y6 2.279166 1_655
F13 Y13 2.599786 1_555
F14 Y12 2.451918 1_555
F14 Y5 2.468486 1_655
F14 Y10 2.514659 1_555
F15 Y12 2.251754 1_555
F15 Y8 2.314655 1_555
F15 Y1 2.396020 1_655
F16 Y7 2.176476 1_455
F16 Y0 2.420267 1_555
F16 Y12 2.775859 1_454
F17 Y0 2.292682 1_556
F17 Y5 2.353089 1_555
F17 Y12 2.434614 1_455
