# generated using pymatgen
data_PtRhBr6N5Cl
_symmetry_space_group_name_H-M   'P 1'
_cell_length_a   9.52130000
_cell_length_b   9.27697100
_cell_length_c   17.32956229
_cell_angle_alpha   85.65020010
_cell_angle_beta   90.00000000
_cell_angle_gamma   90.00000000
_symmetry_Int_Tables_number   1
_chemical_formula_structural   PtRhBr6N5Cl
_chemical_formula_sum   'Pt4 Rh4 Br24 N20 Cl4'
_cell_volume   1526.29081001
_cell_formula_units_Z   4
loop_
 _symmetry_equiv_pos_site_id
 _symmetry_equiv_pos_as_xyz
  1  'x, y, z'
loop_
 _atom_site_type_symbol
 _atom_site_label
 _atom_site_symmetry_multiplicity
 _atom_site_fract_x
 _atom_site_fract_y
 _atom_site_fract_z
 _atom_site_occupancy
  Pt  Pt0  1  0.25000000  0.16225400  0.15663400  1
  Pt  Pt1  1  0.75000000  0.83774600  0.84336600  1
  Pt  Pt2  1  0.25000000  0.36788000  0.66826300  1
  Pt  Pt3  1  0.75000000  0.63212000  0.33173700  1
  Rh  Rh0  1  0.25000000  0.70744500  0.08031700  1
  Rh  Rh1  1  0.75000000  0.29255500  0.91968300  1
  Rh  Rh2  1  0.25000000  0.83121900  0.60482100  1
  Rh  Rh3  1  0.75000000  0.16878100  0.39517900  1
  Br  Br0  1  0.41292900  0.93215500  0.19380600  1
  Br  Br1  1  0.91292900  0.06784500  0.80619400  1
  Br  Br2  1  0.58707100  0.06784500  0.80619400  1
  Br  Br3  1  0.08707100  0.93215500  0.19380600  1
  Br  Br4  1  0.25000000  0.07254800  0.02243000  1
  Br  Br5  1  0.75000000  0.92745200  0.97757000  1
  Br  Br6  1  0.41428500  0.39090100  0.12164500  1
  Br  Br7  1  0.91428500  0.60909900  0.87835500  1
  Br  Br8  1  0.58571500  0.60909900  0.87835500  1
  Br  Br9  1  0.08571500  0.39090100  0.12164500  1
  Br  Br10  1  0.25000000  0.22825600  0.29068000  1
  Br  Br11  1  0.75000000  0.77174400  0.70932000  1
  Br  Br12  1  0.25000000  0.12803200  0.57565100  1
  Br  Br13  1  0.75000000  0.87196800  0.42434900  1
  Br  Br14  1  0.25000000  0.60153300  0.75759900  1
  Br  Br15  1  0.75000000  0.39846700  0.24240100  1
  Br  Br16  1  0.50992000  0.36275600  0.65787900  1
  Br  Br17  1  0.00992000  0.63724400  0.34212100  1
  Br  Br18  1  0.49008000  0.63724400  0.34212100  1
  Br  Br19  1  0.99008000  0.36275600  0.65787900  1
  Br  Br20  1  0.25000000  0.54372100  0.54944900  1
  Br  Br21  1  0.75000000  0.45627900  0.45055100  1
  Br  Br22  1  0.25000000  0.20266100  0.78492100  1
  Br  Br23  1  0.75000000  0.79733900  0.21507900  1
  N  N0  1  0.25000000  0.80291000  0.18531700  1
  N  N1  1  0.75000000  0.19709000  0.81468300  1
  N  N2  1  0.25000000  0.49561500  0.15407200  1
  N  N3  1  0.75000000  0.50438500  0.84592800  1
  N  N4  1  0.44081700  0.64091900  0.10294700  1
  N  N5  1  0.94081700  0.35908100  0.89705300  1
  N  N6  1  0.55918300  0.35908100  0.89705300  1
  N  N7  1  0.05918300  0.64091900  0.10294700  1
  N  N8  1  0.25000000  0.86448700  0.00902300  1
  N  N9  1  0.75000000  0.13551300  0.99097700  1
  N  N10  1  0.38835000  0.99738000  0.59748100  1
  N  N11  1  0.88835000  0.00262000  0.40251900  1
  N  N12  1  0.61165000  0.00262000  0.40251900  1
  N  N13  1  0.11165000  0.99738000  0.59748100  1
  N  N14  1  0.39187000  0.67510500  0.57486500  1
  N  N15  1  0.89187000  0.32489500  0.42513500  1
  N  N16  1  0.60813000  0.32489500  0.42513500  1
  N  N17  1  0.10813000  0.67510500  0.57486500  1
  N  N18  1  0.25000000  0.78528900  0.71212100  1
  N  N19  1  0.75000000  0.21471100  0.28787900  1
  Cl  Cl0  1  0.25000000  0.57065500  0.96448400  1
  Cl  Cl1  1  0.75000000  0.42934500  0.03551600  1
  Cl  Cl2  1  0.25000000  0.85874000  0.46320100  1
  Cl  Cl3  1  0.75000000  0.14126000  0.53679900  1
loop_
_geom_bond_atom_site_label_1
_geom_bond_atom_site_label_2
_geom_bond_distance
_geom_bond_site_symmetry_2
Br0 N0 1.972948 1_555
Br0 Pt0 2.677593 1_565
Br1 N1 1.972948 1_555
Br1 Pt1 2.677593 1_545
Br2 N1 1.972948 1_555
Br2 Pt1 2.677593 1_545
Br3 N0 1.972948 1_555
Br3 Pt0 2.677593 1_565
Br4 N8 1.961526 1_545
Br4 Pt0 2.528836 1_555
Br5 N9 1.961526 1_565
Br5 Pt1 2.528836 1_555
Br6 N2 1.946537 1_555
Br6 N4 2.331195 1_555
Br6 Pt0 2.668067 1_555
Br7 N3 1.946537 1_555
Br7 N5 2.331195 1_555
Br7 Pt1 2.668067 1_555
Br8 N3 1.946537 1_555
Br8 N6 2.331195 1_555
Br8 Pt1 2.668067 1_555
Br9 N2 1.946537 1_555
Br9 N7 2.331195 1_555
Br9 Pt0 2.668067 1_555
Br10 Pt0 2.446794 1_555
Br11 Pt1 2.446794 1_555
Br12 N13 1.810481 1_545
Br12 N10 1.810481 1_545
Br12 Pt2 2.840491 1_555
Br13 N12 1.810481 1_565
Br13 N11 1.810481 1_565
Br13 Pt3 2.840491 1_555
Br14 N18 1.822999 1_555
Br14 Pt2 2.757585 1_555
Br15 N19 1.822999 1_555
Br15 Pt3 2.757585 1_555
Br16 Pt2 2.482027 1_555
Br17 Pt3 2.482027 1_455
Br18 Pt3 2.482027 1_555
Br19 Pt2 2.482027 1_655
Br20 N17 1.893578 1_555
Br20 N14 1.893578 1_555
Br20 Pt2 2.528045 1_555
Br21 N16 1.893578 1_555
Br21 N15 1.893578 1_555
Br21 Pt3 2.528045 1_555
Br22 Pt2 2.442587 1_555
Br23 Pt3 2.442587 1_555
N0 Rh0 2.083204 1_555
N1 Rh1 2.083204 1_555
N2 Rh0 2.261508 1_555
N3 Rh1 2.261508 1_555
N4 Rh0 1.949057 1_555
N5 Rh1 1.949057 1_555
N6 Rh1 1.949057 1_555
N7 Rh0 1.949057 1_555
N8 Rh0 1.837359 1_555
N9 Rh1 1.837359 1_555
N10 Rh2 2.024296 1_555
N11 Rh3 2.024296 1_555
N12 Rh3 2.024296 1_555
N13 Rh2 2.024296 1_555
N14 Rh2 2.075002 1_555
N15 Rh3 2.075002 1_555
N16 Rh3 2.075002 1_555
N17 Rh2 2.075002 1_555
N18 Rh2 1.875891 1_555
N19 Rh3 1.875891 1_555
Cl0 Rh0 2.454822 1_556
Cl1 Rh1 2.454822 1_554
Cl2 Rh2 2.448121 1_555
Cl3 Rh3 2.448121 1_555
