# generated using pymatgen
data_Ba2PuPbO6
_symmetry_space_group_name_H-M   'P 1'
_cell_length_a   6.32367716
_cell_length_b   6.32367716
_cell_length_c   6.32367716
_cell_angle_alpha   60.00000000
_cell_angle_beta   60.00000000
_cell_angle_gamma   60.00000000
_symmetry_Int_Tables_number   1
_chemical_formula_structural   Ba2PuPbO6
_chemical_formula_sum   'Ba2 Pu1 Pb1 O6'
_cell_volume   178.81093395
_cell_formula_units_Z   1
loop_
 _symmetry_equiv_pos_site_id
 _symmetry_equiv_pos_as_xyz
  1  'x, y, z'
loop_
 _atom_site_type_symbol
 _atom_site_label
 _atom_site_symmetry_multiplicity
 _atom_site_fract_x
 _atom_site_fract_y
 _atom_site_fract_z
 _atom_site_occupancy
  Ba  Ba0  1  0.75000000  0.75000000  0.75000000  1
  Ba  Ba1  1  0.25000000  0.25000000  0.25000000  1
  Pu  Pu0  1  0.00000000  0.00000000  0.00000000  1
  Pb  Pb0  1  0.50000000  0.50000000  0.50000000  1
  O  O0  1  0.76954000  0.76954000  0.23046000  1
  O  O1  1  0.23046000  0.23046000  0.76954000  1
  O  O2  1  0.76954000  0.23046000  0.76954000  1
  O  O3  1  0.23046000  0.76954000  0.23046000  1
  O  O4  1  0.23046000  0.76954000  0.76954000  1
  O  O5  1  0.76954000  0.23046000  0.23046000  1
loop_
_geom_bond_atom_site_label_1
_geom_bond_atom_site_label_2
_geom_bond_distance
_geom_bond_site_symmetry_2
Ba0 O4 3.166664 1_555
Ba0 O2 3.166664 1_555
Ba0 O0 3.166664 1_555
Ba0 O3 3.166664 1_655
Ba0 O5 3.166664 1_556
Ba0 O5 3.166664 1_565
Ba0 O1 3.166664 1_655
Ba0 O1 3.166664 1_565
Ba0 O3 3.166664 1_556
Ba0 O4 3.166664 1_655
Ba0 O2 3.166664 1_565
Ba0 O0 3.166664 1_556
Ba1 O1 3.166664 1_554
Ba1 O5 3.166664 1_455
Ba1 O3 3.166664 1_545
Ba1 O4 3.166664 1_554
Ba1 O2 3.166664 1_455
Ba1 O0 3.166664 1_545
Ba1 O2 3.166664 1_554
Ba1 O4 3.166664 1_545
Ba1 O0 3.166664 1_455
Ba1 O1 3.166664 1_555
Ba1 O5 3.166664 1_555
Ba1 O3 3.166664 1_555
O0 Pu0 2.061011 1_665
O0 Pb0 2.410504 1_555
O1 Pu0 2.061011 1_556
O1 Pb0 2.410504 1_555
O2 Pu0 2.061011 1_656
O2 Pb0 2.410504 1_555
O3 Pu0 2.061011 1_565
O3 Pb0 2.410504 1_555
O4 Pu0 2.061011 1_566
O4 Pb0 2.410504 1_555
O5 Pu0 2.061011 1_655
O5 Pb0 2.410504 1_555
