# generated using pymatgen
data_Nb2FeMo
_symmetry_space_group_name_H-M   'P 1'
_cell_length_a   10.38677764
_cell_length_b   10.38677764
_cell_length_c   10.38677764
_cell_angle_alpha   129.26226431
_cell_angle_beta   117.12551183
_cell_angle_gamma   84.90471570
_symmetry_Int_Tables_number   1
_chemical_formula_structural   Nb2FeMo
_chemical_formula_sum   'Nb2 Fe1 Mo1'
_cell_volume   739.03706002
_cell_formula_units_Z   1
loop_
 _symmetry_equiv_pos_site_id
 _symmetry_equiv_pos_as_xyz
  1  'x, y, z'
loop_
 _atom_site_type_symbol
 _atom_site_label
 _atom_site_symmetry_multiplicity
 _atom_site_fract_x
 _atom_site_fract_y
 _atom_site_fract_z
 _atom_site_occupancy
  Nb  Nb0  1  0.00000000  0.24579100  0.24579100  1
  Nb  Nb1  1  0.00000000  0.75420900  0.75420900  1
  Fe  Fe0  1  0.00000000  0.00000000  0.00000000  1
  Mo  Mo0  1  0.00000000  0.50000000  0.50000000  1
loop_
_geom_bond_atom_site_label_1
_geom_bond_atom_site_label_2
_geom_bond_distance
_geom_bond_site_symmetry_2
Fe0 Nb1 2.187616 1_544
Fe0 Nb0 2.187616 1_555
Mo0 Nb0 2.262539 1_555
Mo0 Nb1 2.262539 1_555
