# generated using pymatgen
data_V2O5
_symmetry_space_group_name_H-M   'P 1'
_cell_length_a   12.83174661
_cell_length_b   11.99280415
_cell_length_c   12.04137481
_cell_angle_alpha   90.28075774
_cell_angle_beta   96.81811828
_cell_angle_gamma   92.26325537
_symmetry_Int_Tables_number   1
_chemical_formula_structural   V2O5
_chemical_formula_sum   'V30 O75'
_cell_volume   1838.40486487
_cell_formula_units_Z   15
loop_
 _symmetry_equiv_pos_site_id
 _symmetry_equiv_pos_as_xyz
  1  'x, y, z'
loop_
 _atom_site_type_symbol
 _atom_site_label
 _atom_site_symmetry_multiplicity
 _atom_site_fract_x
 _atom_site_fract_y
 _atom_site_fract_z
 _atom_site_occupancy
  V  V0  1  0.88089044  0.01065906  0.87467840  1
  V  V1  1  0.90524120  0.74204479  0.78164911  1
  V  V2  1  0.73617658  0.20866017  0.72876562  1
  V  V3  1  0.83281536  -0.00001777  0.33098040  1
  V  V4  1  0.63694984  0.96949494  0.96839617  1
  V  V5  1  0.17058388  0.68312675  0.81740628  1
  V  V6  1  0.48472437  0.59529233  0.16506543  1
  V  V7  1  0.36015455  0.01391622  0.31717017  1
  V  V8  1  0.78118378  0.22893252  0.46121894  1
  V  V9  1  0.30712290  0.64249590  0.24997379  1
  V  V10  1  0.32720584  0.24757050  0.59499727  1
  V  V11  1  0.05779776  0.69320108  0.16991184  1
  V  V12  1  0.26151519  0.95699084  0.79892161  1
  V  V13  1  0.36512656  0.21382739  0.87436565  1
  V  V14  1  0.93481490  0.41186882  0.31316779  1
  V  V15  1  0.05086047  0.04795727  0.22930836  1
  V  V16  1  0.05411904  0.84409426  0.39552758  1
  V  V17  1  0.25573708  0.05596363  0.06833871  1
  V  V18  1  0.56979115  0.55387717  0.77314707  1
  V  V19  1  0.82793174  0.33323107  0.96240362  1
  V  V20  1  0.71946597  0.49350021  0.15860570  1
  V  V21  1  0.29018499  0.85558387  0.55710384  1
  V  V22  1  0.20226156  0.44782100  0.68711917  1
  V  V23  1  0.70531323  0.19022968  0.13377834  1
  V  V24  1  0.48959432  0.02947638  0.69830581  1
  V  V25  1  0.19077976  0.48704524  0.44232256  1
  V  V26  1  0.06043489  0.46019593  0.00819960  1
  V  V27  1  0.64096439  0.68288785  0.95463519  1
  V  V28  1  0.64687852  0.56058395  0.51274096  1
  V  V29  1  0.34111594  0.28951585  0.33778083  1
  O  O0  1  0.23467341  0.38050224  0.34855688  1
  O  O1  1  0.92955190  0.88920358  0.82084503  1
  O  O2  1  0.08543148  0.54421697  0.90344598  1
  O  O3  1  0.44409984  0.69951018  0.25687902  1
  O  O4  1  0.77294638  0.26820162  0.60878371  1
  O  O5  1  0.30901445  0.17920977  0.00380661  1
  O  O6  1  0.82433268  0.50443721  0.26511189  1
  O  O7  1  0.02695803  0.55407569  0.12432480  1
  O  O8  1  0.42492569  0.14470124  0.63266677  1
  O  O9  1  0.97342016  0.07875577  0.95129668  1
  O  O10  1  0.62099996  0.83793931  0.01450200  1
  O  O11  1  0.77375184  0.13772234  0.24712718  1
  O  O12  1  0.16428110  0.55330623  0.56643294  1
  O  O13  1  0.71122898  0.46356139  0.45756855  1
  O  O14  1  0.88083002  0.32376627  0.40722148  1
  O  O15  1  0.46106161  0.47916722  0.74867779  1
  O  O16  1  0.25046023  0.96136070  0.94520639  1
  O  O17  1  0.40275962  0.28919411  0.47670301  1
  O  O18  1  0.79590746  0.44130052  0.04057965  1
  O  O19  1  0.77220315  0.98035370  0.95428657  1
  O  O20  1  0.26303566  0.39637336  0.56467328  1
  O  O21  1  0.82780325  0.10606768  0.76775059  1
  O  O22  1  0.33187884  0.96702237  0.17498602  1
  O  O23  1  0.25785646  0.59945439  0.37997038  1
  O  O24  1  0.42229488  0.34081113  0.25664718  1
  O  O25  1  0.37661118  0.07457047  0.82785626  1
  O  O26  1  0.65090176  0.54256880  0.66087447  1
  O  O27  1  0.73507987  0.91047629  0.30898393  1
  O  O28  1  0.94364979  0.90525510  0.42226324  1
  O  O29  1  0.71986505  0.62098926  0.09800767  1
  O  O30  1  0.67368531  0.32668580  0.15333084  1
  O  O31  1  0.06049104  0.42343790  0.67640867  1
  O  O32  1  0.52639024  0.56057084  0.45091226  1
  O  O33  1  0.24677675  0.56052490  0.77846944  1
  O  O34  1  0.02313118  0.72015364  0.31091007  1
  O  O35  1  0.11525621  0.34817396  0.75092518  1
  O  O36  1  0.35994596  0.93561234  0.68109703  1
  O  O37  1  0.66291454  0.22803465  0.39863783  1
  O  O38  1  0.95398269  0.33911425  0.20411690  1
  O  O39  1  0.85130069  0.65431910  0.89052413  1
  O  O40  1  0.54076460  0.96086796  0.60461740  1
  O  O41  1  0.95708442  0.35121318  0.94284714  1
  O  O42  1  0.61628969  0.08327448  0.06338597  1
  O  O43  1  0.16421475  0.39308462  0.05294851  1
  O  O44  1  0.55708168  0.69674354  0.82256445  1
  O  O45  1  0.48508300  0.03627604  0.34284365  1
  O  O46  1  0.92268886  0.99609799  0.20787730  1
  O  O47  1  0.35353158  0.53927464  0.15398586  1
  O  O48  1  0.82751564  0.72851547  0.66462345  1
  O  O49  1  0.22587703  0.80591795  0.75150466  1
  O  O50  1  0.31908202  0.93403275  0.43905861  1
  O  O51  1  0.80394876  0.21037253  0.03811665  1
  O  O52  1  0.11892984  0.93325408  0.30925191  1
  O  O53  1  0.19993292  0.71631076  0.18208632  1
  O  O54  1  0.13026081  0.06864112  0.11356383  1
  O  O55  1  0.48378020  0.26265850  0.90897840  1
  O  O56  1  0.56398589  0.97954377  0.83965556  1
  O  O57  1  0.05609671  0.47578420  0.37875630  1
  O  O58  1  0.00412138  0.78126340  0.08195238  1
  O  O59  1  0.29958256  0.14598101  0.29483627  1
  O  O60  1  0.35088639  0.74164562  0.55117529  1
  O  O61  1  0.82883489  0.09601538  0.46191211  1
  O  O62  1  0.59386466  0.51260967  0.21427919  1
  O  O63  1  0.05534027  0.15100203  0.31759402  1
  O  O64  1  0.74350010  0.31672966  0.83401823  1
  O  O65  1  0.30821860  0.29111781  0.74755407  1
  O  O66  1  0.16502410  0.02479407  0.73858366  1
  O  O67  1  0.22684902  0.17117242  0.54346166  1
  O  O68  1  0.14639423  0.82739780  0.51526695  1
  O  O69  1  0.64002739  0.52767365  0.90375010  1
  O  O70  1  0.61586867  0.14858166  0.71517790  1
  O  O71  1  0.77171414  0.73254128  0.90628151  1
  O  O72  1  0.03072668  0.69753674  0.75867223  1
  O  O73  1  0.51236855  0.64802757  0.04325304  1
  O  O74  1  0.20135443  0.72307642  0.94515535  1
loop_
_geom_bond_atom_site_label_1
_geom_bond_atom_site_label_2
_geom_bond_distance
_geom_bond_site_symmetry_2
O0 V29 1.797624 1_555
O0 V25 1.848881 1_555
O1 V0 1.757963 1_565
O1 V1 1.829795 1_555
O2 V26 1.671018 1_556
O2 V5 2.276945 1_555
O3 V6 1.797476 1_555
O3 V9 1.853000 1_555
O4 V2 1.721963 1_555
O4 V8 1.852188 1_555
O5 V17 1.820286 1_555
O5 V13 1.835581 1_554
O6 V20 1.745658 1_555
O6 V14 1.874280 1_555
O7 V11 1.768934 1_555
O7 V26 1.890182 1_555
O8 V24 1.780000 1_555
O8 V10 1.814570 1_555
O9 V0 1.607417 1_555
O10 V4 1.688008 1_554
O10 V27 2.027653 1_554
O11 V23 1.672764 1_555
O11 V3 2.063050 1_555
O12 V25 1.763763 1_555
O12 V22 1.961715 1_555
O13 V28 1.635742 1_555
O14 V14 1.737553 1_555
O14 V8 1.854983 1_555
O15 V18 1.623954 1_555
O16 V12 1.784561 1_555
O16 V17 1.855736 1_566
O17 V29 1.763556 1_555
O17 V10 1.874757 1_555
O18 V19 1.690180 1_554
O18 V20 1.935095 1_555
O19 V4 1.763601 1_555
O19 V0 1.810205 1_565
O20 V22 1.861407 1_555
O20 V25 1.995904 1_555
O20 V10 2.011732 1_555
O21 V2 1.762212 1_555
O21 V0 1.816266 1_555
O22 V7 1.790570 1_565
O22 V17 1.881300 1_565
O23 V25 1.787071 1_555
O23 V9 1.825782 1_555
O24 V29 1.617056 1_555
O25 V13 1.776062 1_555
O25 V12 1.999877 1_545
O25 V24 2.327754 1_555
O26 V28 1.792717 1_555
O26 V18 1.809076 1_555
O27 V3 1.614691 1_565
O28 V16 1.684978 1_655
O28 V3 2.071256 1_565
O29 V20 1.697457 1_555
O29 V27 2.052672 1_554
O30 V23 1.723256 1_555
O30 V20 2.061187 1_555
O31 V22 1.820277 1_555
O32 V28 1.634414 1_555
O33 V22 1.771560 1_555
O33 V5 1.884998 1_555
O34 V16 1.802204 1_555
O34 V11 1.835817 1_555
O35 V22 1.836340 1_555
O36 V21 1.884784 1_555
O36 V24 1.961043 1_565
O36 V12 2.030123 1_555
O37 V8 1.611888 1_555
O38 V14 1.621266 1_555
O39 O71 1.441835 1_555
O39 V1 1.864438 1_555
O40 V24 1.609437 1_565
O41 V19 1.706864 1_555
O41 V26 1.921324 1_656
O42 V23 1.819997 1_555
O42 V4 1.823680 1_544
O43 V26 1.621736 1_555
O44 V27 1.823608 1_555
O44 V18 1.830693 1_555
O45 V7 1.607737 1_555
O46 V15 1.724874 1_665
O46 V3 1.984661 1_565
O47 V6 1.777510 1_555
O47 V9 1.852192 1_555
O48 V1 1.630345 1_555
O49 V5 1.834206 1_555
O49 V12 1.918366 1_555
O50 V21 1.775891 1_555
O50 V7 1.872778 1_565
O51 V19 1.772234 1_554
O51 V23 1.819856 1_555
O52 V16 1.749293 1_555
O52 V15 1.868186 1_565
O53 V9 1.783261 1_555
O53 V11 1.822333 1_555
O54 V17 1.771649 1_555
O54 V15 1.833746 1_555
O55 V13 1.615948 1_555
O56 V4 1.720578 1_555
O56 V24 1.958606 1_565
O57 V14 1.800350 1_455
O57 V25 1.804805 1_555
O58 V11 1.614552 1_555
O59 V7 1.799087 1_555
O59 V29 1.835207 1_555
O60 V21 1.604760 1_555
O61 V8 1.729402 1_555
O61 V3 1.954653 1_555
O62 V6 1.792797 1_555
O62 V20 1.839475 1_555
O63 V15 1.621000 1_555
O64 V19 1.784725 1_555
O64 V2 1.800240 1_555
O65 V13 1.877950 1_555
O65 V10 1.952837 1_555
O65 V22 2.426978 1_555
O66 V12 1.610535 1_545
O67 V10 1.610706 1_555
O68 V16 1.771198 1_555
O68 V21 1.871034 1_555
O69 V18 1.753538 1_555
O69 V27 1.955989 1_555
O70 V2 1.667370 1_555
O70 V24 2.107902 1_555
O71 V27 1.914387 1_555
O72 V1 1.768168 1_455
O72 V5 1.864140 1_555
O73 V6 1.670986 1_555
O73 V27 2.098635 1_554
O74 V5 1.607904 1_555
