# generated using pymatgen
data_LuNb6Cl13O3
_symmetry_space_group_name_H-M   'P 1'
_cell_length_a   9.34742458
_cell_length_b   9.34742458
_cell_length_c   27.76822941
_cell_angle_alpha   99.68966048
_cell_angle_beta   99.68966048
_cell_angle_gamma   90.00000000
_symmetry_Int_Tables_number   1
_chemical_formula_structural   LuNb6Cl13O3
_chemical_formula_sum   'Lu4 Nb24 Cl52 O12'
_cell_volume   2356.49663377
_cell_formula_units_Z   4
loop_
 _symmetry_equiv_pos_site_id
 _symmetry_equiv_pos_as_xyz
  1  'x, y, z'
loop_
 _atom_site_type_symbol
 _atom_site_label
 _atom_site_symmetry_multiplicity
 _atom_site_fract_x
 _atom_site_fract_y
 _atom_site_fract_z
 _atom_site_occupancy
  Lu  Lu0  1  0.09431004  0.09431004  0.18862007  1
  Lu  Lu1  1  0.34431004  0.84431004  0.68862007  1
  Lu  Lu2  1  0.15568996  0.65568996  0.31137993  1
  Lu  Lu3  1  0.90568996  0.90568996  0.81137993  1
  Nb  Nb0  1  0.35686306  0.29672530  0.43171429  1
  Nb  Nb1  1  0.07485123  0.13498899  0.43171429  1
  Nb  Nb2  1  0.38498899  0.10686306  0.93171429  1
  Nb  Nb3  1  0.89313694  0.61501101  0.06828571  1
  Nb  Nb4  1  0.54672530  0.82485123  0.93171429  1
  Nb  Nb5  1  0.17514877  0.45327470  0.06828571  1
  Nb  Nb6  1  0.86501101  0.92514877  0.56828571  1
  Nb  Nb7  1  0.70327470  0.64313694  0.56828571  1
  Nb  Nb8  1  0.17865135  0.75290957  0.12638313  1
  Nb  Nb9  1  0.94773179  0.37347356  0.12638313  1
  Nb  Nb10  1  0.62347356  0.92865135  0.62638313  1
  Nb  Nb11  1  0.07134865  0.37652644  0.37361687  1
  Nb  Nb12  1  0.00290957  0.69773179  0.62638313  1
  Nb  Nb13  1  0.30226821  0.99709043  0.37361687  1
  Nb  Nb14  1  0.62652644  0.05226821  0.87361687  1
  Nb  Nb15  1  0.24709043  0.82134865  0.87361687  1
  Nb  Nb16  1  0.28533489  0.25014205  0.31982458  1
  Nb  Nb17  1  0.03448969  0.06968254  0.31982458  1
  Nb  Nb18  1  0.31968254  0.03533489  0.81982458  1
  Nb  Nb19  1  0.96466511  0.68031746  0.18017542  1
  Nb  Nb20  1  0.50014205  0.78448969  0.81982458  1
  Nb  Nb21  1  0.21551031  0.49985795  0.18017542  1
  Nb  Nb22  1  0.93031746  0.96551031  0.68017542  1
  Nb  Nb23  1  0.74985795  0.71466511  0.68017542  1
  Cl  Cl0  1  0.38830349  0.37500000  0.25000000  1
  Cl  Cl1  1  0.86169651  0.87500000  0.25000000  1
  Cl  Cl2  1  0.12500000  0.13830349  0.75000000  1
  Cl  Cl3  1  0.62500000  0.61169651  0.75000000  1
  Cl  Cl4  1  0.50265417  0.37718407  0.37489851  1
  Cl  Cl5  1  0.87224434  0.99771444  0.37489851  1
  Cl  Cl6  1  0.24771444  0.25265417  0.87489851  1
  Cl  Cl7  1  0.74734583  0.75228556  0.12510149  1
  Cl  Cl8  1  0.62718407  0.62224434  0.87489851  1
  Cl  Cl9  1  0.37775566  0.37281593  0.12510149  1
  Cl  Cl10  1  0.00228556  0.12775566  0.62510149  1
  Cl  Cl11  1  0.62281593  0.49734583  0.62510149  1
  Cl  Cl12  1  0.38731062  0.71456204  0.19164559  1
  Cl  Cl13  1  0.80433496  0.47708354  0.19164559  1
  Cl  Cl14  1  0.72708354  0.13731062  0.69164559  1
  Cl  Cl15  1  0.86268938  0.27291646  0.30835441  1
  Cl  Cl16  1  0.96456204  0.55433496  0.69164559  1
  Cl  Cl17  1  0.44566504  0.03543796  0.30835441  1
  Cl  Cl18  1  0.52291646  0.19566504  0.80835441  1
  Cl  Cl19  1  0.28543796  0.61268938  0.80835441  1
  Cl  Cl20  1  0.05116498  0.21636679  0.06006621  1
  Cl  Cl21  1  0.00890123  0.84369942  0.06006621  1
  Cl  Cl22  1  0.09369942  0.80116498  0.56006621  1
  Cl  Cl23  1  0.19883502  0.90630058  0.43993379  1
  Cl  Cl24  1  0.46636679  0.75890123  0.56006621  1
  Cl  Cl25  1  0.24109877  0.53363321  0.43993379  1
  Cl  Cl26  1  0.15630058  0.99109877  0.93993379  1
  Cl  Cl27  1  0.78363321  0.94883502  0.93993379  1
  Cl  Cl28  1  0.32999098  0.66378609  0.06327048  1
  Cl  Cl29  1  0.73327950  0.39948439  0.06327048  1
  Cl  Cl30  1  0.64948439  0.07999098  0.56327048  1
  Cl  Cl31  1  0.92000902  0.35051561  0.43672952  1
  Cl  Cl32  1  0.91378609  0.48327950  0.56327048  1
  Cl  Cl33  1  0.51672050  0.08621391  0.43672952  1
  Cl  Cl34  1  0.60051561  0.26672050  0.93672952  1
  Cl  Cl35  1  0.33621391  0.67000902  0.93672952  1
  Cl  Cl36  1  0.32613248  0.32613248  0.00000000  1
  Cl  Cl37  1  0.67386752  0.67386752  0.00000000  1
  Cl  Cl38  1  0.92386752  0.07613248  0.50000000  1
  Cl  Cl39  1  0.57613248  0.42386752  0.50000000  1
  Cl  Cl40  1  0.25172893  0.25172893  0.50345785  1
  Cl  Cl41  1  0.50172893  0.00172893  0.00345785  1
  Cl  Cl42  1  0.99827107  0.49827107  0.99654215  1
  Cl  Cl43  1  0.74827107  0.74827107  0.49654215  1
  Cl  Cl44  1  0.41181405  0.73334727  0.35829492  1
  Cl  Cl45  1  0.94648088  0.62494766  0.35829492  1
  Cl  Cl46  1  0.87494766  0.16181405  0.85829492  1
  Cl  Cl47  1  0.83818595  0.12505234  0.14170508  1
  Cl  Cl48  1  0.98334727  0.69648088  0.85829492  1
  Cl  Cl49  1  0.30351912  0.01665273  0.14170508  1
  Cl  Cl50  1  0.37505234  0.05351912  0.64170508  1
  Cl  Cl51  1  0.26665273  0.58818595  0.64170508  1
  O  O0  1  0.10468576  0.31564272  0.17763243  1
  O  O1  1  0.07294667  0.86198970  0.17763243  1
  O  O2  1  0.11198970  0.85468576  0.67763243  1
  O  O3  1  0.14531424  0.88801030  0.32236757  1
  O  O4  1  0.56564272  0.82294667  0.67763243  1
  O  O5  1  0.17705333  0.43435728  0.32236757  1
  O  O6  1  0.13801030  0.92705333  0.82236757  1
  O  O7  1  0.68435728  0.89531424  0.82236757  1
  O  O8  1  0.13306776  0.13306776  0.26613552  1
  O  O9  1  0.38306776  0.88306776  0.76613552  1
  O  O10  1  0.11693224  0.61693224  0.23386448  1
  O  O11  1  0.86693224  0.86693224  0.73386448  1
loop_
_geom_bond_atom_site_label_1
_geom_bond_atom_site_label_2
_geom_bond_distance
_geom_bond_site_symmetry_2
Lu0 O8 2.090601 1_555
Lu0 O0 2.145985 1_555
Lu0 O1 2.145986 1_545
Lu1 O9 2.090601 1_555
Lu1 O4 2.145985 1_555
Lu1 O2 2.145986 1_555
Lu2 O10 2.090601 1_555
Lu2 O5 2.145985 1_555
Lu2 O3 2.145986 1_555
Lu3 O11 2.090601 1_555
Lu3 O7 2.145985 1_555
Lu3 O6 2.145986 1_655
Nb8 O1 2.006490 1_555
Nb9 O0 2.006490 1_655
Nb10 O4 2.006490 1_555
Nb11 O5 2.006490 1_555
Nb12 O2 2.006490 1_555
Nb13 O3 2.006490 1_555
Nb14 O7 2.006490 1_545
Nb15 O6 2.006490 1_555
Nb16 O5 1.994402 1_555
Nb16 O8 2.045123 1_555
Nb17 O3 1.994402 1_545
Nb17 O8 2.045123 1_555
Nb18 O6 1.994402 1_545
Nb18 O9 2.045123 1_545
Nb19 O1 1.994402 1_655
Nb19 O10 2.045123 1_655
Nb20 O7 1.994402 1_555
Nb20 O9 2.045123 1_555
Nb21 O0 1.994402 1_555
Nb21 O10 2.045123 1_555
Nb22 O2 1.994402 1_655
Nb22 O11 2.045123 1_555
Nb23 O4 1.994402 1_555
Nb23 O11 2.045123 1_555
Cl0 Nb21 2.727234 1_555
Cl0 Nb16 2.727234 1_555
Cl1 Nb19 2.727234 1_555
Cl1 Nb17 2.727234 1_665
Cl2 Nb22 2.727234 1_445
Cl2 Nb18 2.727234 1_555
Cl3 Nb23 2.727234 1_555
Cl3 Nb20 2.727234 1_555
Cl4 Nb0 2.456621 1_555
Cl4 Nb16 2.493666 1_555
Cl5 Nb1 2.456621 1_665
Cl5 Nb17 2.493666 1_665
Cl6 Nb2 2.456621 1_555
Cl6 Nb18 2.493666 1_555
Cl7 Nb3 2.456621 1_555
Cl7 Nb19 2.493666 1_555
Cl8 Nb4 2.456621 1_555
Cl8 Nb20 2.493666 1_555
Cl9 Nb5 2.456621 1_555
Cl9 Nb21 2.493666 1_555
Cl10 Nb6 2.456621 1_445
Cl10 Nb22 2.493666 1_445
Cl11 Nb7 2.456621 1_555
Cl11 Nb23 2.493666 1_555
Cl12 Nb8 2.499128 1_555
Cl12 Nb21 2.514109 1_555
Cl13 Nb9 2.499128 1_555
Cl13 Nb19 2.514109 1_555
Cl14 Nb10 2.499128 1_545
Cl14 Nb22 2.514109 1_545
Cl15 Nb11 2.499128 1_655
Cl15 Nb17 2.514109 1_655
Cl16 Nb12 2.499128 1_655
Cl16 Nb23 2.514109 1_555
Cl17 Nb13 2.499128 1_545
Cl17 Nb16 2.514109 1_555
Cl18 Nb14 2.499128 1_555
Cl18 Nb18 2.514109 1_555
Cl19 Nb15 2.499128 1_555
Cl19 Nb20 2.514109 1_555
Cl20 Nb5 2.457630 1_555
Cl20 Nb9 2.484254 1_455
Cl21 Nb3 2.457630 1_455
Cl21 Nb8 2.484254 1_555
Cl22 Nb6 2.457630 1_455
Cl22 Nb12 2.484254 1_555
Cl23 Nb1 2.457630 1_565
Cl23 Nb13 2.484254 1_555
Cl24 Nb7 2.457630 1_555
Cl24 Nb10 2.484254 1_555
Cl25 Nb0 2.457630 1_555
Cl25 Nb11 2.484254 1_555
Cl26 Nb2 2.457630 1_565
Cl26 Nb15 2.484254 1_555
Cl27 Nb4 2.457630 1_555
Cl27 Nb14 2.484254 1_565
Cl28 Nb8 2.471769 1_555
Cl28 Nb5 2.479191 1_555
Cl29 Nb9 2.471769 1_555
Cl29 Nb3 2.479191 1_555
Cl30 Nb10 2.471769 1_545
Cl30 Nb6 2.479191 1_545
Cl31 Nb11 2.471769 1_655
Cl31 Nb1 2.479191 1_655
Cl32 Nb12 2.471769 1_655
Cl32 Nb7 2.479191 1_555
Cl33 Nb13 2.471769 1_545
Cl33 Nb0 2.479191 1_555
Cl34 Nb14 2.471769 1_555
Cl34 Nb2 2.479191 1_555
Cl35 Nb15 2.471769 1_555
Cl35 Nb4 2.479191 1_555
Cl36 Nb2 2.672440 1_554
Cl36 Nb5 2.672440 1_555
Cl37 Nb4 2.672440 1_554
Cl37 Nb3 2.672440 1_555
Cl38 Nb1 2.672440 1_655
Cl38 Nb6 2.672440 1_545
Cl39 Nb7 2.672440 1_555
Cl39 Nb0 2.672440 1_555
Cl40 Nb0 2.460203 1_555
Cl40 Nb1 2.460203 1_555
Cl41 Nb2 2.460203 1_554
Cl41 Nb4 2.460203 1_544
Cl42 Nb3 2.460203 1_556
Cl42 Nb5 2.460203 1_656
Cl43 Nb7 2.460203 1_555
Cl43 Nb6 2.460203 1_555
Cl44 Lu2 2.566625 1_555
Cl44 Nb13 2.664752 1_555
Cl45 Lu2 2.566625 1_655
Cl45 Nb11 2.664752 1_655
Cl46 Lu3 2.566625 1_545
Cl46 Nb14 2.664752 1_555
Cl47 Lu0 2.566625 1_655
Cl47 Nb9 2.664752 1_555
Cl48 Lu3 2.566625 1_555
Cl48 Nb15 2.664752 1_655
Cl49 Lu0 2.566625 1_555
Cl49 Nb8 2.664752 1_545
Cl50 Lu1 2.566625 1_545
Cl50 Nb10 2.664752 1_545
Cl51 Lu1 2.566625 1_555
Cl51 Nb12 2.664752 1_555
