# generated using pymatgen
data_Cs2RbGaBr6
_symmetry_space_group_name_H-M   'P 1'
_cell_length_a   8.27992059
_cell_length_b   8.27992059
_cell_length_c   8.27992059
_cell_angle_alpha   60.00000000
_cell_angle_beta   60.00000000
_cell_angle_gamma   60.00000000
_symmetry_Int_Tables_number   1
_chemical_formula_structural   Cs2RbGaBr6
_chemical_formula_sum   'Cs2 Rb1 Ga1 Br6'
_cell_volume   401.38719887
_cell_formula_units_Z   1
loop_
 _symmetry_equiv_pos_site_id
 _symmetry_equiv_pos_as_xyz
  1  'x, y, z'
loop_
 _atom_site_type_symbol
 _atom_site_label
 _atom_site_symmetry_multiplicity
 _atom_site_fract_x
 _atom_site_fract_y
 _atom_site_fract_z
 _atom_site_occupancy
  Cs  Cs0  1  0.75000000  0.75000000  0.75000000  1
  Cs  Cs1  1  0.25000000  0.25000000  0.25000000  1
  Rb  Rb0  1  0.50000000  0.50000000  0.50000000  1
  Ga  Ga0  1  0.00000000  0.00000000  0.00000000  1
  Br  Br0  1  0.78002700  0.21997300  0.21997300  1
  Br  Br1  1  0.21997300  0.21997300  0.78002700  1
  Br  Br2  1  0.21997300  0.78002700  0.78002700  1
  Br  Br3  1  0.21997300  0.78002700  0.21997300  1
  Br  Br4  1  0.78002700  0.21997300  0.78002700  1
  Br  Br5  1  0.78002700  0.78002700  0.21997300  1
loop_
_geom_bond_atom_site_label_1
_geom_bond_atom_site_label_2
_geom_bond_distance
_geom_bond_site_symmetry_2
Br0 Ga0 2.575791 1_655
Br0 Rb0 3.278997 1_555
Br0 Cs1 4.154864 1_555
Br0 Cs0 4.154864 1_545
Br0 Cs0 4.154864 1_554
Br0 Cs1 4.154864 1_655
Br1 Ga0 2.575791 1_556
Br1 Rb0 3.278997 1_555
Br1 Cs1 4.154864 1_555
Br1 Cs0 4.154864 1_545
Br1 Cs0 4.154864 1_455
Br1 Cs1 4.154864 1_556
Br2 Ga0 2.575791 1_566
Br2 Rb0 3.278997 1_555
Br2 Cs0 4.154864 1_455
Br2 Cs1 4.154864 1_565
Br2 Cs1 4.154864 1_556
Br2 Cs0 4.154864 1_555
Br3 Ga0 2.575791 1_565
Br3 Rb0 3.278997 1_555
Br3 Cs1 4.154864 1_555
Br3 Cs0 4.154864 1_554
Br3 Cs0 4.154864 1_455
Br3 Cs1 4.154864 1_565
Br4 Ga0 2.575791 1_656
Br4 Rb0 3.278997 1_555
Br4 Cs0 4.154864 1_545
Br4 Cs1 4.154864 1_655
Br4 Cs1 4.154864 1_556
Br4 Cs0 4.154864 1_555
Br5 Ga0 2.575791 1_665
Br5 Rb0 3.278997 1_555
Br5 Cs0 4.154864 1_554
Br5 Cs1 4.154864 1_565
Br5 Cs1 4.154864 1_655
Br5 Cs0 4.154864 1_555
