# generated using pymatgen
data_Li3AlN2
_symmetry_space_group_name_H-M   'P 1'
_cell_length_a   8.15829923
_cell_length_b   8.15829677
_cell_length_c   8.15830130
_cell_angle_alpha   109.47066157
_cell_angle_beta   109.47084335
_cell_angle_gamma   109.47091021
_symmetry_Int_Tables_number   1
_chemical_formula_structural   Li3AlN2
_chemical_formula_sum   'Li24 Al8 N16'
_cell_volume   418.00710276
_cell_formula_units_Z   8
loop_
 _symmetry_equiv_pos_site_id
 _symmetry_equiv_pos_as_xyz
  1  'x, y, z'
loop_
 _atom_site_type_symbol
 _atom_site_label
 _atom_site_symmetry_multiplicity
 _atom_site_fract_x
 _atom_site_fract_y
 _atom_site_fract_z
 _atom_site_occupancy
  Li  Li0  1  0.45889551  0.22391722  0.98634790  1
  Li  Li1  1  0.76245182  0.27610547  0.73500733  1
  Li  Li2  1  0.04108361  0.02743221  0.76500503  1
  Li  Li3  1  0.47255701  0.51365983  0.73757397  1
  Li  Li4  1  0.51365996  0.73757381  0.47255707  1
  Li  Li5  1  0.98634761  0.45889481  0.22391714  1
  Li  Li6  1  0.27610557  0.73500628  0.76245153  1
  Li  Li7  1  0.76500595  0.04108374  0.02743217  1
  Li  Li8  1  0.22391752  0.98634700  0.45889475  1
  Li  Li9  1  0.73500714  0.76245155  0.27610536  1
  Li  Li10  1  0.02743216  0.76500567  0.04108413  1
  Li  Li11  1  0.73757383  0.47255692  0.51366031  1
  Li  Li12  1  0.54110520  0.77608281  0.01365241  1
  Li  Li13  1  0.23754836  0.72389410  0.26499328  1
  Li  Li14  1  0.95891672  0.97256811  0.23499444  1
  Li  Li15  1  0.52744343  0.48633996  0.26242614  1
  Li  Li16  1  0.48634019  0.26242607  0.52744337  1
  Li  Li17  1  0.01365311  0.54110523  0.77608277  1
  Li  Li18  1  0.72389495  0.26499344  0.23754852  1
  Li  Li19  1  0.26242646  0.52744295  0.48634041  1
  Li  Li20  1  0.77608272  0.01365225  0.54110468  1
  Li  Li21  1  0.26499319  0.23754846  0.72389482  1
  Li  Li22  1  0.97256821  0.23499400  0.95891596  1
  Li  Li23  1  0.23499430  0.95891634  0.97256799  1
  Al  Al0  1  0.23067539  0.23066828  0.23067161  1
  Al  Al1  1  0.26932455  0.50000526  0.00000600  1
  Al  Al2  1  -0.00000391  0.26932925  0.50000325  1
  Al  Al3  1  0.49999958  -0.00000002  0.26932925  1
  Al  Al4  1  0.76932867  0.76932860  0.76932886  1
  Al  Al5  1  0.73067586  0.49999487  -0.00000573  1
  Al  Al6  1  -0.00000515  0.73067454  0.49999139  1
  Al  Al7  1  0.50000057  -0.00000011  0.73067088  1
  N  N0  1  0.71671944  0.24999664  0.96671963  1
  N  N1  1  0.50000006  0.50000010  0.00000012  1
  N  N2  1  0.00000035  0.49999992  0.50000006  1
  N  N3  1  0.50000016  0.00000002  0.50000018  1
  N  N4  1  0.46672065  0.21672101  0.24999990  1
  N  N5  1  0.28328068  0.75000327  0.03328053  1
  N  N6  1  0.75000362  0.03328052  0.28328052  1
  N  N7  1  0.21672124  0.24999981  0.46672090  1
  N  N8  1  0.96671951  0.71671930  0.24999672  1
  N  N9  1  0.75000054  0.53327949  0.78327936  1
  N  N10  1  0.78327913  0.75000025  0.53327955  1
  N  N11  1  0.24999671  0.96671954  0.71671949  1
  N  N12  1  0.24999952  0.46672045  0.21672091  1
  N  N13  1  0.53327953  0.78327895  0.75000050  1
  N  N14  1  0.03328073  0.28328076  0.75000346  1
  N  N15  1  0.00000005  0.00000011  0.00000020  1
loop_
_geom_bond_atom_site_label_1
_geom_bond_atom_site_label_2
_geom_bond_distance
_geom_bond_site_symmetry_2
Li0 N11 2.045938 1_545
Li0 N0 2.108112 1_555
Li0 N1 2.121871 1_556
Li0 N4 2.151571 1_556
Li1 N9 2.045816 1_555
Li1 N0 2.108019 1_555
Li1 N3 2.122100 1_555
Li1 N14 2.151532 1_655
Li2 N11 2.045903 1_545
Li2 N10 2.107994 1_445
Li2 N15 2.121871 1_556
Li2 N14 2.151625 1_555
Li3 N13 2.045847 1_555
Li3 N9 2.108073 1_555
Li3 N1 2.121876 1_556
Li3 N7 2.151673 1_555
Li4 N10 2.045849 1_555
Li4 N13 2.108075 1_555
Li4 N3 2.121876 1_565
Li4 N12 2.151676 1_555
Li5 N0 2.045935 1_554
Li5 N8 2.108116 1_555
Li5 N2 2.121872 1_655
Li5 N12 2.151569 1_655
Li6 N13 2.045813 1_555
Li6 N11 2.108025 1_555
Li6 N2 2.122098 1_555
Li6 N5 2.151532 1_556
Li7 N0 2.045901 1_554
Li7 N13 2.107997 1_544
Li7 N15 2.121863 1_655
Li7 N6 2.151628 1_555
Li8 N8 2.045934 1_455
Li8 N11 2.108116 1_555
Li8 N3 2.121866 1_565
Li8 N7 2.151575 1_565
Li9 N10 2.045817 1_555
Li9 N8 2.108019 1_555
Li9 N1 2.122100 1_555
Li9 N6 2.151532 1_565
Li10 N8 2.045900 1_455
Li10 N9 2.107995 1_454
Li10 N15 2.121865 1_565
Li10 N5 2.151630 1_555
Li11 N9 2.045849 1_555
Li11 N10 2.108072 1_555
Li11 N2 2.121880 1_655
Li11 N4 2.151674 1_555
Li12 N6 2.045937 1_565
Li12 N5 2.108116 1_555
Li12 N1 2.121869 1_555
Li12 N13 2.151569 1_554
Li13 N12 2.045812 1_555
Li13 N5 2.108024 1_555
Li13 N3 2.122102 1_565
Li13 N8 2.151532 1_455
Li14 N6 2.045903 1_565
Li14 N7 2.107995 1_665
Li14 N15 2.121862 1_665
Li14 N8 2.151629 1_555
Li15 N4 2.045846 1_555
Li15 N12 2.108077 1_555
Li15 N1 2.121875 1_555
Li15 N10 2.151675 1_555
Li16 N7 2.045848 1_555
Li16 N4 2.108075 1_555
Li16 N3 2.121875 1_555
Li16 N9 2.151675 1_555
Li17 N5 2.045933 1_556
Li17 N14 2.108114 1_555
Li17 N2 2.121869 1_555
Li17 N9 2.151575 1_455
Li18 N4 2.045817 1_555
Li18 N6 2.108021 1_555
Li18 N2 2.122099 1_655
Li18 N0 2.151531 1_554
Li19 N12 2.045852 1_555
Li19 N7 2.108070 1_555
Li19 N2 2.121874 1_555
Li19 N13 2.151673 1_555
Li20 N14 2.045937 1_655
Li20 N6 2.108114 1_555
Li20 N3 2.121869 1_555
Li20 N10 2.151571 1_545
Li21 N7 2.045815 1_555
Li21 N14 2.108020 1_555
Li21 N1 2.122100 1_556
Li21 N11 2.151531 1_545
Li22 N14 2.045900 1_655
Li22 N12 2.107995 1_656
Li22 N15 2.121861 1_656
Li22 N0 2.151633 1_555
Li23 N5 2.045902 1_556
Li23 N4 2.107997 1_566
Li23 N15 2.121865 1_566
Li23 N11 2.151629 1_555
Al0 N15 1.881927 1_555
Al0 N4 1.924017 1_555
Al0 N7 1.924068 1_555
Al0 N12 1.924092 1_555
Al1 N1 1.881950 1_555
Al1 N12 1.924020 1_555
Al1 N5 1.924042 1_555
Al1 N14 1.924101 1_554
Al2 N2 1.881877 1_555
Al2 N14 1.924054 1_555
Al2 N6 1.924076 1_455
Al2 N7 1.924108 1_555
Al3 N3 1.881881 1_555
Al3 N4 1.924062 1_555
Al3 N5 1.924084 1_545
Al3 N6 1.924092 1_555
Al4 N15 1.881925 1_666
Al4 N9 1.924059 1_555
Al4 N13 1.924059 1_555
Al4 N10 1.924062 1_555
Al5 N1 1.881952 1_555
Al5 N9 1.924019 1_554
Al5 N0 1.924042 1_554
Al5 N8 1.924100 1_555
Al6 N2 1.881951 1_555
Al6 N8 1.924016 1_455
Al6 N10 1.924041 1_455
Al6 N11 1.924108 1_555
Al7 N3 1.881880 1_555
Al7 N13 1.924062 1_545
Al7 N0 1.924084 1_555
Al7 N11 1.924091 1_545
