# generated using pymatgen
data_SrMg
_symmetry_space_group_name_H-M   'P 1'
_cell_length_a   13.77018052
_cell_length_b   13.77018052
_cell_length_c   12.27793997
_cell_angle_alpha   69.42947088
_cell_angle_beta   69.42947088
_cell_angle_gamma   32.93732505
_symmetry_Int_Tables_number   1
_chemical_formula_structural   SrMg
_chemical_formula_sum   'Sr16 Mg16'
_cell_volume   1177.82080122
_cell_formula_units_Z   16
loop_
 _symmetry_equiv_pos_site_id
 _symmetry_equiv_pos_as_xyz
  1  'x, y, z'
loop_
 _atom_site_type_symbol
 _atom_site_label
 _atom_site_symmetry_multiplicity
 _atom_site_fract_x
 _atom_site_fract_y
 _atom_site_fract_z
 _atom_site_occupancy
  Sr  Sr0_0  1  0.30067700  0.30067700  0.33537589  1
  Sr  Sr0_1  1  0.30067700  0.30067700  0.83537589  1
  Sr  Sr0_2  1  0.30067700  0.80067700  0.33537589  1
  Sr  Sr0_3  1  0.30067700  0.80067700  0.83537589  1
  Sr  Sr0_4  1  0.80067700  0.30067699  0.33537589  1
  Sr  Sr0_5  1  0.80067700  0.30067700  0.83537589  1
  Sr  Sr0_6  1  0.80067700  0.80067700  0.33537589  1
  Sr  Sr0_7  1  0.80067700  0.80067700  0.83537589  1
  Sr  Sr1_0  1  0.19932301  0.19932301  0.16462411  1
  Sr  Sr1_1  1  0.19932300  0.19932300  0.66462411  1
  Sr  Sr1_2  1  0.19932301  0.69932301  0.16462411  1
  Sr  Sr1_3  1  0.19932301  0.69932301  0.66462411  1
  Sr  Sr1_4  1  0.69932300  0.19932301  0.16462411  1
  Sr  Sr1_5  1  0.69932300  0.19932300  0.66462411  1
  Sr  Sr1_6  1  0.69932301  0.69932301  0.16462411  1
  Sr  Sr1_7  1  0.69932301  0.69932301  0.66462411  1
  Mg  Mg0_0  1  0.42276457  0.42276457  0.43609101  1
  Mg  Mg0_1  1  0.42276457  0.42276457  0.93609101  1
  Mg  Mg0_2  1  0.42276457  0.92276457  0.43609101  1
  Mg  Mg0_3  1  0.42276457  0.92276457  0.93609101  1
  Mg  Mg0_4  1  0.92276457  0.42276456  0.43609101  1
  Mg  Mg0_5  1  0.92276457  0.42276456  0.93609101  1
  Mg  Mg0_6  1  0.92276457  0.92276457  0.43609101  1
  Mg  Mg0_7  1  0.92276457  0.92276457  0.93609101  1
  Mg  Mg1_0  1  0.07723544  0.07723544  0.06390899  1
  Mg  Mg1_1  1  0.07723544  0.07723544  0.56390899  1
  Mg  Mg1_2  1  0.07723544  0.57723544  0.06390899  1
  Mg  Mg1_3  1  0.07723544  0.57723544  0.56390899  1
  Mg  Mg1_4  1  0.57723543  0.07723543  0.06390899  1
  Mg  Mg1_5  1  0.57723544  0.07723544  0.56390899  1
  Mg  Mg1_6  1  0.57723544  0.57723544  0.06390899  1
  Mg  Mg1_7  1  0.57723544  0.57723544  0.56390899  1
loop_
_geom_bond_atom_site_label_1
_geom_bond_atom_site_label_2
_geom_bond_distance
_geom_bond_site_symmetry_2
Sr0_0 Sr0_6 3.903721 1_545
Sr0_0 Sr0_6 3.903721 1_455
Sr0_0 Sr1_1 3.946849 1_555
Sr0_0 Sr1_0 3.958893 1_555
Sr0_0 Sr1_4 4.193559 1_555
Sr0_0 Sr1_2 4.193559 1_555
Sr0_1 Sr0_7 3.903721 1_455
Sr0_1 Sr0_7 3.903721 1_545
Sr0_1 Sr1_0 3.946849 1_556
Sr0_1 Sr1_1 3.958893 1_555
Sr0_1 Sr1_5 4.193559 1_555
Sr0_1 Sr1_3 4.193559 1_555
Sr0_2 Sr0_4 3.903721 1_465
Sr0_2 Sr0_4 3.903721 1_555
Sr0_2 Sr1_3 3.946849 1_555
Sr0_2 Sr1_2 3.958893 1_555
Sr0_2 Sr1_6 4.193559 1_555
Sr0_2 Sr1_0 4.193559 1_565
Sr0_3 Sr0_5 3.903721 1_465
Sr0_3 Sr0_5 3.903721 1_555
Sr0_3 Sr1_2 3.946849 1_556
Sr0_3 Sr1_3 3.958893 1_555
Sr0_3 Sr1_1 4.193559 1_565
Sr0_3 Sr1_7 4.193559 1_555
Sr0_4 Sr1_5 3.946849 1_555
Sr0_4 Sr1_4 3.958893 1_555
Sr0_4 Sr1_0 4.193559 1_655
Sr0_4 Sr1_6 4.193559 1_555
Sr0_5 Sr1_4 3.946849 1_556
Sr0_5 Sr1_5 3.958893 1_555
Sr0_5 Sr1_1 4.193559 1_655
Sr0_5 Sr1_7 4.193559 1_555
Sr0_6 Sr1_7 3.946849 1_555
Sr0_6 Sr1_6 3.958893 1_555
Sr0_6 Sr1_4 4.193559 1_565
Sr0_6 Sr1_2 4.193559 1_655
Sr0_7 Sr1_6 3.946849 1_556
Sr0_7 Sr1_7 3.958893 1_555
Sr0_7 Sr1_5 4.193559 1_565
Sr0_7 Sr1_3 4.193559 1_655
Sr1_0 Sr1_6 3.903721 1_455
Sr1_0 Sr1_6 3.903721 1_545
Sr1_1 Sr1_7 3.903721 1_545
Sr1_1 Sr1_7 3.903721 1_455
Sr1_2 Sr1_4 3.903721 1_555
Sr1_2 Sr1_4 3.903721 1_465
Sr1_3 Sr1_5 3.903721 1_465
Sr1_3 Sr1_5 3.903721 1_555
Mg0_0 Mg1_3 3.120353 1_555
Mg0_0 Mg1_5 3.120353 1_555
Mg0_0 Sr1_5 3.690139 1_555
Mg0_0 Sr1_3 3.690139 1_555
Mg0_0 Sr0_2 3.700025 1_555
Mg0_0 Sr0_4 3.700025 1_555
Mg0_0 Sr1_2 3.701060 1_555
Mg0_0 Sr1_4 3.701060 1_555
Mg0_0 Sr0_0 3.853258 1_555
Mg0_1 Mg1_2 3.120353 1_556
Mg0_1 Mg1_4 3.120353 1_556
Mg0_1 Sr1_4 3.690139 1_556
Mg0_1 Sr1_2 3.690139 1_556
Mg0_1 Sr0_5 3.700025 1_555
Mg0_1 Sr0_3 3.700025 1_555
Mg0_1 Sr1_3 3.701060 1_555
Mg0_1 Sr1_5 3.701060 1_555
Mg0_1 Sr0_1 3.853258 1_555
Mg0_2 Mg1_7 3.120353 1_555
Mg0_2 Mg1_1 3.120353 1_565
Mg0_2 Sr1_1 3.690139 1_565
Mg0_2 Sr1_7 3.690139 1_555
Mg0_2 Sr0_0 3.700025 1_565
Mg0_2 Sr0_6 3.700025 1_555
Mg0_2 Sr1_6 3.701060 1_555
Mg0_2 Sr1_0 3.701060 1_565
Mg0_2 Sr0_2 3.853258 1_555
Mg0_3 Mg1_6 3.120353 1_556
Mg0_3 Mg1_0 3.120353 1_566
Mg0_3 Sr1_0 3.690139 1_566
Mg0_3 Sr1_6 3.690139 1_556
Mg0_3 Sr0_1 3.700025 1_565
Mg0_3 Sr0_7 3.700025 1_555
Mg0_3 Sr1_7 3.701060 1_555
Mg0_3 Sr1_1 3.701060 1_565
Mg0_3 Sr0_3 3.853258 1_555
Mg0_4 Mg1_7 3.120353 1_555
Mg0_4 Mg1_1 3.120353 1_655
Mg0_4 Sr1_1 3.690139 1_655
Mg0_4 Sr1_7 3.690139 1_555
Mg0_4 Sr0_6 3.700025 1_555
Mg0_4 Sr0_0 3.700025 1_655
Mg0_4 Sr1_0 3.701060 1_655
Mg0_4 Sr1_6 3.701060 1_555
Mg0_4 Sr0_4 3.853258 1_555
Mg0_5 Mg1_6 3.120353 1_556
Mg0_5 Mg1_0 3.120353 1_656
Mg0_5 Sr1_0 3.690139 1_656
Mg0_5 Sr1_6 3.690139 1_556
Mg0_5 Sr0_1 3.700025 1_655
Mg0_5 Sr0_7 3.700025 1_555
Mg0_5 Sr1_7 3.701060 1_555
Mg0_5 Sr1_1 3.701060 1_655
Mg0_5 Sr0_5 3.853258 1_555
Mg0_6 Mg1_3 3.120353 1_655
Mg0_6 Mg1_5 3.120353 1_565
Mg0_6 Sr1_5 3.690139 1_565
Mg0_6 Sr1_3 3.690139 1_655
Mg0_6 Sr0_4 3.700025 1_565
Mg0_6 Sr0_2 3.700025 1_655
Mg0_6 Sr1_2 3.701060 1_655
Mg0_6 Sr1_4 3.701060 1_565
Mg0_6 Sr0_6 3.853258 1_555
Mg0_7 Mg1_2 3.120353 1_656
Mg0_7 Mg1_4 3.120353 1_566
Mg0_7 Sr1_4 3.690139 1_566
Mg0_7 Sr1_2 3.690139 1_656
Mg0_7 Sr0_5 3.700025 1_565
Mg0_7 Sr0_3 3.700025 1_655
Mg0_7 Sr1_3 3.701060 1_655
Mg0_7 Sr1_5 3.701060 1_565
Mg0_7 Sr0_7 3.853258 1_555
Mg1_0 Sr0_5 3.690139 1_454
Mg1_0 Sr0_3 3.690139 1_544
Mg1_0 Sr1_2 3.700025 1_545
Mg1_0 Sr1_4 3.700025 1_455
Mg1_0 Sr0_4 3.701060 1_455
Mg1_0 Sr0_2 3.701060 1_545
Mg1_0 Sr1_0 3.853258 1_555
Mg1_1 Sr0_2 3.690139 1_545
Mg1_1 Sr0_4 3.690139 1_455
Mg1_1 Sr1_3 3.700025 1_545
Mg1_1 Sr1_5 3.700025 1_455
Mg1_1 Sr0_5 3.701060 1_455
Mg1_1 Sr0_3 3.701060 1_545
Mg1_1 Sr1_1 3.853258 1_555
Mg1_2 Sr0_7 3.690139 1_454
Mg1_2 Sr0_1 3.690139 1_554
Mg1_2 Sr1_6 3.700025 1_455
Mg1_2 Sr1_0 3.700025 1_555
Mg1_2 Sr0_6 3.701060 1_455
Mg1_2 Sr0_0 3.701060 1_555
Mg1_2 Sr1_2 3.853258 1_555
Mg1_3 Sr0_6 3.690139 1_455
Mg1_3 Sr0_0 3.690139 1_555
Mg1_3 Sr1_7 3.700025 1_455
Mg1_3 Sr1_1 3.700025 1_555
Mg1_3 Sr0_7 3.701060 1_455
Mg1_3 Sr0_1 3.701060 1_555
Mg1_3 Sr1_3 3.853258 1_555
Mg1_4 Sr0_1 3.690139 1_554
Mg1_4 Sr0_7 3.690139 1_544
Mg1_4 Sr1_6 3.700025 1_545
Mg1_4 Sr1_0 3.700025 1_555
Mg1_4 Sr0_0 3.701060 1_555
Mg1_4 Sr0_6 3.701060 1_545
Mg1_4 Sr1_4 3.853258 1_555
Mg1_5 Sr0_6 3.690139 1_545
Mg1_5 Sr0_0 3.690139 1_555
Mg1_5 Sr1_7 3.700025 1_545
Mg1_5 Sr1_1 3.700025 1_555
Mg1_5 Sr0_7 3.701060 1_545
Mg1_5 Sr0_1 3.701060 1_555
Mg1_5 Sr1_5 3.853258 1_555
Mg1_6 Sr0_3 3.690139 1_554
Mg1_6 Sr0_5 3.690139 1_554
Mg1_6 Sr1_2 3.700025 1_555
Mg1_6 Sr1_4 3.700025 1_555
Mg1_6 Sr0_4 3.701060 1_555
Mg1_6 Sr0_2 3.701060 1_555
Mg1_6 Sr1_6 3.853258 1_555
Mg1_7 Sr0_2 3.690139 1_555
Mg1_7 Sr0_4 3.690139 1_555
Mg1_7 Sr1_3 3.700025 1_555
Mg1_7 Sr1_5 3.700025 1_555
Mg1_7 Sr0_5 3.701060 1_555
Mg1_7 Sr0_3 3.701060 1_555
Mg1_7 Sr1_7 3.853258 1_555
