# generated using pymatgen
data_Te6MoW3S2
_symmetry_space_group_name_H-M   'P 1'
_cell_length_a   3.46349108
_cell_length_b   3.46349108
_cell_length_c   39.29933600
_cell_angle_alpha   90.00000000
_cell_angle_beta   90.00000000
_cell_angle_gamma   119.99998250
_symmetry_Int_Tables_number   1
_chemical_formula_structural   Te6MoW3S2
_chemical_formula_sum   'Te6 Mo1 W3 S2'
_cell_volume   408.26680378
_cell_formula_units_Z   1
loop_
 _symmetry_equiv_pos_site_id
 _symmetry_equiv_pos_as_xyz
  1  'x, y, z'
loop_
 _atom_site_type_symbol
 _atom_site_label
 _atom_site_symmetry_multiplicity
 _atom_site_fract_x
 _atom_site_fract_y
 _atom_site_fract_z
 _atom_site_occupancy
  Te  Te0  1  0.33333300  0.66666700  0.70474500  1
  Te  Te1  1  0.66666700  0.33333300  0.04673300  1
  Te  Te2  1  0.66666700  0.33333300  0.42240200  1
  Te  Te3  1  0.66666700  0.33333300  0.14117100  1
  Te  Te4  1  0.66666700  0.33333300  0.51681900  1
  Te  Te5  1  0.33333300  0.66666700  0.61037600  1
  Mo  Mo0  1  0.66666700  0.33333300  0.28178700  1
  W  W0  1  0.33333300  0.66666700  0.09391400  1
  W  W1  1  0.33333300  0.66666700  0.46962600  1
  W  W2  1  0.66666700  0.33333300  0.65759100  1
  S  S0  1  0.33333300  0.66666700  0.31960700  1
  S  S1  1  0.33333300  0.66666700  0.24397700  1
loop_
_geom_bond_atom_site_label_1
_geom_bond_atom_site_label_2
_geom_bond_distance
_geom_bond_site_symmetry_2
Te0 W2 2.726287 1_455
Te0 W2 2.726287 1_565
Te0 W2 2.726291 1_555
Te1 W0 2.727008 1_545
Te1 W0 2.727008 1_655
Te1 W0 2.727012 1_555
Te2 W1 2.728158 1_545
Te2 W1 2.728158 1_655
Te2 W1 2.728162 1_555
Te3 W0 2.729040 1_655
Te3 W0 2.729040 1_545
Te3 W0 2.729044 1_555
Te4 W1 2.727329 1_545
Te4 W1 2.727329 1_655
Te4 W1 2.727333 1_555
Te5 W2 2.727917 1_455
Te5 W2 2.727917 1_565
Te5 W2 2.727921 1_555
Mo0 S1 2.491286 1_545
Mo0 S1 2.491286 1_655
Mo0 S1 2.491290 1_555
Mo0 S0 2.491520 1_545
Mo0 S0 2.491520 1_655
Mo0 S0 2.491525 1_555
