# generated using pymatgen
data_CePrFe4
_symmetry_space_group_name_H-M   'P 1'
_cell_length_a   5.23048583
_cell_length_b   5.23048583
_cell_length_c   5.23048583
_cell_angle_alpha   90.00000000
_cell_angle_beta   60.00000000
_cell_angle_gamma   120.00000000
_symmetry_Int_Tables_number   1
_chemical_formula_structural   CePrFe4
_chemical_formula_sum   'Ce1 Pr1 Fe4'
_cell_volume   101.18382483
_cell_formula_units_Z   1
loop_
 _symmetry_equiv_pos_site_id
 _symmetry_equiv_pos_as_xyz
  1  'x, y, z'
loop_
 _atom_site_type_symbol
 _atom_site_label
 _atom_site_symmetry_multiplicity
 _atom_site_fract_x
 _atom_site_fract_y
 _atom_site_fract_z
 _atom_site_occupancy
  Ce  Ce0  1  0.50000000  0.75000000  0.75000000  1
  Pr  Pr0  1  0.00000000  0.00000000  0.00000000  1
  Fe  Fe0  1  0.75096800  0.37548400  0.87354700  1
  Fe  Fe1  1  0.24903200  0.37548400  0.37548400  1
  Fe  Fe2  1  0.24903200  0.87354700  0.37548400  1
  Fe  Fe3  1  0.75096800  0.37548400  0.37548400  1
loop_
_geom_bond_atom_site_label_1
_geom_bond_atom_site_label_2
_geom_bond_distance
_geom_bond_site_symmetry_2
Ce0 Fe0 3.065569 1_565
Ce0 Fe2 3.065569 1_555
Ce0 Fe2 3.065569 1_556
Ce0 Fe0 3.065569 1_555
Ce0 Fe1 3.065571 1_556
Ce0 Fe3 3.065571 1_565
Ce0 Fe1 3.065571 1_665
Ce0 Fe1 3.065571 1_555
Ce0 Fe3 3.065571 1_456
Ce0 Fe3 3.065571 1_555
Ce0 Fe2 3.065573 1_655
Ce0 Fe0 3.065573 1_455
Ce0 Pr0 3.203005 1_566
Ce0 Pr0 3.203005 1_556
Ce0 Pr0 3.203005 1_666
Ce0 Pr0 3.203005 1_665
Fe0 Fe3 2.605111 1_555
Fe0 Fe2 2.605111 1_655
Fe0 Fe1 2.605114 1_655
Fe0 Fe1 2.625372 1_556
Fe0 Fe3 2.625374 1_556
Fe0 Fe2 2.625374 1_546
Fe0 Pr0 3.067727 1_556
Fe0 Pr0 3.067732 1_656
Fe0 Pr0 3.067732 1_666
Fe1 Fe2 2.605111 1_555
Fe1 Fe3 2.605117 1_455
Fe1 Fe3 2.625369 1_555
Fe1 Fe2 2.625374 1_545
Fe1 Pr0 3.067730 1_555
Fe1 Pr0 3.067730 1_665
Fe1 Pr0 3.067730 1_556
Fe2 Fe3 2.605114 1_455
Fe2 Fe3 2.625372 1_565
Fe2 Pr0 3.067727 1_665
Fe2 Pr0 3.067732 1_566
Fe2 Pr0 3.067732 1_565
Fe3 Pr0 3.067730 1_556
Fe3 Pr0 3.067730 1_655
Fe3 Pr0 3.067730 1_665
