# generated using pymatgen
data_Ca3Tl5
_symmetry_space_group_name_H-M   'P 1'
_cell_length_a   6.62217922
_cell_length_b   6.62217922
_cell_length_c   10.72083802
_cell_angle_alpha   90.00000000
_cell_angle_beta   90.00000000
_cell_angle_gamma   102.97174192
_symmetry_Int_Tables_number   1
_chemical_formula_structural   Ca3Tl5
_chemical_formula_sum   'Ca6 Tl10'
_cell_volume   458.14602445
_cell_formula_units_Z   2
loop_
 _symmetry_equiv_pos_site_id
 _symmetry_equiv_pos_as_xyz
  1  'x, y, z'
loop_
 _atom_site_type_symbol
 _atom_site_label
 _atom_site_symmetry_multiplicity
 _atom_site_fract_x
 _atom_site_fract_y
 _atom_site_fract_z
 _atom_site_occupancy
  Ca  Ca0  1  0.08224048  0.08224048  0.25000000  1
  Ca  Ca1  1  0.91775952  0.91775952  0.75000000  1
  Ca  Ca2  1  0.28527126  0.71472874  -0.00000000  1
  Ca  Ca3  1  0.28527126  0.71472874  0.50000000  1
  Ca  Ca4  1  0.71472874  0.28527126  -0.00000000  1
  Ca  Ca5  1  0.71472874  0.28527126  0.50000000  1
  Tl  Tl0  1  0.52161007  0.52161007  0.75000000  1
  Tl  Tl1  1  0.47838993  0.47838993  0.25000000  1
  Tl  Tl2  1  0.45050511  0.01854800  0.75000000  1
  Tl  Tl3  1  0.98145200  0.54949489  0.25000000  1
  Tl  Tl4  1  0.54949489  0.98145200  0.25000000  1
  Tl  Tl5  1  0.01854800  0.45050511  0.75000000  1
  Tl  Tl6  1  0.20424344  0.20424344  0.96639301  1
  Tl  Tl7  1  0.79575656  0.79575656  0.03360699  1
  Tl  Tl8  1  0.20424344  0.20424344  0.53360699  1
  Tl  Tl9  1  0.79575656  0.79575656  0.46639301  1
loop_
_geom_bond_atom_site_label_1
_geom_bond_atom_site_label_2
_geom_bond_distance
_geom_bond_site_symmetry_2
Ca0 Tl6 3.202673 1_554
Ca0 Tl8 3.202673 1_555
Ca0 Tl1 3.267188 1_555
Ca0 Tl3 3.308621 1_455
Ca0 Tl4 3.308621 1_545
Ca0 Tl9 3.311273 1_445
Ca0 Tl7 3.311273 1_445
Ca0 Tl4 3.440160 1_445
Ca0 Tl3 3.440160 1_445
Ca1 Tl9 3.202673 1_555
Ca1 Tl7 3.202673 1_556
Ca1 Tl0 3.267188 1_555
Ca1 Tl5 3.308621 1_655
Ca1 Tl2 3.308621 1_565
Ca1 Tl8 3.311273 1_665
Ca1 Tl6 3.311273 1_665
Ca1 Tl5 3.440160 1_665
Ca1 Tl2 3.440160 1_665
Ca2 Tl7 3.321346 1_555
Ca2 Tl6 3.321346 1_554
Ca2 Tl3 3.382366 1_455
Ca2 Tl2 3.382366 1_564
Ca2 Tl6 3.421541 1_564
Ca2 Tl7 3.421541 1_455
Ca2 Tl4 3.460839 1_555
Ca2 Tl5 3.460839 1_554
Ca2 Tl1 3.488131 1_555
Ca2 Tl0 3.488131 1_554
Ca3 Tl9 3.321346 1_555
Ca3 Tl8 3.321346 1_555
Ca3 Tl3 3.382366 1_455
Ca3 Tl2 3.382366 1_565
Ca3 Tl8 3.421541 1_565
Ca3 Tl9 3.421541 1_455
Ca3 Tl4 3.460839 1_555
Ca3 Tl5 3.460839 1_555
Ca3 Tl0 3.488131 1_555
Ca3 Tl1 3.488131 1_555
Ca4 Tl7 3.321346 1_555
Ca4 Tl6 3.321346 1_554
Ca4 Tl4 3.382366 1_545
Ca4 Tl5 3.382366 1_654
Ca4 Tl6 3.421541 1_654
Ca4 Tl7 3.421541 1_545
Ca4 Tl3 3.460839 1_555
Ca4 Tl2 3.460839 1_554
Ca4 Tl1 3.488131 1_555
Ca4 Tl0 3.488131 1_554
Ca5 Tl9 3.321346 1_555
Ca5 Tl8 3.321346 1_555
Ca5 Tl4 3.382366 1_545
Ca5 Tl5 3.382366 1_655
Ca5 Tl8 3.421541 1_655
Ca5 Tl9 3.421541 1_545
Ca5 Tl2 3.460839 1_555
Ca5 Tl3 3.460839 1_555
Ca5 Tl0 3.488131 1_555
Ca5 Tl1 3.488131 1_555
Tl0 Tl5 3.258143 1_555
Tl0 Tl2 3.258143 1_555
Tl0 Tl5 3.427363 1_655
Tl0 Tl2 3.427363 1_565
Tl1 Tl3 3.258143 1_555
Tl1 Tl4 3.258143 1_555
Tl1 Tl4 3.427363 1_545
Tl1 Tl3 3.427363 1_455
Tl2 Tl8 3.233259 1_555
Tl2 Tl6 3.233259 1_555
Tl3 Tl9 3.233259 1_555
Tl3 Tl7 3.233259 1_555
Tl4 Tl9 3.233259 1_555
Tl4 Tl7 3.233259 1_555
Tl5 Tl8 3.233259 1_555
Tl5 Tl6 3.233259 1_555
