# generated using pymatgen
data_Li9Mn2Co5O16
_symmetry_space_group_name_H-M   'P 1'
_cell_length_a   5.88324600
_cell_length_b   6.53320782
_cell_length_c   7.77692482
_cell_angle_alpha   89.30545075
_cell_angle_beta   99.51295430
_cell_angle_gamma   102.97518665
_symmetry_Int_Tables_number   1
_chemical_formula_structural   Li9Mn2Co5O16
_chemical_formula_sum   'Li9 Mn2 Co5 O16'
_cell_volume   287.18259871
_cell_formula_units_Z   1
loop_
 _symmetry_equiv_pos_site_id
 _symmetry_equiv_pos_as_xyz
  1  'x, y, z'
loop_
 _atom_site_type_symbol
 _atom_site_label
 _atom_site_symmetry_multiplicity
 _atom_site_fract_x
 _atom_site_fract_y
 _atom_site_fract_z
 _atom_site_occupancy
  Li  Li0  1  0.12320200  0.12435900  0.37232700  1
  Li  Li1  1  0.62051600  0.63293500  0.87854300  1
  Li  Li2  1  0.38252100  0.87486100  0.63387300  1
  Li  Li3  1  0.85712900  0.36813000  0.11804200  1
  Li  Li4  1  0.61747900  0.12513900  0.36612700  1
  Li  Li5  1  0.14287100  0.63187000  0.88195800  1
  Li  Li6  1  0.87679800  0.87564100  0.62767300  1
  Li  Li7  1  0.37948400  0.36706500  0.12145700  1
  Li  Li8  1  0.50000000  0.00000000  0.00000000  1
  Mn  Mn0  1  0.00000000  0.00000000  0.00000000  1
  Mn  Mn1  1  0.50000000  0.50000000  0.50000000  1
  Co  Co0  1  0.25466300  0.75387700  0.24127000  1
  Co  Co1  1  0.74533700  0.24612300  0.75873000  1
  Co  Co2  1  0.00000000  0.50000000  0.50000000  1
  Co  Co3  1  0.74340300  0.75254500  0.24443700  1
  Co  Co4  1  0.25659700  0.24745500  0.75556300  1
  O  O0  1  0.81809900  0.04479100  0.18141800  1
  O  O1  1  0.32685000  0.55224600  0.68225100  1
  O  O2  1  0.05292100  0.78546700  0.42477400  1
  O  O3  1  0.56561800  0.31152700  0.92108600  1
  O  O4  1  0.28605900  0.05148300  0.17649000  1
  O  O5  1  0.80048800  0.55261800  0.66177600  1
  O  O6  1  0.55385000  0.79479900  0.43627300  1
  O  O7  1  0.05723400  0.29565900  0.93914900  1
  O  O8  1  0.44615000  0.20520100  0.56372700  1
  O  O9  1  0.94276600  0.70434100  0.06085100  1
  O  O10  1  0.71394100  0.94851700  0.82351000  1
  O  O11  1  0.19951200  0.44738200  0.33822400  1
  O  O12  1  0.94707900  0.21453300  0.57522600  1
  O  O13  1  0.43438200  0.68847300  0.07891400  1
  O  O14  1  0.18190100  0.95520900  0.81858200  1
  O  O15  1  0.67315000  0.44775400  0.31774900  1
loop_
_geom_bond_atom_site_label_1
_geom_bond_atom_site_label_2
_geom_bond_distance
_geom_bond_site_symmetry_2
Li0 O4 2.041818 1_555
Li0 O11 2.079882 1_555
Li0 O0 2.101268 1_455
Li0 O8 2.176729 1_555
Li0 O12 2.178919 1_455
Li0 O2 2.205019 1_545
Li1 O10 2.069691 1_555
Li1 O1 2.081337 1_555
Li1 O3 2.082540 1_555
Li1 O13 2.124905 1_556
Li1 O9 2.133660 1_556
Li1 O5 2.258147 1_555
Li2 O1 2.098279 1_555
Li2 O6 2.102225 1_555
Li2 O14 2.142199 1_555
Li2 O8 2.184406 1_565
Li2 O10 2.203125 1_555
Li2 O2 2.284250 1_555
Li3 O3 2.069987 1_554
Li3 O7 2.086462 1_654
Li3 O0 2.133635 1_555
Li3 O15 2.163890 1_555
Li3 O9 2.197694 1_555
Li3 O11 2.381330 1_655
Li4 O15 2.098279 1_555
Li4 O8 2.102225 1_555
Li4 O0 2.142199 1_555
Li4 O6 2.184406 1_545
Li4 O4 2.203125 1_555
Li4 O12 2.284250 1_555
Li5 O13 2.069987 1_556
Li5 O9 2.086462 1_456
Li5 O14 2.133635 1_555
Li5 O1 2.163890 1_555
Li5 O7 2.197694 1_555
Li5 O5 2.381330 1_455
Li6 O10 2.041818 1_555
Li6 O5 2.079882 1_555
Li6 O14 2.101268 1_655
Li6 O6 2.176729 1_555
Li6 O2 2.178919 1_655
Li6 O12 2.205019 1_565
Li7 O4 2.069691 1_555
Li7 O15 2.081337 1_555
Li7 O13 2.082540 1_555
Li7 O3 2.124905 1_554
Li7 O7 2.133660 1_554
Li7 O11 2.258147 1_555
Li8 O4 2.086530 1_555
Li8 O10 2.086530 1_544
Li8 O3 2.088827 1_554
Li8 O13 2.088827 1_545
Li8 O14 2.114207 1_544
Li8 O0 2.114207 1_555
Mn0 O7 1.951116 1_554
Mn0 O9 1.951116 1_445
Mn0 O10 1.955206 1_444
Mn0 O4 1.955206 1_555
Mn0 O14 1.967529 1_544
Mn0 O0 1.967529 1_455
Mn1 O15 1.951469 1_555
Mn1 O1 1.951469 1_555
Mn1 O6 1.951962 1_555
Mn1 O8 1.951962 1_555
Mn1 O11 1.956712 1_555
Mn1 O5 1.956712 1_555
Co0 O13 1.884677 1_555
Co0 O4 1.978395 1_565
Co0 O2 2.040819 1_555
Co0 O9 2.081790 1_455
Co0 O6 2.094221 1_555
Co0 O11 2.106156 1_555
Co1 O3 1.884677 1_555
Co1 O10 1.978395 1_545
Co1 O12 2.040819 1_555
Co1 O7 2.081790 1_655
Co1 O8 2.094221 1_555
Co1 O5 2.106156 1_555
Co2 O2 1.921061 1_555
Co2 O12 1.921061 1_455
Co2 O11 1.938712 1_555
Co2 O5 1.938712 1_455
Co2 O15 2.153878 1_455
Co2 O1 2.153878 1_555
Co3 O0 1.936614 1_565
Co3 O13 2.008807 1_555
Co3 O15 2.035142 1_555
Co3 O9 2.059999 1_555
Co3 O6 2.060039 1_555
Co3 O2 2.077592 1_655
Co4 O14 1.936614 1_545
Co4 O3 2.008807 1_555
Co4 O1 2.035142 1_555
Co4 O7 2.059999 1_555
Co4 O8 2.060039 1_555
Co4 O12 2.077592 1_455
