# generated using pymatgen
data_Lu5SbPt2
_symmetry_space_group_name_H-M   'P 1'
_cell_length_a   8.56599300
_cell_length_b   8.56599300
_cell_length_c   8.56599300
_cell_angle_alpha   128.01796820
_cell_angle_beta   128.01796820
_cell_angle_gamma   76.59592216
_symmetry_Int_Tables_number   1
_chemical_formula_structural   Lu5SbPt2
_chemical_formula_sum   'Lu10 Sb2 Pt4'
_cell_volume   378.92728940
_cell_formula_units_Z   2
loop_
 _symmetry_equiv_pos_site_id
 _symmetry_equiv_pos_as_xyz
  1  'x, y, z'
loop_
 _atom_site_type_symbol
 _atom_site_label
 _atom_site_symmetry_multiplicity
 _atom_site_fract_x
 _atom_site_fract_y
 _atom_site_fract_z
 _atom_site_occupancy
  Lu  Lu0  1  -0.00000000  0.00000000  -0.00000000  1
  Lu  Lu1  1  0.50000000  0.50000000  -0.00000000  1
  Lu  Lu2  1  0.79497068  0.29497068  0.81099169  1
  Lu  Lu3  1  0.20502932  0.70502932  0.18900831  1
  Lu  Lu4  1  0.48397899  0.98397899  0.18900831  1
  Lu  Lu5  1  0.29497068  0.48397899  0.50000000  1
  Lu  Lu6  1  0.01602101  0.20502932  0.50000000  1
  Lu  Lu7  1  0.51602101  0.01602101  0.81099169  1
  Lu  Lu8  1  0.70502932  0.51602101  0.50000000  1
  Lu  Lu9  1  0.98397899  0.79497068  0.50000000  1
  Sb  Sb0  1  0.25000000  0.25000000  -0.00000000  1
  Sb  Sb1  1  0.75000000  0.75000000  -0.00000000  1
  Pt  Pt0  1  0.14074623  0.64074623  0.78149046  1
  Pt  Pt1  1  0.85925377  0.35925377  0.21850954  1
  Pt  Pt2  1  0.64074623  0.85925377  0.50000000  1
  Pt  Pt3  1  0.35925377  0.14074623  0.50000000  1
loop_
_geom_bond_atom_site_label_1
_geom_bond_atom_site_label_2
_geom_bond_distance
_geom_bond_site_symmetry_2
Lu0 Pt2 2.896794 1_444
Lu0 Pt3 2.896794 1_555
Lu0 Pt1 2.896799 1_455
Lu0 Pt0 2.896799 1_544
Lu0 Sb1 3.361289 1_445
Lu0 Sb0 3.361289 1_555
Lu1 Pt2 2.896794 1_555
Lu1 Pt3 2.896794 1_554
Lu1 Pt0 2.896799 1_554
Lu1 Pt1 2.896799 1_555
Lu1 Sb0 3.361289 1_555
Lu1 Sb1 3.361289 1_555
Lu2 Pt1 2.863050 1_556
Lu2 Pt2 2.911279 1_545
Lu2 Pt3 2.911279 1_555
Lu2 Sb0 3.203263 1_656
Lu2 Sb1 3.203263 1_556
Lu3 Pt0 2.863050 1_554
Lu3 Pt2 2.911279 1_555
Lu3 Pt3 2.911279 1_565
Lu3 Sb0 3.203263 1_555
Lu3 Sb1 3.203263 1_455
Lu4 Pt0 2.863033 1_554
Lu4 Pt2 2.911279 1_555
Lu4 Pt3 2.911279 1_565
Lu4 Sb0 3.203263 1_565
Lu4 Sb1 3.203263 1_555
Lu5 Pt3 2.863034 1_555
Lu5 Pt0 2.911264 1_555
Lu5 Pt1 2.911282 1_455
Lu5 Sb0 3.203263 1_555
Lu5 Sb1 3.203263 1_556
Lu6 Pt3 2.863034 1_555
Lu6 Pt1 2.911264 1_455
Lu6 Pt0 2.911282 1_555
Lu6 Sb1 3.203263 1_445
Lu6 Sb0 3.203263 1_556
Lu7 Pt1 2.863033 1_556
Lu7 Pt2 2.911279 1_545
Lu7 Pt3 2.911279 1_555
Lu7 Sb0 3.203263 1_556
Lu7 Sb1 3.203263 1_546
Lu8 Pt2 2.863034 1_555
Lu8 Pt1 2.911264 1_555
Lu8 Pt0 2.911282 1_655
Lu8 Sb0 3.203263 1_555
Lu8 Sb1 3.203263 1_556
Lu9 Pt2 2.863034 1_555
Lu9 Pt0 2.911264 1_655
Lu9 Pt1 2.911282 1_555
Lu9 Sb0 3.203263 1_666
Lu9 Sb1 3.203263 1_555
