# generated using pymatgen
data_NaMg6Mn
_symmetry_space_group_name_H-M   'P 1'
_cell_length_a   5.08142700
_cell_length_b   6.45750400
_cell_length_c   10.95084800
_cell_angle_alpha   90.00000000
_cell_angle_beta   90.00000000
_cell_angle_gamma   90.00000000
_symmetry_Int_Tables_number   1
_chemical_formula_structural   NaMg6Mn
_chemical_formula_sum   'Na2 Mg12 Mn2'
_cell_volume   359.33384591
_cell_formula_units_Z   2
loop_
 _symmetry_equiv_pos_site_id
 _symmetry_equiv_pos_as_xyz
  1  'x, y, z'
loop_
 _atom_site_type_symbol
 _atom_site_label
 _atom_site_symmetry_multiplicity
 _atom_site_fract_x
 _atom_site_fract_y
 _atom_site_fract_z
 _atom_site_occupancy
  Na  Na0  1  0.50000000  0.50000000  0.83417200  1
  Na  Na1  1  0.50000000  0.00000000  0.33417200  1
  Mg  Mg0  1  0.50000000  0.25014900  0.08271400  1
  Mg  Mg1  1  0.50000000  0.74985100  0.08271400  1
  Mg  Mg2  1  0.00000000  0.24023800  0.91529200  1
  Mg  Mg3  1  0.00000000  0.75976200  0.91529200  1
  Mg  Mg4  1  0.00000000  0.50000000  0.17037600  1
  Mg  Mg5  1  0.00000000  0.50000000  0.66444800  1
  Mg  Mg6  1  0.50000000  0.75014900  0.58271400  1
  Mg  Mg7  1  0.50000000  0.24985100  0.58271400  1
  Mg  Mg8  1  0.00000000  0.74023800  0.41529200  1
  Mg  Mg9  1  0.00000000  0.25976200  0.41529200  1
  Mg  Mg10  1  0.00000000  0.00000000  0.67037600  1
  Mg  Mg11  1  0.00000000  0.00000000  0.16444800  1
  Mn  Mn0  1  0.50000000  0.50000000  0.33499600  1
  Mn  Mn1  1  0.50000000  0.00000000  0.83499600  1
loop_
_geom_bond_atom_site_label_1
_geom_bond_atom_site_label_2
_geom_bond_distance
_geom_bond_site_symmetry_2
Mg0 Mg2 3.133803 1_554
Mg0 Mg2 3.133803 1_654
Mg0 Mg11 3.140966 1_655
Mg0 Mg11 3.140966 1_555
Mg0 Mn1 3.157242 1_554
Mg0 Mg4 3.159094 1_555
Mg0 Mg4 3.159094 1_655
Mg0 Na0 3.164017 1_554
Mg0 Na1 3.192501 1_555
Mg0 Mn0 3.199316 1_555
Mg0 Mg1 3.226828 1_555
Mg0 Mg1 3.230676 1_545
Mg1 Mg3 3.133803 1_654
Mg1 Mg3 3.133803 1_554
Mg1 Mg11 3.140966 1_565
Mg1 Mg11 3.140966 1_665
Mg1 Mn1 3.157242 1_564
Mg1 Mg4 3.159094 1_555
Mg1 Mg4 3.159094 1_655
Mg1 Na0 3.164017 1_554
Mg1 Na1 3.192501 1_565
Mg1 Mn0 3.199316 1_555
Mg2 Mg3 3.102676 1_545
Mg2 Mn1 3.104039 1_455
Mg2 Mn1 3.104039 1_555
Mg2 Na0 3.171447 1_555
Mg2 Na0 3.171447 1_455
Mg2 Mg5 3.218614 1_555
Mg2 Mg4 3.258332 1_556
Mg2 Mg3 3.354828 1_555
Mg3 Mn1 3.104039 1_465
Mg3 Mn1 3.104039 1_565
Mg3 Na0 3.171447 1_455
Mg3 Na0 3.171447 1_555
Mg3 Mg5 3.218614 1_555
Mg3 Mg4 3.258332 1_556
Mg4 Mg8 3.098383 1_555
Mg4 Mg9 3.098383 1_555
Mg4 Mn0 3.115294 1_555
Mg4 Mn0 3.115294 1_455
Mg5 Mg8 3.138661 1_555
Mg5 Mg9 3.138661 1_555
Mg5 Mg7 3.140966 1_455
Mg5 Mg7 3.140966 1_555
Mg5 Mg6 3.140966 1_455
Mg5 Mg6 3.140966 1_555
Mg5 Na0 3.147968 1_455
Mg5 Na0 3.147968 1_555
Mg6 Mg8 3.133803 1_555
Mg6 Mg8 3.133803 1_655
Mg6 Mn0 3.157242 1_555
Mg6 Na1 3.164017 1_565
Mg6 Na0 3.192501 1_555
Mg6 Mn1 3.199316 1_565
Mg6 Mg7 3.226828 1_565
Mg6 Mg7 3.230676 1_555
Mg7 Mg9 3.133803 1_555
Mg7 Mg9 3.133803 1_655
Mg7 Mn0 3.157242 1_555
Mg7 Na1 3.164017 1_555
Mg7 Na0 3.192501 1_555
Mg7 Mn1 3.199316 1_555
Mg8 Mg9 3.102676 1_555
Mg8 Mn0 3.104039 1_455
Mg8 Mn0 3.104039 1_555
Mg8 Na1 3.171447 1_465
Mg8 Na1 3.171447 1_565
Mg8 Mg9 3.354828 1_565
Mg9 Mn0 3.104039 1_555
Mg9 Mn0 3.104039 1_455
Mg9 Na1 3.171447 1_555
Mg9 Na1 3.171447 1_455
Mg10 Mg2 3.098383 1_555
Mg10 Mg3 3.098383 1_545
Mg10 Mn1 3.115294 1_455
Mg10 Mn1 3.115294 1_555
Mg10 Mg6 3.159094 1_545
Mg10 Mg7 3.159094 1_455
Mg10 Mg7 3.159094 1_555
Mg10 Mg6 3.159094 1_445
Mg10 Mg5 3.229405 1_545
Mg10 Mg5 3.229405 1_555
Mg10 Mg9 3.258332 1_555
Mg10 Mg8 3.258332 1_545
Mg11 Mg2 3.138661 1_554
Mg11 Mg3 3.138661 1_544
Mg11 Na1 3.147968 1_555
Mg11 Na1 3.147968 1_455
Mg11 Mg9 3.218614 1_555
Mg11 Mg8 3.218614 1_545
Mg11 Mg4 3.229405 1_555
Mg11 Mg4 3.229405 1_545
Mn0 Na1 3.228765 1_555
Mn0 Na1 3.228765 1_565
Mn1 Na0 3.228765 1_555
Mn1 Na0 3.228765 1_545
