# generated using pymatgen
data_CsHg3
_symmetry_space_group_name_H-M   'P 1'
_cell_length_a   7.88422551
_cell_length_b   7.88422510
_cell_length_c   5.52832702
_cell_angle_alpha   89.99998255
_cell_angle_beta   90.00000000
_cell_angle_gamma   119.99942447
_symmetry_Int_Tables_number   1
_chemical_formula_structural   CsHg3
_chemical_formula_sum   'Cs2 Hg6'
_cell_volume   297.60822403
_cell_formula_units_Z   2
loop_
 _symmetry_equiv_pos_site_id
 _symmetry_equiv_pos_as_xyz
  1  'x, y, z'
loop_
 _atom_site_type_symbol
 _atom_site_label
 _atom_site_symmetry_multiplicity
 _atom_site_fract_x
 _atom_site_fract_y
 _atom_site_fract_z
 _atom_site_occupancy
  Cs  Cs0  1  0.33333490  0.66666610  0.75000000  1
  Cs  Cs1  1  0.66666610  0.33333490  0.25000000  1
  Hg  Hg0  1  0.13721177  0.27442584  0.25000100  1
  Hg  Hg1  1  0.72557516  0.86278823  0.25000000  1
  Hg  Hg2  1  0.13721320  0.86278680  0.25000100  1
  Hg  Hg3  1  0.86278923  0.72557516  0.74999900  1
  Hg  Hg4  1  0.27442484  0.13721177  0.74999900  1
  Hg  Hg5  1  0.86278780  0.13721420  0.74999900  1
loop_
_geom_bond_atom_site_label_1
_geom_bond_atom_site_label_2
_geom_bond_distance
_geom_bond_site_symmetry_2
Cs0 Hg2 3.848808 1_555
Cs0 Hg0 3.848815 1_555
Cs0 Hg2 3.848816 1_556
Cs0 Hg1 3.848818 1_555
Cs0 Hg1 3.848818 1_556
Cs0 Hg0 3.848821 1_556
Cs0 Hg3 3.962578 1_455
Cs0 Hg4 3.962579 1_555
Cs0 Hg4 3.962582 1_565
Cs0 Hg3 3.962583 1_555
Cs0 Hg5 3.962607 1_455
Cs0 Hg5 3.962615 1_565
Cs1 Hg5 3.848808 1_555
Cs1 Hg3 3.848815 1_555
Cs1 Hg5 3.848816 1_554
Cs1 Hg4 3.848818 1_555
Cs1 Hg3 3.848821 1_554
Cs1 Hg4 3.848827 1_554
Cs1 Hg1 3.962575 1_555
Cs1 Hg0 3.962578 1_655
Cs1 Hg0 3.962583 1_555
Cs1 Hg1 3.962585 1_545
Cs1 Hg2 3.962607 1_655
Cs1 Hg2 3.962615 1_545
Hg0 Hg2 3.245460 1_545
Hg0 Hg1 3.245468 1_445
Hg0 Hg5 3.339389 1_455
Hg0 Hg4 3.339392 1_555
Hg0 Hg5 3.339408 1_454
Hg0 Hg4 3.339411 1_554
Hg1 Hg2 3.245453 1_655
Hg1 Hg3 3.339396 1_555
Hg1 Hg5 3.339402 1_565
Hg1 Hg3 3.339406 1_554
Hg1 Hg5 3.339410 1_564
Hg2 Hg3 3.339389 1_455
Hg2 Hg4 3.339393 1_565
Hg2 Hg3 3.339408 1_454
Hg2 Hg4 3.339411 1_564
Hg3 Hg4 3.245460 1_665
Hg3 Hg5 3.245460 1_565
Hg4 Hg5 3.245449 1_455
