# generated using pymatgen
data_Mn7(Si2Mo)4
_symmetry_space_group_name_H-M   'P 1'
_cell_length_a   4.85879400
_cell_length_b   12.82305000
_cell_length_c   15.35925600
_cell_angle_alpha   90.00000000
_cell_angle_beta   90.00000000
_cell_angle_gamma   90.00000000
_symmetry_Int_Tables_number   1
_chemical_formula_structural   Mn7(Si2Mo)4
_chemical_formula_sum   'Mn28 Si32 Mo16'
_cell_volume   956.95166246
_cell_formula_units_Z   4
loop_
 _symmetry_equiv_pos_site_id
 _symmetry_equiv_pos_as_xyz
  1  'x, y, z'
loop_
 _atom_site_type_symbol
 _atom_site_label
 _atom_site_symmetry_multiplicity
 _atom_site_fract_x
 _atom_site_fract_y
 _atom_site_fract_z
 _atom_site_occupancy
  Mn  Mn0  1  0.75000000  0.18992200  0.25089600  1
  Mn  Mn1  1  0.75000000  0.68992200  0.24910400  1
  Mn  Mn2  1  0.25000000  0.81007800  0.74910400  1
  Mn  Mn3  1  0.25000000  0.31007800  0.75089600  1
  Mn  Mn4  1  0.01022900  0.13638100  0.82253000  1
  Mn  Mn5  1  0.48977100  0.63638100  0.67747000  1
  Mn  Mn6  1  0.51022900  0.86361900  0.17747000  1
  Mn  Mn7  1  0.98977100  0.36361900  0.32253000  1
  Mn  Mn8  1  0.98977100  0.86361900  0.17747000  1
  Mn  Mn9  1  0.51022900  0.36361900  0.32253000  1
  Mn  Mn10  1  0.48977100  0.13638100  0.82253000  1
  Mn  Mn11  1  0.01022900  0.63638100  0.67747000  1
  Mn  Mn12  1  0.75000000  0.36534700  0.15469100  1
  Mn  Mn13  1  0.75000000  0.86534700  0.34530900  1
  Mn  Mn14  1  0.25000000  0.63465300  0.84530900  1
  Mn  Mn15  1  0.25000000  0.13465300  0.65469100  1
  Mn  Mn16  1  0.99562800  0.43949700  0.87947000  1
  Mn  Mn17  1  0.50437200  0.93949700  0.62053000  1
  Mn  Mn18  1  0.49562800  0.56050300  0.12053000  1
  Mn  Mn19  1  0.00437200  0.06050300  0.37947000  1
  Mn  Mn20  1  0.00437200  0.56050300  0.12053000  1
  Mn  Mn21  1  0.49562800  0.06050300  0.37947000  1
  Mn  Mn22  1  0.50437200  0.43949700  0.87947000  1
  Mn  Mn23  1  0.99562800  0.93949700  0.62053000  1
  Mn  Mn24  1  0.75000000  0.37313200  0.49722400  1
  Mn  Mn25  1  0.75000000  0.87313200  0.00277600  1
  Mn  Mn26  1  0.25000000  0.62686800  0.50277600  1
  Mn  Mn27  1  0.25000000  0.12686800  0.99722400  1
  Si  Si0  1  0.75000000  0.44801200  0.01819500  1
  Si  Si1  1  0.75000000  0.94801200  0.48180500  1
  Si  Si2  1  0.25000000  0.55198800  0.98180500  1
  Si  Si3  1  0.25000000  0.05198800  0.51819500  1
  Si  Si4  1  0.75000000  0.08816700  0.69779700  1
  Si  Si5  1  0.75000000  0.58816700  0.80220300  1
  Si  Si6  1  0.25000000  0.91183300  0.30220300  1
  Si  Si7  1  0.25000000  0.41183300  0.19779700  1
  Si  Si8  1  0.75000000  0.22577100  0.39768900  1
  Si  Si9  1  0.75000000  0.72577100  0.10231100  1
  Si  Si10  1  0.25000000  0.77422900  0.60231100  1
  Si  Si11  1  0.25000000  0.27422900  0.89768900  1
  Si  Si12  1  0.75000000  0.05506300  0.93443900  1
  Si  Si13  1  0.75000000  0.55506300  0.56556100  1
  Si  Si14  1  0.25000000  0.94493700  0.06556100  1
  Si  Si15  1  0.25000000  0.44493700  0.43443900  1
  Si  Si16  1  0.75000000  0.00444400  0.25164900  1
  Si  Si17  1  0.75000000  0.50444400  0.24835100  1
  Si  Si18  1  0.25000000  0.99555600  0.74835100  1
  Si  Si19  1  0.25000000  0.49555600  0.75164900  1
  Si  Si20  1  0.99751200  0.28268200  0.62085800  1
  Si  Si21  1  0.50248800  0.78268200  0.87914200  1
  Si  Si22  1  0.49751200  0.71731800  0.37914200  1
  Si  Si23  1  0.00248800  0.21731800  0.12085800  1
  Si  Si24  1  0.00248800  0.71731800  0.37914200  1
  Si  Si25  1  0.49751200  0.21731800  0.12085800  1
  Si  Si26  1  0.50248800  0.28268200  0.62085800  1
  Si  Si27  1  0.99751200  0.78268200  0.87914200  1
  Si  Si28  1  0.75000000  0.29181200  0.80556100  1
  Si  Si29  1  0.75000000  0.79181200  0.69443900  1
  Si  Si30  1  0.25000000  0.70818800  0.19443900  1
  Si  Si31  1  0.25000000  0.20818800  0.30556100  1
  Mo  Mo0  1  0.75000000  0.43261200  0.69629000  1
  Mo  Mo1  1  0.75000000  0.93261200  0.80371000  1
  Mo  Mo2  1  0.25000000  0.56738800  0.30371000  1
  Mo  Mo3  1  0.25000000  0.06738800  0.19629000  1
  Mo  Mo4  1  0.75000000  0.13358800  0.54189700  1
  Mo  Mo5  1  0.75000000  0.63358800  0.95810300  1
  Mo  Mo6  1  0.25000000  0.86641200  0.45810300  1
  Mo  Mo7  1  0.25000000  0.36641200  0.04189700  1
  Mo  Mo8  1  0.75000000  0.25391800  0.97360900  1
  Mo  Mo9  1  0.75000000  0.75391800  0.52639100  1
  Mo  Mo10  1  0.25000000  0.74608200  0.02639100  1
  Mo  Mo11  1  0.25000000  0.24608200  0.47360900  1
  Mo  Mo12  1  0.75000000  0.04370700  0.09280400  1
  Mo  Mo13  1  0.75000000  0.54370700  0.40719600  1
  Mo  Mo14  1  0.25000000  0.95629300  0.90719600  1
  Mo  Mo15  1  0.25000000  0.45629300  0.59280400  1
loop_
_geom_bond_atom_site_label_1
_geom_bond_atom_site_label_2
_geom_bond_distance
_geom_bond_site_symmetry_2
Mn0 Si8 2.301017 1_555
Mn0 Si25 2.370142 1_555
Mn0 Si23 2.370142 1_655
Mn0 Si16 2.378422 1_555
Mn0 Si31 2.581043 1_555
Mn0 Si31 2.581043 1_655
Mn1 Si9 2.301017 1_555
Mn1 Si22 2.370142 1_555
Mn1 Si24 2.370142 1_655
Mn1 Si17 2.378422 1_555
Mn1 Si30 2.581043 1_655
Mn1 Si30 2.581043 1_555
Mn2 Si10 2.301017 1_555
Mn2 Si21 2.370142 1_555
Mn2 Si27 2.370142 1_455
Mn2 Si18 2.378422 1_555
Mn2 Si29 2.581043 1_455
Mn2 Si29 2.581043 1_555
Mn3 Si11 2.301017 1_555
Mn3 Si20 2.370142 1_455
Mn3 Si26 2.370142 1_555
Mn3 Si19 2.378422 1_555
Mn3 Si28 2.581043 1_455
Mn3 Si28 2.581043 1_555
Mn4 Si28 2.374675 1_455
Mn4 Si12 2.374959 1_455
Mn4 Si4 2.377236 1_455
Mn4 Si11 2.411296 1_555
Mn4 Si18 2.432332 1_545
Mn5 Si29 2.374675 1_555
Mn5 Si13 2.374959 1_555
Mn5 Si5 2.377236 1_555
Mn5 Si10 2.411296 1_555
Mn5 Si19 2.432332 1_555
Mn6 Si30 2.374675 1_555
Mn6 Si14 2.374959 1_555
Mn6 Si6 2.377236 1_555
Mn6 Si9 2.411296 1_555
Mn6 Si16 2.432332 1_565
Mn7 Si31 2.374675 1_655
Mn7 Si15 2.374959 1_655
Mn7 Si7 2.377236 1_655
Mn7 Si8 2.411296 1_555
Mn7 Si17 2.432332 1_555
Mn8 Si30 2.374675 1_655
Mn8 Si14 2.374959 1_655
Mn8 Si6 2.377236 1_655
Mn8 Si9 2.411296 1_555
Mn8 Si16 2.432332 1_565
Mn9 Si31 2.374675 1_555
Mn9 Si15 2.374959 1_555
Mn9 Si7 2.377236 1_555
Mn9 Si8 2.411296 1_555
Mn9 Si17 2.432332 1_555
Mn10 Si28 2.374675 1_555
Mn10 Si12 2.374959 1_555
Mn10 Si4 2.377236 1_555
Mn10 Si11 2.411296 1_555
Mn10 Si18 2.432332 1_545
Mn11 Si29 2.374675 1_455
Mn11 Si13 2.374959 1_455
Mn11 Si5 2.377236 1_455
Mn11 Si10 2.411296 1_555
Mn11 Si19 2.432332 1_555
Mn12 Si17 2.291467 1_555
Mn12 Si25 2.319082 1_555
Mn12 Si23 2.319082 1_655
Mn12 Si0 2.349224 1_555
Mn12 Si7 2.587594 1_655
Mn12 Si7 2.587594 1_555
Mn13 Si16 2.291467 1_565
Mn13 Si22 2.319082 1_555
Mn13 Si24 2.319082 1_655
Mn13 Si1 2.349224 1_555
Mn13 Si6 2.587594 1_655
Mn13 Si6 2.587594 1_555
Mn14 Si19 2.291467 1_555
Mn14 Si27 2.319082 1_455
Mn14 Si21 2.319082 1_555
Mn14 Si2 2.349224 1_555
Mn14 Si5 2.587594 1_455
Mn14 Si5 2.587594 1_555
Mn15 Si18 2.291467 1_545
Mn15 Si20 2.319082 1_455
Mn15 Si26 2.319082 1_555
Mn15 Si3 2.349224 1_555
Mn15 Si4 2.587594 1_455
Mn15 Si4 2.587594 1_555
Mn16 Si19 2.428700 1_655
Mn16 Si0 2.444626 1_556
Mn16 Si2 2.465525 1_655
Mn16 Si11 2.469217 1_655
Mn16 Si28 2.509853 1_555
Mn16 Si5 2.543053 1_555
Mn17 Si18 2.428700 1_555
Mn17 Si1 2.444626 1_555
Mn17 Si3 2.465525 1_565
Mn17 Si10 2.469217 1_555
Mn17 Si29 2.509853 1_555
Mn17 Si4 2.543053 1_565
Mn18 Si17 2.428700 1_555
Mn18 Si2 2.444626 1_554
Mn18 Si0 2.465525 1_555
Mn18 Si9 2.469217 1_555
Mn18 Si30 2.509853 1_555
Mn18 Si7 2.543053 1_555
Mn19 Si16 2.428700 1_455
Mn19 Si3 2.444626 1_555
Mn19 Si1 2.465525 1_445
Mn19 Si8 2.469217 1_455
Mn19 Si31 2.509853 1_555
Mn19 Si6 2.543053 1_545
Mn20 Si17 2.428700 1_455
Mn20 Si2 2.444626 1_554
Mn20 Si0 2.465525 1_455
Mn20 Si9 2.469217 1_455
Mn20 Si30 2.509853 1_555
Mn20 Si7 2.543053 1_555
Mn21 Si16 2.428700 1_555
Mn21 Si3 2.444626 1_555
Mn21 Si1 2.465525 1_545
Mn21 Si8 2.469217 1_555
Mn21 Si31 2.509853 1_555
Mn21 Si6 2.543053 1_545
Mn22 Si19 2.428700 1_555
Mn22 Si0 2.444626 1_556
Mn22 Si2 2.465525 1_555
Mn22 Si11 2.469217 1_555
Mn22 Si28 2.509853 1_555
Mn22 Si5 2.543053 1_555
Mn23 Si18 2.428700 1_655
Mn23 Si1 2.444626 1_555
Mn23 Si3 2.465525 1_665
Mn23 Si10 2.469217 1_655
Mn23 Si29 2.509853 1_555
Mn23 Si4 2.543053 1_565
Mn24 Si8 2.430603 1_555
Mn24 Si20 2.529314 1_555
Mn24 Si26 2.529314 1_555
Mn24 Si13 2.558152 1_555
Mn24 Mo13 2.587717 1_555
Mn24 Si15 2.771227 1_555
Mn24 Si15 2.771227 1_655
Mn25 Si9 2.430603 1_555
Mn25 Si27 2.529314 1_554
Mn25 Si21 2.529314 1_554
Mn25 Si12 2.558152 1_564
Mn25 Mo12 2.587717 1_565
Mn25 Si14 2.771227 1_655
Mn25 Si14 2.771227 1_555
Mn26 Si10 2.430603 1_555
Mn26 Si22 2.529314 1_555
Mn26 Si24 2.529314 1_555
Mn26 Si15 2.558152 1_555
Mn26 Mo15 2.587717 1_555
Mn26 Si13 2.771227 1_555
Mn26 Si13 2.771227 1_455
Mn27 Si11 2.430603 1_555
Mn27 Si25 2.529314 1_556
Mn27 Si23 2.529314 1_556
Mn27 Si14 2.558152 1_546
Mn27 Mo14 2.587717 1_545
Mn27 Si12 2.771227 1_455
Mn27 Si12 2.771227 1_555
Si20 Si26 2.405220 1_555
Si20 Si26 2.453574 1_655
Si21 Si27 2.405220 1_555
Si21 Si27 2.453574 1_455
Si22 Si24 2.405220 1_555
Si22 Si24 2.453574 1_655
Si23 Si25 2.405220 1_555
Si23 Si25 2.453574 1_455
Mo0 Si28 2.465064 1_555
Mo0 Si26 2.546530 1_555
Mo0 Si20 2.546530 1_555
Mo0 Si13 2.548956 1_555
Mo0 Si5 2.573924 1_555
Mo0 Si19 2.697480 1_655
Mo0 Si19 2.697480 1_555
Mo1 Si29 2.465064 1_555
Mo1 Si21 2.546530 1_555
Mo1 Si27 2.546530 1_555
Mo1 Si12 2.548956 1_565
Mo1 Si4 2.573924 1_565
Mo1 Si18 2.697480 1_555
Mo1 Si18 2.697480 1_655
Mo2 Si30 2.465064 1_555
Mo2 Si22 2.546530 1_555
Mo2 Si24 2.546530 1_555
Mo2 Si15 2.548956 1_555
Mo2 Si7 2.573924 1_555
Mo2 Si17 2.697480 1_555
Mo2 Si17 2.697480 1_455
Mo3 Si31 2.465064 1_555
Mo3 Si25 2.546530 1_555
Mo3 Si23 2.546530 1_555
Mo3 Si14 2.548956 1_545
Mo3 Si6 2.573924 1_545
Mo3 Si16 2.697480 1_555
Mo3 Si16 2.697480 1_455
Mo4 Si4 2.464325 1_555
Mo4 Si8 2.510615 1_555
Mo4 Si1 2.552373 1_545
Mo4 Si26 2.563639 1_555
Mo4 Si20 2.563639 1_555
Mo4 Si3 2.670088 1_555
Mo4 Si3 2.670088 1_655
Mo5 Si5 2.464325 1_555
Mo5 Si9 2.510615 1_556
Mo5 Si0 2.552373 1_556
Mo5 Si27 2.563639 1_555
Mo5 Si21 2.563639 1_555
Mo5 Si2 2.670088 1_555
Mo5 Si2 2.670088 1_655
Mo6 Si6 2.464325 1_555
Mo6 Si10 2.510615 1_555
Mo6 Si3 2.552373 1_565
Mo6 Si22 2.563639 1_555
Mo6 Si24 2.563639 1_555
Mo6 Si1 2.670088 1_455
Mo6 Si1 2.670088 1_555
Mo7 Si7 2.464325 1_555
Mo7 Si11 2.510615 1_554
Mo7 Si2 2.552373 1_554
Mo7 Si25 2.563639 1_555
Mo7 Si23 2.563639 1_555
Mo7 Si0 2.670088 1_555
Mo7 Si0 2.670088 1_455
Mo8 Si0 2.581370 1_556
Mo8 Si25 2.615390 1_556
Mo8 Si23 2.615390 1_656
Mo8 Si12 2.619939 1_555
Mo8 Si28 2.626433 1_555
Mo8 Si11 2.707311 1_555
Mo8 Si11 2.707311 1_655
Mo9 Si1 2.581370 1_555
Mo9 Si22 2.615390 1_555
Mo9 Si24 2.615390 1_655
Mo9 Si13 2.619939 1_555
Mo9 Si29 2.626433 1_555
Mo9 Si10 2.707311 1_655
Mo9 Si10 2.707311 1_555
Mo10 Si2 2.581370 1_554
Mo10 Si27 2.615390 1_454
Mo10 Si21 2.615390 1_554
Mo10 Si14 2.619939 1_555
Mo10 Si30 2.626433 1_555
Mo10 Si9 2.707311 1_455
Mo10 Si9 2.707311 1_555
Mo11 Si3 2.581370 1_555
Mo11 Si20 2.615390 1_455
Mo11 Si26 2.615390 1_555
Mo11 Si15 2.619939 1_555
Mo11 Si31 2.626433 1_555
Mo11 Si8 2.707311 1_555
Mo11 Si8 2.707311 1_455
Mo12 Si12 2.436724 1_554
Mo12 Si16 2.491148 1_555
Mo12 Si25 2.578127 1_555
Mo12 Si23 2.578127 1_655
Mo12 Si14 2.771491 1_645
Mo12 Si14 2.771491 1_545
Mo13 Si13 2.436724 1_555
Mo13 Si17 2.491148 1_555
Mo13 Si24 2.578127 1_655
Mo13 Si22 2.578127 1_555
Mo13 Si15 2.771491 1_655
Mo13 Si15 2.771491 1_555
Mo14 Si14 2.436724 1_556
Mo14 Si18 2.491148 1_555
Mo14 Si21 2.578127 1_555
Mo14 Si27 2.578127 1_455
Mo14 Si12 2.771491 1_565
Mo14 Si12 2.771491 1_465
Mo15 Si15 2.436724 1_555
Mo15 Si19 2.491148 1_555
Mo15 Si20 2.578127 1_455
Mo15 Si26 2.578127 1_555
Mo15 Si13 2.771491 1_555
Mo15 Si13 2.771491 1_455
