# generated using pymatgen
data_La6Al3Fe11
_symmetry_space_group_name_H-M   'P 1'
_cell_length_a   8.15030600
_cell_length_b   8.15030600
_cell_length_c   13.25678280
_cell_angle_alpha   72.09730632
_cell_angle_beta   72.09730632
_cell_angle_gamma   90.00000000
_symmetry_Int_Tables_number   1
_chemical_formula_structural   La6Al3Fe11
_chemical_formula_sum   'La12 Al6 Fe22'
_cell_volume   793.04668990
_cell_formula_units_Z   2
loop_
 _symmetry_equiv_pos_site_id
 _symmetry_equiv_pos_as_xyz
  1  'x, y, z'
loop_
 _atom_site_type_symbol
 _atom_site_label
 _atom_site_symmetry_multiplicity
 _atom_site_fract_x
 _atom_site_fract_y
 _atom_site_fract_z
 _atom_site_occupancy
  La  La0  1  0.35852800  0.85852800  0.62194100  1
  La  La1  1  0.01953100  0.51953100  0.62194100  1
  La  La2  1  0.51953100  0.35852800  0.62194100  1
  La  La3  1  0.85852800  0.01953100  0.62194100  1
  La  La4  1  0.64737100  0.14737100  0.36955200  1
  La  La5  1  0.98307800  0.48307800  0.36955200  1
  La  La6  1  0.48307800  0.64737100  0.36955200  1
  La  La7  1  0.14737100  0.98307800  0.36955200  1
  La  La8  1  0.39465600  0.39465600  0.21068700  1
  La  La9  1  0.89465600  0.89465600  0.21068700  1
  La  La10  1  0.60584400  0.60584400  0.78831300  1
  La  La11  1  0.10584400  0.10584400  0.78831300  1
  Al  Al0  1  0.74976300  0.74976300  0.50047400  1
  Al  Al1  1  0.24976300  0.24976300  0.50047400  1
  Al  Al2  1  0.47320200  0.97320200  0.81744200  1
  Al  Al3  1  0.70935700  0.20935700  0.81744200  1
  Al  Al4  1  0.20935700  0.47320200  0.81744200  1
  Al  Al5  1  0.97320200  0.70935700  0.81744200  1
  Fe  Fe0  1  0.23088600  0.73088600  0.88977900  1
  Fe  Fe1  1  0.87933500  0.37933500  0.88977900  1
  Fe  Fe2  1  0.37933500  0.23088600  0.88977900  1
  Fe  Fe3  1  0.73088600  0.87933500  0.88977900  1
  Fe  Fe4  1  0.76388400  0.26388400  0.11518400  1
  Fe  Fe5  1  0.12093200  0.62093200  0.11518400  1
  Fe  Fe6  1  0.62093200  0.76388400  0.11518400  1
  Fe  Fe7  1  0.26388400  0.12093200  0.11518400  1
  Fe  Fe8  1  0.70994400  0.56823500  0.00120000  1
  Fe  Fe9  1  0.28885700  0.43056500  0.00120000  1
  Fe  Fe10  1  0.78885700  0.06823500  0.00120000  1
  Fe  Fe11  1  0.20994400  0.93056500  0.00120000  1
  Fe  Fe12  1  0.56823500  0.28885700  0.00120000  1
  Fe  Fe13  1  0.43056500  0.70994400  0.00120000  1
  Fe  Fe14  1  0.06823500  0.20994400  0.00120000  1
  Fe  Fe15  1  0.93056500  0.78885700  0.00120000  1
  Fe  Fe16  1  0.99906900  0.49906900  0.00186200  1
  Fe  Fe17  1  0.49906900  0.99906900  0.00186200  1
  Fe  Fe18  1  0.52168000  0.02168000  0.18303600  1
  Fe  Fe19  1  0.29528500  0.79528500  0.18303600  1
  Fe  Fe20  1  0.79528500  0.52168000  0.18303600  1
  Fe  Fe21  1  0.02168000  0.29528500  0.18303600  1
loop_
_geom_bond_atom_site_label_1
_geom_bond_atom_site_label_2
_geom_bond_distance
_geom_bond_site_symmetry_2
Al0 La3 3.356680 1_565
Al0 La1 3.356680 1_655
Al0 La2 3.356680 1_555
Al0 La0 3.356680 1_555
Al0 La6 3.412175 1_555
Al0 La5 3.412178 1_555
Al0 La4 3.412181 1_565
Al0 La7 3.412184 1_655
Al0 La10 3.436375 1_555
Al0 La9 3.459631 1_555
Al1 La3 3.356680 1_455
Al1 La0 3.356680 1_545
Al1 La1 3.356680 1_555
Al1 La2 3.356680 1_555
Al1 La7 3.412175 1_545
Al1 La5 3.412178 1_455
Al1 La4 3.412181 1_555
Al1 La6 3.412184 1_555
Al1 La11 3.436375 1_555
Al1 La8 3.459631 1_555
Al2 Fe0 2.528183 1_555
Al2 Fe17 2.588395 1_556
Al2 Fe2 2.588998 1_565
Al2 Fe3 2.588998 1_555
Al2 Fe11 2.631513 1_556
Al2 Fe13 2.631513 1_556
Al2 Al3 2.721987 1_565
Al2 La11 3.276663 1_565
Al2 La10 3.276663 1_555
Al2 La2 3.334173 1_565
Al2 La3 3.334173 1_565
Al2 La0 3.382677 1_555
Al3 Fe1 2.528173 1_555
Al3 Fe17 2.588401 1_546
Al3 Fe3 2.589004 1_545
Al3 Fe2 2.589004 1_555
Al3 Fe10 2.631514 1_556
Al3 Fe12 2.631514 1_556
Al3 La10 3.276663 1_555
Al3 La11 3.276663 1_655
Al3 La2 3.334178 1_555
Al3 La3 3.334178 1_555
Al3 La1 3.382669 1_655
Al4 Fe2 2.528178 1_555
Al4 Fe16 2.588398 1_456
Al4 Fe0 2.588997 1_555
Al4 Fe1 2.589006 1_455
Al4 Fe9 2.631513 1_556
Al4 Fe14 2.631514 1_556
Al4 Al5 2.721987 1_455
Al4 La10 3.276663 1_555
Al4 La11 3.276663 1_555
Al4 La0 3.334172 1_555
Al4 La1 3.334179 1_555
Al4 La2 3.382673 1_555
Al5 Fe3 2.528178 1_555
Al5 Fe16 2.588398 1_556
Al5 Fe0 2.588997 1_655
Al5 Fe1 2.589006 1_555
Al5 Fe15 2.631513 1_556
Al5 Fe8 2.631514 1_556
Al5 La11 3.276663 1_665
Al5 La10 3.276663 1_555
Al5 La0 3.334172 1_655
Al5 La1 3.334179 1_655
Al5 La3 3.382673 1_565
Fe0 Fe16 2.428035 1_456
Fe0 Fe13 2.486442 1_556
Fe0 Fe11 2.486442 1_556
Fe0 Fe15 2.569544 1_456
Fe0 Fe9 2.569544 1_556
Fe0 Fe5 2.691191 1_556
Fe0 La0 3.198411 1_555
Fe0 La10 3.240796 1_555
Fe0 La11 3.240796 1_565
Fe1 Fe16 2.428035 1_556
Fe1 Fe12 2.486441 1_556
Fe1 Fe10 2.486441 1_556
Fe1 Fe14 2.569541 1_656
Fe1 Fe8 2.569541 1_556
Fe1 Fe4 2.691191 1_556
Fe1 La1 3.198411 1_655
Fe1 La11 3.240793 1_655
Fe1 La10 3.240793 1_555
Fe2 Fe9 2.486441 1_556
Fe2 Fe7 2.691191 1_556
Fe2 La2 3.198411 1_555
Fe2 La11 3.240790 1_555
Fe2 La10 3.240800 1_555
Fe3 Fe8 2.486442 1_556
Fe3 Fe6 2.691191 1_556
Fe3 La3 3.198411 1_565
Fe3 La10 3.240790 1_555
Fe3 La11 3.240800 1_665
Fe4 Fe8 2.594937 1_555
Fe4 La4 3.039270 1_555
Fe4 La8 3.206580 1_555
Fe4 La9 3.206580 1_545
Fe5 Fe9 2.594939 1_555
Fe5 La5 3.039270 1_455
Fe5 La8 3.206577 1_555
Fe5 La9 3.206577 1_455
Fe6 Fe8 2.481892 1_555
Fe6 La6 3.039270 1_555
Fe6 La9 3.206573 1_555
Fe6 La8 3.206584 1_555
Fe7 Fe9 2.481891 1_555
Fe7 La7 3.039270 1_545
Fe7 La8 3.206573 1_555
Fe7 La9 3.206584 1_445
Fe8 La8 3.084519 1_555
Fe8 La10 3.117515 1_554
Fe9 La8 3.084508 1_555
Fe9 La10 3.117516 1_554
Fe10 Fe17 2.424967 1_545
Fe10 Fe4 2.481891 1_555
Fe10 Fe12 2.542949 1_555
Fe10 Fe15 2.553183 1_545
Fe10 Fe14 2.553187 1_655
Fe10 Fe3 2.569544 1_544
Fe10 Fe6 2.594939 1_545
Fe10 Fe18 2.628129 1_555
Fe10 La9 3.084510 1_545
Fe10 La11 3.117515 1_654
Fe11 Fe17 2.424959 1_555
Fe11 Fe5 2.481892 1_555
Fe11 Fe13 2.542938 1_555
Fe11 Fe15 2.553190 1_455
Fe11 Fe14 2.553194 1_565
Fe11 Fe2 2.569541 1_564
Fe11 Fe7 2.594937 1_565
Fe11 Fe19 2.628128 1_555
Fe11 La9 3.084517 1_455
Fe11 La11 3.117516 1_564
Fe12 Fe17 2.424967 1_545
Fe12 Fe4 2.481891 1_555
Fe12 Fe9 2.553183 1_555
Fe12 Fe8 2.553187 1_555
Fe12 Fe2 2.569544 1_554
Fe12 Fe7 2.594939 1_555
Fe12 Fe18 2.628129 1_555
Fe12 La8 3.084510 1_555
Fe12 La10 3.117515 1_554
Fe13 Fe17 2.424959 1_555
Fe13 Fe5 2.481892 1_555
Fe13 Fe9 2.553190 1_555
Fe13 Fe8 2.553194 1_555
Fe13 Fe3 2.569541 1_554
Fe13 Fe6 2.594937 1_555
Fe13 Fe19 2.628128 1_555
Fe13 La8 3.084517 1_555
Fe13 La10 3.117516 1_554
Fe14 Fe16 2.424959 1_455
Fe14 Fe7 2.481892 1_555
Fe14 Fe2 2.486442 1_554
Fe14 Fe9 2.542944 1_555
Fe14 Fe4 2.594937 1_455
Fe14 Fe21 2.628129 1_555
Fe14 La9 3.084519 1_445
Fe14 La11 3.117515 1_554
Fe15 Fe16 2.424967 1_555
Fe15 Fe6 2.481891 1_555
Fe15 Fe3 2.486441 1_554
Fe15 Fe8 2.542944 1_555
Fe15 Fe5 2.594939 1_655
Fe15 Fe20 2.628128 1_555
Fe15 La9 3.084508 1_555
Fe15 La11 3.117516 1_664
Fe16 Fe8 2.424959 1_555
Fe16 Fe9 2.424967 1_655
Fe16 Fe5 2.462627 1_655
Fe16 Fe4 2.462627 1_555
Fe16 Fe21 2.526009 1_655
Fe16 Fe20 2.526009 1_555
Fe17 Fe2 2.428035 1_564
Fe17 Fe3 2.428035 1_554
Fe17 Fe6 2.462627 1_555
Fe17 Fe7 2.462627 1_565
Fe17 Fe19 2.526006 1_555
Fe17 Fe18 2.526012 1_565
Fe18 Fe4 2.533653 1_555
Fe18 Fe6 2.567637 1_545
Fe18 Fe7 2.567637 1_555
Fe18 Fe19 2.609491 1_545
Fe18 La7 3.225498 1_545
Fe18 La6 3.225498 1_545
Fe18 La9 3.301325 1_545
Fe18 La8 3.301325 1_555
Fe18 La4 3.365591 1_555
Fe19 Fe5 2.533664 1_555
Fe19 Fe6 2.567631 1_555
Fe19 Fe7 2.567631 1_565
Fe19 La6 3.225498 1_555
Fe19 La7 3.225498 1_555
Fe19 La9 3.301336 1_455
Fe19 La8 3.301336 1_555
Fe19 La5 3.365591 1_455
Fe20 Fe6 2.533659 1_555
Fe20 Fe5 2.567629 1_655
Fe20 Fe4 2.567638 1_555
Fe20 Fe21 2.609491 1_655
Fe20 Fe8 2.628129 1_555
Fe20 La4 3.225498 1_555
Fe20 La5 3.225498 1_555
Fe20 La9 3.301320 1_555
Fe20 La8 3.301340 1_555
Fe20 La6 3.365591 1_555
Fe21 Fe7 2.533659 1_555
Fe21 Fe5 2.567629 1_555
Fe21 Fe4 2.567638 1_455
Fe21 Fe9 2.628128 1_555
Fe21 La5 3.225498 1_455
Fe21 La4 3.225498 1_455
Fe21 La8 3.301320 1_555
Fe21 La9 3.301340 1_445
Fe21 La7 3.365591 1_545
