# generated using pymatgen
data_BaNdMn4O12
_symmetry_space_group_name_H-M   'P 1'
_cell_length_a   5.32980896
_cell_length_b   5.32979956
_cell_length_c   7.52091530
_cell_angle_alpha   89.99991205
_cell_angle_beta   90.00002945
_cell_angle_gamma   89.99995979
_symmetry_Int_Tables_number   1
_chemical_formula_structural   BaNdMn4O12
_chemical_formula_sum   'Ba1 Nd1 Mn4 O12'
_cell_volume   213.64523790
_cell_formula_units_Z   1
loop_
 _symmetry_equiv_pos_site_id
 _symmetry_equiv_pos_as_xyz
  1  'x, y, z'
loop_
 _atom_site_type_symbol
 _atom_site_label
 _atom_site_symmetry_multiplicity
 _atom_site_fract_x
 _atom_site_fract_y
 _atom_site_fract_z
 _atom_site_occupancy
  Ba  Ba0  1  0.50000000  0.50000000  -0.00000000  1
  Nd  Nd0  1  0.00000000  0.00000000  0.50000000  1
  Mn  Mn0  1  0.99999770  0.50000168  0.75063678  1
  Mn  Mn1  1  0.00000230  0.49999832  0.24936322  1
  Mn  Mn2  1  0.49999823  0.00000202  0.75063673  1
  Mn  Mn3  1  0.50000177  0.99999798  0.24936327  1
  O  O0  1  0.24172196  0.24171802  0.73583355  1
  O  O1  1  0.24172026  0.24172062  0.26416644  1
  O  O2  1  0.75827974  0.75827938  0.73583356  1
  O  O3  1  0.75827804  0.75828198  0.26416645  1
  O  O4  1  0.75828092  0.24171872  0.73583393  1
  O  O5  1  0.75827878  0.24172055  0.26416715  1
  O  O6  1  0.24172122  0.75827945  0.73583285  1
  O  O7  1  0.24171908  0.75828128  0.26416607  1
  O  O8  1  0.00000000  0.50000000  0.50000000  1
  O  O9  1  0.00000000  0.50000000  -0.00000000  1
  O  O10  1  0.50000000  0.00000000  0.50000000  1
  O  O11  1  0.50000000  0.00000000  -0.00000000  1
loop_
_geom_bond_atom_site_label_1
_geom_bond_atom_site_label_2
_geom_bond_distance
_geom_bond_site_symmetry_2
Ba0 O11 2.664900 1_555
Ba0 O11 2.664900 1_565
Ba0 O9 2.664904 1_655
Ba0 O9 2.664904 1_555
Ba0 O6 2.781583 1_554
Ba0 O5 2.781583 1_555
Ba0 O1 2.781584 1_555
Ba0 O2 2.781584 1_554
Ba0 O3 2.781588 1_555
Ba0 O0 2.781588 1_554
Ba0 O7 2.781592 1_555
Ba0 O4 2.781592 1_554
Nd0 O4 2.542731 1_455
Nd0 O7 2.542731 1_545
Nd0 O5 2.542732 1_455
Nd0 O6 2.542732 1_545
Nd0 O3 2.542735 1_445
Nd0 O0 2.542735 1_555
Nd0 O1 2.542735 1_555
Nd0 O2 2.542735 1_445
Nd0 O8 2.664900 1_545
Nd0 O8 2.664900 1_555
Nd0 O10 2.664904 1_455
Nd0 O10 2.664904 1_555
Mn0 O9 1.875440 1_656
Mn0 O8 1.885018 1_655
Mn0 O2 1.888671 1_555
Mn0 O4 1.888688 1_555
Mn0 O6 1.888693 1_655
Mn0 O0 1.888717 1_655
Mn1 O9 1.875440 1_555
Mn1 O8 1.885018 1_555
Mn1 O1 1.888671 1_555
Mn1 O7 1.888688 1_555
Mn1 O5 1.888693 1_455
Mn1 O3 1.888717 1_455
Mn2 O11 1.875440 1_556
Mn2 O10 1.885018 1_555
Mn2 O0 1.888658 1_555
Mn2 O6 1.888687 1_545
Mn2 O4 1.888687 1_555
Mn2 O2 1.888703 1_545
Mn3 O11 1.875440 1_565
Mn3 O10 1.885018 1_565
Mn3 O3 1.888658 1_555
Mn3 O5 1.888687 1_565
Mn3 O7 1.888687 1_555
Mn3 O1 1.888703 1_565
