# generated using pymatgen
data_CsCd4As3
_symmetry_space_group_name_H-M   'P 1'
_cell_length_a   4.54215438
_cell_length_b   4.54215438
_cell_length_c   10.94793811
_cell_angle_alpha   90.00000000
_cell_angle_beta   90.00000000
_cell_angle_gamma   90.00000000
_symmetry_Int_Tables_number   1
_chemical_formula_structural   CsCd4As3
_chemical_formula_sum   'Cs1 Cd4 As3'
_cell_volume   225.86873301
_cell_formula_units_Z   1
loop_
 _symmetry_equiv_pos_site_id
 _symmetry_equiv_pos_as_xyz
  1  'x, y, z'
loop_
 _atom_site_type_symbol
 _atom_site_label
 _atom_site_symmetry_multiplicity
 _atom_site_fract_x
 _atom_site_fract_y
 _atom_site_fract_z
 _atom_site_occupancy
  Cs  Cs0  1  -0.00000000  -0.00000000  0.50000000  1
  Cd  Cd0  1  0.50000000  0.00000000  0.83880080  1
  Cd  Cd1  1  0.00000000  0.50000000  0.83880080  1
  Cd  Cd2  1  0.50000000  0.00000000  0.16119920  1
  Cd  Cd3  1  -0.00000000  0.50000000  0.16119920  1
  As  As0  1  0.50000000  0.50000000  0.70311108  1
  As  As1  1  0.50000000  0.50000000  0.29688892  1
  As  As2  1  -0.00000000  -0.00000000  -0.00000000  1
loop_
_geom_bond_atom_site_label_1
_geom_bond_atom_site_label_2
_geom_bond_distance
_geom_bond_site_symmetry_2
As0 Cd1 2.713774 1_655
As0 Cd0 2.713774 1_555
As0 Cd1 2.713774 1_555
As0 Cd0 2.713774 1_565
As0 Cs0 3.906430 1_565
As0 Cs0 3.906430 1_555
As0 Cs0 3.906430 1_655
As0 Cs0 3.906430 1_665
As1 Cd2 2.713774 1_555
As1 Cd2 2.713774 1_565
As1 Cd3 2.713774 1_555
As1 Cd3 2.713774 1_655
As1 Cs0 3.906430 1_565
As1 Cs0 3.906430 1_555
As1 Cs0 3.906430 1_655
As1 Cs0 3.906430 1_665
As2 Cd2 2.876162 1_455
As2 Cd3 2.876162 1_555
As2 Cd1 2.876162 1_554
As2 Cd3 2.876162 1_545
As2 Cd2 2.876162 1_555
As2 Cd1 2.876162 1_544
As2 Cd0 2.876162 1_554
As2 Cd0 2.876162 1_454
