# generated using pymatgen
data_HfHg4(AsCl3)2
_symmetry_space_group_name_H-M   'P 1'
_cell_length_a   13.72049300
_cell_length_b   13.81802200
_cell_length_c   17.22305500
_cell_angle_alpha   90.00000000
_cell_angle_beta   90.00000000
_cell_angle_gamma   90.00000000
_symmetry_Int_Tables_number   1
_chemical_formula_structural   HfHg4(AsCl3)2
_chemical_formula_sum   'Hf8 Hg32 As16 Cl48'
_cell_volume   3265.32027411
_cell_formula_units_Z   8
loop_
 _symmetry_equiv_pos_site_id
 _symmetry_equiv_pos_as_xyz
  1  'x, y, z'
loop_
 _atom_site_type_symbol
 _atom_site_label
 _atom_site_symmetry_multiplicity
 _atom_site_fract_x
 _atom_site_fract_y
 _atom_site_fract_z
 _atom_site_occupancy
  Hf  Hf0  1  0.70364800  0.99509800  0.11620200  1
  Hf  Hf1  1  0.20364800  0.50490200  0.88379800  1
  Hf  Hf2  1  0.29635200  0.49509800  0.38379800  1
  Hf  Hf3  1  0.79635200  0.00490200  0.61620200  1
  Hf  Hf4  1  0.29635200  0.00490200  0.88379800  1
  Hf  Hf5  1  0.79635200  0.49509800  0.11620200  1
  Hf  Hf6  1  0.70364800  0.50490200  0.61620200  1
  Hf  Hf7  1  0.20364800  0.99509800  0.38379800  1
  Hg  Hg0  1  0.73041000  0.23399000  0.87231700  1
  Hg  Hg1  1  0.23041000  0.26601000  0.12768300  1
  Hg  Hg2  1  0.26959000  0.73399000  0.62768300  1
  Hg  Hg3  1  0.76959000  0.76601000  0.37231700  1
  Hg  Hg4  1  0.26959000  0.76601000  0.12768300  1
  Hg  Hg5  1  0.76959000  0.73399000  0.87231700  1
  Hg  Hg6  1  0.73041000  0.26601000  0.37231700  1
  Hg  Hg7  1  0.23041000  0.23399000  0.62768300  1
  Hg  Hg8  1  0.47922500  0.28280600  0.99737200  1
  Hg  Hg9  1  0.97922500  0.21719400  0.00262800  1
  Hg  Hg10  1  0.52077500  0.78280600  0.50262800  1
  Hg  Hg11  1  0.02077500  0.71719400  0.49737200  1
  Hg  Hg12  1  0.52077500  0.71719400  0.00262800  1
  Hg  Hg13  1  0.02077500  0.78280600  0.99737200  1
  Hg  Hg14  1  0.47922500  0.21719400  0.49737200  1
  Hg  Hg15  1  0.97922500  0.28280600  0.50262800  1
  Hg  Hg16  1  0.58611400  0.49031900  0.85793800  1
  Hg  Hg17  1  0.08611400  0.00968100  0.14206200  1
  Hg  Hg18  1  0.41388600  0.99031900  0.64206200  1
  Hg  Hg19  1  0.91388600  0.50968100  0.35793800  1
  Hg  Hg20  1  0.41388600  0.50968100  0.14206200  1
  Hg  Hg21  1  0.91388600  0.99031900  0.85793800  1
  Hg  Hg22  1  0.58611400  0.00968100  0.35793800  1
  Hg  Hg23  1  0.08611400  0.49031900  0.64206200  1
  Hg  Hg24  1  0.47688700  0.24499300  0.74844000  1
  Hg  Hg25  1  0.97688700  0.25500700  0.25156000  1
  Hg  Hg26  1  0.52311300  0.74499300  0.75156000  1
  Hg  Hg27  1  0.02311300  0.75500700  0.24844000  1
  Hg  Hg28  1  0.52311300  0.75500700  0.25156000  1
  Hg  Hg29  1  0.02311300  0.74499300  0.74844000  1
  Hg  Hg30  1  0.47688700  0.25500700  0.24844000  1
  Hg  Hg31  1  0.97688700  0.24499300  0.75156000  1
  As  As0  1  0.56243700  0.30796300  0.86737900  1
  As  As1  1  0.06243700  0.19203700  0.13262100  1
  As  As2  1  0.43756300  0.80796300  0.63262100  1
  As  As3  1  0.93756300  0.69203700  0.36737900  1
  As  As4  1  0.43756300  0.69203700  0.13262100  1
  As  As5  1  0.93756300  0.80796300  0.86737900  1
  As  As6  1  0.56243700  0.19203700  0.36737900  1
  As  As7  1  0.06243700  0.30796300  0.63262100  1
  As  As8  1  0.90288900  0.17310900  0.87292900  1
  As  As9  1  0.40288900  0.32689100  0.12707100  1
  As  As10  1  0.09711100  0.67310900  0.62707100  1
  As  As11  1  0.59711100  0.82689100  0.37292900  1
  As  As12  1  0.09711100  0.82689100  0.12707100  1
  As  As13  1  0.59711100  0.67310900  0.87292900  1
  As  As14  1  0.90288900  0.32689100  0.37292900  1
  As  As15  1  0.40288900  0.17310900  0.62707100  1
  Cl  Cl0  1  0.77272400  0.07923400  0.22938600  1
  Cl  Cl1  1  0.27272400  0.42076600  0.77061400  1
  Cl  Cl2  1  0.22727600  0.57923400  0.27061400  1
  Cl  Cl3  1  0.72727600  0.92076600  0.72938600  1
  Cl  Cl4  1  0.22727600  0.92076600  0.77061400  1
  Cl  Cl5  1  0.72727600  0.57923400  0.22938600  1
  Cl  Cl6  1  0.77272400  0.42076600  0.72938600  1
  Cl  Cl7  1  0.27272400  0.07923400  0.27061400  1
  Cl  Cl8  1  0.86985400  0.99221000  0.05479700  1
  Cl  Cl9  1  0.36985400  0.50779000  0.94520300  1
  Cl  Cl10  1  0.13014600  0.49221000  0.44520300  1
  Cl  Cl11  1  0.63014600  0.00779000  0.55479700  1
  Cl  Cl12  1  0.13014600  0.00779000  0.94520300  1
  Cl  Cl13  1  0.63014600  0.49221000  0.05479700  1
  Cl  Cl14  1  0.86985400  0.50779000  0.55479700  1
  Cl  Cl15  1  0.36985400  0.99221000  0.44520300  1
  Cl  Cl16  1  0.53940400  0.99641200  0.17439200  1
  Cl  Cl17  1  0.03940400  0.50358800  0.82560800  1
  Cl  Cl18  1  0.46059600  0.49641200  0.32560800  1
  Cl  Cl19  1  0.96059600  0.00358800  0.67439200  1
  Cl  Cl20  1  0.46059600  0.00358800  0.82560800  1
  Cl  Cl21  1  0.96059600  0.49641200  0.17439200  1
  Cl  Cl22  1  0.53940400  0.50358800  0.67439200  1
  Cl  Cl23  1  0.03940400  0.99641200  0.32560800  1
  Cl  Cl24  1  0.66947700  0.14878300  0.04894200  1
  Cl  Cl25  1  0.16947700  0.35121700  0.95105800  1
  Cl  Cl26  1  0.33052300  0.64878300  0.45105800  1
  Cl  Cl27  1  0.83052300  0.85121700  0.54894200  1
  Cl  Cl28  1  0.33052300  0.85121700  0.95105800  1
  Cl  Cl29  1  0.83052300  0.64878300  0.04894200  1
  Cl  Cl30  1  0.66947700  0.35121700  0.54894200  1
  Cl  Cl31  1  0.16947700  0.14878300  0.45105800  1
  Cl  Cl32  1  0.64331300  0.90281400  0.00172800  1
  Cl  Cl33  1  0.14331300  0.59718600  0.99827200  1
  Cl  Cl34  1  0.35668700  0.40281400  0.49827200  1
  Cl  Cl35  1  0.85668700  0.09718600  0.50172800  1
  Cl  Cl36  1  0.35668700  0.09718600  0.99827200  1
  Cl  Cl37  1  0.85668700  0.40281400  0.00172800  1
  Cl  Cl38  1  0.64331300  0.59718600  0.50172800  1
  Cl  Cl39  1  0.14331300  0.90281400  0.49827200  1
  Cl  Cl40  1  0.73790700  0.84012000  0.18145400  1
  Cl  Cl41  1  0.23790700  0.65988000  0.81854600  1
  Cl  Cl42  1  0.26209300  0.34012000  0.31854600  1
  Cl  Cl43  1  0.76209300  0.15988000  0.68145400  1
  Cl  Cl44  1  0.26209300  0.15988000  0.81854600  1
  Cl  Cl45  1  0.76209300  0.34012000  0.18145400  1
  Cl  Cl46  1  0.73790700  0.65988000  0.68145400  1
  Cl  Cl47  1  0.23790700  0.84012000  0.31854600  1
loop_
_geom_bond_atom_site_label_1
_geom_bond_atom_site_label_2
_geom_bond_distance
_geom_bond_site_symmetry_2
As0 Hg24 2.516190 1_555
As0 Hg0 2.522610 1_555
As0 Hg8 2.537106 1_555
As0 Hg16 2.545852 1_555
As1 Hg25 2.516190 1_455
As1 Hg1 2.522610 1_555
As1 Hg9 2.537106 1_455
As1 Hg17 2.545852 1_555
As2 Hg26 2.516190 1_555
As2 Hg2 2.522610 1_555
As2 Hg10 2.537106 1_555
As2 Hg18 2.545852 1_555
As3 Hg27 2.516190 1_655
As3 Hg3 2.522610 1_555
As3 Hg11 2.537106 1_655
As3 Hg19 2.545852 1_555
As4 Hg28 2.516190 1_555
As4 Hg4 2.522610 1_555
As4 Hg12 2.537106 1_555
As4 Hg20 2.545852 1_555
As5 Hg29 2.516190 1_655
As5 Hg5 2.522610 1_555
As5 Hg13 2.537106 1_655
As5 Hg21 2.545852 1_555
As6 Hg30 2.516190 1_555
As6 Hg6 2.522610 1_555
As6 Hg14 2.537106 1_555
As6 Hg22 2.545852 1_555
As7 Hg31 2.516190 1_455
As7 Hg7 2.522610 1_555
As7 Hg15 2.537106 1_455
As7 Hg23 2.545852 1_555
As8 Hg0 2.511599 1_555
As8 Hg31 2.527249 1_555
As8 Hg9 2.541256 1_556
As8 Hg21 2.543438 1_545
As9 Hg1 2.511599 1_555
As9 Hg30 2.527249 1_555
As9 Hg8 2.541256 1_554
As9 Hg20 2.543438 1_555
As10 Hg2 2.511599 1_555
As10 Hg29 2.527249 1_555
As10 Hg11 2.541256 1_555
As10 Hg23 2.543438 1_555
As11 Hg3 2.511599 1_555
As11 Hg28 2.527249 1_555
As11 Hg10 2.541256 1_555
As11 Hg22 2.543438 1_565
As12 Hg4 2.511599 1_555
As12 Hg27 2.527249 1_555
As12 Hg13 2.541256 1_554
As12 Hg17 2.543438 1_565
As13 Hg5 2.511599 1_555
As13 Hg26 2.527249 1_555
As13 Hg12 2.541256 1_556
As13 Hg16 2.543438 1_555
As14 Hg6 2.511599 1_555
As14 Hg25 2.527249 1_555
As14 Hg15 2.541256 1_555
As14 Hg19 2.543438 1_555
As15 Hg7 2.511599 1_555
As15 Hg24 2.527249 1_555
As15 Hg14 2.541256 1_555
As15 Hg18 2.543438 1_545
Cl0 Hf0 2.459660 1_545
Cl1 Hf1 2.459660 1_555
Cl2 Hf2 2.459660 1_555
Cl3 Hf3 2.459660 1_565
Cl4 Hf4 2.459660 1_565
Cl5 Hf5 2.459660 1_555
Cl6 Hf6 2.459660 1_555
Cl7 Hf7 2.459660 1_545
Cl8 Hf0 2.514045 1_555
Cl9 Hf1 2.514045 1_555
Cl10 Hf2 2.514045 1_555
Cl11 Hf3 2.514045 1_555
Cl12 Hf4 2.514045 1_555
Cl13 Hf5 2.514045 1_555
Cl14 Hf6 2.514045 1_555
Cl15 Hf7 2.514045 1_555
Cl16 Hf0 2.466385 1_555
Cl17 Hf1 2.466385 1_555
Cl18 Hf2 2.466385 1_555
Cl19 Hf3 2.466385 1_555
Cl20 Hf4 2.466385 1_555
Cl21 Hf5 2.466385 1_555
Cl22 Hf6 2.466385 1_555
Cl23 Hf7 2.466385 1_555
Cl24 Hf0 2.464048 1_545
Cl25 Hf1 2.464048 1_555
Cl26 Hf2 2.464048 1_555
Cl27 Hf3 2.464048 1_565
Cl28 Hf4 2.464048 1_565
Cl29 Hf5 2.464048 1_555
Cl30 Hf6 2.464048 1_555
Cl31 Hf7 2.464048 1_545
Cl32 Hf0 2.489691 1_555
Cl32 Hg12 3.066866 1_555
Cl33 Hf1 2.489691 1_555
Cl33 Hg13 3.066866 1_555
Cl34 Hf2 2.489691 1_555
Cl34 Hg14 3.066866 1_555
Cl35 Hf3 2.489691 1_555
Cl35 Hg15 3.066866 1_555
Cl36 Hf4 2.489691 1_555
Cl36 Hg8 3.066866 1_555
Cl37 Hf5 2.489691 1_555
Cl37 Hg9 3.066866 1_555
Cl38 Hf6 2.489691 1_555
Cl38 Hg10 3.066866 1_555
Cl39 Hf7 2.489691 1_555
Cl39 Hg11 3.066866 1_555
Cl40 Hf0 2.463724 1_555
Cl41 Hf1 2.463724 1_555
Cl42 Hf2 2.463724 1_555
Cl43 Hf3 2.463724 1_555
Cl44 Hf4 2.463724 1_555
Cl45 Hf5 2.463724 1_555
Cl46 Hf6 2.463724 1_555
Cl47 Hf7 2.463724 1_555
