# generated using pymatgen
data_KSm2CuS4
_symmetry_space_group_name_H-M   'P 1'
_cell_length_a   7.17603819
_cell_length_b   7.17603819
_cell_length_c   13.92419200
_cell_angle_alpha   90.00000000
_cell_angle_beta   90.00000000
_cell_angle_gamma   147.38143263
_symmetry_Int_Tables_number   1
_chemical_formula_structural   KSm2CuS4
_chemical_formula_sum   'K2 Sm4 Cu2 S8'
_cell_volume   386.51247147
_cell_formula_units_Z   2
loop_
 _symmetry_equiv_pos_site_id
 _symmetry_equiv_pos_as_xyz
  1  'x, y, z'
loop_
 _atom_site_type_symbol
 _atom_site_label
 _atom_site_symmetry_multiplicity
 _atom_site_fract_x
 _atom_site_fract_y
 _atom_site_fract_z
 _atom_site_occupancy
  K  K0  1  0.10834700  0.89165300  0.25000000  1
  K  K1  1  0.89165300  0.10834700  0.75000000  1
  Sm  Sm0  1  0.63447300  0.36552700  0.93718800  1
  Sm  Sm1  1  0.36552700  0.63447300  0.43718800  1
  Sm  Sm2  1  0.63447300  0.36552700  0.56281200  1
  Sm  Sm3  1  0.36552700  0.63447300  0.06281200  1
  Cu  Cu0  1  0.16216700  0.83783300  0.75000000  1
  Cu  Cu1  1  0.83783300  0.16216700  0.25000000  1
  S  S0  1  0.00000000  0.00000000  0.50000000  1
  S  S1  1  0.00000000  0.00000000  0.00000000  1
  S  S2  1  0.73721000  0.26279000  0.11367300  1
  S  S3  1  0.26279000  0.73721000  0.88632700  1
  S  S4  1  0.56947800  0.43052200  0.75000000  1
  S  S5  1  0.73721000  0.26279000  0.38632700  1
  S  S6  1  0.43052200  0.56947800  0.25000000  1
  S  S7  1  0.26279000  0.73721000  0.61367300  1
loop_
_geom_bond_atom_site_label_1
_geom_bond_atom_site_label_2
_geom_bond_distance
_geom_bond_site_symmetry_2
K0 S6 3.171883 1_565
K0 S6 3.171883 1_455
K0 S5 3.288625 1_455
K0 S2 3.288625 1_455
K0 S5 3.288625 1_565
K0 S2 3.288625 1_565
K1 S4 3.171883 1_655
K1 S4 3.171883 1_545
K1 S3 3.288625 1_545
K1 S7 3.288625 1_545
K1 S3 3.288625 1_655
K1 S7 3.288625 1_655
Cu0 S7 2.350409 1_555
Cu0 S3 2.350409 1_555
Cu0 S4 2.385599 1_565
Cu0 S4 2.385599 1_455
Cu1 S5 2.350409 1_555
Cu1 S2 2.350409 1_555
Cu1 S6 2.385599 1_655
Cu1 S6 2.385599 1_545
S0 Sm2 2.873493 1_555
S0 Sm2 2.873493 1_445
S0 Sm1 2.873493 1_555
S0 Sm1 2.873493 1_445
S1 Sm3 2.873493 1_555
S1 Sm3 2.873493 1_445
S1 Sm0 2.873493 1_554
S1 Sm0 2.873493 1_444
S2 Sm3 2.772476 1_655
S2 Sm3 2.772476 1_545
S2 Sm0 2.835760 1_554
S3 Sm0 2.772476 1_565
S3 Sm0 2.772476 1_455
S3 Sm3 2.835760 1_556
S4 Sm0 2.755913 1_555
S4 Sm2 2.755913 1_555
S5 Sm1 2.772476 1_655
S5 Sm1 2.772476 1_545
S5 Sm2 2.835760 1_555
S6 Sm1 2.755913 1_555
S6 Sm3 2.755913 1_555
S7 Sm2 2.772476 1_565
S7 Sm2 2.772476 1_455
S7 Sm1 2.835760 1_555
