# generated using pymatgen
data_CaAlPt
_symmetry_space_group_name_H-M   'P 1'
_cell_length_a   4.31422643
_cell_length_b   7.13327764
_cell_length_c   7.77178699
_cell_angle_alpha   90.00000000
_cell_angle_beta   90.00000000
_cell_angle_gamma   90.00000000
_symmetry_Int_Tables_number   1
_chemical_formula_structural   CaAlPt
_chemical_formula_sum   'Ca4 Al4 Pt4'
_cell_volume   239.17344104
_cell_formula_units_Z   4
loop_
 _symmetry_equiv_pos_site_id
 _symmetry_equiv_pos_as_xyz
  1  'x, y, z'
loop_
 _atom_site_type_symbol
 _atom_site_label
 _atom_site_symmetry_multiplicity
 _atom_site_fract_x
 _atom_site_fract_y
 _atom_site_fract_z
 _atom_site_occupancy
  Ca  Ca0  1  0.25000000  0.02275535  0.67583754  1
  Ca  Ca1  1  0.25000000  0.52275535  0.82416246  1
  Ca  Ca2  1  0.75000000  0.97724465  0.32416246  1
  Ca  Ca3  1  0.75000000  0.47724465  0.17583754  1
  Al  Al0  1  0.25000000  0.14210026  0.06322409  1
  Al  Al1  1  0.25000000  0.64210026  0.43677591  1
  Al  Al2  1  0.75000000  0.85789974  0.93677591  1
  Al  Al3  1  0.75000000  0.35789974  0.56322409  1
  Pt  Pt0  1  0.25000000  0.28752162  0.38083918  1
  Pt  Pt1  1  0.25000000  0.78752162  0.11916082  1
  Pt  Pt2  1  0.75000000  0.71247838  0.61916082  1
  Pt  Pt3  1  0.75000000  0.21247838  0.88083918  1
loop_
_geom_bond_atom_site_label_1
_geom_bond_atom_site_label_2
_geom_bond_distance
_geom_bond_site_symmetry_2
Ca0 Pt0 2.970406 1_555
Ca0 Pt3 3.003842 1_555
Ca0 Pt3 3.003842 1_455
Ca0 Pt2 3.121830 1_445
Ca0 Pt2 3.121830 1_545
Ca1 Pt1 2.970406 1_556
Ca1 Pt2 3.003842 1_455
Ca1 Pt2 3.003842 1_555
Ca1 Pt3 3.121830 1_455
Ca1 Pt3 3.121830 1_555
Ca2 Pt2 2.970406 1_555
Ca2 Pt1 3.003842 1_555
Ca2 Pt1 3.003842 1_655
Ca2 Pt0 3.121830 1_665
Ca2 Pt0 3.121830 1_565
Ca3 Pt3 2.970406 1_554
Ca3 Pt0 3.003842 1_555
Ca3 Pt0 3.003842 1_655
Ca3 Pt1 3.121830 1_555
Ca3 Pt1 3.121830 1_655
Al0 Pt1 2.566396 1_545
Al0 Pt3 2.629515 1_454
Al0 Pt3 2.629515 1_554
Al0 Pt0 2.677543 1_555
Al0 Ca0 3.128734 1_554
Al0 Ca2 3.185692 1_445
Al0 Ca2 3.185692 1_545
Al0 Ca1 3.290119 1_554
Al0 Ca3 3.336835 1_555
Al0 Ca3 3.336835 1_455
Al1 Pt0 2.566396 1_555
Al1 Pt2 2.629515 1_555
Al1 Pt2 2.629515 1_455
Al1 Pt1 2.677543 1_555
Al1 Ca1 3.128734 1_555
Al1 Ca3 3.185692 1_555
Al1 Ca3 3.185692 1_455
Al1 Ca0 3.290119 1_565
Al1 Ca2 3.336835 1_555
Al1 Ca2 3.336835 1_455
Al2 Pt3 2.566396 1_565
Al2 Pt1 2.629515 1_556
Al2 Pt1 2.629515 1_656
Al2 Pt2 2.677543 1_555
Al2 Ca2 3.128734 1_556
Al2 Ca0 3.185692 1_665
Al2 Ca0 3.185692 1_565
Al2 Ca3 3.290119 1_556
Al2 Ca1 3.336835 1_555
Al2 Ca1 3.336835 1_655
Al3 Pt2 2.566396 1_555
Al3 Pt0 2.629515 1_655
Al3 Pt0 2.629515 1_555
Al3 Pt3 2.677543 1_555
Al3 Ca3 3.128734 1_555
Al3 Ca1 3.185692 1_555
Al3 Ca1 3.185692 1_655
Al3 Ca2 3.290119 1_545
Al3 Ca0 3.336835 1_555
Al3 Ca0 3.336835 1_655
