# generated using pymatgen
data_RbMg30AlO32
_symmetry_space_group_name_H-M   'P 1'
_cell_length_a   8.60329800
_cell_length_b   8.60329800
_cell_length_c   8.61400000
_cell_angle_alpha   90.00000000
_cell_angle_beta   90.00000000
_cell_angle_gamma   90.00000000
_symmetry_Int_Tables_number   1
_chemical_formula_structural   RbMg30AlO32
_chemical_formula_sum   'Rb1 Mg30 Al1 O32'
_cell_volume   637.58016801
_cell_formula_units_Z   1
loop_
 _symmetry_equiv_pos_site_id
 _symmetry_equiv_pos_as_xyz
  1  'x, y, z'
loop_
 _atom_site_type_symbol
 _atom_site_label
 _atom_site_symmetry_multiplicity
 _atom_site_fract_x
 _atom_site_fract_y
 _atom_site_fract_z
 _atom_site_occupancy
  Rb  Rb0  1  0.50000000  0.50000000  0.00000000  1
  Mg  Mg0  1  0.00000000  0.50000000  0.00000000  1
  Mg  Mg1  1  0.50000000  0.00000000  0.00000000  1
  Mg  Mg2  1  0.00000000  0.00000000  0.50000000  1
  Mg  Mg3  1  0.00000000  0.50000000  0.50000000  1
  Mg  Mg4  1  0.50000000  0.00000000  0.50000000  1
  Mg  Mg5  1  0.50000000  0.50000000  0.50000000  1
  Mg  Mg6  1  0.24875400  0.24875400  0.00000000  1
  Mg  Mg7  1  0.24875400  0.75124600  0.00000000  1
  Mg  Mg8  1  0.75124600  0.24875400  0.00000000  1
  Mg  Mg9  1  0.75124600  0.75124600  0.00000000  1
  Mg  Mg10  1  0.25114200  0.25114200  0.50000000  1
  Mg  Mg11  1  0.25114200  0.74885800  0.50000000  1
  Mg  Mg12  1  0.74885800  0.25114200  0.50000000  1
  Mg  Mg13  1  0.74885800  0.74885800  0.50000000  1
  Mg  Mg14  1  0.00000000  0.25133700  0.25056600  1
  Mg  Mg15  1  0.00000000  0.74866300  0.25056600  1
  Mg  Mg16  1  0.50000000  0.24845300  0.25312300  1
  Mg  Mg17  1  0.50000000  0.75154700  0.25312300  1
  Mg  Mg18  1  0.00000000  0.25133700  0.74943400  1
  Mg  Mg19  1  0.00000000  0.74866300  0.74943400  1
  Mg  Mg20  1  0.50000000  0.24845300  0.74687700  1
  Mg  Mg21  1  0.50000000  0.75154700  0.74687700  1
  Mg  Mg22  1  0.25133700  0.00000000  0.25056600  1
  Mg  Mg23  1  0.24845300  0.50000000  0.25312300  1
  Mg  Mg24  1  0.74866300  0.00000000  0.25056600  1
  Mg  Mg25  1  0.75154700  0.50000000  0.25312300  1
  Mg  Mg26  1  0.25133700  0.00000000  0.74943400  1
  Mg  Mg27  1  0.24845300  0.50000000  0.74687700  1
  Mg  Mg28  1  0.74866300  0.00000000  0.74943400  1
  Mg  Mg29  1  0.75154700  0.50000000  0.74687700  1
  Al  Al0  1  0.00000000  0.00000000  0.00000000  1
  O  O0  1  0.00000000  0.00000000  0.23660800  1
  O  O1  1  0.00000000  0.50000000  0.25342000  1
  O  O2  1  0.50000000  0.00000000  0.25342000  1
  O  O3  1  0.50000000  0.50000000  0.27869600  1
  O  O4  1  0.00000000  0.00000000  0.76339200  1
  O  O5  1  0.00000000  0.50000000  0.74658000  1
  O  O6  1  0.50000000  0.00000000  0.74658000  1
  O  O7  1  0.50000000  0.50000000  0.72130400  1
  O  O8  1  0.24984200  0.24984200  0.24907300  1
  O  O9  1  0.24984200  0.75015800  0.24907300  1
  O  O10  1  0.75015800  0.24984200  0.24907300  1
  O  O11  1  0.75015800  0.75015800  0.24907300  1
  O  O12  1  0.24984200  0.24984200  0.75092700  1
  O  O13  1  0.24984200  0.75015800  0.75092700  1
  O  O14  1  0.75015800  0.24984200  0.75092700  1
  O  O15  1  0.75015800  0.75015800  0.75092700  1
  O  O16  1  0.00000000  0.22907700  0.00000000  1
  O  O17  1  0.00000000  0.77092300  0.00000000  1
  O  O18  1  0.50000000  0.21987000  0.00000000  1
  O  O19  1  0.50000000  0.78013000  0.00000000  1
  O  O20  1  0.00000000  0.24588900  0.50000000  1
  O  O21  1  0.00000000  0.75411100  0.50000000  1
  O  O22  1  0.50000000  0.24374600  0.50000000  1
  O  O23  1  0.50000000  0.75625400  0.50000000  1
  O  O24  1  0.22907700  0.00000000  0.00000000  1
  O  O25  1  0.21987000  0.50000000  0.00000000  1
  O  O26  1  0.77092300  0.00000000  0.00000000  1
  O  O27  1  0.78013000  0.50000000  0.00000000  1
  O  O28  1  0.24588900  0.00000000  0.50000000  1
  O  O29  1  0.24374600  0.50000000  0.50000000  1
  O  O30  1  0.75411100  0.00000000  0.50000000  1
  O  O31  1  0.75625400  0.50000000  0.50000000  1
loop_
_geom_bond_atom_site_label_1
_geom_bond_atom_site_label_2
_geom_bond_distance
_geom_bond_site_symmetry_2
Mg0 O27 1.891607 1_455
Mg0 O25 1.891607 1_555
Mg0 O5 2.182960 1_554
Mg0 O1 2.182960 1_555
Mg0 O17 2.330831 1_555
Mg0 O16 2.330831 1_555
Mg1 O19 1.891607 1_545
Mg1 O18 1.891607 1_555
Mg1 O6 2.182960 1_554
Mg1 O2 2.182960 1_555
Mg1 O26 2.330831 1_555
Mg1 O24 2.330831 1_555
Mg2 O20 2.115456 1_555
Mg2 O28 2.115456 1_555
Mg2 O30 2.115456 1_455
Mg2 O21 2.115456 1_545
Mg2 O4 2.268859 1_555
Mg2 O0 2.268859 1_555
Mg3 O29 2.097019 1_555
Mg3 O31 2.097019 1_455
Mg3 O1 2.124040 1_555
Mg3 O5 2.124040 1_555
Mg3 O20 2.186193 1_555
Mg3 O21 2.186193 1_555
Mg4 O22 2.097019 1_555
Mg4 O23 2.097019 1_545
Mg4 O2 2.124040 1_555
Mg4 O6 2.124040 1_555
Mg4 O28 2.186193 1_555
Mg4 O30 2.186193 1_555
Mg5 O7 1.906313 1_555
Mg5 O3 1.906313 1_555
Mg5 O31 2.204630 1_555
Mg5 O22 2.204630 1_555
Mg5 O23 2.204630 1_555
Mg5 O29 2.204630 1_555
Mg6 O12 2.145556 1_554
Mg6 O8 2.145556 1_555
Mg6 O24 2.146790 1_555
Mg6 O16 2.146790 1_555
Mg6 O25 2.175781 1_555
Mg6 O18 2.175781 1_555
Mg7 O13 2.145556 1_554
Mg7 O9 2.145556 1_555
Mg7 O17 2.146790 1_555
Mg7 O24 2.146790 1_565
Mg7 O25 2.175781 1_555
Mg7 O19 2.175781 1_555
Mg8 O10 2.145556 1_555
Mg8 O14 2.145556 1_554
Mg8 O26 2.146790 1_555
Mg8 O16 2.146790 1_655
Mg8 O18 2.175781 1_555
Mg8 O27 2.175781 1_555
Mg9 O15 2.145556 1_554
Mg9 O11 2.145556 1_555
Mg9 O17 2.146790 1_655
Mg9 O26 2.146790 1_565
Mg9 O19 2.175781 1_555
Mg9 O27 2.175781 1_555
Mg10 O22 2.141945 1_555
Mg10 O29 2.141945 1_555
Mg10 O20 2.161122 1_555
Mg10 O28 2.161122 1_555
Mg10 O12 2.161543 1_555
Mg10 O8 2.161543 1_555
Mg11 O29 2.141945 1_555
Mg11 O23 2.141945 1_555
Mg11 O21 2.161122 1_555
Mg11 O28 2.161122 1_565
Mg11 O13 2.161543 1_555
Mg11 O9 2.161543 1_555
Mg12 O22 2.141945 1_555
Mg12 O31 2.141945 1_555
Mg12 O30 2.161122 1_555
Mg12 O20 2.161122 1_655
Mg12 O10 2.161543 1_555
Mg12 O14 2.161543 1_555
Mg13 O31 2.141945 1_555
Mg13 O23 2.141945 1_555
Mg13 O30 2.161122 1_565
Mg13 O21 2.161122 1_655
Mg13 O11 2.161543 1_555
Mg13 O15 2.161543 1_555
Mg14 O1 2.139463 1_555
Mg14 O20 2.149136 1_555
Mg14 O8 2.149542 1_555
Mg14 O10 2.149542 1_455
Mg14 O0 2.165667 1_555
Mg14 O16 2.166855 1_555
Mg15 O1 2.139463 1_555
Mg15 O21 2.149136 1_555
Mg15 O9 2.149542 1_555
Mg15 O11 2.149542 1_455
Mg15 O0 2.165667 1_565
Mg15 O17 2.166855 1_555
Mg16 O22 2.126984 1_555
Mg16 O2 2.137517 1_555
Mg16 O10 2.152500 1_555
Mg16 O8 2.152500 1_555
Mg16 O3 2.175316 1_555
Mg16 O18 2.194225 1_555
Mg17 O23 2.126984 1_555
Mg17 O2 2.137517 1_565
Mg17 O11 2.152500 1_555
Mg17 O9 2.152500 1_555
Mg17 O3 2.175316 1_555
Mg17 O19 2.194225 1_555
Mg18 O5 2.139463 1_555
Mg18 O20 2.149136 1_555
Mg18 O12 2.149542 1_555
Mg18 O14 2.149542 1_455
Mg18 O4 2.165667 1_555
Mg18 O16 2.166855 1_556
Mg19 O5 2.139463 1_555
Mg19 O21 2.149136 1_555
Mg19 O13 2.149542 1_555
Mg19 O15 2.149542 1_455
Mg19 O4 2.165667 1_565
Mg19 O17 2.166855 1_556
Mg20 O22 2.126984 1_555
Mg20 O6 2.137517 1_555
Mg20 O14 2.152500 1_555
Mg20 O12 2.152500 1_555
Mg20 O7 2.175316 1_555
Mg20 O18 2.194225 1_556
Mg21 O23 2.126984 1_555
Mg21 O6 2.137517 1_565
Mg21 O15 2.152500 1_555
Mg21 O13 2.152500 1_555
Mg21 O7 2.175316 1_555
Mg21 O19 2.194225 1_556
Mg22 O2 2.139463 1_555
Mg22 O28 2.149136 1_555
Mg22 O8 2.149542 1_555
Mg22 O9 2.149542 1_545
Mg22 O0 2.165667 1_555
Mg22 O24 2.166855 1_555
Mg23 O29 2.126984 1_555
Mg23 O1 2.137517 1_555
Mg23 O9 2.152500 1_555
Mg23 O8 2.152500 1_555
Mg23 O3 2.175316 1_555
Mg23 O25 2.194225 1_555
Mg24 O2 2.139463 1_555
Mg24 O30 2.149136 1_555
Mg24 O10 2.149542 1_555
Mg24 O11 2.149542 1_545
Mg24 O0 2.165667 1_655
Mg24 O26 2.166855 1_555
Mg25 O31 2.126984 1_555
Mg25 O1 2.137517 1_655
Mg25 O11 2.152500 1_555
Mg25 O10 2.152500 1_555
Mg25 O3 2.175316 1_555
Mg25 O27 2.194225 1_555
Mg26 O6 2.139463 1_555
Mg26 O28 2.149136 1_555
Mg26 O12 2.149542 1_555
Mg26 O13 2.149542 1_545
Mg26 O4 2.165667 1_555
Mg26 O24 2.166855 1_556
Mg27 O29 2.126984 1_555
Mg27 O5 2.137517 1_555
Mg27 O13 2.152500 1_555
Mg27 O12 2.152500 1_555
Mg27 O7 2.175316 1_555
Mg27 O25 2.194225 1_556
Mg28 O6 2.139463 1_555
Mg28 O30 2.149136 1_555
Mg28 O14 2.149542 1_555
Mg28 O15 2.149542 1_545
Mg28 O4 2.165667 1_655
Mg28 O26 2.166855 1_556
Mg29 O31 2.126984 1_555
Mg29 O5 2.137517 1_655
Mg29 O15 2.152500 1_555
Mg29 O14 2.152500 1_555
Mg29 O7 2.175316 1_555
Mg29 O27 2.194225 1_556
Al0 O24 1.970818 1_555
Al0 O16 1.970818 1_555
Al0 O26 1.970818 1_455
Al0 O17 1.970818 1_545
Al0 O0 2.038141 1_555
Al0 O4 2.038141 1_554
O3 Rb0 2.400687 1_555
O7 Rb0 2.400687 1_556
O18 Rb0 2.410042 1_555
O19 Rb0 2.410042 1_555
O25 Rb0 2.410042 1_555
O27 Rb0 2.410042 1_555
