# generated using pymatgen
data_Te2Pd7
_symmetry_space_group_name_H-M   'P 1'
_cell_length_a   8.96253570
_cell_length_b   8.96253570
_cell_length_c   8.96253575
_cell_angle_alpha   60.09440653
_cell_angle_beta   60.09440653
_cell_angle_gamma   60.09440811
_symmetry_Int_Tables_number   1
_chemical_formula_structural   Te2Pd7
_chemical_formula_sum   'Te6 Pd21'
_cell_volume   510.15921563
_cell_formula_units_Z   3
loop_
 _symmetry_equiv_pos_site_id
 _symmetry_equiv_pos_as_xyz
  1  'x, y, z'
loop_
 _atom_site_type_symbol
 _atom_site_label
 _atom_site_symmetry_multiplicity
 _atom_site_fract_x
 _atom_site_fract_y
 _atom_site_fract_z
 _atom_site_occupancy
  Te  Te0  1  0.12800800  0.12800800  0.12800800  1
  Te  Te1  1  0.87199200  0.87199200  0.87199200  1
  Te  Te2  1  0.50000000  0.50000000  0.50000000  1
  Te  Te3  1  0.00000000  0.50000000  0.50000000  1
  Te  Te4  1  0.50000000  0.50000000  0.00000000  1
  Te  Te5  1  0.50000000  0.00000000  0.50000000  1
  Pd  Pd0  1  0.86439800  0.38407000  0.38407000  1
  Pd  Pd1  1  0.39112700  0.86511200  0.86511200  1
  Pd  Pd2  1  0.38407000  0.38407000  0.86439800  1
  Pd  Pd3  1  0.86511200  0.86511200  0.39112700  1
  Pd  Pd4  1  0.86511200  0.39112700  0.86511200  1
  Pd  Pd5  1  0.38407000  0.86439800  0.38407000  1
  Pd  Pd6  1  0.13560200  0.61593000  0.61593000  1
  Pd  Pd7  1  0.60887300  0.13488800  0.13488800  1
  Pd  Pd8  1  0.61593000  0.61593000  0.13560200  1
  Pd  Pd9  1  0.13488800  0.13488800  0.60887300  1
  Pd  Pd10  1  0.13488800  0.60887300  0.13488800  1
  Pd  Pd11  1  0.61593000  0.13560200  0.61593000  1
  Pd  Pd12  1  0.24266600  0.24266600  0.24266600  1
  Pd  Pd13  1  0.77927300  0.23759500  0.23759500  1
  Pd  Pd14  1  0.23759500  0.23759500  0.77927300  1
  Pd  Pd15  1  0.23759500  0.77927300  0.23759500  1
  Pd  Pd16  1  0.75733400  0.75733400  0.75733400  1
  Pd  Pd17  1  0.22072700  0.76240500  0.76240500  1
  Pd  Pd18  1  0.76240500  0.76240500  0.22072700  1
  Pd  Pd19  1  0.76240500  0.22072700  0.76240500  1
  Pd  Pd20  1  0.00000000  0.00000000  0.00000000  1
loop_
_geom_bond_atom_site_label_1
_geom_bond_atom_site_label_2
_geom_bond_distance
_geom_bond_site_symmetry_2
Pd0 Te2 2.671057 1_555
Pd0 Te3 2.689055 1_655
Pd0 Pd12 2.781898 1_655
Pd0 Pd13 2.782950 1_555
Pd0 Pd19 2.787534 1_555
Pd0 Pd18 2.787534 1_555
Pd0 Pd10 3.147886 1_655
Pd0 Pd9 3.147886 1_655
Pd0 Pd11 3.154777 1_555
Pd0 Pd8 3.154777 1_555
Pd0 Te0 3.248727 1_655
Pd1 Te5 2.677574 1_565
Pd1 Te4 2.677574 1_556
Pd1 Pd16 2.691895 1_555
Pd1 Pd15 2.746668 1_556
Pd1 Pd14 2.746668 1_565
Pd1 Pd17 2.770494 1_555
Pd1 Pd20 2.866573 1_566
Pd1 Pd11 3.147886 1_565
Pd1 Pd8 3.147886 1_556
Pd2 Te2 2.671057 1_555
Pd2 Te4 2.689055 1_556
Pd2 Pd7 3.147886 1_556
Pd2 Pd6 3.154777 1_555
Pd2 Te0 3.248727 1_556
Pd3 Te3 2.677574 1_655
Pd3 Te5 2.677574 1_565
Pd3 Pd6 3.147886 1_655
Pd4 Te3 2.677574 1_655
Pd4 Te4 2.677574 1_556
Pd4 Pd6 3.147886 1_655
Pd4 Pd8 3.147886 1_556
Pd5 Te2 2.671057 1_555
Pd5 Te5 2.689055 1_565
Pd5 Pd7 3.147886 1_565
Pd5 Pd9 3.147886 1_565
Pd5 Pd6 3.154777 1_555
Pd5 Pd8 3.154777 1_555
Pd5 Te0 3.248727 1_565
Pd6 Te2 2.671057 1_555
Pd6 Te3 2.689055 1_555
Pd6 Te1 3.248727 1_455
Pd7 Te5 2.677574 1_555
Pd7 Te4 2.677574 1_555
Pd8 Te2 2.671057 1_555
Pd8 Te4 2.689055 1_555
Pd8 Te1 3.248727 1_554
Pd9 Te3 2.677574 1_555
Pd9 Te5 2.677574 1_555
Pd10 Te3 2.677574 1_555
Pd10 Te4 2.677574 1_555
Pd10 Pd12 2.691895 1_555
Pd10 Pd17 2.746668 1_554
Pd10 Pd18 2.746668 1_455
Pd10 Pd15 2.770494 1_555
Pd10 Pd20 2.866573 1_565
Pd10 Pd2 3.147886 1_554
Pd11 Te2 2.671057 1_555
Pd11 Te5 2.689055 1_555
Pd11 Pd16 2.781898 1_545
Pd11 Pd19 2.782950 1_555
Pd11 Pd13 2.787534 1_555
Pd11 Pd14 2.787534 1_555
Pd11 Pd3 3.147886 1_545
Pd11 Pd2 3.154777 1_555
Pd11 Te1 3.248727 1_545
Pd12 Te0 2.515363 1_555
Pd12 Pd9 2.691895 1_555
Pd12 Pd7 2.691895 1_555
Pd12 Pd2 2.781898 1_554
Pd12 Pd5 2.781898 1_545
Pd13 Te0 2.556984 1_655
Pd13 Pd4 2.746668 1_554
Pd13 Pd3 2.746668 1_545
Pd13 Pd7 2.770494 1_555
Pd13 Pd8 2.787534 1_555
Pd13 Pd20 3.017136 1_655
Pd14 Te0 2.556984 1_556
Pd14 Pd4 2.746668 1_455
Pd14 Pd9 2.770494 1_555
Pd14 Pd2 2.782950 1_555
Pd14 Pd6 2.787534 1_555
Pd14 Pd20 3.017136 1_556
Pd15 Te0 2.556984 1_565
Pd15 Pd3 2.746668 1_455
Pd15 Pd5 2.782950 1_555
Pd15 Pd6 2.787534 1_555
Pd15 Pd8 2.787534 1_555
Pd15 Pd20 3.017136 1_565
Pd16 Te1 2.515363 1_555
Pd16 Pd3 2.691895 1_555
Pd16 Pd4 2.691895 1_555
Pd16 Pd8 2.781898 1_556
Pd16 Pd6 2.781898 1_655
Pd17 Te1 2.556984 1_455
Pd17 Pd9 2.746668 1_565
Pd17 Pd6 2.782950 1_555
Pd17 Pd5 2.787534 1_555
Pd17 Pd2 2.787534 1_555
Pd17 Pd20 3.017136 1_566
Pd18 Te1 2.556984 1_554
Pd18 Pd7 2.746668 1_565
Pd18 Pd3 2.770494 1_555
Pd18 Pd8 2.782950 1_555
Pd18 Pd5 2.787534 1_555
Pd18 Pd20 3.017136 1_665
Pd19 Te1 2.556984 1_545
Pd19 Pd7 2.746668 1_556
Pd19 Pd9 2.746668 1_655
Pd19 Pd4 2.770494 1_555
Pd19 Pd2 2.787534 1_555
Pd19 Pd20 3.017136 1_656
Pd20 Te0 2.808235 1_555
Pd20 Te1 2.808235 1_444
Pd20 Pd9 2.866573 1_554
Pd20 Pd3 2.866573 1_445
Pd20 Pd7 2.866573 1_455
Pd20 Pd4 2.866573 1_454
