# generated using pymatgen
data_Li4Co3NiO8
_symmetry_space_group_name_H-M   'P 1'
_cell_length_a   5.80051911
_cell_length_b   5.90510707
_cell_length_c   10.22656356
_cell_angle_alpha   107.13256162
_cell_angle_beta   89.99735334
_cell_angle_gamma   60.56357614
_symmetry_Int_Tables_number   1
_chemical_formula_structural   Li4Co3NiO8
_chemical_formula_sum   'Li8 Co6 Ni2 O16'
_cell_volume   287.08104154
_cell_formula_units_Z   2
loop_
 _symmetry_equiv_pos_site_id
 _symmetry_equiv_pos_as_xyz
  1  'x, y, z'
loop_
 _atom_site_type_symbol
 _atom_site_label
 _atom_site_symmetry_multiplicity
 _atom_site_fract_x
 _atom_site_fract_y
 _atom_site_fract_z
 _atom_site_occupancy
  Li  Li0  1  0.74975300  0.50036300  0.75032400  1
  Li  Li1  1  0.25026200  0.49961200  0.24967400  1
  Li  Li2  1  0.00000900  0.50000900  0.50004000  1
  Li  Li3  1  0.49998900  0.49996800  0.99996400  1
  Li  Li4  1  0.25149000  0.49701100  0.74363900  1
  Li  Li5  1  0.74853800  0.50292600  0.25634900  1
  Li  Li6  1  0.00002000  0.50002500  0.99996800  1
  Li  Li7  1  0.49998200  0.49999900  0.50003600  1
  Co  Co0  1  0.24904300  0.00213200  0.24989900  1
  Co  Co1  1  0.75091500  0.99784400  0.75012200  1
  Co  Co2  1  0.00001100  0.00000500  0.50000800  1
  Co  Co3  1  0.50003300  0.00001100  0.00000700  1
  Co  Co4  1  0.25122600  0.99772400  0.75004400  1
  Co  Co5  1  0.74877800  0.00229200  0.24991100  1
  Ni  Ni0  1  0.00004000  0.00007200  0.00004900  1
  Ni  Ni1  1  0.49990300  0.00000200  0.49998700  1
  O  O0  1  0.88011700  0.24005000  0.37179100  1
  O  O1  1  0.38731100  0.22538900  0.88019600  1
  O  O2  1  0.61254700  0.77452300  0.11982300  1
  O  O3  1  0.11994000  0.75983800  0.62819800  1
  O  O4  1  0.84262700  0.77826900  0.88383500  1
  O  O5  1  0.35579500  0.76883200  0.37712500  1
  O  O6  1  0.12404900  0.23125100  0.62269900  1
  O  O7  1  0.62083500  0.22176400  0.11617600  1
  O  O8  1  0.88962400  0.22061400  0.86447100  1
  O  O9  1  0.38672400  0.22660000  0.36226000  1
  O  O10  1  0.61335200  0.77337700  0.63772300  1
  O  O11  1  0.11019500  0.77962700  0.13545700  1
  O  O12  1  0.37916500  0.77826500  0.88385000  1
  O  O13  1  0.87592600  0.76866000  0.37726800  1
  O  O14  1  0.64431600  0.23108900  0.62285000  1
  O  O15  1  0.15749900  0.22186300  0.11625700  1
loop_
_geom_bond_atom_site_label_1
_geom_bond_atom_site_label_2
_geom_bond_distance
_geom_bond_site_symmetry_2
Li0 O6 2.080636 1_655
Li0 O14 2.082434 1_555
Li0 O12 2.095376 1_555
Li0 O10 2.095519 1_555
Li0 O4 2.096768 1_555
Li0 O8 2.137450 1_555
Li1 O13 2.080638 1_455
Li1 O5 2.082482 1_555
Li1 O7 2.095172 1_555
Li1 O15 2.095286 1_555
Li1 O9 2.095391 1_555
Li1 O11 2.139178 1_555
Li2 O3 2.102439 1_555
Li2 O0 2.103207 1_455
Li2 O6 2.158811 1_555
Li2 O13 2.159256 1_455
Li2 O10 2.172677 1_455
Li2 O9 2.173338 1_555
Li3 O2 2.104029 1_556
Li3 O1 2.104285 1_555
Li3 O12 2.149327 1_555
Li3 O7 2.149679 1_556
Li3 O8 2.176609 1_555
Li3 O11 2.177332 1_556
Li4 O3 2.073717 1_555
Li4 O14 2.126891 1_555
Li4 O6 2.129734 1_555
Li4 O4 2.272381 1_455
Li4 O12 2.273509 1_555
Li4 O1 2.285024 1_555
Li5 O0 2.073938 1_555
Li5 O5 2.126498 1_555
Li5 O13 2.129325 1_555
Li5 O15 2.272291 1_655
Li5 O7 2.273076 1_555
Li5 O2 2.284660 1_555
Li6 O1 2.103682 1_555
Li6 O2 2.104651 1_456
Li6 O4 2.149185 1_455
Li6 O15 2.150103 1_556
Li6 O11 2.178003 1_556
Li6 O8 2.178084 1_455
Li7 O3 2.102839 1_555
Li7 O0 2.103578 1_555
Li7 O14 2.160633 1_555
Li7 O5 2.161077 1_555
Li7 O10 2.173811 1_555
Li7 O9 2.173855 1_555
Co0 O9 1.964266 1_555
Co0 O11 1.969513 1_545
Co0 O0 2.029763 1_455
Co0 O2 2.045153 1_545
Co0 O5 2.047397 1_545
Co0 O15 2.049649 1_555
Co1 O10 1.963907 1_555
Co1 O8 1.969626 1_565
Co1 O3 2.030303 1_655
Co1 O1 2.045570 1_565
Co1 O14 2.047583 1_565
Co1 O4 2.049572 1_555
Co2 O6 1.978120 1_555
Co2 O13 1.978927 1_445
Co2 O14 1.979788 1_455
Co2 O5 1.980327 1_545
Co2 O0 2.082885 1_455
Co2 O3 2.083162 1_545
Co3 O4 1.897544 1_544
Co3 O15 1.897629 1_555
Co3 O7 1.898029 1_555
Co3 O12 1.898219 1_544
Co3 O1 1.950768 1_554
Co3 O2 1.951267 1_545
Co4 O10 1.963335 1_555
Co4 O8 1.969760 1_465
Co4 O3 2.031302 1_555
Co4 O1 2.047188 1_565
Co4 O6 2.049411 1_565
Co4 O12 2.049925 1_555
Co5 O9 1.963142 1_555
Co5 O11 1.969120 1_645
Co5 O0 2.031139 1_555
Co5 O2 2.047891 1_545
Co5 O7 2.049357 1_555
Co5 O13 2.049932 1_545
Ni0 O12 2.053134 1_544
Ni0 O7 2.053238 1_455
Ni0 O4 2.054300 1_444
Ni0 O15 2.054430 1_555
Ni0 O11 2.065175 1_545
Ni0 O8 2.067050 1_454
Ni1 O5 2.062043 1_545
Ni1 O14 2.063007 1_555
Ni1 O6 2.063124 1_555
Ni1 O13 2.063851 1_545
Ni1 O9 2.110043 1_555
Ni1 O10 2.110230 1_545
