# generated using pymatgen
data_BaLiTbSbO6
_symmetry_space_group_name_H-M   'P 1'
_cell_length_a   8.44277228
_cell_length_b   8.48405174
_cell_length_c   8.49732421
_cell_angle_alpha   90.00000000
_cell_angle_beta   90.00000000
_cell_angle_gamma   90.00000000
_symmetry_Int_Tables_number   1
_chemical_formula_structural   BaLiTbSbO6
_chemical_formula_sum   'Ba4 Li4 Tb4 Sb4 O24'
_cell_volume   608.65412931
_cell_formula_units_Z   4
loop_
 _symmetry_equiv_pos_site_id
 _symmetry_equiv_pos_as_xyz
  1  'x, y, z'
loop_
 _atom_site_type_symbol
 _atom_site_label
 _atom_site_symmetry_multiplicity
 _atom_site_fract_x
 _atom_site_fract_y
 _atom_site_fract_z
 _atom_site_occupancy
  Ba  Ba0  1  0.00000000  -0.00000000  -0.00000000  1
  Ba  Ba1  1  0.50000000  0.50000000  0.50000000  1
  Ba  Ba2  1  0.50000000  0.50000000  -0.00000000  1
  Ba  Ba3  1  -0.00000000  0.00000000  0.50000000  1
  Li  Li0  1  -0.00000000  0.50000000  0.50000000  1
  Li  Li1  1  0.50000000  -0.00000000  0.50000000  1
  Li  Li2  1  0.50000000  0.00000000  -0.00000000  1
  Li  Li3  1  -0.00000000  0.50000000  -0.00000000  1
  Tb  Tb0  1  0.25000000  0.25000000  0.25000000  1
  Tb  Tb1  1  0.75000000  0.75000000  0.25000000  1
  Tb  Tb2  1  0.75000000  0.25000000  0.75000000  1
  Tb  Tb3  1  0.25000000  0.75000000  0.75000000  1
  Sb  Sb0  1  0.75000000  0.75000000  0.75000000  1
  Sb  Sb1  1  0.25000000  0.25000000  0.75000000  1
  Sb  Sb2  1  0.25000000  0.75000000  0.25000000  1
  Sb  Sb3  1  0.75000000  0.25000000  0.25000000  1
  O  O0  1  0.98577410  0.23373090  0.26133559  1
  O  O1  1  0.01422590  0.76626910  0.26133559  1
  O  O2  1  0.01422590  0.23373090  0.73866441  1
  O  O3  1  0.98577410  0.76626910  0.73866441  1
  O  O4  1  0.25655432  0.98575763  0.23590739  1
  O  O5  1  0.25655432  0.01424237  0.76409261  1
  O  O6  1  0.74344568  0.01424237  0.23590739  1
  O  O7  1  0.74344568  0.98575763  0.76409261  1
  O  O8  1  0.23624515  0.26406440  0.98562834  1
  O  O9  1  0.76375485  0.26406440  0.01437166  1
  O  O10  1  0.23624515  0.73593560  0.01437166  1
  O  O11  1  0.76375485  0.73593560  0.98562834  1
  O  O12  1  0.51422590  0.26626910  0.23866441  1
  O  O13  1  0.48577410  0.73373090  0.23866441  1
  O  O14  1  0.48577410  0.26626910  0.76133559  1
  O  O15  1  0.51422590  0.73373090  0.76133559  1
  O  O16  1  0.24344568  0.51424237  0.26409261  1
  O  O17  1  0.24344568  0.48575763  0.73590739  1
  O  O18  1  0.75655432  0.48575763  0.26409261  1
  O  O19  1  0.75655432  0.51424237  0.73590739  1
  O  O20  1  0.26375485  0.23593560  0.51437166  1
  O  O21  1  0.73624515  0.23593560  0.48562834  1
  O  O22  1  0.26375485  0.76406440  0.48562834  1
  O  O23  1  0.73624515  0.76406440  0.51437166  1
loop_
_geom_bond_atom_site_label_1
_geom_bond_atom_site_label_2
_geom_bond_distance
_geom_bond_site_symmetry_2
Ba0 O6 2.953749 1_455
Ba0 O4 2.953749 1_545
Ba0 O5 2.953749 1_554
Ba0 O7 2.953749 1_444
Ba0 O3 2.979590 1_444
Ba0 O2 2.979590 1_554
Ba0 O1 2.979590 1_545
Ba0 O0 2.979590 1_455
Ba0 O8 3.002050 1_554
Ba0 O10 3.002050 1_545
Ba0 O11 3.002050 1_444
Ba0 O9 3.002050 1_455
Ba1 O18 2.953749 1_555
Ba1 O16 2.953749 1_555
Ba1 O17 2.953749 1_555
Ba1 O19 2.953749 1_555
Ba1 O15 2.979590 1_555
Ba1 O14 2.979590 1_555
Ba1 O12 2.979590 1_555
Ba1 O13 2.979590 1_555
Ba1 O22 3.002050 1_555
Ba1 O21 3.002050 1_555
Ba1 O20 3.002050 1_555
Ba1 O23 3.002050 1_555
Ba2 O13 2.838921 1_555
Ba2 O12 2.838921 1_555
Ba2 O15 2.838921 1_554
Ba2 O14 2.838921 1_554
Ba2 O11 2.996734 1_554
Ba2 O8 2.996734 1_554
Ba2 O10 2.996734 1_555
Ba2 O9 2.996734 1_555
Ba2 O17 3.121247 1_554
Ba2 O19 3.121247 1_554
Ba2 O16 3.121247 1_555
Ba2 O18 3.121247 1_555
Ba3 O0 2.838921 1_455
Ba3 O1 2.838921 1_545
Ba3 O3 2.838921 1_445
Ba3 O2 2.838921 1_555
Ba3 O21 2.996734 1_455
Ba3 O20 2.996734 1_555
Ba3 O22 2.996734 1_545
Ba3 O23 2.996734 1_445
Ba3 O7 3.121247 1_445
Ba3 O5 3.121247 1_555
Ba3 O4 3.121247 1_545
Ba3 O6 3.121247 1_455
O0 Sb3 1.997690 1_555
O0 Tb0 2.237140 1_655
O1 Sb2 1.997690 1_555
O1 Tb1 2.237140 1_455
O2 Sb1 1.997690 1_555
O2 Tb2 2.237140 1_455
O3 Sb0 1.997690 1_555
O3 Tb3 2.237140 1_655
O4 Sb2 2.004525 1_555
O4 Tb0 2.245724 1_565
O5 Sb1 2.004525 1_555
O5 Tb3 2.245724 1_545
O6 Sb3 2.004525 1_555
O6 Tb1 2.245724 1_545
O7 Sb0 2.004525 1_555
O7 Tb2 2.245724 1_565
O8 Sb1 2.009122 1_555
O8 Tb0 2.252614 1_556
O9 Sb3 2.009122 1_555
O9 Tb2 2.252614 1_554
O10 Sb2 2.009122 1_555
O10 Tb3 2.252614 1_554
O11 Sb0 2.009122 1_555
O11 Tb1 2.252614 1_556
O12 Sb3 1.997690 1_555
O12 Tb0 2.237140 1_555
O13 Sb2 1.997690 1_555
O13 Tb1 2.237140 1_555
O14 Sb1 1.997690 1_555
O14 Tb2 2.237140 1_555
O15 Sb0 1.997690 1_555
O15 Tb3 2.237140 1_555
O16 Sb2 2.004525 1_555
O16 Tb0 2.245724 1_555
O17 Sb1 2.004525 1_555
O17 Tb3 2.245724 1_555
O18 Sb3 2.004525 1_555
O18 Tb1 2.245724 1_555
O19 Sb0 2.004525 1_555
O19 Tb2 2.245724 1_555
O20 Sb1 2.009122 1_555
O20 Tb0 2.252614 1_555
O21 Sb3 2.009122 1_555
O21 Tb2 2.252614 1_555
O22 Sb2 2.009122 1_555
O22 Tb3 2.252614 1_555
O23 Sb0 2.009122 1_555
O23 Tb1 2.252614 1_555
