# generated using pymatgen
data_Tm8S11
_symmetry_space_group_name_H-M   'P 1'
_cell_length_a   3.73356550
_cell_length_b   6.58726283
_cell_length_c   34.93992449
_cell_angle_alpha   90.00000000
_cell_angle_beta   90.00000000
_cell_angle_gamma   106.46280145
_symmetry_Int_Tables_number   1
_chemical_formula_structural   Tm8S11
_chemical_formula_sum   'Tm16 S22'
_cell_volume   824.08330195
_cell_formula_units_Z   2
loop_
 _symmetry_equiv_pos_site_id
 _symmetry_equiv_pos_as_xyz
  1  'x, y, z'
loop_
 _atom_site_type_symbol
 _atom_site_label
 _atom_site_symmetry_multiplicity
 _atom_site_fract_x
 _atom_site_fract_y
 _atom_site_fract_z
 _atom_site_occupancy
  Tm  Tm0  1  0.01884439  0.03769077  0.63294021  1
  Tm  Tm1  1  0.98115561  0.96230923  0.36705979  1
  Tm  Tm2  1  0.98115561  0.96230923  0.13294021  1
  Tm  Tm3  1  0.01884439  0.03769077  0.86705979  1
  Tm  Tm4  1  0.23955089  0.47910178  0.18278181  1
  Tm  Tm5  1  0.76044911  0.52089822  0.81721819  1
  Tm  Tm6  1  0.76044911  0.52089822  0.68278181  1
  Tm  Tm7  1  0.23955089  0.47910178  0.31721819  1
  Tm  Tm8  1  0.25734178  0.51468455  0.55789894  1
  Tm  Tm9  1  0.74265822  0.48531545  0.44210106  1
  Tm  Tm10  1  0.74265822  0.48531545  0.05789894  1
  Tm  Tm11  1  0.25734178  0.51468455  0.94210106  1
  Tm  Tm12  1  0.48951745  0.97903590  0.25000000  1
  Tm  Tm13  1  0.51048255  0.02096410  0.75000000  1
  Tm  Tm14  1  -0.00000000  -0.00000000  0.50000000  1
  Tm  Tm15  1  -0.00000000  -0.00000000  0.00000000  1
  S  S0  1  0.39693655  0.79387210  0.83719539  1
  S  S1  1  0.60306345  0.20612790  0.16280461  1
  S  S2  1  0.60306345  0.20612790  0.33719539  1
  S  S3  1  0.39693655  0.79387210  0.66280461  1
  S  S4  1  0.33491712  0.66983425  0.11173866  1
  S  S5  1  0.66508288  0.33016575  0.88826134  1
  S  S6  1  0.66508288  0.33016575  0.61173866  1
  S  S7  1  0.33491712  0.66983425  0.38826134  1
  S  S8  1  0.35344259  0.70688418  0.01616680  1
  S  S9  1  0.64655741  0.29311582  0.98383320  1
  S  S10  1  0.64655741  0.29311582  0.51616680  1
  S  S11  1  0.35344259  0.70688418  0.48383320  1
  S  S12  1  0.11488601  0.22977103  0.79670555  1
  S  S13  1  0.88511399  0.77022897  0.20329445  1
  S  S14  1  0.88511399  0.77022897  0.29670555  1
  S  S15  1  0.11488601  0.22977103  0.70329445  1
  S  S16  1  0.85735413  0.71470827  0.75000000  1
  S  S17  1  0.14264587  0.28529173  0.25000000  1
  S  S18  1  0.08981044  0.17962188  0.43157901  1
  S  S19  1  0.91018956  0.82037812  0.56842099  1
  S  S20  1  0.91018956  0.82037812  0.93157901  1
  S  S21  1  0.08981044  0.17962188  0.06842099  1
loop_
_geom_bond_atom_site_label_1
_geom_bond_atom_site_label_2
_geom_bond_distance
_geom_bond_site_symmetry_2
S0 Tm5 2.635479 1_555
S0 Tm5 2.635481 1_455
S0 Tm3 2.635536 1_665
S0 Tm3 2.635543 1_565
S0 Tm13 3.367464 1_565
S1 Tm4 2.635479 1_555
S1 Tm4 2.635481 1_655
S1 Tm2 2.635536 1_445
S1 Tm2 2.635543 1_545
S1 Tm12 3.367464 1_545
S2 Tm7 2.635479 1_555
S2 Tm7 2.635481 1_655
S2 Tm1 2.635536 1_445
S2 Tm1 2.635543 1_545
S2 Tm12 3.367464 1_545
S3 Tm6 2.635479 1_555
S3 Tm6 2.635481 1_455
S3 Tm0 2.635536 1_665
S3 Tm0 2.635543 1_565
S3 Tm13 3.367464 1_565
S4 Tm2 2.728982 1_455
S4 Tm2 2.728987 1_555
S4 Tm4 2.759222 1_555
S4 Tm10 2.895228 1_455
S4 Tm10 2.895230 1_555
S5 Tm3 2.728982 1_655
S5 Tm3 2.728987 1_555
S5 Tm5 2.759222 1_555
S5 Tm11 2.895228 1_655
S5 Tm11 2.895230 1_555
S6 Tm0 2.728982 1_655
S6 Tm0 2.728987 1_555
S6 Tm6 2.759222 1_555
S6 Tm8 2.895228 1_655
S6 Tm8 2.895230 1_555
S7 Tm1 2.728982 1_455
S7 Tm1 2.728987 1_555
S7 Tm7 2.759222 1_555
S7 Tm9 2.895228 1_455
S7 Tm9 2.895230 1_555
S8 Tm15 2.689357 1_665
S8 Tm15 2.689360 1_565
S8 Tm10 2.751388 1_555
S8 Tm10 2.751388 1_455
S8 Tm11 2.858526 1_554
S9 Tm15 2.689357 1_556
S9 Tm15 2.689360 1_656
S9 Tm11 2.751388 1_555
S9 Tm11 2.751388 1_655
S9 Tm10 2.858526 1_556
S10 Tm14 2.689357 1_555
S10 Tm14 2.689360 1_655
S10 Tm8 2.751388 1_555
S10 Tm8 2.751388 1_655
S10 Tm9 2.858526 1_555
S11 Tm14 2.689357 1_665
S11 Tm14 2.689360 1_565
S11 Tm9 2.751388 1_555
S11 Tm9 2.751388 1_455
S11 Tm8 2.858526 1_555
S12 Tm5 2.716777 1_555
S12 Tm5 2.716779 1_455
S12 Tm3 2.741346 1_555
S12 Tm13 2.808541 1_455
S12 Tm13 2.808541 1_555
S13 Tm4 2.716777 1_555
S13 Tm4 2.716779 1_655
S13 Tm2 2.741346 1_555
S13 Tm12 2.808541 1_655
S13 Tm12 2.808541 1_555
S14 Tm7 2.716777 1_555
S14 Tm7 2.716779 1_655
S14 Tm1 2.741346 1_555
S14 Tm12 2.808541 1_655
S14 Tm12 2.808541 1_555
S15 Tm6 2.716777 1_555
S15 Tm6 2.716779 1_455
S15 Tm0 2.741346 1_555
S15 Tm13 2.808541 1_455
S15 Tm13 2.808541 1_555
S16 Tm6 2.648570 1_555
S16 Tm5 2.648570 1_555
S16 Tm13 2.688469 1_565
S16 Tm13 2.688472 1_665
S17 Tm4 2.648570 1_555
S17 Tm7 2.648570 1_555
S17 Tm12 2.688469 1_545
S17 Tm12 2.688472 1_445
S18 Tm1 2.639405 1_445
S18 Tm14 2.646252 1_555
S18 Tm9 2.710957 1_455
S18 Tm9 2.710962 1_555
S19 Tm0 2.639405 1_665
S19 Tm14 2.646252 1_665
S19 Tm8 2.710957 1_655
S19 Tm8 2.710962 1_555
S20 Tm3 2.639405 1_665
S20 Tm15 2.646252 1_666
S20 Tm11 2.710957 1_655
S20 Tm11 2.710962 1_555
S21 Tm2 2.639405 1_445
S21 Tm15 2.646252 1_555
S21 Tm10 2.710957 1_455
S21 Tm10 2.710962 1_555
