# generated using pymatgen
data_RbSr2I5
_symmetry_space_group_name_H-M   'P 1'
_cell_length_a   9.15189610
_cell_length_b   10.13243247
_cell_length_c   14.49495817
_cell_angle_alpha   89.78482906
_cell_angle_beta   90.00000000
_cell_angle_gamma   90.00000000
_symmetry_Int_Tables_number   1
_chemical_formula_structural   RbSr2I5
_chemical_formula_sum   'Rb4 Sr8 I20'
_cell_volume   1344.12204217
_cell_formula_units_Z   4
loop_
 _symmetry_equiv_pos_site_id
 _symmetry_equiv_pos_as_xyz
  1  'x, y, z'
loop_
 _atom_site_type_symbol
 _atom_site_label
 _atom_site_symmetry_multiplicity
 _atom_site_fract_x
 _atom_site_fract_y
 _atom_site_fract_z
 _atom_site_occupancy
  Rb  Rb0  1  0.45499293  0.49436565  0.82960525  1
  Rb  Rb1  1  0.54500707  0.50563435  0.17039475  1
  Rb  Rb2  1  0.95499293  0.50563435  0.67039475  1
  Rb  Rb3  1  0.04500707  0.49436565  0.32960525  1
  Sr  Sr0  1  0.47703656  0.99702745  0.81989979  1
  Sr  Sr1  1  0.52296344  0.00297255  0.18010021  1
  Sr  Sr2  1  0.97703656  0.00297255  0.68010021  1
  Sr  Sr3  1  0.02296344  0.99702745  0.31989979  1
  Sr  Sr4  1  0.42664334  0.75151171  0.50594512  1
  Sr  Sr5  1  0.57335666  0.24848829  0.49405488  1
  Sr  Sr6  1  0.92664334  0.24848829  0.99405488  1
  Sr  Sr7  1  0.07335666  0.75151171  0.00594512  1
  I  I0  1  0.32859488  0.46133163  0.58451868  1
  I  I1  1  0.67140512  0.53866837  0.41548132  1
  I  I2  1  0.82859488  0.53866837  0.91548132  1
  I  I3  1  0.17140512  0.46133163  0.08451868  1
  I  I4  1  0.66578367  0.78201894  0.68184615  1
  I  I5  1  0.33421633  0.21798106  0.31815385  1
  I  I6  1  0.16578367  0.21798106  0.81815385  1
  I  I7  1  0.83421633  0.78201894  0.18184615  1
  I  I8  1  0.19194758  0.77075395  0.78316602  1
  I  I9  1  0.80805242  0.22924605  0.21683398  1
  I  I10  1  0.69194758  0.22924605  0.71683398  1
  I  I11  1  0.30805242  0.77075395  0.28316602  1
  I  I12  1  0.04365900  0.78436635  0.50274030  1
  I  I13  1  0.95634100  0.21563365  0.49725970  1
  I  I14  1  0.54365900  0.21563365  0.99725970  1
  I  I15  1  0.45634100  0.78436635  0.00274030  1
  I  I16  1  0.83992211  0.95825986  0.90064831  1
  I  I17  1  0.16007789  0.04174014  0.09935169  1
  I  I18  1  0.33992211  0.04174014  0.59935169  1
  I  I19  1  0.66007789  0.95825986  0.40064831  1
loop_
_geom_bond_atom_site_label_1
_geom_bond_atom_site_label_2
_geom_bond_distance
_geom_bond_site_symmetry_2
I0 Sr4 3.274468 1_555
I0 Sr5 3.377785 1_555
I0 Rb2 3.666859 1_455
I0 Rb0 3.752267 1_555
I1 Sr5 3.274468 1_555
I1 Sr4 3.377785 1_555
I1 Rb3 3.666859 1_655
I1 Rb1 3.752267 1_555
I2 Sr6 3.274468 1_555
I2 Sr7 3.377785 1_656
I2 Rb0 3.666859 1_555
I2 Rb2 3.752267 1_555
I3 Sr7 3.274468 1_555
I3 Sr6 3.377785 1_454
I3 Rb1 3.666859 1_555
I3 Rb3 3.752267 1_555
I4 Sr4 3.375240 1_555
I4 Sr0 3.430318 1_555
I4 Sr2 3.623077 1_565
I4 Rb2 3.857353 1_555
I4 Rb0 4.093516 1_555
I5 Sr5 3.375240 1_555
I5 Sr1 3.430318 1_555
I5 Sr3 3.623077 1_545
I5 Rb3 3.857353 1_555
I5 Rb1 4.093516 1_555
I6 Sr6 3.375240 1_455
I6 Sr2 3.430318 1_455
I6 Sr0 3.623077 1_545
I6 Rb0 3.857353 1_555
I6 Rb2 4.093516 1_455
I7 Sr7 3.375240 1_655
I7 Sr3 3.430318 1_655
I7 Sr1 3.623077 1_565
I7 Rb1 3.857353 1_555
I7 Rb3 4.093516 1_655
I8 Sr2 3.407379 1_465
I8 Sr7 3.411568 1_556
I8 Sr0 3.515193 1_555
I8 Rb0 3.751942 1_555
I8 Rb2 3.824127 1_455
I9 Sr3 3.407379 1_645
I9 Sr6 3.411568 1_554
I9 Sr1 3.515193 1_555
I9 Rb1 3.751942 1_555
I9 Rb3 3.824127 1_655
I10 Sr0 3.407379 1_545
I10 Sr5 3.411568 1_555
I10 Sr2 3.515193 1_555
I10 Rb2 3.751942 1_555
I10 Rb0 3.824127 1_555
I11 Sr1 3.407379 1_565
I11 Sr4 3.411568 1_555
I11 Sr3 3.515193 1_555
I11 Rb3 3.751942 1_555
I11 Rb1 3.824127 1_555
I12 Sr3 3.414666 1_555
I12 Sr2 3.453976 1_465
I12 Sr4 3.521096 1_555
I12 Rb2 3.806418 1_455
I12 Rb3 3.871411 1_555
I13 Sr2 3.414666 1_555
I13 Sr3 3.453976 1_645
I13 Sr5 3.521096 1_555
I13 Rb3 3.806418 1_655
I13 Rb2 3.871411 1_555
I14 Sr1 3.414666 1_556
I14 Sr0 3.453976 1_545
I14 Sr6 3.521096 1_555
I14 Rb0 3.806418 1_555
I14 Rb1 3.871411 1_556
I15 Sr0 3.414666 1_554
I15 Sr1 3.453976 1_565
I15 Sr7 3.521096 1_555
I15 Rb1 3.806418 1_555
I15 Rb0 3.871411 1_554
I16 Sr6 3.337776 1_565
I16 Sr7 3.355296 1_656
I16 Sr2 3.462484 1_565
I16 Sr0 3.542659 1_555
I17 Sr7 3.337776 1_545
I17 Sr6 3.355296 1_454
I17 Sr3 3.462484 1_545
I17 Sr1 3.542659 1_555
I18 Sr4 3.337776 1_545
I18 Sr5 3.355296 1_555
I18 Sr0 3.462484 1_545
I18 Sr2 3.542659 1_455
I19 Sr5 3.337776 1_565
I19 Sr4 3.355296 1_555
I19 Sr1 3.462484 1_565
I19 Sr3 3.542659 1_655
