# generated using pymatgen
data_Li7Mn5O12
_symmetry_space_group_name_H-M   'P 1'
_cell_length_a   5.25155399
_cell_length_b   17.18084800
_cell_length_c   5.29309835
_cell_angle_alpha   89.99990832
_cell_angle_beta   67.11970750
_cell_angle_gamma   90.00007112
_symmetry_Int_Tables_number   1
_chemical_formula_structural   Li7Mn5O12
_chemical_formula_sum   'Li14 Mn10 O24'
_cell_volume   439.99983501
_cell_formula_units_Z   2
loop_
 _symmetry_equiv_pos_site_id
 _symmetry_equiv_pos_as_xyz
  1  'x, y, z'
loop_
 _atom_site_type_symbol
 _atom_site_label
 _atom_site_symmetry_multiplicity
 _atom_site_fract_x
 _atom_site_fract_y
 _atom_site_fract_z
 _atom_site_occupancy
  Li  Li0  1  0.49999900  0.16666400  0.50000200  1
  Li  Li1  1  0.50000100  0.66666400  0.50000000  1
  Li  Li2  1  0.49999900  0.41666600  0.00000100  1
  Li  Li3  1  0.49999800  0.91666200  0.00000400  1
  Li  Li4  1  0.00000000  0.41666800  0.50000200  1
  Li  Li5  1  0.00000100  0.91666500  0.49999700  1
  Li  Li6  1  0.50000000  0.08243600  0.00000100  1
  Li  Li7  1  0.50000100  0.58243200  0.00000100  1
  Li  Li8  1  0.49999900  0.25089800  0.00000100  1
  Li  Li9  1  0.49999900  0.75090200  0.00000300  1
  Li  Li10  1  0.49999900  0.33620500  0.50000300  1
  Li  Li11  1  0.50000100  0.83620500  0.49999800  1
  Li  Li12  1  0.50000000  0.49712600  0.50000200  1
  Li  Li13  1  0.50000100  0.99712900  0.50000000  1
  Mn  Mn0  1  0.99999900  0.66667800  0.00000500  1
  Mn  Mn1  1  0.99999700  0.99922900  0.99999800  1
  Mn  Mn2  1  0.99999800  0.33412600  0.00000400  1
  Mn  Mn3  1  0.00001200  0.08173100  0.49999700  1
  Mn  Mn4  1  0.99999600  0.25159200  0.50000400  1
  Mn  Mn5  1  0.00000500  0.16667700  0.99999700  1
  Mn  Mn6  1  0.00000000  0.49922800  0.00000400  1
  Mn  Mn7  1  0.99999400  0.83413300  0.99998600  1
  Mn  Mn8  1  0.00000400  0.58173500  0.49999800  1
  Mn  Mn9  1  0.00000200  0.75158900  0.49998900  1
  O  O0  1  0.23189000  0.16665600  0.27657300  1
  O  O1  1  0.23190800  0.66665500  0.27658000  1
  O  O2  1  0.76811100  0.16665600  0.72343100  1
  O  O3  1  0.76809000  0.66665600  0.72342200  1
  O  O4  1  0.23579500  0.41666700  0.78051100  1
  O  O5  1  0.23580600  0.91666900  0.78049800  1
  O  O6  1  0.76420300  0.41666700  0.21949400  1
  O  O7  1  0.76419900  0.91666800  0.21949500  1
  O  O8  1  0.23585800  0.08172000  0.77671100  1
  O  O9  1  0.23587100  0.58171700  0.77671000  1
  O  O10  1  0.23583600  0.25161200  0.77671300  1
  O  O11  1  0.23584400  0.75161900  0.77671200  1
  O  O12  1  0.76414400  0.08171900  0.22328900  1
  O  O13  1  0.76413000  0.58171600  0.22329000  1
  O  O14  1  0.76415700  0.25161200  0.22329400  1
  O  O15  1  0.76415700  0.75161800  0.22328200  1
  O  O16  1  0.20995800  0.32997500  0.23713100  1
  O  O17  1  0.20994900  0.82997500  0.23713700  1
  O  O18  1  0.20996600  0.00335400  0.23712500  1
  O  O19  1  0.20995700  0.50335800  0.23713200  1
  O  O20  1  0.79004000  0.32997600  0.76287300  1
  O  O21  1  0.79004300  0.82997500  0.76285900  1
  O  O22  1  0.79003800  0.00335400  0.76287600  1
  O  O23  1  0.79004300  0.50335900  0.76286700  1
loop_
_geom_bond_atom_site_label_1
_geom_bond_atom_site_label_2
_geom_bond_distance
_geom_bond_site_symmetry_2
Li0 O8 2.149274 1_555
Li0 O12 2.149308 1_555
Li0 O14 2.149352 1_555
Li0 O10 2.149374 1_555
Li0 O0 2.162379 1_555
Li0 O2 2.162392 1_555
Li1 O9 2.149289 1_555
Li1 O13 2.149304 1_555
Li1 O15 2.149441 1_555
Li1 O11 2.149446 1_555
Li1 O3 2.162258 1_555
Li1 O1 2.162268 1_555
Li2 O4 2.127985 1_554
Li2 O6 2.127997 1_555
Li2 O20 2.151076 1_554
Li2 O16 2.151086 1_555
Li2 O19 2.151107 1_555
Li2 O23 2.151124 1_554
Li3 O7 2.127975 1_555
Li3 O5 2.127998 1_554
Li3 O17 2.151063 1_555
Li3 O18 2.151066 1_565
Li3 O21 2.151078 1_554
Li3 O22 2.151092 1_564
Li4 O19 2.043785 1_555
Li4 O23 2.043790 1_455
Li4 O20 2.043817 1_455
Li4 O16 2.043832 1_555
Li4 O4 2.273230 1_555
Li4 O6 2.273234 1_455
Li5 O17 2.043752 1_555
Li5 O21 2.043766 1_455
Li5 O18 2.043789 1_565
Li5 O22 2.043809 1_465
Li5 O7 2.273227 1_455
Li5 O5 2.273235 1_555
Li6 O18 2.062697 1_555
Li6 O22 2.062715 1_554
Li6 O8 2.143854 1_554
Li6 O12 2.143854 1_555
Li6 O2 2.148582 1_554
Li6 O0 2.148590 1_555
Li7 O23 2.062639 1_554
Li7 O19 2.062645 1_555
Li7 O13 2.143791 1_555
Li7 O9 2.143804 1_554
Li7 O3 2.148604 1_554
Li7 O1 2.148606 1_555
Li8 O16 2.062675 1_555
Li8 O20 2.062677 1_554
Li8 O14 2.143939 1_555
Li8 O10 2.143940 1_554
Li8 O0 2.148837 1_555
Li8 O2 2.148844 1_554
Li9 O21 2.062656 1_554
Li9 O17 2.062660 1_555
Li9 O15 2.143879 1_555
Li9 O11 2.143917 1_554
Li9 O1 2.148870 1_555
Li9 O3 2.148873 1_554
Li10 O6 2.106824 1_555
Li10 O4 2.106827 1_555
Li10 O14 2.145223 1_555
Li10 O10 2.145230 1_555
Li10 O20 2.432178 1_555
Li10 O16 2.432188 1_555
Li11 O7 2.106809 1_555
Li11 O5 2.106813 1_555
Li11 O11 2.145145 1_555
Li11 O15 2.145165 1_555
Li11 O21 2.432145 1_555
Li11 O17 2.432189 1_555
Li12 O6 2.106792 1_555
Li12 O4 2.106793 1_555
Li12 O13 2.145133 1_555
Li12 O9 2.145139 1_555
Li12 O23 2.432169 1_555
Li12 O19 2.432190 1_555
Li13 O5 2.106758 1_555
Li13 O7 2.106797 1_555
Li13 O12 2.145157 1_565
Li13 O8 2.145174 1_565
Li13 O18 2.432170 1_565
Li13 O22 2.432184 1_565
Mn0 O15 1.980443 1_555
Mn0 O11 1.980487 1_654
Mn0 O13 1.980787 1_555
Mn0 O9 1.980804 1_654
Mn0 O1 2.238921 1_655
Mn0 O3 2.238958 1_554
Mn1 O7 1.943328 1_556
Mn1 O5 1.943349 1_655
Mn1 O12 1.949683 1_566
Mn1 O8 1.949699 1_665
Mn1 O22 1.967794 1_565
Mn1 O18 1.967859 1_666
Mn2 O6 1.943063 1_555
Mn2 O4 1.943068 1_654
Mn2 O14 1.949950 1_555
Mn2 O10 1.949951 1_654
Mn2 O16 1.967837 1_655
Mn2 O20 1.967846 1_554
Mn3 O18 1.942172 1_555
Mn3 O22 1.942216 1_455
Mn3 O0 1.972431 1_555
Mn3 O2 1.972501 1_455
Mn3 O8 2.256093 1_555
Mn3 O12 2.256158 1_455
Mn4 O20 1.942250 1_555
Mn4 O16 1.942253 1_655
Mn4 O2 1.972590 1_555
Mn4 O0 1.972621 1_655
Mn4 O10 2.256045 1_655
Mn4 O14 2.256045 1_555
Mn5 O10 1.980365 1_555
Mn5 O14 1.980429 1_456
Mn5 O8 1.980698 1_555
Mn5 O12 1.980733 1_456
Mn5 O2 2.238817 1_455
Mn5 O0 2.238825 1_556
Mn6 O6 1.943313 1_455
Mn6 O4 1.943319 1_554
Mn6 O13 1.949684 1_455
Mn6 O9 1.949709 1_554
Mn6 O19 1.967816 1_555
Mn6 O23 1.967857 1_454
Mn7 O7 1.943023 1_556
Mn7 O5 1.943028 1_655
Mn7 O11 1.949944 1_655
Mn7 O15 1.949966 1_556
Mn7 O21 1.967803 1_555
Mn7 O17 1.967929 1_656
Mn8 O19 1.942155 1_555
Mn8 O23 1.942158 1_455
Mn8 O1 1.972408 1_555
Mn8 O3 1.972458 1_455
Mn8 O9 2.256172 1_555
Mn8 O13 2.256183 1_455
Mn9 O17 1.942211 1_555
Mn9 O21 1.942281 1_455
Mn9 O1 1.972578 1_555
Mn9 O3 1.972618 1_455
Mn9 O15 2.256057 1_455
Mn9 O11 2.256117 1_555
