# generated using pymatgen
data_Mg(SbO2)2
_symmetry_space_group_name_H-M   'P 1'
_cell_length_a   3.28920655
_cell_length_b   10.37445837
_cell_length_c   6.85273408
_cell_angle_alpha   71.31589096
_cell_angle_beta   76.11332642
_cell_angle_gamma   80.89807595
_symmetry_Int_Tables_number   1
_chemical_formula_structural   Mg(SbO2)2
_chemical_formula_sum   'Mg2 Sb4 O8'
_cell_volume   214.20070144
_cell_formula_units_Z   2
loop_
 _symmetry_equiv_pos_site_id
 _symmetry_equiv_pos_as_xyz
  1  'x, y, z'
loop_
 _atom_site_type_symbol
 _atom_site_label
 _atom_site_symmetry_multiplicity
 _atom_site_fract_x
 _atom_site_fract_y
 _atom_site_fract_z
 _atom_site_occupancy
  Mg  Mg0  1  0.25846000  0.23598100  0.25622400  1
  Mg  Mg1  1  0.74385500  0.74212100  0.77686100  1
  Sb  Sb0  1  0.62041600  0.09242000  0.67586000  1
  Sb  Sb1  1  0.11804100  0.57785800  0.19154100  1
  Sb  Sb2  1  0.88402500  0.40024400  0.84157000  1
  Sb  Sb3  1  0.38218600  0.88569400  0.35715400  1
  O  O0  1  0.89893200  0.75491300  0.45419200  1
  O  O1  1  0.40706500  0.26639200  0.92846900  1
  O  O2  1  0.59513200  0.71169000  0.10464000  1
  O  O3  1  0.10355900  0.22319000  0.57883100  1
  O  O4  1  0.23066600  0.88248200  0.66339400  1
  O  O5  1  0.73665500  0.38281500  0.15286500  1
  O  O6  1  0.77177000  0.09567200  0.36958400  1
  O  O7  1  0.26554800  0.59533000  0.88025600  1
loop_
_geom_bond_atom_site_label_1
_geom_bond_atom_site_label_2
_geom_bond_distance
_geom_bond_site_symmetry_2
Mg0 O1 2.109708 1_554
Mg0 O3 2.111241 1_555
Mg0 O6 2.168057 1_555
Mg0 O6 2.168131 1_455
Mg0 O5 2.197308 1_555
Mg0 O5 2.198410 1_455
Mg1 O2 2.109834 1_556
Mg1 O0 2.111650 1_555
Mg1 O4 2.168231 1_555
Mg1 O4 2.168771 1_655
Mg1 O7 2.197252 1_555
Mg1 O7 2.197997 1_655
O0 Sb3 2.099174 1_655
O0 Sb3 2.099246 1_555
O1 Sb2 2.109212 1_455
O1 Sb2 2.110720 1_555
O2 Sb1 2.108789 1_655
O2 Sb1 2.110912 1_555
O3 Sb0 2.098817 1_455
O3 Sb0 2.099466 1_555
O4 Sb3 2.027795 1_555
O5 Sb2 2.025475 1_554
O5 Sb1 2.654167 1_655
O5 Sb1 2.662139 1_555
O6 Sb0 2.027920 1_555
O7 Sb1 2.025315 1_556
O7 Sb2 2.654864 1_455
O7 Sb2 2.662169 1_555
