# generated using pymatgen
data_Ca(CO2)2
_symmetry_space_group_name_H-M   'P 1'
_cell_length_a   7.35071600
_cell_length_b   6.19941500
_cell_length_c   9.86833403
_cell_angle_alpha   72.58848437
_cell_angle_beta   90.00000000
_cell_angle_gamma   90.00000000
_symmetry_Int_Tables_number   1
_chemical_formula_structural   Ca(CO2)2
_chemical_formula_sum   'Ca4 C8 O16'
_cell_volume   429.09613047
_cell_formula_units_Z   4
loop_
 _symmetry_equiv_pos_site_id
 _symmetry_equiv_pos_as_xyz
  1  'x, y, z'
loop_
 _atom_site_type_symbol
 _atom_site_label
 _atom_site_symmetry_multiplicity
 _atom_site_fract_x
 _atom_site_fract_y
 _atom_site_fract_z
 _atom_site_occupancy
  Ca  Ca0  1  0.00000000  0.39911800  0.69925400  1
  Ca  Ca1  1  0.50000000  0.51878000  0.19058100  1
  Ca  Ca2  1  0.00000000  0.60088200  0.30074600  1
  Ca  Ca3  1  0.50000000  0.48122000  0.80941900  1
  C  C0  1  0.00000000  0.92342500  0.45085200  1
  C  C1  1  0.89321500  0.50000000  0.00000000  1
  C  C2  1  0.60636600  0.50000000  0.50000000  1
  C  C3  1  0.39363400  0.50000000  0.50000000  1
  C  C4  1  0.50000000  0.01187100  0.92931400  1
  C  C5  1  0.10678500  0.50000000  0.00000000  1
  C  C6  1  0.00000000  0.07657500  0.54914800  1
  C  C7  1  0.50000000  0.98812900  0.07068600  1
  O  O0  1  0.00000000  0.00530500  0.31750000  1
  O  O1  1  0.68292200  0.54281000  0.38001600  1
  O  O2  1  0.00000000  0.28806000  0.48636800  1
  O  O3  1  0.31707800  0.45719000  0.61998400  1
  O  O4  1  0.68292200  0.45719000  0.61998400  1
  O  O5  1  0.81509800  0.54807000  0.10185600  1
  O  O6  1  0.00000000  0.99469500  0.68250000  1
  O  O7  1  0.50000000  0.82871100  0.88627800  1
  O  O8  1  0.18490200  0.45193000  0.89814400  1
  O  O9  1  0.81509800  0.45193000  0.89814400  1
  O  O10  1  0.50000000  0.86893100  0.73425400  1
  O  O11  1  0.31707800  0.54281000  0.38001600  1
  O  O12  1  0.50000000  0.17128900  0.11372200  1
  O  O13  1  0.18490200  0.54807000  0.10185600  1
  O  O14  1  0.50000000  0.13106900  0.26574600  1
  O  O15  1  0.00000000  0.71194000  0.51363200  1
loop_
_geom_bond_atom_site_label_1
_geom_bond_atom_site_label_2
_geom_bond_distance
_geom_bond_site_symmetry_2
Ca0 O15 2.233913 1_555
Ca0 O2 2.398570 1_555
Ca0 O4 2.450592 1_455
Ca0 O3 2.450592 1_555
Ca0 O8 2.488238 1_555
Ca0 O9 2.488238 1_455
Ca0 O6 2.561522 1_545
Ca1 O14 2.293560 1_555
Ca1 O11 2.343398 1_555
Ca1 O1 2.343398 1_555
Ca1 O13 2.463576 1_555
Ca1 O5 2.463576 1_555
Ca1 O12 2.488751 1_555
Ca1 O7 3.042445 1_554
Ca2 O2 2.233913 1_555
Ca2 O15 2.398570 1_555
Ca2 O1 2.450592 1_455
Ca2 O11 2.450592 1_555
Ca2 O5 2.488238 1_455
Ca2 O13 2.488238 1_555
Ca2 O0 2.561522 1_565
Ca3 O10 2.293560 1_555
Ca3 O3 2.343398 1_555
Ca3 O4 2.343398 1_555
Ca3 O8 2.463576 1_555
Ca3 O9 2.463576 1_555
Ca3 O7 2.488751 1_555
Ca3 O12 3.042445 1_556
C0 O0 1.260814 1_565
C0 O15 1.271476 1_555
C1 O9 1.268117 1_554
C1 O5 1.268117 1_555
C2 O1 1.265309 1_555
C2 O4 1.265309 1_555
C3 O3 1.265309 1_555
C3 O11 1.265309 1_555
C4 O7 1.326005 1_545
C4 Ca3 2.793898 1_555
C5 O8 1.268117 1_554
C5 O13 1.268117 1_555
C6 O6 1.260814 1_545
C6 O2 1.271476 1_555
C7 O12 1.326005 1_565
C7 Ca1 2.793898 1_555
O10 O7 1.445329 1_555
O12 O14 1.445329 1_555
