# generated using pymatgen
data_KPrGdFeO6
_symmetry_space_group_name_H-M   'P 1'
_cell_length_a   5.76285238
_cell_length_b   5.76285238
_cell_length_c   5.76285238
_cell_angle_alpha   60.00000000
_cell_angle_beta   60.00000000
_cell_angle_gamma   60.00000000
_symmetry_Int_Tables_number   1
_chemical_formula_structural   KPrGdFeO6
_chemical_formula_sum   'K1 Pr1 Gd1 Fe1 O6'
_cell_volume   135.33106139
_cell_formula_units_Z   1
loop_
 _symmetry_equiv_pos_site_id
 _symmetry_equiv_pos_as_xyz
  1  'x, y, z'
loop_
 _atom_site_type_symbol
 _atom_site_label
 _atom_site_symmetry_multiplicity
 _atom_site_fract_x
 _atom_site_fract_y
 _atom_site_fract_z
 _atom_site_occupancy
  K  K0  1  0.75000000  0.75000000  0.75000000  1
  Pr  Pr0  1  0.25000000  0.25000000  0.25000000  1
  Gd  Gd0  1  0.50000000  0.50000000  0.50000000  1
  Fe  Fe0  1  -0.00000000  -0.00000000  -0.00000000  1
  O  O0  1  0.76901177  0.23098823  0.23098823  1
  O  O1  1  0.23098823  0.76901177  0.76901177  1
  O  O2  1  0.76901177  0.23098823  0.76901177  1
  O  O3  1  0.23098823  0.76901177  0.23098823  1
  O  O4  1  0.76901177  0.76901177  0.23098823  1
  O  O5  1  0.23098823  0.23098823  0.76901177  1
loop_
_geom_bond_atom_site_label_1
_geom_bond_atom_site_label_2
_geom_bond_distance
_geom_bond_site_symmetry_2
K0 O1 2.885589 1_655
K0 O2 2.885589 1_565
K0 O4 2.885589 1_556
K0 O1 2.885589 1_555
K0 O3 2.885589 1_655
K0 O4 2.885589 1_555
K0 O0 2.885589 1_565
K0 O5 2.885589 1_655
K0 O5 2.885589 1_565
K0 O3 2.885589 1_556
K0 O0 2.885589 1_556
K0 O2 2.885589 1_555
Gd0 O1 2.192420 1_555
Gd0 O5 2.192420 1_555
Gd0 O0 2.192420 1_555
Gd0 O3 2.192420 1_555
Gd0 O2 2.192420 1_555
Gd0 O4 2.192420 1_555
Fe0 O3 1.882532 1_545
Fe0 O2 1.882532 1_454
Fe0 O4 1.882532 1_445
Fe0 O1 1.882532 1_544
Fe0 O5 1.882532 1_554
Fe0 O0 1.882532 1_455
O0 Pr0 2.885589 1_655
O0 Pr0 2.885589 1_555
O1 Pr0 2.885589 1_556
O1 Pr0 2.885589 1_565
O2 Pr0 2.885589 1_655
O2 Pr0 2.885589 1_556
O3 Pr0 2.885589 1_565
O3 Pr0 2.885589 1_555
O4 Pr0 2.885589 1_655
O4 Pr0 2.885589 1_565
O5 Pr0 2.885589 1_556
O5 Pr0 2.885589 1_555
