# generated using pymatgen
data_Ba20Ga5Ru7O44
_symmetry_space_group_name_H-M   'P 1'
_cell_length_a   5.89772500
_cell_length_b   11.26774517
_cell_length_c   19.09295495
_cell_angle_alpha   90.23340675
_cell_angle_beta   90.00000000
_cell_angle_gamma   90.00000000
_symmetry_Int_Tables_number   1
_chemical_formula_structural   Ba20Ga5Ru7O44
_chemical_formula_sum   'Ba20 Ga5 Ru7 O44'
_cell_volume   1268.79389153
_cell_formula_units_Z   1
loop_
 _symmetry_equiv_pos_site_id
 _symmetry_equiv_pos_as_xyz
  1  'x, y, z'
loop_
 _atom_site_type_symbol
 _atom_site_label
 _atom_site_symmetry_multiplicity
 _atom_site_fract_x
 _atom_site_fract_y
 _atom_site_fract_z
 _atom_site_occupancy
  Ba  Ba0  1  0.25000000  0.12967700  0.74530800  1
  Ba  Ba1  1  0.25000000  0.36920700  0.25335100  1
  Ba  Ba2  1  0.75000000  0.86985700  0.24999400  1
  Ba  Ba3  1  0.75000000  0.62976400  0.74895800  1
  Ba  Ba4  1  0.25000000  0.45101700  0.66723900  1
  Ba  Ba5  1  0.25000000  0.04767500  0.17078500  1
  Ba  Ba6  1  0.75000000  0.54540900  0.33006000  1
  Ba  Ba7  1  0.75000000  0.95538700  0.83016300  1
  Ba  Ba8  1  0.25000000  0.89267700  0.97346200  1
  Ba  Ba9  1  0.25000000  0.59879700  0.47325900  1
  Ba  Ba10  1  0.75000000  0.10495600  0.02649600  1
  Ba  Ba11  1  0.75000000  0.38467100  0.52542200  1
  Ba  Ba12  1  0.25000000  0.81579600  0.63652900  1
  Ba  Ba13  1  0.25000000  0.69081700  0.13795800  1
  Ba  Ba14  1  0.75000000  0.19221100  0.36367700  1
  Ba  Ba15  1  0.75000000  0.30815800  0.86177900  1
  Ba  Ba16  1  0.25000000  0.52812400  0.93268800  1
  Ba  Ba17  1  0.25000000  0.98057300  0.43782700  1
  Ba  Ba18  1  0.75000000  0.47332100  0.06759100  1
  Ba  Ba19  1  0.75000000  0.03642400  0.56705500  1
  Ga  Ga0  1  0.25000000  0.76150000  0.80991000  1
  Ga  Ga1  1  0.25000000  0.73887200  0.31156900  1
  Ga  Ga2  1  0.75000000  0.23809600  0.18840600  1
  Ga  Ga3  1  0.75000000  0.26355500  0.68930700  1
  Ga  Ga4  1  0.25000000  0.19786200  0.56757000  1
  Ru  Ru0  1  0.25000000  0.20893900  0.93626000  1
  Ru  Ru1  1  0.25000000  0.29328600  0.43311300  1
  Ru  Ru2  1  0.75000000  0.79312000  0.06758600  1
  Ru  Ru3  1  0.75000000  0.70644300  0.56664300  1
  Ru  Ru4  1  0.25000000  0.29440600  0.05915200  1
  Ru  Ru5  1  0.75000000  0.79616200  0.43815500  1
  Ru  Ru6  1  0.75000000  0.70340500  0.93758200  1
  O  O0  1  0.25000000  0.03391900  0.59088700  1
  O  O1  1  0.25000000  0.45672500  0.08874200  1
  O  O2  1  0.75000000  0.95767400  0.40983500  1
  O  O3  1  0.75000000  0.53884400  0.91244800  1
  O  O4  1  0.25000000  0.30637300  0.85250200  1
  O  O5  1  0.25000000  0.19023800  0.34944100  1
  O  O6  1  0.75000000  0.69071200  0.15063500  1
  O  O7  1  0.75000000  0.80831100  0.64883000  1
  O  O8  1  0.25000000  0.90986900  0.77112200  1
  O  O9  1  0.25000000  0.59115200  0.27057300  1
  O  O10  1  0.75000000  0.08975800  0.22790800  1
  O  O11  1  0.75000000  0.41082900  0.73198300  1
  O  O12  1  0.25000000  0.63680700  0.74903200  1
  O  O13  1  0.25000000  0.86041400  0.24873500  1
  O  O14  1  0.75000000  0.36158200  0.25038900  1
  O  O15  1  0.75000000  0.14054200  0.75252200  1
  O  O16  1  0.25000000  0.37648100  0.52759600  1
  O  O17  1  0.25000000  0.11758600  0.03023400  1
  O  O18  1  0.75000000  0.62198600  0.47092300  1
  O  O19  1  0.75000000  0.87949800  0.97062800  1
  O  O20  1  0.01351700  0.32389400  0.98407100  1
  O  O21  1  0.47876800  0.18295100  0.48277000  1
  O  O22  1  0.51738900  0.67902200  0.01485500  1
  O  O23  1  0.97884100  0.81935400  0.51443400  1
  O  O24  1  0.98261100  0.67902200  0.01485500  1
  O  O25  1  0.52115900  0.81935400  0.51443400  1
  O  O26  1  0.48648300  0.32389400  0.98407100  1
  O  O27  1  0.02123200  0.18295100  0.48277000  1
  O  O28  1  0.01559900  0.10674900  0.90209700  1
  O  O29  1  0.48596700  0.39695800  0.39918800  1
  O  O30  1  0.51098500  0.89421000  0.09962300  1
  O  O31  1  0.98538400  0.60642500  0.59950900  1
  O  O32  1  0.98901500  0.89421000  0.09962300  1
  O  O33  1  0.51461600  0.60642500  0.59950900  1
  O  O34  1  0.48440100  0.10674900  0.90209700  1
  O  O35  1  0.01403300  0.39695800  0.39918800  1
  O  O36  1  0.00587200  0.24959600  0.63295800  1
  O  O37  1  0.49051300  0.25159400  0.13207800  1
  O  O38  1  0.51083500  0.75096700  0.36688000  1
  O  O39  1  0.99110400  0.74854900  0.86662800  1
  O  O40  1  0.98916500  0.75096700  0.36688000  1
  O  O41  1  0.50889600  0.74854900  0.86662800  1
  O  O42  1  0.49412800  0.24959600  0.63295800  1
  O  O43  1  0.00948700  0.25159400  0.13207800  1
loop_
_geom_bond_atom_site_label_1
_geom_bond_atom_site_label_2
_geom_bond_distance
_geom_bond_site_symmetry_2
Ba0 O8 2.527272 1_545
Ba0 O4 2.849477 1_555
Ba0 O36 2.919564 1_555
Ba0 O42 2.919564 1_555
Ba0 O15 2.954592 1_555
Ba0 O15 2.954592 1_455
Ba0 O0 3.135452 1_555
Ba0 O34 3.308413 1_555
Ba0 O28 3.308413 1_555
Ba1 O9 2.521016 1_555
Ba1 O5 2.731783 1_555
Ba1 O14 2.950649 1_455
Ba1 O14 2.950649 1_555
Ba1 O37 3.017397 1_555
Ba1 O43 3.017397 1_555
Ba1 O29 3.127401 1_555
Ba1 O35 3.127401 1_555
Ba1 O1 3.297780 1_555
Ba2 O10 2.515108 1_565
Ba2 O6 2.764455 1_555
Ba2 O13 2.950876 1_555
Ba2 O13 2.950876 1_655
Ba2 O40 2.964628 1_555
Ba2 O38 2.964628 1_555
Ba2 O2 3.204406 1_555
Ba2 O32 3.211169 1_555
Ba2 O30 3.211169 1_555
Ba3 O11 2.486794 1_555
Ba3 O7 2.780919 1_555
Ba3 O12 2.949930 1_655
Ba3 O12 2.949930 1_555
Ba3 O41 2.972612 1_555
Ba3 O39 2.972612 1_555
Ba3 O31 3.183119 1_555
Ba3 O33 3.183119 1_555
Ba3 O3 3.289284 1_555
Ba4 O12 2.606654 1_555
Ba4 O33 2.681911 1_555
Ba4 O31 2.681911 1_455
Ba4 O36 2.764096 1_555
Ba4 O42 2.764096 1_555
Ba4 O16 2.792081 1_555
Ba4 O11 3.230090 1_555
Ba4 O11 3.230090 1_455
Ba5 O13 2.587035 1_545
Ba5 O30 2.680717 1_545
Ba5 O32 2.680717 1_445
Ba5 O17 2.799841 1_555
Ba5 O43 2.802061 1_555
Ba5 O37 2.802061 1_555
Ba5 O10 3.178983 1_455
Ba5 O10 3.178983 1_555
Ba6 O14 2.564876 1_555
Ba6 O35 2.642502 1_655
Ba6 O29 2.642502 1_555
Ba6 O40 2.799144 1_555
Ba6 O38 2.799144 1_555
Ba6 O18 2.821164 1_555
Ba6 O9 3.202533 1_555
Ba6 O9 3.202533 1_655
Ba7 O15 2.564226 1_565
Ba7 O34 2.688809 1_565
Ba7 O28 2.688809 1_665
Ba7 O19 2.818230 1_555
Ba7 O39 2.819862 1_555
Ba7 O41 2.819862 1_555
Ba7 O8 3.197634 1_655
Ba7 O8 3.197634 1_555
Ba8 O17 2.752238 1_566
Ba8 O32 2.858566 1_456
Ba8 O30 2.858566 1_556
Ba8 O19 2.953084 1_455
Ba8 O19 2.953084 1_555
Ba8 O24 2.987074 1_456
Ba8 O22 2.987074 1_556
Ba8 O41 3.017032 1_555
Ba8 O39 3.017032 1_455
Ba8 O28 3.100445 1_565
Ba8 O34 3.100445 1_565
Ba9 O16 2.715237 1_555
Ba9 O33 2.872580 1_555
Ba9 O31 2.872580 1_455
Ba9 O18 2.960768 1_455
Ba9 O18 2.960768 1_555
Ba9 O29 3.013785 1_555
Ba9 O35 3.013785 1_555
Ba9 O23 3.055445 1_455
Ba9 O25 3.055445 1_555
Ba9 O38 3.075722 1_555
Ba9 O40 3.075722 1_455
Ba10 O19 2.751252 1_544
Ba10 O28 2.845314 1_654
Ba10 O34 2.845314 1_554
Ba10 O17 2.953143 1_655
Ba10 O17 2.953143 1_555
Ba10 O37 3.018063 1_555
Ba10 O43 3.018063 1_655
Ba10 O26 3.028791 1_554
Ba10 O20 3.028791 1_654
Ba10 O30 3.098773 1_545
Ba10 O32 3.098773 1_545
Ba11 O35 2.873275 1_655
Ba11 O29 2.873275 1_555
Ba11 O18 2.873275 1_555
Ba11 O21 2.893645 1_555
Ba11 O27 2.893645 1_655
Ba11 O16 2.950603 1_655
Ba11 O16 2.950603 1_555
Ba11 O42 2.972328 1_555
Ba11 O36 2.972328 1_655
Ba11 O33 3.184752 1_555
Ba11 O31 3.184752 1_555
Ba12 O0 2.611018 1_565
Ba12 O8 2.775815 1_555
Ba12 O25 2.827394 1_555
Ba12 O23 2.827394 1_455
Ba12 O33 2.913266 1_555
Ba12 O31 2.913266 1_455
Ba12 O12 2.952415 1_555
Ba12 O7 2.959430 1_455
Ba12 O7 2.959430 1_555
Ba13 O9 2.774055 1_555
Ba13 O1 2.796463 1_555
Ba13 O24 2.833088 1_455
Ba13 O22 2.833088 1_555
Ba13 O13 2.844711 1_555
Ba13 O30 2.858467 1_555
Ba13 O32 2.858467 1_455
Ba13 O6 2.958780 1_555
Ba13 O6 2.958780 1_455
Ba14 O21 2.782452 1_555
Ba14 O27 2.782452 1_655
Ba14 O2 2.789181 1_545
Ba14 O10 2.833365 1_555
Ba14 O35 2.862556 1_655
Ba14 O29 2.862556 1_555
Ba14 O14 2.890383 1_555
Ba14 O5 2.961438 1_555
Ba14 O5 2.961438 1_655
Ba15 O11 2.739184 1_555
Ba15 O3 2.769807 1_555
Ba15 O15 2.808287 1_555
Ba15 O26 2.809854 1_555
Ba15 O20 2.809854 1_655
Ba15 O28 2.865450 1_655
Ba15 O34 2.865450 1_555
Ba15 O4 2.954241 1_655
Ba15 O4 2.954241 1_555
Ba16 O22 2.795939 1_556
Ba16 O24 2.795939 1_456
Ba16 O26 2.867343 1_555
Ba16 O20 2.867343 1_555
Ba16 O4 2.925052 1_555
Ba16 O3 2.976592 1_455
Ba16 O3 2.976592 1_555
Ba16 O1 3.089396 1_556
Ba16 O41 3.180644 1_555
Ba16 O39 3.180644 1_455
Ba17 O27 2.782215 1_565
Ba17 O21 2.782215 1_565
Ba17 O23 2.831688 1_455
Ba17 O25 2.831688 1_555
Ba17 O5 2.908863 1_565
Ba17 O0 2.981146 1_565
Ba17 O2 3.007803 1_455
Ba17 O2 3.007803 1_555
Ba17 O38 3.296381 1_555
Ba17 O40 3.296381 1_455
Ba18 O26 2.787698 1_554
Ba18 O20 2.787698 1_654
Ba18 O24 2.878717 1_555
Ba18 O22 2.878717 1_555
Ba18 O6 2.912460 1_555
Ba18 O1 2.982358 1_655
Ba18 O1 2.982358 1_555
Ba18 O3 3.055677 1_554
Ba18 O43 3.181969 1_655
Ba18 O37 3.181969 1_555
Ba19 O27 2.810002 1_655
Ba19 O21 2.810002 1_555
Ba19 O25 2.965348 1_545
Ba19 O23 2.965348 1_545
Ba19 O0 2.983913 1_555
Ba19 O0 2.983913 1_655
Ba19 O7 3.012802 1_545
Ba19 O42 3.099253 1_555
Ba19 O36 3.099253 1_655
Ba19 O2 3.126729 1_545
Ga0 O12 1.819830 1_555
Ga0 O8 1.831230 1_555
Ga0 O39 1.877951 1_455
Ga0 O41 1.877951 1_555
Ga1 O13 1.824329 1_555
Ga1 O9 1.836443 1_555
Ga1 O40 1.870591 1_455
Ga1 O38 1.870591 1_555
Ga2 O14 1.822945 1_555
Ga2 O10 1.836518 1_555
Ga2 O43 1.877010 1_655
Ga2 O37 1.877010 1_555
Ga3 O15 1.841630 1_555
Ga3 O11 1.845714 1_555
Ga3 O42 1.859603 1_555
Ga3 O36 1.859603 1_655
Ga4 O0 1.901918 1_555
Ga4 O42 1.991362 1_555
Ga4 O36 1.991362 1_555
Ga4 O27 2.113720 1_555
Ga4 O21 2.113720 1_555
Ga4 O16 2.155392 1_555
O1 Ru4 1.912038 1_555
O2 Ru5 1.900615 1_555
O3 Ru6 1.913429 1_555
O4 Ru0 1.943452 1_555
O5 Ru1 1.971100 1_555
O6 Ru2 1.964866 1_555
O7 Ru3 1.940409 1_555
O16 Ru1 2.029593 1_555
O17 Ru4 2.065283 1_555
O17 Ru0 2.072172 1_554
O18 Ru3 2.057058 1_555
O18 Ru5 2.062307 1_555
O19 Ru6 2.079622 1_555
O19 Ru2 2.094984 1_556
O20 Ru4 2.028417 1_556
O20 Ru0 2.108708 1_555
O21 Ru1 2.067481 1_555
O22 Ru6 2.034096 1_554
O22 Ru2 2.130249 1_555
O23 Ru5 2.001948 1_555
O23 Ru3 2.108115 1_555
O24 Ru6 2.034096 1_554
O24 Ru2 2.130249 1_555
O25 Ru5 2.001948 1_555
O25 Ru3 2.108115 1_555
O26 Ru4 2.028417 1_556
O26 Ru0 2.108708 1_555
O27 Ru1 2.067481 1_555
O28 Ru0 1.912145 1_555
O29 Ru1 1.930552 1_555
O30 Ru2 1.911289 1_555
O31 Ru3 1.896521 1_555
O32 Ru2 1.911289 1_555
O33 Ru3 1.896521 1_555
O34 Ru0 1.912145 1_555
O35 Ru1 1.930552 1_555
O37 Ru4 2.046696 1_555
O38 Ru5 2.023658 1_555
O39 Ru6 2.030176 1_555
O40 Ru5 2.023658 1_555
O41 Ru6 2.030176 1_555
O43 Ru4 2.046696 1_555
