# generated using pymatgen
data_U3Ge
_symmetry_space_group_name_H-M   'P 1'
_cell_length_a   5.17622191
_cell_length_b   5.17622191
_cell_length_c   5.17622191
_cell_angle_alpha   130.81110649
_cell_angle_beta   130.81110649
_cell_angle_gamma   72.11336349
_symmetry_Int_Tables_number   1
_chemical_formula_structural   U3Ge
_chemical_formula_sum   'U3 Ge1'
_cell_volume   77.68419368
_cell_formula_units_Z   1
loop_
 _symmetry_equiv_pos_site_id
 _symmetry_equiv_pos_as_xyz
  1  'x, y, z'
loop_
 _atom_site_type_symbol
 _atom_site_label
 _atom_site_symmetry_multiplicity
 _atom_site_fract_x
 _atom_site_fract_y
 _atom_site_fract_z
 _atom_site_occupancy
  U  U0  1  0.75000000  0.25000000  0.50000000  1
  U  U1  1  0.25000000  0.75000000  0.50000000  1
  U  U2  1  0.50000000  0.50000000  0.00000000  1
  Ge  Ge0  1  0.00000000  0.00000000  0.00000000  1
loop_
_geom_bond_atom_site_label_1
_geom_bond_atom_site_label_2
_geom_bond_distance
_geom_bond_site_symmetry_2
U0 U2 3.003137 1_555
U0 U2 3.003137 1_656
U0 U2 3.003137 1_556
U0 U2 3.003137 1_545
U0 U1 3.046648 1_544
U0 U1 3.046648 1_555
U0 U1 3.046648 1_656
U0 U1 3.046648 1_645
U1 U2 3.003137 1_555
U1 U2 3.003137 1_556
U1 U2 3.003137 1_566
U1 U2 3.003137 1_455
Ge0 U1 3.003137 1_444
Ge0 U0 3.003137 1_455
Ge0 U0 3.003137 1_454
Ge0 U1 3.003137 1_544
Ge0 U0 3.003137 1_444
Ge0 U1 3.003137 1_545
Ge0 U1 3.003137 1_555
Ge0 U0 3.003137 1_555
Ge0 U2 3.046648 1_455
Ge0 U2 3.046648 1_545
Ge0 U2 3.046648 1_444
Ge0 U2 3.046648 1_556
