# generated using pymatgen
data_LaGa2Pt3
_symmetry_space_group_name_H-M   'P 1'
_cell_length_a   5.62787082
_cell_length_b   5.62787082
_cell_length_c   4.00590355
_cell_angle_alpha   90.00000000
_cell_angle_beta   90.00000000
_cell_angle_gamma   120.00000137
_symmetry_Int_Tables_number   1
_chemical_formula_structural   LaGa2Pt3
_chemical_formula_sum   'La1 Ga2 Pt3'
_cell_volume   109.88017799
_cell_formula_units_Z   1
loop_
 _symmetry_equiv_pos_site_id
 _symmetry_equiv_pos_as_xyz
  1  'x, y, z'
loop_
 _atom_site_type_symbol
 _atom_site_label
 _atom_site_symmetry_multiplicity
 _atom_site_fract_x
 _atom_site_fract_y
 _atom_site_fract_z
 _atom_site_occupancy
  La  La0  1  0.00000000  -0.00000000  0.00000000  1
  Ga  Ga0  1  0.66666700  0.33333300  -0.00000000  1
  Ga  Ga1  1  0.33333300  0.66666700  0.00000000  1
  Pt  Pt0  1  0.50000000  0.50000000  0.50000000  1
  Pt  Pt1  1  0.50000000  -0.00000000  0.50000000  1
  Pt  Pt2  1  0.00000000  0.50000000  0.50000000  1
loop_
_geom_bond_atom_site_label_1
_geom_bond_atom_site_label_2
_geom_bond_distance
_geom_bond_site_symmetry_2
La0 Pt0 3.453990 1_554
La0 Pt0 3.453990 1_555
La0 Pt0 3.453990 1_444
La0 Pt0 3.453990 1_445
La0 Pt2 3.453990 1_545
La0 Pt2 3.453990 1_555
La0 Pt1 3.453990 1_454
La0 Pt1 3.453990 1_455
La0 Pt2 3.453990 1_544
La0 Pt1 3.453990 1_555
La0 Pt1 3.453990 1_554
La0 Pt2 3.453990 1_554
Ga0 Pt2 2.578996 1_655
Ga0 Pt2 2.578996 1_654
Ga0 Pt1 2.578996 1_555
Ga0 Pt1 2.578996 1_554
Ga0 Pt0 2.578999 1_555
Ga0 Pt0 2.578999 1_554
Ga0 La0 3.249250 1_655
Ga0 La0 3.249254 1_665
Ga0 La0 3.249254 1_555
Ga1 Pt1 2.578996 1_565
Ga1 Pt2 2.578996 1_555
Ga1 Pt1 2.578996 1_564
Ga1 Pt2 2.578996 1_554
Ga1 Pt0 2.578999 1_555
Ga1 Pt0 2.578999 1_554
Ga1 La0 3.249250 1_565
Ga1 La0 3.249254 1_665
Ga1 La0 3.249254 1_555
