# generated using pymatgen
data_ZnS
_symmetry_space_group_name_H-M   'P 1'
_cell_length_a   12.73237186
_cell_length_b   13.30650135
_cell_length_c   13.94256636
_cell_angle_alpha   95.39571709
_cell_angle_beta   88.73608228
_cell_angle_gamma   88.84367233
_symmetry_Int_Tables_number   1
_chemical_formula_structural   ZnS
_chemical_formula_sum   'Zn50 S50'
_cell_volume   2350.56907645
_cell_formula_units_Z   50
loop_
 _symmetry_equiv_pos_site_id
 _symmetry_equiv_pos_as_xyz
  1  'x, y, z'
loop_
 _atom_site_type_symbol
 _atom_site_label
 _atom_site_symmetry_multiplicity
 _atom_site_fract_x
 _atom_site_fract_y
 _atom_site_fract_z
 _atom_site_occupancy
  Zn  Zn0  1  0.32814054  0.70875171  0.20697817  1
  Zn  Zn1  1  0.38851332  0.40972824  0.48145113  1
  Zn  Zn2  1  0.93436930  0.91228964  0.73337791  1
  Zn  Zn3  1  0.62194322  0.15844435  0.07230507  1
  Zn  Zn4  1  0.28225533  0.01560609  0.42417711  1
  Zn  Zn5  1  0.59898013  0.94917381  0.94836774  1
  Zn  Zn6  1  0.77005344  0.17612374  0.36054819  1
  Zn  Zn7  1  0.07508954  0.17288640  0.31234536  1
  Zn  Zn8  1  0.76792826  0.46495259  0.75336176  1
  Zn  Zn9  1  0.81430791  0.92494835  0.20559472  1
  Zn  Zn10  1  0.49867682  0.23852712  0.86861978  1
  Zn  Zn11  1  0.72013395  0.66737096  0.92702997  1
  Zn  Zn12  1  0.20001256  0.39254167  0.66069478  1
  Zn  Zn13  1  0.84055156  0.97483094  0.97701856  1
  Zn  Zn14  1  0.72110482  0.76526738  0.72944121  1
  Zn  Zn15  1  0.71522984  0.44961785  0.07527507  1
  Zn  Zn16  1  0.48428595  0.56454946  0.01509639  1
  Zn  Zn17  1  0.06692044  0.09810697  0.78239081  1
  Zn  Zn18  1  0.20663548  0.15929709  0.97940281  1
  Zn  Zn19  1  0.99419803  0.66859220  0.83515651  1
  Zn  Zn20  1  0.29039868  0.92850422  0.03202416  1
  Zn  Zn21  1  0.17136496  0.88071999  0.88395217  1
  Zn  Zn22  1  0.62151726  0.29571681  0.57400156  1
  Zn  Zn23  1  0.27156242  0.82392304  0.56594681  1
  Zn  Zn24  1  0.90130856  0.77492603  0.49008069  1
  Zn  Zn25  1  0.10571809  0.84844879  0.05137422  1
  Zn  Zn26  1  0.57364673  0.41689896  0.87304340  1
  Zn  Zn27  1  0.96491957  0.17010191  0.59992530  1
  Zn  Zn28  1  0.76721830  0.17441604  0.79943125  1
  Zn  Zn29  1  0.49354369  0.33602564  0.71982407  1
  Zn  Zn30  1  0.78137378  0.50732511  0.51128600  1
  Zn  Zn31  1  0.33389008  0.14099003  0.73368633  1
  Zn  Zn32  1  0.00912286  0.11802617  0.15189145  1
  Zn  Zn33  1  0.43967579  0.15349285  0.10429308  1
  Zn  Zn34  1  0.32549373  0.64874777  0.73637248  1
  Zn  Zn35  1  0.36646466  0.74014496  0.88869569  1
  Zn  Zn36  1  0.71619851  0.01163498  0.55661854  1
  Zn  Zn37  1  0.26706011  0.59869358  0.41573322  1
  Zn  Zn38  1  0.16556669  0.58653362  0.00004700  1
  Zn  Zn39  1  0.20693407  0.03069102  0.26512870  1
  Zn  Zn40  1  0.91896271  0.62989861  0.13288752  1
  Zn  Zn41  1  0.60476060  0.90419164  0.39110249  1
  Zn  Zn42  1  0.27375968  0.38952034  0.87681234  1
  Zn  Zn43  1  0.14886614  0.77808194  0.32329867  1
  Zn  Zn44  1  0.04362103  0.59913102  0.59419920  1
  Zn  Zn45  1  0.89560800  0.38143335  0.29197514  1
  Zn  Zn46  1  0.98419830  0.37846329  0.80684545  1
  Zn  Zn47  1  0.03578564  0.36867733  0.07164599  1
  Zn  Zn48  1  0.42336556  0.21704826  0.59120058  1
  Zn  Zn49  1  0.46008994  0.69366953  0.44346532  1
  S  S0  1  0.45129465  0.86383859  0.98233861  1
  S  S1  1  0.84741883  0.22247084  0.21325601  1
  S  S2  1  0.92269804  0.60350236  0.47950837  1
  S  S3  1  0.22447770  0.04499846  0.83732505  1
  S  S4  1  0.19433464  0.61344725  0.27209434  1
  S  S5  1  0.90055052  0.05477914  0.83954147  1
  S  S6  1  0.21060414  0.86020893  0.18737860  1
  S  S7  1  0.87062279  0.76663551  0.26152753  1
  S  S8  1  0.53204814  0.97263336  0.53914992  1
  S  S9  1  0.07782373  0.25152398  0.71366238  1
  S  S10  1  0.02393592  0.69325256  0.00631832  1
  S  S11  1  0.73543935  0.84047014  0.88684630  1
  S  S12  1  0.06605902  0.80164164  0.76459370  1
  S  S13  1  0.54543071  0.40691053  0.04089917  1
  S  S14  1  0.82723132  0.62739369  0.78177990  1
  S  S15  1  0.98124448  0.48083149  0.19118501  1
  S  S16  1  0.96085519  0.95541784  0.09820468  1
  S  S17  1  0.72484981  0.29032635  0.13729493  1
  S  S18  1  0.44329766  0.73018872  0.61045162  1
  S  S19  1  0.10812714  0.43487272  0.93594299  1
  S  S20  1  0.58396230  0.73950278  0.33079974  1
  S  S21  1  0.81255147  0.34819146  0.85511946  1
  S  S22  1  0.27412713  0.08865142  0.11624203  1
  S  S23  1  0.97728756  0.84155484  0.35835717  1
  S  S24  1  0.34396788  0.26939340  0.95814076  1
  S  S25  1  0.21385353  -0.00046830  0.59085343  1
  S  S26  1  0.50531111  0.73888965  0.19967733  1
  S  S27  1  0.64027419  0.30255637  0.39892726  1
  S  S28  1  0.43433301  0.52288755  0.38701234  1
  S  S29  1  0.06101638  0.50874161  0.72200276  1
  S  S30  1  0.75164784  0.61430611  0.07735865  1
  S  S31  1  0.62330635  0.11812198  0.89037930  1
  S  S32  1  0.59927870  0.78146821  0.61136539  1
  S  S33  1  0.04781050  0.00299962  0.60292288  1
  S  S34  1  0.90523603  0.25370351  0.47399879  1
  S  S35  1  0.02405537  0.32563848  0.40049464  1
  S  S36  1  0.81443073  0.87110257  0.61245954  1
  S  S37  1  0.70133011  0.99856182  0.09297260  1
  S  S38  1  0.27253454  0.30231441  0.52291186  1
  S  S39  1  0.21545665  0.65330974  0.57629167  1
  S  S40  1  0.56402862  0.59429616  0.86817651  1
  S  S41  1  0.31151443  0.82564591  0.40414250  1
  S  S42  1  0.76503202  0.16631428  0.62815318  1
  S  S43  1  0.32456352  0.64633707  0.03430439  1
  S  S44  1  0.72586443  0.42961325  0.36504048  1
  S  S45  1  0.74995640  0.00325857  0.36635583  1
  S  S46  1  0.45410257  0.08786057  0.46576965  1
  S  S47  1  0.66714249  0.46383236  0.62385439  1
  S  S48  1  0.34491404  0.45699272  0.74712072  1
  S  S49  1  0.03502474  0.20606041  0.01849899  1
loop_
_geom_bond_atom_site_label_1
_geom_bond_atom_site_label_2
_geom_bond_distance
_geom_bond_site_symmetry_2
Zn3 Zn33 2.356888 1_555
Zn34 Zn35 2.418752 1_555
S0 Zn20 2.274019 1_556
S0 Zn5 2.279828 1_555
S0 Zn35 2.304373 1_555
S1 S17 2.137354 1_555
S1 Zn45 2.387627 1_555
S1 Zn6 2.396147 1_555
S1 Zn32 2.546701 1_655
S2 Zn44 2.247983 1_655
S2 Zn24 2.282324 1_555
S2 Zn30 2.288313 1_555
S3 Zn17 2.285335 1_555
S3 Zn18 2.385048 1_555
S3 Zn21 2.442530 1_545
S3 Zn31 2.447513 1_555
S4 Zn37 2.248368 1_555
S4 Zn43 2.297932 1_555
S4 Zn0 2.360188 1_555
S5 Zn2 2.320012 1_545
S5 Zn17 2.348550 1_655
S5 Zn13 2.396055 1_545
S5 Zn28 2.414385 1_555
S6 Zn25 2.338379 1_555
S6 Zn43 2.400399 1_555
S6 Zn39 2.419607 1_565
S6 Zn0 2.525040 1_555
S6 Zn20 2.619194 1_555
S7 Zn9 2.415092 1_555
S7 Zn40 2.489704 1_555
S8 Zn41 2.339958 1_555
S8 Zn36 2.424184 1_565
S9 Zn46 2.323747 1_455
S9 Zn17 2.340615 1_555
S9 Zn27 2.365458 1_455
S9 Zn12 2.610477 1_555
S10 Zn38 2.267690 1_555
S10 Zn25 2.369658 1_555
S10 Zn40 2.415045 1_455
S10 Zn19 2.417378 1_454
S11 Zn5 2.333717 1_555
S11 Zn14 2.337329 1_555
S11 Zn11 2.431720 1_555
S11 Zn13 2.513227 1_555
S12 Zn2 2.285097 1_455
S12 Zn19 2.300588 1_455
S12 Zn21 2.345306 1_555
S13 Zn16 2.285586 1_555
S13 Zn15 2.295811 1_555
S13 Zn26 2.376396 1_554
S14 Zn8 2.305928 1_555
S14 Zn19 2.326769 1_555
S14 Zn11 2.426923 1_555
S14 Zn14 2.432985 1_555
S15 Zn47 2.219593 1_655
S15 Zn45 2.291989 1_555
S15 Zn40 2.343543 1_555
S16 Zn32 2.321455 1_665
S16 Zn13 2.334134 1_554
S16 Zn25 2.349566 1_655
S16 Zn9 2.430902 1_555
S17 Zn3 2.337426 1_555
S17 Zn15 2.365246 1_555
S18 S32 2.112859 1_555
S18 Zn49 2.337417 1_555
S18 Zn34 2.610317 1_555
S18 Zn23 2.610991 1_555
S19 Zn38 2.270575 1_556
S19 Zn42 2.295579 1_555
S19 Zn47 2.339527 1_556
S19 Zn46 2.492397 1_455
S20 S26 2.103198 1_555
S20 Zn41 2.294806 1_555
S20 Zn49 2.331682 1_555
S21 Zn8 2.272469 1_555
S21 Zn46 2.326625 1_555
S21 Zn28 2.453350 1_555
S22 Zn33 2.302190 1_555
S22 Zn20 2.337458 1_545
S22 Zn18 2.374700 1_554
S22 Zn39 2.425972 1_555
S23 S7 2.131506 1_555
S23 Zn24 2.314592 1_555
S23 Zn43 2.350649 1_655
S24 Zn42 2.228881 1_555
S24 Zn10 2.317155 1_555
S24 Zn18 2.335334 1_555
S24 Zn33 2.939480 1_556
S25 S33 2.116333 1_555
S25 Zn23 2.426449 1_545
S25 Zn4 2.493282 1_555
S26 Zn0 2.300845 1_555
S27 S44 2.114498 1_555
S27 Zn6 2.350878 1_555
S27 Zn22 2.457777 1_555
S28 Zn1 2.171597 1_555
S28 Zn37 2.348089 1_555
S28 Zn49 2.365682 1_555
S29 Zn44 2.254026 1_555
S29 Zn46 2.400873 1_455
S29 Zn12 2.414067 1_555
S29 Zn19 2.640790 1_455
S30 Zn15 2.246737 1_555
S30 Zn40 2.289343 1_555
S30 Zn11 2.314448 1_554
S31 Zn10 2.277512 1_555
S31 Zn28 2.378670 1_555
S31 Zn5 2.482439 1_545
S31 Zn3 2.542402 1_556
S32 Zn14 2.308384 1_555
S33 Zn27 2.446320 1_455
S33 Zn2 2.686787 1_445
S33 Zn17 2.713994 1_555
S34 S35 2.104706 1_655
S34 Zn27 2.299932 1_555
S34 Zn6 2.532781 1_555
S35 Zn7 2.346449 1_555
S35 Zn45 2.405532 1_455
S36 Zn24 2.285107 1_555
S36 Zn2 2.334158 1_555
S36 Zn36 2.426879 1_565
S36 Zn14 2.543527 1_555
S37 Zn13 2.368665 1_554
S37 Zn3 2.381644 1_565
S37 Zn9 2.413795 1_555
S37 Zn5 2.469070 1_554
S38 Zn1 2.181876 1_555
S38 Zn12 2.329753 1_555
S38 Zn48 2.465319 1_555
S39 Zn44 2.332871 1_555
S39 Zn37 2.362424 1_555
S39 Zn23 2.409920 1_555
S39 Zn34 2.666106 1_555
S40 Zn16 2.336793 1_556
S40 Zn11 2.359926 1_555
S40 Zn26 2.368661 1_555
S41 Zn23 2.303963 1_555
S41 Zn43 2.445694 1_555
S41 Zn4 2.535886 1_565
S41 Zn49 2.656309 1_555
S42 Zn36 2.304483 1_555
S42 Zn28 2.381143 1_555
S42 Zn27 2.568929 1_555
S42 Zn22 2.655617 1_555
S43 Zn38 2.235131 1_555
S43 Zn16 2.285537 1_555
S43 Zn0 2.473519 1_555
S43 Zn35 2.533772 1_554
S44 Zn30 2.328740 1_555
S44 Zn45 2.417411 1_555
S45 Zn6 2.328296 1_555
S45 Zn41 2.330277 1_545
S45 Zn9 2.495277 1_545
S45 Zn36 2.669534 1_555
S46 S8 2.158934 1_545
S46 Zn48 2.354552 1_555
S46 Zn4 2.466608 1_555
S47 Zn8 2.237250 1_555
S47 Zn30 2.240027 1_555
S47 Zn22 2.367009 1_555
S48 Zn42 2.272102 1_555
S48 Zn12 2.357735 1_555
S48 Zn29 2.459084 1_555
S48 Zn34 2.577263 1_555
S49 Zn47 2.220606 1_555
S49 Zn18 2.299435 1_554
S49 Zn32 2.310466 1_555
