# generated using pymatgen
data_CaZn2
_symmetry_space_group_name_H-M   'P 1'
_cell_length_a   5.58827507
_cell_length_b   5.58827602
_cell_length_c   8.68390023
_cell_angle_alpha   90.00000000
_cell_angle_beta   90.00000000
_cell_angle_gamma   120.00000652
_symmetry_Int_Tables_number   1
_chemical_formula_structural   CaZn2
_chemical_formula_sum   'Ca4 Zn8'
_cell_volume   234.85567133
_cell_formula_units_Z   4
loop_
 _symmetry_equiv_pos_site_id
 _symmetry_equiv_pos_as_xyz
  1  'x, y, z'
loop_
 _atom_site_type_symbol
 _atom_site_label
 _atom_site_symmetry_multiplicity
 _atom_site_fract_x
 _atom_site_fract_y
 _atom_site_fract_z
 _atom_site_occupancy
  Ca  Ca0  1  0.33333300  0.66666700  0.05781324  1
  Ca  Ca1  1  0.66666700  0.33333300  0.55781324  1
  Ca  Ca2  1  0.66666700  0.33333300  0.94218676  1
  Ca  Ca3  1  0.33333300  0.66666700  0.44218676  1
  Zn  Zn0  1  0.00000000  -0.00000000  0.00000000  1
  Zn  Zn1  1  0.00000000  -0.00000000  0.50000000  1
  Zn  Zn2  1  0.83440208  0.66880415  0.25000000  1
  Zn  Zn3  1  0.16559792  0.83440208  0.75000000  1
  Zn  Zn4  1  0.66880415  0.83440208  0.75000000  1
  Zn  Zn5  1  0.33119585  0.16559792  0.25000000  1
  Zn  Zn6  1  0.83440208  0.16559792  0.25000000  1
  Zn  Zn7  1  0.16559792  0.33119585  0.75000000  1
loop_
_geom_bond_atom_site_label_1
_geom_bond_atom_site_label_2
_geom_bond_distance
_geom_bond_site_symmetry_2
Ca0 Zn3 3.127444 1_554
Ca0 Zn4 3.127447 1_554
Ca0 Zn7 3.127447 1_554
Ca0 Zn2 3.254631 1_455
Ca0 Zn5 3.254632 1_565
Ca0 Zn6 3.254634 1_565
Ca0 Zn6 3.254634 1_455
Ca0 Zn2 3.254636 1_555
Ca0 Zn5 3.254637 1_555
Ca0 Zn0 3.265216 1_565
Ca0 Zn0 3.265220 1_665
Ca0 Zn0 3.265221 1_555
Ca1 Zn6 3.127444 1_555
Ca1 Zn5 3.127447 1_555
Ca1 Zn2 3.127447 1_555
Ca1 Zn7 3.254631 1_655
Ca1 Zn4 3.254632 1_545
Ca1 Zn3 3.254634 1_545
Ca1 Zn3 3.254634 1_655
Ca1 Zn7 3.254636 1_555
Ca1 Zn4 3.254637 1_555
Ca1 Zn1 3.265216 1_655
Ca1 Zn1 3.265220 1_555
Ca1 Zn1 3.265221 1_665
Ca2 Zn6 3.127444 1_556
Ca2 Zn5 3.127447 1_556
Ca2 Zn2 3.127447 1_556
Ca2 Zn7 3.254631 1_655
Ca2 Zn4 3.254632 1_545
Ca2 Zn3 3.254634 1_545
Ca2 Zn3 3.254634 1_655
Ca2 Zn7 3.254636 1_555
Ca2 Zn4 3.254637 1_555
Ca2 Zn0 3.265216 1_656
Ca2 Zn0 3.265220 1_556
Ca2 Zn0 3.265221 1_666
Ca3 Zn3 3.127444 1_555
Ca3 Zn4 3.127447 1_555
Ca3 Zn7 3.127447 1_555
Ca3 Zn2 3.254631 1_455
Ca3 Zn5 3.254632 1_565
Ca3 Zn6 3.254634 1_565
Ca3 Zn6 3.254634 1_455
Ca3 Zn2 3.254636 1_555
Ca3 Zn5 3.254637 1_555
Ca3 Zn1 3.265216 1_565
Ca3 Zn1 3.265220 1_665
Ca3 Zn1 3.265221 1_555
Zn0 Zn4 2.698567 1_444
Zn0 Zn5 2.698567 1_555
Zn0 Zn6 2.698567 1_455
Zn0 Zn3 2.698567 1_544
Zn0 Zn2 2.698567 1_445
Zn0 Zn7 2.698567 1_554
Zn1 Zn4 2.698567 1_445
Zn1 Zn5 2.698567 1_555
Zn1 Zn6 2.698567 1_455
Zn1 Zn3 2.698567 1_545
Zn1 Zn2 2.698567 1_445
Zn1 Zn7 2.698567 1_555
Zn2 Zn5 2.776220 1_665
Zn2 Zn6 2.776221 1_565
Zn2 Zn5 2.812055 1_555
Zn2 Zn6 2.812055 1_555
Zn3 Zn4 2.776220 1_455
Zn3 Zn7 2.776221 1_565
Zn3 Zn4 2.812055 1_555
Zn3 Zn7 2.812055 1_555
Zn4 Zn7 2.776220 1_665
Zn4 Zn7 2.812055 1_555
Zn5 Zn6 2.776220 1_455
Zn5 Zn6 2.812055 1_555
