# generated using pymatgen
data_TbFe3(BO3)4
_symmetry_space_group_name_H-M   'P 1'
_cell_length_a   6.12326570
_cell_length_b   6.12326570
_cell_length_c   6.12326642
_cell_angle_alpha   103.81087653
_cell_angle_beta   103.81087653
_cell_angle_gamma   103.81088197
_symmetry_Int_Tables_number   1
_chemical_formula_structural   TbFe3(BO3)4
_chemical_formula_sum   'Tb1 Fe3 B4 O12'
_cell_volume   205.58510012
_cell_formula_units_Z   1
loop_
 _symmetry_equiv_pos_site_id
 _symmetry_equiv_pos_as_xyz
  1  'x, y, z'
loop_
 _atom_site_type_symbol
 _atom_site_label
 _atom_site_symmetry_multiplicity
 _atom_site_fract_x
 _atom_site_fract_y
 _atom_site_fract_z
 _atom_site_occupancy
  Tb  Tb0  1  0.00000000  0.00000000  0.00000000  1
  Fe  Fe0  1  0.00000000  0.44992600  0.55007400  1
  Fe  Fe1  1  0.44992600  0.55007400  0.00000000  1
  Fe  Fe2  1  0.55007400  0.00000000  0.44992600  1
  B  B0  1  0.94782100  0.50000000  0.05217900  1
  B  B1  1  0.05217900  0.94782100  0.50000000  1
  B  B2  1  0.50000000  0.50000000  0.50000000  1
  B  B3  1  0.50000000  0.05217900  0.94782100  1
  O  O0  1  0.50000000  0.64362300  0.35637700  1
  O  O1  1  0.35637700  0.50000000  0.64362300  1
  O  O2  1  0.03071200  0.79500600  0.63306600  1
  O  O3  1  0.36693400  0.20499400  0.96928800  1
  O  O4  1  0.79500600  0.63306600  0.03071200  1
  O  O5  1  0.50000000  0.90863000  0.09137000  1
  O  O6  1  0.64362300  0.35637700  0.50000000  1
  O  O7  1  0.09137000  0.50000000  0.90863000  1
  O  O8  1  0.96928800  0.36693400  0.20499400  1
  O  O9  1  0.90863000  0.09137000  0.50000000  1
  O  O10  1  0.63306600  0.03071200  0.79500600  1
  O  O11  1  0.20499400  0.96928800  0.36693400  1
loop_
_geom_bond_atom_site_label_1
_geom_bond_atom_site_label_2
_geom_bond_distance
_geom_bond_site_symmetry_2
Fe0 O2 2.002608 1_555
Fe0 O8 2.002608 1_455
Fe0 O6 2.045481 1_455
Fe0 O1 2.045481 1_555
Fe0 O9 2.058551 1_455
Fe0 O7 2.058551 1_555
Fe1 O3 2.002608 1_554
Fe1 O4 2.002608 1_555
Fe1 O0 2.045481 1_555
Fe1 O1 2.045481 1_554
Fe1 O7 2.058551 1_554
Fe1 O5 2.058551 1_555
Fe2 O11 2.002608 1_545
Fe2 O10 2.002608 1_555
Fe2 O6 2.045481 1_555
Fe2 O0 2.045481 1_545
Fe2 O9 2.058551 1_555
Fe2 O5 2.058551 1_545
B0 O4 1.383178 1_555
B0 O8 1.383178 1_555
B0 O7 1.383517 1_654
B1 O2 1.383178 1_555
B1 O11 1.383178 1_555
B1 O9 1.383517 1_465
B2 O6 1.384230 1_555
B2 O1 1.384230 1_555
B2 O0 1.384230 1_555
B3 O3 1.383178 1_555
B3 O10 1.383178 1_555
B3 O5 1.383517 1_546
O2 Tb0 2.372164 1_566
O3 Tb0 2.372164 1_556
O4 Tb0 2.372164 1_665
O8 Tb0 2.372164 1_655
O10 Tb0 2.372164 1_656
O11 Tb0 2.372164 1_565
