# generated using pymatgen
data_Bi2(Pb2S3)3
_symmetry_space_group_name_H-M   'P 1'
_cell_length_a   7.22112352
_cell_length_b   7.22112352
_cell_length_c   31.54102900
_cell_angle_alpha   90.00000000
_cell_angle_beta   90.00000000
_cell_angle_gamma   146.25490041
_symmetry_Int_Tables_number   1
_chemical_formula_structural   Bi2(Pb2S3)3
_chemical_formula_sum   'Bi4 Pb12 S18'
_cell_volume   913.62668960
_cell_formula_units_Z   2
loop_
 _symmetry_equiv_pos_site_id
 _symmetry_equiv_pos_as_xyz
  1  'x, y, z'
loop_
 _atom_site_type_symbol
 _atom_site_label
 _atom_site_symmetry_multiplicity
 _atom_site_fract_x
 _atom_site_fract_y
 _atom_site_fract_z
 _atom_site_occupancy
  Bi  Bi0  1  0.68264800  0.31735200  0.82637300  1
  Bi  Bi1  1  0.31735200  0.68264800  0.17362700  1
  Bi  Bi2  1  0.68264800  0.31735200  0.67362700  1
  Bi  Bi3  1  0.31735200  0.68264800  0.32637300  1
  Pb  Pb0  1  0.57876100  0.42123900  0.25000000  1
  Pb  Pb1  1  0.42123900  0.57876100  0.75000000  1
  Pb  Pb2  1  0.50000000  0.50000000  0.50000000  1
  Pb  Pb3  1  0.50000000  0.50000000  0.00000000  1
  Pb  Pb4  1  0.77085200  0.22914800  0.44196300  1
  Pb  Pb5  1  0.22914800  0.77085200  0.55803700  1
  Pb  Pb6  1  0.77085200  0.22914800  0.05803700  1
  Pb  Pb7  1  0.22914800  0.77085200  0.94196300  1
  Pb  Pb8  1  0.95512800  0.04487200  0.88239900  1
  Pb  Pb9  1  0.04487200  0.95512800  0.11760100  1
  Pb  Pb10  1  0.95512800  0.04487200  0.61760100  1
  Pb  Pb11  1  0.04487200  0.95512800  0.38239900  1
  S  S0  1  0.59114400  0.40885600  0.91262300  1
  S  S1  1  0.40885600  0.59114400  0.08737700  1
  S  S2  1  0.59114400  0.40885600  0.58737700  1
  S  S3  1  0.40885600  0.59114400  0.41262300  1
  S  S4  1  0.86211900  0.13788100  0.97327100  1
  S  S5  1  0.13788100  0.86211900  0.02672900  1
  S  S6  1  0.86211900  0.13788100  0.52672900  1
  S  S7  1  0.13788100  0.86211900  0.47327100  1
  S  S8  1  0.22005500  0.77994500  0.25000000  1
  S  S9  1  0.77994500  0.22005500  0.75000000  1
  S  S10  1  0.05657800  0.94342200  0.80500400  1
  S  S11  1  0.94342200  0.05657800  0.19499600  1
  S  S12  1  0.05657800  0.94342200  0.69499600  1
  S  S13  1  0.94342200  0.05657800  0.30500400  1
  S  S14  1  0.31772600  0.68227400  0.85172500  1
  S  S15  1  0.68227400  0.31772600  0.14827500  1
  S  S16  1  0.31772600  0.68227400  0.64827500  1
  S  S17  1  0.68227400  0.31772600  0.35172500  1
loop_
_geom_bond_atom_site_label_1
_geom_bond_atom_site_label_2
_geom_bond_distance
_geom_bond_site_symmetry_2
Bi0 S9 2.758791 1_555
Bi0 S10 2.807636 1_545
Bi0 S10 2.807636 1_655
Bi0 S14 2.918438 1_545
Bi0 S14 2.918438 1_655
Bi0 S0 2.999992 1_555
Bi1 S8 2.758791 1_555
Bi1 S11 2.807636 1_455
Bi1 S11 2.807636 1_565
Bi1 S15 2.918438 1_455
Bi1 S15 2.918438 1_565
Bi1 S1 2.999992 1_555
Bi2 S9 2.758791 1_555
Bi2 S12 2.807636 1_545
Bi2 S12 2.807636 1_655
Bi2 S16 2.918438 1_545
Bi2 S16 2.918438 1_655
Bi2 S2 2.999992 1_555
Bi3 S8 2.758791 1_555
Bi3 S13 2.807636 1_455
Bi3 S13 2.807636 1_565
Bi3 S17 2.918438 1_455
Bi3 S17 2.918438 1_565
Bi3 S3 2.999992 1_555
Pb0 S8 2.864614 1_655
Pb0 S8 2.864614 1_545
Pb1 S9 2.864614 1_565
Pb1 S9 2.864614 1_455
Pb2 S7 2.955464 1_655
Pb2 S6 2.955464 1_565
Pb2 S7 2.955464 1_545
Pb2 S6 2.955464 1_455
Pb2 S2 3.030192 1_555
Pb2 S3 3.030192 1_555
Pb3 S4 2.955464 1_564
Pb3 S5 2.955464 1_655
Pb3 S5 2.955464 1_545
Pb3 S4 2.955464 1_454
Pb3 S1 3.030192 1_555
Pb3 S0 3.030192 1_554
Pb4 S6 2.956214 1_555
Pb4 S7 2.957216 1_545
Pb4 S7 2.957216 1_655
Pb4 S3 2.981088 1_545
Pb4 S3 2.981088 1_655
Pb4 S17 3.098307 1_555
Pb5 S7 2.956214 1_555
Pb5 S6 2.957216 1_565
Pb5 S6 2.957216 1_455
Pb5 S2 2.981088 1_455
Pb5 S2 2.981088 1_565
Pb5 S16 3.098307 1_555
Pb6 S4 2.956214 1_554
Pb6 S5 2.957216 1_545
Pb6 S5 2.957216 1_655
Pb6 S1 2.981088 1_545
Pb6 S1 2.981088 1_655
Pb6 S15 3.098307 1_555
Pb7 S5 2.956214 1_556
Pb7 S4 2.957216 1_455
Pb7 S4 2.957216 1_565
Pb7 S0 2.981088 1_455
Pb7 S0 2.981088 1_565
Pb7 S14 3.098307 1_555
Pb8 S10 2.815125 1_645
Pb8 S0 2.972410 1_545
Pb8 S0 2.972410 1_655
Pb8 S14 2.989124 1_545
Pb8 S14 2.989124 1_655
Pb8 S4 3.141246 1_555
Pb9 S11 2.815125 1_465
Pb9 S1 2.972410 1_455
Pb9 S1 2.972410 1_565
Pb9 S15 2.989124 1_455
Pb9 S15 2.989124 1_565
Pb9 S5 3.141246 1_555
Pb10 S12 2.815125 1_645
Pb10 S2 2.972410 1_545
Pb10 S2 2.972410 1_655
Pb10 S16 2.989124 1_545
Pb10 S16 2.989124 1_655
Pb10 S6 3.141246 1_555
Pb11 S13 2.815125 1_465
Pb11 S3 2.972410 1_455
Pb11 S3 2.972410 1_565
Pb11 S17 2.989124 1_565
Pb11 S17 2.989124 1_455
Pb11 S7 3.141246 1_555
