# generated using pymatgen
data_Mg149I
_symmetry_space_group_name_H-M   'P 1'
_cell_length_a   15.91889525
_cell_length_b   15.91890188
_cell_length_c   15.60103375
_cell_angle_alpha   90.00000000
_cell_angle_beta   90.00000000
_cell_angle_gamma   120.00001147
_symmetry_Int_Tables_number   1
_chemical_formula_structural   Mg149I
_chemical_formula_sum   'Mg149 I1'
_cell_volume   3423.81262192
_cell_formula_units_Z   1
loop_
 _symmetry_equiv_pos_site_id
 _symmetry_equiv_pos_as_xyz
  1  'x, y, z'
loop_
 _atom_site_type_symbol
 _atom_site_label
 _atom_site_symmetry_multiplicity
 _atom_site_fract_x
 _atom_site_fract_y
 _atom_site_fract_z
 _atom_site_occupancy
  Mg  Mg0  1  0.20705065  0.00115014  0.00000000  1
  Mg  Mg1  1  0.79410049  0.00115114  0.00000000  1
  Mg  Mg2  1  0.79929720  0.20070280  0.00000000  1
  Mg  Mg3  1  0.40140560  0.20070280  0.00000000  1
  Mg  Mg4  1  0.60050059  0.20100219  0.00000000  1
  Mg  Mg5  1  0.99884986  0.20589951  0.00000000  1
  Mg  Mg6  1  0.20705065  0.20589951  0.00000000  1
  Mg  Mg7  1  0.60050059  0.39949841  0.00000000  1
  Mg  Mg8  1  0.79899781  0.39949841  0.00000000  1
  Mg  Mg9  1  0.20016001  0.40032001  0.00000000  1
  Mg  Mg10  1  0.00048446  0.40226103  0.00000000  1
  Mg  Mg11  1  0.40177657  0.40226103  0.00000000  1
  Mg  Mg12  1  0.59773797  0.59822343  0.00000000  1
  Mg  Mg13  1  0.00048446  0.59822343  0.00000000  1
  Mg  Mg14  1  0.79929720  0.59859540  0.00000000  1
  Mg  Mg15  1  0.39948683  0.60051317  0.00000000  1
  Mg  Mg16  1  0.20102634  0.60051317  0.00000000  1
  Mg  Mg17  1  0.79410049  0.79294935  0.00000000  1
  Mg  Mg18  1  0.99884986  0.79294935  0.00000000  1
  Mg  Mg19  1  0.39948683  0.79897366  0.00000000  1
  Mg  Mg20  1  0.20016001  0.79983999  0.00000000  1
  Mg  Mg21  1  0.59967999  0.79983999  0.00000000  1
  Mg  Mg22  1  0.40177657  0.99951554  0.00000000  1
  Mg  Mg23  1  0.59773797  0.99951554  0.00000000  1
  Mg  Mg24  1  0.66666700  0.33333300  0.16610847  1
  Mg  Mg25  1  0.66684993  0.13332957  0.16623195  1
  Mg  Mg26  1  0.46648064  0.13333057  0.16623195  1
  Mg  Mg27  1  0.86667043  0.33315007  0.16623195  1
  Mg  Mg28  1  0.46648064  0.33315007  0.16623195  1
  Mg  Mg29  1  0.66684993  0.53352036  0.16623195  1
  Mg  Mg30  1  0.86667043  0.53352036  0.16623195  1
  Mg  Mg31  1  0.26669068  0.53338035  0.16647301  1
  Mg  Mg32  1  0.46661865  0.73330932  0.16647301  1
  Mg  Mg33  1  0.26669068  0.73330932  0.16647301  1
  Mg  Mg34  1  0.26713472  0.33374572  0.16676600  1
  Mg  Mg35  1  0.06661000  0.33374572  0.16676600  1
  Mg  Mg36  1  0.66625428  0.73286528  0.16676600  1
  Mg  Mg37  1  0.06661000  0.73286528  0.16676600  1
  Mg  Mg38  1  0.26713472  0.93339000  0.16676600  1
  Mg  Mg39  1  0.66625428  0.93339000  0.16676600  1
  Mg  Mg40  1  0.26600579  0.13300340  0.16704268  1
  Mg  Mg41  1  0.86699760  0.13300340  0.16704268  1
  Mg  Mg42  1  0.86699760  0.73399421  0.16704268  1
  Mg  Mg43  1  0.06705899  0.53352950  0.16695280  1
  Mg  Mg44  1  0.46647050  0.53352950  0.16695280  1
  Mg  Mg45  1  0.46647050  0.93294101  0.16695280  1
  Mg  Mg46  1  0.06831494  0.13662988  0.17244228  1
  Mg  Mg47  1  0.06831494  0.93168506  0.17244228  1
  Mg  Mg48  1  0.86336912  0.93168506  0.17244228  1
  Mg  Mg49  1  0.79996093  0.20003907  0.33277269  1
  Mg  Mg50  1  0.40007913  0.20003907  0.33277269  1
  Mg  Mg51  1  0.79996093  0.59992187  0.33277269  1
  Mg  Mg52  1  0.00000000  0.00000000  0.33289728  1
  Mg  Mg53  1  0.19984514  0.39969028  0.33284066  1
  Mg  Mg54  1  0.19984514  0.80015386  0.33284066  1
  Mg  Mg55  1  0.60030872  0.80015486  0.33284066  1
  Mg  Mg56  1  0.60020119  0.20040338  0.33289770  1
  Mg  Mg57  1  0.60020119  0.39979781  0.33289770  1
  Mg  Mg58  1  0.79959662  0.39979781  0.33289770  1
  Mg  Mg59  1  0.39987557  0.60012443  0.33312666  1
  Mg  Mg60  1  0.20024886  0.60012443  0.33312666  1
  Mg  Mg61  1  0.39987557  0.79975114  0.33312666  1
  Mg  Mg62  1  0.40032389  0.00004142  0.33357138  1
  Mg  Mg63  1  0.59971753  0.00004142  0.33357138  1
  Mg  Mg64  1  0.40032389  0.40028247  0.33357138  1
  Mg  Mg65  1  0.99995858  0.40028247  0.33357138  1
  Mg  Mg66  1  0.59971753  0.59967611  0.33357138  1
  Mg  Mg67  1  0.99995858  0.59967611  0.33357138  1
  Mg  Mg68  1  0.79932748  0.00028973  0.33505048  1
  Mg  Mg69  1  0.20096224  0.00028973  0.33505048  1
  Mg  Mg70  1  0.99971027  0.20067152  0.33505048  1
  Mg  Mg71  1  0.20096224  0.20067252  0.33505048  1
  Mg  Mg72  1  0.99971027  0.79903776  0.33505048  1
  Mg  Mg73  1  0.79932748  0.79903776  0.33505048  1
  Mg  Mg74  1  0.06656398  0.13312796  0.50000000  1
  Mg  Mg75  1  0.46663574  0.13334765  0.50000000  1
  Mg  Mg76  1  0.66671191  0.13334765  0.50000000  1
  Mg  Mg77  1  0.86634732  0.13365268  0.50000000  1
  Mg  Mg78  1  0.26730435  0.13365268  0.50000000  1
  Mg  Mg79  1  0.86665235  0.33328909  0.50000000  1
  Mg  Mg80  1  0.46663574  0.33328909  0.50000000  1
  Mg  Mg81  1  0.66666700  0.33333300  0.50000000  1
  Mg  Mg82  1  0.26669988  0.33390630  0.50000000  1
  Mg  Mg83  1  0.06720642  0.33390630  0.50000000  1
  Mg  Mg84  1  0.86665235  0.53336426  0.50000000  1
  Mg  Mg85  1  0.66671191  0.53336426  0.50000000  1
  Mg  Mg86  1  0.06675807  0.53337854  0.50000000  1
  Mg  Mg87  1  0.46662146  0.53337854  0.50000000  1
  Mg  Mg88  1  0.26674599  0.53349298  0.50000000  1
  Mg  Mg89  1  0.86634732  0.73269465  0.50000000  1
  Mg  Mg90  1  0.66609370  0.73330012  0.50000000  1
  Mg  Mg91  1  0.06720642  0.73330012  0.50000000  1
  Mg  Mg92  1  0.46650702  0.73325401  0.50000000  1
  Mg  Mg93  1  0.26674599  0.73325401  0.50000000  1
  Mg  Mg94  1  0.66609370  0.93279358  0.50000000  1
  Mg  Mg95  1  0.26669988  0.93279358  0.50000000  1
  Mg  Mg96  1  0.46662146  0.93324193  0.50000000  1
  Mg  Mg97  1  0.86687204  0.93343602  0.50000000  1
  Mg  Mg98  1  0.06656398  0.93343602  0.50000000  1
  Mg  Mg99  1  0.79932748  0.00028973  0.66494952  1
  Mg  Mg100  1  0.20096224  0.00028973  0.66494952  1
  Mg  Mg101  1  0.99971027  0.20067152  0.66494952  1
  Mg  Mg102  1  0.20096224  0.20067252  0.66494952  1
  Mg  Mg103  1  0.99971027  0.79903776  0.66494952  1
  Mg  Mg104  1  0.79932748  0.79903776  0.66494952  1
  Mg  Mg105  1  0.40032389  0.00004142  0.66642862  1
  Mg  Mg106  1  0.59971753  0.00004142  0.66642862  1
  Mg  Mg107  1  0.40032389  0.40028247  0.66642862  1
  Mg  Mg108  1  0.99995858  0.40028247  0.66642862  1
  Mg  Mg109  1  0.59971753  0.59967611  0.66642862  1
  Mg  Mg110  1  0.99995858  0.59967611  0.66642862  1
  Mg  Mg111  1  0.39987557  0.60012443  0.66687234  1
  Mg  Mg112  1  0.20024886  0.60012443  0.66687234  1
  Mg  Mg113  1  0.39987557  0.79975114  0.66687234  1
  Mg  Mg114  1  0.60020119  0.20040338  0.66710230  1
  Mg  Mg115  1  0.60020119  0.39979781  0.66710230  1
  Mg  Mg116  1  0.79959662  0.39979781  0.66710230  1
  Mg  Mg117  1  0.19984514  0.39969028  0.66715934  1
  Mg  Mg118  1  0.19984514  0.80015386  0.66715934  1
  Mg  Mg119  1  0.60030872  0.80015486  0.66715934  1
  Mg  Mg120  1  0.00000000  0.00000000  0.66710272  1
  Mg  Mg121  1  0.79996093  0.20003907  0.66722631  1
  Mg  Mg122  1  0.40007913  0.20003907  0.66722631  1
  Mg  Mg123  1  0.79996093  0.59992187  0.66722631  1
  Mg  Mg124  1  0.06831494  0.13662988  0.82755772  1
  Mg  Mg125  1  0.06831494  0.93168506  0.82755772  1
  Mg  Mg126  1  0.86336912  0.93168506  0.82755772  1
  Mg  Mg127  1  0.06705899  0.53352950  0.83304620  1
  Mg  Mg128  1  0.46647050  0.53352950  0.83304620  1
  Mg  Mg129  1  0.46647050  0.93294101  0.83304620  1
  Mg  Mg130  1  0.26600579  0.13300340  0.83295732  1
  Mg  Mg131  1  0.86699760  0.13300340  0.83295732  1
  Mg  Mg132  1  0.86699760  0.73399421  0.83295732  1
  Mg  Mg133  1  0.26713472  0.33374572  0.83323400  1
  Mg  Mg134  1  0.06661000  0.33374572  0.83323400  1
  Mg  Mg135  1  0.66625428  0.73286528  0.83323400  1
  Mg  Mg136  1  0.06661000  0.73286528  0.83323400  1
  Mg  Mg137  1  0.26713472  0.93339000  0.83323400  1
  Mg  Mg138  1  0.66625428  0.93339000  0.83323400  1
  Mg  Mg139  1  0.26669068  0.53338035  0.83352699  1
  Mg  Mg140  1  0.46661865  0.73330932  0.83352699  1
  Mg  Mg141  1  0.26669068  0.73330932  0.83352699  1
  Mg  Mg142  1  0.66684993  0.13332957  0.83376805  1
  Mg  Mg143  1  0.46648064  0.13333057  0.83376805  1
  Mg  Mg144  1  0.86667043  0.33315007  0.83376805  1
  Mg  Mg145  1  0.46648064  0.33315007  0.83376805  1
  Mg  Mg146  1  0.66684993  0.53352036  0.83376805  1
  Mg  Mg147  1  0.86667043  0.53352036  0.83376805  1
  Mg  Mg148  1  0.66666700  0.33333300  0.83389153  1
  I  I0  1  0.00000000  0.00000000  0.00000000  1
loop_
_geom_bond_atom_site_label_1
_geom_bond_atom_site_label_2
_geom_bond_distance
_geom_bond_site_symmetry_2
Mg0 Mg22 3.112914 1_545
Mg0 Mg3 3.136106 1_555
Mg0 Mg137 3.143093 1_544
Mg0 Mg38 3.143093 1_545
Mg0 Mg20 3.151223 1_545
Mg0 Mg40 3.179304 1_555
Mg0 Mg130 3.179304 1_554
Mg1 Mg23 3.112938 1_545
Mg1 Mg2 3.136099 1_555
Mg1 Mg138 3.143108 1_544
Mg1 Mg39 3.143108 1_545
Mg1 Mg21 3.151238 1_545
Mg1 Mg41 3.179296 1_555
Mg1 Mg131 3.179296 1_554
Mg2 Mg5 3.136113 1_555
Mg2 Mg8 3.166993 1_555
Mg2 Mg4 3.167008 1_555
Mg2 Mg25 3.171761 1_555
Mg2 Mg27 3.171761 1_555
Mg2 Mg41 3.205589 1_555
Mg2 Mg23 3.205644 1_545
Mg3 Mg6 3.136097 1_555
Mg3 Mg4 3.166992 1_555
Mg3 Mg7 3.166992 1_555
Mg3 Mg40 3.205588 1_555
Mg4 Mg7 3.159842 1_555
Mg4 Mg8 3.159849 1_555
Mg5 Mg9 3.151229 1_655
Mg6 Mg9 3.151239 1_555
Mg7 Mg8 3.159856 1_555
Mg10 Mg5 3.112931 1_455
Mg10 Mg13 3.119506 1_555
Mg10 Mg43 3.171645 1_555
Mg10 Mg127 3.171658 1_554
Mg10 Mg16 3.174337 1_555
Mg10 Mg27 3.182786 1_455
Mg10 Mg144 3.182786 1_454
Mg10 Mg8 3.185684 1_455
Mg10 Mg9 3.194176 1_555
Mg10 Mg134 3.196049 1_554
Mg10 Mg35 3.196049 1_555
Mg10 Mg2 3.205636 1_455
Mg11 Mg6 3.112922 1_555
Mg11 Mg12 3.119497 1_555
Mg11 Mg44 3.171645 1_555
Mg11 Mg128 3.171658 1_554
Mg11 Mg15 3.174338 1_555
Mg11 Mg28 3.182794 1_555
Mg11 Mg145 3.182794 1_554
Mg11 Mg7 3.185683 1_555
Mg11 Mg9 3.194176 1_555
Mg11 Mg133 3.196057 1_554
Mg11 Mg34 3.196057 1_555
Mg11 Mg3 3.205637 1_555
Mg12 Mg17 3.112930 1_555
Mg12 Mg44 3.171636 1_555
Mg12 Mg128 3.171649 1_554
Mg12 Mg15 3.174321 1_555
Mg12 Mg29 3.182794 1_555
Mg12 Mg146 3.182794 1_554
Mg12 Mg7 3.185701 1_555
Mg12 Mg21 3.194169 1_555
Mg12 Mg135 3.196057 1_554
Mg12 Mg36 3.196057 1_555
Mg12 Mg14 3.205644 1_555
Mg13 Mg18 3.112915 1_455
Mg13 Mg43 3.171645 1_555
Mg13 Mg16 3.174337 1_555
Mg13 Mg30 3.182786 1_455
Mg13 Mg147 3.182786 1_454
Mg13 Mg8 3.185691 1_455
Mg13 Mg20 3.194176 1_555
Mg13 Mg136 3.196057 1_554
Mg13 Mg37 3.196057 1_555
Mg13 Mg14 3.205644 1_455
Mg14 Mg17 3.136083 1_555
Mg14 Mg18 3.136098 1_555
Mg14 Mg7 3.167016 1_555
Mg14 Mg8 3.167025 1_555
Mg14 Mg29 3.171760 1_555
Mg14 Mg146 3.171760 1_554
Mg14 Mg30 3.171769 1_555
Mg14 Mg147 3.171769 1_554
Mg14 Mg42 3.205581 1_555
Mg15 Mg16 3.159272 1_555
Mg15 Mg19 3.159273 1_555
Mg15 Mg31 3.177574 1_555
Mg15 Mg32 3.177574 1_555
Mg15 Mg21 3.179981 1_555
Mg15 Mg9 3.179981 1_555
Mg15 Mg44 3.192986 1_555
Mg16 Mg19 3.159272 1_555
Mg16 Mg33 3.177574 1_555
Mg16 Mg31 3.177582 1_555
Mg16 Mg20 3.179982 1_555
Mg16 Mg9 3.179982 1_555
Mg16 Mg43 3.192985 1_555
Mg17 Mg36 3.143108 1_555
Mg17 Mg21 3.151237 1_555
Mg17 Mg42 3.179296 1_555
Mg18 Mg37 3.143093 1_655
Mg18 Mg20 3.151222 1_655
Mg18 Mg42 3.179295 1_555
Mg19 Mg23 3.174329 1_555
Mg19 Mg22 3.174338 1_555
Mg19 Mg33 3.177574 1_555
Mg19 Mg32 3.177574 1_555
Mg19 Mg20 3.179981 1_555
Mg19 Mg21 3.179981 1_555
Mg19 Mg45 3.192986 1_555
Mg20 Mg33 3.179660 1_555
Mg20 Mg37 3.187283 1_555
Mg20 Mg38 3.187284 1_555
Mg20 Mg22 3.194176 1_555
Mg21 Mg32 3.179660 1_555
Mg21 Mg36 3.187275 1_555
Mg21 Mg39 3.187284 1_555
Mg21 Mg23 3.194185 1_555
Mg22 Mg23 3.119489 1_555
Mg22 Mg45 3.171645 1_555
Mg22 Mg26 3.182794 1_565
Mg22 Mg4 3.185684 1_565
Mg22 Mg38 3.196057 1_555
Mg22 Mg3 3.205637 1_565
Mg23 Mg45 3.171637 1_555
Mg23 Mg25 3.182787 1_565
Mg23 Mg4 3.185685 1_565
Mg23 Mg39 3.196057 1_555
Mg24 Mg8 3.169208 1_555
Mg24 Mg4 3.169209 1_555
Mg24 Mg7 3.169217 1_555
Mg24 Mg58 3.182645 1_555
Mg24 Mg56 3.182645 1_555
Mg24 Mg57 3.182653 1_555
Mg24 Mg26 3.185283 1_555
Mg24 Mg28 3.185291 1_555
Mg24 Mg27 3.185291 1_555
Mg24 Mg25 3.185293 1_555
Mg24 Mg30 3.185299 1_555
Mg24 Mg29 3.185309 1_555
Mg25 Mg39 3.178099 1_545
Mg25 Mg49 3.180919 1_555
Mg25 Mg27 3.180922 1_555
Mg25 Mg4 3.184273 1_555
Mg25 Mg56 3.187382 1_555
Mg25 Mg41 3.188754 1_555
Mg25 Mg26 3.189666 1_555
Mg25 Mg45 3.189912 1_545
Mg25 Mg63 3.192519 1_555
Mg26 Mg3 3.171761 1_555
Mg26 Mg38 3.178122 1_545
Mg26 Mg28 3.180907 1_555
Mg26 Mg50 3.180912 1_555
Mg26 Mg4 3.184256 1_555
Mg26 Mg56 3.187366 1_555
Mg26 Mg40 3.188762 1_555
Mg26 Mg45 3.189921 1_545
Mg26 Mg62 3.192527 1_555
Mg27 Mg35 3.178098 1_655
Mg27 Mg49 3.180919 1_555
Mg27 Mg8 3.184265 1_555
Mg27 Mg58 3.187374 1_555
Mg27 Mg41 3.188748 1_555
Mg27 Mg30 3.189675 1_555
Mg27 Mg43 3.189912 1_655
Mg27 Mg65 3.192518 1_555
Mg28 Mg3 3.171761 1_555
Mg28 Mg34 3.178129 1_555
Mg28 Mg50 3.180919 1_555
Mg28 Mg7 3.184256 1_555
Mg28 Mg57 3.187366 1_555
Mg28 Mg40 3.188754 1_555
Mg28 Mg29 3.189666 1_555
Mg28 Mg44 3.189921 1_555
Mg28 Mg64 3.192527 1_555
Mg29 Mg36 3.178115 1_555
Mg29 Mg51 3.180919 1_555
Mg29 Mg30 3.180922 1_555
Mg29 Mg7 3.184273 1_555
Mg29 Mg57 3.187382 1_555
Mg29 Mg42 3.188754 1_555
Mg29 Mg44 3.189912 1_555
Mg29 Mg66 3.192519 1_555
Mg30 Mg37 3.178106 1_655
Mg30 Mg51 3.180920 1_555
Mg30 Mg8 3.184273 1_555
Mg30 Mg58 3.187382 1_555
Mg30 Mg42 3.188748 1_555
Mg30 Mg43 3.189912 1_655
Mg30 Mg67 3.192518 1_555
Mg31 Mg44 3.179096 1_555
Mg31 Mg43 3.179113 1_555
Mg31 Mg9 3.179653 1_555
Mg31 Mg34 3.181508 1_555
Mg31 Mg35 3.181522 1_555
Mg31 Mg32 3.182640 1_555
Mg31 Mg33 3.182650 1_555
Mg31 Mg59 3.182946 1_555
Mg31 Mg60 3.182954 1_555
Mg31 Mg53 3.183329 1_555
Mg32 Mg44 3.179106 1_555
Mg32 Mg45 3.179106 1_555
Mg32 Mg36 3.181522 1_555
Mg32 Mg39 3.181530 1_555
Mg32 Mg33 3.182632 1_555
Mg32 Mg59 3.182946 1_555
Mg32 Mg61 3.182946 1_555
Mg32 Mg55 3.183328 1_555
Mg33 Mg45 3.179105 1_555
Mg33 Mg43 3.179105 1_555
Mg33 Mg37 3.181538 1_555
Mg33 Mg38 3.181540 1_555
Mg33 Mg61 3.182945 1_555
Mg33 Mg60 3.182946 1_555
Mg33 Mg54 3.183329 1_555
Mg34 Mg6 3.143109 1_555
Mg34 Mg46 3.152760 1_555
Mg34 Mg53 3.175982 1_555
Mg34 Mg44 3.176779 1_555
Mg34 Mg64 3.184913 1_555
Mg34 Mg40 3.186653 1_555
Mg34 Mg9 3.187275 1_555
Mg34 Mg35 3.192132 1_555
Mg34 Mg71 3.202884 1_555
Mg35 Mg5 3.143108 1_455
Mg35 Mg46 3.152770 1_555
Mg35 Mg53 3.175989 1_555
Mg35 Mg43 3.176772 1_555
Mg35 Mg65 3.184905 1_455
Mg35 Mg41 3.186644 1_455
Mg35 Mg9 3.187283 1_555
Mg35 Mg70 3.202892 1_455
Mg36 Mg48 3.152753 1_555
Mg36 Mg55 3.175989 1_555
Mg36 Mg44 3.176779 1_555
Mg36 Mg66 3.184913 1_555
Mg36 Mg42 3.186667 1_555
Mg36 Mg39 3.192133 1_555
Mg36 Mg73 3.202884 1_555
Mg37 Mg47 3.152754 1_555
Mg37 Mg54 3.175989 1_555
Mg37 Mg43 3.176788 1_555
Mg37 Mg67 3.184913 1_455
Mg37 Mg42 3.186635 1_455
Mg37 Mg38 3.192132 1_555
Mg37 Mg72 3.202876 1_455
Mg38 Mg47 3.152752 1_555
Mg38 Mg54 3.175997 1_555
Mg38 Mg45 3.176786 1_555
Mg38 Mg62 3.184913 1_565
Mg38 Mg40 3.186653 1_565
Mg38 Mg69 3.202876 1_565
Mg39 Mg48 3.152752 1_555
Mg39 Mg55 3.175990 1_555
Mg39 Mg45 3.176771 1_555
Mg39 Mg63 3.184905 1_565
Mg39 Mg41 3.186659 1_565
Mg39 Mg68 3.202884 1_565
Mg40 Mg46 3.177395 1_555
Mg40 Mg47 3.177403 1_545
Mg40 Mg50 3.178292 1_555
Mg40 Mg6 3.179288 1_555
Mg40 Mg71 3.196563 1_555
Mg40 Mg69 3.196571 1_555
Mg41 Mg46 3.177395 1_655
Mg41 Mg48 3.177397 1_545
Mg41 Mg49 3.178285 1_555
Mg41 Mg5 3.179295 1_555
Mg41 Mg70 3.196562 1_555
Mg41 Mg68 3.196571 1_555
Mg42 Mg47 3.177395 1_655
Mg42 Mg48 3.177413 1_555
Mg42 Mg51 3.178285 1_555
Mg42 Mg72 3.196562 1_555
Mg42 Mg73 3.196571 1_555
Mg43 Mg60 3.176873 1_555
Mg43 Mg67 3.183001 1_455
Mg43 Mg65 3.183002 1_455
Mg44 Mg59 3.176873 1_555
Mg44 Mg66 3.183001 1_555
Mg44 Mg64 3.183002 1_555
Mg45 Mg61 3.176873 1_555
Mg45 Mg63 3.183001 1_565
Mg45 Mg62 3.183001 1_565
Mg46 Mg70 3.127466 1_455
Mg46 Mg71 3.127474 1_555
Mg46 Mg52 3.132777 1_555
Mg47 Mg69 3.127474 1_565
Mg47 Mg72 3.127474 1_455
Mg47 Mg52 3.132777 1_565
Mg48 Mg68 3.127466 1_565
Mg48 Mg73 3.127474 1_555
Mg48 Mg52 3.132785 1_665
Mg49 Mg68 3.174959 1_555
Mg49 Mg70 3.174966 1_555
Mg49 Mg58 3.182844 1_555
Mg49 Mg56 3.182859 1_555
Mg49 Mg63 3.185724 1_555
Mg49 Mg65 3.185724 1_555
Mg49 Mg77 3.186993 1_555
Mg49 Mg76 3.190768 1_555
Mg49 Mg79 3.190777 1_555
Mg50 Mg69 3.174966 1_555
Mg50 Mg71 3.174974 1_555
Mg50 Mg56 3.182827 1_555
Mg50 Mg57 3.182835 1_555
Mg50 Mg62 3.185717 1_555
Mg50 Mg64 3.185733 1_555
Mg50 Mg78 3.187009 1_555
Mg50 Mg75 3.190761 1_555
Mg50 Mg80 3.190777 1_555
Mg51 Mg72 3.174958 1_555
Mg51 Mg73 3.174959 1_555
Mg51 Mg57 3.182859 1_555
Mg51 Mg58 3.182860 1_555
Mg51 Mg66 3.185724 1_555
Mg51 Mg67 3.185724 1_555
Mg51 Mg89 3.186993 1_555
Mg51 Mg85 3.190768 1_555
Mg51 Mg84 3.190769 1_555
Mg52 Mg97 3.188218 1_445
Mg52 Mg98 3.188218 1_545
Mg52 Mg74 3.188218 1_555
Mg52 Mg70 3.196955 1_455
Mg52 Mg69 3.196970 1_555
Mg52 Mg68 3.196970 1_455
Mg52 Mg71 3.196970 1_555
Mg52 Mg73 3.196970 1_445
Mg52 Mg72 3.196971 1_445
Mg53 Mg71 3.177260 1_555
Mg53 Mg70 3.177267 1_455
Mg53 Mg83 3.185075 1_555
Mg53 Mg82 3.185075 1_555
Mg53 Mg64 3.186718 1_555
Mg53 Mg65 3.186718 1_455
Mg53 Mg59 3.187485 1_555
Mg53 Mg60 3.187486 1_555
Mg53 Mg88 3.194303 1_555
Mg54 Mg72 3.177267 1_455
Mg54 Mg69 3.177276 1_565
Mg54 Mg91 3.185075 1_555
Mg54 Mg95 3.185083 1_555
Mg54 Mg67 3.186710 1_455
Mg54 Mg62 3.186726 1_565
Mg54 Mg60 3.187470 1_555
Mg54 Mg61 3.187477 1_555
Mg54 Mg93 3.194288 1_555
Mg55 Mg68 3.177267 1_565
Mg55 Mg73 3.177275 1_555
Mg55 Mg94 3.185075 1_555
Mg55 Mg90 3.185083 1_555
Mg55 Mg63 3.186711 1_565
Mg55 Mg66 3.186727 1_555
Mg55 Mg61 3.187469 1_555
Mg55 Mg59 3.187477 1_555
Mg55 Mg92 3.194295 1_555
Mg56 Mg57 3.174140 1_555
Mg56 Mg58 3.174147 1_555
Mg56 Mg62 3.185708 1_555
Mg56 Mg63 3.185717 1_555
Mg56 Mg81 3.186640 1_555
Mg56 Mg75 3.191691 1_555
Mg56 Mg76 3.191700 1_555
Mg57 Mg58 3.174155 1_555
Mg57 Mg64 3.185708 1_555
Mg57 Mg66 3.185717 1_555
Mg57 Mg81 3.186648 1_555
Mg57 Mg80 3.191691 1_555
Mg57 Mg85 3.191700 1_555
Mg58 Mg65 3.185708 1_555
Mg58 Mg67 3.185716 1_555
Mg58 Mg81 3.186639 1_555
Mg58 Mg79 3.191684 1_555
Mg58 Mg84 3.191700 1_555
Mg59 Mg60 3.177837 1_555
Mg59 Mg61 3.177838 1_555
Mg59 Mg66 3.184845 1_555
Mg59 Mg64 3.184846 1_555
Mg59 Mg88 3.185306 1_555
Mg59 Mg92 3.185306 1_555
Mg59 Mg87 3.188186 1_555
Mg60 Mg61 3.177837 1_555
Mg60 Mg67 3.184845 1_455
Mg60 Mg65 3.184845 1_455
Mg60 Mg88 3.185298 1_555
Mg60 Mg93 3.185306 1_555
Mg60 Mg86 3.188177 1_555
Mg61 Mg63 3.184845 1_565
Mg61 Mg62 3.184846 1_565
Mg61 Mg92 3.185298 1_555
Mg61 Mg93 3.185306 1_555
Mg61 Mg96 3.188178 1_555
Mg62 Mg63 3.174126 1_555
Mg62 Mg69 3.175679 1_555
Mg62 Mg96 3.179381 1_545
Mg62 Mg75 3.181049 1_555
Mg62 Mg95 3.183584 1_545
Mg63 Mg68 3.175679 1_555
Mg63 Mg96 3.179373 1_545
Mg63 Mg76 3.181049 1_555
Mg63 Mg94 3.183585 1_545
Mg64 Mg66 3.174127 1_555
Mg64 Mg71 3.175679 1_555
Mg64 Mg87 3.179374 1_555
Mg64 Mg80 3.181041 1_555
Mg64 Mg82 3.183584 1_555
Mg65 Mg67 3.174128 1_555
Mg65 Mg70 3.175696 1_555
Mg65 Mg86 3.179374 1_655
Mg65 Mg79 3.181048 1_555
Mg65 Mg83 3.183585 1_655
Mg66 Mg73 3.175679 1_555
Mg66 Mg87 3.179373 1_555
Mg66 Mg85 3.181049 1_555
Mg66 Mg90 3.183585 1_555
Mg67 Mg72 3.175681 1_555
Mg67 Mg86 3.179381 1_655
Mg67 Mg84 3.181048 1_555
Mg67 Mg91 3.183585 1_655
Mg68 Mg94 3.161688 1_545
Mg68 Mg77 3.162696 1_555
Mg68 Mg97 3.171015 1_545
Mg68 Mg70 3.189865 1_555
Mg68 Mg73 3.203710 1_545
Mg69 Mg95 3.161688 1_545
Mg69 Mg78 3.162696 1_555
Mg69 Mg98 3.171015 1_545
Mg69 Mg71 3.189874 1_555
Mg69 Mg72 3.203709 1_445
Mg70 Mg83 3.161696 1_655
Mg70 Mg77 3.162696 1_555
Mg70 Mg74 3.171007 1_655
Mg70 Mg71 3.203701 1_655
Mg71 Mg82 3.161688 1_555
Mg71 Mg78 3.162688 1_555
Mg71 Mg74 3.171015 1_555
Mg72 Mg91 3.161688 1_655
Mg72 Mg89 3.162696 1_555
Mg72 Mg98 3.171015 1_655
Mg72 Mg73 3.189873 1_555
Mg73 Mg90 3.161688 1_555
Mg73 Mg89 3.162696 1_555
Mg73 Mg97 3.171015 1_555
Mg74 Mg97 3.178875 1_445
Mg74 Mg98 3.178876 1_545
Mg74 Mg82 3.191068 1_555
Mg74 Mg83 3.191070 1_555
Mg74 Mg78 3.191397 1_555
Mg74 Mg77 3.191413 1_455
Mg75 Mg78 3.175566 1_555
Mg75 Mg80 3.182848 1_555
Mg75 Mg81 3.183911 1_555
Mg75 Mg76 3.184992 1_555
Mg75 Mg96 3.185350 1_545
Mg75 Mg95 3.187690 1_545
Mg76 Mg77 3.175550 1_555
Mg76 Mg79 3.182839 1_555
Mg76 Mg81 3.183905 1_555
Mg76 Mg96 3.185341 1_545
Mg76 Mg94 3.187691 1_545
Mg77 Mg99 3.162696 1_555
Mg77 Mg79 3.175567 1_555
Mg77 Mg97 3.191414 1_545
Mg77 Mg83 3.192647 1_655
Mg77 Mg94 3.192647 1_545
Mg78 Mg80 3.175566 1_555
Mg78 Mg98 3.191405 1_545
Mg78 Mg82 3.192640 1_555
Mg78 Mg95 3.192656 1_545
Mg79 Mg81 3.183895 1_555
Mg79 Mg84 3.184977 1_555
Mg79 Mg86 3.185333 1_655
Mg79 Mg83 3.187698 1_655
Mg80 Mg81 3.183927 1_555
Mg80 Mg85 3.184984 1_555
Mg80 Mg87 3.185318 1_555
Mg80 Mg82 3.187682 1_555
Mg81 Mg84 3.183911 1_555
Mg81 Mg85 3.183921 1_555
Mg82 Mg83 3.175715 1_555
Mg82 Mg88 3.176834 1_555
Mg82 Mg87 3.178960 1_555
Mg83 Mg88 3.176825 1_555
Mg83 Mg86 3.178954 1_555
Mg84 Mg89 3.175552 1_555
Mg84 Mg85 3.182831 1_555
Mg84 Mg86 3.185348 1_655
Mg84 Mg91 3.187690 1_655
Mg85 Mg89 3.175550 1_555
Mg85 Mg87 3.185333 1_555
Mg85 Mg90 3.187691 1_555
Mg86 Mg91 3.178969 1_555
Mg86 Mg88 3.182676 1_555
Mg86 Mg93 3.182692 1_555
Mg87 Mg90 3.178960 1_555
Mg87 Mg88 3.182708 1_555
Mg87 Mg92 3.182709 1_555
Mg88 Mg92 3.179975 1_555
Mg88 Mg93 3.179976 1_555
Mg89 Mg98 3.191413 1_655
Mg89 Mg97 3.191414 1_555
Mg89 Mg90 3.192647 1_555
Mg89 Mg91 3.192647 1_655
Mg90 Mg94 3.175717 1_555
Mg90 Mg92 3.176833 1_555
Mg90 Mg97 3.191068 1_555
Mg91 Mg95 3.175716 1_555
Mg91 Mg93 3.176817 1_555
Mg91 Mg98 3.191070 1_555
Mg92 Mg94 3.176825 1_555
Mg92 Mg93 3.179975 1_555
Mg92 Mg96 3.182678 1_555
Mg93 Mg95 3.176818 1_555
Mg93 Mg96 3.182692 1_555
Mg94 Mg99 3.161688 1_565
Mg94 Mg96 3.178952 1_555
Mg94 Mg97 3.191068 1_555
Mg95 Mg96 3.178968 1_555
Mg95 Mg98 3.191068 1_555
Mg97 Mg99 3.171015 1_565
Mg97 Mg98 3.178875 1_655
Mg100 Mg125 3.127474 1_545
Mg100 Mg95 3.161688 1_545
Mg100 Mg78 3.162696 1_555
Mg100 Mg98 3.171015 1_545
Mg100 Mg122 3.174966 1_555
Mg100 Mg105 3.175679 1_555
Mg100 Mg118 3.177276 1_545
Mg100 Mg102 3.189874 1_555
Mg100 Mg130 3.196571 1_555
Mg100 Mg120 3.196970 1_555
Mg100 Mg137 3.202876 1_545
Mg100 Mg103 3.203709 1_445
Mg101 Mg124 3.127466 1_655
Mg101 Mg83 3.161696 1_655
Mg101 Mg77 3.162696 1_555
Mg101 Mg74 3.171007 1_655
Mg101 Mg121 3.174966 1_555
Mg101 Mg108 3.175696 1_555
Mg101 Mg117 3.177267 1_655
Mg101 Mg99 3.189865 1_555
Mg101 Mg131 3.196562 1_555
Mg101 Mg120 3.196955 1_655
Mg101 Mg134 3.202892 1_655
Mg101 Mg102 3.203701 1_655
Mg102 Mg124 3.127474 1_555
Mg102 Mg82 3.161688 1_555
Mg102 Mg78 3.162688 1_555
Mg102 Mg74 3.171015 1_555
Mg102 Mg122 3.174974 1_555
Mg102 Mg107 3.175679 1_555
Mg102 Mg117 3.177260 1_555
Mg102 Mg130 3.196563 1_555
Mg102 Mg120 3.196970 1_555
Mg102 Mg133 3.202884 1_555
Mg103 Mg125 3.127474 1_655
Mg103 Mg91 3.161688 1_655
Mg103 Mg89 3.162696 1_555
Mg103 Mg98 3.171015 1_655
Mg103 Mg123 3.174958 1_555
Mg103 Mg110 3.175681 1_555
Mg103 Mg118 3.177267 1_655
Mg103 Mg104 3.189873 1_555
Mg103 Mg132 3.196562 1_555
Mg103 Mg120 3.196971 1_665
Mg103 Mg136 3.202876 1_655
Mg104 Mg126 3.127474 1_555
Mg104 Mg90 3.161688 1_555
Mg104 Mg89 3.162696 1_555
Mg104 Mg97 3.171015 1_555
Mg104 Mg123 3.174959 1_555
Mg104 Mg109 3.175679 1_555
Mg104 Mg119 3.177275 1_555
Mg104 Mg132 3.196571 1_555
Mg104 Mg120 3.196970 1_665
Mg104 Mg135 3.202884 1_555
Mg104 Mg99 3.203710 1_565
Mg105 Mg106 3.174126 1_555
Mg105 Mg96 3.179381 1_545
Mg105 Mg75 3.181049 1_555
Mg105 Mg129 3.182989 1_545
Mg105 Mg95 3.183584 1_545
Mg105 Mg113 3.184846 1_545
Mg105 Mg137 3.184913 1_545
Mg105 Mg114 3.185708 1_555
Mg105 Mg122 3.185717 1_555
Mg105 Mg118 3.186726 1_545
Mg105 Mg143 3.192527 1_555
Mg106 Mg99 3.175679 1_555
Mg106 Mg96 3.179373 1_545
Mg106 Mg76 3.181049 1_555
Mg106 Mg129 3.182988 1_545
Mg106 Mg94 3.183585 1_545
Mg106 Mg113 3.184845 1_545
Mg106 Mg138 3.184905 1_545
Mg106 Mg114 3.185717 1_555
Mg106 Mg121 3.185724 1_555
Mg106 Mg119 3.186711 1_545
Mg106 Mg142 3.192519 1_555
Mg107 Mg109 3.174127 1_555
Mg107 Mg87 3.179374 1_555
Mg107 Mg80 3.181041 1_555
Mg107 Mg128 3.182989 1_555
Mg107 Mg82 3.183584 1_555
Mg107 Mg111 3.184846 1_555
Mg107 Mg133 3.184913 1_555
Mg107 Mg115 3.185708 1_555
Mg107 Mg122 3.185733 1_555
Mg107 Mg117 3.186718 1_555
Mg107 Mg145 3.192527 1_555
Mg108 Mg110 3.174128 1_555
Mg108 Mg86 3.179374 1_655
Mg108 Mg79 3.181048 1_555
Mg108 Mg127 3.182989 1_655
Mg108 Mg83 3.183585 1_655
Mg108 Mg112 3.184845 1_655
Mg108 Mg134 3.184905 1_655
Mg108 Mg116 3.185708 1_555
Mg108 Mg121 3.185724 1_555
Mg108 Mg117 3.186718 1_655
Mg108 Mg144 3.192518 1_555
Mg109 Mg87 3.179373 1_555
Mg109 Mg85 3.181049 1_555
Mg109 Mg128 3.182988 1_555
Mg109 Mg90 3.183585 1_555
Mg109 Mg111 3.184845 1_555
Mg109 Mg135 3.184913 1_555
Mg109 Mg115 3.185717 1_555
Mg109 Mg123 3.185724 1_555
Mg109 Mg119 3.186727 1_555
Mg109 Mg146 3.192519 1_555
Mg110 Mg86 3.179381 1_655
Mg110 Mg84 3.181048 1_555
Mg110 Mg127 3.182989 1_655
Mg110 Mg91 3.183585 1_655
Mg110 Mg112 3.184845 1_655
Mg110 Mg136 3.184913 1_655
Mg110 Mg116 3.185716 1_555
Mg110 Mg123 3.185724 1_555
Mg110 Mg118 3.186710 1_655
Mg110 Mg147 3.192518 1_555
Mg111 Mg128 3.176873 1_555
Mg111 Mg112 3.177837 1_555
Mg111 Mg113 3.177838 1_555
Mg111 Mg139 3.182958 1_555
Mg111 Mg140 3.182959 1_555
Mg111 Mg88 3.185293 1_555
Mg111 Mg92 3.185293 1_555
Mg111 Mg119 3.187477 1_555
Mg111 Mg117 3.187485 1_555
Mg111 Mg87 3.188173 1_555
Mg112 Mg127 3.176873 1_555
Mg112 Mg113 3.177837 1_555
Mg112 Mg141 3.182959 1_555
Mg112 Mg139 3.182967 1_555
Mg112 Mg88 3.185285 1_555
Mg112 Mg93 3.185293 1_555
Mg112 Mg118 3.187470 1_555
Mg112 Mg117 3.187486 1_555
Mg112 Mg86 3.188165 1_555
Mg113 Mg129 3.176873 1_555
Mg113 Mg141 3.182958 1_555
Mg113 Mg140 3.182959 1_555
Mg113 Mg92 3.185285 1_555
Mg113 Mg93 3.185293 1_555
Mg113 Mg119 3.187469 1_555
Mg113 Mg118 3.187477 1_555
Mg113 Mg96 3.188165 1_555
Mg114 Mg115 3.174140 1_555
Mg114 Mg116 3.174147 1_555
Mg114 Mg148 3.182645 1_555
Mg114 Mg122 3.182827 1_555
Mg114 Mg121 3.182859 1_555
Mg114 Mg81 3.186640 1_555
Mg114 Mg143 3.187366 1_555
Mg114 Mg142 3.187382 1_555
Mg114 Mg75 3.191691 1_555
Mg114 Mg76 3.191700 1_555
Mg115 Mg116 3.174155 1_555
Mg115 Mg148 3.182653 1_555
Mg115 Mg122 3.182835 1_555
Mg115 Mg123 3.182859 1_555
Mg115 Mg81 3.186648 1_555
Mg115 Mg145 3.187366 1_555
Mg115 Mg146 3.187382 1_555
Mg115 Mg80 3.191691 1_555
Mg115 Mg85 3.191700 1_555
Mg116 Mg148 3.182645 1_555
Mg116 Mg121 3.182844 1_555
Mg116 Mg123 3.182860 1_555
Mg116 Mg81 3.186639 1_555
Mg116 Mg144 3.187374 1_555
Mg116 Mg147 3.187382 1_555
Mg116 Mg79 3.191684 1_555
Mg116 Mg84 3.191700 1_555
Mg117 Mg133 3.175982 1_555
Mg117 Mg134 3.175989 1_555
Mg117 Mg139 3.183329 1_555
Mg117 Mg83 3.185075 1_555
Mg117 Mg82 3.185075 1_555
Mg117 Mg88 3.194303 1_555
Mg118 Mg136 3.175989 1_555
Mg118 Mg137 3.175997 1_555
Mg118 Mg141 3.183329 1_555
Mg118 Mg91 3.185075 1_555
Mg118 Mg95 3.185083 1_555
Mg118 Mg93 3.194288 1_555
Mg119 Mg135 3.175989 1_555
Mg119 Mg138 3.175990 1_555
Mg119 Mg99 3.177267 1_565
Mg119 Mg140 3.183328 1_555
Mg119 Mg94 3.185075 1_555
Mg119 Mg90 3.185083 1_555
Mg119 Mg92 3.194295 1_555
Mg120 Mg125 3.132777 1_545
Mg120 Mg124 3.132777 1_555
Mg120 Mg126 3.132785 1_445
Mg120 Mg97 3.188218 1_445
Mg120 Mg98 3.188218 1_545
Mg120 Mg74 3.188218 1_555
Mg120 Mg99 3.196970 1_455
Mg121 Mg99 3.174959 1_555
Mg121 Mg131 3.178297 1_555
Mg121 Mg142 3.180932 1_555
Mg121 Mg144 3.180932 1_555
Mg121 Mg77 3.186980 1_555
Mg121 Mg76 3.190756 1_555
Mg121 Mg79 3.190764 1_555
Mg122 Mg130 3.178305 1_555
Mg122 Mg143 3.180924 1_555
Mg122 Mg145 3.180932 1_555
Mg122 Mg78 3.186996 1_555
Mg122 Mg75 3.190748 1_555
Mg122 Mg80 3.190764 1_555
Mg123 Mg132 3.178298 1_555
Mg123 Mg146 3.180932 1_555
Mg123 Mg147 3.180932 1_555
Mg123 Mg89 3.186980 1_555
Mg123 Mg85 3.190756 1_555
Mg123 Mg84 3.190756 1_555
Mg124 Mg133 3.152760 1_555
Mg124 Mg134 3.152770 1_555
Mg124 Mg130 3.177395 1_555
Mg124 Mg131 3.177395 1_455
Mg125 Mg137 3.152752 1_555
Mg125 Mg136 3.152754 1_555
Mg125 Mg132 3.177395 1_455
Mg125 Mg130 3.177403 1_565
Mg126 Mg99 3.127466 1_565
Mg126 Mg138 3.152752 1_555
Mg126 Mg135 3.152753 1_555
Mg126 Mg131 3.177397 1_565
Mg126 Mg132 3.177413 1_555
Mg127 Mg13 3.171658 1_556
Mg127 Mg134 3.176772 1_555
Mg127 Mg136 3.176788 1_555
Mg127 Mg141 3.179105 1_555
Mg127 Mg139 3.179113 1_555
Mg127 Mg147 3.189912 1_455
Mg127 Mg144 3.189912 1_455
Mg127 Mg16 3.192998 1_556
Mg128 Mg135 3.176779 1_555
Mg128 Mg133 3.176779 1_555
Mg128 Mg139 3.179096 1_555
Mg128 Mg140 3.179106 1_555
Mg128 Mg146 3.189912 1_555
Mg128 Mg145 3.189921 1_555
Mg128 Mg15 3.192998 1_556
Mg129 Mg23 3.171649 1_556
Mg129 Mg22 3.171658 1_556
Mg129 Mg138 3.176771 1_555
Mg129 Mg137 3.176786 1_555
Mg129 Mg141 3.179105 1_555
Mg129 Mg140 3.179106 1_555
Mg129 Mg142 3.189912 1_565
Mg129 Mg143 3.189921 1_565
Mg129 Mg19 3.192999 1_556
Mg130 Mg6 3.179288 1_556
Mg130 Mg133 3.186653 1_555
Mg130 Mg137 3.186653 1_545
Mg130 Mg145 3.188754 1_555
Mg130 Mg143 3.188762 1_555
Mg130 Mg3 3.205588 1_556
Mg131 Mg5 3.179295 1_556
Mg131 Mg134 3.186644 1_655
Mg131 Mg138 3.186659 1_545
Mg131 Mg144 3.188748 1_555
Mg131 Mg142 3.188754 1_555
Mg131 Mg99 3.196571 1_555
Mg131 Mg2 3.205589 1_556
Mg132 Mg18 3.179295 1_556
Mg132 Mg17 3.179296 1_556
Mg132 Mg136 3.186635 1_655
Mg132 Mg135 3.186667 1_555
Mg132 Mg147 3.188748 1_555
Mg132 Mg146 3.188754 1_555
Mg132 Mg14 3.205581 1_556
Mg133 Mg6 3.143109 1_556
Mg133 Mg145 3.178129 1_555
Mg133 Mg139 3.181508 1_555
Mg133 Mg9 3.187275 1_556
Mg133 Mg134 3.192132 1_555
Mg134 Mg5 3.143108 1_456
Mg134 Mg144 3.178098 1_455
Mg134 Mg139 3.181522 1_555
Mg134 Mg9 3.187283 1_556
Mg135 Mg17 3.143108 1_556
Mg135 Mg146 3.178115 1_555
Mg135 Mg140 3.181522 1_555
Mg135 Mg21 3.187275 1_556
Mg135 Mg138 3.192133 1_555
Mg136 Mg18 3.143093 1_456
Mg136 Mg147 3.178106 1_455
Mg136 Mg141 3.181538 1_555
Mg136 Mg20 3.187283 1_556
Mg136 Mg137 3.192132 1_555
Mg137 Mg143 3.178122 1_565
Mg137 Mg141 3.181540 1_555
Mg137 Mg20 3.187284 1_556
Mg137 Mg22 3.196057 1_556
Mg138 Mg142 3.178099 1_565
Mg138 Mg140 3.181530 1_555
Mg138 Mg21 3.187284 1_556
Mg138 Mg23 3.196057 1_556
Mg138 Mg99 3.202884 1_565
Mg139 Mg15 3.177574 1_556
Mg139 Mg16 3.177582 1_556
Mg139 Mg9 3.179653 1_556
Mg139 Mg140 3.182640 1_555
Mg139 Mg141 3.182650 1_555
Mg140 Mg15 3.177574 1_556
Mg140 Mg19 3.177574 1_556
Mg140 Mg21 3.179660 1_556
Mg140 Mg141 3.182632 1_555
Mg141 Mg19 3.177574 1_556
Mg141 Mg16 3.177574 1_556
Mg141 Mg20 3.179660 1_556
Mg142 Mg2 3.171761 1_556
Mg142 Mg144 3.180922 1_555
Mg142 Mg23 3.182787 1_546
Mg142 Mg4 3.184273 1_556
Mg142 Mg148 3.185293 1_555
Mg142 Mg143 3.189666 1_555
Mg143 Mg3 3.171761 1_556
Mg143 Mg145 3.180907 1_555
Mg143 Mg22 3.182794 1_546
Mg143 Mg4 3.184256 1_556
Mg143 Mg148 3.185283 1_555
Mg144 Mg2 3.171761 1_556
Mg144 Mg8 3.184265 1_556
Mg144 Mg148 3.185291 1_555
Mg144 Mg147 3.189675 1_555
Mg145 Mg3 3.171761 1_556
Mg145 Mg7 3.184256 1_556
Mg145 Mg148 3.185291 1_555
Mg145 Mg146 3.189666 1_555
Mg146 Mg147 3.180922 1_555
Mg146 Mg7 3.184273 1_556
Mg146 Mg148 3.185309 1_555
Mg147 Mg8 3.184273 1_556
Mg147 Mg148 3.185299 1_555
Mg148 Mg8 3.169208 1_556
Mg148 Mg4 3.169209 1_556
Mg148 Mg7 3.169217 1_556
I0 Mg125 3.284137 1_544
I0 Mg47 3.284137 1_545
I0 Mg124 3.284137 1_554
I0 Mg46 3.284137 1_555
I0 Mg126 3.284144 1_444
I0 Mg48 3.284144 1_445
I0 Mg5 3.286887 1_455
I0 Mg1 3.286893 1_455
I0 Mg6 3.286894 1_555
I0 Mg17 3.286894 1_445
I0 Mg0 3.286901 1_555
I0 Mg18 3.286903 1_445
