# generated using pymatgen
data_Cr2AgN3
_symmetry_space_group_name_H-M   'P 1'
_cell_length_a   5.84348000
_cell_length_b   5.84347989
_cell_length_c   56.05171800
_cell_angle_alpha   90.00000000
_cell_angle_beta   90.00000000
_cell_angle_gamma   120.00000062
_symmetry_Int_Tables_number   1
_chemical_formula_structural   Cr2AgN3
_chemical_formula_sum   'Cr48 Ag24 N72'
_cell_volume   1657.53486841
_cell_formula_units_Z   24
loop_
 _symmetry_equiv_pos_site_id
 _symmetry_equiv_pos_as_xyz
  1  'x, y, z'
loop_
 _atom_site_type_symbol
 _atom_site_label
 _atom_site_symmetry_multiplicity
 _atom_site_fract_x
 _atom_site_fract_y
 _atom_site_fract_z
 _atom_site_occupancy
  Cr  Cr0_0  1  0.20209400  0.27602550  0.05926650  1
  Cr  Cr0_1  1  0.20209400  0.27602550  0.55926650  1
  Cr  Cr0_2  1  0.20209400  0.77602550  0.05926650  1
  Cr  Cr0_3  1  0.20209400  0.77602550  0.55926650  1
  Cr  Cr0_4  1  0.70209400  0.27602550  0.05926650  1
  Cr  Cr0_5  1  0.70209400  0.27602550  0.55926650  1
  Cr  Cr0_6  1  0.70209400  0.77602550  0.05926650  1
  Cr  Cr0_7  1  0.70209400  0.77602550  0.55926650  1
  Cr  Cr1_0  1  0.07393200  0.29790600  0.39259950  1
  Cr  Cr1_1  1  0.07393200  0.29790600  0.89259950  1
  Cr  Cr1_2  1  0.07393200  0.79790600  0.39259950  1
  Cr  Cr1_3  1  0.07393200  0.79790600  0.89259950  1
  Cr  Cr1_4  1  0.57393200  0.29790600  0.39259950  1
  Cr  Cr1_5  1  0.57393200  0.29790600  0.89259950  1
  Cr  Cr1_6  1  0.57393200  0.79790600  0.39259950  1
  Cr  Cr1_7  1  0.57393200  0.79790600  0.89259950  1
  Cr  Cr2_0  1  0.22397450  0.42606800  0.22593300  1
  Cr  Cr2_1  1  0.22397450  0.42606800  0.72593300  1
  Cr  Cr2_2  1  0.22397450  0.92606800  0.22593300  1
  Cr  Cr2_3  1  0.22397450  0.92606800  0.72593300  1
  Cr  Cr2_4  1  0.72397450  0.42606800  0.22593300  1
  Cr  Cr2_5  1  0.72397450  0.42606800  0.72593300  1
  Cr  Cr2_6  1  0.72397450  0.92606800  0.22593300  1
  Cr  Cr2_7  1  0.72397450  0.92606800  0.72593300  1
  Cr  Cr3_0  1  0.29790600  0.07393200  0.10740050  1
  Cr  Cr3_1  1  0.29790600  0.07393200  0.60740050  1
  Cr  Cr3_2  1  0.29790600  0.57393200  0.10740050  1
  Cr  Cr3_3  1  0.29790600  0.57393200  0.60740050  1
  Cr  Cr3_4  1  0.79790600  0.07393200  0.10740050  1
  Cr  Cr3_5  1  0.79790600  0.07393200  0.60740050  1
  Cr  Cr3_6  1  0.79790600  0.57393200  0.10740050  1
  Cr  Cr3_7  1  0.79790600  0.57393200  0.60740050  1
  Cr  Cr4_0  1  0.27602550  0.20209400  0.44073350  1
  Cr  Cr4_1  1  0.27602550  0.20209400  0.94073350  1
  Cr  Cr4_2  1  0.27602550  0.70209400  0.44073350  1
  Cr  Cr4_3  1  0.27602550  0.70209400  0.94073350  1
  Cr  Cr4_4  1  0.77602550  0.20209400  0.44073350  1
  Cr  Cr4_5  1  0.77602550  0.20209400  0.94073350  1
  Cr  Cr4_6  1  0.77602550  0.70209400  0.44073350  1
  Cr  Cr4_7  1  0.77602550  0.70209400  0.94073350  1
  Cr  Cr5_0  1  0.42606800  0.22397450  0.27406700  1
  Cr  Cr5_1  1  0.42606800  0.22397450  0.77406700  1
  Cr  Cr5_2  1  0.42606800  0.72397450  0.27406700  1
  Cr  Cr5_3  1  0.42606800  0.72397450  0.77406700  1
  Cr  Cr5_4  1  0.92606800  0.22397450  0.27406700  1
  Cr  Cr5_5  1  0.92606800  0.22397450  0.77406700  1
  Cr  Cr5_6  1  0.92606800  0.72397450  0.27406700  1
  Cr  Cr5_7  1  0.92606800  0.72397450  0.77406700  1
  Ag  Ag0_0  1  0.00000000  0.35204000  0.33333350  1
  Ag  Ag0_1  1  0.00000000  0.35204000  0.83333350  1
  Ag  Ag0_2  1  0.00000000  0.85204000  0.33333350  1
  Ag  Ag0_3  1  0.00000000  0.85204000  0.83333350  1
  Ag  Ag0_4  1  0.50000000  0.35204000  0.33333350  1
  Ag  Ag0_5  1  0.50000000  0.35204000  0.83333350  1
  Ag  Ag0_6  1  0.50000000  0.85204000  0.33333350  1
  Ag  Ag0_7  1  0.50000000  0.85204000  0.83333350  1
  Ag  Ag1_0  1  0.35204000  0.00000000  0.16666650  1
  Ag  Ag1_1  1  0.35204000  0.00000000  0.66666650  1
  Ag  Ag1_2  1  0.35204000  0.50000000  0.16666650  1
  Ag  Ag1_3  1  0.35204000  0.50000000  0.66666650  1
  Ag  Ag1_4  1  0.85204000  0.00000000  0.16666650  1
  Ag  Ag1_5  1  0.85204000  0.00000000  0.66666650  1
  Ag  Ag1_6  1  0.85204000  0.50000000  0.16666650  1
  Ag  Ag1_7  1  0.85204000  0.50000000  0.66666650  1
  Ag  Ag2_0  1  0.14796000  0.14796000  0.00000000  1
  Ag  Ag2_1  1  0.14796000  0.14796000  0.50000000  1
  Ag  Ag2_2  1  0.14796000  0.64796000  0.00000000  1
  Ag  Ag2_3  1  0.14796000  0.64796000  0.50000000  1
  Ag  Ag2_4  1  0.64796000  0.14796000  0.00000000  1
  Ag  Ag2_5  1  0.64796000  0.14796000  0.50000000  1
  Ag  Ag2_6  1  0.64796000  0.64796000  0.00000000  1
  Ag  Ag2_7  1  0.64796000  0.64796000  0.50000000  1
  N  N0_0  1  0.00000000  0.36785200  0.08333350  1
  N  N0_1  1  0.00000000  0.36785200  0.58333350  1
  N  N0_2  1  0.00000000  0.86785200  0.08333350  1
  N  N0_3  1  0.00000000  0.86785200  0.58333350  1
  N  N0_4  1  0.50000000  0.36785200  0.08333350  1
  N  N0_5  1  0.50000000  0.36785200  0.58333350  1
  N  N0_6  1  0.50000000  0.86785200  0.08333350  1
  N  N0_7  1  0.50000000  0.86785200  0.58333350  1
  N  N1_0  1  0.36785200  0.00000000  0.41666650  1
  N  N1_1  1  0.36785200  0.00000000  0.91666650  1
  N  N1_2  1  0.36785200  0.50000000  0.41666650  1
  N  N1_3  1  0.36785200  0.50000000  0.91666650  1
  N  N1_4  1  0.86785200  0.00000000  0.41666650  1
  N  N1_5  1  0.86785200  0.00000000  0.91666650  1
  N  N1_6  1  0.86785200  0.50000000  0.41666650  1
  N  N1_7  1  0.86785200  0.50000000  0.91666650  1
  N  N2_0  1  0.13214800  0.13214800  0.25000000  1
  N  N2_1  1  0.13214800  0.13214800  0.75000000  1
  N  N2_2  1  0.13214800  0.63214800  0.25000000  1
  N  N2_3  1  0.13214800  0.63214800  0.75000000  1
  N  N2_4  1  0.63214800  0.13214800  0.25000000  1
  N  N2_5  1  0.63214800  0.13214800  0.75000000  1
  N  N2_6  1  0.63214800  0.63214800  0.25000000  1
  N  N2_7  1  0.63214800  0.63214800  0.75000000  1
  N  N3_0  1  0.41220300  0.27063350  0.21147150  1
  N  N3_1  1  0.41220300  0.27063350  0.71147150  1
  N  N3_2  1  0.41220300  0.77063350  0.21147150  1
  N  N3_3  1  0.41220300  0.77063350  0.71147150  1
  N  N3_4  1  0.91220300  0.27063350  0.21147150  1
  N  N3_5  1  0.91220300  0.27063350  0.71147150  1
  N  N3_6  1  0.91220300  0.77063350  0.21147150  1
  N  N3_7  1  0.91220300  0.77063350  0.71147150  1
  N  N4_0  1  0.35843050  0.08779700  0.04480450  1
  N  N4_1  1  0.35843050  0.08779700  0.54480450  1
  N  N4_2  1  0.35843050  0.58779700  0.04480450  1
  N  N4_3  1  0.35843050  0.58779700  0.54480450  1
  N  N4_4  1  0.85843050  0.08779700  0.04480450  1
  N  N4_5  1  0.85843050  0.08779700  0.54480450  1
  N  N4_6  1  0.85843050  0.58779700  0.04480450  1
  N  N4_7  1  0.85843050  0.58779700  0.54480450  1
  N  N5_0  1  0.22936650  0.14156950  0.37813800  1
  N  N5_1  1  0.22936650  0.14156950  0.87813800  1
  N  N5_2  1  0.22936650  0.64156950  0.37813800  1
  N  N5_3  1  0.22936650  0.64156950  0.87813800  1
  N  N5_4  1  0.72936650  0.14156950  0.37813800  1
  N  N5_5  1  0.72936650  0.14156950  0.87813800  1
  N  N5_6  1  0.72936650  0.64156950  0.37813800  1
  N  N5_7  1  0.72936650  0.64156950  0.87813800  1
  N  N6_0  1  0.08779700  0.35843050  0.45519550  1
  N  N6_1  1  0.08779700  0.35843050  0.95519550  1
  N  N6_2  1  0.08779700  0.85843050  0.45519550  1
  N  N6_3  1  0.08779700  0.85843050  0.95519550  1
  N  N6_4  1  0.58779700  0.35843050  0.45519550  1
  N  N6_5  1  0.58779700  0.35843050  0.95519550  1
  N  N6_6  1  0.58779700  0.85843050  0.45519550  1
  N  N6_7  1  0.58779700  0.85843050  0.95519550  1
  N  N7_0  1  0.27063350  0.41220300  0.28852850  1
  N  N7_1  1  0.27063350  0.41220300  0.78852850  1
  N  N7_2  1  0.27063350  0.91220300  0.28852850  1
  N  N7_3  1  0.27063350  0.91220300  0.78852850  1
  N  N7_4  1  0.77063350  0.41220300  0.28852850  1
  N  N7_5  1  0.77063350  0.41220300  0.78852850  1
  N  N7_6  1  0.77063350  0.91220300  0.28852850  1
  N  N7_7  1  0.77063350  0.91220300  0.78852850  1
  N  N8_0  1  0.14156950  0.22936650  0.12186200  1
  N  N8_1  1  0.14156950  0.22936650  0.62186200  1
  N  N8_2  1  0.14156950  0.72936650  0.12186200  1
  N  N8_3  1  0.14156950  0.72936650  0.62186200  1
  N  N8_4  1  0.64156950  0.22936650  0.12186200  1
  N  N8_5  1  0.64156950  0.22936650  0.62186200  1
  N  N8_6  1  0.64156950  0.72936650  0.12186200  1
  N  N8_7  1  0.64156950  0.72936650  0.62186200  1
loop_
_geom_bond_atom_site_label_1
_geom_bond_atom_site_label_2
_geom_bond_distance
_geom_bond_site_symmetry_2
Cr0_0 N4_2 1.773813 1_555
Cr0_0 N4_4 1.921174 1_455
Cr0_0 N4_0 1.925175 1_555
Cr0_0 N0_0 2.033713 1_555
Cr0_0 N0_4 2.050374 1_555
Cr0_0 N0_2 2.467113 1_545
Cr0_1 N4_3 1.773813 1_555
Cr0_1 N4_5 1.921174 1_455
Cr0_1 N4_1 1.925175 1_555
Cr0_1 N0_1 2.033713 1_555
Cr0_1 N0_5 2.050374 1_555
Cr0_1 N0_3 2.467113 1_545
Cr0_2 N4_0 1.773813 1_565
Cr0_2 N4_6 1.921174 1_455
Cr0_2 N4_2 1.925175 1_555
Cr0_2 N0_2 2.033713 1_555
Cr0_2 N0_6 2.050374 1_555
Cr0_2 N0_0 2.467113 1_555
Cr0_3 N4_1 1.773813 1_565
Cr0_3 N4_7 1.921174 1_455
Cr0_3 N4_3 1.925175 1_555
Cr0_3 N0_3 2.033713 1_555
Cr0_3 N0_7 2.050374 1_555
Cr0_3 N0_1 2.467113 1_555
Cr0_4 N4_6 1.773813 1_555
Cr0_4 N4_0 1.921174 1_555
Cr0_4 N4_4 1.925175 1_555
Cr0_4 N0_4 2.033713 1_555
Cr0_4 N0_0 2.050374 1_655
Cr0_4 N0_6 2.467113 1_545
Cr0_5 N4_7 1.773813 1_555
Cr0_5 N4_1 1.921174 1_555
Cr0_5 N4_5 1.925175 1_555
Cr0_5 N0_5 2.033713 1_555
Cr0_5 N0_1 2.050374 1_655
Cr0_5 N0_7 2.467113 1_545
Cr0_6 N4_4 1.773813 1_565
Cr0_6 N4_2 1.921174 1_555
Cr0_6 N4_6 1.925175 1_555
Cr0_6 N0_6 2.033713 1_555
Cr0_6 N0_2 2.050374 1_655
Cr0_6 N0_4 2.467113 1_555
Cr0_7 N4_5 1.773813 1_565
Cr0_7 N4_3 1.921174 1_555
Cr0_7 N4_7 1.925175 1_555
Cr0_7 N0_7 2.033713 1_555
Cr0_7 N0_3 2.050374 1_655
Cr0_7 N0_5 2.467113 1_555
Cr1_0 N5_0 1.773798 1_555
Cr1_0 N5_2 1.921162 1_555
Cr1_0 N5_4 1.925166 1_455
Cr1_0 N1_2 2.033712 1_555
Cr1_0 N1_4 2.050375 1_455
Cr1_0 N1_6 2.467115 1_455
Cr1_1 N5_1 1.773798 1_555
Cr1_1 N5_3 1.921162 1_555
Cr1_1 N5_5 1.925166 1_455
Cr1_1 N1_3 2.033712 1_555
Cr1_1 N1_5 2.050375 1_455
Cr1_1 N1_7 2.467115 1_455
Cr1_2 N5_2 1.773798 1_555
Cr1_2 N5_0 1.921162 1_565
Cr1_2 N5_6 1.925166 1_455
Cr1_2 N1_0 2.033712 1_565
Cr1_2 N1_6 2.050375 1_455
Cr1_2 N1_4 2.467115 1_465
Cr1_3 N5_3 1.773798 1_555
Cr1_3 N5_1 1.921162 1_565
Cr1_3 N5_7 1.925166 1_455
Cr1_3 N1_1 2.033712 1_565
Cr1_3 N1_7 2.050375 1_455
Cr1_3 N1_5 2.467115 1_465
Cr1_4 N5_4 1.773798 1_555
Cr1_4 N5_6 1.921162 1_555
Cr1_4 N5_0 1.925166 1_555
Cr1_4 N1_6 2.033712 1_555
Cr1_4 N1_0 2.050375 1_555
Cr1_4 N1_2 2.467115 1_555
Cr1_5 N5_5 1.773798 1_555
Cr1_5 N5_7 1.921162 1_555
Cr1_5 N5_1 1.925166 1_555
Cr1_5 N1_7 2.033712 1_555
Cr1_5 N1_1 2.050375 1_555
Cr1_5 N1_3 2.467115 1_555
Cr1_6 N5_6 1.773798 1_555
Cr1_6 N5_4 1.921162 1_565
Cr1_6 N5_2 1.925166 1_555
Cr1_6 N1_4 2.033712 1_565
Cr1_6 N1_2 2.050375 1_555
Cr1_6 N1_0 2.467115 1_565
Cr1_7 N5_7 1.773798 1_555
Cr1_7 N5_5 1.921162 1_565
Cr1_7 N5_3 1.925166 1_555
Cr1_7 N1_5 2.033712 1_565
Cr1_7 N1_3 2.050375 1_555
Cr1_7 N1_1 2.467115 1_565
Cr2_0 N3_4 1.773800 1_455
Cr2_0 N3_0 1.921159 1_555
Cr2_0 N3_2 1.925165 1_555
Cr2_0 N2_0 2.033711 1_555
Cr2_0 N2_2 2.050376 1_555
Cr2_0 N2_6 2.467113 1_555
Cr2_1 N3_5 1.773800 1_455
Cr2_1 N3_1 1.921159 1_555
Cr2_1 N3_3 1.925165 1_555
Cr2_1 N2_1 2.033711 1_555
Cr2_1 N2_3 2.050376 1_555
Cr2_1 N2_7 2.467113 1_555
Cr2_2 N3_6 1.773800 1_455
Cr2_2 N3_2 1.921159 1_555
Cr2_2 N3_0 1.925165 1_565
Cr2_2 N2_2 2.033711 1_555
Cr2_2 N2_0 2.050376 1_565
Cr2_2 N2_4 2.467113 1_565
Cr2_3 N3_7 1.773800 1_455
Cr2_3 N3_3 1.921159 1_555
Cr2_3 N3_1 1.925165 1_565
Cr2_3 N2_3 2.033711 1_555
Cr2_3 N2_1 2.050376 1_565
Cr2_3 N2_5 2.467113 1_565
Cr2_4 N3_0 1.773800 1_555
Cr2_4 N3_4 1.921159 1_555
Cr2_4 N3_6 1.925165 1_555
Cr2_4 N2_4 2.033711 1_555
Cr2_4 N2_6 2.050376 1_555
Cr2_4 N2_2 2.467113 1_655
Cr2_5 N3_1 1.773800 1_555
Cr2_5 N3_5 1.921159 1_555
Cr2_5 N3_7 1.925165 1_555
Cr2_5 N2_5 2.033711 1_555
Cr2_5 N2_7 2.050376 1_555
Cr2_5 N2_3 2.467113 1_655
Cr2_6 N3_2 1.773800 1_555
Cr2_6 N3_6 1.921159 1_555
Cr2_6 N3_4 1.925165 1_565
Cr2_6 N2_6 2.033711 1_555
Cr2_6 N2_4 2.050376 1_565
Cr2_6 N2_0 2.467113 1_665
Cr2_7 N3_3 1.773800 1_555
Cr2_7 N3_7 1.921159 1_555
Cr2_7 N3_5 1.925165 1_565
Cr2_7 N2_7 2.033711 1_555
Cr2_7 N2_5 2.050376 1_565
Cr2_7 N2_1 2.467113 1_665
Cr3_0 N8_0 1.773798 1_555
Cr3_0 N8_4 1.921162 1_555
Cr3_0 N8_2 1.925166 1_545
Cr3_0 N0_4 2.033712 1_555
Cr3_0 N0_2 2.050375 1_545
Cr3_0 N0_6 2.467115 1_545
Cr3_1 N8_1 1.773798 1_555
Cr3_1 N8_5 1.921162 1_555
Cr3_1 N8_3 1.925166 1_545
Cr3_1 N0_5 2.033712 1_555
Cr3_1 N0_3 2.050375 1_545
Cr3_1 N0_7 2.467115 1_545
Cr3_2 N8_2 1.773798 1_555
Cr3_2 N8_6 1.921162 1_555
Cr3_2 N8_0 1.925166 1_555
Cr3_2 N0_6 2.033712 1_555
Cr3_2 N0_0 2.050375 1_555
Cr3_2 N0_4 2.467115 1_555
Cr3_3 N8_3 1.773798 1_555
Cr3_3 N8_7 1.921162 1_555
Cr3_3 N8_1 1.925166 1_555
Cr3_3 N0_7 2.033712 1_555
Cr3_3 N0_1 2.050375 1_555
Cr3_3 N0_5 2.467115 1_555
Cr3_4 N8_4 1.773798 1_555
Cr3_4 N8_0 1.921162 1_655
Cr3_4 N8_6 1.925166 1_545
Cr3_4 N0_0 2.033712 1_655
Cr3_4 N0_6 2.050375 1_545
Cr3_4 N0_2 2.467115 1_645
Cr3_5 N8_5 1.773798 1_555
Cr3_5 N8_1 1.921162 1_655
Cr3_5 N8_7 1.925166 1_545
Cr3_5 N0_1 2.033712 1_655
Cr3_5 N0_7 2.050375 1_545
Cr3_5 N0_3 2.467115 1_645
Cr3_6 N8_6 1.773798 1_555
Cr3_6 N8_2 1.921162 1_655
Cr3_6 N8_4 1.925166 1_555
Cr3_6 N0_2 2.033712 1_655
Cr3_6 N0_4 2.050375 1_555
Cr3_6 N0_0 2.467115 1_655
Cr3_7 N8_7 1.773798 1_555
Cr3_7 N8_3 1.921162 1_655
Cr3_7 N8_5 1.925166 1_555
Cr3_7 N0_3 2.033712 1_655
Cr3_7 N0_5 2.050375 1_555
Cr3_7 N0_1 2.467115 1_655
Cr4_0 N6_4 1.773813 1_555
Cr4_0 N6_2 1.921173 1_545
Cr4_0 N6_0 1.925175 1_555
Cr4_0 N1_0 2.033713 1_555
Cr4_0 N1_2 2.050374 1_555
Cr4_0 N1_4 2.467113 1_455
Cr4_1 N6_5 1.773813 1_555
Cr4_1 N6_3 1.921173 1_545
Cr4_1 N6_1 1.925175 1_555
Cr4_1 N1_1 2.033713 1_555
Cr4_1 N1_3 2.050374 1_555
Cr4_1 N1_5 2.467113 1_455
Cr4_2 N6_6 1.773813 1_555
Cr4_2 N6_0 1.921173 1_555
Cr4_2 N6_2 1.925175 1_555
Cr4_2 N1_2 2.033713 1_555
Cr4_2 N1_0 2.050374 1_565
Cr4_2 N1_6 2.467113 1_455
Cr4_3 N6_7 1.773813 1_555
Cr4_3 N6_1 1.921173 1_555
Cr4_3 N6_3 1.925175 1_555
Cr4_3 N1_3 2.033713 1_555
Cr4_3 N1_1 2.050374 1_565
Cr4_3 N1_7 2.467113 1_455
Cr4_4 N6_0 1.773813 1_655
Cr4_4 N6_6 1.921173 1_545
Cr4_4 N6_4 1.925175 1_555
Cr4_4 N1_4 2.033713 1_555
Cr4_4 N1_6 2.050374 1_555
Cr4_4 N1_0 2.467113 1_555
Cr4_5 N6_1 1.773813 1_655
Cr4_5 N6_7 1.921173 1_545
Cr4_5 N6_5 1.925175 1_555
Cr4_5 N1_5 2.033713 1_555
Cr4_5 N1_7 2.050374 1_555
Cr4_5 N1_1 2.467113 1_555
Cr4_6 N6_2 1.773813 1_655
Cr4_6 N6_4 1.921173 1_555
Cr4_6 N6_6 1.925175 1_555
Cr4_6 N1_6 2.033713 1_555
Cr4_6 N1_4 2.050374 1_565
Cr4_6 N1_2 2.467113 1_555
Cr4_7 N6_3 1.773813 1_655
Cr4_7 N6_5 1.921173 1_555
Cr4_7 N6_7 1.925175 1_555
Cr4_7 N1_7 2.033713 1_555
Cr4_7 N1_5 2.050374 1_565
Cr4_7 N1_3 2.467113 1_555
Cr5_0 N7_2 1.773800 1_545
Cr5_0 N7_0 1.921159 1_555
Cr5_0 N7_4 1.925166 1_555
Cr5_0 N2_0 2.033711 1_555
Cr5_0 N2_4 2.050376 1_555
Cr5_0 N2_6 2.467113 1_555
Cr5_1 N7_3 1.773800 1_545
Cr5_1 N7_1 1.921159 1_555
Cr5_1 N7_5 1.925166 1_555
Cr5_1 N2_1 2.033711 1_555
Cr5_1 N2_5 2.050376 1_555
Cr5_1 N2_7 2.467113 1_555
Cr5_2 N7_0 1.773800 1_555
Cr5_2 N7_2 1.921159 1_555
Cr5_2 N7_6 1.925166 1_555
Cr5_2 N2_2 2.033711 1_555
Cr5_2 N2_6 2.050376 1_555
Cr5_2 N2_4 2.467113 1_565
Cr5_3 N7_1 1.773800 1_555
Cr5_3 N7_3 1.921159 1_555
Cr5_3 N7_7 1.925166 1_555
Cr5_3 N2_3 2.033711 1_555
Cr5_3 N2_7 2.050376 1_555
Cr5_3 N2_5 2.467113 1_565
Cr5_4 N7_6 1.773800 1_545
Cr5_4 N7_4 1.921159 1_555
Cr5_4 N7_0 1.925166 1_655
Cr5_4 N2_4 2.033711 1_555
Cr5_4 N2_0 2.050376 1_655
Cr5_4 N2_2 2.467113 1_655
Cr5_5 N7_7 1.773800 1_545
Cr5_5 N7_5 1.921159 1_555
Cr5_5 N7_1 1.925166 1_655
Cr5_5 N2_5 2.033711 1_555
Cr5_5 N2_1 2.050376 1_655
Cr5_5 N2_3 2.467113 1_655
Cr5_6 N7_4 1.773800 1_555
Cr5_6 N7_6 1.921159 1_555
Cr5_6 N7_2 1.925166 1_655
Cr5_6 N2_6 2.033711 1_555
Cr5_6 N2_2 2.050376 1_655
Cr5_6 N2_0 2.467113 1_665
Cr5_7 N7_5 1.773800 1_555
Cr5_7 N7_7 1.921159 1_555
Cr5_7 N7_3 1.925166 1_655
Cr5_7 N2_7 2.033711 1_555
Cr5_7 N2_3 2.050376 1_655
Cr5_7 N2_1 2.467113 1_665
Ag0_0 N5_4 2.894055 1_455
Ag0_0 N7_0 2.894079 1_555
Ag0_0 Ag0_2 2.921740 1_545
Ag0_0 Ag0_6 2.921740 1_445
Ag0_0 Ag0_6 2.921740 1_555
Ag0_0 Ag0_2 2.921740 1_555
Ag0_0 Ag0_4 2.921740 1_455
Ag0_0 Ag0_4 2.921740 1_555
Ag0_0 N5_2 2.949266 1_555
Ag0_0 N7_4 2.949290 1_455
Ag0_1 N5_5 2.894055 1_455
Ag0_1 N7_1 2.894079 1_555
Ag0_1 Ag0_3 2.921740 1_545
Ag0_1 Ag0_7 2.921740 1_445
Ag0_1 Ag0_7 2.921740 1_555
Ag0_1 Ag0_3 2.921740 1_555
Ag0_1 Ag0_5 2.921740 1_555
Ag0_1 Ag0_5 2.921740 1_455
Ag0_1 N5_3 2.949266 1_555
Ag0_1 N7_5 2.949290 1_455
Ag0_2 N5_6 2.894055 1_455
Ag0_2 N7_2 2.894079 1_555
Ag0_2 Ag0_4 2.921740 1_565
Ag0_2 Ag0_4 2.921740 1_455
Ag0_2 Ag0_6 2.921740 1_555
Ag0_2 Ag0_6 2.921740 1_455
Ag0_2 N5_0 2.949266 1_565
Ag0_2 N7_6 2.949290 1_455
Ag0_3 N5_7 2.894055 1_455
Ag0_3 N7_3 2.894079 1_555
Ag0_3 Ag0_5 2.921740 1_565
Ag0_3 Ag0_5 2.921740 1_455
Ag0_3 Ag0_7 2.921740 1_555
Ag0_3 Ag0_7 2.921740 1_455
Ag0_3 N5_1 2.949266 1_565
Ag0_3 N7_7 2.949290 1_455
Ag0_4 N5_0 2.894055 1_555
Ag0_4 N7_4 2.894079 1_555
Ag0_4 Ag0_6 2.921740 1_545
Ag0_4 Ag0_6 2.921740 1_555
Ag0_4 N5_6 2.949266 1_555
Ag0_4 N7_0 2.949290 1_555
Ag0_5 N5_1 2.894055 1_555
Ag0_5 N7_5 2.894079 1_555
Ag0_5 Ag0_7 2.921740 1_545
Ag0_5 Ag0_7 2.921740 1_555
Ag0_5 N5_7 2.949266 1_555
Ag0_5 N7_1 2.949290 1_555
Ag0_6 N5_2 2.894055 1_555
Ag0_6 N7_6 2.894079 1_555
Ag0_6 N5_4 2.949266 1_565
Ag0_6 N7_2 2.949290 1_555
Ag0_7 N5_3 2.894055 1_555
Ag0_7 N7_7 2.894079 1_555
Ag0_7 N5_5 2.949266 1_565
Ag0_7 N7_3 2.949290 1_555
Ag1_0 N8_2 2.894055 1_545
Ag1_0 N3_0 2.894079 1_555
Ag1_0 Ag1_6 2.921740 1_445
Ag1_0 Ag1_2 2.921740 1_545
Ag1_0 Ag1_2 2.921740 1_555
Ag1_0 Ag1_6 2.921740 1_555
Ag1_0 Ag1_4 2.921740 1_555
Ag1_0 Ag1_4 2.921740 1_455
Ag1_0 N8_4 2.949266 1_555
Ag1_0 N3_2 2.949290 1_545
Ag1_1 N8_3 2.894055 1_545
Ag1_1 N3_1 2.894079 1_555
Ag1_1 Ag1_7 2.921740 1_445
Ag1_1 Ag1_7 2.921740 1_555
Ag1_1 Ag1_3 2.921740 1_555
Ag1_1 Ag1_3 2.921740 1_545
Ag1_1 Ag1_5 2.921740 1_555
Ag1_1 Ag1_5 2.921740 1_455
Ag1_1 N8_5 2.949266 1_555
Ag1_1 N3_3 2.949290 1_545
Ag1_2 N8_0 2.894055 1_555
Ag1_2 N3_2 2.894079 1_555
Ag1_2 Ag1_4 2.921740 1_565
Ag1_2 Ag1_4 2.921740 1_455
Ag1_2 Ag1_6 2.921740 1_455
Ag1_2 Ag1_6 2.921740 1_555
Ag1_2 N8_6 2.949266 1_555
Ag1_2 N3_0 2.949290 1_555
Ag1_3 N8_1 2.894055 1_555
Ag1_3 N3_3 2.894079 1_555
Ag1_3 Ag1_5 2.921740 1_565
Ag1_3 Ag1_5 2.921740 1_455
Ag1_3 Ag1_7 2.921740 1_455
Ag1_3 Ag1_7 2.921740 1_555
Ag1_3 N8_7 2.949266 1_555
Ag1_3 N3_1 2.949290 1_555
Ag1_4 N8_6 2.894055 1_545
Ag1_4 N3_4 2.894079 1_555
Ag1_4 Ag1_6 2.921740 1_555
Ag1_4 Ag1_6 2.921740 1_545
Ag1_4 N8_0 2.949266 1_655
Ag1_4 N3_6 2.949290 1_545
Ag1_5 N8_7 2.894055 1_545
Ag1_5 N3_5 2.894079 1_555
Ag1_5 Ag1_7 2.921740 1_555
Ag1_5 Ag1_7 2.921740 1_545
Ag1_5 N8_1 2.949266 1_655
Ag1_5 N3_7 2.949290 1_545
Ag1_6 N8_4 2.894055 1_555
Ag1_6 N3_6 2.894079 1_555
Ag1_6 N8_2 2.949266 1_655
Ag1_6 N3_4 2.949290 1_555
Ag1_7 N8_5 2.894055 1_555
Ag1_7 N3_7 2.894079 1_555
Ag1_7 N8_3 2.949266 1_655
Ag1_7 N3_5 2.949290 1_555
Ag2_0 N6_1 2.894055 1_554
Ag2_0 N4_0 2.894055 1_555
Ag2_0 Ag2_6 2.921740 1_445
Ag2_0 Ag2_2 2.921740 1_545
Ag2_0 Ag2_2 2.921740 1_555
Ag2_0 Ag2_6 2.921740 1_555
Ag2_0 Ag2_4 2.921740 1_455
Ag2_0 Ag2_4 2.921740 1_555
Ag2_0 N6_3 2.949266 1_544
Ag2_0 N4_4 2.949266 1_455
Ag2_1 N6_0 2.894055 1_555
Ag2_1 N4_1 2.894055 1_555
Ag2_1 Ag2_7 2.921740 1_555
Ag2_1 Ag2_3 2.921740 1_555
Ag2_1 Ag2_3 2.921740 1_545
Ag2_1 Ag2_7 2.921740 1_445
Ag2_1 Ag2_5 2.921740 1_455
Ag2_1 Ag2_5 2.921740 1_555
Ag2_1 N6_2 2.949266 1_545
Ag2_1 N4_5 2.949266 1_455
Ag2_2 N6_3 2.894055 1_554
Ag2_2 N4_2 2.894055 1_555
Ag2_2 Ag2_4 2.921740 1_455
Ag2_2 Ag2_4 2.921740 1_565
Ag2_2 Ag2_6 2.921740 1_455
Ag2_2 Ag2_6 2.921740 1_555
Ag2_2 N6_1 2.949266 1_554
Ag2_2 N4_6 2.949266 1_455
Ag2_3 N6_2 2.894055 1_555
Ag2_3 N4_3 2.894055 1_555
Ag2_3 Ag2_5 2.921740 1_455
Ag2_3 Ag2_5 2.921740 1_565
Ag2_3 Ag2_7 2.921740 1_455
Ag2_3 Ag2_7 2.921740 1_555
Ag2_3 N6_0 2.949266 1_555
Ag2_3 N4_7 2.949266 1_455
Ag2_4 N6_5 2.894055 1_554
Ag2_4 N4_4 2.894055 1_555
Ag2_4 Ag2_6 2.921740 1_545
Ag2_4 Ag2_6 2.921740 1_555
Ag2_4 N6_7 2.949266 1_544
Ag2_4 N4_0 2.949266 1_555
Ag2_5 N6_4 2.894055 1_555
Ag2_5 N4_5 2.894055 1_555
Ag2_5 Ag2_7 2.921740 1_545
Ag2_5 Ag2_7 2.921740 1_555
Ag2_5 N6_6 2.949266 1_545
Ag2_5 N4_1 2.949266 1_555
Ag2_6 N6_7 2.894055 1_554
Ag2_6 N4_6 2.894055 1_555
Ag2_6 N6_5 2.949266 1_554
Ag2_6 N4_2 2.949266 1_555
Ag2_7 N6_6 2.894055 1_555
Ag2_7 N4_7 2.894055 1_555
Ag2_7 N6_4 2.949266 1_555
Ag2_7 N4_3 2.949266 1_555
