# generated using pymatgen
data_CsRbZr6BCl15
_symmetry_space_group_name_H-M   'P 1'
_cell_length_a   10.01148600
_cell_length_b   14.34828200
_cell_length_c   19.16939100
_cell_angle_alpha   90.00000000
_cell_angle_beta   90.00000000
_cell_angle_gamma   90.00000000
_symmetry_Int_Tables_number   1
_chemical_formula_structural   CsRbZr6BCl15
_chemical_formula_sum   'Cs4 Rb4 Zr24 B4 Cl60'
_cell_volume   2753.63747771
_cell_formula_units_Z   4
loop_
 _symmetry_equiv_pos_site_id
 _symmetry_equiv_pos_as_xyz
  1  'x, y, z'
loop_
 _atom_site_type_symbol
 _atom_site_label
 _atom_site_symmetry_multiplicity
 _atom_site_fract_x
 _atom_site_fract_y
 _atom_site_fract_z
 _atom_site_occupancy
  Cs  Cs0  1  0.40689100  0.50000000  0.75000000  1
  Cs  Cs1  1  0.59310900  0.50000000  0.25000000  1
  Cs  Cs2  1  0.00000000  0.00000000  0.50000000  1
  Cs  Cs3  1  0.00000000  0.00000000  0.00000000  1
  Rb  Rb0  1  0.84226200  0.25131700  0.75000000  1
  Rb  Rb1  1  0.15773800  0.74868300  0.25000000  1
  Rb  Rb2  1  0.84226200  0.74868300  0.75000000  1
  Rb  Rb3  1  0.15773800  0.25131700  0.25000000  1
  Zr  Zr0  1  0.58241400  0.00000000  0.75000000  1
  Zr  Zr1  1  0.41758600  0.00000000  0.25000000  1
  Zr  Zr2  1  0.07846300  0.50000000  0.11286600  1
  Zr  Zr3  1  0.92153700  0.50000000  0.88713400  1
  Zr  Zr4  1  0.07846300  0.50000000  0.38713400  1
  Zr  Zr5  1  0.92153700  0.50000000  0.61286600  1
  Zr  Zr6  1  0.15594100  0.38510300  0.52893500  1
  Zr  Zr7  1  0.84405900  0.61489700  0.47106500  1
  Zr  Zr8  1  0.15594100  0.61489700  0.97106500  1
  Zr  Zr9  1  0.84405900  0.38510300  0.47106500  1
  Zr  Zr10  1  0.84405900  0.38510300  0.02893500  1
  Zr  Zr11  1  0.15594100  0.61489700  0.52893500  1
  Zr  Zr12  1  0.84405900  0.61489700  0.02893500  1
  Zr  Zr13  1  0.15594100  0.38510300  0.97106500  1
  Zr  Zr14  1  0.35217800  0.11521100  0.66368500  1
  Zr  Zr15  1  0.64782200  0.88478900  0.33631500  1
  Zr  Zr16  1  0.35217800  0.88478900  0.83631500  1
  Zr  Zr17  1  0.64782200  0.11521100  0.33631500  1
  Zr  Zr18  1  0.64782200  0.11521100  0.16368500  1
  Zr  Zr19  1  0.35217800  0.88478900  0.66368500  1
  Zr  Zr20  1  0.64782200  0.88478900  0.16368500  1
  Zr  Zr21  1  0.35217800  0.11521100  0.83631500  1
  Zr  Zr22  1  0.12413900  0.00000000  0.75000000  1
  Zr  Zr23  1  0.87586100  0.00000000  0.25000000  1
  B  B0  1  0.35399600  0.00000000  0.75000000  1
  B  B1  1  0.64600400  0.00000000  0.25000000  1
  B  B2  1  0.00000000  0.50000000  0.50000000  1
  B  B3  1  0.00000000  0.50000000  0.00000000  1
  Cl  Cl0  1  0.00000000  0.24860200  0.50000000  1
  Cl  Cl1  1  0.00000000  0.75139800  0.50000000  1
  Cl  Cl2  1  0.00000000  0.75139800  0.00000000  1
  Cl  Cl3  1  0.00000000  0.24860200  0.00000000  1
  Cl  Cl4  1  0.08527400  0.37638300  0.65785700  1
  Cl  Cl5  1  0.91472600  0.62361700  0.34214300  1
  Cl  Cl6  1  0.08527400  0.62361700  0.84214300  1
  Cl  Cl7  1  0.91472600  0.37638300  0.34214300  1
  Cl  Cl8  1  0.91472600  0.37638300  0.15785700  1
  Cl  Cl9  1  0.08527400  0.62361700  0.65785700  1
  Cl  Cl10  1  0.91472600  0.62361700  0.15785700  1
  Cl  Cl11  1  0.08527400  0.37638300  0.84214300  1
  Cl  Cl12  1  0.34204300  0.50000000  0.56290100  1
  Cl  Cl13  1  0.65795700  0.50000000  0.43709900  1
  Cl  Cl14  1  0.34204300  0.50000000  0.93709900  1
  Cl  Cl15  1  0.65795700  0.50000000  0.06290100  1
  Cl  Cl16  1  0.35842800  0.25226600  0.75000000  1
  Cl  Cl17  1  0.64157200  0.74773400  0.25000000  1
  Cl  Cl18  1  0.35842800  0.74773400  0.75000000  1
  Cl  Cl19  1  0.64157200  0.25226600  0.25000000  1
  Cl  Cl20  1  0.33641300  0.25099200  0.56531600  1
  Cl  Cl21  1  0.66358700  0.74900800  0.43468400  1
  Cl  Cl22  1  0.33641300  0.74900800  0.93468400  1
  Cl  Cl23  1  0.66358700  0.25099200  0.43468400  1
  Cl  Cl24  1  0.66358700  0.25099200  0.06531600  1
  Cl  Cl25  1  0.33641300  0.74900800  0.56531600  1
  Cl  Cl26  1  0.66358700  0.74900800  0.06531600  1
  Cl  Cl27  1  0.33641300  0.25099200  0.93468400  1
  Cl  Cl28  1  0.09474600  0.12557700  0.65636100  1
  Cl  Cl29  1  0.90525400  0.87442300  0.34363900  1
  Cl  Cl30  1  0.09474600  0.87442300  0.84363900  1
  Cl  Cl31  1  0.90525400  0.12557700  0.34363900  1
  Cl  Cl32  1  0.90525400  0.12557700  0.15636100  1
  Cl  Cl33  1  0.09474600  0.87442300  0.65636100  1
  Cl  Cl34  1  0.90525400  0.87442300  0.15636100  1
  Cl  Cl35  1  0.09474600  0.12557700  0.84363900  1
  Cl  Cl36  1  0.25641600  0.37322400  0.09488800  1
  Cl  Cl37  1  0.74358400  0.62677600  0.90511200  1
  Cl  Cl38  1  0.25641600  0.62677600  0.40511200  1
  Cl  Cl39  1  0.74358400  0.37322400  0.90511200  1
  Cl  Cl40  1  0.74358400  0.37322400  0.59488800  1
  Cl  Cl41  1  0.25641600  0.62677600  0.09488800  1
  Cl  Cl42  1  0.74358400  0.62677600  0.59488800  1
  Cl  Cl43  1  0.25641600  0.37322400  0.40511200  1
  Cl  Cl44  1  0.85340400  0.00000000  0.75000000  1
  Cl  Cl45  1  0.14659600  0.00000000  0.25000000  1
  Cl  Cl46  1  0.34936000  0.00000000  0.56115000  1
  Cl  Cl47  1  0.65064000  0.00000000  0.43885000  1
  Cl  Cl48  1  0.34936000  0.00000000  0.93885000  1
  Cl  Cl49  1  0.65064000  0.00000000  0.06115000  1
  Cl  Cl50  1  0.60861200  0.12552900  0.65474500  1
  Cl  Cl51  1  0.39138800  0.87447100  0.34525500  1
  Cl  Cl52  1  0.60861200  0.87447100  0.84525500  1
  Cl  Cl53  1  0.39138800  0.12552900  0.34525500  1
  Cl  Cl54  1  0.39138800  0.12552900  0.15474500  1
  Cl  Cl55  1  0.60861200  0.87447100  0.65474500  1
  Cl  Cl56  1  0.39138800  0.87447100  0.15474500  1
  Cl  Cl57  1  0.60861200  0.12552900  0.84525500  1
  Cl  Cl58  1  0.81780100  0.50000000  0.75000000  1
  Cl  Cl59  1  0.18219900  0.50000000  0.25000000  1
loop_
_geom_bond_atom_site_label_1
_geom_bond_atom_site_label_2
_geom_bond_distance
_geom_bond_site_symmetry_2
B0 Zr0 2.286804 1_555
B0 Zr22 2.301210 1_555
B0 Zr16 2.338958 1_545
B0 Zr19 2.338958 1_545
B0 Zr14 2.338958 1_555
B0 Zr21 2.338958 1_555
B1 Zr1 2.286804 1_555
B1 Zr23 2.301210 1_555
B1 Zr20 2.338958 1_545
B1 Zr15 2.338958 1_545
B1 Zr17 2.338958 1_555
B1 Zr18 2.338958 1_555
B2 Zr5 2.301761 1_455
B2 Zr4 2.301761 1_555
B2 Zr9 2.337264 1_455
B2 Zr11 2.337264 1_555
B2 Zr6 2.337264 1_555
B2 Zr7 2.337264 1_455
B3 Zr2 2.301761 1_555
B3 Zr3 2.301761 1_454
B3 Zr12 2.337264 1_455
B3 Zr8 2.337264 1_554
B3 Zr13 2.337264 1_554
B3 Zr10 2.337264 1_455
Cl0 Zr9 2.565334 1_455
Cl0 Zr6 2.565334 1_555
Cl0 Cs2 3.567012 1_555
Cl1 Zr7 2.565334 1_455
Cl1 Zr11 2.565334 1_555
Cl1 Cs2 3.567012 1_565
Cl2 Zr12 2.565334 1_455
Cl2 Zr8 2.565334 1_554
Cl2 Cs3 3.567012 1_565
Cl3 Zr10 2.565334 1_455
Cl3 Zr13 2.565334 1_554
Cl3 Cs3 3.567012 1_555
Cl4 Zr5 2.564555 1_455
Cl4 Zr6 2.573672 1_555
Cl4 Rb0 3.501304 1_455
Cl4 Cs0 4.078408 1_555
Cl5 Zr4 2.564555 1_655
Cl5 Zr7 2.573672 1_555
Cl5 Rb1 3.501304 1_655
Cl5 Cs1 4.078408 1_555
Cl6 Zr3 2.564555 1_455
Cl6 Zr8 2.573672 1_555
Cl6 Rb2 3.501304 1_455
Cl6 Cs0 4.078408 1_555
Cl7 Zr4 2.564555 1_655
Cl7 Zr9 2.573672 1_555
Cl7 Rb3 3.501304 1_655
Cl7 Cs1 4.078408 1_555
Cl8 Zr2 2.564555 1_655
Cl8 Zr10 2.573672 1_555
Cl8 Rb3 3.501304 1_655
Cl8 Cs1 4.078408 1_555
Cl9 Zr5 2.564555 1_455
Cl9 Zr11 2.573672 1_555
Cl9 Rb2 3.501304 1_455
Cl9 Cs0 4.078408 1_555
Cl10 Zr2 2.564555 1_655
Cl10 Zr12 2.573672 1_555
Cl10 Rb1 3.501304 1_655
Cl10 Cs1 4.078408 1_555
Cl11 Zr3 2.564555 1_455
Cl11 Zr13 2.573672 1_555
Cl11 Rb0 3.501304 1_455
Cl11 Cs0 4.078408 1_555
Cl12 Zr6 2.571594 1_555
Cl12 Zr11 2.571594 1_555
Cl12 Cs0 3.644860 1_555
Cl13 Zr9 2.571594 1_555
Cl13 Zr7 2.571594 1_555
Cl13 Cs1 3.644860 1_555
Cl14 Zr13 2.571594 1_555
Cl14 Zr8 2.571594 1_555
Cl14 Cs0 3.644860 1_555
Cl15 Zr12 2.571594 1_555
Cl15 Zr10 2.571594 1_555
Cl15 Cs1 3.644860 1_555
Cl16 Zr14 2.570753 1_555
Cl16 Zr21 2.570753 1_555
Cl16 Cs0 3.587518 1_555
Cl17 Zr15 2.570753 1_555
Cl17 Zr20 2.570753 1_555
Cl17 Cs1 3.587518 1_555
Cl18 Zr19 2.570753 1_555
Cl18 Zr16 2.570753 1_555
Cl18 Cs0 3.587518 1_555
Cl19 Zr17 2.570753 1_555
Cl19 Zr18 2.570753 1_555
Cl19 Cs1 3.587518 1_555
Cl20 Zr14 2.715926 1_555
Cl20 Zr6 2.730138 1_555
Cl21 Zr15 2.715926 1_555
Cl21 Zr7 2.730138 1_555
Cl22 Zr16 2.715926 1_555
Cl22 Zr8 2.730138 1_555
Cl23 Zr17 2.715926 1_555
Cl23 Zr9 2.730138 1_555
Cl24 Zr18 2.715926 1_555
Cl24 Zr10 2.730138 1_555
Cl25 Zr19 2.715926 1_555
Cl25 Zr11 2.730138 1_555
Cl26 Zr20 2.715926 1_555
Cl26 Zr12 2.730138 1_555
Cl27 Zr21 2.715926 1_555
Cl27 Zr13 2.730138 1_555
Cl28 Zr22 2.560305 1_555
Cl28 Zr14 2.585380 1_555
Cl28 Rb0 3.586986 1_455
Cl28 Cs2 3.623583 1_555
Cl29 Zr23 2.560305 1_565
Cl29 Zr15 2.585380 1_555
Cl29 Rb1 3.586986 1_655
Cl29 Cs2 3.623583 1_665
Cl30 Zr22 2.560305 1_565
Cl30 Zr16 2.585380 1_555
Cl30 Rb2 3.586986 1_455
Cl30 Cs3 3.623583 1_566
Cl31 Zr23 2.560305 1_555
Cl31 Zr17 2.585380 1_555
Cl31 Rb3 3.586986 1_655
Cl31 Cs2 3.623583 1_655
Cl32 Zr23 2.560305 1_555
Cl32 Zr18 2.585380 1_555
Cl32 Rb3 3.586986 1_655
Cl32 Cs3 3.623583 1_655
Cl33 Zr22 2.560305 1_565
Cl33 Zr19 2.585380 1_555
Cl33 Rb2 3.586986 1_455
Cl33 Cs2 3.623583 1_565
Cl34 Zr23 2.560305 1_565
Cl34 Zr20 2.585380 1_555
Cl34 Rb1 3.586986 1_655
Cl34 Cs3 3.623583 1_665
Cl35 Zr22 2.560305 1_555
Cl35 Zr21 2.585380 1_555
Cl35 Rb0 3.586986 1_455
Cl35 Cs3 3.623583 1_556
Cl36 Zr2 2.569358 1_555
Cl36 Zr13 2.583588 1_554
Cl36 Rb3 3.588404 1_555
Cl37 Zr3 2.569358 1_555
Cl37 Zr12 2.583588 1_556
Cl37 Rb2 3.588404 1_555
Cl38 Zr4 2.569358 1_555
Cl38 Zr11 2.583588 1_555
Cl38 Rb1 3.588404 1_555
Cl39 Zr3 2.569358 1_555
Cl39 Zr10 2.583588 1_556
Cl39 Rb0 3.588404 1_555
Cl40 Zr5 2.569358 1_555
Cl40 Zr9 2.583588 1_555
Cl40 Rb0 3.588404 1_555
Cl41 Zr2 2.569358 1_555
Cl41 Zr8 2.583588 1_554
Cl41 Rb1 3.588404 1_555
Cl42 Zr5 2.569358 1_555
Cl42 Zr7 2.583588 1_555
Cl42 Rb2 3.588404 1_555
Cl43 Zr4 2.569358 1_555
Cl43 Zr6 2.583588 1_555
Cl43 Rb3 3.588404 1_555
Cl44 Zr22 2.710460 1_655
Cl44 Zr0 2.713013 1_555
Cl44 Rb2 3.607692 1_545
Cl44 Rb0 3.607692 1_555
Cl45 Zr23 2.710460 1_455
Cl45 Zr1 2.713013 1_555
Cl45 Rb1 3.607692 1_545
Cl45 Rb3 3.607692 1_555
Cl46 Zr19 2.568422 1_545
Cl46 Zr14 2.568422 1_555
Cl46 Cs2 3.688816 1_555
Cl47 Zr15 2.568422 1_545
Cl47 Zr17 2.568422 1_555
Cl47 Cs2 3.688816 1_655
Cl48 Zr16 2.568422 1_545
Cl48 Zr21 2.568422 1_555
Cl48 Cs3 3.688816 1_556
Cl49 Zr20 2.568422 1_545
Cl49 Zr18 2.568422 1_555
Cl49 Cs3 3.688816 1_655
Cl50 Zr14 2.577255 1_555
Cl50 Zr0 2.578187 1_555
Cl50 Rb0 3.473246 1_555
Cl51 Zr15 2.577255 1_555
Cl51 Zr1 2.578187 1_565
Cl51 Rb1 3.473246 1_555
Cl52 Zr16 2.577255 1_555
Cl52 Zr0 2.578187 1_565
Cl52 Rb2 3.473246 1_555
Cl53 Zr17 2.577255 1_555
Cl53 Zr1 2.578187 1_555
Cl53 Rb3 3.473246 1_555
Cl54 Zr18 2.577255 1_555
Cl54 Zr1 2.578187 1_555
Cl54 Rb3 3.473246 1_555
Cl55 Zr19 2.577255 1_555
Cl55 Zr0 2.578187 1_565
Cl55 Rb2 3.473246 1_555
Cl56 Zr20 2.577255 1_555
Cl56 Zr1 2.578187 1_565
Cl56 Rb1 3.473246 1_555
Cl57 Zr21 2.577255 1_555
Cl57 Zr0 2.578187 1_555
Cl57 Rb0 3.473246 1_555
Cl58 Zr5 2.826491 1_555
Cl58 Zr3 2.826491 1_555
Cl58 Rb0 3.576568 1_555
Cl58 Rb2 3.576568 1_555
Cl58 Cs0 4.113820 1_555
Cl59 Zr4 2.826491 1_555
Cl59 Zr2 2.826491 1_555
Cl59 Rb1 3.576568 1_555
Cl59 Rb3 3.576568 1_555
Cl59 Cs1 4.113820 1_555
