# generated using pymatgen
data_LiMn2(BO3)2
_symmetry_space_group_name_H-M   'P 1'
_cell_length_a   5.30617500
_cell_length_b   6.07363193
_cell_length_c   11.82525512
_cell_angle_alpha   83.40268013
_cell_angle_beta   78.85306148
_cell_angle_gamma   86.96947173
_symmetry_Int_Tables_number   1
_chemical_formula_structural   LiMn2(BO3)2
_chemical_formula_sum   'Li3 Mn6 B6 O18'
_cell_volume   371.25200412
_cell_formula_units_Z   3
loop_
 _symmetry_equiv_pos_site_id
 _symmetry_equiv_pos_as_xyz
  1  'x, y, z'
loop_
 _atom_site_type_symbol
 _atom_site_label
 _atom_site_symmetry_multiplicity
 _atom_site_fract_x
 _atom_site_fract_y
 _atom_site_fract_z
 _atom_site_occupancy
  Li  Li0  1  0.85636200  0.12941900  0.46702900  1
  Li  Li1  1  0.19289200  0.45986600  0.79980500  1
  Li  Li2  1  0.80631400  0.53441300  0.19795900  1
  Mn  Mn0  1  0.01545700  0.03355700  0.78679700  1
  Mn  Mn1  1  0.64841800  0.62845800  0.88031300  1
  Mn  Mn2  1  0.31381500  0.29349400  0.54684500  1
  Mn  Mn3  1  0.68674600  0.70168600  0.45362700  1
  Mn  Mn4  1  0.35715300  0.36846500  0.11605700  1
  Mn  Mn5  1  0.98365600  0.95986100  0.21109000  1
  B  B0  1  0.74239400  0.41176200  0.66491600  1
  B  B1  1  0.07620300  0.72880000  0.99564300  1
  B  B2  1  0.41140600  0.08496100  0.33091900  1
  B  B3  1  0.58687000  0.92939500  0.67094900  1
  B  B4  1  0.92523000  0.26898300  0.00235600  1
  B  B5  1  0.25701400  0.57936900  0.33524100  1
  O  O0  1  0.68229100  0.35616500  0.98693100  1
  O  O1  1  0.10346100  0.20450200  0.91423300  1
  O  O2  1  0.99213100  0.35664600  0.68109100  1
  O  O3  1  0.55408100  0.48353100  0.75035500  1
  O  O4  1  0.67989800  0.38155000  0.55669600  1
  O  O5  1  0.01306700  0.71446000  0.88573500  1
  O  O6  1  0.65998600  0.02284900  0.34783800  1
  O  O7  1  0.64007500  0.91097500  0.78432400  1
  O  O8  1  0.22116200  0.14482500  0.42084300  1
  O  O9  1  0.76759000  0.87625900  0.57987300  1
  O  O10  1  0.34327500  0.07677600  0.22272700  1
  O  O11  1  0.34690400  0.02644800  0.65656000  1
  O  O12  1  0.97903000  0.27178900  0.11526500  1
  O  O13  1  0.31261400  0.57853600  0.44750300  1
  O  O14  1  0.44685800  0.51940100  0.24794200  1
  O  O15  1  0.01068300  0.65213900  0.31585100  1
  O  O16  1  0.89704200  0.79271000  0.08524000  1
  O  O17  1  0.32265700  0.65320300  0.00818700  1
loop_
_geom_bond_atom_site_label_1
_geom_bond_atom_site_label_2
_geom_bond_distance
_geom_bond_site_symmetry_2
Li0 O8 1.911176 1_655
Li0 O9 1.931017 1_545
Li0 O4 2.045411 1_555
Li0 O6 2.083297 1_555
Li1 O3 1.900575 1_555
Li1 O1 1.951676 1_555
Li1 O5 2.040646 1_555
Li1 O2 2.085574 1_455
Li2 O14 1.888309 1_555
Li2 O16 1.954700 1_555
Li2 O12 2.048844 1_555
Li2 O15 2.127514 1_655
Mn0 O1 2.061514 1_555
Mn0 O11 2.103993 1_555
Mn0 O5 2.144986 1_545
Mn0 O7 2.169545 1_445
Mn0 O2 2.213378 1_455
Mn1 O7 1.948993 1_555
Mn1 O0 1.983440 1_555
Mn1 O3 2.010461 1_555
Mn1 O5 2.045309 1_655
Mn1 O17 2.076331 1_556
Mn2 O13 1.977793 1_555
Mn2 O8 1.979011 1_555
Mn2 O11 1.979700 1_555
Mn2 O4 2.069919 1_555
Mn2 O2 2.145641 1_455
Mn3 O9 2.048509 1_555
Mn3 O15 2.162092 1_655
Mn3 O4 2.171009 1_555
Mn3 O13 2.175039 1_555
Mn3 O6 2.206523 1_565
Mn4 O14 2.039833 1_555
Mn4 O10 2.049279 1_555
Mn4 O17 2.049719 1_555
Mn4 O0 2.075478 1_554
Mn4 O12 2.122156 1_455
Mn5 O16 2.029187 1_555
Mn5 O12 2.094386 1_565
Mn5 O10 2.105152 1_665
Mn5 O15 2.134644 1_655
Mn5 O6 2.170204 1_565
B0 O3 1.368953 1_555
B0 O2 1.393216 1_555
B0 O4 1.416271 1_555
B1 O16 1.357578 1_456
B1 O17 1.392422 1_556
B1 O5 1.416496 1_555
B2 O8 1.384548 1_555
B2 O6 1.397930 1_555
B2 O10 1.401918 1_555
B3 O9 1.353311 1_555
B3 O11 1.406797 1_565
B3 O7 1.413579 1_555
B4 O1 1.344343 1_654
B4 O0 1.404251 1_554
B4 O12 1.420423 1_555
B5 O14 1.363317 1_555
B5 O15 1.409920 1_555
B5 O13 1.413904 1_555
