# generated using pymatgen
data_BaHo(CoO3)2
_symmetry_space_group_name_H-M   'P 1'
_cell_length_a   3.78094100
_cell_length_b   7.88573000
_cell_length_c   7.82665800
_cell_angle_alpha   90.00000000
_cell_angle_beta   90.00000000
_cell_angle_gamma   90.00000000
_symmetry_Int_Tables_number   1
_chemical_formula_structural   BaHo(CoO3)2
_chemical_formula_sum   'Ba2 Ho2 Co4 O12'
_cell_volume   233.35556406
_cell_formula_units_Z   2
loop_
 _symmetry_equiv_pos_site_id
 _symmetry_equiv_pos_as_xyz
  1  'x, y, z'
loop_
 _atom_site_type_symbol
 _atom_site_label
 _atom_site_symmetry_multiplicity
 _atom_site_fract_x
 _atom_site_fract_y
 _atom_site_fract_z
 _atom_site_occupancy
  Ba  Ba0  1  0.50000000  0.00000000  0.24732300  1
  Ba  Ba1  1  0.50000000  0.00000000  0.75267700  1
  Ho  Ho0  1  0.50000000  0.50000000  0.23204800  1
  Ho  Ho1  1  0.50000000  0.50000000  0.76795200  1
  Co  Co0  1  0.00000000  0.74201900  0.50000000  1
  Co  Co1  1  0.00000000  0.25798100  0.50000000  1
  Co  Co2  1  0.00000000  0.74364500  0.00000000  1
  Co  Co3  1  0.00000000  0.25635500  0.00000000  1
  O  O0  1  0.00000000  0.00000000  0.00000000  1
  O  O1  1  0.00000000  0.00000000  0.50000000  1
  O  O2  1  0.00000000  0.50000000  0.50000000  1
  O  O3  1  0.00000000  0.50000000  0.00000000  1
  O  O4  1  0.50000000  0.70924200  0.00000000  1
  O  O5  1  0.50000000  0.29075800  0.00000000  1
  O  O6  1  0.50000000  0.72833200  0.50000000  1
  O  O7  1  0.50000000  0.27166800  0.50000000  1
  O  O8  1  0.00000000  0.71172300  0.24335000  1
  O  O9  1  0.00000000  0.71172300  0.75665000  1
  O  O10  1  0.00000000  0.28827700  0.75665000  1
  O  O11  1  0.00000000  0.28827700  0.24335000  1
loop_
_geom_bond_atom_site_label_1
_geom_bond_atom_site_label_2
_geom_bond_distance
_geom_bond_site_symmetry_2
Ba0 O0 2.705709 1_555
Ba0 O0 2.705709 1_655
Ba0 O1 2.735845 1_655
Ba0 O1 2.735845 1_555
Ba0 O7 2.915548 1_555
Ba0 O6 2.915548 1_545
Ba0 O8 2.956793 1_545
Ba0 O8 2.956793 1_645
Ba0 O11 2.956793 1_555
Ba0 O11 2.956793 1_655
Ba0 O5 3.000682 1_555
Ba0 O4 3.000682 1_545
Ba1 O0 2.705709 1_656
Ba1 O0 2.705709 1_556
Ba1 O1 2.735845 1_555
Ba1 O1 2.735845 1_655
Ba1 O7 2.915548 1_555
Ba1 O6 2.915548 1_545
Ba1 O10 2.956793 1_655
Ba1 O9 2.956793 1_545
Ba1 O9 2.956793 1_645
Ba1 O10 2.956793 1_555
Ba1 O5 3.000682 1_556
Ba1 O4 3.000682 1_546
Ho0 O4 2.453777 1_555
Ho0 O5 2.453777 1_555
Ho0 O8 2.523734 1_555
Ho0 O11 2.523734 1_655
Ho0 O11 2.523734 1_555
Ho0 O8 2.523734 1_655
Ho0 O3 2.621510 1_555
Ho0 O3 2.621510 1_655
Ho0 O6 2.764082 1_555
Ho0 O7 2.764082 1_555
Ho0 O2 2.823472 1_555
Ho0 O2 2.823472 1_655
Ho1 O4 2.453777 1_556
Ho1 O5 2.453777 1_556
Ho1 O10 2.523734 1_655
Ho1 O10 2.523734 1_555
Ho1 O9 2.523734 1_655
Ho1 O9 2.523734 1_555
Ho1 O3 2.621510 1_556
Ho1 O3 2.621510 1_656
Ho1 O6 2.764082 1_555
Ho1 O7 2.764082 1_555
Ho1 O2 2.823472 1_555
Ho1 O2 2.823472 1_655
Co0 O6 1.893549 1_455
Co0 O6 1.893549 1_555
Co0 O2 1.908496 1_555
Co0 O8 2.022869 1_555
Co0 O9 2.022869 1_555
Co0 O1 2.034369 1_565
Co1 O7 1.893549 1_455
Co1 O7 1.893549 1_555
Co1 O2 1.908496 1_555
Co1 O11 2.022869 1_555
Co1 O10 2.022869 1_555
Co1 O1 2.034369 1_555
Co2 O4 1.909837 1_455
Co2 O4 1.909837 1_555
Co2 O9 1.921180 1_554
Co2 O8 1.921180 1_555
Co2 O3 1.921319 1_555
Co2 O0 2.021546 1_565
Co3 O5 1.909837 1_455
Co3 O5 1.909837 1_555
Co3 O10 1.921180 1_554
Co3 O11 1.921180 1_555
Co3 O3 1.921319 1_555
Co3 O0 2.021546 1_555
