# generated using pymatgen
data_Mg4Si7
_symmetry_space_group_name_H-M   'P 1'
_cell_length_a   3.99151300
_cell_length_b   6.87027717
_cell_length_c   14.84531072
_cell_angle_alpha   103.36995146
_cell_angle_beta   96.31173856
_cell_angle_gamma   91.27731647
_symmetry_Int_Tables_number   1
_chemical_formula_structural   Mg4Si7
_chemical_formula_sum   'Mg8 Si14'
_cell_volume   393.18620513
_cell_formula_units_Z   2
loop_
 _symmetry_equiv_pos_site_id
 _symmetry_equiv_pos_as_xyz
  1  'x, y, z'
loop_
 _atom_site_type_symbol
 _atom_site_label
 _atom_site_symmetry_multiplicity
 _atom_site_fract_x
 _atom_site_fract_y
 _atom_site_fract_z
 _atom_site_occupancy
  Mg  Mg0  1  0.21466600  0.70051000  0.06544000  1
  Mg  Mg1  1  0.39001000  0.15113600  0.49374200  1
  Mg  Mg2  1  0.97585300  0.23317100  0.64880900  1
  Mg  Mg3  1  0.82242700  0.04674100  0.34227100  1
  Mg  Mg4  1  0.25909700  0.11971400  0.15744700  1
  Mg  Mg5  1  0.65790200  0.75645500  0.89720900  1
  Mg  Mg6  1  0.91097800  0.80218700  0.58077800  1
  Mg  Mg7  1  0.86090900  0.49699000  0.42102600  1
  Si  Si0  1  0.71626100  0.36748100  0.03551400  1
  Si  Si1  1  0.68304200  0.00015800  0.03763000  1
  Si  Si2  1  0.17447200  0.40972300  0.93527300  1
  Si  Si3  1  0.13997400  0.07155000  0.90421600  1
  Si  Si4  1  0.36713400  0.79625700  0.44570100  1
  Si  Si5  1  0.43578600  0.48872000  0.56000000  1
  Si  Si6  1  0.57772900  0.15233500  0.79638000  1
  Si  Si7  1  0.77393100  0.80141000  0.19686200  1
  Si  Si8  1  0.31185100  0.35814600  0.29959100  1
  Si  Si9  1  0.10790200  0.64519100  0.77801200  1
  Si  Si10  1  0.45348100  0.92913900  0.69226800  1
  Si  Si11  1  0.76959600  0.44118600  0.19079700  1
  Si  Si12  1  0.32055300  0.72521700  0.29633900  1
  Si  Si13  1  0.56918000  0.50656300  0.72106800  1
loop_
_geom_bond_atom_site_label_1
_geom_bond_atom_site_label_2
_geom_bond_distance
_geom_bond_site_symmetry_2
Mg0 Si2 2.425515 1_554
Mg0 Si7 2.750505 1_455
Mg0 Si7 2.760088 1_555
Mg0 Si1 2.880081 1_565
Mg0 Mg4 2.880352 1_565
Mg0 Si0 2.919356 1_455
Mg0 Si1 3.050666 1_465
Mg0 Si0 3.061131 1_555
Mg1 Si5 2.294901 1_555
Mg1 Si4 2.373389 1_545
Mg1 Mg2 2.937340 1_455
Mg1 Mg2 3.040175 1_555
Mg2 Si13 2.626884 1_555
Mg2 Mg6 2.894781 1_545
Mg2 Si13 2.932342 1_655
Mg2 Si6 2.986946 1_555
Mg2 Si10 2.990680 1_645
Mg2 Si9 3.028166 1_655
Mg2 Si5 3.106423 1_655
Mg2 Si10 3.138718 1_545
Mg2 Si5 3.175206 1_555
Mg2 Si6 3.216242 1_655
Mg3 Si7 2.397709 1_545
Mg3 Si12 2.857130 1_545
Mg3 Si12 3.015793 1_645
Mg3 Si8 3.083455 1_655
Mg3 Si8 3.109557 1_555
Mg4 Si8 2.338551 1_555
Mg4 Si1 2.598094 1_555
Mg4 Si1 2.732452 1_455
Mg4 Si11 2.889109 1_555
Mg4 Si11 2.973205 1_455
Mg4 Si7 3.086577 1_445
Mg4 Si7 3.142492 1_545
Mg5 Si1 2.343345 1_566
Mg5 Si9 2.642059 1_555
Mg5 Si9 2.660128 1_655
Mg5 Si13 2.757453 1_555
Mg5 Si3 2.840036 1_665
Mg5 Si3 3.018873 1_565
Mg6 Si10 2.578611 1_655
Mg6 Si10 2.627298 1_555
Mg6 Mg7 2.763722 1_555
Mg6 Si5 2.777191 1_555
Mg6 Si4 2.781384 1_555
Mg6 Si4 2.847135 1_655
Mg6 Si5 3.026093 1_655
Mg7 Si8 2.684325 1_555
Mg7 Si8 2.719246 1_655
Mg7 Si4 2.783537 1_655
Mg7 Si5 2.821125 1_555
Mg7 Si4 2.870033 1_555
Mg7 Si5 2.923029 1_655
Si0 Si11 2.227832 1_555
Si0 Si1 2.531766 1_555
Si0 Si2 2.533430 1_654
Si0 Si2 2.548621 1_554
Si2 Si3 2.259609 1_555
Si3 Si6 2.628036 1_555
Si3 Si6 2.753863 1_455
Si10 Si6 1.920316 1_565
Si11 Si7 2.455184 1_555
Si11 Si8 2.701987 1_555
Si11 Si8 2.707625 1_655
Si12 Si4 2.143391 1_555
Si12 Si8 2.533018 1_555
Si12 Si7 2.575389 1_555
Si12 Si7 2.629695 1_455
Si13 Si9 2.249394 1_555
Si13 Si9 2.319963 1_655
Si13 Si5 2.365905 1_555
Si13 Si6 2.903005 1_555
