# generated using pymatgen
data_CaTiAsO5
_symmetry_space_group_name_H-M   'P 1'
_cell_length_a   7.98253600
_cell_length_b   5.97428900
_cell_length_c   9.25477299
_cell_angle_alpha   88.40384253
_cell_angle_beta   90.00000000
_cell_angle_gamma   90.00000000
_symmetry_Int_Tables_number   1
_chemical_formula_structural   CaTiAsO5
_chemical_formula_sum   'Ca4 Ti4 As4 O20'
_cell_volume   441.18865696
_cell_formula_units_Z   4
loop_
 _symmetry_equiv_pos_site_id
 _symmetry_equiv_pos_as_xyz
  1  'x, y, z'
loop_
 _atom_site_type_symbol
 _atom_site_label
 _atom_site_symmetry_multiplicity
 _atom_site_fract_x
 _atom_site_fract_y
 _atom_site_fract_z
 _atom_site_occupancy
  Ca  Ca0  1  0.05913500  0.48677500  0.94198700  1
  Ca  Ca1  1  0.40929600  0.00016800  0.38168200  1
  Ca  Ca2  1  0.55913500  0.51322500  0.05801300  1
  Ca  Ca3  1  0.90929600  0.99983200  0.61831800  1
  Ti  Ti0  1  0.00959400  0.79191900  0.26788800  1
  Ti  Ti1  1  0.50290400  0.72940200  0.72594500  1
  Ti  Ti2  1  0.50959400  0.20808100  0.73211200  1
  Ti  Ti3  1  0.00290400  0.27059800  0.27405500  1
  As  As0  1  0.32092500  0.95976000  0.01875900  1
  As  As1  1  0.14976400  0.52235600  0.57156600  1
  As  As2  1  0.82092500  0.04024000  0.98124100  1
  As  As3  1  0.64976400  0.47764400  0.42843400  1
  O  O0  1  0.15801600  0.04036500  0.24168400  1
  O  O1  1  0.34835200  0.47596700  0.64504300  1
  O  O2  1  0.65801600  0.95963500  0.75831600  1
  O  O3  1  0.84835200  0.52403300  0.35495700  1
  O  O4  1  0.47352000  0.87322500  0.14772500  1
  O  O5  1  0.01675800  0.61460800  0.70098500  1
  O  O6  1  0.97352000  0.12677500  0.85227500  1
  O  O7  1  0.51675800  0.38539200  0.29901500  1
  O  O8  1  0.43163200  0.20530200  0.92963100  1
  O  O9  1  0.09064100  0.27451200  0.49409800  1
  O  O10  1  0.93163200  0.79469800  0.07036900  1
  O  O11  1  0.59064100  0.72548800  0.50590200  1
  O  O12  1  0.36364200  0.71888200  0.89805700  1
  O  O13  1  0.16625200  0.73964600  0.44661400  1
  O  O14  1  0.86364200  0.28111800  0.10194300  1
  O  O15  1  0.66625200  0.26035400  0.55338600  1
  O  O16  1  0.12839100  0.50209600  0.20059200  1
  O  O17  1  0.37033300  0.00910600  0.64886500  1
  O  O18  1  0.62839100  0.49790400  0.79940800  1
  O  O19  1  0.87033300  0.99089400  0.35113500  1
loop_
_geom_bond_atom_site_label_1
_geom_bond_atom_site_label_2
_geom_bond_distance
_geom_bond_site_symmetry_2
Ca0 O5 2.361686 1_555
Ca0 O6 2.425198 1_455
Ca0 O10 2.439995 1_456
Ca0 O14 2.456618 1_456
Ca0 O16 2.460537 1_556
Ca0 O12 2.822275 1_555
Ca1 O4 2.370157 1_545
Ca1 O0 2.396349 1_555
Ca1 O11 2.450512 1_545
Ca1 O17 2.494249 1_555
Ca1 O13 2.548630 1_545
Ca1 O7 2.553373 1_555
Ca2 O7 2.361686 1_555
Ca2 O4 2.425198 1_555
Ca2 O8 2.439995 1_554
Ca2 O12 2.456618 1_554
Ca2 O18 2.460537 1_554
Ca2 O14 2.822275 1_555
Ca3 O6 2.370157 1_565
Ca3 O2 2.396349 1_555
Ca3 O9 2.450512 1_665
Ca3 O19 2.494249 1_555
Ca3 O15 2.548630 1_565
Ca3 O5 2.553373 1_655
As0 O4 1.772348 1_555
As0 O12 1.877394 1_554
As0 O8 1.883045 1_564
As0 O0 2.496962 1_565
As1 O5 1.703637 1_555
As1 O13 1.719349 1_555
As1 O9 1.728682 1_555
As1 O1 1.744047 1_555
As2 O6 1.772348 1_555
As2 O14 1.877394 1_556
As2 O10 1.883045 1_546
As2 O2 2.496962 1_545
As3 O7 1.703637 1_555
As3 O15 1.719349 1_555
As3 O11 1.728682 1_555
As3 O3 1.744047 1_555
O0 Ti3 1.880893 1_555
O0 Ti0 1.909341 1_545
O1 Ti1 2.106725 1_555
O1 Ti2 2.189869 1_555
O2 Ti1 1.880893 1_555
O2 Ti2 1.909341 1_565
O3 Ti3 2.106725 1_655
O3 Ti0 2.189869 1_655
O8 Ti2 1.930659 1_555
O9 Ti3 2.154258 1_555
O10 Ti0 1.930659 1_655
O11 Ti1 2.154258 1_555
O12 Ti1 1.942000 1_555
O13 Ti0 2.090099 1_555
O14 Ti3 1.942000 1_655
O15 Ti2 2.090099 1_555
O16 Ti3 1.823748 1_555
O16 Ti0 2.084535 1_555
O17 Ti2 1.814788 1_555
O17 Ti1 2.086797 1_545
O18 Ti1 1.823748 1_555
O18 Ti2 2.084535 1_555
O19 Ti0 1.814788 1_655
O19 Ti3 2.086797 1_665
