# generated using pymatgen
data_AgPdAu2
_symmetry_space_group_name_H-M   'P 1'
_cell_length_a   4.57546271
_cell_length_b   4.57546271
_cell_length_c   4.57546271
_cell_angle_alpha   60.00000000
_cell_angle_beta   60.00000000
_cell_angle_gamma   60.00000000
_symmetry_Int_Tables_number   1
_chemical_formula_structural   AgPdAu2
_chemical_formula_sum   'Ag1 Pd1 Au2'
_cell_volume   67.73140164
_cell_formula_units_Z   1
loop_
 _symmetry_equiv_pos_site_id
 _symmetry_equiv_pos_as_xyz
  1  'x, y, z'
loop_
 _atom_site_type_symbol
 _atom_site_label
 _atom_site_symmetry_multiplicity
 _atom_site_fract_x
 _atom_site_fract_y
 _atom_site_fract_z
 _atom_site_occupancy
  Ag  Ag0  1  0.50000000  0.50000000  0.50000000  1
  Pd  Pd0  1  -0.00000000  -0.00000000  -0.00000000  1
  Au  Au0  1  0.75000000  0.75000000  0.75000000  1
  Au  Au1  1  0.25000000  0.25000000  0.25000000  1
loop_
_geom_bond_atom_site_label_1
_geom_bond_atom_site_label_2
_geom_bond_distance
_geom_bond_site_symmetry_2
Ag0 Au1 2.801887 1_555
Ag0 Au0 2.801887 1_555
Ag0 Au0 2.801887 1_554
Ag0 Au1 2.801887 1_556
Ag0 Au0 2.801887 1_545
Ag0 Au1 2.801887 1_565
Ag0 Au1 2.801887 1_655
Ag0 Au0 2.801887 1_455
Au0 Pd0 2.801887 1_656
Au0 Pd0 2.801887 1_665
Au0 Pd0 2.801887 1_666
Au0 Pd0 2.801887 1_566
Au1 Pd0 2.801887 1_556
Au1 Pd0 2.801887 1_555
Au1 Pd0 2.801887 1_565
Au1 Pd0 2.801887 1_655
