# generated using pymatgen
data_Ta5CrNiS10
_symmetry_space_group_name_H-M   'P 1'
_cell_length_a   3.33185022
_cell_length_b   3.33185022
_cell_length_c   62.63054500
_cell_angle_alpha   90.00000000
_cell_angle_beta   90.00000000
_cell_angle_gamma   120.00000444
_symmetry_Int_Tables_number   1
_chemical_formula_structural   Ta5CrNiS10
_chemical_formula_sum   'Ta10 Cr2 Ni2 S20'
_cell_volume   602.12650372
_cell_formula_units_Z   2
loop_
 _symmetry_equiv_pos_site_id
 _symmetry_equiv_pos_as_xyz
  1  'x, y, z'
loop_
 _atom_site_type_symbol
 _atom_site_label
 _atom_site_symmetry_multiplicity
 _atom_site_fract_x
 _atom_site_fract_y
 _atom_site_fract_z
 _atom_site_occupancy
  Ta  Ta0  1  0.66666700  0.33333300  0.14963200  1
  Ta  Ta1  1  0.66666700  0.33333300  0.34984700  1
  Ta  Ta2  1  0.66666700  0.33333300  0.54742800  1
  Ta  Ta3  1  0.66666700  0.33333300  0.74760300  1
  Ta  Ta4  1  0.66666700  0.33333300  0.94978300  1
  Ta  Ta5  1  0.66666700  0.33333300  0.05020400  1
  Ta  Ta6  1  0.66666700  0.33333300  0.25030500  1
  Ta  Ta7  1  0.66666700  0.33333300  0.45260600  1
  Ta  Ta8  1  0.66666700  0.33333300  0.65249000  1
  Ta  Ta9  1  0.66666700  0.33333300  0.85008300  1
  Cr  Cr0  1  0.66666700  0.33333300  0.09991300  1
  Cr  Cr1  1  0.66666700  0.33333300  0.30006300  1
  Ni  Ni0  1  0.66666700  0.33333300  0.50011900  1
  Ni  Ni1  1  0.66666700  0.33333300  0.69995600  1
  S  S0  1  0.33333300  0.66666700  0.02530900  1
  S  S1  1  0.33333300  0.66666700  0.22539000  1
  S  S2  1  0.33333300  0.66666700  0.42751400  1
  S  S3  1  0.33333300  0.66666700  0.62740500  1
  S  S4  1  0.33333300  0.66666700  0.82514700  1
  S  S5  1  0.00000000  0.00000000  0.17453800  1
  S  S6  1  0.00000000  0.00000000  0.37477800  1
  S  S7  1  0.00000000  0.00000000  0.57253300  1
  S  S8  1  0.00000000  0.00000000  0.77264500  1
  S  S9  1  0.00000000  0.00000000  0.97476600  1
  S  S10  1  0.00000000  0.00000000  0.12371100  1
  S  S11  1  0.00000000  0.00000000  0.32393800  1
  S  S12  1  0.00000000  0.00000000  0.52238100  1
  S  S13  1  0.00000000  0.00000000  0.72242500  1
  S  S14  1  0.00000000  0.00000000  0.92485800  1
  S  S15  1  0.33333300  0.66666700  0.07616200  1
  S  S16  1  0.33333300  0.66666700  0.27620900  1
  S  S17  1  0.33333300  0.66666700  0.47769300  1
  S  S18  1  0.33333300  0.66666700  0.67763600  1
  S  S19  1  0.33333300  0.66666700  0.87493100  1
loop_
_geom_bond_atom_site_label_1
_geom_bond_atom_site_label_2
_geom_bond_distance
_geom_bond_site_symmetry_2
Cr0 S15 2.431701 1_545
Cr0 S15 2.431701 1_655
Cr0 S15 2.431706 1_555
Cr0 S10 2.433503 1_655
Cr0 S10 2.433505 1_555
Cr0 S10 2.433505 1_665
Cr1 S16 2.435653 1_545
Cr1 S16 2.435653 1_655
Cr1 S16 2.435657 1_555
Cr1 S11 2.436460 1_655
Cr1 S11 2.436462 1_665
Cr1 S11 2.436462 1_555
Ni0 S12 2.375799 1_655
Ni0 S12 2.375801 1_555
Ni0 S12 2.375801 1_665
Ni0 S17 2.381841 1_545
Ni0 S17 2.381841 1_655
Ni0 S17 2.381846 1_555
Ni1 S18 2.377933 1_545
Ni1 S18 2.377933 1_655
Ni1 S18 2.377937 1_555
Ni1 S13 2.383431 1_655
Ni1 S13 2.383433 1_665
Ni1 S13 2.383433 1_555
S0 Ta5 2.476180 1_455
S0 Ta5 2.476180 1_565
S0 Ta5 2.476184 1_555
S1 Ta6 2.476969 1_455
S1 Ta6 2.476969 1_565
S1 Ta6 2.476973 1_555
S2 Ta7 2.483967 1_565
S2 Ta7 2.483967 1_455
S2 Ta7 2.483972 1_555
S3 Ta8 2.483690 1_455
S3 Ta8 2.483690 1_565
S3 Ta8 2.483695 1_555
S4 Ta9 2.477797 1_455
S4 Ta9 2.477797 1_565
S4 Ta9 2.477802 1_555
S5 Ta0 2.476614 1_455
S5 Ta0 2.476616 1_555
S5 Ta0 2.476616 1_445
S6 Ta1 2.477600 1_455
S6 Ta1 2.477602 1_445
S6 Ta1 2.477602 1_555
S7 Ta2 2.484483 1_455
S7 Ta2 2.484485 1_445
S7 Ta2 2.484485 1_555
S8 Ta3 2.481987 1_455
S8 Ta3 2.481990 1_555
S8 Ta3 2.481990 1_445
S9 Ta4 2.479654 1_455
S9 Ta4 2.479656 1_445
S9 Ta4 2.479656 1_555
S10 Ta0 2.517137 1_455
S10 Ta0 2.517139 1_445
S10 Ta0 2.517139 1_555
S11 Ta1 2.516652 1_455
S11 Ta1 2.516655 1_555
S11 Ta1 2.516655 1_445
S12 Ta2 2.482185 1_455
S12 Ta2 2.482187 1_555
S12 Ta2 2.482187 1_445
S13 Ta3 2.487379 1_455
S13 Ta3 2.487381 1_445
S13 Ta3 2.487381 1_555
S14 Ta4 2.477363 1_455
S14 Ta4 2.477366 1_445
S14 Ta4 2.477366 1_555
S15 Ta5 2.518632 1_565
S15 Ta5 2.518632 1_455
S15 Ta5 2.518637 1_555
S16 Ta6 2.516450 1_455
S16 Ta6 2.516450 1_565
S16 Ta6 2.516455 1_555
S17 Ta7 2.483769 1_455
S17 Ta7 2.483769 1_565
S17 Ta7 2.483774 1_555
S18 Ta8 2.486108 1_565
S18 Ta8 2.486108 1_455
S18 Ta8 2.486113 1_555
S19 Ta9 2.474327 1_455
S19 Ta9 2.474327 1_565
S19 Ta9 2.474332 1_555
