# generated using pymatgen
data_Li2VO2F
_symmetry_space_group_name_H-M   'P 1'
_cell_length_a   5.89615494
_cell_length_b   7.84411878
_cell_length_c   5.98208389
_cell_angle_alpha   111.25505062
_cell_angle_beta   119.67758394
_cell_angle_gamma   79.30573867
_symmetry_Int_Tables_number   1
_chemical_formula_structural   Li2VO2F
_chemical_formula_sum   'Li8 V4 O8 F4'
_cell_volume   224.02189019
_cell_formula_units_Z   4
loop_
 _symmetry_equiv_pos_site_id
 _symmetry_equiv_pos_as_xyz
  1  'x, y, z'
loop_
 _atom_site_type_symbol
 _atom_site_label
 _atom_site_symmetry_multiplicity
 _atom_site_fract_x
 _atom_site_fract_y
 _atom_site_fract_z
 _atom_site_occupancy
  Li  Li0  1  0.83352200  0.33332100  0.83335600  1
  Li  Li1  1  0.33318000  0.33336500  0.83336800  1
  Li  Li2  1  0.33329600  0.33323600  0.33322200  1
  Li  Li3  1  0.83343100  0.33341700  0.33354000  1
  Li  Li4  1  0.66521000  0.67327800  0.16619800  1
  Li  Li5  1  0.16494600  0.67323000  0.16617200  1
  Li  Li6  1  0.00168200  0.99339600  0.50041900  1
  Li  Li7  1  0.50143800  0.99335400  0.50039700  1
  V  V0  1  0.67459300  0.66222700  0.67583400  1
  V  V1  1  0.49205400  0.00446200  0.99082000  1
  V  V2  1  0.17471800  0.66232300  0.67598600  1
  V  V3  1  0.99193900  0.00435200  0.99068700  1
  O  O0  1  0.84431700  0.82365800  0.59441800  1
  O  O1  1  0.34446900  0.82369500  0.59444300  1
  O  O2  1  0.82217800  0.84298100  0.07219000  1
  O  O3  1  0.32233400  0.84301200  0.07221100  1
  O  O4  1  0.67177600  0.15904800  0.92557600  1
  O  O5  1  0.17163500  0.15890500  0.92504300  1
  O  O6  1  0.49491000  0.50765100  0.74112400  1
  O  O7  1  0.99503700  0.50778100  0.74165100  1
  F  F0  1  0.00314600  0.50271400  0.25804700  1
  F  F1  1  0.50324600  0.50251800  0.25766600  1
  F  F2  1  0.66342200  0.16412700  0.40898500  1
  F  F3  1  0.16352300  0.16394900  0.40864400  1
loop_
_geom_bond_atom_site_label_1
_geom_bond_atom_site_label_2
_geom_bond_distance
_geom_bond_site_symmetry_2
Li0 O5 2.143826 1_655
Li0 O6 2.145553 1_555
Li0 O7 2.150796 1_555
Li0 O4 2.152717 1_555
Li1 O7 2.143952 1_455
Li1 O4 2.145428 1_555
Li1 O5 2.150791 1_555
Li1 O6 2.152836 1_555
Li2 O6 2.120099 1_555
Li2 O5 2.121045 1_554
Li3 O4 2.120244 1_554
Li3 O7 2.120843 1_555
Li4 O2 2.111926 1_555
Li4 O3 2.143377 1_555
Li4 O0 2.159023 1_555
Li4 O6 2.173169 1_554
Li5 O3 2.113929 1_555
Li5 O2 2.143004 1_455
Li5 O1 2.159397 1_555
Li5 O7 2.170425 1_454
Li6 O0 2.113719 1_455
Li6 O1 2.142875 1_555
Li6 O2 2.159128 1_455
Li6 O5 2.170992 1_565
Li7 O1 2.111813 1_555
Li7 O0 2.143232 1_555
Li7 O3 2.158809 1_555
Li7 O4 2.173760 1_565
O0 V2 2.055767 1_655
O0 V0 2.059661 1_555
O0 V3 2.089149 1_565
O1 V0 2.055157 1_555
O1 V2 2.059941 1_555
O1 V1 2.089791 1_565
O2 V1 2.055211 1_564
O2 V3 2.059809 1_564
O2 V0 2.089671 1_554
O3 V3 2.055765 1_464
O3 V1 2.059657 1_564
O3 V2 2.088957 1_554
O4 V3 1.988000 1_555
O4 V1 1.993785 1_555
O5 V1 1.987906 1_555
O5 V3 1.995097 1_455
O6 V2 1.988023 1_555
O6 V0 1.993741 1_555
O7 V0 1.988014 1_555
O7 V2 1.995049 1_655
F0 Li3 2.084308 1_455
F0 Li2 2.089264 1_555
F0 Li4 2.126401 1_455
F0 Li5 2.127671 1_555
F0 V2 2.130175 1_555
F0 Li0 2.179393 1_454
F1 Li2 2.085449 1_555
F1 Li3 2.087748 1_555
F1 Li4 2.128159 1_555
F1 Li5 2.128478 1_555
F1 V0 2.131363 1_555
F1 Li1 2.177183 1_554
F2 Li3 2.085290 1_555
F2 Li2 2.087546 1_555
F2 Li7 2.128086 1_545
F2 Li6 2.128389 1_645
F2 V1 2.131264 1_554
F2 Li0 2.177583 1_555
F3 Li2 2.084195 1_555
F3 Li3 2.088987 1_455
F3 Li7 2.126436 1_545
F3 Li6 2.127648 1_545
F3 V3 2.130230 1_454
F3 Li1 2.179583 1_555
