# generated using pymatgen
data_Ba2CaCuMo2F14
_symmetry_space_group_name_H-M   'P 1'
_cell_length_a   5.53981563
_cell_length_b   7.70181830
_cell_length_c   15.49021927
_cell_angle_alpha   90.47983700
_cell_angle_beta   90.04554195
_cell_angle_gamma   111.04935167
_symmetry_Int_Tables_number   1
_chemical_formula_structural   Ba2CaCuMo2F14
_chemical_formula_sum   'Ba4 Ca2 Cu2 Mo4 F28'
_cell_volume   616.78707938
_cell_formula_units_Z   2
loop_
 _symmetry_equiv_pos_site_id
 _symmetry_equiv_pos_as_xyz
  1  'x, y, z'
loop_
 _atom_site_type_symbol
 _atom_site_label
 _atom_site_symmetry_multiplicity
 _atom_site_fract_x
 _atom_site_fract_y
 _atom_site_fract_z
 _atom_site_occupancy
  Ba  Ba0  1  0.10340800  0.36955400  0.62393600  1
  Ba  Ba1  1  0.26770600  0.36988300  0.12357400  1
  Ba  Ba2  1  0.90071800  0.63319700  0.37649400  1
  Ba  Ba3  1  0.73486700  0.63148300  0.87694900  1
  Ca  Ca0  1  0.42469700  0.00059900  0.75034500  1
  Ca  Ca1  1  0.57782500  0.00078700  0.24983300  1
  Cu  Cu0  1  0.50100400  0.00032100  0.00010500  1
  Cu  Cu1  1  0.50201800  0.00131500  0.50008300  1
  Mo  Mo0  1  0.09206500  0.24307000  0.87651100  1
  Mo  Mo1  1  0.91024100  0.75861800  0.12406700  1
  Mo  Mo2  1  0.15368800  0.24426000  0.37569100  1
  Mo  Mo3  1  0.84938700  0.75812900  0.62429700  1
  F  F0  1  0.90170900  0.97574200  0.34132500  1
  F  F1  1  0.88162400  0.29192500  0.45806500  1
  F  F2  1  0.12454200  0.71217500  0.54269300  1
  F  F3  1  0.62723100  0.48337300  0.59744200  1
  F  F4  1  0.62012400  0.08761100  0.61475100  1
  F  F5  1  0.53543400  0.91379800  0.88558300  1
  F  F6  1  0.41321200  0.28990600  0.95827900  1
  F  F7  1  0.92661500  0.02702500  0.15851800  1
  F  F8  1  0.36112800  0.33133200  0.77591800  1
  F  F9  1  0.37730800  0.51938700  0.40127900  1
  F  F10  1  0.81211400  0.23893400  0.78382100  1
  F  F11  1  0.14403600  0.51777700  0.90338300  1
  F  F12  1  0.42632300  0.23849700  0.28239000  1
  F  F13  1  0.18964000  0.76259200  0.21692800  1
  F  F14  1  0.46663400  0.08650000  0.11445700  1
  F  F15  1  0.64115100  0.67163900  0.22468200  1
  F  F16  1  0.13125000  0.83585000  0.01063100  1
  F  F17  1  0.10037900  0.02658700  0.65936700  1
  F  F18  1  0.87065300  0.16492500  0.98976000  1
  F  F19  1  0.70781000  0.83740200  0.51077600  1
  F  F20  1  0.58906500  0.71186600  0.04230000  1
  F  F21  1  0.57292700  0.76181000  0.71661600  1
  F  F22  1  0.97036900  0.33167700  0.27537100  1
  F  F23  1  0.29761100  0.16609700  0.48903100  1
  F  F24  1  0.38258000  0.91488600  0.38544100  1
  F  F25  1  0.07636500  0.97487600  0.84187800  1
  F  F26  1  0.02971400  0.66959800  0.72511700  1
  F  F27  1  0.85724100  0.48347100  0.09779300  1
loop_
_geom_bond_atom_site_label_1
_geom_bond_atom_site_label_2
_geom_bond_distance
_geom_bond_site_symmetry_2
Ba0 F17 2.696538 1_555
Ba0 F3 2.745610 1_555
Ba0 F4 2.778756 1_455
Ba0 F1 2.812525 1_455
Ba0 F8 2.824118 1_555
Ba0 F2 2.897357 1_555
Ba0 F26 2.929401 1_555
Ba0 F10 2.938003 1_455
Ba0 F23 3.023165 1_555
Ba0 F3 3.092087 1_455
Ba1 F7 2.697721 1_455
Ba1 F27 2.743873 1_455
Ba1 F14 2.778644 1_555
Ba1 F6 2.814009 1_554
Ba1 F22 2.828132 1_455
Ba1 F20 2.895248 1_555
Ba1 F12 2.919786 1_555
Ba1 F15 2.935008 1_555
Ba1 F18 3.011698 1_454
Ba1 F27 3.089748 1_555
Ba2 F0 2.696421 1_555
Ba2 F9 2.739530 1_555
Ba2 F24 2.772370 1_655
Ba2 F2 2.821737 1_655
Ba2 F15 2.827987 1_555
Ba2 F1 2.893517 1_555
Ba2 F13 2.926788 1_655
Ba2 F22 2.929011 1_555
Ba2 F19 3.016347 1_555
Ba2 F9 3.090786 1_655
Ba3 F25 2.701923 1_655
Ba3 F11 2.739179 1_655
Ba3 F5 2.772594 1_555
Ba3 F20 2.816381 1_556
Ba3 F26 2.821149 1_655
Ba3 F6 2.893943 1_555
Ba3 F8 2.928482 1_555
Ba3 F21 2.943748 1_555
Ba3 F16 3.007126 1_656
Ba3 F11 3.097874 1_555
Ca0 F10 2.323124 1_555
Ca0 F21 2.323587 1_545
Ca0 F25 2.346859 1_545
Ca0 F17 2.348003 1_555
Ca0 F5 2.351116 1_545
Ca0 F4 2.353466 1_555
Ca0 F8 2.719761 1_555
Ca0 F26 2.722956 1_545
Ca1 F13 2.323467 1_545
Ca1 F12 2.323698 1_555
Ca1 F7 2.346014 1_555
Ca1 F0 2.348247 1_545
Ca1 F14 2.350720 1_555
Ca1 F24 2.352226 1_545
Ca1 F15 2.706250 1_545
Ca1 F22 2.716768 1_555
Cu0 F14 1.919912 1_555
Cu0 F5 1.923399 1_544
Cu0 F18 1.991318 1_554
Cu0 F16 1.991754 1_545
Cu0 F20 2.530451 1_545
Cu0 F6 2.536452 1_554
Cu1 F4 1.921154 1_555
Cu1 F24 1.922607 1_545
Cu1 F23 1.989456 1_555
Cu1 F19 1.989457 1_545
Cu1 F2 2.539545 1_545
Cu1 F1 2.549724 1_555
F0 Mo2 2.101316 1_665
F1 Mo2 2.104090 1_655
F2 Mo3 2.104698 1_455
F3 Mo3 2.068645 1_555
F6 Mo0 2.104126 1_555
F7 Mo1 2.100754 1_545
F8 Mo0 2.098916 1_555
F9 Mo2 2.069134 1_555
F10 Mo0 2.104264 1_655
F11 Mo0 2.068819 1_555
F12 Mo2 2.102957 1_555
F13 Mo1 2.104156 1_455
F15 Mo1 2.098541 1_555
F16 Mo1 2.106702 1_455
F17 Mo3 2.101976 1_445
F18 Mo0 2.105929 1_655
F19 Mo3 2.107103 1_555
F20 Mo1 2.104332 1_555
F21 Mo3 2.103669 1_555
F22 Mo2 2.098968 1_655
F23 Mo2 2.107300 1_555
F25 Mo0 2.101025 1_565
F26 Mo3 2.099170 1_455
F27 Mo1 2.069053 1_555
