# generated using pymatgen
data_Na2GdMnAs2O9
_symmetry_space_group_name_H-M   'P 1'
_cell_length_a   5.88596984
_cell_length_b   8.99762360
_cell_length_c   15.05219231
_cell_angle_alpha   90.04655646
_cell_angle_beta   89.96373073
_cell_angle_gamma   92.39464181
_symmetry_Int_Tables_number   1
_chemical_formula_structural   Na2GdMnAs2O9
_chemical_formula_sum   'Na8 Gd4 Mn4 As8 O36'
_cell_volume   796.46367477
_cell_formula_units_Z   4
loop_
 _symmetry_equiv_pos_site_id
 _symmetry_equiv_pos_as_xyz
  1  'x, y, z'
loop_
 _atom_site_type_symbol
 _atom_site_label
 _atom_site_symmetry_multiplicity
 _atom_site_fract_x
 _atom_site_fract_y
 _atom_site_fract_z
 _atom_site_occupancy
  Na  Na0  1  0.76364200  0.17714700  0.86342500  1
  Na  Na1  1  0.26354700  0.67725300  0.63674700  1
  Na  Na2  1  0.23627600  0.82292800  0.13643500  1
  Na  Na3  1  0.73656400  0.32284800  0.36341100  1
  Na  Na4  1  0.23483400  0.09934000  0.27231100  1
  Na  Na5  1  0.73544900  0.59949100  0.22771600  1
  Na  Na6  1  0.76501200  0.90054400  0.72764700  1
  Na  Na7  1  0.26457400  0.40065000  0.77231500  1
  Gd  Gd0  1  0.70178500  0.21691400  0.11961800  1
  Gd  Gd1  1  0.20227500  0.71753100  0.38041500  1
  Gd  Gd2  1  0.29818500  0.78308100  0.88039300  1
  Gd  Gd3  1  0.79793500  0.28301100  0.61973500  1
  Mn  Mn0  1  0.50003400  0.49996200  0.99996000  1
  Mn  Mn1  1  0.99983000  0.99965500  0.50003200  1
  Mn  Mn2  1  0.00000300  0.49992500  0.99995300  1
  Mn  Mn3  1  0.50007200  0.99965800  0.50004100  1
  As  As0  1  0.21751900  0.43174700  0.20267000  1
  As  As1  1  0.71750300  0.93215000  0.29707200  1
  As  As2  1  0.78257700  0.56828100  0.79731500  1
  As  As3  1  0.28250300  0.06793800  0.70283700  1
  As  As4  1  0.24033600  0.15473200  0.00284300  1
  As  As5  1  0.74018200  0.65493400  0.49729400  1
  As  As6  1  0.75969700  0.84531700  0.99703200  1
  As  As7  1  0.25973300  0.34508600  0.50284600  1
  O  O0  1  0.74745300  0.47046500  0.07932300  1
  O  O1  1  0.24582500  0.96918000  0.42007200  1
  O  O2  1  0.25260500  0.52947400  0.92055800  1
  O  O3  1  0.75422700  0.03022700  0.57984500  1
  O  O4  1  0.24024600  0.47895500  0.08997700  1
  O  O5  1  0.74027100  0.97921100  0.40987300  1
  O  O6  1  0.75974500  0.52097600  0.90996800  1
  O  O7  1  0.25967700  0.02073300  0.59007600  1
  O  O8  1  0.99713500  0.25976300  0.99685700  1
  O  O9  1  0.49757100  0.76085800  0.50372700  1
  O  O10  1  0.00283000  0.74022000  0.00293300  1
  O  O11  1  0.50263100  0.23928400  0.49689100  1
  O  O12  1  0.00291800  0.30070600  0.22139500  1
  O  O13  1  0.50338400  0.80061600  0.27838600  1
  O  O14  1  0.99728000  0.69922700  0.77854200  1
  O  O15  1  0.49680100  0.19942100  0.72154200  1
  O  O16  1  0.20631200  0.01682000  0.92636100  1
  O  O17  1  0.70559200  0.51677200  0.57339400  1
  O  O18  1  0.79365200  0.98313300  0.07352200  1
  O  O19  1  0.29401100  0.48320700  0.42664000  1
  O  O20  1  0.48600500  0.26313700  0.97777200  1
  O  O21  1  0.98569300  0.76329800  0.52248600  1
  O  O22  1  0.51401100  0.73688300  0.02205500  1
  O  O23  1  0.01422400  0.23656300  0.47785700  1
  O  O24  1  0.47831800  0.37120900  0.23067800  1
  O  O25  1  0.97814400  0.87164700  0.26864300  1
  O  O26  1  0.52187800  0.62884600  0.76923300  1
  O  O27  1  0.02192500  0.12896400  0.73108800  1
  O  O28  1  0.14379700  0.59718100  0.24676400  1
  O  O29  1  0.64325400  0.09758600  0.25359800  1
  O  O30  1  0.85641600  0.40278000  0.75334400  1
  O  O31  1  0.35640400  0.90258100  0.74649300  1
  O  O32  1  0.69073100  0.90281000  0.89195300  1
  O  O33  1  0.19094000  0.40283200  0.60803100  1
  O  O34  1  0.30930200  0.09725600  0.10789500  1
  O  O35  1  0.80872200  0.59706000  0.39216100  1
loop_
_geom_bond_atom_site_label_1
_geom_bond_atom_site_label_2
_geom_bond_distance
_geom_bond_site_symmetry_2
Na0 O20 2.516242 1_555
Na0 O32 2.524765 1_545
Na0 O8 2.528023 1_555
Na0 O27 2.552812 1_655
Na0 O30 2.660252 1_555
Na0 O15 2.664443 1_555
Na1 O21 2.518643 1_455
Na1 O33 2.525159 1_555
Na1 O9 2.526778 1_555
Na1 O26 2.557177 1_555
Na1 O31 2.653502 1_555
Na1 O14 2.659257 1_455
Na2 O22 2.517129 1_555
Na2 O34 2.524804 1_565
Na2 O10 2.528938 1_555
Na2 O25 2.551704 1_455
Na2 O28 2.663055 1_555
Na2 O13 2.666230 1_555
Na3 O23 2.520516 1_655
Na3 O35 2.523082 1_555
Na3 O11 2.531882 1_555
Na3 O24 2.559697 1_555
Na3 O29 2.654148 1_555
Na3 O12 2.662378 1_655
Na4 O29 2.420921 1_555
Na4 O12 2.437962 1_555
Na4 O25 2.494833 1_445
Na4 O34 2.513255 1_555
Na4 O1 2.516589 1_545
Na4 O24 2.852854 1_555
Na5 O28 2.421698 1_655
Na5 O13 2.434190 1_555
Na5 O24 2.500351 1_555
Na5 O35 2.513088 1_555
Na5 O0 2.518796 1_555
Na5 O25 2.850065 1_555
Na6 O31 2.422376 1_555
Na6 O14 2.438750 1_555
Na6 O27 2.500719 1_665
Na6 O32 2.511457 1_555
Na6 O3 2.515078 1_565
Na6 O26 2.850450 1_555
Na7 O30 2.420369 1_455
Na7 O15 2.435956 1_555
Na7 O26 2.500350 1_555
Na7 O33 2.511032 1_555
Na7 O2 2.515946 1_555
Na7 O27 2.847374 1_555
Gd0 O18 2.300132 1_545
Gd0 O29 2.304394 1_555
Gd0 O0 2.365484 1_555
Gd0 O12 2.438614 1_655
Gd0 O34 2.513844 1_555
Gd0 O20 2.528577 1_554
Gd0 O8 2.554658 1_554
Gd0 O24 2.568661 1_555
Gd1 O28 2.303119 1_555
Gd1 O19 2.306261 1_555
Gd1 O1 2.344849 1_555
Gd1 O13 2.438490 1_555
Gd1 O35 2.522317 1_455
Gd1 O21 2.531158 1_455
Gd1 O9 2.562115 1_555
Gd1 O25 2.579384 1_455
Gd2 O16 2.299214 1_565
Gd2 O31 2.303816 1_555
Gd2 O2 2.365428 1_555
Gd2 O14 2.438511 1_455
Gd2 O32 2.514256 1_555
Gd2 O22 2.526333 1_556
Gd2 O10 2.552287 1_556
Gd2 O26 2.570047 1_555
Gd3 O30 2.300152 1_555
Gd3 O17 2.303088 1_555
Gd3 O3 2.355617 1_555
Gd3 O15 2.437755 1_555
Gd3 O33 2.517082 1_655
Gd3 O23 2.528955 1_655
Gd3 O11 2.557492 1_555
Gd3 O27 2.574478 1_655
Mn0 O0 1.911362 1_556
Mn0 O2 1.911798 1_555
Mn0 O6 2.044760 1_555
Mn0 O4 2.045342 1_556
Mn0 O20 2.154787 1_555
Mn0 O22 2.155426 1_556
Mn1 O3 1.907674 1_565
Mn1 O1 1.910675 1_655
Mn1 O5 2.046535 1_555
Mn1 O7 2.046987 1_665
Mn1 O21 2.151778 1_555
Mn1 O23 2.156009 1_665
Mn2 O0 1.916397 1_456
Mn2 O2 1.916953 1_555
Mn2 O6 1.973707 1_455
Mn2 O4 1.973954 1_556
Mn2 O8 2.160713 1_455
Mn2 O10 2.161882 1_556
Mn3 O3 1.929718 1_565
Mn3 O1 1.931593 1_555
Mn3 O5 1.973234 1_555
Mn3 O7 1.973391 1_565
Mn3 O9 2.148829 1_555
Mn3 O11 2.156047 1_565
As0 O28 1.701905 1_555
As0 O24 1.703492 1_555
As0 O12 1.714865 1_555
As0 O4 1.752657 1_555
As1 O29 1.700363 1_565
As1 O25 1.703404 1_555
As1 O13 1.715630 1_555
As1 O5 1.753428 1_555
As2 O30 1.701919 1_555
As2 O26 1.703318 1_555
As2 O14 1.714848 1_555
As2 O6 1.752324 1_555
As3 O31 1.700192 1_545
As3 O27 1.704083 1_555
As3 O15 1.716118 1_555
As3 O7 1.753176 1_555
As4 O16 1.697765 1_554
As4 O34 1.718225 1_555
As4 O8 1.750332 1_454
As4 O20 1.751215 1_554
As5 O17 1.696997 1_555
As5 O35 1.718594 1_555
As5 O21 1.750723 1_555
As5 O9 1.752227 1_555
As6 O18 1.697184 1_556
As6 O32 1.718647 1_555
As6 O10 1.750270 1_656
As6 O22 1.751277 1_556
As7 O19 1.697644 1_555
As7 O33 1.719324 1_555
As7 O23 1.750802 1_555
As7 O11 1.752633 1_555
