# generated using pymatgen
data_Sr4CaMn2Cu3(SO)4
_symmetry_space_group_name_H-M   'P 1'
_cell_length_a   6.14814461
_cell_length_b   6.17867143
_cell_length_c   9.41613367
_cell_angle_alpha   92.43331593
_cell_angle_beta   71.06439017
_cell_angle_gamma   97.81002815
_symmetry_Int_Tables_number   1
_chemical_formula_structural   Sr4CaMn2Cu3(SO)4
_chemical_formula_sum   'Sr4 Ca1 Mn2 Cu3 S4 O4'
_cell_volume   335.19818198
_cell_formula_units_Z   1
loop_
 _symmetry_equiv_pos_site_id
 _symmetry_equiv_pos_as_xyz
  1  'x, y, z'
loop_
 _atom_site_type_symbol
 _atom_site_label
 _atom_site_symmetry_multiplicity
 _atom_site_fract_x
 _atom_site_fract_y
 _atom_site_fract_z
 _atom_site_occupancy
  Sr  Sr0  1  0.32741700  0.07351200  0.19425700  1
  Sr  Sr1  1  0.98868000  0.43418900  0.19409900  1
  Sr  Sr2  1  0.08495900  0.51047600  0.80775300  1
  Sr  Sr3  1  0.60451400  0.98836100  0.80957600  1
  Ca  Ca0  1  0.64603900  0.74406300  0.19982600  1
  Mn  Mn0  1  0.52626600  0.49212500  0.94194700  1
  Mn  Mn1  1  0.02987600  0.00577800  0.94475400  1
  Cu  Cu0  1  0.49586700  0.24776000  0.51653300  1
  Cu  Cu1  1  0.48296900  0.75376100  0.53008400  1
  Cu  Cu2  1  0.99059500  0.24717300  0.51459100  1
  S  S0  1  0.18220600  0.99790800  0.66168200  1
  S  S1  1  0.65309700  0.50565300  0.66094100  1
  S  S2  1  0.31318000  0.47915300  0.39504300  1
  S  S3  1  0.79273100  0.01970200  0.38863800  1
  O  O0  1  0.25110500  0.24986400  0.99629000  1
  O  O1  1  0.77158900  0.74971700  0.95646600  1
  O  O2  1  0.74963000  0.25072700  0.99634900  1
  O  O3  1  0.24469500  0.75007500  0.01260200  1
loop_
_geom_bond_atom_site_label_1
_geom_bond_atom_site_label_2
_geom_bond_distance
_geom_bond_site_symmetry_2
Ca0 O1 2.167846 1_554
Ca0 S2 2.673898 1_555
Ca0 S3 2.690880 1_565
Mn0 O0 2.044346 1_555
Mn0 O1 2.071148 1_555
Mn0 O2 2.334743 1_555
Mn0 O3 2.427336 1_556
Mn0 S1 2.505649 1_555
Mn1 O0 2.041733 1_555
Mn1 O1 2.062838 1_445
Mn1 O2 2.366072 1_455
Mn1 O3 2.418476 1_546
Mn1 S0 2.522957 1_545
Cu0 S1 2.360707 1_555
Cu0 S0 2.372658 1_545
Cu0 S3 2.428044 1_555
Cu0 S2 2.454274 1_555
Cu1 S2 2.404646 1_555
Cu1 S3 2.406236 1_565
Cu1 S0 2.518459 1_555
Cu1 S1 2.528822 1_555
Cu2 S2 2.273878 1_655
Cu2 S3 2.278581 1_555
Cu2 S0 2.722367 1_645
Cu2 S1 2.759195 1_555
S0 Sr2 3.263149 1_555
S0 Sr3 3.328571 1_555
S0 Sr3 3.361184 1_455
S0 Sr2 3.448203 1_565
S1 Sr3 3.249559 1_555
S1 Sr2 3.317203 1_555
S1 Sr2 3.364361 1_655
S1 Sr3 3.480319 1_545
S2 Sr0 3.068166 1_555
S2 Sr1 3.145200 1_455
S3 Sr1 3.081083 1_555
S3 Sr0 3.180684 1_655
O0 Sr1 2.395486 1_456
O0 Sr0 2.400257 1_556
O0 Sr2 2.941881 1_555
O0 Sr3 2.942172 1_545
O1 Sr3 2.578617 1_555
O1 Sr2 2.589429 1_655
O2 Sr3 2.626792 1_545
O2 Sr2 2.635597 1_655
O2 Sr0 2.769700 1_556
O2 Sr1 2.838364 1_556
O3 Sr1 2.628694 1_455
O3 Sr0 2.678841 1_565
O3 Sr3 2.706525 1_554
O3 Sr2 2.732857 1_554
