# generated using pymatgen
data_Mg3Si4
_symmetry_space_group_name_H-M   'P 1'
_cell_length_a   5.44496700
_cell_length_b   6.97807951
_cell_length_c   7.86434034
_cell_angle_alpha   115.33015329
_cell_angle_beta   82.83478596
_cell_angle_gamma   110.72671597
_symmetry_Int_Tables_number   1
_chemical_formula_structural   Mg3Si4
_chemical_formula_sum   'Mg6 Si8'
_cell_volume   252.47489817
_cell_formula_units_Z   2
loop_
 _symmetry_equiv_pos_site_id
 _symmetry_equiv_pos_as_xyz
  1  'x, y, z'
loop_
 _atom_site_type_symbol
 _atom_site_label
 _atom_site_symmetry_multiplicity
 _atom_site_fract_x
 _atom_site_fract_y
 _atom_site_fract_z
 _atom_site_occupancy
  Mg  Mg0  1  0.21557100  0.34783800  0.97542000  1
  Mg  Mg1  1  0.78442900  0.65216200  0.02458000  1
  Mg  Mg2  1  0.78391900  0.03750500  0.39663400  1
  Mg  Mg3  1  0.86400900  0.47533100  0.32206600  1
  Mg  Mg4  1  0.13599100  0.52466900  0.67793400  1
  Mg  Mg5  1  0.21608100  0.96249500  0.60336600  1
  Si  Si0  1  0.72645400  0.02746700  0.03026300  1
  Si  Si1  1  0.30605800  0.21461300  0.33000100  1
  Si  Si2  1  0.73955300  0.20112400  0.78904200  1
  Si  Si3  1  0.56935000  0.38919100  0.64523300  1
  Si  Si4  1  0.26044700  0.79887600  0.21095800  1
  Si  Si5  1  0.69394200  0.78538700  0.66999900  1
  Si  Si6  1  0.27354600  0.97253300  0.96973700  1
  Si  Si7  1  0.43065000  0.61080900  0.35476700  1
loop_
_geom_bond_atom_site_label_1
_geom_bond_atom_site_label_2
_geom_bond_distance
_geom_bond_site_symmetry_2
Mg0 Si6 2.727970 1_545
Mg0 Si2 2.774879 1_455
Mg0 Si4 2.824337 1_556
Mg0 Si7 2.881856 1_556
Mg0 Si0 2.932717 1_456
Mg0 Si3 3.088157 1_555
Mg1 Si0 2.727970 1_565
Mg1 Si4 2.774879 1_655
Mg1 Si2 2.824337 1_554
Mg1 Si3 2.881856 1_554
Mg1 Si6 2.932717 1_654
Mg1 Si7 3.088157 1_555
Mg2 Si1 2.753231 1_655
Mg2 Si2 2.807110 1_555
Mg2 Si7 2.817657 1_545
Mg2 Si0 2.905374 1_555
Mg2 Si3 2.926440 1_555
Mg2 Si4 2.937244 1_545
Mg2 Si5 3.212542 1_545
Mg3 Si7 2.783389 1_555
Mg3 Si0 2.868712 1_555
Mg3 Si4 2.878939 1_655
Mg3 Si7 2.899057 1_655
Mg3 Si1 2.946357 1_555
Mg3 Si5 2.957385 1_555
Mg3 Si3 3.000332 1_555
Mg4 Si3 2.783389 1_555
Mg4 Si6 2.868712 1_555
Mg4 Si2 2.878939 1_455
Mg4 Si3 2.899057 1_455
Mg4 Si5 2.946357 1_555
Mg4 Si1 2.957385 1_555
Mg4 Si7 3.000332 1_555
Mg5 Si5 2.753231 1_455
Mg5 Si4 2.807110 1_555
Mg5 Si3 2.817657 1_565
Mg5 Si6 2.905374 1_555
Mg5 Si7 2.926440 1_555
Mg5 Si2 2.937244 1_565
Mg5 Si1 3.212542 1_565
Si0 Si6 2.433637 1_544
Si0 Si5 2.594289 1_544
Si0 Si2 2.635223 1_554
Si1 Si7 2.527113 1_555
Si1 Si4 2.564818 1_545
Si1 Si6 2.594289 1_544
Si1 Si3 2.598355 1_555
Si2 Si3 2.500504 1_555
Si2 Si5 2.564818 1_545
Si3 Si5 2.527113 1_555
Si4 Si7 2.500504 1_555
Si4 Si6 2.635223 1_554
Si5 Si7 2.598355 1_555
