# generated using pymatgen
data_Sr2ZrFeO6
_symmetry_space_group_name_H-M   'P 1'
_cell_length_a   5.73235751
_cell_length_b   5.73235751
_cell_length_c   5.73235751
_cell_angle_alpha   60.00000000
_cell_angle_beta   60.00000000
_cell_angle_gamma   60.00000000
_symmetry_Int_Tables_number   1
_chemical_formula_structural   Sr2ZrFeO6
_chemical_formula_sum   'Sr2 Zr1 Fe1 O6'
_cell_volume   133.19404479
_cell_formula_units_Z   1
loop_
 _symmetry_equiv_pos_site_id
 _symmetry_equiv_pos_as_xyz
  1  'x, y, z'
loop_
 _atom_site_type_symbol
 _atom_site_label
 _atom_site_symmetry_multiplicity
 _atom_site_fract_x
 _atom_site_fract_y
 _atom_site_fract_z
 _atom_site_occupancy
  Sr  Sr0  1  0.25000000  0.25000000  0.25000000  1
  Sr  Sr1  1  0.75000000  0.75000000  0.75000000  1
  Zr  Zr0  1  0.50000000  0.50000000  0.50000000  1
  Fe  Fe0  1  0.00000000  -0.00000000  0.00000000  1
  O  O0  1  0.75724133  0.24275867  0.24275867  1
  O  O1  1  0.24275867  0.75724133  0.75724133  1
  O  O2  1  0.75724133  0.24275867  0.75724133  1
  O  O3  1  0.24275867  0.75724133  0.24275867  1
  O  O4  1  0.75724133  0.75724133  0.24275867  1
  O  O5  1  0.24275867  0.24275867  0.75724133  1
loop_
_geom_bond_atom_site_label_1
_geom_bond_atom_site_label_2
_geom_bond_distance
_geom_bond_site_symmetry_2
Fe0 O4 1.967991 1_445
Fe0 O1 1.967991 1_544
Fe0 O2 1.967991 1_454
Fe0 O5 1.967991 1_554
Fe0 O0 1.967991 1_455
Fe0 O3 1.967991 1_545
O0 Zr0 2.085398 1_555
O0 Sr0 2.866780 1_655
O0 Sr1 2.866780 1_545
O0 Sr1 2.866780 1_554
O0 Sr0 2.866780 1_555
O1 Zr0 2.085398 1_555
O1 Sr0 2.866780 1_556
O1 Sr1 2.866780 1_555
O1 Sr1 2.866780 1_455
O1 Sr0 2.866780 1_565
O2 Zr0 2.085398 1_555
O2 Sr0 2.866780 1_556
O2 Sr1 2.866780 1_555
O2 Sr0 2.866780 1_655
O2 Sr1 2.866780 1_545
O3 Zr0 2.085398 1_555
O3 Sr0 2.866780 1_565
O3 Sr1 2.866780 1_455
O3 Sr1 2.866780 1_554
O3 Sr0 2.866780 1_555
O4 Zr0 2.085398 1_555
O4 Sr1 2.866780 1_555
O4 Sr0 2.866780 1_565
O4 Sr0 2.866780 1_655
O4 Sr1 2.866780 1_554
O5 Zr0 2.085398 1_555
O5 Sr0 2.866780 1_556
O5 Sr1 2.866780 1_545
O5 Sr1 2.866780 1_455
O5 Sr0 2.866780 1_555
