# generated using pymatgen
data_Lu5(In2Pd)2
_symmetry_space_group_name_H-M   'P 1'
_cell_length_a   3.55587100
_cell_length_b   8.04662200
_cell_length_c   18.02113000
_cell_angle_alpha   90.00000000
_cell_angle_beta   90.00000000
_cell_angle_gamma   90.00000000
_symmetry_Int_Tables_number   1
_chemical_formula_structural   Lu5(In2Pd)2
_chemical_formula_sum   'Lu10 In8 Pd4'
_cell_volume   515.63408412
_cell_formula_units_Z   2
loop_
 _symmetry_equiv_pos_site_id
 _symmetry_equiv_pos_as_xyz
  1  'x, y, z'
loop_
 _atom_site_type_symbol
 _atom_site_label
 _atom_site_symmetry_multiplicity
 _atom_site_fract_x
 _atom_site_fract_y
 _atom_site_fract_z
 _atom_site_occupancy
  Lu  Lu0  1  0.00000000  0.50000000  0.50000000  1
  Lu  Lu1  1  0.00000000  0.00000000  0.00000000  1
  Lu  Lu2  1  0.00000000  0.73813700  0.27970200  1
  Lu  Lu3  1  0.00000000  0.26186300  0.72029800  1
  Lu  Lu4  1  0.00000000  0.76186300  0.77970200  1
  Lu  Lu5  1  0.00000000  0.23813700  0.22029800  1
  Lu  Lu6  1  0.00000000  0.61086100  0.08278400  1
  Lu  Lu7  1  0.00000000  0.38913900  0.91721600  1
  Lu  Lu8  1  0.00000000  0.88913900  0.58278400  1
  Lu  Lu9  1  0.00000000  0.11086100  0.41721600  1
  In  In0  1  0.50000000  0.71419300  0.93172800  1
  In  In1  1  0.50000000  0.28580700  0.06827200  1
  In  In2  1  0.50000000  0.78580700  0.43172800  1
  In  In3  1  0.50000000  0.21419300  0.56827200  1
  In  In4  1  0.50000000  0.58439700  0.64851000  1
  In  In5  1  0.50000000  0.41560300  0.35149000  1
  In  In6  1  0.50000000  0.91560300  0.14851000  1
  In  In7  1  0.50000000  0.08439700  0.85149000  1
  Pd  Pd0  1  0.50000000  0.52200400  0.19653200  1
  Pd  Pd1  1  0.50000000  0.47799600  0.80346800  1
  Pd  Pd2  1  0.50000000  0.97799600  0.69653200  1
  Pd  Pd3  1  0.50000000  0.02200400  0.30346800  1
loop_
_geom_bond_atom_site_label_1
_geom_bond_atom_site_label_2
_geom_bond_distance
_geom_bond_site_symmetry_2
Lu2 Pd0 2.903811 1_455
Lu2 Pd0 2.903811 1_555
Lu2 Pd3 2.926076 1_465
Lu2 Pd3 2.926076 1_565
Lu3 Pd1 2.903811 1_555
Lu3 Pd1 2.903811 1_455
Lu3 Pd2 2.926076 1_445
Lu3 Pd2 2.926076 1_545
Lu4 Pd2 2.903811 1_555
Lu4 Pd2 2.903811 1_455
Lu4 Pd1 2.926076 1_455
Lu4 Pd1 2.926076 1_555
Lu5 Pd3 2.903811 1_455
Lu5 Pd3 2.903811 1_555
Lu5 Pd0 2.926076 1_455
Lu5 Pd0 2.926076 1_555
Lu6 Pd0 2.806107 1_455
Lu6 Pd0 2.806107 1_555
Lu7 Pd1 2.806107 1_455
Lu7 Pd1 2.806107 1_555
Lu8 Pd2 2.806107 1_555
Lu8 Pd2 2.806107 1_455
Lu9 Pd3 2.806107 1_455
Lu9 Pd3 2.806107 1_555
In0 Pd1 2.992450 1_555
In0 Lu1 3.156546 1_566
In0 Lu1 3.156546 1_666
In0 Lu7 3.173443 1_555
In0 Lu7 3.173443 1_655
In0 Lu4 3.288471 1_555
In0 Lu4 3.288471 1_655
In0 Lu6 3.356006 1_656
In0 Lu6 3.356006 1_556
In1 Pd0 2.992450 1_555
In1 Lu1 3.156546 1_655
In1 Lu1 3.156546 1_555
In1 Lu6 3.173443 1_555
In1 Lu6 3.173443 1_655
In1 Lu5 3.288471 1_555
In1 Lu5 3.288471 1_655
In1 Lu7 3.356006 1_654
In1 Lu7 3.356006 1_554
In2 Pd3 2.992450 1_565
In2 Lu0 3.156546 1_555
In2 Lu0 3.156546 1_655
In2 Lu9 3.173443 1_565
In2 Lu9 3.173443 1_665
In2 Lu2 3.288471 1_555
In2 Lu2 3.288471 1_655
In2 Lu8 3.356006 1_655
In2 Lu8 3.356006 1_555
In3 Pd2 2.992450 1_545
In3 Lu0 3.156546 1_555
In3 Lu0 3.156546 1_655
In3 Lu8 3.173443 1_645
In3 Lu8 3.173443 1_545
In3 Lu3 3.288471 1_555
In3 Lu3 3.288471 1_655
In3 Lu9 3.356006 1_655
In3 Lu9 3.356006 1_555
In4 Pd1 2.920819 1_555
In4 Lu8 3.252230 1_555
In4 Lu8 3.252230 1_655
In4 Pd2 3.283249 1_555
In4 Lu0 3.284041 1_555
In4 Lu0 3.284041 1_655
In4 Lu4 3.284786 1_555
In4 Lu4 3.284786 1_655
In4 Lu3 3.401521 1_555
In4 Lu3 3.401521 1_655
In5 Pd0 2.920819 1_555
In5 Lu9 3.252230 1_655
In5 Lu9 3.252230 1_555
In5 Pd3 3.283249 1_555
In5 Lu0 3.284041 1_555
In5 Lu0 3.284041 1_655
In5 Lu5 3.284786 1_555
In5 Lu5 3.284786 1_655
In5 Lu2 3.401521 1_555
In5 Lu2 3.401521 1_655
In6 Pd3 2.920819 1_565
In6 Lu6 3.252230 1_555
In6 Lu6 3.252230 1_655
In6 Pd0 3.283249 1_555
In6 Lu1 3.284041 1_665
In6 Lu1 3.284041 1_565
In6 Lu2 3.284786 1_555
In6 Lu2 3.284786 1_655
In6 Lu5 3.401521 1_565
In6 Lu5 3.401521 1_665
In7 Pd2 2.920819 1_545
In7 Lu7 3.252230 1_555
In7 Lu7 3.252230 1_655
In7 Pd1 3.283249 1_555
In7 Lu1 3.284041 1_556
In7 Lu1 3.284041 1_656
In7 Lu3 3.284786 1_555
In7 Lu3 3.284786 1_655
In7 Lu4 3.401521 1_645
In7 Lu4 3.401521 1_545
