# generated using pymatgen
data_SiPd4
_symmetry_space_group_name_H-M   'P 1'
_cell_length_a   21.30915923
_cell_length_b   21.30915923
_cell_length_c   21.30915838
_cell_angle_alpha   15.50618302
_cell_angle_beta   15.50618302
_cell_angle_gamma   15.50618726
_symmetry_Int_Tables_number   1
_chemical_formula_structural   SiPd4
_chemical_formula_sum   'Si8 Pd32'
_cell_volume   602.57017126
_cell_formula_units_Z   8
loop_
 _symmetry_equiv_pos_site_id
 _symmetry_equiv_pos_as_xyz
  1  'x, y, z'
loop_
 _atom_site_type_symbol
 _atom_site_label
 _atom_site_symmetry_multiplicity
 _atom_site_fract_x
 _atom_site_fract_y
 _atom_site_fract_z
 _atom_site_occupancy
  Si  Si0_0  1  0.00000000  0.00000000  0.00000000  1
  Si  Si0_1  1  0.00000000  0.00000000  0.50000000  1
  Si  Si0_2  1  0.00000000  0.50000000  0.00000000  1
  Si  Si0_3  1  0.00000000  0.50000000  0.50000000  1
  Si  Si0_4  1  0.50000000  0.00000000  0.00000000  1
  Si  Si0_5  1  0.50000000  0.00000000  0.50000000  1
  Si  Si0_6  1  0.50000000  0.50000000  0.00000000  1
  Si  Si0_7  1  0.50000000  0.50000000  0.50000000  1
  Pd  Pd0_0  1  0.30467450  0.30467450  0.30467450  1
  Pd  Pd0_1  1  0.30467450  0.30467450  0.80467450  1
  Pd  Pd0_2  1  0.30467450  0.80467450  0.30467450  1
  Pd  Pd0_3  1  0.30467450  0.80467450  0.80467450  1
  Pd  Pd0_4  1  0.80467450  0.30467450  0.30467450  1
  Pd  Pd0_5  1  0.80467450  0.30467450  0.80467450  1
  Pd  Pd0_6  1  0.80467450  0.80467450  0.30467450  1
  Pd  Pd0_7  1  0.80467450  0.80467450  0.80467450  1
  Pd  Pd1_0  1  0.10111800  0.10111800  0.10111800  1
  Pd  Pd1_1  1  0.10111800  0.10111800  0.60111800  1
  Pd  Pd1_2  1  0.10111800  0.60111800  0.10111800  1
  Pd  Pd1_3  1  0.10111800  0.60111800  0.60111800  1
  Pd  Pd1_4  1  0.60111800  0.10111800  0.10111800  1
  Pd  Pd1_5  1  0.60111800  0.10111800  0.60111800  1
  Pd  Pd1_6  1  0.60111800  0.60111800  0.10111800  1
  Pd  Pd1_7  1  0.60111800  0.60111800  0.60111800  1
  Pd  Pd2_0  1  0.39888200  0.39888200  0.39888200  1
  Pd  Pd2_1  1  0.39888200  0.39888200  0.89888200  1
  Pd  Pd2_2  1  0.39888200  0.89888200  0.39888200  1
  Pd  Pd2_3  1  0.39888200  0.89888200  0.89888200  1
  Pd  Pd2_4  1  0.89888200  0.39888200  0.39888200  1
  Pd  Pd2_5  1  0.89888200  0.39888200  0.89888200  1
  Pd  Pd2_6  1  0.89888200  0.89888200  0.39888200  1
  Pd  Pd2_7  1  0.89888200  0.89888200  0.89888200  1
  Pd  Pd3_0  1  0.19532550  0.19532550  0.19532550  1
  Pd  Pd3_1  1  0.19532550  0.19532550  0.69532550  1
  Pd  Pd3_2  1  0.19532550  0.69532550  0.19532550  1
  Pd  Pd3_3  1  0.19532550  0.69532550  0.69532550  1
  Pd  Pd3_4  1  0.69532550  0.19532550  0.19532550  1
  Pd  Pd3_5  1  0.69532550  0.19532550  0.69532550  1
  Pd  Pd3_6  1  0.69532550  0.69532550  0.19532550  1
  Pd  Pd3_7  1  0.69532550  0.69532550  0.69532550  1
loop_
_geom_bond_atom_site_label_1
_geom_bond_atom_site_label_2
_geom_bond_distance
_geom_bond_site_symmetry_2
Pd0_0 Si0_6 2.455550 1_555
Pd0_0 Si0_5 2.455550 1_555
Pd0_0 Si0_3 2.455550 1_555
Pd0_0 Pd1_2 2.860269 1_555
Pd0_0 Pd1_4 2.860269 1_555
Pd0_0 Pd1_1 2.860269 1_555
Pd0_1 Si0_7 2.455550 1_555
Pd0_1 Si0_4 2.455550 1_556
Pd0_1 Si0_2 2.455550 1_556
Pd0_1 Pd1_3 2.860269 1_555
Pd0_1 Pd1_5 2.860269 1_555
Pd0_1 Pd1_0 2.860269 1_556
Pd0_2 Si0_4 2.455550 1_565
Pd0_2 Si0_7 2.455550 1_555
Pd0_2 Si0_1 2.455550 1_565
Pd0_2 Pd1_6 2.860269 1_555
Pd0_2 Pd1_0 2.860269 1_565
Pd0_2 Pd1_3 2.860269 1_555
Pd0_3 Si0_5 2.455550 1_565
Pd0_3 Si0_0 2.455550 1_566
Pd0_3 Si0_6 2.455550 1_556
Pd0_3 Pd1_1 2.860269 1_565
Pd0_3 Pd1_7 2.860269 1_555
Pd0_3 Pd1_2 2.860269 1_556
Pd0_4 Si0_2 2.455550 1_655
Pd0_4 Si0_7 2.455550 1_555
Pd0_4 Si0_1 2.455550 1_655
Pd0_4 Pd1_6 2.860269 1_555
Pd0_4 Pd1_0 2.860269 1_655
Pd0_4 Pd1_5 2.860269 1_555
Pd0_5 Si0_3 2.455550 1_655
Pd0_5 Si0_6 2.455550 1_556
Pd0_5 Si0_0 2.455550 1_656
Pd0_5 Pd1_1 2.860269 1_655
Pd0_5 Pd1_7 2.860269 1_555
Pd0_5 Pd1_4 2.860269 1_556
Pd0_6 Si0_0 2.455550 1_665
Pd0_6 Si0_5 2.455550 1_565
Pd0_6 Si0_3 2.455550 1_655
Pd0_6 Pd1_4 2.860269 1_565
Pd0_6 Pd1_2 2.860269 1_655
Pd0_6 Pd1_7 2.860269 1_555
Pd0_7 Si0_1 2.455550 1_665
Pd0_7 Si0_4 2.455550 1_566
Pd0_7 Si0_2 2.455550 1_656
Pd0_7 Pd1_5 2.860269 1_565
Pd0_7 Pd1_3 2.860269 1_655
Pd0_7 Pd1_6 2.860269 1_556
Pd1_0 Pd2_6 2.792776 1_445
Pd1_0 Pd2_3 2.792776 1_544
Pd1_0 Pd2_5 2.792776 1_454
Pd1_0 Pd1_5 2.874699 1_455
Pd1_0 Pd1_3 2.874699 1_545
Pd1_0 Pd1_5 2.874699 1_554
Pd1_0 Pd1_3 2.874699 1_554
Pd1_0 Pd1_6 2.874700 1_455
Pd1_0 Pd1_6 2.874700 1_545
Pd1_1 Pd2_7 2.792776 1_445
Pd1_1 Pd2_4 2.792776 1_455
Pd1_1 Pd2_2 2.792776 1_545
Pd1_1 Pd1_2 2.874699 1_555
Pd1_1 Pd1_4 2.874699 1_555
Pd1_1 Pd1_2 2.874699 1_546
Pd1_1 Pd1_4 2.874699 1_456
Pd1_1 Pd1_7 2.874700 1_545
Pd1_1 Pd1_7 2.874700 1_455
Pd1_2 Pd2_4 2.792776 1_455
Pd1_2 Pd2_1 2.792776 1_554
Pd1_2 Pd2_7 2.792776 1_454
Pd1_2 Pd1_7 2.874699 1_455
Pd1_2 Pd1_7 2.874699 1_554
Pd1_2 Pd1_4 2.874700 1_465
Pd1_2 Pd1_4 2.874700 1_555
Pd1_3 Pd2_5 2.792776 1_455
Pd1_3 Pd2_6 2.792776 1_455
Pd1_3 Pd2_0 2.792776 1_555
Pd1_3 Pd1_6 2.874699 1_555
Pd1_3 Pd1_6 2.874699 1_456
Pd1_3 Pd1_5 2.874700 1_465
Pd1_3 Pd1_5 2.874700 1_555
Pd1_4 Pd2_2 2.792776 1_545
Pd1_4 Pd2_1 2.792776 1_554
Pd1_4 Pd2_7 2.792776 1_544
Pd1_4 Pd1_7 2.874699 1_545
Pd1_4 Pd1_7 2.874699 1_554
Pd1_5 Pd2_3 2.792776 1_545
Pd1_5 Pd2_6 2.792776 1_545
Pd1_5 Pd2_0 2.792776 1_555
Pd1_5 Pd1_6 2.874699 1_555
Pd1_5 Pd1_6 2.874699 1_546
Pd1_6 Pd2_0 2.792776 1_555
Pd1_6 Pd2_3 2.792776 1_554
Pd1_6 Pd2_5 2.792776 1_554
Pd1_7 Pd2_1 2.792776 1_555
Pd1_7 Pd2_4 2.792776 1_555
Pd1_7 Pd2_2 2.792776 1_555
Pd2_0 Pd3_4 2.860269 1_555
Pd2_0 Pd3_2 2.860269 1_555
Pd2_0 Pd3_1 2.860269 1_555
Pd2_0 Pd2_5 2.874699 1_554
Pd2_0 Pd2_3 2.874699 1_554
Pd2_0 Pd2_3 2.874699 1_545
Pd2_0 Pd2_5 2.874699 1_455
Pd2_0 Pd2_6 2.874700 1_455
Pd2_0 Pd2_6 2.874700 1_545
Pd2_1 Pd3_3 2.860269 1_555
Pd2_1 Pd3_5 2.860269 1_555
Pd2_1 Pd3_0 2.860269 1_556
Pd2_1 Pd2_4 2.874699 1_456
Pd2_1 Pd2_2 2.874699 1_546
Pd2_1 Pd2_4 2.874699 1_555
Pd2_1 Pd2_2 2.874699 1_555
Pd2_1 Pd2_7 2.874700 1_455
Pd2_1 Pd2_7 2.874700 1_545
Pd2_2 Pd3_6 2.860269 1_555
Pd2_2 Pd3_0 2.860269 1_565
Pd2_2 Pd3_3 2.860269 1_555
Pd2_2 Pd2_7 2.874699 1_554
Pd2_2 Pd2_7 2.874699 1_455
Pd2_2 Pd2_4 2.874700 1_465
Pd2_2 Pd2_4 2.874700 1_555
Pd2_3 Pd3_1 2.860269 1_565
Pd2_3 Pd3_7 2.860269 1_555
Pd2_3 Pd3_2 2.860269 1_556
Pd2_3 Pd2_6 2.874699 1_456
Pd2_3 Pd2_6 2.874699 1_555
Pd2_3 Pd2_5 2.874700 1_465
Pd2_3 Pd2_5 2.874700 1_555
Pd2_4 Pd3_6 2.860269 1_555
Pd2_4 Pd3_0 2.860269 1_655
Pd2_4 Pd3_5 2.860269 1_555
Pd2_4 Pd2_7 2.874699 1_554
Pd2_4 Pd2_7 2.874699 1_545
Pd2_5 Pd3_1 2.860269 1_655
Pd2_5 Pd3_7 2.860269 1_555
Pd2_5 Pd3_4 2.860269 1_556
Pd2_5 Pd2_6 2.874699 1_546
Pd2_5 Pd2_6 2.874699 1_555
Pd2_6 Pd3_4 2.860269 1_565
Pd2_6 Pd3_2 2.860269 1_655
Pd2_6 Pd3_7 2.860269 1_555
Pd2_7 Pd3_5 2.860269 1_565
Pd2_7 Pd3_3 2.860269 1_655
Pd2_7 Pd3_6 2.860269 1_556
Pd3_0 Si0_1 2.455550 1_555
Pd3_0 Si0_4 2.455550 1_555
Pd3_0 Si0_2 2.455550 1_555
Pd3_1 Si0_0 2.455550 1_556
Pd3_1 Si0_5 2.455550 1_555
Pd3_1 Si0_3 2.455550 1_555
Pd3_2 Si0_3 2.455550 1_555
Pd3_2 Si0_0 2.455550 1_565
Pd3_2 Si0_6 2.455550 1_555
Pd3_3 Si0_2 2.455550 1_556
Pd3_3 Si0_1 2.455550 1_565
Pd3_3 Si0_7 2.455550 1_555
Pd3_4 Si0_5 2.455550 1_555
Pd3_4 Si0_0 2.455550 1_655
Pd3_4 Si0_6 2.455550 1_555
Pd3_5 Si0_4 2.455550 1_556
Pd3_5 Si0_1 2.455550 1_655
Pd3_5 Si0_7 2.455550 1_555
Pd3_6 Si0_7 2.455550 1_555
Pd3_6 Si0_2 2.455550 1_655
Pd3_6 Si0_4 2.455550 1_565
Pd3_7 Si0_6 2.455550 1_556
Pd3_7 Si0_3 2.455550 1_655
Pd3_7 Si0_5 2.455550 1_565
