# generated using pymatgen
data_Mg3(AlCu2)2
_symmetry_space_group_name_H-M   'P 1'
_cell_length_a   5.04416438
_cell_length_b   5.04416438
_cell_length_c   12.14853281
_cell_angle_alpha   89.40203152
_cell_angle_beta   89.40203152
_cell_angle_gamma   60.30565562
_symmetry_Int_Tables_number   1
_chemical_formula_structural   Mg3(AlCu2)2
_chemical_formula_sum   'Mg6 Al4 Cu8'
_cell_volume   268.49159125
_cell_formula_units_Z   2
loop_
 _symmetry_equiv_pos_site_id
 _symmetry_equiv_pos_as_xyz
  1  'x, y, z'
loop_
 _atom_site_type_symbol
 _atom_site_label
 _atom_site_symmetry_multiplicity
 _atom_site_fract_x
 _atom_site_fract_y
 _atom_site_fract_z
 _atom_site_occupancy
  Mg  Mg0  1  0.16634126  0.16634126  0.53934537  1
  Mg  Mg1  1  0.83664220  0.83664220  0.21750271  1
  Mg  Mg2  1  0.49348080  0.49348080  0.87058310  1
  Mg  Mg3  1  0.83365874  0.83365874  0.46065463  1
  Mg  Mg4  1  0.50651920  0.50651920  0.12941690  1
  Mg  Mg5  1  0.16335780  0.16335780  0.78249729  1
  Al  Al0  1  0.17725653  0.17725653  0.17212605  1
  Al  Al1  1  0.82274347  0.82274347  0.82787395  1
  Al  Al2  1  0.50000000  0.50000000  0.50000000  1
  Al  Al3  1  -0.00000000  -0.00000000  0.00000000  1
  Cu  Cu0  1  0.66567686  0.66567686  0.66262854  1
  Cu  Cu1  1  0.33432314  0.33432314  0.33737146  1
  Cu  Cu2  1  -0.00000000  0.50000000  0.00000000  1
  Cu  Cu3  1  0.66633629  0.16636472  0.66598519  1
  Cu  Cu4  1  0.33366371  0.83363528  0.33401481  1
  Cu  Cu5  1  0.83363528  0.33366371  0.33401481  1
  Cu  Cu6  1  0.50000000  -0.00000000  0.00000000  1
  Cu  Cu7  1  0.16636472  0.66633629  0.66598519  1
loop_
_geom_bond_atom_site_label_1
_geom_bond_atom_site_label_2
_geom_bond_distance
_geom_bond_site_symmetry_2
Mg0 Mg5 2.953740 1_555
Mg0 Mg3 3.066417 1_445
Mg0 Mg3 3.070875 1_545
Mg0 Mg3 3.070875 1_455
Mg1 Mg3 2.953740 1_555
Mg1 Mg4 3.084232 1_555
Mg1 Mg4 3.118108 1_655
Mg1 Mg4 3.118108 1_565
Mg2 Mg5 3.084232 1_555
Mg2 Mg5 3.118108 1_565
Mg2 Mg5 3.118108 1_655
Mg2 Mg4 3.147879 1_556
Al0 Cu1 2.444110 1_555
Al0 Cu4 2.470036 1_545
Al0 Cu5 2.470036 1_455
Al0 Cu2 2.519561 1_555
Al0 Cu6 2.519561 1_555
Al0 Al3 2.615639 1_555
Al0 Mg4 2.912564 1_555
Al0 Mg1 2.945380 1_545
Al0 Mg1 2.945380 1_455
Al0 Mg4 2.987624 1_455
Al0 Mg4 2.987624 1_545
Al0 Mg1 3.015425 1_445
Al1 Cu0 2.444110 1_555
Al1 Cu3 2.470036 1_565
Al1 Cu7 2.470036 1_655
Al1 Cu6 2.519561 1_566
Al1 Cu2 2.519561 1_656
Al1 Al3 2.615639 1_666
Al1 Mg2 2.912564 1_555
Al1 Mg5 2.945380 1_565
Al1 Mg5 2.945380 1_655
Al1 Mg2 2.987624 1_565
Al1 Mg2 2.987624 1_655
Al1 Mg5 3.015425 1_665
Al2 Cu1 2.461917 1_555
Al2 Cu0 2.461917 1_555
Al2 Cu5 2.483521 1_555
Al2 Cu4 2.483521 1_555
Al2 Cu3 2.483521 1_555
Al2 Cu7 2.483521 1_555
Al2 Mg3 2.943882 1_555
Al2 Mg0 2.943882 1_555
Al2 Mg3 2.961502 1_455
Al2 Mg0 2.961502 1_565
Al2 Mg0 2.961502 1_655
Al2 Mg3 2.961502 1_545
Al3 Cu6 2.522082 1_455
Al3 Cu2 2.522082 1_555
Al3 Cu2 2.522082 1_545
Al3 Cu6 2.522082 1_555
Al3 Mg4 2.982792 1_455
Al3 Mg2 2.982792 1_454
Al3 Mg2 2.982792 1_544
Al3 Mg4 2.982792 1_545
Al3 Mg5 2.986926 1_554
Al3 Mg1 2.986926 1_445
Cu0 Cu3 2.516871 1_555
Cu0 Cu7 2.516871 1_555
Cu0 Cu3 2.527956 1_565
Cu0 Cu7 2.527956 1_655
Cu0 Mg3 2.842717 1_555
Cu0 Mg5 2.922339 1_565
Cu0 Mg5 2.922339 1_655
Cu0 Mg2 2.923550 1_555
Cu0 Mg0 2.943250 1_565
Cu0 Mg0 2.943250 1_655
Cu1 Cu5 2.516871 1_555
Cu1 Cu4 2.516871 1_555
Cu1 Cu4 2.527956 1_545
Cu1 Cu5 2.527956 1_455
Cu1 Mg0 2.842717 1_555
Cu1 Mg1 2.922339 1_545
Cu1 Mg1 2.922339 1_455
Cu1 Mg4 2.923550 1_555
Cu1 Mg3 2.943250 1_455
Cu1 Mg3 2.943250 1_545
Cu2 Cu6 2.533725 1_465
Cu2 Cu6 2.533725 1_555
Cu2 Mg2 2.916741 1_554
Cu2 Mg4 2.916741 1_455
Cu2 Mg4 3.028034 1_555
Cu2 Mg2 3.028034 1_454
Cu2 Mg5 3.034195 1_554
Cu2 Mg1 3.034195 1_455
Cu3 Cu7 2.533581 1_555
Cu3 Cu7 2.533869 1_645
Cu3 Mg2 2.876779 1_555
Cu3 Mg5 2.885311 1_655
Cu3 Mg3 2.896765 1_545
Cu3 Mg5 2.898855 1_555
Cu3 Mg0 2.940525 1_655
Cu3 Mg0 2.967997 1_555
Cu4 Cu5 2.533581 1_555
Cu4 Cu5 2.533869 1_465
Cu4 Mg4 2.876779 1_555
Cu4 Mg1 2.885311 1_455
Cu4 Mg0 2.896765 1_565
Cu4 Mg1 2.898855 1_555
Cu4 Mg3 2.940525 1_455
Cu4 Mg3 2.967997 1_555
Cu5 Mg4 2.876779 1_555
Cu5 Mg1 2.885311 1_545
Cu5 Mg0 2.896765 1_655
Cu5 Mg1 2.898855 1_555
Cu5 Mg3 2.940525 1_545
Cu5 Mg3 2.967997 1_555
Cu6 Mg2 2.916741 1_554
Cu6 Mg4 2.916741 1_545
Cu6 Mg4 3.028034 1_555
Cu6 Mg2 3.028034 1_544
Cu6 Mg5 3.034195 1_554
Cu6 Mg1 3.034195 1_545
Cu7 Mg2 2.876779 1_555
Cu7 Mg5 2.885311 1_565
Cu7 Mg3 2.896765 1_455
Cu7 Mg5 2.898855 1_555
Cu7 Mg0 2.940525 1_565
Cu7 Mg0 2.967997 1_555
