# generated using pymatgen
data_SrSiNi
_symmetry_space_group_name_H-M   'P 1'
_cell_length_a   3.98501506
_cell_length_b   3.98501506
_cell_length_c   4.75598300
_cell_angle_alpha   90.00000000
_cell_angle_beta   90.00000000
_cell_angle_gamma   119.99998432
_symmetry_Int_Tables_number   1
_chemical_formula_structural   SrSiNi
_chemical_formula_sum   'Sr1 Si1 Ni1'
_cell_volume   65.40800861
_cell_formula_units_Z   1
loop_
 _symmetry_equiv_pos_site_id
 _symmetry_equiv_pos_as_xyz
  1  'x, y, z'
loop_
 _atom_site_type_symbol
 _atom_site_label
 _atom_site_symmetry_multiplicity
 _atom_site_fract_x
 _atom_site_fract_y
 _atom_site_fract_z
 _atom_site_occupancy
  Sr  Sr0  1  0.33333300  0.66666700  0.00000000  1
  Si  Si0  1  0.66666700  0.33333300  0.50000000  1
  Ni  Ni0  1  0.00000000  0.00000000  0.50000000  1
loop_
_geom_bond_atom_site_label_1
_geom_bond_atom_site_label_2
_geom_bond_distance
_geom_bond_site_symmetry_2
Si0 Sr0 3.308819 1_546
Si0 Sr0 3.308819 1_545
Si0 Sr0 3.308819 1_655
Si0 Sr0 3.308819 1_656
Si0 Sr0 3.308823 1_556
Si0 Sr0 3.308823 1_555
Ni0 Si0 2.300747 1_455
Ni0 Si0 2.300751 1_445
Ni0 Si0 2.300751 1_555
Ni0 Sr0 3.308819 1_545
Ni0 Sr0 3.308819 1_546
Ni0 Sr0 3.308821 1_555
Ni0 Sr0 3.308821 1_556
Ni0 Sr0 3.308821 1_445
Ni0 Sr0 3.308821 1_446
