# generated using pymatgen
data_Ba2YMn3O7
_symmetry_space_group_name_H-M   'P 1'
_cell_length_a   3.94710901
_cell_length_b   4.07238501
_cell_length_c   11.85369800
_cell_angle_alpha   89.99982375
_cell_angle_beta   90.00006769
_cell_angle_gamma   89.99315540
_symmetry_Int_Tables_number   1
_chemical_formula_structural   Ba2YMn3O7
_chemical_formula_sum   'Ba2 Y1 Mn3 O7'
_cell_volume   190.53808921
_cell_formula_units_Z   1
loop_
 _symmetry_equiv_pos_site_id
 _symmetry_equiv_pos_as_xyz
  1  'x, y, z'
loop_
 _atom_site_type_symbol
 _atom_site_label
 _atom_site_symmetry_multiplicity
 _atom_site_fract_x
 _atom_site_fract_y
 _atom_site_fract_z
 _atom_site_occupancy
  Ba  Ba0  1  0.50000300  0.50000100  0.81899800  1
  Ba  Ba1  1  0.50000000  0.50000100  0.18101000  1
  Y  Y0  1  0.49999900  0.50000100  0.49999800  1
  Mn  Mn0  1  0.00000300  0.00000200  0.65401400  1
  Mn  Mn1  1  0.99999800  0.99999700  0.34599300  1
  Mn  Mn2  1  0.00000400  0.99999800  0.00000200  1
  O  O0  1  0.99999600  0.49999800  0.00000500  1
  O  O1  1  0.50000100  0.00000100  0.61922300  1
  O  O2  1  0.49999200  0.00000000  0.38076400  1
  O  O3  1  0.00000600  0.50000300  0.62053100  1
  O  O4  1  0.99999700  0.49999900  0.37945900  1
  O  O5  1  0.00000400  0.00000100  0.83354800  1
  O  O6  1  0.99999700  0.00000000  0.16645300  1
loop_
_geom_bond_atom_site_label_1
_geom_bond_atom_site_label_2
_geom_bond_distance
_geom_bond_site_symmetry_2
Ba0 O5 2.840734 1_565
Ba0 O5 2.840739 1_655
Ba0 O5 2.841071 1_555
Ba0 O5 2.841077 1_665
Ba0 O0 2.915203 1_556
Ba0 O0 2.915244 1_456
Ba0 O3 3.070739 1_555
Ba0 O3 3.070757 1_655
Ba0 O1 3.123110 1_565
Ba0 O1 3.123120 1_555
Ba1 O6 2.840737 1_555
Ba1 O6 2.840746 1_465
Ba1 O6 2.841068 1_565
Ba1 O6 2.841091 1_455
Ba1 O0 2.915197 1_555
Ba1 O0 2.915215 1_455
Ba1 O4 3.070575 1_555
Ba1 O4 3.070594 1_455
Ba1 O2 3.122924 1_555
Ba1 O2 3.122928 1_565
Mn0 O1 2.016175 1_555
Mn0 O1 2.016190 1_455
Mn0 O3 2.074511 1_545
Mn0 O3 2.074517 1_555
Mn0 O5 2.128142 1_555
Mn1 O2 2.016111 1_665
Mn1 O2 2.016158 1_565
Mn1 O4 2.074466 1_555
Mn1 O4 2.074484 1_565
Mn1 O6 2.128213 1_565
Mn2 O6 1.973060 1_465
Mn2 O5 1.973095 1_564
Mn2 O0 2.036193 1_465
Mn2 O0 2.036193 1_455
O1 Y0 2.478580 1_555
O1 Y0 2.478587 1_545
O2 Y0 2.478637 1_545
O2 Y0 2.478651 1_555
O3 Y0 2.436427 1_555
O3 Y0 2.436469 1_455
O4 Y0 2.436484 1_555
O4 Y0 2.436494 1_655
