# generated using pymatgen
data_KIn7S8
_symmetry_space_group_name_H-M   'P 1'
_cell_length_a   3.93809435
_cell_length_b   17.68003604
_cell_length_c   19.07184166
_cell_angle_alpha   67.71991440
_cell_angle_beta   90.00000000
_cell_angle_gamma   90.00000000
_symmetry_Int_Tables_number   1
_chemical_formula_structural   KIn7S8
_chemical_formula_sum   'K3 In21 S24'
_cell_volume   1228.75121120
_cell_formula_units_Z   3
loop_
 _symmetry_equiv_pos_site_id
 _symmetry_equiv_pos_as_xyz
  1  'x, y, z'
loop_
 _atom_site_type_symbol
 _atom_site_label
 _atom_site_symmetry_multiplicity
 _atom_site_fract_x
 _atom_site_fract_y
 _atom_site_fract_z
 _atom_site_occupancy
  K  K0  1  0.50000000  0.29859679  0.78378275  1
  K  K1  1  0.00000000  0.20132667  0.21583266  1
  K  K2  1  0.00000000  0.70140953  0.21566689  1
  In  In0  1  0.50000000  0.50168781  0.11193715  1
  In  In1  1  0.50000000  0.00219813  0.11164068  1
  In  In2  1  0.00000000  0.49959102  0.88661466  1
  In  In3  1  0.00000000  0.99957836  0.88683370  1
  In  In4  1  0.50000000  0.60031593  0.45610537  1
  In  In5  1  0.50000000  0.10060363  0.45614142  1
  In  In6  1  -0.00000000  0.39911479  0.54346084  1
  In  In7  1  -0.00000000  0.89918576  0.54616652  1
  In  In8  1  0.50000000  0.20965417  0.61764884  1
  In  In9  1  0.50000000  0.70897522  0.61839299  1
  In  In10  1  0.00000000  0.78980266  0.38235076  1
  In  In11  1  -0.00000000  0.29011484  0.38199279  1
  In  In12  1  0.50000000  0.54102211  0.68551697  1
  In  In13  1  0.50000000  0.04158898  0.68676175  1
  In  In14  1  0.00000000  0.45826179  0.31401179  1
  In  In15  1  0.00000000  0.95798836  0.31531404  1
  In  In16  1  0.50000000  0.15660017  0.99441271  1
  In  In17  1  0.50000000  0.65656918  0.99556865  1
  In  In18  1  -0.00000000  0.84609622  0.00485964  1
  In  In19  1  -0.00000000  0.34492626  0.00460451  1
  In  In20  1  0.50000000  0.78983743  0.78752969  1
  S  S0  1  0.50000000  0.53651046  0.23460600  1
  S  S1  1  0.50000000  0.03533373  0.23527311  1
  S  S2  1  0.00000000  0.46312113  0.76499203  1
  S  S3  1  0.00000000  0.96557385  0.76524631  1
  S  S4  1  0.50000000  0.33379187  0.49433256  1
  S  S5  1  0.50000000  0.83387454  0.49661877  1
  S  S6  1  0.00000000  0.66617390  0.50519934  1
  S  S7  1  0.00000000  0.16650728  0.50481328  1
  S  S8  1  0.50000000  0.73037406  0.33231372  1
  S  S9  1  0.50000000  0.23053754  0.33207521  1
  S  S10  1  -0.00000000  0.27002721  0.66727464  1
  S  S11  1  -0.00000000  0.76708018  0.67047890  1
  S  S12  1  0.50000000  0.47370385  0.58673575  1
  S  S13  1  0.50000000  0.97451101  0.58726172  1
  S  S14  1  -0.00000000  0.52627409  0.41252550  1
  S  S15  1  -0.00000000  0.02569672  0.41345037  1
  S  S16  1  0.50000000  0.09106889  0.87077495  1
  S  S17  1  0.50000000  0.59250491  0.86652209  1
  S  S18  1  0.00000000  0.91006079  0.12952649  1
  S  S19  1  0.00000000  0.41002138  0.13030190  1
  S  S20  1  0.50000000  0.76004177  0.07386381  1
  S  S21  1  0.50000000  0.26081997  0.07462734  1
  S  S22  1  0.00000000  0.24146414  0.92479682  1
  S  S23  1  0.00000000  0.73988195  0.92324062  1
loop_
_geom_bond_atom_site_label_1
_geom_bond_atom_site_label_2
_geom_bond_distance
_geom_bond_site_symmetry_2
K0 S10 3.149720 1_555
K0 S10 3.149720 1_655
K0 S22 3.173393 1_555
K0 S22 3.173393 1_655
K0 S16 3.405734 1_555
K0 S2 3.417049 1_555
K0 S2 3.417049 1_655
K1 S9 3.150707 1_455
K1 S9 3.150707 1_555
K1 S21 3.176176 1_455
K1 S21 3.176176 1_555
K1 S19 3.422156 1_555
K1 S1 3.435456 1_555
K1 S1 3.435456 1_455
K2 S8 3.154741 1_455
K2 S8 3.154741 1_555
K2 S20 3.184331 1_555
K2 S20 3.184331 1_455
K2 S0 3.421811 1_455
K2 S0 3.421811 1_555
K2 S18 3.422276 1_555
In0 S19 2.489168 1_555
In0 S19 2.489168 1_655
In0 S0 2.635258 1_555
In0 In17 2.795652 1_554
In1 S18 2.495149 1_545
In1 S18 2.495149 1_645
In1 S1 2.636347 1_555
In2 S17 2.499039 1_555
In2 S17 2.499039 1_455
In2 S2 2.632534 1_555
In3 S16 2.492345 1_565
In3 S16 2.492345 1_465
In3 S3 2.606883 1_555
In4 S8 2.597095 1_555
In4 S6 2.633679 1_555
In4 S6 2.633679 1_655
In4 S12 2.643668 1_555
In4 S14 2.665823 1_555
In4 S14 2.665823 1_655
In5 S9 2.598917 1_555
In5 S7 2.629942 1_655
In5 S7 2.629942 1_555
In5 S13 2.645023 1_545
In5 S15 2.666761 1_555
In5 S15 2.666761 1_655
In6 S10 2.588101 1_555
In6 S4 2.628575 1_555
In6 S4 2.628575 1_455
In6 S14 2.652020 1_555
In6 S12 2.668836 1_455
In6 S12 2.668836 1_555
In7 S11 2.622458 1_555
In7 S5 2.632649 1_555
In7 S5 2.632649 1_455
In7 S13 2.656399 1_455
In7 S13 2.656399 1_555
In7 S15 2.667711 1_565
In8 S4 2.536579 1_555
In8 S10 2.584241 1_555
In8 S10 2.584241 1_655
In9 S5 2.526119 1_555
In9 S11 2.587100 1_655
In9 S11 2.587100 1_555
In10 S6 2.526612 1_555
In10 S8 2.579167 1_455
In10 S8 2.579167 1_555
In11 S7 2.526098 1_555
In11 S9 2.579414 1_455
In11 S9 2.579414 1_555
In12 S2 2.547266 1_555
In12 S2 2.547266 1_655
In12 S12 2.581861 1_555
In13 S3 2.529525 1_645
In13 S3 2.529525 1_545
In13 S13 2.591141 1_545
In14 S0 2.548696 1_555
In14 S0 2.548696 1_455
In14 S14 2.586319 1_555
In15 S1 2.548438 1_565
In15 S1 2.548438 1_465
In15 S15 2.575843 1_565
In16 S22 2.525985 1_555
In16 S22 2.525985 1_655
In16 S21 2.805906 1_556
In16 S16 2.995676 1_555
In17 S23 2.531585 1_555
In17 S23 2.531585 1_655
In17 S20 2.765470 1_556
In17 S17 3.074734 1_555
In18 S20 2.530935 1_555
In18 S20 2.530935 1_455
In18 S23 2.857624 1_554
In18 S18 2.995147 1_555
In19 S21 2.523091 1_455
In19 S21 2.523091 1_555
In19 S22 2.788177 1_554
In19 In2 2.806288 1_554
In19 S19 3.027135 1_555
In20 S23 3.102080 1_555
In20 S23 3.102080 1_655
In20 S11 3.115060 1_555
In20 S11 3.115060 1_655
In20 S17 3.233601 1_555
