# generated using pymatgen
data_Eu(MgP)2
_symmetry_space_group_name_H-M   'P 1'
_cell_length_a   4.27058801
_cell_length_b   4.27058801
_cell_length_c   7.08472371
_cell_angle_alpha   90.00000000
_cell_angle_beta   90.00000000
_cell_angle_gamma   120.00000473
_symmetry_Int_Tables_number   1
_chemical_formula_structural   Eu(MgP)2
_chemical_formula_sum   'Eu1 Mg2 P2'
_cell_volume   111.89968943
_cell_formula_units_Z   1
loop_
 _symmetry_equiv_pos_site_id
 _symmetry_equiv_pos_as_xyz
  1  'x, y, z'
loop_
 _atom_site_type_symbol
 _atom_site_label
 _atom_site_symmetry_multiplicity
 _atom_site_fract_x
 _atom_site_fract_y
 _atom_site_fract_z
 _atom_site_occupancy
  Eu  Eu0  1  0.00000000  0.00000000  -0.00000000  1
  Mg  Mg0  1  0.33333300  0.66666700  0.63184236  1
  Mg  Mg1  1  0.66666700  0.33333300  0.36815764  1
  P  P0  1  0.33333300  0.66666700  0.25959868  1
  P  P1  1  0.66666700  0.33333300  0.74040132  1
loop_
_geom_bond_atom_site_label_1
_geom_bond_atom_site_label_2
_geom_bond_distance
_geom_bond_site_symmetry_2
Eu0 P1 3.076020 1_454
Eu0 P0 3.076020 1_545
Eu0 P1 3.076022 1_444
Eu0 P1 3.076022 1_554
Eu0 P0 3.076022 1_445
Eu0 P0 3.076022 1_555
Mg0 P1 2.582794 1_455
Mg0 P1 2.582794 1_565
Mg0 P1 2.582801 1_555
Mg0 P0 2.637244 1_555
Mg1 P0 2.582794 1_545
Mg1 P0 2.582794 1_655
Mg1 P0 2.582801 1_555
Mg1 P1 2.637244 1_555
