# generated using pymatgen
data_ReIr
_symmetry_space_group_name_H-M   'P 1'
_cell_length_a   5.50744267
_cell_length_b   5.50744742
_cell_length_c   8.79284544
_cell_angle_alpha   90.00000000
_cell_angle_beta   90.00000000
_cell_angle_gamma   59.99999213
_symmetry_Int_Tables_number   1
_chemical_formula_structural   ReIr
_chemical_formula_sum   'Re8 Ir8'
_cell_volume   230.97255620
_cell_formula_units_Z   8
loop_
 _symmetry_equiv_pos_site_id
 _symmetry_equiv_pos_as_xyz
  1  'x, y, z'
loop_
 _atom_site_type_symbol
 _atom_site_label
 _atom_site_symmetry_multiplicity
 _atom_site_fract_x
 _atom_site_fract_y
 _atom_site_fract_z
 _atom_site_occupancy
  Re  Re0_0  1  0.33333171  0.33333440  0.12500000  1
  Re  Re0_1  1  0.33333171  0.33333440  0.62500000  1
  Re  Re0_2  1  0.33333171  0.83333440  0.12500000  1
  Re  Re0_3  1  0.33333171  0.83333440  0.62500000  1
  Re  Re0_4  1  0.83333171  0.33333440  0.12500000  1
  Re  Re0_5  1  0.83333171  0.33333440  0.62500000  1
  Re  Re0_6  1  0.83333171  0.83333440  0.12500000  1
  Re  Re0_7  1  0.83333171  0.83333440  0.62500000  1
  Ir  Ir0_0  1  0.16666829  0.16666560  0.37500000  1
  Ir  Ir0_1  1  0.16666829  0.16666560  0.87500000  1
  Ir  Ir0_2  1  0.16666829  0.66666560  0.37500000  1
  Ir  Ir0_3  1  0.16666829  0.66666560  0.87500000  1
  Ir  Ir0_4  1  0.66666829  0.16666560  0.37500000  1
  Ir  Ir0_5  1  0.66666829  0.16666560  0.87500000  1
  Ir  Ir0_6  1  0.66666829  0.66666560  0.37500000  1
  Ir  Ir0_7  1  0.66666829  0.66666560  0.87500000  1
loop_
_geom_bond_atom_site_label_1
_geom_bond_atom_site_label_2
_geom_bond_distance
_geom_bond_site_symmetry_2
Re0_0 Re0_4 2.753721 1_555
Re0_0 Re0_4 2.753721 1_455
Re0_0 Re0_6 2.753722 1_545
Re0_0 Re0_6 2.753722 1_455
Re0_0 Re0_2 2.753724 1_545
Re0_0 Re0_2 2.753724 1_555
Re0_1 Re0_5 2.753721 1_555
Re0_1 Re0_5 2.753721 1_455
Re0_1 Re0_7 2.753722 1_545
Re0_1 Re0_7 2.753722 1_455
Re0_1 Re0_3 2.753724 1_545
Re0_1 Re0_3 2.753724 1_555
Re0_2 Re0_6 2.753721 1_555
Re0_2 Re0_6 2.753721 1_455
Re0_2 Re0_4 2.753722 1_555
Re0_2 Re0_4 2.753722 1_465
Re0_3 Re0_7 2.753721 1_555
Re0_3 Re0_7 2.753721 1_455
Re0_3 Re0_5 2.753722 1_555
Re0_3 Re0_5 2.753722 1_465
Re0_4 Re0_6 2.753724 1_545
Re0_4 Re0_6 2.753724 1_555
Re0_5 Re0_7 2.753724 1_545
Re0_5 Re0_7 2.753724 1_555
Ir0_0 Re0_2 2.712889 1_545
Ir0_0 Re0_3 2.712889 1_545
Ir0_0 Re0_0 2.712891 1_555
Ir0_0 Re0_1 2.712891 1_555
Ir0_0 Re0_4 2.712903 1_455
Ir0_0 Re0_5 2.712903 1_455
Ir0_0 Ir0_4 2.753721 1_555
Ir0_0 Ir0_4 2.753721 1_455
Ir0_0 Ir0_6 2.753722 1_545
Ir0_0 Ir0_6 2.753722 1_455
Ir0_0 Ir0_2 2.753724 1_555
Ir0_0 Ir0_2 2.753724 1_545
Ir0_1 Re0_2 2.712889 1_546
Ir0_1 Re0_3 2.712889 1_545
Ir0_1 Re0_0 2.712891 1_556
Ir0_1 Re0_1 2.712891 1_555
Ir0_1 Re0_5 2.712903 1_455
Ir0_1 Re0_4 2.712903 1_456
Ir0_1 Ir0_5 2.753721 1_555
Ir0_1 Ir0_5 2.753721 1_455
Ir0_1 Ir0_7 2.753722 1_545
Ir0_1 Ir0_7 2.753722 1_455
Ir0_1 Ir0_3 2.753724 1_555
Ir0_1 Ir0_3 2.753724 1_545
Ir0_2 Re0_1 2.712889 1_555
Ir0_2 Re0_0 2.712889 1_555
Ir0_2 Re0_3 2.712891 1_555
Ir0_2 Re0_2 2.712891 1_555
Ir0_2 Re0_7 2.712903 1_455
Ir0_2 Re0_6 2.712903 1_455
Ir0_2 Ir0_6 2.753721 1_555
Ir0_2 Ir0_6 2.753721 1_455
Ir0_2 Ir0_4 2.753722 1_555
Ir0_2 Ir0_4 2.753722 1_465
Ir0_3 Re0_1 2.712889 1_555
Ir0_3 Re0_0 2.712889 1_556
Ir0_3 Re0_2 2.712891 1_556
Ir0_3 Re0_3 2.712891 1_555
Ir0_3 Re0_7 2.712903 1_455
Ir0_3 Re0_6 2.712903 1_456
Ir0_3 Ir0_7 2.753721 1_555
Ir0_3 Ir0_7 2.753721 1_455
Ir0_3 Ir0_5 2.753722 1_555
Ir0_3 Ir0_5 2.753722 1_465
Ir0_4 Re0_7 2.712889 1_545
Ir0_4 Re0_6 2.712889 1_545
Ir0_4 Re0_4 2.712891 1_555
Ir0_4 Re0_5 2.712891 1_555
Ir0_4 Re0_0 2.712903 1_555
Ir0_4 Re0_1 2.712903 1_555
Ir0_4 Ir0_6 2.753724 1_555
Ir0_4 Ir0_6 2.753724 1_545
Ir0_5 Re0_7 2.712889 1_545
Ir0_5 Re0_6 2.712889 1_546
Ir0_5 Re0_4 2.712891 1_556
Ir0_5 Re0_5 2.712891 1_555
Ir0_5 Re0_0 2.712903 1_556
Ir0_5 Re0_1 2.712903 1_555
Ir0_5 Ir0_7 2.753724 1_555
Ir0_5 Ir0_7 2.753724 1_545
Ir0_6 Re0_4 2.712889 1_555
Ir0_6 Re0_5 2.712889 1_555
Ir0_6 Re0_7 2.712891 1_555
Ir0_6 Re0_6 2.712891 1_555
Ir0_6 Re0_3 2.712903 1_555
Ir0_6 Re0_2 2.712903 1_555
Ir0_7 Re0_4 2.712889 1_556
Ir0_7 Re0_5 2.712889 1_555
Ir0_7 Re0_7 2.712891 1_555
Ir0_7 Re0_6 2.712891 1_556
Ir0_7 Re0_2 2.712903 1_556
Ir0_7 Re0_3 2.712903 1_555
