# generated using pymatgen
data_CaW2O5
_symmetry_space_group_name_H-M   'P 1'
_cell_length_a   3.63080200
_cell_length_b   5.16216500
_cell_length_c   13.19627900
_cell_angle_alpha   90.00000000
_cell_angle_beta   90.00000000
_cell_angle_gamma   90.00000000
_symmetry_Int_Tables_number   1
_chemical_formula_structural   CaW2O5
_chemical_formula_sum   'Ca2 W4 O10'
_cell_volume   247.33520493
_cell_formula_units_Z   2
loop_
 _symmetry_equiv_pos_site_id
 _symmetry_equiv_pos_as_xyz
  1  'x, y, z'
loop_
 _atom_site_type_symbol
 _atom_site_label
 _atom_site_symmetry_multiplicity
 _atom_site_fract_x
 _atom_site_fract_y
 _atom_site_fract_z
 _atom_site_occupancy
  Ca  Ca0  1  0.00000000  0.95492200  0.00000000  1
  Ca  Ca1  1  0.50000000  0.04507800  0.50000000  1
  W  W0  1  0.50000000  0.47298400  0.85435000  1
  W  W1  1  0.00000000  0.52701600  0.64565000  1
  W  W2  1  0.00000000  0.52701600  0.35435000  1
  W  W3  1  0.50000000  0.47298400  0.14565000  1
  O  O0  1  0.00000000  0.36908300  0.50000000  1
  O  O1  1  0.50000000  0.63091700  0.00000000  1
  O  O2  1  0.00000000  0.61101400  0.81278500  1
  O  O3  1  0.50000000  0.38898600  0.68721500  1
  O  O4  1  0.00000000  0.61101400  0.18721500  1
  O  O5  1  0.50000000  0.38898600  0.31278500  1
  O  O6  1  0.50000000  0.11751600  0.10915500  1
  O  O7  1  0.00000000  0.88248400  0.39084500  1
  O  O8  1  0.00000000  0.88248400  0.60915500  1
  O  O9  1  0.50000000  0.11751600  0.89084500  1
loop_
_geom_bond_atom_site_label_1
_geom_bond_atom_site_label_2
_geom_bond_distance
_geom_bond_site_symmetry_2
Ca0 O6 2.464758 1_565
Ca0 O6 2.464758 1_465
Ca0 O9 2.464758 1_464
Ca0 O9 2.464758 1_564
Ca0 O1 2.468433 1_555
Ca0 O1 2.468433 1_455
Ca1 O8 2.464758 1_545
Ca1 O7 2.464758 1_645
Ca1 O8 2.464758 1_645
Ca1 O7 2.464758 1_545
Ca1 O0 2.468433 1_655
Ca1 O0 2.468433 1_555
O0 W2 2.087799 1_555
O0 W1 2.087799 1_555
O1 W0 2.087799 1_554
O1 W3 2.087799 1_555
O2 W0 2.025893 1_455
O2 W0 2.025893 1_555
O2 W1 2.247780 1_555
O3 W1 2.025893 1_655
O3 W1 2.025893 1_555
O3 W0 2.247780 1_555
O4 W3 2.025893 1_455
O4 W3 2.025893 1_555
O4 W2 2.247780 1_555
O5 W2 2.025893 1_655
O5 W2 2.025893 1_555
O5 W3 2.247780 1_555
O6 W3 1.897131 1_555
O7 W2 1.897131 1_555
O8 W1 1.897131 1_555
O9 W0 1.897131 1_555
