# generated using pymatgen
data_NaCr2In(H2O5)2
_symmetry_space_group_name_H-M   'P 1'
_cell_length_a   5.73673200
_cell_length_b   6.30107981
_cell_length_c   7.43424720
_cell_angle_alpha   110.08162104
_cell_angle_beta   90.00000000
_cell_angle_gamma   117.07897236
_symmetry_Int_Tables_number   1
_chemical_formula_structural   NaCr2In(H2O5)2
_chemical_formula_sum   'Na1 Cr2 In1 H4 O10'
_cell_volume   220.76502446
_cell_formula_units_Z   1
loop_
 _symmetry_equiv_pos_site_id
 _symmetry_equiv_pos_as_xyz
  1  'x, y, z'
loop_
 _atom_site_type_symbol
 _atom_site_label
 _atom_site_symmetry_multiplicity
 _atom_site_fract_x
 _atom_site_fract_y
 _atom_site_fract_z
 _atom_site_occupancy
  Na  Na0  1  0.00000000  0.00000000  0.50000000  1
  Cr  Cr0  1  0.61169900  0.22339900  0.31566100  1
  Cr  Cr1  1  0.38830100  0.77660100  0.68433900  1
  In  In0  1  0.00000000  0.00000000  0.00000000  1
  H  H0  1  0.27222800  0.54445500  0.20235000  1
  H  H1  1  0.72777200  0.45554500  0.79765000  1
  H  H2  1  0.24303200  0.48606300  0.96481800  1
  H  H3  1  0.75696800  0.51393700  0.03518200  1
  O  O0  1  0.20633800  0.41267500  0.06643600  1
  O  O1  1  0.79366200  0.58732500  0.93356400  1
  O  O2  1  0.74233200  0.48466500  0.26732400  1
  O  O3  1  0.25766800  0.51533500  0.73267600  1
  O  O4  1  0.65105300  0.30210600  0.55097700  1
  O  O5  1  0.34894700  0.69789400  0.44902300  1
  O  O6  1  0.76747600  0.04545800  0.22325100  1
  O  O7  1  0.27798200  0.04545800  0.22325100  1
  O  O8  1  0.23252400  0.95454200  0.77674900  1
  O  O9  1  0.72201800  0.95454200  0.77674900  1
loop_
_geom_bond_atom_site_label_1
_geom_bond_atom_site_label_2
_geom_bond_distance
_geom_bond_site_symmetry_2
Na0 O6 2.616666 1_455
Na0 O8 2.616666 1_545
Na0 O9 2.616666 1_445
Na0 O7 2.616666 1_555
Na0 O2 2.737522 1_445
Na0 O3 2.737522 1_555
Cr0 O4 1.630824 1_555
Cr0 O2 1.638272 1_555
Cr0 O7 1.706158 1_555
Cr0 O6 1.706163 1_555
Cr1 O5 1.630824 1_555
Cr1 O3 1.638272 1_555
Cr1 O9 1.706158 1_555
Cr1 O8 1.706163 1_555
In0 O8 2.153468 1_544
In0 O9 2.153468 1_444
In0 O7 2.153468 1_555
In0 O6 2.153468 1_455
In0 O1 2.173106 1_444
In0 O0 2.173106 1_555
H0 O0 0.995689 1_555
H0 O5 1.698950 1_555
H1 O1 0.995689 1_555
H1 O4 1.698950 1_555
H2 O0 0.990016 1_556
H3 O1 0.990016 1_554
