# generated using pymatgen
data_Np3HF12
_symmetry_space_group_name_H-M   'P 1'
_cell_length_a   8.43070036
_cell_length_b   8.43070036
_cell_length_c   8.58354207
_cell_angle_alpha   63.09571983
_cell_angle_beta   63.09571983
_cell_angle_gamma   88.54901857
_symmetry_Int_Tables_number   1
_chemical_formula_structural   Np3HF12
_chemical_formula_sum   'Np6 H2 F24'
_cell_volume   472.65769757
_cell_formula_units_Z   2
loop_
 _symmetry_equiv_pos_site_id
 _symmetry_equiv_pos_as_xyz
  1  'x, y, z'
loop_
 _atom_site_type_symbol
 _atom_site_label
 _atom_site_symmetry_multiplicity
 _atom_site_fract_x
 _atom_site_fract_y
 _atom_site_fract_z
 _atom_site_occupancy
  Np  Np0  1  0.05908600  0.05908600  0.25229600  1
  Np  Np1  1  0.59991300  0.25100000  0.79555800  1
  Np  Np2  1  0.10484500  0.47882800  0.40519200  1
  Np  Np3  1  0.47882800  0.10484500  0.40519200  1
  Np  Np4  1  0.25100000  0.59991300  0.79555800  1
  Np  Np5  1  0.68260900  0.68260900  0.92519800  1
  H  H0  1  0.99322700  0.99322700  0.99962800  1
  H  H1  1  0.71563500  0.71563500  0.13232400  1
  F  F0  1  0.25065500  0.01118000  0.36894200  1
  F  F1  1  0.65589300  0.95646000  0.87771500  1
  F  F2  1  0.27310500  0.27310500  0.47165700  1
  F  F3  1  0.05847300  0.76914200  0.30885000  1
  F  F4  1  0.01118000  0.25065500  0.36894200  1
  F  F5  1  0.39964100  0.62585200  0.18038400  1
  F  F6  1  0.06911200  0.31330100  0.98946500  1
  F  F7  1  0.95646000  0.65589300  0.87771500  1
  F  F8  1  0.16600500  0.55775600  0.59114600  1
  F  F9  1  0.87997300  0.87997300  0.58549500  1
  F  F10  1  0.44892600  0.44892600  0.65815800  1
  F  F11  1  0.50417300  0.71790900  0.78904400  1
  F  F12  1  0.62585200  0.39964100  0.18038400  1
  F  F13  1  0.76914200  0.05847300  0.30885000  1
  F  F14  1  0.90612700  0.25664000  0.71772300  1
  F  F15  1  0.55775600  0.16600500  0.59114600  1
  F  F16  1  0.46305500  0.80356800  0.47357700  1
  F  F17  1  0.35472300  0.35472300  0.01456500  1
  F  F18  1  0.80356800  0.46305500  0.47357700  1
  F  F19  1  0.59299500  0.13352600  0.09270700  1
  F  F20  1  0.71790900  0.50417300  0.78904400  1
  F  F21  1  0.25664000  0.90612700  0.71772300  1
  F  F22  1  0.13352600  0.59299500  0.09270700  1
  F  F23  1  0.31330100  0.06911200  0.98946500  1
loop_
_geom_bond_atom_site_label_1
_geom_bond_atom_site_label_2
_geom_bond_distance
_geom_bond_site_symmetry_2
H0 Np0 2.741426 1_666
H1 Np5 2.053241 1_554
F0 Np0 2.199649 1_555
F0 Np3 2.293868 1_555
F1 Np5 2.179988 1_555
F1 Np1 2.354419 1_565
F2 Np2 2.249043 1_555
F2 Np3 2.249043 1_555
F3 Np0 2.266142 1_565
F3 Np2 2.289014 1_555
F4 Np0 2.199649 1_555
F4 Np2 2.293868 1_555
F5 Np2 2.255661 1_555
F5 Np5 2.257921 1_554
F6 Np0 2.269564 1_556
F6 Np4 2.280026 1_555
F7 Np5 2.179988 1_555
F7 Np4 2.354419 1_655
F8 Np2 2.231530 1_555
F8 Np4 2.330972 1_555
F9 Np0 2.244708 1_665
F9 Np5 2.323356 1_555
F10 Np1 2.294719 1_555
F10 Np4 2.294719 1_555
F11 Np5 2.229591 1_555
F11 Np4 2.344716 1_555
F12 Np3 2.255661 1_555
F12 Np5 2.257921 1_554
F13 Np0 2.266142 1_655
F13 Np3 2.289014 1_555
F14 Np2 2.248545 1_655
F14 Np1 2.351557 1_555
F15 Np3 2.231530 1_555
F15 Np1 2.330972 1_555
F16 Np4 2.274153 1_555
F16 Np3 2.326131 1_565
F17 Np1 2.539870 1_554
F17 Np4 2.539870 1_554
F17 Np0 2.774397 1_555
F18 Np1 2.274153 1_555
F18 Np2 2.326131 1_655
F19 Np1 2.252105 1_554
F19 Np3 2.295137 1_555
F20 Np5 2.229591 1_555
F20 Np1 2.344716 1_555
F21 Np3 2.248545 1_565
F21 Np4 2.351557 1_555
F22 Np4 2.252105 1_554
F22 Np2 2.295137 1_555
F23 Np0 2.269564 1_556
F23 Np1 2.280026 1_555
