# generated using pymatgen
data_Sm4MgRu
_symmetry_space_group_name_H-M   'P 1'
_cell_length_a   9.84711257
_cell_length_b   9.84717380
_cell_length_c   9.84705112
_cell_angle_alpha   60.00085372
_cell_angle_beta   60.00040201
_cell_angle_gamma   60.00082103
_symmetry_Int_Tables_number   1
_chemical_formula_structural   Sm4MgRu
_chemical_formula_sum   'Sm16 Mg4 Ru4'
_cell_volume   675.17836340
_cell_formula_units_Z   4
loop_
 _symmetry_equiv_pos_site_id
 _symmetry_equiv_pos_as_xyz
  1  'x, y, z'
loop_
 _atom_site_type_symbol
 _atom_site_label
 _atom_site_symmetry_multiplicity
 _atom_site_fract_x
 _atom_site_fract_y
 _atom_site_fract_z
 _atom_site_occupancy
  Sm  Sm0  1  0.93801633  0.56198938  0.56197441  1
  Sm  Sm1  1  0.56197842  0.93802549  0.93801650  1
  Sm  Sm2  1  0.56198734  0.93801941  0.56197740  1
  Sm  Sm3  1  0.93802256  0.56198037  0.93802075  1
  Sm  Sm4  1  0.56197670  0.56198141  0.93801794  1
  Sm  Sm5  1  0.93801534  0.93802210  0.56197552  1
  Sm  Sm6  1  0.81208682  0.18791780  0.18791110  1
  Sm  Sm7  1  0.18791530  0.81206595  0.81210472  1
  Sm  Sm8  1  0.18791524  0.81208152  0.18791078  1
  Sm  Sm9  1  0.81207110  0.18791778  0.81209713  1
  Sm  Sm10  1  0.18791435  0.18791720  0.81209841  1
  Sm  Sm11  1  0.81209355  0.81208074  0.18791147  1
  Sm  Sm12  1  0.34369733  0.34369916  0.34368478  1
  Sm  Sm13  1  0.34369127  0.34369317  0.96892352  1
  Sm  Sm14  1  0.34369985  0.96891261  0.34368684  1
  Sm  Sm15  1  0.96891659  0.34369996  0.34368532  1
  Mg  Mg0  1  0.57840010  0.57840188  0.57839834  1
  Mg  Mg1  1  0.57840069  0.57840226  0.26479535  1
  Mg  Mg2  1  0.57839874  0.26480373  0.57839713  1
  Mg  Mg3  1  0.26480025  0.57840105  0.57839776  1
  Ru  Ru0  1  0.13779611  0.13779207  0.13779748  1
  Ru  Ru1  1  0.13779549  0.13779407  0.58661493  1
  Ru  Ru2  1  0.13779592  0.58660618  0.13780274  1
  Ru  Ru3  1  0.58661360  0.13779273  0.13779767  1
loop_
_geom_bond_atom_site_label_1
_geom_bond_atom_site_label_2
_geom_bond_distance
_geom_bond_site_symmetry_2
Sm0 Sm15 3.556076 1_555
Sm0 Sm12 3.556136 1_655
Sm0 Sm11 3.689547 1_555
Sm0 Sm8 3.689586 1_655
Sm0 Sm9 3.689754 1_555
Sm0 Sm10 3.689793 1_655
Sm0 Sm5 3.702860 1_555
Sm0 Sm2 3.702862 1_555
Sm0 Sm3 3.702934 1_555
Sm0 Sm4 3.702935 1_555
Sm1 Sm14 3.555970 1_556
Sm1 Sm13 3.556070 1_565
Sm1 Sm9 3.689547 1_565
Sm1 Sm10 3.689547 1_565
Sm1 Sm8 3.689652 1_556
Sm1 Sm11 3.689655 1_556
Sm1 Sm2 3.702862 1_555
Sm1 Sm5 3.702909 1_555
Sm1 Sm4 3.702973 1_555
Sm1 Sm3 3.703011 1_555
Sm2 Sm6 3.689629 1_565
Sm2 Sm7 3.689772 1_555
Sm2 Sm5 3.702794 1_555
Sm2 Sm4 3.702949 1_555
Sm3 Sm7 3.689503 1_655
Sm3 Sm6 3.689633 1_556
Sm3 Sm4 3.702975 1_555
Sm3 Sm5 3.702990 1_555
Sm4 Sm7 3.689501 1_555
Sm4 Sm9 3.689562 1_555
Sm4 Sm8 3.689586 1_556
Sm4 Sm6 3.689672 1_556
Sm5 Sm6 3.689587 1_565
Sm5 Sm8 3.689628 1_655
Sm5 Sm9 3.689714 1_565
Sm5 Sm7 3.689774 1_655
Sm10 Sm3 3.689566 1_455
Sm10 Sm2 3.689752 1_545
Sm11 Sm3 3.689549 1_554
Sm11 Sm2 3.689628 1_555
Sm12 Sm4 3.555996 1_554
Sm12 Sm2 3.556173 1_545
Sm13 Sm4 3.556021 1_555
Sm13 Sm3 3.556047 1_455
Sm14 Sm2 3.556106 1_555
Sm14 Sm5 3.556123 1_455
Sm15 Sm3 3.555962 1_554
Sm15 Sm5 3.556139 1_545
Mg0 Mg1 3.088060 1_555
Mg0 Mg3 3.088060 1_555
Mg0 Mg2 3.088068 1_555
Mg0 Sm4 3.387216 1_555
Mg0 Sm0 3.387238 1_555
Mg0 Sm2 3.387286 1_555
Mg0 Sm7 3.602020 1_555
Mg0 Sm11 3.602034 1_555
Mg0 Sm9 3.602045 1_555
Mg0 Sm14 3.610724 1_555
Mg0 Sm15 3.610731 1_555
Mg0 Sm13 3.610776 1_555
Mg1 Mg3 3.088078 1_555
Mg1 Mg2 3.088096 1_555
Mg1 Sm4 3.387234 1_554
Mg1 Sm3 3.387254 1_554
Mg1 Sm1 3.387316 1_554
Mg1 Sm11 3.602014 1_555
Mg1 Sm8 3.602024 1_555
Mg1 Sm6 3.602026 1_555
Mg1 Sm14 3.610665 1_555
Mg1 Sm12 3.610677 1_555
Mg1 Sm15 3.610694 1_555
Mg2 Mg3 3.088082 1_555
Mg2 Sm2 3.387266 1_545
Mg2 Sm1 3.387284 1_545
Mg2 Sm5 3.387295 1_545
Mg2 Sm6 3.601997 1_555
Mg2 Sm9 3.601997 1_555
Mg2 Sm10 3.602007 1_555
Mg2 Sm12 3.610697 1_555
Mg2 Sm15 3.610720 1_555
Mg2 Sm13 3.610742 1_555
Mg3 Sm0 3.387265 1_455
Mg3 Sm3 3.387271 1_455
Mg3 Sm5 3.387339 1_455
Mg3 Sm7 3.601998 1_555
Mg3 Sm8 3.602021 1_555
Mg3 Sm10 3.602032 1_555
Mg3 Sm12 3.610700 1_555
Mg3 Sm14 3.610713 1_555
Mg3 Sm13 3.610764 1_555
Ru0 Sm10 2.801960 1_554
Ru0 Sm6 2.802090 1_455
Ru0 Sm8 2.802148 1_545
Ru0 Sm14 2.890386 1_545
Ru0 Sm15 2.890399 1_455
Ru0 Sm13 2.890422 1_554
Ru0 Sm5 3.552860 1_445
Ru0 Sm1 3.552890 1_544
Ru0 Sm3 3.552969 1_454
Ru1 Sm10 2.802207 1_555
Ru1 Sm9 2.802229 1_455
Ru1 Sm7 2.802310 1_545
Ru1 Sm14 2.890499 1_545
Ru1 Sm12 2.890504 1_555
Ru1 Sm15 2.890509 1_455
Ru1 Sm5 3.552922 1_445
Ru1 Sm2 3.552965 1_545
Ru1 Sm0 3.553012 1_455
Ru2 Sm7 2.801999 1_554
Ru2 Sm8 2.802055 1_555
Ru2 Sm11 2.802084 1_455
Ru2 Sm12 2.890334 1_555
Ru2 Sm15 2.890342 1_455
Ru2 Sm13 2.890384 1_554
Ru2 Sm0 3.552807 1_455
Ru2 Sm3 3.552853 1_454
Ru2 Sm4 3.552887 1_554
Ru3 Sm9 2.801991 1_554
Ru3 Sm6 2.802098 1_555
Ru3 Sm11 2.802178 1_545
Ru3 Sm12 2.890394 1_555
Ru3 Sm14 2.890395 1_545
Ru3 Sm13 2.890429 1_554
Ru3 Sm1 3.552854 1_544
Ru3 Sm2 3.552867 1_545
Ru3 Sm4 3.552965 1_554
