# generated using pymatgen
data_Yb2USe3O2
_symmetry_space_group_name_H-M   'P 1'
_cell_length_a   11.14143090
_cell_length_b   11.14143090
_cell_length_c   11.14143090
_cell_angle_alpha   159.97574255
_cell_angle_beta   159.97574255
_cell_angle_gamma   28.46655780
_symmetry_Int_Tables_number   1
_chemical_formula_structural   Yb2USe3O2
_chemical_formula_sum   'Yb2 U1 Se3 O2'
_cell_volume   162.07831515
_cell_formula_units_Z   1
loop_
 _symmetry_equiv_pos_site_id
 _symmetry_equiv_pos_as_xyz
  1  'x, y, z'
loop_
 _atom_site_type_symbol
 _atom_site_label
 _atom_site_symmetry_multiplicity
 _atom_site_fract_x
 _atom_site_fract_y
 _atom_site_fract_z
 _atom_site_occupancy
  Yb  Yb0  1  0.99687625  0.99687625  0.00000000  1
  Yb  Yb1  1  0.30607528  0.30607528  0.00000000  1
  U  U0  1  0.69534472  0.69534472  0.00000000  1
  Se  Se0  1  0.86973685  0.86973685  0.00000000  1
  Se  Se1  1  0.12821611  0.12821611  0.00000000  1
  Se  Se2  1  0.50451937  0.50451937  0.00000000  1
  O  O0  1  0.74961571  0.24961571  0.50000000  1
  O  O1  1  0.24961571  0.74961571  0.50000000  1
loop_
_geom_bond_atom_site_label_1
_geom_bond_atom_site_label_2
_geom_bond_distance
_geom_bond_site_symmetry_2
Se0 Yb0 2.746063 1_555
Se0 Yb1 3.065077 1_554
Se0 Yb1 3.065077 1_655
Se0 Yb1 3.065077 1_565
Se0 Yb1 3.065077 1_666
Se1 Yb0 2.836788 1_445
Se1 U0 3.099393 1_545
Se1 U0 3.099393 1_556
Se1 U0 3.099393 1_455
Se1 U0 3.099393 1_444
Se2 Yb0 2.744318 1_455
Se2 Yb0 2.744318 1_556
Se2 Yb0 2.744318 1_444
Se2 Yb0 2.744318 1_545
O0 U0 2.264077 1_545
O0 U0 2.264077 1_556
O0 Yb1 2.288908 1_656
O0 Yb1 2.288908 1_555
O1 U0 2.264077 1_556
O1 U0 2.264077 1_455
O1 Yb1 2.288908 1_566
O1 Yb1 2.288908 1_555
