# generated using pymatgen
data_Y5Si3C
_symmetry_space_group_name_H-M   'P 1'
_cell_length_a   8.45044968
_cell_length_b   8.45044968
_cell_length_c   6.46666600
_cell_angle_alpha   90.00000000
_cell_angle_beta   90.00000000
_cell_angle_gamma   119.99999747
_symmetry_Int_Tables_number   1
_chemical_formula_structural   Y5Si3C
_chemical_formula_sum   'Y10 Si6 C2'
_cell_volume   399.91777994
_cell_formula_units_Z   2
loop_
 _symmetry_equiv_pos_site_id
 _symmetry_equiv_pos_as_xyz
  1  'x, y, z'
loop_
 _atom_site_type_symbol
 _atom_site_label
 _atom_site_symmetry_multiplicity
 _atom_site_fract_x
 _atom_site_fract_y
 _atom_site_fract_z
 _atom_site_occupancy
  Y  Y0  1  0.66666700  0.33333300  0.00000000  1
  Y  Y1  1  0.33333300  0.66666700  0.00000000  1
  Y  Y2  1  0.33333300  0.66666700  0.50000000  1
  Y  Y3  1  0.66666700  0.33333300  0.50000000  1
  Y  Y4  1  0.77648200  0.77648200  0.75000000  1
  Y  Y5  1  0.22351800  0.00000000  0.75000000  1
  Y  Y6  1  0.00000000  0.22351800  0.75000000  1
  Y  Y7  1  0.22351800  0.22351800  0.25000000  1
  Y  Y8  1  0.77648200  0.00000000  0.25000000  1
  Y  Y9  1  0.00000000  0.77648200  0.25000000  1
  Si  Si0  1  0.40898100  0.40898100  0.75000000  1
  Si  Si1  1  0.59101900  0.00000000  0.75000000  1
  Si  Si2  1  0.00000000  0.59101900  0.75000000  1
  Si  Si3  1  0.59101900  0.59101900  0.25000000  1
  Si  Si4  1  0.40898100  0.00000000  0.25000000  1
  Si  Si5  1  0.00000000  0.40898100  0.25000000  1
  C  C0  1  0.00000000  0.00000000  0.00000000  1
  C  C1  1  0.00000000  0.00000000  0.50000000  1
loop_
_geom_bond_atom_site_label_1
_geom_bond_atom_site_label_2
_geom_bond_distance
_geom_bond_site_symmetry_2
Si0 Y5 2.997363 1_555
Si0 Y6 2.997363 1_555
Si0 Y1 3.025900 1_556
Si0 Y0 3.025900 1_556
Si0 Y2 3.025900 1_555
Si0 Y3 3.025900 1_555
Si0 Y4 3.105549 1_555
Si0 Y7 3.593146 1_556
Si0 Y7 3.593146 1_555
Si1 Y4 2.997363 1_545
Si1 Y6 2.997363 1_655
Si1 Y3 3.025893 1_555
Si1 Y0 3.025893 1_556
Si1 Y1 3.025895 1_546
Si1 Y2 3.025895 1_545
Si1 Y5 3.105549 1_555
Si1 Y8 3.593146 1_556
Si1 Y8 3.593146 1_555
Si2 Y4 2.997363 1_455
Si2 Y5 2.997363 1_565
Si2 Y1 3.025893 1_556
Si2 Y2 3.025893 1_555
Si2 Y3 3.025895 1_455
Si2 Y0 3.025895 1_456
Si2 Y6 3.105549 1_555
Si2 Y9 3.593146 1_555
Si2 Y9 3.593146 1_556
Si3 Y8 2.997363 1_565
Si3 Y9 2.997363 1_655
Si3 Y1 3.025900 1_555
Si3 Y2 3.025900 1_555
Si3 Y3 3.025900 1_555
Si3 Y0 3.025900 1_555
Si3 Y7 3.105549 1_555
Si3 Y4 3.593146 1_554
Si3 Y4 3.593146 1_555
Si4 Y7 2.997363 1_555
Si4 Y9 2.997363 1_545
Si4 Y1 3.025893 1_545
Si4 Y2 3.025893 1_545
Si4 Y0 3.025895 1_555
Si4 Y3 3.025895 1_555
Si4 Y8 3.105549 1_555
Si4 Y5 3.593146 1_555
Si4 Y5 3.593146 1_554
Si5 Y7 2.997363 1_555
Si5 Y8 2.997363 1_455
Si5 Y3 3.025893 1_455
Si5 Y0 3.025893 1_455
Si5 Y2 3.025895 1_555
Si5 Y1 3.025895 1_555
Si5 Y9 3.105549 1_555
Si5 Y6 3.593146 1_555
Si5 Y6 3.593146 1_554
C0 Y5 2.486218 1_554
C0 Y8 2.486218 1_455
C0 Y6 2.486218 1_554
C0 Y9 2.486218 1_545
C0 Y7 2.486218 1_555
C0 Y4 2.486218 1_444
C1 Y8 2.486218 1_455
C1 Y9 2.486218 1_545
C1 Y5 2.486218 1_555
C1 Y6 2.486218 1_555
C1 Y7 2.486218 1_555
C1 Y4 2.486218 1_445
