# generated using pymatgen
data_GdAlCu
_symmetry_space_group_name_H-M   'P 1'
_cell_length_a   7.07205088
_cell_length_b   7.06642559
_cell_length_c   4.02494823
_cell_angle_alpha   90.00000000
_cell_angle_beta   90.00000000
_cell_angle_gamma   120.02459260
_symmetry_Int_Tables_number   1
_chemical_formula_structural   GdAlCu
_chemical_formula_sum   'Gd3 Al3 Cu3'
_cell_volume   174.15198174
_cell_formula_units_Z   3
loop_
 _symmetry_equiv_pos_site_id
 _symmetry_equiv_pos_as_xyz
  1  'x, y, z'
loop_
 _atom_site_type_symbol
 _atom_site_label
 _atom_site_symmetry_multiplicity
 _atom_site_fract_x
 _atom_site_fract_y
 _atom_site_fract_z
 _atom_site_occupancy
  Gd  Gd0  1  0.41593378  0.41673215  -0.00000000  1
  Gd  Gd1  1  0.58376668  0.00000136  0.00000000  1
  Gd  Gd2  1  0.99920203  0.58326145  -0.00000000  1
  Al  Al0  1  0.76891312  0.76864969  0.50000000  1
  Al  Al1  1  0.23036685  -0.00000087  0.50000000  1
  Al  Al2  1  0.00025887  0.23134554  0.50000000  1
  Cu  Cu0  1  0.66788543  0.33341442  0.50000000  1
  Cu  Cu1  1  0.33446872  0.66660228  0.50000000  1
  Cu  Cu2  1  0.99920352  0.99999399  -0.00000000  1
loop_
_geom_bond_atom_site_label_1
_geom_bond_atom_site_label_2
_geom_bond_distance
_geom_bond_site_symmetry_2
Al0 Cu2 2.590473 1_555
Al0 Cu2 2.590473 1_556
Al0 Cu1 2.782539 1_555
Al0 Cu0 2.787560 1_555
Al0 Al1 2.825508 1_665
Al0 Al2 2.830860 1_665
Al0 Gd0 3.202077 1_555
Al0 Gd0 3.202077 1_556
Al0 Gd2 3.248653 1_556
Al0 Gd2 3.248653 1_555
Al0 Gd1 3.252589 1_565
Al0 Gd1 3.252589 1_566
Al1 Cu2 2.592790 1_445
Al1 Cu2 2.592790 1_446
Al1 Cu1 2.797882 1_545
Al1 Cu0 2.798100 1_555
Al1 Al2 2.825438 1_555
Al1 Gd1 3.208788 1_556
Al1 Gd1 3.208788 1_555
Al1 Gd0 3.252191 1_555
Al1 Gd0 3.252191 1_556
Al1 Gd2 3.252219 1_446
Al1 Gd2 3.252219 1_445
Al2 Cu2 2.590475 1_445
Al2 Cu2 2.590475 1_446
Al2 Cu0 2.782443 1_455
Al2 Cu1 2.787716 1_555
Al2 Gd2 3.202003 1_455
Al2 Gd2 3.202003 1_456
Al2 Gd0 3.248691 1_555
Al2 Gd0 3.248691 1_556
Al2 Gd1 3.252615 1_456
Al2 Gd1 3.252615 1_455
Cu0 Gd2 2.918448 1_555
Cu0 Gd2 2.918448 1_556
Cu0 Gd1 2.924421 1_555
Cu0 Gd1 2.924421 1_556
Cu0 Gd0 2.936221 1_555
Cu0 Gd0 2.936221 1_556
Cu1 Gd0 2.918500 1_555
Cu1 Gd0 2.918500 1_556
Cu1 Gd1 2.924401 1_565
Cu1 Gd1 2.924401 1_566
Cu1 Gd2 2.936196 1_455
Cu1 Gd2 2.936196 1_456
Cu2 Gd1 2.938017 1_565
Cu2 Gd2 2.944804 1_555
Cu2 Gd0 2.944899 1_665
