# generated using pymatgen
data_Mg3Au13
_symmetry_space_group_name_H-M   'P 1'
_cell_length_a   4.07808147
_cell_length_b   4.07808147
_cell_length_c   16.69720292
_cell_angle_alpha   90.00000000
_cell_angle_beta   89.99999286
_cell_angle_gamma   90.00000000
_symmetry_Int_Tables_number   1
_chemical_formula_structural   Mg3Au13
_chemical_formula_sum   'Mg3 Au13'
_cell_volume   277.68698201
_cell_formula_units_Z   1
loop_
 _symmetry_equiv_pos_site_id
 _symmetry_equiv_pos_as_xyz
  1  'x, y, z'
loop_
 _atom_site_type_symbol
 _atom_site_label
 _atom_site_symmetry_multiplicity
 _atom_site_fract_x
 _atom_site_fract_y
 _atom_site_fract_z
 _atom_site_occupancy
  Mg  Mg0  1  1.00000000  -0.00000000  0.87178785  1
  Mg  Mg1  1  1.00000000  -0.00000000  0.12594565  1
  Mg  Mg2  1  0.50000000  0.50000000  0.62541629  1
  Au  Au0  1  0.50000000  -0.00000000  0.00030945  1
  Au  Au1  1  0.00000000  0.50000000  0.50300206  1
  Au  Au2  1  0.50000000  0.00000000  0.50300206  1
  Au  Au3  1  1.00000000  0.50000000  0.00030945  1
  Au  Au4  1  0.50000000  0.50000000  0.12381545  1
  Au  Au5  1  1.00000000  -0.00000000  0.62522264  1
  Au  Au6  1  1.00000000  -0.00000000  0.37818970  1
  Au  Au7  1  0.50000000  0.50000000  0.87705658  1
  Au  Au8  1  1.00000000  0.50000000  0.24711671  1
  Au  Au9  1  0.50000000  0.00000000  0.74988938  1
  Au  Au10  1  0.50000000  -0.00000000  0.24711671  1
  Au  Au11  1  0.00000000  0.50000000  0.74988938  1
  Au  Au12  1  0.50000000  0.50000000  0.37193165  1
loop_
_geom_bond_atom_site_label_1
_geom_bond_atom_site_label_2
_geom_bond_distance
_geom_bond_site_symmetry_2
Au0 Au3 2.883639 1_545
Au0 Au3 2.883639 1_455
Au0 Au3 2.883639 1_555
Au0 Au3 2.883639 1_445
Au0 Au7 2.897061 1_544
Au0 Au7 2.897061 1_554
Au0 Au4 2.900065 1_545
Au0 Au4 2.900065 1_555
Au0 Mg1 2.925464 1_455
Au0 Mg1 2.925464 1_555
Au0 Mg0 2.960201 1_554
Au0 Mg0 2.960202 1_454
Au1 Au2 2.883639 1_565
Au1 Au2 2.883639 1_555
Au1 Au2 2.883639 1_455
Au1 Au2 2.883639 1_465
Au1 Au5 2.884842 1_465
Au1 Au5 2.884842 1_455
Au1 Mg2 2.887130 1_455
Au1 Mg2 2.887131 1_555
Au1 Au6 2.915616 1_465
Au1 Au6 2.915616 1_455
Au1 Au12 2.991197 1_555
Au1 Au12 2.991197 1_455
Au2 Au5 2.884842 1_455
Au2 Au5 2.884842 1_555
Au2 Mg2 2.887130 1_555
Au2 Mg2 2.887130 1_545
Au2 Au6 2.915616 1_555
Au2 Au6 2.915616 1_455
Au3 Au7 2.897061 1_654
Au3 Au7 2.897061 1_554
Au3 Au4 2.900065 1_555
Au3 Au4 2.900065 1_655
Au3 Mg1 2.925464 1_555
Au3 Mg1 2.925464 1_565
Au3 Mg0 2.960202 1_564
Au3 Mg0 2.960202 1_554
Au4 Mg1 2.883858 1_465
Au4 Mg1 2.883858 1_455
Au4 Mg1 2.883858 1_555
Au4 Mg1 2.883858 1_565
Au4 Au8 2.897635 1_455
Au4 Au8 2.897635 1_555
Au5 Mg2 2.883641 1_555
Au5 Mg2 2.883641 1_545
Au5 Mg2 2.883641 1_645
Au5 Mg2 2.883641 1_655
Au5 Au9 2.913878 1_555
Au5 Au9 2.913878 1_655
Au6 Au8 2.991229 1_555
Au6 Au8 2.991229 1_545
Au7 Mg0 2.884981 1_565
Au7 Mg0 2.884981 1_555
Au7 Mg0 2.884981 1_465
Au7 Mg0 2.884981 1_455
Au7 Au9 2.943849 1_565
Au7 Au9 2.943849 1_555
Au8 Mg1 2.872472 1_555
Au8 Mg1 2.872472 1_565
Au9 Mg0 2.881040 1_455
Au9 Mg0 2.881040 1_555
Au9 Mg2 2.911569 1_545
Au9 Mg2 2.911569 1_555
Au10 Mg1 2.872472 1_555
Au10 Mg1 2.872473 1_455
Au10 Au8 2.883639 1_455
Au10 Au8 2.883639 1_545
Au10 Au8 2.883639 1_445
Au10 Au8 2.883639 1_555
Au10 Au4 2.897635 1_555
Au10 Au4 2.897635 1_545
Au10 Au12 2.915647 1_555
Au10 Au12 2.915647 1_545
Au10 Au6 2.991228 1_455
Au10 Au6 2.991229 1_555
Au11 Mg0 2.881040 1_455
Au11 Mg0 2.881040 1_465
Au11 Au9 2.883639 1_455
Au11 Au9 2.883639 1_555
Au11 Au9 2.883639 1_465
Au11 Au9 2.883639 1_565
Au11 Mg2 2.911569 1_555
Au11 Mg2 2.911570 1_455
Au11 Au5 2.913878 1_465
Au11 Au5 2.913878 1_455
Au11 Au7 2.943849 1_455
Au11 Au7 2.943849 1_555
Au12 Au6 2.885532 1_455
Au12 Au6 2.885532 1_465
Au12 Au6 2.885532 1_555
Au12 Au6 2.885532 1_565
Au12 Au8 2.915646 1_555
Au12 Au8 2.915647 1_455
Au12 Au2 2.991197 1_565
Au12 Au2 2.991197 1_555
