# generated using pymatgen
data_CeDyC4
_symmetry_space_group_name_H-M   'P 1'
_cell_length_a   3.71859800
_cell_length_b   3.71859800
_cell_length_c   6.26284500
_cell_angle_alpha   90.00000000
_cell_angle_beta   90.00000000
_cell_angle_gamma   90.00000000
_symmetry_Int_Tables_number   1
_chemical_formula_structural   CeDyC4
_chemical_formula_sum   'Ce1 Dy1 C4'
_cell_volume   86.60243957
_cell_formula_units_Z   1
loop_
 _symmetry_equiv_pos_site_id
 _symmetry_equiv_pos_as_xyz
  1  'x, y, z'
loop_
 _atom_site_type_symbol
 _atom_site_label
 _atom_site_symmetry_multiplicity
 _atom_site_fract_x
 _atom_site_fract_y
 _atom_site_fract_z
 _atom_site_occupancy
  Ce  Ce0  1  0.00000000  0.00000000  0.00000000  1
  Dy  Dy0  1  0.50000000  0.50000000  0.50000000  1
  C  C0  1  0.00000000  0.00000000  0.39616200  1
  C  C1  1  0.50000000  0.50000000  0.89480200  1
  C  C2  1  0.50000000  0.50000000  0.10519800  1
  C  C3  1  0.00000000  0.00000000  0.60383800  1
loop_
_geom_bond_atom_site_label_1
_geom_bond_atom_site_label_2
_geom_bond_distance
_geom_bond_site_symmetry_2
C0 C3 1.300643 1_555
C0 Ce0 2.481101 1_555
C0 Dy0 2.708672 1_455
C0 Dy0 2.708672 1_445
C0 Dy0 2.708672 1_545
C0 Dy0 2.708672 1_555
C1 C2 1.317678 1_556
C1 Dy0 2.472584 1_555
C1 Ce0 2.710729 1_666
C1 Ce0 2.710729 1_656
C1 Ce0 2.710729 1_556
C1 Ce0 2.710729 1_566
C2 Dy0 2.472584 1_555
C2 Ce0 2.710729 1_565
C2 Ce0 2.710729 1_555
C2 Ce0 2.710729 1_655
C2 Ce0 2.710729 1_665
C3 Ce0 2.481101 1_556
C3 Dy0 2.708672 1_545
C3 Dy0 2.708672 1_555
C3 Dy0 2.708672 1_445
C3 Dy0 2.708672 1_455
