# generated using pymatgen
data_NaMg30BO31
_symmetry_space_group_name_H-M   'P 1'
_cell_length_a   8.47624400
_cell_length_b   8.55981200
_cell_length_c   8.63620300
_cell_angle_alpha   90.00000000
_cell_angle_beta   90.00000000
_cell_angle_gamma   90.00000000
_symmetry_Int_Tables_number   1
_chemical_formula_structural   NaMg30BO31
_chemical_formula_sum   'Na1 Mg30 B1 O31'
_cell_volume   626.60018457
_cell_formula_units_Z   1
loop_
 _symmetry_equiv_pos_site_id
 _symmetry_equiv_pos_as_xyz
  1  'x, y, z'
loop_
 _atom_site_type_symbol
 _atom_site_label
 _atom_site_symmetry_multiplicity
 _atom_site_fract_x
 _atom_site_fract_y
 _atom_site_fract_z
 _atom_site_occupancy
  Na  Na0  1  0.00000000  0.00009000  0.00000000  1
  Mg  Mg0  1  0.00000000  0.00488100  0.50000000  1
  Mg  Mg1  1  0.50000000  0.00231800  0.00000000  1
  Mg  Mg2  1  0.00000000  0.49950800  0.00000000  1
  Mg  Mg3  1  0.00000000  0.50522500  0.50000000  1
  Mg  Mg4  1  0.50000000  0.49842200  0.00000000  1
  Mg  Mg5  1  0.50000000  0.50558900  0.50000000  1
  Mg  Mg6  1  0.74147200  0.99994200  0.75813900  1
  Mg  Mg7  1  0.74147200  0.99994200  0.24186100  1
  Mg  Mg8  1  0.25852800  0.99994200  0.75813900  1
  Mg  Mg9  1  0.25852800  0.99994200  0.24186100  1
  Mg  Mg10  1  0.75011700  0.50026800  0.75082700  1
  Mg  Mg11  1  0.75011700  0.50026800  0.24917300  1
  Mg  Mg12  1  0.24988300  0.50026800  0.75082700  1
  Mg  Mg13  1  0.24988300  0.50026800  0.24917300  1
  Mg  Mg14  1  0.00000000  0.24705500  0.75478600  1
  Mg  Mg15  1  0.00000000  0.24705500  0.24521400  1
  Mg  Mg16  1  0.50000000  0.24659100  0.74582000  1
  Mg  Mg17  1  0.50000000  0.24659100  0.25418000  1
  Mg  Mg18  1  0.00000000  0.75312800  0.75314400  1
  Mg  Mg19  1  0.00000000  0.75312800  0.24685600  1
  Mg  Mg20  1  0.50000000  0.75165600  0.76323200  1
  Mg  Mg21  1  0.50000000  0.75165600  0.23676800  1
  Mg  Mg22  1  0.74988200  0.24896600  0.00000000  1
  Mg  Mg23  1  0.73247700  0.25276600  0.50000000  1
  Mg  Mg24  1  0.25011800  0.24896600  0.00000000  1
  Mg  Mg25  1  0.26752300  0.25276600  0.50000000  1
  Mg  Mg26  1  0.75308100  0.75109400  0.00000000  1
  Mg  Mg27  1  0.75275900  0.74761900  0.50000000  1
  Mg  Mg28  1  0.24691900  0.75109400  0.00000000  1
  Mg  Mg29  1  0.24724100  0.74761900  0.50000000  1
  B  B0  1  0.50000000  0.93668800  0.50000000  1
  O  O0  1  0.00000000  0.26268200  0.00000000  1
  O  O1  1  0.50000000  0.25542300  0.00000000  1
  O  O2  1  0.50000000  0.27597600  0.50000000  1
  O  O3  1  0.00000000  0.73690200  0.00000000  1
  O  O4  1  0.00000000  0.75899900  0.50000000  1
  O  O5  1  0.50000000  0.74388600  0.00000000  1
  O  O6  1  0.50000000  0.76470900  0.50000000  1
  O  O7  1  0.74898500  0.24824700  0.74725600  1
  O  O8  1  0.74898500  0.24824700  0.25274400  1
  O  O9  1  0.25101500  0.24824700  0.74725600  1
  O  O10  1  0.25101500  0.24824700  0.25274400  1
  O  O11  1  0.75033700  0.75203600  0.74736500  1
  O  O12  1  0.75033700  0.75203600  0.25263500  1
  O  O13  1  0.24966300  0.75203600  0.74736500  1
  O  O14  1  0.24966300  0.75203600  0.25263500  1
  O  O15  1  0.00000000  0.99997800  0.72953200  1
  O  O16  1  0.00000000  0.99997800  0.27046800  1
  O  O17  1  0.50000000  0.99610500  0.76566400  1
  O  O18  1  0.50000000  0.99610500  0.23433600  1
  O  O19  1  0.00000000  0.49964200  0.74459300  1
  O  O20  1  0.00000000  0.49964200  0.25540700  1
  O  O21  1  0.50000000  0.50651300  0.74798500  1
  O  O22  1  0.50000000  0.50651300  0.25201500  1
  O  O23  1  0.74046300  0.99982700  0.00000000  1
  O  O24  1  0.66276200  0.99094000  0.50000000  1
  O  O25  1  0.25953700  0.99982700  0.00000000  1
  O  O26  1  0.33723800  0.99094000  0.50000000  1
  O  O27  1  0.74895200  0.50010200  0.00000000  1
  O  O28  1  0.75084200  0.50638300  0.50000000  1
  O  O29  1  0.25104800  0.50010200  0.00000000  1
  O  O30  1  0.24915800  0.50638300  0.50000000  1
loop_
_geom_bond_atom_site_label_1
_geom_bond_atom_site_label_2
_geom_bond_distance
_geom_bond_site_symmetry_2
Na0 O25 2.199900 1_545
Na0 O23 2.199900 1_445
Na0 O0 2.247738 1_555
Na0 O3 2.252840 1_545
Na0 O16 2.335817 1_545
Na0 O15 2.335817 1_544
Mg0 O15 1.982729 1_545
Mg0 O16 1.982729 1_545
Mg0 O4 2.104704 1_545
Mg1 O18 2.024472 1_545
Mg1 O17 2.024472 1_544
Mg1 O25 2.038335 1_545
Mg1 O23 2.038335 1_545
Mg1 O1 2.166531 1_555
Mg1 O5 2.212129 1_545
Mg2 O0 2.027186 1_555
Mg2 O3 2.032048 1_555
Mg2 O29 2.127950 1_555
Mg2 O27 2.127950 1_455
Mg2 O20 2.205747 1_555
Mg2 O19 2.205747 1_554
Mg3 O30 2.111947 1_555
Mg3 O28 2.111947 1_455
Mg3 O19 2.112895 1_555
Mg3 O20 2.112895 1_555
Mg3 O4 2.172258 1_555
Mg4 O1 2.080026 1_555
Mg4 O5 2.101126 1_555
Mg4 O27 2.110227 1_555
Mg4 O29 2.110227 1_555
Mg4 O22 2.177554 1_555
Mg4 O21 2.177554 1_554
Mg5 O2 1.965444 1_555
Mg5 O28 2.126209 1_555
Mg5 O30 2.126209 1_555
Mg5 O22 2.141663 1_555
Mg5 O21 2.141663 1_555
Mg5 O6 2.218018 1_555
Mg6 O17 2.048070 1_555
Mg6 O23 2.088778 1_556
Mg6 O11 2.125396 1_555
Mg6 O7 2.128474 1_565
Mg6 O15 2.205229 1_655
Mg6 O24 2.328306 1_555
Mg7 O18 2.048070 1_555
Mg7 O23 2.088778 1_555
Mg7 O12 2.125396 1_555
Mg7 O8 2.128474 1_565
Mg7 O16 2.205229 1_655
Mg7 O24 2.328306 1_555
Mg8 O17 2.048070 1_555
Mg8 O25 2.088778 1_556
Mg8 O13 2.125396 1_555
Mg8 O9 2.128474 1_565
Mg8 O15 2.205229 1_555
Mg8 O26 2.328306 1_555
Mg9 O18 2.048070 1_555
Mg9 O25 2.088778 1_555
Mg9 O14 2.125396 1_555
Mg9 O10 2.128474 1_565
Mg9 O16 2.205229 1_555
Mg9 O26 2.328306 1_555
Mg10 O19 2.118760 1_655
Mg10 O21 2.120869 1_555
Mg10 O27 2.151932 1_556
Mg10 O11 2.155295 1_555
Mg10 O7 2.157494 1_555
Mg10 O28 2.166834 1_555
Mg11 O20 2.118760 1_655
Mg11 O22 2.120869 1_555
Mg11 O27 2.151932 1_555
Mg11 O12 2.155295 1_555
Mg11 O8 2.157494 1_555
Mg11 O28 2.166834 1_555
Mg12 O19 2.118760 1_555
Mg12 O21 2.120869 1_555
Mg12 O29 2.151932 1_556
Mg12 O13 2.155295 1_555
Mg12 O9 2.157494 1_555
Mg12 O30 2.166834 1_555
Mg13 O20 2.118760 1_555
Mg13 O22 2.120869 1_555
Mg13 O29 2.151932 1_555
Mg13 O14 2.155295 1_555
Mg13 O10 2.157494 1_555
Mg13 O30 2.166834 1_555
Mg14 O0 2.121938 1_556
Mg14 O15 2.126148 1_545
Mg14 O9 2.128682 1_555
Mg14 O7 2.128682 1_455
Mg14 O19 2.163889 1_555
Mg15 O0 2.121938 1_555
Mg15 O16 2.126148 1_545
Mg15 O10 2.128682 1_555
Mg15 O8 2.128682 1_455
Mg15 O20 2.163889 1_555
Mg16 O9 2.110542 1_555
Mg16 O7 2.110542 1_555
Mg16 O2 2.137800 1_555
Mg16 O17 2.150951 1_545
Mg16 O1 2.196452 1_556
Mg16 O21 2.224962 1_555
Mg17 O10 2.110542 1_555
Mg17 O8 2.110542 1_555
Mg17 O2 2.137800 1_555
Mg17 O18 2.150951 1_545
Mg17 O1 2.196452 1_555
Mg17 O22 2.224962 1_555
Mg18 O11 2.116814 1_455
Mg18 O13 2.116814 1_555
Mg18 O15 2.122807 1_555
Mg18 O3 2.136418 1_556
Mg18 O19 2.171049 1_555
Mg18 O4 2.186781 1_555
Mg19 O12 2.116814 1_455
Mg19 O14 2.116814 1_555
Mg19 O16 2.122807 1_555
Mg19 O3 2.136418 1_555
Mg19 O20 2.171049 1_555
Mg19 O4 2.186781 1_555
Mg20 O5 2.045858 1_556
Mg20 O17 2.092543 1_555
Mg20 O21 2.102505 1_555
Mg20 O11 2.126340 1_555
Mg20 O13 2.126340 1_555
Mg20 O6 2.276069 1_555
Mg21 O5 2.045858 1_555
Mg21 O18 2.092543 1_555
Mg21 O22 2.102505 1_555
Mg21 O14 2.126340 1_555
Mg21 O12 2.126340 1_555
Mg21 O6 2.276069 1_555
Mg22 O1 2.118782 1_555
Mg22 O0 2.123310 1_655
Mg22 O23 2.134077 1_545
Mg22 O27 2.149691 1_555
Mg22 O7 2.182770 1_554
Mg22 O8 2.182770 1_555
Mg23 O2 1.980522 1_555
Mg23 O8 2.140282 1_555
Mg23 O7 2.140282 1_555
Mg23 O28 2.176488 1_555
Mg23 O24 2.317775 1_545
Mg24 O1 2.118782 1_555
Mg24 O0 2.123310 1_555
Mg24 O25 2.134077 1_545
Mg24 O29 2.149691 1_555
Mg24 O9 2.182770 1_554
Mg24 O10 2.182770 1_555
Mg25 O2 1.980522 1_555
Mg25 O10 2.140282 1_555
Mg25 O9 2.140282 1_555
Mg25 O30 2.176488 1_555
Mg25 O26 2.317775 1_545
Mg26 O3 2.096468 1_655
Mg26 O23 2.131792 1_555
Mg26 O5 2.146063 1_555
Mg26 O27 2.148729 1_555
Mg26 O12 2.181946 1_555
Mg26 O11 2.181946 1_554
Mg27 O28 2.064999 1_555
Mg27 O4 2.097938 1_655
Mg27 O11 2.136728 1_555
Mg27 O12 2.136728 1_555
Mg27 O6 2.147435 1_555
Mg27 O24 2.218085 1_555
Mg28 O3 2.096468 1_555
Mg28 O25 2.131792 1_555
Mg28 O5 2.146063 1_555
Mg28 O29 2.148729 1_555
Mg28 O14 2.181946 1_555
Mg28 O13 2.181946 1_554
Mg29 O30 2.064999 1_555
Mg29 O4 2.097938 1_555
Mg29 O13 2.136728 1_555
Mg29 O14 2.136728 1_555
Mg29 O6 2.147435 1_555
Mg29 O26 2.218085 1_555
B0 O24 1.455672 1_555
B0 O26 1.455672 1_555
B0 O6 1.472108 1_555
