# generated using pymatgen
data_Ho2FeSi2
_symmetry_space_group_name_H-M   'P 1'
_cell_length_a   5.56249800
_cell_length_b   5.56249800
_cell_length_c   27.13494800
_cell_angle_alpha   90.00000000
_cell_angle_beta   90.00000000
_cell_angle_gamma   90.00000000
_symmetry_Int_Tables_number   1
_chemical_formula_structural   Ho2FeSi2
_chemical_formula_sum   'Ho16 Fe8 Si16'
_cell_volume   839.59284589
_cell_formula_units_Z   8
loop_
 _symmetry_equiv_pos_site_id
 _symmetry_equiv_pos_as_xyz
  1  'x, y, z'
loop_
 _atom_site_type_symbol
 _atom_site_label
 _atom_site_symmetry_multiplicity
 _atom_site_fract_x
 _atom_site_fract_y
 _atom_site_fract_z
 _atom_site_occupancy
  Ho  Ho0_0  1  0.25000000  0.25000000  0.31139150  1
  Ho  Ho0_1  1  0.25000000  0.25000000  0.81139150  1
  Ho  Ho0_2  1  0.25000000  0.75000000  0.31139150  1
  Ho  Ho0_3  1  0.25000000  0.75000000  0.81139150  1
  Ho  Ho0_4  1  0.75000000  0.25000000  0.31139150  1
  Ho  Ho0_5  1  0.75000000  0.25000000  0.81139150  1
  Ho  Ho0_6  1  0.75000000  0.75000000  0.31139150  1
  Ho  Ho0_7  1  0.75000000  0.75000000  0.81139150  1
  Ho  Ho1_0  1  0.25000000  0.25000000  0.18860850  1
  Ho  Ho1_1  1  0.25000000  0.25000000  0.68860850  1
  Ho  Ho1_2  1  0.25000000  0.75000000  0.18860850  1
  Ho  Ho1_3  1  0.25000000  0.75000000  0.68860850  1
  Ho  Ho1_4  1  0.75000000  0.25000000  0.18860850  1
  Ho  Ho1_5  1  0.75000000  0.25000000  0.68860850  1
  Ho  Ho1_6  1  0.75000000  0.75000000  0.18860850  1
  Ho  Ho1_7  1  0.75000000  0.75000000  0.68860850  1
  Fe  Fe0_0  1  0.25000000  0.25000000  0.00000000  1
  Fe  Fe0_1  1  0.25000000  0.25000000  0.50000000  1
  Fe  Fe0_2  1  0.25000000  0.75000000  0.00000000  1
  Fe  Fe0_3  1  0.25000000  0.75000000  0.50000000  1
  Fe  Fe0_4  1  0.75000000  0.25000000  0.00000000  1
  Fe  Fe0_5  1  0.75000000  0.25000000  0.50000000  1
  Fe  Fe0_6  1  0.75000000  0.75000000  0.00000000  1
  Fe  Fe0_7  1  0.75000000  0.75000000  0.50000000  1
  Si  Si0_0  1  0.25000000  0.25000000  0.08176150  1
  Si  Si0_1  1  0.25000000  0.25000000  0.58176150  1
  Si  Si0_2  1  0.25000000  0.75000000  0.08176150  1
  Si  Si0_3  1  0.25000000  0.75000000  0.58176150  1
  Si  Si0_4  1  0.75000000  0.25000000  0.08176150  1
  Si  Si0_5  1  0.75000000  0.25000000  0.58176150  1
  Si  Si0_6  1  0.75000000  0.75000000  0.08176150  1
  Si  Si0_7  1  0.75000000  0.75000000  0.58176150  1
  Si  Si1_0  1  0.25000000  0.25000000  0.41823850  1
  Si  Si1_1  1  0.25000000  0.25000000  0.91823850  1
  Si  Si1_2  1  0.25000000  0.75000000  0.41823850  1
  Si  Si1_3  1  0.25000000  0.75000000  0.91823850  1
  Si  Si1_4  1  0.75000000  0.25000000  0.41823850  1
  Si  Si1_5  1  0.75000000  0.25000000  0.91823850  1
  Si  Si1_6  1  0.75000000  0.75000000  0.41823850  1
  Si  Si1_7  1  0.75000000  0.75000000  0.91823850  1
loop_
_geom_bond_atom_site_label_1
_geom_bond_atom_site_label_2
_geom_bond_distance
_geom_bond_site_symmetry_2
Ho0_0 Si1_0 2.899288 1_555
Ho0_1 Si1_1 2.899288 1_555
Ho0_2 Si1_2 2.899288 1_555
Ho0_3 Si1_3 2.899288 1_555
Ho0_4 Si1_4 2.899288 1_555
Ho0_5 Si1_5 2.899288 1_555
Ho0_6 Si1_6 2.899288 1_555
Ho0_7 Si1_7 2.899288 1_555
Ho1_0 Si0_0 2.899288 1_555
Ho1_1 Si0_1 2.899288 1_555
Ho1_2 Si0_2 2.899288 1_555
Ho1_3 Si0_3 2.899288 1_555
Ho1_4 Si0_4 2.899288 1_555
Ho1_5 Si0_5 2.899288 1_555
Ho1_6 Si0_6 2.899288 1_555
Ho1_7 Si0_7 2.899288 1_555
Fe0_0 Si0_0 2.218594 1_555
Fe0_0 Si1_1 2.218594 1_554
Fe0_0 Fe0_2 2.781249 1_545
Fe0_0 Fe0_4 2.781249 1_455
Fe0_0 Fe0_4 2.781249 1_555
Fe0_0 Fe0_2 2.781249 1_555
Fe0_1 Si0_1 2.218594 1_555
Fe0_1 Si1_0 2.218594 1_555
Fe0_1 Fe0_5 2.781249 1_455
Fe0_1 Fe0_3 2.781249 1_545
Fe0_1 Fe0_5 2.781249 1_555
Fe0_1 Fe0_3 2.781249 1_555
Fe0_2 Si0_2 2.218594 1_555
Fe0_2 Si1_3 2.218594 1_554
Fe0_2 Fe0_6 2.781249 1_455
Fe0_2 Fe0_6 2.781249 1_555
Fe0_3 Si0_3 2.218594 1_555
Fe0_3 Si1_2 2.218594 1_555
Fe0_3 Fe0_7 2.781249 1_455
Fe0_3 Fe0_7 2.781249 1_555
Fe0_4 Si0_4 2.218594 1_555
Fe0_4 Si1_5 2.218594 1_554
Fe0_4 Fe0_6 2.781249 1_545
Fe0_4 Fe0_6 2.781249 1_555
Fe0_5 Si0_5 2.218594 1_555
Fe0_5 Si1_4 2.218594 1_555
Fe0_5 Fe0_7 2.781249 1_545
Fe0_5 Fe0_7 2.781249 1_555
Fe0_6 Si0_6 2.218594 1_555
Fe0_6 Si1_7 2.218594 1_554
Fe0_7 Si0_7 2.218594 1_555
Fe0_7 Si1_6 2.218594 1_555
Si0_0 Si0_2 2.781249 1_545
Si0_0 Si0_4 2.781249 1_455
Si0_0 Si0_2 2.781249 1_555
Si0_0 Si0_4 2.781249 1_555
Si0_1 Si0_5 2.781249 1_455
Si0_1 Si0_3 2.781249 1_545
Si0_1 Si0_5 2.781249 1_555
Si0_1 Si0_3 2.781249 1_555
Si0_2 Si0_6 2.781249 1_455
Si0_2 Si0_6 2.781249 1_555
Si0_3 Si0_7 2.781249 1_455
Si0_3 Si0_7 2.781249 1_555
Si0_4 Si0_6 2.781249 1_545
Si0_4 Si0_6 2.781249 1_555
Si0_5 Si0_7 2.781249 1_545
Si0_5 Si0_7 2.781249 1_555
Si1_0 Si1_4 2.781249 1_455
Si1_0 Si1_2 2.781249 1_545
Si1_0 Si1_4 2.781249 1_555
Si1_0 Si1_2 2.781249 1_555
Si1_1 Si1_3 2.781249 1_545
Si1_1 Si1_5 2.781249 1_455
Si1_1 Si1_5 2.781249 1_555
Si1_1 Si1_3 2.781249 1_555
Si1_2 Si1_6 2.781249 1_455
Si1_2 Si1_6 2.781249 1_555
Si1_3 Si1_7 2.781249 1_455
Si1_3 Si1_7 2.781249 1_555
Si1_4 Si1_6 2.781249 1_545
Si1_4 Si1_6 2.781249 1_555
Si1_5 Si1_7 2.781249 1_545
Si1_5 Si1_7 2.781249 1_555
