# generated using pymatgen
data_Li4Mn3CoO8
_symmetry_space_group_name_H-M   'P 1'
_cell_length_a   3.07548500
_cell_length_b   6.07136600
_cell_length_c   8.08900141
_cell_angle_alpha   89.44214189
_cell_angle_beta   90.00000000
_cell_angle_gamma   90.00000000
_symmetry_Int_Tables_number   1
_chemical_formula_structural   Li4Mn3CoO8
_chemical_formula_sum   'Li4 Mn3 Co1 O8'
_cell_volume   151.03387081
_cell_formula_units_Z   1
loop_
 _symmetry_equiv_pos_site_id
 _symmetry_equiv_pos_as_xyz
  1  'x, y, z'
loop_
 _atom_site_type_symbol
 _atom_site_label
 _atom_site_symmetry_multiplicity
 _atom_site_fract_x
 _atom_site_fract_y
 _atom_site_fract_z
 _atom_site_occupancy
  Li  Li0  1  0.00000000  0.00000000  0.50000000  1
  Li  Li1  1  0.50000000  0.24873900  0.24899900  1
  Li  Li2  1  0.00000000  0.50000000  0.00000000  1
  Li  Li3  1  0.50000000  0.75126100  0.75100100  1
  Mn  Mn0  1  0.50000000  0.24730000  0.75077000  1
  Mn  Mn1  1  0.00000000  0.50000000  0.50000000  1
  Mn  Mn2  1  0.50000000  0.75270000  0.24923000  1
  Co  Co0  1  0.00000000  0.00000000  0.00000000  1
  O  O0  1  0.00000000  0.50849900  0.26168800  1
  O  O1  1  0.50000000  0.76293500  0.01153600  1
  O  O2  1  0.00000000  0.00436900  0.76289400  1
  O  O3  1  0.50000000  0.25704100  0.51331200  1
  O  O4  1  0.00000000  0.49150100  0.73831200  1
  O  O5  1  0.50000000  0.74295900  0.48668800  1
  O  O6  1  0.00000000  0.99563100  0.23710600  1
  O  O7  1  0.50000000  0.23706500  0.98846400  1
loop_
_geom_bond_atom_site_label_1
_geom_bond_atom_site_label_2
_geom_bond_distance
_geom_bond_site_symmetry_2
Li0 O2 2.126974 1_555
Li0 O6 2.126974 1_545
Li0 O3 2.194302 1_555
Li0 O3 2.194302 1_455
Li0 O5 2.194302 1_445
Li0 O5 2.194302 1_545
Li1 O7 2.109349 1_554
Li1 O3 2.139113 1_555
Li1 O6 2.176756 1_645
Li1 O6 2.176756 1_545
Li1 O0 2.205805 1_655
Li1 O0 2.205805 1_555
Li2 O0 2.117926 1_555
Li2 O4 2.117926 1_554
Li2 O1 2.219160 1_455
Li2 O1 2.219160 1_555
Li2 O7 2.219160 1_554
Li2 O7 2.219160 1_454
Li3 O1 2.109349 1_556
Li3 O5 2.139113 1_555
Li3 O2 2.176756 1_565
Li3 O2 2.176756 1_665
Li3 O4 2.205805 1_555
Li3 O4 2.205805 1_655
Mn0 O3 1.921133 1_555
Mn0 O7 1.923106 1_555
Mn0 O2 2.132335 1_655
Mn0 O2 2.132335 1_555
Mn0 O4 2.137779 1_555
Mn0 O4 2.137779 1_655
Mn1 O4 1.927894 1_555
Mn1 O0 1.927894 1_555
Mn1 O5 2.132851 1_555
Mn1 O5 2.132851 1_455
Mn1 O3 2.132851 1_555
Mn1 O3 2.132851 1_455
Mn2 O5 1.921133 1_555
Mn2 O1 1.923106 1_555
Mn2 O6 2.132335 1_555
Mn2 O6 2.132335 1_655
Mn2 O0 2.137779 1_555
Mn2 O0 2.137779 1_655
Co0 O6 1.917876 1_545
Co0 O2 1.917876 1_554
Co0 O7 2.107689 1_454
Co0 O7 2.107689 1_554
Co0 O1 2.107689 1_445
Co0 O1 2.107689 1_545
