# generated using pymatgen
data_Mg14SiW
_symmetry_space_group_name_H-M   'P 1'
_cell_length_a   6.19436637
_cell_length_b   6.06403127
_cell_length_c   10.10957940
_cell_angle_alpha   90.00000000
_cell_angle_beta   90.00000000
_cell_angle_gamma   119.30638438
_symmetry_Int_Tables_number   1
_chemical_formula_structural   Mg14SiW
_chemical_formula_sum   'Mg14 Si1 W1'
_cell_volume   331.14273516
_cell_formula_units_Z   1
loop_
 _symmetry_equiv_pos_site_id
 _symmetry_equiv_pos_as_xyz
  1  'x, y, z'
loop_
 _atom_site_type_symbol
 _atom_site_label
 _atom_site_symmetry_multiplicity
 _atom_site_fract_x
 _atom_site_fract_y
 _atom_site_fract_z
 _atom_site_occupancy
  Mg  Mg0  1  0.16756101  0.33378000  0.62500000  1
  Mg  Mg1  1  0.16642603  0.83321252  0.62500000  1
  Mg  Mg2  1  0.66904451  0.33473032  0.12500000  1
  Mg  Mg3  1  0.66358132  0.33241938  0.62500000  1
  Mg  Mg4  1  0.66904451  0.83431319  0.12500000  1
  Mg  Mg5  1  0.66358132  0.83116094  0.62500000  1
  Mg  Mg6  1  0.32840987  0.16170654  0.36142126  1
  Mg  Mg7  1  0.32840987  0.16170654  0.88857874  1
  Mg  Mg8  1  0.32840987  0.66670433  0.36142126  1
  Mg  Mg9  1  0.32840987  0.66670433  0.88857874  1
  Mg  Mg10  1  0.83853142  0.16926621  0.37476214  1
  Mg  Mg11  1  0.83853142  0.16926621  0.87523786  1
  Mg  Mg12  1  0.84440343  0.67220221  0.36882789  1
  Mg  Mg13  1  0.84440343  0.67220221  0.88117211  1
  Si  Si0  1  0.15900273  0.32950086  0.12500000  1
  W  W0  1  0.16224941  0.83112421  0.12500000  1
loop_
_geom_bond_atom_site_label_1
_geom_bond_atom_site_label_2
_geom_bond_distance
_geom_bond_site_symmetry_2
Mg0 Mg1 3.032022 1_545
Mg0 Mg1 3.032022 1_555
Mg0 Mg5 3.076578 1_555
Mg0 Mg3 3.076579 1_555
Mg0 Mg10 3.091700 1_455
Mg0 Mg11 3.091700 1_455
Mg0 Mg5 3.117804 1_445
Mg0 Mg3 3.117805 1_455
Mg0 Mg6 3.193710 1_555
Mg0 Mg7 3.193710 1_555
Mg0 Mg8 3.193716 1_555
Mg0 Mg9 3.193716 1_555
Mg1 Mg3 3.085670 1_565
Mg1 Mg5 3.085671 1_555
Mg1 Mg3 3.108734 1_455
Mg1 Mg5 3.108734 1_455
Mg1 Mg12 3.119718 1_455
Mg1 Mg13 3.119718 1_455
Mg1 Mg8 3.180972 1_555
Mg1 Mg9 3.180972 1_555
Mg1 Mg6 3.180978 1_565
Mg1 Mg7 3.180978 1_565
Mg2 Mg7 3.016357 1_554
Mg2 Mg6 3.016357 1_555
Mg2 Mg4 3.029486 1_555
Mg2 Mg4 3.034545 1_545
Mg2 Si0 3.050628 1_655
Mg2 W0 3.064604 1_655
Mg2 W0 3.129854 1_545
Mg2 Si0 3.143985 1_555
Mg3 Mg5 3.024384 1_555
Mg3 Mg5 3.039647 1_545
Mg3 Mg6 3.221579 1_555
Mg3 Mg7 3.221579 1_555
Mg4 Mg9 3.016357 1_554
Mg4 Mg8 3.016357 1_555
Mg4 Si0 3.050628 1_665
Mg4 W0 3.064604 1_655
Mg4 W0 3.129854 1_555
Mg4 Si0 3.143985 1_555
Mg5 Mg9 3.221580 1_555
Mg5 Mg8 3.221580 1_555
Mg6 W0 2.961556 1_545
Mg6 Si0 2.982357 1_555
Mg7 W0 2.961556 1_546
Mg7 Si0 2.982357 1_556
Mg8 W0 2.961549 1_555
Mg8 Si0 2.982363 1_555
Mg9 W0 2.961549 1_556
Mg9 Si0 2.982363 1_556
Mg10 Mg12 3.032775 1_555
Mg10 Mg12 3.032775 1_545
Mg10 Mg8 3.060160 1_655
Mg10 Mg6 3.060160 1_655
Mg10 Si0 3.061391 1_655
Mg10 Mg2 3.084770 1_555
Mg10 Mg4 3.084776 1_545
Mg10 Mg3 3.098833 1_555
Mg10 Mg5 3.098839 1_545
Mg10 Mg8 3.140593 1_545
Mg10 Mg6 3.140593 1_555
Mg11 Mg13 3.032775 1_555
Mg11 Mg13 3.032775 1_545
Mg11 Mg9 3.060160 1_655
Mg11 Mg7 3.060160 1_655
Mg11 Si0 3.061391 1_656
Mg11 Mg2 3.084770 1_556
Mg11 Mg4 3.084776 1_546
Mg11 Mg3 3.098833 1_555
Mg11 Mg5 3.098839 1_545
Mg11 Mg9 3.140593 1_545
Mg11 Mg7 3.140593 1_555
Mg12 W0 3.003973 1_655
Mg12 Mg4 3.044316 1_555
Mg12 Mg2 3.044321 1_555
Mg12 Mg5 3.154001 1_555
Mg12 Mg3 3.154007 1_555
Mg13 W0 3.003973 1_656
Mg13 Mg4 3.044316 1_556
Mg13 Mg2 3.044321 1_556
Mg13 Mg5 3.154001 1_555
Mg13 Mg3 3.154007 1_555
Si0 W0 3.032066 1_545
Si0 W0 3.032066 1_555
