# generated using pymatgen
data_MgCr2O4
_symmetry_space_group_name_H-M   'P 1'
_cell_length_a   7.41310631
_cell_length_b   7.41310631
_cell_length_c   9.40092925
_cell_angle_alpha   51.06092186
_cell_angle_beta   51.06092186
_cell_angle_gamma   23.12943497
_symmetry_Int_Tables_number   1
_chemical_formula_structural   MgCr2O4
_chemical_formula_sum   'Mg2 Cr4 O8'
_cell_volume   155.67189693
_cell_formula_units_Z   2
loop_
 _symmetry_equiv_pos_site_id
 _symmetry_equiv_pos_as_xyz
  1  'x, y, z'
loop_
 _atom_site_type_symbol
 _atom_site_label
 _atom_site_symmetry_multiplicity
 _atom_site_fract_x
 _atom_site_fract_y
 _atom_site_fract_z
 _atom_site_occupancy
  Mg  Mg0  1  0.67792100  0.67792100  0.30705100  1
  Mg  Mg1  1  0.32207900  0.32207900  0.69294900  1
  Cr  Cr0  1  0.36570900  0.36570900  0.95448200  1
  Cr  Cr1  1  0.85567400  0.85567400  0.31651300  1
  Cr  Cr2  1  0.14432600  0.14432600  0.68348700  1
  Cr  Cr3  1  0.63429100  0.63429100  0.04551800  1
  O  O0  1  0.13894800  0.13894800  0.90461600  1
  O  O1  1  0.53766700  0.53766700  0.74340200  1
  O  O2  1  0.46233300  0.46233300  0.25659800  1
  O  O3  1  0.86105200  0.86105200  0.09538400  1
  O  O4  1  0.83206000  0.83206000  0.83381400  1
  O  O5  1  0.21786300  0.21786300  0.41409800  1
  O  O6  1  0.16794000  0.16794000  0.16618600  1
  O  O7  1  0.78213700  0.78213700  0.58590200  1
loop_
_geom_bond_atom_site_label_1
_geom_bond_atom_site_label_2
_geom_bond_distance
_geom_bond_site_symmetry_2
Mg0 O6 2.056605 1_655
Mg0 O6 2.056605 1_565
Mg0 O3 2.060112 1_555
Mg0 O5 2.075337 1_565
Mg0 O5 2.075337 1_655
Mg1 O4 2.056605 1_545
Mg1 O4 2.056605 1_455
Mg1 O0 2.060112 1_555
Mg1 O7 2.075337 1_455
Mg1 O7 2.075337 1_545
Cr0 O1 1.953740 1_555
Cr0 O3 1.962859 1_456
Cr0 O3 1.962859 1_546
Cr0 O4 2.108486 1_455
Cr0 O4 2.108486 1_545
Cr0 O6 2.208548 1_556
Cr1 O2 1.951007 1_655
Cr1 O2 1.951007 1_565
Cr1 O7 2.020844 1_555
Cr1 O3 2.029590 1_555
Cr1 O5 2.168187 1_565
Cr1 O5 2.168187 1_655
Cr2 O1 1.951007 1_455
Cr2 O1 1.951007 1_545
Cr2 O5 2.020844 1_555
Cr2 O0 2.029590 1_555
Cr2 O7 2.168187 1_455
Cr2 O7 2.168187 1_545
Cr3 O2 1.953740 1_555
Cr3 O0 1.962859 1_654
Cr3 O0 1.962859 1_564
Cr3 O6 2.108486 1_655
Cr3 O6 2.108486 1_565
Cr3 O4 2.208548 1_554
