# generated using pymatgen
data_CaY4(BiO3)4
_symmetry_space_group_name_H-M   'P 1'
_cell_length_a   6.76808691
_cell_length_b   6.34332941
_cell_length_c   8.11888700
_cell_angle_alpha   90.00008613
_cell_angle_beta   89.99994555
_cell_angle_gamma   92.19649340
_symmetry_Int_Tables_number   1
_chemical_formula_structural   CaY4(BiO3)4
_chemical_formula_sum   'Ca1 Y4 Bi4 O12'
_cell_volume   348.30561820
_cell_formula_units_Z   1
loop_
 _symmetry_equiv_pos_site_id
 _symmetry_equiv_pos_as_xyz
  1  'x, y, z'
loop_
 _atom_site_type_symbol
 _atom_site_label
 _atom_site_symmetry_multiplicity
 _atom_site_fract_x
 _atom_site_fract_y
 _atom_site_fract_z
 _atom_site_occupancy
  Ca  Ca0  1  0.82508200  0.56290000  0.25000000  1
  Y  Y0  1  0.97266400  0.97566700  0.75000100  1
  Y  Y1  1  0.39422900  0.52944600  0.25000000  1
  Y  Y2  1  0.54490700  0.48710200  0.75000000  1
  Y  Y3  1  0.06145900  0.03547700  0.24999900  1
  Bi  Bi0  1  0.05420800  0.44931500  0.56851600  1
  Bi  Bi1  1  0.54546100  0.02051200  0.49025900  1
  Bi  Bi2  1  0.54546100  0.02051200  0.00974100  1
  Bi  Bi3  1  0.05420800  0.44931500  0.93148400  1
  O  O0  1  0.61008500  0.34919600  0.41936700  1
  O  O1  1  0.15186400  0.11779300  0.53774600  1
  O  O2  1  0.82105300  0.87812900  0.08224500  1
  O  O3  1  0.34290400  0.61413800  0.95249700  1
  O  O4  1  0.34290500  0.61413700  0.54750300  1
  O  O5  1  0.82105200  0.87812900  0.41775500  1
  O  O6  1  0.15186300  0.11779200  0.96225400  1
  O  O7  1  0.61008500  0.34919600  0.08063300  1
  O  O8  1  0.10977500  0.38242200  0.25000100  1
  O  O9  1  0.71147300  0.17257900  0.75000000  1
  O  O10  1  0.37249600  0.89760900  0.25000000  1
  O  O11  1  0.81092900  0.67155400  0.75000000  1
loop_
_geom_bond_atom_site_label_1
_geom_bond_atom_site_label_2
_geom_bond_distance
_geom_bond_site_symmetry_2
Ca0 O8 2.278682 1_655
Ca0 O7 2.386341 1_555
Ca0 O0 2.386342 1_555
Ca0 O5 2.420397 1_555
Ca0 O2 2.420400 1_555
Bi0 O4 2.187111 1_555
Bi0 O1 2.242367 1_555
Bi0 O8 2.649726 1_555
Bi0 O11 2.654692 1_455
Bi1 O5 2.184133 1_545
Bi1 O0 2.190821 1_555
Bi1 O10 2.390235 1_545
Bi1 O9 2.560645 1_555
Bi1 O1 2.784205 1_555
Bi2 O2 2.184141 1_545
Bi2 O7 2.190820 1_555
Bi2 O10 2.390235 1_545
Bi2 O9 2.560646 1_554
Bi2 O6 2.784211 1_554
Bi3 O3 2.187108 1_555
Bi3 O6 2.242372 1_555
Bi3 O8 2.649744 1_556
Bi3 O11 2.654696 1_455
O0 Y1 2.336777 1_555
O0 Y2 2.862737 1_555
O1 Y0 2.273684 1_445
O1 Y3 2.465827 1_555
O2 Y3 2.318218 1_665
O3 Y2 2.303448 1_555
O3 Y1 2.501543 1_556
O4 Y2 2.303445 1_555
O4 Y1 2.501538 1_555
O5 Y3 2.318232 1_665
O6 Y0 2.273666 1_445
O6 Y3 2.465809 1_556
O7 Y1 2.336773 1_555
O7 Y2 2.862741 1_554
O8 Y1 2.106795 1_555
O8 Y3 2.212516 1_555
O9 Y0 2.203279 1_545
O9 Y2 2.328906 1_555
O10 Y3 2.310302 1_565
O10 Y1 2.345626 1_555
O11 Y2 2.109306 1_555
O11 Y0 2.181226 1_555
