# generated using pymatgen
data_KRb2GaF6
_symmetry_space_group_name_H-M   'P 1'
_cell_length_a   8.83258547
_cell_length_b   10.60719829
_cell_length_c   10.60719829
_cell_angle_alpha   80.01756625
_cell_angle_beta   65.39572082
_cell_angle_gamma   65.39572082
_symmetry_Int_Tables_number   1
_chemical_formula_structural   KRb2GaF6
_chemical_formula_sum   'K5 Rb10 Ga5 F30'
_cell_volume   821.51003006
_cell_formula_units_Z   5
loop_
 _symmetry_equiv_pos_site_id
 _symmetry_equiv_pos_as_xyz
  1  'x, y, z'
loop_
 _atom_site_type_symbol
 _atom_site_label
 _atom_site_symmetry_multiplicity
 _atom_site_fract_x
 _atom_site_fract_y
 _atom_site_fract_z
 _atom_site_occupancy
  K  K0  1  0.50000000  -0.00000000  0.00000000  1
  K  K1  1  0.26330920  0.82440894  0.64897166  1
  K  K2  1  0.08771914  0.64897166  0.17559106  1
  K  K3  1  0.73669080  0.17559106  0.35102834  1
  K  K4  1  0.91228086  0.35102834  0.82440894  1
  Rb  Rb0  1  0.75000000  0.50000000  0.50000000  1
  Rb  Rb1  1  0.25000000  0.50000000  0.50000000  1
  Rb  Rb2  1  0.61893795  0.89439442  0.31860695  1
  Rb  Rb3  1  0.51333237  0.31860695  0.10560558  1
  Rb  Rb4  1  0.83194032  0.10560558  0.68139305  1
  Rb  Rb5  1  0.93754490  0.68139305  0.89439442  1
  Rb  Rb6  1  0.38106205  0.10560558  0.68139305  1
  Rb  Rb7  1  0.48666763  0.68139305  0.89439442  1
  Rb  Rb8  1  0.16805968  0.89439442  0.31860695  1
  Rb  Rb9  1  0.06245510  0.31860695  0.10560558  1
  Ga  Ga0  1  -0.00000000  -0.00000000  0.00000000  1
  Ga  Ga1  1  0.80466478  0.79014497  0.60052647  1
  Ga  Ga2  1  0.59480975  0.60052647  0.20985503  1
  Ga  Ga3  1  0.19533522  0.20985503  0.39947353  1
  Ga  Ga4  1  0.40519025  0.39947353  0.79014497  1
  F  F0  1  0.93716087  0.93746458  0.18821367  1
  F  F1  1  0.87462446  0.18821367  0.06253542  1
  F  F2  1  0.06283913  0.06253542  0.81178633  1
  F  F3  1  0.12537554  0.81178633  0.93746458  1
  F  F4  1  0.78525424  -0.00000000  -0.00000000  1
  F  F5  1  0.21474576  0.00000000  0.00000000  1
  F  F6  1  0.67296907  0.87829287  0.77576798  1
  F  F7  1  0.55126194  0.77576798  0.12170713  1
  F  F8  1  0.32703093  0.12170713  0.22423202  1
  F  F9  1  0.44873806  0.22423202  0.87829287  1
  F  F10  1  0.84737384  0.61375091  0.69150141  1
  F  F11  1  0.46112475  0.69150141  0.38624909  1
  F  F12  1  0.15262616  0.38624909  0.30849859  1
  F  F13  1  0.53887525  0.30849859  0.61375091  1
  F  F14  1  0.93495053  0.70267662  0.42742432  1
  F  F15  1  0.63762515  0.42742432  0.29732338  1
  F  F16  1  0.06504947  0.29732338  0.57257568  1
  F  F17  1  0.36237485  0.57257568  0.70267662  1
  F  F18  1  0.75879248  0.96865453  0.51375950  1
  F  F19  1  0.72744702  0.51375950  0.03134547  1
  F  F20  1  0.24120752  0.03134547  0.48624050  1
  F  F21  1  0.27255298  0.48624050  0.96865453  1
  F  F22  1  0.58387970  0.79496295  0.60342566  1
  F  F23  1  0.37884165  0.60342566  0.20503705  1
  F  F24  1  0.98226831  0.20503705  0.39657434  1
  F  F25  1  0.18730636  0.39657434  0.79496295  1
  F  F26  1  0.41612030  0.20503705  0.39657434  1
  F  F27  1  0.62115835  0.39657434  0.79496295  1
  F  F28  1  0.01773169  0.79496295  0.60342566  1
  F  F29  1  0.81269364  0.60342566  0.20503705  1
loop_
_geom_bond_atom_site_label_1
_geom_bond_atom_site_label_2
_geom_bond_distance
_geom_bond_site_symmetry_2
F0 Ga0 1.912725 1_665
F0 Rb8 2.763135 1_655
F0 Rb2 2.763143 1_555
F0 K3 2.782004 1_565
F0 K2 2.784922 1_655
F1 Ga0 1.912725 1_655
F1 Rb3 2.763135 1_555
F1 Rb9 2.763151 1_655
F1 K4 2.782004 1_554
F1 K3 2.784922 1_555
F2 Ga0 1.912725 1_556
F2 Rb4 2.763135 1_455
F2 Rb6 2.763143 1_555
F2 K1 2.782004 1_545
F2 K4 2.784922 1_455
F3 Ga0 1.912725 1_566
F3 Rb7 2.763135 1_555
F3 Rb5 2.763151 1_455
F3 K2 2.782004 1_556
F3 K1 2.784922 1_555
F4 Ga0 1.896760 1_655
F4 K0 2.519532 1_555
F4 Rb4 3.279907 1_554
F4 Rb3 3.279908 1_555
F4 Rb2 3.279908 1_545
F4 Rb5 3.279908 1_544
F5 Ga0 1.896760 1_555
F5 K0 2.519532 1_555
F5 Rb8 3.279907 1_545
F5 Rb7 3.279908 1_544
F5 Rb6 3.279908 1_554
F5 Rb9 3.279908 1_555
F6 Ga1 1.891812 1_555
F6 K0 2.460529 1_566
F6 Rb7 2.979873 1_555
F6 Rb5 2.979879 1_555
F6 Rb6 3.098250 1_565
F6 Rb4 3.098262 1_565
F7 Ga2 1.891812 1_555
F7 K0 2.460529 1_565
F7 Rb8 2.979879 1_555
F7 Rb2 2.979879 1_555
F7 Rb7 3.098250 1_554
F7 Rb5 3.098256 1_554
F8 Ga3 1.891812 1_555
F8 K0 2.460529 1_555
F8 Rb3 2.979873 1_555
F8 Rb9 2.979879 1_555
F8 Rb2 3.098250 1_545
F8 Rb8 3.098262 1_545
F9 Ga4 1.891812 1_555
F9 K0 2.460529 1_556
F9 Rb4 2.979879 1_555
F9 Rb6 2.979879 1_555
F9 Rb3 3.098250 1_556
F9 Rb9 3.098256 1_556
F10 Ga1 1.914091 1_555
F10 K4 2.839494 1_555
F10 Rb7 2.866920 1_555
F10 Rb5 2.866920 1_555
F10 Rb1 3.080630 1_655
F10 Rb0 3.080630 1_555
F11 Ga2 1.914091 1_555
F11 K1 2.839494 1_555
F11 Rb2 2.866920 1_555
F11 Rb8 2.866926 1_555
F11 Rb0 3.080630 1_555
F11 Rb1 3.080630 1_555
F12 Ga3 1.914091 1_555
F12 K2 2.839494 1_555
F12 Rb3 2.866920 1_555
F12 Rb9 2.866920 1_555
F12 Rb0 3.080630 1_455
F12 Rb1 3.080630 1_555
F13 Ga4 1.914091 1_555
F13 K3 2.839494 1_555
F13 Rb6 2.866920 1_555
F13 Rb4 2.866926 1_555
F13 Rb1 3.080630 1_555
F13 Rb0 3.080630 1_555
F14 Ga1 1.870438 1_555
F14 K2 2.483322 1_655
F14 Rb1 3.030904 1_655
F14 Rb0 3.030917 1_555
F14 Rb8 3.225045 1_655
F14 Rb2 3.225065 1_555
F15 Ga2 1.870438 1_555
F15 K3 2.483322 1_555
F15 Rb1 3.030904 1_555
F15 Rb0 3.030917 1_555
F15 Rb3 3.225051 1_555
F15 Rb9 3.225064 1_655
F16 Ga3 1.870438 1_555
F16 K4 2.483322 1_455
F16 Rb0 3.030904 1_455
F16 Rb1 3.030917 1_555
F16 Rb4 3.225045 1_455
F16 Rb6 3.225065 1_555
F17 Ga4 1.870438 1_555
F17 K1 2.483322 1_555
F17 Rb0 3.030904 1_555
F17 Rb1 3.030917 1_555
F17 Rb7 3.225051 1_555
F17 Rb5 3.225064 1_455
F18 Ga1 1.914161 1_555
F18 K3 2.538880 1_565
F18 Rb6 2.884956 1_565
F18 Rb4 2.884968 1_565
F18 Rb8 3.152163 1_655
F18 Rb2 3.152163 1_555
F19 Ga2 1.914161 1_555
F19 K4 2.538880 1_554
F19 Rb7 2.884956 1_554
F19 Rb5 2.884962 1_554
F19 Rb3 3.152163 1_555
F19 Rb9 3.152170 1_655
F20 Ga3 1.914161 1_555
F20 K1 2.538880 1_545
F20 Rb2 2.884956 1_545
F20 Rb8 2.884968 1_545
F20 Rb4 3.152163 1_455
F20 Rb6 3.152163 1_555
F21 Ga4 1.914161 1_555
F21 K2 2.538880 1_556
F21 Rb3 2.884956 1_556
F21 Rb9 2.884962 1_556
F21 Rb7 3.152163 1_555
F21 Rb5 3.152170 1_455
F22 Ga1 1.916789 1_555
F22 K1 2.554405 1_555
F22 Rb2 2.953599 1_555
F22 Rb7 3.013254 1_555
F22 Rb0 3.028584 1_555
F22 Rb6 3.089710 1_565
F23 Ga2 1.916798 1_555
F23 K2 2.554388 1_555
F23 Rb3 2.953597 1_555
F23 Rb8 3.013254 1_555
F23 Rb1 3.028583 1_555
F23 Rb7 3.089710 1_554
F24 Ga3 1.916780 1_655
F24 K3 2.554396 1_555
F24 Rb4 2.953597 1_555
F24 Rb9 3.013254 1_655
F24 Rb0 3.028584 1_555
F24 Rb8 3.089710 1_645
F25 Ga4 1.916771 1_555
F25 K4 2.554414 1_455
F25 Rb5 2.953600 1_455
F25 Rb6 3.013254 1_555
F25 Rb1 3.028585 1_555
F25 Rb9 3.089710 1_556
F26 Ga3 1.916789 1_555
F26 K3 2.554405 1_555
F26 Rb6 2.953599 1_555
F26 Rb3 3.013254 1_555
F26 Rb1 3.028584 1_555
F26 Rb2 3.089710 1_545
F27 Ga4 1.916798 1_555
F27 K4 2.554388 1_555
F27 Rb7 2.953597 1_555
F27 Rb4 3.013254 1_555
F27 Rb0 3.028583 1_555
F27 Rb3 3.089710 1_556
F28 Ga1 1.916780 1_455
F28 K1 2.554396 1_555
F28 Rb8 2.953597 1_555
F28 Rb5 3.013254 1_455
F28 Rb1 3.028584 1_555
F28 Rb4 3.089710 1_465
F29 Ga2 1.916771 1_555
F29 K2 2.554414 1_655
F29 Rb9 2.953600 1_655
F29 Rb2 3.013254 1_555
F29 Rb0 3.028585 1_555
F29 Rb5 3.089710 1_554
