# generated using pymatgen
data_Li8(CoO2)5
_symmetry_space_group_name_H-M   'P 1'
_cell_length_a   5.36166446
_cell_length_b   6.63486572
_cell_length_c   8.05377985
_cell_angle_alpha   90.04782309
_cell_angle_beta   102.66704649
_cell_angle_gamma   113.76429229
_symmetry_Int_Tables_number   1
_chemical_formula_structural   Li8(CoO2)5
_chemical_formula_sum   'Li8 Co5 O10'
_cell_volume   254.55038290
_cell_formula_units_Z   1
loop_
 _symmetry_equiv_pos_site_id
 _symmetry_equiv_pos_as_xyz
  1  'x, y, z'
loop_
 _atom_site_type_symbol
 _atom_site_label
 _atom_site_symmetry_multiplicity
 _atom_site_fract_x
 _atom_site_fract_y
 _atom_site_fract_z
 _atom_site_occupancy
  Li  Li0  1  0.90542900  0.34381600  0.06745700  1
  Li  Li1  1  0.71081600  0.16264100  0.44077200  1
  Li  Li2  1  0.50259200  0.05795800  0.13787300  1
  Li  Li3  1  0.69058100  0.23975100  0.75844700  1
  Li  Li4  1  0.25708400  0.70525800  0.26792500  1
  Li  Li5  1  0.31886800  0.87970800  0.54851600  1
  Li  Li6  1  0.08660100  0.52384300  0.64846900  1
  Li  Li7  1  0.12795800  0.68816800  0.93038300  1
  Co  Co0  1  0.89860000  0.89890200  0.19657300  1
  Co  Co1  1  0.49743800  0.50169000  0.00137100  1
  Co  Co2  1  0.70173000  0.70148300  0.60175200  1
  Co  Co3  1  0.28858600  0.29527400  0.40585800  1
  Co  Co4  1  0.11283000  0.10084600  0.79345400  1
  O  O0  1  0.90602900  0.18457800  0.26301500  1
  O  O1  1  0.88245700  0.62718900  0.08762000  1
  O  O2  1  0.67678700  0.41612600  0.56377800  1
  O  O3  1  0.30213300  0.01342400  0.32765100  1
  O  O4  1  0.48126400  0.74819800  0.09718000  1
  O  O5  1  0.50009700  0.23193300  0.93958600  1
  O  O6  1  0.72656400  0.98764600  0.64323800  1
  O  O7  1  0.32660700  0.59324100  0.48974000  1
  O  O8  1  0.11903100  0.38992300  0.87713700  1
  O  O9  1  0.07991600  0.80840400  0.71220600  1
loop_
_geom_bond_atom_site_label_1
_geom_bond_atom_site_label_2
_geom_bond_distance
_geom_bond_site_symmetry_2
Li0 O0 1.897396 1_555
Li0 O1 1.942002 1_555
Li0 O5 2.012860 1_554
Li0 O8 2.059849 1_654
Li1 O0 1.923786 1_555
Li1 O3 1.996544 1_555
Li1 O6 2.008957 1_545
Li1 O2 2.041344 1_555
Li2 O5 1.972061 1_554
Li2 O0 1.994595 1_555
Li2 O3 2.010933 1_555
Li2 O4 2.034065 1_545
Li3 O5 1.945481 1_555
Li3 O2 1.963395 1_555
Li3 O6 2.007993 1_545
Li3 O8 2.091482 1_655
Li4 O7 1.953502 1_555
Li4 O4 1.966343 1_555
Li4 O3 2.004907 1_565
Li4 O1 2.071852 1_455
Li5 O9 1.963799 1_555
Li5 O6 1.969565 1_555
Li5 O7 1.977125 1_555
Li5 O3 1.988987 1_565
Li6 O7 1.935739 1_555
Li6 O2 1.969854 1_455
Li6 O9 1.972413 1_555
Li6 O8 2.048949 1_555
Li7 O9 1.939015 1_555
Li7 O1 1.950041 1_456
Li7 O4 1.956173 1_556
Li7 O8 2.003783 1_555
Co0 O0 1.951580 1_565
Co0 O1 1.966157 1_555
Co0 O3 2.011210 1_665
Co0 O4 2.014295 1_555
Co1 O4 1.849187 1_555
Co1 O1 1.849904 1_555
Co1 O5 1.863704 1_554
Co1 O8 1.887667 1_554
Co2 O7 1.847666 1_555
Co2 O9 1.858686 1_655
Co2 O2 1.863612 1_555
Co2 O6 1.873480 1_555
Co3 O0 1.954392 1_455
Co3 O7 2.004725 1_555
Co3 O3 2.006641 1_555
Co3 O2 2.021139 1_555
Co4 O9 1.973678 1_545
Co4 O5 1.980922 1_555
Co4 O6 1.990698 1_445
Co4 O8 2.017580 1_555
