# generated using pymatgen
data_Th3(OsRu2)2
_symmetry_space_group_name_H-M   'P 1'
_cell_length_a   5.35250900
_cell_length_b   5.43447957
_cell_length_c   13.34286560
_cell_angle_alpha   89.10500710
_cell_angle_beta   89.25317239
_cell_angle_gamma   61.97852388
_symmetry_Int_Tables_number   1
_chemical_formula_structural   Th3(OsRu2)2
_chemical_formula_sum   'Th6 Os4 Ru8'
_cell_volume   342.57114650
_cell_formula_units_Z   2
loop_
 _symmetry_equiv_pos_site_id
 _symmetry_equiv_pos_as_xyz
  1  'x, y, z'
loop_
 _atom_site_type_symbol
 _atom_site_label
 _atom_site_symmetry_multiplicity
 _atom_site_fract_x
 _atom_site_fract_y
 _atom_site_fract_z
 _atom_site_occupancy
  Th  Th0  1  0.33429900  0.33439000  0.79093100  1
  Th  Th1  1  0.99951000  0.00144100  0.12571500  1
  Th  Th2  1  0.66706500  0.66813900  0.45879000  1
  Th  Th3  1  0.33293500  0.33186100  0.54121000  1
  Th  Th4  1  0.00049000  0.99855900  0.87428500  1
  Th  Th5  1  0.66570100  0.66561000  0.20906900  1
  Os  Os0  1  0.50000000  0.50000000  0.00000000  1
  Os  Os1  1  0.16632200  0.16665500  0.33372200  1
  Os  Os2  1  0.83367800  0.83334500  0.66627800  1
  Os  Os3  1  0.00000000  0.50000000  0.00000000  1
  Ru  Ru0  1  0.66638200  0.16704200  0.33344800  1
  Ru  Ru1  1  0.33361800  0.83295800  0.66655200  1
  Ru  Ru2  1  0.33179500  0.33386100  0.16706300  1
  Ru  Ru3  1  0.00000000  0.00000000  0.50000000  1
  Ru  Ru4  1  0.66820500  0.66613900  0.83293700  1
  Ru  Ru5  1  0.50000000  0.00000000  0.00000000  1
  Ru  Ru6  1  0.16662800  0.66670800  0.33339800  1
  Ru  Ru7  1  0.83337200  0.33329200  0.66660200  1
loop_
_geom_bond_atom_site_label_1
_geom_bond_atom_site_label_2
_geom_bond_distance
_geom_bond_site_symmetry_2
Os0 Os3 2.676254 1_655
Os0 Os3 2.676254 1_555
Os0 Ru2 2.691327 1_555
Os0 Ru4 2.691327 1_554
Os0 Ru5 2.717240 1_555
Os0 Ru5 2.717240 1_565
Os0 Th5 3.204891 1_555
Os0 Th0 3.204891 1_554
Os0 Th4 3.235945 1_554
Os0 Th1 3.235945 1_555
Os0 Th1 3.253072 1_465
Os0 Th4 3.253072 1_644
Os1 Ru0 2.674996 1_455
Os1 Ru0 2.677519 1_555
Os1 Ru3 2.679255 1_555
Os1 Ru2 2.682680 1_555
Os1 Ru6 2.716254 1_545
Os1 Ru6 2.718234 1_555
Os1 Th3 3.187505 1_555
Os1 Th1 3.194046 1_455
Os1 Th5 3.232229 1_455
Os1 Th2 3.234306 1_545
Os1 Th5 3.242245 1_545
Os1 Th2 3.245925 1_455
Os2 Ru1 2.674996 1_655
Os2 Ru1 2.677519 1_555
Os2 Ru3 2.679255 1_665
Os2 Ru4 2.682680 1_555
Os2 Ru7 2.716254 1_565
Os2 Ru7 2.718234 1_555
Os2 Th2 3.187505 1_555
Os2 Th4 3.194046 1_655
Os2 Th0 3.232229 1_655
Os2 Th3 3.234306 1_565
Os2 Th0 3.242245 1_565
Os2 Th3 3.245925 1_655
Os3 Ru2 2.733447 1_555
Os3 Ru4 2.733447 1_454
Os3 Ru5 2.777211 1_555
Os3 Ru5 2.777211 1_465
Os3 Th4 3.165304 1_554
Os3 Th1 3.165304 1_455
Os3 Th5 3.198227 1_455
Os3 Th0 3.198227 1_554
Os3 Th4 3.221126 1_544
Os3 Th1 3.221126 1_465
Ru0 Ru3 2.732876 1_655
Ru0 Ru2 2.733683 1_555
Ru0 Ru6 2.775591 1_555
Ru0 Ru6 2.778830 1_645
Ru0 Th5 3.153690 1_555
Ru0 Th2 3.161839 1_545
Ru0 Th1 3.180126 1_555
Ru0 Th3 3.181036 1_555
Ru0 Th5 3.214142 1_545
Ru0 Th2 3.219414 1_555
Ru1 Ru3 2.732876 1_565
Ru1 Ru4 2.733683 1_555
Ru1 Ru7 2.775591 1_555
Ru1 Ru7 2.778830 1_465
Ru1 Th0 3.153690 1_555
Ru1 Th3 3.161839 1_565
Ru1 Th4 3.180126 1_555
Ru1 Th2 3.181036 1_555
Ru1 Th0 3.214142 1_565
Ru1 Th3 3.219414 1_555
Ru2 Ru6 2.747888 1_555
Ru2 Ru5 2.758721 1_555
Ru2 Th1 3.131593 1_455
Ru2 Th5 3.137513 1_555
Ru2 Th5 3.196187 1_455
Ru2 Th1 3.202229 1_555
Ru2 Th1 3.244980 1_465
Ru2 Th5 3.249745 1_545
Ru3 Ru7 2.752067 1_455
Ru3 Ru6 2.752067 1_545
Ru3 Th3 3.131597 1_555
Ru3 Th2 3.131597 1_445
Ru3 Th3 3.198841 1_455
Ru3 Th2 3.198841 1_545
Ru3 Th2 3.247381 1_455
Ru3 Th3 3.247381 1_545
Ru4 Ru7 2.747888 1_555
Ru4 Ru5 2.758721 1_566
Ru4 Th4 3.131593 1_655
Ru4 Th0 3.137513 1_555
Ru4 Th0 3.196187 1_655
Ru4 Th4 3.202229 1_555
Ru4 Th4 3.244980 1_645
Ru4 Th0 3.249745 1_565
Ru5 Th1 3.139055 1_455
Ru5 Th4 3.139055 1_644
Ru5 Th4 3.177897 1_544
Ru5 Th1 3.177897 1_555
Ru5 Th5 3.203507 1_545
Ru5 Th0 3.203507 1_554
Ru6 Th5 3.123719 1_555
Ru6 Th2 3.132628 1_455
Ru6 Th5 3.173675 1_455
Ru6 Th2 3.179773 1_555
Ru6 Th1 3.188480 1_465
Ru6 Th3 3.190130 1_555
Ru7 Th0 3.123719 1_555
Ru7 Th3 3.132628 1_655
Ru7 Th0 3.173675 1_655
Ru7 Th3 3.179773 1_555
Ru7 Th4 3.188480 1_645
Ru7 Th2 3.190130 1_555
