# generated using pymatgen
data_GdYH4
_symmetry_space_group_name_H-M   'P 1'
_cell_length_a   3.70636355
_cell_length_b   3.70636355
_cell_length_c   5.24794094
_cell_angle_alpha   90.00000000
_cell_angle_beta   90.00000000
_cell_angle_gamma   90.00000000
_symmetry_Int_Tables_number   1
_chemical_formula_structural   GdYH4
_chemical_formula_sum   'Gd1 Y1 H4'
_cell_volume   72.09165094
_cell_formula_units_Z   1
loop_
 _symmetry_equiv_pos_site_id
 _symmetry_equiv_pos_as_xyz
  1  'x, y, z'
loop_
 _atom_site_type_symbol
 _atom_site_label
 _atom_site_symmetry_multiplicity
 _atom_site_fract_x
 _atom_site_fract_y
 _atom_site_fract_z
 _atom_site_occupancy
  Gd  Gd0  1  -0.00000000  0.00000000  0.00000000  1
  Y  Y0  1  0.50000000  0.50000000  0.50000000  1
  H  H0  1  0.50000000  0.00000000  0.74581247  1
  H  H1  1  0.00000000  0.50000000  0.25418753  1
  H  H2  1  0.50000000  0.00000000  0.25418753  1
  H  H3  1  -0.00000000  0.50000000  0.74581247  1
loop_
_geom_bond_atom_site_label_1
_geom_bond_atom_site_label_2
_geom_bond_distance
_geom_bond_site_symmetry_2
Gd0 H1 2.283360 1_545
Gd0 H2 2.283360 1_455
Gd0 H1 2.283360 1_555
Gd0 H2 2.283360 1_555
Gd0 H0 2.283360 1_554
Gd0 H3 2.283360 1_544
Gd0 H0 2.283360 1_454
Gd0 H3 2.283360 1_554
H0 Y0 2.257965 1_545
H0 Y0 2.257965 1_555
H1 Y0 2.257965 1_455
H1 Y0 2.257965 1_555
H2 Y0 2.257965 1_545
H2 Y0 2.257965 1_555
H3 Y0 2.257965 1_455
H3 Y0 2.257965 1_555
