# generated using pymatgen
data_Si4Te2H44Pt(C8Cl)2
_symmetry_space_group_name_H-M   'P 1'
_cell_length_a   13.09028654
_cell_length_b   13.09028654
_cell_length_c   20.96328933
_cell_angle_alpha   84.88132319
_cell_angle_beta   84.88132319
_cell_angle_gamma   30.49589007
_symmetry_Int_Tables_number   1
_chemical_formula_structural   Si4Te2H44Pt(C8Cl)2
_chemical_formula_sum   'Si8 Te4 H88 Pt2 C32 Cl4'
_cell_volume   1815.13443485
_cell_formula_units_Z   2
loop_
 _symmetry_equiv_pos_site_id
 _symmetry_equiv_pos_as_xyz
  1  'x, y, z'
loop_
 _atom_site_type_symbol
 _atom_site_label
 _atom_site_symmetry_multiplicity
 _atom_site_fract_x
 _atom_site_fract_y
 _atom_site_fract_z
 _atom_site_occupancy
  Si  Si0  1  0.39222700  0.93307300  0.35842900  1
  Si  Si1  1  0.06692700  0.60777300  0.14157100  1
  Si  Si2  1  0.60777300  0.06692700  0.64157100  1
  Si  Si3  1  0.93307300  0.39222700  0.85842900  1
  Si  Si4  1  0.39512500  0.75587300  0.61289200  1
  Si  Si5  1  0.24412700  0.60487500  0.88710800  1
  Si  Si6  1  0.60487500  0.24412700  0.38710800  1
  Si  Si7  1  0.75587300  0.39512500  0.11289200  1
  Te  Te0  1  0.69884200  0.62674600  0.49406300  1
  Te  Te1  1  0.37325400  0.30115800  0.00593700  1
  Te  Te2  1  0.30115800  0.37325400  0.50593700  1
  Te  Te3  1  0.62674600  0.69884200  0.99406300  1
  H  H0  1  0.32103400  0.01647300  0.47443900  1
  H  H1  1  0.98352700  0.67896600  0.02556100  1
  H  H2  1  0.67896600  0.98352700  0.52556100  1
  H  H3  1  0.01647300  0.32103400  0.97443900  1
  H  H4  1  0.49160400  0.96442200  0.43987100  1
  H  H5  1  0.03557800  0.50839600  0.06012900  1
  H  H6  1  0.50839600  0.03557800  0.56012900  1
  H  H7  1  0.96442200  0.49160400  0.93987100  1
  H  H8  1  0.68022400  0.63251700  0.62080400  1
  H  H9  1  0.36748300  0.31977600  0.87919600  1
  H  H10  1  0.31977600  0.36748300  0.37919600  1
  H  H11  1  0.63251700  0.68022400  0.12080400  1
  H  H12  1  0.46016300  0.88797600  0.59216900  1
  H  H13  1  0.11202400  0.53983700  0.90783100  1
  H  H14  1  0.53983700  0.11202400  0.40783100  1
  H  H15  1  0.88797600  0.46016300  0.09216900  1
  H  H16  1  0.58039700  0.70259200  0.26822200  1
  H  H17  1  0.29740800  0.41960300  0.23177800  1
  H  H18  1  0.41960300  0.29740800  0.73177800  1
  H  H19  1  0.70259200  0.58039700  0.76822200  1
  H  H20  1  0.66728100  0.57046600  0.34274200  1
  H  H21  1  0.42953400  0.33271900  0.15725800  1
  H  H22  1  0.33271900  0.42953400  0.65725800  1
  H  H23  1  0.57046600  0.66728100  0.84274200  1
  H  H24  1  0.74260700  0.63310600  0.31486700  1
  H  H25  1  0.36689400  0.25739300  0.18513300  1
  H  H26  1  0.25739300  0.36689400  0.68513300  1
  H  H27  1  0.63310600  0.74260700  0.81486700  1
  H  H28  1  0.43361300  0.07284900  0.30457500  1
  H  H29  1  0.92715100  0.56638700  0.19542500  1
  H  H30  1  0.56638700  0.92715100  0.69542500  1
  H  H31  1  0.07284900  0.43361300  0.80457500  1
  H  H32  1  0.18190200  0.27135800  0.33441200  1
  H  H33  1  0.72864200  0.81809800  0.16558800  1
  H  H34  1  0.81809800  0.72864200  0.66558800  1
  H  H35  1  0.27135800  0.18190200  0.83441200  1
  H  H36  1  0.26276900  0.14626900  0.26335600  1
  H  H37  1  0.85373100  0.73723100  0.23664400  1
  H  H38  1  0.73723100  0.85373100  0.73664400  1
  H  H39  1  0.14626900  0.26276900  0.76335600  1
  H  H40  1  0.13452000  0.04568600  0.31430200  1
  H  H41  1  0.95431400  0.86548000  0.18569800  1
  H  H42  1  0.86548000  0.95431400  0.68569800  1
  H  H43  1  0.04568600  0.13452000  0.81430200  1
  H  H44  1  0.05116800  0.15627000  0.38970200  1
  H  H45  1  0.84373000  0.94883200  0.11029800  1
  H  H46  1  0.94883200  0.84373000  0.61029800  1
  H  H47  1  0.15627000  0.05116800  0.88970200  1
  H  H48  1  0.23072600  0.90075600  0.38592900  1
  H  H49  1  0.09924400  0.76927400  0.11407100  1
  H  H50  1  0.76927400  0.09924400  0.61407100  1
  H  H51  1  0.90075600  0.23072600  0.88592900  1
  H  H52  1  0.65688900  0.43112200  0.67461900  1
  H  H53  1  0.56887800  0.34311100  0.82538100  1
  H  H54  1  0.34311100  0.56887800  0.32538100  1
  H  H55  1  0.43112200  0.65688900  0.17461900  1
  H  H56  1  0.66819800  0.39545000  0.59266600  1
  H  H57  1  0.60455000  0.33180200  0.90733400  1
  H  H58  1  0.33180200  0.60455000  0.40733400  1
  H  H59  1  0.39545000  0.66819800  0.09266600  1
  H  H60  1  0.47654900  0.50338800  0.64486400  1
  H  H61  1  0.49661200  0.52345100  0.85513600  1
  H  H62  1  0.52345100  0.49661200  0.35513600  1
  H  H63  1  0.50338800  0.47654900  0.14486400  1
  H  H64  1  0.12911700  0.88693500  0.56356600  1
  H  H65  1  0.11306500  0.87088300  0.93643400  1
  H  H66  1  0.87088300  0.11306500  0.43643400  1
  H  H67  1  0.88693500  0.12911700  0.06356600  1
  H  H68  1  0.30277100  0.79079200  0.50402300  1
  H  H69  1  0.20920800  0.69722900  0.99597700  1
  H  H70  1  0.69722900  0.20920800  0.49597700  1
  H  H71  1  0.79079100  0.30277100  0.00402300  1
  H  H72  1  0.11654600  0.03059200  0.53736800  1
  H  H73  1  0.96940800  0.88345400  0.96263200  1
  H  H74  1  0.88345400  0.96940800  0.46263200  1
  H  H75  1  0.03059200  0.11654600  0.03736800  1
  H  H76  1  0.14504200  0.92931200  0.70038100  1
  H  H77  1  0.07068800  0.85495800  0.79961900  1
  H  H78  1  0.85495800  0.07068800  0.29961900  1
  H  H79  1  0.92931200  0.14504200  0.20038100  1
  H  H80  1  0.14088800  0.06673100  0.67575700  1
  H  H81  1  0.93326900  0.85911200  0.82424300  1
  H  H82  1  0.85911200  0.93326900  0.32424300  1
  H  H83  1  0.06673100  0.14088800  0.17575700  1
  H  H84  1  0.33377900  0.84904900  0.72662800  1
  H  H85  1  0.15095100  0.66622100  0.77337200  1
  H  H86  1  0.66622100  0.15095100  0.27337200  1
  H  H87  1  0.84904900  0.33377900  0.22662800  1
  Pt  Pt0  1  0.00000000  0.50000000  0.50000000  1
  Pt  Pt1  1  0.50000000  0.00000000  0.00000000  1
  C  C0  1  0.45367200  0.91538700  0.44223200  1
  C  C1  1  0.08461300  0.54632800  0.05776800  1
  C  C2  1  0.54632800  0.08461300  0.55776800  1
  C  C3  1  0.91538700  0.45367200  0.94223200  1
  C  C4  1  0.55185600  0.74000200  0.58859900  1
  C  C5  1  0.25999800  0.44814400  0.91140100  1
  C  C6  1  0.44814400  0.25999800  0.41140100  1
  C  C7  1  0.74000200  0.55185600  0.08859900  1
  C  C8  1  0.61738600  0.68587500  0.31741000  1
  C  C9  1  0.31412500  0.38261400  0.18259000  1
  C  C10  1  0.38261400  0.31412500  0.68259000  1
  C  C11  1  0.68587500  0.61738600  0.81741000  1
  C  C12  1  0.30891900  0.12514600  0.31123200  1
  C  C13  1  0.87485400  0.69108100  0.18876800  1
  C  C14  1  0.69108100  0.87485400  0.68876800  1
  C  C15  1  0.12514600  0.30891900  0.81123200  1
  C  C16  1  0.18272100  0.01642300  0.36296500  1
  C  C17  1  0.98357700  0.81727900  0.13703500  1
  C  C18  1  0.81727900  0.98357700  0.63703500  1
  C  C19  1  0.01642300  0.18272100  0.86296500  1
  C  C20  1  0.56570900  0.49695800  0.63297100  1
  C  C21  1  0.50304200  0.43429100  0.86702900  1
  C  C22  1  0.43429100  0.50304200  0.36702900  1
  C  C23  1  0.49695800  0.56570900  0.13297100  1
  C  C24  1  0.22035400  0.87661300  0.54827900  1
  C  C25  1  0.12338700  0.77964600  0.95172100  1
  C  C26  1  0.77964600  0.12338700  0.45172100  1
  C  C27  1  0.87661300  0.22035400  0.04827900  1
  C  C28  1  0.24024700  0.91503100  0.68606900  1
  C  C29  1  0.08496900  0.75975300  0.81393100  1
  C  C30  1  0.75975300  0.08496900  0.31393100  1
  C  C31  1  0.91503100  0.24024700  0.18606900  1
  Cl  Cl0  1  0.90212300  0.67765300  0.40572900  1
  Cl  Cl1  1  0.32234700  0.09787700  0.09427100  1
  Cl  Cl2  1  0.09787700  0.32234700  0.59427100  1
  Cl  Cl3  1  0.67765300  0.90212300  0.90572900  1
loop_
_geom_bond_atom_site_label_1
_geom_bond_atom_site_label_2
_geom_bond_distance
_geom_bond_site_symmetry_2
Pt0 Te2 2.662400 1_555
Pt0 Te0 2.662400 1_455
Pt1 Te1 2.662400 1_555
Pt1 Te3 2.662400 1_544
C0 H4 1.095547 1_555
C0 H0 1.101057 1_565
C0 Si0 1.909320 1_555
C0 Te0 2.179222 1_555
C1 H5 1.095547 1_555
C1 H1 1.101057 1_455
C1 Si1 1.909320 1_555
C1 Te1 2.179222 1_555
C2 H6 1.095547 1_555
C2 H2 1.101057 1_545
C2 Si2 1.909320 1_555
C2 Te2 2.179222 1_555
C3 H7 1.095547 1_555
C3 H3 1.101057 1_655
C3 Si3 1.909320 1_555
C3 Te3 2.179222 1_555
C4 H12 1.096115 1_555
C4 H8 1.103440 1_555
C4 Si4 1.899915 1_555
C4 Te0 2.180712 1_555
C5 H13 1.096115 1_555
C5 H9 1.103440 1_555
C5 Si5 1.899915 1_555
C5 Te1 2.180712 1_556
C6 H14 1.096115 1_555
C6 H10 1.103440 1_555
C6 Si6 1.899915 1_555
C6 Te2 2.180712 1_555
C7 H15 1.096115 1_555
C7 H11 1.103440 1_555
C7 Si7 1.899915 1_555
C7 Te3 2.180712 1_554
C8 H24 1.098446 1_555
C8 H20 1.099641 1_555
C8 H16 1.100825 1_555
C8 Si0 1.872333 1_555
C9 H25 1.098446 1_555
C9 H21 1.099641 1_555
C9 H17 1.100825 1_555
C9 Si1 1.872333 1_555
C10 H26 1.098446 1_555
C10 H22 1.099641 1_555
C10 H18 1.100825 1_555
C10 Si2 1.872333 1_555
C11 H27 1.098446 1_555
C11 H23 1.099641 1_555
C11 H19 1.100825 1_555
C11 Si3 1.872333 1_555
C12 H32 1.096128 1_555
C12 H28 1.096889 1_555
C12 H36 1.104312 1_555
C12 Si0 1.874370 1_545
C13 H33 1.096128 1_555
C13 H29 1.096889 1_555
C13 H37 1.104312 1_555
C13 Si1 1.874370 1_655
C14 H34 1.096128 1_555
C14 H30 1.096889 1_555
C14 H38 1.104312 1_555
C14 Si2 1.874370 1_565
C15 H35 1.096128 1_555
C15 H31 1.096889 1_555
C15 H39 1.104312 1_555
C15 Si3 1.874370 1_455
C16 H48 1.096994 1_545
C16 H44 1.099543 1_555
C16 H40 1.101876 1_555
C16 Si0 1.880444 1_545
C17 H49 1.096994 1_655
C17 H45 1.099543 1_555
C17 H41 1.101876 1_555
C17 Si1 1.880444 1_655
C18 H50 1.096994 1_565
C18 H46 1.099543 1_555
C18 H42 1.101876 1_555
C18 Si2 1.880444 1_565
C19 H51 1.096994 1_455
C19 H47 1.099543 1_555
C19 H43 1.101876 1_555
C19 Si3 1.880444 1_455
C20 H56 1.097881 1_555
C20 H52 1.099367 1_555
C20 H60 1.101799 1_555
C20 Si4 1.876486 1_555
C21 H57 1.097881 1_555
C21 H53 1.099367 1_555
C21 H61 1.101799 1_555
C21 Si5 1.876486 1_555
C22 H58 1.097881 1_555
C22 H54 1.099367 1_555
C22 H62 1.101799 1_555
C22 Si6 1.876486 1_555
C23 H59 1.097881 1_555
C23 H55 1.099367 1_555
C23 H63 1.101799 1_555
C23 Si7 1.876486 1_555
C24 H68 1.097913 1_555
C24 H64 1.099401 1_555
C24 H72 1.102103 1_565
C24 Si4 1.872506 1_555
C25 H69 1.097913 1_555
C25 H65 1.099401 1_555
C25 H73 1.102103 1_455
C25 Si5 1.872506 1_555
C26 H70 1.097913 1_555
C26 H66 1.099401 1_555
C26 H74 1.102103 1_545
C26 Si6 1.872506 1_555
C27 H71 1.097916 1_555
C27 H67 1.099401 1_555
C27 H75 1.102103 1_655
C27 Si7 1.872506 1_555
C28 H84 1.095572 1_555
C28 H80 1.097418 1_565
C28 H76 1.104499 1_555
C28 Si4 1.881583 1_555
C29 H85 1.095572 1_555
C29 H81 1.097418 1_455
C29 H77 1.104499 1_555
C29 Si5 1.881583 1_555
C30 H86 1.095572 1_555
C30 H82 1.097418 1_545
C30 H78 1.104499 1_555
C30 Si6 1.881583 1_555
C31 H87 1.095572 1_555
C31 H83 1.097418 1_655
C31 H79 1.104499 1_555
C31 Si7 1.881583 1_555
Cl0 Pt0 2.334979 1_655
Cl1 Pt1 2.334979 1_555
Cl2 Pt0 2.334979 1_555
Cl3 Pt1 2.334979 1_566
