# generated using pymatgen
data_NiTe2
_symmetry_space_group_name_H-M   'P 1'
_cell_length_a   6.38433589
_cell_length_b   6.38433589
_cell_length_c   6.38433589
_cell_angle_alpha   90.00000000
_cell_angle_beta   90.00000000
_cell_angle_gamma   90.00000000
_symmetry_Int_Tables_number   1
_chemical_formula_structural   NiTe2
_chemical_formula_sum   'Ni4 Te8'
_cell_volume   260.22390132
_cell_formula_units_Z   4
loop_
 _symmetry_equiv_pos_site_id
 _symmetry_equiv_pos_as_xyz
  1  'x, y, z'
loop_
 _atom_site_type_symbol
 _atom_site_label
 _atom_site_symmetry_multiplicity
 _atom_site_fract_x
 _atom_site_fract_y
 _atom_site_fract_z
 _atom_site_occupancy
  Ni  Ni0  1  0.50000000  0.50000000  -0.00000000  1
  Ni  Ni1  1  0.50000000  0.00000000  0.50000000  1
  Ni  Ni2  1  0.00000000  0.50000000  0.50000000  1
  Ni  Ni3  1  0.00000000  0.00000000  -0.00000000  1
  Te  Te0  1  0.13478842  0.86521158  0.36521158  1
  Te  Te1  1  0.86521158  0.36521158  0.13478842  1
  Te  Te2  1  0.36521158  0.13478842  0.86521158  1
  Te  Te3  1  0.63478842  0.63478842  0.63478842  1
  Te  Te4  1  0.86521158  0.13478842  0.63478842  1
  Te  Te5  1  0.13478842  0.63478842  0.86521158  1
  Te  Te6  1  0.63478842  0.86521158  0.13478842  1
  Te  Te7  1  0.36521158  0.36521158  0.36521158  1
loop_
_geom_bond_atom_site_label_1
_geom_bond_atom_site_label_2
_geom_bond_distance
_geom_bond_site_symmetry_2
Ni0 Te6 2.630124 1_555
Ni0 Te2 2.630124 1_554
Ni0 Te1 2.630124 1_555
Ni0 Te5 2.630124 1_554
Ni0 Te7 2.630124 1_555
Ni0 Te3 2.630124 1_554
Ni1 Te2 2.630124 1_555
Ni1 Te6 2.630124 1_545
Ni1 Te3 2.630124 1_545
Ni1 Te0 2.630124 1_545
Ni1 Te7 2.630124 1_555
Ni1 Te4 2.630124 1_555
Ni2 Te5 2.630124 1_555
Ni2 Te1 2.630124 1_455
Ni2 Te3 2.630124 1_455
Ni2 Te0 2.630124 1_555
Ni2 Te4 2.630124 1_455
Ni2 Te7 2.630124 1_555
Ni3 Te5 2.630124 1_544
Ni3 Te1 2.630124 1_455
Ni3 Te6 2.630124 1_445
Ni3 Te4 2.630124 1_454
Ni3 Te2 2.630124 1_554
Ni3 Te0 2.630124 1_545
Te0 Te4 2.980979 1_465
Te1 Te5 2.980979 1_654
Te2 Te6 2.980979 1_546
Te3 Te7 2.980979 1_555
