# generated using pymatgen
data_Ni3Sn
_symmetry_space_group_name_H-M   'P 1'
_cell_length_a   4.22470335
_cell_length_b   4.49736830
_cell_length_c   5.27822197
_cell_angle_alpha   90.00000000
_cell_angle_beta   90.00000000
_cell_angle_gamma   90.00000000
_symmetry_Int_Tables_number   1
_chemical_formula_structural   Ni3Sn
_chemical_formula_sum   'Ni6 Sn2'
_cell_volume   100.28646510
_cell_formula_units_Z   2
loop_
 _symmetry_equiv_pos_site_id
 _symmetry_equiv_pos_as_xyz
  1  'x, y, z'
loop_
 _atom_site_type_symbol
 _atom_site_label
 _atom_site_symmetry_multiplicity
 _atom_site_fract_x
 _atom_site_fract_y
 _atom_site_fract_z
 _atom_site_occupancy
  Ni  Ni0  1  0.50000000  0.16895494  0.74814595  1
  Ni  Ni1  1  0.50000000  0.16895494  0.25185405  1
  Ni  Ni2  1  0.00000000  0.83104506  0.75185405  1
  Ni  Ni3  1  -0.00000000  0.83104506  0.24814595  1
  Ni  Ni4  1  -0.00000000  0.30429741  0.50000000  1
  Ni  Ni5  1  0.50000000  0.69570259  0.00000000  1
  Sn  Sn0  1  0.50000000  0.67030977  0.50000000  1
  Sn  Sn1  1  0.00000000  0.32969023  0.00000000  1
loop_
_geom_bond_atom_site_label_1
_geom_bond_atom_site_label_2
_geom_bond_distance
_geom_bond_site_symmetry_2
Ni0 Ni5 2.509421 1_546
Ni0 Ni4 2.558910 1_655
Ni0 Ni4 2.558910 1_555
Ni0 Sn0 2.597058 1_545
Ni0 Sn1 2.598412 1_556
Ni0 Sn1 2.598412 1_656
Ni0 Ni2 2.602291 1_645
Ni0 Ni2 2.602291 1_545
Ni0 Sn0 2.607588 1_555
Ni0 Ni1 2.619539 1_555
Ni0 Ni1 2.658683 1_556
Ni0 Ni5 2.716470 1_556
Ni1 Ni5 2.509421 1_545
Ni1 Ni4 2.558910 1_655
Ni1 Ni4 2.558910 1_555
Ni1 Sn0 2.597058 1_545
Ni1 Sn1 2.598412 1_555
Ni1 Sn1 2.598412 1_655
Ni1 Ni3 2.602291 1_645
Ni1 Ni3 2.602291 1_545
Ni1 Sn0 2.607588 1_555
Ni1 Ni5 2.716470 1_555
Ni2 Ni4 2.509421 1_565
Ni2 Ni5 2.558910 1_456
Ni2 Ni5 2.558910 1_556
Ni2 Sn1 2.597058 1_566
Ni2 Sn0 2.598412 1_455
Ni2 Sn0 2.598412 1_555
Ni2 Sn1 2.607588 1_556
Ni2 Ni3 2.619539 1_556
Ni2 Ni3 2.658683 1_555
Ni2 Ni4 2.716470 1_555
Ni3 Ni4 2.509421 1_565
Ni3 Ni5 2.558910 1_555
Ni3 Ni5 2.558910 1_455
Ni3 Sn1 2.597058 1_565
Ni3 Sn0 2.598412 1_455
Ni3 Sn0 2.598412 1_555
Ni3 Sn1 2.607588 1_555
Ni3 Ni4 2.716470 1_555
Ni4 Sn1 2.641581 1_555
Ni4 Sn1 2.641581 1_556
Ni4 Sn0 2.677994 1_455
Ni4 Sn0 2.677994 1_555
Ni5 Sn0 2.641581 1_554
Ni5 Sn0 2.641581 1_555
Ni5 Sn1 2.677994 1_655
Ni5 Sn1 2.677994 1_555
