# generated using pymatgen
data_Ba2SnWO6
_symmetry_space_group_name_H-M   'P 1'
_cell_length_a   8.71533474
_cell_length_b   8.71533474
_cell_length_c   8.71533474
_cell_angle_alpha   90.00000000
_cell_angle_beta   90.00000000
_cell_angle_gamma   90.00000000
_symmetry_Int_Tables_number   1
_chemical_formula_structural   Ba2SnWO6
_chemical_formula_sum   'Ba8 Sn4 W4 O24'
_cell_volume   661.99120054
_cell_formula_units_Z   4
loop_
 _symmetry_equiv_pos_site_id
 _symmetry_equiv_pos_as_xyz
  1  'x, y, z'
loop_
 _atom_site_type_symbol
 _atom_site_label
 _atom_site_symmetry_multiplicity
 _atom_site_fract_x
 _atom_site_fract_y
 _atom_site_fract_z
 _atom_site_occupancy
  Ba  Ba0  1  0.50000000  0.50000000  0.50000000  1
  Ba  Ba1  1  -0.00000000  -0.00000000  -0.00000000  1
  Ba  Ba2  1  -0.00000000  -0.00000000  0.50000000  1
  Ba  Ba3  1  -0.00000000  0.50000000  -0.00000000  1
  Ba  Ba4  1  0.50000000  0.00000000  -0.00000000  1
  Ba  Ba5  1  0.50000000  0.50000000  -0.00000000  1
  Ba  Ba6  1  0.50000000  -0.00000000  0.50000000  1
  Ba  Ba7  1  -0.00000000  0.50000000  0.50000000  1
  Sn  Sn0  1  0.75000000  0.75000000  0.75000000  1
  Sn  Sn1  1  0.75000000  0.25000000  0.25000000  1
  Sn  Sn2  1  0.25000000  0.75000000  0.25000000  1
  Sn  Sn3  1  0.25000000  0.25000000  0.75000000  1
  W  W0  1  0.25000000  0.25000000  0.25000000  1
  W  W1  1  0.25000000  0.75000000  0.75000000  1
  W  W2  1  0.75000000  0.25000000  0.75000000  1
  W  W3  1  0.75000000  0.75000000  0.25000000  1
  O  O0  1  0.22411719  0.27948820  0.47204231  1
  O  O1  1  0.22411719  0.72051180  0.52795769  1
  O  O2  1  0.77588281  0.27948820  0.52795769  1
  O  O3  1  0.77588281  0.72051180  0.47204231  1
  O  O4  1  0.27948820  0.47204231  0.22411719  1
  O  O5  1  0.72051180  0.52795769  0.22411719  1
  O  O6  1  0.27948820  0.52795769  0.77588281  1
  O  O7  1  0.72051180  0.47204231  0.77588281  1
  O  O8  1  0.47204231  0.22411719  0.27948820  1
  O  O9  1  0.52795769  0.22411719  0.72051180  1
  O  O10  1  0.52795769  0.77588281  0.27948820  1
  O  O11  1  0.47204231  0.77588281  0.72051180  1
  O  O12  1  0.27588281  0.22051180  0.02795769  1
  O  O13  1  0.27588281  0.77948820  0.97204231  1
  O  O14  1  0.72411719  0.22051180  0.97204231  1
  O  O15  1  0.72411719  0.77948820  0.02795769  1
  O  O16  1  0.22051180  0.02795769  0.27588281  1
  O  O17  1  0.77948820  0.97204231  0.27588281  1
  O  O18  1  0.22051180  0.97204231  0.72411719  1
  O  O19  1  0.77948820  0.02795769  0.72411719  1
  O  O20  1  0.02795769  0.27588281  0.22051180  1
  O  O21  1  0.97204231  0.27588281  0.77948820  1
  O  O22  1  0.97204231  0.72411719  0.22051180  1
  O  O23  1  0.02795769  0.72411719  0.77948820  1
loop_
_geom_bond_atom_site_label_1
_geom_bond_atom_site_label_2
_geom_bond_distance
_geom_bond_site_symmetry_2
Ba0 O6 3.087719 1_555
Ba0 O10 3.087719 1_555
Ba0 O0 3.087719 1_555
Ba0 O2 3.087719 1_555
Ba0 O4 3.087719 1_555
Ba0 O8 3.087719 1_555
Ba0 O11 3.087719 1_555
Ba0 O1 3.087719 1_555
Ba0 O7 3.087719 1_555
Ba0 O5 3.087719 1_555
Ba0 O9 3.087719 1_555
Ba0 O3 3.087719 1_555
Ba1 O21 3.087719 1_454
Ba1 O18 3.087719 1_544
Ba1 O12 3.087719 1_555
Ba1 O16 3.087719 1_555
Ba1 O20 3.087719 1_555
Ba1 O13 3.087719 1_544
Ba1 O17 3.087719 1_445
Ba1 O14 3.087719 1_454
Ba1 O23 3.087719 1_544
Ba1 O19 3.087719 1_454
Ba1 O15 3.087719 1_445
Ba1 O22 3.087719 1_445
Ba2 O18 2.751005 1_545
Ba2 O19 2.751005 1_455
Ba2 O16 2.751005 1_555
Ba2 O17 2.751005 1_445
Ba2 O3 3.131751 1_445
Ba2 O1 3.131751 1_545
Ba2 O0 3.131751 1_555
Ba2 O2 3.131751 1_455
Ba3 O20 2.751005 1_555
Ba3 O23 2.751005 1_554
Ba3 O22 2.751005 1_455
Ba3 O21 2.751005 1_454
Ba3 O7 3.131751 1_454
Ba3 O5 3.131751 1_455
Ba3 O6 3.131751 1_554
Ba3 O4 3.131751 1_555
Ba4 O14 2.751005 1_554
Ba4 O15 2.751005 1_545
Ba4 O12 2.751005 1_555
Ba4 O13 2.751005 1_544
Ba4 O11 3.131751 1_544
Ba4 O10 3.131751 1_545
Ba4 O8 3.131751 1_555
Ba4 O9 3.131751 1_554
Ba5 O6 2.751005 1_554
Ba5 O4 2.751005 1_555
Ba5 O5 2.751005 1_555
Ba5 O7 2.751005 1_554
Ba5 O14 3.131751 1_554
Ba5 O15 3.131751 1_555
Ba5 O13 3.131751 1_554
Ba5 O12 3.131751 1_555
Ba6 O10 2.751005 1_545
Ba6 O11 2.751005 1_545
Ba6 O8 2.751005 1_555
Ba6 O9 2.751005 1_555
Ba6 O18 3.131751 1_545
Ba6 O19 3.131751 1_555
Ba6 O17 3.131751 1_545
Ba6 O16 3.131751 1_555
Ba7 O2 2.751005 1_455
Ba7 O1 2.751005 1_555
Ba7 O3 2.751005 1_455
Ba7 O0 2.751005 1_555
Ba7 O23 3.131751 1_555
Ba7 O22 3.131751 1_455
Ba7 O20 3.131751 1_555
Ba7 O21 3.131751 1_455
O0 W0 1.965154 1_555
O0 Sn3 2.446510 1_555
O1 W1 1.965154 1_555
O1 Sn2 2.446510 1_555
O2 W2 1.965154 1_555
O2 Sn1 2.446510 1_555
O3 W3 1.965154 1_555
O3 Sn0 2.446510 1_555
O4 W0 1.965154 1_555
O4 Sn2 2.446510 1_555
O5 W3 1.965154 1_555
O5 Sn1 2.446510 1_555
O6 W1 1.965154 1_555
O6 Sn3 2.446510 1_555
O7 W2 1.965154 1_555
O7 Sn0 2.446510 1_555
O8 W0 1.965154 1_555
O8 Sn1 2.446510 1_555
O9 W2 1.965154 1_555
O9 Sn3 2.446510 1_555
O10 W3 1.965154 1_555
O10 Sn2 2.446510 1_555
O11 W1 1.965154 1_555
O11 Sn0 2.446510 1_555
O12 W0 1.965154 1_555
O12 Sn3 2.446510 1_554
O13 W1 1.965154 1_555
O13 Sn2 2.446510 1_556
O14 W2 1.965154 1_555
O14 Sn1 2.446510 1_556
O15 W3 1.965154 1_555
O15 Sn0 2.446510 1_554
O16 W0 1.965154 1_555
O16 Sn2 2.446510 1_545
O17 W3 1.965154 1_555
O17 Sn1 2.446510 1_565
O18 W1 1.965154 1_555
O18 Sn3 2.446510 1_565
O19 W2 1.965154 1_555
O19 Sn0 2.446510 1_545
O20 W0 1.965154 1_555
O20 Sn1 2.446510 1_455
O21 W2 1.965154 1_555
O21 Sn3 2.446510 1_655
O22 W3 1.965154 1_555
O22 Sn2 2.446510 1_655
O23 W1 1.965154 1_555
O23 Sn0 2.446510 1_455
