# generated using pymatgen
data_Rb7(FeTe2)4
_symmetry_space_group_name_H-M   'P 1'
_cell_length_a   11.06063601
_cell_length_b   11.06063601
_cell_length_c   17.82182214
_cell_angle_alpha   64.88153887
_cell_angle_beta   64.88153887
_cell_angle_gamma   48.08123582
_symmetry_Int_Tables_number   1
_chemical_formula_structural   Rb7(FeTe2)4
_chemical_formula_sum   'Rb14 Fe8 Te16'
_cell_volume   1436.42838202
_cell_formula_units_Z   2
loop_
 _symmetry_equiv_pos_site_id
 _symmetry_equiv_pos_as_xyz
  1  'x, y, z'
loop_
 _atom_site_type_symbol
 _atom_site_label
 _atom_site_symmetry_multiplicity
 _atom_site_fract_x
 _atom_site_fract_y
 _atom_site_fract_z
 _atom_site_occupancy
  Rb  Rb0  1  0.24464700  0.75535300  0.25000000  1
  Rb  Rb1  1  0.75535300  0.24464700  0.75000000  1
  Rb  Rb2  1  0.24179000  0.75061600  0.49184700  1
  Rb  Rb3  1  0.24938400  0.75821000  0.00815300  1
  Rb  Rb4  1  0.75821000  0.24938400  0.50815300  1
  Rb  Rb5  1  0.75061600  0.24179000  0.99184700  1
  Rb  Rb6  1  0.01258100  0.50128000  0.11554900  1
  Rb  Rb7  1  0.49872000  0.98741900  0.38445100  1
  Rb  Rb8  1  0.98741900  0.49872000  0.88445100  1
  Rb  Rb9  1  0.50128000  0.01258100  0.61554900  1
  Rb  Rb10  1  0.02266400  0.49092300  0.36424900  1
  Rb  Rb11  1  0.50907700  0.97733600  0.13575100  1
  Rb  Rb12  1  0.97733600  0.50907700  0.63575100  1
  Rb  Rb13  1  0.49092300  0.02266400  0.86424900  1
  Fe  Fe0  1  0.69541700  0.40725200  0.17222300  1
  Fe  Fe1  1  0.59274800  0.30458300  0.32777700  1
  Fe  Fe2  1  0.30458300  0.59274800  0.82777700  1
  Fe  Fe3  1  0.40725200  0.69541700  0.67222300  1
  Fe  Fe4  1  0.89756700  0.20382100  0.27442300  1
  Fe  Fe5  1  0.79617900  0.10243300  0.22557700  1
  Fe  Fe6  1  0.10243300  0.79617900  0.72557700  1
  Fe  Fe7  1  0.20382100  0.89756700  0.77442300  1
  Te  Te0  1  0.66134900  0.51166100  0.29240300  1
  Te  Te1  1  0.48833900  0.33865100  0.20759700  1
  Te  Te2  1  0.33865100  0.48833900  0.70759700  1
  Te  Te3  1  0.51166100  0.66134900  0.79240300  1
  Te  Te4  1  0.00387100  0.17027000  0.11654100  1
  Te  Te5  1  0.82973000  0.99612900  0.38345900  1
  Te  Te6  1  0.99612900  0.82973000  0.88345900  1
  Te  Te7  1  0.17027000  0.00387100  0.61654100  1
  Te  Te8  1  0.66354100  0.60879200  0.54792300  1
  Te  Te9  1  0.39120800  0.33645900  0.95207700  1
  Te  Te10  1  0.33645900  0.39120800  0.45207700  1
  Te  Te11  1  0.60879200  0.66354100  0.04792300  1
  Te  Te12  1  0.87996600  0.85250700  0.18520700  1
  Te  Te13  1  0.14749300  0.12003400  0.31479300  1
  Te  Te14  1  0.12003400  0.14749300  0.81479300  1
  Te  Te15  1  0.85250700  0.87996600  0.68520700  1
loop_
_geom_bond_atom_site_label_1
_geom_bond_atom_site_label_2
_geom_bond_distance
_geom_bond_site_symmetry_2
Rb0 Te5 3.686612 1_455
Rb0 Te4 3.686612 1_565
Rb0 Te1 3.702385 1_555
Rb0 Te0 3.702385 1_555
Rb0 Te10 3.943171 1_555
Rb0 Te11 3.943171 1_555
Rb0 Te13 3.983399 1_565
Rb0 Te12 3.983399 1_455
Rb1 Te6 3.686612 1_545
Rb1 Te7 3.686612 1_655
Rb1 Te2 3.702385 1_555
Rb1 Te3 3.702385 1_555
Rb1 Te9 3.943171 1_555
Rb1 Te8 3.943171 1_555
Rb1 Te15 3.983399 1_545
Rb1 Te14 3.983399 1_655
Rb2 Te10 3.688072 1_555
Rb2 Te13 3.727436 1_565
Rb2 Te2 3.771282 1_555
Rb2 Te7 3.773915 1_565
Rb2 Te15 3.977318 1_455
Rb2 Te5 4.285066 1_455
Rb3 Te11 3.688072 1_555
Rb3 Te12 3.727436 1_455
Rb3 Te3 3.771282 1_554
Rb3 Te6 3.773915 1_454
Rb3 Te14 3.977318 1_564
Rb3 Te4 4.285066 1_565
Rb4 Te8 3.688072 1_555
Rb4 Te15 3.727436 1_545
Rb4 Te0 3.771282 1_555
Rb4 Te5 3.773915 1_545
Rb4 Te13 3.977318 1_655
Rb4 Te7 4.285066 1_655
Rb5 Te9 3.688072 1_555
Rb5 Te14 3.727436 1_655
Rb5 Te1 3.771282 1_556
Rb5 Te4 3.773915 1_656
Rb5 Te12 3.977318 1_546
Rb5 Te6 4.285066 1_545
Rb6 Te9 3.646801 1_554
Rb6 Te12 3.703921 1_455
Rb6 Te4 3.718699 1_555
Rb6 Te0 3.788844 1_455
Rb6 Te13 3.999474 1_555
Rb6 Te11 4.079671 1_455
Rb6 Te6 4.163894 1_454
Rb7 Te8 3.646801 1_555
Rb7 Te13 3.703921 1_565
Rb7 Te5 3.718699 1_555
Rb7 Te1 3.788844 1_565
Rb7 Te12 3.999474 1_555
Rb7 Te10 4.079671 1_565
Rb7 Te7 4.163894 1_565
Rb8 Te11 3.646801 1_556
Rb8 Te14 3.703921 1_655
Rb8 Te6 3.718699 1_555
Rb8 Te2 3.788844 1_655
Rb8 Te15 3.999474 1_555
Rb8 Te9 4.079671 1_655
Rb8 Te4 4.163894 1_656
Rb9 Te10 3.646801 1_555
Rb9 Te15 3.703921 1_545
Rb9 Te7 3.718699 1_555
Rb9 Te3 3.788844 1_545
Rb9 Te14 3.999474 1_555
Rb9 Te8 4.079671 1_545
Rb9 Te5 4.163894 1_545
Rb10 Te12 3.697945 1_455
Rb10 Te10 3.707365 1_555
Rb10 Te8 3.722590 1_455
Rb10 Te13 3.739036 1_555
Rb10 Te1 4.165702 1_555
Rb11 Te13 3.697945 1_565
Rb11 Te11 3.707365 1_555
Rb11 Te9 3.722590 1_564
Rb11 Te12 3.739036 1_555
Rb11 Te0 4.165702 1_555
Rb12 Te14 3.697945 1_655
Rb12 Te8 3.707365 1_555
Rb12 Te10 3.722590 1_655
Rb12 Te15 3.739036 1_555
Rb12 Te3 4.165702 1_555
Rb13 Te15 3.697945 1_545
Rb13 Te9 3.707365 1_555
Rb13 Te11 3.722590 1_546
Rb13 Te14 3.739036 1_555
Rb13 Te2 4.165702 1_555
Fe0 Te11 2.588946 1_555
Fe0 Te4 2.623021 1_655
Fe0 Te0 2.626087 1_555
Fe0 Te1 2.628550 1_555
Fe0 Rb0 3.823356 1_555
Fe0 Rb6 3.922111 1_655
Fe1 Te10 2.588946 1_555
Fe1 Te5 2.623021 1_545
Fe1 Te1 2.626087 1_555
Fe1 Te0 2.628550 1_555
Fe1 Rb0 3.823356 1_555
Fe1 Rb7 3.922111 1_545
Fe2 Te9 2.588946 1_555
Fe2 Te6 2.623021 1_455
Fe2 Te2 2.626087 1_555
Fe2 Te3 2.628550 1_555
Fe2 Rb1 3.823356 1_555
Fe2 Rb8 3.922111 1_455
Fe3 Te8 2.588946 1_555
Fe3 Te7 2.623021 1_565
Fe3 Te3 2.626087 1_555
Fe3 Te2 2.628550 1_555
Fe3 Rb1 3.823356 1_555
Fe3 Rb9 3.922111 1_565
Fe4 Te13 2.591816 1_655
Fe4 Te0 2.617514 1_555
Fe4 Te5 2.625186 1_545
Fe4 Te4 2.632884 1_655
Fe4 Rb0 3.808236 1_645
Fe4 Rb6 3.884006 1_655
Fe5 Te12 2.591816 1_545
Fe5 Te1 2.617514 1_555
Fe5 Te4 2.625186 1_655
Fe5 Te5 2.632884 1_545
Fe5 Rb0 3.808236 1_645
Fe5 Rb7 3.884006 1_545
Fe6 Te15 2.591816 1_455
Fe6 Te2 2.617514 1_555
Fe6 Te7 2.625186 1_565
Fe6 Te6 2.632884 1_455
Fe6 Rb1 3.808236 1_465
Fe6 Rb8 3.884006 1_455
Fe7 Te14 2.591816 1_565
Fe7 Te3 2.617514 1_555
Fe7 Te6 2.625186 1_455
Fe7 Te7 2.632884 1_565
Fe7 Rb1 3.808236 1_465
Fe7 Rb9 3.884006 1_565
