# generated using pymatgen
data_MgMoF6
_symmetry_space_group_name_H-M   'P 1'
_cell_length_a   5.49574326
_cell_length_b   5.49574363
_cell_length_c   5.49574369
_cell_angle_alpha   55.34946412
_cell_angle_beta   55.34946181
_cell_angle_gamma   55.34947805
_symmetry_Int_Tables_number   1
_chemical_formula_structural   MgMoF6
_chemical_formula_sum   'Mg1 Mo1 F6'
_cell_volume   104.69033976
_cell_formula_units_Z   1
loop_
 _symmetry_equiv_pos_site_id
 _symmetry_equiv_pos_as_xyz
  1  'x, y, z'
loop_
 _atom_site_type_symbol
 _atom_site_label
 _atom_site_symmetry_multiplicity
 _atom_site_fract_x
 _atom_site_fract_y
 _atom_site_fract_z
 _atom_site_occupancy
  Mg  Mg0  1  0.50000000  0.50000000  0.50000000  1
  Mo  Mo0  1  0.00000000  -0.00000000  0.00000000  1
  F  F0  1  0.63315593  0.86971823  0.24519171  1
  F  F1  1  0.86971823  0.24519171  0.63315593  1
  F  F2  1  0.75480829  0.36684407  0.13028177  1
  F  F3  1  0.13028177  0.75480829  0.36684407  1
  F  F4  1  0.36684407  0.13028177  0.75480829  1
  F  F5  1  0.24519171  0.63315593  0.86971823  1
loop_
_geom_bond_atom_site_label_1
_geom_bond_atom_site_label_2
_geom_bond_distance
_geom_bond_site_symmetry_2
F0 Mo0 1.961658 1_665
F0 Mg0 1.978634 1_555
F1 Mo0 1.961658 1_656
F1 Mg0 1.978635 1_555
F2 Mo0 1.961658 1_655
F2 Mg0 1.978635 1_555
F3 Mo0 1.961658 1_565
F3 Mg0 1.978635 1_555
F4 Mo0 1.961658 1_556
F4 Mg0 1.978634 1_555
F5 Mo0 1.961658 1_566
F5 Mg0 1.978635 1_555
