# generated using pymatgen
data_CdPd2Pb
_symmetry_space_group_name_H-M   'P 1'
_cell_length_a   11.46459529
_cell_length_b   11.46459529
_cell_length_c   11.46459529
_cell_angle_alpha   125.57541824
_cell_angle_beta   118.21325121
_cell_angle_gamma   86.87418829
_symmetry_Int_Tables_number   1
_chemical_formula_structural   CdPd2Pb
_chemical_formula_sum   'Cd1 Pd2 Pb1'
_cell_volume   1027.61932003
_cell_formula_units_Z   1
loop_
 _symmetry_equiv_pos_site_id
 _symmetry_equiv_pos_as_xyz
  1  'x, y, z'
loop_
 _atom_site_type_symbol
 _atom_site_label
 _atom_site_symmetry_multiplicity
 _atom_site_fract_x
 _atom_site_fract_y
 _atom_site_fract_z
 _atom_site_occupancy
  Cd  Cd0  1  0.00000000  0.00000000  0.00000000  1
  Pd  Pd0  1  0.00000000  0.25775500  0.25775500  1
  Pd  Pd1  1  0.00000000  0.74224500  0.74224500  1
  Pb  Pb0  1  0.00000000  0.50000000  0.50000000  1
loop_
_geom_bond_atom_site_label_1
_geom_bond_atom_site_label_2
_geom_bond_distance
_geom_bond_site_symmetry_2
Cd0 Pd1 2.702628 1_544
Cd0 Pd0 2.702628 1_555
Pb0 Pd0 2.540002 1_555
Pb0 Pd1 2.540002 1_555
