# generated using pymatgen
data_AlNi2BO5
_symmetry_space_group_name_H-M   'P 1'
_cell_length_a   2.92506300
_cell_length_b   9.27397700
_cell_length_c   12.09879900
_cell_angle_alpha   90.00000000
_cell_angle_beta   90.00000000
_cell_angle_gamma   90.00000000
_symmetry_Int_Tables_number   1
_chemical_formula_structural   AlNi2BO5
_chemical_formula_sum   'Al4 Ni8 B4 O20'
_cell_volume   328.20372104
_cell_formula_units_Z   4
loop_
 _symmetry_equiv_pos_site_id
 _symmetry_equiv_pos_as_xyz
  1  'x, y, z'
loop_
 _atom_site_type_symbol
 _atom_site_label
 _atom_site_symmetry_multiplicity
 _atom_site_fract_x
 _atom_site_fract_y
 _atom_site_fract_z
 _atom_site_occupancy
  Al  Al0  1  0.00000000  0.23852300  0.38608200  1
  Al  Al1  1  0.00000000  0.76147700  0.61391800  1
  Al  Al2  1  0.00000000  0.26147700  0.88608200  1
  Al  Al3  1  0.00000000  0.73852300  0.11391800  1
  Ni  Ni0  1  0.50000000  0.00000000  0.50000000  1
  Ni  Ni1  1  0.50000000  0.50000000  0.00000000  1
  Ni  Ni2  1  0.50000000  0.99819200  0.21920300  1
  Ni  Ni3  1  0.50000000  0.00180800  0.78079700  1
  Ni  Ni4  1  0.50000000  0.50180800  0.71920300  1
  Ni  Ni5  1  0.50000000  0.49819200  0.28079700  1
  Ni  Ni6  1  0.00000000  0.00000000  0.00000000  1
  Ni  Ni7  1  0.00000000  0.50000000  0.50000000  1
  B  B0  1  0.00000000  0.26987400  0.13961900  1
  B  B1  1  0.00000000  0.73012600  0.86038100  1
  B  B2  1  0.00000000  0.23012600  0.63961900  1
  B  B3  1  0.00000000  0.76987400  0.36038100  1
  O  O0  1  0.50000000  0.37303900  0.42226000  1
  O  O1  1  0.50000000  0.62696100  0.57774000  1
  O  O2  1  0.50000000  0.12696100  0.92226000  1
  O  O3  1  0.50000000  0.87303900  0.07774000  1
  O  O4  1  0.00000000  0.12135200  0.14005900  1
  O  O5  1  0.00000000  0.87864800  0.85994100  1
  O  O6  1  0.00000000  0.37864800  0.64005900  1
  O  O7  1  0.00000000  0.62135200  0.35994100  1
  O  O8  1  0.00000000  0.34515200  0.04000500  1
  O  O9  1  0.00000000  0.65484800  0.95999500  1
  O  O10  1  0.00000000  0.15484800  0.54000500  1
  O  O11  1  0.00000000  0.84515200  0.45999500  1
  O  O12  1  0.00000000  0.34132600  0.24024200  1
  O  O13  1  0.00000000  0.65867400  0.75975800  1
  O  O14  1  0.00000000  0.15867400  0.74024200  1
  O  O15  1  0.00000000  0.84132600  0.25975800  1
  O  O16  1  0.50000000  0.11551100  0.35682400  1
  O  O17  1  0.50000000  0.88448900  0.64317600  1
  O  O18  1  0.50000000  0.38448900  0.85682400  1
  O  O19  1  0.50000000  0.61551100  0.14317600  1
loop_
_geom_bond_atom_site_label_1
_geom_bond_atom_site_label_2
_geom_bond_distance
_geom_bond_site_symmetry_2
Al0 O16 1.888320 1_555
Al0 O16 1.888320 1_455
Al0 O0 1.971507 1_455
Al0 O0 1.971507 1_555
Al0 O12 2.005587 1_555
Al0 O10 2.017492 1_555
Al1 O17 1.888320 1_555
Al1 O17 1.888320 1_455
Al1 O1 1.971507 1_555
Al1 O1 1.971507 1_455
Al1 O13 2.005587 1_555
Al1 O11 2.017492 1_555
Al2 O18 1.888320 1_555
Al2 O18 1.888320 1_455
Al2 O2 1.971507 1_555
Al2 O2 1.971507 1_455
Al2 O14 2.005587 1_555
Al2 O8 2.017492 1_556
Al3 O19 1.888320 1_455
Al3 O19 1.888320 1_555
Al3 O3 1.971507 1_455
Al3 O3 1.971507 1_555
Al3 O15 2.005587 1_555
Al3 O9 2.017492 1_554
Ni0 O17 2.036734 1_545
Ni0 O16 2.036734 1_555
Ni0 O10 2.106069 1_655
Ni0 O10 2.106069 1_555
Ni0 O11 2.106069 1_545
Ni0 O11 2.106069 1_645
Ni1 O18 2.036734 1_554
Ni1 O19 2.036734 1_555
Ni1 O8 2.106069 1_655
Ni1 O9 2.106069 1_654
Ni1 O8 2.106069 1_555
Ni1 O9 2.106069 1_554
Ni2 O16 1.989010 1_565
Ni2 O3 2.067967 1_555
Ni2 O4 2.088176 1_665
Ni2 O4 2.088176 1_565
Ni2 O15 2.120404 1_555
Ni2 O15 2.120404 1_655
Ni3 O17 1.989010 1_545
Ni3 O2 2.067967 1_555
Ni3 O5 2.088176 1_645
Ni3 O5 2.088176 1_545
Ni3 O14 2.120404 1_555
Ni3 O14 2.120404 1_655
Ni4 O18 1.989010 1_555
Ni4 O1 2.067967 1_555
Ni4 O6 2.088176 1_555
Ni4 O6 2.088176 1_655
Ni4 O13 2.120404 1_655
Ni4 O13 2.120404 1_555
Ni5 O19 1.989010 1_555
Ni5 O0 2.067967 1_555
Ni5 O7 2.088176 1_655
Ni5 O7 2.088176 1_555
Ni5 O12 2.120404 1_655
Ni5 O12 2.120404 1_555
Ni6 O4 2.034219 1_555
Ni6 O5 2.034219 1_544
Ni6 O3 2.100000 1_545
Ni6 O2 2.100000 1_554
Ni6 O2 2.100000 1_454
Ni6 O3 2.100000 1_445
Ni7 O7 2.034219 1_555
Ni7 O6 2.034219 1_555
Ni7 O1 2.100000 1_555
Ni7 O0 2.100000 1_455
Ni7 O1 2.100000 1_455
Ni7 O0 2.100000 1_555
B0 O4 1.377400 1_555
B0 O12 1.386075 1_555
B0 O8 1.392807 1_555
B1 O5 1.377400 1_555
B1 O13 1.386075 1_555
B1 O9 1.392807 1_555
B2 O6 1.377400 1_555
B2 O14 1.386075 1_555
B2 O10 1.392807 1_555
B3 O7 1.377400 1_555
B3 O15 1.386075 1_555
B3 O11 1.392807 1_555
