# generated using pymatgen
data_Y2Cu3Si
_symmetry_space_group_name_H-M   'P 1'
_cell_length_a   3.65166200
_cell_length_b   4.15981819
_cell_length_c   7.38202002
_cell_angle_alpha   89.92705496
_cell_angle_beta   90.00000000
_cell_angle_gamma   90.00000000
_symmetry_Int_Tables_number   1
_chemical_formula_structural   Y2Cu3Si
_chemical_formula_sum   'Y2 Cu3 Si1'
_cell_volume   112.13463878
_cell_formula_units_Z   1
loop_
 _symmetry_equiv_pos_site_id
 _symmetry_equiv_pos_as_xyz
  1  'x, y, z'
loop_
 _atom_site_type_symbol
 _atom_site_label
 _atom_site_symmetry_multiplicity
 _atom_site_fract_x
 _atom_site_fract_y
 _atom_site_fract_z
 _atom_site_occupancy
  Y  Y0  1  0.00000000  0.00010200  0.99810400  1
  Y  Y1  1  0.00000000  0.49975400  0.50085600  1
  Cu  Cu0  1  0.50000000  0.49981100  0.83778500  1
  Cu  Cu1  1  0.50000000  0.50008700  0.17441600  1
  Cu  Cu2  1  0.50000000  0.00028200  0.65802200  1
  Si  Si0  1  0.50000000  0.99976400  0.33081600  1
loop_
_geom_bond_atom_site_label_1
_geom_bond_atom_site_label_2
_geom_bond_distance
_geom_bond_site_symmetry_2
Cu0 Cu2 2.466954 1_555
Cu0 Cu2 2.467409 1_565
Cu0 Cu1 2.485019 1_556
Cu0 Y0 3.008156 1_555
Cu0 Y0 3.008156 1_655
Cu0 Y0 3.011911 1_665
Cu0 Y0 3.011911 1_565
Cu0 Y1 3.085435 1_555
Cu0 Y1 3.085435 1_655
Cu1 Si0 2.378755 1_545
Cu1 Si0 2.378976 1_555
Cu1 Y1 3.023363 1_655
Cu1 Y1 3.023363 1_555
Cu1 Y0 3.057295 1_664
Cu1 Y0 3.057295 1_564
Cu1 Y0 3.059463 1_554
Cu1 Y0 3.059463 1_654
Cu2 Si0 2.415445 1_545
Cu2 Y1 2.998413 1_555
Cu2 Y1 2.998413 1_655
Cu2 Y1 3.003505 1_645
Cu2 Y1 3.003505 1_545
Cu2 Y0 3.104227 1_655
Cu2 Y0 3.104227 1_555
Si0 Y1 3.037899 1_555
Si0 Y1 3.037899 1_655
Si0 Y1 3.040030 1_565
Si0 Y1 3.040030 1_665
Si0 Y0 3.060394 1_664
Si0 Y0 3.060394 1_564
