# generated using pymatgen
data_Sc3Si3Ru
_symmetry_space_group_name_H-M   'P 1'
_cell_length_a   3.99848400
_cell_length_b   10.30937400
_cell_length_c   11.72848800
_cell_angle_alpha   90.00000000
_cell_angle_beta   90.00000000
_cell_angle_gamma   90.00000000
_symmetry_Int_Tables_number   1
_chemical_formula_structural   Sc3Si3Ru
_chemical_formula_sum   'Sc12 Si12 Ru4'
_cell_volume   483.47017232
_cell_formula_units_Z   4
loop_
 _symmetry_equiv_pos_site_id
 _symmetry_equiv_pos_as_xyz
  1  'x, y, z'
loop_
 _atom_site_type_symbol
 _atom_site_label
 _atom_site_symmetry_multiplicity
 _atom_site_fract_x
 _atom_site_fract_y
 _atom_site_fract_z
 _atom_site_occupancy
  Sc  Sc0  1  0.25000000  0.87685900  0.01873300  1
  Sc  Sc1  1  0.25000000  0.62314100  0.51873300  1
  Sc  Sc2  1  0.75000000  0.12314100  0.98126700  1
  Sc  Sc3  1  0.75000000  0.37685900  0.48126700  1
  Sc  Sc4  1  0.25000000  0.92223600  0.60437000  1
  Sc  Sc5  1  0.25000000  0.57776400  0.10437000  1
  Sc  Sc6  1  0.75000000  0.07776400  0.39563000  1
  Sc  Sc7  1  0.75000000  0.42223600  0.89563000  1
  Sc  Sc8  1  0.25000000  0.66094300  0.79803300  1
  Sc  Sc9  1  0.25000000  0.83905700  0.29803300  1
  Sc  Sc10  1  0.75000000  0.33905700  0.20196700  1
  Sc  Sc11  1  0.75000000  0.16094300  0.70196700  1
  Si  Si0  1  0.25000000  0.01524100  0.82230000  1
  Si  Si1  1  0.25000000  0.48475900  0.32230000  1
  Si  Si2  1  0.75000000  0.98475900  0.17770000  1
  Si  Si3  1  0.75000000  0.51524100  0.67770000  1
  Si  Si4  1  0.25000000  0.25237500  0.84273600  1
  Si  Si5  1  0.25000000  0.24762500  0.34273600  1
  Si  Si6  1  0.75000000  0.74762500  0.15726400  1
  Si  Si7  1  0.75000000  0.75237500  0.65726400  1
  Si  Si8  1  0.25000000  0.19390300  0.54544700  1
  Si  Si9  1  0.25000000  0.30609700  0.04544700  1
  Si  Si10  1  0.75000000  0.80609700  0.45455300  1
  Si  Si11  1  0.75000000  0.69390300  0.95455300  1
  Ru  Ru0  1  0.25000000  0.39075100  0.67749100  1
  Ru  Ru1  1  0.25000000  0.10924900  0.17749100  1
  Ru  Ru2  1  0.75000000  0.60924900  0.32250900  1
  Ru  Ru3  1  0.75000000  0.89075100  0.82250900  1
loop_
_geom_bond_atom_site_label_1
_geom_bond_atom_site_label_2
_geom_bond_distance
_geom_bond_site_symmetry_2
Sc0 Si0 2.709808 1_564
Sc0 Si11 2.849769 1_554
Sc0 Si11 2.849769 1_454
Sc0 Si6 2.900326 1_455
Sc0 Si6 2.900326 1_555
Sc0 Si2 2.951357 1_555
Sc0 Si2 2.951357 1_455
Sc1 Si1 2.709808 1_555
Sc1 Si10 2.849769 1_455
Sc1 Si10 2.849769 1_555
Sc1 Si7 2.900326 1_555
Sc1 Si7 2.900326 1_455
Sc1 Si3 2.951357 1_455
Sc1 Si3 2.951357 1_555
Sc2 Si2 2.709808 1_546
Sc2 Si9 2.849769 1_656
Sc2 Si9 2.849769 1_556
Sc2 Si4 2.900326 1_655
Sc2 Si4 2.900326 1_555
Sc2 Si0 2.951357 1_655
Sc2 Si0 2.951357 1_555
Sc3 Si3 2.709808 1_555
Sc3 Si8 2.849769 1_655
Sc3 Si8 2.849769 1_555
Sc3 Si5 2.900326 1_555
Sc3 Si5 2.900326 1_655
Sc3 Si1 2.951357 1_555
Sc3 Si1 2.951357 1_655
Sc4 Si7 2.729173 1_455
Sc4 Si7 2.729173 1_555
Sc4 Si0 2.729913 1_565
Sc4 Si8 2.884719 1_565
Sc4 Si10 2.918568 1_455
Sc4 Si10 2.918568 1_555
Sc5 Si6 2.729173 1_555
Sc5 Si6 2.729173 1_455
Sc5 Si1 2.729913 1_555
Sc5 Si9 2.884719 1_555
Sc5 Si11 2.918568 1_454
Sc5 Si11 2.918568 1_554
Sc6 Si5 2.729173 1_555
Sc6 Si5 2.729173 1_655
Sc6 Si2 2.729913 1_545
Sc6 Si10 2.884719 1_545
Sc6 Si8 2.918568 1_555
Sc6 Si8 2.918568 1_655
Sc7 Si4 2.729173 1_655
Sc7 Si4 2.729173 1_555
Sc7 Si3 2.729913 1_555
Sc7 Si11 2.884719 1_555
Sc7 Si9 2.918568 1_556
Sc7 Si9 2.918568 1_656
Sc8 Si11 2.735394 1_455
Sc8 Si11 2.735394 1_555
Sc8 Si7 2.758859 1_455
Sc8 Si7 2.758859 1_555
Sc8 Si3 2.871428 1_455
Sc8 Si3 2.871428 1_555
Sc9 Si10 2.735394 1_555
Sc9 Si10 2.735394 1_455
Sc9 Si6 2.758859 1_455
Sc9 Si6 2.758859 1_555
Sc9 Si2 2.871428 1_555
Sc9 Si2 2.871428 1_455
Sc10 Si9 2.735394 1_655
Sc10 Si9 2.735394 1_555
Sc10 Si5 2.758859 1_655
Sc10 Si5 2.758859 1_555
Sc10 Si1 2.871428 1_555
Sc10 Si1 2.871428 1_655
Sc11 Si8 2.735394 1_655
Sc11 Si8 2.735394 1_555
Sc11 Si4 2.758859 1_655
Sc11 Si4 2.758859 1_555
Sc11 Si0 2.871428 1_655
Sc11 Si0 2.871428 1_555
Si0 Si4 2.456425 1_555
Si1 Si5 2.456425 1_555
Si2 Si6 2.456425 1_555
Si3 Si7 2.456425 1_555
Si4 Si9 2.441150 1_556
Si5 Si8 2.441150 1_555
Si10 Si7 2.441150 1_555
Si11 Si6 2.441150 1_556
Ru0 Si3 2.375737 1_555
Ru0 Si3 2.375737 1_455
Ru0 Si4 2.406498 1_555
Ru0 Si8 2.552799 1_555
Ru0 Sc1 3.034279 1_555
Ru0 Sc3 3.051880 1_555
Ru0 Sc3 3.051880 1_455
Ru0 Sc11 3.113258 1_455
Ru0 Sc11 3.113258 1_555
Ru0 Sc8 3.123752 1_555
Ru1 Si2 2.375737 1_545
Ru1 Si2 2.375737 1_445
Ru1 Si5 2.406498 1_555
Ru1 Si9 2.552799 1_555
Ru1 Sc0 3.034279 1_545
Ru1 Sc2 3.051880 1_454
Ru1 Sc2 3.051880 1_554
Ru1 Sc10 3.113258 1_555
Ru1 Sc10 3.113258 1_455
Ru1 Sc9 3.123752 1_545
Ru2 Si1 2.375737 1_555
Ru2 Si1 2.375737 1_655
Ru2 Si6 2.406498 1_555
Ru2 Si10 2.552799 1_555
Ru2 Sc3 3.034279 1_555
Ru2 Sc1 3.051880 1_555
Ru2 Sc1 3.051880 1_655
Ru2 Sc9 3.113258 1_655
Ru2 Sc9 3.113258 1_555
Ru2 Sc10 3.123752 1_555
Ru3 Si0 2.375737 1_665
Ru3 Si0 2.375737 1_565
Ru3 Si7 2.406498 1_555
Ru3 Si11 2.552799 1_555
Ru3 Sc2 3.034279 1_565
Ru3 Sc0 3.051880 1_556
Ru3 Sc0 3.051880 1_656
Ru3 Sc8 3.113258 1_555
Ru3 Sc8 3.113258 1_655
Ru3 Sc11 3.123752 1_565
