# generated using pymatgen
data_CeSe2
_symmetry_space_group_name_H-M   'P 1'
_cell_length_a   21.84784455
_cell_length_b   21.84784455
_cell_length_c   22.81010617
_cell_angle_alpha   90.00000000
_cell_angle_beta   90.00000000
_cell_angle_gamma   90.00000000
_symmetry_Int_Tables_number   1
_chemical_formula_structural   CeSe2
_chemical_formula_sum   'Ce32 Se64'
_cell_volume   10887.90946283
_cell_formula_units_Z   32
loop_
 _symmetry_equiv_pos_site_id
 _symmetry_equiv_pos_as_xyz
  1  'x, y, z'
loop_
 _atom_site_type_symbol
 _atom_site_label
 _atom_site_symmetry_multiplicity
 _atom_site_fract_x
 _atom_site_fract_y
 _atom_site_fract_z
 _atom_site_occupancy
  Ce  Ce0  1  0.37739788  0.12001245  0.61568973  1
  Ce  Ce1  1  0.62260212  0.87998755  0.61568973  1
  Ce  Ce2  1  0.87998755  0.37739788  0.11568973  1
  Ce  Ce3  1  0.12001245  0.62260212  0.11568973  1
  Ce  Ce4  1  0.62260212  0.12001245  0.38431027  1
  Ce  Ce5  1  0.37739788  0.87998755  0.38431027  1
  Ce  Ce6  1  0.12001245  0.37739788  0.88431027  1
  Ce  Ce7  1  0.87998755  0.62260212  0.88431027  1
  Ce  Ce8  1  0.62260212  0.87998755  0.38431027  1
  Ce  Ce9  1  0.37739788  0.12001245  0.38431027  1
  Ce  Ce10  1  0.12001245  0.62260212  0.88431027  1
  Ce  Ce11  1  0.87998755  0.37739788  0.88431027  1
  Ce  Ce12  1  0.37739788  0.87998755  0.61568973  1
  Ce  Ce13  1  0.62260212  0.12001245  0.61568973  1
  Ce  Ce14  1  0.87998755  0.62260212  0.11568973  1
  Ce  Ce15  1  0.12001245  0.37739788  0.11568973  1
  Ce  Ce16  1  0.37733529  0.50000000  0.61595772  1
  Ce  Ce17  1  0.62266471  0.50000000  0.61595772  1
  Ce  Ce18  1  0.50000000  0.37733529  0.11595772  1
  Ce  Ce19  1  0.50000000  0.62266471  0.11595772  1
  Ce  Ce20  1  0.62266471  0.50000000  0.38404228  1
  Ce  Ce21  1  0.37733529  0.50000000  0.38404228  1
  Ce  Ce22  1  0.50000000  0.37733529  0.88404228  1
  Ce  Ce23  1  0.50000000  0.62266471  0.88404228  1
  Ce  Ce24  1  0.31153462  0.31153462  0.75000000  1
  Ce  Ce25  1  0.68846538  0.68846538  0.75000000  1
  Ce  Ce26  1  0.68846538  0.31153462  0.25000000  1
  Ce  Ce27  1  0.31153462  0.68846538  0.25000000  1
  Ce  Ce28  1  0.68846538  0.68846538  0.25000000  1
  Ce  Ce29  1  0.31153462  0.31153462  0.25000000  1
  Ce  Ce30  1  0.31153462  0.68846538  0.75000000  1
  Ce  Ce31  1  0.68846538  0.31153462  0.75000000  1
  Se  Se0  1  0.32832194  0.40130519  0.66994387  1
  Se  Se1  1  0.67167806  0.59869481  0.66994387  1
  Se  Se2  1  0.59869481  0.32832194  0.16994387  1
  Se  Se3  1  0.40130519  0.67167806  0.16994387  1
  Se  Se4  1  0.67167806  0.40130519  0.33005613  1
  Se  Se5  1  0.32832194  0.59869481  0.33005613  1
  Se  Se6  1  0.40130519  0.32832194  0.83005613  1
  Se  Se7  1  0.59869481  0.67167806  0.83005613  1
  Se  Se8  1  0.67167806  0.59869481  0.33005613  1
  Se  Se9  1  0.32832194  0.40130519  0.33005613  1
  Se  Se10  1  0.40130519  0.67167806  0.83005613  1
  Se  Se11  1  0.59869481  0.32832194  0.83005613  1
  Se  Se12  1  0.32832194  0.59869481  0.66994387  1
  Se  Se13  1  0.67167806  0.40130519  0.66994387  1
  Se  Se14  1  0.59869481  0.67167806  0.16994387  1
  Se  Se15  1  0.40130519  0.32832194  0.16994387  1
  Se  Se16  1  0.32554851  0.20414636  0.68973008  1
  Se  Se17  1  0.67445149  0.79585364  0.68973008  1
  Se  Se18  1  0.79585364  0.32554851  0.18973008  1
  Se  Se19  1  0.20414636  0.67445149  0.18973008  1
  Se  Se20  1  0.67445149  0.20414636  0.31026992  1
  Se  Se21  1  0.32554851  0.79585364  0.31026992  1
  Se  Se22  1  0.20414636  0.32554851  0.81026992  1
  Se  Se23  1  0.79585364  0.67445149  0.81026992  1
  Se  Se24  1  0.67445149  0.79585364  0.31026992  1
  Se  Se25  1  0.32554851  0.20414636  0.31026992  1
  Se  Se26  1  0.20414636  0.67445149  0.81026992  1
  Se  Se27  1  0.79585364  0.32554851  0.81026992  1
  Se  Se28  1  0.32554851  0.79585364  0.68973008  1
  Se  Se29  1  0.67445149  0.20414636  0.68973008  1
  Se  Se30  1  0.79585364  0.67445149  0.18973008  1
  Se  Se31  1  0.20414636  0.32554851  0.18973008  1
  Se  Se32  1  0.35454141  0.14050020  0.50000000  1
  Se  Se33  1  0.64545859  0.85949980  0.50000000  1
  Se  Se34  1  0.85949980  0.35454141  -0.00000000  1
  Se  Se35  1  0.14050020  0.64545859  -0.00000000  1
  Se  Se36  1  0.64545859  0.14050020  0.50000000  1
  Se  Se37  1  0.35454141  0.85949980  0.50000000  1
  Se  Se38  1  0.14050020  0.35454141  -0.00000000  1
  Se  Se39  1  0.85949980  0.64545859  -0.00000000  1
  Se  Se40  1  0.13176823  0.50000000  0.12869139  1
  Se  Se41  1  0.86823177  0.50000000  0.12869139  1
  Se  Se42  1  0.50000000  0.13176823  0.62869139  1
  Se  Se43  1  0.50000000  0.86823177  0.62869139  1
  Se  Se44  1  0.86823177  0.50000000  0.87130861  1
  Se  Se45  1  0.13176823  0.50000000  0.87130861  1
  Se  Se46  1  0.50000000  0.13176823  0.37130861  1
  Se  Se47  1  0.50000000  0.86823177  0.37130861  1
  Se  Se48  1  0.35160019  -0.00000000  0.63849221  1
  Se  Se49  1  0.64839981  0.00000000  0.63849221  1
  Se  Se50  1  -0.00000000  0.35160019  0.13849221  1
  Se  Se51  1  0.00000000  0.64839981  0.13849221  1
  Se  Se52  1  0.64839981  0.00000000  0.36150779  1
  Se  Se53  1  0.35160019  -0.00000000  0.36150779  1
  Se  Se54  1  -0.00000000  0.35160019  0.86150779  1
  Se  Se55  1  0.00000000  0.64839981  0.86150779  1
  Se  Se56  1  0.35202775  0.50000000  0.50000000  1
  Se  Se57  1  0.64797225  0.50000000  0.50000000  1
  Se  Se58  1  0.50000000  0.35202775  -0.00000000  1
  Se  Se59  1  0.50000000  0.64797225  -0.00000000  1
  Se  Se60  1  0.50000000  0.50000000  0.62901267  1
  Se  Se61  1  0.50000000  0.50000000  0.12901267  1
  Se  Se62  1  0.50000000  0.50000000  0.37098733  1
  Se  Se63  1  0.50000000  0.50000000  0.87098733  1
loop_
_geom_bond_atom_site_label_1
_geom_bond_atom_site_label_2
_geom_bond_distance
_geom_bond_site_symmetry_2
Ce0 Se42 2.707171 1_555
Ce0 Se32 2.722772 1_555
Ce0 Se48 2.731878 1_555
Ce0 Se16 2.741219 1_555
Ce1 Se43 2.707171 1_555
Ce1 Se33 2.722772 1_555
Ce1 Se49 2.731878 1_565
Ce1 Se17 2.741219 1_555
Ce2 Se41 2.707171 1_555
Ce2 Se34 2.722772 1_555
Ce2 Se50 2.731878 1_655
Ce2 Se18 2.741219 1_555
Ce3 Se40 2.707171 1_555
Ce3 Se35 2.722772 1_555
Ce3 Se51 2.731878 1_555
Ce3 Se19 2.741219 1_555
Ce4 Se46 2.707171 1_555
Ce4 Se36 2.722772 1_555
Ce4 Se52 2.731878 1_555
Ce4 Se20 2.741219 1_555
Ce5 Se47 2.707171 1_555
Ce5 Se37 2.722772 1_555
Ce5 Se53 2.731878 1_565
Ce5 Se21 2.741219 1_555
Ce6 Se45 2.707171 1_555
Ce6 Se38 2.722772 1_556
Ce6 Se54 2.731878 1_555
Ce6 Se22 2.741219 1_555
Ce7 Se44 2.707171 1_555
Ce7 Se39 2.722772 1_556
Ce7 Se55 2.731878 1_655
Ce7 Se23 2.741219 1_555
Ce8 Se47 2.707171 1_555
Ce8 Se33 2.722772 1_555
Ce8 Se52 2.731878 1_565
Ce8 Se24 2.741219 1_555
Ce9 Se46 2.707171 1_555
Ce9 Se32 2.722772 1_555
Ce9 Se53 2.731878 1_555
Ce9 Se25 2.741219 1_555
Ce10 Se45 2.707171 1_555
Ce10 Se35 2.722772 1_556
Ce10 Se55 2.731878 1_555
Ce10 Se26 2.741219 1_555
Ce11 Se44 2.707171 1_555
Ce11 Se34 2.722772 1_556
Ce11 Se54 2.731878 1_655
Ce11 Se27 2.741219 1_555
Ce12 Se43 2.707171 1_555
Ce12 Se37 2.722772 1_555
Ce12 Se48 2.731878 1_565
Ce12 Se28 2.741219 1_555
Ce13 Se42 2.707171 1_555
Ce13 Se36 2.722772 1_555
Ce13 Se49 2.731878 1_555
Ce13 Se29 2.741219 1_555
Ce14 Se41 2.707171 1_555
Ce14 Se39 2.722772 1_555
Ce14 Se51 2.731878 1_655
Ce14 Se30 2.741219 1_555
Ce15 Se40 2.707171 1_555
Ce15 Se38 2.722772 1_555
Ce15 Se50 2.731878 1_555
Ce15 Se31 2.741219 1_555
Ce16 Se60 2.696453 1_555
Ce16 Se56 2.702181 1_555
Ce16 Se0 2.704183 1_555
Ce16 Se12 2.704183 1_555
Ce17 Se60 2.696453 1_555
Ce17 Se57 2.702181 1_555
Ce17 Se13 2.704183 1_555
Ce17 Se1 2.704183 1_555
Ce18 Se61 2.696453 1_555
Ce18 Se58 2.702181 1_555
Ce18 Se15 2.704183 1_555
Ce18 Se2 2.704183 1_555
Ce19 Se61 2.696453 1_555
Ce19 Se59 2.702181 1_555
Ce19 Se3 2.704183 1_555
Ce19 Se14 2.704183 1_555
Ce20 Se62 2.696453 1_555
Ce20 Se57 2.702181 1_555
Ce20 Se4 2.704183 1_555
Ce20 Se8 2.704183 1_555
Ce21 Se62 2.696453 1_555
Ce21 Se56 2.702181 1_555
Ce21 Se9 2.704183 1_555
Ce21 Se5 2.704183 1_555
Ce22 Se63 2.696453 1_555
Ce22 Se58 2.702181 1_556
Ce22 Se6 2.704183 1_555
Ce22 Se11 2.704183 1_555
Ce23 Se63 2.696453 1_555
Ce23 Se59 2.702181 1_556
Ce23 Se10 2.704183 1_555
Ce23 Se7 2.704183 1_555
Ce24 Se0 2.704772 1_555
Ce24 Se6 2.704772 1_555
Ce24 Se22 2.736490 1_555
Ce24 Se16 2.736490 1_555
Ce25 Se7 2.704772 1_555
Ce25 Se1 2.704772 1_555
Ce25 Se17 2.736490 1_555
Ce25 Se23 2.736490 1_555
Ce26 Se2 2.704772 1_555
Ce26 Se4 2.704772 1_555
Ce26 Se18 2.736490 1_555
Ce26 Se20 2.736490 1_555
Ce27 Se5 2.704772 1_555
Ce27 Se3 2.704772 1_555
Ce27 Se19 2.736490 1_555
Ce27 Se21 2.736490 1_555
Ce28 Se8 2.704772 1_555
Ce28 Se14 2.704772 1_555
Ce28 Se30 2.736490 1_555
Ce28 Se24 2.736490 1_555
Ce29 Se15 2.704772 1_555
Ce29 Se9 2.704772 1_555
Ce29 Se31 2.736490 1_555
Ce29 Se25 2.736490 1_555
Ce30 Se12 2.704772 1_555
Ce30 Se10 2.704772 1_555
Ce30 Se26 2.736490 1_555
Ce30 Se28 2.736490 1_555
Ce31 Se11 2.704772 1_555
Ce31 Se13 2.704772 1_555
Ce31 Se29 2.736490 1_555
Ce31 Se27 2.736490 1_555
