# generated using pymatgen
data_V(C2N3)3
_symmetry_space_group_name_H-M   'P 1'
_cell_length_a   7.44907528
_cell_length_b   13.09822884
_cell_length_c   11.54201900
_cell_angle_alpha   90.00000000
_cell_angle_beta   90.00000000
_cell_angle_gamma   28.45580593
_symmetry_Int_Tables_number   1
_chemical_formula_structural   V(C2N3)3
_chemical_formula_sum   'V2 C12 N18'
_cell_volume   536.58940029
_cell_formula_units_Z   2
loop_
 _symmetry_equiv_pos_site_id
 _symmetry_equiv_pos_as_xyz
  1  'x, y, z'
loop_
 _atom_site_type_symbol
 _atom_site_label
 _atom_site_symmetry_multiplicity
 _atom_site_fract_x
 _atom_site_fract_y
 _atom_site_fract_z
 _atom_site_occupancy
  V  V0  1  0.00000000  0.27698400  0.25000000  1
  V  V1  1  0.00000000  0.72301600  0.75000000  1
  C  C0  1  0.67968800  0.77924400  0.25000000  1
  C  C1  1  0.67968800  0.54106800  0.75000000  1
  C  C2  1  0.32031200  0.22075600  0.75000000  1
  C  C3  1  0.32031200  0.45893200  0.25000000  1
  C  C4  1  0.68128300  0.30659600  0.90597200  1
  C  C5  1  0.68128300  0.01212200  0.09402800  1
  C  C6  1  0.68128300  0.30659600  0.59402800  1
  C  C7  1  0.68128300  0.01212200  0.40597200  1
  C  C8  1  0.31871700  0.69340400  0.09402800  1
  C  C9  1  0.31871700  0.98787800  0.90597200  1
  C  C10  1  0.31871700  0.69340400  0.40597200  1
  C  C11  1  0.31871700  0.98787800  0.59402800  1
  N  N0  1  0.00000000  0.57228500  0.25000000  1
  N  N1  1  0.00000000  0.42771500  0.75000000  1
  N  N2  1  0.37698000  0.96764000  0.25000000  1
  N  N3  1  0.37698000  0.65538100  0.75000000  1
  N  N4  1  0.62302000  0.03236000  0.75000000  1
  N  N5  1  0.62302000  0.34461900  0.25000000  1
  N  N6  1  0.00000000  0.12081000  0.95005300  1
  N  N7  1  0.00000000  0.87919000  0.04994700  1
  N  N8  1  0.00000000  0.12081000  0.54994700  1
  N  N9  1  0.00000000  0.87919000  0.45005300  1
  N  N10  1  0.37973400  0.47834500  0.87025300  1
  N  N11  1  0.37973400  0.14192100  0.12974700  1
  N  N12  1  0.37973400  0.47834500  0.62974700  1
  N  N13  1  0.37973400  0.14192100  0.37025300  1
  N  N14  1  0.62026600  0.52165500  0.12974700  1
  N  N15  1  0.62026600  0.85807900  0.87025300  1
  N  N16  1  0.62026600  0.52165500  0.37025300  1
  N  N17  1  0.62026600  0.85807900  0.62974700  1
loop_
_geom_bond_atom_site_label_1
_geom_bond_atom_site_label_2
_geom_bond_distance
_geom_bond_site_symmetry_2
C0 N2 1.178885 1_555
C0 N0 1.291645 1_655
C1 N3 1.178879 1_555
C1 N1 1.291645 1_655
C2 N4 1.178885 1_555
C2 N1 1.291645 1_555
C3 N5 1.178879 1_555
C3 N0 1.291645 1_555
C4 N10 1.179400 1_555
C4 N6 1.287780 1_655
C5 N11 1.179403 1_555
C5 N7 1.287776 1_645
C6 N12 1.179400 1_555
C6 N8 1.287780 1_655
C7 N13 1.179403 1_555
C7 N9 1.287776 1_645
C8 N14 1.179400 1_555
C8 N7 1.287780 1_555
C9 N15 1.179403 1_555
C9 N6 1.287776 1_565
C10 N16 1.179400 1_555
C10 N9 1.287780 1_555
C11 N17 1.179403 1_555
C11 N8 1.287776 1_565
N2 V0 2.072711 1_565
N3 V1 2.072721 1_555
N4 V1 2.072711 1_645
N5 V0 2.072721 1_655
N10 V1 2.063567 1_555
N11 V0 2.063567 1_555
N12 V1 2.063567 1_555
N13 V0 2.063567 1_555
N14 V0 2.063567 1_655
N15 V1 2.063567 1_655
N16 V0 2.063567 1_655
N17 V1 2.063567 1_655
