# generated using pymatgen
data_BaSr7Co5(CuO8)3
_symmetry_space_group_name_H-M   'P 1'
_cell_length_a   7.84763583
_cell_length_b   7.84763583
_cell_length_c   7.70585749
_cell_angle_alpha   89.96142264
_cell_angle_beta   89.96142264
_cell_angle_gamma   90.00841504
_symmetry_Int_Tables_number   1
_chemical_formula_structural   BaSr7Co5(CuO8)3
_chemical_formula_sum   'Ba1 Sr7 Co5 Cu3 O24'
_cell_volume   474.56800483
_cell_formula_units_Z   1
loop_
 _symmetry_equiv_pos_site_id
 _symmetry_equiv_pos_as_xyz
  1  'x, y, z'
loop_
 _atom_site_type_symbol
 _atom_site_label
 _atom_site_symmetry_multiplicity
 _atom_site_fract_x
 _atom_site_fract_y
 _atom_site_fract_z
 _atom_site_occupancy
  Ba  Ba0  1  0.24899600  0.24899600  0.75109800  1
  Sr  Sr0  1  0.24833200  0.75137100  0.75061500  1
  Sr  Sr1  1  0.75161500  0.75161500  0.75063400  1
  Sr  Sr2  1  0.75137100  0.24833200  0.75061500  1
  Sr  Sr3  1  0.24854600  0.75146300  0.24949200  1
  Sr  Sr4  1  0.75195900  0.75195900  0.24895900  1
  Sr  Sr5  1  0.24822400  0.24822400  0.24964100  1
  Sr  Sr6  1  0.75146300  0.24854600  0.24949200  1
  Co  Co0  1  0.50229100  0.50229100  0.00092500  1
  Co  Co1  1  0.99879800  0.99879800  0.49861500  1
  Co  Co2  1  0.50097800  0.99871600  0.49870800  1
  Co  Co3  1  0.99871600  0.50097800  0.49870800  1
  Co  Co4  1  0.50101100  0.50101100  0.49869200  1
  Cu  Cu0  1  0.99955100  0.99955100  0.00008900  1
  Cu  Cu1  1  0.50060500  0.00007200  0.00050600  1
  Cu  Cu2  1  0.00007200  0.50060500  0.00050600  1
  O  O0  1  0.99560900  0.99560900  0.73985000  1
  O  O1  1  0.50432900  0.99584900  0.73858200  1
  O  O2  1  0.99584900  0.50432900  0.73858200  1
  O  O3  1  0.50350800  0.50350800  0.76153000  1
  O  O4  1  0.99917400  0.99917400  0.25897300  1
  O  O5  1  0.50097100  0.99942200  0.26034600  1
  O  O6  1  0.99942200  0.50097100  0.26034600  1
  O  O7  1  0.50146200  0.50146200  0.23925300  1
  O  O8  1  0.99837300  0.74970200  0.00104400  1
  O  O9  1  0.50180700  0.75059900  0.00102200  1
  O  O10  1  0.99250600  0.25039100  0.00677600  1
  O  O11  1  0.50482400  0.25031100  0.00495900  1
  O  O12  1  0.99819800  0.75037300  0.49831600  1
  O  O13  1  0.50052500  0.74078100  0.49885300  1
  O  O14  1  0.99434900  0.24944500  0.49609800  1
  O  O15  1  0.50505200  0.25991200  0.49555300  1
  O  O16  1  0.25039100  0.99250600  0.00677600  1
  O  O17  1  0.74970200  0.99837300  0.00104400  1
  O  O18  1  0.25031100  0.50482400  0.00495900  1
  O  O19  1  0.75059900  0.50180700  0.00102200  1
  O  O20  1  0.24944500  0.99434900  0.49609800  1
  O  O21  1  0.75037300  0.99819800  0.49831600  1
  O  O22  1  0.25991200  0.50505200  0.49555300  1
  O  O23  1  0.74078100  0.50052500  0.49885300  1
loop_
_geom_bond_atom_site_label_1
_geom_bond_atom_site_label_2
_geom_bond_distance
_geom_bond_site_symmetry_2
Ba0 O14 2.803570 1_455
Ba0 O20 2.803570 1_545
Ba0 O18 2.804075 1_556
Ba0 O11 2.804075 1_556
Ba0 O0 2.813359 1_445
Ba0 O15 2.813766 1_555
Ba0 O22 2.813766 1_555
Ba0 O16 2.815688 1_546
Ba0 O10 2.815688 1_456
Ba0 O2 2.823495 1_455
Ba0 O1 2.823495 1_545
Ba0 O3 2.825646 1_555
Co0 O7 1.836536 1_555
Co0 O3 1.844780 1_554
Co0 O9 1.948636 1_555
Co0 O19 1.948636 1_555
Co0 O11 1.977774 1_555
Co0 O18 1.977774 1_555
Co1 O4 1.846648 1_555
Co1 O0 1.859226 1_555
Co1 O21 1.949557 1_555
Co1 O12 1.949557 1_555
Co1 O20 1.967384 1_655
Co1 O14 1.967384 1_565
Co2 O5 1.836788 1_555
Co2 O1 1.848761 1_555
Co2 O21 1.957166 1_555
Co2 O20 1.974348 1_555
Co2 O13 2.024182 1_555
Co2 O15 2.050143 1_565
Co3 O6 1.836788 1_555
Co3 O2 1.848761 1_555
Co3 O12 1.957166 1_555
Co3 O14 1.974348 1_555
Co3 O23 2.024182 1_555
Co3 O22 2.050143 1_655
Co4 O13 1.881633 1_555
Co4 O23 1.881633 1_555
Co4 O22 1.892498 1_555
Co4 O15 1.892498 1_555
Co4 O7 1.999201 1_555
Co4 O3 2.025608 1_555
Cu0 O17 1.960753 1_555
Cu0 O8 1.960753 1_555
Cu0 O16 1.969993 1_655
Cu0 O10 1.969993 1_565
Cu0 O4 1.994924 1_555
Cu0 O0 2.005883 1_554
Cu1 O17 1.954877 1_545
Cu1 O9 1.957799 1_545
Cu1 O11 1.964382 1_555
Cu1 O16 1.965038 1_545
Cu1 O5 2.002297 1_545
Cu1 O1 2.018835 1_544
Cu2 O8 1.954877 1_455
Cu2 O19 1.957799 1_455
Cu2 O18 1.964382 1_555
Cu2 O10 1.965038 1_455
Cu2 O6 2.002297 1_455
Cu2 O2 2.018835 1_454
O0 Sr1 2.708899 1_555
O0 Sr0 2.759547 1_655
O0 Sr2 2.759547 1_565
O1 Sr1 2.729336 1_555
O1 Sr2 2.773522 1_565
O1 Sr0 2.779185 1_555
O2 Sr1 2.729336 1_555
O2 Sr0 2.773522 1_655
O2 Sr2 2.779185 1_555
O3 Sr1 2.754547 1_555
O3 Sr2 2.793190 1_555
O3 Sr0 2.793190 1_555
O4 Sr4 2.744607 1_555
O4 Sr6 2.759556 1_565
O4 Sr3 2.759556 1_655
O4 Sr5 2.764679 1_665
O5 Sr4 2.767626 1_555
O5 Sr6 2.773416 1_565
O5 Sr3 2.777935 1_555
O5 Sr5 2.784667 1_565
O6 Sr4 2.767626 1_555
O6 Sr3 2.773416 1_655
O6 Sr6 2.777935 1_555
O6 Sr5 2.784667 1_655
O7 Sr4 2.780947 1_555
O7 Sr6 2.792111 1_555
O7 Sr3 2.792111 1_555
O7 Sr5 2.811352 1_555
O8 Sr4 2.717438 1_555
O8 Sr1 2.734699 1_554
O8 Sr3 2.743178 1_655
O8 Sr0 2.750794 1_654
O9 Sr4 2.740296 1_555
O9 Sr1 2.749712 1_554
O9 Sr3 2.758818 1_555
O9 Sr0 2.772253 1_554
O10 Sr6 2.659280 1_555
O10 Sr2 2.735455 1_554
O10 Sr5 2.744984 1_655
O11 Sr6 2.702238 1_555
O11 Sr2 2.753187 1_554
O11 Sr5 2.757745 1_555
O12 Sr4 2.726073 1_555
O12 Sr1 2.742271 1_555
O12 Sr3 2.744306 1_655
O12 Sr0 2.763741 1_655
O13 Sr4 2.757497 1_555
O13 Sr3 2.759449 1_555
O13 Sr1 2.767599 1_555
O13 Sr0 2.771764 1_555
O14 Sr6 2.692446 1_555
O14 Sr2 2.734501 1_555
O14 Sr5 2.751577 1_655
O15 Sr6 2.708856 1_555
O15 Sr2 2.759137 1_555
O15 Sr5 2.768904 1_555
O16 Sr3 2.659280 1_555
O16 Sr0 2.735455 1_554
O16 Sr5 2.744984 1_565
O17 Sr4 2.717438 1_555
O17 Sr1 2.734699 1_554
O17 Sr6 2.743178 1_565
O17 Sr2 2.750794 1_564
O18 Sr3 2.702238 1_555
O18 Sr0 2.753187 1_554
O18 Sr5 2.757745 1_555
O19 Sr4 2.740296 1_555
O19 Sr1 2.749712 1_554
O19 Sr6 2.758818 1_555
O19 Sr2 2.772253 1_554
O20 Sr3 2.692446 1_555
O20 Sr0 2.734501 1_555
O20 Sr5 2.751577 1_565
O21 Sr4 2.726073 1_555
O21 Sr1 2.742271 1_555
O21 Sr6 2.744306 1_565
O21 Sr2 2.763741 1_565
O22 Sr3 2.708856 1_555
O22 Sr0 2.759137 1_555
O22 Sr5 2.768904 1_555
O23 Sr4 2.757497 1_555
O23 Sr6 2.759449 1_555
O23 Sr1 2.767599 1_555
O23 Sr2 2.771764 1_555
