# generated using pymatgen
data_Ba2YbCl7
_symmetry_space_group_name_H-M   'P 1'
_cell_length_a   5.95635341
_cell_length_b   11.16966697
_cell_length_c   16.71914100
_cell_angle_alpha   90.00000000
_cell_angle_beta   90.00000000
_cell_angle_gamma   90.38199927
_symmetry_Int_Tables_number   1
_chemical_formula_structural   Ba2YbCl7
_chemical_formula_sum   'Ba8 Yb4 Cl28'
_cell_volume   1112.30781913
_cell_formula_units_Z   4
loop_
 _symmetry_equiv_pos_site_id
 _symmetry_equiv_pos_as_xyz
  1  'x, y, z'
loop_
 _atom_site_type_symbol
 _atom_site_label
 _atom_site_symmetry_multiplicity
 _atom_site_fract_x
 _atom_site_fract_y
 _atom_site_fract_z
 _atom_site_occupancy
  Ba  Ba0  1  0.24891300  0.94444600  0.78773000  1
  Ba  Ba1  1  0.75108700  0.05555400  0.21227000  1
  Ba  Ba2  1  0.75108700  0.55555400  0.28773000  1
  Ba  Ba3  1  0.24891300  0.44444600  0.71227000  1
  Ba  Ba4  1  0.74524600  0.68170000  0.93666000  1
  Ba  Ba5  1  0.25475400  0.31830000  0.06334000  1
  Ba  Ba6  1  0.25475400  0.81830000  0.43666000  1
  Ba  Ba7  1  0.74524600  0.18170000  0.56334000  1
  Yb  Yb0  1  0.72866000  0.69892800  0.61583200  1
  Yb  Yb1  1  0.27134000  0.30107200  0.38416800  1
  Yb  Yb2  1  0.27134000  0.80107200  0.11583200  1
  Yb  Yb3  1  0.72866000  0.19892800  0.88416800  1
  Cl  Cl0  1  0.28481300  0.63160100  0.57366600  1
  Cl  Cl1  1  0.71518700  0.36839900  0.42633400  1
  Cl  Cl2  1  0.71518700  0.86839900  0.07366600  1
  Cl  Cl3  1  0.28481300  0.13160100  0.92633400  1
  Cl  Cl4  1  0.99513100  0.91981600  0.60445300  1
  Cl  Cl5  1  0.00486900  0.08018400  0.39554700  1
  Cl  Cl6  1  0.00486900  0.58018400  0.10445300  1
  Cl  Cl7  1  0.99513100  0.41981600  0.89554700  1
  Cl  Cl8  1  0.75919300  0.72067200  0.45318700  1
  Cl  Cl9  1  0.24080700  0.27932800  0.54681300  1
  Cl  Cl10  1  0.24080700  0.77932800  0.95318700  1
  Cl  Cl11  1  0.75919300  0.22067200  0.04681300  1
  Cl  Cl12  1  0.75462100  0.95610800  0.85690900  1
  Cl  Cl13  1  0.24537900  0.04389200  0.14309100  1
  Cl  Cl14  1  0.24537900  0.54389200  0.35690900  1
  Cl  Cl15  1  0.75462100  0.45610800  0.64309100  1
  Cl  Cl16  1  0.99335700  0.69154200  0.75927500  1
  Cl  Cl17  1  0.00664300  0.30845800  0.24072500  1
  Cl  Cl18  1  0.00664300  0.80845800  0.25927500  1
  Cl  Cl19  1  0.99335700  0.19154200  0.74072500  1
  Cl  Cl20  1  0.49831800  0.69229700  0.76302300  1
  Cl  Cl21  1  0.50168200  0.30770300  0.23697700  1
  Cl  Cl22  1  0.50168200  0.80770300  0.26302300  1
  Cl  Cl23  1  0.49831800  0.19229700  0.73697700  1
  Cl  Cl24  1  0.49796400  0.92324500  0.60497400  1
  Cl  Cl25  1  0.50203600  0.07675500  0.39502600  1
  Cl  Cl26  1  0.50203600  0.57675500  0.10497400  1
  Cl  Cl27  1  0.49796400  0.42324500  0.89502600  1
loop_
_geom_bond_atom_site_label_1
_geom_bond_atom_site_label_2
_geom_bond_distance
_geom_bond_site_symmetry_2
Ba0 Cl3 3.127275 1_565
Ba0 Cl12 3.166705 1_455
Ba0 Cl20 3.219548 1_555
Ba0 Cl12 3.228419 1_555
Ba0 Cl16 3.235093 1_455
Ba0 Cl23 3.245943 1_565
Ba0 Cl19 3.257017 1_465
Ba0 Cl10 3.324913 1_555
Ba0 Cl24 3.405520 1_555
Ba0 Cl4 3.427047 1_455
Ba1 Cl2 3.127275 1_545
Ba1 Cl13 3.166705 1_655
Ba1 Cl21 3.219548 1_555
Ba1 Cl13 3.228419 1_555
Ba1 Cl17 3.235093 1_655
Ba1 Cl22 3.245943 1_545
Ba1 Cl18 3.257017 1_645
Ba1 Cl11 3.324913 1_555
Ba1 Cl25 3.405520 1_555
Ba1 Cl5 3.427047 1_655
Ba2 Cl1 3.127275 1_555
Ba2 Cl14 3.166705 1_655
Ba2 Cl22 3.219548 1_555
Ba2 Cl14 3.228419 1_555
Ba2 Cl18 3.235093 1_655
Ba2 Cl21 3.245943 1_555
Ba2 Cl17 3.257017 1_655
Ba2 Cl8 3.324913 1_555
Ba2 Cl26 3.405520 1_555
Ba2 Cl6 3.427047 1_655
Ba3 Cl0 3.127275 1_555
Ba3 Cl15 3.166705 1_455
Ba3 Cl23 3.219548 1_555
Ba3 Cl15 3.228419 1_555
Ba3 Cl19 3.235093 1_455
Ba3 Cl20 3.245943 1_555
Ba3 Cl16 3.257017 1_455
Ba3 Cl9 3.324913 1_555
Ba3 Cl27 3.405520 1_555
Ba3 Cl7 3.427047 1_455
Ba4 Cl2 3.103665 1_556
Ba4 Cl10 3.152033 1_655
Ba4 Cl10 3.215104 1_555
Ba4 Cl20 3.256888 1_555
Ba4 Cl27 3.306238 1_555
Ba4 Cl16 3.315033 1_555
Ba4 Cl12 3.342636 1_555
Ba4 Cl7 3.361908 1_555
Ba4 Cl26 3.371787 1_556
Ba4 Cl6 3.401544 1_656
Ba5 Cl3 3.103665 1_554
Ba5 Cl11 3.152033 1_455
Ba5 Cl11 3.215104 1_555
Ba5 Cl21 3.256888 1_555
Ba5 Cl26 3.306238 1_555
Ba5 Cl17 3.315033 1_555
Ba5 Cl13 3.342636 1_555
Ba5 Cl6 3.361908 1_555
Ba5 Cl27 3.371787 1_554
Ba5 Cl7 3.401544 1_454
Ba6 Cl0 3.103665 1_555
Ba6 Cl8 3.152033 1_455
Ba6 Cl8 3.215104 1_555
Ba6 Cl22 3.256888 1_555
Ba6 Cl25 3.306238 1_565
Ba6 Cl18 3.315033 1_555
Ba6 Cl14 3.342636 1_555
Ba6 Cl5 3.361908 1_565
Ba6 Cl24 3.371787 1_555
Ba6 Cl4 3.401544 1_455
Ba7 Cl1 3.103665 1_555
Ba7 Cl9 3.152033 1_655
Ba7 Cl9 3.215104 1_555
Ba7 Cl23 3.256888 1_555
Ba7 Cl24 3.306238 1_545
Ba7 Cl19 3.315033 1_555
Ba7 Cl15 3.342636 1_555
Ba7 Cl4 3.361908 1_545
Ba7 Cl25 3.371787 1_555
Ba7 Cl5 3.401544 1_655
Cl0 Yb0 2.832882 1_555
Cl0 Yb0 3.474098 1_455
Cl1 Yb1 2.832882 1_555
Cl1 Yb1 3.474098 1_655
Cl2 Yb2 2.832882 1_555
Cl2 Yb2 3.474098 1_655
Cl3 Yb3 2.832882 1_555
Cl3 Yb3 3.474098 1_455
Cl4 Yb0 2.930950 1_555
Cl5 Yb1 2.930950 1_555
Cl6 Yb2 2.930950 1_555
Cl7 Yb3 2.930950 1_555
Cl8 Yb0 2.736052 1_555
Cl9 Yb1 2.736052 1_555
Cl10 Yb2 2.736052 1_556
Cl11 Yb3 2.736052 1_554
Cl12 Yb3 2.755601 1_565
Cl13 Yb2 2.755601 1_545
Cl14 Yb1 2.755601 1_555
Cl15 Yb0 2.755601 1_555
Cl16 Yb0 2.871563 1_555
Cl17 Yb1 2.871563 1_555
Cl18 Yb2 2.871563 1_555
Cl19 Yb3 2.871563 1_555
Cl20 Yb0 2.818257 1_555
Cl21 Yb1 2.818257 1_555
Cl22 Yb2 2.818257 1_555
Cl23 Yb3 2.818257 1_555
Cl24 Yb0 2.871375 1_555
Cl25 Yb1 2.871375 1_555
Cl26 Yb2 2.871375 1_555
Cl27 Yb3 2.871375 1_555
