# generated using pymatgen
data_CaTlHg2
_symmetry_space_group_name_H-M   'P 1'
_cell_length_a   12.75466180
_cell_length_b   12.75466180
_cell_length_c   12.75466180
_cell_angle_alpha   120.84459602
_cell_angle_beta   117.33930599
_cell_angle_gamma   91.60619195
_symmetry_Int_Tables_number   1
_chemical_formula_structural   CaTlHg2
_chemical_formula_sum   'Ca1 Tl1 Hg2'
_cell_volume   1485.03316433
_cell_formula_units_Z   1
loop_
 _symmetry_equiv_pos_site_id
 _symmetry_equiv_pos_as_xyz
  1  'x, y, z'
loop_
 _atom_site_type_symbol
 _atom_site_label
 _atom_site_symmetry_multiplicity
 _atom_site_fract_x
 _atom_site_fract_y
 _atom_site_fract_z
 _atom_site_occupancy
  Ca  Ca0  1  0.00000000  0.00000000  0.00000000  1
  Tl  Tl0  1  0.50000000  0.00000000  0.50000000  1
  Hg  Hg0  1  0.74670900  0.00000000  0.74670900  1
  Hg  Hg1  1  0.25329100  0.00000000  0.25329100  1
loop_
_geom_bond_atom_site_label_1
_geom_bond_atom_site_label_2
_geom_bond_distance
_geom_bond_site_symmetry_2
Ca0 Hg1 3.359683 1_555
Ca0 Hg0 3.359683 1_454
Hg0 Tl0 3.272379 1_555
Hg1 Tl0 3.272379 1_555
