# generated using pymatgen
data_YbAl7Fe5
_symmetry_space_group_name_H-M   'P 1'
_cell_length_a   4.96751924
_cell_length_b   6.59637362
_cell_length_c   6.59637362
_cell_angle_alpha   98.14664029
_cell_angle_beta   112.11915681
_cell_angle_gamma   67.88084319
_symmetry_Int_Tables_number   1
_chemical_formula_structural   YbAl7Fe5
_chemical_formula_sum   'Yb1 Al7 Fe5'
_cell_volume   185.50249559
_cell_formula_units_Z   1
loop_
 _symmetry_equiv_pos_site_id
 _symmetry_equiv_pos_as_xyz
  1  'x, y, z'
loop_
 _atom_site_type_symbol
 _atom_site_label
 _atom_site_symmetry_multiplicity
 _atom_site_fract_x
 _atom_site_fract_y
 _atom_site_fract_z
 _atom_site_occupancy
  Yb  Yb0  1  0.00522884  0.99477116  0.00522884  1
  Al  Al0  1  0.65998121  0.34001879  0.65998121  1
  Al  Al1  1  0.33924609  0.66075391  0.33924609  1
  Al  Al2  1  0.99317332  0.34969301  0.33603864  1
  Al  Al3  1  0.99317332  0.66396136  0.65030699  1
  Al  Al4  1  0.27374650  0.22625350  0.77374650  1
  Al  Al5  1  0.50347050  0.78747090  0.79441191  1
  Al  Al6  1  0.50347050  0.20558809  0.21252910  1
  Fe  Fe0  1  0.49812669  0.00149281  0.49846581  1
  Fe  Fe1  1  0.99884730  0.00149281  0.49846581  1
  Fe  Fe2  1  0.49812669  0.50153419  0.99850719  1
  Fe  Fe3  1  0.99884730  0.50153419  0.99850719  1
  Fe  Fe4  1  0.73456374  0.76543626  0.23456374  1
loop_
_geom_bond_atom_site_label_1
_geom_bond_atom_site_label_2
_geom_bond_distance
_geom_bond_site_symmetry_2
Al0 Fe2 2.607822 1_555
Al0 Fe0 2.607822 1_555
Al0 Fe1 2.607824 1_555
Al0 Fe3 2.607824 1_555
Al0 Al4 2.671256 1_555
Al0 Al4 2.671257 1_655
Al0 Al1 2.771716 1_555
Al0 Al6 2.855137 1_555
Al0 Al5 2.855137 1_555
Al0 Yb0 2.983547 1_646
Al1 Fe1 2.611604 1_465
Al1 Fe3 2.611604 1_454
Al1 Fe0 2.611607 1_565
Al1 Fe2 2.611607 1_554
Al1 Fe4 2.643376 1_555
Al1 Fe4 2.643376 1_455
Al1 Yb0 2.886497 1_555
Al1 Al5 2.887312 1_555
Al1 Al6 2.887312 1_555
Al2 Fe3 2.581041 1_554
Al2 Fe2 2.581042 1_554
Al2 Fe4 2.615098 1_555
Al2 Fe1 2.655237 1_555
Al2 Fe0 2.655237 1_655
Al2 Al3 2.716056 1_555
Al2 Al6 2.741220 1_655
Al2 Al6 2.741225 1_555
Al2 Al4 2.779059 1_655
Al2 Yb0 2.965039 1_645
Al3 Fe1 2.581041 1_565
Al3 Fe0 2.581042 1_565
Al3 Fe4 2.615098 1_555
Al3 Fe3 2.655237 1_555
Al3 Fe2 2.655237 1_655
Al3 Al5 2.741220 1_655
Al3 Al5 2.741225 1_555
Al3 Al4 2.779059 1_655
Al3 Yb0 2.965039 1_656
Al4 Fe3 2.500902 1_455
Al4 Fe1 2.500902 1_455
Al4 Fe2 2.500905 1_555
Al4 Fe0 2.500905 1_555
Al4 Al5 2.684318 1_545
Al4 Al6 2.684318 1_556
Al4 Yb0 3.189157 1_546
Al4 Yb0 3.189157 1_646
Al5 Fe2 2.480934 1_555
Al5 Fe3 2.480937 1_555
Al5 Fe1 2.553155 1_465
Al5 Fe0 2.553157 1_565
Al5 Fe4 2.693081 1_556
Al5 Yb0 3.071442 1_556
Al5 Yb0 3.071442 1_656
Al6 Fe0 2.480934 1_555
Al6 Fe1 2.480937 1_555
Al6 Fe3 2.553155 1_454
Al6 Fe2 2.553157 1_554
Al6 Fe4 2.693081 1_545
Al6 Yb0 3.071442 1_545
Al6 Yb0 3.071442 1_645
Fe0 Fe1 2.480180 1_455
Fe0 Fe1 2.487339 1_555
Fe0 Fe4 2.495733 1_545
Fe0 Yb0 3.259519 1_545
Fe0 Yb0 3.337425 1_646
Fe1 Fe4 2.495735 1_545
Fe1 Yb0 3.259517 1_645
Fe1 Yb0 3.337427 1_646
Fe2 Fe3 2.480180 1_455
Fe2 Fe3 2.487339 1_555
Fe2 Fe4 2.495733 1_556
Fe2 Yb0 3.259519 1_556
Fe2 Yb0 3.337425 1_646
Fe3 Fe4 2.495735 1_556
Fe3 Yb0 3.259517 1_656
Fe3 Yb0 3.337427 1_646
Fe4 Yb0 3.177549 1_655
Fe4 Yb0 3.177549 1_555
