# generated using pymatgen
data_USeO10
_symmetry_space_group_name_H-M   'P 1'
_cell_length_a   9.45127872
_cell_length_b   9.45127872
_cell_length_c   12.53268926
_cell_angle_alpha   63.65381017
_cell_angle_beta   63.65381017
_cell_angle_gamma   66.36730499
_symmetry_Int_Tables_number   1
_chemical_formula_structural   USeO10
_chemical_formula_sum   'U4 Se4 O40'
_cell_volume   869.54624757
_cell_formula_units_Z   4
loop_
 _symmetry_equiv_pos_site_id
 _symmetry_equiv_pos_as_xyz
  1  'x, y, z'
loop_
 _atom_site_type_symbol
 _atom_site_label
 _atom_site_symmetry_multiplicity
 _atom_site_fract_x
 _atom_site_fract_y
 _atom_site_fract_z
 _atom_site_occupancy
  U  U0  1  0.98023500  0.66383300  0.24731900  1
  U  U1  1  0.33616700  0.01976500  0.25268100  1
  U  U2  1  0.01976500  0.33616700  0.75268100  1
  U  U3  1  0.66383300  0.98023500  0.74731900  1
  Se  Se0  1  0.77238400  0.37764100  0.56461300  1
  Se  Se1  1  0.62235900  0.22761600  0.93538700  1
  Se  Se2  1  0.22761600  0.62235900  0.43538700  1
  Se  Se3  1  0.37764100  0.77238400  0.06461300  1
  O  O0  1  0.88192700  0.43463500  0.41107700  1
  O  O1  1  0.56536500  0.11807300  0.08892300  1
  O  O2  1  0.11807300  0.56536500  0.58892300  1
  O  O3  1  0.43463500  0.88192700  0.91107700  1
  O  O4  1  0.83545900  0.43426500  0.64384400  1
  O  O5  1  0.56573500  0.16454100  0.85615600  1
  O  O6  1  0.16454100  0.56573500  0.35615600  1
  O  O7  1  0.43426500  0.83545900  0.14384400  1
  O  O8  1  0.57556400  0.45832100  0.59093100  1
  O  O9  1  0.54167900  0.42443600  0.90906900  1
  O  O10  1  0.42443600  0.54167900  0.40906900  1
  O  O11  1  0.45832100  0.57556400  0.09093100  1
  O  O12  1  0.81924300  0.17046800  0.61446400  1
  O  O13  1  0.82953200  0.18075700  0.88553600  1
  O  O14  1  0.18075700  0.82953200  0.38553600  1
  O  O15  1  0.17046800  0.81924300  0.11446400  1
  O  O16  1  0.85412900  0.77740800  0.35742400  1
  O  O17  1  0.22259200  0.14587100  0.14257600  1
  O  O18  1  0.14587100  0.22259200  0.64257600  1
  O  O19  1  0.77740800  0.85412900  0.85742400  1
  O  O20  1  0.10484400  0.51319300  0.16655900  1
  O  O21  1  0.48680700  0.89515600  0.33344100  1
  O  O22  1  0.89515600  0.48680700  0.83344100  1
  O  O23  1  0.51319300  0.10484400  0.66655900  1
  O  O24  1  0.74305100  0.48543600  0.22376200  1
  O  O25  1  0.51456400  0.25694900  0.27623800  1
  O  O26  1  0.25694900  0.51456400  0.77623800  1
  O  O27  1  0.48543600  0.74305100  0.72376200  1
  O  O28  1  0.87622900  0.76844900  0.12286000  1
  O  O29  1  0.23155100  0.12377100  0.37714000  1
  O  O30  1  0.12377100  0.23155100  0.87714000  1
  O  O31  1  0.76844900  0.87622900  0.62286000  1
  O  O32  1  0.80369200  0.20285600  0.19901900  1
  O  O33  1  0.79714400  0.19630800  0.30098100  1
  O  O34  1  0.19630800  0.79714400  0.80098100  1
  O  O35  1  0.20285600  0.80369200  0.69901900  1
  O  O36  1  0.76260200  0.48282500  0.12185100  1
  O  O37  1  0.51717500  0.23739800  0.37814900  1
  O  O38  1  0.23739800  0.51717500  0.87814900  1
  O  O39  1  0.48282500  0.76260200  0.62185100  1
loop_
_geom_bond_atom_site_label_1
_geom_bond_atom_site_label_2
_geom_bond_distance
_geom_bond_site_symmetry_2
O0 Se0 1.680346 1_555
O0 U0 2.396445 1_555
O1 Se1 1.680346 1_554
O1 U1 2.396445 1_555
O2 Se2 1.680346 1_555
O2 U2 2.396445 1_555
O3 Se3 1.680346 1_556
O3 U3 2.396445 1_555
O4 Se0 1.697251 1_555
O4 U2 2.333682 1_655
O5 Se1 1.697251 1_555
O5 U3 2.333682 1_545
O6 Se2 1.697251 1_555
O6 U0 2.333682 1_455
O7 Se3 1.697251 1_555
O7 U1 2.333682 1_565
O8 Se0 1.640731 1_555
O9 Se1 1.640731 1_555
O10 Se2 1.640731 1_555
O11 Se3 1.640731 1_555
O12 Se0 1.698518 1_555
O12 U3 2.334918 1_545
O13 Se1 1.698518 1_555
O13 U2 2.334918 1_655
O14 Se2 1.698518 1_555
O14 U1 2.334918 1_565
O15 Se3 1.698518 1_555
O15 U0 2.334918 1_455
O16 U0 1.818283 1_555
O17 U1 1.818283 1_555
O18 U2 1.818283 1_555
O19 U3 1.818283 1_555
O20 U0 1.820759 1_455
O21 U1 1.820759 1_565
O22 U2 1.820759 1_655
O23 U3 1.820759 1_545
O24 O36 1.216916 1_555
O25 O37 1.216916 1_555
O26 O38 1.216916 1_555
O27 O39 1.216916 1_555
O28 U0 1.894644 1_555
O29 U1 1.894644 1_555
O30 U2 1.894644 1_555
O31 U3 1.894644 1_555
O32 O33 1.226078 1_555
O34 O35 1.226078 1_555
