# generated using pymatgen
data_Li9Mn2Co5O16
_symmetry_space_group_name_H-M   'P 1'
_cell_length_a   2.97327800
_cell_length_b   5.95917190
_cell_length_c   16.16393321
_cell_angle_alpha   90.65740695
_cell_angle_beta   90.96277718
_cell_angle_gamma   94.17701706
_symmetry_Int_Tables_number   1
_chemical_formula_structural   Li9Mn2Co5O16
_chemical_formula_sum   'Li9 Mn2 Co5 O16'
_cell_volume   285.57279545
_cell_formula_units_Z   1
loop_
 _symmetry_equiv_pos_site_id
 _symmetry_equiv_pos_as_xyz
  1  'x, y, z'
loop_
 _atom_site_type_symbol
 _atom_site_label
 _atom_site_symmetry_multiplicity
 _atom_site_fract_x
 _atom_site_fract_y
 _atom_site_fract_z
 _atom_site_occupancy
  Li  Li0  1  0.99641900  0.49520000  0.00460300  1
  Li  Li1  1  0.49646300  0.75953700  0.12926400  1
  Li  Li2  1  0.00143500  0.00603800  0.24514000  1
  Li  Li3  1  0.50198800  0.24909400  0.87312300  1
  Li  Li4  1  0.99908100  0.99854000  0.75106000  1
  Li  Li5  1  0.50041400  0.75012500  0.62413500  1
  Li  Li6  1  0.00016300  0.50208000  0.49775300  1
  Li  Li7  1  0.50101600  0.24990600  0.37415900  1
  Li  Li8  1  0.50733200  0.24095300  0.12841800  1
  Mn  Mn0  1  0.99705300  0.00584700  0.00413400  1
  Mn  Mn1  1  0.50018800  0.24991400  0.62462100  1
  Co  Co0  1  0.00325600  0.49127300  0.24493800  1
  Co  Co1  1  0.49831400  0.75022500  0.37348000  1
  Co  Co2  1  0.00221900  0.99624500  0.49856500  1
  Co  Co3  1  0.99749600  0.50219800  0.75086600  1
  Co  Co4  1  0.49088400  0.75245700  0.87448300  1
  O  O0  1  0.47459400  0.77686900  0.99500800  1
  O  O1  1  0.00567600  0.99636700  0.11593200  1
  O  O2  1  0.52877900  0.27033400  0.25115300  1
  O  O3  1  0.02615000  0.51427300  0.87080100  1
  O  O4  1  0.52713000  0.26251400  0.74655300  1
  O  O5  1  0.02851900  0.00398500  0.61891400  1
  O  O6  1  0.52725800  0.75922200  0.49288300  1
  O  O7  1  0.02575200  0.51443500  0.36533700  1
  O  O8  1  0.52307600  0.21984900  0.99955500  1
  O  O9  1  0.99815200  0.50419800  0.13720800  1
  O  O10  1  0.47638700  0.73679400  0.25624000  1
  O  O11  1  0.96930400  0.98453700  0.87995500  1
  O  O12  1  0.47520900  0.73696500  0.75638400  1
  O  O13  1  0.97177100  0.49564300  0.63127900  1
  O  O14  1  0.47334300  0.23849600  0.50308600  1
  O  O15  1  0.97518000  0.98588500  0.38097100  1
loop_
_geom_bond_atom_site_label_1
_geom_bond_atom_site_label_2
_geom_bond_distance
_geom_bond_site_symmetry_2
Li0 O8 2.082419 1_554
Li0 O0 2.128043 1_654
Li0 O9 2.143384 1_555
Li0 O3 2.169999 1_654
Li0 O8 2.350884 1_654
Li0 O0 2.371914 1_554
Li1 O1 2.009278 1_655
Li1 O9 2.051689 1_455
Li1 O10 2.060031 1_555
Li1 O1 2.112832 1_555
Li1 O0 2.173852 1_554
Li1 O9 2.210323 1_555
Li2 O1 2.088919 1_545
Li2 O2 2.140113 1_555
Li2 O10 2.166732 1_445
Li2 O2 2.188267 1_455
Li2 O15 2.202603 1_445
Li2 O10 2.220110 1_545
Li3 O4 2.050753 1_555
Li3 O8 2.053344 1_555
Li3 O3 2.138225 1_655
Li3 O11 2.156914 1_445
Li3 O11 2.178583 1_545
Li3 O3 2.196705 1_555
Li4 O11 2.089181 1_555
Li4 O12 2.125377 1_555
Li4 O5 2.139782 1_665
Li4 O4 2.142789 1_665
Li4 O12 2.182135 1_655
Li4 O4 2.183962 1_565
Li5 O5 2.102987 1_665
Li5 O13 2.108685 1_455
Li5 O6 2.125553 1_555
Li5 O5 2.138329 1_565
Li5 O13 2.141363 1_555
Li5 O12 2.142370 1_555
Li6 O6 2.113644 1_555
Li6 O14 2.139496 1_455
Li6 O7 2.144910 1_555
Li6 O6 2.155060 1_455
Li6 O13 2.162043 1_455
Li6 O14 2.185172 1_555
Li7 O2 1.996101 1_555
Li7 O14 2.088663 1_555
Li7 O15 2.140878 1_445
Li7 O7 2.143320 1_655
Li7 O15 2.190212 1_545
Li7 O7 2.196590 1_555
Li8 O2 1.989134 1_555
Li8 O1 2.014031 1_545
Li8 O9 2.065232 1_555
Li8 O8 2.086801 1_554
Li8 O1 2.162987 1_645
Li8 O9 2.262998 1_455
Mn0 O1 1.808436 1_645
Mn0 O8 1.947675 1_654
Mn0 O8 1.969341 1_554
Mn0 O0 1.993908 1_544
Mn0 O11 2.009709 1_544
Mn0 O0 2.045566 1_644
Mn1 O13 1.952973 1_555
Mn1 O5 1.953504 1_555
Mn1 O14 1.964960 1_555
Mn1 O4 1.971529 1_555
Mn1 O5 2.227349 1_655
Mn1 O13 2.227453 1_455
Co0 O9 1.743786 1_455
Co0 O2 1.863062 1_455
Co0 O7 1.949110 1_555
Co0 O10 1.959179 1_555
Co0 O2 2.117192 1_555
Co0 O10 2.228323 1_455
Co1 O10 1.895657 1_555
Co1 O7 1.915148 1_555
Co1 O15 1.922864 1_555
Co1 O6 1.930450 1_555
Co1 O15 2.174121 1_455
Co1 O7 2.185103 1_655
Co2 O15 1.901235 1_455
Co2 O6 1.923500 1_455
Co2 O14 1.936779 1_565
Co2 O5 1.945453 1_565
Co2 O6 2.182551 1_555
Co2 O14 2.212294 1_465
Co3 O12 1.919913 1_655
Co3 O4 1.924651 1_555
Co3 O13 1.933058 1_555
Co3 O3 1.939341 1_655
Co3 O12 2.166794 1_555
Co3 O4 2.203146 1_655
Co4 O3 1.907116 1_555
Co4 O12 1.909739 1_555
Co4 O11 1.910586 1_555
Co4 O0 1.953592 1_555
Co4 O11 2.154010 1_455
Co4 O3 2.209378 1_655
