# generated using pymatgen
data_MgSe2(NO7)2
_symmetry_space_group_name_H-M   'P 1'
_cell_length_a   9.08429900
_cell_length_b   7.83132000
_cell_length_c   12.83100353
_cell_angle_alpha   52.90420347
_cell_angle_beta   90.00000000
_cell_angle_gamma   90.00000000
_symmetry_Int_Tables_number   1
_chemical_formula_structural   MgSe2(NO7)2
_chemical_formula_sum   'Mg2 Se4 N4 O28'
_cell_volume   728.09408728
_cell_formula_units_Z   2
loop_
 _symmetry_equiv_pos_site_id
 _symmetry_equiv_pos_as_xyz
  1  'x, y, z'
loop_
 _atom_site_type_symbol
 _atom_site_label
 _atom_site_symmetry_multiplicity
 _atom_site_fract_x
 _atom_site_fract_y
 _atom_site_fract_z
 _atom_site_occupancy
  Mg  Mg0  1  0.50000000  0.50000000  0.50000000  1
  Mg  Mg1  1  0.00000000  0.50000000  0.00000000  1
  Se  Se0  1  0.35442300  0.38704700  0.93961200  1
  Se  Se1  1  0.85442300  0.61295300  0.56038800  1
  Se  Se2  1  0.64557700  0.61295300  0.06038800  1
  Se  Se3  1  0.14557700  0.38704700  0.43961200  1
  N  N0  1  0.19137400  0.30927900  0.23138500  1
  N  N1  1  0.69137400  0.69072100  0.26861500  1
  N  N2  1  0.80862600  0.69072100  0.76861500  1
  N  N3  1  0.30862600  0.30927900  0.73138500  1
  O  O0  1  0.20384100  0.51135700  0.93717100  1
  O  O1  1  0.70384100  0.48864300  0.56282900  1
  O  O2  1  0.79615900  0.48864300  0.06282900  1
  O  O3  1  0.29615900  0.51135700  0.43717100  1
  O  O4  1  0.48962500  0.55273500  0.85791900  1
  O  O5  1  0.98962500  0.44726500  0.64208100  1
  O  O6  1  0.51037500  0.44726500  0.14208100  1
  O  O7  1  0.01037500  0.55273500  0.35791900  1
  O  O8  1  0.25796300  0.28401100  0.83231100  1
  O  O9  1  0.75796300  0.71598900  0.66768900  1
  O  O10  1  0.74203700  0.71598900  0.16768900  1
  O  O11  1  0.24203700  0.28401100  0.33231100  1
  O  O12  1  0.38309200  0.14786300  0.07355100  1
  O  O13  1  0.88309200  0.85213700  0.42644900  1
  O  O14  1  0.61690800  0.85213700  0.92644900  1
  O  O15  1  0.11690800  0.14786300  0.57355100  1
  O  O16  1  0.57512600  0.58629000  0.31728600  1
  O  O17  1  0.07512600  0.41371000  0.18271400  1
  O  O18  1  0.42487400  0.41371000  0.68271400  1
  O  O19  1  0.92487400  0.58629000  0.81728600  1
  O  O20  1  0.41693000  0.98331400  0.34143500  1
  O  O21  1  0.91693000  0.01668600  0.15856500  1
  O  O22  1  0.58307000  0.01668600  0.65856500  1
  O  O23  1  0.08307000  0.98331400  0.84143500  1
  O  O24  1  0.51100100  0.15865400  0.56354600  1
  O  O25  1  0.01100100  0.84134600  0.93645400  1
  O  O26  1  0.48899900  0.84134600  0.43645400  1
  O  O27  1  0.98899900  0.15865400  0.06354600  1
loop_
_geom_bond_atom_site_label_1
_geom_bond_atom_site_label_2
_geom_bond_distance
_geom_bond_site_symmetry_2
Mg0 O1 2.000075 1_555
Mg0 O3 2.000075 1_555
Mg0 O18 2.123100 1_555
Mg0 O16 2.123100 1_555
Mg0 O26 2.278482 1_555
Mg0 O24 2.278482 1_555
Mg1 O0 2.000075 1_554
Mg1 O2 2.000075 1_455
Mg1 O19 2.123100 1_454
Mg1 O17 2.123100 1_555
Mg1 O25 2.278482 1_554
Mg1 O27 2.278482 1_455
N0 O17 1.248179 1_555
N0 O11 1.272335 1_555
N1 O16 1.248179 1_555
N1 O10 1.272335 1_555
N2 O19 1.248179 1_555
N2 O9 1.272335 1_555
N3 O18 1.248179 1_555
N3 O8 1.272335 1_555
O0 Se0 1.668281 1_555
O1 Se1 1.668281 1_555
O2 Se2 1.668281 1_555
O3 Se3 1.668281 1_555
O4 Se0 1.627945 1_555
O5 Se1 1.627945 1_555
O6 Se2 1.627945 1_555
O7 Se3 1.627945 1_555
O8 Se0 2.157451 1_555
O9 Se1 2.157451 1_555
O10 Se2 2.157451 1_555
O11 Se3 2.157451 1_555
O12 Se0 1.626874 1_554
O13 Se1 1.626874 1_555
O14 Se2 1.626874 1_556
O15 Se3 1.626874 1_555
O20 O26 1.231266 1_555
O21 O27 1.231266 1_555
O22 O24 1.231266 1_555
O23 O25 1.231266 1_555
