# generated using pymatgen
data_LaCo2AsN
_symmetry_space_group_name_H-M   'P 1'
_cell_length_a   5.84373063
_cell_length_b   5.84373063
_cell_length_c   6.95749600
_cell_angle_alpha   90.00000000
_cell_angle_beta   90.00000000
_cell_angle_gamma   142.36045200
_symmetry_Int_Tables_number   1
_chemical_formula_structural   LaCo2AsN
_chemical_formula_sum   'La2 Co4 As2 N2'
_cell_volume   145.09601848
_cell_formula_units_Z   2
loop_
 _symmetry_equiv_pos_site_id
 _symmetry_equiv_pos_as_xyz
  1  'x, y, z'
loop_
 _atom_site_type_symbol
 _atom_site_label
 _atom_site_symmetry_multiplicity
 _atom_site_fract_x
 _atom_site_fract_y
 _atom_site_fract_z
 _atom_site_occupancy
  La  La0  1  0.54330500  0.45669500  0.25000000  1
  La  La1  1  0.45669500  0.54330500  0.75000000  1
  Co  Co0  1  0.83632000  0.16368000  0.44733100  1
  Co  Co1  1  0.16368000  0.83632000  0.55266900  1
  Co  Co2  1  0.83632000  0.16368000  0.05266900  1
  Co  Co3  1  0.16368000  0.83632000  0.94733100  1
  As  As0  1  0.26983500  0.73016500  0.25000000  1
  As  As1  1  0.73016500  0.26983500  0.75000000  1
  N  N0  1  0.00000000  0.00000000  0.50000000  1
  N  N1  1  0.00000000  0.00000000  0.00000000  1
loop_
_geom_bond_atom_site_label_1
_geom_bond_atom_site_label_2
_geom_bond_distance
_geom_bond_site_symmetry_2
La0 N1 2.609347 1_555
La0 N0 2.609347 1_555
La0 N0 2.609347 1_665
La0 N1 2.609347 1_665
La1 N1 2.609347 1_556
La1 N0 2.609347 1_555
La1 N0 2.609347 1_665
La1 N1 2.609347 1_666
Co0 N0 1.847438 1_655
Co1 N0 1.847438 1_565
Co2 N1 1.847438 1_655
Co3 N1 1.847438 1_566
As0 Co1 2.411136 1_555
As0 Co3 2.411136 1_554
As0 Co0 2.445334 1_455
As0 Co2 2.445334 1_455
As0 Co0 2.445334 1_565
As0 Co2 2.445334 1_565
As0 La0 3.025296 1_555
As0 La0 3.135902 1_565
As0 La0 3.135902 1_455
As1 Co0 2.411136 1_555
As1 Co2 2.411136 1_556
As1 Co3 2.445334 1_545
As1 Co3 2.445334 1_655
As1 Co1 2.445334 1_545
As1 Co1 2.445334 1_655
As1 La1 3.025296 1_555
As1 La1 3.135902 1_655
As1 La1 3.135902 1_545
