# generated using pymatgen
data_YbEu(InCu4)2
_symmetry_space_group_name_H-M   'P 1'
_cell_length_a   5.13327845
_cell_length_b   5.13327845
_cell_length_c   8.84097335
_cell_angle_alpha   73.12337855
_cell_angle_beta   90.00000000
_cell_angle_gamma   120.00000000
_symmetry_Int_Tables_number   1
_chemical_formula_structural   YbEu(InCu4)2
_chemical_formula_sum   'Yb1 Eu1 In2 Cu8'
_cell_volume   190.07947763
_cell_formula_units_Z   1
loop_
 _symmetry_equiv_pos_site_id
 _symmetry_equiv_pos_as_xyz
  1  'x, y, z'
loop_
 _atom_site_type_symbol
 _atom_site_label
 _atom_site_symmetry_multiplicity
 _atom_site_fract_x
 _atom_site_fract_y
 _atom_site_fract_z
 _atom_site_occupancy
  Yb  Yb0  1  0.37476100  0.74952200  0.87571700  1
  Eu  Eu0  1  0.87540800  0.75081500  0.37377700  1
  In  In0  1  0.00168900  0.00337800  0.99493200  1
  In  In1  1  0.49827100  0.99654100  0.50518800  1
  Cu  Cu0  1  0.43917100  0.37911100  0.18171800  1
  Cu  Cu1  1  0.93741600  0.37012700  0.69245700  1
  Cu  Cu2  1  0.43917100  0.87834200  0.18171800  1
  Cu  Cu3  1  0.93741600  0.87483300  0.69245700  1
  Cu  Cu4  1  0.18661600  0.37323100  0.44015300  1
  Cu  Cu5  1  0.68743100  0.37486100  0.93770800  1
  Cu  Cu6  1  0.93994000  0.37911100  0.18171800  1
  Cu  Cu7  1  0.43271000  0.37012700  0.69245700  1
loop_
_geom_bond_atom_site_label_1
_geom_bond_atom_site_label_2
_geom_bond_distance
_geom_bond_site_symmetry_2
Eu0 In0 3.155561 1_664
Eu0 In1 3.159370 1_655
Eu0 In1 3.159370 1_555
Eu0 In1 3.159370 1_545
In0 Yb0 3.125626 1_545
In0 Yb0 3.125626 1_445
In0 Yb0 3.125631 1_555
In1 Yb0 3.086293 1_555
Cu0 Cu5 2.516655 1_554
Cu0 Cu2 2.562692 1_555
Cu0 Cu6 2.562692 1_455
Cu0 Cu2 2.570587 1_545
Cu0 Cu6 2.570587 1_555
Cu0 Cu4 2.612062 1_555
Cu0 Yb0 2.947130 1_554
Cu0 In0 3.001367 1_664
Cu0 In0 3.001371 1_554
Cu0 Eu0 3.024370 1_555
Cu0 Eu0 3.024370 1_445
Cu0 In1 3.076037 1_545
Cu1 Cu5 2.531881 1_555
Cu1 Cu7 2.542482 1_655
Cu1 Cu3 2.542482 1_545
Cu1 Cu4 2.563446 1_655
Cu1 Cu3 2.590796 1_555
Cu1 Cu7 2.590796 1_555
Cu1 In0 2.915878 1_655
Cu1 Yb0 2.986282 1_655
Cu1 Yb0 2.986282 1_545
Cu1 In1 3.003488 1_545
Cu1 In1 3.003488 1_655
Cu1 Eu0 3.046858 1_555
Cu2 Cu5 2.516652 1_564
Cu2 Cu6 2.562692 1_455
Cu2 Cu6 2.570587 1_565
Cu2 Cu4 2.612065 1_555
Cu2 Yb0 2.947129 1_554
Cu2 In0 3.001369 1_564
Cu2 In0 3.001369 1_664
Cu2 Eu0 3.024368 1_455
Cu2 Eu0 3.024372 1_555
Cu2 In1 3.076034 1_555
Cu3 Cu5 2.531886 1_555
Cu3 Cu7 2.542482 1_665
Cu3 Cu4 2.563441 1_665
Cu3 Cu7 2.590796 1_555
Cu3 In0 2.915873 1_665
Cu3 Yb0 2.986280 1_555
Cu3 Yb0 2.986284 1_655
Cu3 In1 3.003484 1_555
Cu3 In1 3.003493 1_655
Cu3 Eu0 3.046862 1_555
Cu4 Cu7 2.563441 1_555
Cu4 Cu6 2.612065 1_455
Cu4 In1 3.012799 1_555
Cu4 In1 3.012799 1_445
Cu4 In1 3.012799 1_545
Cu4 Eu0 3.014828 1_445
Cu4 Eu0 3.014828 1_555
Cu4 Eu0 3.014828 1_455
Cu5 Cu6 2.516652 1_556
Cu5 Cu7 2.531886 1_555
Cu5 In0 3.001782 1_665
Cu5 In0 3.001782 1_655
Cu5 In0 3.001786 1_555
Cu5 Yb0 3.008342 1_545
Cu5 Yb0 3.008342 1_655
Cu5 Yb0 3.008347 1_555
Cu6 Yb0 2.947130 1_654
Cu6 In0 3.001367 1_664
Cu6 In0 3.001371 1_654
Cu6 Eu0 3.024368 1_555
Cu6 Eu0 3.024372 1_545
Cu6 In1 3.076034 1_545
Cu7 In0 2.915875 1_555
Cu7 Yb0 2.986280 1_555
Cu7 Yb0 2.986285 1_545
Cu7 In1 3.003484 1_555
Cu7 In1 3.003492 1_545
Cu7 Eu0 3.046862 1_555
