# generated using pymatgen
data_Ba3(AlP2)2
_symmetry_space_group_name_H-M   'P 1'
_cell_length_a   7.33620708
_cell_length_b   11.61234077
_cell_length_c   11.68887967
_cell_angle_alpha   90.00000000
_cell_angle_beta   90.00000000
_cell_angle_gamma   90.00000000
_symmetry_Int_Tables_number   1
_chemical_formula_structural   Ba3(AlP2)2
_chemical_formula_sum   'Ba12 Al8 P16'
_cell_volume   995.78193102
_cell_formula_units_Z   4
loop_
 _symmetry_equiv_pos_site_id
 _symmetry_equiv_pos_as_xyz
  1  'x, y, z'
loop_
 _atom_site_type_symbol
 _atom_site_label
 _atom_site_symmetry_multiplicity
 _atom_site_fract_x
 _atom_site_fract_y
 _atom_site_fract_z
 _atom_site_occupancy
  Ba  Ba0  1  0.57857775  0.07822952  0.36022338  1
  Ba  Ba1  1  0.07857775  0.42177048  0.13977662  1
  Ba  Ba2  1  0.42142225  0.57822952  0.63977662  1
  Ba  Ba3  1  0.92142225  0.92177048  0.86022338  1
  Ba  Ba4  1  0.42142225  0.92177048  0.63977662  1
  Ba  Ba5  1  0.92142225  0.57822952  0.86022338  1
  Ba  Ba6  1  0.57857775  0.42177048  0.36022338  1
  Ba  Ba7  1  0.07857775  0.07822952  0.13977662  1
  Ba  Ba8  1  0.59693168  0.25000000  0.73278657  1
  Ba  Ba9  1  0.09693168  0.25000000  0.76721343  1
  Ba  Ba10  1  0.40306832  0.75000000  0.26721343  1
  Ba  Ba11  1  0.90306832  0.75000000  0.23278657  1
  Al  Al0  1  0.55819086  0.12487731  0.03533007  1
  Al  Al1  1  0.05819086  0.37512269  0.46466993  1
  Al  Al2  1  0.44180914  0.62487731  0.96466993  1
  Al  Al3  1  0.94180914  0.87512269  0.53533007  1
  Al  Al4  1  0.44180914  0.87512269  0.96466993  1
  Al  Al5  1  0.94180914  0.62487731  0.53533007  1
  Al  Al6  1  0.55819086  0.37512269  0.03533007  1
  Al  Al7  1  0.05819086  0.12487731  0.46466993  1
  P  P0  1  0.65189103  0.55608970  0.11154627  1
  P  P1  1  0.15189103  0.94391030  0.38845373  1
  P  P2  1  0.34810897  0.05608970  0.88845373  1
  P  P3  1  0.84810897  0.44391030  0.61154627  1
  P  P4  1  0.34810897  0.44391030  0.88845373  1
  P  P5  1  0.84810897  0.05608970  0.61154627  1
  P  P6  1  0.65189103  0.94391030  0.11154627  1
  P  P7  1  0.15189103  0.55608970  0.38845373  1
  P  P8  1  0.80409703  0.25000000  0.97209322  1
  P  P9  1  0.30409703  0.25000000  0.52790678  1
  P  P10  1  0.19590297  0.75000000  0.02790678  1
  P  P11  1  0.69590297  0.75000000  0.47209322  1
  P  P12  1  0.91139610  0.25000000  0.33302862  1
  P  P13  1  0.41139610  0.25000000  0.16697138  1
  P  P14  1  0.08860390  0.75000000  0.66697138  1
  P  P15  1  0.58860390  0.75000000  0.83302862  1
loop_
_geom_bond_atom_site_label_1
_geom_bond_atom_site_label_2
_geom_bond_distance
_geom_bond_site_symmetry_2
Ba0 P12 3.168790 1_555
Ba0 P13 3.253542 1_555
Ba0 P6 3.342359 1_545
Ba0 P9 3.446035 1_555
Ba0 P1 3.512874 1_545
Ba0 P5 3.550485 1_555
Ba1 P13 3.168790 1_555
Ba1 P12 3.253542 1_455
Ba1 P7 3.342359 1_555
Ba1 P8 3.446035 1_454
Ba1 P0 3.512874 1_455
Ba1 P4 3.550485 1_554
Ba2 P14 3.168790 1_555
Ba2 P15 3.253542 1_555
Ba2 P4 3.342359 1_555
Ba2 P11 3.446035 1_555
Ba2 P3 3.512874 1_555
Ba2 P7 3.550485 1_555
Ba3 P15 3.168790 1_555
Ba3 P14 3.253542 1_655
Ba3 P5 3.342359 1_565
Ba3 P10 3.446035 1_656
Ba3 P2 3.512874 1_665
Ba3 P6 3.550485 1_556
Ba4 P14 3.168790 1_555
Ba4 P15 3.253542 1_555
Ba4 P2 3.342359 1_565
Ba4 P11 3.446035 1_555
Ba4 P5 3.512874 1_565
Ba4 P1 3.550485 1_555
Ba5 P15 3.168790 1_555
Ba5 P14 3.253542 1_655
Ba5 P3 3.342359 1_555
Ba5 P10 3.446035 1_656
Ba5 P4 3.512874 1_655
Ba5 P0 3.550485 1_556
Ba6 P12 3.168790 1_555
Ba6 P13 3.253542 1_555
Ba6 P0 3.342359 1_555
Ba6 P9 3.446035 1_555
Ba6 P7 3.512874 1_555
Ba6 P3 3.550485 1_555
Ba7 P13 3.168790 1_555
Ba7 P12 3.253542 1_455
Ba7 P1 3.342359 1_545
Ba7 P8 3.446035 1_454
Ba7 P6 3.512874 1_445
Ba7 P2 3.550485 1_554
Ba8 P8 3.183440 1_555
Ba8 P9 3.217190 1_555
Ba8 P3 3.236393 1_555
Ba8 P5 3.236393 1_555
Ba8 P2 3.422482 1_555
Ba8 P4 3.422482 1_555
Ba9 P9 3.183440 1_555
Ba9 P8 3.217190 1_455
Ba9 P4 3.236393 1_555
Ba9 P2 3.236393 1_555
Ba9 P3 3.422482 1_455
Ba9 P5 3.422482 1_455
Ba10 P10 3.183440 1_555
Ba10 P11 3.217190 1_555
Ba10 P1 3.236393 1_555
Ba10 P7 3.236393 1_555
Ba10 P6 3.422482 1_555
Ba10 P0 3.422482 1_555
Ba11 P11 3.183440 1_555
Ba11 P10 3.217190 1_655
Ba11 P0 3.236393 1_555
Ba11 P6 3.236393 1_555
Ba11 P1 3.422482 1_655
Ba11 P7 3.422482 1_655
Al0 P13 2.374570 1_555
Al0 P6 2.383755 1_545
Al0 P8 2.431454 1_554
Al0 P2 2.441483 1_554
Al1 P12 2.374570 1_455
Al1 P7 2.383755 1_555
Al1 P9 2.431454 1_555
Al1 P3 2.441483 1_455
Al2 P15 2.374570 1_555
Al2 P4 2.383755 1_555
Al2 P10 2.431454 1_556
Al2 P0 2.441483 1_556
Al3 P14 2.374570 1_655
Al3 P5 2.383755 1_565
Al3 P11 2.431454 1_555
Al3 P1 2.441483 1_655
Al4 P15 2.374570 1_555
Al4 P2 2.383755 1_565
Al4 P10 2.431454 1_556
Al4 P6 2.441483 1_556
Al5 P14 2.374570 1_655
Al5 P3 2.383755 1_555
Al5 P11 2.431454 1_555
Al5 P7 2.441483 1_655
Al6 P13 2.374570 1_555
Al6 P0 2.383755 1_555
Al6 P8 2.431454 1_554
Al6 P4 2.441483 1_554
Al7 P12 2.374570 1_455
Al7 P1 2.383755 1_545
Al7 P9 2.431454 1_555
Al7 P5 2.441483 1_455
