# generated using pymatgen
data_Yb5CdCu2
_symmetry_space_group_name_H-M   'P 1'
_cell_length_a   9.05766045
_cell_length_b   9.05766045
_cell_length_c   9.05766045
_cell_angle_alpha   129.14682774
_cell_angle_beta   129.14682774
_cell_angle_gamma   74.77443621
_symmetry_Int_Tables_number   1
_chemical_formula_structural   Yb5CdCu2
_chemical_formula_sum   'Yb10 Cd2 Cu4'
_cell_volume   435.37242136
_cell_formula_units_Z   2
loop_
 _symmetry_equiv_pos_site_id
 _symmetry_equiv_pos_as_xyz
  1  'x, y, z'
loop_
 _atom_site_type_symbol
 _atom_site_label
 _atom_site_symmetry_multiplicity
 _atom_site_fract_x
 _atom_site_fract_y
 _atom_site_fract_z
 _atom_site_occupancy
  Yb  Yb0  1  0.50000000  0.50000000  0.00000000  1
  Yb  Yb1  1  0.00000000  0.00000000  0.00000000  1
  Yb  Yb2  1  0.52985300  0.02985300  0.83406600  1
  Yb  Yb3  1  0.19578800  0.69578800  0.16593400  1
  Yb  Yb4  1  0.02985300  0.19578800  0.50000000  1
  Yb  Yb5  1  0.69578800  0.52985300  0.50000000  1
  Yb  Yb6  1  0.47014700  0.97014700  0.16593400  1
  Yb  Yb7  1  0.80421200  0.30421200  0.83406600  1
  Yb  Yb8  1  0.97014700  0.80421200  0.50000000  1
  Yb  Yb9  1  0.30421200  0.47014700  0.50000000  1
  Cd  Cd0  1  0.25000000  0.25000000  0.00000000  1
  Cd  Cd1  1  0.75000000  0.75000000  0.00000000  1
  Cu  Cu0  1  0.11785300  0.61785300  0.73570700  1
  Cu  Cu1  1  0.88214700  0.38214700  0.26429300  1
  Cu  Cu2  1  0.61785300  0.88214700  0.50000000  1
  Cu  Cu3  1  0.38214700  0.11785300  0.50000000  1
loop_
_geom_bond_atom_site_label_1
_geom_bond_atom_site_label_2
_geom_bond_distance
_geom_bond_site_symmetry_2
Cd0 Yb6 3.321411 1_545
Cd0 Yb2 3.321411 1_554
Cd0 Yb9 3.321416 1_555
Cd0 Yb8 3.321416 1_444
Cd0 Yb4 3.321416 1_554
Cd0 Yb5 3.321416 1_555
Cd0 Yb7 3.321418 1_454
Cd0 Yb3 3.321418 1_555
Cd0 Yb0 3.598383 1_555
Cd0 Yb1 3.598383 1_555
Cd1 Yb2 3.321411 1_564
Cd1 Yb6 3.321411 1_555
Cd1 Yb8 3.321416 1_555
Cd1 Yb5 3.321416 1_554
Cd1 Yb9 3.321416 1_554
Cd1 Yb4 3.321416 1_665
Cd1 Yb7 3.321418 1_554
Cd1 Yb3 3.321418 1_655
Cd1 Yb1 3.598383 1_665
Cd1 Yb0 3.598383 1_555
Cu0 Cu1 2.592682 1_455
Cu0 Yb4 2.992448 1_555
Cu0 Yb5 2.992448 1_455
Cu0 Yb9 2.992458 1_555
Cu0 Yb8 2.992458 1_455
Cu0 Yb3 3.081770 1_556
Cu0 Yb6 3.081788 1_556
Cu0 Yb0 3.110431 1_556
Cu0 Yb1 3.110431 1_566
Cu1 Yb9 2.992448 1_655
Cu1 Yb8 2.992448 1_555
Cu1 Yb5 2.992458 1_555
Cu1 Yb4 2.992458 1_655
Cu1 Yb7 3.081770 1_554
Cu1 Yb2 3.081788 1_554
Cu1 Yb0 3.110431 1_555
Cu1 Yb1 3.110431 1_655
Cu2 Cu3 2.592671 1_565
Cu2 Yb7 2.992449 1_565
Cu2 Yb3 2.992449 1_555
Cu2 Yb6 2.992459 1_555
Cu2 Yb2 2.992459 1_565
Cu2 Yb8 3.081787 1_555
Cu2 Yb5 3.081787 1_555
Cu2 Yb0 3.110433 1_555
Cu2 Yb1 3.110433 1_666
Cu3 Yb7 2.992449 1_555
Cu3 Yb3 2.992449 1_545
Cu3 Yb6 2.992459 1_545
Cu3 Yb2 2.992459 1_555
Cu3 Yb4 3.081787 1_555
Cu3 Yb9 3.081787 1_555
Cu3 Yb0 3.110433 1_556
Cu3 Yb1 3.110433 1_555
