# generated using pymatgen
data_Li9Mn2Co5O16
_symmetry_space_group_name_H-M   'P 1'
_cell_length_a   5.16457900
_cell_length_b   7.72508496
_cell_length_c   7.74801558
_cell_angle_alpha   97.69839878
_cell_angle_beta   102.80292559
_cell_angle_gamma   102.81624688
_symmetry_Int_Tables_number   1
_chemical_formula_structural   Li9Mn2Co5O16
_chemical_formula_sum   'Li9 Mn2 Co5 O16'
_cell_volume   288.42395927
_cell_formula_units_Z   1
loop_
 _symmetry_equiv_pos_site_id
 _symmetry_equiv_pos_as_xyz
  1  'x, y, z'
loop_
 _atom_site_type_symbol
 _atom_site_label
 _atom_site_symmetry_multiplicity
 _atom_site_fract_x
 _atom_site_fract_y
 _atom_site_fract_z
 _atom_site_occupancy
  Li  Li0  1  0.49949700  0.87274600  0.12859200  1
  Li  Li1  1  0.50504500  0.50042200  0.99858400  1
  Li  Li2  1  0.50102700  0.12428900  0.86826700  1
  Li  Li3  1  0.49430100  0.74327900  0.74114000  1
  Li  Li4  1  0.49472700  0.37986100  0.62346000  1
  Li  Li5  1  0.49849800  0.99870700  0.49973100  1
  Li  Li6  1  0.49796500  0.62631100  0.38289300  1
  Li  Li7  1  0.50660500  0.25610600  0.26077200  1
  Li  Li8  1  0.00110700  0.50092000  0.49931100  1
  Mn  Mn0  1  0.00071600  0.00003200  0.00130900  1
  Mn  Mn1  1  0.99705000  0.37496400  0.12500000  1
  Co  Co0  1  0.00643100  0.62291200  0.86555300  1
  Co  Co1  1  0.98987200  0.25442200  0.73550900  1
  Co  Co2  1  0.99621600  0.87141400  0.62407000  1
  Co  Co3  1  0.00522100  0.12784300  0.38035600  1
  Co  Co4  1  0.00564300  0.74465600  0.25905300  1
  O  O0  1  0.22729700  0.99987900  0.23628900  1
  O  O1  1  0.22651400  0.60863600  0.12209400  1
  O  O2  1  0.21247000  0.24207000  0.99671100  1
  O  O3  1  0.22803700  0.88159700  0.88225500  1
  O  O4  1  0.23953400  0.50017300  0.76030000  1
  O  O5  1  0.23034900  0.11965800  0.62553200  1
  O  O6  1  0.23290600  0.75865200  0.49003500  1
  O  O7  1  0.22175300  0.36045600  0.35784400  1
  O  O8  1  0.78362800  0.76497100  0.01057300  1
  O  O9  1  0.77461700  0.37880300  0.88506200  1
  O  O10  1  0.77352600  0.99945000  0.76496400  1
  O  O11  1  0.76804100  0.63924000  0.63575200  1
  O  O12  1  0.76048000  0.24234800  0.50970600  1
  O  O13  1  0.77115300  0.88303100  0.37426400  1
  O  O14  1  0.77133300  0.49136900  0.23543200  1
  O  O15  1  0.77844300  0.13078200  0.11959000  1
loop_
_geom_bond_atom_site_label_1
_geom_bond_atom_site_label_2
_geom_bond_distance
_geom_bond_site_symmetry_2
Li0 O13 2.079505 1_555
Li0 O3 2.122409 1_554
Li0 O0 2.133064 1_555
Li0 O8 2.148344 1_555
Li0 O1 2.194944 1_555
Li0 O15 2.204881 1_565
Li1 O4 2.040774 1_555
Li1 O14 2.054843 1_556
Li1 O9 2.120437 1_555
Li1 O1 2.147822 1_556
Li1 O8 2.200148 1_556
Li1 O2 2.216124 1_555
Li2 O5 2.070547 1_555
Li2 O10 2.108520 1_545
Li2 O3 2.112798 1_545
Li2 O9 2.120520 1_555
Li2 O15 2.133665 1_556
Li2 O2 2.248434 1_555
Li3 O11 2.037471 1_555
Li3 O4 2.084515 1_555
Li3 O10 2.132593 1_555
Li3 O6 2.142612 1_555
Li3 O8 2.243106 1_556
Li3 O3 2.287668 1_555
Li4 O4 2.150279 1_555
Li4 O11 2.156606 1_555
Li4 O5 2.169278 1_555
Li4 O12 2.172827 1_555
Li4 O7 2.187022 1_555
Li4 O9 2.215636 1_555
Li5 O6 2.028445 1_555
Li5 O12 2.040593 1_565
Li5 O13 2.158388 1_555
Li5 O5 2.160852 1_565
Li5 O0 2.207191 1_555
Li5 O10 2.222672 1_555
Li6 O11 2.113874 1_555
Li6 O6 2.122596 1_555
Li6 O1 2.157041 1_555
Li6 O7 2.182031 1_555
Li6 O13 2.182680 1_555
Li6 O14 2.331109 1_555
Li7 O7 2.057626 1_555
Li7 O14 2.079190 1_555
Li7 O12 2.108657 1_555
Li7 O0 2.132166 1_545
Li7 O2 2.235023 1_554
Li7 O15 2.259378 1_555
Li8 O6 2.102720 1_555
Li8 O14 2.106953 1_455
Li8 O7 2.112085 1_555
Li8 O4 2.123230 1_555
Li8 O12 2.127679 1_455
Li8 O11 2.130756 1_455
Mn0 O8 1.930519 1_445
Mn0 O0 1.934169 1_545
Mn0 O10 1.942485 1_444
Mn0 O3 1.948504 1_544
Mn0 O2 1.954795 1_554
Mn0 O15 1.977504 1_455
Mn1 O14 1.897538 1_555
Mn1 O1 1.933156 1_655
Mn1 O7 1.948846 1_655
Mn1 O15 1.961546 1_555
Mn1 O9 1.964685 1_554
Mn1 O2 2.000792 1_654
Co0 O4 1.935914 1_555
Co0 O11 1.964544 1_455
Co0 O9 2.041383 1_455
Co0 O3 2.042175 1_555
Co0 O1 2.089983 1_556
Co0 O8 2.143317 1_456
Co1 O12 1.860573 1_555
Co1 O4 2.002522 1_655
Co1 O5 2.038957 1_655
Co1 O9 2.061144 1_555
Co1 O10 2.106473 1_545
Co1 O2 2.120320 1_655
Co2 O11 1.940832 1_555
Co2 O5 2.024653 1_665
Co2 O6 2.030824 1_655
Co2 O13 2.049640 1_555
Co2 O10 2.065080 1_555
Co2 O3 2.072653 1_655
Co3 O7 1.946523 1_555
Co3 O13 1.994170 1_445
Co3 O5 2.012548 1_555
Co3 O12 2.050480 1_455
Co3 O0 2.076870 1_545
Co3 O15 2.104681 1_455
Co4 O6 1.884957 1_555
Co4 O14 2.020356 1_455
Co4 O13 2.050348 1_455
Co4 O8 2.056278 1_455
Co4 O1 2.073858 1_555
Co4 O0 2.100041 1_555
