# generated using pymatgen
data_BaSnN2
_symmetry_space_group_name_H-M   'P 1'
_cell_length_a   7.25499664
_cell_length_b   13.09644476
_cell_length_c   7.94849300
_cell_angle_alpha   90.00000000
_cell_angle_beta   90.00000000
_cell_angle_gamma   25.50056168
_symmetry_Int_Tables_number   1
_chemical_formula_structural   BaSnN2
_chemical_formula_sum   'Ba4 Sn4 N8'
_cell_volume   325.13872864
_cell_formula_units_Z   4
loop_
 _symmetry_equiv_pos_site_id
 _symmetry_equiv_pos_as_xyz
  1  'x, y, z'
loop_
 _atom_site_type_symbol
 _atom_site_label
 _atom_site_symmetry_multiplicity
 _atom_site_fract_x
 _atom_site_fract_y
 _atom_site_fract_z
 _atom_site_occupancy
  Ba  Ba0  1  0.00000000  0.17824800  0.58404100  1
  Ba  Ba1  1  0.00000000  0.82175200  0.41595900  1
  Ba  Ba2  1  0.00000000  0.32175200  0.08404100  1
  Ba  Ba3  1  0.00000000  0.67824800  0.91595900  1
  Sn  Sn0  1  0.00000000  0.43619100  0.65147900  1
  Sn  Sn1  1  0.00000000  0.56380900  0.34852100  1
  Sn  Sn2  1  0.00000000  0.06380900  0.15147900  1
  Sn  Sn3  1  0.00000000  0.93619100  0.84852100  1
  N  N0  1  0.00000000  0.09606500  0.88811800  1
  N  N1  1  0.00000000  0.90393500  0.11188200  1
  N  N2  1  0.00000000  0.40393500  0.38811800  1
  N  N3  1  0.00000000  0.59606500  0.61188200  1
  N  N4  1  0.50000000  0.59997000  0.75000000  1
  N  N5  1  0.50000000  0.90003000  0.25000000  1
  N  N6  1  0.50000000  0.40003000  0.25000000  1
  N  N7  1  0.50000000  0.09997000  0.75000000  1
loop_
_geom_bond_atom_site_label_1
_geom_bond_atom_site_label_2
_geom_bond_distance
_geom_bond_site_symmetry_2
Ba0 N0 2.645770 1_555
Ba0 N4 3.039209 1_455
Ba0 N7 3.039209 1_555
Ba0 N5 3.102448 1_545
Ba0 N6 3.102448 1_455
Ba0 N3 3.311066 1_645
Ba0 N3 3.311067 1_455
Ba0 N2 3.340854 1_555
Ba1 N1 2.645770 1_555
Ba1 N6 3.039209 1_555
Ba1 N5 3.039209 1_455
Ba1 N7 3.102448 1_465
Ba1 N4 3.102448 1_555
Ba1 N2 3.311066 1_465
Ba1 N2 3.311067 1_655
Ba1 N3 3.340854 1_555
Ba2 N2 2.645770 1_555
Ba2 N5 3.039209 1_545
Ba2 N6 3.039209 1_455
Ba2 N4 3.102448 1_454
Ba2 N7 3.102448 1_554
Ba2 N1 3.311066 1_455
Ba2 N1 3.311067 1_645
Ba2 N0 3.340854 1_554
Ba3 N3 2.645770 1_555
Ba3 N7 3.039209 1_465
Ba3 N4 3.039209 1_555
Ba3 N6 3.102448 1_556
Ba3 N5 3.102448 1_456
Ba3 N0 3.311066 1_655
Ba3 N0 3.311067 1_465
Ba3 N1 3.340854 1_556
N0 Sn3 2.117304 1_545
N0 Sn2 2.135522 1_556
N1 Sn2 2.117304 1_565
N1 Sn3 2.135522 1_554
N2 Sn1 2.117304 1_555
N2 Sn0 2.135522 1_555
N3 Sn0 2.117304 1_555
N3 Sn1 2.135522 1_555
N4 Sn3 2.080202 1_555
N4 Sn0 2.080202 1_655
N5 Sn1 2.080202 1_655
N5 Sn2 2.080202 1_565
N6 Sn2 2.080202 1_655
N6 Sn1 2.080202 1_555
N7 Sn0 2.080202 1_555
N7 Sn3 2.080202 1_645
