# generated using pymatgen
data_MgAg14(PbO3)6
_symmetry_space_group_name_H-M   'P 1'
_cell_length_a   8.93405226
_cell_length_b   8.89631912
_cell_length_c   8.89675673
_cell_angle_alpha   72.77867878
_cell_angle_beta   107.18581382
_cell_angle_gamma   107.18653386
_symmetry_Int_Tables_number   1
_chemical_formula_structural   MgAg14(PbO3)6
_chemical_formula_sum   'Mg1 Ag14 Pb6 O18'
_cell_volume   628.27122916
_cell_formula_units_Z   1
loop_
 _symmetry_equiv_pos_site_id
 _symmetry_equiv_pos_as_xyz
  1  'x, y, z'
loop_
 _atom_site_type_symbol
 _atom_site_label
 _atom_site_symmetry_multiplicity
 _atom_site_fract_x
 _atom_site_fract_y
 _atom_site_fract_z
 _atom_site_occupancy
  Mg  Mg0  1  0.33700303  0.16910973  0.17052776  1
  Ag  Ag0  1  0.83351484  0.16675221  0.66669475  1
  Ag  Ag1  1  0.16524216  0.33353252  0.83157497  1
  Ag  Ag2  1  0.66669349  0.83348861  0.83352171  1
  Ag  Ag3  1  0.50196483  0.99954198  0.50280911  1
  Ag  Ag4  1  0.07528090  0.91974045  0.91987948  1
  Ag  Ag5  1  0.25412360  0.74475639  0.74476069  1
  Ag  Ag6  1  0.41179661  0.58876055  0.58868440  1
  Ag  Ag7  1  0.59178951  0.41323470  0.41320012  1
  Ag  Ag8  1  0.73925052  0.25416299  0.25384997  1
  Ag  Ag9  1  0.92795263  0.07930495  0.07950159  1
  Ag  Ag10  1  0.00007823  0.49988865  0.49982851  1
  Ag  Ag11  1  0.83354309  0.66671476  0.16661963  1
  Ag  Ag12  1  0.16512422  0.83153732  0.33355934  1
  Ag  Ag13  1  0.50195737  0.50236623  0.99961345  1
  Pb  Pb0  1  0.49961579  0.16682814  0.83434724  1
  Pb  Pb1  1  0.83320733  0.49919230  0.83388986  1
  Pb  Pb2  1  0.16684888  0.16640385  0.49948794  1
  Pb  Pb3  1  0.83319133  0.83393534  0.49932676  1
  Pb  Pb4  1  0.16697887  0.49945555  0.16635796  1
  Pb  Pb5  1  0.49977348  0.83423834  0.16687600  1
  O  O0  1  0.77268104  0.22738668  0.85391158  1
  O  O1  1  0.56227062  0.43995267  0.81560981  1
  O  O2  1  0.89445590  0.10597172  0.47944422  1
  O  O3  1  0.22728736  0.14721861  0.77553982  1
  O  O4  1  0.85052371  0.77118328  0.77123383  1
  O  O5  1  0.48160412  0.89445438  0.89418236  1
  O  O6  1  0.10452973  0.51755841  0.89405662  1
  O  O7  1  0.43844855  0.18614126  0.55662279  1
  O  O8  1  0.81604554  0.56206791  0.56204557  1
  O  O9  1  0.50060302  0.11045140  0.11019963  1
  O  O10  1  0.18482484  0.43823668  0.43825879  1
  O  O11  1  0.89451253  0.47952669  0.10582172  1
  O  O12  1  0.56236325  0.81577475  0.44019852  1
  O  O13  1  0.16631177  0.22366251  0.22390256  1
  O  O14  1  0.77293286  0.85374221  0.22765820  1
  O  O15  1  0.43854771  0.55639571  0.18609148  1
  O  O16  1  0.10450343  0.89415963  0.51756969  1
  O  O17  1  0.22728432  0.77565192  0.14730158  1
loop_
_geom_bond_atom_site_label_1
_geom_bond_atom_site_label_2
_geom_bond_distance
_geom_bond_site_symmetry_2
Mg0 O9 1.943420 1_555
Mg0 O13 1.946358 1_555
Ag0 O0 2.144966 1_555
Ag0 O2 2.146501 1_555
Ag1 O3 2.121012 1_555
Ag1 O6 2.127280 1_555
Ag2 O5 2.133194 1_555
Ag2 O4 2.137599 1_555
Ag3 O7 2.120102 1_565
Ag3 O12 2.124236 1_555
Ag4 O4 2.329155 1_455
Ag4 O17 2.334616 1_556
Ag4 O3 2.335886 1_565
Ag5 O6 2.344938 1_555
Ag5 O16 2.345520 1_555
Ag5 O5 2.350191 1_555
Ag6 O12 2.344836 1_555
Ag6 O1 2.345434 1_555
Ag6 O10 2.355611 1_555
Ag7 O8 2.328842 1_555
Ag7 O15 2.334729 1_555
Ag7 O7 2.336124 1_555
Ag8 O11 2.356000 1_555
Ag8 O2 2.357536 1_555
Ag8 O9 2.357983 1_555
Ag9 O14 2.356370 1_545
Ag9 O0 2.357345 1_554
Ag9 O13 2.361912 1_655
Ag10 O8 2.138280 1_455
Ag10 O10 2.138297 1_555
Ag11 O14 2.144239 1_555
Ag11 O11 2.146156 1_555
Ag12 O17 2.120459 1_555
Ag12 O16 2.127456 1_555
Ag13 O15 2.119652 1_556
Ag13 O1 2.124817 1_555
O0 Pb1 2.280427 1_555
O0 Pb0 2.302166 1_555
O1 Pb1 2.286385 1_555
O1 Pb0 2.292724 1_555
O2 Pb3 2.282275 1_545
O2 Pb2 2.295702 1_655
O3 Pb0 2.296654 1_555
O3 Pb2 2.318416 1_555
O4 Pb3 2.284229 1_555
O4 Pb1 2.284898 1_555
O5 Pb0 2.288493 1_565
O5 Pb5 2.290925 1_556
O6 Pb4 2.286820 1_556
O6 Pb1 2.289105 1_455
O7 Pb2 2.291119 1_555
O7 Pb0 2.332258 1_555
O8 Pb1 2.283899 1_555
O8 Pb3 2.284072 1_555
O9 Pb0 2.352799 1_554
O9 Pb5 2.355908 1_545
O10 Pb2 2.283179 1_555
O10 Pb4 2.284089 1_555
O11 Pb1 2.281802 1_554
O11 Pb4 2.296459 1_655
O12 Pb3 2.285694 1_555
O12 Pb5 2.294992 1_555
O13 Pb2 2.350717 1_555
O13 Pb4 2.351891 1_555
O14 Pb3 2.279817 1_555
O14 Pb5 2.302963 1_555
O15 Pb4 2.290973 1_555
O15 Pb5 2.333268 1_555
O16 Pb2 2.286282 1_565
O16 Pb3 2.289171 1_455
O17 Pb5 2.298220 1_555
O17 Pb4 2.319802 1_555
