# generated using pymatgen
data_Ti4Co7Ge6
_symmetry_space_group_name_H-M   'P 1'
_cell_length_a   6.63364201
_cell_length_b   6.63364201
_cell_length_c   6.63364201
_cell_angle_alpha   109.47122063
_cell_angle_beta   109.47122063
_cell_angle_gamma   109.47122063
_symmetry_Int_Tables_number   1
_chemical_formula_structural   Ti4Co7Ge6
_chemical_formula_sum   'Ti4 Co7 Ge6'
_cell_volume   224.71610645
_cell_formula_units_Z   1
loop_
 _symmetry_equiv_pos_site_id
 _symmetry_equiv_pos_as_xyz
  1  'x, y, z'
loop_
 _atom_site_type_symbol
 _atom_site_label
 _atom_site_symmetry_multiplicity
 _atom_site_fract_x
 _atom_site_fract_y
 _atom_site_fract_z
 _atom_site_occupancy
  Ti  Ti0  1  0.00000000  0.00000000  0.50000000  1
  Ti  Ti1  1  0.50000000  0.00000000  0.00000000  1
  Ti  Ti2  1  0.00000000  0.50000000  0.00000000  1
  Ti  Ti3  1  0.50000000  0.50000000  0.50000000  1
  Co  Co0  1  0.00000000  0.00000000  0.00000000  1
  Co  Co1  1  0.25000000  0.50000000  0.75000000  1
  Co  Co2  1  0.75000000  0.50000000  0.25000000  1
  Co  Co3  1  0.50000000  0.75000000  0.25000000  1
  Co  Co4  1  0.50000000  0.25000000  0.75000000  1
  Co  Co5  1  0.75000000  0.25000000  0.50000000  1
  Co  Co6  1  0.25000000  0.75000000  0.50000000  1
  Ge  Ge0  1  0.68735000  0.00000000  0.68735000  1
  Ge  Ge1  1  0.31265000  0.00000000  0.31265000  1
  Ge  Ge2  1  0.00000000  0.68735000  0.68735000  1
  Ge  Ge3  1  0.00000000  0.31265000  0.31265000  1
  Ge  Ge4  1  0.68735000  0.68735000  0.00000000  1
  Ge  Ge5  1  0.31265000  0.31265000  0.00000000  1
loop_
_geom_bond_atom_site_label_1
_geom_bond_atom_site_label_2
_geom_bond_distance
_geom_bond_site_symmetry_2
Co0 Ge1 2.394858 1_555
Co0 Ge4 2.394858 1_445
Co0 Ge5 2.394858 1_555
Co0 Ge3 2.394858 1_555
Co0 Ge2 2.394858 1_544
Co0 Ge0 2.394858 1_454
Co1 Ge3 2.393020 1_555
Co1 Ge2 2.393020 1_555
Co1 Ge5 2.393020 1_556
Co1 Ge4 2.393020 1_556
Co1 Ti3 2.708173 1_555
Co1 Ti2 2.708173 1_556
Co1 Ti1 2.708173 1_566
Co1 Ti0 2.708173 1_555
Co2 Ge2 2.393020 1_655
Co2 Ge3 2.393020 1_655
Co2 Ge4 2.393020 1_555
Co2 Ge5 2.393020 1_555
Co2 Ti2 2.708173 1_655
Co2 Ti3 2.708173 1_555
Co2 Ti1 2.708173 1_555
Co2 Ti0 2.708173 1_665
Co3 Ge1 2.393020 1_565
Co3 Ge4 2.393020 1_555
Co3 Ge5 2.393020 1_555
Co3 Ge0 2.393020 1_565
Co3 Ti1 2.708173 1_565
Co3 Ti3 2.708173 1_555
Co3 Ti2 2.708173 1_555
Co3 Ti0 2.708173 1_665
Co4 Ge1 2.393020 1_555
Co4 Ge5 2.393020 1_556
Co4 Ge0 2.393020 1_555
Co4 Ge4 2.393020 1_556
Co4 Ti3 2.708173 1_555
Co4 Ti1 2.708173 1_556
Co4 Ti2 2.708173 1_656
Co4 Ti0 2.708173 1_555
Co5 Ge0 2.393020 1_555
Co5 Ge3 2.393020 1_655
Co5 Ge1 2.393020 1_555
Co5 Ge2 2.393020 1_655
Co5 Ti3 2.708173 1_555
Co5 Ti0 2.708173 1_655
Co5 Ti1 2.708173 1_555
Co5 Ti2 2.708173 1_656
Co6 Ge0 2.393020 1_565
Co6 Ge2 2.393020 1_555
Co6 Ge1 2.393020 1_565
Co6 Ge3 2.393020 1_555
Co6 Ti1 2.708173 1_566
Co6 Ti3 2.708173 1_555
Co6 Ti0 2.708173 1_565
Co6 Ti2 2.708173 1_555
Ge0 Ti1 2.750363 1_556
Ge0 Ti2 2.750363 1_656
Ge0 Ti3 2.750363 1_545
Ge0 Ti0 2.750363 1_655
Ge1 Ti1 2.750363 1_555
Ge1 Ti0 2.750363 1_555
Ge1 Ti2 2.750363 1_545
Ge1 Ti3 2.750363 1_555
Ge2 Ti2 2.750363 1_556
Ge2 Ti0 2.750363 1_565
Ge2 Ti1 2.750363 1_566
Ge2 Ti3 2.750363 1_455
Ge3 Ti2 2.750363 1_555
Ge3 Ti0 2.750363 1_555
Ge3 Ti1 2.750363 1_455
Ge3 Ti3 2.750363 1_555
Ge4 Ti3 2.750363 1_554
Ge4 Ti0 2.750363 1_665
Ge4 Ti1 2.750363 1_565
Ge4 Ti2 2.750363 1_655
Ge5 Ti2 2.750363 1_555
Ge5 Ti1 2.750363 1_555
Ge5 Ti0 2.750363 1_554
Ge5 Ti3 2.750363 1_555
