# generated using pymatgen
data_ZrGa6FeCo5
_symmetry_space_group_name_H-M   'P 1'
_cell_length_a   5.04288400
_cell_length_b   6.40774050
_cell_length_c   6.40774050
_cell_angle_alpha   102.25397488
_cell_angle_beta   113.17242761
_cell_angle_gamma   66.82757239
_symmetry_Int_Tables_number   1
_chemical_formula_structural   ZrGa6FeCo5
_chemical_formula_sum   'Zr1 Ga6 Fe1 Co5'
_cell_volume   174.59134446
_cell_formula_units_Z   1
loop_
 _symmetry_equiv_pos_site_id
 _symmetry_equiv_pos_as_xyz
  1  'x, y, z'
loop_
 _atom_site_type_symbol
 _atom_site_label
 _atom_site_symmetry_multiplicity
 _atom_site_fract_x
 _atom_site_fract_y
 _atom_site_fract_z
 _atom_site_occupancy
  Zr  Zr0  1  0.99812200  0.00187800  0.99812200  1
  Ga  Ga0  1  0.50072400  0.99801400  0.49853100  1
  Ga  Ga1  1  0.99979300  0.99801400  0.49853100  1
  Ga  Ga2  1  0.50072400  0.50146900  0.00198600  1
  Ga  Ga3  1  0.99979300  0.50146900  0.00198600  1
  Ga  Ga4  1  0.49974000  0.78479800  0.78427900  1
  Ga  Ga5  1  0.49974000  0.21572100  0.21520200  1
  Fe  Fe0  1  0.28101400  0.21898600  0.78101400  1
  Co  Co0  1  0.64547100  0.35452900  0.64547100  1
  Co  Co1  1  0.35440800  0.64559200  0.35440800  1
  Co  Co2  1  0.00206800  0.34653700  0.35067200  1
  Co  Co3  1  0.00206800  0.64932800  0.65346300  1
  Co  Co4  1  0.71633600  0.78366400  0.21633600  1
loop_
_geom_bond_atom_site_label_1
_geom_bond_atom_site_label_2
_geom_bond_distance
_geom_bond_site_symmetry_2
Ga0 Ga4 2.508696 1_555
Ga0 Ga5 2.510908 1_565
Ga0 Ga1 2.516747 1_555
Ga0 Ga1 2.526137 1_455
Ga0 Zr0 3.199391 1_565
Ga0 Zr0 3.208510 1_464
Ga1 Ga4 2.508693 1_655
Ga1 Ga5 2.510910 1_565
Ga1 Zr0 3.199391 1_565
Ga1 Zr0 3.208511 1_564
Ga2 Ga5 2.508696 1_555
Ga2 Ga4 2.510908 1_554
Ga2 Ga3 2.516747 1_555
Ga2 Ga3 2.526137 1_455
Ga2 Zr0 3.199391 1_554
Ga2 Zr0 3.208510 1_464
Ga3 Ga5 2.508693 1_655
Ga3 Ga4 2.510910 1_554
Ga3 Zr0 3.199391 1_554
Ga3 Zr0 3.208511 1_564
Ga4 Zr0 3.059567 1_465
Ga4 Zr0 3.059572 1_565
Ga5 Zr0 3.059567 1_454
Ga5 Zr0 3.059572 1_554
Fe0 Ga1 2.400954 1_445
Fe0 Ga3 2.400954 1_456
Fe0 Ga0 2.400955 1_545
Fe0 Ga2 2.400955 1_556
Fe0 Ga4 2.559091 1_545
Fe0 Ga5 2.559091 1_556
Fe0 Zr0 3.138667 1_555
Fe0 Zr0 3.138667 1_455
Co0 Co1 2.505794 1_555
Co0 Ga3 2.548817 1_556
Co0 Ga1 2.548817 1_545
Co0 Ga2 2.548818 1_556
Co0 Ga0 2.548818 1_545
Co0 Ga4 2.609868 1_555
Co0 Ga5 2.609868 1_555
Co0 Fe0 2.778369 1_655
Co0 Fe0 2.778370 1_555
Co0 Zr0 3.036012 1_555
Co0 Co3 3.060155 1_555
Co0 Co2 3.060155 1_555
Co0 Co2 3.060159 1_655
Co0 Co3 3.060159 1_655
Co1 Ga1 2.527188 1_455
Co1 Ga3 2.527188 1_455
Co1 Ga0 2.527188 1_555
Co1 Ga2 2.527188 1_555
Co1 Ga4 2.608223 1_555
Co1 Ga5 2.608223 1_555
Co1 Co4 2.787584 1_455
Co1 Co4 2.787584 1_555
Co1 Zr0 3.067306 1_464
Co1 Co2 3.075120 1_555
Co1 Co3 3.075120 1_555
Co1 Co3 3.075124 1_655
Co1 Co2 3.075124 1_655
Co2 Co3 2.435333 1_555
Co2 Ga0 2.609987 1_545
Co2 Ga1 2.609990 1_445
Co2 Ga3 2.624919 1_455
Co2 Ga2 2.624920 1_455
Co2 Fe0 2.692550 1_555
Co2 Ga5 2.739488 1_555
Co2 Ga5 2.739497 1_455
Co2 Co4 2.744775 1_455
Co2 Zr0 2.804014 1_454
Co3 Ga2 2.609987 1_556
Co3 Ga3 2.609990 1_456
Co3 Ga1 2.624919 1_455
Co3 Ga0 2.624920 1_455
Co3 Fe0 2.692550 1_555
Co3 Ga4 2.739488 1_555
Co3 Ga4 2.739497 1_455
Co3 Co4 2.744775 1_455
Co3 Zr0 2.804014 1_465
Co4 Ga1 2.378272 1_555
Co4 Ga3 2.378272 1_555
Co4 Ga0 2.378272 1_555
Co4 Ga2 2.378272 1_555
Co4 Ga5 2.545622 1_565
Co4 Ga4 2.545622 1_554
Co4 Zr0 3.144346 1_464
Co4 Zr0 3.144347 1_564
