# generated using pymatgen
data_Tm2InAu2
_symmetry_space_group_name_H-M   'P 1'
_cell_length_a   7.35544069
_cell_length_b   7.67881645
_cell_length_c   7.67881645
_cell_angle_alpha   90.00000000
_cell_angle_beta   90.00000000
_cell_angle_gamma   90.00000000
_symmetry_Int_Tables_number   1
_chemical_formula_structural   Tm2InAu2
_chemical_formula_sum   'Tm8 In4 Au8'
_cell_volume   433.70783829
_cell_formula_units_Z   4
loop_
 _symmetry_equiv_pos_site_id
 _symmetry_equiv_pos_as_xyz
  1  'x, y, z'
loop_
 _atom_site_type_symbol
 _atom_site_label
 _atom_site_symmetry_multiplicity
 _atom_site_fract_x
 _atom_site_fract_y
 _atom_site_fract_z
 _atom_site_occupancy
  Tm  Tm0  1  0.50000000  0.15927577  0.84072423  1
  Tm  Tm1  1  0.50000000  0.84072423  0.15927577  1
  Tm  Tm2  1  -0.00000000  0.34072423  0.34072423  1
  Tm  Tm3  1  -0.00000000  0.65927577  0.65927577  1
  Tm  Tm4  1  0.50000000  0.67744602  0.67744602  1
  Tm  Tm5  1  0.50000000  0.32255398  0.32255398  1
  Tm  Tm6  1  -0.00000000  0.82255398  0.17744602  1
  Tm  Tm7  1  -0.00000000  0.17744602  0.82255398  1
  In  In0  1  0.25000000  0.00000000  0.50000000  1
  In  In1  1  0.75000000  0.50000000  0.00000000  1
  In  In2  1  0.75000000  0.00000000  0.50000000  1
  In  In3  1  0.25000000  0.50000000  0.00000000  1
  Au  Au0  1  0.26894791  0.36967363  0.63032637  1
  Au  Au1  1  0.26894791  0.63032637  0.36967363  1
  Au  Au2  1  0.76894791  0.13032637  0.13032637  1
  Au  Au3  1  0.76894791  0.86967363  0.86967363  1
  Au  Au4  1  0.73105209  0.63032637  0.36967363  1
  Au  Au5  1  0.73105209  0.36967363  0.63032637  1
  Au  Au6  1  0.23105209  0.86967363  0.86967363  1
  Au  Au7  1  0.23105209  0.13032637  0.13032637  1
loop_
_geom_bond_atom_site_label_1
_geom_bond_atom_site_label_2
_geom_bond_distance
_geom_bond_site_symmetry_2
In0 Tm4 3.372346 1_545
In0 Tm7 3.372346 1_555
In0 Tm5 3.372346 1_555
In0 Tm6 3.372346 1_545
In0 Tm1 3.423827 1_545
In0 Tm3 3.423827 1_545
In0 Tm2 3.423827 1_555
In0 Tm0 3.423827 1_555
In1 Tm7 3.372346 1_654
In1 Tm4 3.372346 1_554
In1 Tm6 3.372346 1_655
In1 Tm5 3.372346 1_555
In1 Tm0 3.423827 1_554
In1 Tm3 3.423827 1_654
In1 Tm2 3.423827 1_655
In1 Tm1 3.423827 1_555
In2 Tm4 3.372346 1_545
In2 Tm6 3.372346 1_645
In2 Tm7 3.372346 1_655
In2 Tm5 3.372346 1_555
In2 Tm1 3.423827 1_545
In2 Tm3 3.423827 1_645
In2 Tm2 3.423827 1_655
In2 Tm0 3.423827 1_555
In3 Tm7 3.372346 1_554
In3 Tm6 3.372346 1_555
In3 Tm4 3.372346 1_554
In3 Tm5 3.372346 1_555
In3 Tm0 3.423827 1_554
In3 Tm3 3.423827 1_554
In3 Tm2 3.423827 1_555
In3 Tm1 3.423827 1_555
Au0 Tm0 2.847567 1_555
Au0 Tm7 2.875939 1_555
Au0 Tm4 2.933343 1_555
Au0 Tm5 2.933343 1_555
Au0 Tm3 2.984645 1_555
Au0 Tm2 2.984645 1_555
Au0 In3 3.013121 1_556
Au0 In0 3.013121 1_555
Au1 Tm1 2.847567 1_555
Au1 Tm6 2.875939 1_555
Au1 Tm4 2.933343 1_555
Au1 Tm5 2.933343 1_555
Au1 Tm3 2.984645 1_555
Au1 Tm2 2.984645 1_555
Au1 In0 3.013121 1_565
Au1 In3 3.013121 1_555
Au2 Tm2 2.847567 1_655
Au2 Tm5 2.875939 1_555
Au2 Tm6 2.933343 1_645
Au2 Tm7 2.933343 1_654
Au2 Tm1 2.984645 1_545
Au2 Tm0 2.984645 1_554
Au2 In1 3.013121 1_555
Au2 In2 3.013121 1_555
Au3 Tm3 2.847567 1_655
Au3 Tm4 2.875939 1_555
Au3 Tm7 2.933343 1_665
Au3 Tm6 2.933343 1_656
Au3 Tm0 2.984645 1_565
Au3 Tm1 2.984645 1_556
Au3 In1 3.013121 1_556
Au3 In2 3.013121 1_565
Au4 Tm1 2.847567 1_555
Au4 Tm6 2.875939 1_655
Au4 Tm4 2.933343 1_555
Au4 Tm5 2.933343 1_555
Au4 Tm2 2.984645 1_655
Au4 Tm3 2.984645 1_655
Au4 In2 3.013121 1_565
Au4 In1 3.013121 1_555
Au5 Tm0 2.847567 1_555
Au5 Tm7 2.875939 1_655
Au5 Tm4 2.933343 1_555
Au5 Tm5 2.933343 1_555
Au5 Tm2 2.984645 1_655
Au5 Tm3 2.984645 1_655
Au5 In1 3.013121 1_556
Au5 In2 3.013121 1_555
Au6 Tm3 2.847567 1_555
Au6 Tm4 2.875939 1_555
Au6 Tm6 2.933343 1_556
Au6 Tm7 2.933343 1_565
Au6 Tm1 2.984645 1_556
Au6 Tm0 2.984645 1_565
Au6 In3 3.013121 1_556
Au6 In0 3.013121 1_565
Au7 Tm2 2.847567 1_555
Au7 Tm5 2.875939 1_555
Au7 Tm7 2.933343 1_554
Au7 Tm6 2.933343 1_545
Au7 Tm1 2.984645 1_545
Au7 Tm0 2.984645 1_554
Au7 In3 3.013121 1_555
Au7 In0 3.013121 1_555
