# generated using pymatgen
data_Tm6Co2Sn
_symmetry_space_group_name_H-M   'P 1'
_cell_length_a   8.20222810
_cell_length_b   8.20222810
_cell_length_c   8.20222810
_cell_angle_alpha   111.32310966
_cell_angle_beta   109.39844230
_cell_angle_gamma   107.71229734
_symmetry_Int_Tables_number   1
_chemical_formula_structural   Tm6Co2Sn
_chemical_formula_sum   'Tm12 Co4 Sn2'
_cell_volume   424.36649431
_cell_formula_units_Z   2
loop_
 _symmetry_equiv_pos_site_id
 _symmetry_equiv_pos_as_xyz
  1  'x, y, z'
loop_
 _atom_site_type_symbol
 _atom_site_label
 _atom_site_symmetry_multiplicity
 _atom_site_fract_x
 _atom_site_fract_y
 _atom_site_fract_z
 _atom_site_occupancy
  Tm  Tm0  1  0.44579434  0.23600853  0.20978581  1
  Tm  Tm1  1  0.55420566  0.76399147  0.79021419  1
  Tm  Tm2  1  0.02622272  0.23600853  0.79021419  1
  Tm  Tm3  1  0.97377728  0.76399147  0.20978581  1
  Tm  Tm4  1  0.18303579  0.28379280  0.46682959  1
  Tm  Tm5  1  0.81696421  0.71620720  0.53317041  1
  Tm  Tm6  1  0.18303579  0.71620720  0.89924300  1
  Tm  Tm7  1  0.81696421  0.28379280  0.10075700  1
  Tm  Tm8  1  0.32519129  0.63820441  0.31301212  1
  Tm  Tm9  1  0.67480871  0.36179559  0.68698788  1
  Tm  Tm10  1  0.32519129  0.01217918  0.68698788  1
  Tm  Tm11  1  0.67480871  0.98782082  0.31301212  1
  Co  Co0  1  0.34267495  0.00000000  0.34267495  1
  Co  Co1  1  0.65732505  0.00000000  0.65732505  1
  Co  Co2  1  0.11351810  0.61351810  0.50000000  1
  Co  Co3  1  0.88648190  0.38648190  0.50000000  1
  Sn  Sn0  1  0.50000000  0.50000000  -0.00000000  1
  Sn  Sn1  1  0.00000000  0.00000000  -0.00000000  1
loop_
_geom_bond_atom_site_label_1
_geom_bond_atom_site_label_2
_geom_bond_distance
_geom_bond_site_symmetry_2
Co0 Tm0 2.607951 1_555
Co0 Tm3 2.607951 1_445
Co0 Tm8 2.842322 1_545
Co0 Tm9 2.842327 1_555
Co0 Tm10 2.842330 1_555
Co0 Tm11 2.842330 1_545
Co0 Tm6 3.030892 1_544
Co0 Tm4 3.030894 1_555
Co1 Tm1 2.607951 1_545
Co1 Tm2 2.607951 1_655
Co1 Tm9 2.842322 1_555
Co1 Tm8 2.842327 1_545
Co1 Tm11 2.842330 1_545
Co1 Tm10 2.842330 1_555
Co1 Tm7 3.030892 1_556
Co1 Tm5 3.030894 1_545
Co2 Co3 2.196709 1_455
Co2 Tm10 2.681124 1_565
Co2 Tm8 2.681125 1_555
Co2 Tm5 2.866986 1_455
Co2 Tm7 2.866988 1_455
Co2 Tm6 2.866988 1_555
Co2 Tm4 2.866990 1_555
Co2 Tm1 3.112614 1_555
Co2 Tm3 3.112614 1_455
Co3 Tm11 2.681124 1_545
Co3 Tm9 2.681125 1_555
Co3 Tm4 2.866986 1_655
Co3 Tm6 2.866988 1_655
Co3 Tm7 2.866988 1_555
Co3 Tm5 2.866990 1_555
Co3 Tm0 3.112614 1_555
Co3 Tm2 3.112614 1_655
Sn0 Tm3 3.237159 1_555
Sn0 Tm1 3.237159 1_554
Sn0 Tm2 3.237159 1_554
Sn0 Tm0 3.237159 1_555
Sn0 Tm10 3.354116 1_554
Sn0 Tm11 3.354116 1_555
Sn0 Tm8 3.354118 1_555
Sn0 Tm9 3.354118 1_554
Sn0 Tm4 3.609822 1_554
Sn0 Tm5 3.609822 1_555
Sn0 Tm7 3.609828 1_555
Sn0 Tm6 3.609828 1_554
Sn1 Tm1 3.028095 1_444
Sn1 Tm2 3.028095 1_554
Sn1 Tm0 3.028095 1_555
Sn1 Tm3 3.028095 1_445
Sn1 Tm6 3.147504 1_544
Sn1 Tm7 3.147504 1_455
Sn1 Tm4 3.147510 1_555
Sn1 Tm5 3.147510 1_444
