# generated using pymatgen
data_Al2H18SO15
_symmetry_space_group_name_H-M   'P 1'
_cell_length_a   8.14037350
_cell_length_b   16.88169804
_cell_length_c   12.85387205
_cell_angle_alpha   90.00000000
_cell_angle_beta   113.21089620
_cell_angle_gamma   90.00000000
_symmetry_Int_Tables_number   1
_chemical_formula_structural   Al2H18SO15
_chemical_formula_sum   'Al8 H72 S4 O60'
_cell_volume   1623.44839489
_cell_formula_units_Z   4
loop_
 _symmetry_equiv_pos_site_id
 _symmetry_equiv_pos_as_xyz
  1  'x, y, z'
loop_
 _atom_site_type_symbol
 _atom_site_label
 _atom_site_symmetry_multiplicity
 _atom_site_fract_x
 _atom_site_fract_y
 _atom_site_fract_z
 _atom_site_occupancy
  Al  Al0  1  0.79489314  0.09650273  0.95172592  1
  Al  Al1  1  0.20510686  0.59650273  0.54827408  1
  Al  Al2  1  0.20510686  0.90349727  0.04827408  1
  Al  Al3  1  0.79489314  0.40349727  0.45172592  1
  Al  Al4  1  0.09543543  0.03823133  0.19059452  1
  Al  Al5  1  0.90456457  0.53823133  0.30940548  1
  Al  Al6  1  0.90456457  0.96176867  0.80940548  1
  Al  Al7  1  0.09543543  0.46176867  0.69059452  1
  H  H0  1  0.78097410  0.84760066  0.13597113  1
  H  H1  1  0.21902590  0.34760066  0.36402887  1
  H  H2  1  0.21902590  0.15239934  0.86402887  1
  H  H3  1  0.78097410  0.65239934  0.63597113  1
  H  H4  1  0.44861728  0.10412895  0.67804922  1
  H  H5  1  0.55138272  0.60412895  0.82195078  1
  H  H6  1  0.55138272  0.89587105  0.32195078  1
  H  H7  1  0.44861728  0.39587105  0.17804922  1
  H  H8  1  0.94812112  0.19785250  0.20907684  1
  H  H9  1  0.05187888  0.69785250  0.29092316  1
  H  H10  1  0.05187888  0.80214750  0.79092316  1
  H  H11  1  0.94812112  0.30214750  0.70907684  1
  H  H12  1  0.31576530  0.92499519  0.75667771  1
  H  H13  1  0.68423470  0.42499519  0.74332229  1
  H  H14  1  0.68423470  0.07500481  0.24332229  1
  H  H15  1  0.31576530  0.57500481  0.25667771  1
  H  H16  1  0.52168695  0.18173049  0.90711021  1
  H  H17  1  0.47831305  0.68173049  0.59288979  1
  H  H18  1  0.47831305  0.81826951  0.09288979  1
  H  H19  1  0.52168695  0.31826951  0.40711021  1
  H  H20  1  0.71474437  0.24738145  0.91114644  1
  H  H21  1  0.28525563  0.74738145  0.58885356  1
  H  H22  1  0.28525563  0.75261855  0.08885356  1
  H  H23  1  0.71474437  0.25261855  0.41114644  1
  H  H24  1  0.27372564  0.15509329  0.17922589  1
  H  H25  1  0.72627436  0.65509329  0.32077411  1
  H  H26  1  0.72627436  0.84490671  0.82077411  1
  H  H27  1  0.27372564  0.34490671  0.67922589  1
  H  H28  1  0.39381837  0.10912894  0.30235770  1
  H  H29  1  0.60618163  0.60912894  0.19764230  1
  H  H30  1  0.60618163  0.89087106  0.69764230  1
  H  H31  1  0.39381837  0.39087106  0.80235770  1
  H  H32  1  0.98178759  0.04050434  0.35067782  1
  H  H33  1  0.01821241  0.54050434  0.14932218  1
  H  H34  1  0.01821241  0.95949566  0.64932218  1
  H  H35  1  0.98178759  0.45949566  0.85067782  1
  H  H36  1  0.10272250  0.96054100  0.36158203  1
  H  H37  1  0.89727750  0.46054100  0.13841797  1
  H  H38  1  0.89727750  0.03945900  0.63841797  1
  H  H39  1  0.10272250  0.53945900  0.86158203  1
  H  H40  1  0.92405559  0.20293219  0.32512626  1
  H  H41  1  0.07594441  0.70293219  0.17487374  1
  H  H42  1  0.07594441  0.79706781  0.67487374  1
  H  H43  1  0.92405559  0.29706781  0.82512626  1
  H  H44  1  0.63316263  0.28960011  0.13916845  1
  H  H45  1  0.36683737  0.78960011  0.36083155  1
  H  H46  1  0.36683737  0.71039989  0.86083155  1
  H  H47  1  0.63316263  0.21039989  0.63916845  1
  H  H48  1  0.60664115  0.24845043  0.14894003  1
  H  H49  1  0.39335885  0.74845043  0.35105997  1
  H  H50  1  0.39335885  0.75154957  0.85105997  1
  H  H51  1  0.60664115  0.25154957  0.64894003  1
  H  H52  1  0.27376129  0.27846444  0.12338395  1
  H  H53  1  0.72623871  0.77846444  0.37661605  1
  H  H54  1  0.72623871  0.72153556  0.87661605  1
  H  H55  1  0.27376129  0.22153556  0.62338395  1
  H  H56  1  0.18853304  0.24304549  0.84759681  1
  H  H57  1  0.81146696  0.74304549  0.65240319  1
  H  H58  1  0.81146696  0.75695451  0.15240319  1
  H  H59  1  0.18853304  0.25695451  0.34759681  1
  H  H60  1  0.26834767  0.21874605  0.02794236  1
  H  H61  1  0.73165233  0.71874605  0.47205764  1
  H  H62  1  0.73165233  0.78125395  0.97205764  1
  H  H63  1  0.26834767  0.28125395  0.52794236  1
  H  H64  1  0.74562028  0.09329007  0.14503040  1
  H  H65  1  0.25437972  0.59329007  0.35496960  1
  H  H66  1  0.25437972  0.90670993  0.85496960  1
  H  H67  1  0.74562028  0.40670993  0.64503040  1
  H  H68  1  0.37027985  0.07668677  0.65117360  1
  H  H69  1  0.62972015  0.57668677  0.84882640  1
  H  H70  1  0.62972015  0.92331323  0.34882640  1
  H  H71  1  0.37027985  0.42331323  0.15117360  1
  S  S0  1  0.74678916  0.11909599  0.45202447  1
  S  S1  1  0.25321084  0.61909599  0.04797553  1
  S  S2  1  0.25321084  0.88090401  0.54797553  1
  S  S3  1  0.74678916  0.38090401  0.95202447  1
  O  O0  1  0.79368936  0.19930957  0.40905116  1
  O  O1  1  0.20631064  0.69930957  0.09094884  1
  O  O2  1  0.20631064  0.80069043  0.59094884  1
  O  O3  1  0.79368936  0.30069043  0.90905116  1
  O  O4  1  0.55276975  0.11754745  0.42097337  1
  O  O5  1  0.44723025  0.61754745  0.07902663  1
  O  O6  1  0.44723025  0.88245255  0.57902663  1
  O  O7  1  0.55276975  0.38245255  0.92097337  1
  O  O8  1  0.80751108  0.05748091  0.39325930  1
  O  O9  1  0.19248892  0.55748091  0.10674070  1
  O  O10  1  0.19248892  0.94251909  0.60674070  1
  O  O11  1  0.80751108  0.44251909  0.89325930  1
  O  O12  1  0.84730108  0.11660262  0.57572856  1
  O  O13  1  0.15269892  0.61660262  0.92427144  1
  O  O14  1  0.15269892  0.88339738  0.42427144  1
  O  O15  1  0.84730108  0.38339738  0.07572856  1
  O  O16  1  0.70108398  0.94142116  0.00268266  1
  O  O17  1  0.29891602  0.44142116  0.49731734  1
  O  O18  1  0.29891602  0.05857884  0.99731734  1
  O  O19  1  0.70108398  0.55857884  0.50268266  1
  O  O20  1  0.86149875  0.05195026  0.85664328  1
  O  O21  1  0.13850125  0.55195026  0.64335672  1
  O  O22  1  0.13850125  0.94804974  0.14335672  1
  O  O23  1  0.86149875  0.44804974  0.35664328  1
  O  O24  1  0.91946095  0.09283731  0.09476007  1
  O  O25  1  0.08053905  0.59283731  0.40523993  1
  O  O26  1  0.08053905  0.90716269  0.90523993  1
  O  O27  1  0.91946095  0.40716269  0.59476007  1
  O  O28  1  0.63798060  0.09000973  0.16279219  1
  O  O29  1  0.36201940  0.59000973  0.33720781  1
  O  O30  1  0.36201940  0.90999027  0.83720781  1
  O  O31  1  0.63798060  0.40999027  0.66279219  1
  O  O32  1  0.64333220  0.17571812  0.90867224  1
  O  O33  1  0.35666780  0.67571812  0.59132776  1
  O  O34  1  0.35666780  0.82428188  0.09132776  1
  O  O35  1  0.64333220  0.32428188  0.40867224  1
  O  O36  1  0.28424352  0.10577943  0.22834679  1
  O  O37  1  0.71575648  0.60577943  0.27165421  1
  O  O38  1  0.71575648  0.89422057  0.77165421  1
  O  O39  1  0.28424352  0.39422057  0.72834579  1
  O  O40  1  0.06119601  0.01373506  0.31887713  1
  O  O41  1  0.93880399  0.51373506  0.18112287  1
  O  O42  1  0.93880399  0.98626494  0.68112287  1
  O  O43  1  0.06119601  0.48626494  0.81887713  1
  O  O44  1  0.01357240  0.19967543  0.29107726  1
  O  O45  1  0.98642760  0.69967543  0.20892274  1
  O  O46  1  0.98642760  0.80032457  0.70892274  1
  O  O47  1  0.01357240  0.30032457  0.79107726  1
  O  O48  1  0.23463659  0.22557217  0.09384174  1
  O  O49  1  0.76536341  0.72557217  0.40615826  1
  O  O50  1  0.76536341  0.77442783  0.90615826  1
  O  O51  1  0.23463659  0.27442783  0.59384174  1
  O  O52  1  0.28219892  0.20224167  0.89009485  1
  O  O53  1  0.71780108  0.70224167  0.60990515  1
  O  O54  1  0.71780108  0.79775833  0.10990515  1
  O  O55  1  0.28219892  0.29775833  0.39009485  1
  O  O56  1  0.37593359  0.99880710  0.05026544  1
  O  O57  1  0.62406641  0.49880710  0.44973456  1
  O  O58  1  0.62406641  0.00119290  0.94973456  1
  O  O59  1  0.37593359  0.50119290  0.55026544  1
loop_
_geom_bond_atom_site_label_1
_geom_bond_atom_site_label_2
_geom_bond_distance
_geom_bond_site_symmetry_2
Al0 O20 1.695794 1_555
Al0 O24 1.715457 1_556
Al0 O32 1.754591 1_555
Al0 O58 2.120189 1_555
Al1 O21 1.695794 1_555
Al1 O25 1.715457 1_555
Al1 O33 1.754591 1_555
Al1 O59 2.120189 1_555
Al2 O22 1.695794 1_555
Al2 O26 1.715457 1_554
Al2 O34 1.754591 1_555
Al2 O56 2.120189 1_555
Al3 O23 1.695794 1_555
Al3 O27 1.715457 1_555
Al3 O35 1.754591 1_555
Al3 O57 2.120189 1_555
Al4 O22 1.725434 1_545
Al4 O24 1.740217 1_455
Al4 O36 1.819397 1_555
Al4 O40 1.824810 1_555
Al5 O23 1.725434 1_555
Al5 O25 1.740217 1_655
Al5 O37 1.819398 1_555
Al5 O41 1.824810 1_555
Al6 O20 1.725434 1_565
Al6 O26 1.740217 1_655
Al6 O38 1.819398 1_555
Al6 O42 1.824810 1_555
Al7 O21 1.725434 1_555
Al7 O27 1.740217 1_455
Al7 O39 1.819398 1_555
Al7 O43 1.824810 1_555
H0 O54 0.974112 1_555
H1 O55 0.974112 1_555
H2 O52 0.974112 1_555
H3 O53 0.974112 1_555
H4 H68 0.752975 1_555
H5 H69 0.752975 1_555
H6 H70 0.752975 1_555
H7 H71 0.752975 1_555
H8 O44 0.976283 1_655
H9 O45 0.976283 1_455
H10 O46 0.976283 1_455
H11 O47 0.976283 1_655
H12 O30 0.984989 1_555
H13 O31 0.984989 1_555
H14 O28 0.984989 1_555
H15 O29 0.984989 1_555
H16 O32 0.987727 1_555
H17 O33 0.987727 1_555
H18 O34 0.987727 1_555
H19 O35 0.987727 1_555
H20 O3 1.112322 1_555
H20 O32 1.337156 1_555
H21 O2 1.112322 1_555
H21 O33 1.337156 1_555
H22 O1 1.112322 1_555
H22 O34 1.337156 1_555
H23 O0 1.112322 1_555
H23 O35 1.337156 1_555
H24 O36 1.027831 1_555
H24 O48 1.564018 1_555
H25 O37 1.027823 1_555
H25 O49 1.564018 1_555
H26 O38 1.027823 1_555
H26 O50 1.564018 1_555
H27 O39 1.027823 1_555
H27 O51 1.564018 1_555
H28 O36 1.017341 1_555
H28 O4 1.569721 1_555
H29 O37 1.017348 1_555
H29 O5 1.569721 1_555
H30 O38 1.017348 1_555
H30 O6 1.569721 1_555
H31 O39 1.017348 1_555
H31 O7 1.569721 1_555
H32 O40 0.998717 1_655
H33 O41 0.998717 1_455
H34 O42 0.998717 1_455
H35 O43 0.998717 1_655
H36 O40 1.037179 1_565
H36 O14 1.500816 1_555
H37 O41 1.037179 1_555
H37 O15 1.500816 1_555
H38 O42 1.037179 1_545
H38 O12 1.500816 1_555
H39 O43 1.037179 1_555
H39 O13 1.500816 1_555
H40 O44 0.988413 1_655
H41 O45 0.988413 1_455
H42 O46 0.988413 1_455
H43 O47 0.988413 1_655
H44 H48 0.752553 1_555
H45 H49 0.752553 1_555
H46 H50 0.752553 1_555
H47 H51 0.752553 1_555
H52 O48 0.973444 1_555
H53 O49 0.973444 1_555
H54 O50 0.973444 1_555
H55 O51 0.973444 1_555
H56 O52 1.012897 1_555
H56 O47 1.635758 1_555
H57 O53 1.012897 1_555
H57 O46 1.635758 1_555
H58 O54 1.012897 1_555
H58 O45 1.635758 1_555
H59 O55 1.012897 1_555
H59 O44 1.635758 1_555
H60 O48 0.994649 1_555
H61 O49 0.994649 1_555
H62 O50 0.994649 1_555
H63 O51 0.994649 1_555
H64 O28 0.990278 1_555
H65 O29 0.990278 1_555
H66 O30 0.990278 1_555
H67 O31 0.990278 1_555
O0 S0 1.565504 1_555
O1 S1 1.565504 1_555
O2 S2 1.565504 1_555
O3 S3 1.565504 1_555
O4 S0 1.468869 1_555
O5 S1 1.468869 1_555
O6 S2 1.468869 1_555
O7 S3 1.468869 1_555
O8 S0 1.480255 1_555
O9 S1 1.480255 1_555
O10 S2 1.480255 1_555
O11 S3 1.480255 1_555
O12 S0 1.474475 1_555
O13 S1 1.474475 1_556
O14 S2 1.474475 1_555
O15 S3 1.474475 1_554
O16 O58 1.240206 1_564
O17 O59 1.240206 1_555
O18 O56 1.240206 1_546
O19 O57 1.240206 1_555
