# generated using pymatgen
data_MgWF5
_symmetry_space_group_name_H-M   'P 1'
_cell_length_a   10.36793000
_cell_length_b   5.26121500
_cell_length_c   7.91131405
_cell_angle_alpha   71.60008900
_cell_angle_beta   90.00000000
_cell_angle_gamma   90.00000000
_symmetry_Int_Tables_number   1
_chemical_formula_structural   MgWF5
_chemical_formula_sum   'Mg4 W4 F20'
_cell_volume   409.48351492
_cell_formula_units_Z   4
loop_
 _symmetry_equiv_pos_site_id
 _symmetry_equiv_pos_as_xyz
  1  'x, y, z'
loop_
 _atom_site_type_symbol
 _atom_site_label
 _atom_site_symmetry_multiplicity
 _atom_site_fract_x
 _atom_site_fract_y
 _atom_site_fract_z
 _atom_site_occupancy
  Mg  Mg0  1  0.00078300  0.50657300  0.79382600  1
  Mg  Mg1  1  0.50078300  0.49342700  0.70617400  1
  Mg  Mg2  1  0.99921700  0.49342700  0.20617400  1
  Mg  Mg3  1  0.49921700  0.50657300  0.29382600  1
  W  W0  1  0.75818900  0.09169600  0.63344700  1
  W  W1  1  0.25818900  0.90830400  0.86655300  1
  W  W2  1  0.24181100  0.90830400  0.36655300  1
  W  W3  1  0.74181100  0.09169600  0.13344700  1
  F  F0  1  0.89048000  0.39922000  0.62796500  1
  F  F1  1  0.39048000  0.60078000  0.87203500  1
  F  F2  1  0.10952000  0.60078000  0.37203500  1
  F  F3  1  0.60952000  0.39922000  0.12796500  1
  F  F4  1  0.60079800  0.35211400  0.52071100  1
  F  F5  1  0.10079800  0.64788600  0.97928900  1
  F  F6  1  0.39920200  0.64788600  0.47928900  1
  F  F7  1  0.89920200  0.35211400  0.02071100  1
  F  F8  1  0.41331100  0.15490800  0.76145200  1
  F  F9  1  0.91331100  0.84509200  0.73854800  1
  F  F10  1  0.58668900  0.84509200  0.23854800  1
  F  F11  1  0.08668900  0.15490800  0.26145200  1
  F  F12  1  0.13445200  0.23685600  0.83491700  1
  F  F13  1  0.63445200  0.76314400  0.66508300  1
  F  F14  1  0.86554800  0.76314400  0.16508300  1
  F  F15  1  0.36554800  0.23685600  0.33491700  1
  F  F16  1  0.67386300  0.13055700  0.87144900  1
  F  F17  1  0.17386300  0.86944300  0.62855100  1
  F  F18  1  0.32613700  0.86944300  0.12855100  1
  F  F19  1  0.82613700  0.13055700  0.37144900  1
loop_
_geom_bond_atom_site_label_1
_geom_bond_atom_site_label_2
_geom_bond_distance
_geom_bond_site_symmetry_2
F0 Mg0 1.953597 1_655
F0 W0 2.111063 1_555
F1 Mg1 1.953597 1_555
F1 W1 2.111063 1_555
F2 Mg2 1.953597 1_455
F2 W2 2.111063 1_555
F3 Mg3 1.953597 1_555
F3 W3 2.111063 1_555
F4 Mg3 2.017577 1_555
F4 Mg1 2.114125 1_555
F4 W0 2.136370 1_555
F5 Mg2 2.017577 1_456
F5 Mg0 2.114125 1_555
F5 W1 2.136370 1_555
F6 Mg1 2.017577 1_555
F6 Mg3 2.114125 1_555
F6 W2 2.136370 1_555
F7 Mg0 2.017577 1_654
F7 Mg2 2.114125 1_555
F7 W3 2.136370 1_555
F8 Mg1 1.921993 1_555
F8 W1 2.068884 1_545
F9 Mg0 1.921993 1_655
F9 W0 2.068884 1_565
F10 Mg3 1.921993 1_555
F10 W3 2.068884 1_565
F11 Mg2 1.921993 1_455
F11 W2 2.068884 1_545
F12 Mg0 1.936174 1_555
F12 W1 2.103175 1_545
F13 Mg1 1.936174 1_555
F13 W0 2.103175 1_565
F14 Mg2 1.936174 1_555
F14 W3 2.103175 1_565
F15 Mg3 1.936174 1_555
F15 W2 2.103175 1_545
F16 W3 2.137018 1_556
F16 W0 2.143491 1_555
F16 Mg1 2.645514 1_555
F17 W2 2.137018 1_555
F17 W1 2.143491 1_555
F17 Mg0 2.645514 1_555
F18 W1 2.137018 1_554
F18 W2 2.143491 1_555
F18 Mg3 2.645514 1_555
F19 W0 2.137018 1_555
F19 W3 2.143491 1_555
F19 Mg2 2.645514 1_555
