# generated using pymatgen
data_ThTlF5
_symmetry_space_group_name_H-M   'P 1'
_cell_length_a   7.19492328
_cell_length_b   8.05641676
_cell_length_c   8.94776010
_cell_angle_alpha   62.22518718
_cell_angle_beta   90.00000000
_cell_angle_gamma   90.00000000
_symmetry_Int_Tables_number   1
_chemical_formula_structural   ThTlF5
_chemical_formula_sum   'Th4 Tl4 F20'
_cell_volume   458.90270989
_cell_formula_units_Z   4
loop_
 _symmetry_equiv_pos_site_id
 _symmetry_equiv_pos_as_xyz
  1  'x, y, z'
loop_
 _atom_site_type_symbol
 _atom_site_label
 _atom_site_symmetry_multiplicity
 _atom_site_fract_x
 _atom_site_fract_y
 _atom_site_fract_z
 _atom_site_occupancy
  Th  Th0  1  0.65594141  0.41492166  0.36225089  1
  Th  Th1  1  0.84405859  0.41492166  0.86225089  1
  Th  Th2  1  0.34405859  0.58507834  0.63774911  1
  Th  Th3  1  0.15594141  0.58507834  0.13774911  1
  Tl  Tl0  1  0.62851739  0.92386358  0.84671139  1
  Tl  Tl1  1  0.87148261  0.92386358  0.34671139  1
  Tl  Tl2  1  0.37148261  0.07613642  0.15328861  1
  Tl  Tl3  1  0.12851739  0.07613642  0.65328861  1
  F  F0  1  0.47952612  0.65840083  0.14115861  1
  F  F1  1  0.02047388  0.65840083  0.64115861  1
  F  F2  1  0.52047388  0.34159917  0.85884139  1
  F  F3  1  0.97952612  0.34159917  0.35884139  1
  F  F4  1  0.57854183  0.66598898  0.42657358  1
  F  F5  1  0.92145817  0.66598898  0.92657358  1
  F  F6  1  0.42145817  0.33401102  0.57342642  1
  F  F7  1  0.07854183  0.33401102  0.07342642  1
  F  F8  1  0.68415281  0.10310440  0.49769724  1
  F  F9  1  0.81584719  0.10310440  0.99769724  1
  F  F10  1  0.31584719  0.89689560  0.50230276  1
  F  F11  1  0.18415281  0.89689560  0.00230276  1
  F  F12  1  0.36112622  0.32723904  0.28694994  1
  F  F13  1  0.13887378  0.32723904  0.78694994  1
  F  F14  1  0.63887378  0.67276096  0.71305006  1
  F  F15  1  0.86112622  0.67276096  0.21305006  1
  F  F16  1  0.79606101  0.36344474  0.62518903  1
  F  F17  1  0.70393899  0.36344474  0.12518903  1
  F  F18  1  0.20393899  0.63655526  0.37481097  1
  F  F19  1  0.29606101  0.63655526  0.87481097  1
loop_
_geom_bond_atom_site_label_1
_geom_bond_atom_site_label_2
_geom_bond_distance
_geom_bond_site_symmetry_2
F0 Th0 2.399128 1_555
F0 Th3 2.405626 1_555
F0 Tl0 2.722675 1_554
F1 Th1 2.399128 1_455
F1 Th2 2.405626 1_555
F1 Tl1 2.722675 1_455
F2 Th2 2.399128 1_555
F2 Th1 2.405626 1_555
F2 Tl2 2.722675 1_556
F3 Th3 2.399128 1_655
F3 Th0 2.405626 1_555
F3 Tl3 2.722675 1_655
F4 Th2 2.386133 1_555
F4 Th0 2.411988 1_555
F4 Tl1 2.808121 1_555
F5 Th3 2.386133 1_656
F5 Th1 2.411988 1_555
F5 Tl0 2.808121 1_555
F6 Th0 2.386133 1_555
F6 Th2 2.411988 1_555
F6 Tl3 2.808121 1_555
F7 Th1 2.386133 1_454
F7 Th3 2.411988 1_555
F7 Tl2 2.808121 1_555
F8 Th0 2.232328 1_555
F8 Tl1 2.746861 1_545
F8 Tl0 2.791961 1_545
F9 Th1 2.232328 1_555
F9 Tl0 2.746861 1_545
F9 Tl1 2.791961 1_546
F10 Th2 2.232328 1_555
F10 Tl3 2.746861 1_565
F10 Tl2 2.791961 1_565
F11 Th3 2.232328 1_555
F11 Tl2 2.746861 1_565
F11 Tl3 2.791961 1_564
F12 Th3 2.385816 1_555
F12 Th0 2.428158 1_555
F12 Tl2 2.789852 1_555
F13 Th2 2.385816 1_555
F13 Th1 2.428158 1_455
F13 Tl3 2.789852 1_555
F14 Th1 2.385816 1_555
F14 Th2 2.428158 1_555
F14 Tl0 2.789852 1_555
F15 Th0 2.385816 1_555
F15 Th3 2.428158 1_655
F15 Tl1 2.789852 1_555
F16 Th1 2.368648 1_555
F16 Th0 2.411271 1_555
F17 Th0 2.368648 1_555
F17 Th1 2.411271 1_554
F18 Th3 2.368648 1_555
F18 Th2 2.411271 1_555
F19 Th2 2.368648 1_555
F19 Th3 2.411271 1_556
