# generated using pymatgen
data_Nd2Co19Si3
_symmetry_space_group_name_H-M   'P 1'
_cell_length_a   7.54519779
_cell_length_b   7.54519779
_cell_length_c   6.27623675
_cell_angle_alpha   65.72080813
_cell_angle_beta   65.72080813
_cell_angle_gamma   80.69203516
_symmetry_Int_Tables_number   1
_chemical_formula_structural   Nd2Co19Si3
_chemical_formula_sum   'Nd2 Co19 Si3'
_cell_volume   296.88428135
_cell_formula_units_Z   1
loop_
 _symmetry_equiv_pos_site_id
 _symmetry_equiv_pos_as_xyz
  1  'x, y, z'
loop_
 _atom_site_type_symbol
 _atom_site_label
 _atom_site_symmetry_multiplicity
 _atom_site_fract_x
 _atom_site_fract_y
 _atom_site_fract_z
 _atom_site_occupancy
  Nd  Nd0  1  0.74807400  0.74807400  0.12667700  1
  Nd  Nd1  1  0.25192600  0.25192600  0.87332300  1
  Co  Co0  1  0.25238400  0.25238400  0.37440300  1
  Co  Co1  1  0.74761600  0.74761600  0.62559700  1
  Co  Co2  1  0.91980800  0.16860000  0.76943100  1
  Co  Co3  1  0.16860000  0.91980800  0.76943100  1
  Co  Co4  1  0.41944200  0.83256700  0.93734200  1
  Co  Co5  1  0.83256700  0.41944200  0.93734200  1
  Co  Co6  1  0.32946000  0.58150600  0.35788100  1
  Co  Co7  1  0.58150600  0.32946000  0.35788100  1
  Co  Co8  1  0.66980500  0.07896200  0.68947400  1
  Co  Co9  1  0.07896200  0.66980500  0.68947400  1
  Co  Co10  1  0.08019200  0.83140000  0.23056900  1
  Co  Co11  1  0.83140000  0.08019200  0.23056900  1
  Co  Co12  1  0.58055800  0.16743300  0.06265800  1
  Co  Co13  1  0.16743300  0.58055800  0.06265800  1
  Co  Co14  1  0.67054000  0.41849400  0.64211900  1
  Co  Co15  1  0.41849400  0.67054000  0.64211900  1
  Co  Co16  1  0.33019500  0.92103800  0.31052600  1
  Co  Co17  1  0.92103800  0.33019500  0.31052600  1
  Co  Co18  1  0.50000000  0.50000000  0.00000000  1
  Si  Si0  1  0.00000000  0.50000000  0.50000000  1
  Si  Si1  1  0.50000000  0.00000000  0.50000000  1
  Si  Si2  1  0.00000000  0.00000000  0.50000000  1
loop_
_geom_bond_atom_site_label_1
_geom_bond_atom_site_label_2
_geom_bond_distance
_geom_bond_site_symmetry_2
Co0 Co18 2.532056 1_555
Co0 Si1 2.562044 1_555
Co0 Si0 2.562044 1_555
Co0 Si2 2.564786 1_555
Co0 Co6 2.592584 1_555
Co0 Co7 2.592584 1_555
Co0 Co12 2.627562 1_555
Co0 Co13 2.627562 1_555
Co0 Co17 2.629003 1_455
Co0 Co16 2.629003 1_545
Co0 Co2 2.636534 1_455
Co0 Co3 2.636534 1_545
Co0 Nd1 3.128501 1_555
Co0 Nd1 3.147742 1_554
Co1 Co18 2.532056 1_556
Co1 Si1 2.562044 1_565
Co1 Si0 2.562044 1_655
Co1 Si2 2.564786 1_665
Co1 Co14 2.592584 1_555
Co1 Co15 2.592584 1_555
Co1 Co4 2.627562 1_555
Co1 Co5 2.627562 1_555
Co1 Co8 2.629003 1_565
Co1 Co9 2.629003 1_655
Co1 Co10 2.636534 1_655
Co1 Co11 2.636534 1_565
Co1 Nd0 3.128501 1_555
Co1 Nd0 3.147742 1_556
Co2 Si2 2.350012 1_655
Co2 Si0 2.376713 1_655
Co2 Co8 2.395359 1_555
Co2 Co5 2.406826 1_555
Co2 Co3 2.430587 1_645
Co2 Nd1 3.048025 1_655
Co2 Nd0 3.140718 1_546
Co3 Si2 2.350012 1_565
Co3 Si1 2.376713 1_565
Co3 Co9 2.395359 1_555
Co3 Co4 2.406826 1_555
Co3 Nd1 3.048025 1_565
Co3 Nd0 3.140718 1_456
Co4 Si1 2.350401 1_565
Co4 Co8 2.405360 1_565
Co4 Co6 2.417945 1_556
Co4 Nd0 3.042313 1_556
Co4 Nd1 3.138349 1_565
Co5 Si0 2.350401 1_655
Co5 Co9 2.405360 1_655
Co5 Co7 2.417945 1_556
Co5 Nd0 3.042313 1_556
Co5 Nd1 3.138349 1_655
Co6 Si0 2.360762 1_555
Co6 Co9 2.417750 1_555
Co6 Co7 2.462377 1_555
Co6 Nd1 3.047973 1_555
Co6 Nd0 3.110729 1_555
Co7 Si1 2.360762 1_555
Co7 Co8 2.417750 1_555
Co7 Nd1 3.047973 1_555
Co7 Nd0 3.110729 1_555
Co8 Si1 2.343745 1_555
Co8 Si2 2.375326 1_655
Co8 Nd0 3.055034 1_546
Co8 Nd1 3.145041 1_555
Co9 Si0 2.343745 1_555
Co9 Si2 2.375326 1_565
Co9 Nd0 3.055034 1_456
Co9 Nd1 3.145041 1_555
Co10 Si2 2.350012 1_565
Co10 Si0 2.376713 1_555
Co10 Co16 2.395359 1_555
Co10 Co13 2.406826 1_555
Co10 Co11 2.430587 1_465
Co10 Co4 2.461521 1_554
Co10 Co3 2.496998 1_554
Co10 Co6 2.565279 1_555
Co10 Co9 2.622209 1_555
Co10 Nd0 3.048025 1_455
Co10 Nd1 3.140718 1_564
Co11 Si2 2.350012 1_655
Co11 Si1 2.376713 1_555
Co11 Co17 2.395359 1_555
Co11 Co12 2.406826 1_555
Co11 Co5 2.461521 1_554
Co11 Co2 2.496998 1_554
Co11 Co7 2.565279 1_555
Co11 Co8 2.622209 1_555
Co11 Nd0 3.048025 1_545
Co11 Nd1 3.140718 1_654
Co12 Si1 2.350401 1_555
Co12 Co18 2.390041 1_555
Co12 Co16 2.405360 1_545
Co12 Co14 2.417945 1_554
Co12 Co2 2.461521 1_554
Co12 Co8 2.495640 1_554
Co12 Co5 2.561155 1_554
Co12 Co7 2.608520 1_555
Co12 Nd1 3.042313 1_554
Co12 Nd0 3.138349 1_545
Co13 Si0 2.350401 1_555
Co13 Co18 2.390041 1_555
Co13 Co17 2.405360 1_455
Co13 Co15 2.417945 1_554
Co13 Co3 2.461521 1_554
Co13 Co9 2.495640 1_554
Co13 Co4 2.561155 1_554
Co13 Co6 2.608520 1_555
Co13 Nd1 3.042313 1_554
Co13 Nd0 3.138349 1_455
Co14 Si0 2.360762 1_655
Co14 Co18 2.362680 1_556
Co14 Co17 2.417750 1_555
Co14 Co8 2.455291 1_555
Co14 Co15 2.462377 1_555
Co14 Co7 2.490400 1_555
Co14 Co2 2.565279 1_555
Co14 Co5 2.608520 1_555
Co14 Nd0 3.047973 1_555
Co14 Nd1 3.110729 1_555
Co15 Si1 2.360762 1_565
Co15 Co18 2.362680 1_556
Co15 Co16 2.417750 1_555
Co15 Co9 2.455291 1_555
Co15 Co6 2.490400 1_555
Co15 Co3 2.565279 1_555
Co15 Co4 2.608520 1_555
Co15 Nd0 3.047973 1_555
Co15 Nd1 3.110729 1_555
Co16 Si1 2.343745 1_565
Co16 Si2 2.375326 1_565
Co16 Co6 2.455291 1_555
Co16 Co4 2.495640 1_554
Co16 Co9 2.567185 1_555
Co16 Co3 2.622209 1_555
Co16 Nd1 3.055034 1_564
Co16 Nd0 3.145041 1_555
Co17 Si0 2.343745 1_655
Co17 Si2 2.375326 1_655
Co17 Co7 2.455291 1_555
Co17 Co5 2.495640 1_554
Co17 Co8 2.567185 1_555
Co17 Co2 2.622209 1_555
Co17 Nd1 3.055034 1_654
Co17 Nd0 3.145041 1_555
Co18 Co6 2.362680 1_555
Co18 Co7 2.362680 1_555
Co18 Co4 2.390041 1_554
Co18 Co5 2.390041 1_554
Co18 Nd1 3.349639 1_554
Co18 Nd0 3.349639 1_555
