# generated using pymatgen
data_MnSi7N10
_symmetry_space_group_name_H-M   'P 1'
_cell_length_a   6.73030398
_cell_length_b   6.89457100
_cell_length_c   9.71518599
_cell_angle_alpha   90.00000000
_cell_angle_beta   104.67044990
_cell_angle_gamma   90.00000000
_symmetry_Int_Tables_number   1
_chemical_formula_structural   MnSi7N10
_chemical_formula_sum   'Mn2 Si14 N20'
_cell_volume   436.11242178
_cell_formula_units_Z   2
loop_
 _symmetry_equiv_pos_site_id
 _symmetry_equiv_pos_as_xyz
  1  'x, y, z'
loop_
 _atom_site_type_symbol
 _atom_site_label
 _atom_site_symmetry_multiplicity
 _atom_site_fract_x
 _atom_site_fract_y
 _atom_site_fract_z
 _atom_site_occupancy
  Mn  Mn0  1  0.99758700  0.93380900  0.70104500  1
  Mn  Mn1  1  0.99758700  0.06619100  0.20104500  1
  Si  Si0  1  0.54121200  0.97939400  0.82270300  1
  Si  Si1  1  0.54121200  0.02060600  0.32270300  1
  Si  Si2  1  0.34947200  0.02221500  0.01905600  1
  Si  Si3  1  0.34947200  0.97778500  0.51905600  1
  Si  Si4  1  0.10963500  0.40017300  0.07328000  1
  Si  Si5  1  0.10963500  0.59982700  0.57328000  1
  Si  Si6  1  0.66009500  0.36140400  0.99073200  1
  Si  Si7  1  0.66009500  0.63859600  0.49073200  1
  Si  Si8  1  0.84356700  0.61581500  0.80762800  1
  Si  Si9  1  0.84356700  0.38418500  0.30762800  1
  Si  Si10  1  0.29829500  0.61834300  0.88168600  1
  Si  Si11  1  0.29829500  0.38165700  0.38168600  1
  Si  Si12  1  0.48432900  0.36672800  0.68526900  1
  Si  Si13  1  0.48432900  0.63327200  0.18526900  1
  N  N0  1  0.74820700  0.84536700  0.81010900  1
  N  N1  1  0.74820700  0.15463300  0.31010900  1
  N  N2  1  0.55336900  0.13617500  0.96779000  1
  N  N3  1  0.55336900  0.86382500  0.46779000  1
  N  N4  1  0.31320200  0.86957500  0.86435800  1
  N  N5  1  0.31320200  0.13042500  0.36435800  1
  N  N6  1  0.15207900  0.15937600  0.04428300  1
  N  N7  1  0.15207900  0.84062400  0.54428300  1
  N  N8  1  0.28927800  0.50566300  0.72203100  1
  N  N9  1  0.28927800  0.49433700  0.22203100  1
  N  N10  1  0.44538800  0.11959800  0.66986200  1
  N  N11  1  0.44538800  0.88040200  0.16986200  1
  N  N12  1  0.88249300  0.38382500  0.13093200  1
  N  N13  1  0.88249300  0.61617500  0.63093200  1
  N  N14  1  0.07569900  0.56889000  0.93373300  1
  N  N15  1  0.07569900  0.43111000  0.43373300  1
  N  N16  1  0.69959700  0.41343000  0.82361000  1
  N  N17  1  0.69959700  0.58657000  0.32361000  1
  N  N18  1  0.49879600  0.54188000  0.02119100  1
  N  N19  1  0.49879600  0.45812000  0.52119100  1
loop_
_geom_bond_atom_site_label_1
_geom_bond_atom_site_label_2
_geom_bond_distance
_geom_bond_site_symmetry_2
Mn0 N7 2.148360 1_655
Mn0 N0 2.283057 1_555
Mn0 N4 2.349158 1_655
Mn0 N13 2.364875 1_555
Mn1 N6 2.148360 1_655
Mn1 N1 2.283057 1_555
Mn1 N5 2.349158 1_655
Mn1 N12 2.364875 1_555
N0 Si0 1.701773 1_555
N0 Si8 1.710306 1_555
N1 Si1 1.701773 1_555
N1 Si9 1.710306 1_555
N2 Si6 1.701736 1_555
N2 Si2 1.759195 1_556
N2 Si0 1.761683 1_545
N3 Si7 1.701736 1_555
N3 Si3 1.759195 1_555
N3 Si1 1.761683 1_565
N4 Si10 1.745640 1_555
N4 Si2 1.800013 1_566
N4 Si0 1.845681 1_555
N5 Si11 1.745640 1_555
N5 Si3 1.800013 1_545
N5 Si1 1.845681 1_555
N6 Si2 1.698301 1_555
N6 Si4 1.719873 1_555
N7 Si3 1.698301 1_555
N7 Si5 1.719873 1_555
N8 Si10 1.722031 1_555
N8 Si12 1.733760 1_555
N8 Si5 1.756906 1_555
N9 Si11 1.722031 1_555
N9 Si13 1.733760 1_555
N9 Si4 1.756906 1_555
N10 Si12 1.724629 1_555
N10 Si3 1.743612 1_545
N10 Si0 1.752181 1_545
N11 Si13 1.724629 1_555
N11 Si2 1.743612 1_565
N11 Si1 1.752181 1_565
N12 Si6 1.756955 1_554
N12 Si4 1.759872 1_655
N12 Si9 1.800909 1_555
N13 Si7 1.756955 1_555
N13 Si5 1.759872 1_655
N13 Si8 1.800909 1_555
N14 Si10 1.732066 1_555
N14 Si8 1.754127 1_455
N14 Si4 1.756822 1_556
N15 Si11 1.732066 1_555
N15 Si9 1.754127 1_455
N15 Si5 1.756822 1_555
N16 Si8 1.728069 1_555
N16 Si12 1.738623 1_555
N16 Si6 1.747608 1_555
N17 Si9 1.728069 1_555
N17 Si13 1.738623 1_555
N17 Si7 1.747608 1_555
N18 Si6 1.725423 1_554
N18 Si10 1.734761 1_554
N18 Si13 1.739576 1_555
N19 Si7 1.725423 1_555
N19 Si11 1.734761 1_555
N19 Si12 1.739576 1_555
