# generated using pymatgen
data_YbGa2Ni3
_symmetry_space_group_name_H-M   'P 1'
_cell_length_a   8.92697700
_cell_length_b   8.92697737
_cell_length_c   3.87540800
_cell_angle_alpha   90.00000000
_cell_angle_beta   90.00000000
_cell_angle_gamma   120.00000233
_symmetry_Int_Tables_number   1
_chemical_formula_structural   YbGa2Ni3
_chemical_formula_sum   'Yb3 Ga6 Ni9'
_cell_volume   267.45880670
_cell_formula_units_Z   3
loop_
 _symmetry_equiv_pos_site_id
 _symmetry_equiv_pos_as_xyz
  1  'x, y, z'
loop_
 _atom_site_type_symbol
 _atom_site_label
 _atom_site_symmetry_multiplicity
 _atom_site_fract_x
 _atom_site_fract_y
 _atom_site_fract_z
 _atom_site_occupancy
  Yb  Yb0  1  0.00000000  0.00000000  0.00000000  1
  Yb  Yb1  1  0.66666700  0.33333300  0.50000000  1
  Yb  Yb2  1  0.33333300  0.66666700  0.50000000  1
  Ga  Ga0  1  0.67701100  0.67701100  0.50000000  1
  Ga  Ga1  1  0.32298900  0.00000000  0.50000000  1
  Ga  Ga2  1  0.00000000  0.32298900  0.50000000  1
  Ga  Ga3  1  0.32298900  0.32298900  0.50000000  1
  Ga  Ga4  1  0.67701100  0.00000000  0.50000000  1
  Ga  Ga5  1  0.00000000  0.67701100  0.50000000  1
  Ni  Ni0  1  0.50000000  0.50000000  0.00000000  1
  Ni  Ni1  1  0.50000000  0.00000000  0.00000000  1
  Ni  Ni2  1  0.00000000  0.50000000  0.00000000  1
  Ni  Ni3  1  0.82340600  0.17659400  0.00000000  1
  Ni  Ni4  1  0.82340600  0.64681100  0.00000000  1
  Ni  Ni5  1  0.35318900  0.17659400  0.00000000  1
  Ni  Ni6  1  0.17659400  0.82340600  0.00000000  1
  Ni  Ni7  1  0.64681100  0.82340600  0.00000000  1
  Ni  Ni8  1  0.17659400  0.35318900  0.00000000  1
loop_
_geom_bond_atom_site_label_1
_geom_bond_atom_site_label_2
_geom_bond_distance
_geom_bond_site_symmetry_2
Ga0 Ni4 2.426437 1_556
Ga0 Ni4 2.426437 1_555
Ga0 Ni7 2.426437 1_555
Ga0 Ni7 2.426437 1_556
Ga0 Ni0 2.500329 1_556
Ga0 Ni0 2.500329 1_555
Ga0 Yb2 3.022893 1_555
Ga0 Yb1 3.022893 1_555
Ga1 Ni5 2.426432 1_556
Ga1 Ni5 2.426432 1_555
Ga1 Ni6 2.426434 1_545
Ga1 Ni6 2.426434 1_546
Ga1 Ni1 2.500329 1_556
Ga1 Ni1 2.500329 1_555
Ga1 Yb2 3.022884 1_545
Ga1 Yb1 3.022889 1_555
Ga2 Ni8 2.426432 1_556
Ga2 Ni8 2.426432 1_555
Ga2 Ni3 2.426434 1_455
Ga2 Ni3 2.426434 1_456
Ga2 Ni2 2.500329 1_556
Ga2 Ni2 2.500329 1_555
Ga2 Yb1 3.022884 1_455
Ga2 Yb2 3.022889 1_555
Ga3 Ni8 2.426437 1_555
Ga3 Ni8 2.426437 1_556
Ga3 Ni5 2.426437 1_556
Ga3 Ni5 2.426437 1_555
Ga3 Ni0 2.500329 1_555
Ga3 Ni0 2.500329 1_556
Ga3 Yb1 3.022893 1_555
Ga3 Yb2 3.022893 1_555
Ga4 Ni7 2.426432 1_546
Ga4 Ni7 2.426432 1_545
Ga4 Ni3 2.426434 1_555
Ga4 Ni3 2.426434 1_556
Ga4 Ni1 2.500329 1_556
Ga4 Ni1 2.500329 1_555
Ga4 Yb1 3.022884 1_555
Ga4 Yb2 3.022889 1_545
Ga5 Ni4 2.426432 1_455
Ga5 Ni4 2.426432 1_456
Ga5 Ni6 2.426434 1_556
Ga5 Ni6 2.426434 1_555
Ga5 Ni2 2.500329 1_556
Ga5 Ni2 2.500329 1_555
Ga5 Yb2 3.022884 1_555
Ga5 Yb1 3.022889 1_455
Ni0 Ni4 2.503780 1_555
Ni0 Ni8 2.503780 1_555
Ni0 Ni7 2.503780 1_555
Ni0 Ni5 2.503780 1_555
Ni0 Yb2 3.224226 1_555
Ni0 Yb2 3.224226 1_554
Ni0 Yb1 3.224226 1_555
Ni0 Yb1 3.224226 1_554
Ni1 Ni5 2.503772 1_555
Ni1 Ni7 2.503772 1_545
Ni1 Ni6 2.503779 1_545
Ni1 Ni3 2.503779 1_555
Ni1 Yb2 3.224220 1_544
Ni1 Yb2 3.224220 1_545
Ni1 Yb1 3.224220 1_555
Ni1 Yb1 3.224220 1_554
Ni2 Ni4 2.503772 1_455
Ni2 Ni8 2.503772 1_555
Ni2 Ni6 2.503780 1_555
Ni2 Ni3 2.503780 1_455
Ni2 Yb2 3.224220 1_555
Ni2 Yb1 3.224220 1_455
Ni2 Yb1 3.224220 1_454
Ni2 Yb2 3.224220 1_554
Ni3 Ni8 2.730492 1_655
Ni3 Ni7 2.730493 1_545
Ni3 Yb0 2.730493 1_655
Ni3 Yb1 3.102906 1_554
Ni3 Yb1 3.102906 1_555
Ni4 Ni6 2.730492 1_655
Ni4 Yb0 2.730500 1_665
Ni4 Ni7 2.730508 1_555
Ni4 Yb1 3.102906 1_554
Ni4 Yb1 3.102906 1_555
Ni5 Ni6 2.730493 1_545
Ni5 Yb0 2.730500 1_555
Ni5 Ni8 2.730508 1_555
Ni5 Yb1 3.102906 1_555
Ni5 Yb1 3.102906 1_554
Ni6 Yb0 2.730493 1_565
Ni6 Yb2 3.102906 1_555
Ni6 Yb2 3.102906 1_554
Ni7 Yb0 2.730500 1_665
Ni7 Yb2 3.102906 1_554
Ni7 Yb2 3.102906 1_555
Ni8 Yb0 2.730500 1_555
Ni8 Yb2 3.102906 1_554
Ni8 Yb2 3.102906 1_555
