# generated using pymatgen
data_Lu3InS6
_symmetry_space_group_name_H-M   'P 1'
_cell_length_a   3.79628500
_cell_length_b   13.23819200
_cell_length_c   16.42185700
_cell_angle_alpha   90.00000000
_cell_angle_beta   90.00000000
_cell_angle_gamma   90.00000000
_symmetry_Int_Tables_number   1
_chemical_formula_structural   Lu3InS6
_chemical_formula_sum   'Lu12 In4 S24'
_cell_volume   825.29601965
_cell_formula_units_Z   4
loop_
 _symmetry_equiv_pos_site_id
 _symmetry_equiv_pos_as_xyz
  1  'x, y, z'
loop_
 _atom_site_type_symbol
 _atom_site_label
 _atom_site_symmetry_multiplicity
 _atom_site_fract_x
 _atom_site_fract_y
 _atom_site_fract_z
 _atom_site_occupancy
  Lu  Lu0  1  0.25304500  0.03538100  0.77578100  1
  Lu  Lu1  1  0.25304500  0.96461900  0.22421900  1
  Lu  Lu2  1  0.74695400  0.46461900  0.27578100  1
  Lu  Lu3  1  0.74695400  0.53538100  0.72421900  1
  Lu  Lu4  1  0.26438100  0.24692500  0.61144800  1
  Lu  Lu5  1  0.26438100  0.75307500  0.38855200  1
  Lu  Lu6  1  0.73561900  0.25307500  0.11144800  1
  Lu  Lu7  1  0.73561900  0.74692500  0.88855200  1
  Lu  Lu8  1  0.74802300  0.30956300  0.85623400  1
  Lu  Lu9  1  0.74802300  0.69043700  0.14376600  1
  Lu  Lu10  1  0.25197700  0.19043700  0.35623400  1
  Lu  Lu11  1  0.25197700  0.80956300  0.64376600  1
  In  In0  1  0.75305200  0.00000000  0.50000000  1
  In  In1  1  0.24694800  0.50000000  0.00000000  1
  In  In2  1  0.37371400  0.50000000  0.50000000  1
  In  In3  1  0.62628600  0.00000000  0.00000000  1
  S  S0  1  0.76928700  0.39664300  0.59431300  1
  S  S1  1  0.76928700  0.60335700  0.40568700  1
  S  S2  1  0.23071300  0.10335700  0.09431300  1
  S  S3  1  0.23071300  0.89664300  0.90568700  1
  S  S4  1  0.24710600  0.30520800  0.97966700  1
  S  S5  1  0.24710600  0.69479200  0.02033300  1
  S  S6  1  0.75289400  0.19479200  0.47966700  1
  S  S7  1  0.75289400  0.80520800  0.52033300  1
  S  S8  1  0.75115600  0.10875200  0.88204100  1
  S  S9  1  0.75115600  0.89124800  0.11795900  1
  S  S10  1  0.24884400  0.39124800  0.38204100  1
  S  S11  1  0.24884400  0.60875200  0.61795900  1
  S  S12  1  0.76010600  0.17940700  0.71632200  1
  S  S13  1  0.76010600  0.82059300  0.28367800  1
  S  S14  1  0.23989400  0.32059300  0.21632200  1
  S  S15  1  0.23989400  0.67940700  0.78367800  1
  S  S16  1  0.24975800  0.38414800  0.75652700  1
  S  S17  1  0.24975800  0.61585200  0.24347300  1
  S  S18  1  0.75024200  0.11585200  0.25652700  1
  S  S19  1  0.75024200  0.88414800  0.74347300  1
  S  S20  1  0.25350800  0.02067300  0.60709100  1
  S  S21  1  0.25350800  0.97932700  0.39290900  1
  S  S22  1  0.74649200  0.47932700  0.10709100  1
  S  S23  1  0.74649200  0.52067300  0.89290900  1
loop_
_geom_bond_atom_site_label_1
_geom_bond_atom_site_label_2
_geom_bond_distance
_geom_bond_site_symmetry_2
Lu0 S8 2.750304 1_555
Lu0 S8 2.760185 1_455
Lu0 S20 2.777038 1_555
Lu0 S19 2.802207 1_545
Lu0 S3 2.816273 1_545
Lu0 S19 2.816586 1_445
Lu0 S12 2.844398 1_455
Lu0 S12 2.879952 1_555
Lu1 S9 2.750304 1_555
Lu1 S9 2.760185 1_455
Lu1 S21 2.777038 1_555
Lu1 S18 2.802207 1_565
Lu1 S2 2.816273 1_565
Lu1 S18 2.816586 1_465
Lu1 S13 2.844398 1_455
Lu1 S13 2.879952 1_555
Lu2 S10 2.750302 1_555
Lu2 S10 2.760188 1_655
Lu2 S22 2.777038 1_555
Lu2 S17 2.802204 1_555
Lu2 S1 2.816273 1_555
Lu2 S17 2.816588 1_655
Lu2 S14 2.844401 1_655
Lu2 S14 2.879950 1_555
Lu3 S11 2.750302 1_555
Lu3 S11 2.760188 1_655
Lu3 S23 2.777038 1_555
Lu3 S16 2.802204 1_555
Lu3 S0 2.816273 1_555
Lu3 S16 2.816588 1_655
Lu3 S15 2.844401 1_655
Lu3 S15 2.879950 1_555
Lu4 S12 2.703066 1_555
Lu4 S12 2.725764 1_455
Lu4 S0 2.745919 1_455
Lu4 S0 2.771549 1_555
Lu4 S6 2.932385 1_555
Lu4 S6 2.988307 1_455
Lu4 S20 2.996306 1_555
Lu4 S16 2.996533 1_555
Lu5 S13 2.703066 1_555
Lu5 S13 2.725764 1_455
Lu5 S1 2.745919 1_455
Lu5 S1 2.771549 1_555
Lu5 S7 2.932385 1_555
Lu5 S7 2.988307 1_455
Lu5 S21 2.996306 1_555
Lu5 S17 2.996533 1_555
Lu6 S14 2.703066 1_555
Lu6 S14 2.725764 1_655
Lu6 S2 2.745919 1_655
Lu6 S2 2.771549 1_555
Lu6 S4 2.932385 1_554
Lu6 S4 2.988307 1_654
Lu6 S22 2.996306 1_555
Lu6 S18 2.996533 1_555
Lu7 S15 2.703066 1_555
Lu7 S15 2.725764 1_655
Lu7 S3 2.745919 1_655
Lu7 S3 2.771549 1_555
Lu7 S5 2.932385 1_556
Lu7 S5 2.988307 1_656
Lu7 S23 2.996306 1_555
Lu7 S19 2.996533 1_555
Lu8 S16 2.689587 1_555
Lu8 S8 2.691970 1_555
Lu8 S16 2.698868 1_655
Lu8 S4 2.775210 1_655
Lu8 S4 2.779968 1_555
Lu8 S23 2.858880 1_555
Lu8 S12 2.872276 1_555
Lu9 S17 2.689587 1_555
Lu9 S9 2.691970 1_555
Lu9 S17 2.698868 1_655
Lu9 S5 2.775210 1_655
Lu9 S5 2.779968 1_555
Lu9 S22 2.858880 1_555
Lu9 S13 2.872276 1_555
Lu10 S18 2.689587 1_555
Lu10 S10 2.691970 1_555
Lu10 S18 2.698868 1_455
Lu10 S6 2.775210 1_455
Lu10 S6 2.779968 1_555
Lu10 S21 2.858880 1_545
Lu10 S14 2.872276 1_555
Lu11 S19 2.689587 1_555
Lu11 S11 2.691970 1_555
Lu11 S19 2.698868 1_455
Lu11 S7 2.775210 1_455
Lu11 S7 2.779968 1_555
Lu11 S20 2.858880 1_565
Lu11 S15 2.872276 1_555
In0 S7 2.600222 1_545
In0 S6 2.600222 1_555
In0 S21 2.600781 1_545
In0 S20 2.600781 1_555
In0 S21 2.603307 1_645
In0 S20 2.603307 1_655
In1 S5 2.600222 1_555
In1 S4 2.600222 1_554
In1 S22 2.600781 1_555
In1 S23 2.600781 1_554
In1 S22 2.603307 1_455
In1 S23 2.603307 1_454
In2 S10 2.459629 1_555
In2 S11 2.459629 1_555
In2 S0 2.554609 1_555
In2 S1 2.554609 1_555
In2 S1 3.088039 1_455
In2 S0 3.088039 1_455
In3 S9 2.459629 1_545
In3 S8 2.459629 1_554
In3 S2 2.554609 1_555
In3 S3 2.554609 1_544
In3 S3 3.088039 1_644
In3 S2 3.088039 1_655
