# generated using pymatgen
data_Li5Ni3(SnO5)2
_symmetry_space_group_name_H-M   'P 1'
_cell_length_a   5.19369070
_cell_length_b   10.50243604
_cell_length_c   8.04573530
_cell_angle_alpha   70.77006137
_cell_angle_beta   77.72974928
_cell_angle_gamma   99.71897629
_symmetry_Int_Tables_number   1
_chemical_formula_structural   Li5Ni3(SnO5)2
_chemical_formula_sum   'Li10 Ni6 Sn4 O20'
_cell_volume   391.11401942
_cell_formula_units_Z   2
loop_
 _symmetry_equiv_pos_site_id
 _symmetry_equiv_pos_as_xyz
  1  'x, y, z'
loop_
 _atom_site_type_symbol
 _atom_site_label
 _atom_site_symmetry_multiplicity
 _atom_site_fract_x
 _atom_site_fract_y
 _atom_site_fract_z
 _atom_site_occupancy
  Li  Li0  1  0.99546300  0.99973100  0.49922800  1
  Li  Li1  1  0.49537000  0.49974200  0.99927800  1
  Li  Li2  1  0.58804100  0.08557400  0.32184500  1
  Li  Li3  1  0.08786000  0.58552200  0.82192300  1
  Li  Li4  1  0.39628500  0.90654300  0.68326500  1
  Li  Li5  1  0.89608300  0.40642400  0.18327500  1
  Li  Li6  1  0.69747000  0.19297600  0.60954500  1
  Li  Li7  1  0.19761400  0.69292400  0.10942800  1
  Li  Li8  1  0.31920000  0.81625800  0.38554000  1
  Li  Li9  1  0.81904200  0.31625500  0.88546500  1
  Ni  Ni0  1  0.99630700  0.49841600  0.50019000  1
  Ni  Ni1  1  0.59988400  0.59958700  0.29965300  1
  Ni  Ni2  1  0.40110800  0.40010000  0.70133900  1
  Ni  Ni3  1  0.49575500  0.99834400  0.00057000  1
  Ni  Ni4  1  0.09958800  0.09950700  0.79967800  1
  Ni  Ni5  1  0.90090000  0.89998100  0.20109300  1
  Sn  Sn0  1  0.30637200  0.29841500  0.40456800  1
  Sn  Sn1  1  0.80632700  0.79844100  0.90441400  1
  Sn  Sn2  1  0.69473200  0.70270300  0.59866700  1
  Sn  Sn3  1  0.19448600  0.20260200  0.09874100  1
  O  O0  1  0.64600000  0.40179400  0.45251500  1
  O  O1  1  0.14592000  0.90180600  0.95242100  1
  O  O2  1  0.37048800  0.59746600  0.52927000  1
  O  O3  1  0.87023900  0.09742400  0.02932800  1
  O  O4  1  0.05951300  0.30310000  0.64267900  1
  O  O5  1  0.55948800  0.80305800  0.14268900  1
  O  O6  1  0.92018600  0.69295900  0.35164100  1
  O  O7  1  0.41983900  0.19289300  0.85179100  1
  O  O8  1  0.96432600  0.20384700  0.34339000  1
  O  O9  1  0.46439600  0.70382300  0.84329900  1
  O  O10  1  0.03557600  0.79391000  0.65989200  1
  O  O11  1  0.53546500  0.29384200  0.15994400  1
  O  O12  1  0.25193200  0.00599500  0.23393600  1
  O  O13  1  0.75226100  0.50603700  0.73365800  1
  O  O14  1  0.77060400  0.00196000  0.76630500  1
  O  O15  1  0.27113500  0.50201600  0.26608100  1
  O  O16  1  0.33034200  0.10358500  0.57009600  1
  O  O17  1  0.83051000  0.60365100  0.07008000  1
  O  O18  1  0.65703400  0.89538700  0.44657600  1
  O  O19  1  0.15685700  0.39540300  0.94670200  1
loop_
_geom_bond_atom_site_label_1
_geom_bond_atom_site_label_2
_geom_bond_distance
_geom_bond_site_symmetry_2
Li0 O18 2.107562 1_555
Li0 O8 2.150918 1_565
Li0 O16 2.174967 1_665
Li0 O10 2.193827 1_655
Li0 O14 2.226567 1_565
Li0 O12 2.236964 1_665
Li1 O19 2.107547 1_555
Li1 O9 2.150614 1_555
Li1 O17 2.175956 1_556
Li1 O11 2.194465 1_556
Li1 O15 2.223835 1_556
Li1 O13 2.239847 1_555
Li2 O18 2.049223 1_545
Li2 O12 2.160476 1_555
Li2 O8 2.204207 1_555
Li2 O16 2.239344 1_555
Li2 O11 2.243154 1_555
Li2 O3 2.445803 1_555
Li3 O19 2.048709 1_555
Li3 O13 2.159768 1_455
Li3 O9 2.204775 1_555
Li3 O17 2.238573 1_456
Li3 O10 2.243845 1_555
Li3 O2 2.447199 1_555
Li4 O16 2.087942 1_565
Li4 O10 2.119525 1_555
Li4 O18 2.139765 1_555
Li4 O9 2.226657 1_555
Li4 O1 2.256821 1_555
Li4 O14 2.359124 1_565
Li5 O17 2.088859 1_555
Li5 O11 2.118753 1_555
Li5 O19 2.138458 1_654
Li5 O8 2.225965 1_555
Li5 O0 2.257283 1_555
Li5 O15 2.361789 1_655
Li6 O16 2.113516 1_555
Li6 O14 2.133959 1_555
Li6 O4 2.150884 1_655
Li6 O7 2.163760 1_555
Li6 O0 2.234654 1_555
Li6 O8 2.245798 1_555
Li7 O17 2.112589 1_455
Li7 O15 2.133735 1_555
Li7 O5 2.150717 1_555
Li7 O6 2.163565 1_455
Li7 O1 2.235624 1_554
Li7 O9 2.245365 1_554
Li8 O18 2.037937 1_555
Li8 O12 2.096623 1_565
Li8 O5 2.143560 1_555
Li8 O10 2.292894 1_555
Li8 O2 2.296858 1_555
Li8 O6 2.369124 1_455
Li9 O19 2.038826 1_655
Li9 O13 2.096353 1_555
Li9 O4 2.143298 1_655
Li9 O11 2.293380 1_556
Li9 O3 2.297235 1_556
Li9 O7 2.369335 1_555
Ni0 O13 2.064637 1_555
Ni0 O15 2.092556 1_655
Ni0 O0 2.101602 1_555
Ni0 O4 2.113788 1_655
Ni0 O2 2.141179 1_655
Ni0 O6 2.150425 1_555
Ni1 O15 1.956002 1_555
Ni1 O17 1.959256 1_555
Ni1 O2 1.965035 1_555
Ni1 O6 1.979688 1_555
Ni1 O0 2.120249 1_555
Ni1 O5 2.166038 1_555
Ni2 O13 2.082957 1_555
Ni2 O19 2.087855 1_555
Ni2 O4 2.114363 1_555
Ni2 O0 2.124271 1_555
Ni2 O2 2.133796 1_555
Ni2 O7 2.144018 1_555
Ni3 O12 2.063632 1_565
Ni3 O14 2.093484 1_564
Ni3 O1 2.101242 1_554
Ni3 O5 2.113960 1_555
Ni3 O3 2.141435 1_565
Ni3 O7 2.150505 1_564
Ni4 O14 1.956095 1_455
Ni4 O16 1.959528 1_555
Ni4 O3 1.965311 1_456
Ni4 O7 1.980094 1_555
Ni4 O1 2.119650 1_545
Ni4 O4 2.166510 1_555
Ni5 O12 2.084848 1_665
Ni5 O18 2.088255 1_555
Ni5 O5 2.112110 1_555
Ni5 O1 2.122987 1_654
Ni5 O3 2.133658 1_565
Ni5 O6 2.143551 1_555
O0 Sn0 2.087479 1_555
O1 Sn1 2.087528 1_455
O2 Sn2 2.132369 1_555
O3 Sn3 2.132167 1_655
O4 Sn0 2.087058 1_555
O5 Sn1 2.087756 1_554
O6 Sn2 2.125323 1_555
O7 Sn3 2.124459 1_556
O8 Sn3 2.079842 1_655
O8 Sn0 2.117212 1_655
O9 Sn2 2.079527 1_555
O9 Sn1 2.116655 1_555
O10 Sn1 2.091786 1_455
O10 Sn2 2.098312 1_455
O11 Sn0 2.092352 1_555
O11 Sn3 2.098920 1_555
O12 Sn3 2.098156 1_555
O13 Sn2 2.098487 1_555
O14 Sn1 2.120101 1_545
O15 Sn0 2.120545 1_555
O16 Sn0 2.082658 1_555
O17 Sn1 2.083095 1_554
O18 Sn2 2.057989 1_555
O19 Sn3 2.058716 1_556
