# generated using pymatgen
data_Na2MnPO5F2
_symmetry_space_group_name_H-M   'P 1'
_cell_length_a   5.76125435
_cell_length_b   6.70759139
_cell_length_c   8.05069000
_cell_angle_alpha   90.00000000
_cell_angle_beta   90.00000000
_cell_angle_gamma   108.41911721
_symmetry_Int_Tables_number   1
_chemical_formula_structural   Na2MnPO5F2
_chemical_formula_sum   'Na4 Mn2 P2 O10 F4'
_cell_volume   295.17392352
_cell_formula_units_Z   2
loop_
 _symmetry_equiv_pos_site_id
 _symmetry_equiv_pos_as_xyz
  1  'x, y, z'
loop_
 _atom_site_type_symbol
 _atom_site_label
 _atom_site_symmetry_multiplicity
 _atom_site_fract_x
 _atom_site_fract_y
 _atom_site_fract_z
 _atom_site_occupancy
  Na  Na0  1  0.99403400  0.45585000  0.75000000  1
  Na  Na1  1  0.00596600  0.54415000  0.25000000  1
  Na  Na2  1  0.50000000  0.50000000  0.00000000  1
  Na  Na3  1  0.50000000  0.50000000  0.50000000  1
  Mn  Mn0  1  0.00000000  0.00000000  0.00000000  1
  Mn  Mn1  1  0.00000000  0.00000000  0.50000000  1
  P  P0  1  0.51832100  0.89851500  0.75000000  1
  P  P1  1  0.48167900  0.10148500  0.25000000  1
  O  O0  1  0.41087400  0.78850000  0.90821800  1
  O  O1  1  0.58912600  0.21150000  0.09178200  1
  O  O2  1  0.58912600  0.21150000  0.40821800  1
  O  O3  1  0.41087400  0.78850000  0.59178200  1
  O  O4  1  0.79916600  0.00681200  0.75000000  1
  O  O5  1  0.20083400  0.99318800  0.25000000  1
  O  O6  1  0.38035200  0.10276700  0.75000000  1
  O  O7  1  0.61964800  0.89723300  0.25000000  1
  O  O8  1  0.52720700  0.30315300  0.75000000  1
  O  O9  1  0.47279300  0.69684700  0.25000000  1
  F  F0  1  0.89361800  0.68689400  0.99787900  1
  F  F1  1  0.10638200  0.31310600  0.00212100  1
  F  F2  1  0.10638200  0.31310600  0.49787900  1
  F  F3  1  0.89361800  0.68689400  0.50212100  1
loop_
_geom_bond_atom_site_label_1
_geom_bond_atom_site_label_2
_geom_bond_distance
_geom_bond_site_symmetry_2
Na0 O8 2.557683 1_555
Na0 O4 2.862775 1_555
Na0 O0 2.997033 1_655
Na0 O3 2.997033 1_655
Na1 O9 2.557683 1_555
Na1 O5 2.862775 1_555
Na1 O2 2.997033 1_455
Na1 O1 2.997033 1_455
Na2 O1 2.276473 1_555
Na2 O0 2.276473 1_554
Na2 O8 2.439176 1_554
Na2 O9 2.439176 1_555
Na3 O2 2.276473 1_555
Na3 O3 2.276473 1_555
Na3 O8 2.439176 1_555
Na3 O9 2.439176 1_555
Mn0 O5 2.329190 1_545
Mn0 O4 2.329190 1_454
Mn1 O5 2.329190 1_545
Mn1 O4 2.329190 1_455
O0 P0 1.503846 1_555
O1 P1 1.503846 1_555
O2 P1 1.503846 1_555
O3 P0 1.503846 1_555
O4 P0 1.550136 1_545
O5 P1 1.550136 1_565
O6 O8 1.343064 1_555
O6 P0 1.788019 1_545
O7 O9 1.343064 1_555
O7 P1 1.788019 1_565
F0 Mn0 1.993314 1_666
F0 Na2 2.217646 1_556
F0 Na1 2.418100 1_656
F0 Na0 2.699145 1_555
F1 Mn0 1.993314 1_555
F1 Na2 2.217646 1_555
F1 Na0 2.418100 1_454
F1 Na1 2.699145 1_555
F2 Mn1 1.993314 1_555
F2 Na3 2.217646 1_555
F2 Na0 2.418100 1_455
F2 Na1 2.699145 1_555
F3 Mn1 1.993314 1_665
F3 Na3 2.217646 1_555
F3 Na1 2.418100 1_655
F3 Na0 2.699145 1_555
