# generated using pymatgen
data_La3Mg2TiS8
_symmetry_space_group_name_H-M   'P 1'
_cell_length_a   8.09587999
_cell_length_b   7.94736325
_cell_length_c   8.09448303
_cell_angle_alpha   59.38725008
_cell_angle_beta   59.99740593
_cell_angle_gamma   59.37690126
_symmetry_Int_Tables_number   1
_chemical_formula_structural   La3Mg2TiS8
_chemical_formula_sum   'La3 Mg2 Ti1 S8'
_cell_volume   364.78151848
_cell_formula_units_Z   1
loop_
 _symmetry_equiv_pos_site_id
 _symmetry_equiv_pos_as_xyz
  1  'x, y, z'
loop_
 _atom_site_type_symbol
 _atom_site_label
 _atom_site_symmetry_multiplicity
 _atom_site_fract_x
 _atom_site_fract_y
 _atom_site_fract_z
 _atom_site_occupancy
  La  La0  1  0.49998600  0.50003500  0.49998100  1
  La  La1  1  0.49999600  0.49999000  0.00000600  1
  La  La2  1  0.99997600  0.50001400  0.50002200  1
  Mg  Mg0  1  0.87522300  0.87446800  0.87516700  1
  Mg  Mg1  1  0.12479900  0.12548800  0.12484000  1
  Ti  Ti0  1  0.50002500  0.99997000  0.50001800  1
  S  S0  1  0.72960300  0.77770200  0.72952200  1
  S  S1  1  0.27040800  0.22230700  0.73675300  1
  S  S2  1  0.25141000  0.74573700  0.25143700  1
  S  S3  1  0.73668000  0.22208300  0.27059100  1
  S  S4  1  0.74857600  0.25428100  0.74853600  1
  S  S5  1  0.26332100  0.77790500  0.72941700  1
  S  S6  1  0.27039800  0.22229800  0.27048400  1
  S  S7  1  0.72960100  0.77771700  0.26322600  1
loop_
_geom_bond_atom_site_label_1
_geom_bond_atom_site_label_2
_geom_bond_distance
_geom_bond_site_symmetry_2
La0 S2 2.820448 1_555
La0 S4 2.820579 1_555
La0 S5 2.881772 1_555
La0 S3 2.881991 1_555
La0 S7 2.882316 1_555
La0 S1 2.882375 1_555
La1 S2 2.820346 1_555
La1 S4 2.820362 1_554
La1 S5 2.881952 1_554
La1 S3 2.881975 1_555
La1 S6 2.882240 1_555
La1 S0 2.882402 1_554
La2 S4 2.820776 1_555
La2 S2 2.820918 1_655
La2 S0 2.880984 1_555
La2 S1 2.881306 1_655
La2 S7 2.881325 1_555
La2 S6 2.881361 1_655
Mg0 S4 2.441351 1_565
Mg0 S7 2.570608 1_556
Mg0 S0 2.570626 1_555
Mg0 S5 2.571263 1_655
Mg1 S2 2.440952 1_545
Mg1 S6 2.570745 1_555
Mg1 S1 2.570750 1_554
Mg1 S3 2.571383 1_455
S0 Ti0 2.606162 1_555
S1 Ti0 2.605680 1_545
S3 Ti0 2.604621 1_545
S5 Ti0 2.604645 1_555
S6 Ti0 2.606602 1_545
S7 Ti0 2.605554 1_555
