# generated using pymatgen
data_Li2MnVP2(HO5)2
_symmetry_space_group_name_H-M   'P 1'
_cell_length_a   6.95590800
_cell_length_b   7.49641487
_cell_length_c   7.86257683
_cell_angle_alpha   116.84456917
_cell_angle_beta   91.57554929
_cell_angle_gamma   90.78181309
_symmetry_Int_Tables_number   1
_chemical_formula_structural   Li2MnVP2(HO5)2
_chemical_formula_sum   'Li4 Mn2 V2 P4 H4 O20'
_cell_volume   365.51214991
_cell_formula_units_Z   2
loop_
 _symmetry_equiv_pos_site_id
 _symmetry_equiv_pos_as_xyz
  1  'x, y, z'
loop_
 _atom_site_type_symbol
 _atom_site_label
 _atom_site_symmetry_multiplicity
 _atom_site_fract_x
 _atom_site_fract_y
 _atom_site_fract_z
 _atom_site_occupancy
  Li  Li0  1  0.16134900  0.58470100  0.76274100  1
  Li  Li1  1  0.34058300  0.91407900  0.73993800  1
  Li  Li2  1  0.65873900  0.08887100  0.26125500  1
  Li  Li3  1  0.83822700  0.41313600  0.23513200  1
  Mn  Mn0  1  0.25116500  0.74967300  0.24944900  1
  Mn  Mn1  1  0.50172800  0.49997100  0.50097900  1
  V  V0  1  0.99917500  0.99999700  0.00081900  1
  V  V1  1  0.74849700  0.25127000  0.75074600  1
  P  P0  1  0.59080000  0.72662500  0.96132100  1
  P  P1  1  0.09748100  0.22738000  0.45875800  1
  P  P2  1  0.90713300  0.77545900  0.54069300  1
  P  P3  1  0.40496600  0.27144300  0.03983600  1
  H  H0  1  0.04267800  0.32056300  0.98076800  1
  H  H1  1  0.54524100  0.81327700  0.48329900  1
  H  H2  1  0.45594200  0.18482200  0.51743800  1
  H  H3  1  0.95607400  0.67927500  0.01737500  1
  O  O0  1  0.05432800  0.83751900  0.71255500  1
  O  O1  1  0.01242600  0.69283700  0.34766000  1
  O  O2  1  0.43974100  0.66975700  0.79615900  1
  O  O3  1  0.71754000  0.90681500  0.98136300  1
  O  O4  1  0.07621600  0.75631700  0.02653800  1
  O  O5  1  0.22119800  0.40913900  0.47712900  1
  O  O6  1  0.42468700  0.73646100  0.47489000  1
  O  O7  1  0.72093500  0.54941600  0.93154600  1
  O  O8  1  0.50404700  0.18832400  0.84321900  1
  O  O9  1  0.77608800  0.95081100  0.56789700  1
  O  O10  1  0.22748100  0.05304700  0.43413800  1
  O  O11  1  0.49120000  0.81013100  0.15863400  1
  O  O12  1  0.27558900  0.44748800  0.06724100  1
  O  O13  1  0.57785700  0.26142400  0.52791800  1
  O  O14  1  0.78241900  0.59275700  0.51880500  1
  O  O15  1  0.92128000  0.24317800  0.96852900  1
  O  O16  1  0.27869000  0.09185400  0.02263100  1
  O  O17  1  0.55809000  0.32918500  0.20467400  1
  O  O18  1  0.99253000  0.30928400  0.65096500  1
  O  O19  1  0.94788000  0.16371400  0.28696400  1
loop_
_geom_bond_atom_site_label_1
_geom_bond_atom_site_label_2
_geom_bond_distance
_geom_bond_site_symmetry_2
Li0 O4 1.996539 1_556
Li0 O2 2.003128 1_555
Li0 O5 2.084579 1_555
Li0 O18 2.156941 1_455
Li0 O0 2.235961 1_555
Li1 O6 2.010048 1_555
Li1 O0 2.043066 1_555
Li1 O16 2.072389 1_566
Li1 O8 2.134595 1_565
Li1 O2 2.185081 1_555
Li2 O13 2.005254 1_555
Li2 O3 2.055496 1_544
Li2 O19 2.060375 1_555
Li2 O17 2.162068 1_555
Li2 O11 2.175897 1_545
Li3 O15 2.006407 1_554
Li3 O17 2.013762 1_555
Li3 O14 2.070744 1_555
Li3 O1 2.200840 1_655
Li3 O19 2.225738 1_555
Mn0 O11 1.959645 1_555
Mn0 O1 1.970762 1_555
Mn0 O12 2.075034 1_555
Mn0 O10 2.085347 1_565
Mn0 O4 2.125653 1_555
Mn0 O6 2.157025 1_555
Mn1 O6 1.954606 1_555
Mn1 O13 1.971007 1_555
Mn1 O5 2.033430 1_555
Mn1 O14 2.043379 1_555
Mn1 O17 2.142555 1_555
Mn1 O2 2.143478 1_555
H0 O15 0.995290 1_455
H1 O6 0.994255 1_555
H2 O13 0.997913 1_555
H3 O4 0.991499 1_655
O0 P2 1.560085 1_455
O0 V0 2.082083 1_456
O1 P2 1.564635 1_455
O2 P0 1.544324 1_555
O3 P0 1.547340 1_555
O3 V0 2.049098 1_556
O4 V0 2.004837 1_455
O5 P1 1.549636 1_555
O7 P0 1.550011 1_555
O7 V1 2.051857 1_555
O8 P3 1.566350 1_556
O8 V1 1.999627 1_555
O9 P2 1.547281 1_555
O9 V1 2.068652 1_565
O10 P1 1.541586 1_555
O11 P0 1.572419 1_554
O12 P3 1.544082 1_555
O13 V1 2.119605 1_555
O14 P2 1.550643 1_555
O15 V0 2.029458 1_546
O15 V1 2.088750 1_555
O16 P3 1.548868 1_555
O16 V0 2.030340 1_445
O17 P3 1.551266 1_555
O18 P1 1.558417 1_655
O18 V1 2.011783 1_555
O19 P1 1.569105 1_655
O19 V0 2.063407 1_545
