# generated using pymatgen
data_Ca2Mn3Si3H3O14
_symmetry_space_group_name_H-M   'P 1'
_cell_length_a   6.20288200
_cell_length_b   9.08309400
_cell_length_c   10.35615371
_cell_angle_alpha   68.62638143
_cell_angle_beta   90.00000000
_cell_angle_gamma   90.00000000
_symmetry_Int_Tables_number   1
_chemical_formula_structural   Ca2Mn3Si3H3O14
_chemical_formula_sum   'Ca4 Mn6 Si6 H6 O28'
_cell_volume   543.35021901
_cell_formula_units_Z   2
loop_
 _symmetry_equiv_pos_site_id
 _symmetry_equiv_pos_as_xyz
  1  'x, y, z'
loop_
 _atom_site_type_symbol
 _atom_site_label
 _atom_site_symmetry_multiplicity
 _atom_site_fract_x
 _atom_site_fract_y
 _atom_site_fract_z
 _atom_site_occupancy
  Ca  Ca0  1  0.25000000  0.20430100  0.17990400  1
  Ca  Ca1  1  0.75000000  0.79569900  0.82009600  1
  Ca  Ca2  1  0.25000000  0.33001800  0.81262000  1
  Ca  Ca3  1  0.75000000  0.66998200  0.18738000  1
  Mn  Mn0  1  0.50000000  0.50000000  0.50000000  1
  Mn  Mn1  1  0.00000000  0.50000000  0.50000000  1
  Mn  Mn2  1  0.50000000  0.00000000  0.00000000  1
  Mn  Mn3  1  0.00000000  0.00000000  0.00000000  1
  Mn  Mn4  1  0.50000000  0.00000000  0.50000000  1
  Mn  Mn5  1  0.00000000  0.00000000  0.50000000  1
  Si  Si0  1  0.25000000  0.66397900  0.00477800  1
  Si  Si1  1  0.75000000  0.33602100  0.99522200  1
  Si  Si2  1  0.25000000  0.70746300  0.69859800  1
  Si  Si3  1  0.75000000  0.29253700  0.30140200  1
  Si  Si4  1  0.25000000  0.80673200  0.31180400  1
  Si  Si5  1  0.75000000  0.19326800  0.68819600  1
  H  H0  1  0.25000000  0.08467900  0.66288600  1
  H  H1  1  0.75000000  0.91532100  0.33711400  1
  H  H2  1  0.25000000  0.49184800  0.23690100  1
  H  H3  1  0.75000000  0.50815200  0.76309900  1
  H  H4  1  0.25000000  0.29117500  0.48588000  1
  H  H5  1  0.75000000  0.70882500  0.51412000  1
  O  O0  1  0.25000000  0.06097800  0.88314400  1
  O  O1  1  0.75000000  0.93902200  0.11685600  1
  O  O2  1  0.46521200  0.69309900  0.33620500  1
  O  O3  1  0.53478800  0.30690100  0.66379500  1
  O  O4  1  0.96521200  0.30690100  0.66379500  1
  O  O5  1  0.03478800  0.69309900  0.33620500  1
  O  O6  1  0.25000000  0.49117400  0.14123100  1
  O  O7  1  0.75000000  0.50882600  0.85876900  1
  O  O8  1  0.46943800  0.81615800  0.66818300  1
  O  O9  1  0.53056200  0.18384200  0.33181700  1
  O  O10  1  0.96943800  0.18384200  0.33181700  1
  O  O11  1  0.03056200  0.81615800  0.66818300  1
  O  O12  1  0.25000000  0.91401300  0.40924200  1
  O  O13  1  0.75000000  0.08598700  0.59075800  1
  O  O14  1  0.25000000  0.94560800  0.15358200  1
  O  O15  1  0.75000000  0.05439200  0.84641800  1
  O  O16  1  0.25000000  0.57418600  0.62730500  1
  O  O17  1  0.75000000  0.42581400  0.37269500  1
  O  O18  1  0.25000000  0.60261300  0.87063700  1
  O  O19  1  0.75000000  0.39738700  0.12936300  1
  O  O20  1  0.25000000  0.10518900  0.56267300  1
  O  O21  1  0.75000000  0.89481100  0.43732700  1
  O  O22  1  0.47712900  0.75767600  0.00377600  1
  O  O23  1  0.52287100  0.24232400  0.99622400  1
  O  O24  1  0.97712900  0.24232400  0.99622400  1
  O  O25  1  0.02287100  0.75767600  0.00377600  1
  O  O26  1  0.25000000  0.41151100  0.43675300  1
  O  O27  1  0.75000000  0.58848900  0.56324700  1
loop_
_geom_bond_atom_site_label_1
_geom_bond_atom_site_label_2
_geom_bond_distance
_geom_bond_site_symmetry_2
Ca0 O9 2.307623 1_555
Ca0 O10 2.307623 1_455
Ca0 O14 2.462200 1_545
Ca0 O23 2.474612 1_554
Ca0 O24 2.474612 1_454
Ca0 O6 2.487846 1_555
Ca0 O12 2.833472 1_545
Ca1 O11 2.307623 1_655
Ca1 O8 2.307623 1_555
Ca1 O15 2.462200 1_565
Ca1 O25 2.474612 1_656
Ca1 O22 2.474612 1_556
Ca1 O7 2.487846 1_555
Ca1 O13 2.833472 1_565
Ca2 O0 2.281281 1_555
Ca2 O16 2.345077 1_555
Ca2 O3 2.403328 1_555
Ca2 O4 2.403328 1_455
Ca2 O23 2.451694 1_555
Ca2 O24 2.451694 1_455
Ca2 O18 2.752446 1_555
Ca3 O1 2.281281 1_555
Ca3 O17 2.345077 1_555
Ca3 O5 2.403328 1_655
Ca3 O2 2.403328 1_555
Ca3 O25 2.451694 1_655
Ca3 O22 2.451694 1_555
Ca3 O19 2.752446 1_555
Mn0 O3 1.957459 1_555
Mn0 O2 1.957459 1_555
Mn0 O27 1.965580 1_555
Mn0 O26 1.965580 1_555
Mn0 O16 2.290084 1_555
Mn0 O17 2.290084 1_555
Mn1 O4 1.957459 1_455
Mn1 O5 1.957459 1_555
Mn1 O27 1.965580 1_455
Mn1 O26 1.965580 1_555
Mn1 O16 2.290084 1_555
Mn1 O17 2.290084 1_455
Mn2 O1 1.920279 1_545
Mn2 O0 1.920279 1_554
Mn2 O14 2.146114 1_545
Mn2 O15 2.146114 1_554
Mn2 O23 2.191699 1_554
Mn2 O22 2.191699 1_545
Mn3 O1 1.920279 1_445
Mn3 O0 1.920279 1_554
Mn3 O14 2.146114 1_545
Mn3 O15 2.146114 1_454
Mn3 O24 2.191699 1_454
Mn3 O25 2.191699 1_545
Mn4 O9 1.933397 1_555
Mn4 O8 1.933397 1_545
Mn4 O20 2.047164 1_555
Mn4 O21 2.047164 1_545
Mn4 O13 2.105525 1_555
Mn4 O12 2.105525 1_545
Mn5 O10 1.933397 1_455
Mn5 O11 1.933397 1_545
Mn5 O20 2.047164 1_555
Mn5 O21 2.047164 1_445
Mn5 O13 2.105525 1_455
Mn5 O12 2.105525 1_545
H0 O20 0.985319 1_555
H1 O21 0.985319 1_555
H2 O6 0.993021 1_555
H3 O7 0.993021 1_555
H4 O26 1.023821 1_555
H4 O20 1.583362 1_555
H5 O27 1.023821 1_555
H5 O21 1.583362 1_555
O2 Si4 1.649578 1_555
O3 Si5 1.649578 1_555
O4 Si5 1.649578 1_555
O5 Si4 1.649578 1_555
O6 Si0 1.686375 1_555
O7 Si1 1.686375 1_555
O8 Si2 1.643168 1_555
O9 Si3 1.643168 1_555
O10 Si3 1.643168 1_555
O11 Si2 1.643168 1_555
O12 Si4 1.638447 1_555
O13 Si5 1.638447 1_555
O14 Si4 1.664190 1_555
O15 Si5 1.664190 1_555
O16 Si2 1.631585 1_555
O17 Si3 1.631585 1_555
O18 Si0 1.674790 1_556
O18 Si2 1.686574 1_555
O19 Si1 1.674790 1_554
O19 Si3 1.686574 1_555
O22 Si0 1.644032 1_555
O23 Si1 1.644032 1_555
O24 Si1 1.644032 1_555
O25 Si0 1.644032 1_555
