# generated using pymatgen
data_YV2O4
_symmetry_space_group_name_H-M   'P 1'
_cell_length_a   6.41888559
_cell_length_b   6.41888559
_cell_length_c   6.41888468
_cell_angle_alpha   58.70190772
_cell_angle_beta   58.70190772
_cell_angle_gamma   58.70191093
_symmetry_Int_Tables_number   1
_chemical_formula_structural   YV2O4
_chemical_formula_sum   'Y2 V4 O8'
_cell_volume   181.46267583
_cell_formula_units_Z   2
loop_
 _symmetry_equiv_pos_site_id
 _symmetry_equiv_pos_as_xyz
  1  'x, y, z'
loop_
 _atom_site_type_symbol
 _atom_site_label
 _atom_site_symmetry_multiplicity
 _atom_site_fract_x
 _atom_site_fract_y
 _atom_site_fract_z
 _atom_site_occupancy
  Y  Y0  1  0.62485900  0.62485900  0.62485900  1
  Y  Y1  1  0.37514100  0.37514100  0.37514100  1
  V  V0  1  0.50000000  0.00000000  0.00000000  1
  V  V1  1  0.00000000  0.00000000  0.00000000  1
  V  V2  1  0.00000000  0.50000000  0.00000000  1
  V  V3  1  0.00000000  0.00000000  0.50000000  1
  O  O0  1  0.76032200  0.20943700  0.76032200  1
  O  O1  1  0.23967800  0.23967800  0.79056300  1
  O  O2  1  0.79056300  0.23967800  0.23967800  1
  O  O3  1  0.23643100  0.23643100  0.23643100  1
  O  O4  1  0.76032200  0.76032200  0.20943700  1
  O  O5  1  0.23967800  0.79056300  0.23967800  1
  O  O6  1  0.20943700  0.76032200  0.76032200  1
  O  O7  1  0.76356900  0.76356900  0.76356900  1
loop_
_geom_bond_atom_site_label_1
_geom_bond_atom_site_label_2
_geom_bond_distance
_geom_bond_site_symmetry_2
O0 V3 2.116709 1_655
O0 V0 2.116709 1_556
O0 Y0 2.142461 1_555
O0 V1 2.168514 1_656
O1 V2 2.116709 1_556
O1 V0 2.116709 1_556
O1 Y1 2.142461 1_555
O1 V1 2.168514 1_556
O2 V3 2.116709 1_655
O2 V2 2.116709 1_655
O2 Y1 2.142461 1_555
O2 V1 2.168514 1_655
O3 V0 2.127514 1_555
O3 V2 2.127514 1_555
O3 V3 2.127514 1_555
O3 Y1 2.202088 1_555
O4 V0 2.116709 1_565
O4 V2 2.116709 1_655
O4 Y0 2.142461 1_555
O4 V1 2.168514 1_665
O5 V3 2.116709 1_565
O5 V0 2.116709 1_565
O5 Y1 2.142461 1_555
O5 V1 2.168514 1_565
O6 V3 2.116709 1_565
O6 V2 2.116709 1_556
O6 Y0 2.142461 1_555
O6 V1 2.168514 1_566
O7 V0 2.127514 1_566
O7 V2 2.127514 1_656
O7 V3 2.127514 1_665
O7 Y0 2.202088 1_555
