# generated using pymatgen
data_Sm4Fe3Co(AsO)4
_symmetry_space_group_name_H-M   'P 1'
_cell_length_a   5.65882900
_cell_length_b   5.65882900
_cell_length_c   9.09940200
_cell_angle_alpha   90.00000000
_cell_angle_beta   90.00000000
_cell_angle_gamma   90.00000000
_symmetry_Int_Tables_number   1
_chemical_formula_structural   Sm4Fe3Co(AsO)4
_chemical_formula_sum   'Sm4 Fe3 Co1 As4 O4'
_cell_volume   291.38419606
_cell_formula_units_Z   1
loop_
 _symmetry_equiv_pos_site_id
 _symmetry_equiv_pos_as_xyz
  1  'x, y, z'
loop_
 _atom_site_type_symbol
 _atom_site_label
 _atom_site_symmetry_multiplicity
 _atom_site_fract_x
 _atom_site_fract_y
 _atom_site_fract_z
 _atom_site_occupancy
  Sm  Sm0  1  0.24993100  0.24993100  0.87336600  1
  Sm  Sm1  1  0.75006900  0.75006900  0.87336600  1
  Sm  Sm2  1  0.75006900  0.24993100  0.12663400  1
  Sm  Sm3  1  0.24993100  0.75006900  0.12663400  1
  Fe  Fe0  1  0.50000000  0.50000000  0.50000000  1
  Fe  Fe1  1  0.00000000  0.50000000  0.50000000  1
  Fe  Fe2  1  0.50000000  0.00000000  0.50000000  1
  Co  Co0  1  0.00000000  0.00000000  0.50000000  1
  As  As0  1  0.24491100  0.24491100  0.32410500  1
  As  As1  1  0.75508900  0.75508900  0.32410500  1
  As  As2  1  0.75508900  0.24491100  0.67589500  1
  As  As3  1  0.24491100  0.75508900  0.67589500  1
  O  O0  1  0.00000000  0.00000000  0.00000000  1
  O  O1  1  0.50000000  0.50000000  0.00000000  1
  O  O2  1  0.00000000  0.50000000  0.00000000  1
  O  O3  1  0.50000000  0.00000000  0.00000000  1
loop_
_geom_bond_atom_site_label_1
_geom_bond_atom_site_label_2
_geom_bond_distance
_geom_bond_site_symmetry_2
As0 Co0 2.530458 1_555
As0 Fe1 2.562455 1_555
As0 Fe2 2.562455 1_555
As0 Fe0 2.594059 1_555
As0 Sm2 3.327282 1_455
As0 Sm3 3.327282 1_545
As0 Sm2 3.376559 1_555
As0 Sm3 3.376559 1_555
As1 Co0 2.530458 1_665
As1 Fe1 2.562455 1_655
As1 Fe2 2.562455 1_565
As1 Fe0 2.594059 1_555
As1 Sm3 3.327282 1_655
As1 Sm2 3.327282 1_565
As1 Sm2 3.376559 1_555
As1 Sm3 3.376559 1_555
As2 Co0 2.530458 1_655
As2 Fe2 2.562455 1_555
As2 Fe1 2.562455 1_655
As2 Fe0 2.594059 1_555
As2 Sm0 3.327282 1_655
As2 Sm1 3.327282 1_545
As2 Sm1 3.376559 1_555
As2 Sm0 3.376559 1_555
As3 Co0 2.530458 1_565
As3 Fe1 2.562455 1_555
As3 Fe2 2.562455 1_565
As3 Fe0 2.594059 1_555
As3 Sm0 3.327282 1_565
As3 Sm1 3.327282 1_455
As3 Sm1 3.376559 1_555
As3 Sm0 3.376559 1_555
O0 Sm3 2.308325 1_545
O0 Sm2 2.308325 1_455
O0 Sm0 2.308325 1_554
O0 Sm1 2.308325 1_444
O1 Sm2 2.309282 1_555
O1 Sm3 2.309282 1_555
O1 Sm1 2.309282 1_554
O1 Sm0 2.309282 1_554
O2 Sm0 2.308804 1_554
O2 Sm2 2.308804 1_455
O2 Sm3 2.308804 1_555
O2 Sm1 2.308804 1_454
O3 Sm0 2.308804 1_554
O3 Sm3 2.308804 1_545
O3 Sm2 2.308804 1_555
O3 Sm1 2.308804 1_544
