# generated using pymatgen
data_RbTm(WO4)2
_symmetry_space_group_name_H-M   'P 1'
_cell_length_a   7.44252292
_cell_length_b   7.44252292
_cell_length_c   7.49198084
_cell_angle_alpha   62.20289461
_cell_angle_beta   62.20289461
_cell_angle_gamma   88.22255122
_symmetry_Int_Tables_number   1
_chemical_formula_structural   RbTm(WO4)2
_chemical_formula_sum   'Rb2 Tm2 W4 O16'
_cell_volume   315.38629895
_cell_formula_units_Z   2
loop_
 _symmetry_equiv_pos_site_id
 _symmetry_equiv_pos_as_xyz
  1  'x, y, z'
loop_
 _atom_site_type_symbol
 _atom_site_label
 _atom_site_symmetry_multiplicity
 _atom_site_fract_x
 _atom_site_fract_y
 _atom_site_fract_z
 _atom_site_occupancy
  Rb  Rb0  1  0.19855215  0.80144785  0.75000000  1
  Rb  Rb1  1  0.80144785  0.19855215  0.25000000  1
  Tm  Tm0  1  0.77360434  0.22639566  0.75000000  1
  Tm  Tm1  1  0.22639566  0.77360434  0.25000000  1
  W  W0  1  0.69832002  0.69435558  0.77103847  1
  W  W1  1  0.30167998  0.30564442  0.22896153  1
  W  W2  1  0.30564442  0.30167998  0.72896153  1
  W  W3  1  0.69435558  0.69832002  0.27103847  1
  O  O0  1  0.61763036  0.76019656  0.55989944  1
  O  O1  1  0.38236964  0.23980344  0.44010056  1
  O  O2  1  0.23980344  0.38236964  0.94010056  1
  O  O3  1  0.76019656  0.61763036  0.05989944  1
  O  O4  1  0.37392087  0.05983892  0.87810769  1
  O  O5  1  0.62607913  0.94016108  0.12189231  1
  O  O6  1  0.94016108  0.62607913  0.62189231  1
  O  O7  1  0.05983892  0.37392087  0.37810769  1
  O  O8  1  0.58935894  0.36985428  0.96467192  1
  O  O9  1  0.41064106  0.63014572  0.03532808  1
  O  O10  1  0.63014572  0.41064106  0.53532808  1
  O  O11  1  0.36985428  0.58935894  0.46467192  1
  O  O12  1  0.78494779  0.95604879  0.69638385  1
  O  O13  1  0.21505221  0.04395121  0.30361615  1
  O  O14  1  0.04395121  0.21505221  0.80361615  1
  O  O15  1  0.95604879  0.78494779  0.19638385  1
loop_
_geom_bond_atom_site_label_1
_geom_bond_atom_site_label_2
_geom_bond_distance
_geom_bond_site_symmetry_2
O0 W0 1.802166 1_555
O0 W3 2.232102 1_555
O0 Rb0 2.838331 1_555
O0 Rb1 2.855782 1_565
O1 W1 1.802166 1_555
O1 W2 2.232102 1_555
O1 Rb1 2.838331 1_555
O1 Rb0 2.855782 1_545
O2 W2 1.802166 1_555
O2 W1 2.232102 1_556
O2 Rb0 2.838331 1_555
O2 Rb1 2.855782 1_456
O3 W3 1.802166 1_555
O3 W0 2.232102 1_554
O3 Rb1 2.838331 1_555
O3 Rb0 2.855782 1_654
O4 W2 1.828519 1_555
O4 Tm1 2.294045 1_546
O4 Rb0 3.060799 1_545
O5 W3 1.828519 1_555
O5 Tm0 2.294045 1_564
O5 Rb1 3.060799 1_565
O6 W0 1.828519 1_555
O6 Tm1 2.294045 1_655
O6 Rb0 3.060799 1_655
O7 W1 1.828519 1_555
O7 Tm0 2.294045 1_455
O7 Rb1 3.060799 1_455
O8 W1 1.989979 1_556
O8 W0 2.086004 1_555
O8 Tm0 2.249625 1_555
O8 Rb1 3.027711 1_556
O9 W0 1.989979 1_554
O9 W1 2.086004 1_555
O9 Tm1 2.249625 1_555
O9 Rb0 3.027711 1_554
O10 W3 1.989979 1_555
O10 W2 2.086004 1_555
O10 Tm0 2.249625 1_555
O10 Rb1 3.027711 1_555
O11 W2 1.989979 1_555
O11 W3 2.086004 1_555
O11 Tm1 2.249625 1_555
O11 Rb0 3.027711 1_555
O12 W0 1.802062 1_555
O12 Tm0 2.220030 1_565
O12 Rb1 2.908258 1_565
O12 Rb0 3.385770 1_655
O13 W1 1.802062 1_555
O13 Tm1 2.220030 1_545
O13 Rb0 2.908258 1_545
O13 Rb1 3.385770 1_455
O14 W2 1.802062 1_555
O14 Tm0 2.220030 1_455
O14 Rb1 2.908258 1_456
O14 Rb0 3.385770 1_545
O15 W3 1.802062 1_555
O15 Tm1 2.220030 1_655
O15 Rb0 2.908258 1_654
O15 Rb1 3.385770 1_565
