# generated using pymatgen
data_Cr7FeO12
_symmetry_space_group_name_H-M   'P 1'
_cell_length_a   10.05306434
_cell_length_b   10.17296806
_cell_length_c   9.29886966
_cell_angle_alpha   88.43103070
_cell_angle_beta   88.39264097
_cell_angle_gamma   91.14206696
_symmetry_Int_Tables_number   1
_chemical_formula_structural   Cr7FeO12
_chemical_formula_sum   'Cr28 Fe4 O48'
_cell_volume   950.05626821
_cell_formula_units_Z   4
loop_
 _symmetry_equiv_pos_site_id
 _symmetry_equiv_pos_as_xyz
  1  'x, y, z'
loop_
 _atom_site_type_symbol
 _atom_site_label
 _atom_site_symmetry_multiplicity
 _atom_site_fract_x
 _atom_site_fract_y
 _atom_site_fract_z
 _atom_site_occupancy
  Cr  Cr0  1  0.27945800  0.17840500  0.45997700  1
  Cr  Cr1  1  0.07747700  0.36951800  0.02856700  1
  Cr  Cr2  1  0.30636300  0.85615900  0.25245800  1
  Cr  Cr3  1  0.60521900  0.96055000  0.07069000  1
  Cr  Cr4  1  0.60789000  0.32038600  0.06029600  1
  Cr  Cr5  1  0.63528200  0.36205500  0.44545400  1
  Cr  Cr6  1  0.05355500  0.68766200  0.30206900  1
  Cr  Cr7  1  0.40914500  0.74190700  0.82101400  1
  Cr  Cr8  1  0.46413100  0.28937500  0.70727700  1
  Cr  Cr9  1  0.70170400  0.01120500  0.68051000  1
  Cr  Cr10  1  0.88043000  0.14471800  0.89672900  1
  Cr  Cr11  1  0.29470000  0.53986500  0.27062500  1
  Cr  Cr12  1  0.20635400  0.58263900  0.67511800  1
  Cr  Cr13  1  0.48154900  0.63026400  0.47702100  1
  Cr  Cr14  1  0.75086300  0.86046800  0.40161300  1
  Cr  Cr15  1  0.97143700  0.13349400  0.51561200  1
  Cr  Cr16  1  0.71764000  0.65043000  0.93563400  1
  Cr  Cr17  1  0.98007300  0.41956300  0.42201000  1
  Cr  Cr18  1  0.83423600  0.46890300  0.14585700  1
  Cr  Cr19  1  0.96122300  0.85939100  0.72720500  1
  Cr  Cr20  1  0.80893100  0.37195600  0.74083200  1
  Cr  Cr21  1  0.15953600  0.28384800  0.74113300  1
  Cr  Cr22  1  0.50794500  0.07259900  0.35344900  1
  Cr  Cr23  1  0.19297800  0.02391100  0.91786000  1
  Cr  Cr24  1  0.87746000  0.90536300  0.03147700  1
  Cr  Cr25  1  0.73247300  0.62160700  0.63597800  1
  Cr  Cr26  1  0.32466100  0.24198400  0.08804600  1
  Cr  Cr27  1  0.21272400  0.87046600  0.57329400  1
  Fe  Fe0  1  0.08559200  0.69629500  0.98806500  1
  Fe  Fe1  1  0.05499600  0.99377400  0.24883500  1
  Fe  Fe2  1  0.42549600  0.01617900  0.77323800  1
  Fe  Fe3  1  0.82261800  0.18519700  0.25094400  1
  O  O0  1  0.63221000  0.98185200  0.48763300  1
  O  O1  1  0.49799500  0.23210100  0.49834200  1
  O  O2  1  0.87924500  0.01167800  0.37198000  1
  O  O3  1  0.83805000  0.26789500  0.43966700  1
  O  O4  1  0.11416100  0.13332300  0.36140200  1
  O  O5  1  0.22418400  0.99452100  0.11807800  1
  O  O6  1  0.65328400  0.51540700  0.05995400  1
  O  O7  1  0.75873600  0.29055800  0.93684500  1
  O  O8  1  0.84168800  0.14726500  0.68805400  1
  O  O9  1  0.98809500  0.32049200  0.83615600  1
  O  O10  1  0.45588100  0.28526200  0.93992000  1
  O  O11  1  0.80858900  0.54897500  0.80589800  1
  O  O12  1  0.80554200  0.82380700  0.60973500  1
  O  O13  1  0.21180000  0.68927600  0.16814300  1
  O  O14  1  0.18441100  0.21635200  0.94974700  1
  O  O15  1  0.25095600  0.63270600  0.86772800  1
  O  O16  1  0.99802200  0.82345500  0.16005700  1
  O  O17  1  0.48466000  0.92563700  0.22477600  1
  O  O18  1  0.63265300  0.12270900  0.16770800  1
  O  O19  1  0.08663300  0.73462600  0.65266000  1
  O  O20  1  0.14690000  0.54619300  0.41776200  1
  O  O21  1  0.27614900  0.89086400  0.78493200  1
  O  O22  1  0.06792300  0.98982700  0.61138100  1
  O  O23  1  0.92129300  0.08937500  0.10488400  1
  O  O24  1  0.30131600  0.16120400  0.68904800  1
  O  O25  1  0.74716300  0.99569300  0.90486300  1
  O  O26  1  0.57259400  0.13170300  0.74786700  1
  O  O27  1  0.72559400  0.85578100  0.16140900  1
  O  O28  1  0.01227300  0.98253700  0.88390000  1
  O  O29  1  0.29821500  0.41373200  0.69167700  1
  O  O30  1  0.64791800  0.69079600  0.45722600  1
  O  O31  1  0.34391800  0.99663800  0.45796200  1
  O  O32  1  0.98480700  0.53018600  0.02532200  1
  O  O33  1  0.35867700  0.69801300  0.61497300  1
  O  O34  1  0.90268600  0.56737200  0.30242400  1
  O  O35  1  0.49123400  0.89190800  0.93233000  1
  O  O36  1  0.96537600  0.33488400  0.20126600  1
  O  O37  1  0.62661100  0.41511300  0.65058700  1
  O  O38  1  0.14391700  0.84601900  0.37583700  1
  O  O39  1  0.37791000  0.19627500  0.27156800  1
  O  O40  1  0.59191700  0.68627400  0.78529600  1
  O  O41  1  0.47522900  0.47401500  0.39265200  1
  O  O42  1  0.69920700  0.34433100  0.24241300  1
  O  O43  1  0.39147200  0.69835600  0.33081600  1
  O  O44  1  0.86770100  0.48903200  0.57108100  1
  O  O45  1  0.23891000  0.40232600  0.14165000  1
  O  O46  1  0.08866900  0.29261800  0.55069700  1
  O  O47  1  0.88546200  0.76097100  0.90317300  1
loop_
_geom_bond_atom_site_label_1
_geom_bond_atom_site_label_2
_geom_bond_distance
_geom_bond_site_symmetry_2
Cr0 O31 1.971921 1_545
Cr0 O4 1.972316 1_555
Cr0 O39 1.990030 1_555
Cr0 O24 2.150260 1_555
Cr0 O1 2.293277 1_555
Cr0 O46 2.406687 1_555
Cr1 O32 1.897338 1_455
Cr1 O36 1.955700 1_455
Cr1 O45 1.986025 1_555
Cr1 O14 2.050805 1_554
Cr1 O9 2.092512 1_454
Cr2 O17 1.921532 1_555
Cr2 O43 1.966144 1_555
Cr2 O38 1.968641 1_555
Cr2 O5 2.057459 1_555
Cr2 O13 2.109734 1_555
Cr2 O31 2.450529 1_555
Cr3 O27 1.836157 1_555
Cr3 O17 1.872325 1_555
Cr3 O35 1.885742 1_554
Cr3 O18 1.920567 1_565
Cr3 O25 2.089945 1_554
Cr4 O7 1.910313 1_554
Cr4 O10 1.952435 1_554
Cr4 O42 1.967451 1_555
Cr4 O6 2.026764 1_555
Cr4 O18 2.242204 1_555
Cr5 O1 1.935978 1_555
Cr5 O42 1.991339 1_555
Cr5 O37 1.996607 1_555
Cr5 O41 2.052810 1_555
Cr5 O3 2.269402 1_555
Cr6 O34 1.929598 1_455
Cr6 O38 1.981940 1_555
Cr6 O16 1.983948 1_455
Cr6 O13 1.992155 1_555
Cr6 O20 2.033432 1_555
Cr7 O15 1.953507 1_555
Cr7 O40 1.955565 1_555
Cr7 O35 2.040894 1_555
Cr7 O33 2.054267 1_555
Cr7 O21 2.067491 1_555
Cr8 O26 1.990942 1_555
Cr8 O1 2.064671 1_555
Cr8 O24 2.085787 1_555
Cr8 O37 2.100859 1_555
Cr8 O29 2.119249 1_555
Cr8 O10 2.161807 1_555
Cr9 O26 1.907744 1_555
Cr9 O8 1.958152 1_555
Cr9 O0 1.971124 1_545
Cr9 O25 2.150451 1_545
Cr9 O12 2.294923 1_545
Cr10 O7 1.978398 1_555
Cr10 O8 1.989403 1_555
Cr10 O25 2.001508 1_545
Cr10 O23 2.055833 1_556
Cr10 O9 2.125964 1_555
Cr10 O28 2.140586 1_645
Cr11 O45 1.951663 1_555
Cr11 O43 1.968945 1_555
Cr11 O13 1.982092 1_555
Cr11 O20 1.994606 1_555
Cr11 O41 2.269900 1_555
Cr12 O15 1.937589 1_555
Cr12 O33 1.969680 1_555
Cr12 O29 1.971239 1_555
Cr12 O19 1.988311 1_555
Cr12 O20 2.518278 1_555
Cr13 O30 1.773658 1_555
Cr13 O43 1.786254 1_555
Cr13 O41 1.792527 1_555
Cr13 O33 1.907840 1_555
Cr14 O0 1.909647 1_555
Cr14 O2 1.996393 1_565
Cr14 O30 2.041488 1_555
Cr14 O12 2.053038 1_555
Cr14 O27 2.256783 1_555
Cr15 O22 1.975770 1_645
Cr15 O4 1.999950 1_655
Cr15 O46 2.022433 1_655
Cr15 O8 2.048055 1_555
Cr15 O3 2.059027 1_555
Cr15 O2 2.071916 1_555
Cr16 O11 1.844050 1_555
Cr16 O6 1.864776 1_556
Cr16 O40 1.942761 1_555
Cr16 O47 2.019725 1_555
Cr17 O44 1.922177 1_555
Cr17 O34 2.026427 1_555
Cr17 O3 2.081158 1_555
Cr17 O46 2.082406 1_655
Cr17 O20 2.093118 1_655
Cr17 O36 2.255244 1_555
Cr18 O34 1.924888 1_555
Cr18 O32 1.940405 1_555
Cr18 O36 1.983334 1_555
Cr18 O42 2.013839 1_555
Cr18 O6 2.065485 1_555
Cr19 O19 1.934914 1_655
Cr19 O12 1.966893 1_555
Cr19 O22 1.967616 1_655
Cr19 O47 2.017422 1_555
Cr19 O28 2.017963 1_655
Cr20 O11 1.915409 1_555
Cr20 O44 2.018884 1_555
Cr20 O7 2.027719 1_555
Cr20 O37 2.086765 1_555
Cr20 O9 2.098972 1_555
Cr20 O8 2.378327 1_555
Cr21 O46 1.927705 1_555
Cr21 O29 1.938638 1_555
Cr21 O9 1.961738 1_455
Cr21 O24 1.971805 1_555
Cr21 O14 2.063549 1_555
Cr22 O17 1.954816 1_545
Cr22 O39 1.985075 1_555
Cr22 O0 2.009998 1_545
Cr22 O31 2.019636 1_545
Cr22 O1 2.139350 1_555
Cr22 O18 2.149327 1_555
Cr23 O28 1.893683 1_545
Cr23 O5 1.913148 1_546
Cr23 O14 1.991228 1_555
Cr23 O21 2.034124 1_545
Cr24 O16 1.913077 1_555
Cr24 O47 1.919079 1_554
Cr24 O27 1.969145 1_555
Cr24 O25 2.005409 1_554
Cr24 O28 2.032391 1_654
Cr24 O23 2.053845 1_565
Cr25 O11 1.911678 1_555
Cr25 O30 2.004971 1_555
Cr25 O44 2.025554 1_555
Cr25 O40 2.081899 1_555
Cr25 O12 2.175432 1_555
Cr25 O37 2.334729 1_555
Cr26 O39 1.852783 1_555
Cr26 O10 1.916500 1_554
Cr26 O45 1.930995 1_555
Cr26 O14 1.953258 1_554
Cr27 O22 1.945246 1_555
Cr27 O19 1.970522 1_555
Cr27 O38 2.000273 1_555
Cr27 O31 2.077242 1_555
Cr27 O21 2.100023 1_555
Cr27 O33 2.340547 1_555
Fe0 O32 1.970303 1_456
Fe0 O15 2.100570 1_555
Fe0 O13 2.129594 1_556
Fe0 O16 2.255207 1_456
Fe0 O47 2.284139 1_455
Fe1 O4 1.883464 1_565
Fe1 O16 2.019142 1_455
Fe1 O5 2.062603 1_555
Fe1 O2 2.092106 1_465
Fe1 O38 2.113935 1_555
Fe1 O23 2.150831 1_465
Fe2 O26 1.876054 1_555
Fe2 O21 1.948882 1_545
Fe2 O35 2.051646 1_545
Fe2 O24 2.100709 1_555
Fe3 O23 1.953052 1_555
Fe3 O3 1.975464 1_555
Fe3 O42 2.060292 1_555
Fe3 O36 2.104528 1_555
Fe3 O2 2.161937 1_555
Fe3 O18 2.170650 1_555
