# generated using pymatgen
data_Mg16Al12Cl
_symmetry_space_group_name_H-M   'P 1'
_cell_length_a   9.16585006
_cell_length_b   9.16585006
_cell_length_c   9.16585006
_cell_angle_alpha   109.47122063
_cell_angle_beta   109.47122063
_cell_angle_gamma   109.47122063
_symmetry_Int_Tables_number   1
_chemical_formula_structural   Mg16Al12Cl
_chemical_formula_sum   'Mg16 Al12 Cl1'
_cell_volume   592.78383898
_cell_formula_units_Z   1
loop_
 _symmetry_equiv_pos_site_id
 _symmetry_equiv_pos_as_xyz
  1  'x, y, z'
loop_
 _atom_site_type_symbol
 _atom_site_label
 _atom_site_symmetry_multiplicity
 _atom_site_fract_x
 _atom_site_fract_y
 _atom_site_fract_z
 _atom_site_occupancy
  Mg  Mg0  1  0.72023200  0.30865900  0.30865900  1
  Mg  Mg1  1  0.30022300  0.30022300  0.30022300  1
  Mg  Mg2  1  0.69977700  0.00000000  0.00000000  1
  Mg  Mg3  1  0.27976800  0.58842700  0.58842700  1
  Mg  Mg4  1  0.00000000  0.69134100  0.41157300  1
  Mg  Mg5  1  0.00000000  0.00000000  0.69977700  1
  Mg  Mg6  1  0.58842700  0.58842700  0.27976800  1
  Mg  Mg7  1  0.41157300  0.00000000  0.69134100  1
  Mg  Mg8  1  0.30865900  0.72023200  0.30865900  1
  Mg  Mg9  1  0.69134100  0.41157300  0.00000000  1
  Mg  Mg10  1  0.69134100  0.00000000  0.41157300  1
  Mg  Mg11  1  0.30865900  0.30865900  0.72023200  1
  Mg  Mg12  1  0.41157300  0.69134100  0.00000000  1
  Mg  Mg13  1  0.58842700  0.27976800  0.58842700  1
  Mg  Mg14  1  0.00000000  0.69977700  0.00000000  1
  Mg  Mg15  1  0.00000000  0.41157300  0.69134100  1
  Al  Al0  1  0.19073500  0.81058200  0.81058200  1
  Al  Al1  1  0.80926500  0.61984700  0.61984700  1
  Al  Al2  1  0.61984700  0.80926500  0.61984700  1
  Al  Al3  1  0.38015300  0.18941800  0.00000000  1
  Al  Al4  1  0.00000000  0.38015300  0.18941800  1
  Al  Al5  1  0.18941800  0.38015300  0.00000000  1
  Al  Al6  1  0.81058200  0.19073500  0.81058200  1
  Al  Al7  1  0.81058200  0.81058200  0.19073500  1
  Al  Al8  1  0.18941800  0.00000000  0.38015300  1
  Al  Al9  1  0.00000000  0.18941800  0.38015300  1
  Al  Al10  1  0.38015300  0.00000000  0.18941800  1
  Al  Al11  1  0.61984700  0.61984700  0.80926500  1
  Cl  Cl0  1  0.00000000  0.00000000  0.00000000  1
loop_
_geom_bond_atom_site_label_1
_geom_bond_atom_site_label_2
_geom_bond_distance
_geom_bond_site_symmetry_2
Mg0 Mg4 3.154996 1_655
Mg0 Mg15 3.154996 1_655
Mg0 Mg2 3.162250 1_555
Mg0 Mg13 3.226463 1_555
Mg0 Mg6 3.226463 1_555
Mg0 Mg9 3.226463 1_555
Mg0 Mg10 3.226463 1_555
Mg1 Mg6 3.162250 1_555
Mg1 Mg3 3.162250 1_555
Mg1 Mg13 3.162250 1_555
Mg2 Mg7 3.162250 1_554
Mg3 Mg4 3.154996 1_555
Mg3 Mg8 3.226463 1_555
Mg3 Mg7 3.226463 1_565
Mg4 Mg5 3.162250 1_565
Mg4 Mg7 3.226463 1_565
Mg4 Mg6 3.226463 1_455
Mg4 Mg8 3.226463 1_555
Mg4 Mg9 3.226463 1_455
Mg6 Mg9 3.154996 1_555
Mg6 Mg8 3.226463 1_555
Mg7 Mg8 3.154996 1_545
Mg7 Mg9 3.226463 1_556
Mg10 Mg13 3.154996 1_555
Mg10 Mg8 3.154996 1_545
Mg10 Mg5 3.162250 1_655
Mg10 Mg15 3.226463 1_655
Mg10 Mg6 3.226463 1_545
Mg10 Mg12 3.226463 1_545
Mg11 Mg12 3.154996 1_556
Mg11 Mg9 3.154996 1_556
Mg11 Mg5 3.162250 1_555
Mg11 Mg13 3.226463 1_555
Mg11 Mg3 3.226463 1_555
Mg11 Mg7 3.226463 1_555
Mg11 Mg15 3.226463 1_555
Mg12 Mg6 3.154996 1_555
Mg12 Mg2 3.162250 1_565
Mg12 Mg3 3.226463 1_554
Mg12 Mg8 3.226463 1_555
Mg12 Mg15 3.226463 1_554
Mg13 Mg7 3.154996 1_555
Mg13 Mg9 3.226463 1_556
Mg13 Mg15 3.226463 1_655
Mg14 Mg9 3.162250 1_455
Mg14 Mg8 3.162250 1_555
Mg14 Mg15 3.162250 1_554
Mg15 Mg3 3.154996 1_555
Al0 Al3 2.835165 1_566
Al0 Al10 2.835165 1_566
Al0 Al1 2.854878 1_455
Al0 Mg3 2.899986 1_555
Al0 Mg12 2.950105 1_556
Al0 Mg7 2.950105 1_565
Al0 Mg14 3.019522 1_556
Al0 Mg5 3.019522 1_565
Al0 Mg15 3.070063 1_555
Al0 Mg4 3.070063 1_555
Al1 Al11 2.835165 1_555
Al1 Al2 2.835165 1_555
Al1 Mg0 2.899986 1_555
Al1 Mg6 2.950105 1_555
Al1 Mg13 2.950105 1_555
Al1 Mg14 3.019522 1_656
Al1 Mg5 3.019522 1_665
Al1 Mg15 3.070063 1_655
Al1 Mg4 3.070063 1_655
Al2 Al6 2.854878 1_565
Al2 Mg8 2.899986 1_555
Al2 Mg6 2.950105 1_555
Al2 Mg3 2.950105 1_555
Al2 Mg2 3.019522 1_566
Al2 Mg5 3.019522 1_665
Al2 Mg7 3.070063 1_565
Al2 Mg10 3.070063 1_565
Al3 Al5 2.854878 1_555
Al3 Mg9 2.899986 1_555
Al3 Mg7 2.950105 1_554
Al3 Mg0 2.950105 1_555
Al3 Mg5 3.019522 1_554
Al3 Mg1 3.019522 1_555
Al3 Mg11 3.070063 1_554
Al3 Mg6 3.070063 1_555
Al4 Al6 2.835165 1_454
Al4 Al5 2.835165 1_555
Al4 Al9 2.854878 1_555
Al4 Mg4 2.899986 1_555
Al4 Mg8 2.950105 1_555
Al4 Mg9 2.950105 1_455
Al4 Mg1 3.019522 1_555
Al4 Mg2 3.019522 1_455
Al4 Mg0 3.070063 1_455
Al4 Mg3 3.070063 1_555
Al5 Al6 2.835165 1_454
Al5 Mg12 2.899986 1_555
Al5 Mg8 2.950105 1_555
Al5 Mg15 2.950105 1_554
Al5 Mg5 3.019522 1_554
Al5 Mg1 3.019522 1_555
Al5 Mg11 3.070063 1_554
Al5 Mg6 3.070063 1_555
Al6 Mg13 2.899986 1_555
Al6 Mg15 2.950105 1_655
Al6 Mg9 2.950105 1_556
Al6 Mg5 3.019522 1_655
Al6 Mg2 3.019522 1_556
Al6 Mg7 3.070063 1_555
Al6 Mg10 3.070063 1_555
Al7 Al9 2.835165 1_665
Al7 Al8 2.835165 1_665
Al7 Mg6 2.899986 1_555
Al7 Mg4 2.950105 1_655
Al7 Mg10 2.950105 1_565
Al7 Mg2 3.019522 1_565
Al7 Mg14 3.019522 1_655
Al7 Mg9 3.070063 1_555
Al7 Mg12 3.070063 1_555
Al8 Al9 2.835165 1_555
Al8 Mg7 2.899986 1_555
Al8 Mg4 2.950105 1_545
Al8 Mg11 2.950105 1_555
Al8 Mg14 3.019522 1_545
Al8 Mg1 3.019522 1_555
Al8 Mg8 3.070063 1_545
Al8 Mg13 3.070063 1_555
Al9 Mg15 2.899986 1_555
Al9 Mg11 2.950105 1_555
Al9 Mg10 2.950105 1_455
Al9 Mg1 3.019522 1_555
Al9 Mg2 3.019522 1_455
Al9 Mg0 3.070063 1_455
Al9 Mg3 3.070063 1_555
Al10 Al3 2.835165 1_555
Al10 Al8 2.854878 1_555
Al10 Mg10 2.899986 1_555
Al10 Mg12 2.950105 1_545
Al10 Mg0 2.950105 1_555
Al10 Mg1 3.019522 1_555
Al10 Mg14 3.019522 1_545
Al10 Mg8 3.070063 1_545
Al10 Mg13 3.070063 1_555
Al11 Al2 2.835165 1_555
Al11 Al7 2.854878 1_556
Al11 Mg11 2.899986 1_555
Al11 Mg3 2.950105 1_555
Al11 Mg13 2.950105 1_555
Al11 Mg2 3.019522 1_566
Al11 Mg14 3.019522 1_656
Al11 Mg9 3.070063 1_556
Al11 Mg12 3.070063 1_556
Cl0 Mg14 2.751799 1_545
Cl0 Mg2 2.751799 1_455
Cl0 Mg1 2.751799 1_555
Cl0 Mg5 2.751799 1_554
