# generated using pymatgen
data_NbAlCo4
_symmetry_space_group_name_H-M   'P 1'
_cell_length_a   4.73078029
_cell_length_b   4.73078029
_cell_length_c   7.64838900
_cell_angle_alpha   90.00000000
_cell_angle_beta   90.00000000
_cell_angle_gamma   120.00000412
_symmetry_Int_Tables_number   1
_chemical_formula_structural   NbAlCo4
_chemical_formula_sum   'Nb2 Al2 Co8'
_cell_volume   148.24025050
_cell_formula_units_Z   2
loop_
 _symmetry_equiv_pos_site_id
 _symmetry_equiv_pos_as_xyz
  1  'x, y, z'
loop_
 _atom_site_type_symbol
 _atom_site_label
 _atom_site_symmetry_multiplicity
 _atom_site_fract_x
 _atom_site_fract_y
 _atom_site_fract_z
 _atom_site_occupancy
  Nb  Nb0  1  0.33333300  0.66666700  0.91456900  1
  Nb  Nb1  1  0.66666700  0.33333300  0.08543100  1
  Al  Al0  1  0.66666700  0.33333300  0.44845700  1
  Al  Al1  1  0.33333300  0.66666700  0.55154300  1
  Co  Co0  1  0.00000000  0.00000000  0.50000000  1
  Co  Co1  1  0.00000000  0.00000000  0.00000000  1
  Co  Co2  1  0.66114200  0.83057100  0.25231700  1
  Co  Co3  1  0.16942900  0.83057100  0.25231700  1
  Co  Co4  1  0.16942900  0.33885800  0.25231700  1
  Co  Co5  1  0.33885800  0.16942900  0.74768300  1
  Co  Co6  1  0.83057100  0.16942900  0.74768300  1
  Co  Co7  1  0.83057100  0.66114200  0.74768300  1
loop_
_geom_bond_atom_site_label_1
_geom_bond_atom_site_label_2
_geom_bond_distance
_geom_bond_site_symmetry_2
Nb0 Nb1 3.027847 1_456
Nb0 Nb1 3.027847 1_566
Nb0 Nb1 3.027854 1_556
Al0 Co6 2.653560 1_555
Al0 Co7 2.653562 1_555
Al0 Co5 2.653562 1_555
Al0 Co0 2.759618 1_655
Al0 Co0 2.759622 1_555
Al0 Co0 2.759622 1_665
Al0 Nb1 2.776564 1_555
Al0 Co4 2.801078 1_655
Al0 Co2 2.801078 1_545
Al0 Co3 2.801080 1_655
Al0 Co3 2.801080 1_545
Al0 Co2 2.801082 1_555
Al0 Co4 2.801082 1_555
Al0 Al1 2.842836 1_545
Al0 Al1 2.842836 1_655
Al0 Al1 2.842844 1_555
Al1 Co3 2.653560 1_555
Al1 Co4 2.653562 1_555
Al1 Co2 2.653562 1_555
Al1 Co0 2.759618 1_565
Al1 Co0 2.759622 1_555
Al1 Co0 2.759622 1_665
Al1 Nb0 2.776564 1_555
Al1 Co7 2.801078 1_455
Al1 Co5 2.801078 1_565
Al1 Co6 2.801080 1_455
Al1 Co6 2.801080 1_565
Al1 Co7 2.801082 1_555
Al1 Co5 2.801082 1_555
Co0 Co5 2.348620 1_555
Co0 Co4 2.348620 1_555
Co0 Co2 2.348620 1_445
Co0 Co7 2.348620 1_445
Co0 Co6 2.348620 1_455
Co0 Co3 2.348620 1_545
Co1 Co5 2.377300 1_554
Co1 Co4 2.377300 1_555
Co1 Co2 2.377300 1_445
Co1 Co7 2.377300 1_444
Co1 Co3 2.377300 1_545
Co1 Co6 2.377300 1_454
Co1 Nb1 2.808384 1_455
Co1 Nb0 2.808384 1_544
Co1 Nb1 2.808388 1_445
Co1 Nb1 2.808388 1_555
Co1 Nb0 2.808388 1_554
Co1 Nb0 2.808388 1_444
Co2 Co4 2.326186 1_555
Co2 Co3 2.326186 1_555
Co2 Co4 2.404594 1_665
Co2 Co3 2.404594 1_655
Co2 Nb1 2.687897 1_565
Co2 Nb1 2.687901 1_555
Co2 Nb0 2.911492 1_554
Co3 Co4 2.326186 1_555
Co3 Co4 2.404594 1_565
Co3 Nb1 2.687899 1_455
Co3 Nb1 2.687899 1_565
Co3 Nb0 2.911490 1_554
Co4 Nb1 2.687897 1_455
Co4 Nb1 2.687901 1_555
Co4 Nb0 2.911492 1_554
Co5 Co7 2.326186 1_555
Co5 Co6 2.326186 1_555
Co5 Co7 2.404594 1_445
Co5 Co6 2.404594 1_455
Co5 Nb0 2.687897 1_545
Co5 Nb0 2.687901 1_555
Co5 Nb1 2.911492 1_556
Co6 Co7 2.326186 1_555
Co6 Co7 2.404594 1_545
Co6 Nb0 2.687899 1_545
Co6 Nb0 2.687899 1_655
Co6 Nb1 2.911490 1_556
Co7 Nb0 2.687897 1_655
Co7 Nb0 2.687901 1_555
Co7 Nb1 2.911492 1_556
