# generated using pymatgen
data_DySbRh
_symmetry_space_group_name_H-M   'P 1'
_cell_length_a   4.54292262
_cell_length_b   7.14875145
_cell_length_c   7.79115118
_cell_angle_alpha   90.00000000
_cell_angle_beta   90.00000000
_cell_angle_gamma   90.00000000
_symmetry_Int_Tables_number   1
_chemical_formula_structural   DySbRh
_chemical_formula_sum   'Dy4 Sb4 Rh4'
_cell_volume   253.02717614
_cell_formula_units_Z   4
loop_
 _symmetry_equiv_pos_site_id
 _symmetry_equiv_pos_as_xyz
  1  'x, y, z'
loop_
 _atom_site_type_symbol
 _atom_site_label
 _atom_site_symmetry_multiplicity
 _atom_site_fract_x
 _atom_site_fract_y
 _atom_site_fract_z
 _atom_site_occupancy
  Dy  Dy0  1  0.25000000  0.51001109  0.20207045  1
  Dy  Dy1  1  0.75000000  0.48998891  0.79792955  1
  Dy  Dy2  1  0.75000000  0.98998891  0.70207045  1
  Dy  Dy3  1  0.25000000  0.01001109  0.29792955  1
  Sb  Sb0  1  0.25000000  0.69421909  0.59134548  1
  Sb  Sb1  1  0.75000000  0.30578091  0.40865452  1
  Sb  Sb2  1  0.75000000  0.80578091  0.09134548  1
  Sb  Sb3  1  0.25000000  0.19421909  0.90865452  1
  Rh  Rh0  1  0.25000000  0.80452464  0.91856302  1
  Rh  Rh1  1  0.75000000  0.19547536  0.08143698  1
  Rh  Rh2  1  0.75000000  0.69547536  0.41856302  1
  Rh  Rh3  1  0.25000000  0.30452464  0.58143698  1
loop_
_geom_bond_atom_site_label_1
_geom_bond_atom_site_label_2
_geom_bond_distance
_geom_bond_site_symmetry_2
Dy0 Rh0 3.051515 1_554
Dy0 Rh2 3.124489 1_555
Dy0 Rh2 3.124489 1_455
Dy0 Sb1 3.143515 1_455
Dy0 Sb1 3.143515 1_555
Dy0 Sb3 3.212850 1_554
Dy0 Sb2 3.220927 1_455
Dy0 Sb2 3.220927 1_555
Dy0 Rh3 3.300614 1_555
Dy0 Sb0 3.306448 1_555
Dy0 Rh1 3.331489 1_555
Dy0 Rh1 3.331489 1_455
Dy1 Rh1 3.051515 1_556
Dy1 Rh3 3.124489 1_655
Dy1 Rh3 3.124489 1_555
Dy1 Sb0 3.143515 1_555
Dy1 Sb0 3.143515 1_655
Dy1 Sb2 3.212850 1_556
Dy1 Sb3 3.220927 1_655
Dy1 Sb3 3.220927 1_555
Dy1 Rh2 3.300614 1_555
Dy1 Sb1 3.306448 1_555
Dy1 Rh0 3.331489 1_655
Dy1 Rh0 3.331489 1_555
Dy2 Rh2 3.051515 1_555
Dy2 Rh0 3.124489 1_655
Dy2 Rh0 3.124489 1_555
Dy2 Sb3 3.143515 1_665
Dy2 Sb3 3.143515 1_565
Dy2 Sb1 3.212850 1_565
Dy2 Sb0 3.220927 1_655
Dy2 Sb0 3.220927 1_555
Dy2 Rh1 3.300614 1_566
Dy2 Sb2 3.306448 1_556
Dy2 Rh3 3.331489 1_565
Dy2 Rh3 3.331489 1_665
Dy3 Rh3 3.051515 1_555
Dy3 Rh1 3.124489 1_555
Dy3 Rh1 3.124489 1_455
Dy3 Sb2 3.143515 1_545
Dy3 Sb2 3.143515 1_445
Dy3 Sb0 3.212850 1_545
Dy3 Sb1 3.220927 1_455
Dy3 Sb1 3.220927 1_555
Dy3 Rh0 3.300614 1_544
Dy3 Sb3 3.306448 1_554
Dy3 Rh2 3.331489 1_445
Dy3 Rh2 3.331489 1_545
Rh0 Sb2 2.640417 1_456
Rh0 Sb2 2.640417 1_556
Rh0 Sb0 2.668568 1_555
Rh0 Sb3 2.786898 1_565
Rh1 Sb3 2.640417 1_654
Rh1 Sb3 2.640417 1_554
Rh1 Sb1 2.668568 1_555
Rh1 Sb2 2.786898 1_545
Rh2 Sb0 2.640417 1_555
Rh2 Sb0 2.640417 1_655
Rh2 Sb2 2.668568 1_555
Rh2 Sb1 2.786898 1_555
Rh3 Sb1 2.640417 1_455
Rh3 Sb1 2.640417 1_555
Rh3 Sb3 2.668568 1_555
Rh3 Sb0 2.786898 1_555
