# generated using pymatgen
data_EuZrVSnO6
_symmetry_space_group_name_H-M   'P 1'
_cell_length_a   7.95252560
_cell_length_b   8.18268836
_cell_length_c   8.22428847
_cell_angle_alpha   90.00000000
_cell_angle_beta   90.00000000
_cell_angle_gamma   90.00000000
_symmetry_Int_Tables_number   1
_chemical_formula_structural   EuZrVSnO6
_chemical_formula_sum   'Eu4 Zr4 V4 Sn4 O24'
_cell_volume   535.17944156
_cell_formula_units_Z   4
loop_
 _symmetry_equiv_pos_site_id
 _symmetry_equiv_pos_as_xyz
  1  'x, y, z'
loop_
 _atom_site_type_symbol
 _atom_site_label
 _atom_site_symmetry_multiplicity
 _atom_site_fract_x
 _atom_site_fract_y
 _atom_site_fract_z
 _atom_site_occupancy
  Eu  Eu0  1  0.00000000  0.00000000  0.00000000  1
  Eu  Eu1  1  0.50000000  0.50000000  0.50000000  1
  Eu  Eu2  1  0.00000000  0.50000000  0.50000000  1
  Eu  Eu3  1  0.00000000  0.00000000  0.50000000  1
  Zr  Zr0  1  0.74876867  0.74920137  0.75247928  1
  Zr  Zr1  1  0.25123133  0.25079863  0.75247928  1
  Zr  Zr2  1  0.25123133  0.74920137  0.24752072  1
  Zr  Zr3  1  0.74876867  0.25079863  0.24752072  1
  V  V0  1  0.25173841  0.24928303  0.24956196  1
  V  V1  1  0.74826159  0.75071697  0.24956196  1
  V  V2  1  0.74826159  0.24928303  0.75043804  1
  V  V3  1  0.25173841  0.75071697  0.75043804  1
  Sn  Sn0  1  0.50000000  0.00000000  0.50000000  1
  Sn  Sn1  1  0.50000000  0.50000000  0.00000000  1
  Sn  Sn2  1  0.50000000  0.00000000  0.00000000  1
  Sn  Sn3  1  0.00000000  0.50000000  0.00000000  1
  O  O0  1  0.00206622  0.21320619  0.28409303  1
  O  O1  1  0.99793378  0.78679381  0.28409303  1
  O  O2  1  0.99793378  0.21320619  0.71590697  1
  O  O3  1  0.00206622  0.78679381  0.71590697  1
  O  O4  1  0.27471809  0.00571660  0.21501994  1
  O  O5  1  0.27471809  0.99428340  0.78498006  1
  O  O6  1  0.72528191  0.99428340  0.21501994  1
  O  O7  1  0.72528191  0.00571660  0.78498006  1
  O  O8  1  0.21270512  0.27697242  0.00369081  1
  O  O9  1  0.78729488  0.27697242  0.99630919  1
  O  O10  1  0.21270512  0.72302758  0.99630919  1
  O  O11  1  0.78729488  0.72302758  0.00369081  1
  O  O12  1  0.49386286  0.28695209  0.22372135  1
  O  O13  1  0.50613714  0.71304791  0.22372135  1
  O  O14  1  0.50613714  0.28695209  0.77627865  1
  O  O15  1  0.49386286  0.71304791  0.77627865  1
  O  O16  1  0.21925257  0.49645696  0.29101456  1
  O  O17  1  0.21925257  0.50354304  0.70898544  1
  O  O18  1  0.78074743  0.50354304  0.29101456  1
  O  O19  1  0.78074743  0.49645696  0.70898544  1
  O  O20  1  0.28121492  0.22187503  0.49773045  1
  O  O21  1  0.71878508  0.22187503  0.50226955  1
  O  O22  1  0.28121492  0.77812497  0.50226955  1
  O  O23  1  0.71878508  0.77812497  0.49773045  1
loop_
_geom_bond_atom_site_label_1
_geom_bond_atom_site_label_2
_geom_bond_distance
_geom_bond_site_symmetry_2
Eu0 O5 2.811103 1_544
Eu0 O7 2.811103 1_454
Eu0 O6 2.811103 1_445
Eu0 O4 2.811103 1_555
Eu0 O11 2.828200 1_445
Eu0 O10 2.828200 1_544
Eu0 O8 2.828200 1_555
Eu0 O9 2.828200 1_454
Eu0 O3 2.915983 1_544
Eu0 O2 2.915983 1_454
Eu0 O0 2.915983 1_555
Eu0 O1 2.915983 1_445
Eu1 O17 2.817747 1_555
Eu1 O19 2.817747 1_555
Eu1 O18 2.817747 1_555
Eu1 O16 2.817747 1_555
Eu1 O15 2.864326 1_555
Eu1 O14 2.864326 1_555
Eu1 O13 2.864326 1_555
Eu1 O12 2.864326 1_555
Eu1 O23 2.864767 1_555
Eu1 O21 2.864767 1_555
Eu1 O22 2.864767 1_555
Eu1 O20 2.864767 1_555
Eu2 O18 2.448499 1_455
Eu2 O19 2.448499 1_455
Eu2 O17 2.448499 1_555
Eu2 O16 2.448499 1_555
Eu2 O1 2.942877 1_455
Eu2 O0 2.942877 1_555
Eu2 O2 2.942877 1_455
Eu2 O3 2.942877 1_555
Eu3 O1 2.489366 1_445
Eu3 O0 2.489366 1_555
Eu3 O3 2.489366 1_545
Eu3 O2 2.489366 1_455
Eu3 O20 2.880600 1_555
Eu3 O22 2.880600 1_545
Eu3 O23 2.880600 1_445
Eu3 O21 2.880600 1_455
O0 V0 2.027340 1_555
O0 Zr3 2.059786 1_455
O1 V1 2.027340 1_555
O1 Zr2 2.059786 1_655
O2 V2 2.027340 1_555
O2 Zr1 2.059786 1_655
O3 V3 2.027340 1_555
O3 Zr0 2.059786 1_455
O4 V0 2.021450 1_555
O4 Zr2 2.124163 1_545
O4 Sn2 2.517750 1_555
O5 V3 2.021450 1_555
O5 Zr1 2.124163 1_565
O5 Sn2 2.517750 1_566
O6 V1 2.021450 1_555
O6 Zr3 2.124163 1_565
O6 Sn2 2.517750 1_565
O7 V2 2.021450 1_555
O7 Zr0 2.124163 1_545
O7 Sn2 2.517750 1_556
O8 V0 2.058311 1_555
O8 Zr1 2.099582 1_554
O8 Sn3 2.488521 1_555
O9 V2 2.058311 1_555
O9 Zr3 2.099582 1_556
O9 Sn3 2.488521 1_656
O10 V3 2.058311 1_555
O10 Zr2 2.099582 1_556
O10 Sn3 2.488521 1_556
O11 V1 2.058311 1_555
O11 Zr0 2.099582 1_554
O11 Sn3 2.488521 1_655
O12 V0 1.961562 1_555
O12 Zr3 2.057947 1_555
O12 Sn1 2.535134 1_555
O13 V1 1.961562 1_555
O13 Zr2 2.057947 1_555
O13 Sn1 2.535134 1_555
O14 V2 1.961562 1_555
O14 Zr1 2.057947 1_555
O14 Sn1 2.535134 1_556
O15 V3 1.961562 1_555
O15 Zr0 2.057947 1_555
O15 Sn1 2.535134 1_556
O16 V0 2.067284 1_555
O16 Zr2 2.114186 1_555
O17 V3 2.067284 1_555
O17 Zr1 2.114186 1_555
O18 V1 2.067284 1_555
O18 Zr3 2.114186 1_555
O19 V2 2.067284 1_555
O19 Zr0 2.114186 1_555
O20 V0 2.066631 1_555
O20 Zr1 2.121893 1_555
O20 Sn0 2.514706 1_555
O21 V2 2.066631 1_555
O21 Zr3 2.121893 1_555
O21 Sn0 2.514706 1_555
O22 V3 2.066631 1_555
O22 Zr2 2.121893 1_555
O22 Sn0 2.514706 1_565
O23 V1 2.066631 1_555
O23 Zr0 2.121893 1_555
O23 Sn0 2.514706 1_565
