# generated using pymatgen
data_BaCa(NiO2)4
_symmetry_space_group_name_H-M   'P 1'
_cell_length_a   5.34652794
_cell_length_b   5.34652794
_cell_length_c   7.88834500
_cell_angle_alpha   90.00000000
_cell_angle_beta   90.00000000
_cell_angle_gamma   119.99999925
_symmetry_Int_Tables_number   1
_chemical_formula_structural   BaCa(NiO2)4
_chemical_formula_sum   'Ba1 Ca1 Ni4 O8'
_cell_volume   195.28109997
_cell_formula_units_Z   1
loop_
 _symmetry_equiv_pos_site_id
 _symmetry_equiv_pos_as_xyz
  1  'x, y, z'
loop_
 _atom_site_type_symbol
 _atom_site_label
 _atom_site_symmetry_multiplicity
 _atom_site_fract_x
 _atom_site_fract_y
 _atom_site_fract_z
 _atom_site_occupancy
  Ba  Ba0  1  0.00000000  0.00000000  0.00000000  1
  Ca  Ca0  1  0.00000000  0.00000000  0.50000000  1
  Ni  Ni0  1  0.33333300  0.66666700  0.76638700  1
  Ni  Ni1  1  0.66666700  0.33333300  0.76638700  1
  Ni  Ni2  1  0.33333300  0.66666700  0.23361300  1
  Ni  Ni3  1  0.66666700  0.33333300  0.23361300  1
  O  O0  1  0.33485600  0.33485600  0.69635400  1
  O  O1  1  0.66514400  0.00000000  0.69635400  1
  O  O2  1  0.00000000  0.66514400  0.69635400  1
  O  O3  1  0.66514400  0.66514400  0.30364600  1
  O  O4  1  0.00000000  0.33485600  0.30364600  1
  O  O5  1  0.33485600  0.00000000  0.30364600  1
  O  O6  1  0.33333300  0.66666700  0.00000000  1
  O  O7  1  0.66666700  0.33333300  0.00000000  1
loop_
_geom_bond_atom_site_label_1
_geom_bond_atom_site_label_2
_geom_bond_distance
_geom_bond_site_symmetry_2
Ba0 O4 2.990406 1_555
Ba0 O5 2.990406 1_555
Ba0 O1 2.990406 1_454
Ba0 O2 2.990406 1_544
Ba0 O3 2.990406 1_445
Ba0 O0 2.990406 1_554
Ba0 O7 3.086816 1_455
Ba0 O6 3.086816 1_545
Ba0 O6 3.086821 1_555
Ba0 O6 3.086821 1_445
Ba0 O7 3.086821 1_555
Ba0 O7 3.086821 1_445
Ca0 O2 2.367351 1_545
Ca0 O1 2.367351 1_455
Ca0 O4 2.367351 1_555
Ca0 O5 2.367351 1_555
Ca0 O0 2.367351 1_555
Ca0 O3 2.367351 1_445
Ni0 O6 1.842820 1_556
Ni0 O2 1.861960 1_555
Ni0 O1 1.861962 1_565
Ni0 O0 1.861965 1_555
Ni1 O7 1.842820 1_556
Ni1 O1 1.861960 1_555
Ni1 O2 1.861962 1_655
Ni1 O0 1.861965 1_555
Ni2 O6 1.842820 1_555
Ni2 O5 1.861960 1_565
Ni2 O4 1.861962 1_555
Ni2 O3 1.861965 1_555
Ni3 O7 1.842820 1_555
Ni3 O4 1.861960 1_655
Ni3 O5 1.861962 1_555
Ni3 O3 1.861965 1_555
