# generated using pymatgen
data_K2InMo15Se19
_symmetry_space_group_name_H-M   'P 1'
_cell_length_a   19.90958300
_cell_length_b   9.94706000
_cell_length_c   9.96194223
_cell_angle_alpha   60.55971413
_cell_angle_beta   90.00000000
_cell_angle_gamma   90.00000000
_symmetry_Int_Tables_number   1
_chemical_formula_structural   K2InMo15Se19
_chemical_formula_sum   'K4 In2 Mo30 Se38'
_cell_volume   1718.11990029
_cell_formula_units_Z   2
loop_
 _symmetry_equiv_pos_site_id
 _symmetry_equiv_pos_as_xyz
  1  'x, y, z'
loop_
 _atom_site_type_symbol
 _atom_site_label
 _atom_site_symmetry_multiplicity
 _atom_site_fract_x
 _atom_site_fract_y
 _atom_site_fract_z
 _atom_site_occupancy
  K  K0  1  0.63002200  0.33449500  0.33026900  1
  K  K1  1  0.13002200  0.66550500  0.66973100  1
  K  K2  1  0.36997800  0.66550500  0.66973100  1
  K  K3  1  0.86997800  0.33449500  0.33026900  1
  In  In0  1  0.75000000  0.17626600  0.78867100  1
  In  In1  1  0.25000000  0.82373400  0.21132900  1
  Mo  Mo0  1  0.75000000  0.65898100  0.82699700  1
  Mo  Mo1  1  0.75000000  0.82924200  0.51141500  1
  Mo  Mo2  1  0.75000000  0.50927100  0.65865300  1
  Mo  Mo3  1  0.25000000  0.34101900  0.17300300  1
  Mo  Mo4  1  0.25000000  0.17075800  0.48858500  1
  Mo  Mo5  1  0.25000000  0.49072900  0.34134700  1
  Mo  Mo6  1  0.63462700  0.81266600  0.68146300  1
  Mo  Mo7  1  0.63656100  0.68281200  0.50658200  1
  Mo  Mo8  1  0.63505100  0.50777000  0.81181300  1
  Mo  Mo9  1  0.13462700  0.18733400  0.31853700  1
  Mo  Mo10  1  0.13656100  0.31718800  0.49341800  1
  Mo  Mo11  1  0.13505100  0.49223000  0.18818700  1
  Mo  Mo12  1  0.36537300  0.18733400  0.31853700  1
  Mo  Mo13  1  0.36343900  0.31718800  0.49341800  1
  Mo  Mo14  1  0.36494900  0.49223000  0.18818700  1
  Mo  Mo15  1  0.86537300  0.81266600  0.68146300  1
  Mo  Mo16  1  0.86343900  0.68281200  0.50658200  1
  Mo  Mo17  1  0.86494900  0.50777000  0.81181300  1
  Mo  Mo18  1  0.55498100  0.85277700  0.98402300  1
  Mo  Mo19  1  0.55498200  0.98803300  0.16242100  1
  Mo  Mo20  1  0.55638300  0.16319100  0.85184900  1
  Mo  Mo21  1  0.05498100  0.14722300  0.01597700  1
  Mo  Mo22  1  0.05498200  0.01196700  0.83757900  1
  Mo  Mo23  1  0.05638300  0.83680900  0.14815100  1
  Mo  Mo24  1  0.44501900  0.14722300  0.01597700  1
  Mo  Mo25  1  0.44501800  0.01196700  0.83757900  1
  Mo  Mo26  1  0.44361700  0.83680900  0.14815100  1
  Mo  Mo27  1  0.94501900  0.85277700  0.98402300  1
  Mo  Mo28  1  0.94501800  0.98803300  0.16242100  1
  Mo  Mo29  1  0.94361700  0.16319100  0.85184900  1
  Se  Se0  1  0.75000000  0.95913800  0.68385200  1
  Se  Se1  1  0.75000000  0.68134200  0.35896800  1
  Se  Se2  1  0.75000000  0.35900600  0.96155200  1
  Se  Se3  1  0.25000000  0.04086200  0.31614800  1
  Se  Se4  1  0.25000000  0.31865800  0.64103200  1
  Se  Se5  1  0.25000000  0.64099400  0.03844800  1
  Se  Se6  1  0.65795600  0.99260200  0.00644400  1
  Se  Se7  1  0.15795600  0.00739800  0.99355600  1
  Se  Se8  1  0.34204400  0.00739800  0.99355600  1
  Se  Se9  1  0.84204400  0.99260200  0.00644400  1
  Se  Se10  1  0.55133200  0.03345800  0.68123300  1
  Se  Se11  1  0.55016900  0.68504400  0.28647400  1
  Se  Se12  1  0.55235200  0.28827100  0.02911600  1
  Se  Se13  1  0.05133200  0.96654200  0.31876700  1
  Se  Se14  1  0.05016900  0.31495600  0.71352600  1
  Se  Se15  1  0.05235200  0.71172900  0.97088400  1
  Se  Se16  1  0.44866800  0.96654200  0.31876700  1
  Se  Se17  1  0.44983100  0.31495600  0.71352600  1
  Se  Se18  1  0.44764800  0.71172900  0.97088400  1
  Se  Se19  1  0.94866800  0.03345800  0.68123300  1
  Se  Se20  1  0.94983100  0.68504400  0.28647400  1
  Se  Se21  1  0.94764800  0.28827100  0.02911600  1
  Se  Se22  1  0.64188500  0.63935100  0.98261600  1
  Se  Se23  1  0.64191400  0.98353600  0.37953000  1
  Se  Se24  1  0.63584300  0.38378200  0.63135800  1
  Se  Se25  1  0.14188500  0.36064900  0.01738400  1
  Se  Se26  1  0.14191400  0.01646400  0.62047000  1
  Se  Se27  1  0.13584300  0.61621800  0.36864200  1
  Se  Se28  1  0.35811500  0.36064900  0.01738400  1
  Se  Se29  1  0.35808600  0.01646400  0.62047000  1
  Se  Se30  1  0.36415700  0.61621800  0.36864200  1
  Se  Se31  1  0.85811500  0.63935100  0.98261600  1
  Se  Se32  1  0.85808600  0.98353600  0.37953000  1
  Se  Se33  1  0.86415700  0.38378200  0.63135800  1
  Se  Se34  1  0.03367200  0.33295800  0.33262900  1
  Se  Se35  1  0.53367200  0.66704200  0.66737100  1
  Se  Se36  1  0.96632800  0.66704200  0.66737100  1
  Se  Se37  1  0.46632800  0.33295800  0.33262900  1
loop_
_geom_bond_atom_site_label_1
_geom_bond_atom_site_label_2
_geom_bond_distance
_geom_bond_site_symmetry_2
K0 Se37 3.259146 1_555
K0 Se24 3.270463 1_555
K0 Se23 3.286326 1_545
K0 Se22 3.304817 1_554
K0 Se12 3.599876 1_555
K0 Se10 3.654228 1_555
K0 Se11 3.658026 1_555
K1 Se36 3.259146 1_455
K1 Se27 3.270463 1_555
K1 Se26 3.286326 1_565
K1 Se25 3.304817 1_556
K1 Se15 3.599876 1_555
K1 Se13 3.654228 1_555
K1 Se14 3.658026 1_555
K2 Se35 3.259146 1_555
K2 Se30 3.270463 1_555
K2 Se29 3.286326 1_565
K2 Se28 3.304817 1_556
K2 Se18 3.599876 1_555
K2 Se16 3.654228 1_555
K2 Se17 3.658026 1_555
K3 Se34 3.259146 1_655
K3 Se33 3.270463 1_555
K3 Se32 3.286326 1_545
K3 Se31 3.304817 1_554
K3 Se21 3.599876 1_555
K3 Se19 3.654228 1_555
K3 Se20 3.658026 1_555
In0 Se9 2.739750 1_546
In0 Se6 2.739750 1_546
In0 Se0 2.823475 1_545
In0 Mo2 2.903825 1_555
In0 Se24 2.949998 1_555
In0 Se33 2.949998 1_555
In0 Se2 3.057389 1_555
In1 Se7 2.739750 1_564
In1 Se8 2.739750 1_564
In1 Se3 2.823475 1_565
In1 Mo5 2.903825 1_555
In1 Se30 2.949998 1_555
In1 Se27 2.949998 1_555
In1 Se5 3.057389 1_555
Mo0 Se0 2.600465 1_555
Mo0 Se2 2.601620 1_555
Mo0 Se31 2.603315 1_555
Mo0 Se22 2.603315 1_555
Mo0 Mo2 2.735891 1_555
Mo1 Se1 2.582054 1_555
Mo1 Se32 2.594289 1_555
Mo1 Se23 2.594289 1_555
Mo1 Se0 2.608109 1_555
Mo1 Mo2 2.773493 1_555
Mo2 Se1 2.611373 1_555
Mo2 Se2 2.627838 1_555
Mo2 Se33 2.670470 1_555
Mo2 Se24 2.670470 1_555
Mo2 Mo8 2.746531 1_555
Mo2 Mo7 2.793750 1_555
Mo3 Se3 2.600465 1_555
Mo3 Se5 2.601620 1_555
Mo3 Se25 2.603315 1_555
Mo3 Se28 2.603315 1_555
Mo3 Mo5 2.735891 1_555
Mo4 Se4 2.582054 1_555
Mo4 Se26 2.594289 1_555
Mo4 Se29 2.594289 1_555
Mo4 Se3 2.608109 1_555
Mo4 Mo5 2.773493 1_555
Mo5 Se4 2.611373 1_555
Mo5 Se5 2.627838 1_555
Mo5 Se27 2.670470 1_555
Mo5 Se30 2.670470 1_555
Mo6 Se35 2.521475 1_555
Mo6 Se22 2.628516 1_555
Mo6 Se23 2.632760 1_555
Mo6 Se0 2.726489 1_555
Mo6 Se10 2.751123 1_565
Mo7 Se35 2.557252 1_555
Mo7 Se24 2.599651 1_555
Mo7 Se23 2.615240 1_555
Mo7 Se1 2.699021 1_555
Mo7 Se11 2.778324 1_555
Mo8 Se35 2.532484 1_555
Mo8 Se22 2.610754 1_555
Mo8 Se24 2.632958 1_555
Mo8 Se2 2.735430 1_555
Mo8 Se12 2.741894 1_556
Mo9 Se34 2.521475 1_555
Mo9 Se25 2.628516 1_555
Mo9 Se26 2.632760 1_555
Mo9 Se3 2.726489 1_555
Mo9 Se13 2.751123 1_545
Mo10 Se34 2.557252 1_555
Mo10 Se27 2.599651 1_555
Mo10 Se26 2.615240 1_555
Mo10 Se4 2.699021 1_555
Mo10 Se14 2.778324 1_555
Mo10 Mo5 2.793750 1_555
Mo11 Se34 2.532484 1_555
Mo11 Se25 2.610754 1_555
Mo11 Se27 2.632958 1_555
Mo11 Se5 2.735430 1_555
Mo11 Se15 2.741894 1_554
Mo11 Mo5 2.746531 1_555
Mo12 Se37 2.521475 1_555
Mo12 Se28 2.628516 1_555
Mo12 Se29 2.632760 1_555
Mo12 Se3 2.726489 1_555
Mo12 Se16 2.751123 1_545
Mo13 Se37 2.557252 1_555
Mo13 Se30 2.599651 1_555
Mo13 Se29 2.615240 1_555
Mo13 Se4 2.699021 1_555
Mo13 Se17 2.778324 1_555
Mo13 Mo5 2.793750 1_555
Mo14 Se37 2.532484 1_555
Mo14 Se28 2.610754 1_555
Mo14 Se30 2.632958 1_555
Mo14 Se5 2.735430 1_555
Mo14 Se18 2.741894 1_554
Mo14 Mo5 2.746531 1_555
Mo15 Se36 2.521475 1_555
Mo15 Se31 2.628516 1_555
Mo15 Se32 2.632760 1_555
Mo15 Se0 2.726489 1_555
Mo15 Se19 2.751123 1_565
Mo16 Se36 2.557252 1_555
Mo16 Se33 2.599651 1_555
Mo16 Se32 2.615240 1_555
Mo16 Se1 2.699021 1_555
Mo16 Se20 2.778324 1_555
Mo16 Mo2 2.793750 1_555
Mo17 Se36 2.532484 1_555
Mo17 Se31 2.610754 1_555
Mo17 Se33 2.632958 1_555
Mo17 Se2 2.735430 1_555
Mo17 Se21 2.741894 1_556
Mo17 Mo2 2.746531 1_555
Mo18 Se6 2.548138 1_556
Mo18 Se18 2.594741 1_555
Mo18 Se11 2.632362 1_556
Mo18 Se10 2.646641 1_565
Mo18 Se22 2.744099 1_555
Mo19 Se6 2.559344 1_555
Mo19 Se16 2.573813 1_555
Mo19 Se12 2.605124 1_565
Mo19 Se11 2.637869 1_555
Mo19 Se23 2.753237 1_555
Mo20 Se17 2.575498 1_555
Mo20 Se10 2.592376 1_555
Mo20 Se6 2.602268 1_546
Mo20 Se12 2.613953 1_556
Mo20 Se24 2.721071 1_555
Mo21 Se7 2.548138 1_554
Mo21 Se21 2.594741 1_455
Mo21 Se14 2.632362 1_554
Mo21 Se13 2.646641 1_545
Mo21 Se25 2.744099 1_555
Mo22 Se7 2.559344 1_555
Mo22 Se19 2.573813 1_455
Mo22 Se15 2.605124 1_545
Mo22 Se14 2.637869 1_555
Mo22 Se26 2.753237 1_555
Mo23 Se20 2.575498 1_455
Mo23 Se13 2.592376 1_555
Mo23 Se7 2.602268 1_564
Mo23 Se15 2.613953 1_554
Mo23 Se27 2.721071 1_555
Mo24 Se8 2.548138 1_554
Mo24 Se12 2.594741 1_555
Mo24 Se17 2.632362 1_554
Mo24 Se16 2.646641 1_545
Mo24 Se28 2.744099 1_555
Mo25 Se8 2.559344 1_555
Mo25 Se10 2.573813 1_555
Mo25 Se18 2.605124 1_545
Mo25 Se17 2.637869 1_555
Mo25 Se29 2.753237 1_555
Mo26 Se11 2.575498 1_555
Mo26 Se16 2.592376 1_555
Mo26 Se8 2.602268 1_564
Mo26 Se18 2.613953 1_554
Mo26 Se30 2.721071 1_555
Mo27 Se9 2.548138 1_556
Mo27 Se15 2.594741 1_655
Mo27 Se20 2.632362 1_556
Mo27 Se19 2.646641 1_565
Mo27 Se31 2.744099 1_555
Mo28 Se9 2.559344 1_555
Mo28 Se13 2.573813 1_655
Mo28 Se21 2.605124 1_565
Mo28 Se20 2.637869 1_555
Mo28 Se32 2.753237 1_555
Mo29 Se14 2.575498 1_655
Mo29 Se19 2.592376 1_555
Mo29 Se9 2.602268 1_546
Mo29 Se21 2.613953 1_556
Mo29 Se33 2.721071 1_555
