# generated using pymatgen
data_HfMg6SbO8
_symmetry_space_group_name_H-M   'P 1'
_cell_length_a   10.61552512
_cell_length_b   4.31921693
_cell_length_c   4.31921693
_cell_angle_alpha   90.00000000
_cell_angle_beta   90.00000000
_cell_angle_gamma   90.00000000
_symmetry_Int_Tables_number   1
_chemical_formula_structural   HfMg6SbO8
_chemical_formula_sum   'Hf1 Mg6 Sb1 O8'
_cell_volume   198.03936079
_cell_formula_units_Z   1
loop_
 _symmetry_equiv_pos_site_id
 _symmetry_equiv_pos_as_xyz
  1  'x, y, z'
loop_
 _atom_site_type_symbol
 _atom_site_label
 _atom_site_symmetry_multiplicity
 _atom_site_fract_x
 _atom_site_fract_y
 _atom_site_fract_z
 _atom_site_occupancy
  Hf  Hf0  1  0.50000000  -0.00000000  0.00000000  1
  Mg  Mg0  1  -0.00000000  0.50000000  0.50000000  1
  Mg  Mg1  1  0.50000000  0.50000000  0.50000000  1
  Mg  Mg2  1  0.22870830  0.00000000  0.50000000  1
  Mg  Mg3  1  0.77129170  -0.00000000  0.50000000  1
  Mg  Mg4  1  0.22870830  0.50000000  0.00000000  1
  Mg  Mg5  1  0.77129170  0.50000000  -0.00000000  1
  Sb  Sb0  1  -0.00000000  -0.00000000  0.00000000  1
  O  O0  1  0.30508737  -0.00000000  0.00000000  1
  O  O1  1  0.69491263  0.00000000  -0.00000000  1
  O  O2  1  0.20889222  0.50000000  0.50000000  1
  O  O3  1  0.79110778  0.50000000  0.50000000  1
  O  O4  1  -0.00000000  -0.00000000  0.50000000  1
  O  O5  1  0.50000000  -0.00000000  0.50000000  1
  O  O6  1  -0.00000000  0.50000000  0.00000000  1
  O  O7  1  0.50000000  0.50000000  0.00000000  1
loop_
_geom_bond_atom_site_label_1
_geom_bond_atom_site_label_2
_geom_bond_distance
_geom_bond_site_symmetry_2
Hf0 O0 2.069100 1_555
Hf0 O1 2.069100 1_555
Hf0 O7 2.159608 1_545
Hf0 O5 2.159608 1_555
Hf0 O7 2.159608 1_555
Hf0 O5 2.159608 1_554
Mg0 O6 2.159608 1_556
Mg0 O6 2.159608 1_555
Mg0 O4 2.159608 1_565
Mg0 O4 2.159608 1_555
Mg0 O3 2.217501 1_455
Mg0 O2 2.217501 1_555
Mg1 O7 2.159608 1_556
Mg1 O5 2.159608 1_565
Mg1 O7 2.159608 1_555
Mg1 O5 2.159608 1_555
Mg2 O2 2.169829 1_555
Mg2 O2 2.169829 1_545
Mg2 O0 2.306797 1_556
Mg2 O0 2.306797 1_555
Mg2 O4 2.427859 1_555
Mg3 O3 2.169829 1_545
Mg3 O3 2.169829 1_555
Mg3 O1 2.306797 1_555
Mg3 O1 2.306797 1_556
Mg3 O4 2.427859 1_655
Mg4 O2 2.169829 1_555
Mg4 O2 2.169829 1_554
Mg4 O0 2.306797 1_565
Mg4 O0 2.306797 1_555
Mg4 O6 2.427859 1_555
Mg5 O3 2.169829 1_555
Mg5 O3 2.169829 1_554
Mg5 O1 2.306797 1_555
Mg5 O1 2.306797 1_565
Mg5 O6 2.427859 1_655
O4 Sb0 2.159608 1_556
O4 Sb0 2.159608 1_555
O6 Sb0 2.159608 1_565
O6 Sb0 2.159608 1_555
