# generated using pymatgen
data_RbY(MoO4)2
_symmetry_space_group_name_H-M   'P 1'
_cell_length_a   7.55870819
_cell_length_b   7.55870819
_cell_length_c   7.78043382
_cell_angle_alpha   61.86549025
_cell_angle_beta   61.86549025
_cell_angle_gamma   88.34292703
_symmetry_Int_Tables_number   1
_chemical_formula_structural   RbY(MoO4)2
_chemical_formula_sum   'Rb2 Y2 Mo4 O16'
_cell_volume   334.82057390
_cell_formula_units_Z   2
loop_
 _symmetry_equiv_pos_site_id
 _symmetry_equiv_pos_as_xyz
  1  'x, y, z'
loop_
 _atom_site_type_symbol
 _atom_site_label
 _atom_site_symmetry_multiplicity
 _atom_site_fract_x
 _atom_site_fract_y
 _atom_site_fract_z
 _atom_site_occupancy
  Rb  Rb0  1  0.19868100  0.80131900  0.75000000  1
  Rb  Rb1  1  0.80131900  0.19868100  0.25000000  1
  Y  Y0  1  0.77075100  0.22924900  0.75000000  1
  Y  Y1  1  0.22924900  0.77075100  0.25000000  1
  Mo  Mo0  1  0.69516700  0.69626300  0.76291200  1
  Mo  Mo1  1  0.30483300  0.30373700  0.23708800  1
  Mo  Mo2  1  0.30373700  0.30483300  0.73708800  1
  Mo  Mo3  1  0.69626300  0.69516700  0.26291200  1
  O  O0  1  0.61541200  0.76495400  0.56219600  1
  O  O1  1  0.38458800  0.23504600  0.43780400  1
  O  O2  1  0.23504600  0.38458800  0.93780400  1
  O  O3  1  0.76495400  0.61541200  0.06219600  1
  O  O4  1  0.38282800  0.06858100  0.87503600  1
  O  O5  1  0.61717200  0.93141900  0.12496400  1
  O  O6  1  0.93141900  0.61717200  0.62496400  1
  O  O7  1  0.06858100  0.38282800  0.37503600  1
  O  O8  1  0.58480800  0.36781300  0.96984400  1
  O  O9  1  0.41519200  0.63218700  0.03015600  1
  O  O10  1  0.63218700  0.41519200  0.53015600  1
  O  O11  1  0.36781300  0.58480800  0.46984400  1
  O  O12  1  0.79209900  0.95133300  0.69294200  1
  O  O13  1  0.20790100  0.04866700  0.30705800  1
  O  O14  1  0.04866700  0.20790100  0.80705800  1
  O  O15  1  0.95133300  0.79209900  0.19294200  1
loop_
_geom_bond_atom_site_label_1
_geom_bond_atom_site_label_2
_geom_bond_distance
_geom_bond_site_symmetry_2
Mo0 O0 1.782371 1_555
Mo0 O12 1.807219 1_555
Mo0 O6 1.853137 1_555
Mo0 O9 1.999044 1_556
Mo0 O8 2.129586 1_555
Mo0 O3 2.423144 1_556
Mo1 O1 1.782371 1_555
Mo1 O13 1.807219 1_555
Mo1 O7 1.853137 1_555
Mo1 O8 1.999044 1_554
Mo1 O9 2.129586 1_555
Mo1 O2 2.423144 1_554
Mo2 O2 1.782371 1_555
Mo2 O14 1.807219 1_555
Mo2 O4 1.853137 1_555
Mo2 O11 1.999044 1_555
Mo2 O10 2.129586 1_555
Mo2 O1 2.423144 1_555
Mo3 O3 1.782371 1_555
Mo3 O15 1.807219 1_555
Mo3 O5 1.853137 1_555
Mo3 O10 1.999044 1_555
Mo3 O11 2.129586 1_555
Mo3 O0 2.423144 1_555
O0 Rb0 2.849701 1_555
O0 Rb1 2.856584 1_565
O1 Rb1 2.849701 1_555
O1 Rb0 2.856584 1_545
O2 Rb0 2.849701 1_555
O2 Rb1 2.856584 1_456
O3 Rb1 2.849701 1_555
O3 Rb0 2.856584 1_654
O4 Y1 2.385378 1_546
O4 Y0 2.724078 1_555
O4 Rb0 3.202802 1_545
O5 Y0 2.385378 1_564
O5 Y1 2.724078 1_555
O5 Rb1 3.202802 1_565
O6 Y1 2.385378 1_655
O6 Y0 2.724078 1_555
O6 Rb0 3.202802 1_655
O7 Y0 2.385378 1_455
O7 Y1 2.724078 1_555
O7 Rb1 3.202802 1_455
O8 Y0 2.309823 1_555
O8 Rb1 3.111119 1_556
O9 Y1 2.309823 1_555
O9 Rb0 3.111119 1_554
O10 Y0 2.309823 1_555
O10 Rb1 3.111119 1_555
O11 Y1 2.309823 1_555
O11 Rb0 3.111119 1_555
O12 Y0 2.329878 1_565
O12 Rb1 3.013585 1_565
O12 Rb0 3.396763 1_655
O13 Y1 2.329878 1_545
O13 Rb0 3.013585 1_545
O13 Rb1 3.396763 1_455
O14 Y0 2.329878 1_455
O14 Rb1 3.013585 1_456
O14 Rb0 3.396763 1_545
O15 Y1 2.329878 1_655
O15 Rb0 3.013585 1_654
O15 Rb1 3.396763 1_565
