# generated using pymatgen
data_La5Cu19P12
_symmetry_space_group_name_H-M   'P 1'
_cell_length_a   12.72838049
_cell_length_b   12.72838049
_cell_length_c   3.97896200
_cell_angle_alpha   90.00000000
_cell_angle_beta   90.00000000
_cell_angle_gamma   120.00000257
_symmetry_Int_Tables_number   1
_chemical_formula_structural   La5Cu19P12
_chemical_formula_sum   'La5 Cu19 P12'
_cell_volume   558.27311100
_cell_formula_units_Z   1
loop_
 _symmetry_equiv_pos_site_id
 _symmetry_equiv_pos_as_xyz
  1  'x, y, z'
loop_
 _atom_site_type_symbol
 _atom_site_label
 _atom_site_symmetry_multiplicity
 _atom_site_fract_x
 _atom_site_fract_y
 _atom_site_fract_z
 _atom_site_occupancy
  La  La0  1  0.80748800  0.00000000  0.50000000  1
  La  La1  1  0.00000000  0.80748800  0.50000000  1
  La  La2  1  0.19251200  0.19251200  0.50000000  1
  La  La3  1  0.33333300  0.66666700  0.00000000  1
  La  La4  1  0.66666700  0.33333300  0.00000000  1
  Cu  Cu0  1  0.82823000  0.20714900  0.00000000  1
  Cu  Cu1  1  0.62108100  0.79285100  0.00000000  1
  Cu  Cu2  1  0.17177000  0.37891900  0.00000000  1
  Cu  Cu3  1  0.20714900  0.82823000  0.00000000  1
  Cu  Cu4  1  0.48329200  0.36561200  0.50000000  1
  Cu  Cu5  1  0.88232000  0.51670800  0.50000000  1
  Cu  Cu6  1  0.51670800  0.88232000  0.50000000  1
  Cu  Cu7  1  0.36561200  0.48329200  0.50000000  1
  Cu  Cu8  1  0.11768000  0.63438800  0.50000000  1
  Cu  Cu9  1  0.54957400  0.54957400  0.00000000  1
  Cu  Cu10  1  0.00000000  0.45042600  0.00000000  1
  Cu  Cu11  1  0.45042600  0.00000000  0.00000000  1
  Cu  Cu12  1  0.37891900  0.17177000  0.00000000  1
  Cu  Cu13  1  0.28864100  0.00000000  0.50000000  1
  Cu  Cu14  1  0.00000000  0.28864100  0.50000000  1
  Cu  Cu15  1  0.71135900  0.71135900  0.50000000  1
  Cu  Cu16  1  0.00000000  0.00000000  0.00000000  1
  Cu  Cu17  1  0.63438800  0.11768000  0.50000000  1
  Cu  Cu18  1  0.79285100  0.62108100  0.00000000  1
  P  P0  1  0.17259900  0.47957000  0.50000000  1
  P  P1  1  0.52043000  0.69302900  0.50000000  1
  P  P2  1  0.30697100  0.82740100  0.50000000  1
  P  P3  1  0.82740100  0.30697100  0.50000000  1
  P  P4  1  0.69302900  0.52043000  0.50000000  1
  P  P5  1  0.00000000  0.63091500  0.00000000  1
  P  P6  1  0.36908500  0.36908500  0.00000000  1
  P  P7  1  0.17683100  0.00000000  0.00000000  1
  P  P8  1  0.00000000  0.17683100  0.00000000  1
  P  P9  1  0.82316900  0.82316900  0.00000000  1
  P  P10  1  0.47957000  0.17259900  0.50000000  1
  P  P11  1  0.63091500  0.00000000  0.00000000  1
loop_
_geom_bond_atom_site_label_1
_geom_bond_atom_site_label_2
_geom_bond_distance
_geom_bond_site_symmetry_2
La0 P11 3.001539 1_555
La0 P11 3.001539 1_556
La0 P8 3.084329 1_656
La0 P8 3.084329 1_655
La0 P9 3.084329 1_546
La0 P9 3.084329 1_545
La1 P5 3.001539 1_555
La1 P5 3.001539 1_556
La1 P7 3.084329 1_566
La1 P7 3.084329 1_565
La1 P9 3.084329 1_456
La1 P9 3.084329 1_455
La2 P6 3.001539 1_556
La2 P6 3.001539 1_555
La2 P8 3.084329 1_555
La2 P8 3.084329 1_556
La2 P7 3.084329 1_555
La2 P7 3.084329 1_556
La3 P2 2.990443 1_554
La3 P2 2.990443 1_555
La3 P0 2.990449 1_554
La3 P0 2.990449 1_555
La3 P1 2.990453 1_554
La3 P1 2.990453 1_555
La4 P3 2.990443 1_554
La4 P3 2.990443 1_555
La4 P10 2.990449 1_554
La4 P10 2.990449 1_555
La4 P4 2.990453 1_554
La4 P4 2.990453 1_555
Cu0 P3 2.363452 1_554
Cu0 P3 2.363452 1_555
Cu0 P8 2.402660 1_655
Cu0 P11 2.576367 1_555
Cu0 La4 3.179846 1_555
Cu0 La0 3.206815 1_554
Cu0 La0 3.206815 1_555
Cu1 P1 2.363452 1_555
Cu1 P1 2.363452 1_554
Cu1 P9 2.402660 1_555
Cu1 P11 2.576367 1_565
Cu1 La3 3.179857 1_555
Cu1 La0 3.206814 1_565
Cu1 La0 3.206814 1_564
Cu2 P0 2.363452 1_555
Cu2 P0 2.363452 1_554
Cu2 P8 2.402660 1_555
Cu2 P6 2.576367 1_555
Cu2 La3 3.179856 1_555
Cu2 La2 3.206815 1_555
Cu2 La2 3.206815 1_554
Cu3 P2 2.363452 1_554
Cu3 P2 2.363452 1_555
Cu3 P7 2.402660 1_565
Cu3 P5 2.576367 1_555
Cu3 La3 3.179846 1_555
Cu3 La1 3.206815 1_554
Cu3 La1 3.206815 1_555
Cu4 P4 2.397777 1_555
Cu4 P10 2.433401 1_555
Cu4 P6 2.477379 1_555
Cu4 P6 2.477379 1_556
Cu4 La2 3.224644 1_555
Cu4 La4 3.245563 1_555
Cu4 La4 3.245563 1_556
Cu5 P3 2.397777 1_555
Cu5 P4 2.433401 1_555
Cu5 P5 2.477379 1_655
Cu5 P5 2.477379 1_656
Cu5 La1 3.224644 1_655
Cu5 La4 3.245557 1_555
Cu5 La4 3.245557 1_556
Cu6 P2 2.397777 1_555
Cu6 P1 2.433401 1_555
Cu6 P11 2.477379 1_566
Cu6 P11 2.477379 1_565
Cu6 La0 3.224644 1_565
Cu6 La3 3.245557 1_556
Cu6 La3 3.245557 1_555
Cu7 P1 2.397777 1_555
Cu7 P0 2.433401 1_555
Cu7 P6 2.477379 1_555
Cu7 P6 2.477379 1_556
Cu7 La2 3.224644 1_555
Cu7 La3 3.245563 1_555
Cu7 La3 3.245563 1_556
Cu8 P0 2.397777 1_555
Cu8 P2 2.433401 1_555
Cu8 P5 2.477379 1_555
Cu8 P5 2.477379 1_556
Cu8 La1 3.224644 1_555
Cu8 La3 3.245553 1_556
Cu8 La3 3.245553 1_555
Cu9 P6 2.297333 1_555
Cu9 P1 2.847294 1_555
Cu9 P1 2.847294 1_554
Cu9 P4 2.847294 1_554
Cu9 P4 2.847294 1_555
Cu10 P5 2.297333 1_555
Cu10 P3 2.847294 1_454
Cu10 P3 2.847294 1_455
Cu10 P0 2.847294 1_554
Cu10 P0 2.847294 1_555
Cu11 P11 2.297333 1_555
Cu11 P2 2.847294 1_544
Cu11 P2 2.847294 1_545
Cu11 P10 2.847294 1_555
Cu11 P10 2.847294 1_554
Cu12 P10 2.363452 1_555
Cu12 P10 2.363452 1_554
Cu12 P7 2.402660 1_555
Cu12 P6 2.576367 1_555
Cu12 La4 3.179856 1_555
Cu12 La2 3.206815 1_554
Cu12 La2 3.206815 1_555
Cu13 P10 2.322368 1_555
Cu13 P2 2.322368 1_545
Cu13 P7 2.446103 1_555
Cu13 P7 2.446103 1_556
Cu13 La1 3.240308 1_545
Cu13 La2 3.240308 1_555
Cu14 P0 2.322368 1_555
Cu14 P3 2.322368 1_455
Cu14 P8 2.446103 1_555
Cu14 P8 2.446103 1_556
Cu14 La0 3.240308 1_455
Cu14 La2 3.240308 1_555
Cu15 P1 2.322368 1_555
Cu15 P4 2.322368 1_555
Cu15 P9 2.446103 1_556
Cu15 P9 2.446103 1_555
Cu15 La1 3.240308 1_655
Cu15 La0 3.240308 1_565
Cu16 P9 2.250772 1_445
Cu16 P7 2.250772 1_555
Cu16 P8 2.250772 1_555
Cu16 La2 3.156316 1_554
Cu16 La2 3.156316 1_555
Cu16 La1 3.156316 1_545
Cu16 La1 3.156316 1_544
Cu16 La0 3.156316 1_455
Cu16 La0 3.156316 1_454
Cu17 P10 2.397777 1_555
Cu17 P3 2.433401 1_555
Cu17 P11 2.477379 1_555
Cu17 P11 2.477379 1_556
Cu17 La0 3.224644 1_555
Cu17 La4 3.245553 1_555
Cu17 La4 3.245553 1_556
Cu18 P4 2.363452 1_555
Cu18 P4 2.363452 1_554
Cu18 P9 2.402660 1_555
Cu18 P5 2.576367 1_655
Cu18 La4 3.179857 1_555
Cu18 La1 3.206814 1_655
Cu18 La1 3.206814 1_654
