# generated using pymatgen
data_Bi(C2N3)3
_symmetry_space_group_name_H-M   'P 1'
_cell_length_a   7.23697224
_cell_length_b   12.24830490
_cell_length_c   11.01918200
_cell_angle_alpha   90.00000000
_cell_angle_beta   90.00000000
_cell_angle_gamma   32.19590179
_symmetry_Int_Tables_number   1
_chemical_formula_structural   Bi(C2N3)3
_chemical_formula_sum   'Bi2 C12 N18'
_cell_volume   520.42638261
_cell_formula_units_Z   2
loop_
 _symmetry_equiv_pos_site_id
 _symmetry_equiv_pos_as_xyz
  1  'x, y, z'
loop_
 _atom_site_type_symbol
 _atom_site_label
 _atom_site_symmetry_multiplicity
 _atom_site_fract_x
 _atom_site_fract_y
 _atom_site_fract_z
 _atom_site_occupancy
  Bi  Bi0  1  0.00000000  0.28619000  0.25000000  1
  Bi  Bi1  1  0.00000000  0.71381000  0.75000000  1
  C  C0  1  0.70333600  0.74510300  0.25000000  1
  C  C1  1  0.70333600  0.55156200  0.75000000  1
  C  C2  1  0.29666400  0.25489700  0.75000000  1
  C  C3  1  0.29666400  0.44843800  0.25000000  1
  C  C4  1  0.70186800  0.29288600  0.93323300  1
  C  C5  1  0.70186800  0.00524500  0.06676700  1
  C  C6  1  0.70186800  0.29288600  0.56676700  1
  C  C7  1  0.70186800  0.00524500  0.43323300  1
  C  C8  1  0.29813200  0.70711400  0.06676700  1
  C  C9  1  0.29813200  0.99475500  0.93323300  1
  C  C10  1  0.29813200  0.70711400  0.43323300  1
  C  C11  1  0.29813200  0.99475500  0.56676700  1
  N  N0  1  0.00000000  0.54775500  0.25000000  1
  N  N1  1  0.00000000  0.45224500  0.75000000  1
  N  N2  1  0.41977900  0.92319400  0.25000000  1
  N  N3  1  0.41977900  0.65702600  0.75000000  1
  N  N4  1  0.58022100  0.07680600  0.75000000  1
  N  N5  1  0.58022100  0.34297400  0.25000000  1
  N  N6  1  0.00000000  0.15190000  0.98555300  1
  N  N7  1  0.00000000  0.84810000  0.01444700  1
  N  N8  1  0.00000000  0.15190000  0.51444700  1
  N  N9  1  0.00000000  0.84810000  0.48555300  1
  N  N10  1  0.41538300  0.42952000  0.89609600  1
  N  N11  1  0.41538300  0.15509500  0.10390400  1
  N  N12  1  0.41538300  0.42952000  0.60390400  1
  N  N13  1  0.41538300  0.15509500  0.39609600  1
  N  N14  1  0.58461700  0.57048000  0.10390400  1
  N  N15  1  0.58461700  0.84490500  0.89609600  1
  N  N16  1  0.58461700  0.57048000  0.39609600  1
  N  N17  1  0.58461700  0.84490500  0.60390400  1
loop_
_geom_bond_atom_site_label_1
_geom_bond_atom_site_label_2
_geom_bond_distance
_geom_bond_site_symmetry_2
Bi0 N13 2.457088 1_555
Bi0 N11 2.457088 1_555
Bi0 N14 2.457097 1_455
Bi0 N16 2.457097 1_455
Bi0 N5 2.477243 1_455
Bi0 N2 2.477253 1_545
Bi1 N15 2.457088 1_455
Bi1 N17 2.457088 1_455
Bi1 N12 2.457097 1_555
Bi1 N10 2.457097 1_555
Bi1 N3 2.477243 1_555
Bi1 N4 2.477253 1_465
C0 N2 1.180388 1_555
C0 N0 1.291901 1_655
C1 N3 1.180397 1_555
C1 N1 1.291895 1_655
C2 N4 1.180388 1_555
C2 N1 1.291901 1_555
C3 N5 1.180397 1_555
C3 N0 1.291895 1_555
C4 N10 1.180816 1_555
C4 N6 1.289856 1_655
C5 N11 1.180815 1_555
C5 N7 1.289855 1_645
C6 N12 1.180816 1_555
C6 N8 1.289856 1_655
C7 N13 1.180815 1_555
C7 N9 1.289855 1_645
C8 N14 1.180816 1_555
C8 N7 1.289856 1_555
C9 N15 1.180815 1_555
C9 N6 1.289855 1_565
C10 N16 1.180816 1_555
C10 N9 1.289856 1_555
C11 N17 1.180815 1_555
C11 N8 1.289855 1_565
