# generated using pymatgen
data_CsMg14V
_symmetry_space_group_name_H-M   'P 1'
_cell_length_a   6.45988659
_cell_length_b   6.53043614
_cell_length_c   10.74089944
_cell_angle_alpha   90.00000000
_cell_angle_beta   90.00000000
_cell_angle_gamma   120.36193758
_symmetry_Int_Tables_number   1
_chemical_formula_structural   CsMg14V
_chemical_formula_sum   'Cs1 Mg14 V1'
_cell_volume   390.96947887
_cell_formula_units_Z   1
loop_
 _symmetry_equiv_pos_site_id
 _symmetry_equiv_pos_as_xyz
  1  'x, y, z'
loop_
 _atom_site_type_symbol
 _atom_site_label
 _atom_site_symmetry_multiplicity
 _atom_site_fract_x
 _atom_site_fract_y
 _atom_site_fract_z
 _atom_site_occupancy
  Cs  Cs0  1  0.15783920  0.82891910  0.12500000  1
  Mg  Mg0  1  0.16397672  0.33198786  0.62500000  1
  Mg  Mg1  1  0.16834562  0.83417231  0.62500000  1
  Mg  Mg2  1  0.66160381  0.33281239  0.12500000  1
  Mg  Mg3  1  0.66713823  0.32960945  0.62500000  1
  Mg  Mg4  1  0.66160381  0.82879041  0.12500000  1
  Mg  Mg5  1  0.66713823  0.83752778  0.62500000  1
  Mg  Mg6  1  0.33655434  0.17982036  0.38907020  1
  Mg  Mg7  1  0.33655434  0.17982036  0.86092980  1
  Mg  Mg8  1  0.33655434  0.65673498  0.38907020  1
  Mg  Mg9  1  0.33655434  0.65673498  0.86092980  1
  Mg  Mg10  1  0.83939198  0.16969649  0.36490978  1
  Mg  Mg11  1  0.83939198  0.16969649  0.88509022  1
  Mg  Mg12  1  0.82210802  0.66105451  0.39759450  1
  Mg  Mg13  1  0.82210802  0.66105451  0.85240550  1
  V  V0  1  0.18313704  0.34156802  0.12500000  1
loop_
_geom_bond_atom_site_label_1
_geom_bond_atom_site_label_2
_geom_bond_distance
_geom_bond_site_symmetry_2
Cs0 Mg2 3.205199 1_455
Cs0 Mg4 3.205200 1_455
Cs0 Mg2 3.254687 1_565
Cs0 Mg4 3.254687 1_555
Cs0 V0 3.268261 1_565
Cs0 V0 3.268261 1_555
Cs0 Mg8 3.457512 1_555
Cs0 Mg9 3.457512 1_554
Cs0 Mg6 3.457518 1_565
Cs0 Mg7 3.457518 1_564
Cs0 Mg12 3.474846 1_455
Cs0 Mg13 3.474846 1_454
Mg0 Mg7 3.126006 1_555
Mg0 Mg6 3.126006 1_555
Mg0 Mg9 3.126012 1_555
Mg0 Mg8 3.126012 1_555
Mg0 Mg5 3.201697 1_445
Mg0 Mg3 3.201698 1_455
Mg0 Mg5 3.258244 1_555
Mg0 Mg3 3.258245 1_555
Mg0 Mg1 3.265309 1_555
Mg0 Mg1 3.265309 1_545
Mg0 Mg11 3.328280 1_455
Mg0 Mg10 3.328280 1_455
Mg1 Mg13 3.112957 1_455
Mg1 Mg12 3.112957 1_455
Mg1 Mg8 3.196547 1_555
Mg1 Mg9 3.196547 1_555
Mg1 Mg6 3.196554 1_565
Mg1 Mg7 3.196554 1_565
Mg1 Mg3 3.211123 1_565
Mg1 Mg5 3.211123 1_555
Mg1 Mg3 3.248874 1_455
Mg1 Mg5 3.248874 1_455
Mg2 V0 3.120132 1_555
Mg2 Mg4 3.238953 1_555
Mg2 Mg4 3.291483 1_545
Mg2 V0 3.340509 1_655
Mg2 Mg6 3.366210 1_555
Mg2 Mg7 3.366210 1_554
Mg3 Mg7 3.134844 1_555
Mg3 Mg6 3.134844 1_555
Mg3 Mg5 3.213508 1_545
Mg3 Mg5 3.316928 1_555
Mg4 V0 3.120132 1_555
Mg4 V0 3.340508 1_665
Mg4 Mg8 3.366210 1_555
Mg4 Mg9 3.366210 1_554
Mg5 Mg9 3.134843 1_555
Mg5 Mg8 3.134843 1_555
Mg6 Mg8 3.114460 1_555
Mg6 V0 3.346803 1_555
Mg6 Mg8 3.415976 1_545
Mg7 Mg9 3.114460 1_555
Mg7 V0 3.346803 1_556
Mg7 Mg9 3.415976 1_545
Mg8 V0 3.346809 1_555
Mg9 V0 3.346809 1_556
Mg10 Mg8 3.189282 1_655
Mg10 Mg6 3.189282 1_655
Mg10 V0 3.211108 1_655
Mg10 Mg2 3.214128 1_555
Mg10 Mg4 3.214134 1_545
Mg10 Mg12 3.285449 1_545
Mg10 Mg12 3.285449 1_555
Mg10 Mg8 3.292430 1_545
Mg10 Mg6 3.292430 1_555
Mg10 Mg3 3.362692 1_555
Mg10 Mg5 3.362698 1_545
Mg11 Mg9 3.189282 1_655
Mg11 Mg7 3.189282 1_655
Mg11 V0 3.211108 1_656
Mg11 Mg2 3.214128 1_556
Mg11 Mg4 3.214134 1_546
Mg11 Mg13 3.285449 1_545
Mg11 Mg13 3.285449 1_555
Mg11 Mg9 3.292430 1_545
Mg11 Mg7 3.292430 1_555
Mg11 Mg3 3.362692 1_555
Mg11 Mg5 3.362698 1_545
Mg12 Mg5 3.076136 1_555
Mg12 Mg3 3.076143 1_555
Mg12 Mg6 3.123800 1_555
Mg12 Mg8 3.123800 1_555
Mg12 Mg6 3.338867 1_665
Mg12 Mg8 3.338867 1_655
Mg12 Mg4 3.463483 1_555
Mg12 Mg2 3.463489 1_555
Mg13 Mg5 3.076136 1_555
Mg13 Mg3 3.076143 1_555
Mg13 Mg7 3.123800 1_555
Mg13 Mg9 3.123800 1_555
Mg13 Mg7 3.338867 1_665
Mg13 Mg9 3.338867 1_655
Mg13 Mg4 3.463483 1_556
Mg13 Mg2 3.463489 1_556
