# generated using pymatgen
data_Rb2LiVCl6
_symmetry_space_group_name_H-M   'P 1'
_cell_length_a   7.12508199
_cell_length_b   7.12508199
_cell_length_c   6.07622500
_cell_angle_alpha   90.00000000
_cell_angle_beta   90.00000000
_cell_angle_gamma   119.99999987
_symmetry_Int_Tables_number   1
_chemical_formula_structural   Rb2LiVCl6
_chemical_formula_sum   'Rb2 Li1 V1 Cl6'
_cell_volume   267.14325387
_cell_formula_units_Z   1
loop_
 _symmetry_equiv_pos_site_id
 _symmetry_equiv_pos_as_xyz
  1  'x, y, z'
loop_
 _atom_site_type_symbol
 _atom_site_label
 _atom_site_symmetry_multiplicity
 _atom_site_fract_x
 _atom_site_fract_y
 _atom_site_fract_z
 _atom_site_occupancy
  Rb  Rb0  1  0.33333300  0.66666700  0.24290200  1
  Rb  Rb1  1  0.66666700  0.33333300  0.75709800  1
  Li  Li0  1  0.00000000  0.00000000  0.00000000  1
  V  V0  1  0.00000000  0.00000000  0.50000000  1
  Cl  Cl0  1  0.84302900  0.15697100  0.26776600  1
  Cl  Cl1  1  0.15697100  0.84302900  0.73223400  1
  Cl  Cl2  1  0.84302900  0.68605800  0.26776600  1
  Cl  Cl3  1  0.15697100  0.31394200  0.73223400  1
  Cl  Cl4  1  0.31394200  0.15697100  0.26776600  1
  Cl  Cl5  1  0.68605800  0.84302900  0.73223400  1
loop_
_geom_bond_atom_site_label_1
_geom_bond_atom_site_label_2
_geom_bond_distance
_geom_bond_site_symmetry_2
Cl0 V0 2.396640 1_655
Cl0 Li0 2.529786 1_655
Cl0 Rb0 3.567750 1_545
Cl0 Rb0 3.567750 1_655
Cl0 Rb1 3.684772 1_555
Cl0 Rb1 3.790156 1_554
Cl1 V0 2.396640 1_565
Cl1 Li0 2.529786 1_566
Cl1 Rb1 3.567750 1_455
Cl1 Rb1 3.567750 1_565
Cl1 Rb0 3.684772 1_555
Cl1 Rb0 3.790156 1_556
Cl2 V0 2.396640 1_665
Cl2 Li0 2.529786 1_665
Cl2 Rb0 3.567746 1_655
Cl2 Rb0 3.567754 1_555
Cl2 Rb1 3.684776 1_555
Cl2 Rb1 3.790159 1_554
Cl3 V0 2.396640 1_555
Cl3 Li0 2.529786 1_556
Cl3 Rb1 3.567746 1_455
Cl3 Rb1 3.567754 1_555
Cl3 Rb0 3.684776 1_555
Cl3 Rb0 3.790159 1_556
Cl4 V0 2.396640 1_555
Cl4 Li0 2.529786 1_555
Cl4 Rb0 3.567746 1_545
Cl4 Rb0 3.567754 1_555
Cl4 Rb1 3.684776 1_555
Cl4 Rb1 3.790159 1_554
Cl5 V0 2.396640 1_665
Cl5 Li0 2.529786 1_666
Cl5 Rb1 3.567746 1_565
Cl5 Rb1 3.567754 1_555
Cl5 Rb0 3.684776 1_555
Cl5 Rb0 3.790159 1_556
