# generated using pymatgen
data_K2UCoP2O11
_symmetry_space_group_name_H-M   'P 1'
_cell_length_a   8.30260300
_cell_length_b   17.11618500
_cell_length_c   8.03325127
_cell_angle_alpha   90.00000000
_cell_angle_beta   106.07859709
_cell_angle_gamma   90.00000000
_symmetry_Int_Tables_number   1
_chemical_formula_structural   K2UCoP2O11
_chemical_formula_sum   'K8 U4 Co4 P8 O44'
_cell_volume   1096.94021895
_cell_formula_units_Z   4
loop_
 _symmetry_equiv_pos_site_id
 _symmetry_equiv_pos_as_xyz
  1  'x, y, z'
loop_
 _atom_site_type_symbol
 _atom_site_label
 _atom_site_symmetry_multiplicity
 _atom_site_fract_x
 _atom_site_fract_y
 _atom_site_fract_z
 _atom_site_occupancy
  K  K0  1  0.24203400  0.77137500  0.91320200  1
  K  K1  1  0.75796600  0.27137500  0.58679800  1
  K  K2  1  0.75796600  0.22862500  0.08679800  1
  K  K3  1  0.24203400  0.72862500  0.41320200  1
  K  K4  1  0.28043200  0.00968000  0.72398500  1
  K  K5  1  0.71956800  0.50968000  0.77601500  1
  K  K6  1  0.71956800  0.99032000  0.27601500  1
  K  K7  1  0.28043200  0.49032000  0.22398500  1
  U  U0  1  0.20475800  0.96377100  0.21001000  1
  U  U1  1  0.79524200  0.46377100  0.28999000  1
  U  U2  1  0.79524200  0.03622900  0.78999000  1
  U  U3  1  0.20475800  0.53622900  0.71001000  1
  Co  Co0  1  0.70138100  0.72802100  0.79605900  1
  Co  Co1  1  0.29861900  0.22802100  0.70394100  1
  Co  Co2  1  0.29861900  0.27197900  0.20394100  1
  Co  Co3  1  0.70138100  0.77197900  0.29605900  1
  P  P0  1  0.90563100  0.84903900  0.04809000  1
  P  P1  1  0.09436900  0.34903900  0.45191000  1
  P  P2  1  0.09436900  0.15096100  0.95191000  1
  P  P3  1  0.90563100  0.65096100  0.54809000  1
  P  P4  1  0.54236400  0.86857000  0.56611500  1
  P  P5  1  0.45763600  0.36857000  0.93388500  1
  P  P6  1  0.45763600  0.13143000  0.43388500  1
  P  P7  1  0.54236400  0.63143000  0.06611500  1
  O  O0  1  0.89225200  0.79481800  0.89143700  1
  O  O1  1  0.10774800  0.29481800  0.60856300  1
  O  O2  1  0.10774800  0.20518200  0.10856300  1
  O  O3  1  0.89225200  0.70518200  0.39143700  1
  O  O4  1  0.51333800  0.79640400  0.67311800  1
  O  O5  1  0.48666200  0.29640400  0.82688200  1
  O  O6  1  0.48666200  0.20359600  0.32688200  1
  O  O7  1  0.51333800  0.70359600  0.17311800  1
  O  O8  1  0.07943000  0.83753800  0.18197200  1
  O  O9  1  0.92057000  0.33753800  0.31802800  1
  O  O10  1  0.92057000  0.16246200  0.81802800  1
  O  O11  1  0.07943000  0.66246200  0.68197200  1
  O  O12  1  0.32427600  0.93206800  0.05967300  1
  O  O13  1  0.67572400  0.43206800  0.44032700  1
  O  O14  1  0.67572400  0.06793200  0.94032700  1
  O  O15  1  0.32427600  0.56793200  0.55967300  1
  O  O16  1  0.60377200  0.93951600  0.68897400  1
  O  O17  1  0.39622800  0.43951600  0.81102600  1
  O  O18  1  0.39622800  0.06048400  0.31102600  1
  O  O19  1  0.60377200  0.56048400  0.18897400  1
  O  O20  1  0.91583400  0.93686800  0.99624100  1
  O  O21  1  0.08416600  0.43686800  0.50375900  1
  O  O22  1  0.08416600  0.06313200  0.00375900  1
  O  O23  1  0.91583400  0.56313200  0.49624100  1
  O  O24  1  0.08419600  0.99577500  0.35597500  1
  O  O25  1  0.91580400  0.49577500  0.14402500  1
  O  O26  1  0.91580400  0.00422500  0.64402500  1
  O  O27  1  0.08419600  0.50422500  0.85597500  1
  O  O28  1  0.75489700  0.83938900  0.12306200  1
  O  O29  1  0.24510300  0.33938900  0.37693800  1
  O  O30  1  0.24510300  0.16061100  0.87693800  1
  O  O31  1  0.75489700  0.66061100  0.62306200  1
  O  O32  1  0.37134400  0.89198500  0.43861200  1
  O  O33  1  0.62865600  0.39198500  0.06138800  1
  O  O34  1  0.62865600  0.10801500  0.56138800  1
  O  O35  1  0.37134400  0.60801500  0.93861200  1
  O  O36  1  0.66933400  0.84931200  0.46273100  1
  O  O37  1  0.33066600  0.34931200  0.03726900  1
  O  O38  1  0.33066600  0.15068800  0.53726900  1
  O  O39  1  0.66933400  0.65068800  0.96273100  1
  O  O40  1  0.09328200  0.85675800  0.61885000  1
  O  O41  1  0.90671800  0.35675800  0.88115000  1
  O  O42  1  0.90671800  0.14324200  0.38115000  1
  O  O43  1  0.09328200  0.64324200  0.11885000  1
loop_
_geom_bond_atom_site_label_1
_geom_bond_atom_site_label_2
_geom_bond_distance
_geom_bond_site_symmetry_2
K0 O11 2.712766 1_555
K0 O40 2.763116 1_555
K0 O7 2.859059 1_556
K0 O0 2.888619 1_455
K0 O35 2.981793 1_555
K0 O12 2.995108 1_556
K0 O8 3.062896 1_556
K0 O43 3.192885 1_556
K0 O4 3.373946 1_555
K1 O10 2.712766 1_555
K1 O41 2.763116 1_555
K1 O6 2.859059 1_555
K1 O1 2.888619 1_655
K1 O34 2.981793 1_555
K1 O13 2.995108 1_555
K1 O9 3.062896 1_555
K1 O42 3.192885 1_555
K1 O5 3.373946 1_555
K2 O9 2.712766 1_555
K2 O42 2.763116 1_555
K2 O5 2.859059 1_554
K2 O2 2.888619 1_655
K2 O33 2.981793 1_555
K2 O14 2.995108 1_554
K2 O10 3.062896 1_554
K2 O41 3.192885 1_554
K2 O6 3.373946 1_555
K3 O8 2.712766 1_555
K3 O43 2.763116 1_555
K3 O4 2.859059 1_555
K3 O3 2.888619 1_455
K3 O32 2.981793 1_555
K3 O15 2.995108 1_555
K3 O11 3.062896 1_555
K3 O40 3.192885 1_555
K3 O7 3.373946 1_555
K4 O30 2.910183 1_555
K4 O26 2.917037 1_455
K4 O38 2.931783 1_555
K4 O12 2.936917 1_546
K4 O24 2.963610 1_545
K4 O16 3.024313 1_545
K4 O40 3.041675 1_545
K4 O22 3.251493 1_556
K4 O32 3.292690 1_545
K4 O14 3.409739 1_555
K5 O31 2.910183 1_555
K5 O27 2.917037 1_655
K5 O39 2.931783 1_555
K5 O13 2.936917 1_555
K5 O25 2.963610 1_556
K5 O17 3.024313 1_555
K5 O41 3.041675 1_555
K5 O23 3.251493 1_555
K5 O33 3.292690 1_556
K5 O15 3.409739 1_555
K6 O28 2.910183 1_555
K6 O24 2.917037 1_655
K6 O36 2.931783 1_555
K6 O14 2.936917 1_564
K6 O26 2.963610 1_565
K6 O18 3.024313 1_565
K6 O42 3.041675 1_565
K6 O20 3.251493 1_554
K6 O34 3.292690 1_565
K6 O12 3.409739 1_555
K7 O29 2.910183 1_555
K7 O25 2.917037 1_455
K7 O37 2.931783 1_555
K7 O15 2.936917 1_555
K7 O27 2.963610 1_554
K7 O19 3.024313 1_555
K7 O43 3.041675 1_555
K7 O21 3.251493 1_555
K7 O35 3.292690 1_554
K7 O13 3.409739 1_555
Co0 O0 1.932099 1_555
Co0 O31 1.949887 1_555
Co0 O39 1.952656 1_555
Co0 O4 1.982110 1_555
Co1 O1 1.932099 1_555
Co1 O30 1.949887 1_555
Co1 O38 1.952656 1_555
Co1 O5 1.982110 1_555
Co2 O2 1.932099 1_555
Co2 O29 1.949887 1_555
Co2 O37 1.952656 1_555
Co2 O6 1.982110 1_555
Co3 O3 1.932099 1_555
Co3 O28 1.949887 1_555
Co3 O36 1.952656 1_555
Co3 O7 1.982110 1_555
O0 P0 1.542677 1_556
O1 P1 1.542677 1_555
O2 P2 1.542677 1_554
O3 P3 1.542677 1_555
O4 P4 1.561229 1_555
O5 P5 1.561229 1_555
O6 P6 1.561229 1_555
O7 P7 1.561229 1_555
O8 P0 1.555003 1_455
O8 U0 2.381588 1_555
O9 P1 1.555003 1_655
O9 U1 2.381588 1_555
O10 P2 1.555003 1_655
O10 U2 2.381588 1_555
O11 P3 1.555003 1_455
O11 U3 2.381588 1_555
O12 U0 1.844308 1_555
O13 U1 1.844308 1_555
O14 U2 1.844308 1_555
O15 U3 1.844308 1_555
O16 P4 1.558809 1_555
O16 U2 2.282829 1_565
O17 P5 1.558809 1_555
O17 U3 2.282829 1_555
O18 P6 1.558809 1_555
O18 U0 2.282829 1_545
O19 P7 1.558809 1_555
O19 U1 2.282829 1_555
O20 P0 1.568473 1_556
O20 U2 2.391881 1_565
O20 U0 2.575574 1_656
O21 P1 1.568473 1_555
O21 U3 2.391881 1_555
O21 U1 2.575574 1_455
O22 P2 1.568473 1_554
O22 U0 2.391881 1_545
O22 U2 2.575574 1_454
O23 P3 1.568473 1_555
O23 U1 2.391881 1_555
O23 U3 2.575574 1_655
O24 U0 1.824032 1_555
O25 U1 1.824032 1_555
O26 U2 1.824032 1_555
O27 U3 1.824032 1_555
O28 P0 1.540689 1_555
O29 P1 1.540689 1_555
O30 P2 1.540689 1_555
O31 P3 1.540689 1_555
O32 P4 1.555730 1_555
O32 U0 2.321248 1_555
O33 P5 1.555730 1_554
O33 U1 2.321248 1_555
O34 P6 1.555730 1_555
O34 U2 2.321248 1_555
O35 P7 1.555730 1_556
O35 U3 2.321248 1_555
O36 P4 1.547466 1_555
O37 P5 1.547466 1_554
O38 P6 1.547466 1_555
O39 P7 1.547466 1_556
