# generated using pymatgen
data_Sr2SnS5
_symmetry_space_group_name_H-M   'P 1'
_cell_length_a   4.10389085
_cell_length_b   11.77873020
_cell_length_c   15.81194080
_cell_angle_alpha   90.00000000
_cell_angle_beta   90.00000000
_cell_angle_gamma   90.00000000
_symmetry_Int_Tables_number   1
_chemical_formula_structural   Sr2SnS5
_chemical_formula_sum   'Sr8 Sn4 S20'
_cell_volume   764.32744669
_cell_formula_units_Z   4
loop_
 _symmetry_equiv_pos_site_id
 _symmetry_equiv_pos_as_xyz
  1  'x, y, z'
loop_
 _atom_site_type_symbol
 _atom_site_label
 _atom_site_symmetry_multiplicity
 _atom_site_fract_x
 _atom_site_fract_y
 _atom_site_fract_z
 _atom_site_occupancy
  Sr  Sr0  1  0.97470542  0.74778370  0.42869186  1
  Sr  Sr1  1  0.97470542  0.25221630  0.57130814  1
  Sr  Sr2  1  0.02529458  0.24778370  0.07130814  1
  Sr  Sr3  1  0.02529458  0.75221630  0.92869186  1
  Sr  Sr4  1  0.01041750  0.87708451  0.17836177  1
  Sr  Sr5  1  0.01041750  0.12291549  0.82163823  1
  Sr  Sr6  1  0.98958250  0.37708451  0.32163823  1
  Sr  Sr7  1  0.98958250  0.62291549  0.67836177  1
  Sn  Sn0  1  0.55127831  0.06325121  0.36910777  1
  Sn  Sn1  1  0.55127831  0.93674879  0.63089223  1
  Sn  Sn2  1  0.44872169  0.56325121  0.13089223  1
  Sn  Sn3  1  0.44872169  0.43674879  0.86910777  1
  S  S0  1  0.48682528  0.55079562  0.39682939  1
  S  S1  1  0.48682528  0.44920438  0.60317061  1
  S  S2  1  0.51317472  0.05079562  0.10317061  1
  S  S3  1  0.51317472  0.94920438  0.89682939  1
  S  S4  1  0.10571010  0.50000000  0.00000000  1
  S  S5  1  0.89428990  0.00000000  0.50000000  1
  S  S6  1  0.48259603  0.86587543  0.32180325  1
  S  S7  1  0.48259603  0.13412457  0.67819675  1
  S  S8  1  0.51740397  0.36587543  0.17819675  1
  S  S9  1  0.51740397  0.63412457  0.82180325  1
  S  S10  1  -0.00424085  0.61358919  0.22668406  1
  S  S11  1  -0.00424085  0.38641081  0.77331594  1
  S  S12  1  0.00424085  0.11358919  0.27331594  1
  S  S13  1  0.00424085  0.88641081  0.72668406  1
  S  S14  1  0.46816995  0.25004909  0.43132553  1
  S  S15  1  0.46816995  0.74995091  0.56867447  1
  S  S16  1  0.53183005  0.75004909  0.06867447  1
  S  S17  1  0.53183005  0.24995091  0.93132553  1
  S  S18  1  0.76294056  0.50000000  0.50000000  1
  S  S19  1  0.23705944  0.00000000  0.00000000  1
loop_
_geom_bond_atom_site_label_1
_geom_bond_atom_site_label_2
_geom_bond_distance
_geom_bond_site_symmetry_2
S0 S18 2.074421 1_555
S0 Sr0 3.105850 1_555
S0 Sr6 3.124773 1_455
S0 Sr6 3.139599 1_555
S0 Sr0 3.170891 1_455
S1 S18 2.074421 1_555
S1 Sr1 3.105850 1_555
S1 Sr7 3.124773 1_455
S1 Sr7 3.139599 1_555
S1 Sr1 3.170891 1_455
S2 Sr2 3.105850 1_555
S2 Sr4 3.124773 1_645
S2 Sr4 3.139599 1_545
S2 Sr2 3.170891 1_655
S3 Sr3 3.105850 1_555
S3 Sr5 3.124773 1_665
S3 Sr5 3.139599 1_565
S3 Sr3 3.170891 1_655
S4 Sn2 2.611535 1_555
S4 Sn3 2.611535 1_554
S4 Sr3 3.194651 1_554
S4 Sr2 3.194651 1_555
S5 Sn0 2.611535 1_555
S5 Sn1 2.611535 1_545
S5 Sr0 3.194651 1_545
S5 Sr1 3.194651 1_555
S6 Sn0 2.458410 1_565
S6 Sr0 2.978242 1_555
S6 Sr4 2.986068 1_555
S6 Sr0 3.022534 1_455
S6 Sr4 3.139067 1_655
S7 Sn1 2.458410 1_545
S7 Sr1 2.978242 1_555
S7 Sr5 2.986068 1_555
S7 Sr1 3.022534 1_455
S7 Sr5 3.139067 1_655
S8 Sn2 2.458410 1_555
S8 Sr2 2.978242 1_555
S8 Sr6 2.986068 1_555
S8 Sr2 3.022534 1_655
S8 Sr6 3.139067 1_455
S9 Sn3 2.458410 1_555
S9 Sr3 2.978242 1_555
S9 Sr7 2.986068 1_555
S9 Sr3 3.022534 1_655
S9 Sr7 3.139067 1_455
S10 Sn2 2.470075 1_555
S10 Sn2 2.772305 1_455
S10 Sr6 3.164670 1_455
S10 Sr4 3.196874 1_555
S10 Sr0 3.564883 1_455
S11 Sn3 2.470075 1_555
S11 Sn3 2.772305 1_455
S11 Sr7 3.164670 1_455
S11 Sr5 3.196874 1_555
S11 Sr1 3.564883 1_455
S12 Sn0 2.470075 1_455
S12 Sn0 2.772305 1_555
S12 Sr4 3.164670 1_545
S12 Sr6 3.196874 1_455
S12 Sr2 3.564883 1_555
S13 Sn1 2.470075 1_455
S13 Sn1 2.772305 1_555
S13 Sr5 3.164670 1_565
S13 Sr7 3.196874 1_455
S13 Sr3 3.564883 1_555
S14 Sn0 2.434178 1_555
S14 Sr1 3.000151 1_455
S14 Sr6 3.017378 1_455
S14 Sr1 3.036618 1_555
S14 Sr6 3.134618 1_555
S15 Sn1 2.434178 1_555
S15 Sr0 3.000151 1_455
S15 Sr7 3.017378 1_455
S15 Sr0 3.036618 1_555
S15 Sr7 3.134618 1_555
S16 Sn2 2.434178 1_555
S16 Sr3 3.000151 1_654
S16 Sr4 3.017378 1_655
S16 Sr3 3.036618 1_554
S16 Sr4 3.134618 1_555
S17 Sn3 2.434178 1_555
S17 Sr2 3.000151 1_656
S17 Sr5 3.017378 1_655
S17 Sr2 3.036618 1_556
S17 Sr5 3.134618 1_555
S18 Sr1 3.247254 1_555
S18 Sr0 3.247254 1_555
S18 Sr6 3.303784 1_555
S18 Sr7 3.303784 1_555
S19 S2 2.074421 1_555
S19 S3 2.074421 1_544
S19 Sr3 3.247254 1_544
S19 Sr2 3.247254 1_555
S19 Sr5 3.303784 1_554
S19 Sr4 3.303784 1_545
