# generated using pymatgen
data_CsCu2AsS3
_symmetry_space_group_name_H-M   'P 1'
_cell_length_a   9.54435600
_cell_length_b   10.42611600
_cell_length_c   13.76025500
_cell_angle_alpha   90.00000000
_cell_angle_beta   90.00000000
_cell_angle_gamma   90.00000000
_symmetry_Int_Tables_number   1
_chemical_formula_structural   CsCu2AsS3
_chemical_formula_sum   'Cs8 Cu16 As8 S24'
_cell_volume   1369.29071934
_cell_formula_units_Z   8
loop_
 _symmetry_equiv_pos_site_id
 _symmetry_equiv_pos_as_xyz
  1  'x, y, z'
loop_
 _atom_site_type_symbol
 _atom_site_label
 _atom_site_symmetry_multiplicity
 _atom_site_fract_x
 _atom_site_fract_y
 _atom_site_fract_z
 _atom_site_occupancy
  Cs  Cs0  1  0.81808900  0.10425700  0.44095800  1
  Cs  Cs1  1  0.31808900  0.39574300  0.55904200  1
  Cs  Cs2  1  0.18191100  0.60425700  0.05904200  1
  Cs  Cs3  1  0.68191100  0.89574300  0.94095800  1
  Cs  Cs4  1  0.18191100  0.89574300  0.55904200  1
  Cs  Cs5  1  0.68191100  0.60425700  0.44095800  1
  Cs  Cs6  1  0.81808900  0.39574300  0.94095800  1
  Cs  Cs7  1  0.31808900  0.10425700  0.05904200  1
  Cu  Cu0  1  0.57499000  0.60471100  0.13692500  1
  Cu  Cu1  1  0.07499000  0.89528900  0.86307500  1
  Cu  Cu2  1  0.42501000  0.10471100  0.36307500  1
  Cu  Cu3  1  0.92501000  0.39528900  0.63692500  1
  Cu  Cu4  1  0.42501000  0.39528900  0.86307500  1
  Cu  Cu5  1  0.92501000  0.10471100  0.13692500  1
  Cu  Cu6  1  0.57499000  0.89528900  0.63692500  1
  Cu  Cu7  1  0.07499000  0.60471100  0.36307500  1
  Cu  Cu8  1  0.38441600  0.44116900  0.27156900  1
  Cu  Cu9  1  0.88441600  0.05883100  0.72843100  1
  Cu  Cu10  1  0.61558400  0.94116900  0.22843100  1
  Cu  Cu11  1  0.11558400  0.55883100  0.77156900  1
  Cu  Cu12  1  0.61558400  0.55883100  0.72843100  1
  Cu  Cu13  1  0.11558400  0.94116900  0.27156900  1
  Cu  Cu14  1  0.38441600  0.05883100  0.77156900  1
  Cu  Cu15  1  0.88441600  0.44116900  0.22843100  1
  As  As0  1  0.66253200  0.31598500  0.21472500  1
  As  As1  1  0.16253200  0.18401500  0.78527500  1
  As  As2  1  0.33746800  0.81598500  0.28527500  1
  As  As3  1  0.83746800  0.68401500  0.71472500  1
  As  As4  1  0.33746800  0.68401500  0.78527500  1
  As  As5  1  0.83746800  0.81598500  0.21472500  1
  As  As6  1  0.66253200  0.18401500  0.71472500  1
  As  As7  1  0.16253200  0.31598500  0.28527500  1
  S  S0  1  0.31096700  0.61576600  0.35189400  1
  S  S1  1  0.81096700  0.88423400  0.64810600  1
  S  S2  1  0.68903300  0.11576600  0.14810600  1
  S  S3  1  0.18903300  0.38423400  0.85189400  1
  S  S4  1  0.68903300  0.38423400  0.64810600  1
  S  S5  1  0.18903300  0.11576600  0.35189400  1
  S  S6  1  0.31096700  0.88423400  0.85189400  1
  S  S7  1  0.81096700  0.61576600  0.14810600  1
  S  S8  1  0.53760900  0.29355900  0.35529900  1
  S  S9  1  0.03760900  0.20644100  0.64470100  1
  S  S10  1  0.46239100  0.79355900  0.14470100  1
  S  S11  1  0.96239100  0.70644100  0.85529900  1
  S  S12  1  0.46239100  0.70644100  0.64470100  1
  S  S13  1  0.96239100  0.79355900  0.35529900  1
  S  S14  1  0.53760900  0.20644100  0.85529900  1
  S  S15  1  0.03760900  0.29355900  0.14470100  1
  S  S16  1  0.48820600  0.40825500  0.12109900  1
  S  S17  1  0.98820600  0.09174500  0.87890100  1
  S  S18  1  0.51179400  0.90825500  0.37890100  1
  S  S19  1  0.01179400  0.59174500  0.62109900  1
  S  S20  1  0.51179400  0.59174500  0.87890100  1
  S  S21  1  0.01179400  0.90825500  0.12109900  1
  S  S22  1  0.48820600  0.09174500  0.62109900  1
  S  S23  1  0.98820600  0.40825500  0.37890100  1
loop_
_geom_bond_atom_site_label_1
_geom_bond_atom_site_label_2
_geom_bond_distance
_geom_bond_site_symmetry_2
Cs0 S8 3.528608 1_555
Cs0 S9 3.658515 1_655
Cs0 S1 3.659484 1_545
Cs0 S23 3.662143 1_555
Cs0 S18 3.667620 1_545
Cs0 S13 3.712105 1_545
Cs0 S5 3.748458 1_655
Cs1 S9 3.528608 1_555
Cs1 S8 3.658515 1_555
Cs1 S0 3.659484 1_555
Cs1 S22 3.662143 1_555
Cs1 S19 3.667620 1_555
Cs1 S12 3.712105 1_555
Cs1 S4 3.748458 1_555
Cs2 S10 3.528608 1_555
Cs2 S11 3.658515 1_454
Cs2 S3 3.659484 1_554
Cs2 S21 3.662143 1_555
Cs2 S16 3.667620 1_555
Cs2 S15 3.712105 1_555
Cs2 S7 3.748458 1_455
Cs3 S11 3.528608 1_555
Cs3 S10 3.658515 1_556
Cs3 S2 3.659484 1_566
Cs3 S20 3.662143 1_555
Cs3 S17 3.667620 1_565
Cs3 S14 3.712105 1_565
Cs3 S6 3.748458 1_555
Cs4 S12 3.528608 1_555
Cs4 S13 3.658515 1_455
Cs4 S5 3.659484 1_565
Cs4 S19 3.662143 1_555
Cs4 S22 3.667620 1_565
Cs4 S9 3.712105 1_565
Cs4 S1 3.748458 1_455
Cs5 S13 3.528608 1_555
Cs5 S12 3.658515 1_555
Cs5 S4 3.659484 1_555
Cs5 S18 3.662143 1_555
Cs5 S23 3.667620 1_555
Cs5 S8 3.712105 1_555
Cs5 S0 3.748458 1_555
Cs6 S14 3.528608 1_555
Cs6 S15 3.658515 1_656
Cs6 S7 3.659484 1_556
Cs6 S17 3.662143 1_555
Cs6 S20 3.667620 1_555
Cs6 S11 3.712105 1_555
Cs6 S3 3.748458 1_655
Cs7 S15 3.528608 1_555
Cs7 S14 3.658515 1_554
Cs7 S6 3.659484 1_544
Cs7 S16 3.662143 1_555
Cs7 S21 3.667620 1_545
Cs7 S10 3.712105 1_545
Cs7 S2 3.748458 1_555
Cu0 S16 2.220118 1_555
Cu0 S10 2.245699 1_555
Cu0 S7 2.260438 1_555
Cu1 S17 2.220118 1_465
Cu1 S11 2.245699 1_455
Cu1 S6 2.260438 1_555
Cu2 S18 2.220118 1_545
Cu2 S8 2.245699 1_555
Cu2 S5 2.260438 1_555
Cu3 S19 2.220118 1_655
Cu3 S9 2.245699 1_655
Cu3 S4 2.260438 1_555
Cu4 S20 2.220118 1_555
Cu4 S14 2.245699 1_555
Cu4 S3 2.260438 1_555
Cu5 S21 2.220118 1_645
Cu5 S15 2.245699 1_655
Cu5 S2 2.260438 1_555
Cu6 S22 2.220118 1_565
Cu6 S12 2.245699 1_555
Cu6 S1 2.260438 1_555
Cu7 S23 2.220118 1_455
Cu7 S13 2.245699 1_455
Cu7 S0 2.260438 1_555
Cu8 S0 2.242063 1_555
Cu8 S16 2.320789 1_555
Cu8 S8 2.415322 1_555
Cu9 S1 2.242063 1_545
Cu9 S17 2.320789 1_555
Cu9 S9 2.415322 1_655
Cu10 S2 2.242063 1_565
Cu10 S18 2.320789 1_555
Cu10 S10 2.415322 1_555
Cu11 S3 2.242063 1_555
Cu11 S19 2.320789 1_555
Cu11 S11 2.415322 1_455
Cu12 S4 2.242063 1_555
Cu12 S20 2.320789 1_555
Cu12 S12 2.415322 1_555
Cu13 S5 2.242063 1_565
Cu13 S21 2.320789 1_555
Cu13 S13 2.415322 1_455
Cu14 S6 2.242063 1_545
Cu14 S22 2.320789 1_555
Cu14 S14 2.415322 1_555
Cu15 S7 2.242063 1_555
Cu15 S23 2.320789 1_555
Cu15 S15 2.415322 1_655
As0 S8 2.284277 1_555
As0 S2 2.293902 1_555
As0 S16 2.313778 1_555
As0 Cu15 2.494773 1_555
As1 S9 2.284277 1_555
As1 S3 2.293902 1_555
As1 S17 2.313778 1_455
As1 Cu14 2.494773 1_555
As2 S10 2.284277 1_555
As2 S0 2.293902 1_555
As2 S18 2.313778 1_555
As2 Cu13 2.494773 1_555
As3 S11 2.284277 1_555
As3 S1 2.293902 1_555
As3 S19 2.313778 1_655
As3 Cu12 2.494773 1_555
As4 S12 2.284277 1_555
As4 S6 2.293902 1_555
As4 S20 2.313778 1_555
As4 Cu11 2.494773 1_555
As5 S13 2.284277 1_555
As5 S7 2.293902 1_555
As5 S21 2.313778 1_655
As5 Cu10 2.494773 1_555
As6 S14 2.284277 1_555
As6 S4 2.293902 1_555
As6 S22 2.313778 1_555
As6 Cu9 2.494773 1_555
As7 S15 2.284277 1_555
As7 S5 2.293902 1_555
As7 S23 2.313778 1_455
As7 Cu8 2.494773 1_555
