# generated using pymatgen
data_Ni2O3
_symmetry_space_group_name_H-M   'P 1'
_cell_length_a   2.90275800
_cell_length_b   5.06564984
_cell_length_c   14.57660900
_cell_angle_alpha   90.00000000
_cell_angle_beta   90.00000000
_cell_angle_gamma   106.64936184
_symmetry_Int_Tables_number   1
_chemical_formula_structural   Ni2O3
_chemical_formula_sum   'Ni8 O12'
_cell_volume   205.35368662
_cell_formula_units_Z   4
loop_
 _symmetry_equiv_pos_site_id
 _symmetry_equiv_pos_as_xyz
  1  'x, y, z'
loop_
 _atom_site_type_symbol
 _atom_site_label
 _atom_site_symmetry_multiplicity
 _atom_site_fract_x
 _atom_site_fract_y
 _atom_site_fract_z
 _atom_site_occupancy
  Ni  Ni0  1  0.86335500  0.72671200  0.04674700  1
  Ni  Ni1  1  0.13664300  0.27328700  0.95325300  1
  Ni  Ni2  1  0.86335500  0.72671200  0.45325300  1
  Ni  Ni3  1  0.13664300  0.27328700  0.54674700  1
  Ni  Ni4  1  0.40602200  0.81204300  0.63537400  1
  Ni  Ni5  1  0.59397800  0.18795700  0.36462700  1
  Ni  Ni6  1  0.59397800  0.18795700  0.13537300  1
  Ni  Ni7  1  0.40602200  0.81204300  0.86462600  1
  O  O0  1  0.49999900  0.00000000  0.50000000  1
  O  O1  1  0.49999900  0.00000000  0.00000000  1
  O  O2  1  0.03174600  0.06349300  0.84338400  1
  O  O3  1  0.96825400  0.93650700  0.15661700  1
  O  O4  1  0.96825400  0.93650700  0.34338300  1
  O  O5  1  0.03174600  0.06349300  0.65661700  1
  O  O6  1  0.78026900  0.56054000  0.92261800  1
  O  O7  1  0.21973000  0.43946100  0.07738200  1
  O  O8  1  0.21973000  0.43946100  0.42261800  1
  O  O9  1  0.78026900  0.56054000  0.57738200  1
  O  O10  1  0.32528800  0.65057600  0.75000000  1
  O  O11  1  0.67471000  0.34942300  0.25000000  1
loop_
_geom_bond_atom_site_label_1
_geom_bond_atom_site_label_2
_geom_bond_distance
_geom_bond_site_symmetry_2
Ni0 O3 1.897794 1_555
Ni0 O6 1.980975 1_554
Ni0 O7 2.061419 1_555
Ni0 O7 2.061421 1_655
Ni0 O1 2.080867 1_665
Ni0 O1 2.080867 1_565
Ni1 O2 1.897779 1_555
Ni1 O7 1.980979 1_556
Ni1 O6 2.061425 1_555
Ni1 O6 2.061427 1_455
Ni1 O1 2.080863 1_556
Ni1 O1 2.080865 1_456
Ni2 O4 1.897794 1_555
Ni2 O9 1.980975 1_555
Ni2 O8 2.061419 1_555
Ni2 O8 2.061421 1_655
Ni2 O0 2.080867 1_665
Ni2 O0 2.080867 1_565
Ni3 O5 1.897792 1_555
Ni3 O8 1.980979 1_555
Ni3 O9 2.061425 1_555
Ni3 O9 2.061427 1_455
Ni3 O0 2.080863 1_555
Ni3 O0 2.080865 1_455
Ni4 O10 1.845499 1_555
Ni4 O5 1.921366 1_665
Ni4 O5 1.921370 1_565
Ni4 O9 2.076286 1_555
Ni4 O9 2.076292 1_455
Ni4 O0 2.173939 1_565
Ni5 O11 1.845510 1_555
Ni5 O4 1.921368 1_445
Ni5 O4 1.921373 1_545
Ni5 O8 2.076286 1_655
Ni5 O8 2.076286 1_555
Ni5 O0 2.173926 1_555
Ni6 O11 1.845510 1_555
Ni6 O3 1.921368 1_445
Ni6 O3 1.921373 1_545
Ni6 O7 2.076286 1_655
Ni6 O7 2.076286 1_555
Ni6 O1 2.173926 1_555
Ni7 O10 1.845499 1_555
Ni7 O2 1.921364 1_665
Ni7 O2 1.921368 1_565
Ni7 O6 2.076286 1_555
Ni7 O6 2.076292 1_455
Ni7 O1 2.173939 1_566
