# generated using pymatgen
data_Li4TiCo3O8
_symmetry_space_group_name_H-M   'P 1'
_cell_length_a   5.91271053
_cell_length_b   5.94063703
_cell_length_c   10.35639412
_cell_angle_alpha   107.17532659
_cell_angle_beta   72.55806018
_cell_angle_gamma   120.77913289
_symmetry_Int_Tables_number   1
_chemical_formula_structural   Li4TiCo3O8
_chemical_formula_sum   'Li8 Ti2 Co6 O16'
_cell_volume   293.65977490
_cell_formula_units_Z   2
loop_
 _symmetry_equiv_pos_site_id
 _symmetry_equiv_pos_as_xyz
  1  'x, y, z'
loop_
 _atom_site_type_symbol
 _atom_site_label
 _atom_site_symmetry_multiplicity
 _atom_site_fract_x
 _atom_site_fract_y
 _atom_site_fract_z
 _atom_site_occupancy
  Li  Li0  1  0.25327200  0.74933500  0.24915100  1
  Li  Li1  1  0.74673000  0.25066500  0.75084900  1
  Li  Li2  1  0.75078600  0.24841700  0.24834300  1
  Li  Li3  1  0.24921300  0.75158200  0.75165700  1
  Li  Li4  1  0.74779000  0.74860600  0.75077100  1
  Li  Li5  1  0.25221000  0.25139400  0.24922900  1
  Li  Li6  1  0.25284300  0.24938700  0.74805800  1
  Li  Li7  1  0.74715800  0.75061400  0.25194200  1
  Ti  Ti0  1  0.50000000  0.49999900  0.50000000  1
  Ti  Ti1  1  0.99999900  0.00000100  0.00000200  1
  Co  Co0  1  0.00000000  0.00000000  0.49999900  1
  Co  Co1  1  0.00000000  0.50000000  0.00000000  1
  Co  Co2  1  0.50000000  0.00000000  0.99999900  1
  Co  Co3  1  0.50000000  0.49999900  0.00000000  1
  Co  Co4  1  0.50000000  0.00000000  0.49999900  1
  Co  Co5  1  0.00000000  0.49999900  0.49999900  1
  O  O0  1  0.36668100  0.64230600  0.89415000  1
  O  O1  1  0.86378700  0.13586300  0.39206200  1
  O  O2  1  0.13621200  0.86413600  0.60793800  1
  O  O3  1  0.63331900  0.35769500  0.10585000  1
  O  O4  1  0.86005800  0.11490900  0.88721200  1
  O  O5  1  0.38062000  0.62051700  0.38296800  1
  O  O6  1  0.61938000  0.37948400  0.61703300  1
  O  O7  1  0.13994300  0.88509200  0.11278800  1
  O  O8  1  0.86125200  0.62028900  0.38295400  1
  O  O9  1  0.35422500  0.12569600  0.88092000  1
  O  O10  1  0.38027500  0.14062500  0.38410600  1
  O  O11  1  0.88578300  0.64282500  0.88344800  1
  O  O12  1  0.64577500  0.87430400  0.11908000  1
  O  O13  1  0.13874800  0.37971100  0.61704500  1
  O  O14  1  0.11421700  0.35717400  0.11655100  1
  O  O15  1  0.61972800  0.85937500  0.61589400  1
loop_
_geom_bond_atom_site_label_1
_geom_bond_atom_site_label_2
_geom_bond_distance
_geom_bond_site_symmetry_2
Li0 O12 2.169064 1_555
Li0 O8 2.182624 1_455
Li0 O14 2.194604 1_555
Li0 O10 2.201045 1_565
Li0 O7 2.210621 1_555
Li0 O5 2.216948 1_555
Li1 O9 2.169073 1_555
Li1 O13 2.182620 1_655
Li1 O11 2.194595 1_555
Li1 O15 2.201045 1_545
Li1 O4 2.210612 1_555
Li1 O6 2.216952 1_555
Li2 O14 2.059029 1_655
Li2 O10 2.106107 1_555
Li2 O12 2.108516 1_545
Li2 O8 2.121476 1_555
Li2 O3 2.173306 1_555
Li2 O1 2.179455 1_555
Li3 O11 2.059020 1_455
Li3 O15 2.106123 1_555
Li3 O9 2.108520 1_565
Li3 O13 2.121477 1_555
Li3 O0 2.173302 1_555
Li3 O2 2.179455 1_555
Li4 O6 2.106180 1_555
Li4 O4 2.107256 1_565
Li4 O15 2.155083 1_555
Li4 O11 2.157644 1_555
Li4 O0 2.184714 1_555
Li4 O2 2.209859 1_655
Li5 O5 2.106189 1_555
Li5 O7 2.107252 1_545
Li5 O10 2.155095 1_555
Li5 O14 2.157649 1_555
Li5 O3 2.184714 1_555
Li5 O1 2.209863 1_455
Li6 O6 2.068249 1_555
Li6 O9 2.082056 1_555
Li6 O13 2.144556 1_555
Li6 O2 2.200546 1_545
Li6 O4 2.209842 1_455
Li6 O0 2.259955 1_555
Li7 O5 2.068257 1_555
Li7 O12 2.082056 1_555
Li7 O8 2.144547 1_555
Li7 O1 2.200538 1_565
Li7 O7 2.209842 1_655
Li7 O3 2.259955 1_555
Co0 O15 2.060568 1_445
Co0 O10 2.060573 1_555
Co0 O1 2.070624 1_455
Co0 O2 2.070640 1_545
Co0 O8 2.077973 1_445
Co0 O13 2.077977 1_555
Co1 O3 1.965612 1_455
Co1 O0 1.965612 1_554
Co1 O14 2.076759 1_555
Co1 O11 2.076763 1_454
Co1 O4 2.084817 1_454
Co1 O7 2.084821 1_555
Co2 O0 1.940714 1_545
Co2 O3 1.940726 1_556
Co2 O4 1.963538 1_555
Co2 O7 1.963541 1_546
Co2 O9 2.158967 1_555
Co2 O12 2.158983 1_546
Co3 O9 2.065024 1_554
Co3 O12 2.065032 1_555
Co3 O3 2.070052 1_555
Co3 O0 2.070066 1_554
Co3 O14 2.086494 1_555
Co3 O11 2.086498 1_554
Co4 O1 1.960176 1_555
Co4 O2 1.960188 1_545
Co4 O5 2.078455 1_545
Co4 O6 2.078471 1_555
Co4 O10 2.084790 1_555
Co4 O15 2.084820 1_545
Co5 O1 1.976397 1_455
Co5 O2 1.976409 1_555
Co5 O5 2.067507 1_555
Co5 O6 2.067519 1_455
Co5 O13 2.088235 1_555
Co5 O8 2.088235 1_455
O4 Ti1 2.035554 1_556
O5 Ti0 2.005597 1_555
O6 Ti0 2.005593 1_555
O7 Ti1 2.035539 1_465
O8 Ti0 1.984861 1_555
O9 Ti1 1.964680 1_456
O10 Ti0 1.987158 1_555
O11 Ti1 1.981118 1_566
O12 Ti1 1.964655 1_565
O13 Ti0 1.984857 1_555
O14 Ti1 1.981085 1_455
O15 Ti0 1.987166 1_555
