# generated using pymatgen
data_Li6Mn3CoO10
_symmetry_space_group_name_H-M   'P 1'
_cell_length_a   2.99168800
_cell_length_b   7.81242879
_cell_length_c   8.13603551
_cell_angle_alpha   104.54395905
_cell_angle_beta   90.95945623
_cell_angle_gamma   96.67676327
_symmetry_Int_Tables_number   1
_chemical_formula_structural   Li6Mn3CoO10
_chemical_formula_sum   'Li6 Mn3 Co1 O10'
_cell_volume   182.60748170
_cell_formula_units_Z   1
loop_
 _symmetry_equiv_pos_site_id
 _symmetry_equiv_pos_as_xyz
  1  'x, y, z'
loop_
 _atom_site_type_symbol
 _atom_site_label
 _atom_site_symmetry_multiplicity
 _atom_site_fract_x
 _atom_site_fract_y
 _atom_site_fract_z
 _atom_site_occupancy
  Li  Li0  1  0.79386400  0.60073400  0.90912800  1
  Li  Li1  1  0.99328400  0.99263900  0.48551300  1
  Li  Li2  1  0.21614100  0.40897800  0.10930400  1
  Li  Li3  1  0.40461300  0.80095000  0.69642100  1
  Li  Li4  1  0.59027200  0.18850600  0.29835100  1
  Li  Li5  1  0.41362600  0.80907800  0.20736700  1
  Mn  Mn0  1  0.99300400  0.99236300  0.00730000  1
  Mn  Mn1  1  0.20279600  0.40374600  0.59660200  1
  Mn  Mn2  1  0.58937100  0.19694600  0.79825600  1
  Co  Co0  1  0.81168400  0.60939900  0.39047300  1
  O  O0  1  0.43383000  0.82389600  0.95750900  1
  O  O1  1  0.57194700  0.20682800  0.56047700  1
  O  O2  1  0.79037200  0.59344900  0.17239200  1
  O  O3  1  0.96883300  0.00817900  0.76462700  1
  O  O4  1  0.18032800  0.41310300  0.36092200  1
  O  O5  1  0.22848300  0.39764100  0.84115700  1
  O  O6  1  0.42182900  0.78297500  0.44551100  1
  O  O7  1  0.56017800  0.17338100  0.03559200  1
  O  O8  1  0.82636100  0.59451000  0.62966900  1
  O  O9  1  0.00918500  0.00269700  0.23342900  1
loop_
_geom_bond_atom_site_label_1
_geom_bond_atom_site_label_2
_geom_bond_distance
_geom_bond_site_symmetry_2
Li0 O0 2.112079 1_555
Li0 O5 2.139401 1_655
Li0 O5 2.142005 1_555
Li0 O2 2.157088 1_556
Li0 O8 2.265933 1_555
Li0 O0 2.390402 1_655
Li1 O9 2.073218 1_665
Li1 O6 2.160367 1_655
Li1 O1 2.182789 1_565
Li1 O6 2.184982 1_555
Li1 O1 2.224289 1_665
Li1 O3 2.246364 1_565
Li2 O2 2.010012 1_455
Li2 O4 2.044125 1_555
Li2 O2 2.077234 1_555
Li2 O5 2.162228 1_554
Li2 O7 2.171076 1_555
Li2 O7 2.482909 1_455
Li3 O6 2.012700 1_555
Li3 O0 2.085899 1_555
Li3 O8 2.131731 1_555
Li3 O3 2.158743 1_565
Li3 O3 2.166212 1_465
Li3 O8 2.183718 1_455
Li4 O9 2.004237 1_655
Li4 O9 2.098971 1_555
Li4 O1 2.103374 1_555
Li4 O7 2.111051 1_555
Li4 O4 2.216923 1_555
Li4 O4 2.292404 1_655
Li5 O6 1.998574 1_555
Li5 O9 2.017456 1_565
Li5 O0 2.066454 1_554
Li5 O2 2.097778 1_555
Li5 O9 2.169591 1_665
Li5 O2 2.325196 1_455
Mn0 O9 1.820772 1_665
Mn0 O0 1.946619 1_654
Mn0 O0 1.972909 1_554
Mn0 O7 2.000486 1_565
Mn0 O3 2.009617 1_564
Mn0 O7 2.048782 1_665
Mn1 O4 1.937498 1_555
Mn1 O8 1.939276 1_455
Mn1 O1 1.962550 1_555
Mn1 O5 2.002627 1_555
Mn1 O8 2.215606 1_555
Mn1 O1 2.257027 1_455
Mn2 O3 1.932741 1_555
Mn2 O1 1.955465 1_555
Mn2 O5 1.969077 1_555
Mn2 O7 1.987620 1_556
Mn2 O3 2.199959 1_455
Mn2 O5 2.289474 1_655
Co0 O2 1.746741 1_555
Co0 O6 1.865474 1_555
Co0 O4 1.960327 1_655
Co0 O8 1.978588 1_555
Co0 O6 2.112675 1_655
Co0 O4 2.259041 1_555
