# generated using pymatgen
data_InCuSe2
_symmetry_space_group_name_H-M   'P 1'
_cell_length_a   4.14048235
_cell_length_b   4.14906900
_cell_length_c   6.82263679
_cell_angle_alpha   90.00000000
_cell_angle_beta   90.21083646
_cell_angle_gamma   59.93136660
_symmetry_Int_Tables_number   1
_chemical_formula_structural   InCuSe2
_chemical_formula_sum   'In1 Cu1 Se2'
_cell_volume   101.43311935
_cell_formula_units_Z   1
loop_
 _symmetry_equiv_pos_site_id
 _symmetry_equiv_pos_as_xyz
  1  'x, y, z'
loop_
 _atom_site_type_symbol
 _atom_site_label
 _atom_site_symmetry_multiplicity
 _atom_site_fract_x
 _atom_site_fract_y
 _atom_site_fract_z
 _atom_site_occupancy
  In  In0  1  0.33506400  0.33246800  0.63924100  1
  Cu  Cu0  1  0.66576700  0.66711700  0.08017200  1
  Se  Se0  1  0.66603500  0.66698300  0.45576800  1
  Se  Se1  1  0.33313500  0.33343200  0.01441900  1
loop_
_geom_bond_atom_site_label_1
_geom_bond_atom_site_label_2
_geom_bond_distance
_geom_bond_site_symmetry_2
In0 Se1 2.559742 1_556
In0 Se0 2.699730 1_455
In0 Se0 2.699952 1_545
In0 Se0 2.699956 1_555
Cu0 Se1 2.433318 1_565
Cu0 Se1 2.433325 1_555
Cu0 Se1 2.434955 1_655
Cu0 Se0 2.562551 1_555
