# generated using pymatgen
data_Li6Mn5CoO12
_symmetry_space_group_name_H-M   'P 1'
_cell_length_a   5.06238532
_cell_length_b   5.06515068
_cell_length_c   20.28986946
_cell_angle_alpha   82.39220804
_cell_angle_beta   84.16667100
_cell_angle_gamma   65.90800007
_symmetry_Int_Tables_number   1
_chemical_formula_structural   Li6Mn5CoO12
_chemical_formula_sum   'Li12 Mn10 Co2 O24'
_cell_volume   470.11541957
_cell_formula_units_Z   2
loop_
 _symmetry_equiv_pos_site_id
 _symmetry_equiv_pos_as_xyz
  1  'x, y, z'
loop_
 _atom_site_type_symbol
 _atom_site_label
 _atom_site_symmetry_multiplicity
 _atom_site_fract_x
 _atom_site_fract_y
 _atom_site_fract_z
 _atom_site_occupancy
  Li  Li0  1  0.37101600  0.03681400  0.37929000  1
  Li  Li1  1  0.37205300  0.04154100  0.88116600  1
  Li  Li2  1  0.62782200  0.95853500  0.11888000  1
  Li  Li3  1  0.62911600  0.96303900  0.62067000  1
  Li  Li4  1  0.04050000  0.71203900  0.37997000  1
  Li  Li5  1  0.03710500  0.70768200  0.88114700  1
  Li  Li6  1  0.96278300  0.29239100  0.11889500  1
  Li  Li7  1  0.95972700  0.28789400  0.61998900  1
  Li  Li8  1  0.23673000  0.68119200  0.12286300  1
  Li  Li9  1  0.28690400  0.63245200  0.62013300  1
  Li  Li10  1  0.71338300  0.36735200  0.37980900  1
  Li  Li11  1  0.76300500  0.31903200  0.87717700  1
  Mn  Mn0  1  0.50354900  0.99754800  0.24928400  1
  Mn  Mn1  1  0.49625200  0.00258200  0.75071000  1
  Mn  Mn2  1  0.33320200  0.33203300  0.49987300  1
  Mn  Mn3  1  0.33072000  0.33042400  0.00000200  1
  Mn  Mn4  1  0.66918500  0.66949300  0.00009600  1
  Mn  Mn5  1  0.66719500  0.66777600  0.50001400  1
  Mn  Mn6  1  0.17165600  0.66104600  0.25127000  1
  Mn  Mn7  1  0.16329300  0.66930800  0.75063400  1
  Mn  Mn8  1  0.83666400  0.33074200  0.24935000  1
  Mn  Mn9  1  0.82813000  0.33910500  0.74874600  1
  Co  Co0  1  0.00004700  0.99989200  0.00009200  1
  Co  Co1  1  0.00007900  0.00002100  0.49994800  1
  O  O0  1  0.19005800  0.94046800  0.30638200  1
  O  O1  1  0.18187300  0.94596000  0.80776700  1
  O  O2  1  0.81807300  0.05408100  0.19225600  1
  O  O3  1  0.80975900  0.05966700  0.69358300  1
  O  O4  1  0.05145700  0.31369100  0.44372700  1
  O  O5  1  0.04981200  0.31974300  0.94304000  1
  O  O6  1  0.95011700  0.68026700  0.05703100  1
  O  O7  1  0.94874400  0.68621000  0.55620800  1
  O  O8  1  0.14712300  0.39232300  0.19332400  1
  O  O9  1  0.14340700  0.39494900  0.69314800  1
  O  O10  1  0.85639700  0.60521400  0.30682500  1
  O  O11  1  0.85280000  0.60770800  0.80669100  1
  O  O12  1  0.28201100  0.01205900  0.05703500  1
  O  O13  1  0.27737100  0.01313600  0.55623600  1
  O  O14  1  0.72292500  0.98679300  0.44370000  1
  O  O15  1  0.71785100  0.98789900  0.94302800  1
  O  O16  1  0.52475900  0.27120000  0.30612000  1
  O  O17  1  0.52078000  0.27590500  0.80676100  1
  O  O18  1  0.47909500  0.72412700  0.19327100  1
  O  O19  1  0.47509600  0.72899600  0.69385500  1
  O  O20  1  0.38316700  0.65425600  0.44341500  1
  O  O21  1  0.33617300  0.69561600  0.95211000  1
  O  O22  1  0.66384400  0.30424700  0.04799400  1
  O  O23  1  0.61717000  0.34558900  0.55649100  1
loop_
_geom_bond_atom_site_label_1
_geom_bond_atom_site_label_2
_geom_bond_distance
_geom_bond_site_symmetry_2
Li0 O0 2.024166 1_545
Li0 O16 2.066900 1_555
Li0 O4 2.120504 1_555
Li0 O20 2.168583 1_545
Li0 O14 2.227761 1_545
Li1 O1 2.059629 1_545
Li1 O17 2.068640 1_555
Li1 O5 2.097217 1_555
Li1 O15 2.163741 1_545
Li1 O21 2.171159 1_545
Li2 O2 2.059391 1_565
Li2 O18 2.068605 1_555
Li2 O6 2.097174 1_555
Li2 O12 2.163740 1_565
Li2 O22 2.169950 1_565
Li3 O3 2.023998 1_565
Li3 O19 2.066739 1_555
Li3 O7 2.120867 1_555
Li3 O23 2.169368 1_565
Li3 O13 2.227293 1_565
Li4 O0 2.041870 1_555
Li4 O10 2.066265 1_455
Li4 O14 2.102559 1_455
Li4 O20 2.166024 1_555
Li4 O4 2.231527 1_555
Li5 O1 2.057912 1_555
Li5 O11 2.069776 1_455
Li5 O15 2.095143 1_455
Li5 O5 2.168438 1_555
Li5 O21 2.171014 1_555
Li6 O2 2.057627 1_555
Li6 O8 2.069332 1_655
Li6 O12 2.095083 1_655
Li6 O6 2.167964 1_555
Li6 O22 2.169969 1_555
Li7 O3 2.042406 1_555
Li7 O9 2.065772 1_655
Li7 O13 2.103010 1_655
Li7 O23 2.166404 1_555
Li7 O7 2.231583 1_555
Li8 O8 2.060748 1_555
Li8 O18 2.061525 1_555
Li8 O6 2.071371 1_455
Li8 O12 2.074562 1_565
Li9 O9 2.047544 1_555
Li9 O19 2.061047 1_555
Li9 O23 2.156070 1_555
Li9 O7 2.159696 1_455
Li9 O13 2.162408 1_565
Li10 O10 2.047045 1_555
Li10 O16 2.060857 1_555
Li10 O20 2.155605 1_555
Li10 O4 2.159388 1_655
Li10 O14 2.161828 1_545
Li11 O11 2.060768 1_555
Li11 O17 2.061575 1_555
Li11 O5 2.072170 1_655
Li11 O15 2.075601 1_545
Mn0 O18 1.951992 1_555
Mn0 O16 1.957687 1_565
Mn0 O0 1.963804 1_555
Mn0 O2 1.966237 1_565
Mn0 O8 2.326583 1_565
Mn0 O10 2.326894 1_555
Mn1 O17 1.952270 1_555
Mn1 O19 1.957572 1_545
Mn1 O3 1.964167 1_555
Mn1 O1 1.966109 1_545
Mn1 O9 2.327165 1_555
Mn1 O11 2.327309 1_545
Mn2 O4 1.951210 1_555
Mn2 O13 1.953120 1_555
Mn2 O20 1.955270 1_555
Mn2 O23 1.956556 1_555
Mn2 O14 2.345932 1_545
Mn2 O7 2.356486 1_455
Mn3 O12 1.942369 1_555
Mn3 O5 1.942783 1_554
Mn3 O22 1.981612 1_555
Mn3 O21 1.981639 1_554
Mn3 O15 2.341327 1_544
Mn3 O6 2.343853 1_455
Mn4 O6 1.942703 1_555
Mn4 O15 1.942784 1_554
Mn4 O21 1.981142 1_554
Mn4 O22 1.981727 1_555
Mn4 O12 2.341169 1_565
Mn4 O5 2.343960 1_654
Mn5 O7 1.951251 1_555
Mn5 O14 1.952937 1_555
Mn5 O23 1.955425 1_555
Mn5 O20 1.956470 1_555
Mn5 O13 2.346961 1_565
Mn5 O4 2.355307 1_655
Mn6 O0 1.951939 1_555
Mn6 O10 1.953471 1_455
Mn6 O8 1.960053 1_555
Mn6 O18 1.960450 1_555
Mn6 O16 2.296480 1_555
Mn6 O2 2.344403 1_465
Mn7 O11 1.950563 1_455
Mn7 O19 1.959055 1_555
Mn7 O9 1.966985 1_555
Mn7 O1 1.968786 1_555
Mn7 O3 2.319174 1_465
Mn7 O17 2.327370 1_555
Mn8 O8 1.950082 1_655
Mn8 O16 1.959084 1_555
Mn8 O10 1.966983 1_555
Mn8 O2 1.968301 1_555
Mn8 O0 2.318455 1_645
Mn8 O18 2.327082 1_555
Mn9 O3 1.952640 1_555
Mn9 O9 1.953984 1_655
Mn9 O11 1.959836 1_555
Mn9 O17 1.960497 1_555
Mn9 O19 2.296797 1_555
Mn9 O1 2.345112 1_645
Co0 O6 1.949118 1_455
Co0 O12 1.949889 1_565
Co0 O5 1.950776 1_564
Co0 O15 1.952123 1_454
Co0 O22 2.033801 1_465
Co0 O21 2.034224 1_554
Co1 O4 1.921016 1_555
Co1 O7 1.921873 1_445
Co1 O14 1.923028 1_445
Co1 O13 1.923900 1_555
Co1 O23 2.333899 1_455
Co1 O20 2.334702 1_545
