# generated using pymatgen
data_Dy3NiGe2
_symmetry_space_group_name_H-M   'P 1'
_cell_length_a   4.13774003
_cell_length_b   11.28079647
_cell_length_c   11.33287488
_cell_angle_alpha   89.99815671
_cell_angle_beta   89.99998828
_cell_angle_gamma   90.00001857
_symmetry_Int_Tables_number   1
_chemical_formula_structural   Dy3NiGe2
_chemical_formula_sum   'Dy12 Ni4 Ge8'
_cell_volume   528.98463604
_cell_formula_units_Z   4
loop_
 _symmetry_equiv_pos_site_id
 _symmetry_equiv_pos_as_xyz
  1  'x, y, z'
loop_
 _atom_site_type_symbol
 _atom_site_label
 _atom_site_symmetry_multiplicity
 _atom_site_fract_x
 _atom_site_fract_y
 _atom_site_fract_z
 _atom_site_occupancy
  Dy  Dy0  1  0.24999964  0.37243182  0.05888815  1
  Dy  Dy1  1  0.75000021  0.62768797  0.94127196  1
  Dy  Dy2  1  0.75000006  0.87230292  0.44125236  1
  Dy  Dy3  1  0.24999980  0.12761878  0.55875636  1
  Dy  Dy4  1  0.25000073  0.69687801  0.21947258  1
  Dy  Dy5  1  0.75000011  0.30308722  0.78034753  1
  Dy  Dy6  1  0.75000014  0.19730550  0.28007211  1
  Dy  Dy7  1  0.25000079  0.80276014  0.71960589  1
  Dy  Dy8  1  0.24999998  0.44394543  0.38140785  1
  Dy  Dy9  1  0.75000020  0.55585132  0.61872311  1
  Dy  Dy10  1  0.74999970  0.94390821  0.11880802  1
  Dy  Dy11  1  0.24999975  0.05593460  0.88096631  1
  Ni  Ni0  1  0.24999938  0.13286652  0.12850317  1
  Ni  Ni1  1  0.74999971  0.86695768  0.87133541  1
  Ni  Ni2  1  0.74999861  0.63281978  0.37159863  1
  Ni  Ni3  1  0.24999935  0.36710746  0.62904809  1
  Ge  Ge0  1  0.25000088  0.68744202  0.48120924  1
  Ge  Ge1  1  0.75000009  0.31273454  0.51879038  1
  Ge  Ge2  1  0.74999934  0.18735937  0.01845055  1
  Ge  Ge3  1  0.25000010  0.81259547  0.98131349  1
  Ge  Ge4  1  0.24999980  0.00459694  0.30703734  1
  Ge  Ge5  1  0.74999973  0.99552942  0.69319816  1
  Ge  Ge6  1  0.75000001  0.50453993  0.19315863  1
  Ge  Ge7  1  0.24999988  0.49573794  0.80678568  1
loop_
_geom_bond_atom_site_label_1
_geom_bond_atom_site_label_2
_geom_bond_distance
_geom_bond_site_symmetry_2
Dy0 Ni0 2.815266 1_555
Dy0 Ge6 2.969309 1_455
Dy0 Ge6 2.969310 1_555
Dy0 Ge2 2.974737 1_555
Dy0 Ge2 2.974738 1_455
Dy0 Ge7 3.177627 1_554
Dy1 Ni1 2.813090 1_555
Dy1 Ge7 2.969668 1_655
Dy1 Ge7 2.969670 1_555
Dy1 Ge3 2.972742 1_655
Dy1 Ge3 2.972744 1_555
Dy1 Ge6 3.174647 1_556
Dy2 Ni2 2.814548 1_555
Dy2 Ge4 2.969990 1_665
Dy2 Ge4 2.969993 1_565
Dy2 Ge0 2.972204 1_555
Dy2 Ge0 2.972210 1_655
Dy2 Ge5 3.175718 1_555
Dy3 Ni3 2.816645 1_555
Dy3 Ge5 2.970149 1_445
Dy3 Ge5 2.970150 1_545
Dy3 Ge1 2.974241 1_455
Dy3 Ge1 2.974241 1_555
Dy3 Ge4 3.172396 1_555
Dy4 Ni2 2.788291 1_555
Dy4 Ni2 2.788303 1_455
Dy4 Ge0 2.968135 1_555
Dy4 Ge3 2.998091 1_554
Dy4 Ge6 3.012789 1_555
Dy4 Ge6 3.012793 1_455
Dy4 Ge4 3.610405 1_565
Dy5 Ni3 2.782400 1_655
Dy5 Ni3 2.782406 1_555
Dy5 Ge1 2.966188 1_555
Dy5 Ge2 2.997570 1_556
Dy5 Ge7 3.015470 1_655
Dy5 Ge7 3.015473 1_555
Dy5 Ge5 3.607366 1_545
Dy6 Ni0 2.785541 1_655
Dy6 Ni0 2.785546 1_555
Dy6 Ge2 2.967050 1_555
Dy6 Ge1 3.002460 1_555
Dy6 Ge4 3.016527 1_655
Dy6 Ge4 3.016527 1_555
Dy6 Ge6 3.603065 1_555
Dy7 Ni1 2.785954 1_555
Dy7 Ni1 2.785960 1_455
Dy7 Ge3 2.967978 1_555
Dy7 Ge0 2.998634 1_555
Dy7 Ge5 3.016384 1_555
Dy7 Ge5 3.016391 1_455
Dy7 Ge7 3.601588 1_555
Dy8 Ni3 2.937257 1_555
Dy8 Ge0 2.970614 1_555
Dy8 Ni2 2.971905 1_555
Dy8 Ni2 2.971914 1_455
Dy8 Ge1 2.982451 1_455
Dy8 Ge1 2.982452 1_555
Dy8 Ge6 3.049392 1_555
Dy8 Ge6 3.049392 1_455
Dy9 Ni2 2.932109 1_555
Dy9 Ge1 2.967221 1_555
Dy9 Ni3 2.971077 1_655
Dy9 Ni3 2.971081 1_555
Dy9 Ge0 2.985356 1_555
Dy9 Ge0 2.985358 1_655
Dy9 Ge7 3.046700 1_655
Dy9 Ge7 3.046701 1_555
Dy10 Ni1 2.935871 1_554
Dy10 Ge2 2.972478 1_565
Dy10 Ni0 2.972545 1_665
Dy10 Ni0 2.972547 1_565
Dy10 Ge3 2.983733 1_554
Dy10 Ge3 2.983736 1_654
Dy10 Ge4 3.049503 1_565
Dy10 Ge4 3.049504 1_665
Dy11 Ni0 2.936504 1_556
Dy11 Ge3 2.971266 1_545
Dy11 Ni1 2.972669 1_445
Dy11 Ni1 2.972670 1_545
Dy11 Ge2 2.984300 1_556
Dy11 Ge2 2.984302 1_456
Dy11 Ge5 3.045132 1_545
Dy11 Ge5 3.045133 1_445
Ge0 Ni2 2.490579 1_555
Ge0 Ni2 2.490595 1_455
Ge1 Ni3 2.493557 1_655
Ge1 Ni3 2.493562 1_555
Ge2 Ni0 2.492708 1_555
Ge2 Ni0 2.492709 1_655
Ge3 Ni1 2.491921 1_555
Ge3 Ni1 2.491925 1_455
Ge4 Ni0 2.487436 1_555
Ge5 Ni1 2.485765 1_555
Ge6 Ni2 2.486711 1_555
Ge7 Ni3 2.482551 1_555
