# generated using pymatgen
data_KEu(GeO3)2
_symmetry_space_group_name_H-M   'P 1'
_cell_length_a   7.09213521
_cell_length_b   7.09213521
_cell_length_c   19.62014211
_cell_angle_alpha   97.99307042
_cell_angle_beta   97.99307042
_cell_angle_gamma   102.83080214
_symmetry_Int_Tables_number   1
_chemical_formula_structural   KEu(GeO3)2
_chemical_formula_sum   'K6 Eu6 Ge12 O36'
_cell_volume   937.99820339
_cell_formula_units_Z   6
loop_
 _symmetry_equiv_pos_site_id
 _symmetry_equiv_pos_as_xyz
  1  'x, y, z'
loop_
 _atom_site_type_symbol
 _atom_site_label
 _atom_site_symmetry_multiplicity
 _atom_site_fract_x
 _atom_site_fract_y
 _atom_site_fract_z
 _atom_site_occupancy
  K  K0  1  0.71418700  0.92456800  0.42492200  1
  K  K1  1  0.07543200  0.28581300  0.07507800  1
  K  K2  1  0.28581300  0.07543200  0.57507800  1
  K  K3  1  0.92456800  0.71418700  0.92492200  1
  K  K4  1  0.39373000  0.60627000  0.25000000  1
  K  K5  1  0.60627000  0.39373000  0.75000000  1
  Eu  Eu0  1  0.85616200  0.14383800  0.25000000  1
  Eu  Eu1  1  0.14383800  0.85616200  0.75000000  1
  Eu  Eu2  1  0.11625900  0.53067000  0.41864300  1
  Eu  Eu3  1  0.46933000  0.88374100  0.08135700  1
  Eu  Eu4  1  0.88374100  0.46933000  0.58135700  1
  Eu  Eu5  1  0.53067000  0.11625900  0.91864300  1
  Ge  Ge0  1  0.89853000  0.63476000  0.24160900  1
  Ge  Ge1  1  0.36524000  0.10147000  0.25839100  1
  Ge  Ge2  1  0.10147000  0.36524000  0.75839100  1
  Ge  Ge3  1  0.63476000  0.89853000  0.74160900  1
  Ge  Ge4  1  0.56331900  0.38645600  0.40521400  1
  Ge  Ge5  1  0.61354400  0.43668100  0.09478600  1
  Ge  Ge6  1  0.43668100  0.61354400  0.59478600  1
  Ge  Ge7  1  0.38645600  0.56331900  0.90521400  1
  Ge  Ge8  1  0.96282700  0.80267200  0.10816400  1
  Ge  Ge9  1  0.19732800  0.03717300  0.39183600  1
  Ge  Ge10  1  0.03717300  0.19732800  0.89183600  1
  Ge  Ge11  1  0.80267200  0.96282700  0.60816400  1
  O  O0  1  0.79479900  0.81843000  0.27569900  1
  O  O1  1  0.18157000  0.20520100  0.22430100  1
  O  O2  1  0.20520100  0.18157000  0.72430100  1
  O  O3  1  0.81843000  0.79479900  0.77569900  1
  O  O4  1  0.99828900  0.50163500  0.29948100  1
  O  O5  1  0.49836500  0.00171100  0.20051900  1
  O  O6  1  0.00171100  0.49836500  0.70051900  1
  O  O7  1  0.50163500  0.99828900  0.79948100  1
  O  O8  1  0.06688200  0.72128200  0.18465200  1
  O  O9  1  0.27871800  0.93311800  0.31534800  1
  O  O10  1  0.93311800  0.27871800  0.81534800  1
  O  O11  1  0.72128200  0.06688200  0.68465200  1
  O  O12  1  0.72978500  0.42048300  0.18198800  1
  O  O13  1  0.57951700  0.27021500  0.31801200  1
  O  O14  1  0.27021500  0.57951700  0.81801200  1
  O  O15  1  0.42048300  0.72978500  0.68198800  1
  O  O16  1  0.43509200  0.56724100  0.39610700  1
  O  O17  1  0.43275900  0.56490800  0.10389300  1
  O  O18  1  0.56490800  0.43275900  0.60389300  1
  O  O19  1  0.56724100  0.43509200  0.89610700  1
  O  O20  1  0.79977600  0.46321800  0.45613000  1
  O  O21  1  0.53678200  0.20022400  0.04387000  1
  O  O22  1  0.20022400  0.53678200  0.54387000  1
  O  O23  1  0.46321800  0.79977600  0.95613000  1
  O  O24  1  0.42338200  0.19540500  0.44362500  1
  O  O25  1  0.80459500  0.57661800  0.05637500  1
  O  O26  1  0.57661800  0.80459500  0.55637500  1
  O  O27  1  0.19540500  0.42338200  0.94362500  1
  O  O28  1  0.14299900  0.88926300  0.06110200  1
  O  O29  1  0.11073700  0.85700100  0.43889800  1
  O  O30  1  0.85700100  0.11073700  0.93889800  1
  O  O31  1  0.88926300  0.14299900  0.56110200  1
  O  O32  1  0.81497800  0.96566600  0.12825600  1
  O  O33  1  0.03433400  0.18502200  0.37174400  1
  O  O34  1  0.18502200  0.03433400  0.87174400  1
  O  O35  1  0.96566600  0.81497800  0.62825600  1
loop_
_geom_bond_atom_site_label_1
_geom_bond_atom_site_label_2
_geom_bond_distance
_geom_bond_site_symmetry_2
K0 O16 2.778889 1_555
K0 O31 2.855240 1_565
K0 O29 2.938532 1_655
K0 O33 2.997997 1_665
K0 O26 3.044533 1_555
K0 O0 3.083681 1_555
K0 O24 3.138748 1_565
K1 O17 2.778889 1_555
K1 O30 2.855240 1_454
K1 O28 2.938532 1_545
K1 O32 2.997997 1_445
K1 O27 3.044533 1_554
K1 O1 3.083681 1_555
K1 O25 3.138748 1_455
K2 O18 2.778889 1_555
K2 O29 2.855240 1_545
K2 O31 2.938532 1_455
K2 O35 2.997997 1_445
K2 O24 3.044533 1_555
K2 O2 3.083681 1_555
K2 O26 3.138748 1_545
K3 O19 2.778889 1_555
K3 O28 2.855240 1_656
K3 O30 2.938532 1_565
K3 O34 2.997997 1_665
K3 O25 3.044533 1_556
K3 O3 3.083681 1_555
K3 O27 3.138748 1_655
K4 O8 2.826066 1_555
K4 O9 2.826066 1_555
K4 O1 2.845752 1_555
K4 O0 2.845752 1_555
K4 O16 2.898822 1_555
K4 O17 2.898822 1_555
K4 O4 3.064594 1_455
K4 O5 3.064594 1_565
K4 O12 3.314724 1_555
K4 O13 3.314724 1_555
K5 O10 2.826066 1_555
K5 O11 2.826066 1_555
K5 O2 2.845752 1_555
K5 O3 2.845752 1_555
K5 O19 2.898822 1_555
K5 O18 2.898822 1_555
K5 O7 3.064594 1_545
K5 O6 3.064594 1_655
K5 O14 3.314724 1_555
K5 O15 3.314724 1_555
Eu0 O1 2.389207 1_655
Eu0 O0 2.389207 1_545
Eu0 O32 2.488022 1_545
Eu0 O33 2.488022 1_655
Eu0 O5 2.510849 1_555
Eu0 O4 2.510849 1_555
Eu0 O12 2.758614 1_555
Eu0 O13 2.758614 1_555
Eu1 O3 2.389207 1_455
Eu1 O2 2.389207 1_565
Eu1 O35 2.488022 1_455
Eu1 O34 2.488022 1_565
Eu1 O6 2.510849 1_555
Eu1 O7 2.510849 1_555
Eu1 O14 2.758614 1_555
Eu1 O15 2.758614 1_555
Eu2 O29 2.303179 1_555
Eu2 O16 2.329227 1_555
Eu2 O4 2.335406 1_455
Eu2 O33 2.405195 1_555
Eu2 O20 2.426487 1_455
Eu2 O22 2.438281 1_555
Eu3 O28 2.303179 1_555
Eu3 O17 2.329227 1_555
Eu3 O5 2.335406 1_565
Eu3 O32 2.405195 1_555
Eu3 O21 2.426487 1_565
Eu3 O23 2.438281 1_554
Eu4 O31 2.303179 1_555
Eu4 O18 2.329227 1_555
Eu4 O6 2.335406 1_655
Eu4 O35 2.405195 1_555
Eu4 O22 2.426487 1_655
Eu4 O20 2.438281 1_555
Eu5 O30 2.303179 1_555
Eu5 O19 2.329227 1_555
Eu5 O7 2.335406 1_545
Eu5 O34 2.405195 1_555
Eu5 O23 2.426487 1_545
Eu5 O21 2.438281 1_556
Ge0 O0 1.733650 1_555
Ge0 O4 1.747178 1_555
Ge0 O8 1.813091 1_655
Ge0 O12 1.848934 1_555
Ge1 O1 1.733650 1_555
Ge1 O5 1.747178 1_555
Ge1 O9 1.813091 1_545
Ge1 O13 1.848934 1_555
Ge2 O2 1.733650 1_555
Ge2 O6 1.747178 1_555
Ge2 O10 1.813091 1_455
Ge2 O14 1.848934 1_555
Ge3 O3 1.733650 1_555
Ge3 O7 1.747178 1_555
Ge3 O11 1.813091 1_565
Ge3 O15 1.848934 1_555
Ge4 O16 1.743344 1_555
Ge4 O20 1.756125 1_555
Ge4 O24 1.812062 1_555
Ge4 O13 1.823327 1_555
Ge5 O17 1.743344 1_555
Ge5 O21 1.756125 1_555
Ge5 O25 1.812062 1_555
Ge5 O12 1.823327 1_555
Ge6 O18 1.743344 1_555
Ge6 O22 1.756125 1_555
Ge6 O26 1.812062 1_555
Ge6 O15 1.823327 1_555
Ge7 O19 1.743344 1_555
Ge7 O23 1.756125 1_555
Ge7 O27 1.812062 1_555
Ge7 O14 1.823327 1_555
Ge8 O28 1.732000 1_655
Ge8 O32 1.765715 1_555
Ge8 O8 1.803336 1_655
Ge8 O25 1.814620 1_555
Ge9 O29 1.732000 1_545
Ge9 O33 1.765715 1_555
Ge9 O9 1.803336 1_545
Ge9 O24 1.814620 1_555
Ge10 O30 1.732000 1_455
Ge10 O34 1.765715 1_555
Ge10 O10 1.803336 1_455
Ge10 O27 1.814620 1_555
Ge11 O31 1.732000 1_565
Ge11 O35 1.765715 1_555
Ge11 O11 1.803336 1_565
Ge11 O26 1.814620 1_555
