# generated using pymatgen
data_MgTi
_symmetry_space_group_name_H-M   'P 1'
_cell_length_a   4.79662900
_cell_length_b   6.23457300
_cell_length_c   15.83360700
_cell_angle_alpha   90.00000000
_cell_angle_beta   90.00000000
_cell_angle_gamma   90.00000000
_symmetry_Int_Tables_number   1
_chemical_formula_structural   MgTi
_chemical_formula_sum   'Mg12 Ti12'
_cell_volume   473.50296685
_cell_formula_units_Z   12
loop_
 _symmetry_equiv_pos_site_id
 _symmetry_equiv_pos_as_xyz
  1  'x, y, z'
loop_
 _atom_site_type_symbol
 _atom_site_label
 _atom_site_symmetry_multiplicity
 _atom_site_fract_x
 _atom_site_fract_y
 _atom_site_fract_z
 _atom_site_occupancy
  Mg  Mg0  1  0.75000000  0.87129900  0.97263200  1
  Mg  Mg1  1  0.75000000  0.38121900  0.96924700  1
  Mg  Mg2  1  0.75000000  0.12209300  0.80682400  1
  Mg  Mg3  1  0.25000000  0.12209300  0.69317600  1
  Mg  Mg4  1  0.25000000  0.87129900  0.52736800  1
  Mg  Mg5  1  0.25000000  0.38121900  0.53075300  1
  Mg  Mg6  1  0.75000000  0.61878100  0.46924700  1
  Mg  Mg7  1  0.75000000  0.12870100  0.47263200  1
  Mg  Mg8  1  0.75000000  0.87790700  0.30682400  1
  Mg  Mg9  1  0.25000000  0.87790700  0.19317600  1
  Mg  Mg10  1  0.25000000  0.61878100  0.03075300  1
  Mg  Mg11  1  0.25000000  0.12870100  0.02736800  1
  Ti  Ti0  1  0.25000000  0.84254900  0.85165700  1
  Ti  Ti1  1  0.25000000  0.40401900  0.84725400  1
  Ti  Ti2  1  0.75000000  0.62647400  0.79955000  1
  Ti  Ti3  1  0.25000000  0.62647400  0.70045000  1
  Ti  Ti4  1  0.75000000  0.84254900  0.64834300  1
  Ti  Ti5  1  0.75000000  0.40401900  0.65274600  1
  Ti  Ti6  1  0.25000000  0.59598100  0.34725400  1
  Ti  Ti7  1  0.25000000  0.15745100  0.35165700  1
  Ti  Ti8  1  0.75000000  0.37352600  0.29955000  1
  Ti  Ti9  1  0.25000000  0.37352600  0.20045000  1
  Ti  Ti10  1  0.75000000  0.59598100  0.15274600  1
  Ti  Ti11  1  0.75000000  0.15745100  0.14834300  1
loop_
_geom_bond_atom_site_label_1
_geom_bond_atom_site_label_2
_geom_bond_distance
_geom_bond_site_symmetry_2
Mg0 Mg10 3.012865 1_656
Mg0 Mg10 3.012865 1_556
Mg0 Mg11 3.013035 1_666
Mg0 Mg11 3.013035 1_566
Mg0 Mg2 3.055688 1_565
Mg0 Mg1 3.055910 1_555
Mg0 Ti0 3.074584 1_555
Mg0 Ti0 3.074584 1_655
Mg0 Ti2 3.136916 1_555
Mg0 Mg1 3.179585 1_565
Mg0 Ti11 3.305008 1_566
Mg0 Ti10 3.328575 1_556
Mg1 Mg10 2.982276 1_656
Mg1 Mg10 2.982276 1_556
Mg1 Mg11 3.012865 1_656
Mg1 Mg11 3.012865 1_556
Mg1 Mg2 3.037075 1_555
Mg1 Ti1 3.082719 1_655
Mg1 Ti1 3.082719 1_555
Mg1 Ti2 3.091527 1_555
Mg1 Ti11 3.160331 1_556
Mg1 Ti10 3.199130 1_556
Mg2 Mg3 2.998326 1_555
Mg2 Mg3 2.998326 1_655
Mg2 Ti5 3.006853 1_555
Mg2 Ti1 3.041575 1_655
Mg2 Ti1 3.041575 1_555
Mg2 Ti0 3.048493 1_545
Mg2 Ti0 3.048493 1_645
Mg2 Ti4 3.055192 1_545
Mg2 Ti2 3.092119 1_545
Mg2 Ti2 3.146709 1_555
Mg3 Ti1 3.006853 1_555
Mg3 Mg5 3.037075 1_555
Mg3 Ti5 3.041575 1_555
Mg3 Ti5 3.041575 1_455
Mg3 Ti4 3.048493 1_545
Mg3 Ti4 3.048493 1_445
Mg3 Ti0 3.055192 1_545
Mg3 Mg4 3.055688 1_545
Mg3 Ti3 3.092119 1_545
Mg3 Ti3 3.146709 1_555
Mg4 Mg6 3.012865 1_555
Mg4 Mg6 3.012865 1_455
Mg4 Mg7 3.013035 1_565
Mg4 Mg7 3.013035 1_465
Mg4 Mg5 3.055910 1_555
Mg4 Ti4 3.074584 1_455
Mg4 Ti4 3.074584 1_555
Mg4 Ti3 3.136916 1_555
Mg4 Mg5 3.179585 1_565
Mg4 Ti7 3.305008 1_565
Mg4 Ti6 3.328575 1_555
Mg5 Mg6 2.982276 1_555
Mg5 Mg6 2.982276 1_455
Mg5 Mg7 3.012865 1_455
Mg5 Mg7 3.012865 1_555
Mg5 Ti5 3.082719 1_455
Mg5 Ti5 3.082719 1_555
Mg5 Ti3 3.091527 1_555
Mg5 Ti7 3.160331 1_555
Mg5 Ti6 3.199130 1_555
Mg6 Mg8 3.037075 1_555
Mg6 Mg7 3.055910 1_555
Mg6 Ti6 3.082719 1_555
Mg6 Ti6 3.082719 1_655
Mg6 Ti8 3.091527 1_555
Mg6 Ti4 3.160331 1_555
Mg6 Mg7 3.179585 1_565
Mg6 Ti5 3.199130 1_555
Mg7 Mg8 3.055688 1_545
Mg7 Ti7 3.074584 1_655
Mg7 Ti7 3.074584 1_555
Mg7 Ti8 3.136916 1_555
Mg7 Ti4 3.305008 1_545
Mg7 Ti5 3.328575 1_555
Mg8 Mg9 2.998326 1_655
Mg8 Mg9 2.998326 1_555
Mg8 Ti10 3.006853 1_555
Mg8 Ti6 3.041575 1_655
Mg8 Ti6 3.041575 1_555
Mg8 Ti7 3.048493 1_565
Mg8 Ti7 3.048493 1_665
Mg8 Ti11 3.055192 1_565
Mg8 Ti8 3.092119 1_565
Mg8 Ti8 3.146709 1_555
Mg9 Ti6 3.006853 1_555
Mg9 Ti10 3.041575 1_555
Mg9 Ti10 3.041575 1_455
Mg9 Ti11 3.048493 1_465
Mg9 Ti11 3.048493 1_565
Mg9 Ti7 3.055192 1_565
Mg9 Ti9 3.092119 1_565
Mg9 Ti9 3.146709 1_555
Mg10 Mg9 3.037075 1_555
Mg10 Mg11 3.055910 1_555
Mg10 Ti10 3.082719 1_455
Mg10 Ti10 3.082719 1_555
Mg10 Ti9 3.091527 1_555
Mg10 Ti0 3.160331 1_554
Mg10 Mg11 3.179585 1_565
Mg10 Ti1 3.199130 1_554
Mg11 Mg9 3.055688 1_545
Mg11 Ti11 3.074584 1_555
Mg11 Ti11 3.074584 1_455
Mg11 Ti9 3.136916 1_555
Mg11 Ti0 3.305008 1_544
Mg11 Ti1 3.328575 1_554
Ti0 Ti1 2.734936 1_555
Ti0 Ti3 2.747133 1_555
Ti0 Ti2 2.871825 1_455
Ti0 Ti2 2.871825 1_555
Ti0 Ti1 3.501220 1_565
Ti1 Ti3 2.706757 1_555
Ti1 Ti2 2.871577 1_555
Ti1 Ti2 2.871577 1_455
Ti2 Ti5 2.706757 1_555
Ti2 Ti4 2.747133 1_555
Ti2 Ti3 2.866011 1_555
Ti2 Ti3 2.866011 1_655
Ti3 Ti5 2.871577 1_455
Ti3 Ti5 2.871577 1_555
Ti3 Ti4 2.871825 1_555
Ti3 Ti4 2.871825 1_455
Ti4 Ti5 2.734936 1_555
Ti4 Ti5 3.501220 1_565
Ti6 Ti9 2.706757 1_555
Ti6 Ti7 2.734936 1_555
Ti6 Ti8 2.871577 1_455
Ti6 Ti8 2.871577 1_555
Ti6 Ti7 3.501220 1_565
Ti7 Ti9 2.747133 1_555
Ti7 Ti8 2.871825 1_555
Ti7 Ti8 2.871825 1_455
Ti8 Ti9 2.866011 1_655
Ti8 Ti9 2.866011 1_555
Ti10 Ti8 2.706757 1_555
Ti10 Ti11 2.734936 1_555
Ti10 Ti9 2.871577 1_555
Ti10 Ti9 2.871577 1_655
Ti10 Ti11 3.501220 1_565
Ti11 Ti8 2.747133 1_555
Ti11 Ti9 2.871825 1_655
Ti11 Ti9 2.871825 1_555
