# generated using pymatgen
data_Mg14TiCdO16
_symmetry_space_group_name_H-M   'P 1'
_cell_length_a   8.63936304
_cell_length_b   8.63936304
_cell_length_c   4.31515120
_cell_angle_alpha   90.00000000
_cell_angle_beta   90.00000000
_cell_angle_gamma   90.00000000
_symmetry_Int_Tables_number   1
_chemical_formula_structural   Mg14TiCdO16
_chemical_formula_sum   'Mg14 Ti1 Cd1 O16'
_cell_volume   322.07681733
_cell_formula_units_Z   1
loop_
 _symmetry_equiv_pos_site_id
 _symmetry_equiv_pos_as_xyz
  1  'x, y, z'
loop_
 _atom_site_type_symbol
 _atom_site_label
 _atom_site_symmetry_multiplicity
 _atom_site_fract_x
 _atom_site_fract_y
 _atom_site_fract_z
 _atom_site_occupancy
  Mg  Mg0  1  -0.00000000  0.50000000  0.00000000  1
  Mg  Mg1  1  0.50000000  0.00000000  0.00000000  1
  Mg  Mg2  1  -0.00000000  0.25201612  0.50000000  1
  Mg  Mg3  1  -0.00000000  0.74798388  0.50000000  1
  Mg  Mg4  1  0.50000000  0.24565842  0.50000000  1
  Mg  Mg5  1  0.50000000  0.75434158  0.50000000  1
  Mg  Mg6  1  0.25201612  0.00000000  0.50000000  1
  Mg  Mg7  1  0.24565842  0.50000000  0.50000000  1
  Mg  Mg8  1  0.74798388  0.00000000  0.50000000  1
  Mg  Mg9  1  0.75434158  0.50000000  0.50000000  1
  Mg  Mg10  1  0.24941245  0.24941245  0.00000000  1
  Mg  Mg11  1  0.24941245  0.75058755  0.00000000  1
  Mg  Mg12  1  0.75058755  0.24941245  0.00000000  1
  Mg  Mg13  1  0.75058755  0.75058755  -0.00000000  1
  Ti  Ti0  1  -0.00000000  0.00000000  0.00000000  1
  Cd  Cd0  1  0.50000000  0.50000000  0.00000000  1
  O  O0  1  0.25168271  0.00000000  0.00000000  1
  O  O1  1  0.23437802  0.50000000  0.00000000  1
  O  O2  1  0.74831729  0.00000000  0.00000000  1
  O  O3  1  0.76562198  0.50000000  0.00000000  1
  O  O4  1  0.25019630  0.25019630  0.50000000  1
  O  O5  1  0.25019630  0.74980370  0.50000000  1
  O  O6  1  0.74980370  0.25019630  0.50000000  1
  O  O7  1  0.74980370  0.74980370  0.50000000  1
  O  O8  1  -0.00000000  0.00000000  0.50000000  1
  O  O9  1  -0.00000000  0.50000000  0.50000000  1
  O  O10  1  0.50000000  0.00000000  0.50000000  1
  O  O11  1  0.50000000  0.50000000  0.50000000  1
  O  O12  1  -0.00000000  0.25168271  0.00000000  1
  O  O13  1  -0.00000000  0.74831729  -0.00000000  1
  O  O14  1  0.50000000  0.23437802  0.00000000  1
  O  O15  1  0.50000000  0.76562198  0.00000000  1
loop_
_geom_bond_atom_site_label_1
_geom_bond_atom_site_label_2
_geom_bond_distance
_geom_bond_site_symmetry_2
Mg0 O1 2.024877 1_555
Mg0 O3 2.024877 1_455
Mg0 O12 2.145303 1_555
Mg0 O13 2.145303 1_555
Mg0 O9 2.157576 1_554
Mg0 O9 2.157576 1_555
Mg1 O15 2.024877 1_545
Mg1 O14 2.024877 1_555
Mg1 O0 2.145303 1_555
Mg1 O2 2.145303 1_555
Mg1 O10 2.157576 1_554
Mg1 O10 2.157576 1_555
Mg2 O9 2.142423 1_555
Mg2 O12 2.157578 1_556
Mg2 O12 2.157578 1_555
Mg2 O4 2.161594 1_555
Mg2 O6 2.161594 1_455
Mg2 O8 2.177259 1_555
Mg3 O9 2.142423 1_555
Mg3 O13 2.157578 1_555
Mg3 O13 2.157578 1_556
Mg3 O5 2.161594 1_555
Mg3 O7 2.161594 1_455
Mg3 O8 2.177259 1_565
Mg4 O10 2.122332 1_555
Mg4 O6 2.158501 1_555
Mg4 O4 2.158501 1_555
Mg4 O14 2.159775 1_556
Mg4 O14 2.159775 1_555
Mg4 O11 2.197349 1_555
Mg5 O10 2.122332 1_565
Mg5 O7 2.158501 1_555
Mg5 O5 2.158501 1_555
Mg5 O15 2.159775 1_556
Mg5 O15 2.159775 1_555
Mg5 O11 2.197349 1_555
Mg6 O10 2.142423 1_555
Mg6 O0 2.157578 1_555
Mg6 O0 2.157578 1_556
Mg6 O4 2.161594 1_555
Mg6 O5 2.161594 1_545
Mg6 O8 2.177259 1_555
Mg7 O9 2.122332 1_555
Mg7 O5 2.158501 1_555
Mg7 O4 2.158501 1_555
Mg7 O1 2.159775 1_556
Mg7 O1 2.159775 1_555
Mg7 O11 2.197349 1_555
Mg8 O10 2.142423 1_555
Mg8 O2 2.157578 1_556
Mg8 O2 2.157578 1_555
Mg8 O6 2.161594 1_555
Mg8 O7 2.161594 1_545
Mg8 O8 2.177259 1_655
Mg9 O9 2.122332 1_655
Mg9 O7 2.158501 1_555
Mg9 O6 2.158501 1_555
Mg9 O3 2.159775 1_556
Mg9 O3 2.159775 1_555
Mg9 O11 2.197349 1_555
Mg10 O12 2.154854 1_555
Mg10 O0 2.154854 1_555
Mg10 O4 2.157597 1_554
Mg10 O4 2.157597 1_555
Mg10 O1 2.168810 1_555
Mg10 O14 2.168810 1_555
Mg11 O13 2.154854 1_555
Mg11 O0 2.154854 1_565
Mg11 O5 2.157597 1_555
Mg11 O5 2.157597 1_554
Mg11 O1 2.168810 1_555
Mg11 O15 2.168810 1_555
Mg12 O12 2.154854 1_655
Mg12 O2 2.154854 1_555
Mg12 O6 2.157597 1_555
Mg12 O6 2.157597 1_554
Mg12 O14 2.168810 1_555
Mg12 O3 2.168810 1_555
Mg13 O13 2.154854 1_655
Mg13 O2 2.154854 1_565
Mg13 O7 2.157597 1_555
Mg13 O7 2.157597 1_554
Mg13 O15 2.168810 1_555
Mg13 O3 2.168810 1_555
Cd0 O11 2.157576 1_554
Cd0 O11 2.157576 1_555
Cd0 O3 2.294805 1_555
Cd0 O1 2.294805 1_555
Cd0 O14 2.294805 1_555
Cd0 O15 2.294805 1_555
O0 Ti0 2.174378 1_555
O2 Ti0 2.174378 1_655
O8 Ti0 2.157576 1_555
O8 Ti0 2.157576 1_556
O12 Ti0 2.174378 1_555
O13 Ti0 2.174378 1_565
