# generated using pymatgen
data_YAlN2
_symmetry_space_group_name_H-M   'P 1'
_cell_length_a   5.23393935
_cell_length_b   5.40274482
_cell_length_c   7.15521927
_cell_angle_alpha   89.99999945
_cell_angle_beta   133.12094195
_cell_angle_gamma   121.07275031
_symmetry_Int_Tables_number   1
_chemical_formula_structural   YAlN2
_chemical_formula_sum   'Y2 Al2 N4'
_cell_volume   104.42919279
_cell_formula_units_Z   2
loop_
 _symmetry_equiv_pos_site_id
 _symmetry_equiv_pos_as_xyz
  1  'x, y, z'
loop_
 _atom_site_type_symbol
 _atom_site_label
 _atom_site_symmetry_multiplicity
 _atom_site_fract_x
 _atom_site_fract_y
 _atom_site_fract_z
 _atom_site_occupancy
  Y  Y0  1  0.00000000  0.50000000  0.75000000  1
  Y  Y1  1  0.00000000  0.00000000  0.50000000  1
  Al  Al0  1  0.00000000  0.50000000  0.25000000  1
  Al  Al1  1  0.00000000  0.00000000  0.00000000  1
  N  N0  1  0.50000000  0.05896000  0.12500000  1
  N  N1  1  0.50000000  0.94104000  0.62500000  1
  N  N2  1  0.38208100  0.44104000  0.31604000  1
  N  N3  1  0.61791900  0.55896000  0.93396000  1
loop_
_geom_bond_atom_site_label_1
_geom_bond_atom_site_label_2
_geom_bond_distance
_geom_bond_site_symmetry_2
Al0 N1 1.920839 1_555
Al0 N0 1.920839 1_455
Al0 N3 1.920841 1_454
Al0 N2 1.920844 1_555
Al1 N2 1.920837 1_555
Al1 N1 1.920839 1_444
Al1 N0 1.920839 1_555
Al1 N3 1.920840 1_444
N0 Y1 2.326079 1_655
N0 Y0 2.326079 1_544
N1 Y1 2.326079 1_565
N1 Y0 2.326079 1_665
N2 Y0 2.326077 1_655
N2 Y1 2.326078 1_665
N3 Y0 2.326075 1_555
N3 Y1 2.326080 1_555
