# generated using pymatgen
data_Li2MgSiO4
_symmetry_space_group_name_H-M   'P 1'
_cell_length_a   5.05866000
_cell_length_b   6.36529000
_cell_length_c   10.82596900
_cell_angle_alpha   90.00000000
_cell_angle_beta   90.00000000
_cell_angle_gamma   90.00000000
_symmetry_Int_Tables_number   1
_chemical_formula_structural   Li2MgSiO4
_chemical_formula_sum   'Li8 Mg4 Si4 O16'
_cell_volume   348.59444703
_cell_formula_units_Z   4
loop_
 _symmetry_equiv_pos_site_id
 _symmetry_equiv_pos_as_xyz
  1  'x, y, z'
loop_
 _atom_site_type_symbol
 _atom_site_label
 _atom_site_symmetry_multiplicity
 _atom_site_fract_x
 _atom_site_fract_y
 _atom_site_fract_z
 _atom_site_occupancy
  Li  Li0  1  0.19342600  0.00314500  0.33784700  1
  Li  Li1  1  0.69342600  0.50314500  0.16215300  1
  Li  Li2  1  0.80657400  0.50314500  0.66215300  1
  Li  Li3  1  0.30657400  0.00314500  0.83784700  1
  Li  Li4  1  0.29324400  0.25667500  0.07466800  1
  Li  Li5  1  0.79324400  0.75667500  0.42533200  1
  Li  Li6  1  0.70675600  0.75667500  0.92533200  1
  Li  Li7  1  0.20675600  0.25667500  0.57466800  1
  Mg  Mg0  1  0.80918100  0.99615500  0.66588200  1
  Mg  Mg1  1  0.30918100  0.49615500  0.83411800  1
  Mg  Mg2  1  0.19081900  0.49615500  0.33411800  1
  Mg  Mg3  1  0.69081900  0.99615500  0.16588200  1
  Si  Si0  1  0.18792100  0.75227900  0.08634200  1
  Si  Si1  1  0.68792100  0.25227900  0.41365800  1
  Si  Si2  1  0.81207900  0.25227900  0.91365800  1
  Si  Si3  1  0.31207900  0.75227900  0.58634200  1
  O  O0  1  0.21000600  0.74771300  0.44251000  1
  O  O1  1  0.71000600  0.24771300  0.05749000  1
  O  O2  1  0.78999400  0.24771300  0.55749000  1
  O  O3  1  0.28999400  0.74771300  0.94251000  1
  O  O4  1  0.29413000  0.54019000  0.16075200  1
  O  O5  1  0.79413000  0.04019000  0.33924800  1
  O  O6  1  0.70233100  0.45961700  0.84019800  1
  O  O7  1  0.20233100  0.95961700  0.65980200  1
  O  O8  1  0.86072500  0.75488500  0.09126500  1
  O  O9  1  0.36072500  0.25488500  0.40873500  1
  O  O10  1  0.13927500  0.25488500  0.90873500  1
  O  O11  1  0.63927500  0.75488500  0.59126500  1
  O  O12  1  0.29766900  0.95961700  0.15980200  1
  O  O13  1  0.79766900  0.45961700  0.34019800  1
  O  O14  1  0.70587000  0.04019000  0.83924800  1
  O  O15  1  0.20587000  0.54019000  0.66075200  1
loop_
_geom_bond_atom_site_label_1
_geom_bond_atom_site_label_2
_geom_bond_distance
_geom_bond_site_symmetry_2
Li0 O9 1.967961 1_555
Li0 O0 1.983544 1_545
Li0 O12 2.017458 1_545
Li0 O5 2.033676 1_455
Li1 O8 1.967961 1_555
Li1 O1 1.983544 1_555
Li1 O13 2.017458 1_555
Li1 O4 2.033676 1_555
Li2 O11 1.967961 1_555
Li2 O2 1.983544 1_555
Li2 O6 2.017458 1_555
Li2 O15 2.033676 1_655
Li3 O10 1.967961 1_555
Li3 O3 1.983544 1_545
Li3 O7 2.017458 1_545
Li3 O14 2.033676 1_555
Li4 O10 1.958004 1_554
Li4 O4 2.031088 1_555
Li4 O12 2.103641 1_545
Li4 O1 2.117212 1_555
Li5 O11 1.958004 1_555
Li5 O5 2.031088 1_565
Li5 O13 2.103641 1_555
Li5 O0 2.117212 1_655
Li6 O8 1.958004 1_556
Li6 O14 2.031088 1_565
Li6 O6 2.103641 1_555
Li6 O3 2.117212 1_555
Li7 O9 1.958004 1_555
Li7 O15 2.031088 1_555
Li7 O7 2.103641 1_545
Li7 O2 2.117212 1_455
Mg0 O11 1.936444 1_555
Mg0 O14 1.968318 1_565
Mg0 O2 1.987554 1_565
Mg0 O7 2.003446 1_655
Mg1 O10 1.936444 1_555
Mg1 O15 1.968318 1_555
Mg1 O3 1.987554 1_555
Mg1 O6 2.003446 1_555
Mg2 O9 1.936444 1_555
Mg2 O4 1.968318 1_555
Mg2 O0 1.987554 1_555
Mg2 O13 2.003446 1_455
Mg3 O8 1.936444 1_555
Mg3 O5 1.968318 1_565
Mg3 O1 1.987554 1_565
Mg3 O12 2.003446 1_555
O0 Si3 1.640759 1_555
O1 Si2 1.640759 1_554
O2 Si1 1.640759 1_555
O3 Si0 1.640759 1_556
O4 Si0 1.661359 1_555
O5 Si1 1.661359 1_555
O6 Si2 1.637825 1_555
O7 Si3 1.637825 1_555
O8 Si0 1.656114 1_655
O9 Si1 1.656114 1_555
O10 Si2 1.656114 1_455
O11 Si3 1.656114 1_555
O12 Si0 1.637825 1_555
O13 Si1 1.637825 1_555
O14 Si2 1.661359 1_555
O15 Si3 1.661359 1_555
