# generated using pymatgen
data_TbAgSn2
_symmetry_space_group_name_H-M   'P 1'
_cell_length_a   4.62827904
_cell_length_b   4.62827904
_cell_length_c   4.38818856
_cell_angle_alpha   90.00000000
_cell_angle_beta   90.00000000
_cell_angle_gamma   90.00000000
_symmetry_Int_Tables_number   1
_chemical_formula_structural   TbAgSn2
_chemical_formula_sum   'Tb1 Ag1 Sn2'
_cell_volume   93.99924177
_cell_formula_units_Z   1
loop_
 _symmetry_equiv_pos_site_id
 _symmetry_equiv_pos_as_xyz
  1  'x, y, z'
loop_
 _atom_site_type_symbol
 _atom_site_label
 _atom_site_symmetry_multiplicity
 _atom_site_fract_x
 _atom_site_fract_y
 _atom_site_fract_z
 _atom_site_occupancy
  Tb  Tb0  1  -0.00000000  0.00000000  -0.00000000  1
  Ag  Ag0  1  0.50000000  0.50000000  -0.00000000  1
  Sn  Sn0  1  0.00000000  0.50000000  0.50000000  1
  Sn  Sn1  1  0.50000000  0.00000000  0.50000000  1
loop_
_geom_bond_atom_site_label_1
_geom_bond_atom_site_label_2
_geom_bond_distance
_geom_bond_site_symmetry_2
Ag0 Sn1 3.188933 1_565
Ag0 Sn0 3.188933 1_655
Ag0 Sn0 3.188933 1_654
Ag0 Sn0 3.188933 1_554
Ag0 Sn1 3.188933 1_554
Ag0 Sn1 3.188933 1_555
Ag0 Sn1 3.188933 1_564
Ag0 Sn0 3.188933 1_555
Ag0 Tb0 3.272687 1_555
Ag0 Tb0 3.272687 1_565
Ag0 Tb0 3.272687 1_665
Ag0 Tb0 3.272687 1_655
Sn0 Tb0 3.188933 1_555
Sn0 Tb0 3.188933 1_556
Sn0 Tb0 3.188933 1_565
Sn0 Tb0 3.188933 1_566
Sn0 Sn1 3.272687 1_565
Sn0 Sn1 3.272687 1_555
Sn0 Sn1 3.272687 1_465
Sn0 Sn1 3.272687 1_455
Sn1 Tb0 3.188933 1_555
Sn1 Tb0 3.188933 1_556
Sn1 Tb0 3.188933 1_656
Sn1 Tb0 3.188933 1_655
