# generated using pymatgen
data_LaThCN
_symmetry_space_group_name_H-M   'P 1'
_cell_length_a   6.53104732
_cell_length_b   6.53104732
_cell_length_c   6.53104669
_cell_angle_alpha   33.68549091
_cell_angle_beta   33.68549091
_cell_angle_gamma   33.68548471
_symmetry_Int_Tables_number   1
_chemical_formula_structural   LaThCN
_chemical_formula_sum   'La1 Th1 C1 N1'
_cell_volume   76.34763663
_cell_formula_units_Z   1
loop_
 _symmetry_equiv_pos_site_id
 _symmetry_equiv_pos_as_xyz
  1  'x, y, z'
loop_
 _atom_site_type_symbol
 _atom_site_label
 _atom_site_symmetry_multiplicity
 _atom_site_fract_x
 _atom_site_fract_y
 _atom_site_fract_z
 _atom_site_occupancy
  La  La0  1  0.99882800  0.99882800  0.99882800  1
  Th  Th0  1  0.49977900  0.49977900  0.49977900  1
  C  C0  1  0.75745600  0.75745600  0.75745600  1
  N  N0  1  0.24393800  0.24393800  0.24393800  1
loop_
_geom_bond_atom_site_label_1
_geom_bond_atom_site_label_2
_geom_bond_distance
_geom_bond_site_symmetry_2
La0 N0 2.725458 1_665
La0 N0 2.725458 1_566
La0 N0 2.725458 1_656
C0 Th0 2.593454 1_556
C0 Th0 2.593454 1_655
C0 Th0 2.593454 1_565
C0 La0 2.767262 1_554
C0 La0 2.767262 1_545
C0 La0 2.767262 1_455
N0 Th0 2.611870 1_554
N0 Th0 2.611870 1_455
N0 Th0 2.611870 1_545
