# generated using pymatgen
data_BaTl(NiO3)2
_symmetry_space_group_name_H-M   'P 1'
_cell_length_a   3.66525956
_cell_length_b   3.66525956
_cell_length_c   23.13204020
_cell_angle_alpha   85.75404329
_cell_angle_beta   85.75404329
_cell_angle_gamma   90.29157161
_symmetry_Int_Tables_number   1
_chemical_formula_structural   BaTl(NiO3)2
_chemical_formula_sum   'Ba2 Tl2 Ni4 O12'
_cell_volume   309.03785458
_cell_formula_units_Z   2
loop_
 _symmetry_equiv_pos_site_id
 _symmetry_equiv_pos_as_xyz
  1  'x, y, z'
loop_
 _atom_site_type_symbol
 _atom_site_label
 _atom_site_symmetry_multiplicity
 _atom_site_fract_x
 _atom_site_fract_y
 _atom_site_fract_z
 _atom_site_occupancy
  Ba  Ba0  1  0.84090800  0.84163100  0.81241500  1
  Ba  Ba1  1  0.15836900  0.15909200  0.18758500  1
  Tl  Tl0  1  0.27887100  0.27253000  0.94723100  1
  Tl  Tl1  1  0.72747000  0.72112900  0.05276900  1
  Ni  Ni0  1  0.46475200  0.45461100  0.57406900  1
  Ni  Ni1  1  0.61025200  0.61025600  0.28927000  1
  Ni  Ni2  1  0.38974400  0.38974800  0.71073000  1
  Ni  Ni3  1  0.54538900  0.53524800  0.42593100  1
  O  O0  1  0.62144200  0.11816200  0.27234700  1
  O  O1  1  0.46478400  0.95496400  0.57351600  1
  O  O2  1  0.76263300  0.77408300  0.96135100  1
  O  O3  1  0.04503600  0.53521600  0.42648400  1
  O  O4  1  0.22591700  0.23736700  0.03864900  1
  O  O5  1  0.88183800  0.37855800  0.72765300  1
  O  O6  1  0.38648200  0.89061500  0.72503200  1
  O  O7  1  0.68345900  0.68142000  0.14149000  1
  O  O8  1  0.10938500  0.61351800  0.27496800  1
  O  O9  1  0.96428200  0.45467100  0.57484700  1
  O  O10  1  0.54532900  0.03571800  0.42515300  1
  O  O11  1  0.31858000  0.31654100  0.85851000  1
loop_
_geom_bond_atom_site_label_1
_geom_bond_atom_site_label_2
_geom_bond_distance
_geom_bond_site_symmetry_2
Ba0 O5 2.668692 1_565
Ba0 O5 2.683190 1_555
Ba0 O6 2.709263 1_555
Ba0 O6 2.731454 1_655
Ba0 O11 2.784310 1_665
Ba0 O11 2.799736 1_565
Ba0 O11 2.804019 1_555
Ba0 O11 2.813025 1_655
Ba1 O0 2.668692 1_455
Ba1 O0 2.683190 1_555
Ba1 O8 2.709263 1_555
Ba1 O8 2.731454 1_545
Ba1 O7 2.784310 1_445
Ba1 O7 2.799736 1_455
Ba1 O7 2.804019 1_555
Ba1 O7 2.813025 1_545
Ni0 O9 1.832327 1_555
Ni0 O1 1.832328 1_545
Ni0 O1 1.833020 1_555
Ni0 O9 1.833109 1_455
Ni1 O8 1.834682 1_655
Ni1 O0 1.873351 1_565
Ni1 O0 1.873770 1_555
Ni1 O8 1.889274 1_555
Ni2 O6 1.834682 1_545
Ni2 O5 1.873351 1_455
Ni2 O5 1.873770 1_555
Ni2 O6 1.889274 1_555
Ni3 O10 1.832327 1_555
Ni3 O3 1.832328 1_655
Ni3 O3 1.833020 1_555
Ni3 O10 1.833109 1_565
O2 Tl1 2.103517 1_556
O2 Tl0 2.572680 1_565
O2 Tl0 2.602217 1_555
O2 Tl0 2.609510 1_665
O2 Tl0 2.664419 1_655
O4 Tl0 2.103517 1_554
O4 Tl1 2.572680 1_455
O4 Tl1 2.602217 1_555
O4 Tl1 2.609510 1_445
O4 Tl1 2.664419 1_545
O7 Tl1 2.040990 1_555
O11 Tl0 2.040990 1_555
