# generated using pymatgen
data_Ba6CaNb2Ir(ClO6)2
_symmetry_space_group_name_H-M   'P 1'
_cell_length_a   6.21388798
_cell_length_b   6.20506902
_cell_length_c   16.26256548
_cell_angle_alpha   97.42150682
_cell_angle_beta   82.58070261
_cell_angle_gamma   122.06421578
_symmetry_Int_Tables_number   1
_chemical_formula_structural   Ba6CaNb2Ir(ClO6)2
_chemical_formula_sum   'Ba6 Ca1 Nb2 Ir1 Cl2 O12'
_cell_volume   525.57043875
_cell_formula_units_Z   1
loop_
 _symmetry_equiv_pos_site_id
 _symmetry_equiv_pos_as_xyz
  1  'x, y, z'
loop_
 _atom_site_type_symbol
 _atom_site_label
 _atom_site_symmetry_multiplicity
 _atom_site_fract_x
 _atom_site_fract_y
 _atom_site_fract_z
 _atom_site_occupancy
  Ba  Ba0  1  0.30196280  0.69806170  0.37345772  1
  Ba  Ba1  1  0.29467001  0.70653332  0.76516672  1
  Ba  Ba2  1  0.66983896  0.33042751  0.62483761  1
  Ba  Ba3  1  0.58070028  0.41955546  0.87448983  1
  Ba  Ba4  1  0.34880526  0.64813061  0.13462683  1
  Ba  Ba5  1  0.66057884  0.34301866  0.23170081  1
  Ca  Ca0  1  0.85292720  0.15023498  0.98822086  1
  Nb  Nb0  1  0.96203626  0.03831258  0.79032797  1
  Nb  Nb1  1  0.00740488  0.99453695  0.20101252  1
  Ir  Ir0  1  0.12133814  0.87461769  0.00846698  1
  Cl  Cl0  1  0.67438723  0.32430096  0.42665553  1
  Cl  Cl1  1  0.32531108  0.67572485  0.56790370  1
  O  O0  1  0.11405299  0.33714993  0.87654368  1
  O  O1  1  0.31585329  0.15584511  0.74410607  1
  O  O2  1  0.20020543  0.32399731  0.25900558  1
  O  O3  1  0.84515945  0.68426132  0.74421189  1
  O  O4  1  0.83858215  0.16062708  0.72086149  1
  O  O5  1  0.90959767  0.67844865  0.10761163  1
  O  O6  1  0.15164891  0.83228351  0.25931351  1
  O  O7  1  0.32151752  0.07916213  0.10799088  1
  O  O8  1  0.87997276  0.14130852  0.12636628  1
  O  O9  1  0.66390232  0.88753186  0.87665031  1
  O  O10  1  0.67498009  0.81251936  0.25784171  1
  O  O11  1  0.11789950  0.88049294  0.89691590  1
loop_
_geom_bond_atom_site_label_1
_geom_bond_atom_site_label_2
_geom_bond_distance
_geom_bond_site_symmetry_2
Ba0 O6 2.585526 1_555
Ba0 O2 2.623223 1_555
Ba0 O10 2.623703 1_555
Ba0 Cl1 3.208234 1_555
Ba0 Cl0 3.362233 1_565
Ba0 Cl0 3.373306 1_455
Ba1 O11 2.648770 1_555
Ba1 O0 2.758634 1_555
Ba1 O9 2.761312 1_555
Ba1 O1 2.784427 1_565
Ba1 O3 2.785867 1_455
Ba1 O4 3.109013 1_565
Ba1 O4 3.119225 1_455
Ba1 Cl1 3.175933 1_555
Ba2 O4 2.582454 1_555
Ba2 O3 2.584885 1_555
Ba2 O1 2.585534 1_555
Ba2 Cl0 3.214904 1_555
Ba2 Cl1 3.500047 1_545
Ba2 Cl1 3.508628 1_655
Ba3 O3 2.649728 1_555
Ba3 O1 2.650974 1_555
Ba3 O0 2.660066 1_555
Ba3 O9 2.661781 1_555
Ba3 O11 3.060128 1_655
Ba3 O11 3.069655 1_545
Ba4 O6 2.676654 1_555
Ba4 O10 2.736677 1_555
Ba4 O2 2.754270 1_555
Ba4 O7 2.858240 1_565
Ba4 O5 2.924553 1_455
Ba4 O8 2.942758 1_455
Ba4 O8 3.089416 1_565
Ba4 O5 3.361768 1_555
Ba4 O7 3.415997 1_555
Ba5 O8 2.648433 1_555
Ba5 O5 2.767298 1_555
Ba5 O2 2.778803 1_555
Ba5 O7 2.783588 1_555
Ba5 O10 2.844124 1_555
Ba5 O6 2.982552 1_655
Ba5 O6 3.099361 1_545
Ba5 Cl0 3.201353 1_555
Ca0 O0 2.249764 1_655
Ca0 O9 2.254420 1_545
Ca0 O8 2.284307 1_556
Nb0 O4 1.871962 1_555
Nb0 O3 1.984268 1_545
Nb0 O1 1.985713 1_655
Nb0 O9 2.026194 1_545
Nb0 O0 2.026636 1_655
Nb1 O10 1.922557 1_455
Nb1 O2 1.922853 1_565
Nb1 O6 2.034735 1_555
Nb1 O8 2.056609 1_465
Nb1 O5 2.174074 1_455
Nb1 O7 2.174490 1_565
Ir0 O11 1.822277 1_554
Ir0 O5 2.017718 1_455
Ir0 O7 2.022568 1_565
