# generated using pymatgen
data_Sm3Sn13Ir4
_symmetry_space_group_name_H-M   'P 1'
_cell_length_a   9.73782360
_cell_length_b   9.73782809
_cell_length_c   9.73782593
_cell_angle_alpha   90.00000577
_cell_angle_beta   90.00000453
_cell_angle_gamma   89.99999376
_symmetry_Int_Tables_number   1
_chemical_formula_structural   Sm3Sn13Ir4
_chemical_formula_sum   'Sm6 Sn26 Ir8'
_cell_volume   923.39179957
_cell_formula_units_Z   2
loop_
 _symmetry_equiv_pos_site_id
 _symmetry_equiv_pos_as_xyz
  1  'x, y, z'
loop_
 _atom_site_type_symbol
 _atom_site_label
 _atom_site_symmetry_multiplicity
 _atom_site_fract_x
 _atom_site_fract_y
 _atom_site_fract_z
 _atom_site_occupancy
  Sm  Sm0  1  0.49999653  -0.00000247  0.75000132  1
  Sm  Sm1  1  0.00000391  0.24999874  0.49999971  1
  Sm  Sm2  1  0.75000125  0.50000214  -0.00000027  1
  Sm  Sm3  1  0.49999576  -0.00000192  0.24999886  1
  Sm  Sm4  1  0.00000390  0.75000132  0.50000004  1
  Sm  Sm5  1  0.24999882  0.50000218  0.00000034  1
  Sn  Sn0  1  0.49999493  0.50000306  0.49999903  1
  Sn  Sn1  1  0.00000512  -0.00000304  0.00000094  1
  Sn  Sn2  1  0.65201966  0.19262327  0.49999902  1
  Sn  Sn3  1  0.80737786  0.50000063  0.65202217  1
  Sn  Sn4  1  0.49999988  0.34798072  0.80737773  1
  Sn  Sn5  1  0.34797700  0.80737485  0.49999965  1
  Sn  Sn6  1  0.19262592  0.50000154  0.34797811  1
  Sn  Sn7  1  0.49999687  0.65202144  0.19262281  1
  Sn  Sn8  1  0.65201802  0.80737500  0.49999957  1
  Sn  Sn9  1  0.80737835  0.50000013  0.34797746  1
  Sn  Sn10  1  0.34797784  0.19262249  0.49999756  1
  Sn  Sn11  1  0.19262558  0.50000332  0.65202056  1
  Sn  Sn12  1  0.49999726  0.65202232  0.80737751  1
  Sn  Sn13  1  0.49999819  0.34798031  0.19262329  1
  Sn  Sn14  1  0.15202309  -0.00000328  0.69262421  1
  Sn  Sn15  1  0.30737438  0.15201991  0.00000237  1
  Sn  Sn16  1  0.00000008  0.30737784  0.84797988  1
  Sn  Sn17  1  0.84798081  -0.00000011  0.30737507  1
  Sn  Sn18  1  0.69262163  0.84797711  0.00000045  1
  Sn  Sn19  1  0.00000313  0.69262419  0.15202049  1
  Sn  Sn20  1  0.15202365  -0.00000138  0.30737505  1
  Sn  Sn21  1  0.30737391  0.84797698  0.00000102  1
  Sn  Sn22  1  0.84798002  -0.00000059  0.69262494  1
  Sn  Sn23  1  0.69262224  0.15202175  0.00000072  1
  Sn  Sn24  1  0.00000157  0.30737745  0.15202150  1
  Sn  Sn25  1  0.00000291  0.69262456  0.84797973  1
  Ir  Ir0  1  0.75000019  0.25000131  0.75000075  1
  Ir  Ir1  1  0.25000043  0.75000003  0.24999986  1
  Ir  Ir2  1  0.74999970  0.74999917  0.24999915  1
  Ir  Ir3  1  0.24999975  0.24999988  0.74999951  1
  Ir  Ir4  1  0.25000000  0.75000014  0.74999997  1
  Ir  Ir5  1  0.75000001  0.25000055  0.24999948  1
  Ir  Ir6  1  0.25000033  0.24999963  0.25000050  1
  Ir  Ir7  1  0.74999953  0.74999985  0.75000092  1
loop_
_geom_bond_atom_site_label_1
_geom_bond_atom_site_label_2
_geom_bond_distance
_geom_bond_site_symmetry_2
Sm0 Sn21 3.411209 1_546
Sm0 Sn18 3.411217 1_546
Sm0 Sn5 3.411218 1_545
Sm0 Sn15 3.411223 1_556
Sm0 Sn8 3.411226 1_545
Sm0 Sn23 3.411239 1_556
Sm0 Sn10 3.411242 1_555
Sm0 Sn2 3.411255 1_555
Sm0 Sn14 3.434259 1_555
Sm0 Sn12 3.434276 1_545
Sm0 Sn4 3.434353 1_555
Sm0 Sn22 3.434355 1_555
Sm1 Sn20 3.411219 1_555
Sm1 Sn17 3.411225 1_455
Sm1 Sn14 3.411229 1_555
Sm1 Sn6 3.411232 1_555
Sm1 Sn22 3.411235 1_455
Sm1 Sn11 3.411239 1_555
Sm1 Sn9 3.411244 1_455
Sm1 Sn3 3.411250 1_455
Sm1 Sn10 3.434263 1_555
Sm1 Sn24 3.434308 1_555
Sm1 Sn16 3.434328 1_555
Sm1 Sn2 3.434361 1_455
Sm2 Sn16 3.411208 1_654
Sm2 Sn25 3.411219 1_654
Sm2 Sn4 3.411220 1_554
Sm2 Sn19 3.411222 1_655
Sm2 Sn24 3.411229 1_655
Sm2 Sn12 3.411235 1_554
Sm2 Sn7 3.411238 1_555
Sm2 Sn13 3.411243 1_555
Sm2 Sn18 3.434279 1_555
Sm2 Sn3 3.434299 1_554
Sm2 Sn9 3.434301 1_555
Sm2 Sn23 3.434331 1_555
Sm3 Sn15 3.411185 1_555
Sm3 Sn21 3.411194 1_545
Sm3 Sn10 3.411200 1_555
Sm3 Sn5 3.411212 1_545
Sm3 Sn18 3.411219 1_545
Sm3 Sn8 3.411226 1_545
Sm3 Sn23 3.411232 1_555
Sm3 Sn2 3.411240 1_555
Sm3 Sn20 3.434245 1_555
Sm3 Sn7 3.434290 1_545
Sm3 Sn13 3.434343 1_555
Sm3 Sn17 3.434369 1_555
Sm4 Sn14 3.411182 1_565
Sm4 Sn11 3.411192 1_555
Sm4 Sn20 3.411202 1_565
Sm4 Sn6 3.411212 1_555
Sm4 Sn22 3.411224 1_465
Sm4 Sn17 3.411224 1_465
Sm4 Sn3 3.411241 1_455
Sm4 Sn9 3.411244 1_455
Sm4 Sn5 3.434250 1_555
Sm4 Sn19 3.434319 1_555
Sm4 Sn25 3.434320 1_555
Sm4 Sn8 3.434373 1_455
Sm5 Sn19 3.411176 1_555
Sm5 Sn25 3.411181 1_554
Sm5 Sn7 3.411191 1_555
Sm5 Sn12 3.411199 1_554
Sm5 Sn24 3.411206 1_555
Sm5 Sn16 3.411211 1_554
Sm5 Sn13 3.411213 1_555
Sm5 Sn4 3.411222 1_554
Sm5 Sn21 3.434271 1_555
Sm5 Sn6 3.434295 1_555
Sm5 Sn11 3.434315 1_554
Sm5 Sn15 3.434343 1_555
Sn0 Sn6 3.339180 1_555
Sn0 Sn11 3.339186 1_555
Sn0 Sn5 3.339193 1_555
Sn0 Sn8 3.339216 1_555
Sn0 Sn7 3.339233 1_555
Sn0 Sn13 3.339248 1_555
Sn0 Sn12 3.339256 1_555
Sn0 Sn10 3.339266 1_555
Sn0 Sn4 3.339272 1_555
Sn0 Sn2 3.339292 1_555
Sn0 Sn9 3.339309 1_555
Sn0 Sn3 3.339311 1_555
Sn1 Sn21 3.339174 1_545
Sn1 Sn15 3.339191 1_555
Sn1 Sn19 3.339208 1_545
Sn1 Sn25 3.339212 1_544
Sn1 Sn20 3.339215 1_555
Sn1 Sn14 3.339235 1_554
Sn1 Sn17 3.339240 1_455
Sn1 Sn22 3.339260 1_454
Sn1 Sn24 3.339280 1_555
Sn1 Sn16 3.339286 1_554
Sn1 Sn18 3.339302 1_445
Sn1 Sn23 3.339318 1_455
Sn2 Sn22 3.267750 1_555
Sn3 Sn9 2.960734 1_555
Sn5 Sn8 2.960698 1_555
Sn10 Sn2 2.960706 1_555
Sn10 Sn20 3.267696 1_555
Sn10 Sn14 3.267733 1_555
Sn11 Sn6 2.960712 1_555
Sn11 Sn25 3.267711 1_555
Sn11 Sn16 3.267751 1_555
Sn12 Sn4 2.960705 1_555
Sn12 Sn21 3.267701 1_556
Sn12 Sn18 3.267705 1_556
Sn13 Sn7 2.960700 1_555
Sn13 Sn15 3.267722 1_555
Sn13 Sn23 3.267722 1_555
Sn14 Sn22 2.960718 1_455
Sn14 Sn5 3.267695 1_545
Sn15 Sn21 2.960718 1_545
Sn15 Sn4 3.267755 1_554
Sn16 Sn24 2.960704 1_556
Sn16 Sn3 3.267708 1_455
Sn17 Sn20 2.960716 1_655
Sn17 Sn2 3.267741 1_555
Sn17 Sn8 3.267762 1_545
Sn18 Sn23 2.960734 1_565
Sn18 Sn7 3.267709 1_555
Sn19 Sn25 2.960696 1_554
Sn19 Sn6 3.267710 1_555
Sn19 Sn9 3.267726 1_455
Sn20 Sn5 3.267702 1_545
Sn21 Sn7 3.267695 1_555
Sn22 Sn8 3.267760 1_545
Sn23 Sn4 3.267718 1_554
Sn24 Sn9 3.267703 1_455
Sn24 Sn6 3.267721 1_555
Sn25 Sn3 3.267730 1_455
Ir0 Sn3 2.673768 1_555
Ir0 Sn16 2.673772 1_655
Ir0 Sn4 2.673777 1_555
Ir0 Sn23 2.673778 1_556
Ir0 Sn22 2.673791 1_555
Ir0 Sn2 2.673796 1_555
Ir0 Sm2 3.442840 1_556
Ir0 Sm1 3.442874 1_655
Ir0 Sm0 3.442893 1_555
Ir1 Sn7 2.673740 1_555
Ir1 Sn19 2.673748 1_555
Ir1 Sn21 2.673749 1_555
Ir1 Sn20 2.673750 1_565
Ir1 Sn6 2.673753 1_555
Ir1 Sn5 2.673759 1_555
Ir1 Sm3 3.442796 1_565
Ir1 Sm4 3.442818 1_555
Ir1 Sm5 3.442823 1_555
Ir2 Sn18 2.673761 1_555
Ir2 Sn9 2.673767 1_555
Ir2 Sn8 2.673784 1_555
Ir2 Sn17 2.673786 1_565
Ir2 Sn7 2.673793 1_555
Ir2 Sn19 2.673798 1_655
Ir2 Sm2 3.442817 1_555
Ir2 Sm3 3.442861 1_565
Ir2 Sm4 3.442876 1_655
Ir3 Sn16 2.673777 1_555
Ir3 Sn4 2.673783 1_555
Ir3 Sn10 2.673789 1_555
Ir3 Sn14 2.673791 1_555
Ir3 Sn15 2.673798 1_556
Ir3 Sn11 2.673799 1_555
Ir3 Sm1 3.442811 1_555
Ir3 Sm0 3.442835 1_555
Ir3 Sm5 3.442863 1_556
Ir4 Sn14 2.673734 1_565
Ir4 Sn11 2.673742 1_555
Ir4 Sn12 2.673746 1_555
Ir4 Sn25 2.673747 1_555
Ir4 Sn5 2.673765 1_555
Ir4 Sn21 2.673769 1_556
Ir4 Sm0 3.442800 1_565
Ir4 Sm4 3.442813 1_555
Ir4 Sm5 3.442830 1_556
Ir5 Sn23 2.673764 1_555
Ir5 Sn9 2.673770 1_555
Ir5 Sn2 2.673775 1_555
Ir5 Sn17 2.673783 1_555
Ir5 Sn24 2.673783 1_655
Ir5 Sn13 2.673790 1_555
Ir5 Sm2 3.442851 1_555
Ir5 Sm1 3.442869 1_655
Ir5 Sm3 3.442888 1_555
Ir6 Sn10 2.673743 1_555
Ir6 Sn15 2.673754 1_555
Ir6 Sn13 2.673761 1_555
Ir6 Sn24 2.673764 1_555
Ir6 Sn20 2.673770 1_555
Ir6 Sn6 2.673781 1_555
Ir6 Sm1 3.442811 1_555
Ir6 Sm3 3.442820 1_555
Ir6 Sm5 3.442861 1_555
Ir7 Sn18 2.673765 1_556
Ir7 Sn3 2.673769 1_555
Ir7 Sn22 2.673774 1_565
Ir7 Sn12 2.673788 1_555
Ir7 Sn8 2.673791 1_555
Ir7 Sn25 2.673799 1_655
Ir7 Sm2 3.442818 1_556
Ir7 Sm0 3.442846 1_565
Ir7 Sm4 3.442877 1_655
