# generated using pymatgen
data_YNiF5
_symmetry_space_group_name_H-M   'P 1'
_cell_length_a   5.73212414
_cell_length_b   5.73212414
_cell_length_c   5.73212414
_cell_angle_alpha   137.30766005
_cell_angle_beta   105.88113921
_cell_angle_gamma   89.50450744
_symmetry_Int_Tables_number   1
_chemical_formula_structural   YNiF5
_chemical_formula_sum   'Y1 Ni1 F5'
_cell_volume   117.36142077
_cell_formula_units_Z   1
loop_
 _symmetry_equiv_pos_site_id
 _symmetry_equiv_pos_as_xyz
  1  'x, y, z'
loop_
 _atom_site_type_symbol
 _atom_site_label
 _atom_site_symmetry_multiplicity
 _atom_site_fract_x
 _atom_site_fract_y
 _atom_site_fract_z
 _atom_site_occupancy
  Y  Y0  1  0.50000000  0.50000000  0.00000000  1
  Ni  Ni0  1  0.00000000  0.00000000  0.00000000  1
  F  F0  1  0.81714700  0.50000000  0.31714700  1
  F  F1  1  0.18285300  0.50000000  0.68285300  1
  F  F2  1  0.23031600  0.23031600  0.00000000  1
  F  F3  1  0.76968400  0.76968400  0.00000000  1
  F  F4  1  0.50000000  0.00000000  0.50000000  1
loop_
_geom_bond_atom_site_label_1
_geom_bond_atom_site_label_2
_geom_bond_distance
_geom_bond_site_symmetry_2
F0 Y0 2.191121 1_555
F0 Ni0 2.439147 1_666
F0 Ni0 2.439147 1_655
F1 Y0 2.191121 1_556
F1 Ni0 2.439147 1_555
F1 Ni0 2.439147 1_566
F2 Ni0 1.875100 1_555
F2 Y0 2.195612 1_555
F3 Ni0 1.875100 1_665
F3 Y0 2.195612 1_555
F4 Y0 2.086504 1_556
F4 Y0 2.086504 1_545
