# generated using pymatgen
data_Sr2Mg(BO3)2
_symmetry_space_group_name_H-M   'P 1'
_cell_length_a   5.25210341
_cell_length_b   5.25210341
_cell_length_c   6.19853982
_cell_angle_alpha   65.29687358
_cell_angle_beta   65.29687358
_cell_angle_gamma   59.26786887
_symmetry_Int_Tables_number   1
_chemical_formula_structural   Sr2Mg(BO3)2
_chemical_formula_sum   'Sr2 Mg1 B2 O6'
_cell_volume   128.86925008
_cell_formula_units_Z   1
loop_
 _symmetry_equiv_pos_site_id
 _symmetry_equiv_pos_as_xyz
  1  'x, y, z'
loop_
 _atom_site_type_symbol
 _atom_site_label
 _atom_site_symmetry_multiplicity
 _atom_site_fract_x
 _atom_site_fract_y
 _atom_site_fract_z
 _atom_site_occupancy
  Sr  Sr0  1  0.70931900  0.70931900  0.81473700  1
  Sr  Sr1  1  0.29068100  0.29068100  0.18526300  1
  Mg  Mg0  1  0.50000000  0.50000000  0.50000000  1
  B  B0  1  0.93764800  0.93764800  0.26448000  1
  B  B1  1  0.06235200  0.06235200  0.73552000  1
  O  O0  1  0.76869800  0.76869800  0.33871300  1
  O  O1  1  0.20658900  0.74456200  0.76828100  1
  O  O2  1  0.25543800  0.79341100  0.23171900  1
  O  O3  1  0.79341100  0.25543800  0.23171900  1
  O  O4  1  0.74456200  0.20658900  0.76828100  1
  O  O5  1  0.23130200  0.23130200  0.66128700  1
loop_
_geom_bond_atom_site_label_1
_geom_bond_atom_site_label_2
_geom_bond_distance
_geom_bond_site_symmetry_2
Mg0 O2 2.100088 1_555
Mg0 O1 2.100088 1_555
Mg0 O3 2.100088 1_555
Mg0 O4 2.100088 1_555
Mg0 O5 2.158613 1_555
Mg0 O0 2.158613 1_555
B0 O0 1.381550 1_555
B0 O2 1.397822 1_655
B0 O3 1.397822 1_565
B1 O5 1.381550 1_555
B1 O1 1.397822 1_545
B1 O4 1.397822 1_455
O0 Sr0 2.731667 1_555
O0 Sr1 2.739618 1_655
O0 Sr1 2.739618 1_565
O1 Sr0 2.599839 1_455
O1 Sr0 2.679605 1_555
O1 Sr1 2.699339 1_556
O2 Sr1 2.599839 1_565
O2 Sr1 2.679605 1_555
O2 Sr0 2.699339 1_554
O3 Sr1 2.599839 1_655
O3 Sr1 2.679605 1_555
O3 Sr0 2.699339 1_554
O4 Sr0 2.599839 1_545
O4 Sr0 2.679605 1_555
O4 Sr1 2.699339 1_556
O5 Sr1 2.731667 1_555
O5 Sr0 2.739618 1_455
O5 Sr0 2.739618 1_545
