# generated using pymatgen
data_LiSn4Rh
_symmetry_space_group_name_H-M   'P 1'
_cell_length_a   7.38234553
_cell_length_b   7.38234553
_cell_length_c   7.38234553
_cell_angle_alpha   126.51779611
_cell_angle_beta   126.51779611
_cell_angle_gamma   79.03876106
_symmetry_Int_Tables_number   1
_chemical_formula_structural   LiSn4Rh
_chemical_formula_sum   'Li2 Sn8 Rh2'
_cell_volume   251.34795612
_cell_formula_units_Z   2
loop_
 _symmetry_equiv_pos_site_id
 _symmetry_equiv_pos_as_xyz
  1  'x, y, z'
loop_
 _atom_site_type_symbol
 _atom_site_label
 _atom_site_symmetry_multiplicity
 _atom_site_fract_x
 _atom_site_fract_y
 _atom_site_fract_z
 _atom_site_occupancy
  Li  Li0  1  0.50000000  0.50000000  0.00000000  1
  Li  Li1  1  -0.00000000  0.00000000  0.00000000  1
  Sn  Sn0  1  0.20454522  0.02385491  0.50000000  1
  Sn  Sn1  1  0.02385491  0.52385491  0.81930969  1
  Sn  Sn2  1  0.70454522  0.20454522  0.18069031  1
  Sn  Sn3  1  0.29545478  0.79545478  0.81930969  1
  Sn  Sn4  1  0.97614509  0.47614509  0.18069031  1
  Sn  Sn5  1  0.79545478  0.97614509  0.50000000  1
  Sn  Sn6  1  0.47614509  0.29545478  0.50000000  1
  Sn  Sn7  1  0.52385491  0.70454522  0.50000000  1
  Rh  Rh0  1  0.75000000  0.75000000  0.00000000  1
  Rh  Rh1  1  0.25000000  0.25000000  0.00000000  1
loop_
_geom_bond_atom_site_label_1
_geom_bond_atom_site_label_2
_geom_bond_distance
_geom_bond_site_symmetry_2
Li0 Rh0 2.847405 1_555
Li0 Rh1 2.847405 1_555
Li0 Sn1 2.937661 1_554
Li0 Sn2 2.937661 1_555
Li0 Sn4 2.937661 1_555
Li0 Sn0 2.937661 1_554
Li0 Sn6 2.937661 1_554
Li0 Sn7 2.937661 1_555
Li0 Sn5 2.937661 1_555
Li0 Sn3 2.937661 1_554
Li1 Rh0 2.847405 1_445
Li1 Rh1 2.847405 1_555
Li1 Sn4 2.937661 1_455
Li1 Sn3 2.937661 1_544
Li1 Sn7 2.937661 1_444
Li1 Sn0 2.937661 1_555
Li1 Sn6 2.937661 1_555
Li1 Sn5 2.937661 1_444
Li1 Sn1 2.937661 1_544
Li1 Sn2 2.937661 1_455
Rh0 Sn5 2.815910 1_555
Rh0 Sn4 2.815910 1_555
Rh0 Sn3 2.815910 1_554
Rh0 Sn2 2.815910 1_565
Rh0 Sn7 2.815910 1_554
Rh0 Sn6 2.815910 1_554
Rh0 Sn1 2.815910 1_654
Rh0 Sn0 2.815910 1_665
Rh1 Sn4 2.815910 1_455
Rh1 Sn1 2.815910 1_554
Rh1 Sn3 2.815910 1_544
Rh1 Sn7 2.815910 1_555
Rh1 Sn0 2.815910 1_554
Rh1 Sn5 2.815910 1_444
Rh1 Sn2 2.815910 1_555
Rh1 Sn6 2.815910 1_555
