# generated using pymatgen
data_Sr5(Sb11O19)2
_symmetry_space_group_name_H-M   'P 1'
_cell_length_a   12.21668000
_cell_length_b   11.92011700
_cell_length_c   20.22457797
_cell_angle_alpha   55.31328302
_cell_angle_beta   90.00000000
_cell_angle_gamma   90.00000000
_symmetry_Int_Tables_number   1
_chemical_formula_structural   Sr5(Sb11O19)2
_chemical_formula_sum   'Sr10 Sb44 O76'
_cell_volume   2421.75830033
_cell_formula_units_Z   2
loop_
 _symmetry_equiv_pos_site_id
 _symmetry_equiv_pos_as_xyz
  1  'x, y, z'
loop_
 _atom_site_type_symbol
 _atom_site_label
 _atom_site_symmetry_multiplicity
 _atom_site_fract_x
 _atom_site_fract_y
 _atom_site_fract_z
 _atom_site_occupancy
  Sr  Sr0  1  0.68144800  0.16861400  0.66679900  1
  Sr  Sr1  1  0.81855200  0.16861400  0.16679900  1
  Sr  Sr2  1  0.31855200  0.83138600  0.33320100  1
  Sr  Sr3  1  0.18144800  0.83138600  0.83320100  1
  Sr  Sr4  1  0.34908900  0.14826400  0.66936100  1
  Sr  Sr5  1  0.15091100  0.14826400  0.16936100  1
  Sr  Sr6  1  0.65091100  0.85173600  0.33063900  1
  Sr  Sr7  1  0.84908900  0.85173600  0.83063900  1
  Sr  Sr8  1  0.50000000  0.50000000  0.50000000  1
  Sr  Sr9  1  0.00000000  0.50000000  0.00000000  1
  Sb  Sb0  1  0.36073100  0.46419700  0.67891700  1
  Sb  Sb1  1  0.13926900  0.46419700  0.17891700  1
  Sb  Sb2  1  0.63926900  0.53580300  0.32108300  1
  Sb  Sb3  1  0.86073100  0.53580300  0.82108300  1
  Sb  Sb4  1  0.66029900  0.49090100  0.66366600  1
  Sb  Sb5  1  0.83970100  0.49090100  0.16366600  1
  Sb  Sb6  1  0.33970100  0.50909900  0.33633400  1
  Sb  Sb7  1  0.16029900  0.50909900  0.83633400  1
  Sb  Sb8  1  0.14969800  0.14548300  0.83025700  1
  Sb  Sb9  1  0.35030200  0.14548300  0.33025700  1
  Sb  Sb10  1  0.85030200  0.85451700  0.16974300  1
  Sb  Sb11  1  0.64969800  0.85451700  0.66974300  1
  Sb  Sb12  1  0.68058600  0.85059500  0.99737400  1
  Sb  Sb13  1  0.81941400  0.85059500  0.49737400  1
  Sb  Sb14  1  0.31941400  0.14940500  0.00262600  1
  Sb  Sb15  1  0.18058600  0.14940500  0.50262600  1
  Sb  Sb16  1  0.46625000  0.49104800  0.84502400  1
  Sb  Sb17  1  0.03375000  0.49104800  0.34502400  1
  Sb  Sb18  1  0.53375000  0.50895200  0.15497600  1
  Sb  Sb19  1  0.96625000  0.50895200  0.65497600  1
  Sb  Sb20  1  0.83102600  0.17982300  0.50282600  1
  Sb  Sb21  1  0.66897400  0.17982300  0.00282600  1
  Sb  Sb22  1  0.16897400  0.82017700  0.49717400  1
  Sb  Sb23  1  0.33102600  0.82017700  0.99717400  1
  Sb  Sb24  1  0.00831500  0.83530100  0.98758800  1
  Sb  Sb25  1  0.49168500  0.83530100  0.48758800  1
  Sb  Sb26  1  0.99168500  0.16469900  0.01241200  1
  Sb  Sb27  1  0.50831500  0.16469900  0.51241200  1
  Sb  Sb28  1  0.50911400  0.18537400  0.81741600  1
  Sb  Sb29  1  0.99088600  0.18537400  0.31741600  1
  Sb  Sb30  1  0.49088600  0.81462600  0.18258400  1
  Sb  Sb31  1  0.00911400  0.81462600  0.68258400  1
  Sb  Sb32  1  0.86990300  0.19877900  0.80706300  1
  Sb  Sb33  1  0.63009700  0.19877900  0.30706300  1
  Sb  Sb34  1  0.13009700  0.80122100  0.19293700  1
  Sb  Sb35  1  0.36990300  0.80122100  0.69293700  1
  Sb  Sb36  1  0.03404000  0.14429400  0.65566000  1
  Sb  Sb37  1  0.46596000  0.14429400  0.15566000  1
  Sb  Sb38  1  0.96596000  0.85570600  0.34434000  1
  Sb  Sb39  1  0.53404000  0.85570600  0.84434000  1
  Sb  Sb40  1  0.80259100  0.50757400  0.49483200  1
  Sb  Sb41  1  0.69740900  0.50757400  0.99483200  1
  Sb  Sb42  1  0.19740900  0.49242600  0.50516800  1
  Sb  Sb43  1  0.30259100  0.49242600  0.00516800  1
  O  O0  1  0.01881000  0.94009300  0.72310800  1
  O  O1  1  0.48119000  0.94009300  0.22310800  1
  O  O2  1  0.98119000  0.05990700  0.27689200  1
  O  O3  1  0.51881000  0.05990700  0.77689200  1
  O  O4  1  0.68300500  0.46136700  0.57475600  1
  O  O5  1  0.81699500  0.46136700  0.07475600  1
  O  O6  1  0.31699500  0.53863300  0.42524400  1
  O  O7  1  0.18300500  0.53863300  0.92524400  1
  O  O8  1  0.01735000  0.29291600  0.76383400  1
  O  O9  1  0.48265000  0.29291600  0.26383400  1
  O  O10  1  0.98265000  0.70708400  0.23616600  1
  O  O11  1  0.51735000  0.70708400  0.73616600  1
  O  O12  1  0.15551000  0.10095800  0.74899400  1
  O  O13  1  0.34449000  0.10095800  0.24899400  1
  O  O14  1  0.84449000  0.89904200  0.25100600  1
  O  O15  1  0.65551000  0.89904200  0.75100600  1
  O  O16  1  0.85101400  0.10573700  0.75398300  1
  O  O17  1  0.64898600  0.10573700  0.25398300  1
  O  O18  1  0.14898600  0.89426300  0.24601700  1
  O  O19  1  0.35101400  0.89426300  0.74601700  1
  O  O20  1  0.62951500  0.28671200  0.73817400  1
  O  O21  1  0.87048500  0.28671200  0.23817400  1
  O  O22  1  0.37048500  0.71328800  0.26182600  1
  O  O23  1  0.12951500  0.71328800  0.76182600  1
  O  O24  1  0.49638000  0.52804800  0.61496400  1
  O  O25  1  0.00362000  0.52804800  0.11496400  1
  O  O26  1  0.50362000  0.47195200  0.38503600  1
  O  O27  1  0.99638000  0.47195200  0.88503600  1
  O  O28  1  0.33086700  0.60520600  0.79957600  1
  O  O29  1  0.16913300  0.60520600  0.29957600  1
  O  O30  1  0.66913300  0.39479400  0.20042400  1
  O  O31  1  0.83086700  0.39479400  0.70042400  1
  O  O32  1  0.01423400  0.76056100  0.92336900  1
  O  O33  1  0.48576600  0.76056100  0.42336900  1
  O  O34  1  0.98576600  0.23943900  0.07663100  1
  O  O35  1  0.51423400  0.23943900  0.57663100  1
  O  O36  1  0.38081000  0.26045600  0.74231700  1
  O  O37  1  0.11919000  0.26045600  0.24231700  1
  O  O38  1  0.61919000  0.73954400  0.25768300  1
  O  O39  1  0.88081000  0.73954400  0.75768300  1
  O  O40  1  0.47196200  0.41947700  0.77760800  1
  O  O41  1  0.02803800  0.41947700  0.27760800  1
  O  O42  1  0.52803800  0.58052300  0.22239200  1
  O  O43  1  0.97196200  0.58052300  0.72239200  1
  O  O44  1  0.97465900  0.12705200  0.55571900  1
  O  O45  1  0.52534100  0.12705200  0.05571900  1
  O  O46  1  0.02534100  0.87294800  0.44428100  1
  O  O47  1  0.47465900  0.87294800  0.94428100  1
  O  O48  1  0.69256500  0.58205000  0.40841600  1
  O  O49  1  0.80743500  0.58205000  0.90841600  1
  O  O50  1  0.30743500  0.41795000  0.59158400  1
  O  O51  1  0.19256500  0.41795000  0.09158400  1
  O  O52  1  0.67685700  0.85039300  0.89889200  1
  O  O53  1  0.82314300  0.85039300  0.39889200  1
  O  O54  1  0.32314300  0.14960700  0.10110800  1
  O  O55  1  0.17685700  0.14960700  0.60110800  1
  O  O56  1  0.01071800  0.03696800  0.88921400  1
  O  O57  1  0.48928200  0.03696800  0.38921400  1
  O  O58  1  0.98928200  0.96303200  0.11078600  1
  O  O59  1  0.51071800  0.96303200  0.61078600  1
  O  O60  1  0.79346300  0.31346000  0.53029600  1
  O  O61  1  0.70653700  0.31346000  0.03029600  1
  O  O62  1  0.20653700  0.68654000  0.46970400  1
  O  O63  1  0.29346300  0.68654000  0.96970400  1
  O  O64  1  0.65342600  0.65503800  0.07711000  1
  O  O65  1  0.84657400  0.65503800  0.57711000  1
  O  O66  1  0.34657400  0.34496200  0.92289000  1
  O  O67  1  0.15342600  0.34496200  0.42289000  1
  O  O68  1  0.73360100  0.05239700  0.59244900  1
  O  O69  1  0.76639900  0.05239700  0.09244900  1
  O  O70  1  0.26639900  0.94760300  0.40755100  1
  O  O71  1  0.23360100  0.94760300  0.90755100  1
  O  O72  1  0.84465200  0.82935500  0.99328500  1
  O  O73  1  0.65534800  0.82935500  0.49328500  1
  O  O74  1  0.15534800  0.17064500  0.00671500  1
  O  O75  1  0.34465200  0.17064500  0.50671500  1
loop_
_geom_bond_atom_site_label_1
_geom_bond_atom_site_label_2
_geom_bond_distance
_geom_bond_site_symmetry_2
O0 Sb36 2.010242 1_565
O0 Sb31 2.077890 1_555
O0 Sr3 2.701972 1_555
O0 Sr7 2.744264 1_455
O1 Sb37 2.010242 1_565
O1 Sb30 2.077890 1_555
O1 Sr2 2.701972 1_555
O1 Sr6 2.744264 1_555
O2 Sb38 2.010242 1_545
O2 Sb29 2.077890 1_555
O2 Sr1 2.701972 1_555
O2 Sr5 2.744264 1_655
O3 Sb39 2.010242 1_545
O3 Sb28 2.077890 1_555
O3 Sr0 2.701972 1_555
O3 Sr4 2.744264 1_555
O4 Sb40 2.009287 1_555
O4 Sb4 2.038334 1_555
O4 Sr8 2.589188 1_555
O4 Sr0 2.872213 1_555
O5 Sb41 2.009287 1_554
O5 Sb5 2.038334 1_555
O5 Sr9 2.589188 1_655
O5 Sr1 2.872213 1_555
O6 Sb42 2.009287 1_555
O6 Sb6 2.038334 1_555
O6 Sr8 2.589188 1_555
O6 Sr2 2.872213 1_555
O7 Sb43 2.009287 1_556
O7 Sb7 2.038334 1_555
O7 Sr9 2.589188 1_556
O7 Sr3 2.872213 1_555
O8 Sb32 2.037560 1_455
O8 Sb8 2.195518 1_555
O8 Sb19 2.327099 1_455
O9 Sb33 2.037560 1_555
O9 Sb9 2.195518 1_555
O9 Sb18 2.327099 1_555
O10 Sb34 2.037560 1_655
O10 Sb10 2.195518 1_555
O10 Sb17 2.327099 1_655
O11 Sb35 2.037560 1_555
O11 Sb11 2.195518 1_555
O11 Sb16 2.327099 1_555
O12 Sb8 1.995161 1_555
O12 Sb36 2.218633 1_555
O12 Sr3 2.664140 1_545
O12 Sr4 2.733291 1_555
O13 Sb9 1.995161 1_555
O13 Sb37 2.218633 1_555
O13 Sr2 2.664140 1_545
O13 Sr5 2.733291 1_555
O14 Sb10 1.995161 1_555
O14 Sb38 2.218633 1_555
O14 Sr1 2.664140 1_565
O14 Sr6 2.733291 1_555
O15 Sb11 1.995161 1_555
O15 Sb39 2.218633 1_555
O15 Sr0 2.664140 1_565
O15 Sr7 2.733291 1_555
O16 Sb32 1.947014 1_555
O16 Sr7 2.495717 1_545
O16 Sr0 2.541242 1_555
O17 Sb33 1.947014 1_555
O17 Sr6 2.495717 1_545
O17 Sr1 2.541242 1_555
O18 Sb34 1.947014 1_555
O18 Sr5 2.495717 1_565
O18 Sr2 2.541242 1_555
O19 Sb35 1.947014 1_555
O19 Sr4 2.495717 1_565
O19 Sr3 2.541242 1_555
O20 Sb28 1.996932 1_555
O20 Sb4 2.040049 1_555
O20 Sr0 2.604026 1_555
O21 Sb29 1.996932 1_555
O21 Sb5 2.040049 1_555
O21 Sr1 2.604026 1_555
O22 Sb30 1.996932 1_555
O22 Sb6 2.040049 1_555
O22 Sr2 2.604026 1_555
O23 Sb31 1.996932 1_555
O23 Sb7 2.040049 1_555
O23 Sr3 2.604026 1_555
O24 Sb0 1.969267 1_555
O24 Sb4 2.163338 1_555
O24 Sr8 2.530730 1_555
O25 Sb1 1.969267 1_555
O25 Sb5 2.163338 1_455
O25 Sr9 2.530730 1_555
O26 Sb2 1.969267 1_555
O26 Sb6 2.163338 1_555
O26 Sr8 2.530730 1_555
O27 Sb3 1.969267 1_555
O27 Sb7 2.163338 1_655
O27 Sr9 2.530730 1_656
O28 Sb16 2.002113 1_555
O28 Sb35 2.145386 1_555
O28 Sb7 2.288636 1_555
O29 Sb17 2.002113 1_555
O29 Sb34 2.145386 1_555
O29 Sb6 2.288636 1_555
O30 Sb18 2.002113 1_555
O30 Sb33 2.145386 1_555
O30 Sb5 2.288636 1_555
O31 Sb19 2.002113 1_555
O31 Sb32 2.145386 1_555
O31 Sb4 2.288636 1_555
O32 Sb24 1.950087 1_555
O32 Sr7 2.539470 1_455
O32 Sr3 2.541461 1_555
O32 Sr9 2.569076 1_556
O33 Sb25 1.950087 1_555
O33 Sr6 2.539470 1_555
O33 Sr2 2.541461 1_555
O33 Sr8 2.569076 1_555
O34 Sb26 1.950087 1_555
O34 Sr5 2.539470 1_655
O34 Sr1 2.541461 1_555
O34 Sr9 2.569076 1_655
O35 Sb27 1.950087 1_555
O35 Sr4 2.539470 1_555
O35 Sr0 2.541461 1_555
O35 Sr8 2.569076 1_555
O36 Sb28 2.004398 1_555
O36 Sb0 2.014479 1_555
O36 Sr4 2.522238 1_555
O37 Sb29 2.004398 1_455
O37 Sb1 2.014479 1_555
O37 Sr5 2.522238 1_555
O38 Sb30 2.004398 1_555
O38 Sb2 2.014479 1_555
O38 Sr6 2.522238 1_555
O39 Sb31 2.004398 1_655
O39 Sb3 2.014479 1_555
O39 Sr7 2.522238 1_555
O40 Sb16 1.978807 1_555
O40 Sb0 2.214415 1_555
O40 Sb28 2.466612 1_555
O41 Sb17 1.978807 1_555
O41 Sb1 2.214415 1_555
O41 Sb29 2.466612 1_455
O42 Sb18 1.978807 1_555
O42 Sb2 2.214415 1_555
O42 Sb30 2.466612 1_555
O43 Sb19 1.978807 1_555
O43 Sb3 2.214415 1_555
O43 Sb31 2.466612 1_655
O44 Sb20 1.962952 1_555
O44 Sb36 2.264252 1_655
O44 Sb15 2.688370 1_655
O45 Sb21 1.962952 1_555
O45 Sb37 2.264252 1_555
O45 Sb14 2.688370 1_555
O46 Sb22 1.962952 1_555
O46 Sb38 2.264252 1_455
O46 Sb13 2.688370 1_455
O47 Sb23 1.962952 1_555
O47 Sb39 2.264252 1_555
O47 Sb12 2.688370 1_555
O48 Sb40 1.970649 1_555
O48 Sb2 2.226159 1_555
O48 Sr6 2.704084 1_555
O48 Sr8 2.803528 1_555
O49 Sb41 1.970649 1_555
O49 Sb3 2.226159 1_555
O49 Sr7 2.704084 1_555
O49 Sr9 2.803528 1_656
O50 Sb42 1.970649 1_555
O50 Sb0 2.226159 1_555
O50 Sr4 2.704084 1_555
O50 Sr8 2.803528 1_555
O51 Sb43 1.970649 1_555
O51 Sb1 2.226159 1_555
O51 Sr5 2.704084 1_555
O51 Sr9 2.803528 1_555
O52 Sb12 1.993649 1_555
O52 Sb39 2.045944 1_555
O52 Sr7 2.511539 1_555
O53 Sb13 1.993649 1_555
O53 Sb38 2.045944 1_555
O53 Sr6 2.511539 1_555
O54 Sb14 1.993649 1_555
O54 Sb37 2.045944 1_555
O54 Sr5 2.511539 1_555
O55 Sb15 1.993649 1_555
O55 Sb36 2.045944 1_555
O55 Sr4 2.511539 1_555
O56 Sb8 2.054810 1_555
O56 Sb24 2.072289 1_545
O56 Sb32 2.406806 1_455
O57 Sb9 2.054810 1_555
O57 Sb25 2.072289 1_545
O57 Sb33 2.406806 1_555
O58 Sb10 2.054810 1_555
O58 Sb26 2.072289 1_565
O58 Sb34 2.406806 1_655
O59 Sb11 2.054810 1_555
O59 Sb27 2.072289 1_565
O59 Sb35 2.406806 1_555
O60 Sb40 1.997975 1_555
O60 Sb20 2.015957 1_555
O60 Sr0 2.655194 1_555
O61 Sb41 1.997975 1_554
O61 Sb21 2.015957 1_555
O61 Sr1 2.655194 1_555
O62 Sb42 1.997975 1_555
O62 Sb22 2.015957 1_555
O62 Sr2 2.655194 1_555
O63 Sb43 1.997975 1_556
O63 Sb23 2.015957 1_555
O63 Sr3 2.655194 1_555
O64 Sb12 1.966202 1_554
O64 Sb18 2.128073 1_555
O65 Sb13 1.966202 1_555
O65 Sb19 2.128073 1_555
O66 Sb14 1.966202 1_556
O66 Sb16 2.128073 1_555
O67 Sb15 1.966202 1_555
O67 Sb17 2.128073 1_555
O68 Sb20 1.968654 1_555
O68 Sb11 2.204834 1_545
O68 Sr0 2.637632 1_555
O69 Sb21 1.968654 1_555
O69 Sb10 2.204834 1_545
O69 Sr1 2.637632 1_555
O70 Sb22 1.968654 1_555
O70 Sb9 2.204834 1_565
O70 Sr2 2.637632 1_555
O71 Sb23 1.968654 1_555
O71 Sb8 2.204834 1_565
O71 Sr3 2.637632 1_555
O72 Sb24 2.001669 1_655
O72 Sb12 2.027846 1_555
O72 Sr7 3.145749 1_555
O73 Sb25 2.001669 1_555
O73 Sb13 2.027846 1_555
O73 Sr6 3.145749 1_555
O74 Sb26 2.001669 1_455
O74 Sb14 2.027846 1_555
O74 Sr5 3.145749 1_555
O75 Sb27 2.001669 1_555
O75 Sb15 2.027846 1_555
O75 Sr4 3.145749 1_555
