# generated using pymatgen
data_K3VSe4
_symmetry_space_group_name_H-M   'P 1'
_cell_length_a   8.16426716
_cell_length_b   8.16426716
_cell_length_c   8.16426716
_cell_angle_alpha   129.17028381
_cell_angle_beta   129.17028381
_cell_angle_gamma   74.73673384
_symmetry_Int_Tables_number   1
_chemical_formula_structural   K3VSe4
_chemical_formula_sum   'K3 V1 Se4'
_cell_volume   318.63942228
_cell_formula_units_Z   1
loop_
 _symmetry_equiv_pos_site_id
 _symmetry_equiv_pos_as_xyz
  1  'x, y, z'
loop_
 _atom_site_type_symbol
 _atom_site_label
 _atom_site_symmetry_multiplicity
 _atom_site_fract_x
 _atom_site_fract_y
 _atom_site_fract_z
 _atom_site_occupancy
  K  K0  1  0.50000000  0.50000000  0.00000000  1
  K  K1  1  0.75000000  0.25000000  0.50000000  1
  K  K2  1  0.25000000  0.75000000  0.50000000  1
  V  V0  1  -0.00000000  0.00000000  0.00000000  1
  Se  Se0  1  0.28921586  0.90979079  -0.00000000  1
  Se  Se1  1  0.90979079  0.28921586  -0.00000000  1
  Se  Se2  1  0.71078414  0.71078414  0.62057493  1
  Se  Se3  1  0.09020921  0.09020921  0.37942507  1
loop_
_geom_bond_atom_site_label_1
_geom_bond_atom_site_label_2
_geom_bond_distance
_geom_bond_site_symmetry_2
K0 Se2 3.335180 1_555
K0 Se0 3.335180 1_555
K0 Se3 3.335180 1_554
K0 Se1 3.335180 1_555
K1 Se1 3.210875 1_556
K1 Se0 3.210875 1_545
K1 Se3 3.210875 1_655
K1 Se2 3.210875 1_555
K2 Se1 3.210875 1_455
K2 Se0 3.210875 1_556
K2 Se2 3.210875 1_555
K2 Se3 3.210875 1_565
Se0 V0 2.280842 1_565
Se1 V0 2.280842 1_655
Se2 V0 2.280842 1_666
Se3 V0 2.280842 1_555
