# generated using pymatgen
data_Rb2Fe2(PO4)3
_symmetry_space_group_name_H-M   'P 1'
_cell_length_a   10.09973200
_cell_length_b   10.09973200
_cell_length_c   10.09973200
_cell_angle_alpha   90.00000000
_cell_angle_beta   90.00000000
_cell_angle_gamma   90.00000000
_symmetry_Int_Tables_number   1
_chemical_formula_structural   Rb2Fe2(PO4)3
_chemical_formula_sum   'Rb8 Fe8 P12 O48'
_cell_volume   1030.21898614
_cell_formula_units_Z   4
loop_
 _symmetry_equiv_pos_site_id
 _symmetry_equiv_pos_as_xyz
  1  'x, y, z'
loop_
 _atom_site_type_symbol
 _atom_site_label
 _atom_site_symmetry_multiplicity
 _atom_site_fract_x
 _atom_site_fract_y
 _atom_site_fract_z
 _atom_site_occupancy
  Rb  Rb0  1  0.04099800  0.04099800  0.04099800  1
  Rb  Rb1  1  0.45900200  0.95900200  0.54099800  1
  Rb  Rb2  1  0.95900200  0.54099800  0.45900200  1
  Rb  Rb3  1  0.54099800  0.45900200  0.95900200  1
  Rb  Rb4  1  0.81658600  0.81658600  0.81658600  1
  Rb  Rb5  1  0.68341400  0.18341400  0.31658600  1
  Rb  Rb6  1  0.18341400  0.31658600  0.68341400  1
  Rb  Rb7  1  0.31658600  0.68341400  0.18341400  1
  Fe  Fe0  1  0.60484900  0.60484900  0.60484900  1
  Fe  Fe1  1  0.89515100  0.39515100  0.10484900  1
  Fe  Fe2  1  0.39515100  0.10484900  0.89515100  1
  Fe  Fe3  1  0.10484900  0.89515100  0.39515100  1
  Fe  Fe4  1  0.33838100  0.33838100  0.33838100  1
  Fe  Fe5  1  0.16161900  0.66161900  0.83838100  1
  Fe  Fe6  1  0.66161900  0.83838100  0.16161900  1
  Fe  Fe7  1  0.83838100  0.16161900  0.66161900  1
  P  P0  1  0.02529400  0.20886400  0.37533700  1
  P  P1  1  0.47470600  0.79113600  0.87533700  1
  P  P2  1  0.97470600  0.70886400  0.12466300  1
  P  P3  1  0.37533700  0.02529400  0.20886400  1
  P  P4  1  0.52529400  0.29113600  0.62466300  1
  P  P5  1  0.87533700  0.47470600  0.79113600  1
  P  P6  1  0.12466300  0.97470600  0.70886400  1
  P  P7  1  0.62466300  0.52529400  0.29113600  1
  P  P8  1  0.20886400  0.37533700  0.02529400  1
  P  P9  1  0.70886400  0.12466300  0.97470600  1
  P  P10  1  0.29113600  0.62466300  0.52529400  1
  P  P11  1  0.79113600  0.87533700  0.47470600  1
  O  O0  1  0.01706200  0.06221800  0.33011900  1
  O  O1  1  0.48293800  0.93778200  0.83011900  1
  O  O2  1  0.98293800  0.56221800  0.16988100  1
  O  O3  1  0.33011900  0.01706200  0.06221800  1
  O  O4  1  0.51706200  0.43778200  0.66988100  1
  O  O5  1  0.83011900  0.48293800  0.93778200  1
  O  O6  1  0.16988100  0.98293800  0.56221800  1
  O  O7  1  0.66988100  0.51706200  0.43778200  1
  O  O8  1  0.06221800  0.33011900  0.01706200  1
  O  O9  1  0.56221800  0.16988100  0.98293800  1
  O  O10  1  0.43778200  0.66988100  0.51706200  1
  O  O11  1  0.93778200  0.83011900  0.48293800  1
  O  O12  1  0.17060600  0.24954300  0.39864600  1
  O  O13  1  0.32939400  0.75045700  0.89864600  1
  O  O14  1  0.82939400  0.74954300  0.10135400  1
  O  O15  1  0.39864600  0.17060600  0.24954300  1
  O  O16  1  0.67060600  0.25045700  0.60135400  1
  O  O17  1  0.89864600  0.32939400  0.75045700  1
  O  O18  1  0.10135400  0.82939400  0.74954300  1
  O  O19  1  0.60135400  0.67060600  0.25045700  1
  O  O20  1  0.24954300  0.39864600  0.17060600  1
  O  O21  1  0.74954300  0.10135400  0.82939400  1
  O  O22  1  0.25045700  0.60135400  0.67060600  1
  O  O23  1  0.75045700  0.89864600  0.32939400  1
  O  O24  1  0.04290400  0.79762000  0.22920200  1
  O  O25  1  0.45709600  0.20238000  0.72920200  1
  O  O26  1  0.95709600  0.29762000  0.27079800  1
  O  O27  1  0.22920200  0.04290400  0.79762000  1
  O  O28  1  0.54290400  0.70238000  0.77079800  1
  O  O29  1  0.72920200  0.45709600  0.20238000  1
  O  O30  1  0.27079800  0.95709600  0.29762000  1
  O  O31  1  0.77079800  0.54290400  0.70238000  1
  O  O32  1  0.79762000  0.22920200  0.04290400  1
  O  O33  1  0.29762000  0.27079800  0.95709600  1
  O  O34  1  0.70238000  0.77079800  0.54290400  1
  O  O35  1  0.20238000  0.72920200  0.45709600  1
  O  O36  1  0.27079900  0.49316300  0.44809500  1
  O  O37  1  0.22920100  0.50683700  0.94809500  1
  O  O38  1  0.72920100  0.99316300  0.05190500  1
  O  O39  1  0.44809500  0.27079900  0.49316300  1
  O  O40  1  0.77079900  0.00683700  0.55190500  1
  O  O41  1  0.94809500  0.22920100  0.50683700  1
  O  O42  1  0.05190500  0.72920100  0.99316300  1
  O  O43  1  0.55190500  0.77079900  0.00683700  1
  O  O44  1  0.49316300  0.44809500  0.27079900  1
  O  O45  1  0.99316300  0.05190500  0.72920100  1
  O  O46  1  0.00683700  0.55190500  0.77079900  1
  O  O47  1  0.50683700  0.94809500  0.22920100  1
loop_
_geom_bond_atom_site_label_1
_geom_bond_atom_site_label_2
_geom_bond_distance
_geom_bond_site_symmetry_2
Fe0 O10 2.016082 1_555
Fe0 O7 2.016082 1_555
Fe0 O4 2.016082 1_555
Fe0 O28 2.042258 1_555
Fe0 O34 2.042258 1_555
Fe0 O31 2.042258 1_555
Fe1 O5 2.016082 1_554
Fe1 O2 2.016082 1_555
Fe1 O8 2.016082 1_655
Fe1 O26 2.042258 1_555
Fe1 O32 2.042258 1_555
Fe1 O29 2.042258 1_555
Fe2 O9 2.016082 1_555
Fe2 O1 2.016082 1_545
Fe2 O3 2.016082 1_556
Fe2 O33 2.042258 1_555
Fe2 O27 2.042258 1_555
Fe2 O25 2.042258 1_555
Fe3 O6 2.016082 1_555
Fe3 O11 2.016082 1_455
Fe3 O0 2.016082 1_565
Fe3 O30 2.042258 1_555
Fe3 O24 2.042258 1_555
Fe3 O35 2.042258 1_555
Fe4 O15 2.011661 1_555
Fe4 O20 2.011661 1_555
Fe4 O12 2.011661 1_555
Fe4 O39 2.034086 1_555
Fe4 O36 2.034086 1_555
Fe4 O44 2.034086 1_555
Fe5 O22 2.011661 1_555
Fe5 O13 2.011661 1_555
Fe5 O18 2.011661 1_555
Fe5 O37 2.034086 1_555
Fe5 O46 2.034086 1_555
Fe5 O42 2.034086 1_555
Fe6 O19 2.011661 1_555
Fe6 O23 2.011661 1_555
Fe6 O14 2.011661 1_555
Fe6 O47 2.034086 1_555
Fe6 O43 2.034086 1_555
Fe6 O38 2.034086 1_555
Fe7 O16 2.011661 1_555
Fe7 O17 2.011661 1_555
Fe7 O21 2.011661 1_555
Fe7 O41 2.034086 1_555
Fe7 O40 2.034086 1_555
Fe7 O45 2.034086 1_555
O0 P0 1.552125 1_555
O0 Rb0 2.937862 1_555
O1 P1 1.552125 1_555
O1 Rb1 2.937862 1_555
O2 P2 1.552125 1_555
O2 Rb2 2.937862 1_555
O3 P3 1.552125 1_555
O3 Rb0 2.937862 1_555
O4 P4 1.552125 1_555
O4 Rb3 2.937862 1_555
O5 P5 1.552125 1_555
O5 Rb3 2.937862 1_555
O6 P6 1.552125 1_555
O6 Rb1 2.937862 1_555
O7 P7 1.552125 1_555
O7 Rb2 2.937862 1_555
O8 P8 1.552125 1_555
O8 Rb0 2.937862 1_555
O9 P9 1.552125 1_555
O9 Rb3 2.937862 1_555
O10 P10 1.552125 1_555
O10 Rb1 2.937862 1_555
O11 P11 1.552125 1_555
O11 Rb2 2.937862 1_555
O12 P0 1.542109 1_555
O12 Rb6 2.957543 1_555
O13 P1 1.542109 1_555
O13 Rb7 2.957543 1_556
O14 P2 1.542109 1_555
O14 Rb4 2.957543 1_554
O15 P3 1.542109 1_555
O15 Rb5 2.957543 1_555
O16 P4 1.542109 1_555
O16 Rb5 2.957543 1_555
O17 P5 1.542109 1_555
O17 Rb6 2.957543 1_655
O18 P6 1.542109 1_555
O18 Rb4 2.957543 1_455
O19 P7 1.542109 1_555
O19 Rb7 2.957543 1_555
O20 P8 1.542109 1_555
O20 Rb7 2.957543 1_555
O21 P9 1.542109 1_555
O21 Rb4 2.957543 1_545
O22 P10 1.542109 1_555
O22 Rb6 2.957543 1_555
O23 P11 1.542109 1_555
O23 Rb5 2.957543 1_565
O24 P2 1.546842 1_455
O24 Rb7 3.030616 1_555
O24 Rb0 3.107325 1_565
O25 P4 1.546842 1_555
O25 Rb6 3.030616 1_555
O25 Rb1 3.107325 1_545
O26 P0 1.546842 1_655
O26 Rb5 3.030616 1_555
O26 Rb2 3.107325 1_555
O27 P6 1.546842 1_545
O27 Rb6 3.030616 1_555
O27 Rb0 3.107325 1_556
O28 P1 1.546842 1_555
O28 Rb4 3.030616 1_555
O28 Rb3 3.107325 1_555
O29 P7 1.546842 1_555
O29 Rb5 3.030616 1_555
O29 Rb3 3.107325 1_554
O30 P3 1.546842 1_565
O30 Rb7 3.030616 1_555
O30 Rb1 3.107325 1_555
O31 P5 1.546842 1_555
O31 Rb4 3.030616 1_555
O31 Rb2 3.107325 1_555
O32 P9 1.546842 1_554
O32 Rb5 3.030616 1_555
O32 Rb0 3.107325 1_655
O33 P8 1.546842 1_556
O33 Rb6 3.030616 1_555
O33 Rb3 3.107325 1_555
O34 P11 1.546842 1_555
O34 Rb4 3.030616 1_555
O34 Rb1 3.107325 1_555
O35 P10 1.546842 1_555
O35 Rb7 3.030616 1_555
O35 Rb2 3.107325 1_455
O36 P10 1.553703 1_555
O36 Rb6 3.099657 1_555
O36 Rb2 3.187814 1_455
O36 Rb7 3.324453 1_555
O37 P8 1.553703 1_556
O37 Rb7 3.099657 1_556
O37 Rb3 3.187814 1_555
O37 Rb6 3.324453 1_555
O38 P9 1.553703 1_564
O38 Rb4 3.099657 1_554
O38 Rb0 3.187814 1_665
O38 Rb5 3.324453 1_565
O39 P4 1.553703 1_555
O39 Rb5 3.099657 1_555
O39 Rb1 3.187814 1_545
O39 Rb6 3.324453 1_555
O40 P11 1.553703 1_545
O40 Rb5 3.099657 1_555
O40 Rb1 3.187814 1_545
O40 Rb4 3.324453 1_545
O41 P0 1.553703 1_655
O41 Rb6 3.099657 1_655
O41 Rb2 3.187814 1_555
O41 Rb5 3.324453 1_555
O42 P2 1.553703 1_456
O42 Rb4 3.099657 1_455
O42 Rb0 3.187814 1_566
O42 Rb7 3.324453 1_556
O43 P1 1.553703 1_554
O43 Rb7 3.099657 1_555
O43 Rb3 3.187814 1_554
O43 Rb4 3.324453 1_554
O44 P7 1.553703 1_555
O44 Rb7 3.099657 1_555
O44 Rb3 3.187814 1_554
O44 Rb5 3.324453 1_555
O45 P6 1.553703 1_645
O45 Rb4 3.099657 1_545
O45 Rb0 3.187814 1_656
O45 Rb6 3.324453 1_655
O46 P5 1.553703 1_455
O46 Rb6 3.099657 1_555
O46 Rb2 3.187814 1_455
O46 Rb4 3.324453 1_455
O47 P3 1.553703 1_565
O47 Rb5 3.099657 1_565
O47 Rb1 3.187814 1_555
O47 Rb7 3.324453 1_555
