# generated using pymatgen
data_Co(C2O3)2
_symmetry_space_group_name_H-M   'P 1'
_cell_length_a   7.60868700
_cell_length_b   7.60868700
_cell_length_c   7.17946424
_cell_angle_alpha   62.32805152
_cell_angle_beta   62.32805152
_cell_angle_gamma   54.36964000
_symmetry_Int_Tables_number   1
_chemical_formula_structural   Co(C2O3)2
_chemical_formula_sum   'Co2 C8 O12'
_cell_volume   288.12952252
_cell_formula_units_Z   2
loop_
 _symmetry_equiv_pos_site_id
 _symmetry_equiv_pos_as_xyz
  1  'x, y, z'
loop_
 _atom_site_type_symbol
 _atom_site_label
 _atom_site_symmetry_multiplicity
 _atom_site_fract_x
 _atom_site_fract_y
 _atom_site_fract_z
 _atom_site_occupancy
  Co  Co0  1  0.00000000  0.50000000  0.00000000  1
  Co  Co1  1  0.50000000  0.00000000  0.50000000  1
  C  C0  1  0.03685000  0.24873400  0.44098800  1
  C  C1  1  0.75126600  0.96315000  0.05901200  1
  C  C2  1  0.96315000  0.75126600  0.55901200  1
  C  C3  1  0.24873400  0.03685000  0.94098800  1
  C  C4  1  0.92373700  0.16255500  0.65878400  1
  C  C5  1  0.83744500  0.07626300  0.84121600  1
  C  C6  1  0.07626300  0.83744500  0.34121600  1
  C  C7  1  0.16255500  0.92373700  0.15878400  1
  O  O0  1  0.92016800  0.35385100  0.30488200  1
  O  O1  1  0.64614900  0.07983200  0.19511800  1
  O  O2  1  0.07983200  0.64614900  0.69511800  1
  O  O3  1  0.35385100  0.92016800  0.80488200  1
  O  O4  1  0.23213100  0.22488000  0.39059700  1
  O  O5  1  0.77512000  0.76786900  0.10940300  1
  O  O6  1  0.76786900  0.77512000  0.60940300  1
  O  O7  1  0.22488000  0.23213100  0.89059700  1
  O  O8  1  0.78731100  0.48312300  0.98511900  1
  O  O9  1  0.51687700  0.21268900  0.51488100  1
  O  O10  1  0.21268900  0.51687700  0.01488100  1
  O  O11  1  0.48312300  0.78731100  0.48511900  1
loop_
_geom_bond_atom_site_label_1
_geom_bond_atom_site_label_2
_geom_bond_distance
_geom_bond_site_symmetry_2
Co0 O10 1.749912 1_555
Co0 O8 1.749912 1_454
Co0 O2 1.920416 1_554
Co0 O0 1.920416 1_455
Co0 O5 1.968273 1_455
Co0 O7 1.968273 1_554
Co1 O11 1.749912 1_545
Co1 O9 1.749912 1_555
Co1 O1 1.920416 1_555
Co1 O3 1.920416 1_545
Co1 O4 1.968273 1_555
Co1 O6 1.968273 1_545
C0 O4 1.272411 1_555
C0 O0 1.278785 1_455
C0 C4 1.439068 1_455
C1 O5 1.272411 1_555
C1 O1 1.278785 1_565
C1 C5 1.439068 1_564
C2 O6 1.272411 1_555
C2 O2 1.278785 1_655
C2 C6 1.439068 1_655
C3 O7 1.272411 1_555
C3 O3 1.278785 1_545
C3 C7 1.439068 1_546
C4 C5 1.217552 1_555
C6 C7 1.217552 1_555
