# generated using pymatgen
data_K2Rb4Fe2O5
_symmetry_space_group_name_H-M   'P 1'
_cell_length_a   6.97757748
_cell_length_b   6.99724387
_cell_length_c   12.03509900
_cell_angle_alpha   89.99911434
_cell_angle_beta   89.99963859
_cell_angle_gamma   90.09763847
_symmetry_Int_Tables_number   1
_chemical_formula_structural   K2Rb4Fe2O5
_chemical_formula_sum   'K4 Rb8 Fe4 O10'
_cell_volume   587.59854885
_cell_formula_units_Z   2
loop_
 _symmetry_equiv_pos_site_id
 _symmetry_equiv_pos_as_xyz
  1  'x, y, z'
loop_
 _atom_site_type_symbol
 _atom_site_label
 _atom_site_symmetry_multiplicity
 _atom_site_fract_x
 _atom_site_fract_y
 _atom_site_fract_z
 _atom_site_occupancy
  K  K0  1  0.49999900  0.49997900  0.72291000  1
  K  K1  1  0.50000500  0.00002200  0.22291300  1
  K  K2  1  0.49999300  0.49998000  0.27708900  1
  K  K3  1  0.50000300  0.00001900  0.77708300  1
  Rb  Rb0  1  0.00000700  0.49998400  0.74172000  1
  Rb  Rb1  1  0.99999100  0.00000700  0.24172000  1
  Rb  Rb2  1  0.00000700  0.49999300  0.25828200  1
  Rb  Rb3  1  0.99999000  0.00000200  0.75827600  1
  Rb  Rb4  1  0.68373400  0.33562500  0.99999800  1
  Rb  Rb5  1  0.68376600  0.83564500  0.49999900  1
  Rb  Rb6  1  0.31624600  0.66435100  0.99999500  1
  Rb  Rb7  1  0.31626000  0.16435700  0.50000100  1
  Fe  Fe0  1  0.80480100  0.30200900  0.49999200  1
  Fe  Fe1  1  0.19516800  0.19802600  0.99998400  1
  Fe  Fe2  1  0.80479700  0.80200600  0.00000300  1
  Fe  Fe3  1  0.19522500  0.69798400  0.50000600  1
  O  O0  1  0.00001400  0.00001000  0.99999900  1
  O  O1  1  0.99999800  0.49999900  0.49999600  1
  O  O2  1  0.71228700  0.70367700  0.13692800  1
  O  O3  1  0.71231000  0.20367500  0.63690800  1
  O  O4  1  0.28768800  0.29632700  0.86308500  1
  O  O5  1  0.28767300  0.79633600  0.36308800  1
  O  O6  1  0.28768800  0.29634700  0.13691800  1
  O  O7  1  0.28771800  0.79630200  0.63691500  1
  O  O8  1  0.71231800  0.70367200  0.86309900  1
  O  O9  1  0.71231400  0.20366500  0.36309000  1
loop_
_geom_bond_atom_site_label_1
_geom_bond_atom_site_label_2
_geom_bond_distance
_geom_bond_site_symmetry_2
K0 O4 2.657812 1_555
K0 O8 2.658143 1_555
K0 O7 2.752218 1_555
K0 O3 2.752280 1_555
K1 O9 2.657825 1_555
K1 O5 2.658021 1_545
K1 O2 2.752310 1_545
K1 O6 2.752364 1_555
K2 O6 2.657727 1_555
K2 O2 2.657807 1_555
K2 O9 2.752354 1_555
K2 O5 2.752574 1_555
K3 O3 2.657811 1_555
K3 O7 2.657941 1_545
K3 O4 2.752316 1_555
K3 O8 2.752568 1_545
Fe0 O9 1.898211 1_555
Fe0 O3 1.898316 1_555
Fe0 O1 1.941110 1_555
Fe1 O4 1.898124 1_555
Fe1 O6 1.898566 1_556
Fe1 O0 1.941030 1_555
Fe2 O8 1.898188 1_554
Fe2 O2 1.898443 1_555
Fe2 O0 1.941278 1_664
Fe3 O7 1.898233 1_555
Fe3 O5 1.898281 1_555
Fe3 O1 1.941232 1_455
O0 Rb1 2.909136 1_456
O0 Rb3 2.909160 1_455
O0 Rb6 3.225335 1_545
O0 Rb4 3.225340 1_455
O1 Rb2 2.909052 1_655
O1 Rb0 2.909172 1_655
O1 Rb5 3.225269 1_555
O1 Rb7 3.225392 1_655
O2 Rb2 2.864348 1_655
O2 Rb4 3.063706 1_554
O2 Rb1 3.147355 1_565
O2 Rb6 3.228859 1_554
O3 Rb3 2.864200 1_555
O3 Rb5 3.063437 1_545
O3 Rb0 3.147324 1_655
O3 Rb7 3.228748 1_555
O4 Rb0 2.864130 1_555
O4 Rb6 3.063415 1_555
O4 Rb3 3.147387 1_455
O4 Rb4 3.228749 1_555
O5 Rb1 2.864202 1_465
O5 Rb7 3.063429 1_565
O5 Rb2 3.147314 1_555
O5 Rb5 3.229024 1_555
O6 Rb2 2.864095 1_555
O6 Rb6 3.063337 1_554
O6 Rb1 3.147382 1_455
O6 Rb4 3.228758 1_554
O7 Rb3 2.864495 1_465
O7 Rb7 3.063571 1_565
O7 Rb0 3.147358 1_555
O7 Rb5 3.228784 1_555
O8 Rb0 2.864373 1_655
O8 Rb4 3.063446 1_555
O8 Rb3 3.147327 1_565
O8 Rb6 3.228791 1_555
O9 Rb1 2.864154 1_555
O9 Rb5 3.063336 1_545
O9 Rb2 3.147338 1_655
O9 Rb7 3.228769 1_555
