# generated using pymatgen
data_Sr3TaCoO7
_symmetry_space_group_name_H-M   'P 1'
_cell_length_a   3.96903679
_cell_length_b   15.77238537
_cell_length_c   11.15673052
_cell_angle_alpha   100.17372555
_cell_angle_beta   79.68364475
_cell_angle_gamma   90.02369346
_symmetry_Int_Tables_number   1
_chemical_formula_structural   Sr3TaCoO7
_chemical_formula_sum   'Sr12 Ta4 Co4 O28'
_cell_volume   675.97815943
_cell_formula_units_Z   4
loop_
 _symmetry_equiv_pos_site_id
 _symmetry_equiv_pos_as_xyz
  1  'x, y, z'
loop_
 _atom_site_type_symbol
 _atom_site_label
 _atom_site_symmetry_multiplicity
 _atom_site_fract_x
 _atom_site_fract_y
 _atom_site_fract_z
 _atom_site_occupancy
  Sr  Sr0  1  0.51830500  0.37066100  0.95913800  1
  Sr  Sr1  1  0.52097800  0.61773800  0.96129200  1
  Sr  Sr2  1  0.52597600  0.87214900  0.95976800  1
  Sr  Sr3  1  0.52384400  0.11894900  0.96109600  1
  Sr  Sr4  1  0.30770700  0.17319200  0.38443400  1
  Sr  Sr5  1  0.30744000  0.42177000  0.38305300  1
  Sr  Sr6  1  0.30579000  0.67382600  0.38457600  1
  Sr  Sr7  1  0.30937700  0.92298900  0.38340300  1
  Sr  Sr8  1  0.67724400  0.32662600  0.63463100  1
  Sr  Sr9  1  0.68362400  0.57430800  0.63328700  1
  Sr  Sr10  1  0.68734500  0.83392100  0.63406800  1
  Sr  Sr11  1  0.68414600  0.08339100  0.63400500  1
  Ta  Ta0  1  0.90230100  0.27426200  0.19529000  1
  Ta  Ta1  1  0.90004600  0.52491100  0.19842000  1
  Ta  Ta2  1  0.90250100  0.77429600  0.19566000  1
  Ta  Ta3  1  0.90240900  0.02466100  0.19764200  1
  Co  Co0  1  0.12404600  0.72103400  0.78250700  1
  Co  Co1  1  0.11084100  0.97459000  0.78398600  1
  Co  Co2  1  0.10442200  0.22371000  0.79123600  1
  Co  Co3  1  0.10668600  0.47240700  0.78397600  1
  O  O0  1  0.20142700  0.19857500  0.60167300  1
  O  O1  1  0.19773600  0.45188800  0.60071500  1
  O  O2  1  0.17807800  0.70125300  0.60758000  1
  O  O3  1  0.20084800  0.94812200  0.60075400  1
  O  O4  1  0.80448900  0.29884900  0.38887400  1
  O  O5  1  0.80210800  0.54951700  0.39227100  1
  O  O6  1  0.80341400  0.79821200  0.39063700  1
  O  O7  1  0.80526900  0.04865400  0.39015700  1
  O  O8  1  0.99073900  0.25189400  0.01746600  1
  O  O9  1  0.98810400  0.50494600  0.02147500  1
  O  O10  1  0.98875500  0.75073300  0.01825800  1
  O  O11  1  0.99082500  0.00214000  0.02033700  1
  O  O12  1  0.59770000  0.22611400  0.80662800  1
  O  O13  1  0.59618400  0.47637900  0.80554200  1
  O  O14  1  0.58878100  0.72672800  0.80891400  1
  O  O15  1  0.60130600  0.97515300  0.80321200  1
  O  O16  1  0.09511700  0.35626500  0.80654900  1
  O  O17  1  0.09762700  0.59706900  0.80358900  1
  O  O18  1  0.10058200  0.85576500  0.80456200  1
  O  O19  1  0.09903300  0.09454700  0.80804200  1
  O  O20  1  0.39702800  0.27588500  0.20519000  1
  O  O21  1  0.39444600  0.52653800  0.20947700  1
  O  O22  1  0.39620800  0.77556500  0.20677400  1
  O  O23  1  0.39689800  0.02579800  0.20738500  1
  O  O24  1  0.89576300  0.15100200  0.20731100  1
  O  O25  1  0.89617800  0.40102300  0.20722600  1
  O  O26  1  0.89466700  0.65142900  0.21025800  1
  O  O27  1  0.89566100  0.90056600  0.20768100  1
loop_
_geom_bond_atom_site_label_1
_geom_bond_atom_site_label_2
_geom_bond_distance
_geom_bond_site_symmetry_2
Co0 O2 1.893984 1_555
Co0 O14 1.918954 1_555
Co0 O17 2.010640 1_555
Co0 O14 2.091635 1_455
Co0 O18 2.095759 1_555
Co0 O10 2.546542 1_456
Co1 O19 1.862822 1_565
Co1 O18 1.927533 1_555
Co1 O3 1.979397 1_555
Co1 O15 1.994997 1_455
Co1 O15 1.996120 1_555
Co1 O11 2.552351 1_466
Co2 O12 1.987437 1_455
Co2 O12 1.995524 1_555
Co2 O0 2.047073 1_555
Co2 O16 2.067181 1_555
Co2 O19 2.078293 1_555
Co2 O8 2.442871 1_456
Co3 O16 1.892067 1_555
Co3 O17 1.939184 1_555
Co3 O1 1.979242 1_555
Co3 O13 1.996866 1_455
Co3 O13 1.999607 1_555
Co3 O9 2.564959 1_456
O0 Sr4 2.345977 1_555
O0 Sr11 2.753782 1_555
O0 Sr11 2.758447 1_455
O0 Sr8 2.786405 1_555
O0 Sr8 2.830174 1_455
O1 Sr5 2.350807 1_555
O1 Sr9 2.741134 1_455
O1 Sr9 2.753081 1_555
O1 Sr8 2.862472 1_555
O1 Sr8 2.880101 1_455
O2 Sr6 2.408830 1_555
O2 Sr10 2.799695 1_455
O2 Sr9 2.817909 1_455
O2 Sr9 2.920554 1_555
O2 Sr10 2.922926 1_555
O3 Sr7 2.347210 1_555
O3 Sr10 2.738356 1_455
O3 Sr10 2.758159 1_555
O3 Sr11 2.888077 1_565
O3 Sr11 2.889092 1_465
O4 Ta0 2.090364 1_555
O4 Sr8 2.654163 1_555
O4 Sr5 2.782585 1_655
O4 Sr5 2.783611 1_555
O4 Sr4 2.795581 1_555
O4 Sr4 2.802276 1_655
O5 Ta1 2.093246 1_555
O5 Sr9 2.603903 1_555
O5 Sr6 2.800499 1_655
O5 Sr6 2.802725 1_555
O5 Sr5 2.814411 1_555
O5 Sr5 2.819453 1_655
O6 Ta2 2.105410 1_555
O6 Sr10 2.630065 1_555
O6 Sr6 2.781617 1_655
O6 Sr6 2.784281 1_555
O6 Sr7 2.800104 1_555
O6 Sr7 2.811985 1_655
O7 Ta3 2.078810 1_555
O7 Sr11 2.633986 1_555
O7 Sr7 2.793769 1_545
O7 Sr7 2.798921 1_645
O7 Sr4 2.799049 1_655
O7 Sr4 2.802691 1_555
O8 Ta0 1.920180 1_555
O8 Sr3 2.859153 1_554
O8 Sr0 2.873392 1_654
O8 Sr0 2.884287 1_554
O8 Sr3 2.886282 1_654
O9 Ta1 1.910983 1_555
O9 Sr1 2.814911 1_554
O9 Sr1 2.828271 1_654
O9 Sr0 2.890875 1_654
O9 Sr0 2.896092 1_554
O10 Ta2 1.915783 1_555
O10 Sr1 2.863487 1_554
O10 Sr1 2.884127 1_654
O10 Sr2 2.888008 1_554
O10 Sr2 2.929053 1_654
O11 Ta3 1.914582 1_555
O11 Sr2 2.831652 1_544
O11 Sr3 2.852752 1_554
O11 Sr2 2.858643 1_644
O11 Sr3 2.869302 1_654
O12 Sr0 2.574942 1_555
O12 Sr3 2.600098 1_555
O12 Sr11 2.669576 1_555
O12 Sr8 2.674404 1_555
O13 Sr1 2.554541 1_555
O13 Sr0 2.575197 1_555
O13 Sr9 2.647409 1_555
O13 Sr8 2.740100 1_555
O14 Sr2 2.577212 1_555
O14 Sr1 2.604953 1_555
O14 Sr10 2.776321 1_555
O14 Sr9 2.798730 1_555
O15 Sr2 2.567991 1_555
O15 Sr3 2.595467 1_565
O15 Sr10 2.631464 1_555
O15 Sr11 2.738986 1_565
O16 Sr0 2.580349 1_555
O16 Sr0 2.580493 1_455
O16 Sr8 2.707886 1_555
O16 Sr8 2.733170 1_455
O17 Sr1 2.606906 1_455
O17 Sr1 2.623192 1_555
O17 Sr9 2.704772 1_455
O17 Sr9 2.706552 1_555
O18 Sr2 2.587362 1_455
O18 Sr2 2.608564 1_555
O18 Sr10 2.704151 1_455
O18 Sr10 2.709817 1_555
O19 Sr3 2.578395 1_455
O19 Sr3 2.589473 1_555
O19 Sr11 2.731103 1_555
O19 Sr11 2.745356 1_455
O20 Ta0 1.986247 1_455
O20 Ta0 1.988563 1_555
O20 Sr5 2.737427 1_555
O20 Sr4 2.763715 1_555
O21 Ta1 1.987965 1_455
O21 Ta1 1.988256 1_555
O21 Sr6 2.736438 1_555
O21 Sr5 2.736873 1_555
O22 Ta2 1.985370 1_455
O22 Ta2 1.990920 1_555
O22 Sr6 2.740040 1_555
O22 Sr7 2.747262 1_555
O23 Ta3 1.984894 1_455
O23 Ta3 1.989717 1_555
O23 Sr7 2.736176 1_545
O23 Sr4 2.749468 1_555
O24 Ta0 1.972060 1_555
O24 Ta3 1.976428 1_555
O24 Sr4 2.753095 1_555
O24 Sr4 2.759210 1_655
O25 Ta1 1.973650 1_555
O25 Ta0 1.980011 1_555
O25 Sr5 2.745773 1_655
O25 Sr5 2.747277 1_555
O26 Ta2 1.972968 1_555
O26 Ta1 1.976311 1_555
O26 Sr6 2.731889 1_655
O26 Sr6 2.738590 1_555
O27 Ta2 1.972180 1_555
O27 Ta3 1.980028 1_565
O27 Sr7 2.739563 1_555
O27 Sr7 2.751819 1_655
