# generated using pymatgen
data_LiAlVO4
_symmetry_space_group_name_H-M   'P 1'
_cell_length_a   5.75424060
_cell_length_b   5.83093579
_cell_length_c   5.83111692
_cell_angle_alpha   119.08975272
_cell_angle_beta   119.57349895
_cell_angle_gamma   60.44073977
_symmetry_Int_Tables_number   1
_chemical_formula_structural   LiAlVO4
_chemical_formula_sum   'Li2 Al2 V2 O8'
_cell_volume   140.18984455
_cell_formula_units_Z   2
loop_
 _symmetry_equiv_pos_site_id
 _symmetry_equiv_pos_as_xyz
  1  'x, y, z'
loop_
 _atom_site_type_symbol
 _atom_site_label
 _atom_site_symmetry_multiplicity
 _atom_site_fract_x
 _atom_site_fract_y
 _atom_site_fract_z
 _atom_site_occupancy
  Li  Li0  1  0.13165600  0.12209300  0.38548900  1
  Li  Li1  1  0.86834400  0.87791100  0.61451900  1
  Al  Al0  1  0.99999400  0.50000800  0.00000100  1
  Al  Al1  1  0.49999600  0.50000500  0.99999600  1
  V  V0  1  0.50000500  0.00000300  0.00000900  1
  V  V1  1  0.50001000  0.49995800  0.49995200  1
  O  O0  1  0.73242600  0.29639400  0.76132100  1
  O  O1  1  0.25978300  0.27851600  0.79813100  1
  O  O2  1  0.74021300  0.72149300  0.20188200  1
  O  O3  1  0.26757300  0.70361000  0.23868400  1
  O  O4  1  0.71350200  0.25984000  0.23189700  1
  O  O5  1  0.25861900  0.25980600  0.23190800  1
  O  O6  1  0.74137700  0.74020000  0.76810200  1
  O  O7  1  0.28650300  0.74016300  0.76810800  1
loop_
_geom_bond_atom_site_label_1
_geom_bond_atom_site_label_2
_geom_bond_distance
_geom_bond_site_symmetry_2
Li0 O4 1.975439 1_455
Li0 O5 1.975961 1_555
Li0 O1 1.985833 1_555
Li0 O3 2.011363 1_545
Li1 O7 1.975461 1_655
Li1 O6 1.975980 1_555
Li1 O2 1.985808 1_555
Li1 O0 2.011363 1_565
Al0 O1 1.908435 1_654
Al0 O2 1.908444 1_555
Al0 O0 1.949056 1_554
Al0 O3 1.949058 1_655
Al0 O6 1.950240 1_554
Al0 O5 1.950314 1_655
Al1 O1 1.908196 1_555
Al1 O2 1.908200 1_556
Al1 O0 1.949175 1_555
Al1 O3 1.949206 1_556
Al1 O7 1.950044 1_555
Al1 O4 1.950125 1_556
O0 V1 1.923835 1_555
O1 V0 1.992904 1_556
O2 V0 1.992872 1_565
O3 V1 1.923732 1_555
O4 V0 1.959041 1_555
O4 V1 1.995749 1_555
O5 V0 1.959276 1_555
O5 V1 1.995278 1_555
O6 V0 1.959253 1_566
O6 V1 1.995597 1_555
O7 V0 1.959074 1_566
O7 V1 1.996254 1_555
