# generated using pymatgen
data_Fe2CuNiPt4
_symmetry_space_group_name_H-M   'P 1'
_cell_length_a   5.43985400
_cell_length_b   5.43985400
_cell_length_c   29.77397400
_cell_angle_alpha   90.00000000
_cell_angle_beta   90.00000000
_cell_angle_gamma   90.00000000
_symmetry_Int_Tables_number   1
_chemical_formula_structural   Fe2CuNiPt4
_chemical_formula_sum   'Fe16 Cu8 Ni8 Pt32'
_cell_volume   881.07178224
_cell_formula_units_Z   8
loop_
 _symmetry_equiv_pos_site_id
 _symmetry_equiv_pos_as_xyz
  1  'x, y, z'
loop_
 _atom_site_type_symbol
 _atom_site_label
 _atom_site_symmetry_multiplicity
 _atom_site_fract_x
 _atom_site_fract_y
 _atom_site_fract_z
 _atom_site_occupancy
  Fe  Fe0_0  1  0.00000000  0.00000000  0.24943800  1
  Fe  Fe0_1  1  0.00000000  0.00000000  0.74943800  1
  Fe  Fe0_2  1  0.00000000  0.50000000  0.24943800  1
  Fe  Fe0_3  1  0.00000000  0.50000000  0.74943800  1
  Fe  Fe0_4  1  0.50000000  0.00000000  0.24943800  1
  Fe  Fe0_5  1  0.50000000  0.00000000  0.74943800  1
  Fe  Fe0_6  1  0.50000000  0.50000000  0.24943800  1
  Fe  Fe0_7  1  0.50000000  0.50000000  0.74943800  1
  Fe  Fe1_0  1  0.00000000  0.00000000  0.37531950  1
  Fe  Fe1_1  1  0.00000000  0.00000000  0.87531950  1
  Fe  Fe1_2  1  0.00000000  0.50000000  0.37531950  1
  Fe  Fe1_3  1  0.00000000  0.50000000  0.87531950  1
  Fe  Fe1_4  1  0.50000000  0.00000000  0.37531950  1
  Fe  Fe1_5  1  0.50000000  0.00000000  0.87531950  1
  Fe  Fe1_6  1  0.50000000  0.50000000  0.37531950  1
  Fe  Fe1_7  1  0.50000000  0.50000000  0.87531950  1
  Cu  Cu0_0  1  0.00000000  0.00000000  0.00082100  1
  Cu  Cu0_1  1  0.00000000  0.00000000  0.50082100  1
  Cu  Cu0_2  1  0.00000000  0.50000000  0.00082100  1
  Cu  Cu0_3  1  0.00000000  0.50000000  0.50082100  1
  Cu  Cu0_4  1  0.50000000  0.00000000  0.00082100  1
  Cu  Cu0_5  1  0.50000000  0.00000000  0.50082100  1
  Cu  Cu0_6  1  0.50000000  0.50000000  0.00082100  1
  Cu  Cu0_7  1  0.50000000  0.50000000  0.50082100  1
  Ni  Ni0_0  1  0.00000000  0.00000000  0.12426950  1
  Ni  Ni0_1  1  0.00000000  0.00000000  0.62426950  1
  Ni  Ni0_2  1  0.00000000  0.50000000  0.12426950  1
  Ni  Ni0_3  1  0.00000000  0.50000000  0.62426950  1
  Ni  Ni0_4  1  0.50000000  0.00000000  0.12426950  1
  Ni  Ni0_5  1  0.50000000  0.00000000  0.62426950  1
  Ni  Ni0_6  1  0.50000000  0.50000000  0.12426950  1
  Ni  Ni0_7  1  0.50000000  0.50000000  0.62426950  1
  Pt  Pt0_0  1  0.25000000  0.25000000  0.06391100  1
  Pt  Pt0_1  1  0.25000000  0.25000000  0.56391100  1
  Pt  Pt0_2  1  0.25000000  0.75000000  0.06391100  1
  Pt  Pt0_3  1  0.25000000  0.75000000  0.56391100  1
  Pt  Pt0_4  1  0.75000000  0.25000000  0.06391100  1
  Pt  Pt0_5  1  0.75000000  0.25000000  0.56391100  1
  Pt  Pt0_6  1  0.75000000  0.75000000  0.06391100  1
  Pt  Pt0_7  1  0.75000000  0.75000000  0.56391100  1
  Pt  Pt1_0  1  0.25000000  0.25000000  0.18684150  1
  Pt  Pt1_1  1  0.25000000  0.25000000  0.68684150  1
  Pt  Pt1_2  1  0.25000000  0.75000000  0.18684150  1
  Pt  Pt1_3  1  0.25000000  0.75000000  0.68684150  1
  Pt  Pt1_4  1  0.75000000  0.25000000  0.18684150  1
  Pt  Pt1_5  1  0.75000000  0.25000000  0.68684150  1
  Pt  Pt1_6  1  0.75000000  0.75000000  0.18684150  1
  Pt  Pt1_7  1  0.75000000  0.75000000  0.68684150  1
  Pt  Pt2_0  1  0.25000000  0.25000000  0.31225050  1
  Pt  Pt2_1  1  0.25000000  0.25000000  0.81225050  1
  Pt  Pt2_2  1  0.25000000  0.75000000  0.31225050  1
  Pt  Pt2_3  1  0.25000000  0.75000000  0.81225050  1
  Pt  Pt2_4  1  0.75000000  0.25000000  0.31225050  1
  Pt  Pt2_5  1  0.75000000  0.25000000  0.81225050  1
  Pt  Pt2_6  1  0.75000000  0.75000000  0.31225050  1
  Pt  Pt2_7  1  0.75000000  0.75000000  0.81225050  1
  Pt  Pt3_0  1  0.25000000  0.25000000  0.43714950  1
  Pt  Pt3_1  1  0.25000000  0.25000000  0.93714950  1
  Pt  Pt3_2  1  0.25000000  0.75000000  0.43714950  1
  Pt  Pt3_3  1  0.25000000  0.75000000  0.93714950  1
  Pt  Pt3_4  1  0.75000000  0.25000000  0.43714950  1
  Pt  Pt3_5  1  0.75000000  0.25000000  0.93714950  1
  Pt  Pt3_6  1  0.75000000  0.75000000  0.43714950  1
  Pt  Pt3_7  1  0.75000000  0.75000000  0.93714950  1
loop_
_geom_bond_atom_site_label_1
_geom_bond_atom_site_label_2
_geom_bond_distance
_geom_bond_site_symmetry_2
Fe0_0 Pt1_2 2.678162 1_545
Fe0_0 Pt1_0 2.678162 1_555
Fe0_0 Pt1_4 2.678162 1_455
Fe0_0 Pt1_6 2.678162 1_445
Fe0_0 Pt2_2 2.682642 1_545
Fe0_0 Pt2_6 2.682642 1_445
Fe0_0 Pt2_0 2.682642 1_555
Fe0_0 Pt2_4 2.682642 1_455
Fe0_0 Fe0_2 2.719927 1_555
Fe0_0 Fe0_4 2.719927 1_455
Fe0_0 Fe0_4 2.719927 1_555
Fe0_0 Fe0_2 2.719927 1_545
Fe0_1 Pt1_1 2.678162 1_555
Fe0_1 Pt1_5 2.678162 1_455
Fe0_1 Pt1_7 2.678162 1_445
Fe0_1 Pt1_3 2.678162 1_545
Fe0_1 Pt2_5 2.682642 1_455
Fe0_1 Pt2_3 2.682642 1_545
Fe0_1 Pt2_7 2.682642 1_445
Fe0_1 Pt2_1 2.682642 1_555
Fe0_1 Fe0_5 2.719927 1_555
Fe0_1 Fe0_5 2.719927 1_455
Fe0_1 Fe0_3 2.719927 1_545
Fe0_1 Fe0_3 2.719927 1_555
Fe0_2 Pt1_2 2.678162 1_555
Fe0_2 Pt1_0 2.678162 1_555
Fe0_2 Pt1_4 2.678162 1_455
Fe0_2 Pt1_6 2.678162 1_455
Fe0_2 Pt2_2 2.682642 1_555
Fe0_2 Pt2_6 2.682642 1_455
Fe0_2 Pt2_0 2.682642 1_555
Fe0_2 Pt2_4 2.682642 1_455
Fe0_2 Fe0_6 2.719927 1_455
Fe0_2 Fe0_6 2.719927 1_555
Fe0_3 Pt1_7 2.678162 1_455
Fe0_3 Pt1_3 2.678162 1_555
Fe0_3 Pt1_1 2.678162 1_555
Fe0_3 Pt1_5 2.678162 1_455
Fe0_3 Pt2_5 2.682642 1_455
Fe0_3 Pt2_3 2.682642 1_555
Fe0_3 Pt2_7 2.682642 1_455
Fe0_3 Pt2_1 2.682642 1_555
Fe0_3 Fe0_7 2.719927 1_555
Fe0_3 Fe0_7 2.719927 1_455
Fe0_4 Pt1_2 2.678162 1_545
Fe0_4 Pt1_0 2.678162 1_555
Fe0_4 Pt1_4 2.678162 1_555
Fe0_4 Pt1_6 2.678162 1_545
Fe0_4 Pt2_2 2.682642 1_545
Fe0_4 Pt2_0 2.682642 1_555
Fe0_4 Pt2_6 2.682642 1_545
Fe0_4 Pt2_4 2.682642 1_555
Fe0_4 Fe0_6 2.719927 1_545
Fe0_4 Fe0_6 2.719927 1_555
Fe0_5 Pt1_1 2.678162 1_555
Fe0_5 Pt1_7 2.678162 1_545
Fe0_5 Pt1_5 2.678162 1_555
Fe0_5 Pt1_3 2.678162 1_545
Fe0_5 Pt2_5 2.682642 1_555
Fe0_5 Pt2_3 2.682642 1_545
Fe0_5 Pt2_7 2.682642 1_545
Fe0_5 Pt2_1 2.682642 1_555
Fe0_5 Fe0_7 2.719927 1_555
Fe0_5 Fe0_7 2.719927 1_545
Fe0_6 Pt1_2 2.678162 1_555
Fe0_6 Pt1_6 2.678162 1_555
Fe0_6 Pt1_0 2.678162 1_555
Fe0_6 Pt1_4 2.678162 1_555
Fe0_6 Pt2_2 2.682642 1_555
Fe0_6 Pt2_6 2.682642 1_555
Fe0_6 Pt2_0 2.682642 1_555
Fe0_6 Pt2_4 2.682642 1_555
Fe0_7 Pt1_3 2.678162 1_555
Fe0_7 Pt1_1 2.678162 1_555
Fe0_7 Pt1_7 2.678162 1_555
Fe0_7 Pt1_5 2.678162 1_555
Fe0_7 Pt2_5 2.682642 1_555
Fe0_7 Pt2_3 2.682642 1_555
Fe0_7 Pt2_7 2.682642 1_555
Fe0_7 Pt2_1 2.682642 1_555
Fe1_0 Pt3_0 2.662331 1_555
Fe1_0 Pt3_4 2.662331 1_455
Fe1_0 Pt3_2 2.662331 1_545
Fe1_0 Pt3_6 2.662331 1_445
Fe1_0 Pt2_2 2.687971 1_545
Fe1_0 Pt2_6 2.687971 1_445
Fe1_0 Pt2_0 2.687971 1_555
Fe1_0 Pt2_4 2.687971 1_455
Fe1_0 Fe1_4 2.719927 1_455
Fe1_0 Fe1_4 2.719927 1_555
Fe1_0 Fe1_2 2.719927 1_545
Fe1_0 Fe1_2 2.719927 1_555
Fe1_1 Pt3_3 2.662331 1_545
Fe1_1 Pt3_5 2.662331 1_455
Fe1_1 Pt3_1 2.662331 1_555
Fe1_1 Pt3_7 2.662331 1_445
Fe1_1 Pt2_7 2.687971 1_445
Fe1_1 Pt2_3 2.687971 1_545
Fe1_1 Pt2_1 2.687971 1_555
Fe1_1 Pt2_5 2.687971 1_455
Fe1_1 Fe1_5 2.719927 1_455
Fe1_1 Fe1_3 2.719927 1_555
Fe1_1 Fe1_3 2.719927 1_545
Fe1_1 Fe1_5 2.719927 1_555
Fe1_2 Pt3_0 2.662331 1_555
Fe1_2 Pt3_4 2.662331 1_455
Fe1_2 Pt3_2 2.662331 1_555
Fe1_2 Pt3_6 2.662331 1_455
Fe1_2 Pt2_2 2.687971 1_555
Fe1_2 Pt2_6 2.687971 1_455
Fe1_2 Pt2_0 2.687971 1_555
Fe1_2 Pt2_4 2.687971 1_455
Fe1_2 Fe1_6 2.719927 1_555
Fe1_2 Fe1_6 2.719927 1_455
Fe1_3 Pt3_5 2.662331 1_455
Fe1_3 Pt3_1 2.662331 1_555
Fe1_3 Pt3_3 2.662331 1_555
Fe1_3 Pt3_7 2.662331 1_455
Fe1_3 Pt2_3 2.687971 1_555
Fe1_3 Pt2_7 2.687971 1_455
Fe1_3 Pt2_5 2.687971 1_455
Fe1_3 Pt2_1 2.687971 1_555
Fe1_3 Fe1_7 2.719927 1_455
Fe1_3 Fe1_7 2.719927 1_555
Fe1_4 Pt3_6 2.662331 1_545
Fe1_4 Pt3_0 2.662331 1_555
Fe1_4 Pt3_4 2.662331 1_555
Fe1_4 Pt3_2 2.662331 1_545
Fe1_4 Pt2_2 2.687971 1_545
Fe1_4 Pt2_0 2.687971 1_555
Fe1_4 Pt2_6 2.687971 1_545
Fe1_4 Pt2_4 2.687971 1_555
Fe1_4 Fe1_6 2.719927 1_555
Fe1_4 Fe1_6 2.719927 1_545
Fe1_5 Pt3_3 2.662331 1_545
Fe1_5 Pt3_1 2.662331 1_555
Fe1_5 Pt3_7 2.662331 1_545
Fe1_5 Pt3_5 2.662331 1_555
Fe1_5 Pt2_3 2.687971 1_545
Fe1_5 Pt2_7 2.687971 1_545
Fe1_5 Pt2_1 2.687971 1_555
Fe1_5 Pt2_5 2.687971 1_555
Fe1_5 Fe1_7 2.719927 1_555
Fe1_5 Fe1_7 2.719927 1_545
Fe1_6 Pt3_0 2.662331 1_555
Fe1_6 Pt3_6 2.662331 1_555
Fe1_6 Pt3_4 2.662331 1_555
Fe1_6 Pt3_2 2.662331 1_555
Fe1_6 Pt2_2 2.687971 1_555
Fe1_6 Pt2_6 2.687971 1_555
Fe1_6 Pt2_0 2.687971 1_555
Fe1_6 Pt2_4 2.687971 1_555
Fe1_7 Pt3_7 2.662331 1_555
Fe1_7 Pt3_1 2.662331 1_555
Fe1_7 Pt3_5 2.662331 1_555
Fe1_7 Pt3_3 2.662331 1_555
Fe1_7 Pt2_3 2.687971 1_555
Fe1_7 Pt2_7 2.687971 1_555
Fe1_7 Pt2_1 2.687971 1_555
Fe1_7 Pt2_5 2.687971 1_555
Cu0_0 Pt0_4 2.688408 1_455
Cu0_0 Pt0_2 2.688408 1_545
Cu0_0 Pt0_0 2.688408 1_555
Cu0_0 Pt0_6 2.688408 1_445
Cu0_0 Pt3_3 2.700534 1_544
Cu0_0 Pt3_5 2.700534 1_454
Cu0_0 Pt3_7 2.700534 1_444
Cu0_0 Pt3_1 2.700534 1_554
Cu0_0 Cu0_4 2.719927 1_555
Cu0_0 Cu0_4 2.719927 1_455
Cu0_0 Cu0_2 2.719927 1_545
Cu0_0 Cu0_2 2.719927 1_555
Cu0_1 Pt0_1 2.688408 1_555
Cu0_1 Pt0_7 2.688408 1_445
Cu0_1 Pt0_5 2.688408 1_455
Cu0_1 Pt0_3 2.688408 1_545
Cu0_1 Pt3_2 2.700534 1_545
Cu0_1 Pt3_4 2.700534 1_455
Cu0_1 Pt3_6 2.700534 1_445
Cu0_1 Pt3_0 2.700534 1_555
Cu0_1 Cu0_5 2.719927 1_555
Cu0_1 Cu0_3 2.719927 1_545
Cu0_1 Cu0_5 2.719927 1_455
Cu0_1 Cu0_3 2.719927 1_555
Cu0_2 Pt0_6 2.688408 1_455
Cu0_2 Pt0_4 2.688408 1_455
Cu0_2 Pt0_0 2.688408 1_555
Cu0_2 Pt0_2 2.688408 1_555
Cu0_2 Pt3_3 2.700534 1_554
Cu0_2 Pt3_5 2.700534 1_454
Cu0_2 Pt3_7 2.700534 1_454
Cu0_2 Pt3_1 2.700534 1_554
Cu0_2 Cu0_6 2.719927 1_455
Cu0_2 Cu0_6 2.719927 1_555
Cu0_3 Pt0_1 2.688408 1_555
Cu0_3 Pt0_7 2.688408 1_455
Cu0_3 Pt0_3 2.688408 1_555
Cu0_3 Pt0_5 2.688408 1_455
Cu0_3 Pt3_6 2.700534 1_455
Cu0_3 Pt3_2 2.700534 1_555
Cu0_3 Pt3_0 2.700534 1_555
Cu0_3 Pt3_4 2.700534 1_455
Cu0_3 Cu0_7 2.719927 1_455
Cu0_3 Cu0_7 2.719927 1_555
Cu0_4 Pt0_6 2.688408 1_545
Cu0_4 Pt0_2 2.688408 1_545
Cu0_4 Pt0_0 2.688408 1_555
Cu0_4 Pt0_4 2.688408 1_555
Cu0_4 Pt3_3 2.700534 1_544
Cu0_4 Pt3_7 2.700534 1_544
Cu0_4 Pt3_5 2.700534 1_554
Cu0_4 Pt3_1 2.700534 1_554
Cu0_4 Cu0_6 2.719927 1_545
Cu0_4 Cu0_6 2.719927 1_555
Cu0_5 Pt0_1 2.688408 1_555
Cu0_5 Pt0_5 2.688408 1_555
Cu0_5 Pt0_7 2.688408 1_545
Cu0_5 Pt0_3 2.688408 1_545
Cu0_5 Pt3_2 2.700534 1_545
Cu0_5 Pt3_6 2.700534 1_545
Cu0_5 Pt3_0 2.700534 1_555
Cu0_5 Pt3_4 2.700534 1_555
Cu0_5 Cu0_7 2.719927 1_555
Cu0_5 Cu0_7 2.719927 1_545
Cu0_6 Pt0_6 2.688408 1_555
Cu0_6 Pt0_0 2.688408 1_555
Cu0_6 Pt0_4 2.688408 1_555
Cu0_6 Pt0_2 2.688408 1_555
Cu0_6 Pt3_3 2.700534 1_554
Cu0_6 Pt3_7 2.700534 1_554
Cu0_6 Pt3_5 2.700534 1_554
Cu0_6 Pt3_1 2.700534 1_554
Cu0_7 Pt0_1 2.688408 1_555
Cu0_7 Pt0_5 2.688408 1_555
Cu0_7 Pt0_7 2.688408 1_555
Cu0_7 Pt0_3 2.688408 1_555
Cu0_7 Pt3_2 2.700534 1_555
Cu0_7 Pt3_6 2.700534 1_555
Cu0_7 Pt3_0 2.700534 1_555
Cu0_7 Pt3_4 2.700534 1_555
Ni0_0 Pt0_4 2.632226 1_455
Ni0_0 Pt0_0 2.632226 1_555
Ni0_0 Pt0_2 2.632226 1_545
Ni0_0 Pt0_6 2.632226 1_445
Ni0_0 Pt1_0 2.677655 1_555
Ni0_0 Pt1_6 2.677655 1_445
Ni0_0 Pt1_4 2.677655 1_455
Ni0_0 Pt1_2 2.677655 1_545
Ni0_0 Ni0_4 2.719927 1_555
Ni0_0 Ni0_2 2.719927 1_545
Ni0_0 Ni0_4 2.719927 1_455
Ni0_0 Ni0_2 2.719927 1_555
Ni0_1 Pt0_1 2.632226 1_555
Ni0_1 Pt0_7 2.632226 1_445
Ni0_1 Pt0_3 2.632226 1_545
Ni0_1 Pt0_5 2.632226 1_455
Ni0_1 Pt1_1 2.677655 1_555
Ni0_1 Pt1_5 2.677655 1_455
Ni0_1 Pt1_7 2.677655 1_445
Ni0_1 Pt1_3 2.677655 1_545
Ni0_1 Ni0_5 2.719927 1_455
Ni0_1 Ni0_3 2.719927 1_555
Ni0_1 Ni0_3 2.719927 1_545
Ni0_1 Ni0_5 2.719927 1_555
Ni0_2 Pt0_2 2.632226 1_555
Ni0_2 Pt0_6 2.632226 1_455
Ni0_2 Pt0_4 2.632226 1_455
Ni0_2 Pt0_0 2.632226 1_555
Ni0_2 Pt1_0 2.677655 1_555
Ni0_2 Pt1_6 2.677655 1_455
Ni0_2 Pt1_2 2.677655 1_555
Ni0_2 Pt1_4 2.677655 1_455
Ni0_2 Ni0_6 2.719927 1_455
Ni0_2 Ni0_6 2.719927 1_555
Ni0_3 Pt0_1 2.632226 1_555
Ni0_3 Pt0_7 2.632226 1_455
Ni0_3 Pt0_3 2.632226 1_555
Ni0_3 Pt0_5 2.632226 1_455
Ni0_3 Pt1_3 2.677655 1_555
Ni0_3 Pt1_1 2.677655 1_555
Ni0_3 Pt1_5 2.677655 1_455
Ni0_3 Pt1_7 2.677655 1_455
Ni0_3 Ni0_7 2.719927 1_555
Ni0_3 Ni0_7 2.719927 1_455
Ni0_4 Pt0_4 2.632226 1_555
Ni0_4 Pt0_6 2.632226 1_545
Ni0_4 Pt0_0 2.632226 1_555
Ni0_4 Pt0_2 2.632226 1_545
Ni0_4 Pt1_2 2.677655 1_545
Ni0_4 Pt1_4 2.677655 1_555
Ni0_4 Pt1_0 2.677655 1_555
Ni0_4 Pt1_6 2.677655 1_545
Ni0_4 Ni0_6 2.719927 1_545
Ni0_4 Ni0_6 2.719927 1_555
Ni0_5 Pt0_1 2.632226 1_555
Ni0_5 Pt0_5 2.632226 1_555
Ni0_5 Pt0_7 2.632226 1_545
Ni0_5 Pt0_3 2.632226 1_545
Ni0_5 Pt1_7 2.677655 1_545
Ni0_5 Pt1_1 2.677655 1_555
Ni0_5 Pt1_5 2.677655 1_555
Ni0_5 Pt1_3 2.677655 1_545
Ni0_5 Ni0_7 2.719927 1_555
Ni0_5 Ni0_7 2.719927 1_545
Ni0_6 Pt0_4 2.632226 1_555
Ni0_6 Pt0_2 2.632226 1_555
Ni0_6 Pt0_6 2.632226 1_555
Ni0_6 Pt0_0 2.632226 1_555
Ni0_6 Pt1_0 2.677655 1_555
Ni0_6 Pt1_4 2.677655 1_555
Ni0_6 Pt1_2 2.677655 1_555
Ni0_6 Pt1_6 2.677655 1_555
Ni0_7 Pt0_1 2.632226 1_555
Ni0_7 Pt0_5 2.632226 1_555
Ni0_7 Pt0_7 2.632226 1_555
Ni0_7 Pt0_3 2.632226 1_555
Ni0_7 Pt1_3 2.677655 1_555
Ni0_7 Pt1_1 2.677655 1_555
Ni0_7 Pt1_5 2.677655 1_555
Ni0_7 Pt1_7 2.677655 1_555
Pt0_0 Pt0_2 2.719927 1_545
Pt0_0 Pt0_4 2.719927 1_555
Pt0_0 Pt0_2 2.719927 1_555
Pt0_0 Pt0_4 2.719927 1_455
Pt0_1 Pt0_3 2.719927 1_555
Pt0_1 Pt0_5 2.719927 1_455
Pt0_1 Pt0_3 2.719927 1_545
Pt0_1 Pt0_5 2.719927 1_555
Pt0_2 Pt0_6 2.719927 1_455
Pt0_2 Pt0_6 2.719927 1_555
Pt0_3 Pt0_7 2.719927 1_555
Pt0_3 Pt0_7 2.719927 1_455
Pt0_4 Pt0_6 2.719927 1_545
Pt0_4 Pt0_6 2.719927 1_555
Pt0_5 Pt0_7 2.719927 1_555
Pt0_5 Pt0_7 2.719927 1_545
Pt1_0 Pt1_2 2.719927 1_545
Pt1_0 Pt1_2 2.719927 1_555
Pt1_0 Pt1_4 2.719927 1_455
Pt1_0 Pt1_4 2.719927 1_555
Pt1_1 Pt1_3 2.719927 1_545
Pt1_1 Pt1_3 2.719927 1_555
Pt1_1 Pt1_5 2.719927 1_455
Pt1_1 Pt1_5 2.719927 1_555
Pt1_2 Pt1_6 2.719927 1_455
Pt1_2 Pt1_6 2.719927 1_555
Pt1_3 Pt1_7 2.719927 1_555
Pt1_3 Pt1_7 2.719927 1_455
Pt1_4 Pt1_6 2.719927 1_555
Pt1_4 Pt1_6 2.719927 1_545
Pt1_5 Pt1_7 2.719927 1_555
Pt1_5 Pt1_7 2.719927 1_545
Pt2_0 Pt2_4 2.719927 1_455
Pt2_0 Pt2_4 2.719927 1_555
Pt2_0 Pt2_2 2.719927 1_555
Pt2_0 Pt2_2 2.719927 1_545
Pt2_1 Pt2_3 2.719927 1_545
Pt2_1 Pt2_3 2.719927 1_555
Pt2_1 Pt2_5 2.719927 1_455
Pt2_1 Pt2_5 2.719927 1_555
Pt2_2 Pt2_6 2.719927 1_555
Pt2_2 Pt2_6 2.719927 1_455
Pt2_3 Pt2_7 2.719927 1_455
Pt2_3 Pt2_7 2.719927 1_555
Pt2_4 Pt2_6 2.719927 1_555
Pt2_4 Pt2_6 2.719927 1_545
Pt2_5 Pt2_7 2.719927 1_555
Pt2_5 Pt2_7 2.719927 1_545
Pt3_0 Pt3_2 2.719927 1_545
Pt3_0 Pt3_4 2.719927 1_455
Pt3_0 Pt3_2 2.719927 1_555
Pt3_0 Pt3_4 2.719927 1_555
Pt3_1 Pt3_5 2.719927 1_555
Pt3_1 Pt3_3 2.719927 1_555
Pt3_1 Pt3_3 2.719927 1_545
Pt3_1 Pt3_5 2.719927 1_455
Pt3_2 Pt3_6 2.719927 1_455
Pt3_2 Pt3_6 2.719927 1_555
Pt3_3 Pt3_7 2.719927 1_455
Pt3_3 Pt3_7 2.719927 1_555
Pt3_4 Pt3_6 2.719927 1_545
Pt3_4 Pt3_6 2.719927 1_555
Pt3_5 Pt3_7 2.719927 1_545
Pt3_5 Pt3_7 2.719927 1_555
