# generated using pymatgen
data_KCuCl3
_symmetry_space_group_name_H-M   'P 1'
_cell_length_a   4.79805545
_cell_length_b   4.79804927
_cell_length_c   4.79805133
_cell_angle_alpha   90.00000000
_cell_angle_beta   90.00000000
_cell_angle_gamma   90.00000000
_symmetry_Int_Tables_number   1
_chemical_formula_structural   KCuCl3
_chemical_formula_sum   'K1 Cu1 Cl3'
_cell_volume   110.45741003
_cell_formula_units_Z   1
loop_
 _symmetry_equiv_pos_site_id
 _symmetry_equiv_pos_as_xyz
  1  'x, y, z'
loop_
 _atom_site_type_symbol
 _atom_site_label
 _atom_site_symmetry_multiplicity
 _atom_site_fract_x
 _atom_site_fract_y
 _atom_site_fract_z
 _atom_site_occupancy
  K  K0  1  -0.00000000  -0.00000000  -0.00000000  1
  Cu  Cu0  1  0.50000000  0.50000000  0.50000000  1
  Cl  Cl0  1  -0.00000000  0.50000000  0.50000000  1
  Cl  Cl1  1  0.50000000  -0.00000000  0.50000000  1
  Cl  Cl2  1  0.50000000  0.50000000  -0.00000000  1
loop_
_geom_bond_atom_site_label_1
_geom_bond_atom_site_label_2
_geom_bond_distance
_geom_bond_site_symmetry_2
Cl0 Cu0 2.399028 1_555
Cl0 Cu0 2.399028 1_455
Cl0 K0 3.392734 1_555
Cl0 K0 3.392734 1_556
Cl0 K0 3.392734 1_566
Cl0 K0 3.392734 1_565
Cl1 Cu0 2.399025 1_545
Cl1 Cu0 2.399025 1_555
Cl1 K0 3.392736 1_555
Cl1 K0 3.392736 1_655
Cl1 K0 3.392736 1_556
Cl1 K0 3.392736 1_656
Cl2 Cu0 2.399026 1_554
Cl2 Cu0 2.399026 1_555
Cl2 K0 3.392735 1_555
Cl2 K0 3.392735 1_565
Cl2 K0 3.392735 1_655
Cl2 K0 3.392735 1_665
