# generated using pymatgen
data_Dy(SiIr)2
_symmetry_space_group_name_H-M   'P 1'
_cell_length_a   4.07468789
_cell_length_b   4.07468808
_cell_length_c   9.71744724
_cell_angle_alpha   90.00000616
_cell_angle_beta   90.00000314
_cell_angle_gamma   90.00000591
_symmetry_Int_Tables_number   1
_chemical_formula_structural   Dy(SiIr)2
_chemical_formula_sum   'Dy2 Si4 Ir4'
_cell_volume   161.33957506
_cell_formula_units_Z   2
loop_
 _symmetry_equiv_pos_site_id
 _symmetry_equiv_pos_as_xyz
  1  'x, y, z'
loop_
 _atom_site_type_symbol
 _atom_site_label
 _atom_site_symmetry_multiplicity
 _atom_site_fract_x
 _atom_site_fract_y
 _atom_site_fract_z
 _atom_site_occupancy
  Dy  Dy0  1  0.74999159  0.75000002  0.25330965  1
  Dy  Dy1  1  0.24999163  0.24999999  0.74668767  1
  Si  Si0  1  0.75000166  0.24999999  0.50001370  1
  Si  Si1  1  0.25000163  0.75000003  0.50001305  1
  Si  Si2  1  0.74999596  0.75000000  0.86924455  1
  Si  Si3  1  0.24999597  0.25000000  0.13073721  1
  Ir  Ir0  1  0.75000844  0.24999999  -0.00000567  1
  Ir  Ir1  1  0.25000850  0.74999999  -0.00000606  1
  Ir  Ir2  1  0.75000235  0.75000005  0.62887520  1
  Ir  Ir3  1  0.25000228  0.24999995  0.37113070  1
loop_
_geom_bond_atom_site_label_1
_geom_bond_atom_site_label_2
_geom_bond_distance
_geom_bond_site_symmetry_2
Dy0 Ir3 3.100356 1_565
Dy0 Ir3 3.100356 1_555
Dy0 Ir3 3.100412 1_665
Dy0 Ir3 3.100413 1_655
Dy0 Si3 3.117718 1_555
Dy0 Si3 3.117718 1_565
Dy0 Si3 3.117741 1_665
Dy0 Si3 3.117742 1_655
Dy0 Si1 3.146074 1_555
Dy0 Si0 3.146105 1_565
Dy0 Si0 3.146106 1_555
Dy0 Si1 3.146127 1_655
Dy0 Ir1 3.195290 1_555
Dy0 Ir0 3.195331 1_555
Dy0 Ir0 3.195331 1_565
Dy0 Ir1 3.195378 1_655
Dy1 Ir2 3.100324 1_445
Dy1 Ir2 3.100325 1_455
Dy1 Ir2 3.100382 1_545
Dy1 Ir2 3.100382 1_555
Dy1 Si2 3.117661 1_445
Dy1 Si2 3.117661 1_455
Dy1 Si2 3.117683 1_555
Dy1 Si2 3.117684 1_545
Dy1 Si0 3.145856 1_455
Dy1 Si1 3.145887 1_545
Dy1 Si1 3.145888 1_555
Dy1 Si0 3.145909 1_555
Dy1 Ir0 3.195222 1_456
Dy1 Ir1 3.195263 1_556
Dy1 Ir1 3.195263 1_546
Dy1 Ir0 3.195309 1_556
Ir0 Si3 2.400979 1_655
Ir0 Si2 2.401058 1_544
Ir0 Si2 2.401058 1_554
Ir0 Si3 2.401065 1_555
Ir1 Si2 2.401012 1_554
Ir1 Si3 2.401024 1_565
Ir1 Si3 2.401024 1_555
Ir1 Si2 2.401099 1_454
Ir2 Si2 2.335776 1_555
Ir2 Si0 2.391399 1_565
Ir2 Si0 2.391399 1_555
Ir2 Si1 2.391399 1_655
Ir2 Si1 2.391404 1_555
Ir3 Si3 2.336011 1_555
Ir3 Si1 2.391505 1_545
Ir3 Si1 2.391505 1_555
Ir3 Si0 2.391506 1_555
Ir3 Si0 2.391510 1_455
