# generated using pymatgen
data_Ba2MgAl2(Fe4O7)2
_symmetry_space_group_name_H-M   'P 1'
_cell_length_a   6.09568720
_cell_length_b   6.21055919
_cell_length_c   10.29841133
_cell_angle_alpha   96.08678764
_cell_angle_beta   86.62305600
_cell_angle_gamma   119.52224365
_symmetry_Int_Tables_number   1
_chemical_formula_structural   Ba2MgAl2(Fe4O7)2
_chemical_formula_sum   'Ba2 Mg1 Al2 Fe8 O14'
_cell_volume   337.33143357
_cell_formula_units_Z   1
loop_
 _symmetry_equiv_pos_site_id
 _symmetry_equiv_pos_as_xyz
  1  'x, y, z'
loop_
 _atom_site_type_symbol
 _atom_site_label
 _atom_site_symmetry_multiplicity
 _atom_site_fract_x
 _atom_site_fract_y
 _atom_site_fract_z
 _atom_site_occupancy
  Ba  Ba0  1  0.62829160  0.27352093  0.55017026  1
  Ba  Ba1  1  0.28564755  0.67196937  0.96361203  1
  Mg  Mg0  1  0.89865671  0.69906863  0.36574397  1
  Al  Al0  1  0.65214142  0.33802037  0.88097835  1
  Al  Al1  1  0.38142027  0.68973125  0.39107690  1
  Fe  Fe0  1  0.84884580  0.18872368  0.18146685  1
  Fe  Fe1  1  0.61071716  0.78805127  0.67779023  1
  Fe  Fe2  1  0.14369005  0.29095233  0.70786713  1
  Fe  Fe3  1  0.65572897  0.64520453  0.14680303  1
  Fe  Fe4  1  0.36753526  0.11792609  0.19264953  1
  Fe  Fe5  1  0.14529188  0.76556439  0.66373653  1
  Fe  Fe6  1  0.07721951  0.18139594  0.42121433  1
  Fe  Fe7  1  0.01379954  0.01980694  0.94300873  1
  O  O0  1  0.82046852  0.21488144  0.99764737  1
  O  O1  1  0.71170628  0.88335314  0.47922624  1
  O  O2  1  0.27686430  0.48982784  0.54209380  1
  O  O3  1  0.82609746  0.65878927  0.98383952  1
  O  O4  1  0.37115148  0.24269464  0.01670094  1
  O  O5  1  0.21713828  0.87539248  0.47693683  1
  O  O6  1  0.96816098  0.95218990  0.74752024  1
  O  O7  1  0.99382307  0.96312766  0.24398515  1
  O  O8  1  0.51847421  0.46771990  0.31098514  1
  O  O9  1  0.94026784  0.45664423  0.75956605  1
  O  O10  1  0.48288957  0.00481568  0.77404671  1
  O  O11  1  0.48096757  0.86775153  0.23114447  1
  O  O12  1  0.49386810  0.45975886  0.77367463  1
  O  O13  1  0.02247363  0.44937171  0.32576407  1
loop_
_geom_bond_atom_site_label_1
_geom_bond_atom_site_label_2
_geom_bond_distance
_geom_bond_site_symmetry_2
Ba0 O5 2.585313 1_545
Ba0 O9 2.718772 1_555
Ba0 O12 2.730293 1_555
Ba0 O1 2.731134 1_545
Ba0 O10 2.829076 1_555
Ba0 O2 3.046540 1_555
Ba0 O8 3.096805 1_555
Ba0 O13 3.098703 1_655
Ba1 O3 2.757919 1_455
Ba1 O10 2.767633 1_565
Ba1 O9 2.790519 1_455
Ba1 O12 2.825509 1_555
Ba1 O0 2.895325 1_455
Ba1 O11 2.955705 1_556
Ba1 O4 3.064382 1_556
Mg0 O7 2.002778 1_555
Mg0 O13 2.031130 1_655
Mg0 O5 2.044545 1_655
Mg0 O8 2.110377 1_555
Mg0 O1 2.195275 1_555
Al0 O12 1.935267 1_555
Al0 O3 1.954011 1_555
Al0 O9 1.962722 1_555
Al0 O10 2.026317 1_555
Al0 O4 2.032731 1_556
Al0 O0 2.048105 1_555
Al1 O2 1.969567 1_555
Al1 O11 1.977526 1_555
Al1 O1 1.980255 1_555
Al1 O5 1.982840 1_555
Al1 O8 2.022940 1_555
Al1 O13 2.051768 1_555
Fe0 O0 1.942019 1_554
Fe0 O13 1.983823 1_655
Fe0 O7 2.153399 1_545
Fe0 O11 2.222561 1_545
Fe1 O10 2.015420 1_565
Fe1 O6 2.035294 1_555
Fe1 O12 2.133616 1_555
Fe1 O1 2.158740 1_555
Fe1 O2 2.365644 1_555
Fe2 O6 1.910553 1_445
Fe2 O12 1.982198 1_555
Fe2 O9 1.985838 1_455
Fe2 O2 2.096386 1_555
Fe3 O3 1.908022 1_554
Fe3 O8 2.023260 1_555
Fe3 O11 2.210670 1_555
Fe3 O7 2.227372 1_555
Fe3 O4 2.518590 1_555
Fe4 O4 2.039721 1_555
Fe4 O7 2.049569 1_445
Fe4 O11 2.066641 1_545
Fe4 O8 2.156822 1_555
Fe5 O9 2.027302 1_455
Fe5 O6 2.040887 1_455
Fe5 O5 2.059720 1_555
Fe5 O10 2.153422 1_565
Fe5 O2 2.434215 1_555
Fe6 O2 2.018753 1_555
Fe6 O7 2.081526 1_445
Fe6 O1 2.181891 1_445
Fe6 O13 2.186410 1_555
Fe6 O5 2.560242 1_545
Fe6 O8 2.653324 1_555
Fe7 O6 2.019495 1_445
Fe7 O3 2.031767 1_445
Fe7 O4 2.058500 1_556
Fe7 O0 2.087494 1_455
