# generated using pymatgen
data_NdZrNO2
_symmetry_space_group_name_H-M   'P 1'
_cell_length_a   5.95500500
_cell_length_b   5.76623400
_cell_length_c   9.98562589
_cell_angle_alpha   55.43193496
_cell_angle_beta   90.00000000
_cell_angle_gamma   90.00000000
_symmetry_Int_Tables_number   1
_chemical_formula_structural   NdZrNO2
_chemical_formula_sum   'Nd4 Zr4 N4 O8'
_cell_volume   282.35037135
_cell_formula_units_Z   4
loop_
 _symmetry_equiv_pos_site_id
 _symmetry_equiv_pos_as_xyz
  1  'x, y, z'
loop_
 _atom_site_type_symbol
 _atom_site_label
 _atom_site_symmetry_multiplicity
 _atom_site_fract_x
 _atom_site_fract_y
 _atom_site_fract_z
 _atom_site_occupancy
  Nd  Nd0  1  0.44892900  0.77927600  0.74194600  1
  Nd  Nd1  1  0.94892900  0.22072400  0.75805400  1
  Nd  Nd2  1  0.55107100  0.22072400  0.25805400  1
  Nd  Nd3  1  0.05107100  0.77927600  0.24194600  1
  Zr  Zr0  1  0.00000000  0.50000000  0.00000000  1
  Zr  Zr1  1  0.50000000  0.50000000  0.50000000  1
  Zr  Zr2  1  0.00000000  0.00000000  0.50000000  1
  Zr  Zr3  1  0.50000000  0.00000000  0.00000000  1
  N  N0  1  0.20442500  0.85468500  0.94151600  1
  N  N1  1  0.70442500  0.14531500  0.55848400  1
  N  N2  1  0.79557500  0.14531500  0.05848400  1
  N  N3  1  0.29557500  0.85468500  0.44151600  1
  O  O0  1  0.04116100  0.63373200  0.75006000  1
  O  O1  1  0.54116100  0.36626800  0.74994000  1
  O  O2  1  0.95883900  0.36626800  0.24994000  1
  O  O3  1  0.45883900  0.63373200  0.25006000  1
  O  O4  1  0.79292200  0.77303900  0.43353700  1
  O  O5  1  0.29292200  0.22696100  0.06646300  1
  O  O6  1  0.20707800  0.22696100  0.56646300  1
  O  O7  1  0.70707800  0.77303900  0.93353700  1
loop_
_geom_bond_atom_site_label_1
_geom_bond_atom_site_label_2
_geom_bond_distance
_geom_bond_site_symmetry_2
Nd0 O1 2.400804 1_555
Nd0 O7 2.438567 1_555
Nd0 O0 2.555421 1_555
Nd0 O6 2.583720 1_565
Nd0 O5 3.129795 1_556
Nd1 O0 2.400804 1_655
Nd1 O6 2.438567 1_655
Nd1 O1 2.555421 1_555
Nd1 O7 2.583720 1_545
Nd1 O4 3.129795 1_555
Nd2 O3 2.400804 1_555
Nd2 O5 2.438567 1_555
Nd2 O2 2.555421 1_555
Nd2 O4 2.583720 1_545
Nd2 O7 3.129795 1_554
Nd3 O2 2.400804 1_455
Nd3 O4 2.438567 1_455
Nd3 O3 2.555421 1_555
Nd3 O5 2.583720 1_565
Nd3 O6 3.129795 1_555
N0 Zr0 2.156495 1_556
N0 Zr3 2.167162 1_566
N0 Nd1 2.395445 1_465
N0 Nd0 2.695138 1_555
N0 Nd3 2.922784 1_556
N1 Zr1 2.156495 1_555
N1 Zr2 2.167162 1_655
N1 Nd0 2.395445 1_545
N1 Nd1 2.695138 1_555
N1 Nd2 2.922784 1_555
N2 Zr0 2.156495 1_655
N2 Zr3 2.167162 1_555
N2 Nd3 2.395445 1_645
N2 Nd2 2.695138 1_555
N2 Nd1 2.922784 1_554
N3 Zr1 2.156495 1_555
N3 Zr2 2.167162 1_565
N3 Nd2 2.395445 1_565
N3 Nd3 2.695138 1_555
N3 Nd0 2.922784 1_555
O0 Zr0 2.167904 1_556
O0 Zr2 2.184316 1_565
O1 Zr1 2.167904 1_555
O1 Zr3 2.184316 1_556
O2 Zr0 2.167904 1_655
O2 Zr2 2.184316 1_655
O3 Zr1 2.167904 1_555
O3 Zr3 2.184316 1_565
O4 Zr2 2.158578 1_665
O4 Zr1 2.185468 1_555
O5 Zr3 2.158578 1_555
O5 Zr0 2.185468 1_555
O6 Zr2 2.158578 1_555
O6 Zr1 2.185468 1_555
O7 Zr3 2.158578 1_566
O7 Zr0 2.185468 1_656
