# generated using pymatgen
data_Li3Co2Si3O10
_symmetry_space_group_name_H-M   'P 1'
_cell_length_a   5.39702843
_cell_length_b   5.39820000
_cell_length_c   16.90160132
_cell_angle_alpha   96.74413066
_cell_angle_beta   83.27100917
_cell_angle_gamma   118.85305681
_symmetry_Int_Tables_number   1
_chemical_formula_structural   Li3Co2Si3O10
_chemical_formula_sum   'Li6 Co4 Si6 O20'
_cell_volume   427.26522201
_cell_formula_units_Z   2
loop_
 _symmetry_equiv_pos_site_id
 _symmetry_equiv_pos_as_xyz
  1  'x, y, z'
loop_
 _atom_site_type_symbol
 _atom_site_label
 _atom_site_symmetry_multiplicity
 _atom_site_fract_x
 _atom_site_fract_y
 _atom_site_fract_z
 _atom_site_occupancy
  Li  Li0  1  0.42794900  0.81611700  0.72108400  1
  Li  Li1  1  0.34221900  0.85228600  0.04889300  1
  Li  Li2  1  0.18365000  0.57188700  0.22116400  1
  Li  Li3  1  0.14774600  0.65811900  0.54876200  1
  Li  Li4  1  0.83383100  0.43905300  0.78233600  1
  Li  Li5  1  0.56127500  0.16587100  0.28246600  1
  Co  Co0  1  0.80715800  0.01868900  0.58386600  1
  Co  Co1  1  0.99486100  0.81256800  0.92242000  1
  Co  Co2  1  0.98162400  0.19302200  0.08365800  1
  Co  Co3  1  0.18720900  0.00531000  0.42240700  1
  Si  Si0  1  0.89148100  0.89244500  0.24963400  1
  Si  Si1  1  0.52821400  0.67991400  0.40017700  1
  Si  Si2  1  0.31993600  0.47144900  0.90021100  1
  Si  Si3  1  0.65654300  0.53032300  0.09701500  1
  Si  Si4  1  0.46989400  0.34350100  0.59696100  1
  Si  Si5  1  0.10779400  0.10854700  0.74965200  1
  O  O0  1  0.14930000  0.90408400  0.29332700  1
  O  O1  1  0.09631200  0.85070800  0.79327700  1
  O  O2  1  0.24354600  0.69624000  0.43627700  1
  O  O3  1  0.30364500  0.75616400  0.93637000  1
  O  O4  1  0.60077700  0.81002800  0.31085700  1
  O  O5  1  0.79813400  0.88496100  0.45319600  1
  O  O6  1  0.90277700  0.79130000  0.04418000  1
  O  O7  1  0.45017600  0.64028300  0.60547100  1
  O  O8  1  0.35956600  0.54978700  0.10568200  1
  O  O9  1  0.18913700  0.39861600  0.81103300  1
  O  O10  1  0.79501600  0.60851800  0.18648700  1
  O  O11  1  0.64867800  0.52798600  0.88800500  1
  O  O12  1  0.47219600  0.35128900  0.38822500  1
  O  O13  1  0.11545700  0.20166300  0.95325900  1
  O  O14  1  0.20848200  0.09654100  0.54429900  1
  O  O15  1  0.39206700  0.20610500  0.68660000  1
  O  O16  1  0.63236600  0.22350400  0.06883400  1
  O  O17  1  0.77659300  0.36750100  0.56872000  1
  O  O18  1  0.93381400  0.16992900  0.20993200  1
  O  O19  1  0.83010000  0.06606700  0.70995600  1
loop_
_geom_bond_atom_site_label_1
_geom_bond_atom_site_label_2
_geom_bond_distance
_geom_bond_site_symmetry_2
Li0 O19 1.924632 1_565
Li0 O7 2.086377 1_555
Li0 O1 2.117671 1_555
Li0 O15 2.348898 1_565
Li0 O9 2.567860 1_555
Li1 O16 1.875600 1_565
Li1 O3 1.919961 1_554
Li1 O8 2.033049 1_555
Li1 O6 2.241461 1_455
Li2 O18 1.924029 1_455
Li2 O8 2.084619 1_555
Li2 O0 2.119417 1_555
Li2 O10 2.344694 1_455
Li2 O4 2.562761 1_555
Li3 O17 1.876290 1_455
Li3 O2 1.919112 1_555
Li3 O7 2.032748 1_555
Li3 O14 2.236461 1_565
Li4 O1 1.976310 1_655
Li4 O11 2.064491 1_555
Li4 O9 2.146368 1_655
Li4 O19 2.222404 1_555
Li5 O0 1.976661 1_545
Li5 O12 2.066626 1_555
Li5 O4 2.145070 1_545
Li5 O18 2.220833 1_555
Co0 O17 2.015232 1_555
Co0 O14 2.040404 1_655
Co0 O7 2.056683 1_545
Co0 O19 2.127366 1_555
Co0 O5 2.240073 1_545
Co1 O11 1.861120 1_555
Co1 O3 1.877297 1_655
Co1 O13 1.899998 1_665
Co1 O6 2.063015 1_556
Co1 O1 2.196166 1_655
Co2 O16 2.015593 1_555
Co2 O6 2.040850 1_545
Co2 O8 2.055828 1_655
Co2 O18 2.130601 1_555
Co2 O13 2.236038 1_654
Co3 O12 1.860208 1_555
Co3 O2 1.878616 1_545
Co3 O5 1.899717 1_445
Co3 O14 2.064602 1_555
Co3 O0 2.194719 1_545
O0 Si0 1.622032 1_455
O1 Si5 1.622307 1_565
O2 Si1 1.624446 1_555
O3 Si2 1.625009 1_555
O4 Si1 1.664564 1_555
O4 Si0 1.668602 1_555
O5 Si1 1.633119 1_555
O6 Si3 1.660930 1_555
O7 Si4 1.644852 1_555
O8 Si3 1.644792 1_555
O9 Si2 1.663433 1_555
O9 Si5 1.668122 1_555
O10 Si0 1.653837 1_555
O10 Si3 1.683439 1_555
O11 Si2 1.640122 1_555
O12 Si1 1.640654 1_555
O13 Si2 1.632911 1_555
O14 Si4 1.661414 1_555
O15 Si5 1.654005 1_555
O15 Si4 1.684045 1_555
O16 Si3 1.614875 1_555
O17 Si4 1.614593 1_555
O18 Si0 1.617429 1_545
O19 Si5 1.617624 1_655
