# generated using pymatgen
data_Mn(CuTe)2
_symmetry_space_group_name_H-M   'P 1'
_cell_length_a   8.55065340
_cell_length_b   8.55065340
_cell_length_c   8.55065340
_cell_angle_alpha   60.00000000
_cell_angle_beta   60.00000000
_cell_angle_gamma   60.00000000
_symmetry_Int_Tables_number   1
_chemical_formula_structural   Mn(CuTe)2
_chemical_formula_sum   'Mn4 Cu8 Te8'
_cell_volume   442.06172057
_cell_formula_units_Z   4
loop_
 _symmetry_equiv_pos_site_id
 _symmetry_equiv_pos_as_xyz
  1  'x, y, z'
loop_
 _atom_site_type_symbol
 _atom_site_label
 _atom_site_symmetry_multiplicity
 _atom_site_fract_x
 _atom_site_fract_y
 _atom_site_fract_z
 _atom_site_occupancy
  Mn  Mn0  1  0.62255300  0.12581600  0.12581600  1
  Mn  Mn1  1  0.12581600  0.62255300  0.12581600  1
  Mn  Mn2  1  0.12581600  0.12581600  0.62255300  1
  Mn  Mn3  1  0.12581600  0.12581600  0.12581600  1
  Cu  Cu0  1  0.25163700  0.25163700  0.74836300  1
  Cu  Cu1  1  0.74836300  0.74836300  0.25163700  1
  Cu  Cu2  1  0.25163700  0.74836300  0.25163700  1
  Cu  Cu3  1  0.74836300  0.25163700  0.74836300  1
  Cu  Cu4  1  0.74836300  0.25163700  0.25163700  1
  Cu  Cu5  1  0.25163700  0.74836300  0.74836300  1
  Cu  Cu6  1  0.75000000  0.75000000  0.75000000  1
  Cu  Cu7  1  0.50000000  0.50000000  0.50000000  1
  Te  Te0  1  0.38233800  0.87255400  0.87255400  1
  Te  Te1  1  0.87255400  0.38233800  0.87255400  1
  Te  Te2  1  0.87255400  0.87255400  0.38233800  1
  Te  Te3  1  0.87255400  0.87255400  0.87255400  1
  Te  Te4  1  0.88997700  0.37000800  0.37000800  1
  Te  Te5  1  0.37000800  0.88997700  0.37000800  1
  Te  Te6  1  0.37000800  0.37000800  0.88997700  1
  Te  Te7  1  0.37000800  0.37000800  0.37000800  1
loop_
_geom_bond_atom_site_label_1
_geom_bond_atom_site_label_2
_geom_bond_distance
_geom_bond_site_symmetry_2
Mn0 Te7 2.953743 1_555
Mn0 Te5 2.953743 1_545
Mn0 Te6 2.953743 1_554
Mn0 Te2 3.062679 1_545
Mn0 Te1 3.062679 1_554
Mn0 Te3 3.062685 1_544
Mn1 Te7 2.953743 1_555
Mn1 Te4 2.953743 1_455
Mn1 Te6 2.953743 1_554
Mn1 Te2 3.062679 1_455
Mn1 Te0 3.062679 1_554
Mn1 Te3 3.062685 1_454
Mn2 Te7 2.953743 1_555
Mn2 Te5 2.953743 1_545
Mn2 Te4 2.953743 1_455
Mn2 Te0 3.062679 1_545
Mn2 Te1 3.062679 1_455
Mn2 Te3 3.062685 1_445
Mn3 Te4 2.953743 1_455
Mn3 Te6 2.953743 1_554
Mn3 Te5 2.953743 1_545
Mn3 Te2 3.062685 1_445
Mn3 Te0 3.062685 1_544
Mn3 Te1 3.062685 1_454
Cu0 Mn2 2.635211 1_555
Cu0 Mn3 2.635218 1_556
Cu0 Te7 2.644006 1_555
Cu0 Te6 2.644013 1_555
Cu0 Te0 2.646793 1_545
Cu0 Te1 2.646793 1_455
Cu1 Mn0 2.635218 1_565
Cu1 Mn1 2.635218 1_655
Cu1 Te4 2.644007 1_555
Cu1 Te5 2.644007 1_555
Cu1 Te3 2.646793 1_554
Cu1 Te2 2.646793 1_555
Cu2 Mn1 2.635211 1_555
Cu2 Mn3 2.635218 1_565
Cu2 Te7 2.644006 1_555
Cu2 Te5 2.644013 1_555
Cu2 Te0 2.646793 1_554
Cu2 Te2 2.646793 1_455
Cu3 Mn0 2.635218 1_556
Cu3 Mn2 2.635218 1_655
Cu3 Te6 2.644007 1_555
Cu3 Te4 2.644007 1_555
Cu3 Te3 2.646793 1_545
Cu3 Te1 2.646793 1_555
Cu4 Mn0 2.635211 1_555
Cu4 Mn3 2.635218 1_655
Cu4 Te7 2.644006 1_555
Cu4 Te4 2.644013 1_555
Cu4 Te2 2.646793 1_545
Cu4 Te1 2.646793 1_554
Cu5 Mn2 2.635218 1_565
Cu5 Mn1 2.635218 1_556
Cu5 Te5 2.644007 1_555
Cu5 Te6 2.644007 1_555
Cu5 Te3 2.646793 1_455
Cu5 Te0 2.646793 1_555
Cu6 Te1 2.566861 1_555
Cu6 Te2 2.566861 1_555
Cu6 Te0 2.566861 1_555
Cu6 Te3 2.566861 1_555
Cu7 Te7 2.722648 1_555
Cu7 Te4 2.722655 1_555
Cu7 Te6 2.722655 1_555
Cu7 Te5 2.722655 1_555
