# generated using pymatgen
data_PrMnGa
_symmetry_space_group_name_H-M   'P 1'
_cell_length_a   6.08904430
_cell_length_b   6.08904430
_cell_length_c   6.08904430
_cell_angle_alpha   138.91757811
_cell_angle_beta   115.90024232
_cell_angle_gamma   79.01391264
_symmetry_Int_Tables_number   1
_chemical_formula_structural   PrMnGa
_chemical_formula_sum   'Pr2 Mn2 Ga2'
_cell_volume   129.73107219
_cell_formula_units_Z   2
loop_
 _symmetry_equiv_pos_site_id
 _symmetry_equiv_pos_as_xyz
  1  'x, y, z'
loop_
 _atom_site_type_symbol
 _atom_site_label
 _atom_site_symmetry_multiplicity
 _atom_site_fract_x
 _atom_site_fract_y
 _atom_site_fract_z
 _atom_site_occupancy
  Pr  Pr0  1  0.00000000  0.50000000  0.50000000  1
  Pr  Pr1  1  0.50000000  0.00000000  0.50000000  1
  Mn  Mn0  1  0.00000000  0.50000000  0.00000000  1
  Mn  Mn1  1  0.00000000  0.00000000  0.50000000  1
  Ga  Ga0  1  0.36804700  0.25000000  0.11804700  1
  Ga  Ga1  1  0.63195300  0.75000000  0.88195300  1
loop_
_geom_bond_atom_site_label_1
_geom_bond_atom_site_label_2
_geom_bond_distance
_geom_bond_site_symmetry_2
Mn0 Mn1 2.136530 1_554
Mn0 Mn1 2.136530 1_565
Mn0 Pr1 3.044522 1_565
Mn0 Pr0 3.044522 1_554
Mn0 Pr0 3.044522 1_555
Mn0 Pr1 3.044522 1_454
Mn1 Pr1 3.044522 1_555
Mn1 Pr1 3.044522 1_455
Mn1 Pr0 3.044522 1_555
Mn1 Pr0 3.044522 1_545
Ga0 Mn0 2.607351 1_555
Ga0 Mn1 2.607351 1_554
Ga0 Ga1 2.733746 1_555
Ga0 Ga1 2.733746 1_544
Ga0 Pr0 3.265654 1_555
Ga0 Pr0 3.265654 1_544
Ga0 Pr1 3.265654 1_565
Ga0 Pr1 3.265654 1_554
Ga0 Pr1 3.407407 1_555
Ga0 Pr0 3.407407 1_655
Ga1 Mn0 2.607351 1_656
Ga1 Mn1 2.607351 1_666
Ga1 Pr0 3.265654 1_666
Ga1 Pr0 3.265654 1_655
Ga1 Pr1 3.265654 1_566
Ga1 Pr1 3.265654 1_555
Ga1 Pr0 3.407407 1_555
Ga1 Pr1 3.407407 1_565
