# generated using pymatgen
data_KCr5Te8
_symmetry_space_group_name_H-M   'P 1'
_cell_length_a   10.44004688
_cell_length_b   10.44004688
_cell_length_c   9.61556487
_cell_angle_alpha   75.67177425
_cell_angle_beta   75.67177425
_cell_angle_gamma   22.27237006
_symmetry_Int_Tables_number   1
_chemical_formula_structural   KCr5Te8
_chemical_formula_sum   'K1 Cr5 Te8'
_cell_volume   384.37656595
_cell_formula_units_Z   1
loop_
 _symmetry_equiv_pos_site_id
 _symmetry_equiv_pos_as_xyz
  1  'x, y, z'
loop_
 _atom_site_type_symbol
 _atom_site_label
 _atom_site_symmetry_multiplicity
 _atom_site_fract_x
 _atom_site_fract_y
 _atom_site_fract_z
 _atom_site_occupancy
  K  K0  1  0.50000000  0.50000000  0.50000000  1
  Cr  Cr0  1  0.00000000  0.00000000  0.00000000  1
  Cr  Cr1  1  0.34084100  0.34084100  0.98654400  1
  Cr  Cr2  1  0.65915900  0.65915900  0.01345600  1
  Cr  Cr3  1  0.29573900  0.29573900  0.33135700  1
  Cr  Cr4  1  0.70426100  0.70426100  0.66864300  1
  Te  Te0  1  0.57252300  0.57252300  0.83720200  1
  Te  Te1  1  0.42747700  0.42747700  0.16279800  1
  Te  Te2  1  0.08812000  0.08812000  0.17002100  1
  Te  Te3  1  0.91188000  0.91188000  0.82997900  1
  Te  Te4  1  0.17040400  0.17040400  0.50911600  1
  Te  Te5  1  0.82959600  0.82959600  0.49088400  1
  Te  Te6  1  0.23974500  0.23974500  0.84201200  1
  Te  Te7  1  0.76025500  0.76025500  0.15798800  1
loop_
_geom_bond_atom_site_label_1
_geom_bond_atom_site_label_2
_geom_bond_distance
_geom_bond_site_symmetry_2
K0 Te3 3.808280 1_455
K0 Te3 3.808280 1_545
K0 Te2 3.808280 1_565
K0 Te2 3.808280 1_655
K0 Te1 3.892400 1_555
K0 Te0 3.892400 1_555
K0 Te4 4.051596 1_655
K0 Te5 4.051596 1_455
K0 Te5 4.051596 1_545
K0 Te4 4.051596 1_565
Cr0 Te3 2.724098 1_444
Cr0 Te2 2.724098 1_555
Cr0 Te1 2.747840 1_455
Cr0 Te1 2.747840 1_545
Cr0 Te0 2.747840 1_544
Cr0 Te0 2.747840 1_454
Cr1 Te3 2.710197 1_455
Cr1 Te3 2.710197 1_545
Cr1 Te1 2.745907 1_556
Cr1 Te6 2.770033 1_555
Cr1 Te7 2.852417 1_456
Cr1 Te7 2.852417 1_546
Cr2 Te2 2.710197 1_655
Cr2 Te2 2.710197 1_565
Cr2 Te0 2.745907 1_554
Cr2 Te7 2.770033 1_555
Cr2 Te6 2.852417 1_654
Cr2 Te6 2.852417 1_564
Cr3 Te4 2.701999 1_555
Cr3 Te5 2.727036 1_545
Cr3 Te5 2.727036 1_455
Cr3 Te1 2.775683 1_555
Cr3 Te7 2.825725 1_545
Cr3 Te7 2.825725 1_455
Cr4 Te5 2.701999 1_555
Cr4 Te4 2.727036 1_565
Cr4 Te4 2.727036 1_655
Cr4 Te0 2.775683 1_555
Cr4 Te6 2.825725 1_565
Cr4 Te6 2.825725 1_655
