# generated using pymatgen
data_Nd3Au
_symmetry_space_group_name_H-M   'P 1'
_cell_length_a   7.05934020
_cell_length_b   7.05934020
_cell_length_c   5.36061900
_cell_angle_alpha   90.00000000
_cell_angle_beta   90.00000000
_cell_angle_gamma   120.00000183
_symmetry_Int_Tables_number   1
_chemical_formula_structural   Nd3Au
_chemical_formula_sum   'Nd6 Au2'
_cell_volume   231.35228212
_cell_formula_units_Z   2
loop_
 _symmetry_equiv_pos_site_id
 _symmetry_equiv_pos_as_xyz
  1  'x, y, z'
loop_
 _atom_site_type_symbol
 _atom_site_label
 _atom_site_symmetry_multiplicity
 _atom_site_fract_x
 _atom_site_fract_y
 _atom_site_fract_z
 _atom_site_occupancy
  Nd  Nd0  1  0.17683400  0.35366800  0.25000000  1
  Nd  Nd1  1  0.64633200  0.82316600  0.25000000  1
  Nd  Nd2  1  0.17683400  0.82316600  0.25000000  1
  Nd  Nd3  1  0.82316600  0.64633200  0.75000000  1
  Nd  Nd4  1  0.35366800  0.17683400  0.75000000  1
  Nd  Nd5  1  0.82316600  0.17683400  0.75000000  1
  Au  Au0  1  0.33333300  0.66666700  0.75000000  1
  Au  Au1  1  0.66666700  0.33333300  0.25000000  1
loop_
_geom_bond_atom_site_label_1
_geom_bond_atom_site_label_2
_geom_bond_distance
_geom_bond_site_symmetry_2
Nd0 Nd1 3.314346 1_555
Nd0 Nd2 3.314346 1_555
Nd0 Nd5 3.443697 1_455
Nd0 Nd5 3.443697 1_454
Nd0 Nd4 3.443698 1_555
Nd0 Nd4 3.443698 1_554
Nd0 Nd1 3.744994 1_445
Nd0 Nd2 3.744994 1_545
Nd1 Nd2 3.314346 1_555
Nd1 Nd5 3.443697 1_565
Nd1 Nd5 3.443697 1_564
Nd1 Nd3 3.443698 1_554
Nd1 Nd3 3.443698 1_555
Nd1 Nd2 3.744994 1_655
Nd2 Nd4 3.443697 1_564
Nd2 Nd3 3.443697 1_455
Nd2 Nd3 3.443697 1_454
Nd2 Nd4 3.443697 1_565
Nd3 Nd4 3.314346 1_555
Nd3 Nd5 3.314346 1_555
Nd3 Nd4 3.744994 1_665
Nd3 Nd5 3.744994 1_565
Nd4 Nd5 3.314346 1_555
Nd4 Nd5 3.744994 1_455
Au0 Nd2 3.293277 1_555
Au0 Nd2 3.293277 1_556
Au0 Nd1 3.293281 1_555
Au0 Nd1 3.293281 1_556
Au0 Nd0 3.293281 1_555
Au0 Nd0 3.293281 1_556
Au0 Nd4 3.531855 1_565
Au0 Nd3 3.531855 1_455
Au0 Nd5 3.531858 1_565
Au0 Nd5 3.531858 1_455
Au0 Nd3 3.531862 1_555
Au0 Nd4 3.531862 1_555
Au1 Nd5 3.293277 1_554
Au1 Nd5 3.293277 1_555
Au1 Nd4 3.293281 1_555
Au1 Nd3 3.293281 1_554
Au1 Nd4 3.293281 1_554
Au1 Nd3 3.293281 1_555
Au1 Nd0 3.531855 1_655
Au1 Nd1 3.531855 1_545
Au1 Nd2 3.531858 1_655
Au1 Nd2 3.531858 1_545
Au1 Nd1 3.531862 1_555
Au1 Nd0 3.531862 1_555
