# generated using pymatgen
data_CaMg14Mo
_symmetry_space_group_name_H-M   'P 1'
_cell_length_a   6.43005065
_cell_length_b   6.43619094
_cell_length_c   10.17583723
_cell_angle_alpha   90.00000000
_cell_angle_beta   90.00000000
_cell_angle_gamma   120.03159960
_symmetry_Int_Tables_number   1
_chemical_formula_structural   CaMg14Mo
_chemical_formula_sum   'Ca1 Mg14 Mo1'
_cell_volume   364.59081297
_cell_formula_units_Z   1
loop_
 _symmetry_equiv_pos_site_id
 _symmetry_equiv_pos_as_xyz
  1  'x, y, z'
loop_
 _atom_site_type_symbol
 _atom_site_label
 _atom_site_symmetry_multiplicity
 _atom_site_fract_x
 _atom_site_fract_y
 _atom_site_fract_z
 _atom_site_occupancy
  Ca  Ca0  1  0.16459359  0.33229629  0.12500000  1
  Mg  Mg0  1  0.16885176  0.33442538  0.62500000  1
  Mg  Mg1  1  0.16483212  0.83241556  0.62500000  1
  Mg  Mg2  1  0.66164593  0.32689631  0.12500000  1
  Mg  Mg3  1  0.66552608  0.33572609  0.62500000  1
  Mg  Mg4  1  0.66164593  0.83474862  0.12500000  1
  Mg  Mg5  1  0.66552608  0.82979899  0.62500000  1
  Mg  Mg6  1  0.33135230  0.15371714  0.37316088  1
  Mg  Mg7  1  0.33135230  0.15371714  0.87683912  1
  Mg  Mg8  1  0.33135230  0.67763616  0.37316088  1
  Mg  Mg9  1  0.33135230  0.67763616  0.87683912  1
  Mg  Mg10  1  0.82713246  0.16356673  0.38436797  1
  Mg  Mg11  1  0.82713246  0.16356673  0.86563203  1
  Mg  Mg12  1  0.84437879  0.67218990  0.36239634  1
  Mg  Mg13  1  0.84437879  0.67218990  0.88760366  1
  Mo  Mo0  1  0.17894679  0.83947290  0.12500000  1
loop_
_geom_bond_atom_site_label_1
_geom_bond_atom_site_label_2
_geom_bond_distance
_geom_bond_site_symmetry_2
Ca0 Mg7 3.175102 1_554
Ca0 Mg6 3.175102 1_555
Ca0 Mg9 3.175109 1_554
Ca0 Mg8 3.175109 1_555
Ca0 Mg4 3.213607 1_555
Ca0 Mg2 3.213607 1_555
Ca0 Mg4 3.216725 1_445
Ca0 Mg2 3.216725 1_455
Ca0 Mo0 3.219087 1_545
Ca0 Mo0 3.219087 1_555
Ca0 Mg10 3.239584 1_455
Ca0 Mg11 3.239584 1_454
Mg0 Mg11 3.100725 1_455
Mg0 Mg10 3.100725 1_455
Mg0 Mg5 3.189459 1_555
Mg0 Mg3 3.189459 1_555
Mg0 Mg7 3.198166 1_555
Mg0 Mg6 3.198166 1_555
Mg0 Mg8 3.198172 1_555
Mg0 Mg9 3.198172 1_555
Mg0 Mg1 3.218173 1_545
Mg0 Mg1 3.218173 1_555
Mg0 Mg5 3.240607 1_445
Mg0 Mg3 3.240608 1_455
Mg1 Mg8 3.126313 1_555
Mg1 Mg9 3.126313 1_555
Mg1 Mg7 3.126319 1_565
Mg1 Mg6 3.126319 1_565
Mg1 Mg3 3.202168 1_455
Mg1 Mg5 3.202168 1_455
Mg1 Mg13 3.212947 1_455
Mg1 Mg12 3.212947 1_455
Mg1 Mg3 3.227949 1_565
Mg1 Mg5 3.227949 1_555
Mg2 Mo0 3.119108 1_545
Mg2 Mg7 3.124146 1_554
Mg2 Mg6 3.124146 1_555
Mg2 Mg4 3.167557 1_545
Mg2 Mg4 3.268634 1_555
Mg2 Mo0 3.311157 1_655
Mg3 Mg6 3.168150 1_555
Mg3 Mg7 3.168150 1_555
Mg3 Mg5 3.179948 1_555
Mg3 Mg5 3.256243 1_545
Mg4 Mo0 3.119109 1_555
Mg4 Mg8 3.124146 1_555
Mg4 Mg9 3.124146 1_554
Mg4 Mo0 3.311158 1_655
Mg5 Mg9 3.168150 1_555
Mg5 Mg8 3.168150 1_555
Mg6 Mg8 3.064148 1_545
Mg6 Mo0 3.073099 1_545
Mg6 Mg8 3.372043 1_555
Mg7 Mg9 3.064148 1_545
Mg7 Mo0 3.073099 1_546
Mg7 Mg9 3.372043 1_555
Mg8 Mo0 3.073092 1_555
Mg9 Mo0 3.073092 1_556
Mg10 Mg3 3.075045 1_555
Mg10 Mg5 3.075051 1_545
Mg10 Mg8 3.158701 1_545
Mg10 Mg6 3.158701 1_555
Mg10 Mg2 3.212917 1_555
Mg10 Mg4 3.212923 1_545
Mg10 Mg12 3.227281 1_545
Mg10 Mg12 3.227281 1_555
Mg10 Mg8 3.276331 1_655
Mg10 Mg6 3.276332 1_655
Mg11 Mg3 3.075045 1_555
Mg11 Mg5 3.075051 1_545
Mg11 Mg9 3.158701 1_545
Mg11 Mg7 3.158701 1_555
Mg11 Mg2 3.212917 1_556
Mg11 Mg4 3.212923 1_546
Mg11 Mg13 3.227281 1_545
Mg11 Mg13 3.227281 1_555
Mg11 Mg9 3.276331 1_655
Mg11 Mg7 3.276332 1_655
Mg12 Mo0 3.050321 1_655
Mg12 Mg4 3.088913 1_555
Mg12 Mg2 3.088920 1_555
Mg12 Mg6 3.115795 1_665
Mg12 Mg8 3.115795 1_655
Mg12 Mg5 3.264967 1_555
Mg12 Mg3 3.264974 1_555
Mg12 Mg6 3.318277 1_555
Mg12 Mg8 3.318277 1_555
Mg13 Mo0 3.050321 1_656
Mg13 Mg4 3.088913 1_556
Mg13 Mg2 3.088920 1_556
Mg13 Mg7 3.115795 1_665
Mg13 Mg9 3.115795 1_655
Mg13 Mg5 3.264967 1_555
Mg13 Mg3 3.264974 1_555
Mg13 Mg7 3.318277 1_555
Mg13 Mg9 3.318277 1_555
