# generated using pymatgen
data_La7Ru3
_symmetry_space_group_name_H-M   'P 1'
_cell_length_a   6.75953800
_cell_length_b   7.41355000
_cell_length_c   23.77622600
_cell_angle_alpha   90.00000000
_cell_angle_beta   90.00000000
_cell_angle_gamma   90.00000000
_symmetry_Int_Tables_number   1
_chemical_formula_structural   La7Ru3
_chemical_formula_sum   'La28 Ru12'
_cell_volume   1191.47834917
_cell_formula_units_Z   4
loop_
 _symmetry_equiv_pos_site_id
 _symmetry_equiv_pos_as_xyz
  1  'x, y, z'
loop_
 _atom_site_type_symbol
 _atom_site_label
 _atom_site_symmetry_multiplicity
 _atom_site_fract_x
 _atom_site_fract_y
 _atom_site_fract_z
 _atom_site_occupancy
  La  La0  1  0.31789100  0.81924500  0.17469500  1
  La  La1  1  0.18210900  0.31924500  0.32530500  1
  La  La2  1  0.68210900  0.18075500  0.67469500  1
  La  La3  1  0.81789100  0.68075500  0.82530500  1
  La  La4  1  0.68210900  0.18075500  0.82530500  1
  La  La5  1  0.81789100  0.68075500  0.67469500  1
  La  La6  1  0.31789100  0.81924500  0.32530500  1
  La  La7  1  0.18210900  0.31924500  0.17469500  1
  La  La8  1  0.31938100  0.83013200  0.02387000  1
  La  La9  1  0.18061900  0.33013200  0.47613000  1
  La  La10  1  0.68061900  0.16986800  0.52387000  1
  La  La11  1  0.81938100  0.66986800  0.97613000  1
  La  La12  1  0.68061900  0.16986800  0.97613000  1
  La  La13  1  0.81938100  0.66986800  0.52387000  1
  La  La14  1  0.31938100  0.83013200  0.47613000  1
  La  La15  1  0.18061900  0.33013200  0.02387000  1
  La  La16  1  0.85715100  0.68282700  0.25000000  1
  La  La17  1  0.64284900  0.18282700  0.25000000  1
  La  La18  1  0.14284900  0.31717300  0.75000000  1
  La  La19  1  0.35715100  0.81717300  0.75000000  1
  La  La20  1  0.85088700  0.94956300  0.11471500  1
  La  La21  1  0.64911300  0.44956300  0.38528500  1
  La  La22  1  0.14911300  0.05043700  0.61471500  1
  La  La23  1  0.35088700  0.55043700  0.88528500  1
  La  La24  1  0.14911300  0.05043700  0.88528500  1
  La  La25  1  0.35088700  0.55043700  0.61471500  1
  La  La26  1  0.85088700  0.94956300  0.38528500  1
  La  La27  1  0.64911300  0.44956300  0.11471500  1
  Ru  Ru0  1  0.47134000  0.51920100  0.25000000  1
  Ru  Ru1  1  0.02866000  0.01920100  0.25000000  1
  Ru  Ru2  1  0.52866000  0.48079900  0.75000000  1
  Ru  Ru3  1  0.97134000  0.98079900  0.75000000  1
  Ru  Ru4  1  0.02859500  0.62052200  0.09495700  1
  Ru  Ru5  1  0.47140500  0.12052200  0.40504300  1
  Ru  Ru6  1  0.97140500  0.37947800  0.59495700  1
  Ru  Ru7  1  0.52859500  0.87947800  0.90504300  1
  Ru  Ru8  1  0.97140500  0.37947800  0.90504300  1
  Ru  Ru9  1  0.52859500  0.87947800  0.59495700  1
  Ru  Ru10  1  0.02859500  0.62052200  0.40504300  1
  Ru  Ru11  1  0.47140500  0.12052200  0.09495700  1
loop_
_geom_bond_atom_site_label_1
_geom_bond_atom_site_label_2
_geom_bond_distance
_geom_bond_site_symmetry_2
La0 Ru1 3.037356 1_565
La0 Ru0 3.038021 1_555
La0 Ru4 3.096574 1_555
La0 Ru11 3.108017 1_565
La1 Ru0 3.037356 1_555
La1 Ru1 3.038021 1_555
La1 Ru5 3.096574 1_555
La1 Ru10 3.108017 1_555
La2 Ru3 3.037356 1_545
La2 Ru2 3.038021 1_555
La2 Ru6 3.096574 1_555
La2 Ru9 3.108017 1_545
La3 Ru2 3.037356 1_555
La3 Ru3 3.038021 1_555
La3 Ru7 3.096574 1_555
La3 Ru8 3.108017 1_555
La4 Ru3 3.037356 1_545
La4 Ru2 3.038021 1_555
La4 Ru8 3.096574 1_555
La4 Ru7 3.108017 1_545
La5 Ru2 3.037356 1_555
La5 Ru3 3.038021 1_555
La5 Ru9 3.096574 1_555
La5 Ru6 3.108017 1_555
La6 Ru1 3.037356 1_565
La6 Ru0 3.038021 1_555
La6 Ru10 3.096574 1_555
La6 Ru5 3.108017 1_565
La7 Ru0 3.037356 1_555
La7 Ru1 3.038021 1_555
La7 Ru11 3.096574 1_555
La7 Ru4 3.108017 1_555
La8 Ru11 2.923582 1_565
La8 Ru4 3.022414 1_555
La8 Ru7 3.180542 1_554
La9 Ru10 2.923582 1_555
La9 Ru5 3.022414 1_555
La9 Ru6 3.180542 1_455
La10 Ru9 2.923582 1_545
La10 Ru6 3.022414 1_555
La10 Ru5 3.180542 1_555
La11 Ru8 2.923582 1_555
La11 Ru7 3.022414 1_555
La11 Ru4 3.180542 1_656
La12 Ru7 2.923582 1_545
La12 Ru8 3.022414 1_555
La12 Ru11 3.180542 1_556
La13 Ru6 2.923582 1_555
La13 Ru9 3.022414 1_555
La13 Ru10 3.180542 1_655
La14 Ru5 2.923582 1_565
La14 Ru10 3.022414 1_555
La14 Ru9 3.180542 1_555
La15 Ru4 2.923582 1_555
La15 Ru11 3.022414 1_555
La15 Ru8 3.180542 1_454
La16 Ru1 2.750035 1_665
La16 Ru0 2.876222 1_555
La17 Ru0 2.750035 1_555
La17 Ru1 2.876222 1_655
La18 Ru3 2.750035 1_445
La18 Ru2 2.876222 1_555
La19 Ru2 2.750035 1_555
La19 Ru3 2.876222 1_455
La20 Ru4 2.759368 1_655
La20 Ru11 2.899461 1_565
La20 Ru1 3.472294 1_665
La21 Ru5 2.759368 1_555
La21 Ru10 2.899461 1_655
La21 Ru0 3.472294 1_555
La22 Ru6 2.759368 1_455
La22 Ru9 2.899461 1_545
La22 Ru3 3.472294 1_445
La23 Ru7 2.759368 1_555
La23 Ru8 2.899461 1_455
La23 Ru2 3.472294 1_555
La24 Ru8 2.759368 1_455
La24 Ru7 2.899461 1_545
La24 Ru3 3.472294 1_445
La25 Ru9 2.759368 1_555
La25 Ru6 2.899461 1_455
La25 Ru2 3.472294 1_555
La26 Ru10 2.759368 1_655
La26 Ru5 2.899461 1_565
La26 Ru1 3.472294 1_665
La27 Ru11 2.759368 1_555
La27 Ru4 2.899461 1_655
La27 Ru0 3.472294 1_555
