# generated using pymatgen
data_NiSb2H12(O3F4)2
_symmetry_space_group_name_H-M   'P 1'
_cell_length_a   18.27140900
_cell_length_b   5.03967900
_cell_length_c   7.69025536
_cell_angle_alpha   61.11958828
_cell_angle_beta   90.00000000
_cell_angle_gamma   90.00000000
_symmetry_Int_Tables_number   1
_chemical_formula_structural   NiSb2H12(O3F4)2
_chemical_formula_sum   'Ni2 Sb4 H24 O12 F16'
_cell_volume   620.06348893
_cell_formula_units_Z   2
loop_
 _symmetry_equiv_pos_site_id
 _symmetry_equiv_pos_as_xyz
  1  'x, y, z'
loop_
 _atom_site_type_symbol
 _atom_site_label
 _atom_site_symmetry_multiplicity
 _atom_site_fract_x
 _atom_site_fract_y
 _atom_site_fract_z
 _atom_site_occupancy
  Ni  Ni0  1  0.50000000  0.50000000  0.00000000  1
  Ni  Ni1  1  0.00000000  0.50000000  0.50000000  1
  Sb  Sb0  1  0.71553100  0.87540100  0.52378600  1
  Sb  Sb1  1  0.21553100  0.12459900  0.97621400  1
  Sb  Sb2  1  0.28446900  0.12459900  0.47621400  1
  Sb  Sb3  1  0.78446900  0.87540100  0.02378600  1
  H  H0  1  0.62264400  0.23680100  0.96799700  1
  H  H1  1  0.12264400  0.76319900  0.53200300  1
  H  H2  1  0.37735600  0.76319900  0.03200300  1
  H  H3  1  0.87735600  0.23680100  0.46799700  1
  H  H4  1  0.61064900  0.71074600  0.14513600  1
  H  H5  1  0.11064900  0.28925400  0.35486400  1
  H  H6  1  0.38935100  0.28925400  0.85486400  1
  H  H7  1  0.88935100  0.71074600  0.64513600  1
  H  H8  1  0.58946900  0.37308200  0.29559800  1
  H  H9  1  0.08946900  0.62691800  0.20440200  1
  H  H10  1  0.41053100  0.62691800  0.70440200  1
  H  H11  1  0.91053100  0.37308200  0.79559800  1
  H  H12  1  0.55491400  0.94637500  0.66743900  1
  H  H13  1  0.05491400  0.05362500  0.83256100  1
  H  H14  1  0.44508600  0.05362500  0.33256100  1
  H  H15  1  0.94508600  0.94637500  0.16743900  1
  H  H16  1  0.55957800  0.22642300  0.83069800  1
  H  H17  1  0.05957800  0.77357700  0.66930200  1
  H  H18  1  0.44042200  0.77357700  0.16930200  1
  H  H19  1  0.94042200  0.22642300  0.33069800  1
  H  H20  1  0.47481500  0.04108500  0.68860700  1
  H  H21  1  0.97481500  0.95891500  0.81139300  1
  H  H22  1  0.52518500  0.95891500  0.31139300  1
  H  H23  1  0.02518500  0.04108500  0.18860700  1
  O  O0  1  0.58101300  0.35453900  0.88318300  1
  O  O1  1  0.08101300  0.64546100  0.61681700  1
  O  O2  1  0.41898700  0.64546100  0.11681700  1
  O  O3  1  0.91898700  0.35453900  0.38318300  1
  O  O4  1  0.56899400  0.56512800  0.19092500  1
  O  O5  1  0.06899400  0.43487200  0.30907500  1
  O  O6  1  0.43100600  0.43487200  0.80907500  1
  O  O7  1  0.93100600  0.56512800  0.69092500  1
  O  O8  1  0.52062100  0.95753800  0.76429700  1
  O  O9  1  0.02062100  0.04246200  0.73570300  1
  O  O10  1  0.47937900  0.04246200  0.23570300  1
  O  O11  1  0.97937900  0.95753800  0.26429700  1
  F  F0  1  0.81927400  0.95454900  0.61428500  1
  F  F1  1  0.31927400  0.04545100  0.88571500  1
  F  F2  1  0.18072600  0.04545100  0.38571500  1
  F  F3  1  0.68072600  0.95454900  0.11428500  1
  F  F4  1  0.59919000  0.97516600  0.46113900  1
  F  F5  1  0.09919000  0.02483400  0.03886100  1
  F  F6  1  0.40081000  0.02483400  0.53886100  1
  F  F7  1  0.90081000  0.97516600  0.96113900  1
  F  F8  1  0.68574600  0.92386700  0.75688200  1
  F  F9  1  0.18574600  0.07613300  0.74311800  1
  F  F10  1  0.31425400  0.07613300  0.24311800  1
  F  F11  1  0.81425400  0.92386700  0.25688200  1
  F  F12  1  0.78033000  0.31703000  0.85288700  1
  F  F13  1  0.28033000  0.68297000  0.64711300  1
  F  F14  1  0.21967000  0.68297000  0.14711300  1
  F  F15  1  0.71967000  0.31703000  0.35288700  1
loop_
_geom_bond_atom_site_label_1
_geom_bond_atom_site_label_2
_geom_bond_distance
_geom_bond_site_symmetry_2
Ni0 O2 2.042460 1_555
Ni0 O0 2.042460 1_554
Ni0 O4 2.078028 1_555
Ni0 O6 2.078028 1_554
Ni0 O8 2.169584 1_554
Ni0 O10 2.169584 1_555
Ni1 O1 2.042460 1_555
Ni1 O3 2.042460 1_455
Ni1 O7 2.078028 1_455
Ni1 O5 2.078028 1_555
Ni1 O9 2.169584 1_555
Ni1 O11 2.169584 1_455
H0 O0 0.991087 1_555
H1 O1 0.991087 1_555
H2 O2 0.991087 1_555
H3 O3 0.991087 1_555
H4 O4 0.996093 1_555
H5 O5 0.996093 1_555
H6 O6 0.996093 1_555
H7 O7 0.996093 1_555
H8 O4 0.985945 1_555
H9 O5 0.985945 1_555
H10 O6 0.985945 1_555
H11 O7 0.985945 1_555
H12 O8 0.995524 1_555
H13 O9 0.995524 1_555
H14 O10 0.995524 1_555
H15 O11 0.995524 1_555
H16 O0 0.992429 1_555
H17 O1 0.992429 1_555
H18 O2 0.992429 1_555
H19 O3 0.992429 1_555
H20 O8 0.989860 1_545
H21 O9 0.989860 1_665
H22 O10 0.989860 1_565
H23 O11 0.989860 1_445
F0 Sb0 2.122419 1_555
F1 Sb1 2.122419 1_555
F2 Sb2 2.122419 1_555
F3 Sb3 2.122419 1_555
F4 Sb0 2.183935 1_555
F5 Sb1 2.183935 1_554
F6 Sb2 2.183935 1_555
F7 Sb3 2.183935 1_556
F8 Sb0 1.998016 1_555
F9 Sb1 1.998016 1_555
F10 Sb2 1.998016 1_555
F11 Sb3 1.998016 1_555
F12 Sb3 1.964954 1_546
F13 Sb2 1.964954 1_565
F14 Sb1 1.964954 1_564
F15 Sb0 1.964954 1_545
