# generated using pymatgen
data_Li2HN
_symmetry_space_group_name_H-M   'P 1'
_cell_length_a   7.15534386
_cell_length_b   7.15534386
_cell_length_c   7.15534386
_cell_angle_alpha   120.46110672
_cell_angle_beta   120.32591767
_cell_angle_gamma   89.31979794
_symmetry_Int_Tables_number   1
_chemical_formula_structural   Li2HN
_chemical_formula_sum   'Li16 H8 N8'
_cell_volume   257.48487293
_cell_formula_units_Z   8
loop_
 _symmetry_equiv_pos_site_id
 _symmetry_equiv_pos_as_xyz
  1  'x, y, z'
loop_
 _atom_site_type_symbol
 _atom_site_label
 _atom_site_symmetry_multiplicity
 _atom_site_fract_x
 _atom_site_fract_y
 _atom_site_fract_z
 _atom_site_occupancy
  Li  Li0  1  0.85597200  0.11442700  0.75845500  1
  Li  Li1  1  0.14402800  0.90248300  0.25845500  1
  Li  Li2  1  0.62974900  0.88524700  0.75549800  1
  Li  Li3  1  0.13216700  0.38461000  0.75244300  1
  Li  Li4  1  0.12137800  0.35461600  0.24439400  1
  Li  Li5  1  0.60494100  0.88427500  0.26042100  1
  Li  Li6  1  0.12385400  0.88427500  0.77933400  1
  Li  Li7  1  0.61022300  0.35461600  0.73323800  1
  Li  Li8  1  0.37025100  0.12574900  0.25549800  1
  Li  Li9  1  0.86783300  0.62027600  0.25244300  1
  Li  Li10  1  0.87614600  0.65548000  0.76042100  1
  Li  Li11  1  0.38977700  0.12301600  0.74439400  1
  Li  Li12  1  0.87862200  0.12301600  0.23323800  1
  Li  Li13  1  0.39505900  0.65548000  0.27933400  1
  Li  Li14  1  0.99398400  0.00300600  0.50902200  1
  Li  Li15  1  0.00601600  0.51503700  0.00902200  1
  H  H0  1  0.69882300  0.31361100  0.11478800  1
  H  H1  1  0.70403100  0.59859600  0.39456500  1
  H  H2  1  0.38616400  0.30062800  0.08656600  1
  H  H3  1  0.71406200  0.30062800  0.41446400  1
  H  H4  1  0.29596900  0.69053400  0.89456500  1
  H  H5  1  0.30117700  0.41596400  0.61478800  1
  H  H6  1  0.61383600  0.70040200  0.91446400  1
  H  H7  1  0.28593800  0.70040200  0.58656600  1
  N  N0  1  0.75702200  0.25236700  0.99534500  1
  N  N1  1  0.76106500  0.77628300  0.51521900  1
  N  N2  1  0.20847200  0.24197800  0.97054100  1
  N  N3  1  0.77143700  0.24197800  0.53350700  1
  N  N4  1  0.23893500  0.75415400  0.01521900  1
  N  N5  1  0.24297800  0.23832400  0.49534500  1
  N  N6  1  0.79152900  0.76207000  0.03350700  1
  N  N7  1  0.22856300  0.76207000  0.47054100  1
loop_
_geom_bond_atom_site_label_1
_geom_bond_atom_site_label_2
_geom_bond_distance
_geom_bond_site_symmetry_2
Li0 N0 1.961545 1_555
Li0 N1 1.979975 1_545
Li0 N3 2.069483 1_555
Li0 N2 2.069489 1_655
Li0 Li14 2.261569 1_555
Li0 Li15 2.345721 1_656
Li1 N5 1.961551 1_565
Li1 N4 1.979969 1_555
Li1 N7 2.069483 1_555
Li1 N6 2.069483 1_455
Li1 Li15 2.261575 1_555
Li1 Li14 2.345727 1_465
Li2 N0 2.140728 1_565
Li2 N1 2.168297 1_555
Li3 N2 2.125142 1_555
Li3 N3 2.125142 1_455
Li3 N5 2.146959 1_555
Li3 N4 2.160397 1_556
Li4 N2 2.120755 1_554
Li4 N0 2.130634 1_454
Li4 N5 2.143317 1_555
Li5 N3 2.106945 1_565
Li5 N1 2.126066 1_555
Li5 N4 2.136668 1_555
Li6 N2 2.106945 1_565
Li6 N1 2.126060 1_455
Li6 N4 2.136668 1_556
Li7 N3 2.120743 1_555
Li7 N0 2.130633 1_555
Li7 N5 2.143329 1_555
Li8 N5 2.140728 1_555
Li8 N4 2.168297 1_545
Li9 N7 2.125142 1_655
Li9 N6 2.125142 1_555
Li9 N0 2.146959 1_554
Li9 N1 2.160397 1_555
Li10 N6 2.106945 1_556
Li10 N4 2.126060 1_656
Li10 N1 2.136662 1_555
Li10 Li15 2.271259 1_656
Li11 N7 2.120749 1_545
Li11 N5 2.130639 1_555
Li11 N0 2.143329 1_555
Li11 Li14 2.317133 1_455
Li12 N6 2.120749 1_545
Li12 N5 2.130633 1_655
Li12 N0 2.143323 1_554
Li12 Li14 2.317139 1_555
Li13 N7 2.106945 1_555
Li13 N4 2.126060 1_555
Li13 N1 2.136668 1_555
Li13 Li15 2.271253 1_555
Li14 Li3 2.229348 1_655
Li14 Li9 2.229935 1_545
Li14 Li5 2.271253 1_545
Li14 Li6 2.271253 1_645
Li14 N2 2.324569 1_655
Li14 N3 2.324569 1_555
Li14 N1 2.371313 1_545
Li14 N7 2.404574 1_645
Li14 N6 2.404574 1_545
Li14 N5 2.536395 1_655
Li15 Li9 2.229348 1_455
Li15 Li3 2.229935 1_554
Li15 Li7 2.317133 1_454
Li15 Li4 2.317133 1_555
Li15 N7 2.324569 1_555
Li15 N6 2.324574 1_455
Li15 N4 2.371313 1_555
Li15 N3 2.404573 1_454
Li15 N2 2.404573 1_554
Li15 N0 2.536385 1_454
H0 N0 1.035003 1_554
H0 Li9 1.978971 1_555
H0 Li12 2.064588 1_555
H0 Li11 2.064591 1_554
H1 N1 1.035368 1_555
H1 Li9 1.949316 1_555
H1 Li13 2.052137 1_555
H1 Li10 2.052137 1_555
H2 N2 1.037019 1_554
H2 Li11 2.125690 1_554
H2 Li8 2.171598 1_555
H2 Li13 2.172052 1_555
H3 N3 1.037025 1_555
H3 Li12 2.125694 1_555
H3 Li8 2.171598 1_555
H3 Li10 2.172052 1_555
H4 N4 1.035374 1_556
H4 Li3 1.949316 1_555
H4 Li6 2.052137 1_555
H4 Li5 2.052137 1_556
H5 N5 1.034991 1_555
H5 Li3 1.978969 1_555
H5 Li4 2.064591 1_555
H5 Li7 2.064592 1_555
H6 N6 1.037025 1_556
H6 Li7 2.125697 1_555
H6 Li2 2.171598 1_555
H6 Li5 2.172052 1_556
H7 N7 1.037025 1_555
H7 Li4 2.125694 1_555
H7 Li2 2.171598 1_555
H7 Li6 2.172052 1_555
