# generated using pymatgen
data_NaAlSe2
_symmetry_space_group_name_H-M   'P 1'
_cell_length_a   6.25364985
_cell_length_b   6.25364985
_cell_length_c   6.25364985
_cell_angle_alpha   104.89098424
_cell_angle_beta   104.89098424
_cell_angle_gamma   119.08053766
_symmetry_Int_Tables_number   1
_chemical_formula_structural   NaAlSe2
_chemical_formula_sum   'Na2 Al2 Se4'
_cell_volume   184.23877345
_cell_formula_units_Z   2
loop_
 _symmetry_equiv_pos_site_id
 _symmetry_equiv_pos_as_xyz
  1  'x, y, z'
loop_
 _atom_site_type_symbol
 _atom_site_label
 _atom_site_symmetry_multiplicity
 _atom_site_fract_x
 _atom_site_fract_y
 _atom_site_fract_z
 _atom_site_occupancy
  Na  Na0  1  0.75000000  0.75000000  -0.00000000  1
  Na  Na1  1  0.25000000  0.25000000  -0.00000000  1
  Al  Al0  1  0.25000000  0.75000000  0.50000000  1
  Al  Al1  1  0.75000000  0.25000000  0.50000000  1
  Se  Se0  1  0.16833056  0.33166944  0.50000000  1
  Se  Se1  1  0.66833056  0.16833056  0.83666111  1
  Se  Se2  1  0.33166944  0.83166944  0.16333889  1
  Se  Se3  1  0.83166944  0.66833056  0.50000000  1
loop_
_geom_bond_atom_site_label_1
_geom_bond_atom_site_label_2
_geom_bond_distance
_geom_bond_site_symmetry_2
Na0 Se2 3.248429 1_655
Na0 Se1 3.248429 1_554
Na0 Se3 3.248429 1_554
Na0 Se3 3.248429 1_555
Na0 Se0 3.248429 1_554
Na0 Se0 3.248429 1_665
Na0 Se2 3.248429 1_555
Na0 Se1 3.248429 1_564
Na1 Se2 3.248429 1_555
Na1 Se1 3.248429 1_454
Na1 Se3 3.248429 1_444
Na1 Se3 3.248429 1_555
Na1 Se0 3.248429 1_555
Na1 Se0 3.248429 1_554
Na1 Se2 3.248429 1_545
Na1 Se1 3.248429 1_554
Al0 Se2 2.409559 1_555
Al0 Se1 2.409559 1_565
Al0 Se3 2.409559 1_455
Al0 Se0 2.409559 1_555
Al1 Se1 2.409559 1_555
Al1 Se2 2.409559 1_545
Al1 Se0 2.409559 1_655
Al1 Se3 2.409559 1_555
