# generated using pymatgen
data_In4Te3N2
_symmetry_space_group_name_H-M   'P 1'
_cell_length_a   6.90471571
_cell_length_b   12.24131405
_cell_length_c   11.61722425
_cell_angle_alpha   90.00000000
_cell_angle_beta   90.00000000
_cell_angle_gamma   90.00000000
_symmetry_Int_Tables_number   1
_chemical_formula_structural   In4Te3N2
_chemical_formula_sum   'In16 Te12 N8'
_cell_volume   981.92024554
_cell_formula_units_Z   4
loop_
 _symmetry_equiv_pos_site_id
 _symmetry_equiv_pos_as_xyz
  1  'x, y, z'
loop_
 _atom_site_type_symbol
 _atom_site_label
 _atom_site_symmetry_multiplicity
 _atom_site_fract_x
 _atom_site_fract_y
 _atom_site_fract_z
 _atom_site_occupancy
  In  In0  1  0.74088265  0.25000000  0.94682920  1
  In  In1  1  0.24088265  0.25000000  0.55317080  1
  In  In2  1  0.25911735  0.75000000  0.05317080  1
  In  In3  1  0.75911735  0.75000000  0.44682920  1
  In  In4  1  0.87619247  0.25000000  0.38972247  1
  In  In5  1  0.37619247  0.25000000  0.11027753  1
  In  In6  1  0.12380753  0.75000000  0.61027753  1
  In  In7  1  0.62380753  0.75000000  0.88972247  1
  In  In8  1  0.63541136  0.52373597  0.10636918  1
  In  In9  1  0.13541136  0.97626403  0.39363082  1
  In  In10  1  0.36458864  0.02373597  0.89363082  1
  In  In11  1  0.86458864  0.47626403  0.60636918  1
  In  In12  1  0.36458864  0.47626403  0.89363082  1
  In  In13  1  0.86458864  0.02373597  0.60636918  1
  In  In14  1  0.63541136  0.97626403  0.10636918  1
  In  In15  1  0.13541136  0.52373597  0.39363082  1
  Te  Te0  1  0.98221547  0.25000000  0.15246807  1
  Te  Te1  1  0.48221547  0.25000000  0.34753193  1
  Te  Te2  1  0.01778453  0.75000000  0.84753193  1
  Te  Te3  1  0.51778453  0.75000000  0.65246807  1
  Te  Te4  1  0.54349763  0.55765305  0.34629634  1
  Te  Te5  1  0.04349763  0.94234695  0.15370366  1
  Te  Te6  1  0.45650237  0.05765305  0.65370366  1
  Te  Te7  1  0.95650237  0.44234695  0.84629634  1
  Te  Te8  1  0.45650237  0.44234695  0.65370366  1
  Te  Te9  1  0.95650237  0.05765305  0.84629634  1
  Te  Te10  1  0.54349763  0.94234695  0.34629634  1
  Te  Te11  1  0.04349763  0.55765305  0.15370366  1
  N  N0  1  0.47097547  0.62417181  0.98424019  1
  N  N1  1  0.97097547  0.87582819  0.51575981  1
  N  N2  1  0.52902453  0.12417181  0.01575981  1
  N  N3  1  0.02902453  0.37582819  0.48424019  1
  N  N4  1  0.52902453  0.37582819  0.01575981  1
  N  N5  1  0.02902453  0.12417181  0.48424019  1
  N  N6  1  0.47097547  0.87582819  0.98424019  1
  N  N7  1  0.97097547  0.62417181  0.51575981  1
loop_
_geom_bond_atom_site_label_1
_geom_bond_atom_site_label_2
_geom_bond_distance
_geom_bond_site_symmetry_2
In0 N2 2.270160 1_556
In0 N4 2.270160 1_556
In0 Te0 2.912691 1_556
In0 Te7 3.020690 1_555
In0 Te9 3.020690 1_555
In1 N3 2.270160 1_555
In1 N5 2.270160 1_555
In1 Te1 2.912691 1_555
In1 Te8 3.020690 1_555
In1 Te6 3.020690 1_555
In2 N6 2.270160 1_554
In2 N0 2.270160 1_554
In2 Te2 2.912691 1_554
In2 Te5 3.020690 1_555
In2 Te11 3.020690 1_555
In3 N1 2.270160 1_555
In3 N7 2.270160 1_555
In3 Te3 2.912691 1_555
In3 Te10 3.020690 1_555
In3 Te4 3.020690 1_555
In4 N5 2.166053 1_655
In4 N3 2.166053 1_655
In4 Te1 2.764102 1_555
In4 Te0 2.851799 1_555
In5 N4 2.166053 1_555
In5 N2 2.166053 1_555
In5 Te0 2.764102 1_455
In5 Te1 2.851799 1_555
In6 N1 2.166053 1_455
In6 N7 2.166053 1_455
In6 Te3 2.764102 1_555
In6 Te2 2.851799 1_555
In7 N6 2.166053 1_555
In7 N0 2.166053 1_555
In7 Te2 2.764102 1_655
In7 Te3 2.851799 1_555
In8 N0 2.194009 1_554
In8 N4 2.219424 1_555
In8 Te4 2.888619 1_555
In8 Te11 2.900743 1_655
In9 N1 2.194009 1_455
In9 N5 2.219424 1_565
In9 Te5 2.888619 1_555
In9 Te10 2.900743 1_555
In10 N2 2.194009 1_556
In10 N6 2.219424 1_545
In10 Te6 2.888619 1_555
In10 Te9 2.900743 1_455
In11 N3 2.194009 1_655
In11 N7 2.219424 1_555
In11 Te7 2.888619 1_555
In11 Te8 2.900743 1_555
In12 N4 2.194009 1_556
In12 N0 2.219424 1_555
In12 Te8 2.888619 1_555
In12 Te7 2.900743 1_455
In13 N5 2.194009 1_655
In13 N1 2.219424 1_545
In13 Te9 2.888619 1_555
In13 Te6 2.900743 1_555
In14 N6 2.194009 1_554
In14 N2 2.219424 1_565
In14 Te10 2.888619 1_555
In14 Te5 2.900743 1_655
In15 N7 2.194009 1_455
In15 N3 2.219424 1_555
In15 Te11 2.888619 1_555
In15 Te4 2.900743 1_555
