# generated using pymatgen
data_HoBi3
_symmetry_space_group_name_H-M   'P 1'
_cell_length_a   6.83228133
_cell_length_b   6.83228133
_cell_length_c   6.01991100
_cell_angle_alpha   90.00000000
_cell_angle_beta   90.00000000
_cell_angle_gamma   119.99999348
_symmetry_Int_Tables_number   1
_chemical_formula_structural   HoBi3
_chemical_formula_sum   'Ho2 Bi6'
_cell_volume   243.36168964
_cell_formula_units_Z   2
loop_
 _symmetry_equiv_pos_site_id
 _symmetry_equiv_pos_as_xyz
  1  'x, y, z'
loop_
 _atom_site_type_symbol
 _atom_site_label
 _atom_site_symmetry_multiplicity
 _atom_site_fract_x
 _atom_site_fract_y
 _atom_site_fract_z
 _atom_site_occupancy
  Ho  Ho0  1  0.33333300  0.66666700  0.75000000  1
  Ho  Ho1  1  0.66666700  0.33333300  0.25000000  1
  Bi  Bi0  1  0.17275400  0.34550800  0.25000000  1
  Bi  Bi1  1  0.65449200  0.82724600  0.25000000  1
  Bi  Bi2  1  0.17275400  0.82724600  0.25000000  1
  Bi  Bi3  1  0.82724600  0.65449200  0.75000000  1
  Bi  Bi4  1  0.34550800  0.17275400  0.75000000  1
  Bi  Bi5  1  0.82724600  0.17275400  0.75000000  1
loop_
_geom_bond_atom_site_label_1
_geom_bond_atom_site_label_2
_geom_bond_distance
_geom_bond_site_symmetry_2
Bi0 Ho1 3.416897 1_455
Bi0 Ho1 3.416904 1_555
Bi0 Ho0 3.559618 1_554
Bi0 Ho0 3.559618 1_555
Bi1 Ho1 3.416897 1_565
Bi1 Ho1 3.416904 1_555
Bi1 Ho0 3.559618 1_554
Bi1 Ho0 3.559618 1_555
Bi2 Ho1 3.416900 1_455
Bi2 Ho1 3.416900 1_565
Bi2 Ho0 3.559614 1_554
Bi2 Ho0 3.559614 1_555
Bi3 Ho0 3.416897 1_655
Bi3 Ho0 3.416904 1_555
Bi3 Ho1 3.559618 1_556
Bi3 Ho1 3.559618 1_555
Bi4 Ho0 3.416897 1_545
Bi4 Ho0 3.416904 1_555
Bi4 Ho1 3.559618 1_556
Bi4 Ho1 3.559618 1_555
Bi5 Ho0 3.416900 1_545
Bi5 Ho0 3.416900 1_655
Bi5 Ho1 3.559614 1_556
Bi5 Ho1 3.559614 1_555
