# generated using pymatgen
data_BaNiO2
_symmetry_space_group_name_H-M   'P 1'
_cell_length_a   5.49602140
_cell_length_b   5.49602140
_cell_length_c   4.78157400
_cell_angle_alpha   90.00000000
_cell_angle_beta   90.00000000
_cell_angle_gamma   116.04028216
_symmetry_Int_Tables_number   1
_chemical_formula_structural   BaNiO2
_chemical_formula_sum   'Ba2 Ni2 O4'
_cell_volume   129.77135632
_cell_formula_units_Z   2
loop_
 _symmetry_equiv_pos_site_id
 _symmetry_equiv_pos_as_xyz
  1  'x, y, z'
loop_
 _atom_site_type_symbol
 _atom_site_label
 _atom_site_symmetry_multiplicity
 _atom_site_fract_x
 _atom_site_fract_y
 _atom_site_fract_z
 _atom_site_occupancy
  Ba  Ba0  1  0.65379100  0.34620900  0.75000000  1
  Ba  Ba1  1  0.34620900  0.65379100  0.25000000  1
  Ni  Ni0  1  0.00000000  0.00000000  0.50000000  1
  Ni  Ni1  1  0.00000000  0.00000000  0.00000000  1
  O  O0  1  0.13816200  0.30074600  0.75000000  1
  O  O1  1  0.86183800  0.69925400  0.25000000  1
  O  O2  1  0.69925400  0.86183800  0.75000000  1
  O  O3  1  0.30074600  0.13816200  0.25000000  1
loop_
_geom_bond_atom_site_label_1
_geom_bond_atom_site_label_2
_geom_bond_distance
_geom_bond_site_symmetry_2
Ba0 O0 2.733451 1_555
Ba0 O2 2.733451 1_555
Ba0 O2 2.780882 1_545
Ba0 O0 2.780882 1_655
Ba0 O1 2.973254 1_555
Ba0 O1 2.973254 1_556
Ba0 O3 2.973254 1_556
Ba0 O3 2.973254 1_555
Ba1 O3 2.733451 1_555
Ba1 O1 2.733451 1_555
Ba1 O1 2.780882 1_455
Ba1 O3 2.780882 1_565
Ba1 O2 2.973254 1_554
Ba1 O2 2.973254 1_555
Ba1 O0 2.973254 1_555
Ba1 O0 2.973254 1_554
Ni0 O3 1.906741 1_555
Ni0 O0 1.906741 1_555
Ni0 O2 1.906741 1_445
Ni0 O1 1.906741 1_445
Ni1 O3 1.906741 1_555
Ni1 O0 1.906741 1_554
Ni1 O2 1.906741 1_444
Ni1 O1 1.906741 1_445
