# generated using pymatgen
data_CoF3
_symmetry_space_group_name_H-M   'P 1'
_cell_length_a   5.44809947
_cell_length_b   6.69425628
_cell_length_c   6.65061768
_cell_angle_alpha   70.42644221
_cell_angle_beta   89.50746034
_cell_angle_gamma   89.97433893
_symmetry_Int_Tables_number   1
_chemical_formula_structural   CoF3
_chemical_formula_sum   'Co4 F12'
_cell_volume   228.52859940
_cell_formula_units_Z   4
loop_
 _symmetry_equiv_pos_site_id
 _symmetry_equiv_pos_as_xyz
  1  'x, y, z'
loop_
 _atom_site_type_symbol
 _atom_site_label
 _atom_site_symmetry_multiplicity
 _atom_site_fract_x
 _atom_site_fract_y
 _atom_site_fract_z
 _atom_site_occupancy
  Co  Co0  1  0.99979000  0.49873800  0.49945000  1
  Co  Co1  1  0.50358700  0.75213000  0.75227700  1
  Co  Co2  1  0.00264000  0.99927300  0.99923500  1
  Co  Co3  1  0.49951400  0.24930000  0.24936700  1
  F  F0  1  0.25165900  0.87318000  0.86528600  1
  F  F1  1  0.75237400  0.13388600  0.13537900  1
  F  F2  1  0.26099200  0.37334900  0.37178500  1
  F  F3  1  0.73203200  0.61955200  0.62684100  1
  F  F4  1  0.76133400  0.38088200  0.38063100  1
  F  F5  1  0.22932600  0.62070700  0.62091200  1
  F  F6  1  0.75118200  0.87617000  0.87667800  1
  F  F7  1  0.25604800  0.12248400  0.12158100  1
  F  F8  1  0.49944500  0.00020800  0.50355800  1
  F  F9  1  0.99998400  0.24007600  0.75600000  1
  F  F10  1  0.50020800  0.50314200  0.00010200  1
  F  F11  1  0.99988400  0.75692200  0.24091500  1
loop_
_geom_bond_atom_site_label_1
_geom_bond_atom_site_label_2
_geom_bond_distance
_geom_bond_site_symmetry_2
Co0 F5 1.828454 1_655
Co0 F4 1.836014 1_555
Co0 F2 1.976416 1_655
Co0 F9 1.982403 1_555
Co0 F3 1.984114 1_555
Co0 F11 1.988064 1_555
Co1 F0 1.869412 1_555
Co1 F3 1.873462 1_555
Co1 F10 1.911506 1_556
Co1 F8 1.911701 1_565
Co1 F6 1.916788 1_555
Co1 F5 2.075706 1_555
Co2 F11 1.862297 1_456
Co2 F9 1.862454 1_465
Co2 F6 1.921080 1_455
Co2 F7 1.928320 1_566
Co2 F0 1.956712 1_555
Co2 F1 2.003821 1_466
Co3 F1 1.855523 1_555
Co3 F2 1.864125 1_555
Co3 F7 1.925140 1_555
Co3 F10 1.936019 1_555
Co3 F8 1.936389 1_555
Co3 F4 2.027421 1_555
