# generated using pymatgen
data_Na2FePCO7
_symmetry_space_group_name_H-M   'P 1'
_cell_length_a   8.33779100
_cell_length_b   8.37172765
_cell_length_c   8.95920149
_cell_angle_alpha   89.74123152
_cell_angle_beta   89.04643342
_cell_angle_gamma   77.41961284
_symmetry_Int_Tables_number   1
_chemical_formula_structural   Na2FePCO7
_chemical_formula_sum   'Na8 Fe4 P4 C4 O28'
_cell_volume   610.26863562
_cell_formula_units_Z   4
loop_
 _symmetry_equiv_pos_site_id
 _symmetry_equiv_pos_as_xyz
  1  'x, y, z'
loop_
 _atom_site_type_symbol
 _atom_site_label
 _atom_site_symmetry_multiplicity
 _atom_site_fract_x
 _atom_site_fract_y
 _atom_site_fract_z
 _atom_site_occupancy
  Na  Na0  1  0.74706100  0.50891300  0.91857600  1
  Na  Na1  1  0.25005500  0.01537200  0.91895400  1
  Na  Na2  1  0.88220700  0.13642900  0.73193500  1
  Na  Na3  1  0.61237300  0.86755700  0.73168100  1
  Na  Na4  1  0.61838600  0.36812800  0.26396500  1
  Na  Na5  1  0.11955600  0.86995200  0.26323300  1
  Na  Na6  1  0.24516800  0.48636500  0.07097800  1
  Na  Na7  1  0.74916100  0.98209000  0.08951800  1
  Fe  Fe0  1  0.99399900  0.75590500  0.65446300  1
  Fe  Fe1  1  0.47216200  0.27769600  0.65782100  1
  Fe  Fe2  1  0.02497700  0.24110400  0.34403200  1
  Fe  Fe3  1  0.52141800  0.73757700  0.34453300  1
  P  P0  1  0.76917100  0.47899300  0.57592400  1
  P  P1  1  0.27047200  0.98030500  0.57571400  1
  P  P2  1  0.73133400  0.02248300  0.42689000  1
  P  P3  1  0.23136300  0.52257500  0.42128400  1
  C  C0  1  0.51779100  0.23539900  0.93710900  1
  C  C1  1  0.00743500  0.74582400  0.93531000  1
  C  C2  1  0.98367000  0.25341400  0.06517800  1
  C  C3  1  0.48929700  0.75913600  0.06491800  1
  O  O0  1  0.96674300  0.26363900  0.92463100  1
  O  O1  1  0.48180400  0.77920600  0.92433200  1
  O  O2  1  0.40046500  0.34407300  0.87495600  1
  O  O3  1  0.89087900  0.85522700  0.87030500  1
  O  O4  1  0.61164500  0.13381200  0.84357500  1
  O  O5  1  0.10136600  0.64324700  0.84439700  1
  O  O6  1  0.82713800  0.61043200  0.67091200  1
  O  O7  1  0.34297100  0.09771500  0.67508400  1
  O  O8  1  0.65382500  0.40649100  0.68223900  1
  O  O9  1  0.14098200  0.92200800  0.67781800  1
  O  O10  1  0.30552700  0.44335800  0.56667000  1
  O  O11  1  0.81125800  0.93957400  0.57141900  1
  O  O12  1  0.91538300  0.33671300  0.53035600  1
  O  O13  1  0.41307100  0.83429000  0.53089200  1
  O  O14  1  0.59331900  0.17117900  0.47414700  1
  O  O15  1  0.09080600  0.67342700  0.46202500  1
  O  O16  1  0.18921500  0.05980400  0.43211400  1
  O  O17  1  0.68270900  0.55386200  0.43298100  1
  O  O18  1  0.85899700  0.08329400  0.32527300  1
  O  O19  1  0.16514900  0.40191500  0.32081500  1
  O  O20  1  0.35936100  0.58309800  0.31980000  1
  O  O21  1  0.66388100  0.90060100  0.32904100  1
  O  O22  1  0.89010300  0.35453500  0.15818300  1
  O  O23  1  0.38982600  0.85441400  0.15816500  1
  O  O24  1  0.60076200  0.64396100  0.12742600  1
  O  O25  1  0.09936700  0.14254800  0.12785100  1
  O  O26  1  0.53828400  0.22896500  0.07698100  1
  O  O27  1  0.02564700  0.74093100  0.07559900  1
loop_
_geom_bond_atom_site_label_1
_geom_bond_atom_site_label_2
_geom_bond_distance
_geom_bond_site_symmetry_2
Na0 O24 2.368473 1_556
Na0 O0 2.436833 1_555
Na0 O8 2.486853 1_555
Na0 O6 2.504461 1_555
Na0 O22 2.662651 1_556
Na0 O1 2.798501 1_555
Na1 O25 2.360471 1_556
Na1 O1 2.446024 1_545
Na1 O7 2.451896 1_555
Na1 O9 2.548637 1_545
Na1 O23 2.672055 1_546
Na1 O0 2.785790 1_455
Na2 O0 2.235067 1_555
Na2 O11 2.368211 1_545
Na2 O4 2.456860 1_555
Na2 O12 2.511487 1_555
Na2 O9 2.529529 1_645
Na2 O3 2.643204 1_545
Na2 O8 2.660739 1_555
Na3 O1 2.233389 1_555
Na3 O11 2.350183 1_555
Na3 O4 2.446957 1_565
Na3 O13 2.525992 1_555
Na3 O6 2.536834 1_555
Na3 O3 2.633591 1_555
Na3 O7 2.675621 1_565
Na4 O26 2.236866 1_555
Na4 O17 2.325920 1_555
Na4 O22 2.420932 1_555
Na4 O14 2.533206 1_555
Na4 O20 2.536213 1_555
Na4 O24 2.585161 1_555
Na4 O18 2.820180 1_555
Na5 O27 2.243728 1_555
Na5 O16 2.367673 1_565
Na5 O23 2.404970 1_555
Na5 O15 2.463223 1_555
Na5 O18 2.548940 1_465
Na5 O25 2.553806 1_565
Na5 O20 2.820056 1_555
Na6 O2 2.334771 1_554
Na6 O19 2.469132 1_555
Na6 O27 2.488509 1_555
Na6 O5 2.579597 1_554
Na6 O20 2.637179 1_555
Na6 O26 2.885904 1_555
Na7 O21 2.392347 1_555
Na7 O3 2.403394 1_554
Na7 O26 2.407712 1_565
Na7 O18 2.536995 1_565
Na7 O4 2.684695 1_564
Na7 O27 2.714989 1_655
Fe0 O15 1.955098 1_655
Fe0 O6 2.042089 1_555
Fe0 O9 2.057395 1_655
Fe0 O11 2.060630 1_555
Fe0 O5 2.062754 1_655
Fe0 O3 2.194962 1_555
Fe1 O10 1.925830 1_555
Fe1 O14 2.022146 1_555
Fe1 O7 2.038107 1_555
Fe1 O8 2.056519 1_555
Fe1 O2 2.068069 1_555
Fe1 O4 2.238109 1_555
Fe2 O19 1.973931 1_555
Fe2 O12 1.976092 1_455
Fe2 O16 1.980252 1_555
Fe2 O18 2.120157 1_455
Fe2 O22 2.126417 1_455
Fe2 O25 2.137340 1_555
Fe3 O13 1.975518 1_555
Fe3 O17 1.981259 1_555
Fe3 O21 1.997962 1_555
Fe3 O20 2.078730 1_555
Fe3 O23 2.127722 1_555
Fe3 O24 2.140187 1_555
C0 O26 1.266873 1_556
C0 O2 1.311716 1_555
C0 O4 1.316271 1_555
C1 O27 1.267933 1_556
C1 O5 1.306272 1_555
C1 O3 1.322406 1_455
C2 O0 1.269835 1_554
C2 O22 1.310200 1_555
C2 O25 1.315517 1_655
C3 O1 1.270711 1_554
C3 O23 1.310262 1_555
C3 O24 1.314970 1_555
O6 P0 1.556427 1_555
O7 P1 1.552022 1_545
O8 P0 1.555366 1_555
O9 P1 1.559902 1_555
O10 P3 1.535958 1_555
O11 P2 1.556157 1_565
O12 P0 1.557851 1_555
O13 P1 1.557101 1_555
O14 P2 1.554868 1_555
O15 P3 1.564211 1_555
O16 P1 1.543374 1_545
O17 P0 1.542491 1_555
O18 P2 1.555841 1_555
O19 P3 1.550182 1_555
O20 P3 1.556104 1_555
O21 P2 1.549333 1_565
