# generated using pymatgen
data_Ti2CuNi
_symmetry_space_group_name_H-M   'P 1'
_cell_length_a   3.04263700
_cell_length_b   3.04263700
_cell_length_c   6.05530000
_cell_angle_alpha   90.00000000
_cell_angle_beta   90.00000000
_cell_angle_gamma   90.00000000
_symmetry_Int_Tables_number   1
_chemical_formula_structural   Ti2CuNi
_chemical_formula_sum   'Ti2 Cu1 Ni1'
_cell_volume   56.05778697
_cell_formula_units_Z   1
loop_
 _symmetry_equiv_pos_site_id
 _symmetry_equiv_pos_as_xyz
  1  'x, y, z'
loop_
 _atom_site_type_symbol
 _atom_site_label
 _atom_site_symmetry_multiplicity
 _atom_site_fract_x
 _atom_site_fract_y
 _atom_site_fract_z
 _atom_site_occupancy
  Ti  Ti0  1  0.00000000  0.00000000  0.75674200  1
  Ti  Ti1  1  0.00000000  0.00000000  0.24325800  1
  Cu  Cu0  1  0.50000000  0.50000000  0.50000000  1
  Ni  Ni0  1  0.50000000  0.50000000  0.00000000  1
loop_
_geom_bond_atom_site_label_1
_geom_bond_atom_site_label_2
_geom_bond_distance
_geom_bond_site_symmetry_2
Cu0 Ti0 2.654384 1_665
Cu0 Ti0 2.654384 1_555
Cu0 Ti0 2.654384 1_565
Cu0 Ti0 2.654384 1_655
Cu0 Ti1 2.654384 1_555
Cu0 Ti1 2.654384 1_565
Cu0 Ti1 2.654384 1_655
Cu0 Ti1 2.654384 1_665
Ni0 Ti1 2.607403 1_655
Ni0 Ti1 2.607403 1_665
Ni0 Ti1 2.607403 1_555
Ni0 Ti1 2.607403 1_565
Ni0 Ti0 2.607403 1_554
Ni0 Ti0 2.607403 1_564
Ni0 Ti0 2.607403 1_654
Ni0 Ti0 2.607403 1_664
