# generated using pymatgen
data_Li2GePd
_symmetry_space_group_name_H-M   'P 1'
_cell_length_a   4.25263204
_cell_length_b   4.25263204
_cell_length_c   4.25263204
_cell_angle_alpha   60.00000000
_cell_angle_beta   60.00000000
_cell_angle_gamma   60.00000000
_symmetry_Int_Tables_number   1
_chemical_formula_structural   Li2GePd
_chemical_formula_sum   'Li2 Ge1 Pd1'
_cell_volume   54.38240645
_cell_formula_units_Z   1
loop_
 _symmetry_equiv_pos_site_id
 _symmetry_equiv_pos_as_xyz
  1  'x, y, z'
loop_
 _atom_site_type_symbol
 _atom_site_label
 _atom_site_symmetry_multiplicity
 _atom_site_fract_x
 _atom_site_fract_y
 _atom_site_fract_z
 _atom_site_occupancy
  Li  Li0  1  0.50000000  0.50000000  0.50000000  1
  Li  Li1  1  0.75000000  0.75000000  0.75000000  1
  Ge  Ge0  1  0.00000000  0.00000000  0.00000000  1
  Pd  Pd0  1  0.25000000  0.25000000  0.25000000  1
loop_
_geom_bond_atom_site_label_1
_geom_bond_atom_site_label_2
_geom_bond_distance
_geom_bond_site_symmetry_2
Li0 Pd0 2.604195 1_655
Li0 Pd0 2.604195 1_555
Li0 Pd0 2.604195 1_556
Li0 Pd0 2.604195 1_565
Li1 Pd0 3.007065 1_656
Li1 Pd0 3.007065 1_655
Li1 Pd0 3.007065 1_556
Li1 Pd0 3.007065 1_566
Li1 Pd0 3.007065 1_565
Li1 Pd0 3.007065 1_665
Ge0 Li1 2.604195 1_444
Ge0 Li1 2.604195 1_544
Ge0 Pd0 2.604195 1_554
Ge0 Li1 2.604195 1_445
Ge0 Pd0 2.604195 1_455
Ge0 Pd0 2.604195 1_555
Ge0 Pd0 2.604195 1_545
Ge0 Li1 2.604195 1_454
Ge0 Li0 3.007065 1_554
Ge0 Li0 3.007065 1_445
Ge0 Li0 3.007065 1_455
Ge0 Li0 3.007065 1_544
Ge0 Li0 3.007065 1_545
Ge0 Li0 3.007065 1_454
