# generated using pymatgen
data_NaLi2Sn
_symmetry_space_group_name_H-M   'P 1'
_cell_length_a   4.89637081
_cell_length_b   4.89637081
_cell_length_c   4.89637081
_cell_angle_alpha   60.00000000
_cell_angle_beta   60.00000000
_cell_angle_gamma   60.00000000
_symmetry_Int_Tables_number   1
_chemical_formula_structural   NaLi2Sn
_chemical_formula_sum   'Na1 Li2 Sn1'
_cell_volume   83.00569718
_cell_formula_units_Z   1
loop_
 _symmetry_equiv_pos_site_id
 _symmetry_equiv_pos_as_xyz
  1  'x, y, z'
loop_
 _atom_site_type_symbol
 _atom_site_label
 _atom_site_symmetry_multiplicity
 _atom_site_fract_x
 _atom_site_fract_y
 _atom_site_fract_z
 _atom_site_occupancy
  Na  Na0  1  0.50000000  0.50000000  0.50000000  1
  Li  Li0  1  0.25000000  0.25000000  0.25000000  1
  Li  Li1  1  0.75000000  0.75000000  0.75000000  1
  Sn  Sn0  1  0.00000000  0.00000000  0.00000000  1
loop_
_geom_bond_atom_site_label_1
_geom_bond_atom_site_label_2
_geom_bond_distance
_geom_bond_site_symmetry_2
Na0 Sn0 3.462257 1_655
Na0 Sn0 3.462257 1_566
Na0 Sn0 3.462257 1_665
Na0 Sn0 3.462257 1_556
Na0 Sn0 3.462257 1_565
Na0 Sn0 3.462257 1_656
Li0 Na0 2.998403 1_455
Li0 Sn0 2.998403 1_655
Li0 Sn0 2.998403 1_555
Li0 Na0 2.998403 1_554
Li0 Sn0 2.998403 1_556
Li0 Na0 2.998403 1_545
Li0 Sn0 2.998403 1_565
Li0 Na0 2.998403 1_555
Li1 Sn0 2.998403 1_566
Li1 Na0 2.998403 1_655
Li1 Na0 2.998403 1_556
Li1 Na0 2.998403 1_565
Li1 Sn0 2.998403 1_665
Li1 Sn0 2.998403 1_666
Li1 Sn0 2.998403 1_656
Li1 Na0 2.998403 1_555
