# generated using pymatgen
data_Sb28(Mo3Ru)3
_symmetry_space_group_name_H-M   'P 1'
_cell_length_a   8.27287466
_cell_length_b   8.27287466
_cell_length_c   13.55655223
_cell_angle_alpha   89.75864948
_cell_angle_beta   89.75864948
_cell_angle_gamma   70.20912061
_symmetry_Int_Tables_number   1
_chemical_formula_structural   Sb28(Mo3Ru)3
_chemical_formula_sum   'Sb28 Mo9 Ru3'
_cell_volume   873.00324613
_cell_formula_units_Z   1
loop_
 _symmetry_equiv_pos_site_id
 _symmetry_equiv_pos_as_xyz
  1  'x, y, z'
loop_
 _atom_site_type_symbol
 _atom_site_label
 _atom_site_symmetry_multiplicity
 _atom_site_fract_x
 _atom_site_fract_y
 _atom_site_fract_z
 _atom_site_occupancy
  Sb  Sb0  1  0.82512681  0.50000337  0.50068394  1
  Sb  Sb1  1  0.32542997  0.00095078  0.99979734  1
  Sb  Sb2  1  0.00047472  0.67570152  0.00008273  1
  Sb  Sb3  1  0.50016139  0.17550977  0.50025165  1
  Sb  Sb4  1  0.33850523  0.66316670  0.33746956  1
  Sb  Sb5  1  0.83800381  0.16243477  0.83824445  1
  Sb  Sb6  1  0.83889471  0.16373134  0.16187296  1
  Sb  Sb7  1  0.33829701  0.66194240  0.66279694  1
  Sb  Sb8  1  0.17550977  0.50016139  0.50025165  1
  Sb  Sb9  1  0.67570152  0.00047472  0.00008273  1
  Sb  Sb10  1  0.00095078  0.32542997  0.99979734  1
  Sb  Sb11  1  0.50000337  0.82512681  0.50068394  1
  Sb  Sb12  1  0.16373134  0.83889471  0.16187296  1
  Sb  Sb13  1  0.66194240  0.33829701  0.66279694  1
  Sb  Sb14  1  0.66316670  0.33850523  0.33746956  1
  Sb  Sb15  1  0.16243477  0.83800381  0.83824445  1
  Sb  Sb16  1  0.62635253  0.62635253  0.12326413  1
  Sb  Sb17  1  0.12288413  0.12288413  0.62376017  1
  Sb  Sb18  1  0.37502385  0.37502385  0.12671453  1
  Sb  Sb19  1  0.87578152  0.87578152  0.62637614  1
  Sb  Sb20  1  0.00212764  0.50209561  0.24998391  1
  Sb  Sb21  1  0.50084831  0.00088968  0.75134771  1
  Sb  Sb22  1  0.12530886  0.12530886  0.37653101  1
  Sb  Sb23  1  0.62604595  0.62604595  0.87632608  1
  Sb  Sb24  1  0.87524312  0.87524312  0.37265047  1
  Sb  Sb25  1  0.37375993  0.37375993  0.87418907  1
  Sb  Sb26  1  0.50209561  0.00212764  0.24998391  1
  Sb  Sb27  1  0.00088968  0.50084831  0.75134771  1
  Mo  Mo0  1  0.17006849  0.17006849  0.82887388  1
  Mo  Mo1  1  0.83937472  0.15860591  0.49904042  1
  Mo  Mo2  1  0.34156645  0.65843641  0.00052479  1
  Mo  Mo3  1  0.32711927  0.32711927  0.32767657  1
  Mo  Mo4  1  0.82644636  0.82644636  0.82691298  1
  Mo  Mo5  1  0.82765496  0.82765496  0.17285346  1
  Mo  Mo6  1  0.32808337  0.32808337  0.66970938  1
  Mo  Mo7  1  0.65843641  0.34156645  0.00052479  1
  Mo  Mo8  1  0.15860591  0.83937472  0.49904042  1
  Ru  Ru0  1  0.16962564  0.16962564  0.17051474  1
  Ru  Ru1  1  0.66925668  0.66925668  0.66856208  1
  Ru  Ru2  1  0.66907031  0.66907031  0.33089551  1
loop_
_geom_bond_atom_site_label_1
_geom_bond_atom_site_label_2
_geom_bond_distance
_geom_bond_site_symmetry_2
Sb0 Sb8 2.899098 1_655
Sb0 Sb11 3.093540 1_555
Sb0 Sb13 3.100844 1_555
Sb0 Sb14 3.120599 1_555
Sb1 Sb9 2.896440 1_556
Sb1 Sb10 3.087410 1_555
Sb1 Sb12 3.095059 1_546
Sb1 Sb15 3.116525 1_545
Sb2 Sb9 3.090207 1_465
Sb3 Sb8 3.089050 1_555
Sb4 Sb8 3.112531 1_555
Sb5 Sb9 3.095210 1_556
Sb6 Sb9 3.121242 1_555
Sb7 Sb8 3.119457 1_555
Sb10 Sb2 2.896440 1_556
Sb10 Sb6 3.095059 1_456
Sb10 Sb5 3.116525 1_455
Sb11 Sb3 2.899098 1_565
Sb11 Sb7 3.100844 1_555
Sb11 Sb4 3.120599 1_555
Sb12 Sb4 2.906402 1_555
Sb12 Sb6 3.090811 1_465
Sb12 Sb2 3.121242 1_555
Sb13 Sb5 2.908661 1_555
Sb13 Sb7 3.079476 1_555
Sb13 Sb3 3.119457 1_555
Sb14 Sb6 2.906402 1_555
Sb14 Sb4 3.089144 1_555
Sb14 Sb3 3.112531 1_555
Sb15 Sb7 2.908661 1_555
Sb15 Sb5 3.086951 1_465
Sb15 Sb2 3.095210 1_556
Mo0 Sb15 2.771520 1_545
Mo0 Sb5 2.771520 1_455
Mo0 Sb10 2.785422 1_555
Mo0 Sb1 2.785422 1_555
Mo0 Sb27 2.818946 1_555
Mo0 Sb21 2.818946 1_555
Mo0 Sb25 2.827890 1_555
Mo0 Sb17 2.856247 1_555
Mo1 Sb3 2.762038 1_555
Mo1 Sb14 2.769097 1_555
Mo1 Sb0 2.786817 1_555
Mo1 Sb13 2.795622 1_555
Mo1 Sb22 2.821212 1_655
Mo1 Sb17 2.829654 1_655
Mo1 Sb19 2.835183 1_545
Mo1 Sb24 2.842134 1_545
Mo2 Sb12 2.773208 1_555
Mo2 Sb2 2.776733 1_555
Mo2 Sb15 2.784230 1_554
Mo2 Sb1 2.791184 1_564
Mo2 Sb23 2.826451 1_554
Mo2 Sb16 2.827660 1_555
Mo2 Sb18 2.833929 1_555
Mo2 Sb25 2.855879 1_554
Mo3 Sb20 2.794439 1_555
Mo3 Sb26 2.794439 1_555
Mo3 Sb18 2.797210 1_555
Mo3 Sb22 2.807558 1_555
Mo3 Sb3 2.807751 1_555
Mo3 Sb8 2.807751 1_555
Mo3 Sb4 2.817069 1_555
Mo3 Sb14 2.817069 1_555
Mo3 Ru0 3.021742 1_555
Mo4 Sb27 2.786778 1_655
Mo4 Sb21 2.786778 1_565
Mo4 Sb23 2.790784 1_555
Mo4 Sb19 2.796067 1_555
Mo4 Sb2 2.815518 1_656
Mo4 Sb9 2.815518 1_566
Mo4 Sb5 2.818253 1_565
Mo4 Sb15 2.818253 1_655
Mo4 Ru1 3.030282 1_555
Mo5 Sb24 2.787328 1_555
Mo5 Sb20 2.790537 1_655
Mo5 Sb26 2.790537 1_565
Mo5 Sb2 2.808855 1_655
Mo5 Sb9 2.808855 1_565
Mo5 Sb16 2.809920 1_555
Mo5 Sb12 2.816458 1_655
Mo5 Sb6 2.816458 1_565
Mo5 Ru2 3.025056 1_555
Mo6 Sb3 2.770790 1_555
Mo6 Sb8 2.770790 1_555
Mo6 Sb7 2.792886 1_555
Mo6 Sb13 2.792886 1_555
Mo6 Sb27 2.821850 1_555
Mo6 Sb21 2.821850 1_555
Mo6 Sb25 2.843260 1_555
Mo6 Sb17 2.849725 1_555
Mo7 Sb6 2.773208 1_555
Mo7 Sb9 2.776733 1_555
Mo7 Sb5 2.784230 1_554
Mo7 Sb10 2.791184 1_654
Mo7 Sb23 2.826451 1_554
Mo7 Sb16 2.827660 1_555
Mo7 Sb18 2.833929 1_555
Mo7 Sb25 2.855879 1_554
Mo8 Sb8 2.762038 1_555
Mo8 Sb4 2.769097 1_555
Mo8 Sb11 2.786817 1_555
Mo8 Sb7 2.795622 1_555
Mo8 Sb22 2.821212 1_565
Mo8 Sb17 2.829654 1_565
Mo8 Sb19 2.835183 1_455
Mo8 Sb24 2.842134 1_455
Ru0 Sb6 2.755979 1_455
Ru0 Sb12 2.755979 1_545
Ru0 Sb1 2.783677 1_554
Ru0 Sb10 2.783677 1_554
Ru0 Sb18 2.840007 1_555
Ru0 Sb26 2.842073 1_555
Ru0 Sb20 2.842073 1_555
Ru0 Sb22 2.853546 1_555
Ru1 Sb0 2.753600 1_555
Ru1 Sb11 2.753600 1_555
Ru1 Sb13 2.760504 1_555
Ru1 Sb7 2.760504 1_555
Ru1 Sb19 2.850561 1_555
Ru1 Sb21 2.855179 1_565
Ru1 Sb27 2.855179 1_655
Ru1 Sb23 2.873705 1_555
Ru2 Sb4 2.752707 1_555
Ru2 Sb14 2.752707 1_555
Ru2 Sb11 2.774202 1_555
Ru2 Sb0 2.774202 1_555
Ru2 Sb20 2.848351 1_655
Ru2 Sb26 2.848351 1_565
Ru2 Sb24 2.850467 1_555
Ru2 Sb16 2.876460 1_555
