# generated using pymatgen
data_Ce4CdIr
_symmetry_space_group_name_H-M   'P 1'
_cell_length_a   9.75597064
_cell_length_b   9.75597064
_cell_length_c   9.75597064
_cell_angle_alpha   60.00000000
_cell_angle_beta   60.00000000
_cell_angle_gamma   60.00000000
_symmetry_Int_Tables_number   1
_chemical_formula_structural   Ce4CdIr
_chemical_formula_sum   'Ce16 Cd4 Ir4'
_cell_volume   656.59331512
_cell_formula_units_Z   4
loop_
 _symmetry_equiv_pos_site_id
 _symmetry_equiv_pos_as_xyz
  1  'x, y, z'
loop_
 _atom_site_type_symbol
 _atom_site_label
 _atom_site_symmetry_multiplicity
 _atom_site_fract_x
 _atom_site_fract_y
 _atom_site_fract_z
 _atom_site_occupancy
  Ce  Ce0  1  0.34929600  0.34929600  0.34929600  1
  Ce  Ce1  1  0.34929600  0.34929600  0.95211100  1
  Ce  Ce2  1  0.34929600  0.95211100  0.34929600  1
  Ce  Ce3  1  0.95211100  0.34929600  0.34929600  1
  Ce  Ce4  1  0.80572800  0.19427200  0.19427200  1
  Ce  Ce5  1  0.19427200  0.80572800  0.80572800  1
  Ce  Ce6  1  0.19427200  0.80572800  0.19427200  1
  Ce  Ce7  1  0.80572800  0.19427200  0.80572800  1
  Ce  Ce8  1  0.19427200  0.19427200  0.80572800  1
  Ce  Ce9  1  0.80572800  0.80572800  0.19427200  1
  Ce  Ce10  1  0.93799200  0.56200800  0.56200800  1
  Ce  Ce11  1  0.56200800  0.93799200  0.93799200  1
  Ce  Ce12  1  0.56200800  0.93799200  0.56200800  1
  Ce  Ce13  1  0.93799200  0.56200800  0.93799200  1
  Ce  Ce14  1  0.56200800  0.56200800  0.93799200  1
  Ce  Ce15  1  0.93799200  0.93799200  0.56200800  1
  Cd  Cd0  1  0.57917800  0.57917800  0.57917800  1
  Cd  Cd1  1  0.57917800  0.57917800  0.26246700  1
  Cd  Cd2  1  0.57917800  0.26246700  0.57917800  1
  Cd  Cd3  1  0.26246700  0.57917800  0.57917800  1
  Ir  Ir0  1  0.14051100  0.14051100  0.14051100  1
  Ir  Ir1  1  0.14051100  0.14051100  0.57846800  1
  Ir  Ir2  1  0.14051100  0.57846800  0.14051100  1
  Ir  Ir3  1  0.57846800  0.14051100  0.14051100  1
loop_
_geom_bond_atom_site_label_1
_geom_bond_atom_site_label_2
_geom_bond_distance
_geom_bond_site_symmetry_2
Ce0 Ir2 2.887470 1_555
Ce0 Ir1 2.887470 1_555
Ce0 Ir3 2.887470 1_555
Ce1 Ir0 2.887469 1_556
Ce1 Ir3 2.887483 1_556
Ce1 Ir2 2.887483 1_556
Ce2 Ir0 2.887469 1_565
Ce2 Ir3 2.887483 1_565
Ce2 Ir1 2.887483 1_565
Ce3 Ir0 2.887469 1_655
Ce3 Ir2 2.887483 1_655
Ce3 Ir1 2.887483 1_655
Ce4 Ir3 2.840199 1_555
Ce4 Ir0 2.840208 1_655
Ce5 Ir1 2.840206 1_565
Ce5 Ir2 2.840206 1_556
Ce6 Ir2 2.840199 1_555
Ce6 Ir0 2.840208 1_565
Ce7 Ir3 2.840206 1_556
Ce7 Ir1 2.840206 1_655
Ce8 Ir1 2.840199 1_555
Ce8 Ir0 2.840208 1_556
Ce9 Ir2 2.840206 1_655
Ce9 Ir3 2.840206 1_565
Ce10 Ir1 3.517282 1_655
Ce10 Ir2 3.517282 1_655
Ce11 Ir0 3.517285 1_566
Ce11 Ir3 3.517290 1_566
Ce12 Ir1 3.517282 1_565
Ce12 Ir3 3.517282 1_565
Ce13 Ir0 3.517285 1_656
Ce13 Ir2 3.517290 1_656
Ce14 Ir2 3.517282 1_556
Ce14 Ir3 3.517282 1_556
Ce15 Ir0 3.517285 1_665
Ce15 Ir1 3.517290 1_665
Cd0 Cd3 3.089823 1_555
Cd0 Cd1 3.089823 1_555
Cd0 Cd2 3.089823 1_555
Cd0 Ce12 3.341477 1_555
Cd0 Ce10 3.341477 1_555
Cd0 Ce14 3.341477 1_555
Cd0 Ce2 3.465156 1_555
Cd0 Ce3 3.465156 1_555
Cd0 Ce1 3.465156 1_555
Cd0 Ce7 3.486670 1_555
Cd0 Ce5 3.486670 1_555
Cd0 Ce9 3.486670 1_555
Cd1 Cd3 3.089823 1_555
Cd1 Cd2 3.089823 1_555
Cd1 Ce13 3.341481 1_554
Cd1 Ce11 3.341481 1_554
Cd1 Ce14 3.341487 1_554
Cd1 Ce2 3.465147 1_555
Cd1 Ce3 3.465147 1_555
Cd1 Ce0 3.465164 1_555
Cd1 Ce9 3.486666 1_555
Cd1 Ce4 3.486674 1_555
Cd1 Ce6 3.486674 1_555
Cd2 Cd3 3.089823 1_555
Cd2 Ce15 3.341481 1_545
Cd2 Ce11 3.341481 1_545
Cd2 Ce12 3.341487 1_545
Cd2 Ce1 3.465147 1_555
Cd2 Ce3 3.465147 1_555
Cd2 Ce0 3.465164 1_555
Cd2 Ce7 3.486666 1_555
Cd2 Ce4 3.486674 1_555
Cd2 Ce8 3.486674 1_555
Cd3 Ce15 3.341481 1_455
Cd3 Ce13 3.341481 1_455
Cd3 Ce10 3.341487 1_455
Cd3 Ce1 3.465147 1_555
Cd3 Ce2 3.465147 1_555
Cd3 Ce0 3.465164 1_555
Cd3 Ce5 3.486666 1_555
Cd3 Ce6 3.486674 1_555
Cd3 Ce8 3.486674 1_555
