# generated using pymatgen
data_RbPdBr3
_symmetry_space_group_name_H-M   'P 1'
_cell_length_a   5.29620100
_cell_length_b   5.28907700
_cell_length_c   5.29223249
_cell_angle_alpha   89.95704088
_cell_angle_beta   90.00000000
_cell_angle_gamma   90.00000000
_symmetry_Int_Tables_number   1
_chemical_formula_structural   RbPdBr3
_chemical_formula_sum   'Rb1 Pd1 Br3'
_cell_volume   148.24605361
_cell_formula_units_Z   1
loop_
 _symmetry_equiv_pos_site_id
 _symmetry_equiv_pos_as_xyz
  1  'x, y, z'
loop_
 _atom_site_type_symbol
 _atom_site_label
 _atom_site_symmetry_multiplicity
 _atom_site_fract_x
 _atom_site_fract_y
 _atom_site_fract_z
 _atom_site_occupancy
  Rb  Rb0  1  0.00000000  0.99366700  0.99898300  1
  Pd  Pd0  1  0.50000000  0.48491900  0.50410900  1
  Br  Br0  1  0.00000000  0.48729900  0.50397600  1
  Br  Br1  1  0.50000000  0.98533100  0.49895400  1
  Br  Br2  1  0.50000000  0.48878100  0.00398000  1
loop_
_geom_bond_atom_site_label_1
_geom_bond_atom_site_label_2
_geom_bond_distance
_geom_bond_site_symmetry_2
Br0 Pd0 2.648131 1_555
Br0 Pd0 2.648131 1_455
Br0 Rb0 3.697176 1_545
Br0 Rb0 3.737581 1_544
Br0 Rb0 3.747822 1_555
Br0 Rb0 3.782142 1_554
Br1 Pd0 2.642521 1_565
Br1 Pd0 2.646838 1_555
Br1 Rb0 3.743705 1_554
Br1 Rb0 3.743705 1_654
Br1 Rb0 3.743968 1_655
Br1 Rb0 3.743968 1_555
Br2 Pd0 2.645528 1_554
Br2 Pd0 2.646862 1_555
Br2 Rb0 3.724353 1_544
Br2 Rb0 3.724353 1_644
Br2 Rb0 3.760846 1_654
Br2 Rb0 3.760846 1_554
