# generated using pymatgen
data_Mg3Ti2(SiO4)3
_symmetry_space_group_name_H-M   'P 1'
_cell_length_a   10.28627909
_cell_length_b   10.28627909
_cell_length_c   10.28627909
_cell_angle_alpha   109.47122063
_cell_angle_beta   109.47122063
_cell_angle_gamma   109.47122063
_symmetry_Int_Tables_number   1
_chemical_formula_structural   Mg3Ti2(SiO4)3
_chemical_formula_sum   'Mg12 Ti8 Si12 O48'
_cell_volume   837.82442956
_cell_formula_units_Z   4
loop_
 _symmetry_equiv_pos_site_id
 _symmetry_equiv_pos_as_xyz
  1  'x, y, z'
loop_
 _atom_site_type_symbol
 _atom_site_label
 _atom_site_symmetry_multiplicity
 _atom_site_fract_x
 _atom_site_fract_y
 _atom_site_fract_z
 _atom_site_occupancy
  Mg  Mg0  1  0.25000000  0.37500000  0.12500000  1
  Mg  Mg1  1  0.75000000  0.12500000  0.37500000  1
  Mg  Mg2  1  0.37500000  0.12500000  0.25000000  1
  Mg  Mg3  1  0.12500000  0.37500000  0.75000000  1
  Mg  Mg4  1  0.25000000  0.87500000  0.62500000  1
  Mg  Mg5  1  0.12500000  0.25000000  0.37500000  1
  Mg  Mg6  1  0.62500000  0.25000000  0.87500000  1
  Mg  Mg7  1  0.75000000  0.62500000  0.87500000  1
  Mg  Mg8  1  0.87500000  0.75000000  0.62500000  1
  Mg  Mg9  1  0.87500000  0.62500000  0.25000000  1
  Mg  Mg10  1  0.62500000  0.87500000  0.75000000  1
  Mg  Mg11  1  0.37500000  0.75000000  0.12500000  1
  Ti  Ti0  1  0.50000000  0.00000000  0.00000000  1
  Ti  Ti1  1  0.50000000  0.50000000  0.00000000  1
  Ti  Ti2  1  0.00000000  0.50000000  0.50000000  1
  Ti  Ti3  1  0.00000000  0.00000000  0.50000000  1
  Ti  Ti4  1  0.50000000  0.50000000  0.50000000  1
  Ti  Ti5  1  0.00000000  0.50000000  0.00000000  1
  Ti  Ti6  1  0.50000000  0.00000000  0.50000000  1
  Ti  Ti7  1  0.00000000  0.00000000  0.00000000  1
  Si  Si0  1  0.12500000  0.75000000  0.87500000  1
  Si  Si1  1  0.87500000  0.25000000  0.12500000  1
  Si  Si2  1  0.75000000  0.37500000  0.62500000  1
  Si  Si3  1  0.12500000  0.87500000  0.25000000  1
  Si  Si4  1  0.25000000  0.12500000  0.87500000  1
  Si  Si5  1  0.37500000  0.62500000  0.75000000  1
  Si  Si6  1  0.37500000  0.25000000  0.62500000  1
  Si  Si7  1  0.87500000  0.12500000  0.75000000  1
  Si  Si8  1  0.62500000  0.37500000  0.25000000  1
  Si  Si9  1  0.75000000  0.87500000  0.12500000  1
  Si  Si10  1  0.25000000  0.62500000  0.37500000  1
  Si  Si11  1  0.62500000  0.75000000  0.37500000  1
  O  O0  1  0.58919000  0.89562600  0.37550900  1
  O  O1  1  0.37550900  0.58919000  0.89562600  1
  O  O2  1  0.28631900  0.30643600  0.91081000  1
  O  O3  1  0.47988300  0.60437400  0.19356400  1
  O  O4  1  0.30643600  0.89562600  0.02011700  1
  O  O5  1  0.12449100  0.02011700  0.21368100  1
  O  O6  1  0.37550900  0.28631900  0.47988300  1
  O  O7  1  0.89562600  0.37550900  0.58919000  1
  O  O8  1  0.19356400  0.21368100  0.58919000  1
  O  O9  1  0.47988300  0.37550900  0.28631900  1
  O  O10  1  0.89562600  0.02011700  0.30643600  1
  O  O11  1  0.60437400  0.91081000  0.12449100  1
  O  O12  1  0.91081000  0.12449100  0.60437400  1
  O  O13  1  0.28631900  0.47988300  0.37550900  1
  O  O14  1  0.58919000  0.19356400  0.21368100  1
  O  O15  1  0.21368100  0.58919000  0.19356400  1
  O  O16  1  0.02011700  0.30643600  0.89562600  1
  O  O17  1  0.91081000  0.28631900  0.30643600  1
  O  O18  1  0.02011700  0.21368100  0.12449100  1
  O  O19  1  0.80643600  0.78631900  0.41081000  1
  O  O20  1  0.19356400  0.47988300  0.60437400  1
  O  O21  1  0.60437400  0.19356400  0.47988300  1
  O  O22  1  0.21368100  0.12449100  0.02011700  1
  O  O23  1  0.12449100  0.60437400  0.91081000  1
  O  O24  1  0.41081000  0.10437400  0.62449100  1
  O  O25  1  0.62449100  0.41081000  0.10437400  1
  O  O26  1  0.71368100  0.69356400  0.08919000  1
  O  O27  1  0.52011700  0.39562600  0.80643600  1
  O  O28  1  0.69356400  0.10437400  0.97988300  1
  O  O29  1  0.87550900  0.97988300  0.78631900  1
  O  O30  1  0.62449100  0.71368100  0.52011700  1
  O  O31  1  0.10437400  0.62449100  0.41081000  1
  O  O32  1  0.87550900  0.39562600  0.08919000  1
  O  O33  1  0.78631900  0.87550900  0.97988300  1
  O  O34  1  0.39562600  0.80643600  0.52011700  1
  O  O35  1  0.69356400  0.08919000  0.71368100  1
  O  O36  1  0.80643600  0.52011700  0.39562600  1
  O  O37  1  0.97988300  0.78631900  0.87550900  1
  O  O38  1  0.08919000  0.71368100  0.69356400  1
  O  O39  1  0.97988300  0.69356400  0.10437400  1
  O  O40  1  0.78631900  0.41081000  0.80643600  1
  O  O41  1  0.41081000  0.80643600  0.78631900  1
  O  O42  1  0.71368100  0.52011700  0.62449100  1
  O  O43  1  0.08919000  0.87550900  0.39562600  1
  O  O44  1  0.39562600  0.08919000  0.87550900  1
  O  O45  1  0.10437400  0.97988300  0.69356400  1
  O  O46  1  0.52011700  0.62449100  0.71368100  1
  O  O47  1  0.30643600  0.91081000  0.28631900  1
loop_
_geom_bond_atom_site_label_1
_geom_bond_atom_site_label_2
_geom_bond_distance
_geom_bond_site_symmetry_2
Mg0 O2 2.275877 1_554
Mg0 O15 2.275877 1_555
Mg0 O13 2.275877 1_555
Mg0 O22 2.275877 1_555
Mg0 O16 2.390637 1_554
Mg0 O3 2.390637 1_555
Mg0 O18 2.390637 1_555
Mg0 O9 2.390637 1_555
Mg1 O11 2.275877 1_545
Mg1 O7 2.275877 1_555
Mg1 O10 2.275877 1_555
Mg1 O21 2.275877 1_555
Mg1 O12 2.390637 1_555
Mg1 O0 2.390637 1_545
Mg1 O14 2.390637 1_555
Mg1 O17 2.390637 1_555
Mg2 O47 2.275877 1_545
Mg2 O5 2.275877 1_555
Mg2 O14 2.275877 1_555
Mg2 O9 2.275877 1_555
Mg2 O21 2.390637 1_555
Mg2 O4 2.390637 1_545
Mg2 O6 2.390637 1_555
Mg2 O22 2.390637 1_555
Mg3 O12 2.275877 1_455
Mg3 O1 2.275877 1_555
Mg3 O20 2.275877 1_555
Mg3 O16 2.275877 1_555
Mg3 O7 2.390637 1_455
Mg3 O23 2.390637 1_555
Mg3 O8 2.390637 1_555
Mg3 O2 2.390637 1_555
Mg4 O34 2.275877 1_555
Mg4 O31 2.275877 1_555
Mg4 O45 2.275877 1_555
Mg4 O44 2.275877 1_565
Mg4 O24 2.390637 1_565
Mg4 O38 2.390637 1_555
Mg4 O41 2.390637 1_555
Mg4 O43 2.390637 1_555
Mg5 O8 2.275877 1_555
Mg5 O18 2.275877 1_555
Mg5 O6 2.275877 1_555
Mg5 O17 2.275877 1_455
Mg5 O10 2.390637 1_455
Mg5 O20 2.390637 1_555
Mg5 O5 2.390637 1_555
Mg5 O13 2.390637 1_555
Mg6 O27 2.275877 1_555
Mg6 O28 2.275877 1_555
Mg6 O24 2.275877 1_555
Mg6 O32 2.275877 1_556
Mg6 O40 2.390637 1_555
Mg6 O25 2.390637 1_556
Mg6 O35 2.390637 1_555
Mg6 O44 2.390637 1_555
Mg7 O33 2.275877 1_555
Mg7 O40 2.275877 1_555
Mg7 O42 2.275877 1_555
Mg7 O26 2.275877 1_556
Mg7 O39 2.390637 1_556
Mg7 O46 2.390637 1_555
Mg7 O37 2.390637 1_555
Mg7 O27 2.390637 1_555
Mg8 O37 2.275877 1_555
Mg8 O19 2.275877 1_555
Mg8 O30 2.275877 1_555
Mg8 O38 2.275877 1_655
Mg8 O29 2.390637 1_555
Mg8 O42 2.390637 1_555
Mg8 O45 2.390637 1_655
Mg8 O36 2.390637 1_555
Mg9 O36 2.275877 1_555
Mg9 O25 2.275877 1_555
Mg9 O39 2.275877 1_555
Mg9 O43 2.275877 1_655
Mg9 O26 2.390637 1_555
Mg9 O19 2.390637 1_555
Mg9 O31 2.390637 1_655
Mg9 O32 2.390637 1_555
Mg10 O29 2.275877 1_555
Mg10 O46 2.275877 1_555
Mg10 O41 2.275877 1_555
Mg10 O35 2.275877 1_565
Mg10 O28 2.390637 1_565
Mg10 O30 2.390637 1_555
Mg10 O33 2.390637 1_555
Mg10 O34 2.390637 1_555
Mg11 O0 2.275877 1_555
Mg11 O23 2.275877 1_554
Mg11 O4 2.275877 1_555
Mg11 O3 2.275877 1_555
Mg11 O11 2.390637 1_555
Mg11 O1 2.390637 1_554
Mg11 O47 2.390637 1_555
Mg11 O15 2.390637 1_555
O0 Si11 1.656342 1_555
O0 Ti6 2.038986 1_565
O1 Si5 1.656342 1_555
O1 Ti1 2.038986 1_556
O2 Si4 1.656342 1_555
O2 Ti1 2.038986 1_556
O3 Si11 1.656342 1_555
O3 Ti1 2.038986 1_555
O4 Si0 1.656342 1_554
O4 Ti0 2.038986 1_565
O5 Si3 1.656342 1_545
O5 Ti7 2.038986 1_555
O6 Si6 1.656342 1_555
O6 Ti4 2.038986 1_555
O7 Si2 1.656342 1_555
O7 Ti2 2.038986 1_655
O8 Si6 1.656342 1_555
O8 Ti3 2.038986 1_555
O9 Si8 1.656342 1_555
O9 Ti4 2.038986 1_555
O10 Si9 1.656342 1_545
O10 Ti3 2.038986 1_655
O11 Si9 1.656342 1_555
O11 Ti0 2.038986 1_565
O12 Si7 1.656342 1_555
O12 Ti3 2.038986 1_655
O13 Si10 1.656342 1_555
O13 Ti4 2.038986 1_555
O14 Si8 1.656342 1_555
O14 Ti0 2.038986 1_555
O15 Si10 1.656342 1_555
O15 Ti5 2.038986 1_555
O16 Si7 1.656342 1_455
O16 Ti5 2.038986 1_556
O17 Si1 1.656342 1_555
O17 Ti2 2.038986 1_655
O18 Si1 1.656342 1_455
O18 Ti7 2.038986 1_555
O19 Si11 1.656342 1_555
O19 Ti3 2.038986 1_665
O20 Si5 1.656342 1_555
O20 Ti2 2.038986 1_555
O21 Si2 1.656342 1_555
O21 Ti6 2.038986 1_555
O22 Si4 1.656342 1_554
O22 Ti7 2.038986 1_555
O23 Si0 1.656342 1_555
O23 Ti5 2.038986 1_556
O24 Si6 1.656342 1_555
O24 Ti6 2.038986 1_555
O25 Si8 1.656342 1_555
O25 Ti1 2.038986 1_555
O26 Si9 1.656342 1_555
O26 Ti1 2.038986 1_555
O27 Si6 1.656342 1_555
O27 Ti1 2.038986 1_556
O28 Si1 1.656342 1_556
O28 Ti0 2.038986 1_556
O29 Si7 1.656342 1_565
O29 Ti7 2.038986 1_666
O30 Si11 1.656342 1_555
O30 Ti4 2.038986 1_555
O31 Si10 1.656342 1_555
O31 Ti2 2.038986 1_555
O32 Si1 1.656342 1_555
O32 Ti5 2.038986 1_655
O33 Si9 1.656342 1_556
O33 Ti7 2.038986 1_666
O34 Si10 1.656342 1_555
O34 Ti6 2.038986 1_565
O35 Si7 1.656342 1_555
O35 Ti6 2.038986 1_555
O36 Si8 1.656342 1_555
O36 Ti2 2.038986 1_655
O37 Si0 1.656342 1_655
O37 Ti7 2.038986 1_666
O38 Si0 1.656342 1_555
O38 Ti2 2.038986 1_555
O39 Si3 1.656342 1_655
O39 Ti5 2.038986 1_655
O40 Si2 1.656342 1_555
O40 Ti5 2.038986 1_656
O41 Si5 1.656342 1_555
O41 Ti0 2.038986 1_566
O42 Si2 1.656342 1_555
O42 Ti4 2.038986 1_555
O43 Si3 1.656342 1_555
O43 Ti3 2.038986 1_565
O44 Si4 1.656342 1_555
O44 Ti0 2.038986 1_556
O45 Si4 1.656342 1_565
O45 Ti3 2.038986 1_565
O46 Si5 1.656342 1_555
O46 Ti4 2.038986 1_555
O47 Si3 1.656342 1_555
O47 Ti6 2.038986 1_565
