# generated using pymatgen
data_Tb2Nb3Ge4
_symmetry_space_group_name_H-M   'P 1'
_cell_length_a   7.00566387
_cell_length_b   7.19528938
_cell_length_c   13.56711488
_cell_angle_alpha   90.00000000
_cell_angle_beta   90.00000000
_cell_angle_gamma   90.00000000
_symmetry_Int_Tables_number   1
_chemical_formula_structural   Tb2Nb3Ge4
_chemical_formula_sum   'Tb8 Nb12 Ge16'
_cell_volume   683.88812642
_cell_formula_units_Z   4
loop_
 _symmetry_equiv_pos_site_id
 _symmetry_equiv_pos_as_xyz
  1  'x, y, z'
loop_
 _atom_site_type_symbol
 _atom_site_label
 _atom_site_symmetry_multiplicity
 _atom_site_fract_x
 _atom_site_fract_y
 _atom_site_fract_z
 _atom_site_occupancy
  Tb  Tb0  1  0.49776894  0.32608610  0.09558930  1
  Tb  Tb1  1  0.99776894  0.17391390  0.40441070  1
  Tb  Tb2  1  0.50223106  0.67391390  0.59558930  1
  Tb  Tb3  1  0.00223106  0.82608610  0.90441070  1
  Tb  Tb4  1  0.50223106  0.67391390  0.90441070  1
  Tb  Tb5  1  0.00223106  0.82608610  0.59558930  1
  Tb  Tb6  1  0.49776894  0.32608610  0.40441070  1
  Tb  Tb7  1  0.99776894  0.17391390  0.09558930  1
  Nb  Nb0  1  0.66421539  0.01332610  0.75000000  1
  Nb  Nb1  1  0.16421539  0.48667390  0.75000000  1
  Nb  Nb2  1  0.33578461  0.98667390  0.25000000  1
  Nb  Nb3  1  0.83578461  0.51332610  0.25000000  1
  Nb  Nb4  1  0.84010181  0.32791334  0.62680225  1
  Nb  Nb5  1  0.34010181  0.17208666  0.87319775  1
  Nb  Nb6  1  0.15989819  0.67208666  0.12680225  1
  Nb  Nb7  1  0.65989819  0.82791334  0.37319775  1
  Nb  Nb8  1  0.15989819  0.67208666  0.37319775  1
  Nb  Nb9  1  0.65989819  0.82791334  0.12680225  1
  Nb  Nb10  1  0.84010181  0.32791334  0.87319775  1
  Nb  Nb11  1  0.34010181  0.17208666  0.62680225  1
  Ge  Ge0  1  0.80437275  0.63528808  0.75000000  1
  Ge  Ge1  1  0.30437275  0.86471192  0.75000000  1
  Ge  Ge2  1  0.19562725  0.36471192  0.25000000  1
  Ge  Ge3  1  0.69562725  0.13528808  0.25000000  1
  Ge  Ge4  1  0.53995509  0.37862797  0.75000000  1
  Ge  Ge5  1  0.03995509  0.12137203  0.75000000  1
  Ge  Ge6  1  0.46004491  0.62137203  0.25000000  1
  Ge  Ge7  1  0.96004491  0.87862797  0.25000000  1
  Ge  Ge8  1  0.67336615  0.03897448  0.54159034  1
  Ge  Ge9  1  0.17336615  0.46102552  0.95840966  1
  Ge  Ge10  1  0.32663385  0.96102552  0.04159034  1
  Ge  Ge11  1  0.82663385  0.53897448  0.45840966  1
  Ge  Ge12  1  0.32663385  0.96102552  0.45840966  1
  Ge  Ge13  1  0.82663385  0.53897448  0.04159034  1
  Ge  Ge14  1  0.67336615  0.03897448  0.95840966  1
  Ge  Ge15  1  0.17336615  0.46102552  0.54159034  1
loop_
_geom_bond_atom_site_label_1
_geom_bond_atom_site_label_2
_geom_bond_distance
_geom_bond_site_symmetry_2
Ge0 Ge4 2.615708 1_555
Ge0 Nb1 2.738352 1_655
Ge0 Nb10 2.783479 1_555
Ge0 Nb4 2.783479 1_555
Ge0 Tb5 2.862639 1_655
Ge0 Tb3 2.862639 1_655
Ge0 Nb0 2.891889 1_565
Ge0 Tb4 2.991039 1_555
Ge0 Tb2 2.991039 1_555
Ge1 Ge5 2.615708 1_565
Ge1 Nb0 2.738352 1_565
Ge1 Nb5 2.783479 1_565
Ge1 Nb11 2.783479 1_565
Ge1 Tb2 2.862639 1_555
Ge1 Tb4 2.862639 1_555
Ge1 Nb1 2.891889 1_555
Ge1 Tb3 2.991039 1_555
Ge1 Tb5 2.991039 1_555
Ge2 Ge6 2.615708 1_555
Ge2 Nb3 2.738352 1_455
Ge2 Nb6 2.783479 1_555
Ge2 Nb8 2.783479 1_555
Ge2 Tb1 2.862639 1_455
Ge2 Tb7 2.862639 1_455
Ge2 Nb2 2.891889 1_545
Ge2 Tb6 2.991039 1_555
Ge2 Tb0 2.991039 1_555
Ge3 Ge7 2.615708 1_545
Ge3 Nb2 2.738352 1_545
Ge3 Nb7 2.783479 1_545
Ge3 Nb9 2.783479 1_545
Ge3 Tb6 2.862639 1_555
Ge3 Tb0 2.862639 1_555
Ge3 Nb3 2.891889 1_555
Ge3 Tb1 2.991039 1_555
Ge3 Tb7 2.991039 1_555
Ge4 Nb11 2.638667 1_555
Ge4 Nb5 2.638667 1_555
Ge4 Nb10 2.710779 1_555
Ge4 Nb4 2.710779 1_555
Ge4 Nb1 2.744708 1_555
Ge4 Nb0 2.768859 1_555
Ge4 Tb4 2.995446 1_555
Ge4 Tb2 2.995446 1_555
Ge5 Nb10 2.638667 1_455
Ge5 Nb4 2.638667 1_455
Ge5 Nb5 2.710779 1_555
Ge5 Nb11 2.710779 1_555
Ge5 Nb0 2.744708 1_455
Ge5 Nb1 2.768859 1_555
Ge5 Tb5 2.995446 1_545
Ge5 Tb3 2.995446 1_545
Ge6 Nb9 2.638667 1_555
Ge6 Nb7 2.638667 1_555
Ge6 Nb6 2.710779 1_555
Ge6 Nb8 2.710779 1_555
Ge6 Nb3 2.744708 1_555
Ge6 Nb2 2.768859 1_555
Ge6 Tb6 2.995446 1_555
Ge6 Tb0 2.995446 1_555
Ge7 Nb6 2.638667 1_655
Ge7 Nb8 2.638667 1_655
Ge7 Nb7 2.710779 1_555
Ge7 Nb9 2.710779 1_555
Ge7 Nb2 2.744708 1_655
Ge7 Nb3 2.768859 1_555
Ge7 Tb1 2.995446 1_565
Ge7 Tb7 2.995446 1_565
Ge8 Nb4 2.650132 1_555
Ge8 Nb7 2.744921 1_545
Ge8 Nb11 2.775764 1_555
Ge8 Nb0 2.834259 1_555
Ge8 Tb5 2.862017 1_645
Ge8 Tb2 2.978885 1_545
Ge8 Tb6 3.040540 1_555
Ge8 Tb1 3.093781 1_555
Ge9 Nb5 2.650132 1_555
Ge9 Nb6 2.744921 1_556
Ge9 Nb10 2.775764 1_455
Ge9 Nb1 2.834259 1_555
Ge9 Tb4 2.862017 1_555
Ge9 Tb3 2.978885 1_555
Ge9 Tb7 3.040540 1_456
Ge9 Tb0 3.093781 1_556
Ge10 Nb6 2.650132 1_555
Ge10 Ge14 2.736532 1_564
Ge10 Nb5 2.744921 1_564
Ge10 Nb9 2.775764 1_555
Ge10 Nb2 2.834259 1_555
Ge10 Tb7 2.862017 1_465
Ge10 Tb0 2.978885 1_565
Ge10 Tb4 3.040540 1_554
Ge10 Tb3 3.093781 1_554
Ge11 Nb7 2.650132 1_555
Ge11 Ge15 2.736532 1_655
Ge11 Nb4 2.744921 1_555
Ge11 Nb8 2.775764 1_655
Ge11 Nb3 2.834259 1_555
Ge11 Tb6 2.862017 1_555
Ge11 Tb1 2.978885 1_555
Ge11 Tb5 3.040540 1_655
Ge11 Tb2 3.093781 1_555
Ge12 Nb8 2.650132 1_555
Ge12 Ge8 2.736532 1_565
Ge12 Nb11 2.744921 1_565
Ge12 Nb7 2.775764 1_555
Ge12 Nb2 2.834259 1_555
Ge12 Tb1 2.862017 1_465
Ge12 Tb6 2.978885 1_565
Ge12 Tb2 3.040540 1_555
Ge12 Tb5 3.093781 1_555
Ge13 Nb9 2.650132 1_555
Ge13 Ge9 2.736532 1_654
Ge13 Nb10 2.744921 1_554
Ge13 Nb6 2.775764 1_655
Ge13 Nb3 2.834259 1_555
Ge13 Tb0 2.862017 1_555
Ge13 Tb7 2.978885 1_555
Ge13 Tb3 3.040540 1_654
Ge13 Tb4 3.093781 1_554
Ge14 Nb10 2.650132 1_555
Ge14 Nb9 2.744921 1_546
Ge14 Nb5 2.775764 1_555
Ge14 Nb0 2.834259 1_555
Ge14 Tb3 2.862017 1_645
Ge14 Tb4 2.978885 1_545
Ge14 Tb0 3.040540 1_556
Ge14 Tb7 3.093781 1_556
Ge15 Nb11 2.650132 1_555
Ge15 Nb8 2.744921 1_555
Ge15 Nb4 2.775764 1_455
Ge15 Nb1 2.834259 1_555
Ge15 Tb2 2.862017 1_555
Ge15 Tb5 2.978885 1_555
Ge15 Tb1 3.040540 1_455
Ge15 Tb6 3.093781 1_555
