# generated using pymatgen
data_Te5PbO11
_symmetry_space_group_name_H-M   'P 1'
_cell_length_a   9.90654375
_cell_length_b   9.90654375
_cell_length_c   26.19077458
_cell_angle_alpha   81.96212566
_cell_angle_beta   81.96212566
_cell_angle_gamma   26.26140334
_symmetry_Int_Tables_number   1
_chemical_formula_structural   Te5PbO11
_chemical_formula_sum   'Te20 Pb4 O44'
_cell_volume   1125.51243899
_cell_formula_units_Z   4
loop_
 _symmetry_equiv_pos_site_id
 _symmetry_equiv_pos_as_xyz
  1  'x, y, z'
loop_
 _atom_site_type_symbol
 _atom_site_label
 _atom_site_symmetry_multiplicity
 _atom_site_fract_x
 _atom_site_fract_y
 _atom_site_fract_z
 _atom_site_occupancy
  Te  Te0  1  0.90730800  0.57915800  0.93996100  1
  Te  Te1  1  0.42084200  0.09269200  0.56003900  1
  Te  Te2  1  0.09269200  0.42084200  0.06003900  1
  Te  Te3  1  0.57915800  0.90730800  0.43996100  1
  Te  Te4  1  0.50448900  0.34673100  0.95568900  1
  Te  Te5  1  0.65326900  0.49551100  0.54431100  1
  Te  Te6  1  0.49551100  0.65326900  0.04431100  1
  Te  Te7  1  0.34673100  0.50448900  0.45568900  1
  Te  Te8  1  0.01664100  0.16571600  0.92229900  1
  Te  Te9  1  0.83428400  0.98335900  0.57770100  1
  Te  Te10  1  0.98335900  0.83428400  0.07770100  1
  Te  Te11  1  0.16571600  0.01664100  0.42229900  1
  Te  Te12  1  0.65633100  0.16023100  0.71457000  1
  Te  Te13  1  0.83976900  0.34366900  0.78543000  1
  Te  Te14  1  0.34366900  0.83976900  0.28543000  1
  Te  Te15  1  0.16023100  0.65633100  0.21457000  1
  Te  Te16  1  0.14755100  0.67123900  0.82336900  1
  Te  Te17  1  0.32876100  0.85244900  0.67663100  1
  Te  Te18  1  0.85244900  0.32876100  0.17663100  1
  Te  Te19  1  0.67123900  0.14755100  0.32336900  1
  Pb  Pb0  1  0.91001200  0.59532900  0.68317000  1
  Pb  Pb1  1  0.40467100  0.08998800  0.81683000  1
  Pb  Pb2  1  0.08998800  0.40467100  0.31683000  1
  Pb  Pb3  1  0.59532900  0.91001200  0.18317000  1
  O  O0  1  0.69630800  0.32434100  0.90580800  1
  O  O1  1  0.67565900  0.30369200  0.59419200  1
  O  O2  1  0.30369200  0.67565900  0.09419200  1
  O  O3  1  0.32434100  0.69630800  0.40580800  1
  O  O4  1  0.05640300  0.77833700  0.74293700  1
  O  O5  1  0.22166300  0.94359700  0.75706300  1
  O  O6  1  0.94359700  0.22166300  0.25706300  1
  O  O7  1  0.77833700  0.05640300  0.24293700  1
  O  O8  1  0.50838900  0.11157800  0.72624600  1
  O  O9  1  0.88842200  0.49161100  0.77375400  1
  O  O10  1  0.49161100  0.88842200  0.27375400  1
  O  O11  1  0.11157800  0.50838900  0.22624600  1
  O  O12  1  0.12481000  0.09452900  0.84894700  1
  O  O13  1  0.90547100  0.87519000  0.65105300  1
  O  O14  1  0.87519000  0.90547100  0.15105300  1
  O  O15  1  0.09452900  0.12481000  0.34894700  1
  O  O16  1  0.70312100  0.58692100  0.91833800  1
  O  O17  1  0.41307900  0.29687900  0.58166200  1
  O  O18  1  0.29687900  0.41307900  0.08166200  1
  O  O19  1  0.58692100  0.70312100  0.41833800  1
  O  O20  1  0.99325400  0.63050500  0.82950300  1
  O  O21  1  0.36949500  0.00674600  0.67049700  1
  O  O22  1  0.00674600  0.36949500  0.17049700  1
  O  O23  1  0.63050500  0.99325400  0.32950300  1
  O  O24  1  0.19688100  0.72703000  0.98152700  1
  O  O25  1  0.27297000  0.80311900  0.51847300  1
  O  O26  1  0.80311900  0.27297000  0.01847300  1
  O  O27  1  0.72703000  0.19688100  0.48152700  1
  O  O28  1  0.82031000  0.56244700  0.01001200  1
  O  O29  1  0.43755300  0.17969000  0.48998800  1
  O  O30  1  0.17969000  0.43755300  0.98998800  1
  O  O31  1  0.56244700  0.82031000  0.51001200  1
  O  O32  1  0.26321000  0.16456300  0.92170000  1
  O  O33  1  0.83543700  0.73679000  0.57830000  1
  O  O34  1  0.73679000  0.83543700  0.07830000  1
  O  O35  1  0.16456300  0.26321000  0.42170000  1
  O  O36  1  0.31521000  0.45346500  0.89772400  1
  O  O37  1  0.54653500  0.68479000  0.60227600  1
  O  O38  1  0.68479000  0.54653500  0.10227600  1
  O  O39  1  0.45346500  0.31521000  0.39772400  1
  O  O40  1  0.54996500  0.27319500  0.79567700  1
  O  O41  1  0.72680500  0.45003500  0.70432300  1
  O  O42  1  0.45003500  0.72680500  0.20432300  1
  O  O43  1  0.27319500  0.54996500  0.29567700  1
loop_
_geom_bond_atom_site_label_1
_geom_bond_atom_site_label_2
_geom_bond_distance
_geom_bond_site_symmetry_2
O0 Te8 1.993931 1_655
O0 Te4 1.999435 1_555
O1 Te9 1.993931 1_545
O1 Te5 1.999435 1_555
O2 Te10 1.993931 1_455
O2 Te6 1.999435 1_555
O3 Te11 1.993931 1_565
O3 Te7 1.999435 1_555
O4 Te12 1.927979 1_465
O4 Te16 2.137126 1_555
O5 Te13 1.927979 1_465
O5 Te17 2.137126 1_555
O6 Te14 1.927979 1_645
O6 Te18 2.137126 1_555
O7 Te15 1.927979 1_645
O7 Te19 2.137126 1_555
O8 Te12 1.890554 1_555
O8 Pb1 2.510101 1_555
O8 Pb0 2.668523 1_545
O9 Te13 1.890554 1_555
O9 Pb0 2.510101 1_555
O9 Pb1 2.668523 1_655
O10 Te14 1.890554 1_555
O10 Pb3 2.510101 1_555
O10 Pb2 2.668523 1_565
O11 Te15 1.890554 1_555
O11 Pb2 2.510101 1_555
O11 Pb3 2.668523 1_455
O12 Te8 1.945299 1_555
O12 Te13 2.120867 1_455
O12 Pb1 2.744230 1_555
O13 Te9 1.945299 1_555
O13 Te12 2.120867 1_565
O13 Pb0 2.744230 1_555
O14 Te10 1.945299 1_555
O14 Te15 2.120867 1_655
O14 Pb3 2.744230 1_555
O15 Te11 1.945299 1_555
O15 Te14 2.120867 1_545
O15 Pb2 2.744230 1_555
O16 Te8 1.947607 1_655
O16 Te0 2.108904 1_555
O17 Te9 1.947607 1_545
O17 Te1 2.108904 1_555
O18 Te10 1.947607 1_455
O18 Te2 2.108904 1_555
O19 Te11 1.947607 1_565
O19 Te3 2.108904 1_555
O20 Te16 1.882716 1_655
O20 Pb1 2.523829 1_655
O20 Pb1 2.709886 1_565
O21 Te17 1.882716 1_545
O21 Pb0 2.523829 1_545
O21 Pb0 2.709886 1_455
O22 Te18 1.882716 1_455
O22 Pb3 2.523829 1_455
O22 Pb3 2.709886 1_545
O23 Te19 1.882716 1_565
O23 Pb2 2.523829 1_565
O23 Pb2 2.709886 1_655
O24 Te4 1.866214 1_555
O24 Te10 2.678689 1_456
O25 Te5 1.866214 1_555
O25 Te11 2.678689 1_565
O26 Te6 1.866214 1_555
O26 Te8 2.678689 1_654
O27 Te7 1.866214 1_555
O27 Te9 2.678689 1_545
O28 Te0 1.965971 1_554
O28 Te2 2.156688 1_655
O28 Te6 2.488969 1_555
O29 Te1 1.965971 1_555
O29 Te3 2.156688 1_545
O29 Te7 2.488969 1_555
O30 Te2 1.965971 1_556
O30 Te0 2.156688 1_455
O30 Te4 2.488969 1_555
O31 Te3 1.965971 1_555
O31 Te1 2.156688 1_565
O31 Te5 2.488969 1_555
O32 Te0 1.906282 1_455
O32 Te8 2.430266 1_555
O32 Pb1 2.772684 1_555
O33 Te1 1.906282 1_565
O33 Te9 2.430266 1_555
O33 Pb0 2.772684 1_555
O34 Te2 1.906282 1_655
O34 Te10 2.430266 1_555
O34 Pb3 2.772684 1_555
O35 Te3 1.906282 1_545
O35 Te11 2.430266 1_555
O35 Pb2 2.772684 1_555
O36 Te4 1.931301 1_555
O36 Te16 2.123257 1_555
O37 Te5 1.931301 1_555
O37 Te17 2.123257 1_555
O38 Te6 1.931301 1_555
O38 Te18 2.123257 1_555
O39 Te7 1.931301 1_555
O39 Te19 2.123257 1_555
O40 Te16 1.940148 1_555
O40 Te12 2.190659 1_555
O41 Te17 1.940148 1_555
O41 Te13 2.190659 1_555
O42 Te18 1.940148 1_555
O42 Te14 2.190659 1_555
O43 Te19 1.940148 1_555
O43 Te15 2.190659 1_555
