# generated using pymatgen
data_VIr
_symmetry_space_group_name_H-M   'P 1'
_cell_length_a   8.65966523
_cell_length_b   8.65966523
_cell_length_c   6.64202255
_cell_angle_alpha   71.37945860
_cell_angle_beta   71.37945860
_cell_angle_gamma   80.01859669
_symmetry_Int_Tables_number   1
_chemical_formula_structural   VIr
_chemical_formula_sum   'V16 Ir16'
_cell_volume   445.88829655
_cell_formula_units_Z   16
loop_
 _symmetry_equiv_pos_site_id
 _symmetry_equiv_pos_as_xyz
  1  'x, y, z'
loop_
 _atom_site_type_symbol
 _atom_site_label
 _atom_site_symmetry_multiplicity
 _atom_site_fract_x
 _atom_site_fract_y
 _atom_site_fract_z
 _atom_site_occupancy
  V  V0  1  0.00457500  0.26430600  0.28075200  1
  V  V1  1  0.26430600  0.00457500  0.28075200  1
  V  V2  1  0.75776500  0.51765200  0.26268600  1
  V  V3  1  0.51765200  0.75776500  0.26268600  1
  V  V4  1  0.86615600  0.13384400  0.00000000  1
  V  V5  1  0.13384400  0.86615600  0.00000000  1
  V  V6  1  0.61478100  0.38521900  0.00000000  1
  V  V7  1  0.38521900  0.61478100  0.00000000  1
  V  V8  1  0.12323900  0.37331900  0.50813000  1
  V  V9  1  0.37331900  0.12323900  0.50813000  1
  V  V10  1  0.87676100  0.62668100  0.49187000  1
  V  V11  1  0.62668100  0.87676100  0.49187000  1
  V  V12  1  0.73569400  0.99542500  0.71924800  1
  V  V13  1  0.99542500  0.73569400  0.71924800  1
  V  V14  1  0.48234800  0.24223500  0.73731400  1
  V  V15  1  0.24223500  0.48234800  0.73731400  1
  Ir  Ir0  1  0.31362700  0.31362700  0.12028100  1
  Ir  Ir1  1  0.04752400  0.04752400  0.65060200  1
  Ir  Ir2  1  0.82727200  0.82727200  0.09069200  1
  Ir  Ir3  1  0.55750000  0.55750000  0.63114600  1
  Ir  Ir4  1  0.44250000  0.44250000  0.36885400  1
  Ir  Ir5  1  0.17272800  0.17272800  0.90930800  1
  Ir  Ir6  1  0.95247600  0.95247600  0.34939800  1
  Ir  Ir7  1  0.68637300  0.68637300  0.87971900  1
  Ir  Ir8  1  0.07189200  0.56943000  0.10409200  1
  Ir  Ir9  1  0.56943000  0.07189200  0.10409200  1
  Ir  Ir10  1  0.80027600  0.30455200  0.64145700  1
  Ir  Ir11  1  0.30455200  0.80027600  0.64145700  1
  Ir  Ir12  1  0.19972400  0.69544800  0.35854300  1
  Ir  Ir13  1  0.69544800  0.19972400  0.35854300  1
  Ir  Ir14  1  0.92810800  0.43057000  0.89590800  1
  Ir  Ir15  1  0.43057000  0.92810800  0.89590800  1
loop_
_geom_bond_atom_site_label_1
_geom_bond_atom_site_label_2
_geom_bond_distance
_geom_bond_site_symmetry_2
V0 V8 2.542783 1_555
V1 V9 2.542783 1_555
V8 V9 2.784592 1_555
V10 V13 2.542783 1_555
V10 V2 2.554862 1_555
V10 V8 2.784541 1_655
V10 V11 2.784592 1_555
V11 V12 2.542783 1_555
V11 V3 2.554862 1_555
V11 V9 2.784541 1_565
V14 V9 2.554862 1_555
V15 V8 2.554862 1_555
Ir0 V7 2.595649 1_555
Ir0 V6 2.595649 1_555
Ir0 V0 2.600940 1_555
Ir0 V1 2.600940 1_555
Ir0 V15 2.702775 1_554
Ir0 V14 2.702775 1_554
Ir0 V9 2.732101 1_555
Ir0 V8 2.732101 1_555
Ir1 V5 2.604688 1_546
Ir1 V4 2.604688 1_456
Ir1 V0 2.663372 1_555
Ir1 V1 2.663372 1_555
Ir1 V12 2.684772 1_445
Ir1 V13 2.684772 1_445
Ir1 V9 2.797337 1_555
Ir1 V8 2.797337 1_555
Ir2 V4 2.585222 1_565
Ir2 V5 2.585222 1_655
Ir2 V3 2.649629 1_555
Ir2 V2 2.649629 1_555
Ir2 V12 2.718639 1_554
Ir2 V13 2.718639 1_554
Ir2 V11 2.795827 1_555
Ir2 V10 2.795827 1_555
Ir3 V6 2.580582 1_556
Ir3 V7 2.580582 1_556
Ir3 V3 2.595668 1_555
Ir3 V2 2.595668 1_555
Ir3 V10 2.728590 1_555
Ir3 V11 2.728590 1_555
Ir3 V15 2.732694 1_555
Ir3 V14 2.732694 1_555
Ir4 V6 2.580582 1_555
Ir4 V7 2.580582 1_555
Ir4 V14 2.595668 1_555
Ir4 V15 2.595668 1_555
Ir4 V8 2.728590 1_555
Ir4 V9 2.728590 1_555
Ir4 V2 2.732694 1_555
Ir4 V3 2.732694 1_555
Ir5 V5 2.585222 1_546
Ir5 V4 2.585222 1_456
Ir5 V14 2.649629 1_555
Ir5 V15 2.649629 1_555
Ir5 V0 2.718639 1_556
Ir5 V1 2.718639 1_556
Ir5 V8 2.795827 1_555
Ir5 V9 2.795827 1_555
Ir6 V4 2.604688 1_565
Ir6 V5 2.604688 1_655
Ir6 V12 2.663372 1_555
Ir6 V13 2.663372 1_555
Ir6 V0 2.684772 1_665
Ir6 V1 2.684772 1_665
Ir6 V10 2.797337 1_555
Ir6 V11 2.797337 1_555
Ir7 V6 2.595649 1_556
Ir7 V7 2.595649 1_556
Ir7 V12 2.600940 1_555
Ir7 V13 2.600940 1_555
Ir7 V3 2.702775 1_556
Ir7 V2 2.702775 1_556
Ir7 V11 2.732101 1_555
Ir7 V10 2.732101 1_555
Ir8 V5 2.544585 1_555
Ir8 V0 2.610648 1_555
Ir8 V7 2.644297 1_555
Ir8 V2 2.646066 1_455
Ir8 V15 2.678084 1_554
Ir8 V13 2.728646 1_454
Ir8 V10 2.735087 1_455
Ir8 V8 2.805975 1_555
Ir9 V4 2.544585 1_555
Ir9 V1 2.610648 1_555
Ir9 V6 2.644297 1_555
Ir9 V3 2.646066 1_545
Ir9 V14 2.678084 1_554
Ir9 V12 2.728646 1_544
Ir9 V11 2.735087 1_545
Ir9 V9 2.805975 1_555
Ir10 V4 2.551310 1_556
Ir10 V0 2.569831 1_655
Ir10 V6 2.640083 1_556
Ir10 V12 2.682704 1_545
Ir10 V2 2.694696 1_555
Ir10 V14 2.729955 1_555
Ir10 V8 2.760367 1_655
Ir10 V10 2.767246 1_555
Ir11 V5 2.551310 1_556
Ir11 V1 2.569831 1_565
Ir11 V7 2.640083 1_556
Ir11 V13 2.682704 1_455
Ir11 V3 2.694696 1_555
Ir11 V15 2.729955 1_555
Ir11 V9 2.760367 1_565
Ir11 V11 2.767246 1_555
Ir12 V5 2.551310 1_555
Ir12 V13 2.569831 1_455
Ir12 V7 2.640083 1_555
Ir12 V1 2.682704 1_565
Ir12 V15 2.694696 1_555
Ir12 V3 2.729955 1_555
Ir12 V10 2.760367 1_455
Ir12 V8 2.767246 1_555
Ir13 V4 2.551310 1_555
Ir13 V12 2.569831 1_545
Ir13 V6 2.640083 1_555
Ir13 V0 2.682704 1_655
Ir13 V14 2.694696 1_555
Ir13 V2 2.729955 1_555
Ir13 V11 2.760367 1_545
Ir13 V9 2.767246 1_555
Ir14 V4 2.544585 1_556
Ir14 V13 2.610648 1_555
Ir14 V6 2.644297 1_556
Ir14 V15 2.646066 1_655
Ir14 V2 2.678084 1_556
Ir14 V0 2.728646 1_656
Ir14 V8 2.735087 1_655
Ir14 V10 2.805975 1_555
Ir15 V5 2.544585 1_556
Ir15 V12 2.610648 1_555
Ir15 V7 2.644297 1_556
Ir15 V14 2.646066 1_565
Ir15 V3 2.678084 1_556
Ir15 V1 2.728646 1_566
Ir15 V9 2.735087 1_565
Ir15 V11 2.805975 1_555
