# generated using pymatgen
data_Sr(RhO2)4
_symmetry_space_group_name_H-M   'P 1'
_cell_length_a   3.17140200
_cell_length_b   6.77614863
_cell_length_c   7.50389199
_cell_angle_alpha   86.65513991
_cell_angle_beta   77.80044878
_cell_angle_gamma   103.53339860
_symmetry_Int_Tables_number   1
_chemical_formula_structural   Sr(RhO2)4
_chemical_formula_sum   'Sr1 Rh4 O8'
_cell_volume   152.25067486
_cell_formula_units_Z   1
loop_
 _symmetry_equiv_pos_site_id
 _symmetry_equiv_pos_as_xyz
  1  'x, y, z'
loop_
 _atom_site_type_symbol
 _atom_site_label
 _atom_site_symmetry_multiplicity
 _atom_site_fract_x
 _atom_site_fract_y
 _atom_site_fract_z
 _atom_site_occupancy
  Sr  Sr0  1  0.82920800  0.00000000  0.00000000  1
  Rh  Rh0  1  0.67173200  0.80921200  0.46395000  1
  Rh  Rh1  1  0.32647000  0.19078800  0.53605000  1
  Rh  Rh2  1  0.83909700  0.50714800  0.82112400  1
  Rh  Rh3  1  0.15307300  0.49285200  0.17887600  1
  O  O0  1  0.71800100  0.67388600  0.23349700  1
  O  O1  1  0.27761200  0.32611400  0.76650300  1
  O  O2  1  0.95822300  0.34032300  0.42187400  1
  O  O3  1  0.03977300  0.65967700  0.57812600  1
  O  O4  1  0.62164400  0.33364700  0.07437300  1
  O  O5  1  0.36236900  0.66635300  0.92562700  1
  O  O6  1  0.67951800  0.01891500  0.65767600  1
  O  O7  1  0.31828000  0.98108500  0.34232400  1
loop_
_geom_bond_atom_site_label_1
_geom_bond_atom_site_label_2
_geom_bond_distance
_geom_bond_site_symmetry_2
O0 Rh0 1.998408 1_555
O0 Rh3 2.046576 1_655
O0 Rh3 2.055019 1_555
O0 Sr0 2.645720 1_565
O1 Rh1 1.998408 1_555
O1 Rh2 2.046576 1_555
O1 Rh2 2.055019 1_455
O1 Sr0 2.645720 1_456
O2 Rh3 1.944208 1_655
O2 Rh1 1.999503 1_555
O2 Rh1 2.000019 1_655
O3 Rh2 1.944208 1_455
O3 Rh0 1.999501 1_455
O3 Rh0 2.000021 1_555
O4 Rh2 2.067626 1_554
O4 Rh3 2.084114 1_555
O4 Rh3 2.103702 1_655
O4 Sr0 2.558259 1_555
O5 Rh3 2.067626 1_556
O5 Rh2 2.084112 1_455
O5 Rh2 2.103705 1_555
O5 Sr0 2.558260 1_566
O6 Rh1 2.088330 1_555
O6 Rh1 2.089305 1_655
O6 Rh0 2.091130 1_545
O6 Sr0 2.710310 1_556
O7 Rh0 2.088332 1_455
O7 Rh0 2.089302 1_555
O7 Rh1 2.091130 1_565
O7 Sr0 2.710308 1_565
