# generated using pymatgen
data_Ba2Ge4Pd5
_symmetry_space_group_name_H-M   'P 1'
_cell_length_a   9.09669252
_cell_length_b   9.09669252
_cell_length_c   5.93523400
_cell_angle_alpha   90.00000000
_cell_angle_beta   90.00000000
_cell_angle_gamma   104.38750072
_symmetry_Int_Tables_number   1
_chemical_formula_structural   Ba2Ge4Pd5
_chemical_formula_sum   'Ba4 Ge8 Pd10'
_cell_volume   475.73609779
_cell_formula_units_Z   2
loop_
 _symmetry_equiv_pos_site_id
 _symmetry_equiv_pos_as_xyz
  1  'x, y, z'
loop_
 _atom_site_type_symbol
 _atom_site_label
 _atom_site_symmetry_multiplicity
 _atom_site_fract_x
 _atom_site_fract_y
 _atom_site_fract_z
 _atom_site_occupancy
  Ba  Ba0  1  0.35770300  0.64229700  0.03512500  1
  Ba  Ba1  1  0.64229700  0.35770300  0.96487500  1
  Ba  Ba2  1  0.14229700  0.85770300  0.53512500  1
  Ba  Ba3  1  0.85770300  0.14229700  0.46487500  1
  Ge  Ge0  1  0.95593300  0.70744200  0.05803700  1
  Ge  Ge1  1  0.70744200  0.95593300  0.94196300  1
  Ge  Ge2  1  0.20744200  0.45593300  0.55803700  1
  Ge  Ge3  1  0.45593300  0.20744200  0.44196300  1
  Ge  Ge4  1  0.04406700  0.29255800  0.94196300  1
  Ge  Ge5  1  0.29255800  0.04406700  0.05803700  1
  Ge  Ge6  1  0.79255800  0.54406700  0.44196300  1
  Ge  Ge7  1  0.54406700  0.79255800  0.55803700  1
  Pd  Pd0  1  0.02285800  0.47714200  0.25000000  1
  Pd  Pd1  1  0.47714200  0.02285800  0.75000000  1
  Pd  Pd2  1  0.97714200  0.52285800  0.75000000  1
  Pd  Pd3  1  0.52285800  0.97714200  0.25000000  1
  Pd  Pd4  1  0.22659200  0.27340800  0.25000000  1
  Pd  Pd5  1  0.27340800  0.22659200  0.75000000  1
  Pd  Pd6  1  0.77340800  0.72659200  0.75000000  1
  Pd  Pd7  1  0.72659200  0.77340800  0.25000000  1
  Pd  Pd8  1  0.00000000  0.00000000  0.00000000  1
  Pd  Pd9  1  0.50000000  0.50000000  0.50000000  1
loop_
_geom_bond_atom_site_label_1
_geom_bond_atom_site_label_2
_geom_bond_distance
_geom_bond_site_symmetry_2
Ba0 Pd0 3.299609 1_555
Ba0 Pd3 3.299609 1_555
Ba0 Ge7 3.407187 1_554
Ba0 Ge2 3.407187 1_554
Ba0 Pd9 3.434625 1_555
Ba0 Pd7 3.510062 1_555
Ba0 Pd4 3.510062 1_555
Ba1 Pd2 3.299609 1_555
Ba1 Pd1 3.299609 1_555
Ba1 Ge6 3.407187 1_556
Ba1 Ge3 3.407187 1_556
Ba1 Pd9 3.434625 1_555
Ba1 Pd5 3.510062 1_555
Ba1 Pd6 3.510062 1_555
Ba2 Pd2 3.299609 1_455
Ba2 Pd1 3.299609 1_565
Ba2 Ge0 3.407187 1_455
Ba2 Ge5 3.407187 1_565
Ba2 Pd8 3.434625 1_566
Ba2 Pd5 3.510062 1_565
Ba2 Pd6 3.510062 1_455
Ba3 Pd3 3.299609 1_545
Ba3 Pd0 3.299609 1_655
Ba3 Ge1 3.407187 1_545
Ba3 Ge4 3.407187 1_655
Ba3 Pd8 3.434625 1_655
Ba3 Pd4 3.510062 1_655
Ba3 Pd7 3.510062 1_545
Ge0 Pd6 2.504696 1_554
Ge0 Pd2 2.521940 1_554
Ge0 Pd7 2.575413 1_555
Ge0 Pd0 2.586785 1_655
Ge0 Pd8 2.613762 1_665
Ge1 Pd7 2.504696 1_556
Ge1 Pd3 2.521940 1_556
Ge1 Pd6 2.575413 1_555
Ge1 Pd1 2.586785 1_565
Ge1 Pd8 2.613762 1_666
Ge2 Pd4 2.504696 1_555
Ge2 Pd0 2.521940 1_555
Ge2 Pd5 2.575413 1_555
Ge2 Pd2 2.586785 1_455
Ge2 Pd9 2.613762 1_555
Ge3 Pd5 2.504696 1_555
Ge3 Pd1 2.521940 1_555
Ge3 Pd4 2.575413 1_555
Ge3 Pd3 2.586785 1_545
Ge3 Pd9 2.613762 1_555
Ge4 Pd4 2.504696 1_556
Ge4 Pd0 2.521940 1_556
Ge4 Pd5 2.575413 1_555
Ge4 Pd2 2.586785 1_455
Ge4 Pd8 2.613762 1_556
Ge5 Pd5 2.504696 1_554
Ge5 Pd1 2.521940 1_554
Ge5 Pd4 2.575413 1_555
Ge5 Pd3 2.586785 1_545
Ge5 Pd8 2.613762 1_555
Ge6 Pd6 2.504696 1_555
Ge6 Pd2 2.521940 1_555
Ge6 Pd7 2.575413 1_555
Ge6 Pd0 2.586785 1_655
Ge6 Pd9 2.613762 1_555
Ge7 Pd7 2.504696 1_555
Ge7 Pd3 2.521940 1_555
Ge7 Pd6 2.575413 1_555
Ge7 Pd1 2.586785 1_565
Ge7 Pd9 2.613762 1_555
