# generated using pymatgen
data_Ga2(TeO3)3
_symmetry_space_group_name_H-M   'P 1'
_cell_length_a   9.13665774
_cell_length_b   9.13658844
_cell_length_c   7.49912620
_cell_angle_alpha   89.99965164
_cell_angle_beta   89.99999200
_cell_angle_gamma   119.99922083
_symmetry_Int_Tables_number   1
_chemical_formula_structural   Ga2(TeO3)3
_chemical_formula_sum   'Ga4 Te6 O18'
_cell_volume   542.14583083
_cell_formula_units_Z   2
loop_
 _symmetry_equiv_pos_site_id
 _symmetry_equiv_pos_as_xyz
  1  'x, y, z'
loop_
 _atom_site_type_symbol
 _atom_site_label
 _atom_site_symmetry_multiplicity
 _atom_site_fract_x
 _atom_site_fract_y
 _atom_site_fract_z
 _atom_site_occupancy
  Ga  Ga0  1  0.33332911  0.66666011  0.43738294  1
  Ga  Ga1  1  0.66667237  0.33333511  0.93738105  1
  Ga  Ga2  1  0.66667059  0.33333758  0.56261570  1
  Ga  Ga3  1  0.33333175  0.66666399  0.06261869  1
  Te  Te0  1  0.48654273  0.04174850  0.24999933  1
  Te  Te1  1  0.55521141  0.51346363  0.24999756  1
  Te  Te2  1  0.95825913  0.44479153  0.24999552  1
  Te  Te3  1  0.51345559  0.95825168  0.74999673  1
  Te  Te4  1  0.44478910  0.48653397  0.74999845  1
  Te  Te5  1  0.04174041  0.55521875  0.75002553  1
  O  O0  1  0.49123035  0.83495455  0.24999907  1
  O  O1  1  0.34371854  0.50876088  0.25000161  1
  O  O2  1  0.16504897  0.65628211  0.25000065  1
  O  O3  1  0.50876730  0.16505319  0.74999845  1
  O  O4  1  0.65628142  0.49123446  0.74999762  1
  O  O5  1  0.83494974  0.34371758  0.75000195  1
  O  O6  1  0.65089423  0.14458028  0.43106109  1
  O  O7  1  0.49369326  0.34911056  0.43105832  1
  O  O8  1  0.85542037  0.50631119  0.43105599  1
  O  O9  1  0.34910719  0.85541924  0.93105850  1
  O  O10  1  0.50630787  0.65088496  0.93105681  1
  O  O11  1  0.14457588  0.49368625  0.93106197  1
  O  O12  1  0.34910733  0.85542040  0.56893759  1
  O  O13  1  0.50630598  0.65088457  0.56893771  1
  O  O14  1  0.14457683  0.49369662  0.56894647  1
  O  O15  1  0.65089522  0.14458109  0.06893506  1
  O  O16  1  0.49369250  0.34910869  0.06893854  1
  O  O17  1  0.85542484  0.50630853  0.06894111  1
loop_
_geom_bond_atom_site_label_1
_geom_bond_atom_site_label_2
_geom_bond_distance
_geom_bond_site_symmetry_2
Ga0 O14 1.928622 1_555
Ga0 O13 1.928625 1_555
Ga0 O12 1.928675 1_555
Ga0 O2 2.049821 1_555
Ga0 O1 2.049834 1_555
Ga0 O0 2.049879 1_555
Ga1 O15 1.928617 1_556
Ga1 O16 1.928651 1_556
Ga1 O17 1.928654 1_556
Ga1 O5 2.049772 1_555
Ga1 O4 2.049840 1_555
Ga1 O3 2.049851 1_555
Ga2 O7 1.928628 1_555
Ga2 O8 1.928631 1_555
Ga2 O6 1.928658 1_555
Ga2 O4 2.049821 1_555
Ga2 O5 2.049829 1_555
Ga2 O3 2.049843 1_555
Ga3 O9 1.928656 1_554
Ga3 O10 1.928663 1_554
Ga3 O11 1.928671 1_554
Ga3 O2 2.049825 1_555
Ga3 O1 2.049847 1_555
Ga3 O0 2.049852 1_555
O0 Te0 1.911165 1_565
O1 Te1 1.911217 1_555
O2 Te2 1.911219 1_455
O3 Te3 1.911237 1_545
O4 Te4 1.911222 1_555
O5 Te5 1.911273 1_655
O6 Te0 1.889564 1_555
O7 Te1 1.889549 1_555
O8 Te2 1.889583 1_555
O9 Te3 1.889541 1_555
O10 Te4 1.889536 1_555
O11 Te5 1.889493 1_555
O12 Te3 1.889534 1_555
O13 Te4 1.889535 1_555
O14 Te5 1.889681 1_555
O15 Te0 1.889575 1_555
O16 Te1 1.889563 1_555
O17 Te2 1.889506 1_555
