# generated using pymatgen
data_Zr2N2O
_symmetry_space_group_name_H-M   'P 1'
_cell_length_a   8.85519100
_cell_length_b   8.87788563
_cell_length_c   8.87822387
_cell_angle_alpha   109.59402381
_cell_angle_beta   109.27203738
_cell_angle_gamma   109.42277575
_symmetry_Int_Tables_number   1
_chemical_formula_structural   Zr2N2O
_chemical_formula_sum   'Zr16 N16 O8'
_cell_volume   538.11653600
_cell_formula_units_Z   8
loop_
 _symmetry_equiv_pos_site_id
 _symmetry_equiv_pos_as_xyz
  1  'x, y, z'
loop_
 _atom_site_type_symbol
 _atom_site_label
 _atom_site_symmetry_multiplicity
 _atom_site_fract_x
 _atom_site_fract_y
 _atom_site_fract_z
 _atom_site_occupancy
  Zr  Zr0  1  0.21785900  0.97042800  0.24059900  1
  Zr  Zr1  1  0.98843400  0.48157700  0.51011300  1
  Zr  Zr2  1  0.03140800  0.25210100  0.22077900  1
  Zr  Zr3  1  0.24371300  0.78028000  0.95974700  1
  Zr  Zr4  1  0.46572100  0.75716800  0.28375000  1
  Zr  Zr5  1  0.25216400  0.29244200  0.46725400  1
  Zr  Zr6  1  0.50821500  0.51047900  0.98140400  1
  Zr  Zr7  1  0.99779200  0.99016200  0.01280900  1
  Zr  Zr8  1  0.28301200  0.53515700  0.75107400  1
  Zr  Zr9  1  0.71675800  0.45948800  0.25164300  1
  Zr  Zr10  1  0.49642000  0.01060500  0.49390700  1
  Zr  Zr11  1  0.75553800  0.71633300  0.53217700  1
  Zr  Zr12  1  0.74281600  0.21058700  0.03831700  1
  Zr  Zr13  1  0.53652200  0.25843700  0.71267800  1
  Zr  Zr14  1  0.95947400  0.74005800  0.79584500  1
  Zr  Zr15  1  0.78505600  0.03296400  0.75359500  1
  N  N0  1  0.25767000  0.53129600  0.01863800  1
  N  N1  1  0.23002100  0.76203000  0.72494200  1
  N  N2  1  0.23149400  0.48956500  0.54333600  1
  N  N3  1  0.72688700  0.95014300  0.03548000  1
  N  N4  1  0.46351600  0.00803700  0.26467600  1
  N  N5  1  0.45187200  0.22478300  0.51245300  1
  N  N6  1  0.27379300  0.04283500  0.96944200  1
  N  N7  1  0.48707700  0.45710700  0.77169000  1
  N  N8  1  0.95500900  0.96861500  0.27213100  1
  N  N9  1  0.72922300  0.77399700  0.75921800  1
  N  N10  1  0.96732900  0.73091100  0.04195200  1
  N  N11  1  0.77809300  0.51616500  0.45139900  1
  N  N12  1  0.77322300  0.23796100  0.27222200  1
  N  N13  1  0.73859000  0.46739200  0.98795800  1
  N  N14  1  0.76103500  0.27293900  0.77129800  1
  N  N15  1  0.99082000  0.25869500  0.46829000  1
  O  O0  1  0.01425700  0.74016200  0.53102600  1
  O  O1  1  0.24132800  0.73010700  0.22874100  1
  O  O2  1  0.03502100  0.27381600  0.95061900  1
  O  O3  1  0.04655100  0.03749800  0.72656800  1
  O  O4  1  0.27625600  0.22587700  0.24006100  1
  O  O5  1  0.50675900  0.54183500  0.22843800  1
  O  O6  1  0.54728200  0.77229000  0.48649200  1
  O  O7  1  0.53599200  0.98767700  0.73724100  1
loop_
_geom_bond_atom_site_label_1
_geom_bond_atom_site_label_2
_geom_bond_distance
_geom_bond_site_symmetry_2
Zr2 Zr5 2.218814 1_555
Zr2 Zr7 2.280912 1_445
Zr12 Zr2 2.351859 1_655
N0 Zr4 2.114283 1_555
N0 Zr6 2.404491 1_554
N0 Zr3 2.467576 1_554
N0 Zr8 2.468985 1_554
N1 Zr3 1.995063 1_555
N1 O0 2.002494 1_555
N1 Zr1 2.234420 1_455
N1 Zr8 2.280562 1_555
N1 Zr14 2.634572 1_455
N2 Zr8 1.610791 1_555
N2 Zr5 1.747626 1_555
N2 Zr1 2.046947 1_455
N2 Zr2 2.429371 1_555
N3 Zr12 2.260187 1_565
N3 Zr7 2.391943 1_555
N3 Zr2 2.543700 1_665
N4 Zr10 1.949445 1_555
N4 Zr0 2.012809 1_545
N4 Zr4 2.295456 1_545
N4 Zr3 2.332118 1_544
N5 Zr13 1.557689 1_555
N5 Zr5 2.012201 1_555
N5 Zr10 2.032235 1_555
N5 Zr0 2.269264 1_545
N6 Zr3 2.224630 1_545
N6 Zr7 2.514373 1_446
N6 Zr14 2.600319 1_445
N7 Zr6 1.686839 1_555
N7 Zr13 1.903243 1_555
N7 Zr8 2.116247 1_555
N7 Zr5 2.320707 1_555
N8 Zr0 2.429923 1_655
N8 Zr7 2.510728 1_555
N8 Zr5 2.609511 1_665
N8 Zr2 2.615418 1_665
N9 Zr11 2.019107 1_555
N9 Zr14 2.095314 1_555
N9 Zr15 2.206806 1_565
N9 Zr7 2.222613 1_556
N10 Zr0 2.078043 1_655
N10 Zr14 2.192730 1_554
N10 Zr7 2.338727 1_555
N11 Zr9 1.509070 1_555
N11 Zr11 1.785501 1_555
N11 Zr1 1.918895 1_555
N11 O0 2.035466 1_655
N12 Zr12 1.921709 1_555
N12 N15 2.027791 1_555
N12 Zr1 2.075656 1_555
N12 Zr9 2.232928 1_555
N12 Zr2 2.447095 1_655
N13 Zr13 2.116830 1_555
N13 Zr6 2.183330 1_555
N13 Zr9 2.433670 1_556
N13 Zr12 2.475590 1_556
N14 Zr13 1.828063 1_555
N14 Zr15 2.169730 1_555
N14 Zr10 2.386237 1_555
N14 Zr12 2.650601 1_556
N15 Zr1 1.895746 1_555
N15 Zr2 2.326047 1_655
O0 Zr1 2.166543 1_455
O0 Zr11 2.233413 1_455
O0 Zr9 2.544989 1_455
O0 Zr14 2.552874 1_455
O1 Zr4 1.791032 1_555
O1 Zr0 2.182879 1_555
O1 Zr10 2.379615 1_565
O2 Zr15 2.078260 1_455
O2 Zr2 2.479491 1_556
O2 Zr7 2.693639 1_446
O3 Zr15 2.394245 1_455
O3 Zr11 2.574122 1_445
O3 Zr14 2.827372 1_445
O3 Zr7 2.853283 1_446
O4 Zr5 2.007919 1_555
O4 Zr0 2.153950 1_545
O4 Zr2 2.214030 1_555
O4 Zr7 2.232156 1_445
O5 Zr4 1.994492 1_555
O5 Zr6 2.121190 1_554
O5 Zr9 2.187972 1_555
O5 Zr11 2.351991 1_555
O6 Zr4 1.641613 1_555
O6 Zr11 2.015655 1_555
O6 Zr15 2.279258 1_565
O6 Zr10 2.289852 1_565
O7 Zr15 2.051029 1_565
O7 Zr10 2.161966 1_565
O7 Zr12 2.285962 1_566
O7 Zr13 2.484045 1_565
