# generated using pymatgen
data_Ti5CuSb2
_symmetry_space_group_name_H-M   'P 1'
_cell_length_a   5.12071061
_cell_length_b   7.79510981
_cell_length_c   7.79511025
_cell_angle_alpha   83.80667203
_cell_angle_beta   70.82487963
_cell_angle_gamma   70.82487820
_symmetry_Int_Tables_number   1
_chemical_formula_structural   Ti5CuSb2
_chemical_formula_sum   'Ti10 Cu2 Sb4'
_cell_volume   277.58513391
_cell_formula_units_Z   2
loop_
 _symmetry_equiv_pos_site_id
 _symmetry_equiv_pos_as_xyz
  1  'x, y, z'
loop_
 _atom_site_type_symbol
 _atom_site_label
 _atom_site_symmetry_multiplicity
 _atom_site_fract_x
 _atom_site_fract_y
 _atom_site_fract_z
 _atom_site_occupancy
  Ti  Ti0  1  0.57413829  0.71188629  0.13983714  1
  Ti  Ti1  1  0.42586171  0.28811371  0.86016286  1
  Ti  Ti2  1  0.25000000  0.50000000  0.50000000  1
  Ti  Ti3  1  0.75000000  0.50000000  0.50000000  1
  Ti  Ti4  1  0.71397543  0.86016286  0.71188629  1
  Ti  Ti5  1  0.28602457  0.13983714  0.28811371  1
  Ti  Ti6  1  0.92586171  0.86016286  0.28811371  1
  Ti  Ti7  1  0.21397543  0.71188629  0.86016286  1
  Ti  Ti8  1  0.07413829  0.13983714  0.71188629  1
  Ti  Ti9  1  0.78602457  0.28811371  0.13983714  1
  Cu  Cu0  1  0.25000000  -0.00000000  0.00000000  1
  Cu  Cu1  1  0.75000000  -0.00000000  0.00000000  1
  Sb  Sb0  1  0.33612018  0.82775963  0.50000000  1
  Sb  Sb1  1  0.16387982  0.50000000  0.17224037  1
  Sb  Sb2  1  0.66387982  0.17224037  0.50000000  1
  Sb  Sb3  1  0.83612018  0.50000000  0.82775963  1
loop_
_geom_bond_atom_site_label_1
_geom_bond_atom_site_label_2
_geom_bond_distance
_geom_bond_site_symmetry_2
Ti2 Ti3 2.560355 1_455
Ti2 Ti3 2.560355 1_555
Cu0 Cu1 2.560355 1_455
Cu0 Cu1 2.560355 1_555
Cu0 Ti7 2.683034 1_544
Cu0 Ti5 2.683034 1_555
Cu0 Ti9 2.683034 1_455
Cu0 Ti4 2.683034 1_544
Cu0 Ti1 2.683034 1_554
Cu0 Ti0 2.683035 1_545
Cu0 Ti8 2.683035 1_554
Cu0 Ti6 2.683035 1_445
Cu1 Ti9 2.683034 1_555
Cu1 Ti4 2.683034 1_544
Cu1 Ti7 2.683034 1_644
Cu1 Ti5 2.683034 1_555
Cu1 Ti0 2.683034 1_545
Cu1 Ti1 2.683035 1_554
Cu1 Ti6 2.683035 1_545
Cu1 Ti8 2.683035 1_654
Sb0 Ti2 2.731713 1_555
Sb0 Ti3 2.731713 1_555
Sb0 Ti8 2.777265 1_565
Sb0 Ti5 2.777266 1_565
Sb0 Ti0 2.785604 1_555
Sb0 Ti7 2.785605 1_555
Sb0 Ti4 3.007667 1_555
Sb0 Ti6 3.007667 1_455
Sb0 Ti4 3.007667 1_455
Sb0 Ti6 3.007667 1_555
Sb1 Ti2 2.731713 1_555
Sb1 Ti3 2.731714 1_455
Sb1 Ti1 2.777265 1_554
Sb1 Ti7 2.777266 1_554
Sb1 Ti6 2.785604 1_455
Sb1 Ti5 2.785604 1_555
Sb1 Ti9 3.007667 1_455
Sb1 Ti0 3.007667 1_555
Sb1 Ti9 3.007667 1_555
Sb1 Ti0 3.007667 1_455
Sb2 Ti3 2.731713 1_555
Sb2 Ti2 2.731713 1_555
Sb2 Ti6 2.777265 1_545
Sb2 Ti4 2.777266 1_545
Sb2 Ti1 2.785604 1_555
Sb2 Ti9 2.785605 1_555
Sb2 Ti5 3.007667 1_555
Sb2 Ti8 3.007667 1_655
Sb2 Ti5 3.007667 1_655
Sb2 Ti8 3.007667 1_555
Sb3 Ti3 2.731713 1_555
Sb3 Ti2 2.731714 1_655
Sb3 Ti0 2.777265 1_556
Sb3 Ti9 2.777266 1_556
Sb3 Ti8 2.785604 1_655
Sb3 Ti4 2.785604 1_555
Sb3 Ti7 3.007667 1_655
Sb3 Ti1 3.007667 1_555
Sb3 Ti7 3.007667 1_555
Sb3 Ti1 3.007667 1_655
