# generated using pymatgen
data_Mg2Si
_symmetry_space_group_name_H-M   'P 1'
_cell_length_a   5.93236000
_cell_length_b   5.96547598
_cell_length_c   8.00932459
_cell_angle_alpha   72.49366509
_cell_angle_beta   69.24998410
_cell_angle_gamma   60.56001292
_symmetry_Int_Tables_number   1
_chemical_formula_structural   Mg2Si
_chemical_formula_sum   'Mg8 Si4'
_cell_volume   228.02285561
_cell_formula_units_Z   4
loop_
 _symmetry_equiv_pos_site_id
 _symmetry_equiv_pos_as_xyz
  1  'x, y, z'
loop_
 _atom_site_type_symbol
 _atom_site_label
 _atom_site_symmetry_multiplicity
 _atom_site_fract_x
 _atom_site_fract_y
 _atom_site_fract_z
 _atom_site_occupancy
  Mg  Mg0  1  0.46100400  0.83226300  0.64128500  1
  Mg  Mg1  1  0.24140600  0.11700100  0.31340800  1
  Mg  Mg2  1  0.75203300  0.08442500  0.33660600  1
  Mg  Mg3  1  0.06281900  0.79028400  0.99307300  1
  Mg  Mg4  1  0.26361400  0.58630200  0.34504300  1
  Mg  Mg5  1  0.94459300  0.33492000  0.67175300  1
  Mg  Mg6  1  0.42706200  0.32952900  0.70745700  1
  Mg  Mg7  1  0.56256400  0.83321100  0.99151700  1
  Si  Si0  1  0.00647500  0.29989900  0.02157600  1
  Si  Si1  1  0.96687100  0.84147800  0.64729800  1
  Si  Si2  1  0.75014500  0.60284300  0.32473200  1
  Si  Si3  1  0.56188400  0.34795500  0.00614400  1
loop_
_geom_bond_atom_site_label_1
_geom_bond_atom_site_label_2
_geom_bond_distance
_geom_bond_site_symmetry_2
Mg0 Si2 2.818110 1_555
Mg0 Si1 2.888157 1_455
Mg0 Mg2 2.925362 1_565
Mg0 Mg5 2.964055 1_555
Mg0 Mg6 2.979508 1_555
Mg0 Mg3 3.003716 1_555
Mg0 Mg1 3.007299 1_565
Mg0 Si1 3.045887 1_555
Mg0 Mg5 3.052295 1_465
Mg0 Mg6 3.066629 1_565
Mg0 Mg7 3.072812 1_555
Mg1 Si0 2.806303 1_555
Mg1 Si2 2.927335 1_455
Mg1 Mg2 2.941283 1_455
Mg1 Mg4 2.955051 1_555
Mg1 Si3 2.964600 1_555
Mg1 Mg2 3.007805 1_555
Mg1 Mg7 3.019498 1_544
Mg1 Mg4 3.038972 1_545
Mg1 Si1 3.066986 1_445
Mg1 Mg5 3.072699 1_455
Mg1 Si2 3.074290 1_545
Mg2 Si0 2.748539 1_655
Mg2 Si1 2.859872 1_545
Mg2 Si2 2.908485 1_545
Mg2 Si3 2.935700 1_555
Mg2 Si2 3.059929 1_555
Mg3 Si3 2.848313 1_556
Mg3 Mg7 2.854848 1_455
Mg3 Si2 2.916803 1_456
Mg3 Si1 2.919627 1_455
Mg3 Si0 2.961517 1_566
Mg3 Si0 3.037606 1_556
Mg3 Mg7 3.094057 1_555
Mg3 Si3 3.190643 1_466
Mg4 Si1 2.799971 1_455
Mg4 Si2 2.881736 1_555
Mg4 Si3 2.994293 1_555
Mg4 Si2 3.059545 1_455
Mg4 Mg7 3.135709 1_554
Mg5 Si3 2.824315 1_556
Mg5 Si0 2.886179 1_656
Mg5 Si1 2.943945 1_545
Mg5 Si1 3.034077 1_555
Mg5 Si2 3.065470 1_555
Mg6 Si3 2.824040 1_556
Mg6 Si0 2.881717 1_556
Mg6 Si1 2.977077 1_455
Mg6 Mg7 3.080947 1_545
Mg6 Si1 3.090174 1_545
Mg7 Si3 2.863673 1_556
Mg7 Si2 2.940082 1_556
Mg7 Si1 2.950421 1_555
Mg7 Si0 2.977775 1_656
Mg7 Si0 3.082811 1_566
Mg7 Si3 3.105932 1_566
Si0 Si3 2.553456 1_455
