# generated using pymatgen
data_BaSmEuWO6
_symmetry_space_group_name_H-M   'P 1'
_cell_length_a   5.97959426
_cell_length_b   6.05614623
_cell_length_c   8.44476698
_cell_angle_alpha   89.87132774
_cell_angle_beta   90.37395630
_cell_angle_gamma   89.81294459
_symmetry_Int_Tables_number   1
_chemical_formula_structural   BaSmEuWO6
_chemical_formula_sum   'Ba2 Sm2 Eu2 W2 O12'
_cell_volume   305.80392745
_cell_formula_units_Z   2
loop_
 _symmetry_equiv_pos_site_id
 _symmetry_equiv_pos_as_xyz
  1  'x, y, z'
loop_
 _atom_site_type_symbol
 _atom_site_label
 _atom_site_symmetry_multiplicity
 _atom_site_fract_x
 _atom_site_fract_y
 _atom_site_fract_z
 _atom_site_occupancy
  Ba  Ba0  1  0.98966506  0.03900226  0.24794801  1
  Ba  Ba1  1  0.01033494  0.96099774  0.75205199  1
  Sm  Sm0  1  0.00000000  0.50000000  0.00000000  1
  Sm  Sm1  1  0.50000000  -0.00000000  0.50000000  1
  Eu  Eu0  1  0.51116517  0.54595401  0.24473645  1
  Eu  Eu1  1  0.48883483  0.45404599  0.75526355  1
  W  W0  1  0.50000000  -0.00000000  0.00000000  1
  W  W1  1  0.00000000  0.50000000  0.50000000  1
  O  O0  1  0.23173275  0.20272140  0.96329666  1
  O  O1  1  0.27534775  0.69124488  0.54478956  1
  O  O2  1  0.76826725  0.79727860  0.03670334  1
  O  O3  1  0.72465225  0.30875512  0.45521044  1
  O  O4  1  0.31400462  0.72004862  0.95464855  1
  O  O5  1  0.19968721  0.23739107  0.54550543  1
  O  O6  1  0.68599538  0.27995138  0.04535145  1
  O  O7  1  0.80031279  0.76260893  0.45449457  1
  O  O8  1  0.43436586  0.97237154  0.22785222  1
  O  O9  1  0.09285481  0.49687045  0.26949827  1
  O  O10  1  0.56563414  0.02762846  0.77214778  1
  O  O11  1  0.90714519  0.50312955  0.73050173  1
loop_
_geom_bond_atom_site_label_1
_geom_bond_atom_site_label_2
_geom_bond_distance
_geom_bond_site_symmetry_2
Ba0 O2 2.659243 1_545
Ba0 O7 2.674185 1_545
Ba0 O8 2.694772 1_645
Ba0 O9 2.848664 1_655
Ba0 O3 2.876746 1_555
Ba0 O6 2.878296 1_555
Ba0 O0 2.983396 1_654
Ba0 O5 3.052390 1_655
Ba1 O0 2.659243 1_565
Ba1 O5 2.674185 1_565
Ba1 O10 2.694772 1_465
Ba1 O11 2.848664 1_455
Ba1 O1 2.876746 1_555
Ba1 O4 2.878296 1_555
Ba1 O2 2.983396 1_456
Ba1 O7 3.052390 1_455
Eu0 O9 2.529847 1_555
Eu0 O6 2.558762 1_555
Eu0 O3 2.607545 1_555
Eu0 O8 2.624881 1_555
Eu0 O2 2.793742 1_555
Eu0 O7 2.798922 1_555
Eu0 O4 2.906075 1_554
Eu0 O1 3.038369 1_555
Eu1 O11 2.529847 1_555
Eu1 O4 2.558762 1_555
Eu1 O1 2.607545 1_555
Eu1 O10 2.624881 1_555
Eu1 O0 2.793742 1_555
Eu1 O5 2.798922 1_555
Eu1 O6 2.906075 1_556
Eu1 O3 3.038369 1_555
O0 W0 2.038508 1_556
O0 Sm0 2.291130 1_556
O1 W1 2.049793 1_555
O1 Sm1 2.337489 1_565
O2 W0 2.038508 1_565
O2 Sm0 2.291130 1_655
O3 W1 2.049793 1_655
O3 Sm1 2.337489 1_555
O4 W0 2.065854 1_566
O4 Sm0 2.339126 1_556
O5 W1 2.020311 1_555
O5 Sm1 2.331079 1_555
O6 W0 2.065854 1_555
O6 Sm0 2.339126 1_655
O7 W1 2.020311 1_655
O7 Sm1 2.331079 1_565
O8 W0 1.973133 1_565
O8 Sm1 2.335432 1_565
O9 W1 2.027768 1_555
O9 Sm0 2.339098 1_555
O10 W0 1.973133 1_556
O10 Sm1 2.335432 1_555
O11 W1 2.027768 1_655
O11 Sm0 2.339098 1_656
