# generated using pymatgen
data_Ba3Cr3N5
_symmetry_space_group_name_H-M   'P 1'
_cell_length_a   5.86144607
_cell_length_b   7.44659365
_cell_length_c   8.84353521
_cell_angle_alpha   106.60882492
_cell_angle_beta   101.90173873
_cell_angle_gamma   95.53658543
_symmetry_Int_Tables_number   1
_chemical_formula_structural   Ba3Cr3N5
_chemical_formula_sum   'Ba6 Cr6 N10'
_cell_volume   356.93748799
_cell_formula_units_Z   2
loop_
 _symmetry_equiv_pos_site_id
 _symmetry_equiv_pos_as_xyz
  1  'x, y, z'
loop_
 _atom_site_type_symbol
 _atom_site_label
 _atom_site_symmetry_multiplicity
 _atom_site_fract_x
 _atom_site_fract_y
 _atom_site_fract_z
 _atom_site_occupancy
  Ba  Ba0  1  0.81371900  0.41995000  0.60959000  1
  Ba  Ba1  1  0.18628100  0.58005000  0.39041000  1
  Ba  Ba2  1  0.65139500  0.86502300  0.88423800  1
  Ba  Ba3  1  0.34860500  0.13497700  0.11576200  1
  Ba  Ba4  1  0.64720600  0.67815900  0.21614500  1
  Ba  Ba5  1  0.35279400  0.32184100  0.78385500  1
  Cr  Cr0  1  0.92050100  0.32286900  0.97547800  1
  Cr  Cr1  1  0.07949900  0.67713100  0.02452200  1
  Cr  Cr2  1  0.68698400  0.97080100  0.57914000  1
  Cr  Cr3  1  0.31301600  0.02919900  0.42086000  1
  Cr  Cr4  1  0.08713800  0.89821200  0.70330700  1
  Cr  Cr5  1  0.91286200  0.10178800  0.29669300  1
  N  N0  1  0.91168600  0.12027100  0.77990800  1
  N  N1  1  0.08831400  0.87972900  0.22009200  1
  N  N2  1  0.82601700  0.75597700  0.53786300  1
  N  N3  1  0.17398300  0.24402300  0.46213700  1
  N  N4  1  0.78419200  0.52754600  0.93479100  1
  N  N5  1  0.21580800  0.47245400  0.06520900  1
  N  N6  1  0.36391800  0.94309000  0.61167000  1
  N  N7  1  0.63608200  0.05691000  0.38833000  1
  N  N8  1  0.13950000  0.78937100  0.86619900  1
  N  N9  1  0.86050000  0.21062900  0.13380100  1
loop_
_geom_bond_atom_site_label_1
_geom_bond_atom_site_label_2
_geom_bond_distance
_geom_bond_site_symmetry_2
Ba0 N2 2.749596 1_555
Ba0 N7 2.795311 1_555
Ba0 N4 2.803149 1_555
Ba0 N3 2.927254 1_655
Ba0 N0 3.064385 1_555
Ba0 N8 3.161329 1_655
Ba1 N3 2.749596 1_555
Ba1 N6 2.795311 1_555
Ba1 N5 2.803149 1_555
Ba1 N2 2.927254 1_455
Ba1 N1 3.064385 1_555
Ba1 N9 3.161329 1_455
Ba2 N0 2.795591 1_565
Ba2 N4 2.827965 1_555
Ba2 N9 2.832849 1_566
Ba2 N6 2.881386 1_555
Ba2 N8 2.961505 1_555
Ba2 N8 2.996001 1_655
Ba3 N1 2.795591 1_545
Ba3 N5 2.827965 1_555
Ba3 N8 2.832849 1_544
Ba3 N7 2.881386 1_555
Ba3 N9 2.961505 1_555
Ba3 N9 2.996001 1_455
Ba4 N5 2.685810 1_555
Ba4 N2 2.690606 1_555
Ba4 N4 2.737891 1_554
Ba4 N7 2.810499 1_565
Ba4 N1 2.850118 1_655
Ba5 N4 2.685810 1_555
Ba5 N3 2.690606 1_555
Ba5 N5 2.737891 1_556
Ba5 N6 2.810499 1_545
Ba5 N0 2.850118 1_455
Cr0 N5 1.850046 1_656
Cr0 N4 1.876367 1_555
Cr0 N9 1.896844 1_556
Cr0 N0 1.930404 1_555
Cr1 N4 1.850046 1_454
Cr1 N5 1.876367 1_555
Cr1 N8 1.896844 1_554
Cr1 N1 1.930404 1_555
Cr2 N2 1.843058 1_555
Cr2 N0 1.936180 1_565
Cr2 N7 1.948186 1_565
Cr2 N6 1.973429 1_555
Cr3 N3 1.843058 1_555
Cr3 N1 1.936180 1_545
Cr3 N6 1.948186 1_545
Cr3 N7 1.973429 1_555
Cr4 N8 1.832854 1_555
Cr4 N2 1.866203 1_455
Cr4 N6 1.998216 1_555
Cr4 N0 2.055717 1_465
Cr5 N9 1.832854 1_555
Cr5 N3 1.866203 1_655
Cr5 N7 1.998216 1_555
Cr5 N1 2.055717 1_645
