# generated using pymatgen
data_BaNa2Mg(PO4)2
_symmetry_space_group_name_H-M   'P 1'
_cell_length_a   5.38384342
_cell_length_b   5.38384342
_cell_length_c   7.06342900
_cell_angle_alpha   90.00000000
_cell_angle_beta   90.00000000
_cell_angle_gamma   119.99999283
_symmetry_Int_Tables_number   1
_chemical_formula_structural   BaNa2Mg(PO4)2
_chemical_formula_sum   'Ba1 Na2 Mg1 P2 O8'
_cell_volume   177.30912554
_cell_formula_units_Z   1
loop_
 _symmetry_equiv_pos_site_id
 _symmetry_equiv_pos_as_xyz
  1  'x, y, z'
loop_
 _atom_site_type_symbol
 _atom_site_label
 _atom_site_symmetry_multiplicity
 _atom_site_fract_x
 _atom_site_fract_y
 _atom_site_fract_z
 _atom_site_occupancy
  Ba  Ba0  1  0.00000000  0.00000000  0.50000000  1
  Na  Na0  1  0.33333300  0.66666700  0.18092200  1
  Na  Na1  1  0.66666700  0.33333300  0.81907800  1
  Mg  Mg0  1  0.00000000  0.00000000  0.00000000  1
  P  P0  1  0.33333300  0.66666700  0.74320700  1
  P  P1  1  0.66666700  0.33333300  0.25679300  1
  O  O0  1  0.33333300  0.66666700  0.52536300  1
  O  O1  1  0.66666700  0.33333300  0.47463700  1
  O  O2  1  0.82293100  0.64586100  0.17868500  1
  O  O3  1  0.82293100  0.17706900  0.17868500  1
  O  O4  1  0.35413900  0.17706900  0.17868500  1
  O  O5  1  0.17706900  0.35413900  0.82131500  1
  O  O6  1  0.17706900  0.82293100  0.82131500  1
  O  O7  1  0.64586100  0.82293100  0.82131500  1
loop_
_geom_bond_atom_site_label_1
_geom_bond_atom_site_label_2
_geom_bond_distance
_geom_bond_site_symmetry_2
Ba0 O6 2.806676 1_545
Ba0 O3 2.806676 1_455
Ba0 O5 2.806679 1_555
Ba0 O7 2.806679 1_445
Ba0 O2 2.806679 1_445
Ba0 O4 2.806679 1_555
Ba0 O1 3.113519 1_455
Ba0 O0 3.113519 1_545
Ba0 O0 3.113524 1_445
Ba0 O1 3.113524 1_445
Ba0 O1 3.113524 1_555
Ba0 O0 3.113524 1_555
Na0 O0 2.432935 1_555
Na0 O4 2.693710 1_565
Na0 O2 2.693710 1_455
Na0 O3 2.693715 1_565
Na0 O3 2.693715 1_455
Na0 O4 2.693721 1_555
Na0 O2 2.693721 1_555
Na0 O6 2.928354 1_554
Na0 O5 2.928354 1_554
Na0 O7 2.928354 1_554
Na1 O1 2.432935 1_555
Na1 O5 2.693710 1_655
Na1 O7 2.693710 1_545
Na1 O6 2.693715 1_655
Na1 O6 2.693715 1_545
Na1 O7 2.693721 1_555
Na1 O5 2.693721 1_555
Na1 O3 2.928354 1_556
Na1 O2 2.928354 1_556
Na1 O4 2.928354 1_556
Mg0 O3 2.078312 1_455
Mg0 O6 2.078312 1_544
Mg0 O2 2.078315 1_445
Mg0 O4 2.078315 1_555
Mg0 O5 2.078315 1_554
Mg0 O7 2.078315 1_444
O0 P0 1.538726 1_555
O1 P1 1.538726 1_555
O2 P1 1.558123 1_555
O3 P1 1.558123 1_555
O4 P1 1.558123 1_555
O5 P0 1.558123 1_555
O6 P0 1.558123 1_555
O7 P0 1.558123 1_555
