# generated using pymatgen
data_Ba6Na2Ta2V2O17
_symmetry_space_group_name_H-M   'P 1'
_cell_length_a   6.00097269
_cell_length_b   6.00097269
_cell_length_c   30.44647800
_cell_angle_alpha   90.00000000
_cell_angle_beta   90.00000000
_cell_angle_gamma   120.00000764
_symmetry_Int_Tables_number   1
_chemical_formula_structural   Ba6Na2Ta2V2O17
_chemical_formula_sum   'Ba12 Na4 Ta4 V4 O34'
_cell_volume   949.53496335
_cell_formula_units_Z   2
loop_
 _symmetry_equiv_pos_site_id
 _symmetry_equiv_pos_as_xyz
  1  'x, y, z'
loop_
 _atom_site_type_symbol
 _atom_site_label
 _atom_site_symmetry_multiplicity
 _atom_site_fract_x
 _atom_site_fract_y
 _atom_site_fract_z
 _atom_site_occupancy
  Ba  Ba0  1  0.33333300  0.66666700  0.18025100  1
  Ba  Ba1  1  0.66666700  0.33333300  0.81974900  1
  Ba  Ba2  1  0.66666700  0.33333300  0.68025100  1
  Ba  Ba3  1  0.33333300  0.66666700  0.31974900  1
  Ba  Ba4  1  0.00000000  0.00000000  0.00000000  1
  Ba  Ba5  1  0.00000000  0.00000000  0.50000000  1
  Ba  Ba6  1  0.33333300  0.66666700  0.59067100  1
  Ba  Ba7  1  0.66666700  0.33333300  0.40932900  1
  Ba  Ba8  1  0.66666700  0.33333300  0.09067100  1
  Ba  Ba9  1  0.33333300  0.66666700  0.90932900  1
  Ba  Ba10  1  0.00000000  0.00000000  0.25000000  1
  Ba  Ba11  1  0.00000000  0.00000000  0.75000000  1
  Na  Na0  1  0.00000000  0.00000000  0.12467700  1
  Na  Na1  1  0.00000000  0.00000000  0.87532300  1
  Na  Na2  1  0.00000000  0.00000000  0.62467700  1
  Na  Na3  1  0.00000000  0.00000000  0.37532300  1
  Ta  Ta0  1  0.33333300  0.66666700  0.70166000  1
  Ta  Ta1  1  0.66666700  0.33333300  0.29834000  1
  Ta  Ta2  1  0.66666700  0.33333300  0.20166000  1
  Ta  Ta3  1  0.33333300  0.66666700  0.79834000  1
  V  V0  1  0.33333300  0.66666700  0.05216200  1
  V  V1  1  0.66666700  0.33333300  0.94783800  1
  V  V2  1  0.66666700  0.33333300  0.55216200  1
  V  V3  1  0.33333300  0.66666700  0.44783800  1
  O  O0  1  0.33333300  0.66666700  0.50448800  1
  O  O1  1  0.66666700  0.33333300  0.49551200  1
  O  O2  1  0.66666700  0.33333300  0.00448800  1
  O  O3  1  0.33333300  0.66666700  0.99551200  1
  O  O4  1  0.17559400  0.35118700  0.66984400  1
  O  O5  1  0.82440600  0.64881300  0.33015600  1
  O  O6  1  0.64881300  0.82440600  0.66984400  1
  O  O7  1  0.82440600  0.64881300  0.16984400  1
  O  O8  1  0.35118700  0.17559400  0.33015600  1
  O  O9  1  0.17559400  0.35118700  0.83015600  1
  O  O10  1  0.17559400  0.82440600  0.66984400  1
  O  O11  1  0.35118700  0.17559400  0.16984400  1
  O  O12  1  0.82440600  0.17559400  0.33015600  1
  O  O13  1  0.64881300  0.82440600  0.83015600  1
  O  O14  1  0.82440600  0.17559400  0.16984400  1
  O  O15  1  0.17559400  0.82440600  0.83015600  1
  O  O16  1  0.51643700  0.03287400  0.25000000  1
  O  O17  1  0.48356300  0.96712600  0.75000000  1
  O  O18  1  0.96712600  0.48356300  0.25000000  1
  O  O19  1  0.03287400  0.51643700  0.75000000  1
  O  O20  1  0.51643700  0.48356300  0.25000000  1
  O  O21  1  0.48356300  0.51643700  0.75000000  1
  O  O22  1  0.17587400  0.35174900  0.07242300  1
  O  O23  1  0.82412600  0.64825100  0.92757700  1
  O  O24  1  0.64825100  0.82412600  0.07242300  1
  O  O25  1  0.82412600  0.64825100  0.57242300  1
  O  O26  1  0.35174900  0.17587400  0.92757700  1
  O  O27  1  0.17587400  0.35174900  0.42757700  1
  O  O28  1  0.17587400  0.82412600  0.07242300  1
  O  O29  1  0.35174900  0.17587400  0.57242300  1
  O  O30  1  0.82412600  0.17587400  0.92757700  1
  O  O31  1  0.64825100  0.82412600  0.42757700  1
  O  O32  1  0.82412600  0.17587400  0.57242300  1
  O  O33  1  0.17587400  0.82412600  0.42757700  1
loop_
_geom_bond_atom_site_label_1
_geom_bond_atom_site_label_2
_geom_bond_distance
_geom_bond_site_symmetry_2
Ba0 O18 2.851632 1_455
Ba0 O16 2.851632 1_565
Ba0 O20 2.851635 1_555
Ba0 O14 3.018596 1_455
Ba0 O14 3.018596 1_565
Ba0 O11 3.018597 1_565
Ba0 O7 3.018597 1_455
Ba0 O7 3.018597 1_555
Ba0 O11 3.018597 1_555
Ba1 O17 2.851632 1_545
Ba1 O19 2.851632 1_655
Ba1 O21 2.851635 1_555
Ba1 O15 3.018596 1_655
Ba1 O15 3.018596 1_545
Ba1 O13 3.018597 1_545
Ba1 O9 3.018597 1_655
Ba1 O13 3.018597 1_555
Ba1 O9 3.018597 1_555
Ba2 O17 2.851632 1_545
Ba2 O19 2.851632 1_655
Ba2 O21 2.851635 1_555
Ba2 O10 3.018596 1_655
Ba2 O10 3.018596 1_545
Ba2 O4 3.018597 1_655
Ba2 O6 3.018597 1_545
Ba2 O6 3.018597 1_555
Ba2 O4 3.018597 1_555
Ba3 O18 2.851632 1_455
Ba3 O16 2.851632 1_565
Ba3 O20 2.851635 1_555
Ba3 O12 3.018596 1_565
Ba3 O12 3.018596 1_455
Ba3 O5 3.018597 1_455
Ba3 O8 3.018597 1_565
Ba3 O8 3.018597 1_555
Ba3 O5 3.018597 1_555
Ba4 O28 2.864235 1_545
Ba4 O30 2.864235 1_454
Ba4 O24 2.864238 1_445
Ba4 O22 2.864238 1_555
Ba4 O23 2.864238 1_444
Ba4 O26 2.864238 1_554
Ba5 O33 2.864235 1_545
Ba5 O32 2.864235 1_455
Ba5 O31 2.864238 1_445
Ba5 O25 2.864238 1_445
Ba5 O27 2.864238 1_555
Ba5 O29 2.864238 1_555
Ba6 O0 2.623969 1_555
Ba6 O10 2.915267 1_555
Ba6 O6 2.915273 1_555
Ba6 O4 2.915273 1_555
Ba6 O25 3.052985 1_455
Ba6 O29 3.052985 1_565
Ba6 O32 3.052991 1_455
Ba6 O32 3.052991 1_565
Ba6 O29 3.052997 1_555
Ba6 O25 3.052997 1_555
Ba7 O1 2.623969 1_555
Ba7 O12 2.915267 1_555
Ba7 O8 2.915273 1_555
Ba7 O5 2.915273 1_555
Ba7 O31 3.052985 1_545
Ba7 O27 3.052985 1_655
Ba7 O33 3.052991 1_545
Ba7 O33 3.052991 1_655
Ba7 O31 3.052997 1_555
Ba7 O27 3.052997 1_555
Ba8 O2 2.623969 1_555
Ba8 O14 2.915267 1_555
Ba8 O7 2.915273 1_555
Ba8 O11 2.915273 1_555
Ba8 O24 3.052985 1_545
Ba8 O22 3.052985 1_655
Ba8 O28 3.052991 1_655
Ba8 O28 3.052991 1_545
Ba8 O22 3.052997 1_555
Ba8 O24 3.052997 1_555
Ba9 O3 2.623969 1_555
Ba9 O15 2.915267 1_555
Ba9 O9 2.915273 1_555
Ba9 O13 2.915273 1_555
Ba9 O23 3.052985 1_455
Ba9 O26 3.052985 1_565
Ba9 O30 3.052991 1_455
Ba9 O30 3.052991 1_565
Ba9 O23 3.052997 1_555
Ba9 O26 3.052997 1_555
Ba10 O20 3.005346 1_445
Ba10 O20 3.005346 1_555
Ba10 O18 3.005346 1_445
Ba10 O16 3.005346 1_555
Ba10 O16 3.005346 1_455
Ba10 O18 3.005346 1_455
Ba10 O5 3.047447 1_445
Ba10 O11 3.047447 1_555
Ba10 O7 3.047447 1_445
Ba10 O8 3.047447 1_555
Ba10 O14 3.047451 1_455
Ba10 O12 3.047451 1_455
Ba11 O21 3.005346 1_555
Ba11 O21 3.005346 1_445
Ba11 O17 3.005346 1_445
Ba11 O19 3.005346 1_555
Ba11 O19 3.005346 1_545
Ba11 O17 3.005346 1_545
Ba11 O9 3.047447 1_555
Ba11 O6 3.047447 1_445
Ba11 O13 3.047447 1_445
Ba11 O4 3.047447 1_555
Ba11 O15 3.047451 1_545
Ba11 O10 3.047451 1_545
Na0 O7 2.285205 1_445
Na0 O11 2.285205 1_555
Na0 O14 2.285209 1_455
Na0 O28 2.423391 1_545
Na0 O22 2.423395 1_555
Na0 O24 2.423395 1_445
Na1 O13 2.285205 1_445
Na1 O9 2.285205 1_555
Na1 O15 2.285209 1_545
Na1 O30 2.423391 1_455
Na1 O23 2.423395 1_445
Na1 O26 2.423395 1_555
Na2 O4 2.285205 1_555
Na2 O6 2.285205 1_445
Na2 O10 2.285209 1_545
Na2 O32 2.423391 1_455
Na2 O29 2.423395 1_555
Na2 O25 2.423395 1_445
Na3 O8 2.285205 1_555
Na3 O5 2.285205 1_445
Na3 O12 2.285209 1_455
Na3 O33 2.423391 1_545
Na3 O27 2.423395 1_555
Na3 O31 2.423395 1_445
O0 V3 1.724793 1_555
O1 V2 1.724793 1_555
O2 V1 1.724793 1_554
O3 V0 1.724793 1_556
O4 Ta0 1.904329 1_555
O5 Ta1 1.904329 1_555
O6 Ta0 1.904329 1_555
O7 Ta2 1.904329 1_555
O8 Ta1 1.904329 1_555
O9 Ta3 1.904329 1_555
O10 Ta0 1.904320 1_555
O11 Ta2 1.904329 1_555
O12 Ta1 1.904320 1_555
O13 Ta3 1.904329 1_555
O14 Ta2 1.904320 1_555
O15 Ta3 1.904320 1_555
O16 Ta1 2.145781 1_555
O16 Ta2 2.145781 1_555
O17 Ta0 2.145781 1_555
O17 Ta3 2.145781 1_555
O18 Ta2 2.145781 1_555
O18 Ta1 2.145781 1_555
O19 Ta0 2.145781 1_555
O19 Ta3 2.145781 1_555
O20 Ta2 2.145785 1_555
O20 Ta1 2.145785 1_555
O21 Ta0 2.145785 1_555
O21 Ta3 2.145785 1_555
O22 V0 1.749024 1_555
O23 V1 1.749024 1_555
O24 V0 1.749024 1_555
O25 V2 1.749024 1_555
O26 V1 1.749024 1_555
O27 V3 1.749024 1_555
O28 V0 1.749024 1_555
O29 V2 1.749024 1_555
O30 V1 1.749024 1_555
O31 V3 1.749024 1_555
O32 V2 1.749024 1_555
O33 V3 1.749024 1_555
