# generated using pymatgen
data_Dy4(FeB2)3
_symmetry_space_group_name_H-M   'P 1'
_cell_length_a   5.32674929
_cell_length_b   5.32674900
_cell_length_c   7.90712036
_cell_angle_alpha   70.31599101
_cell_angle_beta   70.31599192
_cell_angle_gamma   59.99999559
_symmetry_Int_Tables_number   1
_chemical_formula_structural   Dy4(FeB2)3
_chemical_formula_sum   'Dy4 Fe3 B6'
_cell_volume   179.00163425
_cell_formula_units_Z   1
loop_
 _symmetry_equiv_pos_site_id
 _symmetry_equiv_pos_as_xyz
  1  'x, y, z'
loop_
 _atom_site_type_symbol
 _atom_site_label
 _atom_site_symmetry_multiplicity
 _atom_site_fract_x
 _atom_site_fract_y
 _atom_site_fract_z
 _atom_site_occupancy
  Dy  Dy0  1  0.74402700  0.74402700  0.76791800  1
  Dy  Dy1  1  0.25597300  0.25597300  0.23208200  1
  Dy  Dy2  1  0.58834200  0.58834200  0.23497400  1
  Dy  Dy3  1  0.41165800  0.41165800  0.76502600  1
  Fe  Fe0  1  0.00000000  0.00000000  0.00000000  1
  Fe  Fe1  1  0.88710200  0.88710200  0.33869300  1
  Fe  Fe2  1  0.11289800  0.11289800  0.66130700  1
  B  B0  1  0.50000000  0.16760200  0.50000000  1
  B  B1  1  0.83239800  0.50000000  0.50000000  1
  B  B2  1  0.16760200  0.83239800  0.50000000  1
  B  B3  1  0.16760200  0.50000000  0.50000000  1
  B  B4  1  0.83239800  0.16760200  0.50000000  1
  B  B5  1  0.50000000  0.83239800  0.50000000  1
loop_
_geom_bond_atom_site_label_1
_geom_bond_atom_site_label_2
_geom_bond_distance
_geom_bond_site_symmetry_2
Dy0 Fe0 3.509449 1_656
Dy0 Fe0 3.509450 1_566
Dy0 Fe0 3.509454 1_666
Dy1 Fe0 3.509449 1_565
Dy1 Fe0 3.509450 1_655
Dy1 Fe0 3.509454 1_555
Dy2 Fe0 3.519648 1_655
Dy2 Fe0 3.519648 1_565
Dy2 Fe0 3.519648 1_665
Dy3 Fe0 3.519648 1_566
Dy3 Fe0 3.519648 1_656
Dy3 Fe0 3.519648 1_556
Fe0 Fe1 2.467221 1_445
Fe0 Fe2 2.467221 1_554
B0 B3 1.770601 1_555
B0 B4 1.770601 1_555
B0 B5 1.785548 1_545
B0 Fe2 2.131265 1_555
B0 Fe1 2.131267 1_545
B0 Dy2 2.619582 1_555
B0 Dy3 2.619582 1_555
B0 Dy1 2.640176 1_555
B0 Dy0 2.640177 1_545
B1 B5 1.770601 1_555
B1 B4 1.770601 1_555
B1 B3 1.785548 1_655
B1 Fe1 2.131265 1_555
B1 Fe2 2.131267 1_655
B1 Dy3 2.619582 1_555
B1 Dy2 2.619582 1_555
B1 Dy0 2.640176 1_555
B1 Dy1 2.640177 1_655
B2 B3 1.770601 1_555
B2 B5 1.770601 1_555
B2 B4 1.785548 1_465
B2 Fe2 2.131270 1_565
B2 Fe1 2.131270 1_455
B2 Dy3 2.619582 1_555
B2 Dy2 2.619582 1_555
B2 Dy1 2.640179 1_565
B2 Dy0 2.640179 1_455
B3 Fe2 2.131265 1_555
B3 Fe1 2.131267 1_455
B3 Dy2 2.619582 1_555
B3 Dy3 2.619582 1_555
B3 Dy1 2.640176 1_555
B3 Dy0 2.640177 1_455
B4 Fe1 2.131270 1_545
B4 Fe2 2.131270 1_655
B4 Dy2 2.619582 1_555
B4 Dy3 2.619582 1_555
B4 Dy0 2.640179 1_545
B4 Dy1 2.640179 1_655
B5 Fe1 2.131265 1_555
B5 Fe2 2.131267 1_565
B5 Dy3 2.619582 1_555
B5 Dy2 2.619582 1_555
B5 Dy0 2.640176 1_555
B5 Dy1 2.640177 1_565
