# generated using pymatgen
data_TiCrO4
_symmetry_space_group_name_H-M   'P 1'
_cell_length_a   3.74315584
_cell_length_b   14.20874601
_cell_length_c   5.53397819
_cell_angle_alpha   91.90663031
_cell_angle_beta   109.79456573
_cell_angle_gamma   82.39747854
_symmetry_Int_Tables_number   1
_chemical_formula_structural   TiCrO4
_chemical_formula_sum   'Ti4 Cr4 O16'
_cell_volume   274.48136848
_cell_formula_units_Z   4
loop_
 _symmetry_equiv_pos_site_id
 _symmetry_equiv_pos_as_xyz
  1  'x, y, z'
loop_
 _atom_site_type_symbol
 _atom_site_label
 _atom_site_symmetry_multiplicity
 _atom_site_fract_x
 _atom_site_fract_y
 _atom_site_fract_z
 _atom_site_occupancy
  Ti  Ti0  1  0.25053000  0.06175800  0.56241600  1
  Ti  Ti1  1  0.24899300  0.31220600  0.80989700  1
  Ti  Ti2  1  0.25045400  0.56181500  0.06234000  1
  Ti  Ti3  1  0.24896500  0.81217100  0.30978600  1
  Cr  Cr0  1  0.00082200  0.50272300  0.50490300  1
  Cr  Cr1  1  0.99955100  0.75211300  0.75408900  1
  Cr  Cr2  1  0.00080800  0.00278300  0.00485400  1
  Cr  Cr3  1  0.99978200  0.25209400  0.25419900  1
  O  O0  1  0.03922600  0.11459100  0.19094400  1
  O  O1  1  0.03980400  0.36426800  0.44162600  1
  O  O2  1  0.03930800  0.61455800  0.69106500  1
  O  O3  1  0.03976900  0.86425600  0.94146600  1
  O  O4  1  0.46179000  0.00692200  0.92955100  1
  O  O5  1  0.46093700  0.25623100  0.17757300  1
  O  O6  1  0.46182900  0.50691300  0.42968900  1
  O  O7  1  0.46083800  0.75618800  0.67741600  1
  O  O8  1  0.20237500  0.94963600  0.35535700  1
  O  O9  1  0.20189000  0.19920900  0.60488100  1
  O  O10  1  0.20241900  0.44963700  0.85556500  1
  O  O11  1  0.20179500  0.69923100  0.10484200  1
  O  O12  1  0.79674300  0.80286800  0.39669300  1
  O  O13  1  0.79727200  0.05249500  0.64698400  1
  O  O14  1  0.79680600  0.30281200  0.89672300  1
  O  O15  1  0.79729400  0.55252200  0.14714100  1
loop_
_geom_bond_atom_site_label_1
_geom_bond_atom_site_label_2
_geom_bond_distance
_geom_bond_site_symmetry_2
Cr0 O2 1.859637 1_555
Cr0 O6 1.910062 1_455
Cr0 O6 1.915690 1_555
Cr0 O10 1.964465 1_555
Cr0 O1 1.981637 1_555
Cr0 O15 1.982388 1_455
Cr1 O3 1.866726 1_655
Cr1 O7 1.908100 1_555
Cr1 O7 1.920697 1_655
Cr1 O11 1.963843 1_656
Cr1 O2 1.968916 1_655
Cr1 O12 1.985265 1_555
Cr2 O0 1.859113 1_555
Cr2 O4 1.910159 1_454
Cr2 O4 1.915743 1_554
Cr2 O8 1.964017 1_545
Cr2 O13 1.982495 1_454
Cr2 O3 1.982740 1_544
Cr3 O1 1.867233 1_655
Cr3 O5 1.908529 1_555
Cr3 O5 1.920215 1_655
Cr3 O9 1.963517 1_655
Cr3 O0 1.968407 1_655
Cr3 O14 1.985471 1_554
O0 Ti0 2.063838 1_555
O1 Ti1 2.044508 1_555
O2 Ti2 2.062439 1_556
O3 Ti3 2.044859 1_556
O4 Ti0 2.052904 1_555
O5 Ti1 2.061411 1_554
O6 Ti2 2.054276 1_555
O7 Ti3 2.061232 1_555
O8 Ti0 1.923049 1_565
O8 Ti3 1.953434 1_555
O9 Ti1 1.927248 1_555
O9 Ti0 1.951143 1_555
O10 Ti2 1.922859 1_556
O10 Ti1 1.953026 1_555
O11 Ti3 1.926368 1_555
O11 Ti2 1.950678 1_555
O12 Ti3 1.928109 1_555
O12 Ti3 1.931053 1_655
O13 Ti0 1.925825 1_555
O13 Ti0 1.927645 1_655
O14 Ti1 1.928203 1_555
O14 Ti1 1.930930 1_655
O15 Ti2 1.926006 1_555
O15 Ti2 1.928071 1_655
