# generated using pymatgen
data_Cd4Se4O15
_symmetry_space_group_name_H-M   'P 1'
_cell_length_a   8.73282600
_cell_length_b   9.69349700
_cell_length_c   10.26210508
_cell_angle_alpha   61.26699739
_cell_angle_beta   90.00000000
_cell_angle_gamma   90.00000000
_symmetry_Int_Tables_number   1
_chemical_formula_structural   Cd4Se4O15
_chemical_formula_sum   'Cd8 Se8 O30'
_cell_volume   761.73982720
_cell_formula_units_Z   2
loop_
 _symmetry_equiv_pos_site_id
 _symmetry_equiv_pos_as_xyz
  1  'x, y, z'
loop_
 _atom_site_type_symbol
 _atom_site_label
 _atom_site_symmetry_multiplicity
 _atom_site_fract_x
 _atom_site_fract_y
 _atom_site_fract_z
 _atom_site_occupancy
  Cd  Cd0  1  0.17181700  0.32215700  0.98317900  1
  Cd  Cd1  1  0.67181700  0.67784300  0.01682100  1
  Cd  Cd2  1  0.18298900  0.04740500  0.65716500  1
  Cd  Cd3  1  0.68298900  0.95259500  0.34283500  1
  Cd  Cd4  1  0.75908400  0.31919800  0.98950600  1
  Cd  Cd5  1  0.25908400  0.68080200  0.01049400  1
  Cd  Cd6  1  0.25676600  0.97504600  0.34420600  1
  Cd  Cd7  1  0.75676600  0.02495400  0.65579400  1
  Se  Se0  1  0.95114400  0.37888200  0.64909500  1
  Se  Se1  1  0.45114400  0.62111800  0.35090500  1
  Se  Se2  1  0.96669300  0.25118300  0.32403300  1
  Se  Se3  1  0.46669300  0.74881700  0.67596700  1
  Se  Se4  1  0.97071200  0.67616000  0.76671400  1
  Se  Se5  1  0.47071200  0.32384000  0.23328600  1
  Se  Se6  1  0.33963900  0.04163300  0.98422700  1
  Se  Se7  1  0.83963900  0.95836700  0.01577300  1
  O  O0  1  0.95957900  0.32097200  0.83364100  1
  O  O1  1  0.45957900  0.67902800  0.16635900  1
  O  O2  1  0.95316200  0.20887000  0.63640400  1
  O  O3  1  0.45316200  0.79113000  0.36359600  1
  O  O4  1  0.72135000  0.44030700  0.62858500  1
  O  O5  1  0.22135000  0.55969300  0.37141500  1
  O  O6  1  0.97515500  0.25485400  0.15494800  1
  O  O7  1  0.47515500  0.74514600  0.84505200  1
  O  O8  1  0.13524000  0.14746800  0.40688400  1
  O  O9  1  0.63524000  0.85253200  0.59311600  1
  O  O10  1  0.82474700  0.10972000  0.41203200  1
  O  O11  1  0.32474700  0.89028000  0.58796800  1
  O  O12  1  0.97748400  0.86317400  0.74771800  1
  O  O13  1  0.47748400  0.13682600  0.25228200  1
  O  O14  1  0.13876200  0.59514200  0.86647700  1
  O  O15  1  0.63876200  0.40485800  0.13352300  1
  O  O16  1  0.83193600  0.58692200  0.90102000  1
  O  O17  1  0.33193600  0.41307800  0.09898000  1
  O  O18  1  0.20186600  0.03915000  0.11061900  1
  O  O19  1  0.70186600  0.96085000  0.88938100  1
  O  O20  1  0.32553700  0.23599000  0.85931700  1
  O  O21  1  0.82553700  0.76401000  0.14068300  1
  O  O22  1  0.23356000  0.95068800  0.89852900  1
  O  O23  1  0.73356000  0.04931200  0.10147100  1
  O  O24  1  0.41221400  0.24801300  0.58480900  1
  O  O25  1  0.91221400  0.75198700  0.41519100  1
  O  O26  1  0.05384200  0.77037400  0.43815500  1
  O  O27  1  0.55384200  0.22962600  0.56184500  1
  O  O28  1  0.64565600  0.39836500  0.75512500  1
  O  O29  1  0.14565600  0.60163500  0.24487500  1
loop_
_geom_bond_atom_site_label_1
_geom_bond_atom_site_label_2
_geom_bond_distance
_geom_bond_site_symmetry_2
Cd0 O20 2.266307 1_555
Cd0 O17 2.269620 1_556
Cd0 O6 2.318754 1_456
Cd0 O14 2.339426 1_555
Cd0 O0 2.409819 1_455
Cd0 O18 2.419835 1_556
Cd1 O21 2.266307 1_555
Cd1 O16 2.269620 1_554
Cd1 O7 2.318754 1_554
Cd1 O15 2.339426 1_555
Cd1 O1 2.409819 1_555
Cd1 O19 2.419835 1_554
Cd2 O22 2.230780 1_545
Cd2 O8 2.305687 1_555
Cd2 O11 2.323025 1_545
Cd2 O12 2.382843 1_445
Cd2 O2 2.490525 1_455
Cd2 O24 2.636600 1_555
Cd3 O23 2.230780 1_565
Cd3 O9 2.305687 1_555
Cd3 O10 2.323025 1_565
Cd3 O13 2.382843 1_565
Cd3 O3 2.490525 1_555
Cd3 O25 2.636600 1_555
Cd4 O15 2.271051 1_556
Cd4 O23 2.307376 1_556
Cd4 O28 2.362336 1_555
Cd4 O0 2.365982 1_555
Cd4 O16 2.387164 1_555
Cd4 O6 2.411182 1_556
Cd5 O14 2.271051 1_554
Cd5 O22 2.307376 1_554
Cd5 O29 2.362336 1_555
Cd5 O1 2.365982 1_555
Cd5 O17 2.387164 1_555
Cd5 O7 2.411182 1_554
Cd6 O18 2.220342 1_565
Cd6 O11 2.304113 1_555
Cd6 O8 2.316698 1_565
Cd6 O13 2.375304 1_565
Cd6 O3 2.412136 1_555
Cd6 O26 2.483343 1_555
Cd7 O19 2.220342 1_545
Cd7 O10 2.304113 1_555
Cd7 O9 2.316698 1_545
Cd7 O12 2.375304 1_545
Cd7 O2 2.412136 1_555
Cd7 O27 2.483343 1_555
O0 Se0 1.698531 1_555
O1 Se1 1.698531 1_555
O2 Se0 1.714517 1_555
O3 Se1 1.714517 1_555
O4 Se0 2.074943 1_555
O5 Se1 2.074943 1_555
O6 Se2 1.719933 1_555
O7 Se3 1.719933 1_555
O8 Se2 1.754497 1_455
O9 Se3 1.754497 1_555
O10 Se2 1.744096 1_555
O11 Se3 1.744096 1_555
O12 Se4 1.728596 1_555
O13 Se5 1.728596 1_555
O14 Se4 1.745155 1_455
O15 Se5 1.745155 1_555
O16 Se4 1.723460 1_555
O17 Se5 1.723460 1_555
O18 Se6 1.760813 1_554
O19 Se7 1.760813 1_556
O20 Se6 1.698772 1_555
O21 Se7 1.698772 1_555
O22 Se6 1.775997 1_565
O23 Se7 1.775997 1_545
O24 O27 1.287397 1_555
O25 O26 1.287397 1_655
O28 O4 1.334511 1_555
O29 O5 1.334511 1_555
