# generated using pymatgen
data_Zr4Ti(PbO3)5
_symmetry_space_group_name_H-M   'P 1'
_cell_length_a   4.23571895
_cell_length_b   4.23571895
_cell_length_c   20.78339928
_cell_angle_alpha   89.35406756
_cell_angle_beta   89.35406756
_cell_angle_gamma   88.93399549
_symmetry_Int_Tables_number   1
_chemical_formula_structural   Zr4Ti(PbO3)5
_chemical_formula_sum   'Zr4 Ti1 Pb5 O15'
_cell_volume   372.77045990
_cell_formula_units_Z   1
loop_
 _symmetry_equiv_pos_site_id
 _symmetry_equiv_pos_as_xyz
  1  'x, y, z'
loop_
 _atom_site_type_symbol
 _atom_site_label
 _atom_site_symmetry_multiplicity
 _atom_site_fract_x
 _atom_site_fract_y
 _atom_site_fract_z
 _atom_site_occupancy
  Zr  Zr0  1  0.47122800  0.47122800  0.89050900  1
  Zr  Zr1  1  0.46988900  0.46988900  0.49808700  1
  Zr  Zr2  1  0.47257800  0.47257800  0.29510300  1
  Zr  Zr3  1  0.47288700  0.47288700  0.09321400  1
  Ti  Ti0  1  0.49421500  0.49421500  0.69401200  1
  Pb  Pb0  1  0.02546200  0.02546200  0.00180300  1
  Pb  Pb1  1  0.02871100  0.02871100  0.79687300  1
  Pb  Pb2  1  0.02470500  0.02470500  0.60954000  1
  Pb  Pb3  1  0.02557300  0.02557300  0.40542600  1
  Pb  Pb4  1  0.02537800  0.02537800  0.20364900  1
  O  O0  1  0.95604500  0.42025800  0.88318600  1
  O  O1  1  0.93254600  0.42567900  0.68947800  1
  O  O2  1  0.95497900  0.42005700  0.48958500  1
  O  O3  1  0.95666400  0.42004400  0.28754800  1
  O  O4  1  0.95707600  0.42021500  0.08617900  1
  O  O5  1  0.42851400  0.42851400  0.98901200  1
  O  O6  1  0.42603400  0.42603400  0.78338900  1
  O  O7  1  0.42228000  0.42228000  0.59813000  1
  O  O8  1  0.42743000  0.42743000  0.39362200  1
  O  O9  1  0.42663000  0.42663000  0.19140700  1
  O  O10  1  0.42025800  0.95604500  0.88318600  1
  O  O11  1  0.42567900  0.93254600  0.68947800  1
  O  O12  1  0.42005700  0.95497900  0.48958500  1
  O  O13  1  0.42004400  0.95666400  0.28754800  1
  O  O14  1  0.42021500  0.95707600  0.08617900  1
loop_
_geom_bond_atom_site_label_1
_geom_bond_atom_site_label_2
_geom_bond_distance
_geom_bond_site_symmetry_2
O0 Zr0 2.064954 1_555
O0 Zr0 2.203951 1_655
O0 Pb1 2.469602 1_655
O1 Ti0 1.875342 1_555
O1 Ti0 2.405100 1_655
O1 Pb2 2.412781 1_655
O1 Pb1 2.808120 1_655
O2 Zr1 2.067391 1_555
O2 Zr1 2.204372 1_655
O2 Pb3 2.444646 1_655
O3 Zr2 2.062784 1_555
O3 Zr2 2.208207 1_655
O3 Pb4 2.440484 1_655
O4 Zr3 2.062582 1_555
O4 Zr3 2.206969 1_655
O4 Pb0 2.447758 1_655
O5 Zr0 2.059398 1_555
O5 Zr3 2.186425 1_556
O5 Pb0 2.447002 1_556
O6 Ti0 1.896375 1_555
O6 Zr0 2.247301 1_555
O6 Pb1 2.413977 1_555
O7 Ti0 2.046358 1_555
O7 Zr1 2.094553 1_555
O7 Pb2 2.411548 1_555
O8 Zr2 2.061394 1_555
O8 Zr1 2.190283 1_555
O8 Pb3 2.437993 1_555
O9 Zr3 2.055475 1_555
O9 Zr2 2.177332 1_555
O9 Pb4 2.435145 1_555
O10 Zr0 2.064954 1_555
O10 Zr0 2.203951 1_565
O10 Pb1 2.469602 1_565
O11 Ti0 1.875342 1_555
O11 Ti0 2.405100 1_565
O11 Pb2 2.412781 1_565
O11 Pb1 2.808120 1_565
O12 Zr1 2.067391 1_555
O12 Zr1 2.204372 1_565
O12 Pb3 2.444646 1_565
O13 Zr2 2.062784 1_555
O13 Zr2 2.208207 1_565
O13 Pb4 2.440484 1_565
O14 Zr3 2.062582 1_555
O14 Zr3 2.206969 1_565
O14 Pb0 2.447758 1_565
