# generated using pymatgen
data_Ca2SbWO6
_symmetry_space_group_name_H-M   'P 1'
_cell_length_a   5.91166500
_cell_length_b   5.63869100
_cell_length_c   9.91406910
_cell_angle_alpha   55.87953949
_cell_angle_beta   90.00000000
_cell_angle_gamma   90.00000000
_symmetry_Int_Tables_number   1
_chemical_formula_structural   Ca2SbWO6
_chemical_formula_sum   'Ca4 Sb2 W2 O12'
_cell_volume   273.58796699
_cell_formula_units_Z   2
loop_
 _symmetry_equiv_pos_site_id
 _symmetry_equiv_pos_as_xyz
  1  'x, y, z'
loop_
 _atom_site_type_symbol
 _atom_site_label
 _atom_site_symmetry_multiplicity
 _atom_site_fract_x
 _atom_site_fract_y
 _atom_site_fract_z
 _atom_site_occupancy
  Ca  Ca0  1  0.44253400  0.26138800  0.75126700  1
  Ca  Ca1  1  0.94253400  0.73861200  0.74873300  1
  Ca  Ca2  1  0.55746600  0.73861200  0.24873300  1
  Ca  Ca3  1  0.05746600  0.26138800  0.25126700  1
  Sb  Sb0  1  0.50000000  0.00000000  0.50000000  1
  Sb  Sb1  1  0.00000000  0.00000000  0.00000000  1
  W  W0  1  0.50000000  0.50000000  0.00000000  1
  W  W1  1  0.00000000  0.50000000  0.50000000  1
  O  O0  1  0.20930800  0.39524000  0.92997200  1
  O  O1  1  0.70930800  0.60476000  0.57002800  1
  O  O2  1  0.79069200  0.60476000  0.07002800  1
  O  O3  1  0.29069200  0.39524000  0.42997200  1
  O  O4  1  0.32538400  0.73246200  0.05395300  1
  O  O5  1  0.82538400  0.26753800  0.44604700  1
  O  O6  1  0.67461600  0.26753800  0.94604700  1
  O  O7  1  0.17461600  0.73246200  0.55395300  1
  O  O8  1  0.05709300  0.14746800  0.73300300  1
  O  O9  1  0.55709300  0.85253200  0.76699700  1
  O  O10  1  0.44290700  0.14746800  0.23300300  1
  O  O11  1  0.94290700  0.85253200  0.26699700  1
loop_
_geom_bond_atom_site_label_1
_geom_bond_atom_site_label_2
_geom_bond_distance
_geom_bond_site_symmetry_2
Ca0 O9 2.322618 1_545
Ca0 O1 2.358296 1_555
Ca0 O6 2.384888 1_555
Ca0 O8 2.401647 1_555
Ca0 O0 2.666394 1_555
Ca0 O7 2.749815 1_555
Ca0 O4 2.887756 1_546
Ca0 O3 2.970635 1_555
Ca1 O8 2.322618 1_665
Ca1 O0 2.358296 1_655
Ca1 O7 2.384888 1_655
Ca1 O9 2.401647 1_555
Ca1 O1 2.666394 1_555
Ca1 O6 2.749815 1_555
Ca1 O5 2.887756 1_565
Ca1 O2 2.970635 1_556
Ca2 O10 2.322618 1_565
Ca2 O3 2.358296 1_555
Ca2 O4 2.384888 1_555
Ca2 O11 2.401647 1_555
Ca2 O2 2.666394 1_555
Ca2 O5 2.749815 1_555
Ca2 O6 2.887756 1_564
Ca2 O1 2.970635 1_555
Ca3 O11 2.322618 1_445
Ca3 O2 2.358296 1_455
Ca3 O5 2.384888 1_455
Ca3 O10 2.401647 1_555
Ca3 O3 2.666394 1_555
Ca3 O4 2.749815 1_555
Ca3 O7 2.887756 1_545
Ca3 O0 2.970635 1_554
O0 W0 2.060140 1_556
O0 Sb1 2.289990 1_556
O1 W1 2.060140 1_655
O1 Sb0 2.289990 1_565
O2 W0 2.060140 1_555
O2 Sb1 2.289990 1_665
O3 W1 2.060140 1_555
O3 Sb0 2.289990 1_555
O4 W0 1.963776 1_555
O4 Sb1 2.314455 1_565
O5 W1 1.963776 1_655
O5 Sb0 2.314455 1_555
O6 W0 1.963776 1_556
O6 Sb1 2.314455 1_656
O7 W1 1.963776 1_555
O7 Sb0 2.314455 1_565
O8 W1 2.061550 1_555
O8 Sb1 2.311447 1_556
O9 W0 2.061550 1_556
O9 Sb0 2.311447 1_565
O10 W0 2.061550 1_555
O10 Sb0 2.311447 1_555
O11 W1 2.061550 1_655
O11 Sb1 2.311447 1_665
