# generated using pymatgen
data_Sm2HfS5
_symmetry_space_group_name_H-M   'P 1'
_cell_length_a   7.32812340
_cell_length_b   7.88624287
_cell_length_c   11.56125605
_cell_angle_alpha   90.00000000
_cell_angle_beta   90.00000000
_cell_angle_gamma   90.00000000
_symmetry_Int_Tables_number   1
_chemical_formula_structural   Sm2HfS5
_chemical_formula_sum   'Sm8 Hf4 S20'
_cell_volume   668.14072100
_cell_formula_units_Z   4
loop_
 _symmetry_equiv_pos_site_id
 _symmetry_equiv_pos_as_xyz
  1  'x, y, z'
loop_
 _atom_site_type_symbol
 _atom_site_label
 _atom_site_symmetry_multiplicity
 _atom_site_fract_x
 _atom_site_fract_y
 _atom_site_fract_z
 _atom_site_occupancy
  Sm  Sm0  1  0.53126212  0.00160121  0.32306970  1
  Sm  Sm1  1  0.96873788  0.49839879  0.82306970  1
  Sm  Sm2  1  0.46873788  0.50160121  0.67693030  1
  Sm  Sm3  1  0.03126212  0.99839879  0.17693030  1
  Sm  Sm4  1  0.46873788  0.99839879  0.67693030  1
  Sm  Sm5  1  0.03126212  0.50160121  0.17693030  1
  Sm  Sm6  1  0.53126212  0.49839879  0.32306970  1
  Sm  Sm7  1  0.96873788  0.00160121  0.82306970  1
  Hf  Hf0  1  0.07385158  0.75000000  0.49341041  1
  Hf  Hf1  1  0.42614842  0.75000000  0.99341041  1
  Hf  Hf2  1  0.92614842  0.25000000  0.50658959  1
  Hf  Hf3  1  0.57385158  0.25000000  0.00658959  1
  S  S0  1  0.83618503  0.53530784  0.58696422  1
  S  S1  1  0.66381497  0.96469216  0.08696422  1
  S  S2  1  0.16381497  0.03530784  0.41303578  1
  S  S3  1  0.33618503  0.46469216  0.91303578  1
  S  S4  1  0.16381497  0.46469216  0.41303578  1
  S  S5  1  0.33618503  0.03530784  0.91303578  1
  S  S6  1  0.83618503  0.96469216  0.58696422  1
  S  S7  1  0.66381497  0.53530784  0.08696422  1
  S  S8  1  0.84168907  0.75000000  0.31711706  1
  S  S9  1  0.65831093  0.75000000  0.81711706  1
  S  S10  1  0.15831093  0.25000000  0.68288294  1
  S  S11  1  0.34168907  0.25000000  0.18288294  1
  S  S12  1  0.44381041  0.75000000  0.49542056  1
  S  S13  1  0.05618959  0.75000000  0.99542056  1
  S  S14  1  0.55618959  0.25000000  0.50457944  1
  S  S15  1  0.94381041  0.25000000  0.00457944  1
  S  S16  1  0.18067094  0.75000000  0.70584494  1
  S  S17  1  0.31932906  0.75000000  0.20584494  1
  S  S18  1  0.81932906  0.25000000  0.29415506  1
  S  S19  1  0.68067094  0.25000000  0.79415506  1
loop_
_geom_bond_atom_site_label_1
_geom_bond_atom_site_label_2
_geom_bond_distance
_geom_bond_site_symmetry_2
Hf0 S4 2.522029 1_555
Hf0 S2 2.522029 1_565
Hf0 S16 2.577739 1_555
Hf0 S8 2.654924 1_455
Hf0 S0 2.658917 1_455
Hf0 S6 2.658917 1_455
Hf0 S12 2.711204 1_555
Hf1 S5 2.522029 1_565
Hf1 S3 2.522029 1_555
Hf1 S17 2.577739 1_556
Hf1 S9 2.654924 1_555
Hf1 S1 2.658917 1_556
Hf1 S7 2.658917 1_556
Hf1 S13 2.711204 1_555
Hf2 S0 2.522029 1_555
Hf2 S6 2.522029 1_545
Hf2 S18 2.577739 1_555
Hf2 S10 2.654924 1_655
Hf2 S2 2.658917 1_655
Hf2 S4 2.658917 1_655
Hf2 S14 2.711204 1_555
Hf3 S1 2.522029 1_545
Hf3 S7 2.522029 1_555
Hf3 S19 2.577739 1_554
Hf3 S11 2.654924 1_555
Hf3 S5 2.658917 1_554
Hf3 S3 2.658917 1_554
Hf3 S15 2.711204 1_555
S0 Sm2 2.898816 1_555
S0 Sm1 2.911941 1_555
S1 Sm3 2.898816 1_655
S1 Sm0 2.911941 1_565
S2 Sm0 2.898816 1_555
S2 Sm3 2.911941 1_545
S3 Sm1 2.898816 1_455
S3 Sm2 2.911941 1_555
S4 Sm6 2.898816 1_555
S4 Sm5 2.911941 1_555
S5 Sm7 2.898816 1_455
S5 Sm4 2.911941 1_545
S6 Sm4 2.898816 1_555
S6 Sm7 2.911941 1_565
S7 Sm5 2.898816 1_655
S7 Sm6 2.911941 1_555
S8 Sm5 2.897261 1_655
S8 Sm3 2.897261 1_655
S8 Sm0 3.019382 1_565
S8 Sm6 3.019382 1_555
S9 Sm2 2.897261 1_555
S9 Sm4 2.897261 1_555
S9 Sm7 3.019382 1_565
S9 Sm1 3.019382 1_555
S10 Sm1 2.897261 1_455
S10 Sm7 2.897261 1_455
S10 Sm4 3.019382 1_545
S10 Sm2 3.019382 1_555
S11 Sm6 2.897261 1_555
S11 Sm0 2.897261 1_555
S11 Sm3 3.019382 1_545
S11 Sm5 3.019382 1_555
S12 Sm4 2.876527 1_555
S12 Sm2 2.876527 1_555
S12 Sm6 2.884116 1_555
S12 Sm0 2.884116 1_565
S13 Sm3 2.876527 1_556
S13 Sm5 2.876527 1_556
S13 Sm1 2.884116 1_455
S13 Sm7 2.884116 1_465
S14 Sm6 2.876527 1_555
S14 Sm0 2.876527 1_555
S14 Sm2 2.884116 1_555
S14 Sm4 2.884116 1_545
S15 Sm1 2.876527 1_554
S15 Sm7 2.876527 1_554
S15 Sm5 2.884116 1_655
S15 Sm3 2.884116 1_645
S16 Sm1 2.861080 1_455
S16 Sm7 2.861080 1_465
S16 Sm4 2.899215 1_555
S16 Sm2 2.899215 1_555
S17 Sm6 2.861080 1_555
S17 Sm0 2.861080 1_565
S17 Sm3 2.899215 1_555
S17 Sm5 2.899215 1_555
S18 Sm5 2.861080 1_655
S18 Sm3 2.861080 1_645
S18 Sm6 2.899215 1_555
S18 Sm0 2.899215 1_555
S19 Sm4 2.861080 1_545
S19 Sm2 2.861080 1_555
S19 Sm1 2.899215 1_555
S19 Sm7 2.899215 1_555
