# generated using pymatgen
data_Sr(ZnSn)2
_symmetry_space_group_name_H-M   'P 1'
_cell_length_a   4.61798712
_cell_length_b   4.64294967
_cell_length_c   11.33099344
_cell_angle_alpha   89.23537642
_cell_angle_beta   90.00000000
_cell_angle_gamma   90.00000000
_symmetry_Int_Tables_number   1
_chemical_formula_structural   Sr(ZnSn)2
_chemical_formula_sum   'Sr2 Zn4 Sn4'
_cell_volume   242.92712316
_cell_formula_units_Z   2
loop_
 _symmetry_equiv_pos_site_id
 _symmetry_equiv_pos_as_xyz
  1  'x, y, z'
loop_
 _atom_site_type_symbol
 _atom_site_label
 _atom_site_symmetry_multiplicity
 _atom_site_fract_x
 _atom_site_fract_y
 _atom_site_fract_z
 _atom_site_occupancy
  Sr  Sr0  1  0.25000000  0.73843715  0.75736843  1
  Sr  Sr1  1  0.75000000  0.26156285  0.24263157  1
  Zn  Zn0  1  0.25000000  0.74602545  0.36113684  1
  Zn  Zn1  1  0.75000000  0.25397455  0.63886316  1
  Zn  Zn2  1  0.25000000  0.28111906  0.00027547  1
  Zn  Zn3  1  0.75000000  0.71888094  0.99972453  1
  Sn  Sn0  1  0.25000000  0.78176931  0.12972277  1
  Sn  Sn1  1  0.75000000  0.21823069  0.87027723  1
  Sn  Sn2  1  0.25000000  0.24523481  0.49970765  1
  Sn  Sn3  1  0.75000000  0.75476519  0.50029235  1
loop_
_geom_bond_atom_site_label_1
_geom_bond_atom_site_label_2
_geom_bond_distance
_geom_bond_site_symmetry_2
Sr0 Zn2 3.453698 1_556
Sr0 Zn1 3.503518 1_455
Sr0 Zn1 3.503518 1_555
Sr0 Zn1 3.574650 1_565
Sr0 Zn1 3.574650 1_465
Sr0 Zn3 3.588078 1_555
Sr0 Zn3 3.588078 1_455
Sr0 Zn2 3.756233 1_566
Sr1 Zn3 3.453698 1_554
Sr1 Zn0 3.503518 1_655
Sr1 Zn0 3.503518 1_555
Sr1 Zn0 3.574650 1_645
Sr1 Zn0 3.574650 1_545
Sr1 Zn2 3.588078 1_555
Sr1 Zn2 3.588078 1_655
Sr1 Zn3 3.756233 1_544
Sn0 Zn0 2.625187 1_555
Sn0 Zn2 2.726881 1_565
Sn0 Zn3 2.756437 1_554
Sn0 Zn3 2.756437 1_454
Sn0 Zn2 2.765081 1_555
Sn0 Sr1 3.465077 1_565
Sn0 Sr1 3.465077 1_465
Sn0 Sr1 3.566427 1_455
Sn0 Sr1 3.566427 1_555
Sn1 Zn1 2.625187 1_555
Sn1 Zn3 2.726881 1_545
Sn1 Zn2 2.756437 1_556
Sn1 Zn2 2.756437 1_656
Sn1 Zn3 2.765081 1_555
Sn1 Sr0 3.465077 1_545
Sn1 Sr0 3.465077 1_645
Sn1 Sr0 3.566427 1_555
Sn1 Sr0 3.566427 1_655
Sn2 Zn0 2.788229 1_555
Sn2 Zn1 2.796607 1_455
Sn2 Zn1 2.796607 1_555
Sn2 Zn0 2.816860 1_545
Sn2 Sr1 3.717049 1_455
Sn2 Sr1 3.717049 1_555
Sn2 Sr0 3.725213 1_545
Sn2 Sr0 3.734424 1_555
Sn3 Zn1 2.788229 1_555
Sn3 Zn0 2.796607 1_655
Sn3 Zn0 2.796607 1_555
Sn3 Zn1 2.816860 1_565
Sn3 Sr0 3.717049 1_655
Sn3 Sr0 3.717049 1_555
Sn3 Sr1 3.725213 1_565
Sn3 Sr1 3.734424 1_555
