# generated using pymatgen
data_Lu5Bi3
_symmetry_space_group_name_H-M   'P 1'
_cell_length_a   8.06051665
_cell_length_b   9.28468218
_cell_length_c   11.72858800
_cell_angle_alpha   90.00000000
_cell_angle_beta   90.00000000
_cell_angle_gamma   90.00000000
_symmetry_Int_Tables_number   1
_chemical_formula_structural   Lu5Bi3
_chemical_formula_sum   'Lu20 Bi12'
_cell_volume   877.75972995
_cell_formula_units_Z   4
loop_
 _symmetry_equiv_pos_site_id
 _symmetry_equiv_pos_as_xyz
  1  'x, y, z'
loop_
 _atom_site_type_symbol
 _atom_site_label
 _atom_site_symmetry_multiplicity
 _atom_site_fract_x
 _atom_site_fract_y
 _atom_site_fract_z
 _atom_site_occupancy
  Lu  Lu0  1  0.02218787  0.25000000  0.51087222  1
  Lu  Lu1  1  0.97781213  0.75000000  0.48912778  1
  Lu  Lu2  1  0.47781213  0.75000000  0.01087222  1
  Lu  Lu3  1  0.52218787  0.25000000  0.98912778  1
  Lu  Lu4  1  0.35583472  0.25000000  0.28310493  1
  Lu  Lu5  1  0.64416528  0.75000000  0.71689507  1
  Lu  Lu6  1  0.14416528  0.75000000  0.78310493  1
  Lu  Lu7  1  0.85583472  0.25000000  0.21689507  1
  Lu  Lu8  1  0.18623456  0.25000000  0.78490790  1
  Lu  Lu9  1  0.81376544  0.75000000  0.21509210  1
  Lu  Lu10  1  0.31376544  0.75000000  0.28490790  1
  Lu  Lu11  1  0.68623456  0.25000000  0.71509210  1
  Lu  Lu12  1  0.19210557  0.06764005  0.05971984  1
  Lu  Lu13  1  0.80789443  0.93235995  0.94028016  1
  Lu  Lu14  1  0.30789443  0.93235995  0.55971984  1
  Lu  Lu15  1  0.80789443  0.56764005  0.94028016  1
  Lu  Lu16  1  0.69210557  0.06764005  0.44028016  1
  Lu  Lu17  1  0.19210557  0.43235995  0.05971984  1
  Lu  Lu18  1  0.69210557  0.43235995  0.44028016  1
  Lu  Lu19  1  0.30789443  0.56764005  0.55971984  1
  Bi  Bi0  1  0.40209439  0.25000000  0.54239978  1
  Bi  Bi1  1  0.59790561  0.75000000  0.45760022  1
  Bi  Bi2  1  0.09790561  0.75000000  0.04239978  1
  Bi  Bi3  1  0.90209439  0.25000000  0.95760022  1
  Bi  Bi4  1  0.06541915  0.00370329  0.32544414  1
  Bi  Bi5  1  0.93458085  0.99629671  0.67455586  1
  Bi  Bi6  1  0.43458085  0.99629671  0.82544414  1
  Bi  Bi7  1  0.93458085  0.50370329  0.67455586  1
  Bi  Bi8  1  0.56541915  0.00370329  0.17455586  1
  Bi  Bi9  1  0.06541915  0.49629671  0.32544414  1
  Bi  Bi10  1  0.56541915  0.49629671  0.17455586  1
  Bi  Bi11  1  0.43458085  0.50370329  0.82544414  1
loop_
_geom_bond_atom_site_label_1
_geom_bond_atom_site_label_2
_geom_bond_distance
_geom_bond_site_symmetry_2
Bi0 Lu14 3.052131 1_545
Bi0 Lu19 3.052131 1_555
Bi0 Lu11 3.057441 1_555
Bi0 Lu4 3.063936 1_555
Bi0 Lu0 3.084488 1_555
Bi0 Lu16 3.125038 1_555
Bi0 Lu18 3.125038 1_555
Bi0 Lu8 3.334264 1_555
Bi1 Lu18 3.052131 1_555
Bi1 Lu16 3.052131 1_565
Bi1 Lu10 3.057441 1_555
Bi1 Lu5 3.063936 1_555
Bi1 Lu1 3.084488 1_555
Bi1 Lu19 3.125038 1_555
Bi1 Lu14 3.125038 1_555
Bi1 Lu9 3.334264 1_555
Bi2 Lu17 3.052131 1_555
Bi2 Lu12 3.052131 1_565
Bi2 Lu9 3.057441 1_455
Bi2 Lu6 3.063936 1_554
Bi2 Lu2 3.084488 1_555
Bi2 Lu15 3.125038 1_454
Bi2 Lu13 3.125038 1_454
Bi2 Lu10 3.334264 1_555
Bi3 Lu13 3.052131 1_545
Bi3 Lu15 3.052131 1_555
Bi3 Lu8 3.057441 1_655
Bi3 Lu7 3.063936 1_556
Bi3 Lu3 3.084488 1_555
Bi3 Lu17 3.125038 1_656
Bi3 Lu12 3.125038 1_656
Bi3 Lu11 3.334264 1_555
Bi4 Lu7 3.115153 1_455
Bi4 Lu1 3.119750 1_445
Bi4 Lu10 3.127599 1_545
Bi4 Lu0 3.174999 1_555
Bi4 Lu4 3.309954 1_555
Bi4 Lu12 3.332893 1_555
Bi4 Lu16 3.349795 1_455
Bi4 Lu9 3.367258 1_445
Bi4 Lu14 3.436384 1_545
Bi5 Lu6 3.115153 1_655
Bi5 Lu0 3.119750 1_665
Bi5 Lu11 3.127599 1_565
Bi5 Lu1 3.174999 1_555
Bi5 Lu5 3.309954 1_555
Bi5 Lu13 3.332893 1_555
Bi5 Lu14 3.349795 1_655
Bi5 Lu8 3.367258 1_665
Bi5 Lu16 3.436384 1_565
Bi6 Lu5 3.115153 1_555
Bi6 Lu3 3.119750 1_565
Bi6 Lu8 3.127599 1_565
Bi6 Lu2 3.174999 1_556
Bi6 Lu6 3.309954 1_555
Bi6 Lu14 3.332893 1_555
Bi6 Lu13 3.349795 1_555
Bi6 Lu11 3.367258 1_565
Bi6 Lu12 3.436384 1_566
Bi7 Lu6 3.115153 1_655
Bi7 Lu0 3.119750 1_655
Bi7 Lu11 3.127599 1_555
Bi7 Lu1 3.174999 1_555
Bi7 Lu5 3.309954 1_555
Bi7 Lu15 3.332893 1_555
Bi7 Lu19 3.349795 1_655
Bi7 Lu8 3.367258 1_655
Bi7 Lu18 3.436384 1_555
Bi8 Lu4 3.115153 1_555
Bi8 Lu2 3.119750 1_545
Bi8 Lu9 3.127599 1_545
Bi8 Lu3 3.174999 1_554
Bi8 Lu7 3.309954 1_555
Bi8 Lu16 3.332893 1_555
Bi8 Lu12 3.349795 1_555
Bi8 Lu10 3.367258 1_545
Bi8 Lu13 3.436384 1_544
Bi9 Lu7 3.115153 1_455
Bi9 Lu1 3.119750 1_455
Bi9 Lu10 3.127599 1_555
Bi9 Lu0 3.174999 1_555
Bi9 Lu4 3.309954 1_555
Bi9 Lu17 3.332893 1_555
Bi9 Lu18 3.349795 1_455
Bi9 Lu9 3.367258 1_455
Bi9 Lu19 3.436384 1_555
Bi10 Lu4 3.115153 1_555
Bi10 Lu2 3.119750 1_555
Bi10 Lu9 3.127599 1_555
Bi10 Lu3 3.174999 1_554
Bi10 Lu7 3.309954 1_555
Bi10 Lu18 3.332893 1_555
Bi10 Lu17 3.349795 1_555
Bi10 Lu10 3.367258 1_555
Bi10 Lu15 3.436384 1_554
Bi11 Lu5 3.115153 1_555
Bi11 Lu3 3.119750 1_555
Bi11 Lu8 3.127599 1_555
Bi11 Lu2 3.174999 1_556
Bi11 Lu6 3.309954 1_555
Bi11 Lu19 3.332893 1_555
Bi11 Lu15 3.349795 1_555
Bi11 Lu11 3.367258 1_555
Bi11 Lu17 3.436384 1_556
