# generated using pymatgen
data_SbPtS
_symmetry_space_group_name_H-M   'P 1'
_cell_length_a   6.28706700
_cell_length_b   6.28706700
_cell_length_c   6.28706700
_cell_angle_alpha   90.00000000
_cell_angle_beta   90.00000000
_cell_angle_gamma   90.00000000
_symmetry_Int_Tables_number   1
_chemical_formula_structural   SbPtS
_chemical_formula_sum   'Sb4 Pt4 S4'
_cell_volume   248.51022679
_cell_formula_units_Z   4
loop_
 _symmetry_equiv_pos_site_id
 _symmetry_equiv_pos_as_xyz
  1  'x, y, z'
loop_
 _atom_site_type_symbol
 _atom_site_label
 _atom_site_symmetry_multiplicity
 _atom_site_fract_x
 _atom_site_fract_y
 _atom_site_fract_z
 _atom_site_occupancy
  Sb  Sb0  1  0.88113100  0.38113100  0.11886900  1
  Sb  Sb1  1  0.38113100  0.11886900  0.88113100  1
  Sb  Sb2  1  0.11886900  0.88113100  0.38113100  1
  Sb  Sb3  1  0.61886900  0.61886900  0.61886900  1
  Pt  Pt0  1  0.50645200  0.00645200  0.49354800  1
  Pt  Pt1  1  0.00645200  0.49354800  0.50645200  1
  Pt  Pt2  1  0.49354800  0.50645200  0.00645200  1
  Pt  Pt3  1  0.99354800  0.99354800  0.99354800  1
  S  S0  1  0.11482200  0.61482200  0.88517800  1
  S  S1  1  0.61482200  0.88517800  0.11482200  1
  S  S2  1  0.88517800  0.11482200  0.61482200  1
  S  S3  1  0.38517800  0.38517800  0.38517800  1
loop_
_geom_bond_atom_site_label_1
_geom_bond_atom_site_label_2
_geom_bond_distance
_geom_bond_site_symmetry_2
Pt0 S2 2.591346 1_555
Pt0 S1 2.591346 1_545
Pt0 S3 2.591346 1_555
Pt0 Sb3 2.656712 1_545
Pt0 Sb1 2.656712 1_555
Pt0 Sb2 2.656712 1_545
Pt1 S0 2.591346 1_555
Pt1 S2 2.591346 1_455
Pt1 S3 2.591346 1_555
Pt1 Sb3 2.656712 1_455
Pt1 Sb2 2.656712 1_555
Pt1 Sb0 2.656712 1_455
Pt2 S1 2.591346 1_555
Pt2 S0 2.591346 1_554
Pt2 S3 2.591346 1_555
Pt2 Sb3 2.656712 1_554
Pt2 Sb0 2.656712 1_555
Pt2 Sb1 2.656712 1_554
Pt3 S1 2.591346 1_556
Pt3 S0 2.591346 1_655
Pt3 S2 2.591346 1_565
Pt3 Sb0 2.656712 1_566
Pt3 Sb1 2.656712 1_665
Pt3 Sb2 2.656712 1_656
S0 Sb0 2.544783 1_456
S1 Sb1 2.544783 1_564
S2 Sb2 2.544783 1_645
S3 Sb3 2.544783 1_555
