# generated using pymatgen
data_CdSi7N10
_symmetry_space_group_name_H-M   'P 1'
_cell_length_a   6.81302437
_cell_length_b   6.84752400
_cell_length_c   9.71453843
_cell_angle_alpha   90.00000000
_cell_angle_beta   104.74105181
_cell_angle_gamma   90.00000000
_symmetry_Int_Tables_number   1
_chemical_formula_structural   CdSi7N10
_chemical_formula_sum   'Cd2 Si14 N20'
_cell_volume   438.28906234
_cell_formula_units_Z   2
loop_
 _symmetry_equiv_pos_site_id
 _symmetry_equiv_pos_as_xyz
  1  'x, y, z'
loop_
 _atom_site_type_symbol
 _atom_site_label
 _atom_site_symmetry_multiplicity
 _atom_site_fract_x
 _atom_site_fract_y
 _atom_site_fract_z
 _atom_site_occupancy
  Cd  Cd0  1  0.99492200  0.97118400  0.70361000  1
  Cd  Cd1  1  0.99492200  0.02881600  0.20361000  1
  Si  Si0  1  0.54428500  0.98053000  0.82587100  1
  Si  Si1  1  0.54428500  0.01947000  0.32587100  1
  Si  Si2  1  0.35523100  0.02308400  0.02088500  1
  Si  Si3  1  0.35523100  0.97691600  0.52088500  1
  Si  Si4  1  0.10550400  0.39971800  0.07200600  1
  Si  Si5  1  0.10550400  0.60028200  0.57200600  1
  Si  Si6  1  0.66064900  0.36634200  0.99082000  1
  Si  Si7  1  0.66064900  0.63365800  0.49082000  1
  Si  Si8  1  0.84544600  0.61608500  0.80428000  1
  Si  Si9  1  0.84544600  0.38391500  0.30428000  1
  Si  Si10  1  0.29620300  0.61701100  0.88145700  1
  Si  Si11  1  0.29620300  0.38298900  0.38145700  1
  Si  Si12  1  0.48130300  0.36982300  0.68534100  1
  Si  Si13  1  0.48130300  0.63017700  0.18534100  1
  N  N0  1  0.74919500  0.84661400  0.81265600  1
  N  N1  1  0.74919500  0.15338600  0.31265600  1
  N  N2  1  0.55915500  0.13653600  0.97155100  1
  N  N3  1  0.55915500  0.86346400  0.47155100  1
  N  N4  1  0.32370900  0.86861500  0.86824400  1
  N  N5  1  0.32370900  0.13138500  0.36824400  1
  N  N6  1  0.15268700  0.15861400  0.03643500  1
  N  N7  1  0.15268700  0.84138600  0.53643500  1
  N  N8  1  0.28497700  0.50559500  0.72081200  1
  N  N9  1  0.28497700  0.49440500  0.22081200  1
  N  N10  1  0.44652400  0.11972600  0.67251600  1
  N  N11  1  0.44652400  0.88027400  0.17251600  1
  N  N12  1  0.88023000  0.39471400  0.12785500  1
  N  N13  1  0.88023000  0.60528600  0.62785500  1
  N  N14  1  0.07443100  0.56913600  0.93125100  1
  N  N15  1  0.07443100  0.43086400  0.43125100  1
  N  N16  1  0.69507300  0.41906800  0.82260200  1
  N  N17  1  0.69507300  0.58093200  0.32260200  1
  N  N18  1  0.49277900  0.53886600  0.02111000  1
  N  N19  1  0.49277900  0.46113400  0.52111000  1
loop_
_geom_bond_atom_site_label_1
_geom_bond_atom_site_label_2
_geom_bond_distance
_geom_bond_site_symmetry_2
Cd0 N7 2.339034 1_655
Cd0 N0 2.356919 1_555
Cd0 N4 2.499151 1_655
Cd0 N13 2.671523 1_555
Cd1 N6 2.339034 1_655
Cd1 N1 2.356919 1_555
Cd1 N5 2.499151 1_655
Cd1 N12 2.671523 1_555
N0 Si0 1.702216 1_555
N0 Si8 1.719193 1_555
N1 Si1 1.702216 1_555
N1 Si9 1.719193 1_555
N2 Si6 1.709836 1_555
N2 Si0 1.755363 1_545
N2 Si2 1.761341 1_556
N3 Si7 1.709836 1_555
N3 Si1 1.755363 1_565
N3 Si3 1.761341 1_555
N4 Si10 1.741292 1_555
N4 Si2 1.789318 1_566
N4 Si0 1.824802 1_555
N5 Si11 1.741292 1_555
N5 Si3 1.789318 1_545
N5 Si1 1.824802 1_555
N6 Si2 1.701293 1_555
N6 Si4 1.733482 1_555
N7 Si3 1.701293 1_555
N7 Si5 1.733482 1_555
N8 Si10 1.721223 1_555
N8 Si12 1.733997 1_555
N8 Si5 1.762296 1_555
N9 Si11 1.721223 1_555
N9 Si13 1.733997 1_555
N9 Si4 1.762296 1_555
N10 Si12 1.729004 1_555
N10 Si3 1.745477 1_545
N10 Si0 1.751163 1_545
N11 Si13 1.729004 1_555
N11 Si2 1.745477 1_565
N11 Si1 1.751163 1_565
N12 Si6 1.741974 1_554
N12 Si4 1.753538 1_655
N12 Si9 1.790457 1_555
N13 Si7 1.741974 1_555
N13 Si5 1.753538 1_655
N13 Si8 1.790457 1_555
N14 Si10 1.730994 1_555
N14 Si8 1.754809 1_455
N14 Si4 1.764376 1_556
N15 Si11 1.730994 1_555
N15 Si9 1.754809 1_455
N15 Si5 1.764376 1_555
N16 Si8 1.730341 1_555
N16 Si12 1.739136 1_555
N16 Si6 1.746677 1_555
N17 Si9 1.730341 1_555
N17 Si13 1.739136 1_555
N17 Si7 1.746677 1_555
N18 Si6 1.720907 1_554
N18 Si10 1.730862 1_554
N18 Si13 1.733761 1_555
N19 Si7 1.720907 1_555
N19 Si11 1.730862 1_555
N19 Si12 1.733761 1_555
