# generated using pymatgen
data_Li4MnCo2O7
_symmetry_space_group_name_H-M   'P 1'
_cell_length_a   2.99013623
_cell_length_b   2.99013623
_cell_length_c   34.50281743
_cell_angle_alpha   87.14437003
_cell_angle_beta   87.14437003
_cell_angle_gamma   57.20157723
_symmetry_Int_Tables_number   1
_chemical_formula_structural   Li4MnCo2O7
_chemical_formula_sum   'Li8 Mn2 Co4 O14'
_cell_volume   258.89045522
_cell_formula_units_Z   2
loop_
 _symmetry_equiv_pos_site_id
 _symmetry_equiv_pos_as_xyz
  1  'x, y, z'
loop_
 _atom_site_type_symbol
 _atom_site_label
 _atom_site_symmetry_multiplicity
 _atom_site_fract_x
 _atom_site_fract_y
 _atom_site_fract_z
 _atom_site_occupancy
  Li  Li0  1  0.71773700  0.71773700  0.92717400  1
  Li  Li1  1  0.13981000  0.13981000  0.78723200  1
  Li  Li2  1  0.57454400  0.57454400  0.64109400  1
  Li  Li3  1  0.00700300  0.00700300  0.49830600  1
  Li  Li4  1  0.42065400  0.42065400  0.35868800  1
  Li  Li5  1  0.85486700  0.85486700  0.21519700  1
  Li  Li6  1  0.28382200  0.28382200  0.07238700  1
  Li  Li7  1  0.71487500  0.71487500  0.42846600  1
  Mn  Mn0  1  0.00065600  0.00065600  0.00006700  1
  Mn  Mn1  1  0.85649300  0.85649300  0.71415500  1
  Co  Co0  1  0.42859100  0.42859100  0.85721900  1
  Co  Co1  1  0.28862300  0.28862300  0.57183800  1
  Co  Co2  1  0.14051900  0.14051900  0.28492500  1
  Co  Co3  1  0.57131600  0.57131600  0.14332000  1
  O  O0  1  0.37919100  0.37919100  0.96707100  1
  O  O1  1  0.77899400  0.77899400  0.82422300  1
  O  O2  1  0.23517600  0.23517600  0.68090500  1
  O  O3  1  0.65280600  0.65280600  0.54245500  1
  O  O4  1  0.07338500  0.07338500  0.39107100  1
  O  O5  1  0.51377300  0.51377300  0.25322600  1
  O  O6  1  0.92581500  0.92581500  0.11084900  1
  O  O7  1  0.07791700  0.07791700  0.89021200  1
  O  O8  1  0.47846600  0.47846600  0.74712900  1
  O  O9  1  0.91521800  0.91521800  0.60360100  1
  O  O10  1  0.35508000  0.35508000  0.46589900  1
  O  O11  1  0.77586700  0.77586700  0.31434600  1
  O  O12  1  0.21812800  0.21812800  0.17547000  1
  O  O13  1  0.62067700  0.62067700  0.03347400  1
loop_
_geom_bond_atom_site_label_1
_geom_bond_atom_site_label_2
_geom_bond_distance
_geom_bond_site_symmetry_2
Li0 O7 2.078569 1_655
Li0 O7 2.078569 1_565
Li0 O0 2.185612 1_555
Li0 O0 2.189715 1_565
Li0 O0 2.189715 1_655
Li0 O7 2.220152 1_665
Li1 O1 2.077910 1_545
Li1 O1 2.077910 1_455
Li1 O8 2.190217 1_555
Li1 O8 2.194103 1_545
Li1 O8 2.194103 1_455
Li1 O1 2.223414 1_445
Li2 O9 2.131886 1_545
Li2 O9 2.131886 1_455
Li2 O9 2.147176 1_555
Li2 O2 2.185964 1_565
Li2 O2 2.185964 1_655
Li2 O2 2.187242 1_555
Li3 O10 2.009131 1_545
Li3 O10 2.009131 1_455
Li3 O10 2.087679 1_555
Li3 O3 2.255573 1_455
Li3 O3 2.255573 1_545
Li3 O3 2.336112 1_445
Li4 O4 2.010474 1_655
Li4 O4 2.010474 1_565
Li4 O4 2.083692 1_555
Li4 O11 2.258198 1_545
Li4 O11 2.258198 1_455
Li4 O11 2.344203 1_555
Li5 O12 2.134202 1_565
Li5 O12 2.134202 1_655
Li5 O5 2.142632 1_565
Li5 O5 2.142632 1_655
Li5 O5 2.159251 1_555
Li5 O12 2.284723 1_665
Li6 O6 2.116138 1_455
Li6 O6 2.116138 1_545
Li6 O13 2.159004 1_555
Li6 O13 2.171579 1_455
Li6 O13 2.171579 1_545
Li6 O6 2.238603 1_445
Li7 O10 2.089685 1_565
Li7 O10 2.089685 1_655
Li7 O4 2.091472 1_655
Li7 O4 2.091472 1_565
Li7 O4 2.220899 1_665
Li7 O10 2.227096 1_555
Mn0 O0 1.958083 1_454
Mn0 O0 1.958083 1_544
Mn0 O13 1.963924 1_545
Mn0 O13 1.963924 1_455
Mn0 O0 2.233719 1_554
Mn0 O13 2.246774 1_445
Mn1 O8 1.958586 1_565
Mn1 O8 1.958586 1_655
Mn1 O2 1.963075 1_565
Mn1 O2 1.963075 1_655
Mn1 O8 2.231074 1_555
Mn1 O2 2.238424 1_665
Co0 O7 2.015126 1_655
Co0 O7 2.015126 1_565
Co0 O1 2.015786 1_455
Co0 O1 2.015786 1_545
Co0 O1 2.107903 1_555
Co0 O7 2.109051 1_555
Co1 O3 1.915003 1_545
Co1 O3 1.915003 1_455
Co1 O9 1.942778 1_455
Co1 O9 1.942778 1_545
Co1 O3 2.112848 1_555
Co1 O9 2.191129 1_445
Co2 O11 1.914735 1_545
Co2 O11 1.914735 1_455
Co2 O5 1.941787 1_545
Co2 O5 1.941787 1_455
Co2 O11 2.115571 1_445
Co2 O5 2.189451 1_555
Co3 O12 1.992632 1_565
Co3 O12 1.992632 1_655
Co3 O6 1.996198 1_455
Co3 O6 1.996198 1_545
Co3 O12 2.106163 1_555
Co3 O6 2.117306 1_555
