# generated using pymatgen
data_S
_symmetry_space_group_name_H-M   'P 1'
_cell_length_a   3.18321200
_cell_length_b   4.43228600
_cell_length_c   4.43228600
_cell_angle_alpha   90.00000000
_cell_angle_beta   90.00000000
_cell_angle_gamma   90.00000000
_symmetry_Int_Tables_number   1
_chemical_formula_structural   S
_chemical_formula_sum   S4
_cell_volume   62.53470646
_cell_formula_units_Z   4
loop_
 _symmetry_equiv_pos_site_id
 _symmetry_equiv_pos_as_xyz
  1  'x, y, z'
loop_
 _atom_site_type_symbol
 _atom_site_label
 _atom_site_symmetry_multiplicity
 _atom_site_fract_x
 _atom_site_fract_y
 _atom_site_fract_z
 _atom_site_occupancy
  S  S0  1  0.50000000  0.24995400  0.75004600  1
  S  S1  1  0.50000000  0.75004600  0.24995400  1
  S  S2  1  0.00000000  0.25004600  0.25004600  1
  S  S3  1  0.00000000  0.74995400  0.74995400  1
loop_
_geom_bond_atom_site_label_1
_geom_bond_atom_site_label_2
_geom_bond_distance
_geom_bond_site_symmetry_2
S0 S2 2.728461 1_655
S0 S3 2.728461 1_545
S0 S3 2.728461 1_655
S0 S3 2.728461 1_645
S0 S2 2.728461 1_656
S0 S2 2.728461 1_556
S0 S2 2.728461 1_555
S0 S3 2.728461 1_555
S1 S2 2.728461 1_565
S1 S2 2.728461 1_655
S1 S2 2.728461 1_665
S1 S3 2.728461 1_655
S1 S3 2.728461 1_654
S1 S2 2.728461 1_555
S1 S3 2.728461 1_555
S1 S3 2.728461 1_554
