# generated using pymatgen
data_CsHC(NO)2
_symmetry_space_group_name_H-M   'P 1'
_cell_length_a   4.87568200
_cell_length_b   13.71734200
_cell_length_c   7.96156166
_cell_angle_alpha   90.00000000
_cell_angle_beta   97.09784046
_cell_angle_gamma   90.00000000
_symmetry_Int_Tables_number   1
_chemical_formula_structural   CsHC(NO)2
_chemical_formula_sum   'Cs4 H4 C4 N8 O8'
_cell_volume   528.39975796
_cell_formula_units_Z   4
loop_
 _symmetry_equiv_pos_site_id
 _symmetry_equiv_pos_as_xyz
  1  'x, y, z'
loop_
 _atom_site_type_symbol
 _atom_site_label
 _atom_site_symmetry_multiplicity
 _atom_site_fract_x
 _atom_site_fract_y
 _atom_site_fract_z
 _atom_site_occupancy
  Cs  Cs0  1  0.25489700  0.65494100  0.57867700  1
  Cs  Cs1  1  0.74510300  0.15494100  0.92132300  1
  Cs  Cs2  1  0.74510300  0.34505900  0.42132300  1
  Cs  Cs3  1  0.25489700  0.84505900  0.07867700  1
  H  H0  1  0.05404500  0.43297300  0.89110200  1
  H  H1  1  0.94595500  0.93297300  0.60889800  1
  H  H2  1  0.94595500  0.56702700  0.10889800  1
  H  H3  1  0.05404500  0.06702700  0.39110200  1
  C  C0  1  0.24876300  0.39166400  0.90866300  1
  C  C1  1  0.75123700  0.89166400  0.59133700  1
  C  C2  1  0.75123700  0.60833600  0.09133700  1
  C  C3  1  0.24876300  0.10833600  0.40866300  1
  N  N0  1  0.34433100  0.34780000  0.05603400  1
  N  N1  1  0.65566900  0.84780000  0.44396600  1
  N  N2  1  0.65566900  0.65220000  0.94396600  1
  N  N3  1  0.34433100  0.15220000  0.55603400  1
  N  N4  1  0.40952400  0.38163900  0.78378500  1
  N  N5  1  0.59047600  0.88163900  0.71621500  1
  N  N6  1  0.59047600  0.61836100  0.21621500  1
  N  N7  1  0.40952400  0.11836100  0.28378500  1
  O  O0  1  0.31740600  0.42384100  0.64378400  1
  O  O1  1  0.68259400  0.92384100  0.85621600  1
  O  O2  1  0.68259400  0.57615900  0.35621600  1
  O  O3  1  0.31740600  0.07615900  0.14378400  1
  O  O4  1  0.18993600  0.35659000  0.17431800  1
  O  O5  1  0.81006400  0.85659000  0.32568200  1
  O  O6  1  0.81006400  0.64341000  0.82568200  1
  O  O7  1  0.18993600  0.14341000  0.67431800  1
loop_
_geom_bond_atom_site_label_1
_geom_bond_atom_site_label_2
_geom_bond_distance
_geom_bond_site_symmetry_2
Cs0 O2 3.092906 1_555
Cs0 O6 3.106499 1_455
Cs0 O6 3.147014 1_555
Cs0 O0 3.220548 1_555
Cs0 O2 3.296909 1_455
Cs0 N2 3.297471 1_555
Cs0 N1 3.533439 1_555
Cs0 N5 3.619885 1_555
Cs1 O3 3.092906 1_556
Cs1 O7 3.106499 1_655
Cs1 O7 3.147014 1_555
Cs1 O1 3.220548 1_545
Cs1 O3 3.296909 1_656
Cs1 N3 3.297471 1_555
Cs1 N0 3.533439 1_556
Cs1 N4 3.619885 1_555
Cs2 O0 3.092906 1_555
Cs2 O4 3.106499 1_655
Cs2 O4 3.147014 1_555
Cs2 O2 3.220548 1_555
Cs2 O0 3.296909 1_655
Cs2 N0 3.297471 1_555
Cs2 N3 3.533439 1_555
Cs2 N7 3.619885 1_555
Cs3 O1 3.092906 1_554
Cs3 O5 3.106499 1_455
Cs3 O5 3.147014 1_555
Cs3 O3 3.220548 1_565
Cs3 O1 3.296909 1_454
Cs3 N1 3.297471 1_555
Cs3 N2 3.533439 1_554
Cs3 N6 3.619885 1_555
C0 H0 1.099620 1_555
C0 N4 1.346978 1_555
C0 N0 1.349330 1_556
C1 H1 1.099620 1_555
C1 N5 1.346978 1_555
C1 N1 1.349330 1_555
C2 H2 1.099620 1_555
C2 N6 1.346978 1_555
C2 N2 1.349330 1_554
C3 H3 1.099620 1_555
C3 N7 1.346978 1_555
C3 N3 1.349330 1_555
N0 O4 1.281896 1_555
N1 O5 1.281896 1_555
N2 O6 1.281896 1_555
N3 O7 1.281896 1_555
N4 O0 1.286672 1_555
N5 O1 1.286672 1_555
N6 O2 1.286672 1_555
N7 O3 1.286672 1_555
