# generated using pymatgen
data_LiAl4Tl4O12
_symmetry_space_group_name_H-M   'P 1'
_cell_length_a   5.27138801
_cell_length_b   5.47767732
_cell_length_c   8.56396101
_cell_angle_alpha   82.74496090
_cell_angle_beta   91.83553630
_cell_angle_gamma   93.20692132
_symmetry_Int_Tables_number   1
_chemical_formula_structural   LiAl4Tl4O12
_chemical_formula_sum   'Li1 Al4 Tl4 O12'
_cell_volume   244.84229383
_cell_formula_units_Z   1
loop_
 _symmetry_equiv_pos_site_id
 _symmetry_equiv_pos_as_xyz
  1  'x, y, z'
loop_
 _atom_site_type_symbol
 _atom_site_label
 _atom_site_symmetry_multiplicity
 _atom_site_fract_x
 _atom_site_fract_y
 _atom_site_fract_z
 _atom_site_occupancy
  Li  Li0  1  0.44809100  0.29122000  0.11280600  1
  Al  Al0  1  0.95528300  0.48061900  0.98592100  1
  Al  Al1  1  0.97760700  0.52042700  0.55057400  1
  Al  Al2  1  0.52841100  0.94220500  0.94464100  1
  Al  Al3  1  0.49362700  0.04277900  0.51708800  1
  Tl  Tl0  1  0.02287200  0.01067000  0.75520400  1
  Tl  Tl1  1  0.46749300  0.50751600  0.75822800  1
  Tl  Tl2  1  0.47675400  0.61972900  0.30412000  1
  Tl  Tl3  1  0.96677400  0.08695700  0.28732900  1
  O  O0  1  0.11374600  0.44802200  0.18264300  1
  O  O1  1  0.22738700  0.25416300  0.56621600  1
  O  O2  1  0.30388500  0.20256200  0.92213000  1
  O  O3  1  0.21224900  0.73331800  0.91767900  1
  O  O4  1  0.27025600  0.73466800  0.56407600  1
  O  O5  1  0.39525000  0.03358600  0.30275900  1
  O  O6  1  0.61092500  0.97078900  0.73367200  1
  O  O7  1  0.77569300  0.15384000  0.03575000  1
  O  O8  1  0.73628600  0.30926300  0.46472000  1
  O  O9  1  0.67325000  0.65140000  0.01959000  1
  O  O10  1  0.79706000  0.80240500  0.46526800  1
  O  O11  1  0.88460100  0.46636200  0.75958500  1
loop_
_geom_bond_atom_site_label_1
_geom_bond_atom_site_label_2
_geom_bond_distance
_geom_bond_site_symmetry_2
Li0 O2 1.886708 1_554
Li0 O5 2.029951 1_555
Li0 O7 2.080346 1_555
Li0 O0 2.137369 1_555
Li0 O9 2.310723 1_555
Li0 Tl2 2.577528 1_555
Al0 O0 1.848913 1_656
Al0 O9 1.849259 1_556
Al0 O3 1.931070 1_655
Al0 O11 1.972503 1_555
Al0 O7 1.981349 1_556
Al1 O11 1.854217 1_555
Al1 O8 1.867353 1_555
Al1 O4 1.894911 1_655
Al1 O10 1.913159 1_555
Al1 O1 2.008251 1_655
Al2 O9 1.838153 1_556
Al2 O6 1.857218 1_555
Al2 O2 1.891214 1_565
Al2 O7 1.909474 1_566
Al2 O3 1.992200 1_555
Al3 O5 1.897364 1_555
Al3 O8 1.905417 1_555
Al3 O6 1.935780 1_545
Al3 O1 1.957065 1_555
Al3 O4 2.008306 1_545
Al3 O10 2.217601 1_545
O0 Tl3 2.177357 1_455
O0 Tl2 2.355176 1_555
O1 Tl0 2.228537 1_555
O1 Tl1 2.545280 1_555
O2 Tl1 2.197399 1_555
O2 Tl0 2.326468 1_555
O3 Tl0 2.188042 1_565
O3 Tl1 2.436259 1_555
O4 Tl1 2.214783 1_555
O4 Tl2 2.668977 1_555
O4 Tl0 2.765457 1_565
O5 Tl3 2.291177 1_455
O5 Tl2 2.329352 1_545
O6 Tl0 2.174563 1_665
O6 Tl1 2.591589 1_555
O7 Tl3 2.343848 1_555
O8 Tl3 2.453149 1_555
O8 Tl2 2.490880 1_555
O9 Tl1 2.646120 1_554
O9 Tl2 2.659949 1_555
O10 Tl3 2.209845 1_565
O10 Tl2 2.401506 1_555
O11 Tl1 2.222287 1_555
O11 Tl0 2.644300 1_655
