# generated using pymatgen
data_Cs2AlHgF6
_symmetry_space_group_name_H-M   'P 1'
_cell_length_a   6.42114476
_cell_length_b   6.42114476
_cell_length_c   6.42114476
_cell_angle_alpha   60.00000000
_cell_angle_beta   60.00000000
_cell_angle_gamma   60.00000000
_symmetry_Int_Tables_number   1
_chemical_formula_structural   Cs2AlHgF6
_chemical_formula_sum   'Cs2 Al1 Hg1 F6'
_cell_volume   187.20712943
_cell_formula_units_Z   1
loop_
 _symmetry_equiv_pos_site_id
 _symmetry_equiv_pos_as_xyz
  1  'x, y, z'
loop_
 _atom_site_type_symbol
 _atom_site_label
 _atom_site_symmetry_multiplicity
 _atom_site_fract_x
 _atom_site_fract_y
 _atom_site_fract_z
 _atom_site_occupancy
  Cs  Cs0  1  0.25000000  0.25000000  0.25000000  1
  Cs  Cs1  1  0.75000000  0.75000000  0.75000000  1
  Al  Al0  1  0.00000000  0.00000000  0.00000000  1
  Hg  Hg0  1  0.50000000  0.50000000  0.50000000  1
  F  F0  1  0.20409700  0.20409700  0.79590300  1
  F  F1  1  0.20409700  0.79590300  0.79590300  1
  F  F2  1  0.79590300  0.79590300  0.20409700  1
  F  F3  1  0.20409700  0.79590300  0.20409700  1
  F  F4  1  0.79590300  0.20409700  0.79590300  1
  F  F5  1  0.79590300  0.20409700  0.20409700  1
loop_
_geom_bond_atom_site_label_1
_geom_bond_atom_site_label_2
_geom_bond_distance
_geom_bond_site_symmetry_2
Cs0 F5 3.237519 1_555
Cs0 F3 3.237519 1_555
Cs0 F0 3.237519 1_555
Cs0 F4 3.237519 1_455
Cs0 F1 3.237519 1_554
Cs0 F2 3.237519 1_455
Cs0 F1 3.237519 1_545
Cs0 F2 3.237519 1_545
Cs0 F4 3.237519 1_554
Cs0 F3 3.237519 1_545
Cs0 F5 3.237519 1_455
Cs0 F0 3.237519 1_554
Cs1 F1 3.237519 1_655
Cs1 F4 3.237519 1_565
Cs1 F2 3.237519 1_556
Cs1 F3 3.237519 1_655
Cs1 F5 3.237519 1_556
Cs1 F3 3.237519 1_556
Cs1 F0 3.237519 1_655
Cs1 F0 3.237519 1_565
Cs1 F5 3.237519 1_565
Cs1 F2 3.237519 1_555
Cs1 F1 3.237519 1_555
Cs1 F4 3.237519 1_555
Al0 F3 1.853378 1_545
Al0 F5 1.853378 1_455
Al0 F0 1.853378 1_554
Al0 F2 1.853378 1_445
Al0 F4 1.853378 1_454
Al0 F1 1.853378 1_544
