# generated using pymatgen
data_Dy3Bi(Ru2O7)2
_symmetry_space_group_name_H-M   'P 1'
_cell_length_a   7.29217303
_cell_length_b   7.29217303
_cell_length_c   7.26131804
_cell_angle_alpha   90.00000000
_cell_angle_beta   59.85933686
_cell_angle_gamma   120.00000000
_symmetry_Int_Tables_number   1
_chemical_formula_structural   Dy3Bi(Ru2O7)2
_chemical_formula_sum   'Dy3 Bi1 Ru4 O14'
_cell_volume   272.45058753
_cell_formula_units_Z   1
loop_
 _symmetry_equiv_pos_site_id
 _symmetry_equiv_pos_as_xyz
  1  'x, y, z'
loop_
 _atom_site_type_symbol
 _atom_site_label
 _atom_site_symmetry_multiplicity
 _atom_site_fract_x
 _atom_site_fract_y
 _atom_site_fract_z
 _atom_site_occupancy
  Dy  Dy0  1  0.25000000  0.37500000  0.37500000  1
  Dy  Dy1  1  0.25000000  0.87500000  0.37500000  1
  Dy  Dy2  1  0.75000000  0.37500000  0.37500000  1
  Bi  Bi0  1  0.75000000  0.37500000  0.87500000  1
  Ru  Ru0  1  0.75000000  0.87500000  0.37500000  1
  Ru  Ru1  1  0.25000000  0.87500000  0.87500000  1
  Ru  Ru2  1  0.25000000  0.37500000  0.87500000  1
  Ru  Ru3  1  0.75000000  0.87500000  0.87500000  1
  O  O0  1  0.92011300  0.96005700  0.53991100  1
  O  O1  1  0.50003200  0.53997500  0.53991100  1
  O  O2  1  0.50003200  0.96005700  0.53991100  1
  O  O3  1  0.08395100  0.54197600  0.95940200  1
  O  O4  1  0.49862200  0.95664700  0.95940200  1
  O  O5  1  0.49862200  0.54197600  0.95940200  1
  O  O6  1  0.57988700  0.78994300  0.21008900  1
  O  O7  1  0.99996800  0.21002500  0.21008900  1
  O  O8  1  0.99996800  0.78994300  0.21008900  1
  O  O9  1  0.41604900  0.20802400  0.79059800  1
  O  O10  1  0.00137800  0.79335300  0.79059800  1
  O  O11  1  0.00137800  0.20802400  0.79059800  1
  O  O12  1  0.49124300  0.24562100  0.26313600  1
  O  O13  1  0.00875700  0.50437900  0.48686400  1
loop_
_geom_bond_atom_site_label_1
_geom_bond_atom_site_label_2
_geom_bond_distance
_geom_bond_site_symmetry_2
Dy0 O12 2.206655 1_555
Dy0 O13 2.206655 1_555
Dy0 O11 2.484869 1_555
Dy0 O5 2.484869 1_554
Dy0 O7 2.490923 1_455
Dy0 O1 2.490923 1_555
Dy0 O6 2.490924 1_555
Dy0 O0 2.490924 1_445
Dy1 O13 2.206649 1_555
Dy1 O12 2.206649 1_565
Dy1 O10 2.484868 1_555
Dy1 O4 2.484868 1_554
Dy1 O8 2.490923 1_455
Dy1 O2 2.490923 1_555
Dy1 O0 2.490929 1_455
Dy1 O6 2.490929 1_555
Dy2 O13 2.206649 1_655
Dy2 O12 2.206649 1_555
Dy2 O3 2.484868 1_654
Dy2 O9 2.484868 1_555
Dy2 O1 2.490923 1_555
Dy2 O2 2.490923 1_545
Dy2 O7 2.490923 1_555
Dy2 O8 2.490923 1_555
Bi0 O13 2.296292 1_655
Bi0 O12 2.296292 1_556
Bi0 O3 2.514395 1_655
Bi0 O10 2.514395 1_655
Bi0 O4 2.514395 1_545
Bi0 O9 2.514395 1_555
Bi0 O5 2.514401 1_555
Bi0 O11 2.514401 1_655
O0 Ru3 2.010806 1_555
O0 Ru0 2.019857 1_555
O1 Ru2 2.010805 1_555
O1 Ru0 2.019863 1_555
O2 Ru1 2.010805 1_555
O2 Ru0 2.019863 1_555
O3 Ru1 2.013322 1_555
O3 Ru2 2.013328 1_555
O4 Ru1 2.013322 1_555
O4 Ru3 2.013328 1_555
O5 Ru3 2.013323 1_555
O5 Ru2 2.013323 1_555
O6 Ru3 2.010806 1_554
O6 Ru0 2.019857 1_555
O7 Ru2 2.010805 1_654
O7 Ru0 2.019863 1_545
O8 Ru1 2.010805 1_654
O8 Ru0 2.019863 1_555
O9 Ru1 2.013322 1_545
O9 Ru2 2.013328 1_555
O10 Ru1 2.013322 1_555
O10 Ru3 2.013328 1_455
O11 Ru2 2.013323 1_555
O11 Ru3 2.013323 1_445
