# generated using pymatgen
data_NaSrPrNbO6
_symmetry_space_group_name_H-M   'P 1'
_cell_length_a   8.50932683
_cell_length_b   8.53077322
_cell_length_c   8.51533378
_cell_angle_alpha   90.00000000
_cell_angle_beta   90.00000000
_cell_angle_gamma   90.00000000
_symmetry_Int_Tables_number   1
_chemical_formula_structural   NaSrPrNbO6
_chemical_formula_sum   'Na4 Sr4 Pr4 Nb4 O24'
_cell_volume   618.13776479
_cell_formula_units_Z   4
loop_
 _symmetry_equiv_pos_site_id
 _symmetry_equiv_pos_as_xyz
  1  'x, y, z'
loop_
 _atom_site_type_symbol
 _atom_site_label
 _atom_site_symmetry_multiplicity
 _atom_site_fract_x
 _atom_site_fract_y
 _atom_site_fract_z
 _atom_site_occupancy
  Na  Na0  1  0.00000000  -0.00000000  -0.00000000  1
  Na  Na1  1  0.50000000  0.50000000  0.50000000  1
  Na  Na2  1  0.00000000  0.50000000  0.50000000  1
  Na  Na3  1  0.50000000  -0.00000000  -0.00000000  1
  Sr  Sr0  1  0.50000000  0.00000000  0.50000000  1
  Sr  Sr1  1  0.50000000  0.50000000  -0.00000000  1
  Sr  Sr2  1  0.00000000  0.50000000  -0.00000000  1
  Sr  Sr3  1  0.00000000  -0.00000000  0.50000000  1
  Pr  Pr0  1  0.25000000  0.25000000  0.25000000  1
  Pr  Pr1  1  0.75000000  0.75000000  0.25000000  1
  Pr  Pr2  1  0.75000000  0.25000000  0.75000000  1
  Pr  Pr3  1  0.25000000  0.75000000  0.75000000  1
  Nb  Nb0  1  0.75000000  0.75000000  0.75000000  1
  Nb  Nb1  1  0.25000000  0.25000000  0.75000000  1
  Nb  Nb2  1  0.25000000  0.75000000  0.25000000  1
  Nb  Nb3  1  0.75000000  0.25000000  0.25000000  1
  O  O0  1  0.97833286  0.19331478  0.27658414  1
  O  O1  1  0.02166714  0.80668522  0.27658414  1
  O  O2  1  0.02166714  0.19331478  0.72341586  1
  O  O3  1  0.97833286  0.80668522  0.72341586  1
  O  O4  1  0.30205405  0.97708526  0.20821764  1
  O  O5  1  0.30205405  0.02291474  0.79178236  1
  O  O6  1  0.69794595  0.02291474  0.20821764  1
  O  O7  1  0.69794595  0.97708526  0.79178236  1
  O  O8  1  0.21524117  0.29910997  0.98020679  1
  O  O9  1  0.78475883  0.29910997  0.01979321  1
  O  O10  1  0.21524117  0.70089003  0.01979321  1
  O  O11  1  0.78475883  0.70089003  0.98020679  1
  O  O12  1  0.52166714  0.30668522  0.22341586  1
  O  O13  1  0.47833286  0.69331478  0.22341586  1
  O  O14  1  0.47833286  0.30668522  0.77658414  1
  O  O15  1  0.52166714  0.69331478  0.77658414  1
  O  O16  1  0.19794595  0.52291474  0.29178236  1
  O  O17  1  0.19794595  0.47708526  0.70821764  1
  O  O18  1  0.80205405  0.47708526  0.29178236  1
  O  O19  1  0.80205405  0.52291474  0.70821764  1
  O  O20  1  0.28475883  0.20089003  0.51979321  1
  O  O21  1  0.71524117  0.20089003  0.48020679  1
  O  O22  1  0.28475883  0.79910997  0.48020679  1
  O  O23  1  0.71524117  0.79910997  0.51979321  1
loop_
_geom_bond_atom_site_label_1
_geom_bond_atom_site_label_2
_geom_bond_distance
_geom_bond_site_symmetry_2
Na0 O0 2.881076 1_455
Na0 O2 2.881076 1_554
Na0 O1 2.881076 1_545
Na0 O3 2.881076 1_444
Na1 O15 2.881076 1_555
Na1 O12 2.881076 1_555
Na1 O14 2.881076 1_555
Na1 O13 2.881076 1_555
Na2 O17 2.453376 1_555
Na2 O16 2.453376 1_555
Na2 O18 2.453376 1_455
Na2 O19 2.453376 1_455
Na3 O5 2.453376 1_554
Na3 O7 2.453376 1_544
Na3 O6 2.453376 1_555
Na3 O4 2.453376 1_545
Nb0 O15 2.014987 1_555
Nb0 O3 2.014987 1_555
Nb0 O19 2.018807 1_555
Nb0 O7 2.018807 1_555
Nb0 O11 2.026259 1_555
Nb0 O23 2.026259 1_555
Nb1 O2 2.014987 1_555
Nb1 O14 2.014987 1_555
Nb1 O5 2.018807 1_555
Nb1 O17 2.018807 1_555
Nb1 O20 2.026259 1_555
Nb1 O8 2.026259 1_555
Nb2 O1 2.014987 1_555
Nb2 O13 2.014987 1_555
Nb2 O16 2.018807 1_555
Nb2 O4 2.018807 1_555
Nb2 O10 2.026259 1_555
Nb2 O22 2.026259 1_555
Nb3 O12 2.014987 1_555
Nb3 O0 2.014987 1_555
Nb3 O18 2.018807 1_555
Nb3 O6 2.018807 1_555
Nb3 O9 2.026259 1_555
Nb3 O21 2.026259 1_555
O0 Pr0 2.372564 1_655
O0 Sr3 2.524473 1_655
O1 Pr1 2.372564 1_455
O1 Sr3 2.524473 1_565
O2 Pr2 2.372564 1_455
O2 Sr3 2.524473 1_555
O3 Pr3 2.372564 1_655
O3 Sr3 2.524473 1_665
O4 Pr0 2.396493 1_565
O4 Sr0 3.008111 1_565
O5 Pr3 2.396493 1_545
O5 Sr0 3.008111 1_555
O6 Pr1 2.396493 1_545
O6 Sr0 3.008111 1_555
O7 Pr2 2.396493 1_565
O7 Sr0 3.008111 1_565
O8 Pr0 2.353922 1_556
O8 Sr2 2.513949 1_556
O8 Sr1 2.972672 1_556
O9 Pr2 2.353922 1_554
O9 Sr2 2.513949 1_655
O9 Sr1 2.972672 1_555
O10 Pr3 2.353922 1_554
O10 Sr2 2.513949 1_555
O10 Sr1 2.972672 1_555
O11 Pr1 2.353922 1_556
O11 Sr2 2.513949 1_656
O11 Sr1 2.972672 1_556
O12 Pr0 2.372564 1_555
O12 Sr1 2.524473 1_555
O13 Pr1 2.372564 1_555
O13 Sr1 2.524473 1_555
O14 Pr2 2.372564 1_555
O14 Sr1 2.524473 1_556
O15 Pr3 2.372564 1_555
O15 Sr1 2.524473 1_556
O16 Pr0 2.396493 1_555
O16 Sr2 3.008111 1_555
O17 Pr3 2.396493 1_555
O17 Sr2 3.008111 1_556
O18 Pr1 2.396493 1_555
O18 Sr2 3.008111 1_655
O19 Pr2 2.396493 1_555
O19 Sr2 3.008111 1_656
O20 Pr0 2.353922 1_555
O20 Sr0 2.513949 1_555
O20 Sr3 2.972672 1_555
O21 Pr2 2.353922 1_555
O21 Sr0 2.513949 1_555
O21 Sr3 2.972672 1_655
O22 Pr3 2.353922 1_555
O22 Sr0 2.513949 1_565
O22 Sr3 2.972672 1_565
O23 Pr1 2.353922 1_555
O23 Sr0 2.513949 1_565
O23 Sr3 2.972672 1_665
