# generated using pymatgen
data_Cd2Cu10Sb4S13
_symmetry_space_group_name_H-M   'P 1'
_cell_length_a   9.16806297
_cell_length_b   9.16806297
_cell_length_c   9.16806297
_cell_angle_alpha   110.91516884
_cell_angle_beta   110.91516884
_cell_angle_gamma   106.62038893
_symmetry_Int_Tables_number   1
_chemical_formula_structural   Cd2Cu10Sb4S13
_chemical_formula_sum   'Cd2 Cu10 Sb4 S13'
_cell_volume   592.11876592
_cell_formula_units_Z   1
loop_
 _symmetry_equiv_pos_site_id
 _symmetry_equiv_pos_as_xyz
  1  'x, y, z'
loop_
 _atom_site_type_symbol
 _atom_site_label
 _atom_site_symmetry_multiplicity
 _atom_site_fract_x
 _atom_site_fract_y
 _atom_site_fract_z
 _atom_site_occupancy
  Cd  Cd0  1  0.76747600  0.76747600  0.00000000  1
  Cd  Cd1  1  0.23252400  0.23252400  0.00000000  1
  Cu  Cu0  1  0.50000000  0.76152500  0.26152500  1
  Cu  Cu1  1  0.23847500  0.50000000  0.73847500  1
  Cu  Cu2  1  0.75000000  0.25000000  0.50000000  1
  Cu  Cu3  1  0.76152500  0.50000000  0.26152500  1
  Cu  Cu4  1  0.50000000  0.23847500  0.73847500  1
  Cu  Cu5  1  0.25000000  0.75000000  0.50000000  1
  Cu  Cu6  1  0.00000000  0.77529700  0.77529700  1
  Cu  Cu7  1  0.77529700  0.00000000  0.77529700  1
  Cu  Cu8  1  0.00000000  0.22470300  0.22470300  1
  Cu  Cu9  1  0.22470300  0.00000000  0.22470300  1
  Sb  Sb0  1  0.47040800  0.47040800  0.45582700  1
  Sb  Sb1  1  0.01458100  0.01458100  0.54417300  1
  Sb  Sb2  1  0.98541900  0.52959200  0.00000000  1
  Sb  Sb3  1  0.52959200  0.98541900  0.00000000  1
  S  S0  1  0.00000000  0.00000000  0.00000000  1
  S  S1  1  0.48890700  0.48890700  0.74112800  1
  S  S2  1  0.77257200  0.51847800  0.52604300  1
  S  S3  1  0.51847800  0.77257200  0.52604300  1
  S  S4  1  0.74777900  0.74777900  0.25887200  1
  S  S5  1  0.99243400  0.24652900  0.47395700  1
  S  S6  1  0.24652900  0.99243400  0.47395700  1
  S  S7  1  0.25222100  0.51109300  0.00000000  1
  S  S8  1  0.00756600  0.48152200  0.25409500  1
  S  S9  1  0.75347100  0.22742800  0.74590500  1
  S  S10  1  0.51109300  0.25222100  0.00000000  1
  S  S11  1  0.22742800  0.75347100  0.74590500  1
  S  S12  1  0.48152200  0.00756600  0.25409500  1
loop_
_geom_bond_atom_site_label_1
_geom_bond_atom_site_label_2
_geom_bond_distance
_geom_bond_site_symmetry_2
Cd0 S1 2.508262 1_554
Cd0 S4 2.508262 1_555
Cd0 S0 2.547420 1_665
Cd1 S10 2.508262 1_555
Cd1 S7 2.508262 1_555
Cd1 S0 2.547420 1_555
Cu0 S4 2.319033 1_555
Cu0 S7 2.319033 1_555
Cu0 S3 2.332735 1_555
Cu0 S12 2.332741 1_565
Cu1 S1 2.319033 1_555
Cu1 S7 2.319033 1_556
Cu1 S5 2.332738 1_455
Cu1 S11 2.332738 1_555
Cu2 S5 2.326398 1_555
Cu2 S9 2.326398 1_555
Cu2 S12 2.326402 1_555
Cu2 S2 2.326407 1_555
Cu3 S4 2.319033 1_555
Cu3 S10 2.319033 1_555
Cu3 S2 2.332735 1_555
Cu3 S8 2.332741 1_655
Cu4 S1 2.319033 1_555
Cu4 S10 2.319033 1_556
Cu4 S6 2.332738 1_545
Cu4 S9 2.332738 1_555
Cu5 S6 2.326398 1_555
Cu5 S11 2.326398 1_555
Cu5 S8 2.326402 1_555
Cu5 S3 2.326407 1_555
Cu6 S2 2.249779 1_455
Cu6 S11 2.249782 1_555
Cu6 S0 2.336210 1_566
Cu7 S3 2.249779 1_545
Cu7 S9 2.249782 1_555
Cu7 S0 2.336210 1_656
Cu8 S8 2.249773 1_555
Cu8 S5 2.249782 1_455
Cu8 S0 2.336210 1_555
Cu9 S12 2.249773 1_555
Cu9 S6 2.249782 1_545
Cu9 S0 2.336210 1_555
S1 Sb0 2.499856 1_555
S2 Sb0 2.471587 1_555
S3 Sb0 2.471587 1_555
S4 Sb1 2.499856 1_665
S5 Sb1 2.471589 1_655
S6 Sb1 2.471589 1_565
S7 Sb2 2.499856 1_455
S8 Sb2 2.471594 1_455
S9 Sb2 2.471589 1_556
S10 Sb3 2.499856 1_545
S11 Sb3 2.471589 1_556
S12 Sb3 2.471594 1_545
