# generated using pymatgen
data_Nd4AlSi5(NO)7
_symmetry_space_group_name_H-M   'P 1'
_cell_length_a   6.85889571
_cell_length_b   6.78609831
_cell_length_c   21.09361075
_cell_angle_alpha   88.45883141
_cell_angle_beta   91.83310000
_cell_angle_gamma   88.89338651
_symmetry_Int_Tables_number   1
_chemical_formula_structural   Nd4AlSi5(NO)7
_chemical_formula_sum   'Nd12 Al3 Si15 N21 O21'
_cell_volume   980.74768698
_cell_formula_units_Z   3
loop_
 _symmetry_equiv_pos_site_id
 _symmetry_equiv_pos_as_xyz
  1  'x, y, z'
loop_
 _atom_site_type_symbol
 _atom_site_label
 _atom_site_symmetry_multiplicity
 _atom_site_fract_x
 _atom_site_fract_y
 _atom_site_fract_z
 _atom_site_occupancy
  Nd  Nd0  1  0.43154200  0.24498600  0.23486600  1
  Nd  Nd1  1  0.40941600  0.40215800  0.58781700  1
  Nd  Nd2  1  0.33641200  0.67484300  0.03965700  1
  Nd  Nd3  1  0.41205000  0.28537300  0.93330100  1
  Nd  Nd4  1  0.33901800  0.74046800  0.42768300  1
  Nd  Nd5  1  0.27451400  0.74557100  0.74258700  1
  Nd  Nd6  1  0.62182900  0.11844900  0.08669200  1
  Nd  Nd7  1  0.70620500  0.26918300  0.40512600  1
  Nd  Nd8  1  0.58189900  0.88890900  0.59353800  1
  Nd  Nd9  1  0.57410200  0.25529200  0.75840000  1
  Nd  Nd10  1  0.68264700  0.70495600  0.20658700  1
  Nd  Nd11  1  0.65077500  0.81476700  0.88467900  1
  Al  Al0  1  0.87507800  0.89851500  0.00914300  1
  Al  Al1  1  0.09961400  0.02486100  0.32290600  1
  Al  Al2  1  0.12085700  0.90285700  0.55428300  1
  Si  Si0  1  0.10396000  0.50616500  0.16433600  1
  Si  Si1  1  0.98749800  0.04977700  0.65994000  1
  Si  Si2  1  0.91424400  0.55332500  0.49672200  1
  Si  Si3  1  0.88695700  0.45480600  0.83870300  1
  Si  Si4  1  0.79488200  0.51201700  0.06275600  1
  Si  Si5  1  0.89025900  0.33005800  0.27385400  1
  Si  Si6  1  0.81674600  0.71676200  0.36246900  1
  Si  Si7  1  0.88845400  0.43363900  0.63220700  1
  Si  Si8  1  0.75693600  0.64347100  0.70628800  1
  Si  Si9  1  0.85946700  0.31434000  0.96688800  1
  Si  Si10  1  0.23680100  0.21169300  0.45752200  1
  Si  Si11  1  0.17575600  0.05576000  0.10878300  1
  Si  Si12  1  0.25586900  0.84158100  0.19332000  1
  Si  Si13  1  0.16519800  0.14020400  0.80688800  1
  Si  Si14  1  0.14378100  0.75649300  0.89142900  1
  N  N0  1  0.75383900  0.50357800  0.31581400  1
  N  N1  1  0.52117300  0.61836200  0.67214900  1
  N  N2  1  0.33894200  0.59391900  0.18563100  1
  N  N3  1  0.27097800  0.37540000  0.82071300  1
  N  N4  1  0.13074100  0.67209200  0.51070300  1
  N  N5  1  0.12926000  0.54474200  0.83112300  1
  N  N6  1  0.83395400  0.09712300  0.31528300  1
  N  N7  1  0.74930500  0.63468800  0.43677600  1
  N  N8  1  0.69346500  0.94696200  0.34081100  1
  N  N9  1  0.69159000  0.74278100  0.04718700  1
  N  N10  1  0.72817300  0.08864500  0.96096600  1
  N  N11  1  0.72471500  0.41348400  0.14447500  1
  N  N12  1  0.88938300  0.36958000  0.19156700  1
  N  N13  1  0.58574000  0.16732200  0.65038100  1
  N  N14  1  0.78170000  0.22629500  0.66774500  1
  N  N15  1  0.73240400  0.58333900  0.78487800  1
  N  N16  1  0.77319900  0.50323300  0.56050700  1
  N  N17  1  0.75152100  0.46443200  0.90497100  1
  N  N18  1  0.50127400  0.97715700  0.17909300  1
  N  N19  1  0.32032800  0.05429600  0.51810000  1
  N  N20  1  0.39535400  0.00005100  0.81871700  1
  O  O0  1  0.50046400  0.39492400  0.03044800  1
  O  O1  1  0.31964100  0.02326900  0.04782900  1
  O  O2  1  0.25554800  0.94739200  0.26494400  1
  O  O3  1  0.22086300  0.27097300  0.14386600  1
  O  O4  1  0.19000100  0.89387100  0.63756800  1
  O  O5  1  0.24270600  0.07868100  0.39360300  1
  O  O6  1  0.39493000  0.39050700  0.44819800  1
  O  O7  1  0.12516300  0.07195300  0.73153200  1
  O  O8  1  0.36800100  0.68809700  0.92272300  1
  O  O9  1  0.01567600  0.73066900  0.19870100  1
  O  O10  1  0.89456600  0.00445100  0.57722000  1
  O  O11  1  0.04098400  0.76175900  0.96417800  1
  O  O12  1  0.95833600  0.04429900  0.07449100  1
  O  O13  1  0.00971200  0.31791800  0.46364400  1
  O  O14  1  0.92077500  0.21602000  0.81770500  1
  O  O15  1  0.03709000  0.56076100  0.08813900  1
  O  O16  1  0.05374100  0.76918600  0.35958500  1
  O  O17  1  0.83986700  0.86794800  0.69381300  1
  O  O18  1  0.12442100  0.29999300  0.29130300  1
  O  O19  1  0.10562500  0.31195900  0.63047600  1
  O  O20  1  0.09208900  0.28661100  0.95307300  1
loop_
_geom_bond_atom_site_label_1
_geom_bond_atom_site_label_2
_geom_bond_distance
_geom_bond_site_symmetry_2
Nd0 O3 2.366061 1_555
Nd0 O2 2.452001 1_545
Nd0 O18 2.479494 1_555
Nd1 O19 2.380260 1_555
Nd1 O6 2.946805 1_555
Nd2 O0 2.205320 1_555
Nd2 O1 2.376188 1_565
Nd2 O15 2.452180 1_555
Nd2 O8 2.482330 1_554
Nd2 O11 2.585654 1_554
Nd3 O20 2.246825 1_555
Nd3 O0 2.267030 1_556
Nd3 O8 2.746077 1_555
Nd3 O1 3.051538 1_556
Nd4 O16 2.391722 1_555
Nd4 O6 2.423481 1_555
Nd4 O5 2.458285 1_565
Nd5 O7 2.424591 1_565
Nd5 O4 2.455901 1_555
Nd6 O1 2.314448 1_555
Nd6 O0 2.318900 1_555
Nd6 O12 2.376282 1_555
Nd7 O13 2.418830 1_655
Nd7 O6 2.481527 1_555
Nd8 O10 2.330238 1_565
Nd8 O17 2.712839 1_555
Nd8 O4 2.871740 1_555
Nd9 O14 2.656523 1_555
Nd10 O9 2.305186 1_655
Nd11 O8 2.295970 1_555
Al0 O11 1.769564 1_654
Al0 O12 1.802693 1_565
Al0 N9 1.848004 1_555
Al0 N10 1.877886 1_564
Al1 O2 1.735400 1_545
Al1 O5 1.808311 1_555
Al1 N6 1.878563 1_455
Al1 O16 1.916350 1_545
Al1 O18 1.977846 1_555
Al2 O10 1.772874 1_465
Al2 O4 1.804088 1_555
Al2 N4 1.838285 1_555
Al2 N19 1.894573 1_565
N0 Si5 1.764071 1_555
N0 Si6 1.822388 1_555
N0 Nd7 2.466623 1_555
N0 Nd10 2.673428 1_555
N1 Si8 1.762178 1_555
N1 Nd5 2.447120 1_555
N1 Nd1 2.449724 1_555
N1 Nd8 2.490740 1_555
N2 Si12 1.777404 1_555
N2 Si0 1.777407 1_555
N2 Nd10 2.518043 1_555
N2 Nd0 2.618457 1_555
N3 N5 1.515828 1_555
N3 Si13 1.793067 1_555
N3 Nd3 2.588761 1_555
N3 Nd9 2.623288 1_555
N4 Si2 1.724113 1_455
N4 Nd4 2.337664 1_555
N4 Nd1 3.026614 1_555
N5 Si3 1.791924 1_455
N5 Si14 1.946457 1_555
N5 Nd5 2.524325 1_555
N6 N8 1.516069 1_545
N6 Si5 1.839120 1_555
N6 Nd7 2.430696 1_555
N7 Si6 1.729251 1_555
N7 Si2 1.740804 1_555
N7 Nd7 2.605766 1_555
N7 Nd4 2.889871 1_555
N8 Si6 1.802753 1_555
N8 Nd7 2.605529 1_565
N9 Si4 1.725310 1_555
N9 Nd2 2.488990 1_555
N9 Nd6 2.741357 1_565
N10 Si9 1.796857 1_555
N10 Nd11 2.543586 1_545
N10 Nd3 2.566996 1_555
N10 Nd6 2.784426 1_556
N11 N12 1.500145 1_555
N11 Si4 1.911422 1_555
N11 Nd10 2.419431 1_555
N11 Nd6 2.474460 1_555
N11 Nd0 3.033674 1_555
N12 Si5 1.748987 1_555
N12 Si0 1.852906 1_655
N13 N14 1.448447 1_555
N13 Nd8 2.264886 1_545
N13 Nd1 2.335418 1_555
N13 Nd9 2.374304 1_555
N14 Si7 1.759562 1_555
N14 Si1 1.847870 1_555
N14 Nd9 2.430324 1_555
N15 Si8 1.710866 1_555
N15 Si3 1.734243 1_555
N15 Nd9 2.562827 1_555
N15 Nd11 2.725970 1_555
N16 Si2 1.712619 1_555
N16 Si7 1.733789 1_555
N16 Nd1 2.676733 1_555
N16 Nd8 3.013458 1_555
N17 Si3 1.704926 1_555
N17 Si9 1.768849 1_555
N17 Nd11 2.485086 1_555
N17 Nd3 2.722916 1_555
N18 Si12 1.961373 1_555
N18 Nd0 2.243567 1_565
N18 Nd10 2.259085 1_555
N18 Nd6 2.331339 1_565
N19 Si10 1.719881 1_555
N19 Nd8 2.579536 1_545
N19 Nd1 2.879845 1_555
N19 Nd4 2.900515 1_545
N20 Si13 1.833823 1_555
N20 Nd9 2.487023 1_555
N20 Nd11 2.500183 1_545
N20 Nd5 2.523354 1_545
N20 Nd3 3.137914 1_555
O0 Si4 2.275258 1_555
O1 Si11 1.662444 1_555
O2 Si12 1.690160 1_555
O3 Si11 1.684409 1_555
O3 Si0 1.840240 1_555
O4 Si1 1.811974 1_465
O5 Si10 1.643714 1_555
O6 Si10 1.655029 1_555
O7 Si13 1.683185 1_555
O7 Si1 1.766694 1_455
O8 Si14 1.705083 1_555
O9 Si0 1.806944 1_555
O9 Si12 1.829963 1_555
O10 Si1 1.873697 1_555
O11 Si14 1.710092 1_555
O12 Si11 1.640618 1_655
O13 Si10 1.713729 1_555
O13 Si2 1.875200 1_455
O14 Si3 1.704824 1_555
O14 Si13 1.767709 1_655
O15 Si0 1.686769 1_555
O15 Si4 1.769120 1_455
O16 Si6 1.673347 1_455
O17 Si8 1.653720 1_555
O17 Si1 1.762243 1_565
O18 Si5 1.643811 1_455
O19 Si7 1.691014 1_455
O19 Si1 2.058316 1_455
O20 Si9 1.639250 1_455
