# generated using pymatgen
data_LaSmS2
_symmetry_space_group_name_H-M   'P 1'
_cell_length_a   7.08673018
_cell_length_b   7.08673018
_cell_length_c   7.08673034
_cell_angle_alpha   33.41270386
_cell_angle_beta   33.41270386
_cell_angle_gamma   33.41269576
_symmetry_Int_Tables_number   1
_chemical_formula_structural   LaSmS2
_chemical_formula_sum   'La1 Sm1 S2'
_cell_volume   96.10672061
_cell_formula_units_Z   1
loop_
 _symmetry_equiv_pos_site_id
 _symmetry_equiv_pos_as_xyz
  1  'x, y, z'
loop_
 _atom_site_type_symbol
 _atom_site_label
 _atom_site_symmetry_multiplicity
 _atom_site_fract_x
 _atom_site_fract_y
 _atom_site_fract_z
 _atom_site_occupancy
  La  La0  1  -0.00000000  -0.00000000  0.00000000  1
  Sm  Sm0  1  0.50000000  0.50000000  0.50000000  1
  S  S0  1  0.24614015  0.24614015  0.24614015  1
  S  S1  1  0.75385985  0.75385985  0.75385985  1
loop_
_geom_bond_atom_site_label_1
_geom_bond_atom_site_label_2
_geom_bond_distance
_geom_bond_site_symmetry_2
La0 S1 2.931093 1_544
La0 S0 2.931093 1_455
La0 S1 2.931093 1_454
La0 S0 2.931093 1_545
La0 S1 2.931094 1_445
La0 S0 2.931094 1_554
S0 Sm0 2.841450 1_545
S0 Sm0 2.841450 1_455
S0 Sm0 2.841451 1_554
S1 Sm0 2.841450 1_655
S1 Sm0 2.841450 1_565
S1 Sm0 2.841451 1_556
