# generated using pymatgen
data_CsMg6B
_symmetry_space_group_name_H-M   'P 1'
_cell_length_a   6.47912400
_cell_length_b   17.47127000
_cell_length_c   29.52575800
_cell_angle_alpha   90.00000000
_cell_angle_beta   90.00000000
_cell_angle_gamma   90.00000000
_symmetry_Int_Tables_number   1
_chemical_formula_structural   CsMg6B
_chemical_formula_sum   'Cs16 Mg96 B16'
_cell_volume   3342.27224824
_cell_formula_units_Z   16
loop_
 _symmetry_equiv_pos_site_id
 _symmetry_equiv_pos_as_xyz
  1  'x, y, z'
loop_
 _atom_site_type_symbol
 _atom_site_label
 _atom_site_symmetry_multiplicity
 _atom_site_fract_x
 _atom_site_fract_y
 _atom_site_fract_z
 _atom_site_occupancy
  Cs  Cs0_0  1  0.00000000  0.00000000  0.08218850  1
  Cs  Cs0_1  1  0.00000000  0.00000000  0.58218850  1
  Cs  Cs0_2  1  0.00000000  0.50000000  0.08218850  1
  Cs  Cs0_3  1  0.00000000  0.50000000  0.58218850  1
  Cs  Cs0_4  1  0.50000000  0.00000000  0.08218850  1
  Cs  Cs0_5  1  0.50000000  0.00000000  0.58218850  1
  Cs  Cs0_6  1  0.50000000  0.50000000  0.08218850  1
  Cs  Cs0_7  1  0.50000000  0.50000000  0.58218850  1
  Cs  Cs1_0  1  0.00000000  0.25000000  0.33218850  1
  Cs  Cs1_1  1  0.00000000  0.25000000  0.83218850  1
  Cs  Cs1_2  1  0.00000000  0.75000000  0.33218850  1
  Cs  Cs1_3  1  0.00000000  0.75000000  0.83218850  1
  Cs  Cs1_4  1  0.50000000  0.25000000  0.33218850  1
  Cs  Cs1_5  1  0.50000000  0.25000000  0.83218850  1
  Cs  Cs1_6  1  0.50000000  0.75000000  0.33218850  1
  Cs  Cs1_7  1  0.50000000  0.75000000  0.83218850  1
  Mg  Mg0_0  1  0.00000000  0.40059750  0.18333500  1
  Mg  Mg0_1  1  0.00000000  0.40059750  0.68333500  1
  Mg  Mg0_2  1  0.00000000  0.90059750  0.18333500  1
  Mg  Mg0_3  1  0.00000000  0.90059750  0.68333500  1
  Mg  Mg0_4  1  0.50000000  0.40059750  0.18333500  1
  Mg  Mg0_5  1  0.50000000  0.40059750  0.68333500  1
  Mg  Mg0_6  1  0.50000000  0.90059750  0.18333500  1
  Mg  Mg0_7  1  0.50000000  0.90059750  0.68333500  1
  Mg  Mg1_0  1  0.00000000  0.09940250  0.18333500  1
  Mg  Mg1_1  1  0.00000000  0.09940250  0.68333500  1
  Mg  Mg1_2  1  0.00000000  0.59940250  0.18333500  1
  Mg  Mg1_3  1  0.00000000  0.59940250  0.68333500  1
  Mg  Mg1_4  1  0.50000000  0.09940250  0.18333500  1
  Mg  Mg1_5  1  0.50000000  0.09940250  0.68333500  1
  Mg  Mg1_6  1  0.50000000  0.59940250  0.18333500  1
  Mg  Mg1_7  1  0.50000000  0.59940250  0.68333500  1
  Mg  Mg2_0  1  0.00000000  0.00000000  0.35597650  1
  Mg  Mg2_1  1  0.00000000  0.00000000  0.85597650  1
  Mg  Mg2_2  1  0.00000000  0.50000000  0.35597650  1
  Mg  Mg2_3  1  0.00000000  0.50000000  0.85597650  1
  Mg  Mg2_4  1  0.50000000  0.00000000  0.35597650  1
  Mg  Mg2_5  1  0.50000000  0.00000000  0.85597650  1
  Mg  Mg2_6  1  0.50000000  0.50000000  0.35597650  1
  Mg  Mg2_7  1  0.50000000  0.50000000  0.85597650  1
  Mg  Mg3_0  1  0.25000000  0.41780950  0.26911300  1
  Mg  Mg3_1  1  0.25000000  0.41780950  0.76911300  1
  Mg  Mg3_2  1  0.25000000  0.91780950  0.26911300  1
  Mg  Mg3_3  1  0.25000000  0.91780950  0.76911300  1
  Mg  Mg3_4  1  0.75000000  0.41780950  0.26911300  1
  Mg  Mg3_5  1  0.75000000  0.41780950  0.76911300  1
  Mg  Mg3_6  1  0.75000000  0.91780950  0.26911300  1
  Mg  Mg3_7  1  0.75000000  0.91780950  0.76911300  1
  Mg  Mg4_0  1  0.25000000  0.08219050  0.26911300  1
  Mg  Mg4_1  1  0.25000000  0.08219050  0.76911300  1
  Mg  Mg4_2  1  0.25000000  0.58219050  0.26911300  1
  Mg  Mg4_3  1  0.25000000  0.58219050  0.76911300  1
  Mg  Mg4_4  1  0.75000000  0.08219050  0.26911300  1
  Mg  Mg4_5  1  0.75000000  0.08219050  0.76911300  1
  Mg  Mg4_6  1  0.75000000  0.58219050  0.26911300  1
  Mg  Mg4_7  1  0.75000000  0.58219050  0.76911300  1
  Mg  Mg5_0  1  0.25000000  0.00000000  0.45648100  1
  Mg  Mg5_1  1  0.25000000  0.00000000  0.95648100  1
  Mg  Mg5_2  1  0.25000000  0.50000000  0.45648100  1
  Mg  Mg5_3  1  0.25000000  0.50000000  0.95648100  1
  Mg  Mg5_4  1  0.75000000  0.00000000  0.45648100  1
  Mg  Mg5_5  1  0.75000000  0.00000000  0.95648100  1
  Mg  Mg5_6  1  0.75000000  0.50000000  0.45648100  1
  Mg  Mg5_7  1  0.75000000  0.50000000  0.95648100  1
  Mg  Mg6_0  1  0.00000000  0.15059750  0.43333500  1
  Mg  Mg6_1  1  0.00000000  0.15059750  0.93333500  1
  Mg  Mg6_2  1  0.00000000  0.65059750  0.43333500  1
  Mg  Mg6_3  1  0.00000000  0.65059750  0.93333500  1
  Mg  Mg6_4  1  0.50000000  0.15059750  0.43333500  1
  Mg  Mg6_5  1  0.50000000  0.15059750  0.93333500  1
  Mg  Mg6_6  1  0.50000000  0.65059750  0.43333500  1
  Mg  Mg6_7  1  0.50000000  0.65059750  0.93333500  1
  Mg  Mg7_0  1  0.00000000  0.34940250  0.43333500  1
  Mg  Mg7_1  1  0.00000000  0.34940250  0.93333500  1
  Mg  Mg7_2  1  0.00000000  0.84940250  0.43333500  1
  Mg  Mg7_3  1  0.00000000  0.84940250  0.93333500  1
  Mg  Mg7_4  1  0.50000000  0.34940250  0.43333500  1
  Mg  Mg7_5  1  0.50000000  0.34940250  0.93333500  1
  Mg  Mg7_6  1  0.50000000  0.84940250  0.43333500  1
  Mg  Mg7_7  1  0.50000000  0.84940250  0.93333500  1
  Mg  Mg8_0  1  0.00000000  0.25000000  0.10597650  1
  Mg  Mg8_1  1  0.00000000  0.25000000  0.60597650  1
  Mg  Mg8_2  1  0.00000000  0.75000000  0.10597650  1
  Mg  Mg8_3  1  0.00000000  0.75000000  0.60597650  1
  Mg  Mg8_4  1  0.50000000  0.25000000  0.10597650  1
  Mg  Mg8_5  1  0.50000000  0.25000000  0.60597650  1
  Mg  Mg8_6  1  0.50000000  0.75000000  0.10597650  1
  Mg  Mg8_7  1  0.50000000  0.75000000  0.60597650  1
  Mg  Mg9_0  1  0.25000000  0.16780950  0.01911300  1
  Mg  Mg9_1  1  0.25000000  0.16780950  0.51911300  1
  Mg  Mg9_2  1  0.25000000  0.66780950  0.01911300  1
  Mg  Mg9_3  1  0.25000000  0.66780950  0.51911300  1
  Mg  Mg9_4  1  0.75000000  0.16780950  0.01911300  1
  Mg  Mg9_5  1  0.75000000  0.16780950  0.51911300  1
  Mg  Mg9_6  1  0.75000000  0.66780950  0.01911300  1
  Mg  Mg9_7  1  0.75000000  0.66780950  0.51911300  1
  Mg  Mg10_0  1  0.25000000  0.33219050  0.01911300  1
  Mg  Mg10_1  1  0.25000000  0.33219050  0.51911300  1
  Mg  Mg10_2  1  0.25000000  0.83219050  0.01911300  1
  Mg  Mg10_3  1  0.25000000  0.83219050  0.51911300  1
  Mg  Mg10_4  1  0.75000000  0.33219050  0.01911300  1
  Mg  Mg10_5  1  0.75000000  0.33219050  0.51911300  1
  Mg  Mg10_6  1  0.75000000  0.83219050  0.01911300  1
  Mg  Mg10_7  1  0.75000000  0.83219050  0.51911300  1
  Mg  Mg11_0  1  0.25000000  0.25000000  0.20648100  1
  Mg  Mg11_1  1  0.25000000  0.25000000  0.70648100  1
  Mg  Mg11_2  1  0.25000000  0.75000000  0.20648100  1
  Mg  Mg11_3  1  0.25000000  0.75000000  0.70648100  1
  Mg  Mg11_4  1  0.75000000  0.25000000  0.20648100  1
  Mg  Mg11_5  1  0.75000000  0.25000000  0.70648100  1
  Mg  Mg11_6  1  0.75000000  0.75000000  0.20648100  1
  Mg  Mg11_7  1  0.75000000  0.75000000  0.70648100  1
  B  B0_0  1  0.25000000  0.00000000  0.20045750  1
  B  B0_1  1  0.25000000  0.00000000  0.70045750  1
  B  B0_2  1  0.25000000  0.50000000  0.20045750  1
  B  B0_3  1  0.25000000  0.50000000  0.70045750  1
  B  B0_4  1  0.75000000  0.00000000  0.20045750  1
  B  B0_5  1  0.75000000  0.00000000  0.70045750  1
  B  B0_6  1  0.75000000  0.50000000  0.20045750  1
  B  B0_7  1  0.75000000  0.50000000  0.70045750  1
  B  B1_0  1  0.25000000  0.25000000  0.45045750  1
  B  B1_1  1  0.25000000  0.25000000  0.95045750  1
  B  B1_2  1  0.25000000  0.75000000  0.45045750  1
  B  B1_3  1  0.25000000  0.75000000  0.95045750  1
  B  B1_4  1  0.75000000  0.25000000  0.45045750  1
  B  B1_5  1  0.75000000  0.25000000  0.95045750  1
  B  B1_6  1  0.75000000  0.75000000  0.45045750  1
  B  B1_7  1  0.75000000  0.75000000  0.95045750  1
loop_
_geom_bond_atom_site_label_1
_geom_bond_atom_site_label_2
_geom_bond_distance
_geom_bond_site_symmetry_2
Cs0_0 Cs0_4 3.239562 1_455
Cs0_0 Cs0_4 3.239562 1_555
Cs0_0 Mg1_0 3.454683 1_555
Cs0_0 Mg0_2 3.454683 1_545
Cs0_0 Mg10_6 3.832461 1_445
Cs0_0 Mg10_2 3.832461 1_545
Cs0_0 Mg9_4 3.832461 1_455
Cs0_0 Mg9_0 3.832461 1_555
Cs0_0 Mg5_5 4.049658 1_454
Cs0_0 Mg5_1 4.049658 1_554
Cs0_0 Mg8_2 4.423928 1_545
Cs0_0 Mg8_0 4.423928 1_555
Cs0_1 Cs0_5 3.239562 1_455
Cs0_1 Cs0_5 3.239562 1_555
Cs0_1 Mg1_1 3.454683 1_555
Cs0_1 Mg0_3 3.454683 1_545
Cs0_1 Mg10_3 3.832461 1_545
Cs0_1 Mg10_7 3.832461 1_445
Cs0_1 Mg9_1 3.832461 1_555
Cs0_1 Mg9_5 3.832461 1_455
Cs0_1 Mg5_4 4.049658 1_455
Cs0_1 Mg5_0 4.049658 1_555
Cs0_1 Mg8_3 4.423928 1_545
Cs0_1 Mg8_1 4.423928 1_555
Cs0_2 Cs0_6 3.239562 1_555
Cs0_2 Cs0_6 3.239562 1_455
Cs0_2 Mg1_2 3.454683 1_555
Cs0_2 Mg0_0 3.454683 1_555
Cs0_2 Mg10_0 3.832461 1_555
Cs0_2 Mg10_4 3.832461 1_455
Cs0_2 Mg9_2 3.832461 1_555
Cs0_2 Mg9_6 3.832461 1_455
Cs0_2 Mg5_7 4.049658 1_454
Cs0_2 Mg5_3 4.049658 1_554
Cs0_2 Mg8_2 4.423928 1_555
Cs0_2 Mg8_0 4.423928 1_555
Cs0_3 Cs0_7 3.239562 1_555
Cs0_3 Cs0_7 3.239562 1_455
Cs0_3 Mg1_3 3.454683 1_555
Cs0_3 Mg0_1 3.454683 1_555
Cs0_3 Mg10_1 3.832461 1_555
Cs0_3 Mg10_5 3.832461 1_455
Cs0_3 Mg9_7 3.832461 1_455
Cs0_3 Mg9_3 3.832461 1_555
Cs0_3 Mg5_6 4.049658 1_455
Cs0_3 Mg5_2 4.049658 1_555
Cs0_3 Mg8_3 4.423928 1_555
Cs0_3 Mg8_1 4.423928 1_555
Cs0_4 Mg1_4 3.454683 1_555
Cs0_4 Mg0_6 3.454683 1_545
Cs0_4 Mg10_6 3.832461 1_545
Cs0_4 Mg10_2 3.832461 1_545
Cs0_4 Mg9_4 3.832461 1_555
Cs0_4 Mg9_0 3.832461 1_555
Cs0_4 Mg5_1 4.049658 1_554
Cs0_4 Mg5_5 4.049658 1_554
Cs0_4 Mg8_4 4.423928 1_555
Cs0_4 Mg8_6 4.423928 1_545
Cs0_5 Mg1_5 3.454683 1_555
Cs0_5 Mg0_7 3.454683 1_545
Cs0_5 Mg10_7 3.832461 1_545
Cs0_5 Mg10_3 3.832461 1_545
Cs0_5 Mg9_1 3.832461 1_555
Cs0_5 Mg9_5 3.832461 1_555
Cs0_5 Mg5_4 4.049658 1_555
Cs0_5 Mg5_0 4.049658 1_555
Cs0_5 Mg8_7 4.423928 1_545
Cs0_5 Mg8_5 4.423928 1_555
Cs0_6 Mg1_6 3.454683 1_555
Cs0_6 Mg0_4 3.454683 1_555
Cs0_6 Mg10_0 3.832461 1_555
Cs0_6 Mg10_4 3.832461 1_555
Cs0_6 Mg9_2 3.832461 1_555
Cs0_6 Mg9_6 3.832461 1_555
Cs0_6 Mg5_3 4.049658 1_554
Cs0_6 Mg5_7 4.049658 1_554
Cs0_6 Mg8_4 4.423928 1_555
Cs0_6 Mg8_6 4.423928 1_555
Cs0_7 Mg1_7 3.454683 1_555
Cs0_7 Mg0_5 3.454683 1_555
Cs0_7 Mg10_5 3.832461 1_555
Cs0_7 Mg10_1 3.832461 1_555
Cs0_7 Mg9_3 3.832461 1_555
Cs0_7 Mg9_7 3.832461 1_555
Cs0_7 Mg5_6 4.049658 1_555
Cs0_7 Mg5_2 4.049658 1_555
Cs0_7 Mg8_7 4.423928 1_555
Cs0_7 Mg8_5 4.423928 1_555
Cs1_0 Cs1_4 3.239562 1_555
Cs1_0 Cs1_4 3.239562 1_455
Cs1_0 Mg6_0 3.454683 1_555
Cs1_0 Mg7_0 3.454683 1_555
Cs1_0 Mg4_0 3.832461 1_555
Cs1_0 Mg3_4 3.832461 1_455
Cs1_0 Mg4_4 3.832461 1_455
Cs1_0 Mg3_0 3.832461 1_555
Cs1_0 Mg11_4 4.049658 1_455
Cs1_0 Mg11_0 4.049658 1_555
Cs1_0 Mg2_0 4.423928 1_555
Cs1_0 Mg2_2 4.423928 1_555
Cs1_1 Cs1_5 3.239562 1_555
Cs1_1 Cs1_5 3.239562 1_455
Cs1_1 Mg7_1 3.454683 1_555
Cs1_1 Mg6_1 3.454683 1_555
Cs1_1 Mg4_5 3.832461 1_455
Cs1_1 Mg4_1 3.832461 1_555
Cs1_1 Mg3_5 3.832461 1_455
Cs1_1 Mg3_1 3.832461 1_555
Cs1_1 Mg11_5 4.049658 1_455
Cs1_1 Mg11_1 4.049658 1_555
Cs1_1 Mg2_3 4.423928 1_555
Cs1_1 Mg2_1 4.423928 1_555
Cs1_2 Cs1_6 3.239562 1_455
Cs1_2 Cs1_6 3.239562 1_555
Cs1_2 Mg6_2 3.454683 1_555
Cs1_2 Mg7_2 3.454683 1_555
Cs1_2 Mg4_6 3.832461 1_455
Cs1_2 Mg4_2 3.832461 1_555
Cs1_2 Mg3_2 3.832461 1_555
Cs1_2 Mg3_6 3.832461 1_455
Cs1_2 Mg11_2 4.049658 1_555
Cs1_2 Mg11_6 4.049658 1_455
Cs1_2 Mg2_0 4.423928 1_565
Cs1_2 Mg2_2 4.423928 1_555
Cs1_3 Cs1_7 3.239562 1_555
Cs1_3 Cs1_7 3.239562 1_455
Cs1_3 Mg6_3 3.454683 1_555
Cs1_3 Mg7_3 3.454683 1_555
Cs1_3 Mg4_7 3.832461 1_455
Cs1_3 Mg4_3 3.832461 1_555
Cs1_3 Mg3_7 3.832461 1_455
Cs1_3 Mg3_3 3.832461 1_555
Cs1_3 Mg11_3 4.049658 1_555
Cs1_3 Mg11_7 4.049658 1_455
Cs1_3 Mg2_3 4.423928 1_555
Cs1_3 Mg2_1 4.423928 1_565
Cs1_4 Mg7_4 3.454683 1_555
Cs1_4 Mg6_4 3.454683 1_555
Cs1_4 Mg3_4 3.832461 1_555
Cs1_4 Mg4_4 3.832461 1_555
Cs1_4 Mg4_0 3.832461 1_555
Cs1_4 Mg3_0 3.832461 1_555
Cs1_4 Mg11_4 4.049658 1_555
Cs1_4 Mg11_0 4.049658 1_555
Cs1_4 Mg2_6 4.423928 1_555
Cs1_4 Mg2_4 4.423928 1_555
Cs1_5 Mg7_5 3.454683 1_555
Cs1_5 Mg6_5 3.454683 1_555
Cs1_5 Mg3_5 3.832461 1_555
Cs1_5 Mg4_1 3.832461 1_555
Cs1_5 Mg3_1 3.832461 1_555
Cs1_5 Mg4_5 3.832461 1_555
Cs1_5 Mg11_5 4.049658 1_555
Cs1_5 Mg11_1 4.049658 1_555
Cs1_5 Mg2_7 4.423928 1_555
Cs1_5 Mg2_5 4.423928 1_555
Cs1_6 Mg6_6 3.454683 1_555
Cs1_6 Mg7_6 3.454683 1_555
Cs1_6 Mg4_6 3.832461 1_555
Cs1_6 Mg4_2 3.832461 1_555
Cs1_6 Mg3_2 3.832461 1_555
Cs1_6 Mg3_6 3.832461 1_555
Cs1_6 Mg11_2 4.049658 1_555
Cs1_6 Mg11_6 4.049658 1_555
Cs1_6 Mg2_6 4.423928 1_555
Cs1_6 Mg2_4 4.423928 1_565
Cs1_7 Mg6_7 3.454683 1_555
Cs1_7 Mg7_7 3.454683 1_555
Cs1_7 Mg4_7 3.832461 1_555
Cs1_7 Mg4_3 3.832461 1_555
Cs1_7 Mg3_3 3.832461 1_555
Cs1_7 Mg3_7 3.832461 1_555
Cs1_7 Mg11_3 4.049658 1_555
Cs1_7 Mg11_7 4.049658 1_555
Cs1_7 Mg2_7 4.423928 1_555
Cs1_7 Mg2_5 4.423928 1_565
Mg0_0 Mg11_0 3.164423 1_555
Mg0_0 Mg11_4 3.164423 1_455
Mg0_0 Mg8_0 3.484223 1_555
Mg0_1 Mg11_1 3.164423 1_555
Mg0_1 Mg11_5 3.164423 1_455
Mg0_1 Mg8_1 3.484223 1_555
Mg0_2 Mg11_6 3.164423 1_455
Mg0_2 Mg11_2 3.164423 1_555
Mg0_2 Mg8_2 3.484223 1_555
Mg0_3 Mg11_7 3.164423 1_455
Mg0_3 Mg11_3 3.164423 1_555
Mg0_3 Mg8_3 3.484223 1_555
Mg0_4 Mg11_0 3.164423 1_555
Mg0_4 Mg11_4 3.164423 1_555
Mg0_4 Mg8_4 3.484223 1_555
Mg0_5 Mg11_1 3.164423 1_555
Mg0_5 Mg11_5 3.164423 1_555
Mg0_5 Mg8_5 3.484223 1_555
Mg0_6 Mg11_2 3.164423 1_555
Mg0_6 Mg11_6 3.164423 1_555
Mg0_6 Mg8_6 3.484223 1_555
Mg0_7 Mg11_7 3.164423 1_555
Mg0_7 Mg11_3 3.164423 1_555
Mg0_7 Mg8_7 3.484223 1_555
Mg1_0 Mg8_0 3.484223 1_555
Mg1_1 Mg8_1 3.484223 1_555
Mg1_2 Mg8_2 3.484223 1_555
Mg1_3 Mg8_3 3.484223 1_555
Mg1_4 Mg8_4 3.484223 1_555
Mg1_5 Mg8_5 3.484223 1_555
Mg1_6 Mg8_6 3.484223 1_555
Mg1_7 Mg8_7 3.484223 1_555
Mg2_0 Mg2_4 3.239562 1_555
Mg2_0 Mg2_4 3.239562 1_455
Mg2_0 Mg3_6 3.356106 1_445
Mg2_0 Mg3_2 3.356106 1_545
Mg2_0 Mg4_0 3.356106 1_555
Mg2_0 Mg4_4 3.356106 1_455
Mg2_0 Mg5_0 3.380766 1_555
Mg2_0 Mg5_4 3.380766 1_455
Mg2_0 Mg6_0 3.484223 1_555
Mg2_0 Mg7_2 3.484223 1_545
Mg2_1 Mg2_5 3.239562 1_455
Mg2_1 Mg2_5 3.239562 1_555
Mg2_1 Mg3_3 3.356106 1_545
Mg2_1 Mg3_7 3.356106 1_445
Mg2_1 Mg4_1 3.356106 1_555
Mg2_1 Mg4_5 3.356106 1_455
Mg2_1 Mg5_1 3.380766 1_555
Mg2_1 Mg5_5 3.380766 1_455
Mg2_1 Mg6_1 3.484223 1_555
Mg2_1 Mg7_3 3.484223 1_545
Mg2_2 Mg2_6 3.239562 1_455
Mg2_2 Mg2_6 3.239562 1_555
Mg2_2 Mg4_2 3.356106 1_555
Mg2_2 Mg4_6 3.356106 1_455
Mg2_2 Mg3_4 3.356106 1_455
Mg2_2 Mg3_0 3.356106 1_555
Mg2_2 Mg5_2 3.380766 1_555
Mg2_2 Mg5_6 3.380766 1_455
Mg2_2 Mg7_0 3.484223 1_555
Mg2_2 Mg6_2 3.484223 1_555
Mg2_3 Mg2_7 3.239562 1_555
Mg2_3 Mg2_7 3.239562 1_455
Mg2_3 Mg4_3 3.356106 1_555
Mg2_3 Mg4_7 3.356106 1_455
Mg2_3 Mg3_5 3.356106 1_455
Mg2_3 Mg3_1 3.356106 1_555
Mg2_3 Mg5_3 3.380766 1_555
Mg2_3 Mg5_7 3.380766 1_455
Mg2_3 Mg7_1 3.484223 1_555
Mg2_3 Mg6_3 3.484223 1_555
Mg2_4 Mg3_6 3.356106 1_545
Mg2_4 Mg3_2 3.356106 1_545
Mg2_4 Mg4_0 3.356106 1_555
Mg2_4 Mg4_4 3.356106 1_555
Mg2_4 Mg5_4 3.380766 1_555
Mg2_4 Mg5_0 3.380766 1_555
Mg2_4 Mg6_4 3.484223 1_555
Mg2_4 Mg7_6 3.484223 1_545
Mg2_5 Mg3_3 3.356106 1_545
Mg2_5 Mg3_7 3.356106 1_545
Mg2_5 Mg4_1 3.356106 1_555
Mg2_5 Mg4_5 3.356106 1_555
Mg2_5 Mg5_1 3.380766 1_555
Mg2_5 Mg5_5 3.380766 1_555
Mg2_5 Mg6_5 3.484223 1_555
Mg2_5 Mg7_7 3.484223 1_545
Mg2_6 Mg4_2 3.356106 1_555
Mg2_6 Mg4_6 3.356106 1_555
Mg2_6 Mg3_0 3.356106 1_555
Mg2_6 Mg3_4 3.356106 1_555
Mg2_6 Mg5_2 3.380766 1_555
Mg2_6 Mg5_6 3.380766 1_555
Mg2_6 Mg7_4 3.484223 1_555
Mg2_6 Mg6_6 3.484223 1_555
Mg2_7 Mg4_7 3.356106 1_555
Mg2_7 Mg4_3 3.356106 1_555
Mg2_7 Mg3_1 3.356106 1_555
Mg2_7 Mg3_5 3.356106 1_555
Mg2_7 Mg5_3 3.380766 1_555
Mg2_7 Mg5_7 3.380766 1_555
Mg2_7 Mg7_5 3.484223 1_555
Mg2_7 Mg6_7 3.484223 1_555
Mg5_0 Mg6_0 3.164423 1_555
Mg5_0 Mg6_4 3.164423 1_555
Mg5_0 Mg7_2 3.164423 1_545
Mg5_0 Mg7_6 3.164423 1_545
Mg5_0 Mg5_4 3.239562 1_455
Mg5_0 Mg5_4 3.239562 1_555
Mg5_0 Mg9_1 3.466334 1_555
Mg5_1 Mg6_5 3.164423 1_555
Mg5_1 Mg6_1 3.164423 1_555
Mg5_1 Mg7_7 3.164423 1_545
Mg5_1 Mg7_3 3.164423 1_545
Mg5_1 Mg5_5 3.239562 1_555
Mg5_1 Mg5_5 3.239562 1_455
Mg5_1 Mg9_0 3.466334 1_556
Mg5_2 Mg7_0 3.164423 1_555
Mg5_2 Mg7_4 3.164423 1_555
Mg5_2 Mg6_2 3.164423 1_555
Mg5_2 Mg6_6 3.164423 1_555
Mg5_2 Mg5_6 3.239562 1_555
Mg5_2 Mg5_6 3.239562 1_455
Mg5_2 Mg9_3 3.466334 1_555
Mg5_3 Mg7_1 3.164423 1_555
Mg5_3 Mg7_5 3.164423 1_555
Mg5_3 Mg6_3 3.164423 1_555
Mg5_3 Mg6_7 3.164423 1_555
Mg5_3 Mg5_7 3.239562 1_455
Mg5_3 Mg5_7 3.239562 1_555
Mg5_3 Mg9_2 3.466334 1_556
Mg5_4 Mg6_0 3.164423 1_655
Mg5_4 Mg6_4 3.164423 1_555
Mg5_4 Mg7_2 3.164423 1_645
Mg5_4 Mg7_6 3.164423 1_545
Mg5_4 Mg9_5 3.466334 1_555
Mg5_5 Mg6_5 3.164423 1_555
Mg5_5 Mg6_1 3.164423 1_655
Mg5_5 Mg7_7 3.164423 1_545
Mg5_5 Mg7_3 3.164423 1_645
Mg5_5 Mg9_4 3.466334 1_556
Mg5_6 Mg7_0 3.164423 1_655
Mg5_6 Mg7_4 3.164423 1_555
Mg5_6 Mg6_2 3.164423 1_655
Mg5_6 Mg6_6 3.164423 1_555
Mg5_6 Mg9_7 3.466334 1_555
Mg5_7 Mg7_1 3.164423 1_655
Mg5_7 Mg7_5 3.164423 1_555
Mg5_7 Mg6_7 3.164423 1_555
Mg5_7 Mg6_3 3.164423 1_655
Mg5_7 Mg9_6 3.466334 1_556
Mg8_0 Mg8_4 3.239562 1_555
Mg8_0 Mg8_4 3.239562 1_455
Mg8_0 Mg9_0 3.356106 1_555
Mg8_0 Mg9_4 3.356106 1_455
Mg8_1 Mg8_5 3.239562 1_555
Mg8_1 Mg8_5 3.239562 1_455
Mg8_1 Mg9_1 3.356106 1_555
Mg8_1 Mg9_5 3.356106 1_455
Mg8_2 Mg8_6 3.239562 1_555
Mg8_2 Mg8_6 3.239562 1_455
Mg8_2 Mg9_6 3.356106 1_455
Mg8_2 Mg9_2 3.356106 1_555
Mg8_3 Mg8_7 3.239562 1_455
Mg8_3 Mg8_7 3.239562 1_555
Mg8_3 Mg9_7 3.356106 1_455
Mg8_3 Mg9_3 3.356106 1_555
Mg8_4 Mg9_0 3.356106 1_555
Mg8_4 Mg9_4 3.356106 1_555
Mg8_5 Mg9_1 3.356106 1_555
Mg8_5 Mg9_5 3.356106 1_555
Mg8_6 Mg9_2 3.356106 1_555
Mg8_6 Mg9_6 3.356106 1_555
Mg8_7 Mg9_3 3.356106 1_555
Mg8_7 Mg9_7 3.356106 1_555
Mg10_0 Mg8_4 3.356106 1_555
Mg10_0 Mg8_0 3.356106 1_555
Mg10_0 Mg5_3 3.466334 1_554
Mg10_1 Mg8_5 3.356106 1_555
Mg10_1 Mg8_1 3.356106 1_555
Mg10_1 Mg5_2 3.466334 1_555
Mg10_2 Mg8_2 3.356106 1_555
Mg10_2 Mg8_6 3.356106 1_555
Mg10_2 Mg5_1 3.466334 1_564
Mg10_3 Mg8_3 3.356106 1_555
Mg10_3 Mg8_7 3.356106 1_555
Mg10_3 Mg5_0 3.466334 1_565
Mg10_4 Mg8_4 3.356106 1_555
Mg10_4 Mg8_0 3.356106 1_655
Mg10_4 Mg5_7 3.466334 1_554
Mg10_5 Mg8_1 3.356106 1_655
Mg10_5 Mg8_5 3.356106 1_555
Mg10_5 Mg5_6 3.466334 1_555
Mg10_6 Mg8_6 3.356106 1_555
Mg10_6 Mg8_2 3.356106 1_655
Mg10_6 Mg5_5 3.466334 1_564
Mg10_7 Mg8_7 3.356106 1_555
Mg10_7 Mg8_3 3.356106 1_655
Mg10_7 Mg5_4 3.466334 1_565
Mg11_0 Mg1_0 3.164423 1_555
Mg11_0 Mg1_4 3.164423 1_555
Mg11_0 Mg11_4 3.239562 1_455
Mg11_0 Mg11_4 3.239562 1_555
Mg11_0 Mg8_4 3.380766 1_555
Mg11_0 Mg8_0 3.380766 1_555
Mg11_0 Mg4_0 3.466334 1_555
Mg11_0 Mg3_0 3.466334 1_555
Mg11_1 Mg1_1 3.164423 1_555
Mg11_1 Mg1_5 3.164423 1_555
Mg11_1 Mg11_5 3.239562 1_455
Mg11_1 Mg11_5 3.239562 1_555
Mg11_1 Mg8_1 3.380766 1_555
Mg11_1 Mg8_5 3.380766 1_555
Mg11_1 Mg4_1 3.466334 1_555
Mg11_1 Mg3_1 3.466334 1_555
Mg11_2 Mg1_6 3.164423 1_555
Mg11_2 Mg1_2 3.164423 1_555
Mg11_2 Mg11_6 3.239562 1_555
Mg11_2 Mg11_6 3.239562 1_455
Mg11_2 Mg8_2 3.380766 1_555
Mg11_2 Mg8_6 3.380766 1_555
Mg11_2 Mg4_2 3.466334 1_555
Mg11_2 Mg3_2 3.466334 1_555
Mg11_3 Mg1_7 3.164423 1_555
Mg11_3 Mg1_3 3.164423 1_555
Mg11_3 Mg11_7 3.239562 1_455
Mg11_3 Mg11_7 3.239562 1_555
Mg11_3 Mg8_3 3.380766 1_555
Mg11_3 Mg8_7 3.380766 1_555
Mg11_3 Mg4_3 3.466334 1_555
Mg11_3 Mg3_3 3.466334 1_555
Mg11_4 Mg1_4 3.164423 1_555
Mg11_4 Mg1_0 3.164423 1_655
Mg11_4 Mg8_4 3.380766 1_555
Mg11_4 Mg8_0 3.380766 1_655
Mg11_4 Mg4_4 3.466334 1_555
Mg11_4 Mg3_4 3.466334 1_555
Mg11_5 Mg1_1 3.164423 1_655
Mg11_5 Mg1_5 3.164423 1_555
Mg11_5 Mg8_1 3.380766 1_655
Mg11_5 Mg8_5 3.380766 1_555
Mg11_5 Mg4_5 3.466334 1_555
Mg11_5 Mg3_5 3.466334 1_555
Mg11_6 Mg1_6 3.164423 1_555
Mg11_6 Mg1_2 3.164423 1_655
Mg11_6 Mg8_2 3.380766 1_655
Mg11_6 Mg8_6 3.380766 1_555
Mg11_6 Mg4_6 3.466334 1_555
Mg11_6 Mg3_6 3.466334 1_555
Mg11_7 Mg1_7 3.164423 1_555
Mg11_7 Mg1_3 3.164423 1_655
Mg11_7 Mg8_3 3.380766 1_655
Mg11_7 Mg8_7 3.380766 1_555
Mg11_7 Mg4_7 3.466334 1_555
Mg11_7 Mg3_7 3.466334 1_555
B0_0 Mg1_0 2.428036 1_555
B0_0 Mg1_4 2.428036 1_555
B0_0 Mg0_2 2.428036 1_545
B0_0 Mg0_6 2.428036 1_545
B0_0 Mg3_2 2.484185 1_545
B0_0 Mg4_0 2.484185 1_555
B0_0 Cs0_4 3.849367 1_555
B0_0 Cs0_0 3.849367 1_555
B0_1 Mg1_1 2.428036 1_555
B0_1 Mg1_5 2.428036 1_555
B0_1 Mg0_3 2.428036 1_545
B0_1 Mg0_7 2.428036 1_545
B0_1 Mg3_3 2.484185 1_545
B0_1 Mg4_1 2.484185 1_555
B0_1 Cs0_1 3.849367 1_555
B0_1 Cs0_5 3.849367 1_555
B0_2 Mg1_2 2.428036 1_555
B0_2 Mg1_6 2.428036 1_555
B0_2 Mg0_0 2.428036 1_555
B0_2 Mg0_4 2.428036 1_555
B0_2 Mg4_2 2.484185 1_555
B0_2 Mg3_0 2.484185 1_555
B0_2 Cs0_2 3.849367 1_555
B0_2 Cs0_6 3.849367 1_555
B0_3 Mg1_3 2.428036 1_555
B0_3 Mg1_7 2.428036 1_555
B0_3 Mg0_1 2.428036 1_555
B0_3 Mg0_5 2.428036 1_555
B0_3 Mg4_3 2.484185 1_555
B0_3 Mg3_1 2.484185 1_555
B0_3 Cs0_3 3.849367 1_555
B0_3 Cs0_7 3.849367 1_555
B0_4 Mg1_0 2.428036 1_655
B0_4 Mg1_4 2.428036 1_555
B0_4 Mg0_6 2.428036 1_545
B0_4 Mg0_2 2.428036 1_645
B0_4 Mg3_6 2.484185 1_545
B0_4 Mg4_4 2.484185 1_555
B0_4 Cs0_4 3.849367 1_555
B0_4 Cs0_0 3.849367 1_655
B0_5 Mg1_1 2.428036 1_655
B0_5 Mg1_5 2.428036 1_555
B0_5 Mg0_3 2.428036 1_645
B0_5 Mg0_7 2.428036 1_545
B0_5 Mg3_7 2.484185 1_545
B0_5 Mg4_5 2.484185 1_555
B0_5 Cs0_1 3.849367 1_655
B0_5 Cs0_5 3.849367 1_555
B0_6 Mg1_2 2.428036 1_655
B0_6 Mg1_6 2.428036 1_555
B0_6 Mg0_0 2.428036 1_655
B0_6 Mg0_4 2.428036 1_555
B0_6 Mg4_6 2.484185 1_555
B0_6 Mg3_4 2.484185 1_555
B0_6 Cs0_2 3.849367 1_655
B0_6 Cs0_6 3.849367 1_555
B0_7 Mg1_3 2.428036 1_655
B0_7 Mg1_7 2.428036 1_555
B0_7 Mg0_1 2.428036 1_655
B0_7 Mg0_5 2.428036 1_555
B0_7 Mg4_7 2.484185 1_555
B0_7 Mg3_5 2.484185 1_555
B0_7 Cs0_7 3.849367 1_555
B0_7 Cs0_3 3.849367 1_655
B1_0 Mg7_4 2.428036 1_555
B1_0 Mg6_0 2.428036 1_555
B1_0 Mg6_4 2.428036 1_555
B1_0 Mg7_0 2.428036 1_555
B1_0 Mg9_1 2.484185 1_555
B1_0 Mg10_1 2.484185 1_555
B1_0 Cs1_4 3.849367 1_555
B1_0 Cs1_0 3.849367 1_555
B1_1 Mg6_5 2.428036 1_555
B1_1 Mg7_1 2.428036 1_555
B1_1 Mg6_1 2.428036 1_555
B1_1 Mg7_5 2.428036 1_555
B1_1 Mg10_0 2.484185 1_556
B1_1 Mg9_0 2.484185 1_556
B1_1 Cs1_1 3.849367 1_555
B1_1 Cs1_5 3.849367 1_555
B1_2 Mg6_6 2.428036 1_555
B1_2 Mg7_2 2.428036 1_555
B1_2 Mg6_2 2.428036 1_555
B1_2 Mg7_6 2.428036 1_555
B1_2 Mg9_3 2.484185 1_555
B1_2 Mg10_3 2.484185 1_555
B1_2 Cs1_2 3.849367 1_555
B1_2 Cs1_6 3.849367 1_555
B1_3 Mg7_3 2.428036 1_555
B1_3 Mg6_7 2.428036 1_555
B1_3 Mg6_3 2.428036 1_555
B1_3 Mg7_7 2.428036 1_555
B1_3 Mg9_2 2.484185 1_556
B1_3 Mg10_2 2.484185 1_556
B1_3 Cs1_7 3.849367 1_555
B1_3 Cs1_3 3.849367 1_555
B1_4 Mg7_4 2.428036 1_555
B1_4 Mg6_0 2.428036 1_655
B1_4 Mg6_4 2.428036 1_555
B1_4 Mg7_0 2.428036 1_655
B1_4 Mg10_5 2.484185 1_555
B1_4 Mg9_5 2.484185 1_555
B1_4 Cs1_4 3.849367 1_555
B1_4 Cs1_0 3.849367 1_655
B1_5 Mg6_1 2.428036 1_655
B1_5 Mg6_5 2.428036 1_555
B1_5 Mg7_5 2.428036 1_555
B1_5 Mg7_1 2.428036 1_655
B1_5 Mg10_4 2.484185 1_556
B1_5 Mg9_4 2.484185 1_556
B1_5 Cs1_5 3.849367 1_555
B1_5 Cs1_1 3.849367 1_655
B1_6 Mg6_2 2.428036 1_655
B1_6 Mg6_6 2.428036 1_555
B1_6 Mg7_2 2.428036 1_655
B1_6 Mg7_6 2.428036 1_555
B1_6 Mg9_7 2.484185 1_555
B1_6 Mg10_7 2.484185 1_555
B1_6 Cs1_2 3.849367 1_655
B1_6 Cs1_6 3.849367 1_555
B1_7 Mg7_3 2.428036 1_655
B1_7 Mg6_3 2.428036 1_655
B1_7 Mg6_7 2.428036 1_555
B1_7 Mg7_7 2.428036 1_555
B1_7 Mg9_6 2.484185 1_556
B1_7 Mg10_6 2.484185 1_556
B1_7 Cs1_7 3.849367 1_555
B1_7 Cs1_3 3.849367 1_655
