# generated using pymatgen
data_Ho3In5
_symmetry_space_group_name_H-M   'P 1'
_cell_length_a   6.32757709
_cell_length_b   6.32757709
_cell_length_c   10.30768662
_cell_angle_alpha   90.00000000
_cell_angle_beta   90.00000000
_cell_angle_gamma   101.42376209
_symmetry_Int_Tables_number   1
_chemical_formula_structural   Ho3In5
_chemical_formula_sum   'Ho6 In10'
_cell_volume   404.52556409
_cell_formula_units_Z   2
loop_
 _symmetry_equiv_pos_site_id
 _symmetry_equiv_pos_as_xyz
  1  'x, y, z'
loop_
 _atom_site_type_symbol
 _atom_site_label
 _atom_site_symmetry_multiplicity
 _atom_site_fract_x
 _atom_site_fract_y
 _atom_site_fract_z
 _atom_site_occupancy
  Ho  Ho0  1  0.62137713  0.62137713  0.25000000  1
  Ho  Ho1  1  0.37862287  0.37862287  0.75000000  1
  Ho  Ho2  1  0.79627051  0.20372949  0.50000000  1
  Ho  Ho3  1  0.79627051  0.20372949  0.00000000  1
  Ho  Ho4  1  0.20372949  0.79627051  0.50000000  1
  Ho  Ho5  1  0.20372949  0.79627051  0.00000000  1
  In  In0  1  0.00647633  0.00647633  0.25000000  1
  In  In1  1  0.99352367  0.99352367  0.75000000  1
  In  In2  1  0.30811729  0.30811729  0.04470737  1
  In  In3  1  0.69188271  0.69188271  0.95529263  1
  In  In4  1  0.30811729  0.30811729  0.45529263  1
  In  In5  1  0.69188271  0.69188271  0.54470737  1
  In  In6  1  0.07453796  0.50892500  0.25000000  1
  In  In7  1  0.49107600  0.92546304  0.75000000  1
  In  In8  1  0.92546204  0.49107500  0.75000000  1
  In  In9  1  0.50892400  0.07453696  0.25000000  1
loop_
_geom_bond_atom_site_label_1
_geom_bond_atom_site_label_2
_geom_bond_distance
_geom_bond_site_symmetry_2
Ho0 In0 3.085993 1_665
Ho0 In9 3.088129 1_565
Ho0 In6 3.088133 1_655
Ho0 In3 3.089847 1_554
Ho0 In5 3.089847 1_555
Ho0 In4 3.283214 1_555
Ho0 In2 3.283214 1_555
Ho0 In6 3.391719 1_555
Ho0 In9 3.391726 1_555
Ho1 In1 3.085993 1_445
Ho1 In7 3.088129 1_545
Ho1 In8 3.088133 1_455
Ho1 In4 3.089847 1_555
Ho1 In2 3.089847 1_556
Ho1 In5 3.283214 1_555
Ho1 In3 3.283214 1_555
Ho1 In8 3.391719 1_555
Ho1 In7 3.391726 1_555
Ho2 In8 3.166364 1_555
Ho2 In9 3.166368 1_555
Ho2 In4 3.207917 1_655
Ho2 In5 3.207917 1_545
Ho2 In0 3.259623 1_655
Ho2 In1 3.259623 1_545
Ho2 In5 3.316278 1_555
Ho2 In4 3.316278 1_555
Ho2 In7 3.481831 1_545
Ho2 In6 3.481836 1_655
Ho3 In8 3.166364 1_554
Ho3 In9 3.166368 1_555
Ho3 In3 3.207917 1_544
Ho3 In2 3.207917 1_655
Ho3 In0 3.259623 1_655
Ho3 In1 3.259623 1_544
Ho3 In3 3.316278 1_554
Ho3 In2 3.316278 1_555
Ho3 In7 3.481831 1_544
Ho3 In6 3.481836 1_655
Ho4 In6 3.166364 1_555
Ho4 In7 3.166368 1_555
Ho4 In4 3.207917 1_565
Ho4 In5 3.207917 1_455
Ho4 In0 3.259623 1_565
Ho4 In1 3.259623 1_455
Ho4 In4 3.316278 1_555
Ho4 In5 3.316278 1_555
Ho4 In9 3.481831 1_565
Ho4 In8 3.481836 1_455
Ho5 In6 3.166364 1_555
Ho5 In7 3.166368 1_554
Ho5 In2 3.207917 1_565
Ho5 In3 3.207917 1_454
Ho5 In0 3.259623 1_565
Ho5 In1 3.259623 1_454
Ho5 In2 3.316278 1_555
Ho5 In3 3.316278 1_554
Ho5 In9 3.481831 1_565
Ho5 In8 3.481836 1_454
In0 In9 3.122642 1_555
In0 In6 3.122648 1_555
In0 In4 3.212585 1_555
In0 In2 3.212585 1_555
In0 In6 3.261031 1_545
In0 In9 3.261035 1_455
In1 In7 3.122642 1_555
In1 In8 3.122648 1_555
In1 In5 3.212585 1_555
In1 In3 3.212585 1_555
In1 In8 3.261031 1_565
In1 In7 3.261035 1_655
In2 In6 3.003450 1_555
In2 In9 3.003450 1_555
In2 In3 3.210445 1_554
In3 In8 3.003450 1_555
In3 In7 3.003450 1_555
In4 In6 3.003450 1_555
In4 In9 3.003450 1_555
In4 In5 3.210445 1_555
In5 In8 3.003450 1_555
In5 In7 3.003450 1_555
