# generated using pymatgen
data_TlCrO3
_symmetry_space_group_name_H-M   'P 1'
_cell_length_a   5.41677100
_cell_length_b   5.52184300
_cell_length_c   7.81910300
_cell_angle_alpha   90.00000000
_cell_angle_beta   90.00000000
_cell_angle_gamma   90.00000000
_symmetry_Int_Tables_number   1
_chemical_formula_structural   TlCrO3
_chemical_formula_sum   'Tl4 Cr4 O12'
_cell_volume   233.87374183
_cell_formula_units_Z   4
loop_
 _symmetry_equiv_pos_site_id
 _symmetry_equiv_pos_as_xyz
  1  'x, y, z'
loop_
 _atom_site_type_symbol
 _atom_site_label
 _atom_site_symmetry_multiplicity
 _atom_site_fract_x
 _atom_site_fract_y
 _atom_site_fract_z
 _atom_site_occupancy
  Tl  Tl0  1  0.51441400  0.54603700  0.25000000  1
  Tl  Tl1  1  0.98558600  0.04603700  0.25000000  1
  Tl  Tl2  1  0.48558600  0.45396300  0.75000000  1
  Tl  Tl3  1  0.01441400  0.95396300  0.75000000  1
  Cr  Cr0  1  0.00000000  0.50000000  0.00000000  1
  Cr  Cr1  1  0.50000000  0.00000000  0.50000000  1
  Cr  Cr2  1  0.00000000  0.50000000  0.50000000  1
  Cr  Cr3  1  0.50000000  0.00000000  0.00000000  1
  O  O0  1  0.39401600  0.94860300  0.25000000  1
  O  O1  1  0.10598400  0.44860300  0.25000000  1
  O  O2  1  0.60598400  0.05139700  0.75000000  1
  O  O3  1  0.89401600  0.55139700  0.75000000  1
  O  O4  1  0.80347900  0.80091000  0.05791900  1
  O  O5  1  0.69652100  0.30091000  0.44208100  1
  O  O6  1  0.19652100  0.19909000  0.55791900  1
  O  O7  1  0.30347900  0.69909000  0.94208100  1
  O  O8  1  0.19652100  0.19909000  0.94208100  1
  O  O9  1  0.30347900  0.69909000  0.55791900  1
  O  O10  1  0.80347900  0.80091000  0.44208100  1
  O  O11  1  0.69652100  0.30091000  0.05791900  1
loop_
_geom_bond_atom_site_label_1
_geom_bond_atom_site_label_2
_geom_bond_distance
_geom_bond_site_symmetry_2
Cr0 O4 2.024627 1_455
Cr0 O8 2.024627 1_554
Cr0 O7 2.028788 1_554
Cr0 O11 2.028788 1_455
Cr0 O3 2.057006 1_454
Cr0 O1 2.057006 1_555
Cr1 O5 2.024627 1_555
Cr1 O9 2.024627 1_545
Cr1 O6 2.028788 1_555
Cr1 O10 2.028788 1_545
Cr1 O0 2.057006 1_545
Cr1 O2 2.057006 1_555
Cr2 O10 2.024627 1_455
Cr2 O6 2.024627 1_555
Cr2 O9 2.028788 1_555
Cr2 O5 2.028788 1_455
Cr2 O3 2.057006 1_455
Cr2 O1 2.057006 1_555
Cr3 O11 2.024627 1_555
Cr3 O7 2.024627 1_544
Cr3 O8 2.028788 1_554
Cr3 O4 2.028788 1_545
Cr3 O2 2.057006 1_554
Cr3 O0 2.057006 1_545
O0 Tl1 2.276851 1_465
O0 Tl0 2.316600 1_555
O1 Tl0 2.276851 1_555
O1 Tl1 2.316600 1_455
O2 Tl3 2.276851 1_645
O2 Tl2 2.316600 1_555
O3 Tl2 2.276851 1_555
O3 Tl3 2.316600 1_655
O4 Tl1 2.249636 1_565
O4 Tl0 2.586140 1_555
O4 Tl3 2.795807 1_654
O5 Tl0 2.249636 1_555
O5 Tl1 2.586140 1_555
O5 Tl2 2.795807 1_555
O6 Tl3 2.249636 1_545
O6 Tl2 2.586140 1_555
O6 Tl1 2.795807 1_455
O7 Tl2 2.249636 1_555
O7 Tl3 2.586140 1_555
O7 Tl0 2.795807 1_556
O8 Tl3 2.249636 1_545
O8 Tl2 2.586140 1_555
O8 Tl1 2.795807 1_456
O9 Tl2 2.249636 1_555
O9 Tl3 2.586140 1_555
O9 Tl0 2.795807 1_555
O10 Tl1 2.249636 1_565
O10 Tl0 2.586140 1_555
O10 Tl3 2.795807 1_655
O11 Tl0 2.249636 1_555
O11 Tl1 2.586140 1_555
O11 Tl2 2.795807 1_554
