# generated using pymatgen
data_SiMo3
_symmetry_space_group_name_H-M   'P 1'
_cell_length_a   4.88969519
_cell_length_b   4.88969519
_cell_length_c   4.88969519
_cell_angle_alpha   90.00000000
_cell_angle_beta   90.00000000
_cell_angle_gamma   90.00000000
_symmetry_Int_Tables_number   1
_chemical_formula_structural   SiMo3
_chemical_formula_sum   'Si2 Mo6'
_cell_volume   116.90830442
_cell_formula_units_Z   2
loop_
 _symmetry_equiv_pos_site_id
 _symmetry_equiv_pos_as_xyz
  1  'x, y, z'
loop_
 _atom_site_type_symbol
 _atom_site_label
 _atom_site_symmetry_multiplicity
 _atom_site_fract_x
 _atom_site_fract_y
 _atom_site_fract_z
 _atom_site_occupancy
  Si  Si0  1  0.50000000  0.50000000  0.50000000  1
  Si  Si1  1  0.00000000  -0.00000000  -0.00000000  1
  Mo  Mo0  1  0.00000000  0.50000000  0.25000000  1
  Mo  Mo1  1  0.00000000  0.50000000  0.75000000  1
  Mo  Mo2  1  0.50000000  0.75000000  -0.00000000  1
  Mo  Mo3  1  0.50000000  0.25000000  -0.00000000  1
  Mo  Mo4  1  0.75000000  -0.00000000  0.50000000  1
  Mo  Mo5  1  0.25000000  -0.00000000  0.50000000  1
loop_
_geom_bond_atom_site_label_1
_geom_bond_atom_site_label_2
_geom_bond_distance
_geom_bond_site_symmetry_2
Mo0 Mo1 2.444848 1_554
Mo0 Mo1 2.444848 1_555
Mo0 Si1 2.733423 1_565
Mo0 Si0 2.733423 1_455
Mo0 Si0 2.733423 1_555
Mo0 Si1 2.733423 1_555
Mo1 Si0 2.733423 1_555
Mo1 Si0 2.733423 1_455
Mo1 Si1 2.733423 1_566
Mo1 Si1 2.733423 1_556
Mo2 Mo3 2.444848 1_555
Mo2 Mo3 2.444848 1_565
Mo2 Si1 2.733423 1_565
Mo2 Si1 2.733423 1_665
Mo2 Si0 2.733423 1_555
Mo2 Si0 2.733423 1_554
Mo3 Si0 2.733423 1_555
Mo3 Si1 2.733423 1_655
Mo3 Si1 2.733423 1_555
Mo3 Si0 2.733423 1_554
Mo4 Mo5 2.444848 1_655
Mo4 Mo5 2.444848 1_555
Mo4 Si0 2.733423 1_555
Mo4 Si0 2.733423 1_545
Mo4 Si1 2.733423 1_655
Mo4 Si1 2.733423 1_656
Mo5 Si0 2.733423 1_555
Mo5 Si0 2.733423 1_545
Mo5 Si1 2.733423 1_556
Mo5 Si1 2.733423 1_555
