# generated using pymatgen
data_Ca3SbI3
_symmetry_space_group_name_H-M   'P 1'
_cell_length_a   11.09357643
_cell_length_b   11.09351519
_cell_length_c   11.09345916
_cell_angle_alpha   109.47096167
_cell_angle_beta   109.47091566
_cell_angle_gamma   109.47146478
_symmetry_Int_Tables_number   1
_chemical_formula_structural   Ca3SbI3
_chemical_formula_sum   'Ca12 Sb4 I12'
_cell_volume   1050.96335674
_cell_formula_units_Z   4
loop_
 _symmetry_equiv_pos_site_id
 _symmetry_equiv_pos_as_xyz
  1  'x, y, z'
loop_
 _atom_site_type_symbol
 _atom_site_label
 _atom_site_symmetry_multiplicity
 _atom_site_fract_x
 _atom_site_fract_y
 _atom_site_fract_z
 _atom_site_occupancy
  Ca  Ca0  1  0.48297759  0.49149168  0.24149148  1
  Ca  Ca1  1  0.75000140  0.24148747  0.25851451  1
  Ca  Ca2  1  0.75000094  0.00851499  0.49148893  1
  Ca  Ca3  1  0.24148960  0.48297508  0.49148899  1
  Ca  Ca4  1  0.25851341  0.74999948  0.24148731  1
  Ca  Ca5  1  0.01702483  0.25851248  0.00851218  1
  Ca  Ca6  1  0.00851165  0.01702625  0.25851095  1
  Ca  Ca7  1  0.49148822  0.75000179  0.00851252  1
  Ca  Ca8  1  0.49148996  0.24148910  0.48297546  1
  Ca  Ca9  1  0.00851194  0.49148618  0.75000010  1
  Ca  Ca10  1  0.25851193  0.00851074  0.01702588  1
  Ca  Ca11  1  0.24148869  0.25851225  0.75000028  1
  Sb  Sb0  1  0.25000166  0.25000148  0.25000044  1
  Sb  Sb1  1  0.49999050  0.99999714  0.24999702  1
  Sb  Sb2  1  0.00000255  0.25000114  0.50000242  1
  Sb  Sb3  1  0.25000273  0.50000076  1.00000117  1
  I  I0  1  0.24996479  0.75154455  0.74838806  1
  I  I1  1  0.50317629  0.50161689  0.75162202  1
  I  I2  1  0.99682713  0.74836798  0.99838459  1
  I  I3  1  0.74839980  0.25000079  0.75157915  1
  I  I4  1  0.99838795  0.99682872  0.74838192  1
  I  I5  1  0.24998701  0.99839143  0.50153659  1
  I  I6  1  0.75162251  0.50317626  0.50161906  1
  I  I7  1  0.50161203  0.25001597  0.99846401  1
  I  I8  1  0.75161646  0.74846640  0.24999954  1
  I  I9  1  0.74838036  0.99838582  0.99682539  1
  I  I10  1  0.99839947  0.50157129  0.25001347  1
  I  I11  1  0.50161859  0.75162391  0.50317657  1
loop_
_geom_bond_atom_site_label_1
_geom_bond_atom_site_label_2
_geom_bond_distance
_geom_bond_site_symmetry_2
Ca0 Sb0 3.095299 1_555
Ca0 Sb3 3.095307 1_554
Ca0 I7 3.226968 1_554
Ca0 I11 3.227219 1_555
Ca0 I6 3.314471 1_555
Ca0 I8 3.314562 1_555
Ca1 Sb2 3.095317 1_655
Ca1 Sb1 3.095360 1_545
Ca1 I9 3.227153 1_544
Ca1 I6 3.227169 1_555
Ca1 I7 3.313698 1_554
Ca1 I10 3.313779 1_555
Ca2 Sb2 3.095298 1_655
Ca2 Sb1 3.095378 1_545
Ca2 I8 3.227037 1_545
Ca2 I3 3.227208 1_555
Ca2 I11 3.313641 1_545
Ca2 I4 3.313687 1_545
Ca3 Sb2 3.095296 1_555
Ca3 Sb0 3.095298 1_555
Ca3 I10 3.227117 1_455
Ca3 I1 3.227241 1_555
Ca3 I0 3.313841 1_555
Ca3 I11 3.314472 1_555
Ca4 Sb1 3.095238 1_555
Ca4 Sb3 3.095298 1_554
Ca4 I2 3.227087 1_454
Ca4 I11 3.227163 1_555
Ca4 I5 3.313682 1_555
Ca4 I10 3.314332 1_455
Ca5 Sb3 3.095312 1_554
Ca5 Sb0 3.095318 1_555
Ca5 I4 3.227222 1_444
Ca5 I10 3.227270 1_455
Ca5 I3 3.314206 1_454
Ca5 I9 3.314435 1_444
Ca6 Sb0 3.095304 1_555
Ca6 Sb2 3.095306 1_555
Ca6 I5 3.226966 1_545
Ca6 I9 3.227231 1_444
Ca6 I8 3.313525 1_445
Ca6 I2 3.314540 1_444
Ca7 Sb3 3.095302 1_554
Ca7 Sb1 3.095317 1_555
Ca7 I8 3.227066 1_555
Ca7 I0 3.227300 1_554
Ca7 I9 3.313656 1_554
Ca7 I1 3.313660 1_554
Ca8 Sb1 3.095275 1_545
Ca8 Sb0 3.095318 1_555
Ca8 I5 3.227085 1_545
Ca8 I6 3.227217 1_555
Ca8 I3 3.313919 1_555
Ca8 I1 3.314459 1_555
Ca9 Sb2 3.095291 1_555
Ca9 Sb3 3.095327 1_555
Ca9 I0 3.226861 1_555
Ca9 I3 3.227213 1_455
Ca9 I2 3.313579 1_455
Ca9 I6 3.313654 1_455
Ca10 Sb1 3.095238 1_545
Ca10 Sb0 3.095307 1_555
Ca10 I7 3.227120 1_554
Ca10 I2 3.227281 1_444
Ca10 I0 3.314262 1_544
Ca10 I4 3.314456 1_444
Ca11 Sb2 3.095299 1_555
Ca11 Sb3 3.095305 1_555
Ca11 I4 3.227123 1_445
Ca11 I1 3.227155 1_555
Ca11 I5 3.314414 1_545
Ca11 I7 3.314429 1_555
