# generated using pymatgen
data_MgSn2
_symmetry_space_group_name_H-M   'P 1'
_cell_length_a   13.47569310
_cell_length_b   13.47569310
_cell_length_c   14.60391553
_cell_angle_alpha   73.44192342
_cell_angle_beta   73.44192342
_cell_angle_gamma   29.09177708
_symmetry_Int_Tables_number   1
_chemical_formula_structural   MgSn2
_chemical_formula_sum   'Mg16 Sn32'
_cell_volume   1232.26902545
_cell_formula_units_Z   16
loop_
 _symmetry_equiv_pos_site_id
 _symmetry_equiv_pos_as_xyz
  1  'x, y, z'
loop_
 _atom_site_type_symbol
 _atom_site_label
 _atom_site_symmetry_multiplicity
 _atom_site_fract_x
 _atom_site_fract_y
 _atom_site_fract_z
 _atom_site_occupancy
  Mg  Mg0_0  1  0.26456300  0.26456300  0.09962300  1
  Mg  Mg0_1  1  0.26456300  0.26456300  0.59962300  1
  Mg  Mg0_2  1  0.26456300  0.76456300  0.09962300  1
  Mg  Mg0_3  1  0.26456300  0.76456300  0.59962300  1
  Mg  Mg0_4  1  0.76456300  0.26456300  0.09962300  1
  Mg  Mg0_5  1  0.76456300  0.26456300  0.59962300  1
  Mg  Mg0_6  1  0.76456300  0.76456300  0.09962300  1
  Mg  Mg0_7  1  0.76456300  0.76456300  0.59962300  1
  Mg  Mg1_0  1  0.23543700  0.23543700  0.40037700  1
  Mg  Mg1_1  1  0.23543700  0.23543700  0.90037700  1
  Mg  Mg1_2  1  0.23543700  0.73543700  0.40037700  1
  Mg  Mg1_3  1  0.23543700  0.73543700  0.90037700  1
  Mg  Mg1_4  1  0.73543700  0.23543700  0.40037700  1
  Mg  Mg1_5  1  0.73543700  0.23543700  0.90037700  1
  Mg  Mg1_6  1  0.73543700  0.73543700  0.40037700  1
  Mg  Mg1_7  1  0.73543700  0.73543700  0.90037700  1
  Sn  Sn0_0  1  0.40883350  0.40883350  0.06764150  1
  Sn  Sn0_1  1  0.40883350  0.40883350  0.56764150  1
  Sn  Sn0_2  1  0.40883350  0.90883350  0.06764150  1
  Sn  Sn0_3  1  0.40883350  0.90883350  0.56764150  1
  Sn  Sn0_4  1  0.90883350  0.40883350  0.06764150  1
  Sn  Sn0_5  1  0.90883350  0.40883350  0.56764150  1
  Sn  Sn0_6  1  0.90883350  0.90883350  0.06764150  1
  Sn  Sn0_7  1  0.90883350  0.90883350  0.56764150  1
  Sn  Sn1_0  1  0.06649650  0.06649650  0.23312000  1
  Sn  Sn1_1  1  0.06649650  0.06649650  0.73312000  1
  Sn  Sn1_2  1  0.06649650  0.56649650  0.23312000  1
  Sn  Sn1_3  1  0.06649650  0.56649650  0.73312000  1
  Sn  Sn1_4  1  0.56649650  0.06649650  0.23312000  1
  Sn  Sn1_5  1  0.56649650  0.06649650  0.73312000  1
  Sn  Sn1_6  1  0.56649650  0.56649650  0.23312000  1
  Sn  Sn1_7  1  0.56649650  0.56649650  0.73312000  1
  Sn  Sn2_0  1  0.43350350  0.43350350  0.26688000  1
  Sn  Sn2_1  1  0.43350350  0.43350350  0.76688000  1
  Sn  Sn2_2  1  0.43350350  0.93350350  0.26688000  1
  Sn  Sn2_3  1  0.43350350  0.93350350  0.76688000  1
  Sn  Sn2_4  1  0.93350350  0.43350350  0.26688000  1
  Sn  Sn2_5  1  0.93350350  0.43350350  0.76688000  1
  Sn  Sn2_6  1  0.93350350  0.93350350  0.26688000  1
  Sn  Sn2_7  1  0.93350350  0.93350350  0.76688000  1
  Sn  Sn3_0  1  0.09116650  0.09116650  0.43235850  1
  Sn  Sn3_1  1  0.09116650  0.09116650  0.93235850  1
  Sn  Sn3_2  1  0.09116650  0.59116650  0.43235850  1
  Sn  Sn3_3  1  0.09116650  0.59116650  0.93235850  1
  Sn  Sn3_4  1  0.59116650  0.09116650  0.43235850  1
  Sn  Sn3_5  1  0.59116650  0.09116650  0.93235850  1
  Sn  Sn3_6  1  0.59116650  0.59116650  0.43235850  1
  Sn  Sn3_7  1  0.59116650  0.59116650  0.93235850  1
loop_
_geom_bond_atom_site_label_1
_geom_bond_atom_site_label_2
_geom_bond_distance
_geom_bond_site_symmetry_2
Mg0_0 Sn3_3 3.154310 1_554
Mg0_0 Sn3_5 3.154310 1_554
Mg0_0 Sn1_4 3.171028 1_555
Mg0_0 Sn1_2 3.171028 1_555
Mg0_0 Sn2_2 3.203153 1_545
Mg0_0 Sn2_4 3.203153 1_455
Mg0_0 Mg1_1 3.216520 1_554
Mg0_0 Sn0_2 3.383517 1_545
Mg0_0 Sn0_4 3.383517 1_455
Mg0_0 Mg0_6 3.384492 1_545
Mg0_0 Mg0_6 3.384492 1_455
Mg0_1 Sn3_2 3.154310 1_555
Mg0_1 Sn3_4 3.154310 1_555
Mg0_1 Sn1_3 3.171028 1_555
Mg0_1 Sn1_5 3.171028 1_555
Mg0_1 Sn2_5 3.203153 1_455
Mg0_1 Sn2_3 3.203153 1_545
Mg0_1 Mg1_0 3.216520 1_555
Mg0_1 Sn0_3 3.383517 1_545
Mg0_1 Sn0_5 3.383517 1_455
Mg0_1 Mg0_7 3.384492 1_455
Mg0_1 Mg0_7 3.384492 1_545
Mg0_2 Sn3_1 3.154310 1_564
Mg0_2 Sn3_7 3.154310 1_554
Mg0_2 Sn1_0 3.171028 1_565
Mg0_2 Sn1_6 3.171028 1_555
Mg0_2 Sn2_6 3.203153 1_455
Mg0_2 Sn2_0 3.203153 1_555
Mg0_2 Mg1_3 3.216520 1_554
Mg0_2 Sn0_6 3.383517 1_455
Mg0_2 Sn0_0 3.383517 1_555
Mg0_2 Mg0_4 3.384492 1_465
Mg0_2 Mg0_4 3.384492 1_555
Mg0_3 Sn3_6 3.154310 1_555
Mg0_3 Sn3_0 3.154310 1_565
Mg0_3 Sn1_1 3.171028 1_565
Mg0_3 Sn1_7 3.171028 1_555
Mg0_3 Sn2_1 3.203153 1_555
Mg0_3 Sn2_7 3.203153 1_455
Mg0_3 Mg1_2 3.216520 1_555
Mg0_3 Sn0_1 3.383517 1_555
Mg0_3 Sn0_7 3.383517 1_455
Mg0_3 Mg0_5 3.384492 1_555
Mg0_3 Mg0_5 3.384492 1_465
Mg0_4 Sn3_1 3.154310 1_654
Mg0_4 Sn3_7 3.154310 1_554
Mg0_4 Sn1_6 3.171028 1_555
Mg0_4 Sn1_0 3.171028 1_655
Mg0_4 Sn2_0 3.203153 1_555
Mg0_4 Sn2_6 3.203153 1_545
Mg0_4 Mg1_5 3.216520 1_554
Mg0_4 Sn0_6 3.383517 1_545
Mg0_4 Sn0_0 3.383517 1_555
Mg0_5 Sn3_6 3.154310 1_555
Mg0_5 Sn3_0 3.154310 1_655
Mg0_5 Sn1_1 3.171028 1_655
Mg0_5 Sn1_7 3.171028 1_555
Mg0_5 Sn2_1 3.203153 1_555
Mg0_5 Sn2_7 3.203153 1_545
Mg0_5 Mg1_4 3.216520 1_555
Mg0_5 Sn0_1 3.383517 1_555
Mg0_5 Sn0_7 3.383517 1_545
Mg0_6 Sn3_3 3.154310 1_654
Mg0_6 Sn3_5 3.154310 1_564
Mg0_6 Sn1_4 3.171028 1_565
Mg0_6 Sn1_2 3.171028 1_655
Mg0_6 Sn2_4 3.203153 1_555
Mg0_6 Sn2_2 3.203153 1_555
Mg0_6 Mg1_7 3.216520 1_554
Mg0_6 Sn0_4 3.383517 1_555
Mg0_6 Sn0_2 3.383517 1_555
Mg0_7 Sn3_2 3.154310 1_655
Mg0_7 Sn3_4 3.154310 1_565
Mg0_7 Sn1_3 3.171028 1_655
Mg0_7 Sn1_5 3.171028 1_565
Mg0_7 Sn2_5 3.203153 1_555
Mg0_7 Sn2_3 3.203153 1_555
Mg0_7 Mg1_6 3.216520 1_555
Mg0_7 Sn0_5 3.383517 1_555
Mg0_7 Sn0_3 3.383517 1_555
Mg1_0 Sn0_3 3.154310 1_545
Mg1_0 Sn0_5 3.154310 1_455
Mg1_0 Sn2_4 3.171028 1_455
Mg1_0 Sn2_2 3.171028 1_545
Mg1_0 Sn1_4 3.203153 1_555
Mg1_0 Sn1_2 3.203153 1_555
Mg1_0 Sn3_2 3.383517 1_555
Mg1_0 Sn3_4 3.383517 1_555
Mg1_0 Mg1_6 3.384492 1_455
Mg1_0 Mg1_6 3.384492 1_545
Mg1_1 Sn0_2 3.154310 1_546
Mg1_1 Sn0_4 3.154310 1_456
Mg1_1 Sn2_5 3.171028 1_455
Mg1_1 Sn2_3 3.171028 1_545
Mg1_1 Sn1_3 3.203153 1_555
Mg1_1 Sn1_5 3.203153 1_555
Mg1_1 Sn3_3 3.383517 1_555
Mg1_1 Sn3_5 3.383517 1_555
Mg1_1 Mg1_7 3.384492 1_455
Mg1_1 Mg1_7 3.384492 1_545
Mg1_2 Sn0_1 3.154310 1_555
Mg1_2 Sn0_7 3.154310 1_455
Mg1_2 Sn2_0 3.171028 1_555
Mg1_2 Sn2_6 3.171028 1_455
Mg1_2 Sn1_6 3.203153 1_555
Mg1_2 Sn1_0 3.203153 1_565
Mg1_2 Sn3_6 3.383517 1_555
Mg1_2 Sn3_0 3.383517 1_565
Mg1_2 Mg1_4 3.384492 1_555
Mg1_2 Mg1_4 3.384492 1_465
Mg1_3 Sn0_6 3.154310 1_456
Mg1_3 Sn0_0 3.154310 1_556
Mg1_3 Sn2_7 3.171028 1_455
Mg1_3 Sn2_1 3.171028 1_555
Mg1_3 Sn1_1 3.203153 1_565
Mg1_3 Sn1_7 3.203153 1_555
Mg1_3 Sn3_1 3.383517 1_565
Mg1_3 Sn3_7 3.383517 1_555
Mg1_3 Mg1_5 3.384492 1_555
Mg1_3 Mg1_5 3.384492 1_465
Mg1_4 Sn0_1 3.154310 1_555
Mg1_4 Sn0_7 3.154310 1_545
Mg1_4 Sn2_0 3.171028 1_555
Mg1_4 Sn2_6 3.171028 1_545
Mg1_4 Sn1_6 3.203153 1_555
Mg1_4 Sn1_0 3.203153 1_655
Mg1_4 Sn3_6 3.383517 1_555
Mg1_4 Sn3_0 3.383517 1_655
Mg1_5 Sn0_6 3.154310 1_546
Mg1_5 Sn0_0 3.154310 1_556
Mg1_5 Sn2_1 3.171028 1_555
Mg1_5 Sn2_7 3.171028 1_545
Mg1_5 Sn1_1 3.203153 1_655
Mg1_5 Sn1_7 3.203153 1_555
Mg1_5 Sn3_1 3.383517 1_655
Mg1_5 Sn3_7 3.383517 1_555
Mg1_6 Sn0_5 3.154310 1_555
Mg1_6 Sn0_3 3.154310 1_555
Mg1_6 Sn2_4 3.171028 1_555
Mg1_6 Sn2_2 3.171028 1_555
Mg1_6 Sn1_2 3.203153 1_655
Mg1_6 Sn1_4 3.203153 1_565
Mg1_6 Sn3_2 3.383517 1_655
Mg1_6 Sn3_4 3.383517 1_565
Mg1_7 Sn0_4 3.154310 1_556
Mg1_7 Sn0_2 3.154310 1_556
Mg1_7 Sn2_5 3.171028 1_555
Mg1_7 Sn2_3 3.171028 1_555
Mg1_7 Sn1_5 3.203153 1_565
Mg1_7 Sn1_3 3.203153 1_655
Mg1_7 Sn3_3 3.383517 1_655
Mg1_7 Sn3_5 3.383517 1_565
Sn0_0 Sn2_0 3.159589 1_555
Sn0_0 Sn1_2 3.328435 1_555
Sn0_0 Sn1_4 3.328435 1_555
Sn0_0 Sn0_6 3.384492 1_545
Sn0_0 Sn0_6 3.384492 1_455
Sn0_0 Sn3_5 3.454958 1_554
Sn0_0 Sn3_3 3.454958 1_554
Sn0_1 Sn2_1 3.159589 1_555
Sn0_1 Sn1_5 3.328435 1_555
Sn0_1 Sn1_3 3.328435 1_555
Sn0_1 Sn0_7 3.384492 1_455
Sn0_1 Sn0_7 3.384492 1_545
Sn0_1 Sn3_4 3.454958 1_555
Sn0_1 Sn3_2 3.454958 1_555
Sn0_2 Sn2_2 3.159589 1_555
Sn0_2 Sn1_6 3.328435 1_555
Sn0_2 Sn1_0 3.328435 1_565
Sn0_2 Sn0_4 3.384492 1_555
Sn0_2 Sn0_4 3.384492 1_465
Sn0_2 Sn3_7 3.454958 1_554
Sn0_2 Sn3_1 3.454958 1_564
Sn0_3 Sn2_3 3.159589 1_555
Sn0_3 Sn1_7 3.328435 1_555
Sn0_3 Sn1_1 3.328435 1_565
Sn0_3 Sn0_5 3.384492 1_465
Sn0_3 Sn0_5 3.384492 1_555
Sn0_3 Sn3_0 3.454958 1_565
Sn0_3 Sn3_6 3.454958 1_555
Sn0_4 Sn2_4 3.159589 1_555
Sn0_4 Sn1_0 3.328435 1_655
Sn0_4 Sn1_6 3.328435 1_555
Sn0_4 Sn3_7 3.454958 1_554
Sn0_4 Sn3_1 3.454958 1_654
Sn0_5 Sn2_5 3.159589 1_555
Sn0_5 Sn1_7 3.328435 1_555
Sn0_5 Sn1_1 3.328435 1_655
Sn0_5 Sn3_0 3.454958 1_655
Sn0_5 Sn3_6 3.454958 1_555
Sn0_6 Sn2_6 3.159589 1_555
Sn0_6 Sn1_2 3.328435 1_655
Sn0_6 Sn1_4 3.328435 1_565
Sn0_6 Sn3_5 3.454958 1_564
Sn0_6 Sn3_3 3.454958 1_654
Sn0_7 Sn2_7 3.159589 1_555
Sn0_7 Sn1_5 3.328435 1_565
Sn0_7 Sn1_3 3.328435 1_655
Sn0_7 Sn3_4 3.454958 1_565
Sn0_7 Sn3_2 3.454958 1_655
Sn1_0 Sn3_0 3.159589 1_555
Sn1_0 Sn2_6 3.357522 1_445
Sn1_0 Sn1_6 3.384492 1_455
Sn1_0 Sn1_6 3.384492 1_545
Sn1_1 Sn3_1 3.159589 1_555
Sn1_1 Sn2_7 3.357522 1_445
Sn1_1 Sn1_7 3.384492 1_545
Sn1_1 Sn1_7 3.384492 1_455
Sn1_2 Sn3_2 3.159589 1_555
Sn1_2 Sn2_4 3.357522 1_455
Sn1_2 Sn1_4 3.384492 1_555
Sn1_2 Sn1_4 3.384492 1_465
Sn1_3 Sn3_3 3.159589 1_555
Sn1_3 Sn2_5 3.357522 1_455
Sn1_3 Sn1_5 3.384492 1_555
Sn1_3 Sn1_5 3.384492 1_465
Sn1_4 Sn3_4 3.159589 1_555
Sn1_4 Sn2_2 3.357522 1_545
Sn1_5 Sn3_5 3.159589 1_555
Sn1_5 Sn2_3 3.357522 1_545
Sn1_6 Sn3_6 3.159589 1_555
Sn1_6 Sn2_0 3.357522 1_555
Sn1_7 Sn3_7 3.159589 1_555
Sn1_7 Sn2_1 3.357522 1_555
Sn2_0 Sn3_4 3.328435 1_555
Sn2_0 Sn3_2 3.328435 1_555
Sn2_0 Sn2_6 3.384492 1_545
Sn2_0 Sn2_6 3.384492 1_455
Sn2_1 Sn3_5 3.328435 1_555
Sn2_1 Sn3_3 3.328435 1_555
Sn2_1 Sn2_7 3.384492 1_455
Sn2_1 Sn2_7 3.384492 1_545
Sn2_2 Sn3_0 3.328435 1_565
Sn2_2 Sn3_6 3.328435 1_555
Sn2_2 Sn2_4 3.384492 1_465
Sn2_2 Sn2_4 3.384492 1_555
Sn2_3 Sn3_7 3.328435 1_555
Sn2_3 Sn3_1 3.328435 1_565
Sn2_3 Sn2_5 3.384492 1_555
Sn2_3 Sn2_5 3.384492 1_465
Sn2_4 Sn3_0 3.328435 1_655
Sn2_4 Sn3_6 3.328435 1_555
Sn2_5 Sn3_1 3.328435 1_655
Sn2_5 Sn3_7 3.328435 1_555
Sn2_6 Sn3_4 3.328435 1_565
Sn2_6 Sn3_2 3.328435 1_655
Sn2_7 Sn3_3 3.328435 1_655
Sn2_7 Sn3_5 3.328435 1_565
Sn3_0 Sn3_6 3.384492 1_455
Sn3_0 Sn3_6 3.384492 1_545
Sn3_1 Sn3_7 3.384492 1_545
Sn3_1 Sn3_7 3.384492 1_455
Sn3_2 Sn3_4 3.384492 1_555
Sn3_2 Sn3_4 3.384492 1_465
Sn3_3 Sn3_5 3.384492 1_555
Sn3_3 Sn3_5 3.384492 1_465
