# generated using pymatgen
data_U4Be51B
_symmetry_space_group_name_H-M   'P 1'
_cell_length_a   12.42251492
_cell_length_b   12.42251492
_cell_length_c   12.42251528
_cell_angle_alpha   33.54594433
_cell_angle_beta   33.54594433
_cell_angle_gamma   33.54594904
_symmetry_Int_Tables_number   1
_chemical_formula_structural   U4Be51B
_chemical_formula_sum   'U4 Be51 B1'
_cell_volume   521.42737409
_cell_formula_units_Z   1
loop_
 _symmetry_equiv_pos_site_id
 _symmetry_equiv_pos_as_xyz
  1  'x, y, z'
loop_
 _atom_site_type_symbol
 _atom_site_label
 _atom_site_symmetry_multiplicity
 _atom_site_fract_x
 _atom_site_fract_y
 _atom_site_fract_z
 _atom_site_occupancy
  U  U0  1  0.62524700  0.62524700  0.62524700  1
  U  U1  1  0.12469200  0.12469200  0.12469200  1
  U  U2  1  0.37475300  0.37475300  0.37475300  1
  U  U3  1  0.87530800  0.87530800  0.87530800  1
  Be  Be0  1  0.08323300  0.85732300  0.20245400  1
  Be  Be1  1  0.58555700  0.35424700  0.70587500  1
  Be  Be2  1  0.91676700  0.14267700  0.79754600  1
  Be  Be3  1  0.41444300  0.64575300  0.29412500  1
  Be  Be4  1  0.74376400  0.97059300  0.31522100  1
  Be  Be5  1  0.23876000  0.46963500  0.82193400  1
  Be  Be6  1  0.25623600  0.02940700  0.68477900  1
  Be  Be7  1  0.76124000  0.53036500  0.17806600  1
  Be  Be8  1  0.45724000  0.10416100  0.33475400  1
  Be  Be9  1  0.95596200  0.60369900  0.83576100  1
  Be  Be10  1  0.54276000  0.89583900  0.66524600  1
  Be  Be11  1  0.04403800  0.39630100  0.16423900  1
  Be  Be12  1  0.42745000  0.78012200  0.01203000  1
  Be  Be13  1  0.92865200  0.28044400  0.51081600  1
  Be  Be14  1  0.57255000  0.21987800  0.98797000  1
  Be  Be15  1  0.07134800  0.71955600  0.48918400  1
  Be  Be16  1  0.79754600  0.91676700  0.14267700  1
  Be  Be17  1  0.29412500  0.41444300  0.64575300  1
  Be  Be18  1  0.20245400  0.08323300  0.85732300  1
  Be  Be19  1  0.70587500  0.58555700  0.35424700  1
  Be  Be20  1  0.68477900  0.25623600  0.02940700  1
  Be  Be21  1  0.17806600  0.76124000  0.53036500  1
  Be  Be22  1  0.31522100  0.74376400  0.97059300  1
  Be  Be23  1  0.82193400  0.23876000  0.46963500  1
  Be  Be24  1  0.66524600  0.54276000  0.89583900  1
  Be  Be25  1  0.16423900  0.04403800  0.39630100  1
  Be  Be26  1  0.33475400  0.45724000  0.10416100  1
  Be  Be27  1  0.83576100  0.95596200  0.60369900  1
  Be  Be28  1  0.98797000  0.57255000  0.21987800  1
  Be  Be29  1  0.48918400  0.07134800  0.71955600  1
  Be  Be30  1  0.01203000  0.42745000  0.78012200  1
  Be  Be31  1  0.51081600  0.92865200  0.28044400  1
  Be  Be32  1  0.97059300  0.31522100  0.74376400  1
  Be  Be33  1  0.46963500  0.82193400  0.23876000  1
  Be  Be34  1  0.02940700  0.68477900  0.25623600  1
  Be  Be35  1  0.53036500  0.17806600  0.76124000  1
  Be  Be36  1  0.85732300  0.20245400  0.08323300  1
  Be  Be37  1  0.35424700  0.70587500  0.58555700  1
  Be  Be38  1  0.14267700  0.79754600  0.91676700  1
  Be  Be39  1  0.64575300  0.29412500  0.41444300  1
  Be  Be40  1  0.78012200  0.01203000  0.42745000  1
  Be  Be41  1  0.28044400  0.51081600  0.92865200  1
  Be  Be42  1  0.21987800  0.98797000  0.57255000  1
  Be  Be43  1  0.71955600  0.48918400  0.07134800  1
  Be  Be44  1  0.10416100  0.33475400  0.45724000  1
  Be  Be45  1  0.60369900  0.83576100  0.95596200  1
  Be  Be46  1  0.89583900  0.66524600  0.54276000  1
  Be  Be47  1  0.39630100  0.16423900  0.04403800  1
  Be  Be48  1  0.50000000  0.50000000  0.50000000  1
  Be  Be49  1  0.74979800  0.74979800  0.74979800  1
  Be  Be50  1  0.25020200  0.25020200  0.25020200  1
  B  B0  1  0.00000000  0.00000000  0.00000000  1
loop_
_geom_bond_atom_site_label_1
_geom_bond_atom_site_label_2
_geom_bond_distance
_geom_bond_site_symmetry_2
Be0 Be12 2.210233 1_555
Be0 Be15 2.240837 1_555
Be0 Be46 2.241597 1_455
Be0 Be40 2.243286 1_465
Be0 U1 2.983958 1_565
Be0 U2 2.996352 1_555
Be1 Be48 2.133803 1_555
Be1 Be14 2.201833 1_555
Be1 Be13 2.202790 1_555
Be1 Be23 2.219169 1_555
Be1 Be19 2.219294 1_555
Be1 Be37 2.219294 1_555
Be1 Be35 2.222445 1_555
Be1 Be47 2.237203 1_556
Be1 Be41 2.237684 1_555
Be1 Be5 2.343285 1_555
Be1 U3 2.973510 1_545
Be1 U0 2.983736 1_555
Be2 Be44 2.241597 1_655
Be2 Be42 2.243286 1_645
Be2 U3 2.983958 1_545
Be2 U0 2.996352 1_555
Be3 Be48 2.133803 1_555
Be3 Be39 2.219294 1_555
Be3 Be33 2.222445 1_555
Be3 Be45 2.237203 1_554
Be3 Be43 2.237684 1_555
Be3 Be7 2.343285 1_555
Be3 U1 2.973510 1_565
Be3 U2 2.983736 1_555
Be4 Be8 2.206365 1_565
Be4 Be46 2.242993 1_555
Be4 Be40 2.246343 1_565
Be4 U0 2.990104 1_555
Be4 U2 2.990394 1_565
Be5 Be9 2.205279 1_455
Be5 U3 2.978891 1_455
Be5 U1 2.981419 1_556
Be6 Be8 2.245115 1_555
Be6 U2 2.990104 1_555
Be6 U0 2.990394 1_545
Be7 Be9 2.198527 1_554
Be7 U1 2.978891 1_655
Be7 U3 2.981419 1_554
Be8 U2 2.964802 1_555
Be8 U0 2.973760 1_545
Be9 U1 2.972127 1_656
Be9 U3 2.989491 1_555
Be10 Be49 2.135031 1_555
Be10 Be6 2.206365 1_565
Be10 Be29 2.221789 1_565
Be10 Be24 2.226335 1_555
Be10 Be46 2.226335 1_555
Be10 Be40 2.229787 1_565
Be10 Be18 2.241597 1_565
Be10 Be22 2.242992 1_555
Be10 Be4 2.245115 1_555
Be10 Be12 2.345283 1_556
Be10 U0 2.964802 1_555
Be10 U2 2.973760 1_565
Be11 Be50 2.138611 1_555
Be11 Be5 2.198527 1_554
Be11 Be7 2.205279 1_455
Be11 Be41 2.216060 1_554
Be11 Be28 2.221409 1_455
Be11 Be25 2.223733 1_555
Be11 Be47 2.223733 1_555
Be11 Be19 2.237204 1_455
Be11 Be23 2.238778 1_455
Be11 Be13 2.342087 1_455
Be11 U3 2.972127 1_454
Be11 U1 2.989491 1_555
Be12 Be49 2.139161 1_554
Be12 Be3 2.201833 1_555
Be12 Be43 2.220300 1_555
Be12 Be45 2.221409 1_554
Be12 Be29 2.224205 1_564
Be12 Be24 2.229787 1_554
Be12 Be18 2.243286 1_564
Be12 Be22 2.246343 1_554
Be12 U1 2.966978 1_565
Be12 U2 2.974191 1_555
Be13 Be50 2.132592 1_655
Be13 Be25 2.216060 1_655
Be13 Be28 2.220299 1_555
Be13 Be44 2.221788 1_655
Be13 Be42 2.224205 1_645
Be13 Be23 2.236884 1_555
Be13 Be19 2.237684 1_555
Be13 Be2 2.240837 1_555
Be13 U3 2.973683 1_545
Be13 U0 2.980196 1_555
Be14 Be50 2.139161 1_556
Be14 Be2 2.210233 1_555
Be14 Be41 2.220300 1_555
Be14 Be47 2.221409 1_556
Be14 Be31 2.224205 1_546
Be14 Be26 2.229787 1_556
Be14 Be16 2.243286 1_546
Be14 Be20 2.246343 1_556
Be14 Be8 2.345283 1_556
Be14 U3 2.966978 1_545
Be14 U0 2.974191 1_555
Be15 Be49 2.132592 1_455
Be15 Be3 2.202790 1_555
Be15 Be27 2.216060 1_455
Be15 Be30 2.220299 1_555
Be15 Be46 2.221788 1_455
Be15 Be40 2.224205 1_465
Be15 Be21 2.236884 1_555
Be15 Be17 2.237684 1_555
Be15 Be9 2.342087 1_455
Be15 U1 2.973683 1_565
Be15 U2 2.980196 1_555
Be16 Be28 2.210233 1_555
Be16 Be31 2.240836 1_555
Be16 Be8 2.241597 1_565
Be16 U3 2.983958 1_554
Be16 U0 2.996352 1_555
Be17 Be48 2.133803 1_555
Be17 Be30 2.201833 1_555
Be17 Be29 2.202790 1_555
Be17 Be35 2.219169 1_555
Be17 Be3 2.219294 1_555
Be17 Be39 2.219294 1_555
Be17 Be5 2.222446 1_555
Be17 Be9 2.237204 1_455
Be17 Be21 2.343285 1_555
Be17 U1 2.973510 1_556
Be17 U2 2.983736 1_555
Be18 Be30 2.210233 1_555
Be18 Be29 2.240836 1_555
Be18 U1 2.983958 1_556
Be18 U2 2.996352 1_555
Be19 Be48 2.133803 1_555
Be19 Be28 2.201833 1_555
Be19 Be31 2.202790 1_555
Be19 Be33 2.219169 1_555
Be19 Be37 2.219294 1_555
Be19 Be7 2.222446 1_555
Be19 Be23 2.343285 1_555
Be19 U3 2.973510 1_554
Be19 U0 2.983736 1_555
Be20 Be24 2.206365 1_554
Be20 Be8 2.242992 1_555
Be20 Be26 2.245116 1_555
Be20 U2 2.990104 1_555
Be20 U0 2.990394 1_554
Be21 Be48 2.135421 1_555
Be21 Be27 2.198527 1_455
Be21 Be25 2.205279 1_565
Be21 Be3 2.219169 1_555
Be21 Be33 2.222293 1_555
Be21 Be5 2.222293 1_555
Be21 Be37 2.222446 1_555
Be21 Be9 2.238778 1_455
Be21 U1 2.978891 1_565
Be21 U3 2.981419 1_455
Be22 Be26 2.206365 1_556
Be22 Be24 2.245116 1_555
Be22 U0 2.990104 1_555
Be22 U2 2.990394 1_556
Be23 Be48 2.135421 1_555
Be23 Be25 2.198527 1_655
Be23 Be27 2.205279 1_545
Be23 Be35 2.222293 1_555
Be23 Be7 2.222293 1_555
Be23 Be39 2.222446 1_555
Be23 U3 2.978891 1_545
Be23 U1 2.981419 1_655
Be24 Be49 2.135031 1_555
Be24 Be43 2.221789 1_556
Be24 Be46 2.226334 1_555
Be24 Be36 2.241597 1_556
Be24 Be32 2.242993 1_555
Be24 Be30 2.345283 1_655
Be24 U0 2.964802 1_555
Be24 U2 2.973760 1_556
Be25 Be50 2.138611 1_555
Be25 Be42 2.221409 1_545
Be25 Be47 2.223733 1_555
Be25 Be37 2.237204 1_545
Be25 Be33 2.238778 1_545
Be25 Be31 2.342087 1_545
Be25 U3 2.972127 1_445
Be25 U1 2.989491 1_555
Be26 Be50 2.135031 1_555
Be26 Be41 2.221789 1_554
Be26 Be44 2.226334 1_555
Be26 Be8 2.226335 1_555
Be26 Be38 2.241597 1_554
Be26 Be34 2.242993 1_555
Be26 Be28 2.345283 1_455
Be26 U2 2.964802 1_555
Be26 U0 2.973760 1_554
Be27 Be49 2.138611 1_555
Be27 Be40 2.221409 1_565
Be27 Be45 2.223733 1_555
Be27 Be9 2.223733 1_555
Be27 Be39 2.237204 1_565
Be27 Be35 2.238778 1_565
Be27 Be29 2.342087 1_565
Be27 U1 2.972127 1_665
Be27 U3 2.989491 1_555
Be28 Be50 2.139161 1_655
Be28 Be41 2.224205 1_654
Be28 Be44 2.229787 1_655
Be28 Be38 2.243286 1_654
Be28 Be34 2.246343 1_655
Be28 U3 2.966978 1_554
Be28 U0 2.974191 1_555
Be29 Be49 2.132592 1_545
Be29 Be45 2.216060 1_545
Be29 Be40 2.220300 1_555
Be29 Be35 2.236884 1_555
Be29 Be39 2.237684 1_555
Be29 U1 2.973683 1_556
Be29 U2 2.980196 1_555
Be30 Be49 2.139161 1_455
Be30 Be9 2.221409 1_455
Be30 Be43 2.224205 1_456
Be30 Be46 2.229787 1_455
Be30 Be36 2.243286 1_456
Be30 Be32 2.246343 1_455
Be30 U1 2.966978 1_556
Be30 U2 2.974191 1_555
Be31 Be50 2.132592 1_565
Be31 Be47 2.216060 1_565
Be31 Be42 2.220300 1_555
Be31 Be8 2.221789 1_565
Be31 Be33 2.236884 1_555
Be31 Be37 2.237684 1_555
Be31 U3 2.973683 1_554
Be31 U0 2.980196 1_555
Be32 Be44 2.206365 1_655
Be32 Be46 2.245115 1_555
Be32 U0 2.990104 1_555
Be32 U2 2.990394 1_655
Be33 Be48 2.135421 1_555
Be33 Be47 2.198527 1_565
Be33 Be45 2.205279 1_554
Be33 Be7 2.222293 1_555
Be33 Be37 2.343285 1_555
Be33 U3 2.978891 1_554
Be33 U1 2.981419 1_565
Be34 Be46 2.206365 1_455
Be34 Be44 2.245115 1_555
Be34 U2 2.990104 1_555
Be34 U0 2.990394 1_455
Be35 Be48 2.135421 1_555
Be35 Be45 2.198527 1_545
Be35 Be47 2.205279 1_556
Be35 Be5 2.222293 1_555
Be35 Be39 2.343285 1_555
Be35 U1 2.978891 1_556
Be35 U3 2.981419 1_545
Be36 Be40 2.210233 1_555
Be36 Be43 2.240837 1_555
Be36 U1 2.983958 1_655
Be36 U2 2.996352 1_555
Be37 Be48 2.133803 1_555
Be37 Be42 2.201833 1_555
Be37 Be41 2.202790 1_555
Be37 Be5 2.219168 1_555
Be37 U3 2.973510 1_455
Be37 U0 2.983736 1_555
Be38 Be42 2.210233 1_555
Be38 Be41 2.240837 1_555
Be38 U3 2.983958 1_455
Be38 U0 2.996352 1_555
Be39 Be48 2.133803 1_555
Be39 Be40 2.201833 1_555
Be39 Be43 2.202790 1_555
Be39 Be7 2.219168 1_555
Be39 U1 2.973510 1_655
Be39 U2 2.983736 1_555
Be40 Be49 2.139161 1_545
Be40 Be46 2.345283 1_545
Be40 U1 2.966978 1_655
Be40 U2 2.974192 1_555
Be41 Be50 2.132591 1_556
Be41 Be5 2.236884 1_555
Be41 Be47 2.342087 1_556
Be41 U3 2.973684 1_455
Be41 U0 2.980196 1_555
Be42 Be50 2.139161 1_565
Be42 Be8 2.229787 1_565
Be42 Be6 2.246343 1_565
Be42 Be44 2.345283 1_565
Be42 U3 2.966978 1_455
Be42 U0 2.974192 1_555
Be43 Be49 2.132591 1_554
Be43 Be9 2.216060 1_554
Be43 Be7 2.236884 1_555
Be43 Be45 2.342087 1_554
Be43 U1 2.973684 1_655
Be43 U2 2.980196 1_555
Be44 Be50 2.135031 1_555
Be44 Be8 2.226335 1_555
Be44 Be6 2.242993 1_555
Be44 U2 2.964802 1_555
Be44 U0 2.973760 1_455
Be45 Be49 2.138611 1_555
Be45 Be9 2.223733 1_555
Be45 Be7 2.238778 1_556
Be45 U1 2.972127 1_566
Be45 U3 2.989491 1_555
Be46 Be49 2.135031 1_555
Be46 U0 2.964802 1_555
Be46 U2 2.973760 1_655
Be47 Be50 2.138611 1_555
Be47 Be5 2.238778 1_554
Be47 U3 2.972127 1_544
Be47 U1 2.989491 1_555
Be48 Be7 2.135421 1_555
Be48 Be5 2.135421 1_555
Be49 Be9 2.138611 1_555
Be50 Be8 2.135031 1_555
B0 Be6 2.091954 1_554
B0 Be4 2.091954 1_445
B0 Be32 2.091954 1_454
B0 Be34 2.091954 1_545
B0 Be20 2.091954 1_455
B0 Be22 2.091954 1_544
B0 Be16 2.094093 1_445
B0 Be18 2.094093 1_554
B0 Be0 2.094093 1_545
B0 Be2 2.094093 1_454
B0 Be36 2.094093 1_455
B0 Be38 2.094093 1_544
