# generated using pymatgen
data_Cs3(Cr5Se8)4
_symmetry_space_group_name_H-M   'P 1'
_cell_length_a   10.97601551
_cell_length_b   11.64246029
_cell_length_c   11.78033498
_cell_angle_alpha   111.44316332
_cell_angle_beta   81.67735029
_cell_angle_gamma   117.31338879
_symmetry_Int_Tables_number   1
_chemical_formula_structural   Cs3(Cr5Se8)4
_chemical_formula_sum   'Cs3 Cr20 Se32'
_cell_volume   1244.48246099
_cell_formula_units_Z   1
loop_
 _symmetry_equiv_pos_site_id
 _symmetry_equiv_pos_as_xyz
  1  'x, y, z'
loop_
 _atom_site_type_symbol
 _atom_site_label
 _atom_site_symmetry_multiplicity
 _atom_site_fract_x
 _atom_site_fract_y
 _atom_site_fract_z
 _atom_site_occupancy
  Cs  Cs0  1  0.72805120  0.22802940  0.22782945  1
  Cs  Cs1  1  -0.00000000  0.50000000  0.50000000  1
  Cs  Cs2  1  0.27194880  0.77197060  0.77217055  1
  Cr  Cr0  1  0.54209316  0.36173542  0.87823116  1
  Cr  Cr1  1  0.79115048  0.60894518  0.12735417  1
  Cr  Cr2  1  0.04215641  0.85909505  0.37856786  1
  Cr  Cr3  1  0.29284767  0.11106332  0.62950545  1
  Cr  Cr4  1  0.70715233  0.88893668  0.37049455  1
  Cr  Cr5  1  0.95784359  0.14090495  0.62143214  1
  Cr  Cr6  1  0.20884952  0.39105482  0.87264583  1
  Cr  Cr7  1  0.45790684  0.63826458  0.12176884  1
  Cr  Cr8  1  0.16163650  0.07140933  0.23587869  1
  Cr  Cr9  1  0.41123953  0.32127061  0.48526841  1
  Cr  Cr10  1  0.66292328  0.57157273  0.73529367  1
  Cr  Cr11  1  0.91292994  0.82227899  0.98594714  1
  Cr  Cr12  1  0.08707006  0.17772101  0.01405286  1
  Cr  Cr13  1  0.33707672  0.42842727  0.26470633  1
  Cr  Cr14  1  0.58876047  0.67872939  0.51473159  1
  Cr  Cr15  1  0.83836350  0.92859067  0.76412131  1
  Cr  Cr16  1  0.12526821  0.62525638  0.12498385  1
  Cr  Cr17  1  0.37503994  0.87495426  0.37460441  1
  Cr  Cr18  1  0.62496006  0.12504574  0.62539559  1
  Cr  Cr19  1  0.87473179  0.37474362  0.87501615  1
  Se  Se0  1  0.34429407  0.36648215  0.02434613  1
  Se  Se1  1  0.59453855  0.61620774  0.27452394  1
  Se  Se2  1  0.84472557  0.86751122  0.52451949  1
  Se  Se3  1  0.09466306  0.11762003  0.77450871  1
  Se  Se4  1  0.90533694  0.88237997  0.22549129  1
  Se  Se5  1  0.15527443  0.13248878  0.47548051  1
  Se  Se6  1  0.40546145  0.38379226  0.72547606  1
  Se  Se7  1  0.65570593  0.63351785  0.97565387  1
  Se  Se8  1  0.01686352  0.36692018  0.02033401  1
  Se  Se9  1  0.26648451  0.61664933  0.27080842  1
  Se  Se10  1  0.51726985  0.86691609  0.52041437  1
  Se  Se11  1  0.76735404  0.11691294  0.77020980  1
  Se  Se12  1  0.23264596  0.88308706  0.22979020  1
  Se  Se13  1  0.48273015  0.13308391  0.47958563  1
  Se  Se14  1  0.73351549  0.38335067  0.72919158  1
  Se  Se15  1  0.98313648  0.63307982  0.97966599  1
  Se  Se16  1  0.09332708  0.25029338  0.24122556  1
  Se  Se17  1  0.34478549  0.50152013  0.49208938  1
  Se  Se18  1  0.59634353  0.75068290  0.74153644  1
  Se  Se19  1  0.84429177  0.99939181  0.99020507  1
  Se  Se20  1  0.15570823  0.00060819  0.00979493  1
  Se  Se21  1  0.40365647  0.24931710  0.25846356  1
  Se  Se22  1  0.65521451  0.49847987  0.50791062  1
  Se  Se23  1  0.90667292  0.74970662  0.75877444  1
  Se  Se24  1  0.81777920  0.14134383  0.47414225  1
  Se  Se25  1  0.07007750  0.39361387  0.72636037  1
  Se  Se26  1  0.32054960  0.64263193  0.97768278  1
  Se  Se27  1  0.56705704  0.88860984  0.22382566  1
  Se  Se28  1  0.43294296  0.11139016  0.77617434  1
  Se  Se29  1  0.67945040  0.35736807  0.02231722  1
  Se  Se30  1  0.92992250  0.60638613  0.27363963  1
  Se  Se31  1  0.18222080  0.85865617  0.52585775  1
loop_
_geom_bond_atom_site_label_1
_geom_bond_atom_site_label_2
_geom_bond_distance
_geom_bond_site_symmetry_2
Cs0 Se29 3.491397 1_555
Cs0 Se27 3.495723 1_545
Cs0 Se19 3.631011 1_544
Cs0 Se21 3.638918 1_555
Cs0 Se30 3.775664 1_555
Cs0 Se24 3.780033 1_555
Cs0 Se8 3.818539 1_655
Cs0 Se13 3.823831 1_555
Cs0 Se16 3.919937 1_655
Cs0 Se22 3.923058 1_555
Cs1 Se24 3.620919 1_455
Cs1 Se31 3.620919 1_555
Cs1 Se30 3.622082 1_455
Cs1 Se25 3.622082 1_555
Cs1 Se16 3.760757 1_555
Cs1 Se23 3.760757 1_455
Cs1 Se17 3.764055 1_555
Cs1 Se22 3.764055 1_455
Cs1 Se14 3.799834 1_455
Cs1 Se9 3.799834 1_555
Cs2 Se26 3.491397 1_555
Cs2 Se28 3.495723 1_565
Cs2 Se20 3.631011 1_566
Cs2 Se18 3.638918 1_555
Cs2 Se25 3.775664 1_555
Cs2 Se31 3.780033 1_555
Cs2 Se15 3.818539 1_455
Cs2 Se10 3.823831 1_555
Cs2 Se23 3.919937 1_455
Cs2 Se17 3.923058 1_555
Cr0 Se28 2.454832 1_555
Cr0 Se29 2.455796 1_556
Cr0 Se14 2.516004 1_555
Cr0 Se0 2.576437 1_556
Cr0 Se7 2.649991 1_555
Cr0 Se6 2.650608 1_555
Cr1 Se29 2.471217 1_555
Cr1 Se30 2.475827 1_555
Cr1 Se15 2.509797 1_554
Cr1 Se1 2.578196 1_555
Cr1 Se7 2.649309 1_554
Cr1 Se4 2.666215 1_555
Cr2 Se30 2.481399 1_455
Cr2 Se31 2.481943 1_555
Cr2 Se12 2.506483 1_555
Cr2 Se2 2.579684 1_455
Cr2 Se4 2.663752 1_455
Cr2 Se5 2.665132 1_565
Cr3 Se28 2.471595 1_555
Cr3 Se31 2.476284 1_545
Cr3 Se13 2.510711 1_555
Cr3 Se3 2.576220 1_555
Cr3 Se6 2.658225 1_555
Cr3 Se5 2.665407 1_555
Cr4 Se27 2.471595 1_555
Cr4 Se24 2.476284 1_565
Cr4 Se10 2.510711 1_555
Cr4 Se4 2.576220 1_555
Cr4 Se1 2.658225 1_555
Cr4 Se2 2.665407 1_555
Cr5 Se25 2.481399 1_655
Cr5 Se24 2.481943 1_555
Cr5 Se11 2.506483 1_555
Cr5 Se5 2.579684 1_655
Cr5 Se3 2.663752 1_655
Cr5 Se2 2.665132 1_545
Cr6 Se26 2.471217 1_555
Cr6 Se25 2.475827 1_555
Cr6 Se8 2.509797 1_556
Cr6 Se6 2.578196 1_555
Cr6 Se0 2.649309 1_556
Cr6 Se3 2.666215 1_555
Cr7 Se27 2.454832 1_555
Cr7 Se26 2.455796 1_554
Cr7 Se9 2.516004 1_555
Cr7 Se7 2.576437 1_554
Cr7 Se0 2.649991 1_555
Cr7 Se1 2.650608 1_555
Cr8 Se21 2.483905 1_555
Cr8 Se20 2.484526 1_555
Cr8 Se16 2.495390 1_555
Cr8 Se12 2.618569 1_545
Cr8 Se4 2.644477 1_445
Cr8 Se5 2.645471 1_555
Cr9 Se17 2.491356 1_555
Cr9 Se21 2.492247 1_555
Cr9 Se22 2.496582 1_555
Cr9 Se13 2.622172 1_555
Cr9 Se5 2.641749 1_555
Cr9 Se6 2.650588 1_555
Cr10 Se18 2.481664 1_555
Cr10 Se23 2.497642 1_555
Cr10 Se22 2.497872 1_555
Cr10 Se14 2.614290 1_555
Cr10 Se6 2.649291 1_555
Cr10 Se7 2.652987 1_555
Cr11 Se19 2.482164 1_555
Cr11 Se20 2.490646 1_666
Cr11 Se23 2.495435 1_555
Cr11 Se15 2.621721 1_555
Cr11 Se4 2.646027 1_556
Cr11 Se7 2.650577 1_555
Cr12 Se20 2.482164 1_555
Cr12 Se19 2.490646 1_444
Cr12 Se16 2.495435 1_555
Cr12 Se8 2.621721 1_555
Cr12 Se3 2.646027 1_554
Cr12 Se0 2.650577 1_555
Cr13 Se21 2.481664 1_555
Cr13 Se16 2.497642 1_555
Cr13 Se17 2.497872 1_555
Cr13 Se9 2.614290 1_555
Cr13 Se1 2.649291 1_555
Cr13 Se0 2.652987 1_555
Cr14 Se22 2.491356 1_555
Cr14 Se18 2.492247 1_555
Cr14 Se17 2.496582 1_555
Cr14 Se10 2.622172 1_555
Cr14 Se2 2.641749 1_555
Cr14 Se1 2.650588 1_555
Cr15 Se18 2.483905 1_555
Cr15 Se19 2.484526 1_555
Cr15 Se23 2.495390 1_555
Cr15 Se11 2.618569 1_565
Cr15 Se3 2.644477 1_665
Cr15 Se2 2.645471 1_555
Cr16 Se12 2.527621 1_555
Cr16 Se15 2.527872 1_454
Cr16 Se9 2.530376 1_555
Cr16 Se8 2.532003 1_555
Cr16 Se26 2.535400 1_554
Cr16 Se30 2.544459 1_455
Cr17 Se12 2.527403 1_555
Cr17 Se9 2.530511 1_555
Cr17 Se13 2.530613 1_565
Cr17 Se10 2.534600 1_555
Cr17 Se27 2.537201 1_555
Cr17 Se31 2.544982 1_555
Cr18 Se11 2.527403 1_555
Cr18 Se14 2.530511 1_555
Cr18 Se10 2.530613 1_545
Cr18 Se13 2.534600 1_555
Cr18 Se28 2.537201 1_555
Cr18 Se24 2.544982 1_555
Cr19 Se11 2.527621 1_555
Cr19 Se8 2.527872 1_656
Cr19 Se14 2.530376 1_555
Cr19 Se15 2.532003 1_555
Cr19 Se29 2.535400 1_556
Cr19 Se25 2.544459 1_655
