# generated using pymatgen
data_Mn3(P2O7)2
_symmetry_space_group_name_H-M   'P 1'
_cell_length_a   6.04070977
_cell_length_b   13.33368024
_cell_length_c   7.71860699
_cell_angle_alpha   88.25058675
_cell_angle_beta   73.63165861
_cell_angle_gamma   101.94097002
_symmetry_Int_Tables_number   1
_chemical_formula_structural   Mn3(P2O7)2
_chemical_formula_sum   'Mn6 P8 O28'
_cell_volume   580.97035152
_cell_formula_units_Z   2
loop_
 _symmetry_equiv_pos_site_id
 _symmetry_equiv_pos_as_xyz
  1  'x, y, z'
loop_
 _atom_site_type_symbol
 _atom_site_label
 _atom_site_symmetry_multiplicity
 _atom_site_fract_x
 _atom_site_fract_y
 _atom_site_fract_z
 _atom_site_occupancy
  Mn  Mn0  1  0.48798900  0.50345600  0.99285600  1
  Mn  Mn1  1  0.51562000  0.76389800  0.66485700  1
  Mn  Mn2  1  0.47530300  0.23533900  0.33681900  1
  Mn  Mn3  1  0.98814800  0.00318900  0.99293400  1
  Mn  Mn4  1  0.01514400  0.26389500  0.66502300  1
  Mn  Mn5  1  0.97577600  0.73543800  0.33663700  1
  P  P0  1  0.51604100  0.15343400  0.92980300  1
  P  P1  1  0.01621500  0.65334700  0.92985200  1
  P  P2  1  0.97973200  0.34611500  0.07690800  1
  P  P3  1  0.47985200  0.84614100  0.07695300  1
  P  P4  1  0.94447700  0.15319300  0.30465000  1
  P  P5  1  0.44451800  0.65321000  0.30473500  1
  P  P6  1  0.57162300  0.34775500  0.68156400  1
  P  P7  1  0.07186100  0.84766700  0.68162300  1
  O  O0  1  0.12002700  0.18823900  0.41889500  1
  O  O1  1  0.62019000  0.68818700  0.41890100  1
  O  O2  1  0.40302300  0.30498100  0.56409100  1
  O  O3  1  0.90326500  0.80501100  0.56407600  1
  O  O4  1  0.69604400  0.15548500  0.41653200  1
  O  O5  1  0.19606400  0.65551000  0.41659200  1
  O  O6  1  0.82466500  0.35573900  0.57496900  1
  O  O7  1  0.32490100  0.85568400  0.57507100  1
  O  O8  1  0.31468100  0.07460800  0.89129900  1
  O  O9  1  0.81482100  0.57453200  0.89140400  1
  O  O10  1  0.17582900  0.42566900  0.12110300  1
  O  O11  1  0.67589700  0.92567700  0.12118900  1
  O  O12  1  0.49088400  0.26500700  0.85874800  1
  O  O13  1  0.99093500  0.76490600  0.85877500  1
  O  O14  1  0.02669000  0.23425800  0.12779800  1
  O  O15  1  0.52676700  0.73431100  0.12787400  1
  O  O16  1  0.50550000  0.44444400  0.76402900  1
  O  O17  1  0.00563200  0.94431900  0.76414700  1
  O  O18  1  0.98242600  0.05222400  0.22613700  1
  O  O19  1  0.48228000  0.55225700  0.22614400  1
  O  O20  1  0.99791100  0.35082800  0.87946000  1
  O  O21  1  0.49802100  0.85081200  0.87949900  1
  O  O22  1  0.47710900  0.15828100  0.13469600  1
  O  O23  1  0.97708200  0.65825000  0.13476300  1
  O  O24  1  0.73280200  0.35077500  0.20114400  1
  O  O25  1  0.23291400  0.85086200  0.20109600  1
  O  O26  1  0.76053600  0.13653600  0.83308100  1
  O  O27  1  0.26080400  0.63653200  0.83327400  1
loop_
_geom_bond_atom_site_label_1
_geom_bond_atom_site_label_2
_geom_bond_distance
_geom_bond_site_symmetry_2
Mn0 O10 1.920238 1_556
Mn0 O19 1.926860 1_556
Mn0 O9 1.928278 1_555
Mn0 O16 1.940068 1_555
Mn1 O21 2.041575 1_555
Mn1 O7 2.070516 1_555
Mn1 O27 2.144523 1_555
Mn1 O1 2.174208 1_555
Mn1 O3 2.192045 1_555
Mn2 O22 1.892792 1_555
Mn2 O24 1.969273 1_555
Mn2 O2 1.991417 1_555
Mn2 O0 2.013269 1_555
Mn2 O4 2.073696 1_555
Mn3 O11 1.919476 1_546
Mn3 O18 1.927387 1_556
Mn3 O8 1.928194 1_655
Mn3 O17 1.938966 1_645
Mn4 O20 2.040572 1_455
Mn4 O6 2.070914 1_455
Mn4 O26 2.142933 1_455
Mn4 O0 2.175139 1_555
Mn4 O2 2.193388 1_555
Mn5 O23 1.892513 1_555
Mn5 O25 1.967839 1_655
Mn5 O3 1.992090 1_555
Mn5 O1 2.015150 1_555
Mn5 O5 2.072911 1_655
O0 P4 1.570877 1_455
O1 P5 1.570822 1_555
O2 P6 1.580001 1_555
O3 P7 1.580036 1_655
O4 P4 1.512937 1_555
O5 P5 1.513012 1_555
O6 P6 1.497742 1_555
O7 P7 1.497577 1_555
O8 P0 1.538288 1_555
O9 P1 1.538167 1_655
O10 P2 1.540983 1_455
O11 P3 1.540784 1_555
O12 P0 1.621044 1_555
O12 P6 1.623218 1_555
O13 P1 1.621210 1_655
O13 P7 1.623051 1_655
O14 P4 1.607490 1_455
O14 P2 1.631356 1_455
O15 P5 1.607806 1_555
O15 P3 1.630967 1_555
O16 P6 1.531888 1_555
O17 P7 1.531811 1_555
O18 P4 1.526931 1_555
O19 P5 1.526714 1_555
O20 P2 1.495201 1_556
O21 P3 1.495263 1_556
O22 P0 1.537366 1_554
O23 P1 1.537426 1_654
O24 P2 1.544077 1_555
O25 P3 1.544076 1_555
O26 P0 1.521820 1_555
O27 P1 1.521662 1_555
