# generated using pymatgen
data_LaGa2Ni3
_symmetry_space_group_name_H-M   'P 1'
_cell_length_a   8.90694915
_cell_length_b   8.90629782
_cell_length_c   4.12173294
_cell_angle_alpha   90.00000000
_cell_angle_beta   90.00000000
_cell_angle_gamma   119.99288057
_symmetry_Int_Tables_number   1
_chemical_formula_structural   LaGa2Ni3
_chemical_formula_sum   'La3 Ga6 Ni9'
_cell_volume   283.18341774
_cell_formula_units_Z   3
loop_
 _symmetry_equiv_pos_site_id
 _symmetry_equiv_pos_as_xyz
  1  'x, y, z'
loop_
 _atom_site_type_symbol
 _atom_site_label
 _atom_site_symmetry_multiplicity
 _atom_site_fract_x
 _atom_site_fract_y
 _atom_site_fract_z
 _atom_site_occupancy
  La  La0  1  0.66673213  0.33340549  0.50000000  1
  La  La1  1  0.33328417  0.66667656  0.50000000  1
  La  La2  1  -0.00001604  0.99989570  0.00000000  1
  Ga  Ga0  1  0.46882531  0.46886126  -0.00000000  1
  Ga  Ga1  1  0.53114182  0.00003251  -0.00000000  1
  Ga  Ga2  1  0.00001142  0.53117033  -0.00000000  1
  Ga  Ga3  1  0.72558208  0.72560919  0.50000000  1
  Ga  Ga4  1  0.27439588  0.00001549  0.50000000  1
  Ga  Ga5  1  0.00001035  0.27436588  0.50000000  1
  Ni  Ni0  1  0.83420165  0.20663659  0.00000000  1
  Ni  Ni1  1  0.79335017  0.62754141  0.00000000  1
  Ni  Ni2  1  0.37247291  0.16579690  0.00000000  1
  Ni  Ni3  1  0.20666268  0.83417400  0.00000000  1
  Ni  Ni4  1  0.62752805  0.79332980  -0.00000000  1
  Ni  Ni5  1  0.16579239  0.37241451  0.00000000  1
  Ni  Ni6  1  0.28646109  0.28645991  0.50000000  1
  Ni  Ni7  1  0.71355447  0.00000490  0.50000000  1
  Ni  Ni8  1  0.00001047  0.71360958  0.50000000  1
loop_
_geom_bond_atom_site_label_1
_geom_bond_atom_site_label_2
_geom_bond_distance
_geom_bond_site_symmetry_2
La0 Ni1 3.070492 1_556
La0 Ni1 3.070492 1_555
La0 Ni0 3.070939 1_556
La0 Ni0 3.070939 1_555
La0 Ni2 3.071366 1_555
La0 Ni2 3.071366 1_556
La0 Ni8 3.198218 1_655
La0 Ni7 3.198303 1_555
La0 Ni6 3.198608 1_555
La1 Ni3 3.070282 1_556
La1 Ni3 3.070282 1_555
La1 Ni5 3.071209 1_555
La1 Ni5 3.071209 1_556
La1 Ni4 3.071251 1_555
La1 Ni4 3.071251 1_556
La1 Ni8 3.197964 1_555
La1 Ni6 3.198304 1_555
La1 Ni7 3.198807 1_565
La2 Ni1 2.878008 1_455
La2 Ni3 2.878158 1_555
La2 Ni4 2.878917 1_455
La2 Ni0 2.879073 1_465
La2 Ni2 2.879145 1_565
La2 Ni5 2.879211 1_565
La2 Ni8 3.278566 1_554
La2 Ni8 3.278566 1_555
La2 Ni7 3.279991 1_465
La2 Ni7 3.279991 1_464
La2 Ni6 3.280385 1_565
La2 Ni6 3.280385 1_564
Ga0 Ni5 2.388515 1_555
Ga0 Ni2 2.388753 1_555
Ga0 Ni4 2.503024 1_555
Ga0 Ni1 2.503650 1_555
Ga0 Ni6 2.624207 1_554
Ga0 Ni6 2.624207 1_555
Ga0 La1 3.306823 1_555
Ga0 La1 3.306823 1_554
Ga0 La0 3.306963 1_555
Ga0 La0 3.306963 1_554
Ga1 Ni4 2.388784 1_545
Ga1 Ni0 2.388805 1_555
Ga1 Ni2 2.502579 1_555
Ga1 Ni3 2.503306 1_545
Ga1 Ni7 2.624376 1_555
Ga1 Ni7 2.624376 1_554
Ga1 La0 3.307015 1_554
Ga1 La0 3.307015 1_555
Ga1 La1 3.307047 1_545
Ga1 La1 3.307047 1_544
Ga2 Ni3 2.388400 1_555
Ga2 Ni1 2.388413 1_455
Ga2 Ni5 2.503378 1_555
Ga2 Ni0 2.503538 1_455
Ga2 Ni8 2.624376 1_555
Ga2 Ni8 2.624376 1_554
Ga2 La1 3.306602 1_555
Ga2 La1 3.306602 1_554
Ga2 La0 3.306672 1_454
Ga2 La0 3.306672 1_455
Ga3 Ni4 2.429065 1_556
Ga3 Ni4 2.429065 1_555
Ga3 Ni1 2.429293 1_555
Ga3 Ni1 2.429293 1_556
Ga3 Ni7 2.499126 1_565
Ga3 Ni8 2.499459 1_655
Ga3 La2 3.196725 1_656
Ga3 La2 3.196725 1_655
Ga3 La0 3.262790 1_555
Ga3 La1 3.263613 1_555
Ga4 Ni2 2.429155 1_555
Ga4 Ni2 2.429155 1_556
Ga4 Ni3 2.429376 1_546
Ga4 Ni3 2.429376 1_545
Ga4 Ni6 2.499172 1_555
Ga4 Ni8 2.499360 1_545
Ga4 La2 3.196646 1_545
Ga4 La2 3.196646 1_546
Ga4 La1 3.262796 1_545
Ga4 La0 3.264091 1_555
Ga5 Ni5 2.429186 1_555
Ga5 Ni5 2.429186 1_556
Ga5 Ni0 2.429291 1_456
Ga5 Ni0 2.429291 1_455
Ga5 Ni6 2.499299 1_555
Ga5 Ni7 2.499510 1_455
Ga5 La2 3.197224 1_546
Ga5 La2 3.197224 1_545
Ga5 La0 3.263282 1_455
Ga5 La1 3.263487 1_555
Ni0 Ni5 2.557956 1_655
Ni0 Ni7 2.609893 1_554
Ni0 Ni7 2.609893 1_555
Ni1 Ni4 2.557740 1_555
Ni1 Ni8 2.610038 1_654
Ni1 Ni8 2.610038 1_655
Ni2 Ni3 2.558018 1_545
Ni2 Ni6 2.610001 1_554
Ni2 Ni6 2.610001 1_555
Ni3 Ni8 2.610003 1_555
Ni3 Ni8 2.610003 1_554
Ni4 Ni7 2.610055 1_565
Ni4 Ni7 2.610055 1_564
Ni5 Ni6 2.609790 1_554
Ni5 Ni6 2.609790 1_555
