# generated using pymatgen
data_Mn3ZnO10
_symmetry_space_group_name_H-M   'P 1'
_cell_length_a   9.06504109
_cell_length_b   9.06504109
_cell_length_c   9.06504065
_cell_angle_alpha   50.69033465
_cell_angle_beta   50.69033465
_cell_angle_gamma   50.69033341
_symmetry_Int_Tables_number   1
_chemical_formula_structural   Mn3ZnO10
_chemical_formula_sum   'Mn6 Zn2 O20'
_cell_volume   411.05289776
_cell_formula_units_Z   2
loop_
 _symmetry_equiv_pos_site_id
 _symmetry_equiv_pos_as_xyz
  1  'x, y, z'
loop_
 _atom_site_type_symbol
 _atom_site_label
 _atom_site_symmetry_multiplicity
 _atom_site_fract_x
 _atom_site_fract_y
 _atom_site_fract_z
 _atom_site_occupancy
  Mn  Mn0  1  0.57037700  0.28206800  0.14807900  1
  Mn  Mn1  1  0.42962300  0.71793200  0.85192100  1
  Mn  Mn2  1  0.14807900  0.57037700  0.28206800  1
  Mn  Mn3  1  0.85192100  0.42962300  0.71793200  1
  Mn  Mn4  1  0.71793200  0.85192100  0.42962300  1
  Mn  Mn5  1  0.28206800  0.14807900  0.57037700  1
  Zn  Zn0  1  0.93645100  0.93645100  0.93645100  1
  Zn  Zn1  1  0.06354900  0.06354900  0.06354900  1
  O  O0  1  0.57666100  0.43080200  0.86948300  1
  O  O1  1  0.42333900  0.56919800  0.13051700  1
  O  O2  1  0.68917800  0.00594900  0.17016400  1
  O  O3  1  0.31082200  0.99405100  0.82983600  1
  O  O4  1  0.17016400  0.68917800  0.00594900  1
  O  O5  1  0.82983600  0.31082200  0.99405100  1
  O  O6  1  0.29323300  0.29323300  0.29323300  1
  O  O7  1  0.70676700  0.70676700  0.70676700  1
  O  O8  1  0.86948300  0.57666100  0.43080200  1
  O  O9  1  0.13051700  0.42333900  0.56919800  1
  O  O10  1  0.43080200  0.86948300  0.57666100  1
  O  O11  1  0.56919800  0.13051700  0.42333900  1
  O  O12  1  0.00594900  0.17016400  0.68917800  1
  O  O13  1  0.99405100  0.82983600  0.31082200  1
  O  O14  1  0.01091800  0.91260100  0.57901800  1
  O  O15  1  0.98908200  0.08739900  0.42098200  1
  O  O16  1  0.57901800  0.01091800  0.91260100  1
  O  O17  1  0.42098200  0.98908200  0.08739900  1
  O  O18  1  0.08739900  0.42098200  0.98908200  1
  O  O19  1  0.91260100  0.57901800  0.01091800  1
loop_
_geom_bond_atom_site_label_1
_geom_bond_atom_site_label_2
_geom_bond_distance
_geom_bond_site_symmetry_2
Mn0 O2 1.920390 1_555
Mn0 O5 1.924613 1_554
Mn0 O6 1.926518 1_555
Mn0 O11 1.937828 1_555
Mn0 O0 1.949338 1_554
Mn0 O1 1.981132 1_555
Mn1 O3 1.920390 1_555
Mn1 O4 1.924613 1_556
Mn1 O7 1.926518 1_555
Mn1 O10 1.937828 1_555
Mn1 O1 1.949338 1_556
Mn1 O0 1.981132 1_555
Mn2 O4 1.920390 1_555
Mn2 O13 1.924613 1_455
Mn2 O6 1.926518 1_555
Mn2 O1 1.937828 1_555
Mn2 O8 1.949338 1_455
Mn2 O9 1.981132 1_555
Mn3 O5 1.920390 1_555
Mn3 O12 1.924613 1_655
Mn3 O7 1.926518 1_555
Mn3 O0 1.937828 1_555
Mn3 O9 1.949338 1_655
Mn3 O8 1.981132 1_555
Mn4 O13 1.920390 1_555
Mn4 O2 1.924613 1_565
Mn4 O7 1.926518 1_555
Mn4 O8 1.937828 1_555
Mn4 O11 1.949338 1_565
Mn4 O10 1.981132 1_555
Mn5 O12 1.920390 1_555
Mn5 O3 1.924613 1_545
Mn5 O6 1.926518 1_555
Mn5 O9 1.937828 1_555
Mn5 O10 1.949338 1_545
Mn5 O11 1.981132 1_555
O2 Zn0 1.948019 1_544
O3 Zn1 1.948019 1_566
O4 Zn0 1.948019 1_454
O5 Zn1 1.948019 1_656
O12 Zn0 1.948019 1_445
O13 Zn1 1.948019 1_665
O14 O15 1.299247 1_465
O16 O17 1.299247 1_546
O18 O19 1.299247 1_456
