# generated using pymatgen
data_Fe23C6
_symmetry_space_group_name_H-M   'P 1'
_cell_length_a   7.38610085
_cell_length_b   7.38610085
_cell_length_c   7.38610085
_cell_angle_alpha   60.00000000
_cell_angle_beta   60.00000000
_cell_angle_gamma   60.00000000
_symmetry_Int_Tables_number   1
_chemical_formula_structural   Fe23C6
_chemical_formula_sum   'Fe23 C6'
_cell_volume   284.92509546
_cell_formula_units_Z   1
loop_
 _symmetry_equiv_pos_site_id
 _symmetry_equiv_pos_as_xyz
  1  'x, y, z'
loop_
 _atom_site_type_symbol
 _atom_site_label
 _atom_site_symmetry_multiplicity
 _atom_site_fract_x
 _atom_site_fract_y
 _atom_site_fract_z
 _atom_site_occupancy
  Fe  Fe0  1  0.00000000  0.00000000  0.00000000  1
  Fe  Fe1  1  0.75000000  0.75000000  0.75000000  1
  Fe  Fe2  1  0.25000000  0.25000000  0.25000000  1
  Fe  Fe3  1  0.61631700  0.61631700  0.15104800  1
  Fe  Fe4  1  0.61631700  0.15104800  0.61631700  1
  Fe  Fe5  1  0.15104800  0.61631700  0.61631700  1
  Fe  Fe6  1  0.61631700  0.61631700  0.61631700  1
  Fe  Fe7  1  0.38368300  0.38368300  0.84895200  1
  Fe  Fe8  1  0.38368300  0.84895200  0.38368300  1
  Fe  Fe9  1  0.84895200  0.38368300  0.38368300  1
  Fe  Fe10  1  0.38368300  0.38368300  0.38368300  1
  Fe  Fe11  1  0.00000000  0.00000000  0.33839900  1
  Fe  Fe12  1  0.66160100  0.00000000  0.33839900  1
  Fe  Fe13  1  0.00000000  0.66160100  0.33839900  1
  Fe  Fe14  1  0.66160100  0.33839900  0.00000000  1
  Fe  Fe15  1  0.00000000  0.33839900  0.00000000  1
  Fe  Fe16  1  0.00000000  0.33839900  0.66160100  1
  Fe  Fe17  1  0.33839900  0.66160100  0.00000000  1
  Fe  Fe18  1  0.33839900  0.00000000  0.66160100  1
  Fe  Fe19  1  0.33839900  0.00000000  0.00000000  1
  Fe  Fe20  1  0.00000000  0.00000000  0.66160100  1
  Fe  Fe21  1  0.00000000  0.66160100  0.00000000  1
  Fe  Fe22  1  0.66160100  0.00000000  0.00000000  1
  C  C0  1  0.27741000  0.27741000  0.72259000  1
  C  C1  1  0.72259000  0.27741000  0.72259000  1
  C  C2  1  0.27741000  0.72259000  0.72259000  1
  C  C3  1  0.72259000  0.72259000  0.27741000  1
  C  C4  1  0.27741000  0.72259000  0.27741000  1
  C  C5  1  0.72259000  0.27741000  0.27741000  1
loop_
_geom_bond_atom_site_label_1
_geom_bond_atom_site_label_2
_geom_bond_distance
_geom_bond_site_symmetry_2
Fe0 Fe11 2.499449 1_555
Fe0 Fe15 2.499449 1_555
Fe0 Fe22 2.499449 1_455
Fe0 Fe13 2.499449 1_545
Fe0 Fe16 2.499449 1_554
Fe0 Fe19 2.499449 1_555
Fe0 Fe14 2.499449 1_455
Fe0 Fe17 2.499449 1_545
Fe0 Fe21 2.499449 1_545
Fe0 Fe20 2.499449 1_554
Fe0 Fe12 2.499449 1_455
Fe0 Fe18 2.499449 1_554
Fe1 Fe3 2.418611 1_556
Fe1 Fe4 2.418611 1_565
Fe1 Fe5 2.418611 1_655
Fe1 Fe6 2.418617 1_555
Fe2 Fe7 2.418611 1_554
Fe2 Fe8 2.418611 1_545
Fe2 Fe9 2.418611 1_455
Fe10 Fe2 2.418617 1_555
C0 Fe10 2.045650 1_555
C0 Fe5 2.045650 1_555
C0 Fe4 2.045650 1_555
C0 Fe7 2.045656 1_555
C0 Fe19 2.097912 1_556
C0 Fe15 2.097912 1_556
C0 Fe16 2.097912 1_555
C0 Fe18 2.097912 1_555
C1 Fe6 2.045650 1_555
C1 Fe9 2.045650 1_555
C1 Fe7 2.045650 1_555
C1 Fe4 2.045656 1_555
C1 Fe14 2.097912 1_556
C1 Fe16 2.097912 1_655
C1 Fe20 2.097912 1_655
C1 Fe22 2.097912 1_556
C2 Fe6 2.045650 1_555
C2 Fe8 2.045650 1_555
C2 Fe7 2.045650 1_555
C2 Fe5 2.045656 1_555
C2 Fe18 2.097912 1_565
C2 Fe17 2.097912 1_556
C2 Fe21 2.097912 1_556
C2 Fe20 2.097912 1_565
C3 Fe6 2.045650 1_555
C3 Fe9 2.045650 1_555
C3 Fe8 2.045650 1_555
C3 Fe3 2.045656 1_555
C3 Fe12 2.097912 1_565
C3 Fe13 2.097912 1_655
C3 Fe21 2.097912 1_655
C3 Fe22 2.097912 1_565
C4 Fe10 2.045650 1_555
C4 Fe5 2.045650 1_555
C4 Fe3 2.045650 1_555
C4 Fe8 2.045656 1_555
C4 Fe11 2.097912 1_565
C4 Fe19 2.097912 1_565
C4 Fe13 2.097912 1_555
C4 Fe17 2.097912 1_555
C5 Fe10 2.045650 1_555
C5 Fe4 2.045650 1_555
C5 Fe3 2.045650 1_555
C5 Fe9 2.045656 1_555
C5 Fe11 2.097912 1_655
C5 Fe15 2.097912 1_655
C5 Fe12 2.097912 1_555
C5 Fe14 2.097912 1_555
