# generated using pymatgen
data_BaZnF4
_symmetry_space_group_name_H-M   'P 1'
_cell_length_a   4.21042551
_cell_length_b   5.99242400
_cell_length_c   14.56926226
_cell_angle_alpha   90.00000000
_cell_angle_beta   89.89114799
_cell_angle_gamma   90.00000000
_symmetry_Int_Tables_number   1
_chemical_formula_structural   BaZnF4
_chemical_formula_sum   'Ba4 Zn4 F16'
_cell_volume   367.59136439
_cell_formula_units_Z   4
loop_
 _symmetry_equiv_pos_site_id
 _symmetry_equiv_pos_as_xyz
  1  'x, y, z'
loop_
 _atom_site_type_symbol
 _atom_site_label
 _atom_site_symmetry_multiplicity
 _atom_site_fract_x
 _atom_site_fract_y
 _atom_site_fract_z
 _atom_site_occupancy
  Ba  Ba0  1  0.02811700  0.86677900  0.87314200  1
  Ba  Ba1  1  0.52811700  0.13322100  0.37314200  1
  Ba  Ba2  1  0.53423900  0.61404900  0.12828100  1
  Ba  Ba3  1  0.03423900  0.38595100  0.62828100  1
  Zn  Zn0  1  0.52749500  0.37093400  0.85295500  1
  Zn  Zn1  1  0.02749500  0.62906600  0.35295500  1
  Zn  Zn2  1  0.03251700  0.11694500  0.14719800  1
  Zn  Zn3  1  0.53251700  0.88305500  0.64719800  1
  F  F0  1  0.52995600  0.62200600  0.94266300  1
  F  F1  1  0.02995600  0.37799400  0.44266300  1
  F  F2  1  0.03093300  0.86177200  0.05870100  1
  F  F3  1  0.53093300  0.13822800  0.55870100  1
  F  F4  1  0.52684400  0.10008800  0.92838900  1
  F  F5  1  0.02684400  0.89991200  0.42838900  1
  F  F6  1  0.03570200  0.38251900  0.06913000  1
  F  F7  1  0.53570200  0.61748100  0.56913000  1
  F  F8  1  0.52549400  0.63710000  0.75658200  1
  F  F9  1  0.02549400  0.36290000  0.25658200  1
  F  F10  1  0.03277900  0.85830000  0.24230200  1
  F  F11  1  0.53277900  0.14170000  0.74230200  1
  F  F12  1  0.53192400  0.12226200  0.16937700  1
  F  F13  1  0.03192400  0.87773800  0.66937700  1
  F  F14  1  0.02820000  0.37815100  0.83208100  1
  F  F15  1  0.52820000  0.62184900  0.33208100  1
loop_
_geom_bond_atom_site_label_1
_geom_bond_atom_site_label_2
_geom_bond_distance
_geom_bond_site_symmetry_2
Ba0 F4 2.649213 1_565
Ba0 F4 2.655294 1_465
Ba0 F2 2.703673 1_556
Ba0 F0 2.751121 1_455
Ba0 F0 2.765877 1_555
Ba0 F13 2.969445 1_555
Ba0 F14 2.988553 1_555
Ba0 F8 3.024927 1_555
Ba0 F8 3.044725 1_455
Ba0 F14 3.122205 1_565
Ba0 F11 3.273010 1_465
Ba0 F11 3.293538 1_565
Ba1 F5 2.649213 1_645
Ba1 F5 2.655294 1_545
Ba1 F3 2.703673 1_555
Ba1 F1 2.751121 1_555
Ba1 F1 2.765877 1_655
Ba1 F12 2.969445 1_555
Ba1 F15 2.988553 1_555
Ba1 F9 3.024927 1_655
Ba1 F9 3.044725 1_555
Ba1 F15 3.122205 1_545
Ba1 F10 3.273010 1_545
Ba1 F10 3.293538 1_645
Ba2 F6 2.660925 1_555
Ba2 F6 2.668072 1_655
Ba2 F0 2.704832 1_554
Ba2 F2 2.756215 1_655
Ba2 F2 2.780316 1_555
Ba2 F15 2.969644 1_555
Ba2 F12 3.007216 1_555
Ba2 F10 3.053065 1_655
Ba2 F10 3.057187 1_555
Ba2 F12 3.103738 1_565
Ba2 F9 3.170495 1_655
Ba2 F9 3.214372 1_555
Ba3 F7 2.660925 1_455
Ba3 F7 2.668072 1_555
Ba3 F1 2.704832 1_555
Ba3 F3 2.756215 1_555
Ba3 F3 2.780316 1_455
Ba3 F14 2.969644 1_555
Ba3 F13 3.007216 1_555
Ba3 F11 3.053065 1_555
Ba3 F11 3.057187 1_455
Ba3 F13 3.103738 1_545
Ba3 F8 3.170495 1_555
Ba3 F8 3.214372 1_455
F0 Zn0 1.992979 1_555
F1 Zn1 1.992979 1_555
F2 Zn2 2.000156 1_565
F3 Zn3 2.000156 1_545
F4 Zn0 1.960113 1_555
F5 Zn1 1.960113 1_555
F6 Zn2 1.956129 1_555
F7 Zn3 1.956129 1_555
F8 Zn0 2.124977 1_555
F8 Zn3 2.170871 1_555
F9 Zn1 2.124977 1_555
F9 Zn2 2.170871 1_555
F10 Zn2 2.078967 1_565
F10 Zn1 2.118087 1_555
F11 Zn3 2.078967 1_545
F11 Zn0 2.118087 1_555
F12 Zn2 2.128245 1_555
F12 Zn2 2.131966 1_655
F13 Zn3 2.128245 1_455
F13 Zn3 2.131966 1_555
F14 Zn0 2.125140 1_555
F14 Zn0 2.129871 1_455
F15 Zn1 2.125140 1_655
F15 Zn1 2.129871 1_555
