# generated using pymatgen
data_Te6MoW3S2
_symmetry_space_group_name_H-M   'P 1'
_cell_length_a   3.45389764
_cell_length_b   3.45389764
_cell_length_c   39.35658400
_cell_angle_alpha   90.00000000
_cell_angle_beta   90.00000000
_cell_angle_gamma   119.99999320
_symmetry_Int_Tables_number   1
_chemical_formula_structural   Te6MoW3S2
_chemical_formula_sum   'Te6 Mo1 W3 S2'
_cell_volume   406.59963483
_cell_formula_units_Z   1
loop_
 _symmetry_equiv_pos_site_id
 _symmetry_equiv_pos_as_xyz
  1  'x, y, z'
loop_
 _atom_site_type_symbol
 _atom_site_label
 _atom_site_symmetry_multiplicity
 _atom_site_fract_x
 _atom_site_fract_y
 _atom_site_fract_z
 _atom_site_occupancy
  Te  Te0  1  0.00000000  0.00000000  0.70483200  1
  Te  Te1  1  0.33333300  0.66666700  0.04693900  1
  Te  Te2  1  0.33333300  0.66666700  0.42235600  1
  Te  Te3  1  0.33333300  0.66666700  0.14092700  1
  Te  Te4  1  0.33333300  0.66666700  0.51685300  1
  Te  Te5  1  0.00000000  0.00000000  0.61032100  1
  Mo  Mo0  1  0.00000000  0.00000000  0.09392700  1
  W  W0  1  0.00000000  0.00000000  0.46960700  1
  W  W1  1  0.33333300  0.66666700  0.28180100  1
  W  W2  1  0.33333300  0.66666700  0.65759500  1
  S  S0  1  0.00000000  0.00000000  0.31964400  1
  S  S1  1  0.00000000  0.00000000  0.24394600  1
loop_
_geom_bond_atom_site_label_1
_geom_bond_atom_site_label_2
_geom_bond_distance
_geom_bond_site_symmetry_2
Te0 W2 2.726292 1_545
Te0 W2 2.726294 1_445
Te0 W2 2.726294 1_555
Te2 W0 2.726667 1_565
Te2 W0 2.726670 1_555
Te2 W0 2.726670 1_665
Te4 W0 2.726533 1_565
Te4 W0 2.726535 1_555
Te4 W0 2.726535 1_665
Te5 W2 2.727285 1_545
Te5 W2 2.727287 1_445
Te5 W2 2.727287 1_555
Mo0 Te1 2.719618 1_545
Mo0 Te1 2.719621 1_555
Mo0 Te1 2.719621 1_445
Mo0 Te3 2.719940 1_545
Mo0 Te3 2.719942 1_445
Mo0 Te3 2.719942 1_555
S0 W1 2.488913 1_545
S0 W1 2.488916 1_555
S0 W1 2.488916 1_445
S1 W1 2.489196 1_545
S1 W1 2.489198 1_555
S1 W1 2.489198 1_445
