# generated using pymatgen
data_SrSb4S7O6
_symmetry_space_group_name_H-M   'P 1'
_cell_length_a   7.25919700
_cell_length_b   8.80398900
_cell_length_c   27.27546891
_cell_angle_alpha   77.13885552
_cell_angle_beta   90.00000000
_cell_angle_gamma   90.00000000
_symmetry_Int_Tables_number   1
_chemical_formula_structural   SrSb4S7O6
_chemical_formula_sum   'Sr4 Sb16 S28 O24'
_cell_volume   1699.44016996
_cell_formula_units_Z   4
loop_
 _symmetry_equiv_pos_site_id
 _symmetry_equiv_pos_as_xyz
  1  'x, y, z'
loop_
 _atom_site_type_symbol
 _atom_site_label
 _atom_site_symmetry_multiplicity
 _atom_site_fract_x
 _atom_site_fract_y
 _atom_site_fract_z
 _atom_site_occupancy
  Sr  Sr0  1  0.65070300  0.59622500  0.23483800  1
  Sr  Sr1  1  0.84929700  0.59622500  0.73483800  1
  Sr  Sr2  1  0.34929700  0.40377500  0.76516200  1
  Sr  Sr3  1  0.15070300  0.40377500  0.26516200  1
  Sb  Sb0  1  0.94414700  0.42339500  0.13133400  1
  Sb  Sb1  1  0.55585300  0.42339500  0.63133400  1
  Sb  Sb2  1  0.05585300  0.57660500  0.86866600  1
  Sb  Sb3  1  0.44414700  0.57660500  0.36866600  1
  Sb  Sb4  1  0.46267900  0.32774300  0.09706400  1
  Sb  Sb5  1  0.03732100  0.32774300  0.59706400  1
  Sb  Sb6  1  0.53732100  0.67225700  0.90293600  1
  Sb  Sb7  1  0.96267900  0.67225700  0.40293600  1
  Sb  Sb8  1  0.31712000  0.72916200  0.04233800  1
  Sb  Sb9  1  0.18288000  0.72916200  0.54233800  1
  Sb  Sb10  1  0.68288000  0.27083800  0.95766200  1
  Sb  Sb11  1  0.81712000  0.27083800  0.45766200  1
  Sb  Sb12  1  0.80447000  0.85943300  0.01022400  1
  Sb  Sb13  1  0.69553000  0.85943300  0.51022400  1
  Sb  Sb14  1  0.19553000  0.14056700  0.98977600  1
  Sb  Sb15  1  0.30447000  0.14056700  0.48977600  1
  S  S0  1  0.55012100  0.59146800  0.10885000  1
  S  S1  1  0.94987900  0.59146800  0.60885000  1
  S  S2  1  0.44987900  0.40853200  0.89115000  1
  S  S3  1  0.05012100  0.40853200  0.39115000  1
  S  S4  1  0.04445800  0.70597100  0.09683300  1
  S  S5  1  0.45554200  0.70597100  0.59683300  1
  S  S6  1  0.95554200  0.29402900  0.90316700  1
  S  S7  1  0.54445800  0.29402900  0.40316700  1
  S  S8  1  0.09167600  0.88951700  0.95909000  1
  S  S9  1  0.40832400  0.88951700  0.45909000  1
  S  S10  1  0.90832400  0.11048300  0.04091000  1
  S  S11  1  0.59167600  0.11048300  0.54091000  1
  S  S12  1  0.39085500  0.98515800  0.06337700  1
  S  S13  1  0.10914500  0.98515800  0.56337700  1
  S  S14  1  0.60914500  0.01484200  0.93662300  1
  S  S15  1  0.89085500  0.01484200  0.43662300  1
  S  S16  1  0.22991600  0.26794000  0.16386400  1
  S  S17  1  0.27008400  0.26794000  0.66386400  1
  S  S18  1  0.77008400  0.73206000  0.83613600  1
  S  S19  1  0.72991600  0.73206000  0.33613600  1
  S  S20  1  0.26386600  0.41660500  0.02331300  1
  S  S21  1  0.23613400  0.41660500  0.52331300  1
  S  S22  1  0.73613400  0.58339500  0.97668700  1
  S  S23  1  0.76386600  0.58339500  0.47668700  1
  S  S24  1  0.65591200  0.01541800  0.19605400  1
  S  S25  1  0.84408800  0.01541800  0.69605400  1
  S  S26  1  0.34408800  0.98458200  0.80394600  1
  S  S27  1  0.15591200  0.98458200  0.30394600  1
  O  O0  1  0.79398300  0.34964100  0.29807000  1
  O  O1  1  0.70601700  0.34964100  0.79807000  1
  O  O2  1  0.20601700  0.65035900  0.70193000  1
  O  O3  1  0.29398300  0.65035900  0.20193000  1
  O  O4  1  0.74111900  0.89786100  0.17322000  1
  O  O5  1  0.75888100  0.89786100  0.67322000  1
  O  O6  1  0.25888100  0.10213900  0.82678000  1
  O  O7  1  0.24111900  0.10213900  0.32678000  1
  O  O8  1  0.52345200  0.95553800  0.23562800  1
  O  O9  1  0.97654800  0.95553800  0.73562800  1
  O  O10  1  0.47654800  0.04446200  0.76437200  1
  O  O11  1  0.02345200  0.04446200  0.26437200  1
  O  O12  1  0.32051700  0.75728400  0.71492200  1
  O  O13  1  0.17948300  0.75728400  0.21492200  1
  O  O14  1  0.67948300  0.24271600  0.28507800  1
  O  O15  1  0.82051700  0.24271600  0.78507800  1
  O  O16  1  0.39770500  0.54037700  0.30292600  1
  O  O17  1  0.10229500  0.54037700  0.80292600  1
  O  O18  1  0.60229500  0.45962300  0.69707400  1
  O  O19  1  0.89770500  0.45962300  0.19707400  1
  O  O20  1  0.54606800  0.30600100  0.25205800  1
  O  O21  1  0.95393200  0.30600100  0.75205800  1
  O  O22  1  0.45393200  0.69399900  0.74794200  1
  O  O23  1  0.04606800  0.69399900  0.24794200  1
loop_
_geom_bond_atom_site_label_1
_geom_bond_atom_site_label_2
_geom_bond_distance
_geom_bond_site_symmetry_2
S0 Sb4 2.495885 1_555
S0 Sb8 2.577302 1_555
S0 Sr0 3.522450 1_555
S1 Sb5 2.495885 1_655
S1 Sb9 2.577302 1_655
S1 Sr1 3.522450 1_555
S2 Sb6 2.495885 1_555
S2 Sb10 2.577302 1_555
S2 Sr2 3.522450 1_555
S3 Sb7 2.495885 1_455
S3 Sb11 2.577302 1_455
S3 Sr3 3.522450 1_555
S4 Sb8 2.456330 1_555
S4 Sb0 2.561778 1_455
S4 Sb12 3.003333 1_455
S5 Sb9 2.456330 1_555
S5 Sb1 2.561778 1_555
S5 Sb13 3.003333 1_555
S6 Sb10 2.456330 1_555
S6 Sb2 2.561778 1_655
S6 Sb14 3.003333 1_655
S7 Sb11 2.456330 1_555
S7 Sb3 2.561778 1_555
S7 Sb15 3.003333 1_555
S8 Sb12 2.489507 1_456
S8 Sb14 2.641514 1_565
S8 Sb8 2.898283 1_556
S9 Sb13 2.489507 1_555
S9 Sb15 2.641514 1_565
S9 Sb9 2.898283 1_555
S10 Sb14 2.489507 1_654
S10 Sb12 2.641514 1_545
S10 Sb10 2.898283 1_554
S11 Sb15 2.489507 1_555
S11 Sb13 2.641514 1_545
S11 Sb11 2.898283 1_555
S12 Sb8 2.504220 1_555
S12 Sb14 2.586458 1_564
S13 Sb9 2.504220 1_555
S13 Sb15 2.586458 1_565
S14 Sb10 2.504220 1_555
S14 Sb12 2.586458 1_546
S15 Sb11 2.504220 1_555
S15 Sb13 2.586458 1_545
S16 Sb4 2.454554 1_555
S16 Sb0 2.534392 1_455
S16 Sr3 3.296308 1_555
S17 Sb5 2.454554 1_555
S17 Sb1 2.534392 1_555
S17 Sr2 3.296308 1_555
S18 Sb6 2.454554 1_555
S18 Sb2 2.534392 1_655
S18 Sr1 3.296308 1_555
S19 Sb7 2.454554 1_555
S19 Sb3 2.534392 1_555
S19 Sr0 3.296308 1_555
S20 Sb4 2.457815 1_555
S20 Sb14 2.824626 1_554
S20 Sb8 2.937094 1_555
S21 Sb5 2.457815 1_555
S21 Sb15 2.824626 1_555
S21 Sb9 2.937094 1_555
S22 Sb6 2.457815 1_555
S22 Sb12 2.824626 1_556
S22 Sb10 2.937094 1_555
S23 Sb7 2.457815 1_555
S23 Sb13 2.824626 1_555
S23 Sb11 2.937094 1_555
O0 O14 1.360554 1_555
O0 Sr0 2.665037 1_555
O0 Sr3 2.747339 1_655
O1 O15 1.360554 1_555
O1 Sr1 2.665037 1_555
O1 Sr2 2.747339 1_555
O2 Sr2 2.665037 1_555
O2 Sr1 2.747339 1_455
O3 Sr3 2.665037 1_555
O3 Sr0 2.747339 1_555
O4 S24 1.458971 1_565
O4 Sr0 2.884566 1_555
O5 S25 1.458971 1_565
O5 Sr1 2.884566 1_555
O6 S26 1.458971 1_545
O6 Sr2 2.884566 1_555
O7 S27 1.458971 1_545
O7 Sr3 2.884566 1_555
O8 S24 1.454058 1_565
O8 Sr0 3.300171 1_555
O9 S25 1.454058 1_565
O9 Sr1 3.300171 1_555
O10 S26 1.454058 1_545
O10 Sr2 3.300171 1_555
O11 S27 1.454058 1_545
O11 Sr3 3.300171 1_555
O12 O22 1.355045 1_555
O12 O2 1.360554 1_555
O13 O23 1.355045 1_555
O13 O3 1.360554 1_555
O14 O20 1.355045 1_555
O15 O21 1.355045 1_555
O16 Sb3 1.919676 1_555
O16 Sr3 2.504747 1_555
O16 Sr0 2.580146 1_555
O17 Sb2 1.919676 1_555
O17 Sr2 2.504747 1_555
O17 Sr1 2.580146 1_455
O18 Sb1 1.919676 1_555
O18 Sr1 2.504747 1_555
O18 Sr2 2.580146 1_555
O19 Sb0 1.919676 1_555
O19 Sr0 2.504747 1_555
O19 Sr3 2.580146 1_655
O20 Sr0 2.606140 1_555
O20 Sr3 3.040194 1_555
O21 Sr1 2.606140 1_555
O21 Sr2 3.040194 1_655
O22 Sr2 2.606140 1_555
O22 Sr1 3.040194 1_555
O23 Sr3 2.606140 1_555
O23 Sr0 3.040194 1_455
