# generated using pymatgen
data_Ba2YAg3O8
_symmetry_space_group_name_H-M   'P 1'
_cell_length_a   4.11503900
_cell_length_b   4.11513300
_cell_length_c   12.54379400
_cell_angle_alpha   90.00005525
_cell_angle_beta   89.99998151
_cell_angle_gamma   89.99997215
_symmetry_Int_Tables_number   1
_chemical_formula_structural   Ba2YAg3O8
_chemical_formula_sum   'Ba2 Y1 Ag3 O8'
_cell_volume   212.41576447
_cell_formula_units_Z   1
loop_
 _symmetry_equiv_pos_site_id
 _symmetry_equiv_pos_as_xyz
  1  'x, y, z'
loop_
 _atom_site_type_symbol
 _atom_site_label
 _atom_site_symmetry_multiplicity
 _atom_site_fract_x
 _atom_site_fract_y
 _atom_site_fract_z
 _atom_site_occupancy
  Ba  Ba0  1  0.50000000  0.49999900  0.15743100  1
  Ba  Ba1  1  0.50000000  0.50000000  0.84247700  1
  Y  Y0  1  0.50000000  0.50000000  0.50007000  1
  Ag  Ag0  1  0.00000000  0.00000000  0.35552400  1
  Ag  Ag1  1  0.99999900  0.00000000  0.00005100  1
  Ag  Ag2  1  0.00000000  0.00000100  0.64444000  1
  O  O0  1  0.00000000  0.50000000  0.39155700  1
  O  O1  1  0.50000000  0.99999900  0.39155800  1
  O  O2  1  0.50000000  0.00000000  0.99995800  1
  O  O3  1  0.00000000  0.00000000  0.16646000  1
  O  O4  1  0.00000000  0.50000000  0.60847200  1
  O  O5  1  0.50000000  0.00000000  0.60846800  1
  O  O6  1  0.00000000  0.99999900  0.83357400  1
  O  O7  1  0.00000000  0.50000000  0.99995800  1
loop_
_geom_bond_atom_site_label_1
_geom_bond_atom_site_label_2
_geom_bond_distance
_geom_bond_site_symmetry_2
Ba0 O7 2.852232 1_654
Ba0 O7 2.852233 1_554
Ba0 O2 2.852262 1_554
Ba0 O2 2.852271 1_564
Ba0 O3 2.912005 1_655
Ba0 O3 2.912006 1_555
Ba0 O3 2.912011 1_565
Ba0 O3 2.912012 1_665
Ba1 O7 2.852302 1_555
Ba1 O7 2.852303 1_655
Ba1 O2 2.852335 1_565
Ba1 O2 2.852338 1_555
Ba1 O6 2.911944 1_555
Ba1 O6 2.911945 1_655
Ba1 O6 2.911950 1_645
Ba1 O6 2.911951 1_545
Ag0 O1 2.106583 1_445
Ag0 O1 2.106583 1_545
Ag0 O0 2.106626 1_555
Ag0 O0 2.106627 1_545
Ag0 O3 2.371580 1_555
Ag1 O2 2.057516 1_554
Ag1 O2 2.057524 1_654
Ag1 O7 2.057567 1_644
Ag1 O7 2.057567 1_654
Ag1 O3 2.087400 1_655
Ag1 O6 2.088253 1_644
Ag2 O5 2.106416 1_555
Ag2 O5 2.106417 1_455
Ag2 O4 2.106448 1_555
Ag2 O4 2.106455 1_545
Ag2 O6 2.372458 1_545
O0 Y0 2.467013 1_455
O0 Y0 2.467014 1_555
O1 Y0 2.467043 1_555
O1 Y0 2.467048 1_565
O4 Y0 2.466245 1_555
O4 Y0 2.466246 1_455
O5 Y0 2.466256 1_545
O5 Y0 2.466258 1_555
