# generated using pymatgen
data_Rb3Re
_symmetry_space_group_name_H-M   'P 1'
_cell_length_a   6.06089400
_cell_length_b   6.06089400
_cell_length_c   6.06089400
_cell_angle_alpha   90.00000000
_cell_angle_beta   90.00000000
_cell_angle_gamma   90.00000000
_symmetry_Int_Tables_number   1
_chemical_formula_structural   Rb3Re
_chemical_formula_sum   'Rb3 Re1'
_cell_volume   222.64352323
_cell_formula_units_Z   1
loop_
 _symmetry_equiv_pos_site_id
 _symmetry_equiv_pos_as_xyz
  1  'x, y, z'
loop_
 _atom_site_type_symbol
 _atom_site_label
 _atom_site_symmetry_multiplicity
 _atom_site_fract_x
 _atom_site_fract_y
 _atom_site_fract_z
 _atom_site_occupancy
  Rb  Rb0  1  0.00000000  0.50000000  0.50000000  1
  Rb  Rb1  1  0.50000000  0.50000000  0.00000000  1
  Rb  Rb2  1  0.50000000  0.00000000  0.50000000  1
  Re  Re0  1  0.00000000  0.00000000  0.00000000  1
loop_
_geom_bond_atom_site_label_1
_geom_bond_atom_site_label_2
_geom_bond_distance
_geom_bond_site_symmetry_2
Rb0 Re0 4.285699 1_556
Rb0 Re0 4.285699 1_565
Rb0 Re0 4.285699 1_555
Rb0 Re0 4.285699 1_566
Rb1 Re0 4.285699 1_565
Rb1 Re0 4.285699 1_555
Rb1 Re0 4.285699 1_655
Rb1 Re0 4.285699 1_665
Rb2 Re0 4.285699 1_556
Rb2 Re0 4.285699 1_555
Rb2 Re0 4.285699 1_656
Rb2 Re0 4.285699 1_655
