# generated using pymatgen
data_RbSn2(PO4)3
_symmetry_space_group_name_H-M   'P 1'
_cell_length_a   9.36760141
_cell_length_b   9.36760140
_cell_length_c   9.36760114
_cell_angle_alpha   52.83347371
_cell_angle_beta   52.83347375
_cell_angle_gamma   52.83347656
_symmetry_Int_Tables_number   1
_chemical_formula_structural   RbSn2(PO4)3
_chemical_formula_sum   'Rb2 Sn4 P6 O24'
_cell_volume   483.57028874
_cell_formula_units_Z   2
loop_
 _symmetry_equiv_pos_site_id
 _symmetry_equiv_pos_as_xyz
  1  'x, y, z'
loop_
 _atom_site_type_symbol
 _atom_site_label
 _atom_site_symmetry_multiplicity
 _atom_site_fract_x
 _atom_site_fract_y
 _atom_site_fract_z
 _atom_site_occupancy
  Rb  Rb0  1  0.50000000  0.50000000  0.50000000  1
  Rb  Rb1  1  -0.00000000  -0.00000000  0.00000000  1
  Sn  Sn0  1  0.35063469  0.35063469  0.35063469  1
  Sn  Sn1  1  0.64936531  0.64936531  0.64936531  1
  Sn  Sn2  1  0.84447905  0.84447905  0.84447905  1
  Sn  Sn3  1  0.15552095  0.15552095  0.15552095  1
  P  P0  1  0.24800036  0.96197712  0.53871448  1
  P  P1  1  0.53871448  0.24800036  0.96197712  1
  P  P2  1  0.96197712  0.53871448  0.24800036  1
  P  P3  1  0.75199964  0.03802288  0.46128552  1
  P  P4  1  0.46128552  0.75199964  0.03802288  1
  P  P5  1  0.03802288  0.46128552  0.75199964  1
  O  O0  1  0.04222250  0.96913955  0.67823885  1
  O  O1  1  0.67823885  0.04222250  0.96913955  1
  O  O2  1  0.96913955  0.67823885  0.04222250  1
  O  O3  1  0.95777750  0.03086045  0.32176115  1
  O  O4  1  0.32176115  0.95777750  0.03086045  1
  O  O5  1  0.03086045  0.32176115  0.95777750  1
  O  O6  1  0.26311709  0.12616627  0.52035498  1
  O  O7  1  0.52035498  0.26311709  0.12616627  1
  O  O8  1  0.12616627  0.52035498  0.26311709  1
  O  O9  1  0.73688291  0.87383373  0.47964502  1
  O  O10  1  0.47964502  0.73688291  0.87383373  1
  O  O11  1  0.87383373  0.47964502  0.73688291  1
  O  O12  1  0.39313678  0.77047833  0.62365518  1
  O  O13  1  0.62365518  0.39313678  0.77047833  1
  O  O14  1  0.77047833  0.62365518  0.39313678  1
  O  O15  1  0.60686322  0.22952167  0.37634482  1
  O  O16  1  0.37634482  0.60686322  0.22952167  1
  O  O17  1  0.22952167  0.37634482  0.60686322  1
  O  O18  1  0.29277151  0.97410309  0.34548053  1
  O  O19  1  0.34548053  0.29277151  0.97410309  1
  O  O20  1  0.97410309  0.34548053  0.29277151  1
  O  O21  1  0.70722849  0.02589691  0.65451947  1
  O  O22  1  0.65451947  0.70722849  0.02589691  1
  O  O23  1  0.02589691  0.65451947  0.70722849  1
loop_
_geom_bond_atom_site_label_1
_geom_bond_atom_site_label_2
_geom_bond_distance
_geom_bond_site_symmetry_2
O0 P0 1.527778 1_555
O0 Sn2 2.037413 1_455
O0 Rb1 2.966347 1_566
O1 P1 1.527779 1_555
O1 Sn2 2.037413 1_545
O1 Rb1 2.966347 1_656
O2 P2 1.527778 1_555
O2 Sn2 2.037413 1_554
O2 Rb1 2.966347 1_665
O3 P3 1.527778 1_555
O3 Sn3 2.037413 1_655
O3 Rb1 2.966347 1_655
O4 P4 1.527779 1_555
O4 Sn3 2.037413 1_565
O4 Rb1 2.966347 1_565
O5 P5 1.527778 1_555
O5 Sn3 2.037413 1_556
O5 Rb1 2.966347 1_556
O6 P0 1.526230 1_545
O6 Sn0 2.022372 1_555
O6 Rb1 3.373807 1_556
O7 P1 1.526230 1_554
O7 Sn0 2.022372 1_555
O7 Rb1 3.373808 1_655
O8 P2 1.526230 1_455
O8 Sn0 2.022372 1_555
O8 Rb1 3.373807 1_565
O9 P3 1.526230 1_565
O9 Sn1 2.022372 1_555
O9 Rb1 3.373807 1_665
O10 P4 1.526230 1_556
O10 Sn1 2.022372 1_555
O10 Rb1 3.373808 1_566
O11 P5 1.526230 1_655
O11 Sn1 2.022372 1_555
O11 Rb1 3.373807 1_656
O12 P0 1.528130 1_555
O12 Sn1 2.045573 1_555
O12 Rb0 2.800747 1_555
O13 P1 1.528130 1_555
O13 Sn1 2.045573 1_555
O13 Rb0 2.800746 1_555
O14 P2 1.528130 1_555
O14 Sn1 2.045573 1_555
O14 Rb0 2.800747 1_555
O15 P3 1.528130 1_555
O15 Sn0 2.045573 1_555
O15 Rb0 2.800747 1_555
O16 P4 1.528130 1_555
O16 Sn0 2.045573 1_555
O16 Rb0 2.800746 1_555
O17 P5 1.528130 1_555
O17 Sn0 2.045573 1_555
O17 Rb0 2.800747 1_555
O18 P0 1.535332 1_555
O18 Sn3 2.044026 1_565
O18 Rb0 3.286126 1_555
O19 P1 1.535332 1_555
O19 Sn3 2.044026 1_556
O19 Rb0 3.286126 1_555
O20 P2 1.535332 1_555
O20 Sn3 2.044026 1_655
O20 Rb0 3.286126 1_555
O21 P3 1.535332 1_555
O21 Sn2 2.044026 1_545
O21 Rb0 3.286126 1_555
O22 P4 1.535332 1_555
O22 Sn2 2.044026 1_554
O22 Rb0 3.286126 1_555
O23 P5 1.535332 1_555
O23 Sn2 2.044026 1_455
O23 Rb0 3.286126 1_555
