# generated using pymatgen
data_AlCu3(WO3)4
_symmetry_space_group_name_H-M   'P 1'
_cell_length_a   6.61412800
_cell_length_b   6.70184521
_cell_length_c   6.70389546
_cell_angle_alpha   109.58139116
_cell_angle_beta   108.64272316
_cell_angle_gamma   109.20567294
_symmetry_Int_Tables_number   1
_chemical_formula_structural   AlCu3(WO3)4
_chemical_formula_sum   'Al1 Cu3 W4 O12'
_cell_volume   231.48003394
_cell_formula_units_Z   1
loop_
 _symmetry_equiv_pos_site_id
 _symmetry_equiv_pos_as_xyz
  1  'x, y, z'
loop_
 _atom_site_type_symbol
 _atom_site_label
 _atom_site_symmetry_multiplicity
 _atom_site_fract_x
 _atom_site_fract_y
 _atom_site_fract_z
 _atom_site_occupancy
  Al  Al0  1  0.00000000  0.00000000  0.00000000  1
  Cu  Cu0  1  0.50000000  0.50000000  0.00000000  1
  Cu  Cu1  1  0.50000000  0.00000000  0.50000000  1
  Cu  Cu2  1  0.00000000  0.50000000  0.50000000  1
  W  W0  1  0.50000000  0.50000000  0.50000000  1
  W  W1  1  0.00000000  0.00000000  0.50000000  1
  W  W2  1  0.00000000  0.50000000  0.00000000  1
  W  W3  1  0.50000000  0.00000000  0.00000000  1
  O  O0  1  0.82191500  0.51465900  0.69812800  1
  O  O1  1  0.17808500  0.48534100  0.30187200  1
  O  O2  1  0.81272500  0.11395100  0.29948100  1
  O  O3  1  0.29034200  0.79520500  0.10103500  1
  O  O4  1  0.49336600  0.31986400  0.19747000  1
  O  O5  1  0.10978800  0.28620500  0.80825000  1
  O  O6  1  0.69287500  0.82498200  0.51862600  1
  O  O7  1  0.50663400  0.68013600  0.80253000  1
  O  O8  1  0.18727500  0.88604900  0.70051900  1
  O  O9  1  0.70965800  0.20479500  0.89896500  1
  O  O10  1  0.89021200  0.71379500  0.19175000  1
  O  O11  1  0.30712500  0.17501800  0.48137400  1
loop_
_geom_bond_atom_site_label_1
_geom_bond_atom_site_label_2
_geom_bond_distance
_geom_bond_site_symmetry_2
Cu0 O7 2.070117 1_554
Cu0 O4 2.070117 1_555
Cu0 O10 2.139594 1_555
Cu0 O5 2.139594 1_554
Cu1 O11 1.999898 1_555
Cu1 O6 1.999898 1_545
Cu1 O9 2.208235 1_555
Cu1 O3 2.208235 1_545
Cu2 O1 2.037188 1_555
Cu2 O0 2.037188 1_455
Cu2 O8 2.128596 1_555
Cu2 O2 2.128596 1_455
O0 W2 2.043993 1_656
O0 W0 2.067398 1_555
O1 W2 2.043993 1_555
O1 W0 2.067398 1_555
O2 W3 2.042153 1_555
O2 W1 2.042168 1_655
O3 W2 1.957363 1_555
O3 W3 2.058378 1_565
O4 W0 1.959529 1_555
O4 W3 2.132281 1_555
O5 W1 1.985989 1_555
O5 W2 2.068683 1_556
O6 W1 2.051964 1_665
O6 W0 2.067478 1_555
O7 W0 1.959529 1_555
O7 W3 2.132281 1_566
O8 W3 2.042153 1_566
O8 W1 2.042168 1_565
O9 W2 1.957363 1_656
O9 W3 2.058378 1_556
O10 W1 1.985989 1_665
O10 W2 2.068683 1_655
O11 W1 2.051964 1_555
O11 W0 2.067478 1_555
