# generated using pymatgen
data_RbNdMnWO6
_symmetry_space_group_name_H-M   'P 1'
_cell_length_a   5.56756288
_cell_length_b   5.67412500
_cell_length_c   9.62267506
_cell_angle_alpha   90.00000000
_cell_angle_beta   92.08121840
_cell_angle_gamma   90.00000000
_symmetry_Int_Tables_number   1
_chemical_formula_structural   RbNdMnWO6
_chemical_formula_sum   'Rb2 Nd2 Mn2 W2 O12'
_cell_volume   303.78986031
_cell_formula_units_Z   2
loop_
 _symmetry_equiv_pos_site_id
 _symmetry_equiv_pos_as_xyz
  1  'x, y, z'
loop_
 _atom_site_type_symbol
 _atom_site_label
 _atom_site_symmetry_multiplicity
 _atom_site_fract_x
 _atom_site_fract_y
 _atom_site_fract_z
 _atom_site_occupancy
  Rb  Rb0  1  0.23254300  0.77201900  0.01012600  1
  Rb  Rb1  1  0.76745700  0.27201900  0.98987400  1
  Nd  Nd0  1  0.26336200  0.81698200  0.50025600  1
  Nd  Nd1  1  0.73663800  0.31698200  0.49974400  1
  Mn  Mn0  1  0.74753600  0.77740200  0.29845700  1
  Mn  Mn1  1  0.25246400  0.27740200  0.70154300  1
  W  W0  1  0.77124700  0.76823200  0.72704400  1
  W  W1  1  0.22875300  0.26823200  0.27295600  1
  O  O0  1  0.55640100  0.03324700  0.66116100  1
  O  O1  1  0.44359900  0.53324700  0.33883800  1
  O  O2  1  0.51032300  0.05959500  0.33940700  1
  O  O3  1  0.48967700  0.55959500  0.66059300  1
  O  O4  1  0.94990300  0.46043600  0.26463300  1
  O  O5  1  0.05009700  0.96043600  0.73536700  1
  O  O6  1  0.94969600  0.47819900  0.73873800  1
  O  O7  1  0.05030400  0.97819900  0.26126200  1
  O  O8  1  0.84802800  0.73630500  0.51001500  1
  O  O9  1  0.15197200  0.23630500  0.48998500  1
  O  O10  1  0.70247700  0.78097400  0.91137200  1
  O  O11  1  0.29752300  0.28097400  0.08862800  1
loop_
_geom_bond_atom_site_label_1
_geom_bond_atom_site_label_2
_geom_bond_distance
_geom_bond_site_symmetry_2
Nd0 O8 2.362484 1_455
Nd0 O3 2.441272 1_555
Nd0 O9 2.459869 1_565
Nd0 O1 2.474828 1_555
Nd0 O2 2.517115 1_565
Nd0 O0 2.526166 1_565
Nd0 O7 2.708258 1_555
Nd0 O5 2.717710 1_555
Nd1 O9 2.362484 1_655
Nd1 O2 2.441272 1_555
Nd1 O8 2.459869 1_555
Nd1 O0 2.474822 1_555
Nd1 O3 2.517115 1_555
Nd1 O1 2.526171 1_555
Nd1 O6 2.708258 1_555
Nd1 O4 2.717710 1_555
Mn0 O7 2.076428 1_655
Mn0 O8 2.104514 1_555
Mn0 O2 2.121592 1_565
Mn0 O4 2.153282 1_555
Mn0 O1 2.231925 1_555
Mn1 O6 2.076428 1_455
Mn1 O9 2.104514 1_555
Mn1 O3 2.121592 1_555
Mn1 O5 2.153282 1_545
Mn1 O0 2.231927 1_555
O0 W0 2.009691 1_545
O1 W1 2.009688 1_555
O2 W1 2.048190 1_555
O3 W0 2.048190 1_555
O4 W1 1.896595 1_655
O4 Rb1 2.994999 1_554
O5 W0 1.896595 1_455
O5 Rb0 2.994999 1_556
O6 W0 1.923515 1_555
O6 Rb1 2.901062 1_555
O7 W1 1.923515 1_565
O7 Rb0 2.901062 1_555
O8 W0 2.154487 1_555
O9 W1 2.154487 1_555
O10 W0 1.829553 1_555
O10 Rb0 2.816323 1_556
O10 Rb1 2.906004 1_565
O10 Rb1 3.003578 1_555
O10 Rb0 3.067793 1_656
O11 W1 1.829553 1_555
O11 Rb1 2.816323 1_554
O11 Rb0 2.906004 1_555
O11 Rb0 3.003578 1_545
O11 Rb1 3.067793 1_454
