# generated using pymatgen
data_ThGaRh
_symmetry_space_group_name_H-M   'P 1'
_cell_length_a   7.20117509
_cell_length_b   7.20117509
_cell_length_c   4.07797002
_cell_angle_alpha   90.00000000
_cell_angle_beta   90.00000000
_cell_angle_gamma   120.00000852
_symmetry_Int_Tables_number   1
_chemical_formula_structural   ThGaRh
_chemical_formula_sum   'Th3 Ga3 Rh3'
_cell_volume   183.13922151
_cell_formula_units_Z   3
loop_
 _symmetry_equiv_pos_site_id
 _symmetry_equiv_pos_as_xyz
  1  'x, y, z'
loop_
 _atom_site_type_symbol
 _atom_site_label
 _atom_site_symmetry_multiplicity
 _atom_site_fract_x
 _atom_site_fract_y
 _atom_site_fract_z
 _atom_site_occupancy
  Th  Th0  1  -0.00000000  0.41514010  0.50000000  1
  Th  Th1  1  0.58485990  0.58485990  0.50000000  1
  Th  Th2  1  0.41514010  -0.00000000  0.50000000  1
  Ga  Ga0  1  -0.00000000  0.76639282  0.00000000  1
  Ga  Ga1  1  0.23360718  0.23360718  -0.00000000  1
  Ga  Ga2  1  0.76639282  -0.00000000  0.00000000  1
  Rh  Rh0  1  0.33333300  0.66666700  0.00000000  1
  Rh  Rh1  1  0.66666700  0.33333300  -0.00000000  1
  Rh  Rh2  1  0.00000000  0.00000000  0.50000000  1
loop_
_geom_bond_atom_site_label_1
_geom_bond_atom_site_label_2
_geom_bond_distance
_geom_bond_site_symmetry_2
Ga0 Rh2 2.643371 1_565
Ga0 Rh2 2.643371 1_564
Ga0 Rh0 2.828678 1_555
Ga0 Rh1 2.828683 1_455
Ga0 Th0 3.248921 1_554
Ga0 Th0 3.248921 1_555
Ga0 Th2 3.300823 1_565
Ga0 Th2 3.300823 1_564
Ga0 Th1 3.300823 1_455
Ga0 Th1 3.300823 1_454
Ga1 Rh2 2.643371 1_554
Ga1 Rh2 2.643371 1_555
Ga1 Rh0 2.828685 1_555
Ga1 Rh1 2.828685 1_555
Ga1 Th1 3.248921 1_554
Ga1 Th1 3.248921 1_555
Ga1 Th0 3.300823 1_554
Ga1 Th2 3.300823 1_555
Ga1 Th2 3.300823 1_554
Ga1 Th0 3.300823 1_555
Ga2 Rh2 2.643371 1_654
Ga2 Rh2 2.643371 1_655
Ga2 Rh1 2.828678 1_555
Ga2 Rh0 2.828683 1_545
Ga2 Th2 3.248921 1_555
Ga2 Th2 3.248921 1_554
Ga2 Th0 3.300823 1_655
Ga2 Th0 3.300823 1_654
Ga2 Th1 3.300823 1_545
Ga2 Th1 3.300823 1_544
Rh0 Th2 2.975280 1_564
Rh0 Th2 2.975280 1_565
Rh0 Th0 2.975281 1_555
Rh0 Th0 2.975281 1_554
Rh0 Th1 2.975285 1_555
Rh0 Th1 2.975285 1_554
Rh1 Th0 2.975280 1_654
Rh1 Th0 2.975280 1_655
Rh1 Th2 2.975281 1_554
Rh1 Th2 2.975281 1_555
Rh1 Th1 2.975285 1_554
Rh1 Th1 2.975285 1_555
Rh2 Th1 2.989496 1_445
Rh2 Th2 2.989497 1_555
Rh2 Th0 2.989497 1_555
