# generated using pymatgen
data_Ta2Sn3
_symmetry_space_group_name_H-M   'P 1'
_cell_length_a   10.19501830
_cell_length_b   9.34920316
_cell_length_c   5.72990281
_cell_angle_alpha   81.24865781
_cell_angle_beta   65.00711231
_cell_angle_gamma   33.74422988
_symmetry_Int_Tables_number   1
_chemical_formula_structural   Ta2Sn3
_chemical_formula_sum   'Ta4 Sn6'
_cell_volume   252.53699783
_cell_formula_units_Z   2
loop_
 _symmetry_equiv_pos_site_id
 _symmetry_equiv_pos_as_xyz
  1  'x, y, z'
loop_
 _atom_site_type_symbol
 _atom_site_label
 _atom_site_symmetry_multiplicity
 _atom_site_fract_x
 _atom_site_fract_y
 _atom_site_fract_z
 _atom_site_occupancy
  Ta  Ta0  1  0.37779700  0.37779700  0.62220300  1
  Ta  Ta1  1  0.62220300  0.62220300  0.37779700  1
  Ta  Ta2  1  0.89209100  0.89209100  0.60790900  1
  Ta  Ta3  1  0.60790900  0.60790900  0.89209100  1
  Sn  Sn0  1  0.59014500  0.90985500  0.59014500  1
  Sn  Sn1  1  0.90985500  0.59014500  0.90985500  1
  Sn  Sn2  1  0.08072200  0.08072200  0.91927800  1
  Sn  Sn3  1  0.91927800  0.91927800  0.08072200  1
  Sn  Sn4  1  0.12617800  0.12617800  0.37382200  1
  Sn  Sn5  1  0.37382200  0.37382200  0.12617800  1
loop_
_geom_bond_atom_site_label_1
_geom_bond_atom_site_label_2
_geom_bond_distance
_geom_bond_site_symmetry_2
Ta0 Ta2 2.876234 1_545
Ta0 Ta2 2.876234 1_455
Ta1 Ta3 2.876234 1_555
Ta1 Ta3 2.876234 1_554
Sn0 Ta1 2.831538 1_555
Sn0 Ta0 2.831538 1_565
Sn0 Ta2 2.987230 1_555
Sn0 Ta3 2.987230 1_555
Sn0 Sn1 3.176656 1_555
Sn0 Sn1 3.370386 1_465
Sn0 Sn1 3.370386 1_554
Sn0 Sn2 3.453164 1_565
Sn0 Sn3 3.453164 1_555
Sn1 Ta1 2.831538 1_556
Sn1 Ta0 2.831538 1_655
Sn1 Ta2 2.987230 1_555
Sn1 Ta3 2.987230 1_555
Sn1 Sn2 3.453164 1_655
Sn1 Sn3 3.453164 1_556
Sn2 Sn3 2.874558 1_446
Sn2 Ta3 2.905559 1_545
Sn2 Ta3 2.905559 1_455
Sn2 Ta1 2.948897 1_545
Sn2 Ta1 2.948897 1_456
Sn2 Sn4 2.977080 1_555
Sn2 Sn4 2.977080 1_556
Sn3 Ta2 2.905559 1_555
Sn3 Ta2 2.905559 1_554
Sn3 Ta0 2.948897 1_654
Sn3 Ta0 2.948897 1_565
Sn3 Sn5 2.977080 1_565
Sn3 Sn5 2.977080 1_655
Sn4 Ta1 2.865826 1_455
Sn4 Ta1 2.865826 1_545
Sn4 Ta3 2.873379 1_455
Sn4 Ta3 2.873379 1_544
Sn5 Ta0 2.865826 1_554
Sn5 Ta0 2.865826 1_555
Sn5 Ta2 2.873379 1_544
Sn5 Ta2 2.873379 1_455
