# generated using pymatgen
data_Mg4Si3
_symmetry_space_group_name_H-M   'P 1'
_cell_length_a   4.79263700
_cell_length_b   7.33950018
_cell_length_c   7.55376365
_cell_angle_alpha   88.02393692
_cell_angle_beta   80.74354723
_cell_angle_gamma   83.17462888
_symmetry_Int_Tables_number   1
_chemical_formula_structural   Mg4Si3
_chemical_formula_sum   'Mg8 Si6'
_cell_volume   260.35732274
_cell_formula_units_Z   2
loop_
 _symmetry_equiv_pos_site_id
 _symmetry_equiv_pos_as_xyz
  1  'x, y, z'
loop_
 _atom_site_type_symbol
 _atom_site_label
 _atom_site_symmetry_multiplicity
 _atom_site_fract_x
 _atom_site_fract_y
 _atom_site_fract_z
 _atom_site_occupancy
  Mg  Mg0  1  0.39584200  0.30434200  0.09560700  1
  Mg  Mg1  1  0.27646300  0.58006100  0.38552600  1
  Mg  Mg2  1  0.88606700  0.12637200  0.34650800  1
  Mg  Mg3  1  0.11393300  0.87362800  0.65349200  1
  Mg  Mg4  1  0.60415800  0.69565800  0.90439300  1
  Mg  Mg5  1  0.96034600  0.18585400  0.90775800  1
  Mg  Mg6  1  0.03965400  0.81414600  0.09224200  1
  Mg  Mg7  1  0.72353700  0.41993900  0.61447400  1
  Si  Si0  1  0.30512100  0.22164700  0.52618600  1
  Si  Si1  1  0.85242800  0.47576000  0.18528600  1
  Si  Si2  1  0.69487900  0.77835300  0.47381400  1
  Si  Si3  1  0.52625800  0.05632500  0.76724900  1
  Si  Si4  1  0.14757200  0.52424000  0.81471400  1
  Si  Si5  1  0.47374200  0.94367500  0.23275100  1
loop_
_geom_bond_atom_site_label_1
_geom_bond_atom_site_label_2
_geom_bond_distance
_geom_bond_site_symmetry_2
Mg0 Si1 2.745356 1_455
Mg0 Si5 2.814287 1_545
Mg0 Si1 2.832002 1_555
Mg0 Mg5 2.894845 1_554
Mg0 Mg5 2.931782 1_454
Mg0 Si4 2.939764 1_554
Mg0 Si3 3.065700 1_554
Mg1 Si2 2.788368 1_555
Mg1 Si0 2.799296 1_555
Mg1 Si1 2.905584 1_455
Mg1 Si1 2.954320 1_555
Mg1 Si2 2.972664 1_455
Mg1 Mg6 3.038216 1_555
Mg1 Si5 3.063373 1_555
Mg2 Si0 2.764208 1_655
Mg2 Si5 2.774355 1_545
Mg2 Si1 2.799008 1_555
Mg2 Si2 2.896922 1_545
Mg2 Si0 2.910360 1_555
Mg2 Si5 2.978649 1_645
Mg2 Mg6 2.988296 1_645
Mg2 Mg5 3.295289 1_554
Mg3 Si2 2.764208 1_455
Mg3 Si3 2.774355 1_565
Mg3 Si4 2.799008 1_555
Mg3 Si0 2.896922 1_565
Mg3 Si2 2.910360 1_555
Mg3 Si3 2.978649 1_465
Mg3 Mg5 2.988296 1_465
Mg3 Mg6 3.295289 1_556
Mg4 Si4 2.745356 1_655
Mg4 Si3 2.814287 1_565
Mg4 Si4 2.832002 1_555
Mg4 Mg6 2.894845 1_556
Mg4 Mg6 2.931782 1_656
Mg4 Si1 2.939764 1_556
Mg4 Si5 3.065700 1_556
Mg5 Si3 2.758355 1_555
Mg5 Si4 2.770153 1_655
Mg5 Si3 2.813720 1_655
Mg5 Si1 2.981096 1_556
Mg5 Mg6 3.031666 1_646
Mg5 Mg7 3.038216 1_555
Mg5 Si0 3.102552 1_655
Mg6 Si5 2.758355 1_555
Mg6 Si1 2.770153 1_455
Mg6 Si5 2.813720 1_455
Mg6 Si4 2.981096 1_554
Mg6 Si2 3.102552 1_455
Mg7 Si0 2.788368 1_555
Mg7 Si2 2.799296 1_555
Mg7 Si4 2.905584 1_655
Mg7 Si4 2.954320 1_555
Mg7 Si0 2.972664 1_655
Mg7 Si3 3.063373 1_555
Si0 Si3 2.464579 1_555
Si2 Si5 2.464579 1_555
