# generated using pymatgen
data_NaYMg6
_symmetry_space_group_name_H-M   'P 1'
_cell_length_a   5.23666200
_cell_length_b   6.79021000
_cell_length_c   11.53191300
_cell_angle_alpha   90.00000000
_cell_angle_beta   90.00000000
_cell_angle_gamma   90.00000000
_symmetry_Int_Tables_number   1
_chemical_formula_structural   NaYMg6
_chemical_formula_sum   'Na2 Y2 Mg12'
_cell_volume   410.05216237
_cell_formula_units_Z   2
loop_
 _symmetry_equiv_pos_site_id
 _symmetry_equiv_pos_as_xyz
  1  'x, y, z'
loop_
 _atom_site_type_symbol
 _atom_site_label
 _atom_site_symmetry_multiplicity
 _atom_site_fract_x
 _atom_site_fract_y
 _atom_site_fract_z
 _atom_site_occupancy
  Na  Na0  1  0.50000000  0.50000000  0.83432400  1
  Na  Na1  1  0.50000000  0.00000000  0.33432400  1
  Y  Y0  1  0.50000000  0.50000000  0.33511700  1
  Y  Y1  1  0.50000000  0.00000000  0.83511700  1
  Mg  Mg0  1  0.50000000  0.25554000  0.08096000  1
  Mg  Mg1  1  0.50000000  0.74446000  0.08096000  1
  Mg  Mg2  1  0.00000000  0.24994100  0.92033400  1
  Mg  Mg3  1  0.00000000  0.75005900  0.92033400  1
  Mg  Mg4  1  0.00000000  0.50000000  0.16435100  1
  Mg  Mg5  1  0.00000000  0.50000000  0.66362200  1
  Mg  Mg6  1  0.50000000  0.75554000  0.58096000  1
  Mg  Mg7  1  0.50000000  0.24446000  0.58096000  1
  Mg  Mg8  1  0.00000000  0.74994100  0.42033400  1
  Mg  Mg9  1  0.00000000  0.25005900  0.42033400  1
  Mg  Mg10  1  0.00000000  0.00000000  0.66435100  1
  Mg  Mg11  1  0.00000000  0.00000000  0.16362200  1
loop_
_geom_bond_atom_site_label_1
_geom_bond_atom_site_label_2
_geom_bond_distance
_geom_bond_site_symmetry_2
Na0 Y1 3.395117 1_555
Na0 Y1 3.395117 1_565
Na1 Y0 3.395117 1_545
Na1 Y0 3.395117 1_555
Mg0 Mg2 3.207524 1_654
Mg0 Mg2 3.207524 1_554
Mg0 Mg4 3.245894 1_555
Mg0 Mg4 3.245894 1_655
Mg0 Mg11 3.282554 1_555
Mg0 Mg11 3.282554 1_655
Mg0 Na0 3.293140 1_554
Mg0 Mg1 3.319869 1_555
Mg0 Y1 3.323894 1_554
Mg0 Y0 3.368331 1_555
Mg0 Na1 3.398171 1_555
Mg0 Mg1 3.470341 1_545
Mg1 Mg3 3.207524 1_554
Mg1 Mg3 3.207524 1_654
Mg1 Mg4 3.245894 1_555
Mg1 Mg4 3.245894 1_655
Mg1 Mg11 3.282554 1_565
Mg1 Mg11 3.282554 1_665
Mg1 Na0 3.293140 1_554
Mg1 Y1 3.323894 1_564
Mg1 Y0 3.368331 1_555
Mg1 Na1 3.398171 1_565
Mg2 Y1 3.271347 1_455
Mg2 Y1 3.271347 1_555
Mg2 Na0 3.274521 1_555
Mg2 Na0 3.274521 1_455
Mg2 Mg4 3.286570 1_556
Mg2 Mg3 3.394304 1_545
Mg2 Mg3 3.395906 1_555
Mg2 Mg5 3.412755 1_555
Mg3 Y1 3.271347 1_565
Mg3 Y1 3.271347 1_465
Mg3 Na0 3.274521 1_455
Mg3 Na0 3.274521 1_555
Mg3 Mg4 3.286570 1_556
Mg3 Mg5 3.412755 1_555
Mg4 Y0 3.276223 1_455
Mg4 Y0 3.276223 1_555
Mg4 Mg8 3.405066 1_555
Mg4 Mg9 3.405066 1_555
Mg5 Na0 3.275779 1_455
Mg5 Na0 3.275779 1_555
Mg5 Mg9 3.278960 1_555
Mg5 Mg8 3.278960 1_555
Mg5 Mg7 3.282554 1_455
Mg5 Mg7 3.282554 1_555
Mg5 Mg6 3.282554 1_455
Mg5 Mg6 3.282554 1_555
Mg6 Mg8 3.207524 1_555
Mg6 Mg8 3.207524 1_655
Mg6 Na1 3.293140 1_565
Mg6 Mg7 3.319869 1_565
Mg6 Y0 3.323894 1_555
Mg6 Y1 3.368331 1_565
Mg6 Na0 3.398171 1_555
Mg6 Mg7 3.470341 1_555
Mg7 Mg9 3.207524 1_655
Mg7 Mg9 3.207524 1_555
Mg7 Na1 3.293140 1_555
Mg7 Y0 3.323894 1_555
Mg7 Y1 3.368331 1_555
Mg7 Na0 3.398171 1_555
Mg8 Y0 3.271347 1_455
Mg8 Y0 3.271347 1_555
Mg8 Na1 3.274521 1_465
Mg8 Na1 3.274521 1_565
Mg8 Mg9 3.394304 1_555
Mg8 Mg9 3.395906 1_565
Mg9 Y0 3.271347 1_455
Mg9 Y0 3.271347 1_555
Mg9 Na1 3.274521 1_455
Mg9 Na1 3.274521 1_555
Mg10 Mg6 3.245894 1_445
Mg10 Mg6 3.245894 1_545
Mg10 Mg7 3.245894 1_455
Mg10 Mg7 3.245894 1_555
Mg10 Y1 3.276223 1_555
Mg10 Y1 3.276223 1_455
Mg10 Mg8 3.286570 1_545
Mg10 Mg9 3.286570 1_555
Mg10 Mg5 3.395115 1_545
Mg10 Mg5 3.395115 1_555
Mg10 Mg2 3.405066 1_555
Mg10 Mg3 3.405066 1_545
Mg11 Na1 3.275779 1_555
Mg11 Na1 3.275779 1_455
Mg11 Mg2 3.278960 1_554
Mg11 Mg3 3.278960 1_544
Mg11 Mg4 3.395115 1_555
Mg11 Mg4 3.395115 1_545
Mg11 Mg9 3.412755 1_555
Mg11 Mg8 3.412755 1_545
