# generated using pymatgen
data_V6GaGe
_symmetry_space_group_name_H-M   'P 1'
_cell_length_a   4.75007213
_cell_length_b   4.75018639
_cell_length_c   4.75039426
_cell_angle_alpha   90.00000000
_cell_angle_beta   90.00000000
_cell_angle_gamma   90.00000000
_symmetry_Int_Tables_number   1
_chemical_formula_structural   V6GaGe
_chemical_formula_sum   'V6 Ga1 Ge1'
_cell_volume   107.18660390
_cell_formula_units_Z   1
loop_
 _symmetry_equiv_pos_site_id
 _symmetry_equiv_pos_as_xyz
  1  'x, y, z'
loop_
 _atom_site_type_symbol
 _atom_site_label
 _atom_site_symmetry_multiplicity
 _atom_site_fract_x
 _atom_site_fract_y
 _atom_site_fract_z
 _atom_site_occupancy
  V  V0  1  0.00000000  0.50000000  0.75178823  1
  V  V1  1  0.50000000  0.24824517  0.00000000  1
  V  V2  1  0.75180434  0.00000000  0.50000000  1
  V  V3  1  -0.00000000  0.50000000  0.24821177  1
  V  V4  1  0.50000000  0.75175483  -0.00000000  1
  V  V5  1  0.24819566  0.00000000  0.50000000  1
  Ga  Ga0  1  0.50000000  0.50000000  0.50000000  1
  Ge  Ge0  1  -0.00000000  0.00000000  0.00000000  1
loop_
_geom_bond_atom_site_label_1
_geom_bond_atom_site_label_2
_geom_bond_distance
_geom_bond_site_symmetry_2
V0 V3 2.358208 1_556
V0 V3 2.392187 1_555
V1 V4 2.358422 1_545
V1 V4 2.391765 1_555
V2 V5 2.357895 1_655
V2 V5 2.392178 1_555
Ga0 V0 2.659217 1_555
Ga0 V3 2.659217 1_555
Ga0 V0 2.659217 1_655
Ga0 V3 2.659217 1_655
Ga0 V4 2.659266 1_556
Ga0 V4 2.659266 1_555
Ga0 V1 2.659266 1_555
Ga0 V1 2.659266 1_556
Ga0 V5 2.659266 1_565
Ga0 V2 2.659266 1_565
Ga0 V5 2.659266 1_555
Ga0 V2 2.659266 1_555
Ge0 V4 2.651666 1_445
Ge0 V4 2.651666 1_545
Ge0 V1 2.651666 1_555
Ge0 V1 2.651666 1_455
Ge0 V0 2.651670 1_544
Ge0 V0 2.651670 1_554
Ge0 V3 2.651670 1_555
Ge0 V3 2.651670 1_545
Ge0 V2 2.651693 1_455
Ge0 V2 2.651693 1_454
Ge0 V5 2.651693 1_555
Ge0 V5 2.651693 1_554
