# generated using pymatgen
data_Mg19Al4Zn15
_symmetry_space_group_name_H-M   'P 1'
_cell_length_a   8.69968829
_cell_length_b   8.69968829
_cell_length_c   19.51676078
_cell_angle_alpha   90.00000000
_cell_angle_beta   90.00000000
_cell_angle_gamma   110.04621742
_symmetry_Int_Tables_number   1
_chemical_formula_structural   Mg19Al4Zn15
_chemical_formula_sum   'Mg38 Al8 Zn30'
_cell_volume   1387.62869571
_cell_formula_units_Z   2
loop_
 _symmetry_equiv_pos_site_id
 _symmetry_equiv_pos_as_xyz
  1  'x, y, z'
loop_
 _atom_site_type_symbol
 _atom_site_label
 _atom_site_symmetry_multiplicity
 _atom_site_fract_x
 _atom_site_fract_y
 _atom_site_fract_z
 _atom_site_occupancy
  Mg  Mg0  1  0.95694973  0.31933416  0.47621626  1
  Mg  Mg1  1  0.68066584  0.04305027  0.52378374  1
  Mg  Mg2  1  0.95694973  0.31933416  0.02378374  1
  Mg  Mg3  1  0.68066584  0.04305027  0.97621626  1
  Mg  Mg4  1  0.04305027  0.68066584  0.52378374  1
  Mg  Mg5  1  0.31933416  0.95694973  0.47621626  1
  Mg  Mg6  1  0.04305027  0.68066584  0.97621626  1
  Mg  Mg7  1  0.31933416  0.95694973  0.02378374  1
  Mg  Mg8  1  0.17862590  0.58053032  0.38136073  1
  Mg  Mg9  1  0.41946968  0.82137410  0.61863927  1
  Mg  Mg10  1  0.17862590  0.58053032  0.11863927  1
  Mg  Mg11  1  0.41946968  0.82137410  0.88136073  1
  Mg  Mg12  1  0.82137410  0.41946968  0.61863927  1
  Mg  Mg13  1  0.58053032  0.17862590  0.38136073  1
  Mg  Mg14  1  0.82137410  0.41946968  0.88136073  1
  Mg  Mg15  1  0.58053032  0.17862590  0.11863927  1
  Mg  Mg16  1  0.02087265  0.64885684  0.25000000  1
  Mg  Mg17  1  0.35114316  0.97912735  0.75000000  1
  Mg  Mg18  1  0.97912735  0.35114316  0.75000000  1
  Mg  Mg19  1  0.64885684  0.02087265  0.25000000  1
  Mg  Mg20  1  0.67684128  0.42411186  0.25000000  1
  Mg  Mg21  1  0.57588814  0.32315872  0.75000000  1
  Mg  Mg22  1  0.32315872  0.57588814  0.75000000  1
  Mg  Mg23  1  0.42411186  0.67684128  0.25000000  1
  Mg  Mg24  1  0.17830633  0.17830633  0.37694681  1
  Mg  Mg25  1  0.82169367  0.82169367  0.62305319  1
  Mg  Mg26  1  0.17830633  0.17830633  0.12305319  1
  Mg  Mg27  1  0.82169367  0.82169367  0.87694681  1
  Mg  Mg28  1  0.28326455  0.28326455  0.97561284  1
  Mg  Mg29  1  0.71673545  0.71673545  0.02438716  1
  Mg  Mg30  1  0.28326455  0.28326455  0.52438716  1
  Mg  Mg31  1  0.71673545  0.71673545  0.47561284  1
  Mg  Mg32  1  0.47908688  0.47908688  0.38123393  1
  Mg  Mg33  1  0.52091312  0.52091312  0.61876607  1
  Mg  Mg34  1  0.47908688  0.47908688  0.11876607  1
  Mg  Mg35  1  0.52091312  0.52091312  0.88123393  1
  Mg  Mg36  1  0.00244782  0.00244782  0.25000000  1
  Mg  Mg37  1  0.99755218  0.99755218  0.75000000  1
  Al  Al0  1  0.91404332  0.29250150  0.32087617  1
  Al  Al1  1  0.70749850  0.08595668  0.67912383  1
  Al  Al2  1  0.91404332  0.29250150  0.17912383  1
  Al  Al3  1  0.70749850  0.08595668  0.82087617  1
  Al  Al4  1  0.08595668  0.70749850  0.67912383  1
  Al  Al5  1  0.29250150  0.91404332  0.32087617  1
  Al  Al6  1  0.08595668  0.70749850  0.82087617  1
  Al  Al7  1  0.29250150  0.91404332  0.17912383  1
  Zn  Zn0  1  0.82635920  0.51206325  0.38797231  1
  Zn  Zn1  1  0.48793675  0.17364080  0.61202769  1
  Zn  Zn2  1  0.82635920  0.51206325  0.11202769  1
  Zn  Zn3  1  0.48793675  0.17364080  0.88797231  1
  Zn  Zn4  1  0.17364080  0.48793675  0.61202769  1
  Zn  Zn5  1  0.51206325  0.82635920  0.38797231  1
  Zn  Zn6  1  0.17364080  0.48793675  0.88797231  1
  Zn  Zn7  1  0.51206325  0.82635920  0.11202769  1
  Zn  Zn8  1  0.01559941  0.82498235  0.38893820  1
  Zn  Zn9  1  0.17501765  0.98440059  0.61106180  1
  Zn  Zn10  1  0.01559941  0.82498235  0.11106180  1
  Zn  Zn11  1  0.17501765  0.98440059  0.88893820  1
  Zn  Zn12  1  0.98440059  0.17501765  0.61106180  1
  Zn  Zn13  1  0.82498235  0.01559941  0.38893820  1
  Zn  Zn14  1  0.98440059  0.17501765  0.88893820  1
  Zn  Zn15  1  0.82498235  0.01559941  0.11106180  1
  Zn  Zn16  1  0.19531708  0.37633923  0.25000000  1
  Zn  Zn17  1  0.62366077  0.80468292  0.75000000  1
  Zn  Zn18  1  0.80468292  0.62366077  0.75000000  1
  Zn  Zn19  1  0.37633923  0.19531708  0.25000000  1
  Zn  Zn20  1  0.26553413  0.26553413  0.81700221  1
  Zn  Zn21  1  0.73446587  0.73446587  0.18299779  1
  Zn  Zn22  1  0.26553413  0.26553413  0.68299779  1
  Zn  Zn23  1  0.73446587  0.73446587  0.31700221  1
  Zn  Zn24  1  0.63139618  0.36860382  0.50000000  1
  Zn  Zn25  1  0.63139618  0.36860382  -0.00000000  1
  Zn  Zn26  1  0.36860382  0.63139618  0.50000000  1
  Zn  Zn27  1  0.36860382  0.63139618  -0.00000000  1
  Zn  Zn28  1  0.00000000  -0.00000000  0.50000000  1
  Zn  Zn29  1  0.00000000  -0.00000000  -0.00000000  1
loop_
_geom_bond_atom_site_label_1
_geom_bond_atom_site_label_2
_geom_bond_distance
_geom_bond_site_symmetry_2
Mg0 Zn0 2.893783 1_555
Mg0 Mg1 2.907866 1_555
Mg0 Zn12 2.960572 1_555
Mg0 Zn28 2.964273 1_655
Mg0 Zn13 3.020283 1_555
Mg0 Zn24 3.041854 1_555
Mg0 Mg8 3.050506 1_655
Mg0 Mg30 3.106771 1_655
Mg0 Mg4 3.112898 1_655
Mg0 Mg12 3.252816 1_555
Mg0 Mg24 3.253777 1_655
Mg0 Zn4 3.291699 1_655
Mg1 Zn1 2.893783 1_555
Mg1 Zn13 2.960572 1_555
Mg1 Zn28 2.964273 1_655
Mg1 Zn12 3.020283 1_555
Mg1 Zn24 3.041854 1_555
Mg1 Mg9 3.050506 1_545
Mg1 Mg31 3.106771 1_545
Mg1 Mg5 3.112898 1_545
Mg1 Mg13 3.252816 1_555
Mg1 Mg25 3.253777 1_545
Mg1 Zn5 3.291699 1_545
Mg2 Zn2 2.893783 1_555
Mg2 Mg3 2.907866 1_554
Mg2 Zn14 2.960572 1_554
Mg2 Zn29 2.964273 1_655
Mg2 Zn15 3.020283 1_555
Mg2 Zn25 3.041854 1_555
Mg2 Mg28 3.106771 1_654
Mg2 Mg6 3.112898 1_654
Mg2 Mg26 3.253777 1_655
Mg2 Zn6 3.291699 1_654
Mg3 Zn3 2.893783 1_555
Mg3 Zn15 2.960572 1_556
Mg3 Zn29 2.964273 1_656
Mg3 Zn14 3.020283 1_555
Mg3 Zn25 3.041854 1_556
Mg3 Mg7 3.112898 1_546
Mg3 Zn7 3.291699 1_546
Mg4 Zn4 2.893783 1_555
Mg4 Mg5 2.907866 1_555
Mg4 Zn8 2.960572 1_555
Mg4 Zn28 2.964273 1_565
Mg4 Zn9 3.020283 1_555
Mg4 Zn26 3.041854 1_555
Mg4 Mg8 3.252816 1_555
Mg4 Zn0 3.291699 1_455
Mg5 Zn5 2.893783 1_555
Mg5 Zn9 2.960572 1_555
Mg5 Zn28 2.964273 1_565
Mg5 Zn8 3.020283 1_555
Mg5 Zn26 3.041854 1_555
Mg5 Mg9 3.252816 1_555
Mg5 Zn1 3.291699 1_565
Mg6 Zn6 2.893783 1_555
Mg6 Mg7 2.907866 1_556
Mg6 Zn10 2.960572 1_556
Mg6 Zn29 2.964273 1_566
Mg6 Zn11 3.020283 1_555
Mg6 Zn27 3.041854 1_556
Mg6 Zn2 3.291699 1_456
Mg7 Zn7 2.893783 1_555
Mg7 Zn11 2.960572 1_554
Mg7 Zn29 2.964273 1_565
Mg7 Zn10 3.020283 1_555
Mg7 Zn27 3.041854 1_555
Mg7 Zn3 3.291699 1_564
Mg8 Zn26 2.790579 1_555
Mg8 Zn0 2.917508 1_455
Mg8 Zn8 2.936635 1_555
Mg8 Zn5 2.958384 1_555
Mg8 Zn16 3.150596 1_555
Mg9 Zn26 2.790579 1_555
Mg9 Zn1 2.917508 1_565
Mg9 Zn9 2.936635 1_555
Mg9 Zn4 2.958384 1_555
Mg9 Zn17 3.150596 1_555
Mg10 Zn27 2.790579 1_555
Mg10 Zn2 2.917508 1_455
Mg10 Zn10 2.936635 1_555
Mg10 Zn7 2.958384 1_555
Mg10 Mg34 3.031979 1_555
Mg10 Mg2 3.050506 1_455
Mg10 Mg16 3.060855 1_555
Mg10 Zn16 3.150596 1_555
Mg10 Mg6 3.252816 1_554
Mg10 Mg23 3.257153 1_555
Mg11 Zn27 2.790579 1_556
Mg11 Zn3 2.917508 1_565
Mg11 Zn11 2.936635 1_555
Mg11 Zn6 2.958384 1_555
Mg11 Mg35 3.031979 1_555
Mg11 Mg3 3.050506 1_565
Mg11 Mg17 3.060855 1_555
Mg11 Zn17 3.150596 1_555
Mg11 Mg7 3.252816 1_556
Mg11 Mg22 3.257153 1_555
Mg12 Zn24 2.790579 1_555
Mg12 Zn4 2.917508 1_655
Mg12 Zn12 2.936635 1_555
Mg12 Zn1 2.958384 1_555
Mg12 Mg33 3.031979 1_555
Mg12 Mg4 3.050506 1_655
Mg12 Mg18 3.060855 1_555
Mg12 Zn18 3.150596 1_555
Mg12 Mg21 3.257153 1_555
Mg13 Zn24 2.790579 1_555
Mg13 Zn5 2.917508 1_545
Mg13 Zn13 2.936635 1_555
Mg13 Zn0 2.958384 1_555
Mg13 Mg32 3.031979 1_555
Mg13 Mg5 3.050506 1_545
Mg13 Mg19 3.060855 1_555
Mg13 Zn19 3.150596 1_555
Mg13 Mg20 3.257153 1_555
Mg14 Zn25 2.790579 1_556
Mg14 Zn6 2.917508 1_655
Mg14 Zn14 2.936635 1_555
Mg14 Zn3 2.958384 1_555
Mg14 Mg35 3.031979 1_555
Mg14 Mg6 3.050506 1_655
Mg14 Mg18 3.060855 1_555
Mg14 Zn18 3.150596 1_555
Mg14 Mg2 3.252816 1_556
Mg14 Mg21 3.257153 1_555
Mg15 Zn25 2.790579 1_555
Mg15 Zn7 2.917508 1_545
Mg15 Zn15 2.936635 1_555
Mg15 Zn2 2.958384 1_555
Mg15 Mg34 3.031979 1_555
Mg15 Mg7 3.050506 1_545
Mg15 Mg19 3.060855 1_555
Mg15 Zn19 3.150596 1_555
Mg15 Mg3 3.252816 1_554
Mg15 Mg20 3.257153 1_555
Mg16 Mg20 2.961233 1_455
Mg16 Mg8 3.060855 1_555
Mg16 Zn23 3.121728 1_455
Mg16 Zn21 3.121728 1_455
Mg16 Zn8 3.122651 1_555
Mg16 Zn10 3.122651 1_555
Mg16 Mg36 3.134694 1_565
Mg16 Zn2 3.185944 1_455
Mg16 Zn0 3.185944 1_455
Mg16 Zn16 3.223437 1_555
Mg16 Mg23 3.432232 1_555
Mg17 Mg21 2.961233 1_565
Mg17 Mg9 3.060855 1_555
Mg17 Zn22 3.121728 1_565
Mg17 Zn20 3.121728 1_565
Mg17 Zn11 3.122651 1_555
Mg17 Zn9 3.122651 1_555
Mg17 Mg37 3.134694 1_455
Mg17 Zn1 3.185944 1_565
Mg17 Zn3 3.185944 1_565
Mg17 Zn17 3.223437 1_555
Mg17 Mg22 3.432232 1_555
Mg18 Mg22 2.961233 1_655
Mg18 Zn22 3.121728 1_655
Mg18 Zn20 3.121728 1_655
Mg18 Zn14 3.122651 1_555
Mg18 Zn12 3.122651 1_555
Mg18 Mg37 3.134694 1_545
Mg18 Zn6 3.185944 1_655
Mg18 Zn4 3.185944 1_655
Mg18 Zn18 3.223437 1_555
Mg18 Mg21 3.432232 1_555
Mg19 Mg23 2.961233 1_545
Mg19 Zn23 3.121728 1_545
Mg19 Zn21 3.121728 1_545
Mg19 Zn13 3.122651 1_555
Mg19 Zn15 3.122651 1_555
Mg19 Mg36 3.134694 1_655
Mg19 Zn7 3.185944 1_545
Mg19 Zn5 3.185944 1_545
Mg19 Zn19 3.223437 1_555
Mg19 Mg20 3.432232 1_555
Mg20 Zn19 2.688672 1_555
Mg20 Zn23 2.885011 1_555
Mg20 Zn21 2.885011 1_555
Mg20 Zn0 2.974245 1_555
Mg20 Zn2 2.974245 1_555
Mg20 Mg34 3.211333 1_555
Mg20 Mg32 3.211333 1_555
Mg21 Zn18 2.688672 1_555
Mg21 Zn22 2.885011 1_555
Mg21 Zn20 2.885011 1_555
Mg21 Zn3 2.974245 1_555
Mg21 Zn1 2.974245 1_555
Mg21 Mg33 3.211333 1_555
Mg21 Mg35 3.211333 1_555
Mg22 Zn17 2.688672 1_555
Mg22 Zn22 2.885011 1_555
Mg22 Zn20 2.885011 1_555
Mg22 Zn4 2.974245 1_555
Mg22 Zn6 2.974245 1_555
Mg22 Mg33 3.211333 1_555
Mg22 Mg35 3.211333 1_555
Mg22 Mg9 3.257153 1_555
Mg23 Zn16 2.688672 1_555
Mg23 Zn23 2.885011 1_555
Mg23 Zn21 2.885011 1_555
Mg23 Zn5 2.974245 1_555
Mg23 Zn7 2.974245 1_555
Mg23 Mg34 3.211333 1_555
Mg23 Mg32 3.211333 1_555
Mg23 Mg8 3.257153 1_555
Mg24 Zn8 2.919567 1_545
Mg24 Zn13 2.919567 1_455
Mg24 Zn28 2.988405 1_555
Mg24 Zn19 2.992272 1_555
Mg24 Zn16 2.992272 1_555
Mg24 Mg32 3.001189 1_555
Mg24 Mg36 3.035637 1_555
Mg24 Mg30 3.062069 1_555
Mg24 Mg5 3.253777 1_545
Mg25 Zn12 2.919567 1_565
Mg25 Zn9 2.919567 1_655
Mg25 Zn28 2.988405 1_665
Mg25 Zn18 2.992272 1_555
Mg25 Zn17 2.992272 1_555
Mg25 Mg33 3.001189 1_555
Mg25 Mg37 3.035637 1_555
Mg25 Mg31 3.062069 1_555
Mg25 Mg4 3.253777 1_655
Mg26 Zn10 2.919567 1_545
Mg26 Zn15 2.919567 1_455
Mg26 Zn29 2.988405 1_555
Mg26 Zn19 2.992272 1_555
Mg26 Zn16 2.992272 1_555
Mg26 Mg34 3.001189 1_555
Mg26 Mg36 3.035637 1_555
Mg26 Mg28 3.062069 1_554
Mg26 Mg7 3.253777 1_545
Mg27 Zn14 2.919567 1_565
Mg27 Zn11 2.919567 1_655
Mg27 Zn29 2.988405 1_666
Mg27 Zn18 2.992272 1_555
Mg27 Zn17 2.992272 1_555
Mg27 Mg35 3.001189 1_555
Mg27 Mg37 3.035637 1_555
Mg27 Mg29 3.062069 1_556
Mg27 Mg6 3.253777 1_655
Mg27 Mg3 3.253777 1_565
Mg28 Zn6 2.858294 1_555
Mg28 Zn3 2.858294 1_555
Mg28 Zn29 2.865125 1_556
Mg28 Zn25 2.899806 1_556
Mg28 Zn27 2.899806 1_556
Mg28 Zn14 2.971517 1_455
Mg28 Zn11 2.971517 1_545
Mg28 Mg35 3.001891 1_555
Mg28 Zn20 3.100613 1_555
Mg28 Mg7 3.106771 1_546
Mg28 Mg34 3.408904 1_556
Mg29 Zn2 2.858294 1_555
Mg29 Zn7 2.858294 1_555
Mg29 Zn29 2.865125 1_665
Mg29 Zn27 2.899806 1_555
Mg29 Zn25 2.899806 1_555
Mg29 Zn15 2.971517 1_565
Mg29 Zn10 2.971517 1_655
Mg29 Mg34 3.001891 1_555
Mg29 Zn21 3.100613 1_555
Mg29 Mg3 3.106771 1_564
Mg29 Mg6 3.106771 1_654
Mg29 Mg35 3.408904 1_554
Mg30 Zn4 2.858294 1_555
Mg30 Zn1 2.858294 1_555
Mg30 Zn28 2.865125 1_555
Mg30 Zn24 2.899806 1_555
Mg30 Zn26 2.899806 1_555
Mg30 Zn9 2.971517 1_545
Mg30 Zn12 2.971517 1_455
Mg30 Mg33 3.001891 1_555
Mg30 Zn22 3.100613 1_555
Mg30 Mg5 3.106771 1_545
Mg30 Mg32 3.408904 1_555
Mg31 Zn5 2.858294 1_555
Mg31 Zn0 2.858294 1_555
Mg31 Zn28 2.865125 1_665
Mg31 Zn26 2.899806 1_555
Mg31 Zn24 2.899806 1_555
Mg31 Zn8 2.971517 1_655
Mg31 Zn13 2.971517 1_565
Mg31 Mg32 3.001891 1_555
Mg31 Zn23 3.100613 1_555
Mg31 Mg4 3.106771 1_655
Mg31 Mg33 3.408904 1_555
Mg32 Zn23 2.838950 1_555
Mg32 Zn0 2.938167 1_555
Mg32 Zn5 2.938167 1_555
Mg32 Zn26 2.987557 1_555
Mg32 Zn24 2.987557 1_555
Mg32 Mg8 3.031979 1_555
Mg33 Zn22 2.838950 1_555
Mg33 Zn4 2.938167 1_555
Mg33 Zn1 2.938167 1_555
Mg33 Zn26 2.987557 1_555
Mg33 Zn24 2.987557 1_555
Mg33 Mg9 3.031979 1_555
Mg34 Zn21 2.838950 1_555
Mg34 Zn2 2.938167 1_555
Mg34 Zn7 2.938167 1_555
Mg34 Zn25 2.987557 1_555
Mg34 Zn27 2.987557 1_555
Mg35 Zn20 2.838950 1_555
Mg35 Zn3 2.938167 1_555
Mg35 Zn6 2.938167 1_555
Mg35 Zn27 2.987557 1_556
Mg35 Zn25 2.987557 1_556
Mg36 Zn23 2.975618 1_445
Mg36 Zn21 2.975618 1_445
Mg36 Zn19 3.107097 1_555
Mg36 Zn16 3.107097 1_555
Mg36 Zn13 3.141767 1_455
Mg36 Zn8 3.141767 1_545
Mg36 Zn10 3.141767 1_545
Mg36 Zn15 3.141767 1_455
Mg37 Zn22 2.975618 1_665
Mg37 Zn20 2.975618 1_665
Mg37 Zn18 3.107097 1_555
Mg37 Zn17 3.107097 1_555
Mg37 Zn9 3.141767 1_655
Mg37 Zn14 3.141767 1_565
Mg37 Zn12 3.141767 1_565
Mg37 Zn11 3.141767 1_655
Al0 Zn13 2.624569 1_555
Al0 Zn0 2.635177 1_555
Al0 Zn16 2.685079 1_655
Al0 Al2 2.766547 1_555
Al0 Mg13 2.970325 1_555
Al0 Mg8 3.002740 1_655
Al0 Mg24 3.005947 1_655
Al0 Mg19 3.013733 1_555
Al0 Mg20 3.017046 1_555
Al0 Mg0 3.053769 1_555
Al0 Mg36 3.194189 1_655
Al0 Mg16 3.226926 1_655
Al1 Zn12 2.624569 1_555
Al1 Zn1 2.635177 1_555
Al1 Zn17 2.685079 1_545
Al1 Al3 2.766547 1_555
Al1 Mg12 2.970325 1_555
Al1 Mg9 3.002740 1_545
Al1 Mg25 3.005947 1_545
Al1 Mg18 3.013733 1_555
Al1 Mg21 3.017046 1_555
Al1 Mg1 3.053769 1_555
Al1 Mg37 3.194189 1_545
Al1 Mg17 3.226926 1_545
Al2 Zn15 2.624569 1_555
Al2 Zn2 2.635177 1_555
Al2 Zn16 2.685079 1_655
Al2 Mg15 2.970325 1_555
Al2 Mg10 3.002740 1_655
Al2 Mg26 3.005947 1_655
Al2 Mg19 3.013733 1_555
Al2 Mg20 3.017046 1_555
Al2 Mg2 3.053769 1_555
Al2 Mg36 3.194189 1_655
Al2 Mg16 3.226926 1_655
Al3 Zn14 2.624569 1_555
Al3 Zn3 2.635177 1_555
Al3 Zn17 2.685079 1_545
Al3 Mg14 2.970325 1_555
Al3 Mg11 3.002740 1_545
Al3 Mg27 3.005947 1_545
Al3 Mg18 3.013733 1_555
Al3 Mg21 3.017046 1_555
Al3 Mg3 3.053769 1_555
Al3 Mg37 3.194189 1_545
Al3 Mg17 3.226926 1_545
Al4 Zn9 2.624569 1_555
Al4 Zn4 2.635177 1_555
Al4 Zn18 2.685079 1_455
Al4 Al6 2.766547 1_555
Al4 Mg9 2.970325 1_555
Al4 Mg12 3.002740 1_455
Al4 Mg25 3.005947 1_455
Al4 Mg17 3.013733 1_555
Al4 Mg22 3.017046 1_555
Al4 Mg4 3.053769 1_555
Al4 Mg37 3.194189 1_455
Al4 Mg18 3.226926 1_455
Al5 Zn8 2.624569 1_555
Al5 Zn5 2.635177 1_555
Al5 Zn19 2.685079 1_565
Al5 Al7 2.766547 1_555
Al5 Mg8 2.970325 1_555
Al5 Mg13 3.002740 1_565
Al5 Mg24 3.005947 1_565
Al5 Mg16 3.013733 1_555
Al5 Mg23 3.017046 1_555
Al5 Mg5 3.053769 1_555
Al5 Mg36 3.194189 1_565
Al5 Mg19 3.226926 1_565
Al6 Zn11 2.624569 1_555
Al6 Zn6 2.635177 1_555
Al6 Zn18 2.685079 1_455
Al6 Mg11 2.970325 1_555
Al6 Mg14 3.002740 1_455
Al6 Mg27 3.005947 1_455
Al6 Mg17 3.013733 1_555
Al6 Mg22 3.017046 1_555
Al6 Mg6 3.053769 1_555
Al6 Mg37 3.194189 1_455
Al6 Mg18 3.226926 1_455
Al7 Zn10 2.624569 1_555
Al7 Zn7 2.635177 1_555
Al7 Zn19 2.685079 1_565
Al7 Mg10 2.970325 1_555
Al7 Mg15 3.002740 1_565
Al7 Mg26 3.005947 1_565
Al7 Mg16 3.013733 1_555
Al7 Mg23 3.017046 1_555
Al7 Mg7 3.053769 1_555
Al7 Mg36 3.194189 1_565
Al7 Mg19 3.226926 1_565
Zn0 Zn8 2.655022 1_655
Zn0 Zn23 2.713231 1_555
Zn0 Zn24 2.786334 1_555
Zn1 Zn9 2.655022 1_545
Zn1 Zn22 2.713231 1_555
Zn1 Zn24 2.786334 1_555
Zn2 Zn21 2.713231 1_555
Zn2 Zn25 2.786334 1_555
Zn10 Zn2 2.655022 1_455
Zn10 Zn29 2.678942 1_565
Zn10 Zn21 2.693075 1_455
Zn10 Zn15 2.717581 1_465
Zn11 Zn3 2.655022 1_565
Zn11 Zn29 2.678942 1_566
Zn11 Zn20 2.693075 1_565
Zn11 Zn14 2.717581 1_465
Zn12 Zn4 2.655022 1_655
Zn12 Zn28 2.678942 1_655
Zn12 Zn22 2.693075 1_655
Zn12 Zn9 2.717581 1_645
Zn13 Zn5 2.655022 1_545
Zn13 Zn28 2.678942 1_655
Zn13 Zn23 2.693075 1_545
Zn13 Zn8 2.717581 1_645
Zn14 Zn6 2.655022 1_655
Zn14 Zn29 2.678942 1_656
Zn14 Zn20 2.693075 1_655
Zn15 Zn7 2.655022 1_545
Zn15 Zn29 2.678942 1_655
Zn15 Zn21 2.693075 1_545
Zn16 Zn19 2.580789 1_555
Zn17 Zn18 2.580789 1_555
Zn20 Zn22 2.615332 1_555
Zn20 Zn6 2.713231 1_555
Zn20 Zn3 2.713231 1_555
Zn21 Zn23 2.615332 1_555
Zn21 Zn7 2.713231 1_555
Zn22 Zn9 2.693075 1_545
Zn22 Zn4 2.713231 1_555
Zn23 Zn8 2.693075 1_655
Zn23 Zn5 2.713231 1_555
Zn25 Zn3 2.786334 1_554
Zn26 Zn5 2.786334 1_555
Zn26 Zn4 2.786334 1_555
Zn27 Zn7 2.786334 1_555
Zn27 Zn6 2.786334 1_554
Zn28 Zn9 2.678942 1_545
Zn28 Zn8 2.678942 1_545
