# generated using pymatgen
data_Na2TiH4O5
_symmetry_space_group_name_H-M   'P 1'
_cell_length_a   3.05246400
_cell_length_b   4.15769000
_cell_length_c   11.37732919
_cell_angle_alpha   100.52812690
_cell_angle_beta   97.70928483
_cell_angle_gamma   90.00000000
_symmetry_Int_Tables_number   1
_chemical_formula_structural   Na2TiH4O5
_chemical_formula_sum   'Na2 Ti1 H4 O5'
_cell_volume   140.63351183
_cell_formula_units_Z   1
loop_
 _symmetry_equiv_pos_site_id
 _symmetry_equiv_pos_as_xyz
  1  'x, y, z'
loop_
 _atom_site_type_symbol
 _atom_site_label
 _atom_site_symmetry_multiplicity
 _atom_site_fract_x
 _atom_site_fract_y
 _atom_site_fract_z
 _atom_site_occupancy
  Na  Na0  1  0.58711900  0.58711900  0.17423800  1
  Na  Na1  1  0.41288100  0.41288100  0.82576200  1
  Ti  Ti0  1  0.00000000  0.00000000  0.00000000  1
  H  H0  1  0.79630100  0.11027400  0.59260300  1
  H  H1  1  0.79630100  0.48232800  0.59260300  1
  H  H2  1  0.20369900  0.51767200  0.40739700  1
  H  H3  1  0.20369900  0.88972600  0.40739700  1
  O  O0  1  0.55770100  0.05770100  0.11540200  1
  O  O1  1  0.44229900  0.94229900  0.88459800  1
  O  O2  1  0.00000000  0.50000000  0.00000000  1
  O  O3  1  0.17652400  0.67652400  0.35304700  1
  O  O4  1  0.82347600  0.32347600  0.64695300  1
loop_
_geom_bond_atom_site_label_1
_geom_bond_atom_site_label_2
_geom_bond_distance
_geom_bond_site_symmetry_2
Na0 O0 2.178684 1_555
Na0 O0 2.178684 1_565
Na0 O2 2.461144 1_555
Na0 O2 2.461144 1_655
Na0 O3 2.501077 1_555
Na0 O3 2.501079 1_655
Na1 O1 2.178684 1_545
Na1 O1 2.178684 1_555
Na1 O2 2.461144 1_656
Na1 O2 2.461144 1_556
Na1 O4 2.501077 1_555
Na1 O4 2.501079 1_455
H0 O4 0.980272 1_555
H1 O4 0.980272 1_555
H2 O3 0.980272 1_555
H3 O3 0.980272 1_555
O0 Ti0 1.991153 1_655
O0 Ti0 1.991153 1_555
O1 Ti0 1.991153 1_566
O1 Ti0 1.991153 1_666
O2 Ti0 2.078845 1_555
O2 Ti0 2.078845 1_565
