# generated using pymatgen
data_Cr4CdCuO8
_symmetry_space_group_name_H-M   'P 1'
_cell_length_a   6.10383483
_cell_length_b   6.10383483
_cell_length_c   6.10383483
_cell_angle_alpha   60.00000000
_cell_angle_beta   60.00000000
_cell_angle_gamma   60.00000000
_symmetry_Int_Tables_number   1
_chemical_formula_structural   Cr4CdCuO8
_chemical_formula_sum   'Cr4 Cd1 Cu1 O8'
_cell_volume   160.80269442
_cell_formula_units_Z   1
loop_
 _symmetry_equiv_pos_site_id
 _symmetry_equiv_pos_as_xyz
  1  'x, y, z'
loop_
 _atom_site_type_symbol
 _atom_site_label
 _atom_site_symmetry_multiplicity
 _atom_site_fract_x
 _atom_site_fract_y
 _atom_site_fract_z
 _atom_site_occupancy
  Cr  Cr0  1  0.12563200  0.62478900  0.62478900  1
  Cr  Cr1  1  0.62478900  0.12563200  0.62478900  1
  Cr  Cr2  1  0.62478900  0.62478900  0.12563200  1
  Cr  Cr3  1  0.62478900  0.62478900  0.62478900  1
  Cd  Cd0  1  0.00000000  0.00000000  0.00000000  1
  Cu  Cu0  1  0.25000000  0.25000000  0.25000000  1
  O  O0  1  0.43028100  0.85657300  0.85657300  1
  O  O1  1  0.85657300  0.43028100  0.85657300  1
  O  O2  1  0.85657300  0.85657300  0.43028100  1
  O  O3  1  0.85657300  0.85657300  0.85657300  1
  O  O4  1  0.83589800  0.38803400  0.38803400  1
  O  O5  1  0.38803400  0.83589800  0.38803400  1
  O  O6  1  0.38803400  0.38803400  0.83589800  1
  O  O7  1  0.38803400  0.38803400  0.38803400  1
loop_
_geom_bond_atom_site_label_1
_geom_bond_atom_site_label_2
_geom_bond_distance
_geom_bond_site_symmetry_2
Cr0 O1 2.013679 1_455
Cr0 O2 2.013679 1_455
Cr0 O3 2.013683 1_455
Cr0 O7 2.049686 1_555
Cr0 O6 2.049690 1_555
Cr0 O5 2.049690 1_555
Cr1 O2 2.013679 1_545
Cr1 O0 2.013679 1_545
Cr1 O3 2.013683 1_545
Cr1 O7 2.049686 1_555
Cr1 O6 2.049690 1_555
Cr1 O4 2.049690 1_555
Cr2 O0 2.013679 1_554
Cr2 O1 2.013679 1_554
Cr2 O3 2.013683 1_554
Cr2 O7 2.049686 1_555
Cr2 O5 2.049690 1_555
Cr2 O4 2.049690 1_555
Cr3 O2 2.013684 1_555
Cr3 O1 2.013684 1_555
Cr3 O0 2.013684 1_555
Cr3 O4 2.049685 1_555
Cr3 O5 2.049685 1_555
Cr3 O6 2.049685 1_555
Cd0 O3 2.144417 1_444
Cd0 O2 2.144417 1_445
Cd0 O1 2.144417 1_454
Cd0 O0 2.144417 1_544
Cu0 O6 2.063785 1_554
Cu0 O7 2.063785 1_555
Cu0 O4 2.063785 1_455
Cu0 O5 2.063785 1_545
