# generated using pymatgen
data_MgSi
_symmetry_space_group_name_H-M   'P 1'
_cell_length_a   4.56715200
_cell_length_b   5.46409482
_cell_length_c   9.57967389
_cell_angle_alpha   93.85433763
_cell_angle_beta   94.54089622
_cell_angle_gamma   113.57924333
_symmetry_Int_Tables_number   1
_chemical_formula_structural   MgSi
_chemical_formula_sum   'Mg6 Si6'
_cell_volume   217.13316742
_cell_formula_units_Z   6
loop_
 _symmetry_equiv_pos_site_id
 _symmetry_equiv_pos_as_xyz
  1  'x, y, z'
loop_
 _atom_site_type_symbol
 _atom_site_label
 _atom_site_symmetry_multiplicity
 _atom_site_fract_x
 _atom_site_fract_y
 _atom_site_fract_z
 _atom_site_occupancy
  Mg  Mg0  1  0.97598000  0.85817200  0.35509900  1
  Mg  Mg1  1  0.02402000  0.14182800  0.64490100  1
  Mg  Mg2  1  0.55130700  0.13064500  0.86448600  1
  Mg  Mg3  1  0.44869300  0.86935500  0.13551400  1
  Mg  Mg4  1  0.73339500  0.54648000  0.64649600  1
  Mg  Mg5  1  0.26660500  0.45352000  0.35350400  1
  Si  Si0  1  0.75958100  0.47402300  0.13803900  1
  Si  Si1  1  0.86345000  0.75917600  0.94247700  1
  Si  Si2  1  0.62500400  0.15647800  0.40817400  1
  Si  Si3  1  0.37499600  0.84352200  0.59182600  1
  Si  Si4  1  0.24041900  0.52597700  0.86196100  1
  Si  Si5  1  0.13655000  0.24082400  0.05752300  1
loop_
_geom_bond_atom_site_label_1
_geom_bond_atom_site_label_2
_geom_bond_distance
_geom_bond_site_symmetry_2
Mg0 Si0 2.671063 1_555
Mg0 Si2 2.736109 1_665
Mg0 Si2 2.755495 1_565
Mg0 Si3 2.820804 1_655
Mg0 Mg3 3.092084 1_555
Mg0 Mg3 3.117785 1_655
Mg1 Si4 2.671063 1_555
Mg1 Si3 2.736109 1_445
Mg1 Si3 2.755495 1_545
Mg1 Si2 2.820804 1_455
Mg1 Mg2 3.092084 1_555
Mg1 Mg2 3.117785 1_455
Mg2 Si3 2.835069 1_545
Mg2 Si5 2.947482 1_556
Mg2 Si5 2.950721 1_656
Mg2 Si0 2.967971 1_556
Mg2 Si1 3.010085 1_545
Mg2 Si4 3.022941 1_555
Mg2 Si4 3.025250 1_655
Mg2 Mg3 3.025690 1_546
Mg2 Si4 3.027126 1_545
Mg2 Mg4 3.101026 1_555
Mg2 Si1 3.155111 1_555
Mg2 Si1 3.165668 1_445
Mg3 Si2 2.835069 1_565
Mg3 Si1 2.947482 1_554
Mg3 Si1 2.950721 1_454
Mg3 Si4 2.967971 1_554
Mg3 Si5 3.010085 1_565
Mg3 Si0 3.022941 1_555
Mg3 Si0 3.025250 1_455
Mg3 Si0 3.027126 1_565
Mg3 Mg5 3.101026 1_555
Mg3 Si5 3.155111 1_555
Mg3 Si5 3.165668 1_665
Mg4 Si3 2.773439 1_555
Mg4 Si3 2.836811 1_655
Mg4 Si2 2.884709 1_555
Mg4 Si1 2.912221 1_555
Mg4 Si4 3.019448 1_655
Mg4 Si4 3.147599 1_555
Mg5 Si2 2.773439 1_555
Mg5 Si2 2.836811 1_455
Mg5 Si3 2.884709 1_555
Mg5 Si5 2.912221 1_555
Mg5 Si0 3.019448 1_455
Mg5 Si0 3.147599 1_555
Si0 Si1 2.470676 1_554
Si0 Si5 2.633424 1_555
Si0 Si5 2.648770 1_655
Si1 Si5 2.542203 1_666
Si1 Si4 2.633424 1_555
Si1 Si4 2.648770 1_655
Si2 Si3 2.546293 1_545
Si4 Si5 2.470676 1_556
