# generated using pymatgen
data_Na3Zr2Si2PO12
_symmetry_space_group_name_H-M   'P 1'
_cell_length_a   9.16826200
_cell_length_b   9.16814110
_cell_length_c   16.32893398
_cell_angle_alpha   89.05549064
_cell_angle_beta   106.26391639
_cell_angle_gamma   119.97663260
_symmetry_Int_Tables_number   1
_chemical_formula_structural   Na3Zr2Si2PO12
_chemical_formula_sum   'Na12 Zr8 Si8 P4 O48'
_cell_volume   1128.71148065
_cell_formula_units_Z   4
loop_
 _symmetry_equiv_pos_site_id
 _symmetry_equiv_pos_as_xyz
  1  'x, y, z'
loop_
 _atom_site_type_symbol
 _atom_site_label
 _atom_site_symmetry_multiplicity
 _atom_site_fract_x
 _atom_site_fract_y
 _atom_site_fract_z
 _atom_site_occupancy
  Na  Na0  1  0.07180300  0.55055800  0.80464100  1
  Na  Na1  1  0.30346900  0.81848800  0.54407300  1
  Na  Na2  1  0.96432500  0.90082300  0.72114300  1
  Na  Na3  1  0.40062000  0.12423000  0.87432900  1
  Na  Na4  1  0.05401700  0.08093000  0.28598300  1
  Na  Na5  1  0.60655900  0.36730600  0.61968800  1
  Na  Na6  1  0.30408700  0.31623100  0.04379800  1
  Na  Na7  1  0.68527300  0.67091700  0.96262300  1
  Na  Na8  1  0.39404300  0.62080100  0.37123400  1
  Na  Na9  1  0.60233000  0.86515200  0.11888800  1
  Na  Na10  1  0.68723600  0.17048900  0.46255700  1
  Na  Na11  1  0.94890000  0.43197600  0.20784800  1
  Zr  Zr0  1  0.65092700  0.08119000  0.71937500  1
  Zr  Zr1  1  0.14622200  0.81789900  0.97167900  1
  Zr  Zr2  1  0.64985100  0.58287800  0.22081700  1
  Zr  Zr3  1  0.85152700  0.67015900  0.52986600  1
  Zr  Zr4  1  0.14404300  0.31661500  0.47098800  1
  Zr  Zr5  1  0.34979900  0.42175800  0.77889500  1
  Zr  Zr6  1  0.84967000  0.16804400  0.02948000  1
  Zr  Zr7  1  0.34819400  0.92328500  0.28089900  1
  Si  Si0  1  0.47240800  0.83783700  0.88081500  1
  Si  Si1  1  0.95679500  0.37568200  0.62390400  1
  Si  Si2  1  0.24848900  0.08681600  0.63303400  1
  Si  Si3  1  0.75188400  0.40816000  0.87031300  1
  Si  Si4  1  0.47284600  0.33883000  0.38188100  1
  Si  Si5  1  0.95595300  0.87328900  0.12443800  1
  Si  Si6  1  0.24755500  0.58655400  0.13200100  1
  Si  Si7  1  0.75073100  0.90895400  0.36899700  1
  P  P0  1  0.04394200  0.12440300  0.87390100  1
  P  P1  1  0.52889000  0.66107900  0.61942600  1
  P  P2  1  0.04461900  0.62487000  0.37507900  1
  P  P3  1  0.52902300  0.16039500  0.12083700  1
  O  O0  1  0.00194000  0.15607400  0.95521300  1
  O  O1  1  0.12079000  0.41024800  0.70966700  1
  O  O2  1  0.42963700  0.64521400  0.85423900  1
  O  O3  1  0.63323900  0.91953700  0.97371400  1
  O  O4  1  0.00514100  0.65599600  0.45716600  1
  O  O5  1  0.29195800  0.82660200  0.88890400  1
  O  O6  1  0.53152500  0.95975000  0.80786100  1
  O  O7  1  0.76875900  0.20624600  0.62446000  1
  O  O8  1  0.11913700  0.91277800  0.21158900  1
  O  O9  1  0.42100900  0.06748500  0.63977200  1
  O  O10  1  0.06848000  0.89808600  0.60358100  1
  O  O11  1  0.43671500  0.14926000  0.35480200  1
  O  O12  1  0.74679200  0.28210600  0.94299300  1
  O  O13  1  0.07536300  0.97245400  0.87758400  1
  O  O14  1  0.74363700  0.32363400  0.77957200  1
  O  O15  1  0.26581200  0.17047900  0.72605500  1
  O  O16  1  0.93273800  0.54179600  0.62490400  1
  O  O17  1  0.25020300  0.21408800  0.56082300  1
  O  O18  1  0.63283900  0.42213700  0.47478000  1
  O  O19  1  0.93637800  0.59491400  0.89821000  1
  O  O20  1  0.58176600  0.43167800  0.85973300  1
  O  O21  1  0.29022300  0.32431700  0.38845300  1
  O  O22  1  0.53028200  0.46179000  0.30878000  1
  O  O23  1  0.22103600  0.28864800  0.87605400  1
  O  O24  1  0.76815200  0.70311500  0.12437400  1
  O  O25  1  0.48096500  0.54440600  0.68921000  1
  O  O26  1  0.70387000  0.68075500  0.61271500  1
  O  O27  1  0.41779600  0.56305300  0.13987400  1
  O  O28  1  0.06511300  0.39913000  0.10112300  1
  O  O29  1  0.37742500  0.58123700  0.53210100  1
  O  O30  1  0.75327600  0.78483900  0.44170000  1
  O  O31  1  0.07117900  0.47044600  0.37550400  1
  O  O32  1  0.73777000  0.82594300  0.27641600  1
  O  O33  1  0.26024800  0.67120100  0.22344200  1
  O  O34  1  0.93113100  0.03960100  0.12464200  1
  O  O35  1  0.25560900  0.71529500  0.05983500  1
  O  O36  1  0.55992900  0.83771100  0.64567000  1
  O  O37  1  0.93248900  0.09749900  0.39529000  1
  O  O38  1  0.57809200  0.92757300  0.36009000  1
  O  O39  1  0.89313300  0.08375900  0.78991200  1
  O  O40  1  0.22332400  0.78714100  0.37722100  1
  O  O41  1  0.47877400  0.04277400  0.18967300  1
  O  O42  1  0.70199400  0.17695500  0.11267200  1
  O  O43  1  0.99483800  0.34194900  0.53595100  1
  O  O44  1  0.37697900  0.08395300  0.03344200  1
  O  O45  1  0.56617800  0.33929100  0.14813600  1
  O  O46  1  0.89346500  0.59102600  0.29223600  1
  O  O47  1  0.99594100  0.84018600  0.03707900  1
loop_
_geom_bond_atom_site_label_1
_geom_bond_atom_site_label_2
_geom_bond_distance
_geom_bond_site_symmetry_2
Na0 O1 2.301041 1_555
Na0 O19 2.372555 1_455
Na0 O5 2.413877 1_555
Na0 O14 2.575146 1_455
Na0 O2 2.803923 1_555
Na0 O16 2.838171 1_455
Na1 O9 2.351724 1_565
Na1 O4 2.353302 1_555
Na1 O36 2.392169 1_555
Na1 O40 2.595948 1_555
Na1 O29 2.606017 1_555
Na2 O10 2.376955 1_655
Na2 O26 2.417188 1_555
Na2 O13 2.433883 1_655
Na2 O39 2.463025 1_565
Na2 O15 2.610050 1_665
Na3 O5 2.426890 1_545
Na3 O20 2.506354 1_555
Na3 O15 2.526477 1_555
Na3 O13 2.602197 1_545
Na3 O12 2.625804 1_555
Na3 O44 2.671613 1_556
Na3 O6 2.735785 1_545
Na3 O23 2.737056 1_555
Na4 O8 2.365700 1_545
Na4 O21 2.394414 1_555
Na4 O37 2.396302 1_455
Na4 O34 2.509462 1_455
Na4 O32 2.623201 1_445
Na5 O18 2.463476 1_555
Na5 O9 2.483413 1_555
Na5 O7 2.554123 1_555
Na5 O26 2.559569 1_555
Na5 O16 2.567231 1_555
Na5 O14 2.680724 1_555
Na5 O17 2.696442 1_555
Na5 O25 2.812867 1_555
Na6 O27 2.347818 1_555
Na6 O0 2.383925 1_554
Na6 O45 2.435676 1_555
Na6 O44 2.550992 1_555
Na6 O23 2.609310 1_554
Na7 O20 2.383819 1_555
Na7 O47 2.388445 1_556
Na7 O2 2.412321 1_555
Na7 O24 2.513561 1_556
Na7 O3 2.569944 1_555
Na8 O21 2.431653 1_555
Na8 O38 2.490656 1_555
Na8 O33 2.532526 1_555
Na8 O31 2.588851 1_555
Na8 O29 2.681851 1_555
Na8 O40 2.694627 1_555
Na8 O22 2.703266 1_555
Na8 O30 2.723563 1_555
Na9 O3 2.478804 1_554
Na9 O27 2.502362 1_555
Na9 O42 2.539544 1_565
Na9 O34 2.585070 1_565
Na9 O24 2.588926 1_555
Na9 O35 2.623893 1_555
Na9 O32 2.629484 1_555
Na9 O41 2.812462 1_565
Na10 O43 2.366356 1_555
Na10 O11 2.389603 1_555
Na10 O38 2.391406 1_545
Na10 O7 2.516389 1_555
Na10 O18 2.613854 1_555
Na11 O46 2.341483 1_555
Na11 O28 2.375058 1_655
Na11 O42 2.422084 1_555
Na11 O33 2.525568 1_655
Na11 O31 2.606441 1_655
O0 P0 1.551233 1_555
O0 Zr6 2.130122 1_456
O1 Si1 1.637482 1_455
O1 Zr5 2.037270 1_555
O2 Si0 1.642789 1_555
O2 Zr5 2.080055 1_555
O3 Si0 1.648427 1_555
O3 Zr6 2.120395 1_566
O4 P2 1.548115 1_555
O4 Zr3 2.129299 1_455
O5 Si0 1.648271 1_555
O5 Zr1 2.126035 1_555
O6 Si0 1.635401 1_555
O6 Zr0 2.034858 1_565
O7 Si1 1.648451 1_555
O7 Zr0 2.127251 1_555
O8 Si5 1.636384 1_455
O8 Zr7 2.042192 1_555
O9 Si2 1.651462 1_555
O9 Zr0 2.086811 1_555
O10 Si2 1.636520 1_565
O10 Zr3 2.088131 1_455
O11 Si4 1.641304 1_555
O11 Zr7 2.064167 1_545
O12 Si3 1.636503 1_555
O12 Zr6 2.041689 1_556
O13 P0 1.554307 1_565
O13 Zr1 2.253808 1_555
O14 Si3 1.648713 1_555
O14 Zr0 2.084563 1_555
O15 Si2 1.643860 1_555
O15 Zr5 2.136683 1_555
O16 Si1 1.645240 1_555
O16 Zr3 2.125054 1_555
O17 Si2 1.642809 1_555
O17 Zr4 2.012902 1_555
O18 Si4 1.645728 1_555
O18 Zr3 2.121564 1_555
O19 Si3 1.643244 1_555
O19 Zr1 2.043944 1_655
O20 Si3 1.640994 1_555
O20 Zr5 2.124125 1_555
O21 Si4 1.646258 1_555
O21 Zr4 2.128729 1_555
O22 Si4 1.639348 1_555
O22 Zr2 2.027440 1_555
O23 P0 1.559338 1_555
O23 Zr5 2.223853 1_555
O24 Si5 1.647240 1_555
O24 Zr2 2.139231 1_555
O25 P1 1.551229 1_555
O25 Zr5 2.106200 1_555
O26 P1 1.557830 1_555
O26 Zr3 2.198598 1_555
O27 Si6 1.649801 1_555
O27 Zr2 2.086341 1_555
O28 Si6 1.639731 1_555
O28 Zr6 2.089086 1_455
O29 P1 1.551447 1_555
O29 Zr4 2.270783 1_555
O30 Si7 1.634382 1_555
O30 Zr3 2.039514 1_555
O31 P2 1.551458 1_555
O31 Zr4 2.269778 1_555
O32 Si7 1.650954 1_555
O32 Zr2 2.074071 1_555
O33 Si6 1.641914 1_555
O33 Zr7 2.158084 1_555
O34 Si5 1.650478 1_545
O34 Zr6 2.127810 1_555
O35 Si6 1.644080 1_555
O35 Zr1 2.013031 1_554
O36 P1 1.543082 1_555
O36 Zr0 2.189195 1_565
O37 Si7 1.641500 1_545
O37 Zr4 2.042256 1_655
O38 Si7 1.641883 1_555
O38 Zr7 2.123336 1_555
O39 P0 1.539912 1_655
O39 Zr0 2.185016 1_555
O40 P2 1.559736 1_555
O40 Zr7 2.204164 1_555
O41 P3 1.546665 1_555
O41 Zr7 2.118223 1_545
O42 P3 1.559772 1_555
O42 Zr6 2.197623 1_555
O43 Si1 1.637964 1_555
O43 Zr4 2.046680 1_655
O44 P3 1.553488 1_555
O44 Zr1 2.274195 1_544
O45 P3 1.544523 1_555
O45 Zr2 2.202224 1_555
O46 P2 1.542976 1_655
O46 Zr2 2.175171 1_555
O47 Si5 1.636996 1_555
O47 Zr1 2.047742 1_654
