# generated using pymatgen
data_HoRhO3
_symmetry_space_group_name_H-M   'P 1'
_cell_length_a   5.20253763
_cell_length_b   5.73954677
_cell_length_c   7.55043384
_cell_angle_alpha   90.00000000
_cell_angle_beta   90.00000000
_cell_angle_gamma   90.00000000
_symmetry_Int_Tables_number   1
_chemical_formula_structural   HoRhO3
_chemical_formula_sum   'Ho4 Rh4 O12'
_cell_volume   225.45752533
_cell_formula_units_Z   4
loop_
 _symmetry_equiv_pos_site_id
 _symmetry_equiv_pos_as_xyz
  1  'x, y, z'
loop_
 _atom_site_type_symbol
 _atom_site_label
 _atom_site_symmetry_multiplicity
 _atom_site_fract_x
 _atom_site_fract_y
 _atom_site_fract_z
 _atom_site_occupancy
  Ho  Ho0  1  0.03011575  0.41578605  0.25000000  1
  Ho  Ho1  1  0.96988425  0.58421395  0.75000000  1
  Ho  Ho2  1  0.53011575  0.08421395  0.75000000  1
  Ho  Ho3  1  0.46988425  0.91578605  0.25000000  1
  Rh  Rh0  1  0.00000000  -0.00000000  -0.00000000  1
  Rh  Rh1  1  0.50000000  0.50000000  -0.00000000  1
  Rh  Rh2  1  0.00000000  -0.00000000  0.50000000  1
  Rh  Rh3  1  0.50000000  0.50000000  0.50000000  1
  O  O0  1  0.32458985  0.18922736  0.06239742  1
  O  O1  1  0.67541015  0.81077264  0.93760258  1
  O  O2  1  0.82458985  0.31077264  0.93760258  1
  O  O3  1  0.67541015  0.81077264  0.56239742  1
  O  O4  1  0.17541015  0.68922736  0.06239742  1
  O  O5  1  0.32458985  0.18922736  0.43760258  1
  O  O6  1  0.17541015  0.68922736  0.43760258  1
  O  O7  1  0.82458985  0.31077264  0.56239742  1
  O  O8  1  0.63531712  0.55323652  0.25000000  1
  O  O9  1  0.36468288  0.44676348  0.75000000  1
  O  O10  1  0.13531712  0.94676348  0.75000000  1
  O  O11  1  0.86468288  0.05323652  0.25000000  1
loop_
_geom_bond_atom_site_label_1
_geom_bond_atom_site_label_2
_geom_bond_distance
_geom_bond_site_symmetry_2
Ho0 O8 2.200250 1_455
Ho0 O4 2.245197 1_555
Ho0 O6 2.245197 1_555
Ho0 O11 2.251838 1_455
Ho0 O5 2.458531 1_555
Ho0 O0 2.458531 1_555
Ho0 O2 2.658990 1_454
Ho0 O7 2.658990 1_455
Ho1 O9 2.200250 1_655
Ho1 O7 2.245197 1_555
Ho1 O2 2.245197 1_555
Ho1 O10 2.251838 1_655
Ho1 O3 2.458531 1_555
Ho1 O1 2.458531 1_555
Ho1 O4 2.658990 1_656
Ho1 O6 2.658990 1_655
Ho2 O10 2.200250 1_545
Ho2 O3 2.245197 1_545
Ho2 O1 2.245197 1_545
Ho2 O9 2.251838 1_555
Ho2 O7 2.458531 1_555
Ho2 O2 2.458531 1_555
Ho2 O0 2.658990 1_556
Ho2 O5 2.658990 1_555
Ho3 O11 2.200250 1_565
Ho3 O0 2.245197 1_565
Ho3 O5 2.245197 1_565
Ho3 O8 2.251838 1_555
Ho3 O6 2.458531 1_555
Ho3 O4 2.458531 1_555
Ho3 O3 2.658990 1_555
Ho3 O1 2.658990 1_554
O0 Rh1 2.058233 1_555
O0 Rh0 2.062330 1_555
O1 Rh1 2.058233 1_556
O1 Rh0 2.062330 1_666
O2 Rh0 2.058233 1_656
O2 Rh1 2.062330 1_556
O3 Rh3 2.058233 1_555
O3 Rh2 2.062330 1_665
O4 Rh0 2.058233 1_565
O4 Rh1 2.062330 1_555
O5 Rh3 2.058233 1_555
O5 Rh2 2.062330 1_555
O6 Rh2 2.058233 1_565
O6 Rh3 2.062330 1_555
O7 Rh2 2.058233 1_655
O7 Rh3 2.062330 1_555
O8 Rh1 2.037654 1_555
O8 Rh3 2.037654 1_555
O9 Rh1 2.037654 1_556
O9 Rh3 2.037654 1_555
O10 Rh2 2.037654 1_565
O10 Rh0 2.037654 1_566
O11 Rh2 2.037654 1_655
O11 Rh0 2.037654 1_655
