# generated using pymatgen
data_Ta11O2
_symmetry_space_group_name_H-M   'P 1'
_cell_length_a   7.49330200
_cell_length_b   7.52400774
_cell_length_c   9.30875648
_cell_angle_alpha   110.00326187
_cell_angle_beta   107.35545445
_cell_angle_gamma   101.79295285
_symmetry_Int_Tables_number   1
_chemical_formula_structural   Ta11O2
_chemical_formula_sum   'Ta22 O4'
_cell_volume   442.38848766
_cell_formula_units_Z   2
loop_
 _symmetry_equiv_pos_site_id
 _symmetry_equiv_pos_as_xyz
  1  'x, y, z'
loop_
 _atom_site_type_symbol
 _atom_site_label
 _atom_site_symmetry_multiplicity
 _atom_site_fract_x
 _atom_site_fract_y
 _atom_site_fract_z
 _atom_site_occupancy
  Ta  Ta0  1  0.62244900  0.97787400  0.64801200  1
  Ta  Ta1  1  0.02329100  0.21381700  0.42091700  1
  Ta  Ta2  1  0.33630500  0.19931900  0.60563700  1
  Ta  Ta3  1  0.33117500  0.20216100  0.10872300  1
  Ta  Ta4  1  0.43697300  0.45249700  0.27691000  1
  Ta  Ta5  1  0.44073400  0.45750800  0.76116400  1
  Ta  Ta6  1  0.59420500  0.95510100  0.10108500  1
  Ta  Ta7  1  0.50449600  0.70757300  0.44408900  1
  Ta  Ta8  1  0.84881900  0.74099700  0.60058700  1
  Ta  Ta9  1  0.68161700  0.20167600  0.27854900  1
  Ta  Ta10  1  0.73407300  0.43514500  0.91824100  1
  Ta  Ta11  1  0.84720100  0.65321600  0.11694500  1
  Ta  Ta12  1  0.18001700  0.69731100  0.26709500  1
  Ta  Ta13  1  0.03288600  0.25616100  0.94650500  1
  Ta  Ta14  1  0.26677300  0.96203400  0.94080300  1
  Ta  Ta15  1  0.07608600  0.44255100  0.61180600  1
  Ta  Ta16  1  0.49599100  0.68177300  0.95470000  1
  Ta  Ta17  1  0.17441500  0.70404000  0.77820400  1
  Ta  Ta18  1  0.75104800  0.44984000  0.45944700  1
  Ta  Ta19  1  0.92948000  0.96334600  0.78160200  1
  Ta  Ta20  1  0.92385400  0.94173800  0.27061900  1
  Ta  Ta21  1  0.23890900  0.95237300  0.42580600  1
  O  O0  1  0.92906700  0.95523000  0.02286200  1
  O  O1  1  0.75133900  0.42396000  0.69457800  1
  O  O2  1  0.93681200  0.45276700  0.03376500  1
  O  O3  1  0.44029400  0.95572900  0.53067300  1
loop_
_geom_bond_atom_site_label_1
_geom_bond_atom_site_label_2
_geom_bond_distance
_geom_bond_site_symmetry_2
Ta1 Ta15 1.867074 1_555
Ta1 Ta20 1.870418 1_445
Ta1 Ta9 2.473246 1_455
Ta1 Ta2 2.509339 1_555
Ta2 Ta5 1.805752 1_555
Ta3 Ta4 1.805274 1_555
Ta3 Ta9 2.631742 1_555
Ta4 Ta7 1.857721 1_555
Ta6 Ta9 1.833275 1_565
Ta7 Ta8 2.466619 1_555
Ta10 Ta5 2.323765 1_555
Ta13 Ta3 2.493714 1_556
Ta14 Ta3 1.789395 1_566
Ta14 Ta17 1.831345 1_555
Ta14 Ta6 2.484013 1_556
Ta14 Ta19 2.523859 1_455
Ta15 Ta17 1.858666 1_555
Ta15 Ta18 2.448192 1_455
Ta15 Ta5 2.629184 1_555
Ta16 Ta5 1.858487 1_555
Ta16 Ta6 1.869116 1_556
Ta17 Ta8 2.636059 1_455
Ta18 Ta9 1.876657 1_555
Ta18 Ta8 1.965339 1_555
Ta19 Ta8 1.747539 1_555
Ta20 Ta6 2.546904 1_555
O0 Ta19 2.268345 1_554
O0 Ta20 2.354399 1_555
O0 Ta13 2.635908 1_664
O0 Ta11 2.723822 1_555
O0 Ta6 2.813530 1_555
O0 Ta14 2.848988 1_654
O0 Ta3 2.903205 1_665
O1 Ta10 2.098554 1_555
O1 Ta18 2.262206 1_555
O1 Ta5 2.618918 1_555
O1 Ta15 2.754635 1_655
O1 Ta8 2.843605 1_555
O2 Ta10 1.525584 1_554
O2 Ta11 1.802842 1_555
O2 Ta13 1.824393 1_654
O2 Ta12 2.226656 1_655
O3 Ta0 1.406047 1_555
O3 Ta21 1.522984 1_555
O3 Ta7 1.983974 1_555
O3 Ta2 2.118104 1_565
