# generated using pymatgen
data_ErTiFe11C
_symmetry_space_group_name_H-M   'P 1'
_cell_length_a   4.84830000
_cell_length_b   6.49698273
_cell_length_c   6.49698273
_cell_angle_alpha   97.75769023
_cell_angle_beta   111.90812504
_cell_angle_gamma   68.09187496
_symmetry_Int_Tables_number   1
_chemical_formula_structural   ErTiFe11C
_chemical_formula_sum   'Er1 Ti1 Fe11 C1'
_cell_volume   176.15736525
_cell_formula_units_Z   1
loop_
 _symmetry_equiv_pos_site_id
 _symmetry_equiv_pos_as_xyz
  1  'x, y, z'
loop_
 _atom_site_type_symbol
 _atom_site_label
 _atom_site_symmetry_multiplicity
 _atom_site_fract_x
 _atom_site_fract_y
 _atom_site_fract_z
 _atom_site_occupancy
  Er  Er0  1  0.00670400  0.99329600  0.00670400  1
  Ti  Ti0  1  0.63489700  0.36510300  0.63489700  1
  Fe  Fe0  1  0.72372900  0.77627100  0.22372900  1
  Fe  Fe1  1  0.27808100  0.22191900  0.77808100  1
  Fe  Fe2  1  0.49798100  0.78150300  0.77746500  1
  Fe  Fe3  1  0.49798100  0.22253500  0.21849700  1
  Fe  Fe4  1  0.50013600  0.99761100  0.49917700  1
  Fe  Fe5  1  0.00143100  0.99761100  0.49917700  1
  Fe  Fe6  1  0.50013600  0.50082300  0.00238900  1
  Fe  Fe7  1  0.00143100  0.50082300  0.00238900  1
  Fe  Fe8  1  0.35629500  0.64370500  0.35629500  1
  Fe  Fe9  1  0.99981400  0.35829100  0.35792000  1
  Fe  Fe10  1  0.99981400  0.64208000  0.64170900  1
  C  C0  1  0.50157100  0.99842900  0.00157100  1
loop_
_geom_bond_atom_site_label_1
_geom_bond_atom_site_label_2
_geom_bond_distance
_geom_bond_site_symmetry_2
Er0 Fe9 3.060761 1_465
Er0 Fe10 3.060761 1_454
Er0 Ti0 3.161696 1_464
Er0 Fe7 3.205479 1_555
Er0 Fe5 3.205479 1_555
Er0 Fe6 3.205481 1_555
Er0 Fe4 3.205481 1_555
Er0 Fe4 3.291770 1_454
Er0 Fe6 3.291770 1_465
Er0 Fe5 3.291772 1_554
Er0 Fe7 3.291772 1_565
Fe0 Fe6 2.456693 1_555
Fe0 Fe4 2.456693 1_555
Fe0 Fe5 2.456695 1_655
Fe0 Fe7 2.456695 1_655
Fe0 Fe9 2.642365 1_555
Fe0 Fe10 2.642365 1_555
Fe1 Fe5 2.477571 1_545
Fe1 Fe7 2.477571 1_556
Fe1 Fe4 2.477574 1_545
Fe1 Fe6 2.477574 1_556
Fe1 Fe10 2.658857 1_455
Fe1 Fe9 2.658857 1_455
Fe1 Ti0 2.712748 1_455
Fe1 Ti0 2.712748 1_555
Fe2 Fe5 2.439428 1_555
Fe2 Fe4 2.439431 1_555
Fe2 Fe6 2.480890 1_556
Fe2 Fe7 2.480892 1_656
Fe2 Ti0 2.657010 1_555
Fe3 Fe7 2.439428 1_555
Fe3 Fe6 2.439431 1_555
Fe3 Fe4 2.480890 1_545
Fe3 Fe5 2.480892 1_645
Fe3 Ti0 2.657010 1_555
Fe3 Fe9 2.694287 1_555
Fe3 Fe9 2.694291 1_455
Fe4 Fe5 2.417871 1_555
Fe4 Fe5 2.430429 1_655
Fe4 Fe8 2.602351 1_555
Fe4 Fe9 2.625843 1_465
Fe4 Ti0 2.659098 1_565
Fe5 Fe8 2.602349 1_555
Fe5 Fe9 2.625839 1_465
Fe5 Ti0 2.659100 1_465
Fe6 Fe7 2.417871 1_555
Fe6 Fe7 2.430429 1_655
Fe6 Fe8 2.602351 1_555
Fe6 Fe9 2.605667 1_555
Fe6 Ti0 2.659098 1_554
Fe7 Fe8 2.602349 1_555
Fe7 Fe9 2.605672 1_455
Fe7 Ti0 2.659100 1_454
Fe8 Ti0 2.369118 1_555
Fe8 Fe9 2.972584 1_555
Fe8 Fe9 2.972588 1_455
Fe9 Ti0 2.943855 1_555
Fe9 Ti0 2.943859 1_655
Fe10 Fe9 2.425126 1_555
Fe10 Fe4 2.605667 1_555
Fe10 Fe5 2.605672 1_655
Fe10 Fe7 2.625839 1_656
Fe10 Fe6 2.625843 1_656
Fe10 Fe2 2.694287 1_555
Fe10 Fe2 2.694291 1_655
Fe10 Ti0 2.943855 1_555
Fe10 Ti0 2.943859 1_655
Fe10 Fe8 2.972584 1_555
Fe10 Fe8 2.972588 1_655
C0 Fe3 1.884672 1_565
C0 Fe2 1.884672 1_554
C0 Fe0 1.889141 1_555
C0 Fe1 1.900468 1_564
C0 Er0 2.424543 1_655
C0 Er0 2.424543 1_555
