# generated using pymatgen
data_CuPd
_symmetry_space_group_name_H-M   'P 1'
_cell_length_a   8.99912976
_cell_length_b   8.99912976
_cell_length_c   8.99912925
_cell_angle_alpha   35.04089627
_cell_angle_beta   35.04089627
_cell_angle_gamma   35.04089297
_symmetry_Int_Tables_number   1
_chemical_formula_structural   CuPd
_chemical_formula_sum   'Cu8 Pd8'
_cell_volume   214.53227156
_cell_formula_units_Z   8
loop_
 _symmetry_equiv_pos_site_id
 _symmetry_equiv_pos_as_xyz
  1  'x, y, z'
loop_
 _atom_site_type_symbol
 _atom_site_label
 _atom_site_symmetry_multiplicity
 _atom_site_fract_x
 _atom_site_fract_y
 _atom_site_fract_z
 _atom_site_occupancy
  Cu  Cu0_0  1  0.00000000  0.00000000  0.00000000  1
  Cu  Cu0_1  1  0.00000000  0.00000000  0.50000000  1
  Cu  Cu0_2  1  0.00000000  0.50000000  0.00000000  1
  Cu  Cu0_3  1  0.00000000  0.50000000  0.50000000  1
  Cu  Cu0_4  1  0.50000000  0.00000000  0.00000000  1
  Cu  Cu0_5  1  0.50000000  0.00000000  0.50000000  1
  Cu  Cu0_6  1  0.50000000  0.50000000  0.00000000  1
  Cu  Cu0_7  1  0.50000000  0.50000000  0.50000000  1
  Pd  Pd0_0  1  0.25000000  0.25000000  0.25000000  1
  Pd  Pd0_1  1  0.25000000  0.25000000  0.75000000  1
  Pd  Pd0_2  1  0.25000000  0.75000000  0.25000000  1
  Pd  Pd0_3  1  0.25000000  0.75000000  0.75000000  1
  Pd  Pd0_4  1  0.75000000  0.25000000  0.25000000  1
  Pd  Pd0_5  1  0.75000000  0.25000000  0.75000000  1
  Pd  Pd0_6  1  0.75000000  0.75000000  0.25000000  1
  Pd  Pd0_7  1  0.75000000  0.75000000  0.75000000  1
loop_
_geom_bond_atom_site_label_1
_geom_bond_atom_site_label_2
_geom_bond_distance
_geom_bond_site_symmetry_2
Cu0_0 Pd0_5 2.626099 1_454
Cu0_0 Pd0_4 2.626099 1_455
Cu0_0 Pd0_2 2.626099 1_545
Cu0_0 Pd0_3 2.626099 1_544
Cu0_0 Pd0_6 2.626100 1_445
Cu0_0 Pd0_1 2.626100 1_554
Cu0_0 Cu0_6 2.709153 1_545
Cu0_0 Cu0_6 2.709153 1_455
Cu0_0 Cu0_5 2.709153 1_455
Cu0_0 Cu0_3 2.709153 1_545
Cu0_0 Cu0_5 2.709153 1_554
Cu0_0 Cu0_3 2.709153 1_554
Cu0_1 Pd0_3 2.626099 1_545
Cu0_1 Pd0_2 2.626099 1_545
Cu0_1 Pd0_4 2.626099 1_455
Cu0_1 Pd0_5 2.626099 1_455
Cu0_1 Pd0_7 2.626100 1_445
Cu0_1 Pd0_0 2.626100 1_555
Cu0_1 Cu0_7 2.709153 1_455
Cu0_1 Cu0_7 2.709153 1_545
Cu0_1 Cu0_4 2.709153 1_555
Cu0_1 Cu0_2 2.709153 1_546
Cu0_1 Cu0_2 2.709153 1_555
Cu0_1 Cu0_4 2.709153 1_456
Cu0_2 Pd0_7 2.626099 1_454
Cu0_2 Pd0_1 2.626099 1_554
Cu0_2 Pd0_0 2.626099 1_555
Cu0_2 Pd0_6 2.626099 1_455
Cu0_2 Pd0_3 2.626100 1_554
Cu0_2 Pd0_4 2.626100 1_455
Cu0_2 Cu0_4 2.709153 1_465
Cu0_2 Cu0_4 2.709153 1_555
Cu0_2 Cu0_7 2.709153 1_455
Cu0_2 Cu0_7 2.709153 1_554
Cu0_3 Pd0_1 2.626099 1_555
Cu0_3 Pd0_6 2.626099 1_455
Cu0_3 Pd0_7 2.626099 1_455
Cu0_3 Pd0_0 2.626099 1_555
Cu0_3 Pd0_2 2.626100 1_555
Cu0_3 Pd0_5 2.626100 1_455
Cu0_3 Cu0_5 2.709153 1_465
Cu0_3 Cu0_5 2.709153 1_555
Cu0_3 Cu0_6 2.709153 1_555
Cu0_3 Cu0_6 2.709153 1_456
Cu0_4 Pd0_7 2.626099 1_544
Cu0_4 Pd0_1 2.626099 1_554
Cu0_4 Pd0_0 2.626099 1_555
Cu0_4 Pd0_6 2.626099 1_545
Cu0_4 Pd0_2 2.626100 1_545
Cu0_4 Pd0_5 2.626100 1_554
Cu0_4 Cu0_7 2.709153 1_554
Cu0_4 Cu0_7 2.709153 1_545
Cu0_5 Pd0_1 2.626099 1_555
Cu0_5 Pd0_6 2.626099 1_545
Cu0_5 Pd0_7 2.626099 1_545
Cu0_5 Pd0_0 2.626099 1_555
Cu0_5 Pd0_4 2.626100 1_555
Cu0_5 Pd0_3 2.626100 1_545
Cu0_5 Cu0_6 2.709153 1_555
Cu0_5 Cu0_6 2.709153 1_546
Cu0_6 Pd0_4 2.626099 1_555
Cu0_6 Pd0_2 2.626099 1_555
Cu0_6 Pd0_5 2.626099 1_554
Cu0_6 Pd0_3 2.626099 1_554
Cu0_6 Pd0_0 2.626100 1_555
Cu0_6 Pd0_7 2.626100 1_554
Cu0_7 Pd0_3 2.626099 1_555
Cu0_7 Pd0_2 2.626099 1_555
Cu0_7 Pd0_4 2.626099 1_555
Cu0_7 Pd0_5 2.626099 1_555
Cu0_7 Pd0_1 2.626100 1_555
Cu0_7 Pd0_6 2.626100 1_555
Pd0_0 Pd0_6 2.709153 1_455
Pd0_0 Pd0_6 2.709153 1_545
Pd0_0 Pd0_5 2.709153 1_455
Pd0_0 Pd0_3 2.709153 1_545
Pd0_0 Pd0_3 2.709153 1_554
Pd0_0 Pd0_5 2.709153 1_554
Pd0_1 Pd0_7 2.709153 1_545
Pd0_1 Pd0_7 2.709153 1_455
Pd0_1 Pd0_4 2.709153 1_555
Pd0_1 Pd0_2 2.709153 1_546
Pd0_1 Pd0_2 2.709153 1_555
Pd0_1 Pd0_4 2.709153 1_456
Pd0_2 Pd0_4 2.709153 1_555
Pd0_2 Pd0_4 2.709153 1_465
Pd0_2 Pd0_7 2.709153 1_455
Pd0_2 Pd0_7 2.709153 1_554
Pd0_3 Pd0_5 2.709153 1_555
Pd0_3 Pd0_5 2.709153 1_465
Pd0_3 Pd0_6 2.709153 1_555
Pd0_3 Pd0_6 2.709153 1_456
Pd0_4 Pd0_7 2.709153 1_545
Pd0_4 Pd0_7 2.709153 1_554
Pd0_5 Pd0_6 2.709153 1_555
Pd0_5 Pd0_6 2.709153 1_546
