# generated using pymatgen
data_Ba4MgTa10O30
_symmetry_space_group_name_H-M   'P 1'
_cell_length_a   10.03801645
_cell_length_b   10.03801645
_cell_length_c   10.03801645
_cell_angle_alpha   133.53011992
_cell_angle_beta   117.81853125
_cell_angle_gamma   81.05951011
_symmetry_Int_Tables_number   1
_chemical_formula_structural   Ba4MgTa10O30
_chemical_formula_sum   'Ba4 Mg1 Ta10 O30'
_cell_volume   626.45225080
_cell_formula_units_Z   1
loop_
 _symmetry_equiv_pos_site_id
 _symmetry_equiv_pos_as_xyz
  1  'x, y, z'
loop_
 _atom_site_type_symbol
 _atom_site_label
 _atom_site_symmetry_multiplicity
 _atom_site_fract_x
 _atom_site_fract_y
 _atom_site_fract_z
 _atom_site_occupancy
  Ba  Ba0  1  0.45088100  0.95088100  0.50000000  1
  Ba  Ba1  1  0.46073400  0.46073400  0.00000000  1
  Ba  Ba2  1  0.04975100  0.04975100  0.00000000  1
  Ba  Ba3  1  0.05212100  0.55212100  0.50000000  1
  Mg  Mg0  1  0.72806400  0.72806400  0.00000000  1
  Ta  Ta0  1  0.81061800  0.87726700  0.43871200  1
  Ta  Ta1  1  0.81061800  0.37190600  0.93335100  1
  Ta  Ta2  1  0.43855500  0.87726700  0.06664900  1
  Ta  Ta3  1  0.43855500  0.37190600  0.56128800  1
  Ta  Ta4  1  0.25484000  0.50543400  0.25059500  1
  Ta  Ta5  1  0.25484000  0.00424500  0.74940500  1
  Ta  Ta6  1  0.05893300  0.62676300  0.93189900  1
  Ta  Ta7  1  0.05893300  0.12703400  0.43217000  1
  Ta  Ta8  1  0.69486400  0.12703400  0.06810100  1
  Ta  Ta9  1  0.69486400  0.62676300  0.56783000  1
  O  O0  1  0.02912900  0.89920200  0.60854300  1
  O  O1  1  0.02912900  0.42058600  0.12992700  1
  O  O2  1  0.29065900  0.89920200  0.87007300  1
  O  O3  1  0.29065900  0.42058600  0.39145700  1
  O  O4  1  0.82112400  0.13153500  0.68959000  1
  O  O5  1  0.77083100  0.62288500  0.14794600  1
  O  O6  1  0.44194500  0.13153500  0.31041000  1
  O  O7  1  0.47493900  0.62288500  0.85205400  1
  O  O8  1  0.21951400  0.10034200  0.61927600  1
  O  O9  1  0.21951400  0.60023800  0.11917200  1
  O  O10  1  0.48106600  0.10034200  0.88082800  1
  O  O11  1  0.48106600  0.60023800  0.38072400  1
  O  O12  1  0.58541500  0.31367500  0.72825900  1
  O  O13  1  0.58541500  0.85715600  0.27174100  1
  O  O14  1  0.92578100  0.67141000  0.74562900  1
  O  O15  1  0.92578100  0.18015200  0.25437100  1
  O  O16  1  0.88848500  0.54210100  0.91981900  1
  O  O17  1  0.88848500  0.96866600  0.34638400  1
  O  O18  1  0.62228200  0.96866600  0.08018100  1
  O  O19  1  0.62228200  0.54210100  0.65361600  1
  O  O20  1  0.05745700  0.37875600  0.67870100  1
  O  O21  1  0.07555600  0.89848700  0.17706900  1
  O  O22  1  0.70005500  0.37875600  0.32129900  1
  O  O23  1  0.72141800  0.89848700  0.82293100  1
  O  O24  1  0.25793400  0.74589700  0.99184300  1
  O  O25  1  0.25793400  0.26609100  0.51203700  1
  O  O26  1  0.75405400  0.74589700  0.48796300  1
  O  O27  1  0.75405400  0.26609100  0.00815700  1
  O  O28  1  0.25821300  0.75821300  0.50000000  1
  O  O29  1  0.25035200  0.25035200  0.00000000  1
loop_
_geom_bond_atom_site_label_1
_geom_bond_atom_site_label_2
_geom_bond_distance
_geom_bond_site_symmetry_2
Ba0 O13 2.735419 1_555
Ba0 O12 2.735427 1_565
Ba0 O11 2.848899 1_555
Ba0 O9 2.848899 1_555
Ba0 O8 2.848899 1_565
Ba0 O10 2.848899 1_565
Ba0 O28 2.939952 1_555
Ba1 O13 2.872556 1_555
Ba1 O12 2.872558 1_554
Ba1 O7 2.911114 1_554
Ba1 O5 2.911114 1_555
Ba1 O11 2.932084 1_555
Ba1 O10 2.932084 1_554
Ba1 O8 2.932084 1_554
Ba1 O9 2.932084 1_555
Ba1 O29 3.210253 1_555
Ba1 O26 3.271185 1_555
Ba1 O24 3.271185 1_554
Ba1 O25 3.271185 1_554
Ba1 O27 3.271185 1_555
Ba2 O15 2.763544 1_455
Ba2 O14 2.763544 1_444
Ba2 O23 2.949138 1_444
Ba2 O21 2.949138 1_545
Ba2 O2 2.987556 1_544
Ba2 O3 2.987556 1_555
Ba2 O0 2.987556 1_544
Ba2 O1 2.987556 1_555
Ba2 O29 3.061003 1_555
Ba3 O15 2.738819 1_455
Ba3 O14 2.738819 1_455
Ba3 O3 2.852114 1_555
Ba3 O2 2.852114 1_555
Ba3 O0 2.852114 1_555
Ba3 O1 2.852114 1_555
Mg0 O5 2.219983 1_555
Mg0 O7 2.219983 1_554
Mg0 O16 2.220649 1_554
Mg0 O18 2.220649 1_555
Mg0 O19 2.220649 1_554
Mg0 O17 2.220649 1_555
O0 Ta0 1.977074 1_455
O0 Ta5 1.985755 1_565
O1 Ta1 1.977074 1_454
O1 Ta4 1.985754 1_555
O2 Ta2 1.977074 1_556
O2 Ta5 1.985755 1_565
O3 Ta3 1.977074 1_555
O3 Ta4 1.985746 1_555
O4 Ta1 1.961991 1_555
O4 Ta0 1.961999 1_545
O5 Ta1 2.039984 1_554
O5 Ta0 2.039984 1_555
O6 Ta3 1.961995 1_555
O6 Ta2 1.961995 1_545
O7 Ta3 2.039984 1_555
O7 Ta2 2.039984 1_556
O8 Ta7 1.982643 1_555
O8 Ta5 1.989851 1_555
O9 Ta6 1.982643 1_554
O9 Ta4 1.989860 1_555
O10 Ta8 1.982643 1_556
O10 Ta5 1.989851 1_555
O11 Ta9 1.982643 1_555
O11 Ta4 1.989853 1_555
O12 Ta3 2.024747 1_555
O12 Ta1 2.024757 1_555
O13 Ta0 2.024755 1_555
O13 Ta2 2.024755 1_555
O14 Ta9 2.029520 1_555
O14 Ta6 2.029520 1_655
O15 Ta8 2.029520 1_555
O15 Ta7 2.029520 1_655
O16 Ta6 1.944393 1_655
O16 Ta1 2.093299 1_555
O17 Ta7 1.944393 1_665
O17 Ta0 2.093299 1_555
O18 Ta8 1.944393 1_565
O18 Ta2 2.093299 1_555
O19 Ta9 1.944393 1_555
O19 Ta3 2.093299 1_555
O20 Ta7 1.979442 1_555
O20 Ta6 1.979442 1_555
O21 Ta7 2.008945 1_565
O21 Ta6 2.008945 1_554
O22 Ta9 1.979442 1_555
O22 Ta8 1.979442 1_555
O23 Ta8 2.008945 1_566
O23 Ta9 2.008945 1_555
O24 Ta2 1.923148 1_556
O24 Ta6 2.100454 1_555
O25 Ta3 1.923148 1_555
O25 Ta7 2.100454 1_555
O26 Ta0 1.923148 1_555
O26 Ta9 2.100454 1_555
O27 Ta1 1.923148 1_554
O27 Ta8 2.100454 1_555
O28 Ta5 1.975969 1_565
O28 Ta4 1.975973 1_555
O29 Ta4 1.985900 1_555
O29 Ta5 1.985904 1_554
