# generated using pymatgen
data_Er5Sb3
_symmetry_space_group_name_H-M   'P 1'
_cell_length_a   8.85649843
_cell_length_b   8.85651138
_cell_length_c   6.24077868
_cell_angle_alpha   90.00000000
_cell_angle_beta   90.00000000
_cell_angle_gamma   120.00012991
_symmetry_Int_Tables_number   1
_chemical_formula_structural   Er5Sb3
_chemical_formula_sum   'Er10 Sb6'
_cell_volume   423.92944201
_cell_formula_units_Z   2
loop_
 _symmetry_equiv_pos_site_id
 _symmetry_equiv_pos_as_xyz
  1  'x, y, z'
loop_
 _atom_site_type_symbol
 _atom_site_label
 _atom_site_symmetry_multiplicity
 _atom_site_fract_x
 _atom_site_fract_y
 _atom_site_fract_z
 _atom_site_occupancy
  Er  Er0  1  0.00000000  0.75279992  0.75000000  1
  Er  Er1  1  1.00000000  0.24720008  0.25000000  1
  Er  Er2  1  0.75279992  0.75279992  0.25000000  1
  Er  Er3  1  0.75279992  0.00000000  0.75000000  1
  Er  Er4  1  0.24720008  0.24720008  0.75000000  1
  Er  Er5  1  0.24720008  1.00000000  0.25000000  1
  Er  Er6  1  0.33333300  0.66666700  0.50000000  1
  Er  Er7  1  0.66666700  0.33333300  -0.00000000  1
  Er  Er8  1  0.66666700  0.33333300  0.50000000  1
  Er  Er9  1  0.33333300  0.66666700  -0.00000000  1
  Sb  Sb0  1  0.38842342  0.00000000  0.75000000  1
  Sb  Sb1  1  0.38842342  0.38842342  0.25000000  1
  Sb  Sb2  1  1.00000000  0.61157658  0.25000000  1
  Sb  Sb3  1  0.00000000  0.38842342  0.75000000  1
  Sb  Sb4  1  0.61157658  0.61157658  0.75000000  1
  Sb  Sb5  1  0.61157658  1.00000000  0.25000000  1
loop_
_geom_bond_atom_site_label_1
_geom_bond_atom_site_label_2
_geom_bond_distance
_geom_bond_site_symmetry_2
Er0 Sb0 3.015920 1_565
Er0 Sb4 3.015922 1_455
Er0 Sb3 3.227105 1_555
Er0 Sb2 3.361725 1_455
Er0 Sb2 3.361725 1_456
Er1 Sb5 3.015920 1_545
Er1 Sb1 3.015922 1_655
Er1 Sb2 3.227105 1_555
Er1 Sb3 3.361725 1_655
Er1 Sb3 3.361725 1_654
Er2 Sb2 3.015928 1_555
Er2 Sb5 3.015930 1_555
Er2 Sb1 3.227096 1_555
Er2 Sb4 3.361724 1_554
Er2 Sb4 3.361724 1_555
Er3 Sb3 3.015924 1_655
Er3 Sb4 3.015927 1_545
Er3 Sb0 3.227100 1_555
Er3 Sb5 3.361724 1_545
Er3 Sb5 3.361724 1_546
Er4 Sb3 3.015928 1_555
Er4 Sb0 3.015930 1_555
Er4 Sb4 3.227096 1_555
Er4 Sb1 3.361724 1_555
Er4 Sb1 3.361724 1_556
Er5 Sb2 3.015924 1_455
Er5 Sb1 3.015927 1_565
Er5 Sb5 3.227100 1_555
Er5 Sb0 3.361724 1_565
Er5 Sb0 3.361724 1_564
Er6 Sb2 3.153908 1_455
Er6 Sb3 3.153909 1_555
Er6 Sb5 3.153910 1_555
Er6 Sb0 3.153912 1_565
Er6 Sb4 3.153918 1_555
Er6 Sb1 3.153921 1_555
Er7 Sb3 3.153908 1_654
Er7 Sb2 3.153909 1_555
Er7 Sb0 3.153910 1_554
Er7 Sb5 3.153912 1_545
Er7 Sb1 3.153918 1_555
Er7 Sb4 3.153921 1_554
Er8 Sb3 3.153908 1_655
Er8 Sb2 3.153909 1_555
Er8 Sb0 3.153910 1_555
Er8 Sb5 3.153912 1_545
Er8 Sb1 3.153918 1_555
Er8 Sb4 3.153921 1_555
Er9 Sb2 3.153908 1_455
Er9 Sb3 3.153909 1_554
Er9 Sb5 3.153910 1_555
Er9 Sb0 3.153912 1_564
Er9 Sb4 3.153918 1_554
Er9 Sb1 3.153921 1_555
