# generated using pymatgen
data_La2Ti2CuO8
_symmetry_space_group_name_H-M   'P 1'
_cell_length_a   3.74921400
_cell_length_b   3.74921400
_cell_length_c   12.16303300
_cell_angle_alpha   90.00000000
_cell_angle_beta   90.00000000
_cell_angle_gamma   90.00000000
_symmetry_Int_Tables_number   1
_chemical_formula_structural   La2Ti2CuO8
_chemical_formula_sum   'La2 Ti2 Cu1 O8'
_cell_volume   170.97095800
_cell_formula_units_Z   1
loop_
 _symmetry_equiv_pos_site_id
 _symmetry_equiv_pos_as_xyz
  1  'x, y, z'
loop_
 _atom_site_type_symbol
 _atom_site_label
 _atom_site_symmetry_multiplicity
 _atom_site_fract_x
 _atom_site_fract_y
 _atom_site_fract_z
 _atom_site_occupancy
  La  La0  1  0.00000000  0.50000000  0.38070300  1
  La  La1  1  0.50000000  0.00000000  0.61929700  1
  Ti  Ti0  1  0.00000000  0.50000000  0.80234400  1
  Ti  Ti1  1  0.50000000  0.00000000  0.19765600  1
  Cu  Cu0  1  0.50000000  0.50000000  0.00000000  1
  O  O0  1  0.00000000  0.50000000  0.95112100  1
  O  O1  1  0.50000000  0.00000000  0.04887900  1
  O  O2  1  0.00000000  0.50000000  0.57674800  1
  O  O3  1  0.50000000  0.00000000  0.42325200  1
  O  O4  1  0.50000000  0.50000000  0.23775900  1
  O  O5  1  0.00000000  0.00000000  0.75833500  1
  O  O6  1  0.50000000  0.50000000  0.76224100  1
  O  O7  1  0.00000000  0.00000000  0.24166500  1
loop_
_geom_bond_atom_site_label_1
_geom_bond_atom_site_label_2
_geom_bond_distance
_geom_bond_site_symmetry_2
La0 O2 2.384502 1_555
La0 O7 2.524688 1_555
La0 O7 2.524688 1_565
La0 O4 2.556755 1_555
La0 O4 2.556755 1_455
La0 O3 2.701136 1_555
La0 O3 2.701136 1_465
La0 O3 2.701136 1_455
La0 O3 2.701136 1_565
La1 O3 2.384502 1_555
La1 O5 2.524688 1_555
La1 O5 2.524688 1_655
La1 O6 2.556755 1_545
La1 O6 2.556755 1_555
La1 O2 2.701136 1_545
La1 O2 2.701136 1_555
La1 O2 2.701136 1_645
La1 O2 2.701136 1_655
Cu0 O0 1.966622 1_554
Cu0 O0 1.966622 1_654
Cu0 O1 1.966622 1_555
Cu0 O1 1.966622 1_565
O0 Ti0 1.809580 1_555
O1 Ti1 1.809580 1_555
O2 Ti0 2.743932 1_555
O3 Ti1 2.743932 1_555
O4 Ti1 1.937027 1_565
O4 Ti1 1.937027 1_555
O5 Ti0 1.949533 1_545
O5 Ti0 1.949533 1_555
O6 Ti0 1.937027 1_555
O6 Ti0 1.937027 1_655
O7 Ti1 1.949533 1_555
O7 Ti1 1.949533 1_455
