# generated using pymatgen
data_Mg3Si4(SnO7)2
_symmetry_space_group_name_H-M   'P 1'
_cell_length_a   9.48730127
_cell_length_b   9.48730127
_cell_length_c   10.27788379
_cell_angle_alpha   59.76787574
_cell_angle_beta   59.76787574
_cell_angle_gamma   48.65616126
_symmetry_Int_Tables_number   1
_chemical_formula_structural   Mg3Si4(SnO7)2
_chemical_formula_sum   'Mg6 Si8 Sn4 O28'
_cell_volume   578.86466320
_cell_formula_units_Z   2
loop_
 _symmetry_equiv_pos_site_id
 _symmetry_equiv_pos_as_xyz
  1  'x, y, z'
loop_
 _atom_site_type_symbol
 _atom_site_label
 _atom_site_symmetry_multiplicity
 _atom_site_fract_x
 _atom_site_fract_y
 _atom_site_fract_z
 _atom_site_occupancy
  Mg  Mg0  1  0.06045100  0.28546300  0.10518100  1
  Mg  Mg1  1  0.71453700  0.93954900  0.39481900  1
  Mg  Mg2  1  0.28546300  0.06045100  0.60518100  1
  Mg  Mg3  1  0.37859300  0.62140700  0.75000000  1
  Mg  Mg4  1  0.93954900  0.71453700  0.89481900  1
  Mg  Mg5  1  0.62140700  0.37859300  0.25000000  1
  Si  Si0  1  0.54576000  0.06531800  0.71914300  1
  Si  Si1  1  0.06531800  0.54576000  0.21914300  1
  Si  Si2  1  0.48164400  0.27605400  0.11137200  1
  Si  Si3  1  0.27605400  0.48164400  0.61137200  1
  Si  Si4  1  0.93468200  0.45424000  0.78085700  1
  Si  Si5  1  0.51835600  0.72394600  0.88862800  1
  Si  Si6  1  0.72394600  0.51835600  0.38862800  1
  Si  Si7  1  0.45424000  0.93468200  0.28085700  1
  Sn  Sn0  1  0.77205100  0.22794900  0.75000000  1
  Sn  Sn1  1  0.22794900  0.77205100  0.25000000  1
  Sn  Sn2  1  0.00000000  0.00000000  0.00000000  1
  Sn  Sn3  1  0.00000000  0.00000000  0.50000000  1
  O  O0  1  0.82460600  0.32644000  0.32753000  1
  O  O1  1  0.93372000  0.91595700  0.41159800  1
  O  O2  1  0.53044900  0.58085000  0.06151000  1
  O  O3  1  0.91595700  0.93372000  0.91159800  1
  O  O4  1  0.23482400  0.99944900  0.29942200  1
  O  O5  1  0.09229900  0.48885400  0.61898600  1
  O  O6  1  0.58085100  0.53044900  0.56151000  1
  O  O7  1  0.00055100  0.76517600  0.20057800  1
  O  O8  1  0.90770100  0.51114600  0.38101400  1
  O  O9  1  0.61465200  0.71400700  0.25231000  1
  O  O10  1  0.06628000  0.08404300  0.58840200  1
  O  O11  1  0.76517600  0.00055100  0.70057800  1
  O  O12  1  0.51114600  0.90770100  0.88101400  1
  O  O13  1  0.32644000  0.82460600  0.82753000  1
  O  O14  1  0.71400700  0.61465200  0.75231000  1
  O  O15  1  0.99944900  0.23482400  0.79942200  1
  O  O16  1  0.93940100  0.48462700  0.92052200  1
  O  O17  1  0.38534800  0.28599300  0.74769000  1
  O  O18  1  0.51537300  0.06059900  0.57947800  1
  O  O19  1  0.28599300  0.38534800  0.24769000  1
  O  O20  1  0.48885400  0.09229900  0.11898600  1
  O  O21  1  0.08404300  0.06628000  0.08840200  1
  O  O22  1  0.48462700  0.93940100  0.42052200  1
  O  O23  1  0.46955100  0.41914900  0.93849000  1
  O  O24  1  0.06059900  0.51537300  0.07947800  1
  O  O25  1  0.41915000  0.46955100  0.43849000  1
  O  O26  1  0.67356000  0.17539400  0.17247000  1
  O  O27  1  0.17539400  0.67356000  0.67247000  1
loop_
_geom_bond_atom_site_label_1
_geom_bond_atom_site_label_2
_geom_bond_distance
_geom_bond_site_symmetry_2
Mg0 O21 2.027638 1_555
Mg0 O16 2.051336 1_454
Mg0 O24 2.061783 1_555
Mg0 O0 2.230782 1_455
Mg0 O4 2.454675 1_545
Mg1 O1 2.027638 1_555
Mg1 O18 2.051336 1_565
Mg1 O22 2.061783 1_555
Mg1 O26 2.230782 1_565
Mg1 O7 2.454675 1_655
Mg2 O10 2.027638 1_555
Mg2 O22 2.051336 1_545
Mg2 O18 2.061783 1_555
Mg2 O13 2.230782 1_545
Mg2 O15 2.454675 1_455
Mg3 O6 1.982969 1_555
Mg3 O23 1.982969 1_555
Mg3 O13 2.118001 1_555
Mg3 O27 2.118001 1_555
Mg4 O3 2.027638 1_555
Mg4 O24 2.051336 1_656
Mg4 O16 2.061783 1_555
Mg4 O27 2.230782 1_655
Mg4 O11 2.454675 1_565
Mg5 O25 1.982967 1_555
Mg5 O2 1.982967 1_555
Mg5 O0 2.118001 1_555
Mg5 O26 2.118001 1_555
O0 Si6 1.694628 1_555
O0 Sn3 2.477133 1_655
O1 Sn3 1.955496 1_665
O1 Sn1 2.234801 1_655
O2 Si5 1.607422 1_554
O2 Sn1 2.518357 1_555
O3 Sn2 1.955496 1_666
O3 Sn0 2.234801 1_565
O4 Si7 1.665981 1_555
O4 Sn3 2.140960 1_565
O4 Sn1 2.497884 1_555
O5 Si4 1.644736 1_455
O5 Si3 1.661473 1_555
O6 Si6 1.607420 1_555
O6 Sn0 2.518353 1_555
O7 Si1 1.665981 1_555
O7 Sn2 2.140960 1_565
O7 Sn1 2.497884 1_555
O8 Si1 1.644736 1_655
O8 Si6 1.661473 1_555
O9 Si7 1.656757 1_555
O9 Si6 1.668792 1_555
O10 Sn3 1.955496 1_555
O10 Sn0 2.234801 1_455
O11 Si0 1.665981 1_555
O11 Sn3 2.140960 1_655
O11 Sn0 2.497884 1_555
O12 Si0 1.644736 1_565
O12 Si5 1.661473 1_555
O13 Si5 1.694628 1_555
O13 Sn2 2.477133 1_566
O14 Si4 1.656757 1_555
O14 Si5 1.668792 1_555
O15 Si4 1.665981 1_555
O15 Sn2 2.140960 1_656
O15 Sn0 2.497884 1_555
O16 Si4 1.626088 1_555
O17 Si0 1.656757 1_555
O17 Si3 1.668792 1_555
O18 Si0 1.626088 1_555
O19 Si1 1.656757 1_555
O19 Si2 1.668792 1_555
O20 Si7 1.644736 1_545
O20 Si2 1.661473 1_555
O21 Sn2 1.955496 1_555
O21 Sn1 2.234801 1_545
O22 Si7 1.626088 1_555
O23 Si2 1.607420 1_556
O23 Sn0 2.518353 1_555
O24 Si1 1.626088 1_555
O25 Si3 1.607422 1_555
O25 Sn1 2.518357 1_555
O26 Si2 1.694628 1_555
O26 Sn2 2.477133 1_655
O27 Si3 1.694628 1_555
O27 Sn3 2.477133 1_565
