# generated using pymatgen
data_Ca2ZnAs2(H2O5)2
_symmetry_space_group_name_H-M   'P 1'
_cell_length_a   5.67803600
_cell_length_b   5.95480087
_cell_length_c   7.13025055
_cell_angle_alpha   108.60742344
_cell_angle_beta   97.22783579
_cell_angle_gamma   109.63870086
_symmetry_Int_Tables_number   1
_chemical_formula_structural   Ca2ZnAs2(H2O5)2
_chemical_formula_sum   'Ca2 Zn1 As2 H4 O10'
_cell_volume   207.72761755
_cell_formula_units_Z   1
loop_
 _symmetry_equiv_pos_site_id
 _symmetry_equiv_pos_as_xyz
  1  'x, y, z'
loop_
 _atom_site_type_symbol
 _atom_site_label
 _atom_site_symmetry_multiplicity
 _atom_site_fract_x
 _atom_site_fract_y
 _atom_site_fract_z
 _atom_site_occupancy
  Ca  Ca0  1  0.14759000  0.29416500  0.76298600  1
  Ca  Ca1  1  0.85241000  0.70583500  0.23701400  1
  Zn  Zn0  1  0.50000000  0.00000000  0.00000000  1
  As  As0  1  0.17454800  0.33826500  0.24751200  1
  As  As1  1  0.82545200  0.66173500  0.75248800  1
  H  H0  1  0.42479100  0.84231400  0.30547900  1
  H  H1  1  0.57520900  0.15768600  0.69452100  1
  H  H2  1  0.65749900  0.12633900  0.39574900  1
  H  H3  1  0.34250100  0.87366100  0.60425100  1
  O  O0  1  0.90431300  0.24582900  0.04956400  1
  O  O1  1  0.09568700  0.75417100  0.95043600  1
  O  O2  1  0.42139600  0.04457400  0.72780300  1
  O  O3  1  0.57860400  0.95542600  0.27219700  1
  O  O4  1  0.22148600  0.65397200  0.38600900  1
  O  O5  1  0.77851400  0.34602800  0.61399100  1
  O  O6  1  0.14111000  0.15773900  0.39283100  1
  O  O7  1  0.85889000  0.84226100  0.60716900  1
  O  O8  1  0.42774000  0.34799200  0.13210300  1
  O  O9  1  0.57226000  0.65200800  0.86789700  1
loop_
_geom_bond_atom_site_label_1
_geom_bond_atom_site_label_2
_geom_bond_distance
_geom_bond_site_symmetry_2
Ca0 O5 2.387438 1_455
Ca0 O7 2.414877 1_445
Ca0 O9 2.447385 1_555
Ca0 O2 2.470287 1_555
Ca0 O6 2.492867 1_555
Ca0 O0 2.642847 1_456
Ca0 O8 2.761415 1_556
Ca0 O1 2.771648 1_555
Ca1 O4 2.387438 1_655
Ca1 O6 2.414877 1_665
Ca1 O8 2.447385 1_555
Ca1 O3 2.470287 1_555
Ca1 O7 2.492867 1_555
Ca1 O1 2.642847 1_654
Ca1 O9 2.761415 1_554
Ca1 O0 2.771648 1_555
As0 O6 1.699540 1_555
As0 O4 1.729956 1_555
As0 O8 1.737651 1_555
As0 O0 1.743853 1_455
As1 O7 1.699540 1_555
As1 O5 1.729956 1_555
As1 O9 1.737651 1_555
As1 O1 1.743853 1_655
H0 O3 1.015624 1_555
H0 O4 1.621001 1_555
H1 O2 1.015624 1_555
H1 O5 1.621001 1_555
H2 O3 1.017174 1_545
H2 O5 1.559695 1_555
H3 O2 1.017174 1_565
H3 O4 1.559695 1_555
O0 Zn0 2.178265 1_555
O1 Zn0 2.178265 1_566
O2 Zn0 2.055942 1_556
O3 Zn0 2.055942 1_565
O8 Zn0 2.184674 1_555
O9 Zn0 2.184674 1_566
