# generated using pymatgen
data_BaYMnCoO5
_symmetry_space_group_name_H-M   'P 1'
_cell_length_a   3.93670630
_cell_length_b   8.70712170
_cell_length_c   7.83677402
_cell_angle_alpha   63.33143140
_cell_angle_beta   89.98146637
_cell_angle_gamma   90.07171454
_symmetry_Int_Tables_number   1
_chemical_formula_structural   BaYMnCoO5
_chemical_formula_sum   'Ba2 Y2 Mn2 Co2 O10'
_cell_volume   240.04694489
_cell_formula_units_Z   2
loop_
 _symmetry_equiv_pos_site_id
 _symmetry_equiv_pos_as_xyz
  1  'x, y, z'
loop_
 _atom_site_type_symbol
 _atom_site_label
 _atom_site_symmetry_multiplicity
 _atom_site_fract_x
 _atom_site_fract_y
 _atom_site_fract_z
 _atom_site_occupancy
  Ba  Ba0  1  0.00416800  0.98501200  0.00715300  1
  Ba  Ba1  1  0.99988900  0.99217900  0.49926600  1
  Y  Y0  1  0.00174500  0.50841700  0.24649200  1
  Y  Y1  1  0.99924900  0.50886400  0.74594600  1
  Mn  Mn0  1  0.49934400  0.26493600  0.11654400  1
  Mn  Mn1  1  0.50075900  0.26634000  0.61761700  1
  Co  Co0  1  0.50882300  0.73677500  0.38227500  1
  Co  Co1  1  0.49922400  0.74182300  0.87651800  1
  O  O0  1  0.49464900  0.00118100  0.24866200  1
  O  O1  1  0.50001300  0.00123600  0.75033500  1
  O  O2  1  0.99913100  0.67156600  0.91590300  1
  O  O3  1  0.99627400  0.68794600  0.40679300  1
  O  O4  1  0.49876000  0.68289200  0.16858200  1
  O  O5  1  0.49759100  0.68506800  0.65066800  1
  O  O6  1  0.99952600  0.30577000  0.09689300  1
  O  O7  1  0.00078200  0.31336400  0.59358300  1
  O  O8  1  0.50034700  0.32156200  0.33864100  1
  O  O9  1  0.49972700  0.32506600  0.83812800  1
loop_
_geom_bond_atom_site_label_1
_geom_bond_atom_site_label_2
_geom_bond_distance
_geom_bond_site_symmetry_2
Ba0 O0 2.751566 1_565
Ba0 O1 2.760879 1_564
Ba0 O1 2.785275 1_464
Ba0 O0 2.804056 1_465
Ba0 O3 3.037767 1_455
Ba0 O4 3.055913 1_555
Ba0 O4 3.078487 1_455
Ba0 O2 3.116437 1_454
Ba0 O6 3.171491 1_465
Ba0 O7 3.218814 1_564
Ba0 O9 3.284904 1_564
Ba0 O9 3.310710 1_464
Ba1 O0 2.741486 1_665
Ba1 O0 2.771991 1_565
Ba1 O1 2.808419 1_565
Ba1 O1 2.809856 1_665
Ba1 O3 3.043960 1_555
Ba1 O5 3.092537 1_655
Ba1 O5 3.099297 1_555
Ba1 O6 3.109662 1_565
Ba1 O7 3.197312 1_665
Ba1 O2 3.204977 1_555
Ba1 O8 3.230311 1_665
Ba1 O8 3.232983 1_565
Mn0 O6 1.993620 1_455
Mn0 O6 1.994058 1_555
Mn0 O9 2.002322 1_554
Mn0 O8 2.010690 1_555
Mn0 O0 2.052295 1_555
Mn1 O7 2.001601 1_655
Mn1 O7 2.002551 1_555
Mn1 O9 2.010222 1_555
Mn1 O8 2.016768 1_555
Mn1 O1 2.062733 1_555
Co0 O4 1.931700 1_555
Co0 O5 1.943840 1_555
Co0 O3 1.956784 1_555
Co0 O3 2.052629 1_455
Co0 O0 2.058190 1_565
Co1 O1 2.018602 1_565
Co1 O5 2.040112 1_555
Co1 O2 2.042656 1_455
Co1 O2 2.043619 1_555
Co1 O4 2.108987 1_556
O2 Y0 2.329480 1_656
O2 Y1 2.339810 1_555
O3 Y1 2.403248 1_555
O3 Y0 2.405197 1_655
O4 Y0 2.380784 1_555
O4 Y0 2.403577 1_655
O5 Y1 2.392349 1_455
O5 Y1 2.406604 1_555
O6 Y1 2.515045 1_554
O6 Y0 2.518884 1_655
O7 Y0 2.477162 1_555
O7 Y1 2.479501 1_455
O8 Y0 2.444493 1_555
O8 Y0 2.449695 1_655
O9 Y1 2.429696 1_555
O9 Y1 2.436360 1_455
