# generated using pymatgen
data_Cs2UH(OF2)2
_symmetry_space_group_name_H-M   'P 1'
_cell_length_a   8.05573122
_cell_length_b   9.39020164
_cell_length_c   12.35557900
_cell_angle_alpha   90.00000000
_cell_angle_beta   90.00000000
_cell_angle_gamma   107.99331513
_symmetry_Int_Tables_number   1
_chemical_formula_structural   Cs2UH(OF2)2
_chemical_formula_sum   'Cs8 U4 H4 O8 F16'
_cell_volume   888.92633735
_cell_formula_units_Z   4
loop_
 _symmetry_equiv_pos_site_id
 _symmetry_equiv_pos_as_xyz
  1  'x, y, z'
loop_
 _atom_site_type_symbol
 _atom_site_label
 _atom_site_symmetry_multiplicity
 _atom_site_fract_x
 _atom_site_fract_y
 _atom_site_fract_z
 _atom_site_occupancy
  Cs  Cs0  1  0.36974500  0.93449600  0.75393900  1
  Cs  Cs1  1  0.63025500  0.06550400  0.24606100  1
  Cs  Cs2  1  0.63025500  0.56550400  0.25393900  1
  Cs  Cs3  1  0.36974500  0.43449500  0.74606100  1
  Cs  Cs4  1  0.77129900  0.82310100  0.56803900  1
  Cs  Cs5  1  0.22870100  0.17689900  0.43196100  1
  Cs  Cs6  1  0.22870100  0.67689900  0.06803900  1
  Cs  Cs7  1  0.77129900  0.32310100  0.93196100  1
  U  U0  1  0.78012600  0.83845000  0.95038300  1
  U  U1  1  0.21987400  0.16155000  0.04961700  1
  U  U2  1  0.21987400  0.66155000  0.45038300  1
  U  U3  1  0.78012600  0.33845000  0.54961700  1
  H  H0  1  0.93070500  0.89226700  0.30892700  1
  H  H1  1  0.06929500  0.10773300  0.69107300  1
  H  H2  1  0.06929500  0.60773300  0.80892700  1
  H  H3  1  0.93070500  0.39226700  0.19107300  1
  O  O0  1  0.71847100  0.99475200  0.89127100  1
  O  O1  1  0.28152900  0.00524800  0.10872900  1
  O  O2  1  0.28152900  0.50524800  0.39127100  1
  O  O3  1  0.71847100  0.49475200  0.60872900  1
  O  O4  1  0.84420900  0.18187600  0.48946100  1
  O  O5  1  0.15579100  0.81812400  0.51053900  1
  O  O6  1  0.15579100  0.31812400  0.98946100  1
  O  O7  1  0.84420900  0.68187600  0.01053900  1
  F  F0  1  0.84645700  0.77314200  0.78982500  1
  F  F1  1  0.15354300  0.22685800  0.21017500  1
  F  F2  1  0.15354300  0.72685800  0.28982500  1
  F  F3  1  0.84645700  0.27314200  0.71017500  1
  F  F4  1  0.39529500  0.68837700  0.59731600  1
  F  F5  1  0.60470500  0.31162300  0.40268400  1
  F  F6  1  0.60470500  0.81162300  0.09731600  1
  F  F7  1  0.39529500  0.18837700  0.90268400  1
  F  F8  1  0.51647900  0.69529300  0.89081600  1
  F  F9  1  0.48352100  0.30470700  0.10918400  1
  F  F10  1  0.48352100  0.80470700  0.39081600  1
  F  F11  1  0.51647900  0.19529300  0.60918400  1
  F  F12  1  0.92006300  0.52725700  0.41780300  1
  F  F13  1  0.07993700  0.47274300  0.58219700  1
  F  F14  1  0.07993700  0.97274300  0.91780300  1
  F  F15  1  0.92006300  0.02725700  0.08219700  1
loop_
_geom_bond_atom_site_label_1
_geom_bond_atom_site_label_2
_geom_bond_distance
_geom_bond_site_symmetry_2
Cs0 F7 2.966523 1_565
Cs0 F11 2.967315 1_565
Cs0 F4 3.069582 1_555
Cs0 O0 3.179490 1_555
Cs0 F14 3.193208 1_555
Cs0 F8 3.308017 1_555
Cs0 H2 3.338618 1_555
Cs0 H1 3.397077 1_565
Cs0 O5 3.470634 1_555
Cs1 F6 2.966523 1_545
Cs1 F10 2.967315 1_545
Cs1 F5 3.069582 1_555
Cs1 O1 3.179490 1_555
Cs1 F15 3.193208 1_555
Cs1 F9 3.308017 1_555
Cs1 H3 3.338618 1_555
Cs1 H0 3.397077 1_545
Cs1 O4 3.470634 1_555
Cs2 F5 2.966523 1_555
Cs2 F9 2.967315 1_555
Cs2 F6 3.069582 1_555
Cs2 O2 3.179490 1_555
Cs2 F12 3.193208 1_555
Cs2 F10 3.308017 1_555
Cs2 H0 3.338618 1_555
Cs2 H3 3.397077 1_555
Cs2 O7 3.470634 1_555
Cs3 F4 2.966531 1_555
Cs3 F8 2.967321 1_555
Cs3 F7 3.069575 1_555
Cs3 O3 3.179489 1_555
Cs3 F13 3.193211 1_555
Cs3 F11 3.308009 1_555
Cs3 H1 3.338612 1_555
Cs3 H2 3.397084 1_555
Cs3 O6 3.470632 1_555
Cs4 F0 2.875994 1_555
Cs4 F4 2.922096 1_555
Cs4 O3 3.021543 1_555
Cs4 F10 3.154607 1_555
Cs4 O5 3.192180 1_655
Cs4 H1 3.354590 1_665
Cs4 O4 3.378615 1_565
Cs4 H0 3.435843 1_555
Cs5 F1 2.875994 1_555
Cs5 F5 2.922096 1_555
Cs5 O2 3.021543 1_555
Cs5 F11 3.154607 1_555
Cs5 O4 3.192180 1_455
Cs5 H0 3.354590 1_445
Cs5 O5 3.378615 1_545
Cs5 H1 3.435843 1_555
Cs6 F2 2.875994 1_555
Cs6 F6 2.922096 1_555
Cs6 O1 3.021543 1_565
Cs6 F8 3.154607 1_554
Cs6 O7 3.192180 1_455
Cs6 H3 3.354590 1_455
Cs6 O6 3.378615 1_554
Cs6 H2 3.435843 1_554
Cs7 F3 2.875994 1_555
Cs7 F7 2.922096 1_555
Cs7 O0 3.021543 1_545
Cs7 F9 3.154607 1_556
Cs7 O6 3.192180 1_655
Cs7 H2 3.354590 1_655
Cs7 O7 3.378615 1_556
Cs7 H3 3.435843 1_556
O0 U0 1.839742 1_555
O1 U1 1.839742 1_555
O2 U2 1.839742 1_555
O3 U3 1.839742 1_555
O4 U3 1.857290 1_555
O5 U2 1.857290 1_555
O6 U1 1.857290 1_556
O7 U0 1.857290 1_554
F0 U0 2.190769 1_555
F1 U1 2.190769 1_555
F2 U2 2.190769 1_555
F3 U3 2.190769 1_555
F4 U2 2.266348 1_555
F5 U3 2.266348 1_555
F6 U0 2.266348 1_554
F7 U1 2.266348 1_556
F8 U0 2.257360 1_555
F9 U1 2.257360 1_555
F10 U2 2.257360 1_555
F11 U3 2.257360 1_555
F12 U2 2.388261 1_655
F12 U3 2.414909 1_555
F13 U3 2.388261 1_455
F13 U2 2.414909 1_555
F14 U0 2.388261 1_455
F14 U1 2.414909 1_566
F15 U1 2.388261 1_655
F15 U0 2.414909 1_544
