# generated using pymatgen
data_LaAl2Ag3
_symmetry_space_group_name_H-M   'P 1'
_cell_length_a   5.61819727
_cell_length_b   5.61819727
_cell_length_c   4.50389773
_cell_angle_alpha   90.00000000
_cell_angle_beta   90.00000000
_cell_angle_gamma   121.88244110
_symmetry_Int_Tables_number   1
_chemical_formula_structural   LaAl2Ag3
_chemical_formula_sum   'La1 Al2 Ag3'
_cell_volume   120.71424216
_cell_formula_units_Z   1
loop_
 _symmetry_equiv_pos_site_id
 _symmetry_equiv_pos_as_xyz
  1  'x, y, z'
loop_
 _atom_site_type_symbol
 _atom_site_label
 _atom_site_symmetry_multiplicity
 _atom_site_fract_x
 _atom_site_fract_y
 _atom_site_fract_z
 _atom_site_occupancy
  La  La0  1  -0.00000000  0.00000000  -0.00000000  1
  Al  Al0  1  0.50000000  0.00000000  0.50000000  1
  Al  Al1  1  -0.00000000  0.50000000  0.50000000  1
  Ag  Ag0  1  0.67795640  0.32204360  0.00000000  1
  Ag  Ag1  1  0.32204360  0.67795640  -0.00000000  1
  Ag  Ag2  1  0.50000000  0.50000000  0.50000000  1
loop_
_geom_bond_atom_site_label_1
_geom_bond_atom_site_label_2
_geom_bond_distance
_geom_bond_site_symmetry_2
Al0 Al1 2.728796 1_655
Al0 Al1 2.728796 1_545
Al0 La0 3.600321 1_655
Al0 La0 3.600321 1_555
Al0 La0 3.600321 1_656
Al0 La0 3.600321 1_556
Al1 La0 3.600321 1_566
Al1 La0 3.600321 1_565
Al1 La0 3.600321 1_555
Al1 La0 3.600321 1_556
Ag0 Al1 2.726457 1_655
Ag0 Al0 2.726457 1_554
Ag0 Al1 2.726457 1_654
Ag0 Al0 2.726457 1_555
Ag0 Ag2 2.850679 1_555
Ag0 Ag2 2.850679 1_554
Ag0 La0 3.163105 1_655
Ag0 La0 3.240590 1_665
Ag0 La0 3.240590 1_555
Ag1 Al1 2.726457 1_555
Ag1 Al0 2.726457 1_564
Ag1 Al1 2.726457 1_554
Ag1 Al0 2.726457 1_565
Ag1 Ag2 2.850679 1_555
Ag1 Ag2 2.850679 1_554
Ag1 La0 3.163105 1_565
Ag1 La0 3.240590 1_665
Ag1 La0 3.240590 1_555
Ag2 Al0 2.809099 1_555
Ag2 Al0 2.809099 1_565
Ag2 Al1 2.809099 1_655
Ag2 Al1 2.809099 1_555
Ag2 La0 3.538022 1_555
Ag2 La0 3.538022 1_556
Ag2 La0 3.538022 1_666
Ag2 La0 3.538022 1_665
