# generated using pymatgen
data_MgSi2
_symmetry_space_group_name_H-M   'P 1'
_cell_length_a   3.75633500
_cell_length_b   7.14497800
_cell_length_c   9.71021514
_cell_angle_alpha   74.06551026
_cell_angle_beta   90.00000000
_cell_angle_gamma   90.00000000
_symmetry_Int_Tables_number   1
_chemical_formula_structural   MgSi2
_chemical_formula_sum   'Mg4 Si8'
_cell_volume   250.59810411
_cell_formula_units_Z   4
loop_
 _symmetry_equiv_pos_site_id
 _symmetry_equiv_pos_as_xyz
  1  'x, y, z'
loop_
 _atom_site_type_symbol
 _atom_site_label
 _atom_site_symmetry_multiplicity
 _atom_site_fract_x
 _atom_site_fract_y
 _atom_site_fract_z
 _atom_site_occupancy
  Mg  Mg0  1  0.00000000  0.58323700  0.12753800  1
  Mg  Mg1  1  0.00000000  0.41676300  0.87246200  1
  Mg  Mg2  1  0.50000000  0.74596600  0.64611000  1
  Mg  Mg3  1  0.50000000  0.25403400  0.35389000  1
  Si  Si0  1  0.00000000  0.79811700  0.85275500  1
  Si  Si1  1  0.50000000  0.01832000  0.12058300  1
  Si  Si2  1  0.00000000  0.67169700  0.44289700  1
  Si  Si3  1  0.50000000  0.29622500  0.71009000  1
  Si  Si4  1  0.00000000  0.20188300  0.14724500  1
  Si  Si5  1  0.50000000  0.98168000  0.87941700  1
  Si  Si6  1  0.00000000  0.32830300  0.55710300  1
  Si  Si7  1  0.50000000  0.70377500  0.28991000  1
loop_
_geom_bond_atom_site_label_1
_geom_bond_atom_site_label_2
_geom_bond_distance
_geom_bond_site_symmetry_2
Mg0 Si4 2.678558 1_555
Mg0 Si0 2.688342 1_554
Mg0 Si7 2.738743 1_555
Mg0 Si7 2.738743 1_455
Mg1 Si0 2.678558 1_555
Mg1 Si4 2.688342 1_556
Mg1 Si3 2.738743 1_455
Mg1 Si3 2.738743 1_555
Mg2 Si0 2.846613 1_655
Mg2 Si0 2.846613 1_555
Mg2 Si2 2.877104 1_555
Mg2 Si2 2.877104 1_655
Mg2 Si3 3.100917 1_555
Mg2 Si5 3.172335 1_555
Mg3 Si4 2.846613 1_555
Mg3 Si4 2.846613 1_655
Mg3 Si6 2.877104 1_655
Mg3 Si6 2.877104 1_555
Mg3 Si7 3.100917 1_555
Mg3 Si1 3.172335 1_555
Si0 Si5 2.345454 1_455
Si0 Si5 2.345454 1_555
Si1 Si4 2.345454 1_655
Si1 Si4 2.345454 1_555
Si1 Si7 2.392767 1_545
Si1 Si5 2.426737 1_544
Si2 Si7 2.366414 1_455
Si2 Si7 2.366414 1_555
Si2 Si6 2.399103 1_555
Si3 Si6 2.366414 1_655
Si3 Si6 2.366414 1_555
Si3 Si5 2.392767 1_545
