# generated using pymatgen
data_Pr2Be2GeO7
_symmetry_space_group_name_H-M   'P 1'
_cell_length_a   7.67364600
_cell_length_b   7.67364600
_cell_length_c   4.95652500
_cell_angle_alpha   90.00000000
_cell_angle_beta   90.00000000
_cell_angle_gamma   90.00000000
_symmetry_Int_Tables_number   1
_chemical_formula_structural   Pr2Be2GeO7
_chemical_formula_sum   'Pr4 Be4 Ge2 O14'
_cell_volume   291.86419612
_cell_formula_units_Z   2
loop_
 _symmetry_equiv_pos_site_id
 _symmetry_equiv_pos_as_xyz
  1  'x, y, z'
loop_
 _atom_site_type_symbol
 _atom_site_label
 _atom_site_symmetry_multiplicity
 _atom_site_fract_x
 _atom_site_fract_y
 _atom_site_fract_z
 _atom_site_occupancy
  Pr  Pr0  1  0.65985900  0.84014100  0.50402500  1
  Pr  Pr1  1  0.15985900  0.65985900  0.49597500  1
  Pr  Pr2  1  0.84014100  0.34014100  0.49597500  1
  Pr  Pr3  1  0.34014100  0.15985900  0.50402500  1
  Be  Be0  1  0.36722300  0.86722300  0.03953900  1
  Be  Be1  1  0.86722300  0.63277700  0.96046100  1
  Be  Be2  1  0.63277700  0.13277700  0.03953900  1
  Be  Be3  1  0.13277700  0.36722300  0.96046100  1
  Ge  Ge0  1  0.50000000  0.50000000  0.00000000  1
  Ge  Ge1  1  0.00000000  0.00000000  0.00000000  1
  O  O0  1  0.92251500  0.82624900  0.79735600  1
  O  O1  1  0.17375100  0.92251500  0.20264400  1
  O  O2  1  0.57748500  0.32624900  0.20264400  1
  O  O3  1  0.42251500  0.67375100  0.20264400  1
  O  O4  1  0.32624900  0.42251500  0.79735600  1
  O  O5  1  0.67375100  0.57748500  0.79735600  1
  O  O6  1  0.00000000  0.50000000  0.82972200  1
  O  O7  1  0.50000000  0.00000000  0.17027800  1
  O  O8  1  0.14140100  0.35859900  0.28053800  1
  O  O9  1  0.64140100  0.14140100  0.71946200  1
  O  O10  1  0.35859900  0.85859900  0.71946200  1
  O  O11  1  0.85859900  0.64140100  0.28053800  1
  O  O12  1  0.07748500  0.17375100  0.79735600  1
  O  O13  1  0.82624900  0.07748500  0.20264400  1
loop_
_geom_bond_atom_site_label_1
_geom_bond_atom_site_label_2
_geom_bond_distance
_geom_bond_site_symmetry_2
Be0 O7 1.579926 1_565
Be0 O10 1.589228 1_554
Be0 O1 1.742909 1_555
Be0 O3 1.742909 1_555
Be1 O6 1.579926 1_655
Be1 O11 1.589228 1_556
Be1 O5 1.742909 1_555
Be1 O0 1.742909 1_555
Be2 O7 1.579926 1_555
Be2 O9 1.589228 1_554
Be2 O2 1.742909 1_555
Be2 O13 1.742909 1_555
Be3 O6 1.579926 1_555
Be3 O8 1.589228 1_556
Be3 O12 1.742909 1_555
Be3 O4 1.742909 1_555
Ge0 O2 1.772027 1_555
Ge0 O3 1.772027 1_555
Ge0 O5 1.772027 1_554
Ge0 O4 1.772027 1_554
Ge1 O1 1.772027 1_545
Ge1 O13 1.772027 1_455
Ge1 O0 1.772027 1_444
Ge1 O12 1.772027 1_554
O0 Pr0 2.487479 1_555
O0 Pr1 2.679332 1_655
O1 Pr1 2.487479 1_555
O1 Pr3 2.679332 1_565
O2 Pr2 2.487479 1_555
O2 Pr3 2.679332 1_555
O3 Pr1 2.487479 1_555
O3 Pr0 2.679332 1_555
O4 Pr3 2.487479 1_555
O4 Pr1 2.679332 1_555
O5 Pr0 2.487479 1_555
O5 Pr2 2.679332 1_555
O6 Pr1 2.397093 1_555
O6 Pr2 2.397093 1_455
O7 Pr0 2.397093 1_545
O7 Pr3 2.397093 1_555
O8 Pr3 2.424595 1_555
O8 Pr1 2.550401 1_555
O8 Pr2 2.550401 1_455
O9 Pr2 2.424595 1_555
O9 Pr3 2.550401 1_555
O9 Pr0 2.550401 1_545
O10 Pr1 2.424595 1_555
O10 Pr0 2.550401 1_555
O10 Pr3 2.550401 1_565
O11 Pr0 2.424595 1_555
O11 Pr1 2.550401 1_655
O11 Pr2 2.550401 1_555
O12 Pr3 2.487479 1_555
O12 Pr2 2.679332 1_455
O13 Pr2 2.487479 1_555
O13 Pr0 2.679332 1_545
