# generated using pymatgen
data_TaCr3(CuS4)2
_symmetry_space_group_name_H-M   'P 1'
_cell_length_a   7.04755100
_cell_length_b   5.70635400
_cell_length_c   12.01727405
_cell_angle_alpha   89.38155382
_cell_angle_beta   90.00000000
_cell_angle_gamma   90.00000000
_symmetry_Int_Tables_number   1
_chemical_formula_structural   TaCr3(CuS4)2
_chemical_formula_sum   'Ta2 Cr6 Cu4 S16'
_cell_volume   483.25638708
_cell_formula_units_Z   2
loop_
 _symmetry_equiv_pos_site_id
 _symmetry_equiv_pos_as_xyz
  1  'x, y, z'
loop_
 _atom_site_type_symbol
 _atom_site_label
 _atom_site_symmetry_multiplicity
 _atom_site_fract_x
 _atom_site_fract_y
 _atom_site_fract_z
 _atom_site_occupancy
  Ta  Ta0  1  0.75000000  0.47917200  0.74884600  1
  Ta  Ta1  1  0.25000000  0.52082800  0.25115400  1
  Cr  Cr0  1  0.00000000  0.50000000  0.00000000  1
  Cr  Cr1  1  0.00000000  0.00000000  0.50000000  1
  Cr  Cr2  1  0.50000000  0.00000000  0.50000000  1
  Cr  Cr3  1  0.50000000  0.50000000  0.00000000  1
  Cr  Cr4  1  0.25000000  0.98144700  0.75626700  1
  Cr  Cr5  1  0.75000000  0.01855300  0.24373300  1
  Cu  Cu0  1  0.75000000  0.10761300  0.90674100  1
  Cu  Cu1  1  0.25000000  0.89238700  0.09325900  1
  Cu  Cu2  1  0.25000000  0.59000600  0.59269300  1
  Cu  Cu3  1  0.75000000  0.40999400  0.40730700  1
  S  S0  1  0.01200600  0.26071200  0.83082200  1
  S  S1  1  0.98799400  0.73928800  0.16917800  1
  S  S2  1  0.99327300  0.76540100  0.66881700  1
  S  S3  1  0.00672700  0.23459900  0.33118300  1
  S  S4  1  0.49327300  0.23459900  0.33118300  1
  S  S5  1  0.50672700  0.76540100  0.66881700  1
  S  S6  1  0.51200600  0.73928800  0.16917800  1
  S  S7  1  0.48799400  0.26071200  0.83082200  1
  S  S8  1  0.25000000  0.73613000  0.91827600  1
  S  S9  1  0.75000000  0.26387000  0.08172400  1
  S  S10  1  0.75000000  0.24221500  0.58297800  1
  S  S11  1  0.25000000  0.75778500  0.41702200  1
  S  S12  1  0.75000000  0.71713700  0.91790200  1
  S  S13  1  0.25000000  0.28286300  0.08209800  1
  S  S14  1  0.25000000  0.20149900  0.58736700  1
  S  S15  1  0.75000000  0.79850100  0.41263300  1
loop_
_geom_bond_atom_site_label_1
_geom_bond_atom_site_label_2
_geom_bond_distance
_geom_bond_site_symmetry_2
Cr0 S13 2.363577 1_555
Cr0 S12 2.363577 1_454
Cr0 S9 2.419876 1_455
Cr0 S8 2.419876 1_554
Cr0 S1 2.462702 1_455
Cr0 S0 2.462702 1_554
Cr1 S14 2.356846 1_555
Cr1 S15 2.356846 1_445
Cr1 S3 2.418978 1_555
Cr1 S2 2.418978 1_445
Cr1 S10 2.457382 1_455
Cr1 S11 2.457382 1_545
Cr2 S14 2.356846 1_555
Cr2 S15 2.356846 1_545
Cr2 S5 2.418978 1_545
Cr2 S4 2.418978 1_555
Cr2 S10 2.457382 1_555
Cr2 S11 2.457382 1_545
Cr3 S13 2.363577 1_555
Cr3 S12 2.363577 1_554
Cr3 S9 2.419876 1_555
Cr3 S8 2.419876 1_554
Cr3 S6 2.462702 1_555
Cr3 S7 2.462702 1_554
Cr4 S14 2.375185 1_565
Cr4 S8 2.385631 1_555
Cr4 S5 2.434300 1_555
Cr4 S2 2.434300 1_455
Cr4 S7 2.487229 1_565
Cr4 S0 2.487229 1_565
Cr5 S15 2.375185 1_545
Cr5 S9 2.385631 1_555
Cr5 S3 2.434300 1_655
Cr5 S4 2.434300 1_555
Cr5 S1 2.487229 1_545
Cr5 S6 2.487229 1_545
Cu0 S12 2.230782 1_545
Cu0 S0 2.233375 1_655
Cu0 S7 2.233375 1_555
Cu0 S9 2.292897 1_556
Cu1 S13 2.230782 1_565
Cu1 S6 2.233375 1_555
Cu1 S1 2.233375 1_455
Cu1 S8 2.292897 1_554
Cu2 S14 2.218573 1_555
Cu2 S5 2.265373 1_555
Cu2 S2 2.265373 1_455
Cu2 S11 2.308610 1_555
Cu3 S15 2.218573 1_555
Cu3 S3 2.265373 1_655
Cu3 S4 2.265373 1_555
Cu3 S10 2.308610 1_555
S0 Ta0 2.430549 1_455
S1 Ta1 2.430549 1_655
S2 Ta0 2.549157 1_555
S3 Ta1 2.549157 1_555
S4 Ta1 2.549157 1_555
S5 Ta0 2.549157 1_555
S6 Ta1 2.430549 1_555
S7 Ta0 2.430549 1_555
S10 Ta0 2.420680 1_555
S11 Ta1 2.420680 1_555
S12 Ta0 2.455778 1_555
S13 Ta1 2.455778 1_555
