# generated using pymatgen
data_Mn5Sb4
_symmetry_space_group_name_H-M   'P 1'
_cell_length_a   4.27569147
_cell_length_b   4.27733700
_cell_length_c   10.95754600
_cell_angle_alpha   90.00000000
_cell_angle_beta   90.00000000
_cell_angle_gamma   59.98726049
_symmetry_Int_Tables_number   1
_chemical_formula_structural   Mn5Sb4
_chemical_formula_sum   'Mn5 Sb4'
_cell_volume   173.52737490
_cell_formula_units_Z   1
loop_
 _symmetry_equiv_pos_site_id
 _symmetry_equiv_pos_as_xyz
  1  'x, y, z'
loop_
 _atom_site_type_symbol
 _atom_site_label
 _atom_site_symmetry_multiplicity
 _atom_site_fract_x
 _atom_site_fract_y
 _atom_site_fract_z
 _atom_site_occupancy
  Mn  Mn0  1  0.00000700  0.99999600  0.25008100  1
  Mn  Mn1  1  0.00002200  0.99998900  0.74860300  1
  Mn  Mn2  1  0.00000700  0.99999600  0.99991900  1
  Mn  Mn3  1  0.00002200  0.99998900  0.50139700  1
  Mn  Mn4  1  0.33346400  0.33326800  0.12500000  1
  Sb  Sb0  1  0.33291500  0.33354200  0.37720900  1
  Sb  Sb1  1  0.33291500  0.33354200  0.87279100  1
  Sb  Sb2  1  0.66669200  0.66665400  0.12500000  1
  Sb  Sb3  1  0.66735700  0.66632200  0.62500000  1
loop_
_geom_bond_atom_site_label_1
_geom_bond_atom_site_label_2
_geom_bond_distance
_geom_bond_site_symmetry_2
Mn0 Mn2 2.741162 1_554
Mn0 Mn3 2.753807 1_555
Mn0 Mn4 2.822855 1_465
Mn0 Sb2 2.823315 1_555
Mn0 Sb2 2.824055 1_455
Mn0 Sb2 2.824058 1_465
Mn0 Mn4 2.824285 1_555
Mn0 Mn4 2.824288 1_565
Mn0 Sb0 2.834355 1_555
Mn0 Sb0 2.834355 1_565
Mn0 Sb0 2.835584 1_465
Mn1 Mn3 2.708771 1_555
Mn1 Mn2 2.753807 1_555
Mn1 Sb3 2.815177 1_455
Mn1 Sb3 2.815180 1_465
Mn1 Sb3 2.817599 1_555
Mn1 Sb1 2.818636 1_565
Mn1 Sb1 2.818639 1_555
Mn1 Sb1 2.819946 1_465
Mn2 Mn4 2.822855 1_466
Mn2 Sb2 2.823315 1_556
Mn2 Sb2 2.824055 1_456
Mn2 Sb2 2.824058 1_466
Mn2 Mn4 2.824285 1_556
Mn2 Mn4 2.824288 1_566
Mn2 Sb1 2.834355 1_555
Mn2 Sb1 2.834355 1_565
Mn2 Sb1 2.835584 1_465
Mn3 Sb3 2.815177 1_455
Mn3 Sb3 2.815180 1_465
Mn3 Sb3 2.817599 1_555
Mn3 Sb0 2.818636 1_565
Mn3 Sb0 2.818639 1_555
Mn3 Sb0 2.819946 1_465
Mn4 Sb2 2.468645 1_455
Mn4 Sb2 2.469010 1_545
Mn4 Sb2 2.469010 1_555
Mn4 Sb0 2.763592 1_555
Mn4 Sb1 2.763592 1_554
