# generated using pymatgen
data_LaCuSi2Ni
_symmetry_space_group_name_H-M   'P 1'
_cell_length_a   5.69932649
_cell_length_b   5.69932649
_cell_length_c   5.69932649
_cell_angle_alpha   137.47114936
_cell_angle_beta   137.47114936
_cell_angle_gamma   61.71393094
_symmetry_Int_Tables_number   1
_chemical_formula_structural   LaCuSi2Ni
_chemical_formula_sum   'La1 Cu1 Si2 Ni1'
_cell_volume   83.61332170
_cell_formula_units_Z   1
loop_
 _symmetry_equiv_pos_site_id
 _symmetry_equiv_pos_as_xyz
  1  'x, y, z'
loop_
 _atom_site_type_symbol
 _atom_site_label
 _atom_site_symmetry_multiplicity
 _atom_site_fract_x
 _atom_site_fract_y
 _atom_site_fract_z
 _atom_site_occupancy
  La  La0  1  0.00000000  0.00000000  0.00000000  1
  Cu  Cu0  1  0.25000000  0.75000000  0.50000000  1
  Si  Si0  1  0.62626400  0.62626400  0.00000000  1
  Si  Si1  1  0.37373600  0.37373600  0.00000000  1
  Ni  Ni0  1  0.75000000  0.25000000  0.50000000  1
loop_
_geom_bond_atom_site_label_1
_geom_bond_atom_site_label_2
_geom_bond_distance
_geom_bond_site_symmetry_2
La0 Si0 3.173546 1_556
La0 Si0 3.173546 1_455
La0 Si0 3.173546 1_444
La0 Si0 3.173546 1_545
La0 Si1 3.173546 1_444
La0 Si1 3.173546 1_455
La0 Si1 3.173546 1_545
La0 Si1 3.173546 1_556
La0 Ni0 3.202625 1_444
La0 Ni0 3.202625 1_555
La0 Ni0 3.202625 1_455
La0 Ni0 3.202625 1_454
Cu0 Si1 2.395503 1_566
Cu0 Si1 2.395503 1_555
Cu0 Si0 2.395503 1_455
Cu0 Si0 2.395503 1_556
Cu0 Ni0 2.923165 1_465
Cu0 Ni0 2.923165 1_566
Cu0 Ni0 2.923165 1_555
Cu0 Ni0 2.923165 1_454
Cu0 La0 3.202625 1_565
Cu0 La0 3.202625 1_566
Cu0 La0 3.202625 1_666
Cu0 La0 3.202625 1_555
Si0 Si1 2.471031 1_555
Ni0 Si1 2.395503 1_656
Ni0 Si1 2.395503 1_555
Ni0 Si0 2.395503 1_545
Ni0 Si0 2.395503 1_556
