# generated using pymatgen
data_NaIn2
_symmetry_space_group_name_H-M   'P 1'
_cell_length_a   8.06006837
_cell_length_b   8.06006837
_cell_length_c   8.06006837
_cell_angle_alpha   60.00000000
_cell_angle_beta   60.00000000
_cell_angle_gamma   60.00000000
_symmetry_Int_Tables_number   1
_chemical_formula_structural   NaIn2
_chemical_formula_sum   'Na4 In8'
_cell_volume   370.25521066
_cell_formula_units_Z   4
loop_
 _symmetry_equiv_pos_site_id
 _symmetry_equiv_pos_as_xyz
  1  'x, y, z'
loop_
 _atom_site_type_symbol
 _atom_site_label
 _atom_site_symmetry_multiplicity
 _atom_site_fract_x
 _atom_site_fract_y
 _atom_site_fract_z
 _atom_site_occupancy
  Na  Na0  1  0.12500000  0.12500000  0.12500000  1
  Na  Na1  1  0.12500000  0.12500000  0.62500000  1
  Na  Na2  1  0.12500000  0.62500000  0.12500000  1
  Na  Na3  1  0.62500000  0.12500000  0.12500000  1
  In  In0  1  0.40263600  0.40263600  0.40263600  1
  In  In1  1  0.40263600  0.40263600  0.79209200  1
  In  In2  1  0.40263600  0.79209200  0.40263600  1
  In  In3  1  0.84736400  0.84736400  0.45790800  1
  In  In4  1  0.84736400  0.84736400  0.84736400  1
  In  In5  1  0.79209200  0.40263600  0.40263600  1
  In  In6  1  0.84736400  0.45790800  0.84736400  1
  In  In7  1  0.45790800  0.84736400  0.84736400  1
loop_
_geom_bond_atom_site_label_1
_geom_bond_atom_site_label_2
_geom_bond_distance
_geom_bond_site_symmetry_2
In0 In5 3.139042 1_555
In0 In2 3.139042 1_555
In0 In1 3.139042 1_555
In0 Na1 3.195881 1_555
In0 Na2 3.195881 1_555
In0 Na3 3.195881 1_555
In1 In5 3.139042 1_555
In1 In2 3.139042 1_555
In1 Na2 3.195881 1_556
In1 Na3 3.195881 1_556
In1 Na0 3.195881 1_556
In2 In5 3.139042 1_555
In2 Na1 3.195881 1_565
In2 Na0 3.195881 1_565
In2 Na3 3.195881 1_565
In3 In6 3.139042 1_555
In3 In4 3.139042 1_555
In3 In7 3.139042 1_555
In3 Na0 3.195881 1_665
In3 Na2 3.195881 1_655
In3 Na3 3.195881 1_565
In4 In6 3.139042 1_555
In4 In7 3.139042 1_555
In4 Na1 3.195881 1_665
In4 Na2 3.195881 1_656
In4 Na3 3.195881 1_566
In5 Na1 3.195881 1_655
In5 Na2 3.195881 1_655
In5 Na0 3.195881 1_655
In6 In7 3.139042 1_555
In6 Na3 3.195881 1_556
In6 Na1 3.195881 1_655
In6 Na0 3.195881 1_656
In7 Na0 3.195881 1_566
In7 Na1 3.195881 1_565
In7 Na2 3.195881 1_556
