# generated using pymatgen
data_Dy6Mg(GeS7)2
_symmetry_space_group_name_H-M   'P 1'
_cell_length_a   9.85762640
_cell_length_b   9.85762640
_cell_length_c   5.79370500
_cell_angle_alpha   90.00000000
_cell_angle_beta   90.00000000
_cell_angle_gamma   120.00000269
_symmetry_Int_Tables_number   1
_chemical_formula_structural   Dy6Mg(GeS7)2
_chemical_formula_sum   'Dy6 Mg1 Ge2 S14'
_cell_volume   487.56408538
_cell_formula_units_Z   1
loop_
 _symmetry_equiv_pos_site_id
 _symmetry_equiv_pos_as_xyz
  1  'x, y, z'
loop_
 _atom_site_type_symbol
 _atom_site_label
 _atom_site_symmetry_multiplicity
 _atom_site_fract_x
 _atom_site_fract_y
 _atom_site_fract_z
 _atom_site_occupancy
  Dy  Dy0  1  0.22333500  0.86384800  0.74342800  1
  Dy  Dy1  1  0.13615200  0.35948700  0.74342800  1
  Dy  Dy2  1  0.64051300  0.77666500  0.74342800  1
  Dy  Dy3  1  0.77739500  0.13548100  0.24047500  1
  Dy  Dy4  1  0.86451900  0.64191400  0.24047500  1
  Dy  Dy5  1  0.35808600  0.22260500  0.24047500  1
  Mg  Mg0  1  0.00000000  0.00000000  0.52544500  1
  Ge  Ge0  1  0.33333300  0.66666700  0.16394300  1
  Ge  Ge1  1  0.66666700  0.33333300  0.66126900  1
  S  S0  1  0.42115900  0.51850500  0.00239200  1
  S  S1  1  0.48149500  0.90265400  0.00239200  1
  S  S2  1  0.09734600  0.57884100  0.00239200  1
  S  S3  1  0.57855500  0.48112300  0.49997900  1
  S  S4  1  0.51887700  0.09743100  0.49997900  1
  S  S5  1  0.90256900  0.42144500  0.49997900  1
  S  S6  1  0.90260100  0.74818300  0.77754600  1
  S  S7  1  0.25181700  0.15441900  0.77754600  1
  S  S8  1  0.84558100  0.09739900  0.77754600  1
  S  S9  1  0.09927200  0.25251900  0.29274000  1
  S  S10  1  0.74748100  0.84675300  0.29274000  1
  S  S11  1  0.15324700  0.90072800  0.29274000  1
  S  S12  1  0.33333300  0.66666700  0.54336900  1
  S  S13  1  0.66666700  0.33333300  0.04164500  1
loop_
_geom_bond_atom_site_label_1
_geom_bond_atom_site_label_2
_geom_bond_distance
_geom_bond_site_symmetry_2
Dy0 S7 2.741923 1_565
Dy0 S11 2.771067 1_555
Dy0 S6 2.780359 1_455
Dy0 S1 2.810722 1_556
Dy0 S2 2.863131 1_556
Dy0 S12 2.899132 1_555
Dy0 S4 3.011753 1_565
Dy0 S11 3.315015 1_556
Dy1 S8 2.741919 1_455
Dy1 S9 2.771067 1_555
Dy1 S7 2.780350 1_555
Dy1 S2 2.810722 1_556
Dy1 S0 2.863131 1_556
Dy1 S12 2.899139 1_555
Dy1 S5 3.011747 1_455
Dy1 S9 3.315015 1_556
Dy2 S6 2.741913 1_555
Dy2 S10 2.771067 1_555
Dy2 S8 2.780357 1_565
Dy2 S0 2.810722 1_556
Dy2 S1 2.863131 1_556
Dy2 S12 2.899140 1_555
Dy2 S3 3.011756 1_555
Dy2 S10 3.315015 1_556
Dy3 S10 2.727648 1_545
Dy3 S9 2.798150 1_655
Dy3 S4 2.817717 1_555
Dy3 S8 2.835235 1_554
Dy3 S5 2.872465 1_555
Dy3 S13 2.907083 1_555
Dy3 S1 2.997306 1_545
Dy3 S8 3.244578 1_555
Dy4 S11 2.727648 1_655
Dy4 S10 2.798150 1_555
Dy4 S5 2.817725 1_555
Dy4 S6 2.835238 1_554
Dy4 S3 2.872466 1_555
Dy4 S13 2.907090 1_555
Dy4 S2 2.997306 1_655
Dy4 S6 3.244580 1_555
Dy5 S9 2.727648 1_555
Dy5 S11 2.798150 1_545
Dy5 S3 2.817720 1_555
Dy5 S7 2.835238 1_554
Dy5 S4 2.872473 1_555
Dy5 S13 2.907091 1_555
Dy5 S0 2.997306 1_555
Dy5 S7 3.244580 1_555
Mg0 S10 2.556504 1_445
Mg0 S9 2.556504 1_555
Mg0 S11 2.556504 1_545
Mg0 S6 2.614145 1_445
Mg0 S7 2.614147 1_555
Mg0 S8 2.614153 1_455
Ge0 S12 2.198282 1_555
Ge0 S2 2.241238 1_555
Ge0 S1 2.241239 1_555
Ge0 S0 2.241246 1_555
Ge1 S13 2.203786 1_556
Ge1 S4 2.239526 1_555
Ge1 S5 2.239526 1_555
Ge1 S3 2.239527 1_555
