# generated using pymatgen
data_V9GaSiGe
_symmetry_space_group_name_H-M   'P 1'
_cell_length_a   4.76455300
_cell_length_b   4.76905000
_cell_length_c   14.19323400
_cell_angle_alpha   90.00000000
_cell_angle_beta   90.00000000
_cell_angle_gamma   90.00000000
_symmetry_Int_Tables_number   1
_chemical_formula_structural   V9GaSiGe
_chemical_formula_sum   'V18 Ga2 Si2 Ge2'
_cell_volume   322.50421938
_cell_formula_units_Z   2
loop_
 _symmetry_equiv_pos_site_id
 _symmetry_equiv_pos_as_xyz
  1  'x, y, z'
loop_
 _atom_site_type_symbol
 _atom_site_label
 _atom_site_symmetry_multiplicity
 _atom_site_fract_x
 _atom_site_fract_y
 _atom_site_fract_z
 _atom_site_occupancy
  V  V0  1  0.50000000  0.00000000  0.75053600  1
  V  V1  1  0.50000000  0.00000000  0.41627300  1
  V  V2  1  0.50000000  0.00000000  0.08248000  1
  V  V3  1  0.24317600  0.50000000  0.00349300  1
  V  V4  1  0.24594700  0.50000000  0.66664900  1
  V  V5  1  0.24955900  0.50000000  0.32974800  1
  V  V6  1  0.00000000  0.75192700  0.83637100  1
  V  V7  1  0.00000000  0.74959600  0.49976400  1
  V  V8  1  0.00000000  0.74503900  0.16402400  1
  V  V9  1  0.50000000  0.00000000  0.91855000  1
  V  V10  1  0.50000000  0.00000000  0.58349500  1
  V  V11  1  0.50000000  0.00000000  0.24866100  1
  V  V12  1  0.75682400  0.50000000  0.00349300  1
  V  V13  1  0.75405300  0.50000000  0.66664900  1
  V  V14  1  0.75044100  0.50000000  0.32974800  1
  V  V15  1  0.00000000  0.24807300  0.83637100  1
  V  V16  1  0.00000000  0.25040400  0.49976400  1
  V  V17  1  0.00000000  0.25496100  0.16402400  1
  Ga  Ga0  1  0.50000000  0.50000000  0.83447500  1
  Ga  Ga1  1  0.50000000  0.50000000  0.49902200  1
  Si  Si0  1  0.50000000  0.50000000  0.16647200  1
  Si  Si1  1  0.00000000  0.00000000  0.00067200  1
  Ge  Ge0  1  0.00000000  0.00000000  0.66724100  1
  Ge  Ge1  1  0.00000000  0.00000000  0.33202300  1
loop_
_geom_bond_atom_site_label_1
_geom_bond_atom_site_label_2
_geom_bond_distance
_geom_bond_site_symmetry_2
V0 V10 2.370852 1_555
V0 V9 2.384662 1_555
V1 V10 2.373421 1_555
V1 V11 2.378956 1_555
V2 V9 2.326697 1_554
V11 V2 2.358646 1_555
V12 V3 2.317250 1_655
V12 V3 2.447303 1_555
V13 V4 2.343655 1_655
V13 V4 2.420898 1_555
V14 V5 2.378074 1_655
V14 V5 2.386479 1_555
V15 V6 2.366145 1_545
V15 V6 2.402905 1_555
V16 V7 2.380672 1_555
V16 V7 2.388378 1_545
V17 V8 2.337206 1_555
V17 V8 2.431844 1_545
Ga0 V0 2.665579 1_565
Ga0 V0 2.665579 1_555
Ga0 V9 2.666442 1_555
Ga0 V9 2.666442 1_565
Ga0 V6 2.668230 1_655
Ga0 V6 2.668230 1_555
Ga0 V15 2.668230 1_555
Ga0 V15 2.668230 1_655
Ga0 V13 2.671906 1_555
Ga0 V4 2.671906 1_555
Ga0 V12 2.692973 1_556
Ga0 V3 2.692973 1_556
Ga1 V1 2.658073 1_565
Ga1 V1 2.658073 1_555
Ga1 V7 2.663128 1_555
Ga1 V7 2.663128 1_655
Ga1 V16 2.663128 1_655
Ga1 V16 2.663128 1_555
Ga1 V10 2.668975 1_565
Ga1 V10 2.668975 1_555
Ga1 V4 2.669388 1_555
Ga1 V13 2.669388 1_555
Ga1 V14 2.682545 1_555
Ga1 V5 2.682545 1_555
Si0 V14 2.606574 1_555
Si0 V5 2.606574 1_555
Si0 V12 2.616909 1_555
Si0 V3 2.616909 1_555
Si0 V8 2.653692 1_655
Si0 V8 2.653692 1_555
Si0 V17 2.653692 1_555
Si0 V17 2.653692 1_655
Si0 V11 2.654571 1_555
Si0 V11 2.654571 1_565
Si0 V2 2.665915 1_555
Si0 V2 2.665915 1_565
Si1 V6 2.614902 1_544
Si1 V15 2.614902 1_554
Si1 V17 2.617991 1_555
Si1 V8 2.617991 1_545
Si1 V2 2.650178 1_555
Si1 V2 2.650178 1_455
Si1 V3 2.651410 1_545
Si1 V3 2.651410 1_555
Si1 V12 2.651410 1_445
Si1 V12 2.651410 1_455
Si1 V9 2.652133 1_454
Si1 V9 2.652133 1_554
Ge0 V13 2.656917 1_455
Ge0 V13 2.656917 1_445
Ge0 V4 2.656917 1_545
Ge0 V4 2.656917 1_555
Ge0 V0 2.659492 1_455
Ge0 V0 2.659492 1_555
Ge0 V16 2.660152 1_555
Ge0 V7 2.660152 1_545
Ge0 V10 2.662344 1_455
Ge0 V10 2.662344 1_555
Ge0 V6 2.676204 1_545
Ge0 V15 2.676204 1_555
Ge1 V11 2.659915 1_555
Ge1 V11 2.659915 1_455
Ge1 V16 2.663501 1_555
Ge1 V7 2.663501 1_545
Ge1 V5 2.664735 1_545
Ge1 V5 2.664735 1_555
Ge1 V14 2.664735 1_455
Ge1 V14 2.664735 1_445
Ge1 V1 2.665545 1_555
Ge1 V1 2.665545 1_455
Ge1 V17 2.676577 1_555
Ge1 V8 2.676577 1_545
