# generated using pymatgen
data_K2NaNb(OF2)2
_symmetry_space_group_name_H-M   'P 1'
_cell_length_a   6.08954300
_cell_length_b   6.08954300
_cell_length_c   8.65778200
_cell_angle_alpha   90.00000000
_cell_angle_beta   90.00000000
_cell_angle_gamma   90.00000000
_symmetry_Int_Tables_number   1
_chemical_formula_structural   K2NaNb(OF2)2
_chemical_formula_sum   'K4 Na2 Nb2 O4 F8'
_cell_volume   321.05249494
_cell_formula_units_Z   2
loop_
 _symmetry_equiv_pos_site_id
 _symmetry_equiv_pos_as_xyz
  1  'x, y, z'
loop_
 _atom_site_type_symbol
 _atom_site_label
 _atom_site_symmetry_multiplicity
 _atom_site_fract_x
 _atom_site_fract_y
 _atom_site_fract_z
 _atom_site_occupancy
  K  K0  1  0.00000000  0.50000000  0.75000000  1
  K  K1  1  0.50000000  0.00000000  0.75000000  1
  K  K2  1  0.50000000  0.00000000  0.25000000  1
  K  K3  1  0.00000000  0.50000000  0.25000000  1
  Na  Na0  1  0.50000000  0.50000000  0.00000000  1
  Na  Na1  1  0.00000000  0.00000000  0.50000000  1
  Nb  Nb0  1  0.00000000  0.00000000  0.00000000  1
  Nb  Nb1  1  0.50000000  0.50000000  0.50000000  1
  O  O0  1  0.22064900  0.77935100  0.00000000  1
  O  O1  1  0.27935100  0.27935100  0.50000000  1
  O  O2  1  0.72064900  0.72064900  0.50000000  1
  O  O3  1  0.77935100  0.22064900  0.00000000  1
  F  F0  1  0.73682300  0.26317700  0.50000000  1
  F  F1  1  0.00000000  0.00000000  0.23527600  1
  F  F2  1  0.00000000  0.00000000  0.76472400  1
  F  F3  1  0.23682300  0.23682300  0.00000000  1
  F  F4  1  0.50000000  0.50000000  0.73527600  1
  F  F5  1  0.50000000  0.50000000  0.26472400  1
  F  F6  1  0.76317700  0.76317700  0.00000000  1
  F  F7  1  0.26317700  0.73682300  0.50000000  1
loop_
_geom_bond_atom_site_label_1
_geom_bond_atom_site_label_2
_geom_bond_distance
_geom_bond_site_symmetry_2
K0 O3 3.063337 1_456
K0 O2 3.063337 1_455
K0 O1 3.063337 1_555
K0 O0 3.063337 1_556
K1 O2 3.063337 1_545
K1 O1 3.063337 1_555
K1 O0 3.063337 1_546
K1 O3 3.063337 1_556
K2 O0 3.063337 1_545
K2 O2 3.063337 1_545
K2 O1 3.063337 1_555
K2 O3 3.063337 1_555
K3 O2 3.063337 1_455
K3 O3 3.063337 1_455
K3 O1 3.063337 1_555
K3 O0 3.063337 1_555
Na0 O0 2.405747 1_555
Na0 O3 2.405747 1_555
Na1 O1 2.405747 1_555
Na1 O2 2.405747 1_445
Nb0 O0 1.900210 1_545
Nb0 O3 1.900210 1_455
Nb1 O1 1.900210 1_555
Nb1 O2 1.900210 1_555
F0 Nb1 2.039499 1_555
F0 Na1 2.266458 1_655
F0 K0 3.054999 1_655
F0 K1 3.054999 1_555
F0 K3 3.054999 1_655
F0 K2 3.054999 1_555
F1 Nb0 2.036968 1_555
F1 Na1 2.291923 1_555
F1 K3 3.047439 1_555
F1 K2 3.047439 1_455
F1 K3 3.047439 1_545
F1 K2 3.047439 1_555
F2 Nb0 2.036968 1_556
F2 Na1 2.291923 1_555
F2 K0 3.047439 1_545
F2 K1 3.047439 1_455
F2 K0 3.047439 1_555
F2 K1 3.047439 1_555
F3 Nb0 2.039499 1_555
F3 Na0 2.266458 1_555
F3 K0 3.054999 1_554
F3 K2 3.054999 1_555
F3 K1 3.054999 1_554
F3 K3 3.054999 1_555
F4 Nb1 2.036968 1_555
F4 Na0 2.291923 1_556
F4 K0 3.047439 1_655
F4 K1 3.047439 1_565
F4 K0 3.047439 1_555
F4 K1 3.047439 1_555
F5 Nb1 2.036968 1_555
F5 Na0 2.291923 1_555
F5 K3 3.047439 1_555
F5 K3 3.047439 1_655
F5 K2 3.047439 1_555
F5 K2 3.047439 1_565
F6 Nb0 2.039499 1_665
F6 Na0 2.266458 1_555
F6 K3 3.054999 1_655
F6 K0 3.054999 1_654
F6 K1 3.054999 1_564
F6 K2 3.054999 1_565
F7 Nb1 2.039499 1_555
F7 Na1 2.266458 1_565
F7 K0 3.054999 1_555
F7 K1 3.054999 1_565
F7 K2 3.054999 1_565
F7 K3 3.054999 1_555
