# generated using pymatgen
data_SnPb4S5
_symmetry_space_group_name_H-M   'P 1'
_cell_length_a   15.33525075
_cell_length_b   15.33525075
_cell_length_c   15.33525075
_cell_angle_alpha   164.22645329
_cell_angle_beta   164.22645329
_cell_angle_gamma   22.37876482
_symmetry_Int_Tables_number   1
_chemical_formula_structural   SnPb4S5
_chemical_formula_sum   'Sn1 Pb4 S5'
_cell_volume   266.44433965
_cell_formula_units_Z   1
loop_
 _symmetry_equiv_pos_site_id
 _symmetry_equiv_pos_as_xyz
  1  'x, y, z'
loop_
 _atom_site_type_symbol
 _atom_site_label
 _atom_site_symmetry_multiplicity
 _atom_site_fract_x
 _atom_site_fract_y
 _atom_site_fract_z
 _atom_site_occupancy
  Sn  Sn0  1  0.00000000  0.00000000  0.00000000  1
  Pb  Pb0  1  0.40047000  0.40047000  0.00000000  1
  Pb  Pb1  1  0.80019300  0.80019300  0.00000000  1
  Pb  Pb2  1  0.19980700  0.19980700  0.00000000  1
  Pb  Pb3  1  0.59953000  0.59953000  0.00000000  1
  S  S0  1  0.50000000  0.50000000  0.00000000  1
  S  S1  1  0.70008700  0.70008700  0.00000000  1
  S  S2  1  0.09868000  0.09868000  0.00000000  1
  S  S3  1  0.90132000  0.90132000  0.00000000  1
  S  S4  1  0.29991300  0.29991300  0.00000000  1
loop_
_geom_bond_atom_site_label_1
_geom_bond_atom_site_label_2
_geom_bond_distance
_geom_bond_site_symmetry_2
Pb0 S3 2.975955 1_455
Pb0 S3 2.975955 1_556
Pb0 S3 2.975955 1_444
Pb0 S3 2.975955 1_545
Pb0 S0 2.994608 1_555
Pb0 S4 3.025508 1_555
Pb1 S4 2.975857 1_554
Pb1 S4 2.975857 1_666
Pb1 S4 2.975857 1_565
Pb1 S4 2.975857 1_655
Pb1 S1 3.011938 1_555
Pb1 S3 3.042658 1_555
Pb2 S1 2.975857 1_444
Pb2 S1 2.975857 1_545
Pb2 S1 2.975857 1_556
Pb2 S1 2.975857 1_455
Pb2 S4 3.011938 1_555
Pb2 S2 3.042658 1_555
Pb3 S2 2.975955 1_666
Pb3 S2 2.975955 1_554
Pb3 S2 2.975955 1_565
Pb3 S2 2.975955 1_655
Pb3 S0 2.994608 1_555
Pb3 S1 3.025508 1_555
S0 Sn0 2.975845 1_554
S0 Sn0 2.975845 1_565
S0 Sn0 2.975845 1_666
S0 Sn0 2.975845 1_655
S2 Sn0 2.969034 1_555
S3 Sn0 2.969034 1_665
