# generated using pymatgen
data_Fe
_symmetry_space_group_name_H-M   'P 1'
_cell_length_a   4.84567665
_cell_length_b   4.84567687
_cell_length_c   7.41940650
_cell_angle_alpha   89.97396837
_cell_angle_beta   90.02561348
_cell_angle_gamma   90.87490312
_symmetry_Int_Tables_number   1
_chemical_formula_structural   Fe
_chemical_formula_sum   Fe16
_cell_volume   174.19164679
_cell_formula_units_Z   16
loop_
 _symmetry_equiv_pos_site_id
 _symmetry_equiv_pos_as_xyz
  1  'x, y, z'
loop_
 _atom_site_type_symbol
 _atom_site_label
 _atom_site_symmetry_multiplicity
 _atom_site_fract_x
 _atom_site_fract_y
 _atom_site_fract_z
 _atom_site_occupancy
  Fe  Fe0_0  1  0.25000000  0.25000000  0.25000000  1
  Fe  Fe0_1  1  0.25000000  0.25000000  0.75000000  1
  Fe  Fe0_2  1  0.25000000  0.75000000  0.25000000  1
  Fe  Fe0_3  1  0.25000000  0.75000000  0.75000000  1
  Fe  Fe0_4  1  0.75000000  0.25000000  0.25000000  1
  Fe  Fe0_5  1  0.75000000  0.25000000  0.75000000  1
  Fe  Fe0_6  1  0.75000000  0.75000000  0.25000000  1
  Fe  Fe0_7  1  0.75000000  0.75000000  0.75000000  1
  Fe  Fe1_0  1  0.00000000  0.00000000  0.00000000  1
  Fe  Fe1_1  1  1.00000000  0.00000000  0.50000000  1
  Fe  Fe1_2  1  0.00000000  0.50000000  0.00000000  1
  Fe  Fe1_3  1  0.00000000  0.50000000  0.50000000  1
  Fe  Fe1_4  1  0.50000000  0.00000000  0.00000000  1
  Fe  Fe1_5  1  0.50000000  0.00000000  0.50000000  1
  Fe  Fe1_6  1  0.50000000  0.50000000  0.00000000  1
  Fe  Fe1_7  1  0.50000000  0.50000000  0.50000000  1
loop_
_geom_bond_atom_site_label_1
_geom_bond_atom_site_label_2
_geom_bond_distance
_geom_bond_site_symmetry_2
Fe0_0 Fe0_4 2.422838 1_455
Fe0_0 Fe0_4 2.422838 1_555
Fe0_0 Fe0_2 2.422838 1_545
Fe0_0 Fe0_2 2.422838 1_555
Fe0_0 Fe1_6 2.516088 1_555
Fe0_0 Fe1_1 2.516088 1_455
Fe0_0 Fe1_0 2.516101 1_555
Fe0_0 Fe1_7 2.516101 1_555
Fe0_0 Fe1_2 2.533044 1_555
Fe0_0 Fe1_5 2.533044 1_555
Fe0_0 Fe1_3 2.534643 1_555
Fe0_0 Fe1_4 2.534643 1_555
Fe0_1 Fe0_5 2.422838 1_555
Fe0_1 Fe0_5 2.422838 1_455
Fe0_1 Fe0_3 2.422838 1_545
Fe0_1 Fe0_3 2.422838 1_555
Fe0_1 Fe1_0 2.516088 1_556
Fe0_1 Fe1_7 2.516088 1_555
Fe0_1 Fe1_1 2.516101 1_455
Fe0_1 Fe1_6 2.516101 1_556
Fe0_1 Fe1_4 2.533044 1_556
Fe0_1 Fe1_3 2.533044 1_555
Fe0_1 Fe1_5 2.534643 1_555
Fe0_1 Fe1_2 2.534643 1_556
Fe0_2 Fe0_6 2.422838 1_555
Fe0_2 Fe0_6 2.422838 1_455
Fe0_2 Fe1_3 2.516088 1_555
Fe0_2 Fe1_4 2.516088 1_565
Fe0_2 Fe1_5 2.516101 1_565
Fe0_2 Fe1_2 2.516101 1_555
Fe0_2 Fe1_7 2.533044 1_555
Fe0_2 Fe1_0 2.533044 1_565
Fe0_2 Fe1_6 2.534643 1_555
Fe0_2 Fe1_1 2.534643 1_465
Fe0_3 Fe0_7 2.422838 1_555
Fe0_3 Fe0_7 2.422838 1_455
Fe0_3 Fe1_2 2.516088 1_556
Fe0_3 Fe1_5 2.516088 1_565
Fe0_3 Fe1_4 2.516101 1_566
Fe0_3 Fe1_3 2.516101 1_555
Fe0_3 Fe1_6 2.533044 1_556
Fe0_3 Fe1_1 2.533044 1_465
Fe0_3 Fe1_0 2.534643 1_566
Fe0_3 Fe1_7 2.534643 1_555
Fe0_4 Fe0_6 2.422838 1_555
Fe0_4 Fe0_6 2.422838 1_545
Fe0_4 Fe1_2 2.516088 1_655
Fe0_4 Fe1_5 2.516088 1_555
Fe0_4 Fe1_4 2.516101 1_555
Fe0_4 Fe1_3 2.516101 1_655
Fe0_4 Fe1_6 2.533044 1_555
Fe0_4 Fe1_1 2.533044 1_555
Fe0_4 Fe1_0 2.534643 1_655
Fe0_4 Fe1_7 2.534643 1_555
Fe0_5 Fe0_7 2.422838 1_555
Fe0_5 Fe0_7 2.422838 1_545
Fe0_5 Fe1_4 2.516088 1_556
Fe0_5 Fe1_3 2.516088 1_655
Fe0_5 Fe1_5 2.516101 1_555
Fe0_5 Fe1_2 2.516101 1_656
Fe0_5 Fe1_0 2.533044 1_656
Fe0_5 Fe1_7 2.533044 1_555
Fe0_5 Fe1_6 2.534643 1_556
Fe0_5 Fe1_1 2.534643 1_555
Fe0_6 Fe1_7 2.516088 1_555
Fe0_6 Fe1_0 2.516088 1_665
Fe0_6 Fe1_6 2.516101 1_555
Fe0_6 Fe1_1 2.516101 1_565
Fe0_6 Fe1_3 2.533044 1_655
Fe0_6 Fe1_4 2.533044 1_565
Fe0_6 Fe1_2 2.534643 1_655
Fe0_6 Fe1_5 2.534643 1_565
Fe0_7 Fe1_1 2.516088 1_565
Fe0_7 Fe1_6 2.516088 1_556
Fe0_7 Fe1_7 2.516101 1_555
Fe0_7 Fe1_0 2.516101 1_666
Fe0_7 Fe1_5 2.533044 1_565
Fe0_7 Fe1_2 2.533044 1_656
Fe0_7 Fe1_3 2.534643 1_655
Fe0_7 Fe1_4 2.534643 1_566
Fe1_0 Fe1_4 2.422838 1_455
Fe1_0 Fe1_4 2.422838 1_555
Fe1_0 Fe1_2 2.422838 1_545
Fe1_0 Fe1_2 2.422838 1_555
Fe1_1 Fe1_5 2.422838 1_555
Fe1_1 Fe1_5 2.422838 1_655
Fe1_1 Fe1_3 2.422838 1_655
Fe1_1 Fe1_3 2.422838 1_645
Fe1_2 Fe1_6 2.422838 1_455
Fe1_2 Fe1_6 2.422838 1_555
Fe1_3 Fe1_7 2.422838 1_455
Fe1_3 Fe1_7 2.422838 1_555
Fe1_4 Fe1_6 2.422838 1_555
Fe1_4 Fe1_6 2.422838 1_545
Fe1_5 Fe1_7 2.422838 1_555
Fe1_5 Fe1_7 2.422838 1_545
