# generated using pymatgen
data_Ca(WO2)2
_symmetry_space_group_name_H-M   'P 1'
_cell_length_a   6.63856300
_cell_length_b   6.67497065
_cell_length_c   16.10556418
_cell_angle_alpha   90.48232738
_cell_angle_beta   90.92919951
_cell_angle_gamma   119.59925505
_symmetry_Int_Tables_number   1
_chemical_formula_structural   Ca(WO2)2
_chemical_formula_sum   'Ca6 W12 O24'
_cell_volume   620.34742115
_cell_formula_units_Z   6
loop_
 _symmetry_equiv_pos_site_id
 _symmetry_equiv_pos_as_xyz
  1  'x, y, z'
loop_
 _atom_site_type_symbol
 _atom_site_label
 _atom_site_symmetry_multiplicity
 _atom_site_fract_x
 _atom_site_fract_y
 _atom_site_fract_z
 _atom_site_occupancy
  Ca  Ca0  1  0.83956000  0.69040000  0.95878400  1
  Ca  Ca1  1  0.50587600  0.99945000  0.62484700  1
  Ca  Ca2  1  0.17925600  0.34253000  0.66507600  1
  Ca  Ca3  1  0.16164200  0.31231100  0.28138200  1
  Ca  Ca4  1  0.49118600  0.00869800  0.00239200  1
  Ca  Ca5  1  0.50090400  0.98106400  0.37594500  1
  W  W0  1  0.33789500  0.69069300  0.83134000  1
  W  W1  1  0.83452200  0.19090200  0.83651300  1
  W  W2  1  0.00444700  0.98977800  0.49935400  1
  W  W3  1  0.34588300  0.19631900  0.83656100  1
  W  W4  1  0.50240000  0.48781800  0.49969500  1
  W  W5  1  0.83316400  0.64788000  0.33408200  1
  W  W6  1  0.91349800  0.74263500  0.70805800  1
  W  W7  1  0.65306200  0.31712400  0.16853500  1
  W  W8  1  0.00405400  0.48714400  0.49742200  1
  W  W9  1  0.15846000  0.81707700  0.16591900  1
  W  W10  1  0.65733700  0.81211600  0.16877200  1
  W  W11  1  0.10291400  0.34028900  0.04226500  1
  O  O0  1  0.64031500  0.32079800  0.90578400  1
  O  O1  1  0.50230600  0.02515800  0.76662600  1
  O  O2  1  0.20177200  0.88675100  0.89902400  1
  O  O3  1  0.65634200  0.87354700  0.90512900  1
  O  O4  1  0.30986700  0.63003600  0.56491100  1
  O  O5  1  0.00416300  0.49044400  0.75182400  1
  O  O6  1  0.16457800  0.31813700  0.42949700  1
  O  O7  1  0.46120500  0.48318900  0.76582200  1
  O  O8  1  0.18504900  0.36974200  0.90376500  1
  O  O9  1  0.86844200  0.19003000  0.56373500  1
  O  O10  1  0.32608600  0.17667600  0.57040100  1
  O  O11  1  0.01931100  0.05186300  0.76632800  1
  O  O12  1  0.96967300  0.93124100  0.24905500  1
  O  O13  1  0.68799400  0.79372100  0.42292300  1
  O  O14  1  0.12667200  0.78786700  0.42587500  1
  O  O15  1  0.81914900  0.64496900  0.10170800  1
  O  O16  1  0.84530100  0.65041000  0.56936200  1
  O  O17  1  0.53853700  0.50890800  0.24777200  1
  O  O18  1  0.97688200  0.50622800  0.24485400  1
  O  O19  1  0.69657000  0.36085300  0.42483000  1
  O  O20  1  0.32468100  0.14021100  0.10027000  1
  O  O21  1  0.80556000  0.13194100  0.10126800  1
  O  O22  1  0.49443900  0.98631100  0.23585200  1
  O  O23  1  0.34905400  0.68674600  0.08644400  1
loop_
_geom_bond_atom_site_label_1
_geom_bond_atom_site_label_2
_geom_bond_distance
_geom_bond_site_symmetry_2
Ca0 O3 2.274473 1_555
Ca0 O0 2.295427 1_555
Ca0 O15 2.321683 1_556
Ca0 O2 2.325747 1_655
Ca1 O10 2.229627 1_565
Ca1 O1 2.289812 1_565
Ca1 O9 2.335267 1_565
Ca1 O4 2.335560 1_555
Ca2 O7 2.271008 1_555
Ca2 O5 2.332596 1_555
Ca2 O4 2.343265 1_555
Ca2 O10 2.363581 1_555
Ca2 O11 2.371784 1_555
Ca2 O9 2.396977 1_455
Ca3 O18 2.254710 1_455
Ca3 O17 2.255586 1_555
Ca3 O12 2.262555 1_445
Ca3 O6 2.385072 1_555
Ca4 O23 2.329893 1_545
Ca4 O2 2.335384 1_544
Ca4 O20 2.338624 1_555
Ca4 O3 2.340677 1_544
Ca4 O21 2.396316 1_555
Ca4 O0 2.410003 1_554
Ca5 O22 2.256885 1_555
Ca5 O13 2.280034 1_555
Ca5 O14 2.323595 1_555
Ca5 O19 2.326808 1_565
O0 W3 2.015734 1_555
O0 W1 2.189356 1_555
O1 W3 2.200120 1_555
O1 W1 2.200687 1_555
O1 W0 2.220530 1_545
O2 W3 2.076168 1_565
O2 W0 2.212176 1_555
O3 W1 2.171239 1_565
O3 W0 2.171711 1_555
O4 W8 2.052036 1_555
O4 W4 2.205313 1_555
O5 W6 2.167938 1_455
O5 W1 2.235567 1_455
O5 W0 2.299761 1_555
O6 W8 2.193090 1_555
O6 W4 2.231029 1_555
O6 W2 2.231241 1_545
O7 W3 2.041468 1_555
O7 W0 2.196701 1_555
O7 W6 2.803760 1_555
O8 W3 2.211080 1_555
O8 W0 2.216494 1_555
O8 W1 2.272768 1_455
O8 W11 2.291847 1_556
O9 W8 2.046313 1_655
O9 W2 2.208228 1_645
O10 W4 2.159118 1_555
O10 W2 2.165669 1_545
O11 W6 2.036741 1_445
O11 W3 2.178615 1_555
O11 W1 2.189964 1_455
O12 W5 2.159774 1_555
O12 W10 2.206898 1_555
O12 W9 2.219211 1_655
O13 W2 2.194164 1_655
O13 W4 2.196099 1_555
O13 W5 2.207208 1_555
O14 W8 2.115411 1_555
O14 W5 2.222613 1_455
O14 W2 2.227074 1_555
O15 W10 2.183254 1_555
O15 W9 2.193464 1_655
O15 W7 2.203990 1_555
O16 W8 2.189453 1_655
O16 W4 2.252728 1_555
O16 W2 2.288313 1_655
O16 W6 2.289633 1_555
O17 W5 2.171663 1_555
O17 W7 2.193358 1_555
O17 W10 2.199119 1_555
O18 W5 2.186823 1_555
O18 W7 2.221032 1_555
O18 W9 2.235577 1_655
O19 W8 2.109587 1_655
O19 W4 2.223952 1_555
O19 W5 2.236728 1_555
O20 W9 2.170913 1_545
O20 W7 2.170928 1_555
O20 W11 2.596622 1_555
O21 W11 2.026066 1_655
O21 W10 2.169404 1_545
O21 W7 2.230632 1_555
O22 W9 2.219807 1_555
O22 W7 2.222749 1_565
O22 W10 2.224295 1_555
O23 W11 2.173937 1_555
O23 W10 2.201877 1_555
O23 W9 2.262134 1_555
