# generated using pymatgen
data_BaSrYNbO6
_symmetry_space_group_name_H-M   'P 1'
_cell_length_a   5.97829880
_cell_length_b   5.98353370
_cell_length_c   8.45766655
_cell_angle_alpha   90.24221183
_cell_angle_beta   89.79415050
_cell_angle_gamma   89.77188443
_symmetry_Int_Tables_number   1
_chemical_formula_structural   BaSrYNbO6
_chemical_formula_sum   'Ba2 Sr2 Y2 Nb2 O12'
_cell_volume   302.53509777
_cell_formula_units_Z   2
loop_
 _symmetry_equiv_pos_site_id
 _symmetry_equiv_pos_as_xyz
  1  'x, y, z'
loop_
 _atom_site_type_symbol
 _atom_site_label
 _atom_site_symmetry_multiplicity
 _atom_site_fract_x
 _atom_site_fract_y
 _atom_site_fract_z
 _atom_site_occupancy
  Ba  Ba0  1  0.99525142  0.02076650  0.25009411  1
  Ba  Ba1  1  0.00474858  0.97923350  0.74990589  1
  Sr  Sr0  1  0.50377280  0.52590754  0.25071213  1
  Sr  Sr1  1  0.49622720  0.47409246  0.74928787  1
  Y  Y0  1  0.50000000  -0.00000000  0.00000000  1
  Y  Y1  1  -0.00000000  0.50000000  0.50000000  1
  Nb  Nb0  1  -0.00000000  0.50000000  0.00000000  1
  Nb  Nb1  1  0.50000000  -0.00000000  0.50000000  1
  O  O0  1  0.20853263  0.23657659  0.96767559  1
  O  O1  1  0.29953746  0.72850815  0.53382108  1
  O  O2  1  0.79146737  0.76342341  0.03232441  1
  O  O3  1  0.70046254  0.27149185  0.46617892  1
  O  O4  1  0.26850990  0.70228245  0.96519142  1
  O  O5  1  0.23822516  0.21023222  0.53070823  1
  O  O6  1  0.73149010  0.29771755  0.03480858  1
  O  O7  1  0.76177484  0.78976778  0.46929177  1
  O  O8  1  0.44534242  0.98204307  0.26421730  1
  O  O9  1  0.06968897  0.49354343  0.23534611  1
  O  O10  1  0.55465758  0.01795693  0.73578270  1
  O  O11  1  0.93031103  0.50645657  0.76465389  1
loop_
_geom_bond_atom_site_label_1
_geom_bond_atom_site_label_2
_geom_bond_distance
_geom_bond_site_symmetry_2
Ba0 O2 2.693447 1_545
Ba0 O8 2.702928 1_645
Ba0 O7 2.704453 1_545
Ba0 O9 2.868579 1_655
Ba0 O6 2.928014 1_555
Ba0 O3 2.937541 1_555
Ba0 O0 3.002661 1_654
Ba0 O5 3.007168 1_655
Ba0 O9 3.185993 1_645
Ba1 O0 2.693447 1_565
Ba1 O10 2.702928 1_465
Ba1 O5 2.704453 1_565
Ba1 O11 2.868579 1_455
Ba1 O4 2.928014 1_555
Ba1 O1 2.937541 1_555
Ba1 O2 3.002661 1_456
Ba1 O7 3.007168 1_455
Ba1 O11 3.185993 1_465
Nb0 O0 2.022772 1_554
Nb0 O2 2.022772 1_455
Nb0 O4 2.035561 1_554
Nb0 O6 2.035561 1_455
Nb0 O11 2.035572 1_454
Nb0 O9 2.035572 1_555
Nb1 O5 2.019310 1_555
Nb1 O7 2.019310 1_545
Nb1 O8 2.024398 1_545
Nb1 O10 2.024398 1_555
Nb1 O3 2.043025 1_555
Nb1 O1 2.043025 1_545
O0 Y0 2.258728 1_556
O0 Sr1 2.899712 1_555
O1 Y1 2.275491 1_555
O1 Sr1 2.654360 1_555
O1 Sr0 2.938775 1_555
O2 Y0 2.258728 1_565
O2 Sr0 2.899712 1_555
O3 Y1 2.275491 1_655
O3 Sr0 2.654360 1_555
O3 Sr1 2.938775 1_555
O4 Y0 2.278907 1_566
O4 Sr1 2.645422 1_555
O4 Sr0 2.992908 1_556
O5 Y1 2.255822 1_555
O5 Sr1 2.881753 1_555
O6 Y0 2.278907 1_555
O6 Sr0 2.645422 1_555
O6 Sr1 2.992908 1_554
O7 Y1 2.255822 1_655
O7 Sr0 2.881753 1_555
O8 Y0 2.260330 1_565
O8 Sr0 2.752025 1_555
O9 Y1 2.275464 1_555
O9 Sr0 2.606733 1_555
O10 Y0 2.260330 1_556
O10 Sr1 2.752025 1_555
O11 Y1 2.275464 1_655
O11 Sr1 2.606733 1_555
