# generated using pymatgen
data_KNb4InO12
_symmetry_space_group_name_H-M   'P 1'
_cell_length_a   5.53181451
_cell_length_b   5.53181451
_cell_length_c   7.97348419
_cell_angle_alpha   90.00000000
_cell_angle_beta   90.00000000
_cell_angle_gamma   90.68231591
_symmetry_Int_Tables_number   1
_chemical_formula_structural   KNb4InO12
_chemical_formula_sum   'K1 Nb4 In1 O12'
_cell_volume   243.97906330
_cell_formula_units_Z   1
loop_
 _symmetry_equiv_pos_site_id
 _symmetry_equiv_pos_as_xyz
  1  'x, y, z'
loop_
 _atom_site_type_symbol
 _atom_site_label
 _atom_site_symmetry_multiplicity
 _atom_site_fract_x
 _atom_site_fract_y
 _atom_site_fract_z
 _atom_site_occupancy
  K  K0  1  0.97877269  0.02122731  -0.00000000  1
  Nb  Nb0  1  0.48618406  0.00923479  0.24679130  1
  Nb  Nb1  1  0.48618406  0.00923479  0.75320870  1
  Nb  Nb2  1  0.99076521  0.51381594  0.75320870  1
  Nb  Nb3  1  0.99076521  0.51381594  0.24679130  1
  In  In0  1  0.52211082  0.47788918  0.50000000  1
  O  O0  1  0.20838852  0.20215244  0.25732723  1
  O  O1  1  0.79784756  0.79161148  0.25732723  1
  O  O2  1  0.79784756  0.79161148  0.74267277  1
  O  O3  1  0.20838852  0.20215244  0.74267277  1
  O  O4  1  0.31938963  0.68061037  0.31611187  1
  O  O5  1  0.71056769  0.28943231  0.21626404  1
  O  O6  1  0.71056769  0.28943231  0.78373596  1
  O  O7  1  0.31938963  0.68061037  0.68388813  1
  O  O8  1  0.46451789  0.95320286  0.00000000  1
  O  O9  1  0.52910328  0.08658715  0.50000000  1
  O  O10  1  0.04679714  0.53548211  0.00000000  1
  O  O11  1  0.91341285  0.47089672  0.50000000  1
loop_
_geom_bond_atom_site_label_1
_geom_bond_atom_site_label_2
_geom_bond_distance
_geom_bond_site_symmetry_2
K0 O3 2.606657 1_654
K0 O1 2.606657 1_545
K0 O0 2.606657 1_655
K0 O2 2.606657 1_544
K0 O8 2.717707 1_645
K0 O10 2.717707 1_645
K0 O5 2.725509 1_555
K0 O6 2.725509 1_554
K0 O10 2.865096 1_655
K0 O8 2.865096 1_545
Nb0 O0 1.883212 1_555
Nb0 O5 1.989127 1_555
Nb0 O8 1.995429 1_545
Nb0 O9 2.076831 1_555
Nb0 O4 2.102763 1_545
Nb0 O1 2.116163 1_545
Nb1 O3 1.883212 1_555
Nb1 O6 1.989127 1_555
Nb1 O8 1.995429 1_546
Nb1 O9 2.076831 1_555
Nb1 O7 2.102763 1_545
Nb1 O2 2.116163 1_545
Nb2 O2 1.883212 1_555
Nb2 O6 1.989127 1_555
Nb2 O10 1.995429 1_656
Nb2 O11 2.076831 1_555
Nb2 O7 2.102763 1_655
Nb2 O3 2.116163 1_655
Nb3 O1 1.883212 1_555
Nb3 O5 1.989127 1_555
Nb3 O10 1.995429 1_655
Nb3 O11 2.076831 1_555
Nb3 O4 2.102763 1_655
Nb3 O0 2.116163 1_655
In0 O9 2.165416 1_555
In0 O11 2.165416 1_555
In0 O4 2.166778 1_555
In0 O7 2.166778 1_555
