# generated using pymatgen
data_KLu(MoO4)2
_symmetry_space_group_name_H-M   'P 1'
_cell_length_a   5.08572700
_cell_length_b   8.00089300
_cell_length_c   18.47539900
_cell_angle_alpha   90.00000000
_cell_angle_beta   90.00000000
_cell_angle_gamma   90.00000000
_symmetry_Int_Tables_number   1
_chemical_formula_structural   KLu(MoO4)2
_chemical_formula_sum   'K4 Lu4 Mo8 O32'
_cell_volume   751.77059127
_cell_formula_units_Z   4
loop_
 _symmetry_equiv_pos_site_id
 _symmetry_equiv_pos_as_xyz
  1  'x, y, z'
loop_
 _atom_site_type_symbol
 _atom_site_label
 _atom_site_symmetry_multiplicity
 _atom_site_fract_x
 _atom_site_fract_y
 _atom_site_fract_z
 _atom_site_occupancy
  K  K0  1  0.00000000  0.75000000  0.77099900  1
  K  K1  1  0.00000000  0.25000000  0.22900100  1
  K  K2  1  0.50000000  0.25000000  0.72900100  1
  K  K3  1  0.50000000  0.75000000  0.27099900  1
  Lu  Lu0  1  0.00000000  0.75000000  0.00590100  1
  Lu  Lu1  1  0.00000000  0.25000000  0.99409900  1
  Lu  Lu2  1  0.50000000  0.25000000  0.49409900  1
  Lu  Lu3  1  0.50000000  0.75000000  0.50590100  1
  Mo  Mo0  1  0.02250700  0.51543700  0.40022500  1
  Mo  Mo1  1  0.97749300  0.48456300  0.59977500  1
  Mo  Mo2  1  0.47749300  0.01543700  0.09977500  1
  Mo  Mo3  1  0.97749300  0.98456300  0.40022500  1
  Mo  Mo4  1  0.52250700  0.98456300  0.90022500  1
  Mo  Mo5  1  0.02250700  0.01543700  0.59977500  1
  Mo  Mo6  1  0.52250700  0.48456300  0.09977500  1
  Mo  Mo7  1  0.47749300  0.51543700  0.90022500  1
  O  O0  1  0.09937200  0.97656600  0.31153300  1
  O  O1  1  0.90062800  0.02343400  0.68846700  1
  O  O2  1  0.40062800  0.47656600  0.18846700  1
  O  O3  1  0.90062800  0.52343400  0.31153300  1
  O  O4  1  0.59937200  0.52343400  0.81153300  1
  O  O5  1  0.09937200  0.47656600  0.68846700  1
  O  O6  1  0.59937200  0.02343400  0.18846700  1
  O  O7  1  0.40062800  0.97656600  0.81153300  1
  O  O8  1  0.26394600  0.83626000  0.09722600  1
  O  O9  1  0.73605400  0.16374000  0.90277400  1
  O  O10  1  0.23605400  0.33626000  0.40277400  1
  O  O11  1  0.73605400  0.66374000  0.09722600  1
  O  O12  1  0.76394600  0.66374000  0.59722600  1
  O  O13  1  0.26394600  0.33626000  0.90277400  1
  O  O14  1  0.76394600  0.16374000  0.40277400  1
  O  O15  1  0.23605400  0.83626000  0.59722600  1
  O  O16  1  0.24377100  0.50664500  0.03437000  1
  O  O17  1  0.75622900  0.49335500  0.96563000  1
  O  O18  1  0.25622900  0.00664500  0.46563000  1
  O  O19  1  0.75622900  0.99335500  0.03437000  1
  O  O20  1  0.74377100  0.99335500  0.53437000  1
  O  O21  1  0.24377100  0.00664500  0.96563000  1
  O  O22  1  0.74377100  0.49335500  0.46563000  1
  O  O23  1  0.25622900  0.50664500  0.53437000  1
  O  O24  1  0.24557900  0.69259700  0.40959100  1
  O  O25  1  0.75442100  0.30740300  0.59040900  1
  O  O26  1  0.25442100  0.19259700  0.09040900  1
  O  O27  1  0.75442100  0.80740300  0.40959100  1
  O  O28  1  0.74557900  0.80740300  0.90959100  1
  O  O29  1  0.24557900  0.19259700  0.59040900  1
  O  O30  1  0.74557900  0.30740300  0.09040900  1
  O  O31  1  0.25442100  0.69259700  0.90959100  1
loop_
_geom_bond_atom_site_label_1
_geom_bond_atom_site_label_2
_geom_bond_distance
_geom_bond_site_symmetry_2
K0 O1 2.714141 1_465
K0 O5 2.714141 1_555
K0 O7 2.828102 1_555
K0 O4 2.828102 1_455
K0 O28 2.905431 1_455
K0 O31 2.905431 1_555
K1 O0 2.714141 1_545
K1 O3 2.714141 1_455
K1 O2 2.828102 1_555
K1 O6 2.828102 1_455
K1 O26 2.905431 1_555
K1 O30 2.905431 1_455
K2 O7 2.714141 1_545
K2 O4 2.714141 1_555
K2 O5 2.828102 1_555
K2 O1 2.828102 1_555
K2 O25 2.905431 1_555
K2 O29 2.905431 1_555
K3 O6 2.714141 1_565
K3 O2 2.714141 1_555
K3 O0 2.828102 1_555
K3 O3 2.828102 1_555
K3 O27 2.905431 1_555
K3 O24 2.905431 1_555
Lu0 O31 2.247508 1_554
Lu0 O28 2.247508 1_454
Lu0 O8 2.263870 1_555
Lu0 O11 2.263870 1_455
Lu0 O19 2.367418 1_455
Lu0 O16 2.367418 1_555
Lu0 O17 2.511367 1_454
Lu0 O21 2.511367 1_564
Lu1 O30 2.247508 1_456
Lu1 O26 2.247508 1_556
Lu1 O13 2.263870 1_555
Lu1 O9 2.263870 1_455
Lu1 O21 2.367418 1_555
Lu1 O17 2.367418 1_455
Lu1 O19 2.511367 1_446
Lu1 O16 2.511367 1_556
Lu2 O29 2.247508 1_555
Lu2 O25 2.247508 1_555
Lu2 O10 2.263870 1_555
Lu2 O14 2.263870 1_555
Lu2 O18 2.367418 1_555
Lu2 O22 2.367418 1_555
Lu2 O20 2.511367 1_545
Lu2 O23 2.511367 1_555
Lu3 O27 2.247508 1_555
Lu3 O24 2.247508 1_555
Lu3 O12 2.263870 1_555
Lu3 O15 2.263870 1_555
Lu3 O23 2.367418 1_555
Lu3 O20 2.367418 1_555
Lu3 O22 2.511367 1_555
Lu3 O18 2.511367 1_565
Mo0 O3 1.753104 1_455
Mo0 O10 1.799123 1_555
Mo0 O24 1.823767 1_555
Mo0 O22 1.871076 1_455
Mo1 O5 1.753104 1_655
Mo1 O12 1.799123 1_555
Mo1 O25 1.823767 1_555
Mo1 O23 1.871076 1_655
Mo2 O6 1.753104 1_555
Mo2 O8 1.799123 1_545
Mo2 O26 1.823767 1_555
Mo2 O19 1.871076 1_545
Mo3 O0 1.753104 1_655
Mo3 O14 1.799123 1_565
Mo3 O27 1.823767 1_555
Mo3 O18 1.871076 1_665
Mo4 O7 1.753104 1_555
Mo4 O9 1.799123 1_565
Mo4 O28 1.823767 1_555
Mo4 O21 1.871076 1_565
Mo5 O1 1.753104 1_455
Mo5 O15 1.799123 1_545
Mo5 O29 1.823767 1_555
Mo5 O20 1.871076 1_445
Mo6 O2 1.753104 1_555
Mo6 O11 1.799123 1_555
Mo6 O30 1.823767 1_555
Mo6 O16 1.871076 1_555
Mo7 O4 1.753104 1_555
Mo7 O13 1.799123 1_555
Mo7 O31 1.823767 1_555
Mo7 O17 1.871076 1_555
