# generated using pymatgen
data_Er6(Ga3Co)7
_symmetry_space_group_name_H-M   'P 1'
_cell_length_a   4.13674000
_cell_length_b   16.59377000
_cell_length_c   16.59377000
_cell_angle_alpha   90.00000000
_cell_angle_beta   90.00000000
_cell_angle_gamma   90.00000000
_symmetry_Int_Tables_number   1
_chemical_formula_structural   Er6(Ga3Co)7
_chemical_formula_sum   'Er12 Ga42 Co14'
_cell_volume   1139.06460820
_cell_formula_units_Z   2
loop_
 _symmetry_equiv_pos_site_id
 _symmetry_equiv_pos_as_xyz
  1  'x, y, z'
loop_
 _atom_site_type_symbol
 _atom_site_label
 _atom_site_symmetry_multiplicity
 _atom_site_fract_x
 _atom_site_fract_y
 _atom_site_fract_z
 _atom_site_occupancy
  Er  Er0  1  0.50000000  0.10794900  0.60794900  1
  Er  Er1  1  0.50000000  0.89205100  0.39205100  1
  Er  Er2  1  0.50000000  0.39205100  0.10794900  1
  Er  Er3  1  0.50000000  0.60794900  0.89205100  1
  Er  Er4  1  0.00000000  0.65746500  0.58675900  1
  Er  Er5  1  0.00000000  0.34253500  0.41324100  1
  Er  Er6  1  0.00000000  0.84253500  0.08675900  1
  Er  Er7  1  0.00000000  0.15746500  0.91324100  1
  Er  Er8  1  0.00000000  0.58675900  0.34253500  1
  Er  Er9  1  0.00000000  0.41324100  0.65746500  1
  Er  Er10  1  0.00000000  0.08675900  0.15746500  1
  Er  Er11  1  0.00000000  0.91324100  0.84253500  1
  Ga  Ga0  1  0.00000000  0.00000000  0.50000000  1
  Ga  Ga1  1  0.00000000  0.50000000  0.00000000  1
  Ga  Ga2  1  0.00000000  0.32051300  0.82051300  1
  Ga  Ga3  1  0.00000000  0.67948700  0.17948700  1
  Ga  Ga4  1  0.00000000  0.17948700  0.32051300  1
  Ga  Ga5  1  0.00000000  0.82051300  0.67948700  1
  Ga  Ga6  1  0.50000000  0.42620300  0.92620300  1
  Ga  Ga7  1  0.50000000  0.57379700  0.07379700  1
  Ga  Ga8  1  0.50000000  0.07379700  0.42620300  1
  Ga  Ga9  1  0.50000000  0.92620300  0.57379700  1
  Ga  Ga10  1  0.00000000  0.57511700  0.75791400  1
  Ga  Ga11  1  0.00000000  0.42488300  0.24208600  1
  Ga  Ga12  1  0.00000000  0.92488300  0.25791400  1
  Ga  Ga13  1  0.00000000  0.07511700  0.74208600  1
  Ga  Ga14  1  0.00000000  0.75791400  0.42488300  1
  Ga  Ga15  1  0.00000000  0.24208600  0.57511700  1
  Ga  Ga16  1  0.00000000  0.25791400  0.07511700  1
  Ga  Ga17  1  0.00000000  0.74208600  0.92488300  1
  Ga  Ga18  1  0.50000000  0.53231700  0.61203100  1
  Ga  Ga19  1  0.50000000  0.46768300  0.38796900  1
  Ga  Ga20  1  0.50000000  0.96768300  0.11203100  1
  Ga  Ga21  1  0.50000000  0.03231700  0.88796900  1
  Ga  Ga22  1  0.50000000  0.61203100  0.46768300  1
  Ga  Ga23  1  0.50000000  0.38796900  0.53231700  1
  Ga  Ga24  1  0.50000000  0.11203100  0.03231700  1
  Ga  Ga25  1  0.50000000  0.88796900  0.96768300  1
  Ga  Ga26  1  0.50000000  0.67946700  0.70889400  1
  Ga  Ga27  1  0.50000000  0.32053300  0.29110600  1
  Ga  Ga28  1  0.50000000  0.82053300  0.20889400  1
  Ga  Ga29  1  0.50000000  0.17946700  0.79110600  1
  Ga  Ga30  1  0.50000000  0.70889400  0.32053300  1
  Ga  Ga31  1  0.50000000  0.29110600  0.67946700  1
  Ga  Ga32  1  0.50000000  0.20889400  0.17946700  1
  Ga  Ga33  1  0.50000000  0.79110600  0.82053300  1
  Ga  Ga34  1  0.50000000  0.77187400  0.54403500  1
  Ga  Ga35  1  0.50000000  0.22812600  0.45596500  1
  Ga  Ga36  1  0.50000000  0.72812600  0.04403500  1
  Ga  Ga37  1  0.50000000  0.27187400  0.95596500  1
  Ga  Ga38  1  0.50000000  0.54403500  0.22812600  1
  Ga  Ga39  1  0.50000000  0.45596500  0.77187400  1
  Ga  Ga40  1  0.50000000  0.04403500  0.27187400  1
  Ga  Ga41  1  0.50000000  0.95596500  0.72812600  1
  Co  Co0  1  0.00000000  0.21870800  0.71870800  1
  Co  Co1  1  0.00000000  0.78129200  0.28129200  1
  Co  Co2  1  0.00000000  0.28129200  0.21870800  1
  Co  Co3  1  0.00000000  0.71870800  0.78129200  1
  Co  Co4  1  0.00000000  0.96435900  0.64865900  1
  Co  Co5  1  0.00000000  0.03564100  0.35134100  1
  Co  Co6  1  0.00000000  0.53564100  0.14865900  1
  Co  Co7  1  0.00000000  0.46435900  0.85134100  1
  Co  Co8  1  0.00000000  0.64865900  0.03564100  1
  Co  Co9  1  0.00000000  0.35134100  0.96435900  1
  Co  Co10  1  0.00000000  0.14865900  0.46435900  1
  Co  Co11  1  0.00000000  0.85134100  0.53564100  1
  Co  Co12  1  0.00000000  0.50000000  0.50000000  1
  Co  Co13  1  0.00000000  0.00000000  0.00000000  1
loop_
_geom_bond_atom_site_label_1
_geom_bond_atom_site_label_2
_geom_bond_distance
_geom_bond_site_symmetry_2
Er0 Ga9 3.068635 1_545
Er0 Ga8 3.068635 1_555
Er0 Ga13 3.086961 1_555
Er0 Ga13 3.086961 1_655
Er0 Ga15 3.086961 1_555
Er0 Ga15 3.086961 1_655
Er0 Ga41 3.215154 1_545
Er0 Ga35 3.215154 1_555
Er0 Ga29 3.262747 1_555
Er0 Ga31 3.262747 1_555
Er0 Ga0 3.270402 1_655
Er0 Ga0 3.270402 1_555
Er1 Ga9 3.068635 1_555
Er1 Ga8 3.068635 1_565
Er1 Ga14 3.086961 1_655
Er1 Ga14 3.086961 1_555
Er1 Ga12 3.086961 1_655
Er1 Ga12 3.086961 1_555
Er1 Ga34 3.215154 1_555
Er1 Ga40 3.215154 1_565
Er1 Ga28 3.262747 1_555
Er1 Ga30 3.262747 1_555
Er1 Ga0 3.270402 1_665
Er1 Ga0 3.270402 1_565
Er2 Ga6 3.068635 1_554
Er2 Ga7 3.068635 1_555
Er2 Ga16 3.086961 1_655
Er2 Ga16 3.086961 1_555
Er2 Ga11 3.086961 1_555
Er2 Ga11 3.086961 1_655
Er2 Ga37 3.215154 1_554
Er2 Ga38 3.215154 1_555
Er2 Ga32 3.262747 1_555
Er2 Ga27 3.262747 1_555
Er2 Ga1 3.270402 1_555
Er2 Ga1 3.270402 1_655
Er3 Ga6 3.068635 1_555
Er3 Ga7 3.068635 1_556
Er3 Ga10 3.086961 1_655
Er3 Ga10 3.086961 1_555
Er3 Ga17 3.086961 1_555
Er3 Ga17 3.086961 1_655
Er3 Ga39 3.215154 1_555
Er3 Ga36 3.215154 1_556
Er3 Ga26 3.262747 1_555
Er3 Ga33 3.262747 1_555
Er3 Ga1 3.270402 1_656
Er3 Ga1 3.270402 1_556
Er4 Ga34 2.895683 1_455
Er4 Ga34 2.895683 1_555
Er4 Ga26 2.918712 1_555
Er4 Ga26 2.918712 1_455
Er4 Ga22 2.958177 1_555
Er4 Ga22 2.958177 1_455
Er4 Ga18 2.960845 1_555
Er4 Ga18 2.960845 1_455
Er4 Ga5 3.112521 1_555
Er4 Ga10 3.151734 1_555
Er4 Ga14 3.161270 1_555
Er5 Ga35 2.895683 1_555
Er5 Ga35 2.895683 1_455
Er5 Ga27 2.918712 1_455
Er5 Ga27 2.918712 1_555
Er5 Ga23 2.958177 1_455
Er5 Ga23 2.958177 1_555
Er5 Ga19 2.960845 1_455
Er5 Ga19 2.960845 1_555
Er5 Ga4 3.112521 1_555
Er5 Ga11 3.151734 1_555
Er5 Ga15 3.161270 1_555
Er6 Ga36 2.895683 1_555
Er6 Ga36 2.895683 1_455
Er6 Ga28 2.918712 1_455
Er6 Ga28 2.918712 1_555
Er6 Ga25 2.958177 1_554
Er6 Ga25 2.958177 1_454
Er6 Ga20 2.960845 1_555
Er6 Ga20 2.960845 1_455
Er6 Ga3 3.112521 1_555
Er6 Ga12 3.151734 1_555
Er6 Ga17 3.161270 1_554
Er7 Ga37 2.895683 1_455
Er7 Ga37 2.895683 1_555
Er7 Ga29 2.918712 1_555
Er7 Ga29 2.918712 1_455
Er7 Ga24 2.958177 1_556
Er7 Ga24 2.958177 1_456
Er7 Ga21 2.960845 1_455
Er7 Ga21 2.960845 1_555
Er7 Ga2 3.112521 1_555
Er7 Ga13 3.151734 1_555
Er7 Ga16 3.161270 1_556
Er8 Ga38 2.895683 1_555
Er8 Ga38 2.895683 1_455
Er8 Ga30 2.918712 1_555
Er8 Ga30 2.918712 1_455
Er8 Ga19 2.958177 1_555
Er8 Ga19 2.958177 1_455
Er8 Ga22 2.960845 1_455
Er8 Ga22 2.960845 1_555
Er8 Ga3 3.112521 1_555
Er8 Ga14 3.151734 1_555
Er8 Ga11 3.161270 1_555
Er9 Ga39 2.895683 1_455
Er9 Ga39 2.895683 1_555
Er9 Ga31 2.918712 1_555
Er9 Ga31 2.918712 1_455
Er9 Ga18 2.958177 1_555
Er9 Ga18 2.958177 1_455
Er9 Ga23 2.960845 1_455
Er9 Ga23 2.960845 1_555
Er9 Ga2 3.112521 1_555
Er9 Ga15 3.151734 1_555
Er9 Ga10 3.161270 1_555
Er10 Ga40 2.895683 1_455
Er10 Ga40 2.895683 1_555
Er10 Ga32 2.918712 1_455
Er10 Ga32 2.918712 1_555
Er10 Ga20 2.958177 1_545
Er10 Ga20 2.958177 1_445
Er10 Ga24 2.960845 1_455
Er10 Ga24 2.960845 1_555
Er10 Ga4 3.112521 1_555
Er10 Ga16 3.151734 1_555
Er10 Ga12 3.161270 1_545
Er11 Ga41 2.895683 1_455
Er11 Ga41 2.895683 1_555
Er11 Ga33 2.918712 1_455
Er11 Ga33 2.918712 1_555
Er11 Ga21 2.958177 1_465
Er11 Ga21 2.958177 1_565
Er11 Ga25 2.960845 1_455
Er11 Ga25 2.960845 1_555
Er11 Ga5 3.112521 1_555
Er11 Ga17 3.151734 1_555
Er11 Ga13 3.161270 1_565
Ga0 Ga8 2.697647 1_555
Ga0 Ga9 2.697647 1_445
Ga0 Ga9 2.697647 1_545
Ga0 Ga8 2.697647 1_455
Ga1 Ga6 2.697647 1_554
Ga1 Ga7 2.697647 1_455
Ga1 Ga7 2.697647 1_555
Ga1 Ga6 2.697647 1_454
Ga10 Ga26 2.817466 1_555
Ga10 Ga26 2.817466 1_455
Ga10 Ga39 2.870725 1_555
Ga10 Ga39 2.870725 1_455
Ga11 Ga27 2.817466 1_455
Ga11 Ga27 2.817466 1_555
Ga11 Ga38 2.870725 1_555
Ga11 Ga38 2.870725 1_455
Ga12 Ga28 2.817466 1_455
Ga12 Ga28 2.817466 1_555
Ga12 Ga40 2.870725 1_465
Ga12 Ga40 2.870725 1_565
Ga13 Ga29 2.817466 1_555
Ga13 Ga29 2.817466 1_455
Ga13 Ga41 2.870725 1_445
Ga13 Ga41 2.870725 1_545
Ga14 Ga30 2.817466 1_555
Ga14 Ga30 2.817466 1_455
Ga14 Ga34 2.870725 1_555
Ga14 Ga34 2.870725 1_455
Ga15 Ga31 2.817466 1_455
Ga15 Ga31 2.817466 1_555
Ga15 Ga35 2.870725 1_555
Ga15 Ga35 2.870725 1_455
Ga16 Ga32 2.817466 1_455
Ga16 Ga32 2.817466 1_555
Ga16 Ga37 2.870725 1_454
Ga16 Ga37 2.870725 1_554
Ga17 Ga33 2.817466 1_555
Ga17 Ga33 2.817466 1_455
Ga17 Ga36 2.870725 1_456
Ga17 Ga36 2.870725 1_556
Ga18 Ga23 2.736245 1_555
Ga18 Ga22 2.736245 1_555
Ga18 Ga26 2.923310 1_555
Ga18 Ga39 2.939459 1_555
Ga19 Ga23 2.736245 1_555
Ga19 Ga22 2.736245 1_555
Ga19 Ga27 2.923310 1_555
Ga19 Ga38 2.939459 1_555
Ga20 Ga24 2.736245 1_565
Ga20 Ga25 2.736245 1_554
Ga20 Ga28 2.923310 1_555
Ga20 Ga40 2.939459 1_565
Ga21 Ga24 2.736245 1_556
Ga21 Ga25 2.736245 1_545
Ga21 Ga29 2.923310 1_555
Ga21 Ga41 2.939459 1_545
Ga22 Ga30 2.923310 1_555
Ga22 Ga34 2.939459 1_555
Ga23 Ga31 2.923310 1_555
Ga23 Ga35 2.939459 1_555
Ga24 Ga32 2.923310 1_555
Ga24 Ga37 2.939459 1_554
Ga25 Ga33 2.923310 1_555
Ga25 Ga36 2.939459 1_556
Ga34 Ga9 2.608085 1_555
Ga35 Ga8 2.608085 1_555
Ga36 Ga7 2.608085 1_555
Ga37 Ga6 2.608085 1_555
Ga38 Ga7 2.608085 1_555
Ga39 Ga6 2.608085 1_555
Ga40 Ga8 2.608085 1_555
Ga41 Ga9 2.608085 1_555
Co0 Ga2 2.389072 1_555
Co0 Ga13 2.414089 1_555
Co0 Ga15 2.414089 1_555
Co0 Ga29 2.478995 1_455
Co0 Ga29 2.478995 1_555
Co0 Ga31 2.478995 1_555
Co0 Ga31 2.478995 1_455
Co0 Er0 3.321743 1_555
Co0 Er0 3.321743 1_455
Co1 Ga3 2.389072 1_555
Co1 Ga14 2.414089 1_555
Co1 Ga12 2.414089 1_555
Co1 Ga28 2.478995 1_455
Co1 Ga28 2.478995 1_555
Co1 Ga30 2.478995 1_555
Co1 Ga30 2.478995 1_455
Co1 Er1 3.321743 1_555
Co1 Er1 3.321743 1_455
Co2 Ga4 2.389072 1_555
Co2 Ga16 2.414089 1_555
Co2 Ga11 2.414089 1_555
Co2 Ga32 2.478995 1_455
Co2 Ga32 2.478995 1_555
Co2 Ga27 2.478995 1_455
Co2 Ga27 2.478995 1_555
Co2 Er2 3.321743 1_555
Co2 Er2 3.321743 1_455
Co3 Ga5 2.389072 1_555
Co3 Ga17 2.414089 1_555
Co3 Ga10 2.414089 1_555
Co3 Ga33 2.478995 1_555
Co3 Ga33 2.478995 1_455
Co3 Ga26 2.478995 1_555
Co3 Ga26 2.478995 1_455
Co3 Er3 3.321743 1_555
Co3 Er3 3.321743 1_455
Co4 Ga13 2.404433 1_565
Co4 Ga5 2.441148 1_555
Co4 Ga41 2.456911 1_455
Co4 Ga41 2.456911 1_555
Co4 Ga9 2.494434 1_555
Co4 Ga9 2.494434 1_455
Co4 Ga0 2.536719 1_565
Co4 Er0 3.226725 1_565
Co4 Er0 3.226725 1_465
Co5 Ga12 2.404433 1_545
Co5 Ga4 2.441148 1_555
Co5 Ga40 2.456911 1_555
Co5 Ga40 2.456911 1_455
Co5 Ga8 2.494434 1_555
Co5 Ga8 2.494434 1_455
Co5 Ga0 2.536719 1_555
Co5 Er1 3.226725 1_545
Co5 Er1 3.226725 1_445
Co6 Ga11 2.404433 1_555
Co6 Ga3 2.441148 1_555
Co6 Ga38 2.456911 1_555
Co6 Ga38 2.456911 1_455
Co6 Ga7 2.494434 1_455
Co6 Ga7 2.494434 1_555
Co6 Ga1 2.536719 1_555
Co6 Er2 3.226725 1_555
Co6 Er2 3.226725 1_455
Co7 Ga10 2.404433 1_555
Co7 Ga2 2.441148 1_555
Co7 Ga39 2.456911 1_455
Co7 Ga39 2.456911 1_555
Co7 Ga6 2.494434 1_555
Co7 Ga6 2.494434 1_455
Co7 Ga1 2.536719 1_556
Co7 Er3 3.226725 1_555
Co7 Er3 3.226725 1_455
Co8 Ga17 2.404433 1_554
Co8 Ga3 2.441148 1_555
Co8 Ga36 2.456911 1_455
Co8 Ga36 2.456911 1_555
Co8 Ga7 2.494434 1_455
Co8 Ga7 2.494434 1_555
Co8 Ga1 2.536719 1_555
Co8 Er3 3.226725 1_454
Co8 Er3 3.226725 1_554
Co9 Ga16 2.404433 1_556
Co9 Ga2 2.441148 1_555
Co9 Ga37 2.456911 1_455
Co9 Ga37 2.456911 1_555
Co9 Ga6 2.494434 1_455
Co9 Ga6 2.494434 1_555
Co9 Ga1 2.536719 1_556
Co9 Er2 3.226725 1_556
Co9 Er2 3.226725 1_456
Co10 Ga15 2.404433 1_555
Co10 Ga4 2.441148 1_555
Co10 Ga35 2.456911 1_555
Co10 Ga35 2.456911 1_455
Co10 Ga8 2.494434 1_555
Co10 Ga8 2.494434 1_455
Co10 Ga0 2.536719 1_555
Co10 Er0 3.226725 1_555
Co10 Er0 3.226725 1_455
Co11 Ga14 2.404433 1_555
Co11 Ga5 2.441148 1_555
Co11 Ga34 2.456911 1_555
Co11 Ga34 2.456911 1_455
Co11 Ga9 2.494434 1_555
Co11 Ga9 2.494434 1_455
Co11 Ga0 2.536719 1_565
Co11 Er1 3.226725 1_455
Co11 Er1 3.226725 1_555
Co12 Ga23 2.832256 1_455
Co12 Ga18 2.832256 1_455
Co12 Ga18 2.832256 1_555
Co12 Ga23 2.832256 1_555
Co12 Ga22 2.832256 1_455
Co12 Ga19 2.832256 1_455
Co12 Ga19 2.832256 1_555
Co12 Ga22 2.832256 1_555
Co12 Er4 2.983297 1_555
Co12 Er8 2.983297 1_555
Co12 Er9 2.983297 1_555
Co12 Er5 2.983297 1_555
Co13 Ga20 2.832256 1_545
Co13 Ga20 2.832256 1_445
Co13 Ga24 2.832256 1_555
Co13 Ga24 2.832256 1_455
Co13 Ga21 2.832256 1_554
Co13 Ga21 2.832256 1_454
Co13 Ga25 2.832256 1_444
Co13 Ga25 2.832256 1_544
Co13 Er7 2.983297 1_554
Co13 Er10 2.983297 1_555
Co13 Er11 2.983297 1_544
Co13 Er6 2.983297 1_545
