# generated using pymatgen
data_KV2SeO7
_symmetry_space_group_name_H-M   'P 1'
_cell_length_a   5.43500000
_cell_length_b   6.99203425
_cell_length_c   17.88393816
_cell_angle_alpha   90.00000000
_cell_angle_beta   90.00000000
_cell_angle_gamma   90.00000000
_symmetry_Int_Tables_number   1
_chemical_formula_structural   KV2SeO7
_chemical_formula_sum   'K4 V8 Se4 O28'
_cell_volume   679.62016274
_cell_formula_units_Z   4
loop_
 _symmetry_equiv_pos_site_id
 _symmetry_equiv_pos_as_xyz
  1  'x, y, z'
loop_
 _atom_site_type_symbol
 _atom_site_label
 _atom_site_symmetry_multiplicity
 _atom_site_fract_x
 _atom_site_fract_y
 _atom_site_fract_z
 _atom_site_occupancy
  K  K0  1  0.25000000  0.24265651  0.96391584  1
  K  K1  1  0.25000000  0.25734349  0.46391584  1
  K  K2  1  0.75000000  0.75734349  0.03608416  1
  K  K3  1  0.75000000  0.74265651  0.53608416  1
  V  V0  1  0.25000000  0.72442840  0.88443110  1
  V  V1  1  0.25000000  0.77557160  0.38443110  1
  V  V2  1  0.75000000  0.27557160  0.11556890  1
  V  V3  1  0.75000000  0.22442840  0.61556890  1
  V  V4  1  0.25000000  0.93999088  0.68833811  1
  V  V5  1  0.25000000  0.56000912  0.18833811  1
  V  V6  1  0.75000000  0.06000912  0.31166189  1
  V  V7  1  0.75000000  0.43999088  0.81166189  1
  Se  Se0  1  0.25000000  0.47004361  0.64898347  1
  Se  Se1  1  0.25000000  0.02995639  0.14898347  1
  Se  Se2  1  0.75000000  0.52995639  0.35101653  1
  Se  Se3  1  0.75000000  0.97004361  0.85101653  1
  O  O0  1  0.25000000  0.88918373  0.77919771  1
  O  O1  1  0.25000000  0.61081627  0.27919771  1
  O  O2  1  0.75000000  0.11081627  0.22080229  1
  O  O3  1  0.75000000  0.38918373  0.72080229  1
  O  O4  1  0.99478746  0.06686181  0.66526246  1
  O  O5  1  0.50521254  0.43313819  0.16526246  1
  O  O6  1  0.49478746  0.93313819  0.33473754  1
  O  O7  1  0.00521254  0.56686181  0.83473754  1
  O  O8  1  0.00521254  0.93313819  0.33473754  1
  O  O9  1  0.49478746  0.56686181  0.83473754  1
  O  O10  1  0.50521254  0.06686181  0.66526246  1
  O  O11  1  0.99478746  0.43313819  0.16526246  1
  O  O12  1  0.25000000  0.71808778  0.63387785  1
  O  O13  1  0.25000000  0.78191222  0.13387785  1
  O  O14  1  0.75000000  0.28191222  0.36612215  1
  O  O15  1  0.75000000  0.21808778  0.86612215  1
  O  O16  1  0.01155812  0.42223461  0.59070217  1
  O  O17  1  0.48844188  0.07776539  0.09070217  1
  O  O18  1  0.51155812  0.57776539  0.40929783  1
  O  O19  1  0.98844188  0.92223461  0.90929783  1
  O  O20  1  0.98844188  0.57776539  0.40929783  1
  O  O21  1  0.51155812  0.92223461  0.90929783  1
  O  O22  1  0.48844188  0.42223461  0.59070217  1
  O  O23  1  0.01155812  0.07776539  0.09070217  1
  O  O24  1  0.25000000  0.62944177  0.96765512  1
  O  O25  1  0.25000000  0.87055823  0.46765512  1
  O  O26  1  0.75000000  0.37055823  0.03234488  1
  O  O27  1  0.75000000  0.12944177  0.53234488  1
loop_
_geom_bond_atom_site_label_1
_geom_bond_atom_site_label_2
_geom_bond_distance
_geom_bond_site_symmetry_2
K0 O24 2.705242 1_555
K0 O19 2.827430 1_445
K0 O21 2.827430 1_545
K0 O23 2.854812 1_556
K0 O17 2.854812 1_556
K0 O26 3.111624 1_456
K0 O26 3.111624 1_556
K0 O15 3.236216 1_555
K0 O15 3.236216 1_455
K1 O25 2.705242 1_545
K1 O20 2.827430 1_455
K1 O18 2.827430 1_555
K1 O22 2.854812 1_555
K1 O16 2.854812 1_555
K1 O27 3.111624 1_455
K1 O27 3.111624 1_555
K1 O14 3.236216 1_555
K1 O14 3.236216 1_455
K2 O26 2.705242 1_555
K2 O23 2.827430 1_665
K2 O17 2.827430 1_565
K2 O19 2.854812 1_554
K2 O21 2.854812 1_554
K2 O24 3.111624 1_654
K2 O24 3.111624 1_554
K2 O13 3.236216 1_655
K2 O13 3.236216 1_555
K3 O27 2.705242 1_565
K3 O16 2.827430 1_655
K3 O22 2.827430 1_555
K3 O18 2.854812 1_555
K3 O20 2.854812 1_555
K3 O25 3.111624 1_555
K3 O25 3.111624 1_655
K3 O12 3.236216 1_655
K3 O12 3.236216 1_555
O0 V4 1.663307 1_555
O0 V0 2.206564 1_555
O1 V5 1.663307 1_555
O1 V1 2.206564 1_555
O2 V6 1.663307 1_555
O2 V2 2.206564 1_555
O3 V7 1.663307 1_555
O3 V3 2.206564 1_555
O4 V4 1.697416 1_645
O4 V3 1.942576 1_555
O5 V5 1.697416 1_555
O5 V2 1.942576 1_555
O6 V6 1.697416 1_565
O6 V1 1.942576 1_555
O7 V7 1.697416 1_455
O7 V0 1.942576 1_555
O8 V6 1.697416 1_465
O8 V1 1.942576 1_555
O9 V7 1.697416 1_555
O9 V0 1.942576 1_555
O10 V4 1.697416 1_545
O10 V3 1.942576 1_555
O11 V5 1.697416 1_655
O11 V2 1.942576 1_555
O12 Se0 1.755247 1_555
O12 V4 1.831919 1_555
O13 Se1 1.755247 1_565
O13 V5 1.831919 1_555
O14 Se2 1.755247 1_555
O14 V6 1.831919 1_555
O15 Se3 1.755247 1_545
O15 V7 1.831919 1_555
O16 Se0 1.696340 1_555
O16 V3 2.032610 1_455
O17 Se1 1.696340 1_555
O17 V2 2.032610 1_555
O18 Se2 1.696340 1_555
O18 V1 2.032610 1_555
O19 Se3 1.696340 1_555
O19 V0 2.032610 1_655
O20 Se2 1.696340 1_555
O20 V1 2.032610 1_655
O21 Se3 1.696340 1_555
O21 V0 2.032610 1_555
O22 Se0 1.696340 1_555
O22 V3 2.032610 1_555
O23 Se1 1.696340 1_555
O23 V2 2.032610 1_455
O24 V0 1.629831 1_555
O25 V1 1.629831 1_555
O26 V2 1.629831 1_555
O27 V3 1.629831 1_555
