# generated using pymatgen
data_Pr3(Sn3Pd2)2
_symmetry_space_group_name_H-M   'P 1'
_cell_length_a   4.64135500
_cell_length_b   15.84374000
_cell_length_c   16.95857500
_cell_angle_alpha   90.00000000
_cell_angle_beta   90.00000000
_cell_angle_gamma   90.00000000
_symmetry_Int_Tables_number   1
_chemical_formula_structural   Pr3(Sn3Pd2)2
_chemical_formula_sum   'Pr12 Sn24 Pd16'
_cell_volume   1247.07292548
_cell_formula_units_Z   4
loop_
 _symmetry_equiv_pos_site_id
 _symmetry_equiv_pos_as_xyz
  1  'x, y, z'
loop_
 _atom_site_type_symbol
 _atom_site_label
 _atom_site_symmetry_multiplicity
 _atom_site_fract_x
 _atom_site_fract_y
 _atom_site_fract_z
 _atom_site_occupancy
  Pr  Pr0  1  0.25000000  0.75268400  0.38466800  1
  Pr  Pr1  1  0.75000000  0.24731600  0.61533200  1
  Pr  Pr2  1  0.75000000  0.25268400  0.11533200  1
  Pr  Pr3  1  0.25000000  0.74731600  0.88466800  1
  Pr  Pr4  1  0.25000000  0.61883200  0.64282300  1
  Pr  Pr5  1  0.75000000  0.38116800  0.35717700  1
  Pr  Pr6  1  0.75000000  0.11883200  0.85717700  1
  Pr  Pr7  1  0.25000000  0.88116800  0.14282300  1
  Pr  Pr8  1  0.25000000  0.01625100  0.35010900  1
  Pr  Pr9  1  0.75000000  0.98374900  0.64989100  1
  Pr  Pr10  1  0.75000000  0.51625100  0.14989100  1
  Pr  Pr11  1  0.25000000  0.48374900  0.85010900  1
  Sn  Sn0  1  0.25000000  0.53922400  0.44960500  1
  Sn  Sn1  1  0.75000000  0.46077600  0.55039500  1
  Sn  Sn2  1  0.75000000  0.03922400  0.05039500  1
  Sn  Sn3  1  0.25000000  0.96077600  0.94960500  1
  Sn  Sn4  1  0.25000000  0.10601900  0.17033100  1
  Sn  Sn5  1  0.75000000  0.89398100  0.82966900  1
  Sn  Sn6  1  0.75000000  0.60601900  0.32966900  1
  Sn  Sn7  1  0.25000000  0.39398100  0.67033100  1
  Sn  Sn8  1  0.25000000  0.37928800  0.20652000  1
  Sn  Sn9  1  0.75000000  0.62071200  0.79348000  1
  Sn  Sn10  1  0.75000000  0.87928800  0.29348000  1
  Sn  Sn11  1  0.25000000  0.12071200  0.70652000  1
  Sn  Sn12  1  0.25000000  0.22999300  0.44288500  1
  Sn  Sn13  1  0.75000000  0.77000700  0.55711500  1
  Sn  Sn14  1  0.75000000  0.72999300  0.05711500  1
  Sn  Sn15  1  0.25000000  0.27000700  0.94288500  1
  Sn  Sn16  1  0.25000000  0.58011000  0.02563400  1
  Sn  Sn17  1  0.75000000  0.41989000  0.97436600  1
  Sn  Sn18  1  0.75000000  0.08011000  0.47436600  1
  Sn  Sn19  1  0.25000000  0.91989000  0.52563400  1
  Sn  Sn20  1  0.25000000  0.66232400  0.18956900  1
  Sn  Sn21  1  0.75000000  0.33767600  0.81043100  1
  Sn  Sn22  1  0.75000000  0.16232400  0.31043100  1
  Sn  Sn23  1  0.25000000  0.83767600  0.68956900  1
  Pd  Pd0  1  0.25000000  0.39995900  0.04765700  1
  Pd  Pd1  1  0.75000000  0.60004100  0.95234300  1
  Pd  Pd2  1  0.75000000  0.89995900  0.45234300  1
  Pd  Pd3  1  0.25000000  0.10004100  0.54765700  1
  Pd  Pd4  1  0.25000000  0.23314300  0.28221100  1
  Pd  Pd5  1  0.75000000  0.76685700  0.71778900  1
  Pd  Pd6  1  0.75000000  0.73314300  0.21778900  1
  Pd  Pd7  1  0.25000000  0.26685700  0.78221100  1
  Pd  Pd8  1  0.25000000  0.12183900  0.00954000  1
  Pd  Pd9  1  0.75000000  0.87816100  0.99046000  1
  Pd  Pd10  1  0.75000000  0.62183900  0.49046000  1
  Pd  Pd11  1  0.25000000  0.37816100  0.50954000  1
  Pd  Pd12  1  0.25000000  0.52520000  0.29204000  1
  Pd  Pd13  1  0.75000000  0.47480000  0.70796000  1
  Pd  Pd14  1  0.75000000  0.02520000  0.20796000  1
  Pd  Pd15  1  0.25000000  0.97480000  0.79204000  1
loop_
_geom_bond_atom_site_label_1
_geom_bond_atom_site_label_2
_geom_bond_distance
_geom_bond_site_symmetry_2
Pr0 Sn6 3.413966 1_555
Pr0 Sn6 3.413966 1_455
Pr0 Sn10 3.435187 1_555
Pr0 Sn10 3.435187 1_455
Pr0 Sn0 3.556780 1_555
Pr0 Sn19 3.568330 1_555
Pr0 Sn20 3.605057 1_555
Pr0 Sn13 3.743436 1_455
Pr0 Sn13 3.743436 1_555
Pr1 Sn7 3.413966 1_655
Pr1 Sn7 3.413966 1_555
Pr1 Sn11 3.435187 1_555
Pr1 Sn11 3.435187 1_655
Pr1 Sn1 3.556780 1_555
Pr1 Sn18 3.568330 1_555
Pr1 Sn21 3.605057 1_555
Pr1 Sn12 3.743436 1_555
Pr1 Sn12 3.743436 1_655
Pr2 Sn4 3.413966 1_555
Pr2 Sn4 3.413966 1_655
Pr2 Sn8 3.435187 1_555
Pr2 Sn8 3.435187 1_655
Pr2 Sn2 3.556780 1_555
Pr2 Sn17 3.568330 1_554
Pr2 Sn22 3.605057 1_555
Pr2 Sn15 3.743436 1_654
Pr2 Sn15 3.743436 1_554
Pr3 Sn5 3.413966 1_555
Pr3 Sn5 3.413966 1_455
Pr3 Sn9 3.435187 1_455
Pr3 Sn9 3.435187 1_555
Pr3 Sn3 3.556780 1_555
Pr3 Sn16 3.568330 1_556
Pr3 Sn23 3.605057 1_555
Pr3 Sn14 3.743436 1_456
Pr3 Sn14 3.743436 1_556
Pr4 Sn9 3.451679 1_455
Pr4 Sn9 3.451679 1_555
Pr4 Sn0 3.511072 1_555
Pr4 Sn23 3.556778 1_555
Pr4 Sn7 3.592894 1_555
Pr4 Sn13 3.637999 1_455
Pr4 Sn13 3.637999 1_555
Pr4 Sn1 3.756786 1_555
Pr4 Sn1 3.756786 1_455
Pr5 Sn8 3.451679 1_555
Pr5 Sn8 3.451679 1_655
Pr5 Sn1 3.511072 1_555
Pr5 Sn22 3.556778 1_555
Pr5 Sn6 3.592894 1_555
Pr5 Sn12 3.637999 1_555
Pr5 Sn12 3.637999 1_655
Pr5 Sn0 3.756786 1_655
Pr5 Sn0 3.756786 1_555
Pr6 Sn11 3.451679 1_555
Pr6 Sn11 3.451679 1_655
Pr6 Sn2 3.511072 1_556
Pr6 Sn21 3.556778 1_555
Pr6 Sn5 3.592894 1_545
Pr6 Sn15 3.637999 1_655
Pr6 Sn15 3.637999 1_555
Pr6 Sn3 3.756786 1_645
Pr6 Sn3 3.756786 1_545
Pr7 Sn10 3.451679 1_555
Pr7 Sn10 3.451679 1_455
Pr7 Sn3 3.511072 1_554
Pr7 Sn20 3.556778 1_555
Pr7 Sn4 3.592894 1_565
Pr7 Sn14 3.637999 1_555
Pr7 Sn14 3.637999 1_455
Pr7 Sn2 3.756786 1_465
Pr7 Sn2 3.756786 1_565
Pr8 Sn18 3.293873 1_555
Pr8 Sn18 3.293873 1_455
Pr8 Sn10 3.319147 1_545
Pr8 Sn10 3.319147 1_445
Pr8 Sn19 3.345346 1_545
Pr8 Sn22 3.345818 1_455
Pr8 Sn22 3.345818 1_555
Pr8 Sn4 3.364205 1_555
Pr8 Sn12 3.734116 1_555
Pr9 Sn19 3.293873 1_655
Pr9 Sn19 3.293873 1_555
Pr9 Sn11 3.319147 1_565
Pr9 Sn11 3.319147 1_665
Pr9 Sn18 3.345346 1_565
Pr9 Sn23 3.345818 1_655
Pr9 Sn23 3.345818 1_555
Pr9 Sn5 3.364205 1_555
Pr9 Sn13 3.734116 1_555
Pr10 Sn16 3.293873 1_555
Pr10 Sn16 3.293873 1_655
Pr10 Sn8 3.319147 1_655
Pr10 Sn8 3.319147 1_555
Pr10 Sn17 3.345346 1_554
Pr10 Sn20 3.345818 1_555
Pr10 Sn20 3.345818 1_655
Pr10 Sn6 3.364205 1_555
Pr10 Sn14 3.734116 1_555
Pr11 Sn17 3.293873 1_555
Pr11 Sn17 3.293873 1_455
Pr11 Sn9 3.319147 1_455
Pr11 Sn9 3.319147 1_555
Pr11 Sn16 3.345346 1_556
Pr11 Sn21 3.345818 1_455
Pr11 Sn21 3.345818 1_555
Pr11 Sn7 3.364205 1_555
Pr11 Sn15 3.734116 1_555
Sn16 Sn20 3.070128 1_555
Sn17 Sn21 3.070128 1_555
Sn18 Sn22 3.070128 1_555
Sn19 Sn23 3.070128 1_555
Pd0 Sn17 2.651432 1_554
Pd0 Sn17 2.651432 1_454
Pd0 Sn8 2.713924 1_555
Pd0 Sn15 2.719584 1_554
Pd0 Sn16 2.878597 1_555
Pd0 Pr10 3.433106 1_455
Pd0 Pr10 3.433106 1_555
Pd0 Pr2 3.485310 1_555
Pd0 Pr2 3.485310 1_455
Pd0 Pr11 3.603577 1_554
Pd1 Sn16 2.651432 1_656
Pd1 Sn16 2.651432 1_556
Pd1 Sn9 2.713924 1_555
Pd1 Sn14 2.719584 1_556
Pd1 Sn17 2.878597 1_555
Pd1 Pr11 3.433106 1_655
Pd1 Pr11 3.433106 1_555
Pd1 Pr3 3.485310 1_555
Pd1 Pr3 3.485310 1_655
Pd1 Pr10 3.603577 1_556
Pd2 Sn19 2.651432 1_555
Pd2 Sn19 2.651432 1_655
Pd2 Sn10 2.713924 1_555
Pd2 Sn13 2.719584 1_555
Pd2 Sn18 2.878597 1_565
Pd2 Pr8 3.433106 1_665
Pd2 Pr8 3.433106 1_565
Pd2 Pr0 3.485310 1_555
Pd2 Pr0 3.485310 1_655
Pd2 Pr9 3.603577 1_555
Pd3 Sn18 2.651432 1_555
Pd3 Sn18 2.651432 1_455
Pd3 Sn11 2.713924 1_555
Pd3 Sn12 2.719584 1_555
Pd3 Sn19 2.878597 1_545
Pd3 Pr9 3.433106 1_445
Pd3 Pr9 3.433106 1_545
Pd3 Pr1 3.485310 1_555
Pd3 Pr1 3.485310 1_455
Pd3 Pr8 3.603577 1_555
Pd4 Sn22 2.621744 1_555
Pd4 Sn22 2.621744 1_455
Pd4 Sn8 2.647475 1_555
Pd4 Sn12 2.725259 1_555
Pd4 Sn4 2.767042 1_555
Pd4 Pr5 3.535828 1_555
Pd4 Pr5 3.535828 1_455
Pd4 Pr8 3.624163 1_555
Pd4 Pr2 3.672937 1_455
Pd4 Pr2 3.672937 1_555
Pd5 Sn23 2.621744 1_655
Pd5 Sn23 2.621744 1_555
Pd5 Sn9 2.647475 1_555
Pd5 Sn13 2.725259 1_555
Pd5 Sn5 2.767042 1_555
Pd5 Pr4 3.535828 1_555
Pd5 Pr4 3.535828 1_655
Pd5 Pr9 3.624163 1_555
Pd5 Pr3 3.672937 1_655
Pd5 Pr3 3.672937 1_555
Pd6 Sn20 2.621744 1_555
Pd6 Sn20 2.621744 1_655
Pd6 Sn10 2.647475 1_555
Pd6 Sn14 2.725259 1_555
Pd6 Sn6 2.767042 1_555
Pd6 Pr7 3.535828 1_555
Pd6 Pr7 3.535828 1_655
Pd6 Pr10 3.624163 1_555
Pd6 Pr0 3.672937 1_555
Pd6 Pr0 3.672937 1_655
Pd7 Sn21 2.621744 1_455
Pd7 Sn21 2.621744 1_555
Pd7 Sn11 2.647475 1_555
Pd7 Sn15 2.725259 1_555
Pd7 Sn7 2.767042 1_555
Pd7 Pr6 3.535828 1_555
Pd7 Pr6 3.535828 1_455
Pd7 Pr11 3.624163 1_555
Pd7 Pr1 3.672937 1_455
Pd7 Pr1 3.672937 1_555
Pd8 Sn15 2.605507 1_554
Pd8 Sn4 2.738282 1_555
Pd8 Sn3 2.746813 1_544
Pd8 Sn2 2.752976 1_455
Pd8 Sn2 2.752976 1_555
Pd8 Pr6 3.473348 1_454
Pd8 Pr6 3.473348 1_554
Pd8 Pr2 3.591923 1_555
Pd8 Pr2 3.591923 1_455
Pd9 Sn14 2.605507 1_556
Pd9 Sn5 2.738282 1_555
Pd9 Sn2 2.746813 1_566
Pd9 Sn3 2.752976 1_555
Pd9 Sn3 2.752976 1_655
Pd9 Pr7 3.473348 1_556
Pd9 Pr7 3.473348 1_656
Pd9 Pr3 3.591923 1_655
Pd9 Pr3 3.591923 1_555
Pd10 Sn13 2.605507 1_555
Pd10 Sn6 2.738282 1_555
Pd10 Sn1 2.746813 1_555
Pd10 Sn0 2.752976 1_655
Pd10 Sn0 2.752976 1_555
Pd10 Pr4 3.473348 1_555
Pd10 Pr4 3.473348 1_655
Pd10 Pr0 3.591923 1_655
Pd10 Pr0 3.591923 1_555
Pd11 Sn12 2.605507 1_555
Pd11 Sn7 2.738282 1_555
Pd11 Sn0 2.746813 1_555
Pd11 Sn1 2.752976 1_555
Pd11 Sn1 2.752976 1_455
Pd11 Pr5 3.473348 1_555
Pd11 Pr5 3.473348 1_455
Pd11 Pr1 3.591923 1_455
Pd11 Pr1 3.591923 1_555
Pd12 Sn0 2.681300 1_555
Pd12 Sn6 2.726238 1_455
Pd12 Sn6 2.726238 1_555
Pd12 Sn8 2.729055 1_555
Pd12 Sn20 2.782053 1_555
Pd12 Pr10 3.349157 1_455
Pd12 Pr10 3.349157 1_555
Pd12 Pr5 3.437049 1_555
Pd12 Pr5 3.437049 1_455
Pd13 Sn1 2.681300 1_555
Pd13 Sn7 2.726238 1_655
Pd13 Sn7 2.726238 1_555
Pd13 Sn9 2.729055 1_555
Pd13 Sn21 2.782053 1_555
Pd13 Pr11 3.349157 1_555
Pd13 Pr11 3.349157 1_655
Pd13 Pr4 3.437049 1_555
Pd13 Pr4 3.437049 1_655
Pd14 Sn2 2.681300 1_555
Pd14 Sn4 2.726238 1_655
Pd14 Sn4 2.726238 1_555
Pd14 Sn10 2.729055 1_545
Pd14 Sn22 2.782053 1_555
Pd14 Pr8 3.349157 1_655
Pd14 Pr8 3.349157 1_555
Pd14 Pr7 3.437049 1_545
Pd14 Pr7 3.437049 1_645
Pd15 Sn3 2.681300 1_555
Pd15 Sn5 2.726238 1_555
Pd15 Sn5 2.726238 1_455
Pd15 Sn11 2.729055 1_565
Pd15 Sn23 2.782053 1_555
Pd15 Pr9 3.349157 1_555
Pd15 Pr9 3.349157 1_455
Pd15 Pr6 3.437049 1_465
Pd15 Pr6 3.437049 1_565
