# generated using pymatgen
data_Zn3Cu2(CO6)2
_symmetry_space_group_name_H-M   'P 1'
_cell_length_a   5.19255614
_cell_length_b   6.05560100
_cell_length_c   14.18633864
_cell_angle_alpha   90.00000000
_cell_angle_beta   77.54526121
_cell_angle_gamma   90.00000000
_symmetry_Int_Tables_number   1
_chemical_formula_structural   Zn3Cu2(CO6)2
_chemical_formula_sum   'Zn6 Cu4 C4 O24'
_cell_volume   435.57826807
_cell_formula_units_Z   2
loop_
 _symmetry_equiv_pos_site_id
 _symmetry_equiv_pos_as_xyz
  1  'x, y, z'
loop_
 _atom_site_type_symbol
 _atom_site_label
 _atom_site_symmetry_multiplicity
 _atom_site_fract_x
 _atom_site_fract_y
 _atom_site_fract_z
 _atom_site_occupancy
  Zn  Zn0  1  0.26741000  0.74829000  0.86959100  1
  Zn  Zn1  1  0.73259000  0.24829000  0.13041000  1
  Zn  Zn2  1  0.16162400  0.00419600  0.24910400  1
  Zn  Zn3  1  0.83837600  0.50419600  0.75089600  1
  Zn  Zn4  1  0.50587500  0.74980800  0.61145800  1
  Zn  Zn5  1  0.49412500  0.24980800  0.38854200  1
  Cu  Cu0  1  0.32163000  0.24421400  0.75873200  1
  Cu  Cu1  1  0.67837000  0.74421400  0.24126800  1
  Cu  Cu2  1  0.83281700  0.00048000  0.75797100  1
  Cu  Cu3  1  0.16718300  0.50048000  0.24202900  1
  C  C0  1  0.52587000  0.25635100  0.95412300  1
  C  C1  1  0.47413000  0.75635100  0.04587700  1
  C  C2  1  0.07474500  0.74934700  0.55345700  1
  C  C3  1  0.92525500  0.24934700  0.44654300  1
  O  O0  1  0.86407500  0.75558000  0.52146100  1
  O  O1  1  0.13592500  0.25558000  0.47853900  1
  O  O2  1  0.56924100  0.26518100  0.85888200  1
  O  O3  1  0.43075900  0.76518100  0.14111800  1
  O  O4  1  0.66527600  0.76374100  0.82554000  1
  O  O5  1  0.33472400  0.26374100  0.17446000  1
  O  O6  1  0.12018100  0.48324800  0.82323100  1
  O  O7  1  0.87981900  0.98324800  0.17676900  1
  O  O8  1  0.89640100  0.51165700  0.17485500  1
  O  O9  1  0.10359900  0.01165700  0.82514500  1
  O  O10  1  0.07136800  0.72974400  0.64686500  1
  O  O11  1  0.92863200  0.22974400  0.35313500  1
  O  O12  1  0.02286800  0.22724200  0.69006900  1
  O  O13  1  0.97713200  0.72724200  0.30993100  1
  O  O14  1  0.28978700  0.25030300  0.00208200  1
  O  O15  1  0.71021300  0.75030300  0.99791800  1
  O  O16  1  0.53814900  0.47222100  0.68850100  1
  O  O17  1  0.46185100  0.97222100  0.31149900  1
  O  O18  1  0.44282300  0.52118500  0.30782900  1
  O  O19  1  0.55717700  0.02118500  0.69217100  1
  O  O20  1  0.72886100  0.25352700  0.99143400  1
  O  O21  1  0.27113900  0.75352700  0.00856600  1
  O  O22  1  0.30857500  0.76368400  0.50061300  1
  O  O23  1  0.69142500  0.26368400  0.49938700  1
loop_
_geom_bond_atom_site_label_1
_geom_bond_atom_site_label_2
_geom_bond_distance
_geom_bond_site_symmetry_2
Cu0 O6 1.901005 1_555
Cu0 O16 1.918307 1_555
Cu0 O9 1.921599 1_555
Cu0 O19 1.927036 1_555
Cu0 O12 2.004455 1_555
Cu0 O2 2.115592 1_555
Cu1 O7 1.901005 1_555
Cu1 O17 1.918307 1_555
Cu1 O8 1.921599 1_555
Cu1 O18 1.927036 1_555
Cu1 O13 2.004455 1_555
Cu1 O3 2.115592 1_555
Cu2 O4 1.836076 1_545
Cu2 O12 1.837763 1_655
Cu2 O9 1.862157 1_655
Cu2 O19 1.874008 1_555
Cu2 O2 2.376293 1_555
Cu2 O10 2.421659 1_645
Cu3 O5 1.836076 1_555
Cu3 O13 1.837763 1_455
Cu3 O8 1.862157 1_455
Cu3 O18 1.874008 1_555
Cu3 O3 2.376293 1_555
Cu3 O11 2.421659 1_455
C0 O14 1.267774 1_556
C0 O20 1.277541 1_555
C0 O2 1.322066 1_555
C1 O15 1.267774 1_554
C1 O21 1.277541 1_555
C1 O3 1.322066 1_555
C2 O0 1.272117 1_455
C2 O22 1.284968 1_555
C2 O10 1.326768 1_555
C3 O1 1.272117 1_655
C3 O23 1.284968 1_555
C3 O11 1.326768 1_555
O0 Zn4 2.016549 1_555
O1 Zn5 2.016549 1_555
O2 Zn3 2.339075 1_555
O3 Zn2 2.339075 1_565
O4 Zn3 1.997228 1_555
O4 Zn0 2.027441 1_555
O5 Zn2 1.997228 1_555
O5 Zn1 2.027440 1_555
O6 Zn0 1.951885 1_555
O6 Zn3 1.964183 1_455
O7 Zn1 1.951879 1_565
O7 Zn2 1.964183 1_665
O8 Zn1 1.973810 1_555
O9 Zn0 1.973816 1_545
O10 Zn3 2.176479 1_455
O10 Zn4 2.206510 1_555
O11 Zn2 2.176479 1_655
O11 Zn5 2.206510 1_555
O12 Zn3 2.029415 1_455
O13 Zn2 2.029415 1_665
O16 Zn3 1.961252 1_555
O16 Zn4 2.031566 1_555
O17 Zn2 1.961252 1_565
O17 Zn5 2.031566 1_565
O18 Zn5 2.052853 1_555
O19 Zn4 2.052853 1_545
O20 Zn1 1.976082 1_556
O21 Zn0 1.976067 1_554
O22 Zn4 2.055294 1_555
O23 Zn5 2.055294 1_555
