# generated using pymatgen
data_Ac3Lu
_symmetry_space_group_name_H-M   'P 1'
_cell_length_a   7.81939054
_cell_length_b   7.81939054
_cell_length_c   6.30725200
_cell_angle_alpha   90.00000000
_cell_angle_beta   90.00000000
_cell_angle_gamma   120.00000453
_symmetry_Int_Tables_number   1
_chemical_formula_structural   Ac3Lu
_chemical_formula_sum   'Ac6 Lu2'
_cell_volume   333.97703406
_cell_formula_units_Z   2
loop_
 _symmetry_equiv_pos_site_id
 _symmetry_equiv_pos_as_xyz
  1  'x, y, z'
loop_
 _atom_site_type_symbol
 _atom_site_label
 _atom_site_symmetry_multiplicity
 _atom_site_fract_x
 _atom_site_fract_y
 _atom_site_fract_z
 _atom_site_occupancy
  Ac  Ac0  1  0.82973000  0.17027000  0.75000000  1
  Ac  Ac1  1  0.34054100  0.17027000  0.75000000  1
  Ac  Ac2  1  0.82973000  0.65945900  0.75000000  1
  Ac  Ac3  1  0.17027000  0.82973000  0.25000000  1
  Ac  Ac4  1  0.65945900  0.82973000  0.25000000  1
  Ac  Ac5  1  0.17027000  0.34054100  0.25000000  1
  Lu  Lu0  1  0.66666700  0.33333300  0.25000000  1
  Lu  Lu1  1  0.33333300  0.66666700  0.75000000  1
loop_
_geom_bond_atom_site_label_1
_geom_bond_atom_site_label_2
_geom_bond_distance
_geom_bond_site_symmetry_2
Ac0 Ac1 3.825160 1_555
Ac0 Ac2 3.825160 1_555
Ac0 Lu0 3.850018 1_556
Ac0 Lu0 3.850018 1_555
Ac0 Ac5 3.906827 1_655
Ac0 Ac5 3.906827 1_656
Ac0 Ac4 3.906827 1_545
Ac0 Ac4 3.906827 1_546
Ac0 Lu1 3.910000 1_545
Ac0 Lu1 3.910000 1_655
Ac0 Ac1 3.994231 1_655
Ac0 Ac2 3.994231 1_545
Ac1 Ac2 3.825160 1_555
Ac1 Lu0 3.850018 1_556
Ac1 Lu0 3.850018 1_555
Ac1 Ac3 3.906827 1_546
Ac1 Ac3 3.906827 1_545
Ac1 Ac5 3.906835 1_555
Ac1 Ac5 3.906835 1_556
Ac1 Lu1 3.909992 1_545
Ac1 Lu1 3.910008 1_555
Ac1 Ac2 3.994230 1_445
Ac2 Lu0 3.850018 1_556
Ac2 Lu0 3.850018 1_555
Ac2 Ac3 3.906827 1_656
Ac2 Ac3 3.906827 1_655
Ac2 Ac4 3.906835 1_555
Ac2 Ac4 3.906835 1_556
Ac2 Lu1 3.909992 1_655
Ac2 Lu1 3.910008 1_555
Ac3 Ac4 3.825160 1_555
Ac3 Ac5 3.825160 1_555
Ac3 Lu1 3.850018 1_554
Ac3 Lu1 3.850018 1_555
Ac3 Lu0 3.910000 1_455
Ac3 Lu0 3.910000 1_565
Ac3 Ac5 3.994231 1_565
Ac3 Ac4 3.994231 1_455
Ac4 Ac5 3.825160 1_555
Ac4 Lu1 3.850018 1_554
Ac4 Lu1 3.850018 1_555
Ac4 Lu0 3.909992 1_565
Ac4 Lu0 3.910008 1_555
Ac4 Ac5 3.994230 1_665
Ac5 Lu1 3.850018 1_554
Ac5 Lu1 3.850018 1_555
Ac5 Lu0 3.909992 1_455
Ac5 Lu0 3.910008 1_555
