# generated using pymatgen
data_Mg6GaSi
_symmetry_space_group_name_H-M   'P 1'
_cell_length_a   5.16272100
_cell_length_b   6.02770600
_cell_length_c   10.59763400
_cell_angle_alpha   90.00000000
_cell_angle_beta   90.00000000
_cell_angle_gamma   90.00000000
_symmetry_Int_Tables_number   1
_chemical_formula_structural   Mg6GaSi
_chemical_formula_sum   'Mg12 Ga2 Si2'
_cell_volume   329.79163367
_cell_formula_units_Z   2
loop_
 _symmetry_equiv_pos_site_id
 _symmetry_equiv_pos_as_xyz
  1  'x, y, z'
loop_
 _atom_site_type_symbol
 _atom_site_label
 _atom_site_symmetry_multiplicity
 _atom_site_fract_x
 _atom_site_fract_y
 _atom_site_fract_z
 _atom_site_occupancy
  Mg  Mg0  1  0.00000000  0.74662000  0.08613700  1
  Mg  Mg1  1  0.00000000  0.25338000  0.08613700  1
  Mg  Mg2  1  0.00000000  0.00000000  0.33305200  1
  Mg  Mg3  1  0.50000000  0.25574000  0.41288300  1
  Mg  Mg4  1  0.50000000  0.74426000  0.41288300  1
  Mg  Mg5  1  0.50000000  0.00000000  0.16713600  1
  Mg  Mg6  1  0.00000000  0.24662000  0.58613700  1
  Mg  Mg7  1  0.00000000  0.75338000  0.58613700  1
  Mg  Mg8  1  0.00000000  0.50000000  0.83305200  1
  Mg  Mg9  1  0.50000000  0.75574000  0.91288300  1
  Mg  Mg10  1  0.50000000  0.24426000  0.91288300  1
  Mg  Mg11  1  0.50000000  0.50000000  0.66713600  1
  Ga  Ga0  1  0.50000000  0.50000000  0.16711800  1
  Ga  Ga1  1  0.50000000  0.00000000  0.66711800  1
  Si  Si0  1  0.00000000  0.50000000  0.33465600  1
  Si  Si1  1  0.00000000  0.00000000  0.83465600  1
loop_
_geom_bond_atom_site_label_1
_geom_bond_atom_site_label_2
_geom_bond_distance
_geom_bond_site_symmetry_2
Mg0 Mg1 2.973106 1_555
Mg0 Si0 3.024283 1_555
Mg0 Mg2 3.029825 1_565
Mg0 Mg1 3.054600 1_565
Mg0 Mg8 3.066515 1_554
Mg0 Si1 3.071713 1_564
Mg0 Mg5 3.119762 1_565
Mg0 Mg5 3.119762 1_465
Mg0 Mg9 3.168224 1_454
Mg0 Mg9 3.168224 1_554
Mg1 Si0 3.024283 1_555
Mg1 Mg2 3.029825 1_555
Mg1 Mg8 3.066515 1_554
Mg1 Si1 3.071713 1_554
Mg1 Mg5 3.119762 1_455
Mg1 Mg5 3.119762 1_555
Mg1 Mg10 3.168224 1_554
Mg1 Mg10 3.168224 1_454
Mg2 Si0 3.013901 1_545
Mg2 Si0 3.013901 1_555
Mg2 Mg6 3.066515 1_555
Mg2 Mg7 3.066515 1_545
Mg2 Mg5 3.123316 1_455
Mg2 Mg5 3.123316 1_555
Mg2 Mg4 3.123375 1_545
Mg2 Mg4 3.123375 1_445
Mg2 Mg3 3.123375 1_555
Mg2 Mg3 3.123375 1_455
Mg3 Mg4 2.944655 1_555
Mg3 Mg5 3.026363 1_555
Mg3 Mg4 3.083051 1_545
Mg3 Si0 3.085198 1_555
Mg3 Si0 3.085198 1_655
Mg3 Mg6 3.168224 1_555
Mg3 Mg6 3.168224 1_655
Mg4 Mg5 3.026363 1_565
Mg4 Si0 3.085198 1_555
Mg4 Si0 3.085198 1_655
Mg4 Mg7 3.168224 1_655
Mg4 Mg7 3.168224 1_555
Mg5 Mg9 3.070500 1_544
Mg6 Mg7 2.973106 1_545
Mg6 Si1 3.024283 1_555
Mg6 Mg8 3.029825 1_555
Mg6 Mg7 3.054600 1_555
Mg6 Si0 3.071713 1_555
Mg7 Si1 3.024283 1_565
Mg7 Mg8 3.029825 1_555
Mg7 Si0 3.071713 1_555
Mg8 Si1 3.013901 1_565
Mg8 Si1 3.013901 1_555
Mg8 Mg9 3.123375 1_455
Mg8 Mg9 3.123375 1_555
Mg9 Si1 3.085198 1_665
Mg9 Si1 3.085198 1_565
Mg10 Mg9 2.944655 1_545
Mg10 Mg11 3.026363 1_555
Mg10 Mg5 3.070500 1_556
Mg10 Mg9 3.083051 1_555
Mg10 Si1 3.085198 1_555
Mg10 Si1 3.085198 1_655
Mg10 Mg8 3.123375 1_555
Mg10 Mg8 3.123375 1_655
Mg11 Mg9 3.026363 1_555
Mg11 Mg3 3.070500 1_555
Mg11 Mg4 3.070500 1_555
Mg11 Mg6 3.119762 1_555
Mg11 Mg6 3.119762 1_655
Mg11 Mg7 3.119762 1_655
Mg11 Mg7 3.119762 1_555
Mg11 Mg8 3.123316 1_655
Mg11 Mg8 3.123316 1_555
Ga0 Mg4 2.991874 1_555
Ga0 Mg3 2.991874 1_555
Ga0 Mg5 3.013853 1_565
Ga0 Mg5 3.013853 1_555
Ga0 Mg1 3.099965 1_555
Ga0 Mg0 3.099965 1_655
Ga0 Mg1 3.099965 1_655
Ga0 Mg0 3.099965 1_555
Ga0 Mg10 3.104110 1_554
Ga0 Mg9 3.104110 1_554
Ga1 Mg9 2.991874 1_545
Ga1 Mg10 2.991874 1_555
Ga1 Mg11 3.013853 1_545
Ga1 Mg11 3.013853 1_555
Ga1 Mg6 3.099965 1_655
Ga1 Mg6 3.099965 1_555
Ga1 Mg7 3.099965 1_545
Ga1 Mg7 3.099965 1_645
Ga1 Mg3 3.104110 1_555
Ga1 Mg4 3.104110 1_545
