# generated using pymatgen
data_Li7Mn2(CoO4)3
_symmetry_space_group_name_H-M   'P 1'
_cell_length_a   2.93350400
_cell_length_b   7.70036728
_cell_length_c   10.16736178
_cell_angle_alpha   107.70238311
_cell_angle_beta   89.58113265
_cell_angle_gamma   100.81077960
_symmetry_Int_Tables_number   1
_chemical_formula_structural   Li7Mn2(CoO4)3
_chemical_formula_sum   'Li7 Mn2 Co3 O12'
_cell_volume   214.60910647
_cell_formula_units_Z   1
loop_
 _symmetry_equiv_pos_site_id
 _symmetry_equiv_pos_as_xyz
  1  'x, y, z'
loop_
 _atom_site_type_symbol
 _atom_site_label
 _atom_site_symmetry_multiplicity
 _atom_site_fract_x
 _atom_site_fract_y
 _atom_site_fract_z
 _atom_site_occupancy
  Li  Li0  1  0.99356300  0.49219300  0.75723900  1
  Li  Li1  1  0.33290500  0.16996600  0.25472000  1
  Li  Li2  1  0.66709500  0.83003400  0.74528000  1
  Li  Li3  1  0.34120400  0.17672100  0.75476500  1
  Li  Li4  1  0.65879600  0.82327900  0.24523500  1
  Li  Li5  1  0.00643700  0.50780700  0.24276100  1
  Li  Li6  1  0.50000000  0.50000000  0.00000000  1
  Mn  Mn0  1  0.16683500  0.82522900  0.00400700  1
  Mn  Mn1  1  0.83316500  0.17477100  0.99599300  1
  Co  Co0  1  0.50000000  0.50000000  0.50000000  1
  Co  Co1  1  0.16589400  0.83268600  0.50055800  1
  Co  Co2  1  0.83410600  0.16731400  0.49944200  1
  O  O0  1  0.60262500  0.69183500  0.89037700  1
  O  O1  1  0.91653400  0.33401000  0.38280300  1
  O  O2  1  0.25574000  0.01105900  0.89301000  1
  O  O3  1  0.90649300  0.31779000  0.88132700  1
  O  O4  1  0.24502500  0.00373300  0.38594100  1
  O  O5  1  0.57476800  0.66456700  0.38398900  1
  O  O6  1  0.42523200  0.33543300  0.61601100  1
  O  O7  1  0.74426000  0.98894100  0.10699000  1
  O  O8  1  0.08346600  0.66599000  0.61719700  1
  O  O9  1  0.75497500  0.99626700  0.61405900  1
  O  O10  1  0.09350700  0.68221000  0.11867300  1
  O  O11  1  0.39737500  0.30816500  0.10962300  1
loop_
_geom_bond_atom_site_label_1
_geom_bond_atom_site_label_2
_geom_bond_distance
_geom_bond_site_symmetry_2
Li0 O3 2.087481 1_555
Li0 O6 2.127082 1_555
Li0 O6 2.148306 1_655
Li0 O0 2.209989 1_555
Li0 O8 2.215611 1_655
Li0 O0 2.264381 1_655
Li1 O11 2.054215 1_555
Li1 O1 2.082925 1_455
Li1 O4 2.096376 1_555
Li1 O1 2.108001 1_555
Li1 O7 2.233059 1_545
Li1 O7 2.245585 1_445
Li2 O0 2.054215 1_555
Li2 O8 2.082925 1_655
Li2 O9 2.096376 1_555
Li2 O8 2.108001 1_555
Li2 O2 2.233059 1_565
Li2 O2 2.245585 1_665
Li3 O3 2.022652 1_555
Li3 O3 2.026734 1_455
Li3 O6 2.115438 1_555
Li3 O2 2.152009 1_555
Li3 O9 2.202093 1_545
Li3 O9 2.205789 1_445
Li4 O10 2.022652 1_555
Li4 O10 2.026734 1_655
Li4 O5 2.115438 1_555
Li4 O7 2.152009 1_555
Li4 O4 2.202093 1_565
Li4 O4 2.205789 1_665
Li5 O10 2.087481 1_555
Li5 O5 2.127082 1_555
Li5 O5 2.148306 1_455
Li5 O11 2.209989 1_555
Li5 O1 2.215611 1_455
Li5 O11 2.264381 1_455
Li6 O0 2.084366 1_554
Li6 O11 2.084366 1_555
Li6 O3 2.103207 1_554
Li6 O10 2.103207 1_555
Li6 O10 2.130856 1_655
Li6 O3 2.130856 1_454
Mn0 O10 1.818415 1_555
Mn0 O0 1.942538 1_554
Mn0 O0 1.948783 1_454
Mn0 O7 1.994226 1_555
Mn0 O7 1.996685 1_455
Mn0 O2 2.055985 1_564
Mn1 O3 1.818415 1_555
Mn1 O11 1.942538 1_556
Mn1 O11 1.948783 1_656
Mn1 O2 1.994226 1_555
Mn1 O2 1.996685 1_655
Mn1 O7 2.055985 1_546
Co0 O6 1.961176 1_555
Co0 O5 1.961176 1_555
Co0 O1 2.045735 1_555
Co0 O8 2.045735 1_555
Co0 O1 2.065450 1_455
Co0 O8 2.065450 1_655
Co1 O8 1.979309 1_555
Co1 O4 1.990364 1_565
Co1 O9 2.009160 1_455
Co1 O5 2.036634 1_555
Co1 O9 2.057478 1_555
Co1 O5 2.083855 1_455
Co2 O1 1.979309 1_555
Co2 O9 1.990364 1_545
Co2 O4 2.009160 1_655
Co2 O6 2.036634 1_555
Co2 O4 2.057478 1_555
Co2 O6 2.083855 1_655
