# generated using pymatgen
data_CsMg14Cr
_symmetry_space_group_name_H-M   'P 1'
_cell_length_a   6.51826012
_cell_length_b   6.51825957
_cell_length_c   10.76974864
_cell_angle_alpha   90.00000000
_cell_angle_beta   90.00000000
_cell_angle_gamma   120.00000278
_symmetry_Int_Tables_number   1
_chemical_formula_structural   CsMg14Cr
_chemical_formula_sum   'Cs1 Mg14 Cr1'
_cell_volume   396.27760123
_cell_formula_units_Z   1
loop_
 _symmetry_equiv_pos_site_id
 _symmetry_equiv_pos_as_xyz
  1  'x, y, z'
loop_
 _atom_site_type_symbol
 _atom_site_label
 _atom_site_symmetry_multiplicity
 _atom_site_fract_x
 _atom_site_fract_y
 _atom_site_fract_z
 _atom_site_occupancy
  Cs  Cs0  1  0.16666700  0.33333300  0.12500000  1
  Mg  Mg0  1  0.17237054  0.83618477  0.12500000  1
  Mg  Mg1  1  0.16189460  0.83094680  0.62500000  1
  Mg  Mg2  1  0.66381523  0.32762946  0.12500000  1
  Mg  Mg3  1  0.66905320  0.33810540  0.62500000  1
  Mg  Mg4  1  0.66381523  0.83618477  0.12500000  1
  Mg  Mg5  1  0.66905320  0.83094680  0.62500000  1
  Mg  Mg6  1  0.33643613  0.16356387  0.39792555  1
  Mg  Mg7  1  0.33643613  0.16356387  0.85207445  1
  Mg  Mg8  1  0.33643613  0.67287326  0.39792555  1
  Mg  Mg9  1  0.33643613  0.67287326  0.85207445  1
  Mg  Mg10  1  0.82712674  0.16356387  0.39792555  1
  Mg  Mg11  1  0.82712674  0.16356387  0.85207445  1
  Mg  Mg12  1  0.83333300  0.66666700  0.36892078  1
  Mg  Mg13  1  0.83333300  0.66666700  0.88107922  1
  Cr  Cr0  1  0.16666700  0.33333300  0.62500000  1
loop_
_geom_bond_atom_site_label_1
_geom_bond_atom_site_label_2
_geom_bond_distance
_geom_bond_site_symmetry_2
Cs0 Mg0 3.259289 1_555
Cs0 Mg4 3.259289 1_555
Cs0 Mg0 3.259289 1_545
Cs0 Mg4 3.259289 1_445
Cs0 Mg2 3.259289 1_555
Cs0 Mg2 3.259289 1_455
Cs0 Mg7 3.509046 1_554
Cs0 Mg6 3.509046 1_555
Cs0 Mg9 3.509052 1_554
Cs0 Mg8 3.509052 1_555
Cs0 Mg11 3.509052 1_454
Cs0 Mg10 3.509052 1_455
Mg0 Mg13 3.250201 1_454
Mg0 Mg12 3.250201 1_455
Mg0 Mg9 3.472026 1_554
Mg0 Mg8 3.472026 1_555
Mg0 Mg7 3.472032 1_564
Mg0 Mg6 3.472032 1_565
Mg1 Mg8 3.083654 1_555
Mg1 Mg9 3.083654 1_555
Mg1 Mg6 3.083661 1_565
Mg1 Mg7 3.083661 1_565
Mg1 Mg3 3.212468 1_455
Mg1 Mg5 3.212468 1_455
Mg1 Mg3 3.305791 1_565
Mg1 Mg5 3.305792 1_555
Mg1 Mg12 3.323561 1_455
Mg1 Mg13 3.323561 1_455
Mg2 Mg7 3.472032 1_554
Mg2 Mg6 3.472032 1_555
Mg3 Mg6 3.083661 1_555
Mg3 Mg7 3.083661 1_555
Mg3 Mg5 3.212468 1_555
Mg3 Mg5 3.305791 1_545
Mg4 Mg9 3.472032 1_554
Mg4 Mg8 3.472032 1_555
Mg5 Mg8 3.083661 1_555
Mg5 Mg9 3.083661 1_555
Mg6 Mg8 3.198449 1_545
Mg6 Mg8 3.319811 1_555
Mg7 Mg9 3.198449 1_545
Mg7 Mg9 3.319811 1_555
Mg10 Mg3 3.083654 1_555
Mg10 Mg5 3.083661 1_545
Mg10 Mg8 3.198449 1_545
Mg10 Mg6 3.198449 1_555
Mg10 Mg12 3.274253 1_555
Mg10 Mg12 3.274253 1_545
Mg10 Mg8 3.319811 1_655
Mg10 Mg6 3.319811 1_655
Mg10 Mg2 3.472026 1_555
Mg10 Mg4 3.472032 1_545
Mg11 Mg3 3.083654 1_555
Mg11 Mg5 3.083661 1_545
Mg11 Mg9 3.198449 1_545
Mg11 Mg7 3.198449 1_555
Mg11 Mg13 3.274253 1_555
Mg11 Mg13 3.274253 1_545
Mg11 Mg9 3.319811 1_655
Mg11 Mg7 3.319811 1_655
Mg11 Mg2 3.472026 1_556
Mg11 Mg4 3.472032 1_546
Mg12 Mg4 3.250194 1_555
Mg12 Mg2 3.250201 1_555
Mg12 Mg6 3.274253 1_555
Mg12 Mg6 3.274253 1_665
Mg12 Mg8 3.274253 1_555
Mg12 Mg8 3.274253 1_655
Mg12 Mg5 3.323555 1_555
Mg12 Mg3 3.323561 1_555
Mg13 Mg4 3.250194 1_556
Mg13 Mg2 3.250201 1_556
Mg13 Mg7 3.274253 1_555
Mg13 Mg7 3.274253 1_665
Mg13 Mg9 3.274253 1_555
Mg13 Mg9 3.274253 1_655
Mg13 Mg5 3.323555 1_555
Mg13 Mg3 3.323561 1_555
Cr0 Mg6 3.107141 1_555
Cr0 Mg7 3.107141 1_555
Cr0 Mg8 3.107148 1_555
Cr0 Mg9 3.107148 1_555
Cr0 Mg10 3.107148 1_455
Cr0 Mg11 3.107148 1_455
Cr0 Mg1 3.259241 1_545
Cr0 Mg5 3.259241 1_445
Cr0 Mg5 3.259241 1_555
Cr0 Mg1 3.259241 1_555
Cr0 Mg3 3.259241 1_455
Cr0 Mg3 3.259241 1_555
