# generated using pymatgen
data_CdAu3
_symmetry_space_group_name_H-M   'P 1'
_cell_length_a   4.16047153
_cell_length_b   4.16047153
_cell_length_c   4.17894599
_cell_angle_alpha   90.00000000
_cell_angle_beta   90.00000000
_cell_angle_gamma   90.00000000
_symmetry_Int_Tables_number   1
_chemical_formula_structural   CdAu3
_chemical_formula_sum   'Cd1 Au3'
_cell_volume   72.33556320
_cell_formula_units_Z   1
loop_
 _symmetry_equiv_pos_site_id
 _symmetry_equiv_pos_as_xyz
  1  'x, y, z'
loop_
 _atom_site_type_symbol
 _atom_site_label
 _atom_site_symmetry_multiplicity
 _atom_site_fract_x
 _atom_site_fract_y
 _atom_site_fract_z
 _atom_site_occupancy
  Cd  Cd0  1  0.00000000  0.00000000  -0.00000000  1
  Au  Au0  1  0.00000000  0.50000000  0.50000000  1
  Au  Au1  1  0.50000000  0.00000000  0.50000000  1
  Au  Au2  1  0.50000000  0.50000000  -0.00000000  1
loop_
_geom_bond_atom_site_label_1
_geom_bond_atom_site_label_2
_geom_bond_distance
_geom_bond_site_symmetry_2
Au0 Au1 2.941898 1_455
Au0 Au1 2.941898 1_555
Au0 Au1 2.941898 1_465
Au0 Au1 2.941898 1_565
Au0 Cd0 2.948437 1_555
Au0 Cd0 2.948437 1_556
Au0 Cd0 2.948437 1_566
Au0 Au2 2.948437 1_555
Au0 Au2 2.948437 1_556
Au0 Au2 2.948437 1_456
Au0 Au2 2.948437 1_455
Au0 Cd0 2.948437 1_565
Au1 Cd0 2.948437 1_555
Au1 Au2 2.948437 1_546
Au1 Cd0 2.948437 1_556
Au1 Au2 2.948437 1_555
Au1 Au2 2.948437 1_545
Au1 Au2 2.948437 1_556
Au1 Cd0 2.948437 1_656
Au1 Cd0 2.948437 1_655
Au2 Cd0 2.941898 1_555
Au2 Cd0 2.941898 1_665
Au2 Cd0 2.941898 1_565
Au2 Cd0 2.941898 1_655
