# generated using pymatgen
data_La3AlZnS7
_symmetry_space_group_name_H-M   'P 1'
_cell_length_a   10.28280358
_cell_length_b   10.28280358
_cell_length_c   5.98890000
_cell_angle_alpha   90.00000000
_cell_angle_beta   90.00000000
_cell_angle_gamma   119.99999729
_symmetry_Int_Tables_number   1
_chemical_formula_structural   La3AlZnS7
_chemical_formula_sum   'La6 Al2 Zn2 S14'
_cell_volume   548.40421629
_cell_formula_units_Z   2
loop_
 _symmetry_equiv_pos_site_id
 _symmetry_equiv_pos_as_xyz
  1  'x, y, z'
loop_
 _atom_site_type_symbol
 _atom_site_label
 _atom_site_symmetry_multiplicity
 _atom_site_fract_x
 _atom_site_fract_y
 _atom_site_fract_z
 _atom_site_occupancy
  La  La0  1  0.75762700  0.12949700  0.23952100  1
  La  La1  1  0.37187000  0.24237300  0.23952100  1
  La  La2  1  0.87050300  0.62813000  0.23952100  1
  La  La3  1  0.24237300  0.87050300  0.73952100  1
  La  La4  1  0.62813000  0.75762700  0.73952100  1
  La  La5  1  0.12949700  0.37187000  0.73952100  1
  Al  Al0  1  0.66666700  0.33333300  0.65807900  1
  Al  Al1  1  0.33333300  0.66666700  0.15807900  1
  Zn  Zn0  1  0.00000000  0.00000000  0.99855900  1
  Zn  Zn1  1  0.00000000  0.00000000  0.49855900  1
  S  S0  1  0.84742900  0.08043300  0.75090700  1
  S  S1  1  0.23300400  0.15257100  0.75090700  1
  S  S2  1  0.91956700  0.76699600  0.75090700  1
  S  S3  1  0.15257100  0.91956700  0.25090700  1
  S  S4  1  0.76699600  0.84742900  0.25090700  1
  S  S5  1  0.08043300  0.23300400  0.25090700  1
  S  S6  1  0.89558500  0.41101200  0.50856100  1
  S  S7  1  0.51542700  0.10441500  0.50856100  1
  S  S8  1  0.58898800  0.48457300  0.50856100  1
  S  S9  1  0.10441500  0.58898800  0.00856100  1
  S  S10  1  0.48457300  0.89558500  0.00856100  1
  S  S11  1  0.41101200  0.51542700  0.00856100  1
  S  S12  1  0.66666700  0.33333300  0.02839200  1
  S  S13  1  0.33333300  0.66666700  0.52839200  1
loop_
_geom_bond_atom_site_label_1
_geom_bond_atom_site_label_2
_geom_bond_distance
_geom_bond_site_symmetry_2
La0 S7 2.867558 1_555
La0 S5 2.936433 1_655
La0 S4 2.950588 1_545
La0 S12 2.971077 1_555
La0 S10 2.971305 1_545
La0 S6 2.980220 1_555
La0 S0 3.183726 1_554
La0 S0 3.309512 1_555
La1 S8 2.867559 1_555
La1 S3 2.936433 1_545
La1 S5 2.950588 1_555
La1 S12 2.971086 1_555
La1 S11 2.971305 1_555
La1 S7 2.980220 1_555
La1 S1 3.183726 1_554
La1 S1 3.309512 1_555
La2 S6 2.867558 1_555
La2 S4 2.936433 1_555
La2 S3 2.950588 1_655
La2 S12 2.971084 1_555
La2 S9 2.971305 1_655
La2 S8 2.980220 1_555
La2 S2 3.183726 1_554
La2 S2 3.309512 1_555
La3 S10 2.867558 1_556
La3 S2 2.936433 1_455
La3 S1 2.950588 1_565
La3 S13 2.971077 1_555
La3 S7 2.971305 1_565
La3 S9 2.980220 1_556
La3 S3 3.183726 1_555
La3 S3 3.309512 1_556
La4 S11 2.867559 1_556
La4 S0 2.936433 1_565
La4 S2 2.950588 1_555
La4 S13 2.971086 1_555
La4 S8 2.971305 1_555
La4 S10 2.980220 1_556
La4 S4 3.183726 1_555
La4 S4 3.309512 1_556
La5 S9 2.867558 1_556
La5 S1 2.936433 1_555
La5 S0 2.950588 1_455
La5 S13 2.971084 1_555
La5 S6 2.971305 1_455
La5 S11 2.980220 1_556
La5 S5 3.183726 1_555
La5 S5 3.309512 1_556
Al0 S12 2.217768 1_556
Al0 S6 2.258443 1_555
Al0 S7 2.258445 1_555
Al0 S8 2.258452 1_555
Al1 S13 2.217768 1_555
Al1 S9 2.258443 1_555
Al1 S10 2.258445 1_555
Al1 S11 2.258452 1_555
S0 Zn0 2.577345 1_655
S0 Zn1 2.593631 1_655
S1 Zn0 2.577345 1_555
S1 Zn1 2.593631 1_555
S2 Zn0 2.577345 1_665
S2 Zn1 2.593631 1_665
S3 Zn1 2.577345 1_565
S3 Zn0 2.593631 1_564
S4 Zn1 2.577345 1_665
S4 Zn0 2.593631 1_664
S5 Zn1 2.577345 1_555
S5 Zn0 2.593631 1_554
