# generated using pymatgen
data_Zn2CdN2
_symmetry_space_group_name_H-M   'P 1'
_cell_length_a   7.69539600
_cell_length_b   7.69539600
_cell_length_c   7.69539600
_cell_angle_alpha   90.00000000
_cell_angle_beta   90.00000000
_cell_angle_gamma   90.00000000
_symmetry_Int_Tables_number   1
_chemical_formula_structural   Zn2CdN2
_chemical_formula_sum   'Zn4 Cd2 N4'
_cell_volume   455.71457607
_cell_formula_units_Z   2
loop_
 _symmetry_equiv_pos_site_id
 _symmetry_equiv_pos_as_xyz
  1  'x, y, z'
loop_
 _atom_site_type_symbol
 _atom_site_label
 _atom_site_symmetry_multiplicity
 _atom_site_fract_x
 _atom_site_fract_y
 _atom_site_fract_z
 _atom_site_occupancy
  Zn  Zn0  1  0.30625100  0.30625100  0.69374900  1
  Zn  Zn1  1  0.30625100  0.69374900  0.30625100  1
  Zn  Zn2  1  0.69374900  0.30625100  0.30625100  1
  Zn  Zn3  1  0.69374900  0.69374900  0.69374900  1
  Cd  Cd0  1  0.00000000  0.00000000  0.00000000  1
  Cd  Cd1  1  0.50000000  0.50000000  0.50000000  1
  N  N0  1  0.16222500  0.16222500  0.83777500  1
  N  N1  1  0.16222500  0.83777500  0.16222500  1
  N  N2  1  0.83777500  0.16222500  0.16222500  1
  N  N3  1  0.83777500  0.83777500  0.83777500  1
loop_
_geom_bond_atom_site_label_1
_geom_bond_atom_site_label_2
_geom_bond_distance
_geom_bond_site_symmetry_2
Cd0 N3 2.162267 1_444
Cd0 N1 2.162267 1_545
Cd0 N0 2.162267 1_554
Cd0 N2 2.162267 1_455
Cd1 Zn3 2.582445 1_555
Cd1 Zn2 2.582445 1_555
Cd1 Zn0 2.582445 1_555
Cd1 Zn1 2.582445 1_555
N0 Zn0 1.919696 1_555
N1 Zn1 1.919696 1_555
N2 Zn2 1.919696 1_555
N3 Zn3 1.919696 1_555
