# generated using pymatgen
data_AlTlSiO4
_symmetry_space_group_name_H-M   'P 1'
_cell_length_a   5.25689654
_cell_length_b   7.44417731
_cell_length_c   13.06299800
_cell_angle_alpha   90.00000000
_cell_angle_beta   90.00000000
_cell_angle_gamma   86.99193964
_symmetry_Int_Tables_number   1
_chemical_formula_structural   AlTlSiO4
_chemical_formula_sum   'Al4 Tl4 Si4 O16'
_cell_volume   510.49347866
_cell_formula_units_Z   4
loop_
 _symmetry_equiv_pos_site_id
 _symmetry_equiv_pos_as_xyz
  1  'x, y, z'
loop_
 _atom_site_type_symbol
 _atom_site_label
 _atom_site_symmetry_multiplicity
 _atom_site_fract_x
 _atom_site_fract_y
 _atom_site_fract_z
 _atom_site_occupancy
  Al  Al0  1  0.25054300  0.97938800  0.46278000  1
  Al  Al1  1  0.24945700  0.52061200  0.96278000  1
  Al  Al2  1  0.75054300  0.47938800  0.03722000  1
  Al  Al3  1  0.74945700  0.02061200  0.53722000  1
  Tl  Tl0  1  0.23039100  0.51331300  0.75739900  1
  Tl  Tl1  1  0.73039100  0.01331300  0.74260100  1
  Tl  Tl2  1  0.76960900  0.48668700  0.24260100  1
  Tl  Tl3  1  0.26960900  0.98668700  0.25739900  1
  Si  Si0  1  0.74205200  0.76798100  0.91285200  1
  Si  Si1  1  0.75794800  0.73201900  0.41285200  1
  Si  Si2  1  0.24205200  0.26798100  0.58714800  1
  Si  Si3  1  0.25794800  0.23201900  0.08714800  1
  O  O0  1  0.01892800  0.15836100  0.51908400  1
  O  O1  1  0.26140600  0.18754300  0.70261200  1
  O  O2  1  0.76140600  0.68754300  0.79738800  1
  O  O3  1  0.77683400  0.51561900  0.41039500  1
  O  O4  1  0.27683400  0.01561900  0.08960500  1
  O  O5  1  0.96943500  0.66332400  0.98960200  1
  O  O6  1  0.48107200  0.34163900  0.01908400  1
  O  O7  1  0.46943500  0.16332400  0.51039800  1
  O  O8  1  0.23859400  0.31245700  0.20261200  1
  O  O9  1  0.72316600  0.98438100  0.91039500  1
  O  O10  1  0.22316600  0.48438100  0.58960500  1
  O  O11  1  0.51892800  0.65836100  0.98091600  1
  O  O12  1  0.53056500  0.83667600  0.48960200  1
  O  O13  1  0.03056500  0.33667600  0.01039800  1
  O  O14  1  0.73859400  0.81245700  0.29738800  1
  O  O15  1  0.98107200  0.84163900  0.48091600  1
loop_
_geom_bond_atom_site_label_1
_geom_bond_atom_site_label_2
_geom_bond_distance
_geom_bond_site_symmetry_2
Al0 O12 1.803937 1_555
Al0 O15 1.807425 1_455
Al0 O0 1.904794 1_565
Al0 O7 1.936810 1_565
Al0 Tl3 2.685419 1_555
Al1 O5 1.803937 1_455
Al1 O11 1.807425 1_555
Al1 O6 1.904794 1_556
Al1 O13 1.936810 1_556
Al1 Tl0 2.685419 1_555
Al2 O13 1.803937 1_655
Al2 O6 1.807425 1_555
Al2 O11 1.904794 1_554
Al2 O5 1.936810 1_554
Al2 Tl2 2.685419 1_555
Al3 O7 1.803937 1_555
Al3 O0 1.807425 1_655
Al3 O15 1.904794 1_545
Al3 O12 1.936810 1_545
Al3 Tl1 2.685419 1_555
O0 Si2 1.712508 1_555
O1 Si2 1.624038 1_555
O1 Tl0 2.525539 1_555
O1 Tl1 2.774474 1_555
O2 Si0 1.624038 1_555
O2 Tl1 2.525539 1_565
O2 Tl0 2.774474 1_655
O3 Si1 1.609088 1_555
O3 Tl2 2.202971 1_555
O4 Si3 1.609088 1_555
O4 Tl3 2.202971 1_545
O5 Si0 1.715582 1_555
O6 Si3 1.712508 1_555
O7 Si2 1.715582 1_555
O8 Si3 1.624038 1_555
O8 Tl3 2.525539 1_545
O8 Tl2 2.774474 1_455
O9 Si0 1.609088 1_555
O9 Tl1 2.202971 1_565
O10 Si2 1.609088 1_555
O10 Tl0 2.202971 1_555
O11 Si0 1.712508 1_555
O12 Si1 1.715582 1_555
O13 Si3 1.715582 1_555
O14 Si1 1.624038 1_555
O14 Tl2 2.525539 1_555
O14 Tl3 2.774474 1_555
O15 Si1 1.712508 1_555
