# generated using pymatgen
data_Tb2Si3
_symmetry_space_group_name_H-M   'P 1'
_cell_length_a   3.93367899
_cell_length_b   4.16992739
_cell_length_c   12.41823856
_cell_angle_alpha   99.67636984
_cell_angle_beta   90.00000000
_cell_angle_gamma   90.00000000
_symmetry_Int_Tables_number   1
_chemical_formula_structural   Tb2Si3
_chemical_formula_sum   'Tb4 Si6'
_cell_volume   200.80025993
_cell_formula_units_Z   2
loop_
 _symmetry_equiv_pos_site_id
 _symmetry_equiv_pos_as_xyz
  1  'x, y, z'
loop_
 _atom_site_type_symbol
 _atom_site_label
 _atom_site_symmetry_multiplicity
 _atom_site_fract_x
 _atom_site_fract_y
 _atom_site_fract_z
 _atom_site_occupancy
  Tb  Tb0  1  0.75000000  0.43052342  0.86190098  1
  Tb  Tb1  1  0.25000000  0.56944713  0.13804709  1
  Tb  Tb2  1  0.75000000  0.70241874  0.40459272  1
  Tb  Tb3  1  0.25000000  0.29759683  0.59543281  1
  Si  Si0  1  0.75000000  0.02432082  0.04892158  1
  Si  Si1  1  0.25000000  0.97567982  0.95107438  1
  Si  Si2  1  0.75000000  0.11886918  0.23767564  1
  Si  Si3  1  0.25000000  0.88112888  0.76232638  1
  Si  Si4  1  0.75000000  0.82360904  0.64673946  1
  Si  Si5  1  0.25000000  0.17640616  0.35328896  1
loop_
_geom_bond_atom_site_label_1
_geom_bond_atom_site_label_2
_geom_bond_distance
_geom_bond_site_symmetry_2
Si0 Si1 2.302866 1_544
Si0 Si1 2.302866 1_644
Si0 Si2 2.310645 1_555
Si0 Tb1 3.065446 1_545
Si0 Tb1 3.065446 1_645
Si0 Tb1 3.068359 1_555
Si0 Tb1 3.068359 1_655
Si0 Tb0 3.096024 1_554
Si0 Tb0 3.097049 1_544
Si1 Si3 2.310570 1_555
Si1 Tb0 3.065638 1_565
Si1 Tb0 3.065638 1_465
Si1 Tb0 3.068585 1_555
Si1 Tb0 3.068585 1_455
Si1 Tb1 3.095607 1_556
Si1 Tb1 3.096599 1_566
Si2 Si5 2.423118 1_555
Si2 Si5 2.423118 1_655
Si2 Tb2 2.919283 1_555
Si2 Tb2 2.919297 1_545
Si2 Tb1 3.113711 1_545
Si2 Tb1 3.113711 1_645
Si2 Tb1 3.116211 1_655
Si2 Tb1 3.116211 1_555
Si3 Si4 2.422929 1_555
Si3 Si4 2.422929 1_455
Si3 Tb3 2.919065 1_555
Si3 Tb3 2.919112 1_565
Si3 Tb0 3.113451 1_565
Si3 Tb0 3.113451 1_465
Si3 Tb0 3.115954 1_555
Si3 Tb0 3.115954 1_455
Si4 Tb3 2.933303 1_665
Si4 Tb3 2.933303 1_565
Si4 Tb3 2.935260 1_655
Si4 Tb3 2.935260 1_555
Si4 Tb2 2.964255 1_555
Si4 Tb0 3.357217 1_565
Si4 Tb0 3.361288 1_555
Si5 Tb2 2.933290 1_445
Si5 Tb2 2.933290 1_545
Si5 Tb2 2.935258 1_455
Si5 Tb2 2.935258 1_555
Si5 Tb3 2.964219 1_555
Si5 Tb1 3.358000 1_545
Si5 Tb1 3.362048 1_555
