# generated using pymatgen
data_Ca3Sn2(GeO4)3
_symmetry_space_group_name_H-M   'P 1'
_cell_length_a   11.18640790
_cell_length_b   11.18640727
_cell_length_c   11.18640742
_cell_angle_alpha   109.47122089
_cell_angle_beta   109.47121974
_cell_angle_gamma   109.47121984
_symmetry_Int_Tables_number   1
_chemical_formula_structural   Ca3Sn2(GeO4)3
_chemical_formula_sum   'Ca12 Sn8 Ge12 O48'
_cell_volume   1077.58125471
_cell_formula_units_Z   4
loop_
 _symmetry_equiv_pos_site_id
 _symmetry_equiv_pos_as_xyz
  1  'x, y, z'
loop_
 _atom_site_type_symbol
 _atom_site_label
 _atom_site_symmetry_multiplicity
 _atom_site_fract_x
 _atom_site_fract_y
 _atom_site_fract_z
 _atom_site_occupancy
  Ca  Ca0  1  0.62500000  0.25000000  0.87500000  1
  Ca  Ca1  1  0.87500000  0.75000000  0.62500000  1
  Ca  Ca2  1  0.75000000  0.62500000  0.87500000  1
  Ca  Ca3  1  0.25000000  0.87500000  0.62500000  1
  Ca  Ca4  1  0.87500000  0.62500000  0.25000000  1
  Ca  Ca5  1  0.62500000  0.87500000  0.75000000  1
  Ca  Ca6  1  0.37500000  0.75000000  0.12500000  1
  Ca  Ca7  1  0.12500000  0.25000000  0.37500000  1
  Ca  Ca8  1  0.25000000  0.37500000  0.12500000  1
  Ca  Ca9  1  0.75000000  0.12500000  0.37500000  1
  Ca  Ca10  1  0.12500000  0.37500000  0.75000000  1
  Ca  Ca11  1  0.37500000  0.12500000  0.25000000  1
  Sn  Sn0  1  0.50000000  0.50000000  0.50000000  1
  Sn  Sn1  1  0.50000000  0.50000000  0.00000000  1
  Sn  Sn2  1  0.50000000  0.00000000  0.50000000  1
  Sn  Sn3  1  0.00000000  0.50000000  0.50000000  1
  Sn  Sn4  1  0.50000000  0.00000000  0.00000000  1
  Sn  Sn5  1  0.00000000  0.00000000  0.50000000  1
  Sn  Sn6  1  0.00000000  0.50000000  0.00000000  1
  Sn  Sn7  1  0.00000000  0.00000000  0.00000000  1
  Ge  Ge0  1  0.87500000  0.12500000  0.75000000  1
  Ge  Ge1  1  0.12500000  0.87500000  0.25000000  1
  Ge  Ge2  1  0.25000000  0.62500000  0.37500000  1
  Ge  Ge3  1  0.12500000  0.75000000  0.87500000  1
  Ge  Ge4  1  0.75000000  0.87500000  0.12500000  1
  Ge  Ge5  1  0.37500000  0.25000000  0.62500000  1
  Ge  Ge6  1  0.62500000  0.75000000  0.37500000  1
  Ge  Ge7  1  0.87500000  0.25000000  0.12500000  1
  Ge  Ge8  1  0.25000000  0.12500000  0.87500000  1
  Ge  Ge9  1  0.75000000  0.37500000  0.62500000  1
  Ge  Ge10  1  0.37500000  0.62500000  0.75000000  1
  Ge  Ge11  1  0.62500000  0.37500000  0.25000000  1
  O  O0  1  0.78806900  0.41294180  0.80837686  1
  O  O1  1  0.08705820  0.87512720  0.39543505  1
  O  O2  1  0.69162314  0.10456495  0.97969114  1
  O  O3  1  0.71193100  0.52030886  0.62487280  1
  O  O4  1  0.71193100  0.69162314  0.08705820  1
  O  O5  1  0.52030886  0.62487280  0.71193100  1
  O  O6  1  0.10456495  0.62487280  0.41294180  1
  O  O7  1  0.62487280  0.71193100  0.52030886  1
  O  O8  1  0.39543505  0.80837686  0.52030886  1
  O  O9  1  0.87512720  0.97969114  0.78806900  1
  O  O10  1  0.97969114  0.78806900  0.87512720  1
  O  O11  1  0.08705820  0.71193100  0.69162314  1
  O  O12  1  0.62487280  0.41294180  0.10456495  1
  O  O13  1  0.52030886  0.39543505  0.80837686  1
  O  O14  1  0.69162314  0.08705820  0.71193100  1
  O  O15  1  0.41294180  0.10456495  0.62487280  1
  O  O16  1  0.80837686  0.52030886  0.39543505  1
  O  O17  1  0.39543505  0.08705820  0.87512720  1
  O  O18  1  0.10456495  0.97969114  0.69162314  1
  O  O19  1  0.60456495  0.19162314  0.47969114  1
  O  O20  1  0.97969114  0.69162314  0.10456495  1
  O  O21  1  0.80837686  0.78806900  0.41294180  1
  O  O22  1  0.87512720  0.39543505  0.08705820  1
  O  O23  1  0.78806900  0.87512720  0.97969114  1
  O  O24  1  0.21193100  0.58705820  0.19162314  1
  O  O25  1  0.91294180  0.12487280  0.60456495  1
  O  O26  1  0.30837686  0.89543505  0.02030886  1
  O  O27  1  0.28806900  0.47969114  0.37512720  1
  O  O28  1  0.28806900  0.30837686  0.91294180  1
  O  O29  1  0.47969114  0.37512720  0.28806900  1
  O  O30  1  0.89543505  0.37512720  0.58705820  1
  O  O31  1  0.37512720  0.28806900  0.47969114  1
  O  O32  1  0.21193100  0.12487280  0.02030886  1
  O  O33  1  0.12487280  0.60456495  0.91294180  1
  O  O34  1  0.19162314  0.21193100  0.58705820  1
  O  O35  1  0.58705820  0.19162314  0.21193100  1
  O  O36  1  0.02030886  0.30837686  0.89543505  1
  O  O37  1  0.89543505  0.02030886  0.30837686  1
  O  O38  1  0.60456495  0.91294180  0.12487280  1
  O  O39  1  0.19162314  0.47969114  0.60456495  1
  O  O40  1  0.58705820  0.89543505  0.37512720  1
  O  O41  1  0.30837686  0.91294180  0.28806900  1
  O  O42  1  0.47969114  0.60456495  0.19162314  1
  O  O43  1  0.37512720  0.58705820  0.89543505  1
  O  O44  1  0.91294180  0.28806900  0.30837686  1
  O  O45  1  0.02030886  0.21193100  0.12487280  1
  O  O46  1  0.12487280  0.02030886  0.21193100  1
  O  O47  1  0.41294180  0.80837686  0.78806900  1
loop_
_geom_bond_atom_site_label_1
_geom_bond_atom_site_label_2
_geom_bond_distance
_geom_bond_site_symmetry_2
Ca0 O2 2.463815 1_555
Ca0 O13 2.463815 1_555
Ca0 O15 2.463822 1_555
Ca0 O22 2.463822 1_556
Ca0 O14 2.607807 1_555
Ca0 O0 2.607807 1_555
Ca0 O12 2.607807 1_556
Ca0 O17 2.607807 1_555
Ca1 O10 2.463821 1_555
Ca1 O7 2.463821 1_555
Ca1 O21 2.463821 1_555
Ca1 O11 2.463822 1_655
Ca1 O9 2.607798 1_555
Ca1 O3 2.607798 1_555
Ca1 O16 2.607800 1_555
Ca1 O18 2.607801 1_655
Ca2 O23 2.463821 1_555
Ca2 O3 2.463821 1_555
Ca2 O0 2.463821 1_555
Ca2 O4 2.463821 1_556
Ca2 O10 2.607798 1_555
Ca2 O5 2.607798 1_555
Ca2 O13 2.607801 1_555
Ca2 O20 2.607801 1_556
Ca3 O18 2.463815 1_555
Ca3 O8 2.463815 1_555
Ca3 O6 2.463821 1_555
Ca3 O17 2.463822 1_565
Ca3 O11 2.607807 1_555
Ca3 O47 2.607807 1_555
Ca3 O15 2.607807 1_565
Ca3 O1 2.607807 1_555
Ca4 O16 2.463815 1_555
Ca4 O20 2.463815 1_555
Ca4 O1 2.463822 1_655
Ca4 O12 2.463822 1_555
Ca4 O21 2.607807 1_555
Ca4 O4 2.607807 1_555
Ca4 O22 2.607807 1_555
Ca4 O6 2.607807 1_655
Ca5 O5 2.463821 1_555
Ca5 O9 2.463821 1_555
Ca5 O14 2.463821 1_565
Ca5 O47 2.463822 1_555
Ca5 O7 2.607798 1_555
Ca5 O23 2.607798 1_555
Ca5 O2 2.607800 1_565
Ca5 O8 2.607801 1_555
Ca6 O26 2.463815 1_555
Ca6 O42 2.463815 1_555
Ca6 O40 2.463822 1_555
Ca6 O33 2.463822 1_554
Ca6 O41 2.607807 1_555
Ca6 O24 2.607807 1_555
Ca6 O43 2.607807 1_554
Ca6 O38 2.607807 1_555
Ca7 O45 2.463821 1_555
Ca7 O31 2.463821 1_555
Ca7 O34 2.463821 1_555
Ca7 O44 2.463822 1_455
Ca7 O46 2.607798 1_555
Ca7 O27 2.607798 1_555
Ca7 O39 2.607800 1_555
Ca7 O37 2.607801 1_455
Ca8 O32 2.463821 1_555
Ca8 O27 2.463821 1_555
Ca8 O24 2.463821 1_555
Ca8 O28 2.463821 1_554
Ca8 O45 2.607798 1_555
Ca8 O29 2.607798 1_555
Ca8 O42 2.607801 1_555
Ca8 O36 2.607801 1_554
Ca9 O37 2.463815 1_555
Ca9 O19 2.463815 1_555
Ca9 O30 2.463821 1_555
Ca9 O38 2.463822 1_545
Ca9 O44 2.607807 1_555
Ca9 O35 2.607807 1_555
Ca9 O40 2.607807 1_545
Ca9 O25 2.607807 1_555
Ca10 O39 2.463815 1_555
Ca10 O36 2.463815 1_555
Ca10 O25 2.463822 1_455
Ca10 O43 2.463822 1_555
Ca10 O34 2.607807 1_555
Ca10 O28 2.607807 1_555
Ca10 O33 2.607807 1_555
Ca10 O30 2.607807 1_455
Ca11 O29 2.463821 1_555
Ca11 O46 2.463821 1_555
Ca11 O41 2.463821 1_545
Ca11 O35 2.463822 1_555
Ca11 O31 2.607798 1_555
Ca11 O32 2.607798 1_555
Ca11 O26 2.607800 1_545
Ca11 O19 2.607801 1_555
Ge0 O25 1.812769 1_555
Ge0 O14 1.812769 1_555
Ge0 O36 1.812772 1_655
Ge0 O9 1.812780 1_545
Ge1 O1 1.812769 1_555
Ge1 O41 1.812769 1_555
Ge1 O20 1.812772 1_455
Ge1 O46 1.812780 1_565
Ge2 O6 1.812769 1_555
Ge2 O24 1.812769 1_555
Ge2 O8 1.812772 1_555
Ge2 O27 1.812780 1_555
Ge3 O33 1.812769 1_555
Ge3 O11 1.812769 1_555
Ge3 O26 1.812772 1_556
Ge3 O10 1.812780 1_455
Ge4 O38 1.812769 1_555
Ge4 O4 1.812769 1_555
Ge4 O37 1.812772 1_565
Ge4 O23 1.812780 1_554
Ge5 O15 1.812769 1_555
Ge5 O34 1.812769 1_555
Ge5 O13 1.812772 1_555
Ge5 O31 1.812780 1_555
Ge6 O40 1.812769 1_555
Ge6 O21 1.812769 1_555
Ge6 O42 1.812772 1_555
Ge6 O7 1.812780 1_555
Ge7 O22 1.812769 1_555
Ge7 O44 1.812769 1_555
Ge7 O2 1.812772 1_554
Ge7 O45 1.812780 1_655
Ge8 O17 1.812769 1_555
Ge8 O28 1.812769 1_555
Ge8 O18 1.812772 1_545
Ge8 O32 1.812780 1_556
Ge9 O30 1.812769 1_555
Ge9 O0 1.812769 1_555
Ge9 O19 1.812772 1_555
Ge9 O3 1.812780 1_555
Ge10 O43 1.812769 1_555
Ge10 O47 1.812769 1_555
Ge10 O39 1.812772 1_555
Ge10 O5 1.812780 1_555
Ge11 O12 1.812769 1_555
Ge11 O35 1.812769 1_555
Ge11 O16 1.812772 1_555
Ge11 O29 1.812780 1_555
O0 Sn6 2.201125 1_656
O1 Sn5 2.201125 1_565
O2 Sn4 2.201132 1_556
O3 Sn0 2.201120 1_555
O4 Sn1 2.201125 1_555
O5 Sn0 2.201120 1_555
O6 Sn3 2.201125 1_555
O7 Sn0 2.201120 1_555
O8 Sn2 2.201132 1_565
O9 Sn7 2.201120 1_666
O10 Sn7 2.201120 1_666
O11 Sn3 2.201125 1_555
O12 Sn1 2.201125 1_555
O13 Sn1 2.201132 1_556
O14 Sn2 2.201125 1_555
O15 Sn2 2.201125 1_555
O16 Sn3 2.201132 1_655
O17 Sn4 2.201125 1_556
O18 Sn5 2.201132 1_565
O19 Sn2 2.201132 1_555
O20 Sn6 2.201132 1_655
O21 Sn5 2.201125 1_665
O22 Sn6 2.201125 1_655
O23 Sn7 2.201120 1_666
O24 Sn6 2.201125 1_555
O25 Sn5 2.201125 1_655
O26 Sn4 2.201132 1_565
O27 Sn0 2.201120 1_555
O28 Sn1 2.201125 1_556
O29 Sn0 2.201120 1_555
O30 Sn3 2.201125 1_655
O31 Sn0 2.201120 1_555
O32 Sn7 2.201120 1_555
O33 Sn6 2.201125 1_556
O34 Sn5 2.201125 1_555
O35 Sn4 2.201125 1_555
O36 Sn6 2.201132 1_556
O37 Sn5 2.201132 1_655
O38 Sn4 2.201125 1_565
O39 Sn3 2.201132 1_555
O40 Sn2 2.201125 1_565
O41 Sn2 2.201125 1_565
O42 Sn1 2.201132 1_555
O43 Sn1 2.201125 1_556
O44 Sn3 2.201125 1_655
O45 Sn7 2.201120 1_555
O46 Sn7 2.201120 1_555
O47 Sn4 2.201125 1_566
