# generated using pymatgen
data_LaFe5Bi4O15
_symmetry_space_group_name_H-M   'P 1'
_cell_length_a   5.63425971
_cell_length_b   5.70684314
_cell_length_c   23.25722078
_cell_angle_alpha   96.54604293
_cell_angle_beta   90.05191809
_cell_angle_gamma   119.59714785
_symmetry_Int_Tables_number   1
_chemical_formula_structural   LaFe5Bi4O15
_chemical_formula_sum   'La2 Fe10 Bi8 O30'
_cell_volume   644.57696112
_cell_formula_units_Z   2
loop_
 _symmetry_equiv_pos_site_id
 _symmetry_equiv_pos_as_xyz
  1  'x, y, z'
loop_
 _atom_site_type_symbol
 _atom_site_label
 _atom_site_symmetry_multiplicity
 _atom_site_fract_x
 _atom_site_fract_y
 _atom_site_fract_z
 _atom_site_occupancy
  La  La0  1  0.18974100  0.37957500  0.59960100  1
  La  La1  1  0.58932400  0.17788600  0.79849000  1
  Fe  Fe0  1  0.02236100  0.04445600  0.14578600  1
  Fe  Fe1  1  0.42214100  0.84416900  0.34571900  1
  Fe  Fe2  1  0.82207500  0.64587400  0.54658800  1
  Fe  Fe3  1  0.22464700  0.44963600  0.74678900  1
  Fe  Fe4  1  0.62522500  0.24837500  0.94574300  1
  Fe  Fe5  1  0.12273500  0.24453700  0.44522500  1
  Fe  Fe6  1  0.51585900  0.03161600  0.64524500  1
  Fe  Fe7  1  0.91523300  0.83158500  0.84627700  1
  Fe  Fe8  1  0.32203700  0.64456500  0.04595100  1
  Fe  Fe9  1  0.72206900  0.44452200  0.24579800  1
  Bi  Bi0  1  0.11148700  0.22451200  0.30110500  1
  Bi  Bi1  1  0.51290300  0.02073700  0.50149700  1
  Bi  Bi2  1  0.91027300  0.81957200  0.70231200  1
  Bi  Bi3  1  0.30864200  0.62341500  0.90197400  1
  Bi  Bi4  1  0.71174000  0.42452400  0.10127300  1
  Bi  Bi5  1  0.01239600  0.02439200  0.00108500  1
  Bi  Bi6  1  0.41287700  0.82481000  0.20125600  1
  Bi  Bi7  1  0.81237900  0.62558400  0.40164000  1
  O  O0  1  0.62507200  0.09931300  0.28916500  1
  O  O1  1  0.02691600  0.90391000  0.48984300  1
  O  O2  1  0.43187300  0.71312800  0.69175800  1
  O  O3  1  0.82960100  0.50658900  0.89070800  1
  O  O4  1  0.22482900  0.29857500  0.08909800  1
  O  O5  1  0.31481000  0.17909800  0.20960600  1
  O  O6  1  0.71512400  0.97839500  0.40931100  1
  O  O7  1  0.11672300  0.79651000  0.60880300  1
  O  O8  1  0.51668900  0.59702700  0.80951100  1
  O  O9  1  0.91518200  0.37896600  0.01002200  1
  O  O10  1  0.20242700  0.00730300  0.37936800  1
  O  O11  1  0.62072400  0.82788400  0.57885600  1
  O  O12  1  0.01957000  0.62740800  0.77914900  1
  O  O13  1  0.40196200  0.40742900  0.97966400  1
  O  O14  1  0.80294000  0.20796500  0.17950300  1
  O  O15  1  0.10537400  0.60800600  0.27937500  1
  O  O16  1  0.50199300  0.40970300  0.48039100  1
  O  O17  1  0.90562000  0.21280000  0.67965300  1
  O  O18  1  0.30829300  0.01040400  0.87880300  1
  O  O19  1  0.70524100  0.80795400  0.07947400  1
  O  O20  1  0.56505800  0.57866700  0.30978300  1
  O  O21  1  0.96430500  0.37627300  0.50987200  1
  O  O22  1  0.36485900  0.18276700  0.70894000  1
  O  O23  1  0.76496900  0.98464800  0.90885600  1
  O  O24  1  0.16440100  0.77895500  0.10965200  1
  O  O25  1  0.17409000  0.49955100  0.38890200  1
  O  O26  1  0.57621900  0.30144800  0.58900600  1
  O  O27  1  0.97762400  0.10158000  0.78913900  1
  O  O28  1  0.37500500  0.90000800  0.98922600  1
  O  O29  1  0.77436300  0.69939100  0.18920800  1
loop_
_geom_bond_atom_site_label_1
_geom_bond_atom_site_label_2
_geom_bond_distance
_geom_bond_site_symmetry_2
La0 O17 2.416426 1_455
La0 O21 2.435404 1_455
La0 O26 2.436397 1_555
La0 O2 2.564699 1_555
La0 O7 2.593744 1_555
La0 O11 2.611829 1_555
La1 O18 2.413932 1_555
La1 O27 2.437965 1_555
La1 O22 2.445619 1_555
La1 O3 2.553502 1_555
La1 O12 2.604220 1_655
La1 O8 2.604240 1_555
Fe0 O4 1.986744 1_555
Fe0 O14 1.997108 1_455
Fe0 O5 1.998351 1_555
Fe0 O19 2.128582 1_445
Fe0 O24 2.133337 1_545
Fe0 O29 2.141987 1_445
Fe1 O0 1.988035 1_565
Fe1 O10 1.996417 1_565
Fe1 O6 1.996822 1_555
Fe1 O15 2.127758 1_555
Fe1 O20 2.135497 1_555
Fe1 O25 2.137184 1_555
Fe2 O7 1.972561 1_655
Fe2 O11 1.979119 1_555
Fe2 O1 2.002306 1_655
Fe2 O26 2.123827 1_555
Fe2 O16 2.135417 1_555
Fe2 O21 2.158272 1_555
Fe3 O8 1.972725 1_555
Fe3 O12 1.978927 1_555
Fe3 O2 1.992402 1_555
Fe3 O27 2.137839 1_455
Fe3 O22 2.145336 1_555
Fe3 O17 2.147003 1_455
Fe4 O3 1.972892 1_555
Fe4 O13 1.998765 1_555
Fe4 O9 1.999531 1_556
Fe4 O23 2.120955 1_545
Fe4 O18 2.138727 1_555
Fe4 O28 2.157569 1_545
Fe5 O25 1.984177 1_555
Fe5 O16 1.988703 1_555
Fe5 O21 2.007521 1_455
Fe5 O10 2.123537 1_555
Fe5 O6 2.130851 1_445
Fe5 O1 2.138064 1_545
Fe6 O17 2.024154 1_555
Fe6 O22 2.024399 1_555
Fe6 O26 2.034800 1_555
Fe6 O2 2.072994 1_545
Fe6 O7 2.081485 1_545
Fe6 O11 2.087055 1_545
Fe7 O23 2.010198 1_555
Fe7 O18 2.026488 1_665
Fe7 O27 2.048477 1_565
Fe7 O3 2.072305 1_555
Fe7 O8 2.081267 1_555
Fe7 O12 2.098614 1_655
Fe8 O28 1.991003 1_554
Fe8 O19 1.995357 1_555
Fe8 O24 1.997017 1_555
Fe8 O9 2.127450 1_455
Fe8 O13 2.130362 1_554
Fe8 O4 2.142465 1_555
Fe9 O29 1.987061 1_555
Fe9 O15 1.996203 1_655
Fe9 O20 1.998684 1_555
Fe9 O5 2.130873 1_555
Fe9 O14 2.131119 1_555
Fe9 O0 2.141863 1_555
Bi0 O15 2.317954 1_555
Bi0 O20 2.336761 1_555
Bi0 O25 2.340631 1_555
Bi0 O5 2.465744 1_555
Bi0 O0 2.473376 1_455
Bi0 O10 2.500453 1_555
Bi1 O21 2.331265 1_555
Bi1 O26 2.350848 1_555
Bi1 O16 2.356960 1_555
Bi1 O11 2.434587 1_545
Bi1 O6 2.472144 1_545
Bi1 O1 2.483895 1_545
Bi2 O27 2.338000 1_565
Bi2 O22 2.358469 1_665
Bi2 O17 2.375304 1_565
Bi2 O12 2.426355 1_655
Bi2 O2 2.458052 1_555
Bi2 O7 2.488064 1_655
Bi3 O28 2.331202 1_555
Bi3 O18 2.333123 1_565
Bi3 O23 2.360980 1_555
Bi3 O3 2.445271 1_455
Bi3 O8 2.475110 1_555
Bi3 O13 2.491329 1_555
Bi4 O19 2.319167 1_555
Bi4 O24 2.333949 1_655
Bi4 O29 2.342678 1_555
Bi4 O9 2.461377 1_555
Bi4 O4 2.475348 1_555
Bi4 O14 2.497988 1_555
Bi5 O13 2.314097 1_554
Bi5 O9 2.331709 1_455
Bi5 O4 2.342265 1_555
Bi5 O28 2.478475 1_544
Bi5 O23 2.483379 1_444
Bi5 O19 2.500398 1_445
Bi6 O14 2.318295 1_565
Bi6 O5 2.333482 1_565
Bi6 O0 2.340675 1_565
Bi6 O24 2.464315 1_555
Bi6 O29 2.476744 1_555
Bi6 O15 2.496838 1_555
Bi7 O10 2.318141 1_665
Bi7 O6 2.322523 1_555
Bi7 O1 2.355449 1_655
Bi7 O20 2.464352 1_555
Bi7 O25 2.481705 1_655
Bi7 O16 2.514491 1_555
