# generated using pymatgen
data_K2UMo2O11
_symmetry_space_group_name_H-M   'P 1'
_cell_length_a   8.10911600
_cell_length_b   11.04643600
_cell_length_c   13.67570530
_cell_angle_alpha   90.00000000
_cell_angle_beta   99.28292441
_cell_angle_gamma   90.00000000
_symmetry_Int_Tables_number   1
_chemical_formula_structural   K2UMo2O11
_chemical_formula_sum   'K8 U4 Mo8 O44'
_cell_volume   1208.98319353
_cell_formula_units_Z   4
loop_
 _symmetry_equiv_pos_site_id
 _symmetry_equiv_pos_as_xyz
  1  'x, y, z'
loop_
 _atom_site_type_symbol
 _atom_site_label
 _atom_site_symmetry_multiplicity
 _atom_site_fract_x
 _atom_site_fract_y
 _atom_site_fract_z
 _atom_site_occupancy
  K  K0  1  0.24117900  0.57915300  0.37297700  1
  K  K1  1  0.75882100  0.07915300  0.12702300  1
  K  K2  1  0.75882100  0.42084700  0.62702300  1
  K  K3  1  0.24117900  0.92084700  0.87297700  1
  K  K4  1  0.93328100  0.82860400  0.59355400  1
  K  K5  1  0.06671900  0.32860400  0.90644600  1
  K  K6  1  0.06671900  0.17139600  0.40644600  1
  K  K7  1  0.93328100  0.67139600  0.09355400  1
  U  U0  1  0.47328700  0.75866900  0.64535400  1
  U  U1  1  0.52671300  0.25866900  0.85464600  1
  U  U2  1  0.52671300  0.24133100  0.35464600  1
  U  U3  1  0.47328700  0.74133100  0.14535400  1
  Mo  Mo0  1  0.51208300  0.89804800  0.40672400  1
  Mo  Mo1  1  0.48791700  0.39804800  0.09327600  1
  Mo  Mo2  1  0.48791700  0.10195200  0.59327600  1
  Mo  Mo3  1  0.51208300  0.60195200  0.90672400  1
  Mo  Mo4  1  0.76262500  0.54388000  0.35712900  1
  Mo  Mo5  1  0.23737500  0.04388000  0.14287100  1
  Mo  Mo6  1  0.23737500  0.45612000  0.64287100  1
  Mo  Mo7  1  0.76262500  0.95612000  0.85712900  1
  O  O0  1  0.42783900  0.05401900  0.41623700  1
  O  O1  1  0.57216100  0.55401900  0.08376300  1
  O  O2  1  0.57216100  0.94598100  0.58376300  1
  O  O3  1  0.42783900  0.44598100  0.91623700  1
  O  O4  1  0.42495100  0.77338700  0.47078400  1
  O  O5  1  0.57504900  0.27338700  0.02921600  1
  O  O6  1  0.57504900  0.22661300  0.52921600  1
  O  O7  1  0.42495100  0.72661300  0.97078400  1
  O  O8  1  0.27481000  0.83269900  0.65711600  1
  O  O9  1  0.72519000  0.33269900  0.84288400  1
  O  O10  1  0.72519000  0.16730100  0.34288400  1
  O  O11  1  0.27481000  0.66730100  0.15711600  1
  O  O12  1  0.67175200  0.41589500  0.41643700  1
  O  O13  1  0.32824800  0.91589500  0.08356300  1
  O  O14  1  0.32824800  0.58410500  0.58356300  1
  O  O15  1  0.67175200  0.08410500  0.91643700  1
  O  O16  1  0.67372700  0.68481700  0.63805000  1
  O  O17  1  0.32627300  0.18481700  0.86195000  1
  O  O18  1  0.32627300  0.31518300  0.36195000  1
  O  O19  1  0.67372700  0.81518300  0.13805000  1
  O  O20  1  0.43726400  0.86410000  0.27805200  1
  O  O21  1  0.56273600  0.36410000  0.22194800  1
  O  O22  1  0.56273600  0.13590000  0.72194800  1
  O  O23  1  0.43726400  0.63590000  0.77805200  1
  O  O24  1  0.86971000  0.63092200  0.45491700  1
  O  O25  1  0.13029000  0.13092200  0.04508300  1
  O  O26  1  0.13029000  0.36907800  0.54508300  1
  O  O27  1  0.86971000  0.86907800  0.95491700  1
  O  O28  1  0.59741500  0.63590400  0.28557100  1
  O  O29  1  0.40258500  0.13590400  0.21442900  1
  O  O30  1  0.40258500  0.36409600  0.71442900  1
  O  O31  1  0.59741500  0.86409600  0.78557100  1
  O  O32  1  0.72905800  0.89617500  0.41970500  1
  O  O33  1  0.27094200  0.39617500  0.08029500  1
  O  O34  1  0.27094200  0.10382500  0.58029500  1
  O  O35  1  0.72905800  0.60382500  0.91970500  1
  O  O36  1  0.91419700  0.49958500  0.28345900  1
  O  O37  1  0.08580300  0.99958500  0.21654100  1
  O  O38  1  0.08580300  0.50041500  0.71654100  1
  O  O39  1  0.91419700  0.00041500  0.78345900  1
  O  O40  1  0.97781700  0.29479300  0.19144300  1
  O  O41  1  0.02218300  0.79479300  0.30855700  1
  O  O42  1  0.02218300  0.70520700  0.80855700  1
  O  O43  1  0.97781700  0.20520700  0.69144300  1
loop_
_geom_bond_atom_site_label_1
_geom_bond_atom_site_label_2
_geom_bond_distance
_geom_bond_site_symmetry_2
K0 O4 2.823189 1_555
K0 O14 2.852962 1_555
K0 O36 2.873091 1_455
K0 O18 3.005844 1_555
K0 O41 3.016500 1_555
K0 O11 3.161779 1_555
K1 O5 2.823189 1_555
K1 O15 2.852962 1_554
K1 O37 2.873091 1_645
K1 O19 3.005844 1_545
K1 O40 3.016500 1_555
K1 O10 3.161779 1_555
K2 O6 2.823189 1_555
K2 O12 2.852962 1_555
K2 O38 2.873091 1_655
K2 O16 3.005844 1_555
K2 O43 3.016500 1_555
K2 O9 3.161779 1_555
K3 O7 2.823189 1_555
K3 O13 2.852962 1_556
K3 O39 2.873091 1_465
K3 O17 3.005844 1_565
K3 O42 3.016500 1_555
K3 O8 3.161779 1_555
K4 O8 2.766062 1_655
K4 O32 2.771640 1_555
K4 O16 2.781418 1_555
K4 O24 2.883323 1_555
K4 O2 3.185578 1_555
K4 O42 3.215487 1_655
K4 O39 3.240445 1_565
K5 O9 2.766062 1_455
K5 O33 2.771640 1_556
K5 O17 2.781418 1_555
K5 O25 2.883323 1_556
K5 O3 3.185578 1_555
K5 O43 3.215487 1_455
K5 O38 3.240445 1_555
K6 O10 2.766062 1_455
K6 O34 2.771640 1_555
K6 O18 2.781418 1_555
K6 O26 2.883323 1_555
K6 O0 3.185578 1_555
K6 O40 3.215487 1_455
K6 O37 3.240445 1_545
K7 O11 2.766062 1_655
K7 O35 2.771640 1_554
K7 O19 2.781418 1_555
K7 O27 2.883323 1_554
K7 O1 3.185578 1_555
K7 O41 3.215487 1_655
K7 O36 3.240445 1_555
Mo0 O32 1.739807 1_555
Mo0 O20 1.805760 1_555
Mo0 O4 1.833771 1_555
Mo0 O0 1.865677 1_565
Mo0 O2 2.449296 1_555
Mo1 O33 1.739807 1_555
Mo1 O21 1.805760 1_555
Mo1 O5 1.833771 1_555
Mo1 O1 1.865677 1_555
Mo1 O3 2.449296 1_554
Mo2 O34 1.739807 1_555
Mo2 O22 1.805760 1_555
Mo2 O6 1.833771 1_555
Mo2 O2 1.865677 1_545
Mo2 O0 2.449296 1_555
Mo3 O35 1.739807 1_555
Mo3 O23 1.805760 1_555
Mo3 O7 1.833771 1_555
Mo3 O3 1.865677 1_555
Mo3 O1 2.449296 1_556
Mo4 O24 1.758499 1_555
Mo4 O36 1.778955 1_555
Mo4 O28 1.833811 1_555
Mo4 O12 1.841864 1_555
Mo5 O25 1.758499 1_555
Mo5 O37 1.778955 1_545
Mo5 O29 1.833811 1_555
Mo5 O13 1.841864 1_545
Mo6 O26 1.758499 1_555
Mo6 O38 1.778955 1_555
Mo6 O30 1.833811 1_555
Mo6 O14 1.841864 1_555
Mo7 O27 1.758499 1_555
Mo7 O39 1.778955 1_565
Mo7 O31 1.833811 1_555
Mo7 O15 1.841864 1_565
O0 U2 2.418987 1_555
O1 U3 2.418987 1_555
O2 U0 2.418987 1_555
O3 U1 2.418987 1_555
O4 U0 2.361715 1_555
O5 U1 2.361715 1_554
O6 U2 2.361715 1_555
O7 U3 2.361715 1_556
O8 U0 1.835359 1_555
O9 U1 1.835359 1_555
O10 U2 1.835359 1_555
O11 U3 1.835359 1_555
O12 U2 2.344167 1_555
O13 U3 2.344167 1_555
O14 U0 2.344167 1_555
O15 U1 2.344167 1_555
O16 U0 1.835697 1_555
O17 U1 1.835697 1_555
O18 U2 1.835697 1_555
O19 U3 1.835697 1_555
O20 U3 2.321379 1_555
O21 U2 2.321379 1_555
O22 U1 2.321379 1_555
O23 U0 2.321379 1_555
O28 U3 2.328907 1_555
O29 U2 2.328907 1_555
O30 U1 2.328907 1_555
O31 U0 2.328907 1_555
