# generated using pymatgen
data_CeBiW2O9
_symmetry_space_group_name_H-M   'P 1'
_cell_length_a   7.22542070
_cell_length_b   7.22542070
_cell_length_c   13.89623947
_cell_angle_alpha   80.79120863
_cell_angle_beta   80.79120863
_cell_angle_gamma   87.87497007
_symmetry_Int_Tables_number   1
_chemical_formula_structural   CeBiW2O9
_chemical_formula_sum   'Ce4 Bi4 W8 O36'
_cell_volume   706.84810086
_cell_formula_units_Z   4
loop_
 _symmetry_equiv_pos_site_id
 _symmetry_equiv_pos_as_xyz
  1  'x, y, z'
loop_
 _atom_site_type_symbol
 _atom_site_label
 _atom_site_symmetry_multiplicity
 _atom_site_fract_x
 _atom_site_fract_y
 _atom_site_fract_z
 _atom_site_occupancy
  Ce  Ce0  1  0.87488200  0.82807000  0.11656400  1
  Ce  Ce1  1  0.17193000  0.12511800  0.38343600  1
  Ce  Ce2  1  0.12511800  0.17193000  0.88343600  1
  Ce  Ce3  1  0.82807000  0.87488200  0.61656400  1
  Bi  Bi0  1  0.34520900  0.52583300  0.13803700  1
  Bi  Bi1  1  0.47416700  0.65479100  0.36196300  1
  Bi  Bi2  1  0.65479100  0.47416700  0.86196300  1
  Bi  Bi3  1  0.52583300  0.34520900  0.63803700  1
  W  W0  1  0.41290300  0.99619800  0.11809700  1
  W  W1  1  0.00380200  0.58709700  0.38190300  1
  W  W2  1  0.58709700  0.00380200  0.88190300  1
  W  W3  1  0.99619800  0.41290300  0.61809700  1
  W  W4  1  0.83440400  0.30757100  0.13494200  1
  W  W5  1  0.69242900  0.16559600  0.36505800  1
  W  W6  1  0.16559600  0.69242900  0.86505800  1
  W  W7  1  0.30757100  0.83440400  0.63494200  1
  O  O0  1  0.65032900  0.08679000  0.12980500  1
  O  O1  1  0.91321000  0.34967100  0.37019500  1
  O  O2  1  0.34967100  0.91321000  0.87019500  1
  O  O3  1  0.08679000  0.65032900  0.62980500  1
  O  O4  1  0.63845300  0.36154700  0.25000000  1
  O  O5  1  0.36154700  0.63845300  0.75000000  1
  O  O6  1  0.00470100  0.49227700  0.14125300  1
  O  O7  1  0.50772300  0.99529900  0.35874700  1
  O  O8  1  0.99529900  0.50772300  0.85874700  1
  O  O9  1  0.49227700  0.00470100  0.64125300  1
  O  O10  1  0.51576700  0.75479200  0.19423000  1
  O  O11  1  0.24520800  0.48423300  0.30577000  1
  O  O12  1  0.48423300  0.24520800  0.80577000  1
  O  O13  1  0.75479200  0.51576700  0.69423000  1
  O  O14  1  0.28272500  0.13884000  0.20303900  1
  O  O15  1  0.86116000  0.71727500  0.29696100  1
  O  O16  1  0.71727500  0.86116000  0.79696100  1
  O  O17  1  0.13884000  0.28272500  0.70303900  1
  O  O18  1  0.88680200  0.11319800  0.25000000  1
  O  O19  1  0.11319800  0.88680200  0.75000000  1
  O  O20  1  0.21674000  0.81922000  0.11672600  1
  O  O21  1  0.18078000  0.78326000  0.38327400  1
  O  O22  1  0.78326000  0.18078000  0.88327400  1
  O  O23  1  0.81922000  0.21674000  0.61672600  1
  O  O24  1  0.39507700  0.14595800  0.99597800  1
  O  O25  1  0.85404200  0.60492300  0.50402200  1
  O  O26  1  0.60492300  0.85404200  0.00402200  1
  O  O27  1  0.14595800  0.39507700  0.49597800  1
  O  O28  1  0.99079300  0.16653800  0.05084500  1
  O  O29  1  0.83346200  0.00920700  0.44915500  1
  O  O30  1  0.00920700  0.83346200  0.94915500  1
  O  O31  1  0.16653800  0.99079300  0.55084500  1
  O  O32  1  0.69236500  0.45754800  0.05169800  1
  O  O33  1  0.54245200  0.30763500  0.44830200  1
  O  O34  1  0.30763500  0.54245200  0.94830200  1
  O  O35  1  0.45754800  0.69236500  0.55169800  1
loop_
_geom_bond_atom_site_label_1
_geom_bond_atom_site_label_2
_geom_bond_distance
_geom_bond_site_symmetry_2
Ce0 O30 2.367817 1_654
Ce0 O0 2.439354 1_565
Ce0 O20 2.468876 1_655
Ce0 O15 2.493785 1_555
Ce0 O6 2.559690 1_655
Ce0 O28 2.590081 1_565
Ce0 O26 2.672270 1_555
Ce0 O10 2.683389 1_555
Ce1 O31 2.367817 1_545
Ce1 O1 2.439354 1_455
Ce1 O21 2.468876 1_545
Ce1 O14 2.493785 1_555
Ce1 O7 2.559690 1_545
Ce1 O29 2.590081 1_455
Ce1 O27 2.672270 1_555
Ce1 O11 2.683389 1_555
Ce2 O28 2.367817 1_456
Ce2 O2 2.439354 1_545
Ce2 O22 2.468876 1_455
Ce2 O17 2.493785 1_555
Ce2 O8 2.559690 1_455
Ce2 O30 2.590081 1_545
Ce2 O24 2.672270 1_555
Ce2 O12 2.683389 1_555
Ce3 O29 2.367817 1_565
Ce3 O3 2.439354 1_655
Ce3 O23 2.468876 1_565
Ce3 O16 2.493785 1_555
Ce3 O9 2.559690 1_565
Ce3 O31 2.590081 1_655
Ce3 O25 2.672270 1_555
Ce3 O13 2.683389 1_555
Bi0 O20 2.276884 1_555
Bi0 O11 2.301771 1_555
Bi0 O10 2.395393 1_555
Bi0 O6 2.473763 1_555
Bi0 O32 2.666306 1_555
Bi0 O34 2.676781 1_554
Bi1 O21 2.276884 1_555
Bi1 O10 2.301771 1_555
Bi1 O11 2.395393 1_555
Bi1 O7 2.473763 1_555
Bi1 O33 2.666306 1_555
Bi1 O35 2.676781 1_555
Bi2 O22 2.276884 1_555
Bi2 O13 2.301771 1_555
Bi2 O12 2.395393 1_555
Bi2 O8 2.473763 1_555
Bi2 O34 2.666306 1_555
Bi2 O32 2.676781 1_556
Bi3 O23 2.276884 1_555
Bi3 O12 2.301771 1_555
Bi3 O13 2.395393 1_555
Bi3 O9 2.473763 1_555
Bi3 O35 2.666306 1_555
Bi3 O33 2.676781 1_555
O0 W0 1.898570 1_545
O0 W4 2.131433 1_555
O1 W1 1.898570 1_655
O1 W5 2.131433 1_555
O2 W2 1.898570 1_565
O2 W6 2.131433 1_555
O3 W3 1.898570 1_455
O3 W7 2.131433 1_555
O4 W4 2.036456 1_555
O4 W5 2.036456 1_555
O5 W7 2.036456 1_555
O5 W6 2.036456 1_555
O6 W4 1.869926 1_455
O7 W5 1.869926 1_565
O8 W6 1.869926 1_655
O9 W7 1.869926 1_545
O10 W0 2.068579 1_555
O11 W1 2.068579 1_555
O12 W2 2.068579 1_555
O13 W3 2.068579 1_555
O14 W0 1.817240 1_545
O15 W1 1.817240 1_655
O16 W2 1.817240 1_565
O17 W3 1.817240 1_455
O18 W5 2.026759 1_555
O18 W4 2.026759 1_555
O19 W6 2.026759 1_555
O19 W7 2.026759 1_555
O20 W0 1.948153 1_555
O21 W1 1.948153 1_555
O22 W2 1.948153 1_555
O23 W3 1.948153 1_555
O24 W0 1.881268 1_546
O24 W2 2.281310 1_555
O25 W1 1.881268 1_655
O25 W3 2.281310 1_555
O26 W2 1.881268 1_564
O26 W0 2.281310 1_555
O27 W3 1.881268 1_455
O27 W1 2.281310 1_555
O28 W4 1.885221 1_555
O29 W5 1.885221 1_555
O30 W6 1.885221 1_555
O31 W7 1.885221 1_555
O32 W4 1.860642 1_555
O33 W5 1.860642 1_555
O34 W6 1.860642 1_555
O35 W7 1.860642 1_555
