# generated using pymatgen
data_LaGa3Cu
_symmetry_space_group_name_H-M   'P 1'
_cell_length_a   6.05935281
_cell_length_b   6.05935281
_cell_length_c   6.05935281
_cell_angle_alpha   138.90232991
_cell_angle_beta   138.90232991
_cell_angle_gamma   59.52381072
_symmetry_Int_Tables_number   1
_chemical_formula_structural   LaGa3Cu
_chemical_formula_sum   'La1 Ga3 Cu1'
_cell_volume   95.17752941
_cell_formula_units_Z   1
loop_
 _symmetry_equiv_pos_site_id
 _symmetry_equiv_pos_as_xyz
  1  'x, y, z'
loop_
 _atom_site_type_symbol
 _atom_site_label
 _atom_site_symmetry_multiplicity
 _atom_site_fract_x
 _atom_site_fract_y
 _atom_site_fract_z
 _atom_site_occupancy
  La  La0  1  -0.00000000  -0.00000000  0.00000000  1
  Ga  Ga0  1  0.61997879  0.61997879  -0.00000000  1
  Ga  Ga1  1  0.38002121  0.38002121  -0.00000000  1
  Ga  Ga2  1  0.75000000  0.25000000  0.50000000  1
  Cu  Cu0  1  0.25000000  0.75000000  0.50000000  1
loop_
_geom_bond_atom_site_label_1
_geom_bond_atom_site_label_2
_geom_bond_distance
_geom_bond_site_symmetry_2
Ga0 Ga1 2.524401 1_555
Ga0 Ga2 2.528749 1_554
Ga0 Ga2 2.528749 1_565
Ga0 La0 3.261943 1_565
Ga0 La0 3.261943 1_554
Ga0 La0 3.261943 1_655
Ga0 La0 3.261943 1_666
Ga1 Ga2 2.528749 1_555
Ga1 Ga2 2.528749 1_454
Ga1 La0 3.261943 1_655
Ga1 La0 3.261943 1_666
Ga1 La0 3.261943 1_565
Ga1 La0 3.261943 1_554
Ga2 La0 3.382413 1_655
Ga2 La0 3.382413 1_666
Ga2 La0 3.382413 1_656
Ga2 La0 3.382413 1_555
Cu0 Ga0 2.528749 1_455
Cu0 Ga0 2.528749 1_556
Cu0 Ga1 2.528749 1_555
Cu0 Ga1 2.528749 1_566
Cu0 La0 3.382413 1_566
Cu0 La0 3.382413 1_565
Cu0 La0 3.382413 1_666
Cu0 La0 3.382413 1_555
