# generated using pymatgen
data_NaCaFe(SiO3)4
_symmetry_space_group_name_H-M   'P 1'
_cell_length_a   5.27201864
_cell_length_b   6.72134465
_cell_length_c   6.72134465
_cell_angle_alpha   84.83387950
_cell_angle_beta   78.26033134
_cell_angle_gamma   78.26033134
_symmetry_Int_Tables_number   1
_chemical_formula_structural   NaCaFe(SiO3)4
_chemical_formula_sum   'Na1 Ca1 Fe1 Si4 O12'
_cell_volume   228.01721558
_cell_formula_units_Z   1
loop_
 _symmetry_equiv_pos_site_id
 _symmetry_equiv_pos_as_xyz
  1  'x, y, z'
loop_
 _atom_site_type_symbol
 _atom_site_label
 _atom_site_symmetry_multiplicity
 _atom_site_fract_x
 _atom_site_fract_y
 _atom_site_fract_z
 _atom_site_occupancy
  Na  Na0  1  0.25000000  0.29779700  0.70220300  1
  Ca  Ca0  1  0.75000000  0.71404800  0.28595200  1
  Fe  Fe0  1  0.75000000  0.08599600  0.91400400  1
  Si  Si0  1  0.73355100  0.61814600  0.80432500  1
  Si  Si1  1  0.76644900  0.19567500  0.38185400  1
  Si  Si2  1  0.27866400  0.37153600  0.19943800  1
  Si  Si3  1  0.22133600  0.80056200  0.62846400  1
  O  O0  1  0.80984600  0.38625600  0.89557700  1
  O  O1  1  0.69015400  0.10442300  0.61374400  1
  O  O2  1  0.19248900  0.60151800  0.10747500  1
  O  O3  1  0.30751100  0.89252500  0.39848200  1
  O  O4  1  0.67548100  0.79802200  0.96199900  1
  O  O5  1  0.82451900  0.03800100  0.20197800  1
  O  O6  1  0.38601900  0.21226800  0.01787900  1
  O  O7  1  0.11398100  0.98212100  0.78773200  1
  O  O8  1  0.49661500  0.64204700  0.67055600  1
  O  O9  1  0.00338500  0.32944400  0.35795300  1
  O  O10  1  0.49898500  0.37054200  0.34462800  1
  O  O11  1  0.00101500  0.65537200  0.62945800  1
loop_
_geom_bond_atom_site_label_1
_geom_bond_atom_site_label_2
_geom_bond_distance
_geom_bond_site_symmetry_2
Na0 O6 2.361849 1_556
Na0 O7 2.361849 1_545
Na0 O0 2.403737 1_455
Na0 O1 2.403737 1_555
Na0 O11 2.550323 1_555
Na0 O10 2.550323 1_555
Na0 O9 2.848235 1_555
Na0 O8 2.848235 1_555
Ca0 O5 2.291403 1_565
Ca0 O4 2.291403 1_554
Ca0 O2 2.399948 1_655
Ca0 O3 2.399948 1_555
Ca0 O8 2.708091 1_555
Ca0 O9 2.708091 1_655
Ca0 O11 2.846830 1_655
Ca0 O10 2.846830 1_555
Fe0 O6 1.946485 1_556
Fe0 O7 1.946485 1_645
Fe0 O5 2.037221 1_556
Fe0 O4 2.037221 1_545
Fe0 O0 2.094281 1_555
Fe0 O1 2.094281 1_555
O0 Si0 1.624920 1_555
O1 Si1 1.624920 1_555
O2 Si2 1.623071 1_555
O3 Si3 1.623071 1_555
O4 Si0 1.620698 1_555
O5 Si1 1.620698 1_555
O6 Si2 1.631908 1_555
O7 Si3 1.631908 1_555
O8 Si0 1.656468 1_555
O8 Si3 1.674807 1_555
O9 Si1 1.656468 1_455
O9 Si2 1.674807 1_555
O10 Si2 1.660863 1_555
O10 Si1 1.687762 1_555
O11 Si3 1.660863 1_555
O11 Si0 1.687762 1_455
