# generated using pymatgen
data_Li7Mn4CoO12
_symmetry_space_group_name_H-M   'P 1'
_cell_length_a   5.12521045
_cell_length_b   8.72223693
_cell_length_c   10.23452896
_cell_angle_alpha   106.74822195
_cell_angle_beta   98.49282897
_cell_angle_gamma   89.94852601
_symmetry_Int_Tables_number   1
_chemical_formula_structural   Li7Mn4CoO12
_chemical_formula_sum   'Li14 Mn8 Co2 O24'
_cell_volume   432.88591866
_cell_formula_units_Z   2
loop_
 _symmetry_equiv_pos_site_id
 _symmetry_equiv_pos_as_xyz
  1  'x, y, z'
loop_
 _atom_site_type_symbol
 _atom_site_label
 _atom_site_symmetry_multiplicity
 _atom_site_fract_x
 _atom_site_fract_y
 _atom_site_fract_z
 _atom_site_occupancy
  Li  Li0  1  0.50002200  0.83336700  0.00000000  1
  Li  Li1  1  0.49997200  0.83316600  0.49999700  1
  Li  Li2  1  0.25737500  0.91262300  0.23650700  1
  Li  Li3  1  0.25424800  0.91529600  0.75510300  1
  Li  Li4  1  0.74582400  0.75135600  0.24482800  1
  Li  Li5  1  0.74268000  0.75401500  0.76338500  1
  Li  Li6  1  0.74412300  0.07243800  0.23795900  1
  Li  Li7  1  0.75593000  0.08309200  0.75784600  1
  Li  Li8  1  0.24402400  0.58366900  0.24225400  1
  Li  Li9  1  0.25652100  0.59437300  0.76214400  1
  Li  Li10  1  0.75210400  0.41563800  0.24072300  1
  Li  Li11  1  0.74934000  0.41935100  0.75963900  1
  Li  Li12  1  0.25064700  0.24733700  0.24035700  1
  Li  Li13  1  0.24768900  0.25106600  0.75934300  1
  Mn  Mn0  1  0.00144000  0.99718500  0.49984600  1
  Mn  Mn1  1  0.00072000  0.99926600  0.99997300  1
  Mn  Mn2  1  0.99921200  0.66738000  0.00002000  1
  Mn  Mn3  1  0.99855000  0.66956100  0.50013400  1
  Mn  Mn4  1  0.50018600  0.16294800  0.50006300  1
  Mn  Mn5  1  0.50103000  0.16378700  0.99943400  1
  Mn  Mn6  1  0.49894300  0.50287900  0.00056900  1
  Mn  Mn7  1  0.49975100  0.50356400  0.49991700  1
  Co  Co0  1  0.00003200  0.33338700  0.50003600  1
  Co  Co1  1  0.99998300  0.33335900  0.00001600  1
  O  O0  1  0.89691200  0.87159500  0.11381800  1
  O  O1  1  0.89458600  0.87049600  0.61004000  1
  O  O2  1  0.10527100  0.79637000  0.38999500  1
  O  O3  1  0.10310100  0.79507800  0.88608700  1
  O  O4  1  0.35628800  0.04356100  0.11000600  1
  O  O5  1  0.35119700  0.04892200  0.60979900  1
  O  O6  1  0.64873100  0.61763900  0.39027400  1
  O  O7  1  0.64363500  0.62310100  0.88992600  1
  O  O8  1  0.35449700  0.69824500  0.11260900  1
  O  O9  1  0.35058700  0.69160100  0.61169500  1
  O  O10  1  0.64945000  0.97495100  0.38826900  1
  O  O11  1  0.64545100  0.96839500  0.88734200  1
  O  O12  1  0.89032300  0.55336600  0.12047000  1
  O  O13  1  0.84996000  0.54858800  0.60883100  1
  O  O14  1  0.15003500  0.11812900  0.39118800  1
  O  O15  1  0.10963100  0.11334800  0.87949900  1
  O  O16  1  0.38902600  0.37244100  0.11438500  1
  O  O17  1  0.39031100  0.37003900  0.60986000  1
  O  O18  1  0.60974900  0.29636200  0.39016900  1
  O  O19  1  0.61093100  0.29423100  0.88562600  1
  O  O20  1  0.89126900  0.19439300  0.12384200  1
  O  O21  1  0.85261600  0.19221500  0.61013700  1
  O  O22  1  0.14736400  0.47455300  0.38992900  1
  O  O23  1  0.10873100  0.47228100  0.87611100  1
loop_
_geom_bond_atom_site_label_1
_geom_bond_atom_site_label_2
_geom_bond_distance
_geom_bond_site_symmetry_2
Li0 O4 2.055332 1_565
Li0 O7 2.055760 1_554
Li0 O11 2.076077 1_554
Li0 O8 2.076504 1_555
Li0 O0 2.164101 1_555
Li0 O3 2.164583 1_554
Li1 O6 2.099983 1_555
Li1 O5 2.101766 1_565
Li1 O9 2.119299 1_555
Li1 O10 2.121160 1_555
Li1 O1 2.140537 1_555
Li1 O2 2.140778 1_555
Li2 O8 2.042133 1_555
Li2 O0 2.043242 1_455
Li2 O4 2.069927 1_565
Li2 O14 2.154489 1_565
Li2 O10 2.310713 1_555
Li2 O2 2.320493 1_555
Li3 O15 2.040403 1_565
Li3 O1 2.147880 1_455
Li3 O3 2.148262 1_555
Li3 O9 2.183286 1_555
Li3 O11 2.214750 1_555
Li3 O5 2.243898 1_565
Li4 O12 2.039599 1_555
Li4 O2 2.147562 1_655
Li4 O0 2.148465 1_555
Li4 O10 2.182885 1_555
Li4 O8 2.215187 1_555
Li4 O6 2.245927 1_555
Li5 O11 2.042567 1_555
Li5 O3 2.043124 1_655
Li5 O7 2.070338 1_555
Li5 O13 2.153258 1_555
Li5 O9 2.310465 1_555
Li5 O1 2.320062 1_555
Li6 O20 2.010456 1_555
Li6 O10 2.073664 1_545
Li6 O0 2.074826 1_545
Li6 O4 2.184347 1_555
Li6 O18 2.297095 1_555
Li6 O14 2.371455 1_655
Li7 O15 2.012676 1_655
Li7 O11 2.016127 1_545
Li7 O21 2.118534 1_555
Li7 O19 2.133214 1_555
Li7 O1 2.220434 1_545
Li7 O5 2.345211 1_555
Li8 O12 2.013258 1_455
Li8 O8 2.016676 1_555
Li8 O22 2.118143 1_555
Li8 O16 2.134133 1_555
Li8 O2 2.220904 1_555
Li8 O6 2.345076 1_555
Li9 O23 2.011604 1_555
Li9 O9 2.072460 1_555
Li9 O3 2.074675 1_555
Li9 O7 2.180629 1_555
Li9 O17 2.298607 1_555
Li9 O13 2.374447 1_455
Li10 O16 2.070361 1_555
Li10 O6 2.100310 1_555
Li10 O12 2.137941 1_555
Li10 O20 2.140733 1_555
Li10 O18 2.280813 1_555
Li10 O22 2.309907 1_655
Li11 O23 2.015614 1_655
Li11 O7 2.018841 1_555
Li11 O19 2.106981 1_555
Li11 O17 2.170039 1_555
Li11 O21 2.244217 1_555
Li11 O13 2.271059 1_555
Li12 O20 2.015738 1_455
Li12 O4 2.019170 1_555
Li12 O16 2.106693 1_555
Li12 O18 2.170507 1_555
Li12 O22 2.245039 1_555
Li12 O14 2.271072 1_555
Li13 O19 2.070791 1_555
Li13 O5 2.101306 1_555
Li13 O15 2.136753 1_555
Li13 O23 2.139697 1_555
Li13 O17 2.279993 1_555
Li13 O21 2.309142 1_455
Mn0 O2 1.911868 1_555
Mn0 O1 1.922139 1_455
Mn0 O5 1.948402 1_565
Mn0 O14 1.963980 1_565
Mn0 O10 1.964850 1_455
Mn0 O21 1.973573 1_465
Mn1 O15 1.932191 1_565
Mn1 O20 1.945066 1_466
Mn1 O3 1.946369 1_555
Mn1 O0 1.952599 1_456
Mn1 O4 1.970480 1_566
Mn1 O11 1.979578 1_455
Mn2 O12 1.931530 1_555
Mn2 O23 1.945214 1_654
Mn2 O0 1.946058 1_555
Mn2 O3 1.953645 1_654
Mn2 O7 1.970751 1_554
Mn2 O8 1.979473 1_655
Mn3 O1 1.913103 1_555
Mn3 O2 1.922217 1_655
Mn3 O6 1.948418 1_555
Mn3 O13 1.964456 1_555
Mn3 O9 1.965098 1_655
Mn3 O22 1.973080 1_655
Mn4 O5 1.931842 1_555
Mn4 O10 1.938591 1_545
Mn4 O14 1.942830 1_555
Mn4 O21 1.957288 1_555
Mn4 O17 1.964137 1_555
Mn4 O18 1.968869 1_555
Mn5 O4 1.965678 1_556
Mn5 O11 1.972357 1_545
Mn5 O19 1.981711 1_555
Mn5 O16 1.997341 1_556
Mn5 O15 2.165029 1_555
Mn5 O20 2.178429 1_556
Mn6 O7 1.966106 1_554
Mn6 O8 1.972051 1_555
Mn6 O16 1.981768 1_555
Mn6 O19 1.997241 1_554
Mn6 O12 2.164835 1_555
Mn6 O23 2.178528 1_554
Mn7 O6 1.931362 1_555
Mn7 O9 1.938514 1_555
Mn7 O13 1.943297 1_555
Mn7 O22 1.956828 1_555
Mn7 O18 1.964926 1_555
Mn7 O17 1.969761 1_555
Co0 O13 2.097732 1_455
Co0 O14 2.098121 1_555
Co0 O22 2.099719 1_555
Co0 O21 2.099901 1_455
Co0 O17 2.120517 1_555
Co0 O18 2.120687 1_455
Co1 O12 2.087423 1_555
Co1 O15 2.087663 1_654
Co1 O20 2.116779 1_555
Co1 O23 2.117204 1_654
Co1 O16 2.131651 1_655
Co1 O19 2.131770 1_554
