# generated using pymatgen
data_Li4Mn3V2Cr(PO4)6
_symmetry_space_group_name_H-M   'P 1'
_cell_length_a   8.45784200
_cell_length_b   8.52375480
_cell_length_c   8.53728993
_cell_angle_alpha   63.64909055
_cell_angle_beta   64.15979281
_cell_angle_gamma   64.18455288
_symmetry_Int_Tables_number   1
_chemical_formula_structural   Li4Mn3V2Cr(PO4)6
_chemical_formula_sum   'Li4 Mn3 V2 Cr1 P6 O24'
_cell_volume   473.50244672
_cell_formula_units_Z   1
loop_
 _symmetry_equiv_pos_site_id
 _symmetry_equiv_pos_as_xyz
  1  'x, y, z'
loop_
 _atom_site_type_symbol
 _atom_site_label
 _atom_site_symmetry_multiplicity
 _atom_site_fract_x
 _atom_site_fract_y
 _atom_site_fract_z
 _atom_site_occupancy
  Li  Li0  1  0.75268200  0.14474900  0.35246900  1
  Li  Li1  1  0.26538700  0.85815000  0.65187200  1
  Li  Li2  1  0.64570700  0.26331000  0.86333700  1
  Li  Li3  1  0.86500400  0.64532400  0.26527800  1
  Mn  Mn0  1  0.34801500  0.34828700  0.34486900  1
  Mn  Mn1  1  0.15145000  0.15292400  0.15057300  1
  Mn  Mn2  1  0.65589000  0.65825600  0.66051200  1
  V  V0  1  0.00921000  0.00276500  0.99948800  1
  V  V1  1  0.49207600  0.50230400  0.50074700  1
  Cr  Cr0  1  0.85337000  0.84952700  0.85306600  1
  P  P0  1  0.05913300  0.74603700  0.44665000  1
  P  P1  1  0.44272500  0.05834500  0.75016000  1
  P  P2  1  0.74718200  0.44387200  0.05811800  1
  P  P3  1  0.24442800  0.55753900  0.93966100  1
  P  P4  1  0.56813700  0.94196100  0.24800600  1
  P  P5  1  0.92887800  0.24249000  0.55359900  1
  O  O0  1  0.46470500  0.91354800  0.67442500  1
  O  O1  1  0.67232900  0.46522000  0.91303300  1
  O  O2  1  0.91616100  0.66354300  0.47300400  1
  O  O3  1  0.06564500  0.90256100  0.26160200  1
  O  O4  1  0.00903500  0.81006000  0.61074300  1
  O  O5  1  0.25736900  0.60154700  0.43668700  1
  O  O6  1  0.25403000  0.08054600  0.89709900  1
  O  O7  1  0.45039000  0.24870100  0.59285100  1
  O  O8  1  0.17019700  0.40929000  0.97679000  1
  O  O9  1  0.60422800  0.42879000  0.25698900  1
  O  O10  1  0.09649700  0.75854800  0.91110200  1
  O  O11  1  0.40555300  0.00175300  0.18345200  1
  O  O12  1  0.60778700  0.00402500  0.81808800  1
  O  O13  1  0.89299600  0.25047500  0.08286900  1
  O  O14  1  0.39446900  0.58029700  0.74184500  1
  O  O15  1  0.81161300  0.60792000  0.00926200  1
  O  O16  1  0.57905400  0.74347000  0.39662700  1
  O  O17  1  0.76339300  0.90800500  0.09480400  1
  O  O18  1  0.73390400  0.39695100  0.58204300  1
  O  O19  1  0.94080000  0.17553200  0.41023300  1
  O  O20  1  0.91152200  0.09496300  0.75383400  1
  O  O21  1  0.09446500  0.30060400  0.50403000  1
  O  O22  1  0.30969300  0.52862200  0.09243800  1
  O  O23  1  0.56488900  0.08618900  0.31074900  1
loop_
_geom_bond_atom_site_label_1
_geom_bond_atom_site_label_2
_geom_bond_distance
_geom_bond_site_symmetry_2
Li0 O19 2.001501 1_555
Li0 O13 2.055996 1_555
Li0 O23 2.059190 1_555
Li0 O9 2.143665 1_555
Li0 O7 2.569211 1_555
Li0 O3 2.596614 1_645
Li1 O0 2.039346 1_555
Li1 O14 2.062797 1_555
Li1 O10 2.071613 1_555
Li1 O4 2.560826 1_555
Li2 O1 2.064374 1_555
Li2 O18 2.090737 1_555
Li2 O20 2.129905 1_555
Li2 O12 2.572901 1_555
Li3 O2 2.080440 1_555
Li3 O17 2.095609 1_555
Li3 O16 2.124387 1_555
Mn0 O21 2.083040 1_555
Mn0 O22 2.084808 1_555
Mn0 O23 2.232342 1_555
Mn0 O9 2.269463 1_555
Mn0 O7 2.305401 1_555
Mn0 O5 2.323622 1_555
Mn1 O11 2.037382 1_555
Mn1 O8 2.054275 1_554
Mn1 O19 2.182397 1_455
Mn1 O13 2.212608 1_455
Mn1 O6 2.213252 1_554
Mn1 O3 2.220973 1_545
Mn2 O1 2.070598 1_555
Mn2 O2 2.088290 1_555
Mn2 O0 2.088406 1_555
Mn2 O14 2.311748 1_555
Mn2 O16 2.331908 1_555
Mn2 O18 2.346125 1_555
Cr0 O15 1.982192 1_556
Cr0 O12 1.986709 1_565
Cr0 O4 1.996035 1_655
Cr0 O10 2.057563 1_655
Cr0 O20 2.072634 1_565
Cr0 O17 2.073776 1_556
O0 P1 1.542629 1_565
O1 P2 1.533393 1_556
O2 P0 1.539559 1_655
O3 P0 1.547863 1_555
O3 V0 2.200944 1_564
O4 P0 1.549104 1_555
O5 P0 1.582854 1_555
O5 V1 2.007117 1_555
O6 P1 1.535904 1_555
O6 V0 2.143497 1_555
O7 P1 1.588009 1_555
O7 V1 2.080510 1_555
O8 P3 1.501113 1_555
O9 P2 1.585286 1_555
O9 V1 2.131261 1_555
O10 P3 1.608878 1_555
O10 V0 2.240089 1_565
O11 P4 1.501767 1_545
O12 P1 1.550519 1_555
O13 P2 1.558960 1_555
O13 V0 2.201763 1_654
O14 P3 1.598588 1_555
O14 V1 2.148407 1_555
O15 P2 1.540768 1_555
O16 P4 1.594140 1_555
O16 V1 2.163766 1_555
O17 P4 1.599556 1_555
O17 V0 2.245314 1_664
O18 P5 1.598614 1_555
O18 V1 2.134487 1_555
O19 P5 1.515387 1_555
O20 P5 1.599626 1_555
O20 V0 2.276062 1_655
O21 P5 1.512400 1_455
O22 P3 1.513403 1_554
O23 P4 1.530151 1_545
