# generated using pymatgen
data_AlCoO3
_symmetry_space_group_name_H-M   'P 1'
_cell_length_a   5.29084554
_cell_length_b   5.54518829
_cell_length_c   11.85510791
_cell_angle_alpha   89.68621860
_cell_angle_beta   90.13927045
_cell_angle_gamma   120.12354714
_symmetry_Int_Tables_number   1
_chemical_formula_structural   AlCoO3
_chemical_formula_sum   'Al6 Co6 O18'
_cell_volume   300.83541598
_cell_formula_units_Z   6
loop_
 _symmetry_equiv_pos_site_id
 _symmetry_equiv_pos_as_xyz
  1  'x, y, z'
loop_
 _atom_site_type_symbol
 _atom_site_label
 _atom_site_symmetry_multiplicity
 _atom_site_fract_x
 _atom_site_fract_y
 _atom_site_fract_z
 _atom_site_occupancy
  Al  Al0  1  0.66857900  0.33295000  0.25281400  1
  Al  Al1  1  0.33488100  0.69607100  0.75950200  1
  Al  Al2  1  0.66565000  0.33523300  0.75046300  1
  Al  Al3  1  0.33899500  0.66254300  0.25406200  1
  Al  Al4  1  0.99470200  0.99610600  0.75026000  1
  Al  Al5  1  0.99809100  0.99176500  0.25241400  1
  Co  Co0  1  0.66741400  0.00115700  0.49950800  1
  Co  Co1  1  0.63101400  0.64405300  0.00082600  1
  Co  Co2  1  0.02828700  0.33511500  0.00167600  1
  Co  Co3  1  0.01046700  0.66909700  0.50258100  1
  Co  Co4  1  0.33372700  0.32534500  0.50557000  1
  Co  Co5  1  0.33129300  0.03115300  0.00711700  1
  O  O0  1  0.67521800  0.34653200  0.99908500  1
  O  O1  1  0.35491500  0.65763700  0.50663400  1
  O  O2  1  0.68597100  0.32567500  0.49600600  1
  O  O3  1  0.30369200  0.68774400  0.00260600  1
  O  O4  1  0.95966000  0.99652900  0.99809400  1
  O  O5  1  0.00858100  0.98204900  0.49565300  1
  O  O6  1  0.32636200  0.01292900  0.82848000  1
  O  O7  1  0.33442600  0.32982200  0.33627600  1
  O  O8  1  0.00819700  0.65433600  0.32425800  1
  O  O9  1  0.01617500  0.34503300  0.83084400  1
  O  O10  1  0.64647400  0.65947000  0.82329800  1
  O  O11  1  0.67106000  0.99488600  0.32405200  1
  O  O12  1  0.33200500  0.02068200  0.17703200  1
  O  O13  1  0.32788800  0.30072100  0.66434300  1
  O  O14  1  0.00091700  0.66030700  0.67846800  1
  O  O15  1  0.01181800  0.33314600  0.17184700  1
  O  O16  1  0.65874500  0.66079200  0.17669300  1
  O  O17  1  0.67479500  0.01112100  0.67954000  1
loop_
_geom_bond_atom_site_label_1
_geom_bond_atom_site_label_2
_geom_bond_distance
_geom_bond_site_symmetry_2
Al0 O12 1.972521 1_555
Al0 O8 1.979153 1_655
Al0 O7 2.020521 1_555
Al0 O16 2.049084 1_555
Al0 O15 2.055671 1_655
Al0 O11 2.057899 1_545
Al1 O10 1.912890 1_555
Al1 O14 1.930398 1_555
Al1 O6 1.962987 1_565
Al1 O17 2.005386 1_565
Al1 O9 2.010500 1_555
Al1 O13 2.454716 1_555
Al2 O14 1.976210 1_655
Al2 O13 1.980535 1_555
Al2 O6 2.010422 1_555
Al2 O17 2.010838 1_555
Al2 O10 2.046714 1_555
Al2 O9 2.059437 1_655
Al3 O8 1.919510 1_555
Al3 O16 1.930679 1_555
Al3 O11 1.982737 1_555
Al3 O15 2.029893 1_555
Al3 O7 2.071284 1_555
Al3 O12 2.198405 1_565
Al4 O17 1.925733 1_565
Al4 O6 1.943327 1_665
Al4 O13 1.999836 1_665
Al4 O10 2.041276 1_555
Al4 O14 2.066811 1_655
Al4 O9 2.113847 1_665
Al5 O12 1.915016 1_665
Al5 O11 1.937206 1_555
Al5 O16 2.024967 1_555
Al5 O8 2.076552 1_655
Al5 O7 2.081502 1_665
Al5 O15 2.084134 1_665
Co0 O2 1.752562 1_555
Co0 O1 1.790825 1_545
Co0 O5 1.861180 1_645
Co0 O11 2.080829 1_545
Co0 O17 2.135071 1_555
Co1 O0 1.778956 1_554
Co1 O4 1.852857 1_554
Co1 O3 1.865391 1_555
Co1 O16 2.089020 1_555
Co1 O10 2.106002 1_554
Co2 O4 1.724897 1_444
Co2 O3 1.757035 1_555
Co2 O0 1.900765 1_454
Co2 O15 2.019221 1_555
Co2 O9 2.027408 1_554
Co3 O5 1.741895 1_555
Co3 O2 1.816447 1_455
Co3 O1 1.855627 1_555
Co3 O14 2.085604 1_555
Co3 O8 2.115842 1_555
Co4 O1 1.789105 1_555
Co4 O5 1.819755 1_545
Co4 O2 1.866473 1_555
Co4 O13 1.885677 1_555
Co4 O7 2.007006 1_555
Co5 O0 1.784236 1_554
Co5 O3 1.836403 1_545
Co5 O4 1.880089 1_444
Co5 O12 2.014928 1_555
Co5 O6 2.120197 1_554
