# generated using pymatgen
data_Sr2Mn2O5
_symmetry_space_group_name_H-M   'P 1'
_cell_length_a   5.45263118
_cell_length_b   5.45222321
_cell_length_c   9.26831984
_cell_angle_alpha   107.08225918
_cell_angle_beta   107.08603579
_cell_angle_gamma   90.02654295
_symmetry_Int_Tables_number   1
_chemical_formula_structural   Sr2Mn2O5
_chemical_formula_sum   'Sr4 Mn4 O10'
_cell_volume   250.61972051
_cell_formula_units_Z   2
loop_
 _symmetry_equiv_pos_site_id
 _symmetry_equiv_pos_as_xyz
  1  'x, y, z'
loop_
 _atom_site_type_symbol
 _atom_site_label
 _atom_site_symmetry_multiplicity
 _atom_site_fract_x
 _atom_site_fract_y
 _atom_site_fract_z
 _atom_site_occupancy
  Sr  Sr0  1  0.62137300  0.11706100  0.22119500  1
  Sr  Sr1  1  0.40043600  0.88338800  0.77875500  1
  Sr  Sr2  1  0.12027800  0.60466000  0.22134300  1
  Sr  Sr3  1  0.89867400  0.39537700  0.77863000  1
  Mn  Mn0  1  0.21885100  0.18782500  0.49955600  1
  Mn  Mn1  1  0.71958300  0.81227000  0.50000400  1
  Mn  Mn2  1  0.50930000  0.50015900  0.00034900  1
  Mn  Mn3  1  0.00967700  0.99995900  0.00036400  1
  O  O0  1  0.86619300  0.15271300  0.49984800  1
  O  O1  1  0.36708400  0.84923100  0.49980200  1
  O  O2  1  0.25631100  0.24884800  0.99641900  1
  O  O3  1  0.26071700  0.75148300  0.00450100  1
  O  O4  1  0.75656800  0.24689900  0.99655500  1
  O  O5  1  0.76060300  0.75203500  0.00353900  1
  O  O6  1  0.15444400  0.14988600  0.28116300  1
  O  O7  1  0.87197100  0.84947500  0.71819400  1
  O  O8  1  0.66047800  0.62347500  0.28306900  1
  O  O9  1  0.37546200  0.37525700  0.71671500  1
loop_
_geom_bond_atom_site_label_1
_geom_bond_atom_site_label_2
_geom_bond_distance
_geom_bond_site_symmetry_2
Mn0 O6 1.897233 1_555
Mn0 O9 1.898784 1_555
Mn0 O0 1.933203 1_455
Mn0 O1 2.015964 1_545
Mn1 O7 1.895402 1_555
Mn1 O8 1.899757 1_555
Mn1 O1 1.932186 1_555
Mn1 O0 2.021215 1_565
Mn2 O5 1.927434 1_555
Mn2 O3 1.928139 1_555
Mn2 O2 1.929012 1_554
Mn2 O4 1.930491 1_554
Mn2 O8 2.385990 1_555
Mn2 O9 2.393216 1_554
Mn3 O2 1.925521 1_564
Mn3 O3 1.926628 1_555
Mn3 O5 1.928126 1_455
Mn3 O4 1.928648 1_464
Mn3 O6 2.367888 1_565
Mn3 O7 2.379370 1_454
O0 Sr0 2.483706 1_555
O0 Sr3 2.486080 1_555
O1 Sr2 2.487076 1_555
O1 Sr1 2.488573 1_555
O2 Sr3 2.674196 1_455
O2 Sr2 2.682074 1_556
O2 Sr1 2.688718 1_545
O2 Sr0 2.694932 1_556
O3 Sr2 2.667451 1_555
O3 Sr0 2.682815 1_565
O3 Sr3 2.688751 1_454
O3 Sr1 2.701002 1_554
O4 Sr1 2.667660 1_545
O4 Sr0 2.673332 1_556
O4 Sr3 2.686074 1_555
O4 Sr2 2.694334 1_656
O5 Sr0 2.673838 1_565
O5 Sr1 2.680248 1_554
O5 Sr2 2.682341 1_655
O5 Sr3 2.689898 1_554
O6 Sr2 2.690267 1_555
O6 Sr0 2.756178 1_555
O6 Sr0 2.789494 1_455
O6 Sr2 2.854738 1_545
O7 Sr3 2.689221 1_555
O7 Sr1 2.764156 1_655
O7 Sr1 2.783401 1_555
O7 Sr3 2.857623 1_565
O8 Sr0 2.644860 1_555
O8 Sr2 2.726179 1_655
O8 Sr2 2.826464 1_555
O8 Sr0 2.907217 1_565
O9 Sr1 2.653731 1_555
O9 Sr3 2.735142 1_555
O9 Sr3 2.817792 1_455
O9 Sr1 2.898513 1_545
