# generated using pymatgen
data_V3Cr
_symmetry_space_group_name_H-M   'P 1'
_cell_length_a   4.15840017
_cell_length_b   4.15840017
_cell_length_c   4.15840017
_cell_angle_alpha   60.00000000
_cell_angle_beta   60.00000000
_cell_angle_gamma   60.00000000
_symmetry_Int_Tables_number   1
_chemical_formula_structural   V3Cr
_chemical_formula_sum   'V3 Cr1'
_cell_volume   50.84682531
_cell_formula_units_Z   1
loop_
 _symmetry_equiv_pos_site_id
 _symmetry_equiv_pos_as_xyz
  1  'x, y, z'
loop_
 _atom_site_type_symbol
 _atom_site_label
 _atom_site_symmetry_multiplicity
 _atom_site_fract_x
 _atom_site_fract_y
 _atom_site_fract_z
 _atom_site_occupancy
  V  V0  1  -0.00000000  -0.00000000  -0.00000000  1
  V  V1  1  0.50000100  0.50000100  0.50000100  1
  V  V2  1  0.25000000  0.25000000  0.25000000  1
  Cr  Cr0  1  0.75000100  0.75000100  0.75000100  1
loop_
_geom_bond_atom_site_label_1
_geom_bond_atom_site_label_2
_geom_bond_distance
_geom_bond_site_symmetry_2
V0 V2 2.546490 1_545
V0 V2 2.546490 1_555
V0 V2 2.546490 1_554
V0 V2 2.546490 1_455
V1 V2 2.546486 1_556
V1 V2 2.546486 1_565
V1 V2 2.546486 1_655
V1 V2 2.546500 1_555
Cr0 V0 2.546479 1_666
Cr0 V1 2.546490 1_555
Cr0 V1 2.546490 1_565
Cr0 V1 2.546490 1_556
Cr0 V1 2.546490 1_655
Cr0 V0 2.546493 1_656
Cr0 V0 2.546493 1_566
Cr0 V0 2.546493 1_665
Cr0 V2 2.940427 1_656
Cr0 V2 2.940427 1_665
Cr0 V2 2.940427 1_566
Cr0 V2 2.940439 1_565
Cr0 V2 2.940439 1_655
Cr0 V2 2.940439 1_556
