# generated using pymatgen
data_Eu3Re
_symmetry_space_group_name_H-M   'P 1'
_cell_length_a   5.30075103
_cell_length_b   5.30075103
_cell_length_c   5.30075103
_cell_angle_alpha   60.00000000
_cell_angle_beta   60.00000000
_cell_angle_gamma   60.00000000
_symmetry_Int_Tables_number   1
_chemical_formula_structural   Eu3Re
_chemical_formula_sum   'Eu3 Re1'
_cell_volume   105.31669501
_cell_formula_units_Z   1
loop_
 _symmetry_equiv_pos_site_id
 _symmetry_equiv_pos_as_xyz
  1  'x, y, z'
loop_
 _atom_site_type_symbol
 _atom_site_label
 _atom_site_symmetry_multiplicity
 _atom_site_fract_x
 _atom_site_fract_y
 _atom_site_fract_z
 _atom_site_occupancy
  Eu  Eu0  1  0.25000000  0.25000000  0.25000000  1
  Eu  Eu1  1  0.75000000  0.75000000  0.75000000  1
  Eu  Eu2  1  0.50000000  0.50000000  0.50000000  1
  Re  Re0  1  0.00000000  0.00000000  0.00000000  1
loop_
_geom_bond_atom_site_label_1
_geom_bond_atom_site_label_2
_geom_bond_distance
_geom_bond_site_symmetry_2
Eu0 Re0 3.246034 1_655
Eu0 Eu2 3.246034 1_455
Eu0 Eu2 3.246034 1_545
Eu0 Eu2 3.246034 1_555
Eu0 Re0 3.246034 1_555
Eu0 Eu2 3.246034 1_554
Eu0 Re0 3.246034 1_565
Eu0 Re0 3.246034 1_556
Eu1 Re0 3.246034 1_566
Eu1 Eu2 3.246034 1_655
Eu1 Eu2 3.246034 1_555
Eu1 Eu2 3.246034 1_556
Eu1 Re0 3.246034 1_656
Eu1 Re0 3.246034 1_665
Eu1 Eu2 3.246034 1_565
Eu1 Re0 3.246034 1_666
