# generated using pymatgen
data_TcB4
_symmetry_space_group_name_H-M   'P 1'
_cell_length_a   5.27936275
_cell_length_b   5.27936275
_cell_length_c   6.51324674
_cell_angle_alpha   90.00000000
_cell_angle_beta   90.00000000
_cell_angle_gamma   119.99999692
_symmetry_Int_Tables_number   1
_chemical_formula_structural   TcB4
_chemical_formula_sum   'Tc4 B16'
_cell_volume   157.21398793
_cell_formula_units_Z   4
loop_
 _symmetry_equiv_pos_site_id
 _symmetry_equiv_pos_as_xyz
  1  'x, y, z'
loop_
 _atom_site_type_symbol
 _atom_site_label
 _atom_site_symmetry_multiplicity
 _atom_site_fract_x
 _atom_site_fract_y
 _atom_site_fract_z
 _atom_site_occupancy
  Tc  Tc0  1  0.33333300  0.66666700  0.25000000  1
  Tc  Tc1  1  0.66666700  0.33333300  0.75000000  1
  Tc  Tc2  1  0.00000000  -0.00000000  0.25000000  1
  Tc  Tc3  1  0.00000000  -0.00000000  0.75000000  1
  B  B0  1  0.33559836  0.33560132  0.50003315  1
  B  B1  1  0.66439868  -0.00000296  0.50003315  1
  B  B2  1  0.00000296  0.66440164  0.50003315  1
  B  B3  1  0.66439868  0.66440164  0.50003315  1
  B  B4  1  0.00000296  0.33560132  0.50003315  1
  B  B5  1  0.33559836  -0.00000296  0.50003315  1
  B  B6  1  0.66439868  0.66440164  0.99996685  1
  B  B7  1  0.33559836  -0.00000296  0.99996685  1
  B  B8  1  0.00000296  0.33560132  0.99996685  1
  B  B9  1  0.33559836  0.33560132  0.99996685  1
  B  B10  1  0.00000296  0.66440164  0.99996685  1
  B  B11  1  0.66439868  -0.00000296  0.99996685  1
  B  B12  1  0.33333300  0.66666700  0.88034918  1
  B  B13  1  0.66666700  0.33333300  0.11962462  1
  B  B14  1  0.66666700  0.33333300  0.38037538  1
  B  B15  1  0.33333300  0.66666700  0.61965082  1
loop_
_geom_bond_atom_site_label_1
_geom_bond_atom_site_label_2
_geom_bond_distance
_geom_bond_site_symmetry_2
B0 B3 1.735856 1_555
B0 B4 1.771730 1_555
B0 B5 1.771777 1_555
B0 B15 1.919089 1_555
B0 B14 1.919216 1_555
B0 Tc1 2.393049 1_555
B0 Tc0 2.393326 1_555
B0 Tc3 2.406202 1_555
B0 Tc2 2.406494 1_555
B1 B5 1.735856 1_555
B1 B3 1.771730 1_545
B1 B4 1.771777 1_655
B1 B15 1.919087 1_545
B1 B14 1.919212 1_555
B1 Tc1 2.393045 1_555
B1 Tc0 2.393324 1_545
B1 Tc3 2.406201 1_655
B1 Tc2 2.406494 1_655
B2 B4 1.735856 1_555
B2 B5 1.771730 1_565
B2 B3 1.771777 1_455
B2 Tc1 2.393047 1_455
B2 Tc0 2.393322 1_555
B2 Tc3 2.406201 1_565
B2 Tc2 2.406494 1_565
B3 Tc1 2.393049 1_555
B3 Tc0 2.393326 1_555
B3 Tc3 2.406202 1_665
B3 Tc2 2.406494 1_665
B4 Tc1 2.393045 1_455
B4 Tc0 2.393324 1_555
B4 Tc3 2.406201 1_555
B4 Tc2 2.406494 1_555
B5 Tc1 2.393047 1_555
B5 Tc0 2.393322 1_545
B5 Tc3 2.406201 1_555
B5 Tc2 2.406494 1_555
B6 B9 1.735856 1_555
B6 Tc1 2.393049 1_555
B6 Tc0 2.393326 1_556
B6 Tc3 2.406202 1_665
B6 Tc2 2.406494 1_666
B7 B9 1.771777 1_555
B7 Tc1 2.393047 1_555
B7 Tc0 2.393322 1_546
B7 Tc3 2.406201 1_555
B7 Tc2 2.406494 1_556
B8 B9 1.771730 1_555
B8 Tc1 2.393045 1_455
B8 Tc0 2.393324 1_556
B8 Tc3 2.406201 1_555
B8 Tc2 2.406494 1_556
B9 Tc1 2.393049 1_555
B9 Tc0 2.393326 1_556
B9 Tc3 2.406202 1_555
B9 Tc2 2.406494 1_556
B10 B8 1.735856 1_555
B10 B7 1.771730 1_565
B10 B6 1.771777 1_455
B10 B12 1.919084 1_555
B10 B13 1.919214 1_456
B10 Tc1 2.393047 1_455
B10 Tc0 2.393322 1_556
B10 Tc3 2.406201 1_565
B10 Tc2 2.406494 1_566
B11 B7 1.735856 1_555
B11 B6 1.771730 1_545
B11 B8 1.771777 1_655
B11 B12 1.919087 1_545
B11 B13 1.919212 1_556
B11 Tc1 2.393045 1_555
B11 Tc0 2.393324 1_546
B11 Tc3 2.406201 1_655
B11 Tc2 2.406494 1_656
B12 B15 1.697993 1_555
B12 B7 1.919084 1_565
B12 B8 1.919087 1_555
B12 B9 1.919089 1_555
B12 B6 1.919089 1_555
B12 Tc0 2.407627 1_556
B13 B14 1.698334 1_555
B13 B8 1.919212 1_654
B13 B7 1.919214 1_554
B13 B9 1.919216 1_554
B13 B6 1.919216 1_554
B13 Tc1 2.407456 1_554
B14 B4 1.919212 1_655
B14 B2 1.919214 1_655
B14 B5 1.919214 1_555
B14 B3 1.919216 1_555
B14 Tc1 2.407456 1_555
B15 B2 1.919084 1_555
B15 B5 1.919084 1_565
B15 B4 1.919087 1_555
B15 B3 1.919089 1_555
B15 Tc0 2.407627 1_555
