# generated using pymatgen
data_Dy2MgSe4
_symmetry_space_group_name_H-M   'P 1'
_cell_length_a   4.01845500
_cell_length_b   13.15830700
_cell_length_c   14.09718700
_cell_angle_alpha   90.00000000
_cell_angle_beta   90.00000000
_cell_angle_gamma   90.00000000
_symmetry_Int_Tables_number   1
_chemical_formula_structural   Dy2MgSe4
_chemical_formula_sum   'Dy8 Mg4 Se16'
_cell_volume   745.40376987
_cell_formula_units_Z   4
loop_
 _symmetry_equiv_pos_site_id
 _symmetry_equiv_pos_as_xyz
  1  'x, y, z'
loop_
 _atom_site_type_symbol
 _atom_site_label
 _atom_site_symmetry_multiplicity
 _atom_site_fract_x
 _atom_site_fract_y
 _atom_site_fract_z
 _atom_site_occupancy
  Dy  Dy0  1  0.25000000  0.11560400  0.07375800  1
  Dy  Dy1  1  0.75000000  0.88439600  0.92624200  1
  Dy  Dy2  1  0.75000000  0.38439600  0.57375800  1
  Dy  Dy3  1  0.25000000  0.61560400  0.42624200  1
  Dy  Dy4  1  0.25000000  0.14283100  0.70294300  1
  Dy  Dy5  1  0.75000000  0.85716900  0.29705700  1
  Dy  Dy6  1  0.75000000  0.35716900  0.20294300  1
  Dy  Dy7  1  0.25000000  0.64283100  0.79705700  1
  Mg  Mg0  1  0.75000000  0.11099900  0.45367200  1
  Mg  Mg1  1  0.25000000  0.88900100  0.54632800  1
  Mg  Mg2  1  0.25000000  0.38900100  0.95367200  1
  Mg  Mg3  1  0.75000000  0.61099900  0.04632800  1
  Se  Se0  1  0.75000000  0.00888900  0.61730300  1
  Se  Se1  1  0.25000000  0.99111100  0.38269700  1
  Se  Se2  1  0.25000000  0.49111100  0.11730300  1
  Se  Se3  1  0.75000000  0.50888900  0.88269700  1
  Se  Se4  1  0.25000000  0.02851000  0.88086800  1
  Se  Se5  1  0.75000000  0.97149000  0.11913200  1
  Se  Se6  1  0.75000000  0.47149000  0.38086800  1
  Se  Se7  1  0.25000000  0.52851000  0.61913200  1
  Se  Se8  1  0.25000000  0.22125900  0.24898200  1
  Se  Se9  1  0.75000000  0.77874100  0.75101800  1
  Se  Se10  1  0.75000000  0.27874100  0.74898200  1
  Se  Se11  1  0.25000000  0.72125900  0.25101800  1
  Se  Se12  1  0.75000000  0.25964700  0.01365200  1
  Se  Se13  1  0.25000000  0.74035300  0.98634800  1
  Se  Se14  1  0.25000000  0.24035300  0.51365200  1
  Se  Se15  1  0.75000000  0.75964700  0.48634800  1
loop_
_geom_bond_atom_site_label_1
_geom_bond_atom_site_label_2
_geom_bond_distance
_geom_bond_site_symmetry_2
Dy0 Se8 2.834517 1_555
Dy0 Se5 2.835856 1_445
Dy0 Se5 2.835856 1_545
Dy0 Se12 2.889179 1_555
Dy0 Se12 2.889179 1_455
Dy0 Se4 2.950834 1_554
Dy1 Se9 2.834517 1_555
Dy1 Se4 2.835856 1_565
Dy1 Se4 2.835856 1_665
Dy1 Se13 2.889179 1_555
Dy1 Se13 2.889179 1_655
Dy1 Se5 2.950834 1_556
Dy2 Se10 2.834517 1_555
Dy2 Se7 2.835856 1_555
Dy2 Se7 2.835856 1_655
Dy2 Se14 2.889179 1_655
Dy2 Se14 2.889179 1_555
Dy2 Se6 2.950834 1_555
Dy3 Se11 2.834517 1_555
Dy3 Se6 2.835856 1_555
Dy3 Se6 2.835856 1_455
Dy3 Se15 2.889179 1_455
Dy3 Se15 2.889179 1_555
Dy3 Se7 2.950834 1_555
Dy4 Se10 2.767020 1_455
Dy4 Se10 2.767020 1_555
Dy4 Se4 2.924741 1_555
Dy4 Se0 2.932705 1_455
Dy4 Se0 2.932705 1_555
Dy4 Se14 2.960980 1_555
Dy5 Se11 2.767020 1_555
Dy5 Se11 2.767020 1_655
Dy5 Se5 2.924741 1_555
Dy5 Se1 2.932705 1_655
Dy5 Se1 2.932705 1_555
Dy5 Se15 2.960980 1_555
Dy6 Se8 2.767020 1_555
Dy6 Se8 2.767020 1_655
Dy6 Se6 2.924741 1_555
Dy6 Se2 2.932705 1_555
Dy6 Se2 2.932705 1_655
Dy6 Se12 2.960980 1_555
Dy7 Se9 2.767020 1_555
Dy7 Se9 2.767020 1_455
Dy7 Se7 2.924741 1_555
Dy7 Se3 2.932705 1_555
Dy7 Se3 2.932705 1_455
Dy7 Se13 2.960980 1_555
Mg0 Se0 2.669510 1_555
Mg0 Se1 2.743478 1_645
Mg0 Se1 2.743478 1_545
Mg0 Se14 2.765687 1_555
Mg0 Se14 2.765687 1_655
Mg1 Se1 2.669510 1_555
Mg1 Se0 2.743478 1_565
Mg1 Se0 2.743478 1_465
Mg1 Se15 2.765687 1_455
Mg1 Se15 2.765687 1_555
Mg2 Se2 2.669510 1_556
Mg2 Se3 2.743478 1_455
Mg2 Se3 2.743478 1_555
Mg2 Se12 2.765687 1_556
Mg2 Se12 2.765687 1_456
Mg3 Se3 2.669510 1_554
Mg3 Se2 2.743478 1_555
Mg3 Se2 2.743478 1_655
Mg3 Se13 2.765687 1_554
Mg3 Se13 2.765687 1_654
