# generated using pymatgen
data_Sr4CeY3Fe2(Cu2O9)2
_symmetry_space_group_name_H-M   'P 1'
_cell_length_a   3.79458300
_cell_length_b   3.93131600
_cell_length_c   28.36305800
_cell_angle_alpha   90.00000000
_cell_angle_beta   90.00000000
_cell_angle_gamma   90.00000000
_symmetry_Int_Tables_number   1
_chemical_formula_structural   Sr4CeY3Fe2(Cu2O9)2
_chemical_formula_sum   'Sr4 Ce1 Y3 Fe2 Cu4 O18'
_cell_volume   423.11172821
_cell_formula_units_Z   1
loop_
 _symmetry_equiv_pos_site_id
 _symmetry_equiv_pos_as_xyz
  1  'x, y, z'
loop_
 _atom_site_type_symbol
 _atom_site_label
 _atom_site_symmetry_multiplicity
 _atom_site_fract_x
 _atom_site_fract_y
 _atom_site_fract_z
 _atom_site_occupancy
  Sr  Sr0  1  0.00000000  0.00000000  0.57898900  1
  Sr  Sr1  1  0.50000000  0.50000000  0.07136200  1
  Sr  Sr2  1  0.50000000  0.50000000  0.92761300  1
  Sr  Sr3  1  0.00000000  0.00000000  0.43252200  1
  Ce  Ce0  1  0.50000000  0.50000000  0.20426000  1
  Y  Y0  1  0.50000000  0.50000000  0.78980200  1
  Y  Y1  1  0.00000000  0.00000000  0.29371300  1
  Y  Y2  1  0.00000000  0.00000000  0.70774500  1
  Fe  Fe0  1  0.00000000  0.00000000  0.86395800  1
  Fe  Fe1  1  0.50000000  0.50000000  0.36448600  1
  Cu  Cu0  1  0.00000000  0.00000000  0.99957700  1
  Cu  Cu1  1  0.50000000  0.50000000  0.50051100  1
  Cu  Cu2  1  0.50000000  0.50000000  0.64020700  1
  Cu  Cu3  1  0.00000000  0.00000000  0.14059500  1
  O  O0  1  0.50000000  0.50000000  0.56522200  1
  O  O1  1  0.00000000  0.00000000  0.06532500  1
  O  O2  1  0.00000000  0.00000000  0.93186600  1
  O  O3  1  0.50000000  0.50000000  0.43105800  1
  O  O4  1  0.00000000  0.50000000  0.64765000  1
  O  O5  1  0.50000000  0.00000000  0.15098600  1
  O  O6  1  0.50000000  0.00000000  0.64733800  1
  O  O7  1  0.00000000  0.50000000  0.15057700  1
  O  O8  1  0.50000000  0.00000000  0.85217800  1
  O  O9  1  0.00000000  0.50000000  0.34810100  1
  O  O10  1  0.00000000  0.50000000  0.85249500  1
  O  O11  1  0.50000000  0.00000000  0.34952600  1
  O  O12  1  0.00000000  0.50000000  0.74830700  1
  O  O13  1  0.50000000  0.00000000  0.24850900  1
  O  O14  1  0.50000000  0.00000000  0.75121700  1
  O  O15  1  0.00000000  0.50000000  0.24996300  1
  O  O16  1  0.00000000  0.50000000  0.99847100  1
  O  O17  1  0.50000000  0.00000000  0.49587200  1
loop_
_geom_bond_atom_site_label_1
_geom_bond_atom_site_label_2
_geom_bond_distance
_geom_bond_site_symmetry_2
Ce0 O15 2.297836 1_655
Ce0 O15 2.297836 1_555
Ce0 O13 2.332151 1_555
Ce0 O13 2.332151 1_565
Ce0 O7 2.432708 1_655
Ce0 O7 2.432708 1_555
Ce0 O5 2.479309 1_555
Ce0 O5 2.479309 1_565
Fe0 O2 1.926079 1_555
Fe0 O8 1.926486 1_455
Fe0 O8 1.926486 1_555
Fe0 O10 1.992365 1_545
Fe0 O10 1.992365 1_555
Fe1 O3 1.888185 1_555
Fe1 O9 1.953379 1_555
Fe1 O9 1.953379 1_655
Fe1 O11 2.010933 1_555
Fe1 O11 2.010933 1_565
Cu0 O1 1.864814 1_556
Cu0 O2 1.920491 1_555
Cu0 O16 1.965908 1_555
Cu0 O16 1.965908 1_545
Cu1 O0 1.835402 1_555
Cu1 O3 1.969899 1_555
Cu1 O17 1.970057 1_555
Cu1 O17 1.970057 1_565
Cu2 O4 1.909000 1_555
Cu2 O4 1.909000 1_655
Cu2 O6 1.976036 1_555
Cu2 O6 1.976036 1_565
Cu2 O0 2.126804 1_555
Cu3 O5 1.920046 1_455
Cu3 O5 1.920046 1_555
Cu3 O7 1.985943 1_555
Cu3 O7 1.985943 1_545
Cu3 O1 2.134887 1_555
O0 Sr0 2.759710 1_555
O0 Sr0 2.759710 1_565
O0 Sr0 2.759710 1_665
O0 Sr0 2.759710 1_655
O1 Sr1 2.737306 1_555
O1 Sr1 2.737306 1_455
O1 Sr1 2.737306 1_445
O1 Sr1 2.737306 1_545
O2 Sr2 2.734607 1_455
O2 Sr2 2.734607 1_555
O2 Sr2 2.734607 1_445
O2 Sr2 2.734607 1_545
O3 Sr3 2.732261 1_665
O3 Sr3 2.732261 1_555
O3 Sr3 2.732261 1_565
O3 Sr3 2.732261 1_655
O4 Y2 2.601741 1_555
O4 Y2 2.601741 1_565
O4 Sr0 2.767005 1_555
O4 Sr0 2.767005 1_565
O5 Sr1 2.994009 1_545
O5 Sr1 2.994009 1_555
O6 Y2 2.556405 1_555
O6 Y2 2.556405 1_655
O6 Sr0 2.712533 1_555
O6 Sr0 2.712533 1_655
O7 Sr1 2.940703 1_455
O7 Sr1 2.940703 1_555
O8 Y0 2.644577 1_545
O8 Y0 2.644577 1_555
O8 Sr2 2.905436 1_545
O8 Sr2 2.905436 1_555
O9 Y1 2.498691 1_565
O9 Y1 2.498691 1_555
O9 Sr3 3.097926 1_555
O9 Sr3 3.097926 1_565
O10 Y0 2.600305 1_455
O10 Y0 2.600305 1_555
O10 Sr2 2.852906 1_455
O10 Sr2 2.852906 1_555
O11 Y1 2.470970 1_655
O11 Y1 2.470970 1_555
O11 Sr3 3.023430 1_555
O11 Sr3 3.023430 1_655
O12 Y0 2.232682 1_455
O12 Y0 2.232682 1_555
O12 Y2 2.277581 1_565
O12 Y2 2.277581 1_555
O13 Y1 2.289881 1_655
O13 Y1 2.289881 1_555
O14 Y0 2.249777 1_555
O14 Y0 2.249777 1_545
O14 Y2 2.262742 1_655
O14 Y2 2.262742 1_555
O15 Y1 2.324565 1_565
O15 Y1 2.324565 1_555
O16 Sr2 2.763839 1_455
O16 Sr2 2.763839 1_555
O16 Sr1 2.806048 1_456
O16 Sr1 2.806048 1_556
O17 Sr3 2.613083 1_555
O17 Sr3 2.613083 1_655
O17 Sr0 3.026103 1_655
O17 Sr0 3.026103 1_555
