# generated using pymatgen
data_CaCo5SbO8
_symmetry_space_group_name_H-M   'P 1'
_cell_length_a   6.32550836
_cell_length_b   6.25801528
_cell_length_c   6.37546027
_cell_angle_alpha   59.36994047
_cell_angle_beta   59.66862393
_cell_angle_gamma   58.42919590
_symmetry_Int_Tables_number   1
_chemical_formula_structural   CaCo5SbO8
_chemical_formula_sum   'Ca1 Co5 Sb1 O8'
_cell_volume   174.97663654
_cell_formula_units_Z   1
loop_
 _symmetry_equiv_pos_site_id
 _symmetry_equiv_pos_as_xyz
  1  'x, y, z'
loop_
 _atom_site_type_symbol
 _atom_site_label
 _atom_site_symmetry_multiplicity
 _atom_site_fract_x
 _atom_site_fract_y
 _atom_site_fract_z
 _atom_site_occupancy
  Ca  Ca0  1  0.95071400  0.50822700  0.05380800  1
  Co  Co0  1  0.96270300  0.99678500  0.07407900  1
  Co  Co1  1  0.45789600  0.48814200  0.56493500  1
  Co  Co2  1  0.45814900  0.48847700  0.05615000  1
  Co  Co3  1  0.45570600  0.98935400  0.56089900  1
  Co  Co4  1  0.96223200  0.99914600  0.53022300  1
  Sb  Sb0  1  0.95818000  0.48590000  0.56146300  1
  O  O0  1  0.19692300  0.25762500  0.33469600  1
  O  O1  1  0.18766900  0.71112500  0.33522800  1
  O  O2  1  0.19533600  0.25593900  0.77887200  1
  O  O3  1  0.67867600  0.24858800  0.31985000  1
  O  O4  1  0.23629100  0.73606600  0.79766600  1
  O  O5  1  0.73572000  0.25771100  0.78523200  1
  O  O6  1  0.72032800  0.72691700  0.34457700  1
  O  O7  1  0.71847800  0.72499800  0.77732400  1
loop_
_geom_bond_atom_site_label_1
_geom_bond_atom_site_label_2
_geom_bond_distance
_geom_bond_site_symmetry_2
Ca0 O7 2.279792 1_554
Ca0 O6 2.280683 1_555
Ca0 O4 2.303866 1_654
Ca0 O2 2.341356 1_654
Ca0 O0 2.342972 1_655
Ca0 O3 2.376881 1_555
Co0 O1 2.165444 1_655
Co0 O3 2.207802 1_565
Co0 O2 2.220182 1_664
Co0 O6 2.291237 1_555
Co0 O5 2.295759 1_564
Co0 O4 2.378146 1_654
Co1 O4 2.131079 1_555
Co1 O3 2.151734 1_555
Co1 O5 2.217206 1_555
Co1 O2 2.224815 1_555
Co1 O1 2.227570 1_555
Co1 O6 2.250538 1_555
Co2 O4 2.131437 1_554
Co2 O3 2.151767 1_555
Co2 O0 2.211956 1_555
Co2 O5 2.230546 1_554
Co2 O7 2.230929 1_554
Co2 O1 2.233774 1_555
Co3 O4 2.113489 1_555
Co3 O6 2.121095 1_555
Co3 O7 2.124758 1_555
Co3 O2 2.144907 1_565
Co3 O0 2.148827 1_565
Co3 O3 2.156156 1_565
Co4 O1 2.151561 1_655
Co4 O3 2.194837 1_565
Co4 O0 2.228224 1_665
Co4 O5 2.283570 1_565
Co4 O7 2.316250 1_555
Co4 O4 2.399887 1_655
O0 Sb0 2.012944 1_455
O1 Sb0 2.032328 1_455
O2 Sb0 2.012367 1_455
O5 Sb0 2.013757 1_555
O6 Sb0 2.012562 1_555
O7 Sb0 2.011708 1_555
