# generated using pymatgen
data_Na2ZnB6O11
_symmetry_space_group_name_H-M   'P 1'
_cell_length_a   6.59503259
_cell_length_b   6.59503259
_cell_length_c   11.60273536
_cell_angle_alpha   71.91585162
_cell_angle_beta   71.91585162
_cell_angle_gamma   69.03153140
_symmetry_Int_Tables_number   1
_chemical_formula_structural   Na2ZnB6O11
_chemical_formula_sum   'Na4 Zn2 B12 O22'
_cell_volume   436.51622483
_cell_formula_units_Z   2
loop_
 _symmetry_equiv_pos_site_id
 _symmetry_equiv_pos_as_xyz
  1  'x, y, z'
loop_
 _atom_site_type_symbol
 _atom_site_label
 _atom_site_symmetry_multiplicity
 _atom_site_fract_x
 _atom_site_fract_y
 _atom_site_fract_z
 _atom_site_occupancy
  Na  Na0  1  0.44921300  0.63324100  0.10132900  1
  Na  Na1  1  0.63324100  0.44921300  0.60132900  1
  Na  Na2  1  0.34024700  0.16755900  0.16873200  1
  Na  Na3  1  0.16755900  0.34024700  0.66873200  1
  Zn  Zn0  1  0.02698000  0.76418500  0.88292200  1
  Zn  Zn1  1  0.76418500  0.02698000  0.38292200  1
  B  B0  1  0.15712100  0.10563400  0.97904900  1
  B  B1  1  0.10563400  0.15712200  0.47904900  1
  B  B2  1  0.59515500  0.00246900  0.64457800  1
  B  B3  1  0.00246900  0.59515500  0.14457800  1
  B  B4  1  0.56964400  0.98727300  0.86645400  1
  B  B5  1  0.98727300  0.56964400  0.36645400  1
  B  B6  1  0.80873800  0.21936900  0.89627000  1
  B  B7  1  0.21936900  0.80873800  0.39627000  1
  B  B8  1  0.17990400  0.79122400  0.61966000  1
  B  B9  1  0.79122400  0.17990400  0.11966000  1
  B  B10  1  0.68355900  0.63937400  0.78710400  1
  B  B11  1  0.63937400  0.68355900  0.28710400  1
  O  O0  1  0.05882800  0.14359100  0.88295900  1
  O  O1  1  0.14359100  0.05882800  0.38295900  1
  O  O2  1  0.51659400  0.10414100  0.74412000  1
  O  O3  1  0.10414100  0.51659400  0.24412000  1
  O  O4  1  0.38101700  0.04526300  0.97085800  1
  O  O5  1  0.04526300  0.38101700  0.47085800  1
  O  O6  1  0.66237600  0.76845600  0.66757000  1
  O  O7  1  0.76845600  0.66237600  0.16757000  1
  O  O8  1  0.02490600  0.11999900  0.09823700  1
  O  O9  1  0.11999900  0.02490600  0.59823700  1
  O  O10  1  0.76774600  0.03050300  0.87496800  1
  O  O11  1  0.03050300  0.76774600  0.37496800  1
  O  O12  1  0.13430600  0.60162400  0.02908700  1
  O  O13  1  0.60162400  0.13430600  0.52908700  1
  O  O14  1  0.63730800  0.73774300  0.88363900  1
  O  O15  1  0.73774300  0.63730800  0.38363900  1
  O  O16  1  0.75666300  0.41484200  0.79437600  1
  O  O17  1  0.41484200  0.75666300  0.29437600  1
  O  O18  1  0.16623600  0.65920700  0.73460900  1
  O  O19  1  0.65920700  0.16623600  0.23460900  1
  O  O20  1  0.68899600  0.26168400  0.01989800  1
  O  O21  1  0.26168400  0.68899600  0.51989800  1
loop_
_geom_bond_atom_site_label_1
_geom_bond_atom_site_label_2
_geom_bond_distance
_geom_bond_site_symmetry_2
Na0 O14 2.445291 1_554
Na0 O17 2.532901 1_555
Na0 O7 2.538945 1_555
Na0 O12 2.560944 1_555
Na0 O3 2.576188 1_555
Na0 O4 2.621427 1_564
Na0 O20 2.671031 1_555
Na1 O15 2.445291 1_555
Na1 O16 2.532901 1_555
Na1 O6 2.538945 1_555
Na1 O13 2.560944 1_555
Na1 O2 2.576188 1_555
Na1 O5 2.621427 1_655
Na1 O21 2.671031 1_555
Na2 O1 2.435628 1_555
Na2 O19 2.447482 1_555
Na2 O3 2.515469 1_555
Na2 O20 2.558910 1_555
Na2 O4 2.570024 1_554
Na2 O17 2.597920 1_545
Na2 O8 2.602822 1_555
Na3 O0 2.435628 1_555
Na3 O18 2.447482 1_555
Na3 O2 2.515469 1_555
Na3 O21 2.558910 1_555
Na3 O5 2.570024 1_555
Na3 O16 2.597920 1_455
Na3 O9 2.602822 1_555
B0 O4 1.365103 1_555
B0 O0 1.373021 1_555
B0 O8 1.398327 1_556
B1 O5 1.365096 1_555
B1 O1 1.373026 1_555
B1 O9 1.398329 1_555
B2 O13 1.349504 1_555
B2 O2 1.382977 1_555
B2 O6 1.406303 1_545
B3 O12 1.349504 1_555
B3 O3 1.382977 1_555
B3 O7 1.406303 1_455
B4 O10 1.470427 1_565
B4 O2 1.472175 1_565
B4 O4 1.474037 1_565
B4 O14 1.507653 1_555
B5 O11 1.470427 1_655
B5 O3 1.472175 1_655
B5 O5 1.474037 1_655
B5 O15 1.507653 1_555
B6 O20 1.465133 1_556
B6 O10 1.469439 1_555
B6 O16 1.471927 1_555
B6 O0 1.514531 1_655
B7 O21 1.465133 1_555
B7 O11 1.469439 1_555
B7 O17 1.471927 1_555
B7 O1 1.514531 1_565
B8 O18 1.343728 1_555
B8 O21 1.386336 1_555
B8 O9 1.407251 1_565
B9 O19 1.343728 1_555
B9 O20 1.386336 1_555
B9 O8 1.407251 1_655
B10 O14 1.365963 1_555
B10 O16 1.367129 1_555
B10 O6 1.403549 1_555
B11 O15 1.365963 1_555
B11 O17 1.367129 1_555
B11 O7 1.403549 1_555
O10 Zn0 1.965832 1_645
O11 Zn1 1.965832 1_465
O12 Zn0 1.897332 1_554
O13 Zn1 1.897332 1_555
O18 Zn0 1.894062 1_555
O19 Zn1 1.894062 1_555
