# generated using pymatgen
data_CsRb2Au7
_symmetry_space_group_name_H-M   'P 1'
_cell_length_a   7.32343777
_cell_length_b   7.32343777
_cell_length_c   7.30349891
_cell_angle_alpha   90.00000000
_cell_angle_beta   90.00000000
_cell_angle_gamma   134.30114852
_symmetry_Int_Tables_number   1
_chemical_formula_structural   CsRb2Au7
_chemical_formula_sum   'Cs1 Rb2 Au7'
_cell_volume   280.33612902
_cell_formula_units_Z   1
loop_
 _symmetry_equiv_pos_site_id
 _symmetry_equiv_pos_as_xyz
  1  'x, y, z'
loop_
 _atom_site_type_symbol
 _atom_site_label
 _atom_site_symmetry_multiplicity
 _atom_site_fract_x
 _atom_site_fract_y
 _atom_site_fract_z
 _atom_site_occupancy
  Cs  Cs0  1  0.33679670  0.66320330  0.50000000  1
  Rb  Rb0  1  0.49982390  0.50017610  0.00000000  1
  Rb  Rb1  1  0.66141362  0.33858638  0.50000000  1
  Au  Au0  1  0.89248730  0.10751270  0.19582655  1
  Au  Au1  1  0.10810420  0.89189580  0.19510718  1
  Au  Au2  1  0.10810420  0.89189580  0.80489282  1
  Au  Au3  1  0.89248730  0.10751270  0.80417345  1
  Au  Au4  1  0.50081033  0.00185549  0.00000000  1
  Au  Au5  1  0.99814451  0.49918967  0.00000000  1
  Au  Au6  1  0.00182795  0.99817205  0.50000000  1
loop_
_geom_bond_atom_site_label_1
_geom_bond_atom_site_label_2
_geom_bond_distance
_geom_bond_site_symmetry_2
Au0 Au6 2.667070 1_645
Au0 Au4 2.787786 1_555
Au0 Au5 2.787786 1_555
Au0 Au3 2.860438 1_554
Au0 Au1 2.910297 1_645
Au0 Rb0 3.497357 1_545
Au0 Rb0 3.497357 1_655
Au0 Cs0 3.686089 1_545
Au0 Cs0 3.686089 1_655
Au0 Rb1 3.829211 1_555
Au1 Au6 2.648822 1_555
Au1 Au5 2.777602 1_455
Au1 Au4 2.777602 1_565
Au1 Au2 2.849930 1_554
Au1 Rb0 3.500510 1_455
Au1 Rb0 3.500510 1_565
Au1 Rb1 3.682843 1_455
Au1 Rb1 3.682843 1_565
Au1 Cs0 3.806150 1_555
Au2 Au6 2.648822 1_555
Au2 Au5 2.777602 1_456
Au2 Au4 2.777602 1_566
Au2 Au3 2.910297 1_465
Au2 Rb0 3.500510 1_456
Au2 Rb0 3.500510 1_566
Au2 Rb1 3.682843 1_455
Au2 Rb1 3.682843 1_565
Au2 Cs0 3.806150 1_555
Au3 Au6 2.667070 1_645
Au3 Au4 2.787786 1_556
Au3 Au5 2.787786 1_556
Au3 Rb0 3.497357 1_546
Au3 Rb0 3.497357 1_656
Au3 Cs0 3.686089 1_545
Au3 Cs0 3.686089 1_655
Au3 Rb1 3.829211 1_555
Au4 Au5 2.828607 1_555
Au4 Au5 2.858931 1_445
Au4 Rb0 3.654469 1_555
Au4 Rb0 3.668976 1_545
Au4 Rb1 4.092481 1_555
Au4 Rb1 4.092481 1_554
Au4 Cs0 4.094842 1_544
Au4 Cs0 4.094842 1_545
Au5 Rb0 3.654469 1_555
Au5 Rb0 3.668976 1_655
Au5 Rb1 4.092481 1_555
Au5 Rb1 4.092481 1_554
Au5 Cs0 4.094842 1_655
Au5 Cs0 4.094842 1_654
Au6 Rb1 3.567461 1_565
Au6 Rb1 3.567461 1_455
Au6 Cs0 3.612316 1_565
Au6 Cs0 3.612316 1_455
