# generated using pymatgen
data_Pr3Lu2(GaO4)3
_symmetry_space_group_name_H-M   'P 1'
_cell_length_a   11.30673761
_cell_length_b   11.30673761
_cell_length_c   11.30673761
_cell_angle_alpha   109.47122063
_cell_angle_beta   109.47122063
_cell_angle_gamma   109.47122063
_symmetry_Int_Tables_number   1
_chemical_formula_structural   Pr3Lu2(GaO4)3
_chemical_formula_sum   'Pr12 Lu8 Ga12 O48'
_cell_volume   1112.73064839
_cell_formula_units_Z   4
loop_
 _symmetry_equiv_pos_site_id
 _symmetry_equiv_pos_as_xyz
  1  'x, y, z'
loop_
 _atom_site_type_symbol
 _atom_site_label
 _atom_site_symmetry_multiplicity
 _atom_site_fract_x
 _atom_site_fract_y
 _atom_site_fract_z
 _atom_site_occupancy
  Pr  Pr0  1  0.25000000  0.37500000  0.12500000  1
  Pr  Pr1  1  0.75000000  0.62500000  0.87500000  1
  Pr  Pr2  1  0.75000000  0.12500000  0.37500000  1
  Pr  Pr3  1  0.12500000  0.25000000  0.37500000  1
  Pr  Pr4  1  0.37500000  0.75000000  0.12500000  1
  Pr  Pr5  1  0.25000000  0.87500000  0.62500000  1
  Pr  Pr6  1  0.87500000  0.75000000  0.62500000  1
  Pr  Pr7  1  0.62500000  0.25000000  0.87500000  1
  Pr  Pr8  1  0.37500000  0.12500000  0.25000000  1
  Pr  Pr9  1  0.62500000  0.87500000  0.75000000  1
  Pr  Pr10  1  0.12500000  0.37500000  0.75000000  1
  Pr  Pr11  1  0.87500000  0.62500000  0.25000000  1
  Lu  Lu0  1  0.00000000  0.00000000  0.00000000  1
  Lu  Lu1  1  0.50000000  0.00000000  0.50000000  1
  Lu  Lu2  1  0.00000000  0.50000000  0.50000000  1
  Lu  Lu3  1  0.50000000  0.00000000  0.00000000  1
  Lu  Lu4  1  0.50000000  0.50000000  0.00000000  1
  Lu  Lu5  1  0.50000000  0.50000000  0.50000000  1
  Lu  Lu6  1  0.00000000  0.00000000  0.50000000  1
  Lu  Lu7  1  0.00000000  0.50000000  0.00000000  1
  Ga  Ga0  1  0.25000000  0.62500000  0.37500000  1
  Ga  Ga1  1  0.75000000  0.37500000  0.62500000  1
  Ga  Ga2  1  0.75000000  0.87500000  0.12500000  1
  Ga  Ga3  1  0.37500000  0.25000000  0.62500000  1
  Ga  Ga4  1  0.62500000  0.75000000  0.37500000  1
  Ga  Ga5  1  0.25000000  0.12500000  0.87500000  1
  Ga  Ga6  1  0.12500000  0.75000000  0.87500000  1
  Ga  Ga7  1  0.87500000  0.25000000  0.12500000  1
  Ga  Ga8  1  0.62500000  0.37500000  0.25000000  1
  Ga  Ga9  1  0.37500000  0.62500000  0.75000000  1
  Ga  Ga10  1  0.87500000  0.12500000  0.75000000  1
  Ga  Ga11  1  0.12500000  0.87500000  0.25000000  1
  O  O0  1  0.47404200  0.37498400  0.28684600  1
  O  O1  1  0.52595800  0.62501600  0.71315400  1
  O  O2  1  0.58813700  0.18719500  0.21315400  1
  O  O3  1  0.91186300  0.12501600  0.59905800  1
  O  O4  1  0.28684600  0.47404200  0.37498400  1
  O  O5  1  0.31280500  0.91186300  0.28684600  1
  O  O6  1  0.41186300  0.81280500  0.78684600  1
  O  O7  1  0.08813700  0.87498400  0.40094200  1
  O  O8  1  0.71315400  0.52595800  0.62501600  1
  O  O9  1  0.68719500  0.08813700  0.71315400  1
  O  O10  1  0.02595800  0.31280500  0.90094200  1
  O  O11  1  0.21315400  0.58813700  0.18719500  1
  O  O12  1  0.12501600  0.02595800  0.21315400  1
  O  O13  1  0.97404200  0.68719500  0.09905800  1
  O  O14  1  0.78684600  0.41186300  0.81280500  1
  O  O15  1  0.87498400  0.97404200  0.78684600  1
  O  O16  1  0.59905800  0.91186300  0.12501600  1
  O  O17  1  0.18719500  0.47404200  0.59905800  1
  O  O18  1  0.40094200  0.08813700  0.87498400  1
  O  O19  1  0.81280500  0.52595800  0.40094200  1
  O  O20  1  0.90094200  0.02595800  0.31280500  1
  O  O21  1  0.37498400  0.58813700  0.90094200  1
  O  O22  1  0.09905800  0.97404200  0.68719500  1
  O  O23  1  0.62501600  0.41186300  0.09905800  1
  O  O24  1  0.37498400  0.28684600  0.47404200  1
  O  O25  1  0.58813700  0.90094200  0.37498400  1
  O  O26  1  0.62501600  0.71315400  0.52595800  1
  O  O27  1  0.41186300  0.09905800  0.62501600  1
  O  O28  1  0.12501600  0.59905800  0.91186300  1
  O  O29  1  0.02595800  0.21315400  0.12501600  1
  O  O30  1  0.87498400  0.40094200  0.08813700  1
  O  O31  1  0.97404200  0.78684600  0.87498400  1
  O  O32  1  0.31280500  0.90094200  0.02595800  1
  O  O33  1  0.91186300  0.28684600  0.31280500  1
  O  O34  1  0.68719500  0.09905800  0.97404200  1
  O  O35  1  0.08813700  0.71315400  0.68719500  1
  O  O36  1  0.18719500  0.21315400  0.58813700  1
  O  O37  1  0.47404200  0.59905800  0.18719500  1
  O  O38  1  0.81280500  0.78684600  0.41186300  1
  O  O39  1  0.52595800  0.40094200  0.81280500  1
  O  O40  1  0.28684600  0.31280500  0.91186300  1
  O  O41  1  0.71315400  0.68719500  0.08813700  1
  O  O42  1  0.21315400  0.12501600  0.02595800  1
  O  O43  1  0.78684600  0.87498400  0.97404200  1
  O  O44  1  0.90094200  0.37498400  0.58813700  1
  O  O45  1  0.09905800  0.62501600  0.41186300  1
  O  O46  1  0.59905800  0.18719500  0.47404200  1
  O  O47  1  0.40094200  0.81280500  0.52595800  1
loop_
_geom_bond_atom_site_label_1
_geom_bond_atom_site_label_2
_geom_bond_distance
_geom_bond_site_symmetry_2
Lu0 O42 2.207572 1_555
Lu0 O12 2.207572 1_555
Lu0 O29 2.207572 1_555
Lu0 O15 2.207572 1_444
Lu0 O43 2.207572 1_444
Lu0 O31 2.207572 1_444
Lu1 O47 2.207563 1_545
Lu1 O27 2.207563 1_555
Lu1 O25 2.207563 1_545
Lu1 O46 2.207563 1_555
Lu1 O9 2.207570 1_555
Lu1 O5 2.207570 1_545
Lu2 O19 2.207563 1_455
Lu2 O45 2.207563 1_555
Lu2 O44 2.207563 1_455
Lu2 O17 2.207563 1_555
Lu2 O35 2.207570 1_555
Lu2 O33 2.207570 1_455
Lu3 O16 2.207563 1_545
Lu3 O34 2.207563 1_554
Lu3 O32 2.207563 1_545
Lu3 O18 2.207563 1_554
Lu3 O2 2.207570 1_555
Lu3 O6 2.207570 1_544
Lu4 O39 2.207563 1_554
Lu4 O23 2.207563 1_555
Lu4 O21 2.207563 1_554
Lu4 O37 2.207563 1_555
Lu4 O40 2.207570 1_554
Lu4 O41 2.207570 1_555
Lu5 O4 2.207572 1_555
Lu5 O0 2.207572 1_555
Lu5 O24 2.207572 1_555
Lu5 O26 2.207572 1_555
Lu5 O1 2.207572 1_555
Lu5 O8 2.207572 1_555
Lu6 O3 2.207563 1_455
Lu6 O22 2.207563 1_545
Lu6 O20 2.207563 1_455
Lu6 O7 2.207563 1_545
Lu6 O36 2.207570 1_555
Lu6 O38 2.207570 1_445
Lu7 O28 2.207563 1_554
Lu7 O13 2.207563 1_455
Lu7 O10 2.207563 1_554
Lu7 O30 2.207563 1_455
Lu7 O11 2.207570 1_555
Lu7 O14 2.207570 1_454
Ga0 O4 1.887001 1_555
Ga0 O47 1.887007 1_555
Ga0 O45 1.887007 1_555
Ga0 O11 1.887010 1_555
Ga1 O8 1.887001 1_555
Ga1 O44 1.887007 1_555
Ga1 O46 1.887007 1_555
Ga1 O14 1.887010 1_555
Ga2 O43 1.887001 1_554
Ga2 O20 1.887007 1_565
Ga2 O16 1.887007 1_555
Ga2 O41 1.887010 1_555
Ga3 O24 1.887001 1_555
Ga3 O39 1.887007 1_555
Ga3 O27 1.887007 1_555
Ga3 O36 1.887010 1_555
Ga4 O26 1.887001 1_555
Ga4 O25 1.887007 1_555
Ga4 O37 1.887007 1_555
Ga4 O38 1.887010 1_555
Ga5 O42 1.887001 1_556
Ga5 O18 1.887007 1_555
Ga5 O22 1.887007 1_545
Ga5 O40 1.887010 1_555
Ga6 O31 1.887001 1_455
Ga6 O32 1.887007 1_556
Ga6 O28 1.887007 1_555
Ga6 O35 1.887010 1_555
Ga7 O29 1.887001 1_655
Ga7 O30 1.887007 1_555
Ga7 O34 1.887007 1_554
Ga7 O33 1.887010 1_555
Ga8 O0 1.887001 1_555
Ga8 O19 1.887007 1_555
Ga8 O23 1.887007 1_555
Ga8 O2 1.887010 1_555
Ga9 O1 1.887001 1_555
Ga9 O21 1.887007 1_555
Ga9 O17 1.887007 1_555
Ga9 O6 1.887010 1_555
Ga10 O15 1.887001 1_545
Ga10 O10 1.887007 1_655
Ga10 O3 1.887007 1_555
Ga10 O9 1.887010 1_555
Ga11 O12 1.887001 1_565
Ga11 O7 1.887007 1_555
Ga11 O13 1.887007 1_455
Ga11 O5 1.887010 1_555
O0 Pr8 2.492091 1_555
O0 Pr0 2.583770 1_555
O1 Pr9 2.492091 1_555
O1 Pr1 2.583770 1_555
O2 Pr8 2.492081 1_555
O2 Pr2 2.583768 1_555
O3 Pr10 2.492087 1_655
O3 Pr2 2.583774 1_555
O4 Pr0 2.492091 1_555
O4 Pr3 2.583770 1_555
O5 Pr8 2.492081 1_565
O5 Pr4 2.583768 1_555
O6 Pr9 2.492081 1_555
O6 Pr5 2.583768 1_555
O7 Pr11 2.492087 1_455
O7 Pr5 2.583774 1_555
O8 Pr1 2.492091 1_555
O8 Pr6 2.583770 1_555
O9 Pr9 2.492081 1_545
O9 Pr7 2.583768 1_555
O10 Pr10 2.492087 1_555
O10 Pr0 2.583774 1_556
O11 Pr0 2.492081 1_555
O11 Pr4 2.583768 1_555
O12 Pr8 2.492091 1_555
O12 Pr3 2.583770 1_555
O13 Pr11 2.492087 1_555
O13 Pr1 2.583774 1_554
O14 Pr1 2.492081 1_555
O14 Pr7 2.583768 1_555
O15 Pr9 2.492091 1_555
O15 Pr6 2.583770 1_555
O16 Pr2 2.492087 1_565
O16 Pr4 2.583774 1_555
O17 Pr10 2.492087 1_555
O17 Pr3 2.583774 1_555
O18 Pr5 2.492087 1_545
O18 Pr7 2.583774 1_555
O19 Pr11 2.492087 1_555
O19 Pr6 2.583774 1_555
O20 Pr2 2.492087 1_555
O20 Pr3 2.583774 1_655
O21 Pr10 2.492087 1_555
O21 Pr4 2.583774 1_556
O22 Pr5 2.492087 1_555
O22 Pr6 2.583774 1_455
O23 Pr11 2.492087 1_555
O23 Pr7 2.583774 1_554
O24 Pr3 2.492091 1_555
O24 Pr8 2.583770 1_555
O25 Pr4 2.492087 1_555
O25 Pr2 2.583774 1_565
O26 Pr6 2.492091 1_555
O26 Pr9 2.583770 1_555
O27 Pr7 2.492087 1_555
O27 Pr5 2.583774 1_545
O28 Pr4 2.492087 1_556
O28 Pr10 2.583774 1_555
O29 Pr3 2.492091 1_555
O29 Pr0 2.583770 1_555
O30 Pr7 2.492087 1_554
O30 Pr11 2.583774 1_555
O31 Pr6 2.492091 1_555
O31 Pr1 2.583770 1_555
O32 Pr4 2.492087 1_555
O32 Pr8 2.583774 1_565
O33 Pr3 2.492081 1_655
O33 Pr2 2.583768 1_555
O34 Pr7 2.492087 1_555
O34 Pr9 2.583774 1_545
O35 Pr6 2.492081 1_455
O35 Pr5 2.583768 1_555
O36 Pr3 2.492081 1_555
O36 Pr10 2.583768 1_555
O37 Pr4 2.492087 1_555
O37 Pr0 2.583774 1_555
O38 Pr6 2.492081 1_555
O38 Pr11 2.583768 1_555
O39 Pr7 2.492087 1_555
O39 Pr1 2.583774 1_555
O40 Pr0 2.492081 1_556
O40 Pr10 2.583768 1_555
O41 Pr1 2.492081 1_554
O41 Pr11 2.583768 1_555
O42 Pr0 2.492091 1_555
O42 Pr8 2.583770 1_555
O43 Pr1 2.492091 1_555
O43 Pr9 2.583770 1_555
O44 Pr2 2.492087 1_555
O44 Pr10 2.583774 1_655
O45 Pr5 2.492087 1_555
O45 Pr11 2.583774 1_455
O46 Pr2 2.492087 1_555
O46 Pr8 2.583774 1_555
O47 Pr5 2.492087 1_555
O47 Pr9 2.583774 1_555
