# generated using pymatgen
data_MgO
_symmetry_space_group_name_H-M   'P 1'
_cell_length_a   9.69096304
_cell_length_b   10.04789576
_cell_length_c   10.20246436
_cell_angle_alpha   99.04009999
_cell_angle_beta   87.40649867
_cell_angle_gamma   89.30836098
_symmetry_Int_Tables_number   1
_chemical_formula_structural   MgO
_chemical_formula_sum   'Mg40 O40'
_cell_volume   979.92232561
_cell_formula_units_Z   40
loop_
 _symmetry_equiv_pos_site_id
 _symmetry_equiv_pos_as_xyz
  1  'x, y, z'
loop_
 _atom_site_type_symbol
 _atom_site_label
 _atom_site_symmetry_multiplicity
 _atom_site_fract_x
 _atom_site_fract_y
 _atom_site_fract_z
 _atom_site_occupancy
  Mg  Mg0  1  0.42274600  0.81825100  0.33968700  1
  Mg  Mg1  1  0.14129300  0.58181700  0.73196300  1
  Mg  Mg2  1  0.74815900  0.39048000  0.07764700  1
  Mg  Mg3  1  0.55606900  0.95802300  0.65030300  1
  Mg  Mg4  1  0.31433200  0.39373800  0.79682000  1
  Mg  Mg5  1  0.16475600  0.50419500  0.13264400  1
  Mg  Mg6  1  0.60903000  0.33055700  0.76937000  1
  Mg  Mg7  1  0.67068500  0.56175500  0.68311400  1
  Mg  Mg8  1  0.89566600  0.98659700  0.07153100  1
  Mg  Mg9  1  0.02231200  0.12865100  0.37780300  1
  Mg  Mg10  1  0.00392600  0.26241900  0.04032400  1
  Mg  Mg11  1  0.14476300  0.22995000  0.62192900  1
  Mg  Mg12  1  0.01612200  0.67466100  0.51790900  1
  Mg  Mg13  1  0.30470400  0.75295800  0.04336800  1
  Mg  Mg14  1  0.87817100  0.57016900  0.93126500  1
  Mg  Mg15  1  0.95556300  0.68765000  0.17914200  1
  Mg  Mg16  1  0.69182400  0.08558600  0.93487900  1
  Mg  Mg17  1  0.68065400  0.78804900  0.09081800  1
  Mg  Mg18  1  0.42622900  0.74960800  0.79603400  1
  Mg  Mg19  1  0.16134200  0.86789700  0.28495300  1
  Mg  Mg20  1  0.82030300  0.33878000  0.44953200  1
  Mg  Mg21  1  0.72182400  0.95393500  0.36232000  1
  Mg  Mg22  1  0.38115300  0.10753500  0.82759400  1
  Mg  Mg23  1  0.50725000  0.51937800  0.97603300  1
  Mg  Mg24  1  0.80363300  0.57498900  0.34283100  1
  Mg  Mg25  1  0.47142900  0.04427100  0.16789800  1
  Mg  Mg26  1  0.31032200  0.61093500  0.43264000  1
  Mg  Mg27  1  0.21565000  0.91606400  0.59338300  1
  Mg  Mg28  1  0.36009300  0.31237800  0.12116700  1
  Mg  Mg29  1  0.39595900  0.13015300  0.46785000  1
  Mg  Mg30  1  0.69141300  0.19581100  0.24548600  1
  Mg  Mg31  1  0.51740400  0.44509000  0.30035700  1
  Mg  Mg32  1  0.93398500  0.38505000  0.69384500  1
  Mg  Mg33  1  0.12478300  0.41702800  0.37020300  1
  Mg  Mg34  1  0.98039200  0.03263600  0.78797700  1
  Mg  Mg35  1  0.02729900  0.79829100  0.87163700  1
  Mg  Mg36  1  0.64742400  0.75004600  0.49239100  1
  Mg  Mg37  1  0.81342000  0.81120700  0.69707000  1
  Mg  Mg38  1  0.18952700  0.07306000  0.10791300  1
  Mg  Mg39  1  0.78515700  0.12983700  0.60275200  1
  O  O0  1  0.67279700  0.98915200  0.15281500  1
  O  O1  1  0.80764200  0.19699400  0.06614600  1
  O  O2  1  0.93571400  0.61984300  0.76218400  1
  O  O3  1  0.80267600  0.13825600  0.39738500  1
  O  O4  1  0.48568600  0.49597100  0.76432700  1
  O  O5  1  0.60378100  0.75984100  0.69500400  1
  O  O6  1  0.36701000  0.92734700  0.72348900  1
  O  O7  1  0.75453500  0.75080000  0.27872900  1
  O  O8  1  0.50667600  0.64383400  0.39435100  1
  O  O9  1  0.03445400  0.85255600  0.67337500  1
  O  O10  1  0.00435500  0.57711800  0.32698800  1
  O  O11  1  0.94882300  0.46745700  0.06529800  1
  O  O12  1  0.34888000  0.21546400  0.67709100  1
  O  O13  1  0.12144400  0.39707300  0.75915000  1
  O  O14  1  0.33616900  0.91185000  0.19487100  1
  O  O15  1  0.23928500  0.79040100  0.42867200  1
  O  O16  1  0.38279600  0.11832200  0.02353300  1
  O  O17  1  0.71495100  0.46028500  0.90220700  1
  O  O18  1  0.17090200  0.55426600  0.54491700  1
  O  O19  1  0.31016500  0.43474300  0.98984300  1
  O  O20  1  0.15222400  0.70230000  0.14789200  1
  O  O21  1  0.60373000  0.13313400  0.77746500  1
  O  O22  1  0.51928900  0.95920200  0.44947400  1
  O  O23  1  0.88377300  0.76151600  0.02649600  1
  O  O24  1  0.50718700  0.72164700  0.00188400  1
  O  O25  1  0.48502400  0.20749300  0.30878900  1
  O  O26  1  0.95234300  0.18011400  0.69768400  1
  O  O27  1  0.75382100  0.93095000  0.56100600  1
  O  O28  1  0.54931800  0.39587600  0.10774400  1
  O  O29  1  0.19010900  0.07240500  0.47652700  1
  O  O30  1  0.80165300  0.63232800  0.53551600  1
  O  O31  1  0.03062700  0.98971400  0.21960300  1
  O  O32  1  0.13819300  0.27035000  0.18106600  1
  O  O33  1  0.82475600  0.94176600  0.86826500  1
  O  O34  1  0.72612400  0.39808800  0.30482200  1
  O  O35  1  0.30645300  0.46270100  0.28374700  1
  O  O36  1  0.22719100  0.72197800  0.86118200  1
  O  O37  1  0.74057000  0.35767800  0.62727700  1
  O  O38  1  0.06668300  0.05765900  0.95857000  1
  O  O39  1  0.01603500  0.31390600  0.48462200  1
loop_
_geom_bond_atom_site_label_1
_geom_bond_atom_site_label_2
_geom_bond_distance
_geom_bond_site_symmetry_2
Mg0 O22 1.940121 1_555
Mg0 O15 2.002318 1_555
Mg0 O14 2.073929 1_555
Mg0 O8 2.087516 1_555
Mg1 O18 1.892936 1_555
Mg1 O13 1.930114 1_555
Mg1 O36 1.989607 1_555
Mg1 O2 2.024638 1_455
Mg2 O28 1.936260 1_555
Mg2 O1 2.005200 1_555
Mg2 O17 2.059257 1_554
Mg2 O11 2.107237 1_555
Mg2 O34 2.307059 1_555
Mg3 O6 1.992864 1_555
Mg3 O27 2.080421 1_555
Mg3 O21 2.085384 1_565
Mg3 O22 2.097380 1_555
Mg3 O5 2.160868 1_555
Mg4 O13 1.926280 1_555
Mg4 O19 1.946020 1_555
Mg4 O4 2.005246 1_555
Mg4 O12 2.018367 1_555
Mg5 O20 1.973914 1_555
Mg5 O19 2.016503 1_554
Mg5 O35 2.194492 1_555
Mg5 O11 2.248644 1_455
Mg5 O10 2.474193 1_555
Mg5 O32 2.489790 1_555
Mg6 O37 1.940661 1_555
Mg6 O21 1.999507 1_555
Mg6 O4 2.044106 1_555
Mg6 O17 2.047570 1_555
Mg7 O5 2.069403 1_555
Mg7 O4 2.098553 1_555
Mg7 O37 2.133635 1_555
Mg7 O30 2.136743 1_555
Mg8 O31 2.039298 1_655
Mg8 O38 2.167731 1_664
Mg8 O33 2.195159 1_554
Mg8 O23 2.241366 1_555
Mg8 O0 2.276636 1_555
Mg8 O1 2.279713 1_565
Mg9 O31 1.959057 1_545
Mg9 O39 2.002516 1_555
Mg9 O29 2.069560 1_555
Mg9 O3 2.128420 1_455
Mg10 O32 1.974055 1_555
Mg10 O1 2.039390 1_455
Mg10 O11 2.095393 1_455
Mg10 O38 2.164052 1_554
Mg11 O13 2.013530 1_555
Mg11 O29 2.021358 1_555
Mg11 O26 2.083044 1_455
Mg11 O12 2.090526 1_555
Mg11 O39 2.175875 1_555
Mg12 O18 1.971698 1_555
Mg12 O10 2.047106 1_555
Mg12 O30 2.131797 1_455
Mg12 O9 2.210125 1_555
Mg13 O20 1.904196 1_555
Mg13 O24 1.999162 1_555
Mg13 O36 2.016502 1_554
Mg13 O14 2.076054 1_555
Mg14 O2 1.930310 1_555
Mg14 O17 1.946955 1_555
Mg14 O11 1.978645 1_556
Mg14 O23 2.015869 1_556
Mg15 O20 1.929263 1_655
Mg15 O23 1.977141 1_555
Mg15 O10 2.076201 1_655
Mg15 O7 2.195149 1_555
Mg15 O11 2.334776 1_555
Mg16 O33 1.943431 1_545
Mg16 O21 1.972741 1_555
Mg16 O1 2.000420 1_556
Mg16 O0 2.561448 1_546
Mg17 O24 2.017245 1_555
Mg17 O0 2.019712 1_555
Mg17 O23 2.047401 1_555
Mg17 O7 2.161350 1_555
Mg18 O5 1.977557 1_555
Mg18 O36 2.047997 1_555
Mg18 O6 2.120302 1_555
Mg18 O24 2.331187 1_556
Mg18 O4 2.572974 1_555
Mg19 O15 1.942088 1_555
Mg19 O31 1.960316 1_555
Mg19 O14 1.978601 1_555
Mg19 O20 2.003831 1_555
Mg19 O29 2.630858 1_565
Mg20 O37 1.919140 1_555
Mg20 O34 1.937310 1_555
Mg20 O39 1.966401 1_655
Mg20 O3 2.012834 1_555
Mg21 O3 2.006027 1_565
Mg21 O7 2.099218 1_555
Mg21 O27 2.112071 1_555
Mg21 O22 2.114388 1_555
Mg21 O0 2.290252 1_555
Mg22 O6 1.959518 1_545
Mg22 O16 1.985718 1_556
Mg22 O12 2.046996 1_555
Mg22 O21 2.221534 1_555
Mg23 O24 2.007892 1_556
Mg23 O28 2.018229 1_556
Mg23 O19 2.107945 1_555
Mg23 O4 2.155609 1_555
Mg23 O17 2.159799 1_555
Mg24 O34 1.927697 1_555
Mg24 O10 1.945246 1_655
Mg24 O30 1.958906 1_555
Mg24 O7 2.036090 1_555
Mg25 O14 1.920631 1_545
Mg25 O16 1.975910 1_555
Mg25 O25 2.013660 1_555
Mg25 O0 2.014575 1_545
Mg26 O18 1.882919 1_555
Mg26 O15 1.929451 1_555
Mg26 O35 1.955227 1_555
Mg26 O8 1.967548 1_555
Mg27 O15 1.939608 1_555
Mg27 O6 2.014784 1_555
Mg27 O9 2.053696 1_555
Mg27 O29 2.134535 1_565
Mg28 O19 2.025569 1_554
Mg28 O28 2.033687 1_555
Mg28 O16 2.049883 1_555
Mg28 O35 2.102059 1_555
Mg28 O32 2.271610 1_555
Mg28 O25 2.655846 1_555
Mg29 O22 2.059870 1_545
Mg29 O25 2.065947 1_555
Mg29 O29 2.086191 1_555
Mg29 O12 2.197171 1_555
Mg30 O34 2.063686 1_555
Mg30 O25 2.070008 1_555
Mg30 O3 2.077636 1_555
Mg30 O1 2.106499 1_555
Mg30 O0 2.155410 1_545
Mg31 O28 1.959040 1_555
Mg31 O35 2.066715 1_555
Mg31 O8 2.074233 1_555
Mg31 O34 2.075683 1_555
Mg31 O25 2.426003 1_555
Mg32 O13 1.961709 1_655
Mg32 O37 2.029567 1_555
Mg32 O26 2.071357 1_555
Mg32 O39 2.247863 1_655
Mg32 O2 2.353130 1_555
Mg33 O39 1.960135 1_555
Mg33 O35 2.023457 1_555
Mg33 O10 2.089985 1_555
Mg33 O18 2.143167 1_555
Mg33 O32 2.234180 1_555
Mg34 O26 1.886875 1_555
Mg34 O38 1.947056 1_655
Mg34 O33 1.983929 1_545
Mg34 O9 2.042652 1_645
Mg35 O36 2.066787 1_555
Mg35 O23 2.136439 1_456
Mg35 O9 2.174506 1_555
Mg35 O2 2.179125 1_455
Mg35 O33 2.426019 1_455
Mg35 O38 2.655629 1_565
Mg36 O8 1.955260 1_555
Mg36 O30 2.001731 1_555
Mg36 O5 2.077889 1_555
Mg36 O27 2.137276 1_555
Mg36 O7 2.372761 1_555
Mg36 O22 2.534891 1_555
Mg37 O33 2.021004 1_555
Mg37 O27 2.070969 1_555
Mg37 O5 2.102382 1_555
Mg37 O9 2.196712 1_655
Mg37 O30 2.247490 1_555
Mg37 O2 2.441460 1_555
Mg38 O38 1.963988 1_554
Mg38 O32 2.052284 1_555
Mg38 O16 2.110360 1_555
Mg38 O31 2.131504 1_545
Mg38 O14 2.437331 1_545
Mg39 O26 1.956097 1_555
Mg39 O27 2.006512 1_545
Mg39 O3 2.109479 1_555
Mg39 O37 2.297092 1_555
Mg39 O21 2.442561 1_555
