# generated using pymatgen
data_Ho5Si3B
_symmetry_space_group_name_H-M   'P 1'
_cell_length_a   8.50492962
_cell_length_b   8.50492962
_cell_length_c   6.30047300
_cell_angle_alpha   90.00000000
_cell_angle_beta   90.00000000
_cell_angle_gamma   119.99999705
_symmetry_Int_Tables_number   1
_chemical_formula_structural   Ho5Si3B
_chemical_formula_sum   'Ho10 Si6 B2'
_cell_volume   394.68011646
_cell_formula_units_Z   2
loop_
 _symmetry_equiv_pos_site_id
 _symmetry_equiv_pos_as_xyz
  1  'x, y, z'
loop_
 _atom_site_type_symbol
 _atom_site_label
 _atom_site_symmetry_multiplicity
 _atom_site_fract_x
 _atom_site_fract_y
 _atom_site_fract_z
 _atom_site_occupancy
  Ho  Ho0  1  0.76047700  0.76047700  0.25000000  1
  Ho  Ho1  1  0.76047700  0.00000000  0.75000000  1
  Ho  Ho2  1  0.00000000  0.23952300  0.25000000  1
  Ho  Ho3  1  0.00000000  0.76047700  0.75000000  1
  Ho  Ho4  1  0.23952300  0.23952300  0.75000000  1
  Ho  Ho5  1  0.23952300  0.00000000  0.25000000  1
  Ho  Ho6  1  0.66666700  0.33333300  0.00000000  1
  Ho  Ho7  1  0.33333300  0.66666700  0.50000000  1
  Ho  Ho8  1  0.33333300  0.66666700  0.00000000  1
  Ho  Ho9  1  0.66666700  0.33333300  0.50000000  1
  Si  Si0  1  0.39933400  0.00000000  0.75000000  1
  Si  Si1  1  0.39933400  0.39933400  0.25000000  1
  Si  Si2  1  0.00000000  0.60066600  0.25000000  1
  Si  Si3  1  0.00000000  0.39933400  0.75000000  1
  Si  Si4  1  0.60066600  0.60066600  0.75000000  1
  Si  Si5  1  0.60066600  0.00000000  0.25000000  1
  B  B0  1  0.00000000  0.00000000  0.50000000  1
  B  B1  1  0.00000000  0.00000000  0.00000000  1
loop_
_geom_bond_atom_site_label_1
_geom_bond_atom_site_label_2
_geom_bond_distance
_geom_bond_site_symmetry_2
Ho0 Si2 2.960757 1_655
Ho0 Si5 2.960757 1_565
Ho0 Si1 3.071496 1_555
Ho0 Si4 3.430942 1_555
Ho0 Si4 3.430942 1_554
Ho1 Si4 2.960757 1_545
Ho1 Si3 2.960757 1_655
Ho1 Si0 3.071496 1_555
Ho1 Si5 3.430942 1_555
Ho1 Si5 3.430942 1_556
Ho2 Si1 2.960757 1_555
Ho2 Si5 2.960757 1_455
Ho2 Si2 3.071496 1_555
Ho2 Si3 3.430942 1_555
Ho2 Si3 3.430942 1_554
Ho3 Si4 2.960757 1_455
Ho3 Si0 2.960757 1_565
Ho3 Si3 3.071496 1_555
Ho3 Si2 3.430942 1_556
Ho3 Si2 3.430942 1_555
Ho4 Si3 2.960757 1_555
Ho4 Si0 2.960757 1_555
Ho4 Si4 3.071496 1_555
Ho4 Si1 3.430942 1_556
Ho4 Si1 3.430942 1_555
Ho5 Si1 2.960757 1_555
Ho5 Si2 2.960757 1_545
Ho5 Si5 3.071496 1_555
Ho5 Si0 3.430942 1_555
Ho5 Si0 3.430942 1_554
Ho6 Si3 3.040033 1_654
Ho6 Si5 3.040033 1_555
Ho6 Si0 3.040036 1_554
Ho6 Si2 3.040036 1_655
Ho6 Si4 3.040040 1_554
Ho6 Si1 3.040040 1_555
Ho7 Si0 3.040033 1_565
Ho7 Si2 3.040033 1_555
Ho7 Si3 3.040036 1_555
Ho7 Si5 3.040036 1_565
Ho7 Si1 3.040040 1_555
Ho7 Si4 3.040040 1_555
Ho8 Si0 3.040033 1_564
Ho8 Si2 3.040033 1_555
Ho8 Si3 3.040036 1_554
Ho8 Si5 3.040036 1_565
Ho8 Si4 3.040040 1_554
Ho8 Si1 3.040040 1_555
Ho9 Si3 3.040033 1_655
Ho9 Si5 3.040033 1_555
Ho9 Si0 3.040036 1_555
Ho9 Si2 3.040036 1_655
Ho9 Si1 3.040040 1_555
Ho9 Si4 3.040040 1_555
B0 Ho3 2.575050 1_545
B0 Ho2 2.575050 1_555
B0 Ho5 2.575050 1_555
B0 Ho1 2.575050 1_455
B0 Ho4 2.575050 1_555
B0 Ho0 2.575050 1_445
B1 Ho2 2.575050 1_555
B1 Ho5 2.575050 1_555
B1 Ho1 2.575050 1_454
B1 Ho3 2.575050 1_544
B1 Ho4 2.575050 1_554
B1 Ho0 2.575050 1_445
