# generated using pymatgen
data_Ca3Al4SiO12
_symmetry_space_group_name_H-M   'P 1'
_cell_length_a   5.48433600
_cell_length_b   5.51364927
_cell_length_c   9.78686499
_cell_angle_alpha   86.56705823
_cell_angle_beta   98.87236557
_cell_angle_gamma   119.60336777
_symmetry_Int_Tables_number   1
_chemical_formula_structural   Ca3Al4SiO12
_chemical_formula_sum   'Ca3 Al4 Si1 O12'
_cell_volume   254.18686387
_cell_formula_units_Z   1
loop_
 _symmetry_equiv_pos_site_id
 _symmetry_equiv_pos_as_xyz
  1  'x, y, z'
loop_
 _atom_site_type_symbol
 _atom_site_label
 _atom_site_symmetry_multiplicity
 _atom_site_fract_x
 _atom_site_fract_y
 _atom_site_fract_z
 _atom_site_occupancy
  Ca  Ca0  1  0.83330500  0.66454400  0.50341000  1
  Ca  Ca1  1  0.16870900  0.33566800  0.50085700  1
  Ca  Ca2  1  0.00245100  0.00530900  0.97691500  1
  Al  Al0  1  0.49146100  0.99381100  0.50429800  1
  Al  Al1  1  0.39140500  0.67665000  0.20191700  1
  Al  Al2  1  0.28230000  0.67218900  0.80212200  1
  Al  Al3  1  0.60994300  0.32350800  0.80332500  1
  Si  Si0  1  0.71770100  0.32380600  0.20236800  1
  O  O0  1  0.75589300  0.29747200  0.37285400  1
  O  O1  1  0.45816800  0.71709500  0.38373800  1
  O  O2  1  0.24686200  0.70746400  0.61956500  1
  O  O3  1  0.54276100  0.28544300  0.61840200  1
  O  O4  1  0.02777900  0.41047800  0.15113500  1
  O  O5  1  0.62997500  0.56853300  0.15497900  1
  O  O6  1  0.95624500  0.61590600  0.85269400  1
  O  O7  1  0.33801700  0.38178400  0.85072600  1
  O  O8  1  0.18973800  0.00088500  0.39417700  1
  O  O9  1  0.81074400  0.00558000  0.60413200  1
  O  O10  1  0.46411200  0.01494900  0.13532400  1
  O  O11  1  0.58243100  0.99892600  0.86706500  1
loop_
_geom_bond_atom_site_label_1
_geom_bond_atom_site_label_2
_geom_bond_distance
_geom_bond_site_symmetry_2
Ca0 O9 2.238798 1_565
Ca0 O3 2.270566 1_555
Ca0 O2 2.280156 1_655
Ca0 O0 2.280895 1_555
Ca0 O8 2.286655 1_665
Ca0 O1 2.343826 1_555
Ca1 O8 2.233585 1_555
Ca1 O2 2.235906 1_555
Ca1 O9 2.247179 1_455
Ca1 O1 2.287124 1_555
Ca1 O3 2.324563 1_555
Ca1 O0 2.329196 1_455
Ca2 O11 2.371460 1_445
Ca2 O6 2.414953 1_445
Ca2 O7 2.416759 1_555
Ca2 O10 2.735501 1_556
Ca2 O4 2.827306 1_556
Ca2 O5 2.957131 1_446
Al0 O9 1.841910 1_565
Al0 O8 1.846579 1_565
Al0 O3 1.892860 1_565
Al0 O1 1.904527 1_555
Al0 O2 1.930240 1_555
Al0 O0 2.116576 1_565
Al1 O1 1.765258 1_555
Al1 O10 1.806296 1_565
Al1 O5 1.807506 1_555
Al1 O4 1.807728 1_555
Al2 O2 1.776619 1_555
Al2 O7 1.797444 1_555
Al2 O11 1.800976 1_555
Al2 O6 1.801464 1_455
Al3 O3 1.794055 1_555
Al3 O6 1.795765 1_555
Al3 O11 1.800900 1_545
Al3 O7 1.802004 1_555
O0 Si0 1.655945 1_555
O4 Si0 1.674261 1_455
O5 Si0 1.662801 1_555
O10 Si0 1.666474 1_555
