# generated using pymatgen
data_Li9Mn2Co5O16
_symmetry_space_group_name_H-M   'P 1'
_cell_length_a   2.94428300
_cell_length_b   9.99202885
_cell_length_c   10.38296490
_cell_angle_alpha   106.72556701
_cell_angle_beta   98.08602912
_cell_angle_gamma   90.33011677
_symmetry_Int_Tables_number   1
_chemical_formula_structural   Li9Mn2Co5O16
_chemical_formula_sum   'Li9 Mn2 Co5 O16'
_cell_volume   289.28439174
_cell_formula_units_Z   1
loop_
 _symmetry_equiv_pos_site_id
 _symmetry_equiv_pos_as_xyz
  1  'x, y, z'
loop_
 _atom_site_type_symbol
 _atom_site_label
 _atom_site_symmetry_multiplicity
 _atom_site_fract_x
 _atom_site_fract_y
 _atom_site_fract_z
 _atom_site_occupancy
  Li  Li0  1  0.56196600  0.29666600  0.62419700  1
  Li  Li1  1  0.04266100  0.83234900  0.61799900  1
  Li  Li2  1  0.95733900  0.16765100  0.38200100  1
  Li  Li3  1  0.43803400  0.70333400  0.37580300  1
  Li  Li4  1  0.31172800  0.05037300  0.12199000  1
  Li  Li5  1  0.81054600  0.56332300  0.12177700  1
  Li  Li6  1  0.68827200  0.94962700  0.87801000  1
  Li  Li7  1  0.18945400  0.43667700  0.87822300  1
  Li  Li8  1  0.50000000  0.00000000  0.50000000  1
  Mn  Mn0  1  0.61626100  0.62496200  0.74874400  1
  Mn  Mn1  1  0.38373900  0.37503800  0.25125600  1
  Co  Co0  1  0.10936900  0.11346600  0.73238000  1
  Co  Co1  1  0.00000000  0.50000000  0.50000000  1
  Co  Co2  1  0.89063100  0.88653400  0.26762000  1
  Co  Co3  1  0.74552600  0.24572000  0.98540800  1
  Co  Co4  1  0.25447400  0.75428000  0.01459200  1
  O  O0  1  0.08243000  0.48831600  0.68516700  1
  O  O1  1  0.58776100  0.97423700  0.69345200  1
  O  O2  1  0.47019400  0.36670900  0.44024900  1
  O  O3  1  0.96377800  0.83911800  0.42471300  1
  O  O4  1  0.85579600  0.24288800  0.19648200  1
  O  O5  1  0.33974100  0.71673600  0.17769500  1
  O  O6  1  0.21943600  0.10468500  0.94048700  1
  O  O7  1  0.70609700  0.60078300  0.92557300  1
  O  O8  1  0.03622200  0.16088200  0.57528700  1
  O  O9  1  0.52980600  0.63329100  0.55975100  1
  O  O10  1  0.41223900  0.02576300  0.30654800  1
  O  O11  1  0.91757000  0.51168400  0.31483300  1
  O  O12  1  0.78056400  0.89531500  0.05951300  1
  O  O13  1  0.29390300  0.39921700  0.07442700  1
  O  O14  1  0.14420400  0.75711200  0.80351800  1
  O  O15  1  0.66025900  0.28326400  0.82230500  1
loop_
_geom_bond_atom_site_label_1
_geom_bond_atom_site_label_2
_geom_bond_distance
_geom_bond_site_symmetry_2
Li0 O8 1.962876 1_555
Li0 O8 1.968045 1_655
Li0 O15 2.079483 1_555
Li0 O2 2.199322 1_555
Li0 O0 2.326291 1_655
Li0 O0 2.376162 1_555
Li1 O3 2.008301 1_455
Li1 O1 2.023712 1_455
Li1 O1 2.044587 1_555
Li1 O14 2.244771 1_555
Li1 O9 2.370242 1_455
Li1 O9 2.442046 1_555
Li2 O8 2.008301 1_655
Li2 O10 2.023712 1_655
Li2 O10 2.044587 1_555
Li2 O4 2.244771 1_555
Li2 O2 2.370242 1_655
Li2 O2 2.442046 1_555
Li3 O3 1.962876 1_555
Li3 O3 1.968045 1_455
Li3 O5 2.079483 1_555
Li3 O9 2.199322 1_555
Li3 O11 2.326291 1_455
Li3 O11 2.376162 1_555
Li4 O10 1.983084 1_555
Li4 O6 2.089527 1_554
Li4 O12 2.091709 1_445
Li4 O12 2.103523 1_545
Li4 O4 2.359243 1_455
Li4 O4 2.371532 1_555
Li5 O5 2.078533 1_655
Li5 O5 2.084954 1_555
Li5 O13 2.131018 1_555
Li5 O7 2.156095 1_554
Li5 O13 2.171527 1_655
Li5 O11 2.191577 1_555
Li6 O1 1.983084 1_555
Li6 O12 2.089527 1_556
Li6 O6 2.091709 1_665
Li6 O6 2.103523 1_565
Li6 O14 2.359243 1_655
Li6 O14 2.371532 1_555
Li7 O15 2.078533 1_455
Li7 O15 2.084954 1_555
Li7 O7 2.131018 1_555
Li7 O13 2.156095 1_556
Li7 O7 2.171527 1_455
Li7 O0 2.191577 1_555
Li8 O1 2.078437 1_545
Li8 O10 2.078437 1_555
Li8 O3 2.141985 1_445
Li8 O8 2.141985 1_655
Li8 O3 2.159192 1_545
Li8 O8 2.159192 1_555
Mn0 O7 1.902286 1_555
Mn0 O14 1.943873 1_655
Mn0 O14 1.951931 1_555
Mn0 O9 1.968780 1_555
Mn0 O0 1.983686 1_555
Mn0 O0 1.985334 1_655
Mn1 O13 1.902286 1_555
Mn1 O4 1.943873 1_455
Mn1 O4 1.951931 1_555
Mn1 O2 1.968780 1_555
Mn1 O11 1.983686 1_555
Mn1 O11 1.985334 1_455
Co0 O8 1.810651 1_555
Co0 O1 1.983538 1_445
Co0 O1 1.985390 1_545
Co0 O6 2.166586 1_555
Co0 O15 2.227152 1_455
Co0 O15 2.238659 1_555
Co1 O0 1.940904 1_555
Co1 O11 1.940904 1_455
Co1 O2 1.954539 1_455
Co1 O9 1.954539 1_555
Co1 O2 1.965326 1_555
Co1 O9 1.965326 1_455
Co2 O3 1.810651 1_555
Co2 O10 1.983538 1_665
Co2 O10 1.985390 1_565
Co2 O12 2.166586 1_555
Co2 O5 2.227152 1_655
Co2 O5 2.238659 1_555
Co3 O15 1.821762 1_555
Co3 O6 1.994446 1_655
Co3 O6 1.999005 1_555
Co3 O13 2.127933 1_556
Co3 O13 2.132893 1_656
Co3 O4 2.178265 1_556
Co4 O5 1.821762 1_555
Co4 O12 1.994446 1_455
Co4 O12 1.999005 1_555
Co4 O7 2.127933 1_554
Co4 O7 2.132893 1_454
Co4 O14 2.178265 1_554
