# generated using pymatgen
data_Yb2Mg
_symmetry_space_group_name_H-M   'P 1'
_cell_length_a   6.27164149
_cell_length_b   6.27164149
_cell_length_c   5.92270400
_cell_angle_alpha   90.00000000
_cell_angle_beta   90.00000000
_cell_angle_gamma   120.36762452
_symmetry_Int_Tables_number   1
_chemical_formula_structural   Yb2Mg
_chemical_formula_sum   'Yb4 Mg2'
_cell_volume   200.99828254
_cell_formula_units_Z   2
loop_
 _symmetry_equiv_pos_site_id
 _symmetry_equiv_pos_as_xyz
  1  'x, y, z'
loop_
 _atom_site_type_symbol
 _atom_site_label
 _atom_site_symmetry_multiplicity
 _atom_site_fract_x
 _atom_site_fract_y
 _atom_site_fract_z
 _atom_site_occupancy
  Yb  Yb0  1  0.65940300  0.98068900  0.25000000  1
  Yb  Yb1  1  0.01931100  0.34059700  0.75000000  1
  Yb  Yb2  1  0.98068900  0.65940300  0.25000000  1
  Yb  Yb3  1  0.34059700  0.01931100  0.75000000  1
  Mg  Mg0  1  0.66524800  0.66524800  0.75000000  1
  Mg  Mg1  1  0.33475200  0.33475200  0.25000000  1
loop_
_geom_bond_atom_site_label_1
_geom_bond_atom_site_label_2
_geom_bond_distance
_geom_bond_site_symmetry_2
Yb0 Yb2 3.496512 1_555
Yb0 Yb3 3.649070 1_565
Yb0 Yb3 3.649070 1_564
Yb0 Yb2 3.675188 1_455
Yb0 Yb2 3.675188 1_565
Yb0 Yb1 3.715926 1_665
Yb0 Yb1 3.715926 1_664
Yb1 Yb3 3.496512 1_555
Yb1 Yb2 3.649070 1_455
Yb1 Yb2 3.649070 1_456
Yb1 Yb3 3.675188 1_455
Yb1 Yb3 3.675188 1_565
Yb2 Yb3 3.715926 1_664
Yb2 Yb3 3.715926 1_665
Mg0 Yb1 3.495295 1_555
Mg0 Yb3 3.495295 1_555
Mg0 Yb2 3.571845 1_556
Mg0 Yb2 3.571845 1_555
Mg0 Yb0 3.571845 1_555
Mg0 Yb0 3.571845 1_556
Mg0 Yb3 3.655288 1_665
Mg0 Yb1 3.655288 1_665
Mg0 Yb1 3.694315 1_655
Mg0 Yb3 3.694315 1_565
Mg1 Yb2 3.495295 1_555
Mg1 Yb0 3.495295 1_555
Mg1 Yb1 3.571845 1_554
Mg1 Yb1 3.571845 1_555
Mg1 Yb3 3.571845 1_555
Mg1 Yb3 3.571845 1_554
Mg1 Yb0 3.655288 1_445
Mg1 Yb2 3.655288 1_445
Mg1 Yb0 3.694315 1_545
Mg1 Yb2 3.694315 1_455
