# generated using pymatgen
data_LiScGa2
_symmetry_space_group_name_H-M   'P 1'
_cell_length_a   11.09912600
_cell_length_b   11.09912600
_cell_length_c   11.09912600
_cell_angle_alpha   121.78545018
_cell_angle_beta   119.82231291
_cell_angle_gamma   88.62179959
_symmetry_Int_Tables_number   1
_chemical_formula_structural   LiScGa2
_chemical_formula_sum   'Li1 Sc1 Ga2'
_cell_volume   954.42443122
_cell_formula_units_Z   1
loop_
 _symmetry_equiv_pos_site_id
 _symmetry_equiv_pos_as_xyz
  1  'x, y, z'
loop_
 _atom_site_type_symbol
 _atom_site_label
 _atom_site_symmetry_multiplicity
 _atom_site_fract_x
 _atom_site_fract_y
 _atom_site_fract_z
 _atom_site_occupancy
  Li  Li0  1  0.00000000  0.00000000  0.00000000  1
  Sc  Sc0  1  0.00000000  0.50000000  0.50000000  1
  Ga  Ga0  1  0.00000000  0.24580500  0.24580500  1
  Ga  Ga1  1  0.00000000  0.75419500  0.75419500  1
loop_
_geom_bond_atom_site_label_1
_geom_bond_atom_site_label_2
_geom_bond_distance
_geom_bond_site_symmetry_2
Ga0 Li0 2.654266 1_555
Ga0 Sc0 2.744863 1_555
Ga1 Li0 2.654266 1_566
Ga1 Sc0 2.744863 1_555
