# generated using pymatgen
data_Lu3Np
_symmetry_space_group_name_H-M   'P 1'
_cell_length_a   4.83200081
_cell_length_b   4.83200081
_cell_length_c   4.83200081
_cell_angle_alpha   90.00000000
_cell_angle_beta   90.00000000
_cell_angle_gamma   90.00000000
_symmetry_Int_Tables_number   1
_chemical_formula_structural   Lu3Np
_chemical_formula_sum   'Lu3 Np1'
_cell_volume   112.81867510
_cell_formula_units_Z   1
loop_
 _symmetry_equiv_pos_site_id
 _symmetry_equiv_pos_as_xyz
  1  'x, y, z'
loop_
 _atom_site_type_symbol
 _atom_site_label
 _atom_site_symmetry_multiplicity
 _atom_site_fract_x
 _atom_site_fract_y
 _atom_site_fract_z
 _atom_site_occupancy
  Lu  Lu0  1  0.00000000  0.50000100  0.50000100  1
  Lu  Lu1  1  0.50000100  -0.00000000  0.50000100  1
  Lu  Lu2  1  0.50000100  0.50000100  0.00000000  1
  Np  Np0  1  0.00000000  0.00000000  0.00000000  1
loop_
_geom_bond_atom_site_label_1
_geom_bond_atom_site_label_2
_geom_bond_distance
_geom_bond_site_symmetry_2
Lu0 Lu1 3.416734 1_465
Lu0 Np0 3.416734 1_566
Lu0 Lu2 3.416734 1_456
Lu0 Np0 3.416741 1_556
Lu0 Lu1 3.416741 1_565
Lu0 Lu2 3.416741 1_455
Lu0 Lu1 3.416741 1_455
Lu0 Np0 3.416741 1_565
Lu0 Lu2 3.416741 1_556
Lu0 Np0 3.416747 1_555
Lu0 Lu1 3.416747 1_555
Lu0 Lu2 3.416747 1_555
Lu1 Np0 3.416734 1_656
Lu1 Lu2 3.416734 1_546
Lu1 Np0 3.416741 1_556
Lu1 Lu2 3.416741 1_556
Lu1 Lu2 3.416741 1_545
Lu1 Np0 3.416741 1_655
Lu1 Np0 3.416747 1_555
Lu1 Lu2 3.416747 1_555
Lu2 Np0 3.416734 1_665
Lu2 Np0 3.416741 1_565
Lu2 Np0 3.416741 1_655
Lu2 Np0 3.416747 1_555
