# generated using pymatgen
data_ZnSiAsP
_symmetry_space_group_name_H-M   'P 1'
_cell_length_a   5.55522100
_cell_length_b   5.52548700
_cell_length_c   6.66322723
_cell_angle_alpha   65.50427407
_cell_angle_beta   65.36371240
_cell_angle_gamma   90.00000000
_symmetry_Int_Tables_number   1
_chemical_formula_structural   ZnSiAsP
_chemical_formula_sum   'Zn2 Si2 As2 P2'
_cell_volume   165.44377634
_cell_formula_units_Z   2
loop_
 _symmetry_equiv_pos_site_id
 _symmetry_equiv_pos_as_xyz
  1  'x, y, z'
loop_
 _atom_site_type_symbol
 _atom_site_label
 _atom_site_symmetry_multiplicity
 _atom_site_fract_x
 _atom_site_fract_y
 _atom_site_fract_z
 _atom_site_occupancy
  Zn  Zn0  1  0.75550600  0.25550600  0.48898800  1
  Zn  Zn1  1  0.99449400  0.99449400  0.01101200  1
  Si  Si0  1  0.25549200  0.75549200  0.48901600  1
  Si  Si1  1  0.49450800  0.49450800  0.01098400  1
  As  As0  1  0.37500000  0.86229200  0.75000000  1
  As  As1  1  0.87500000  0.38770800  0.75000000  1
  P  P0  1  0.14417700  0.12500000  0.25000000  1
  P  P1  1  0.60582300  0.62500000  0.25000000  1
loop_
_geom_bond_atom_site_label_1
_geom_bond_atom_site_label_2
_geom_bond_distance
_geom_bond_site_symmetry_2
As0 Si0 2.372051 1_555
As0 Si1 2.372051 1_556
As0 Zn1 2.452558 1_456
As0 Zn0 2.452558 1_565
As1 Si1 2.372051 1_556
As1 Si0 2.372051 1_655
As1 Zn0 2.452558 1_555
As1 Zn1 2.452558 1_546
P0 Si0 2.282989 1_545
P0 Si1 2.282989 1_555
P0 Zn1 2.409038 1_445
P0 Zn0 2.409038 1_455
P1 Si1 2.282989 1_555
P1 Si0 2.282989 1_555
P1 Zn0 2.409038 1_555
P1 Zn1 2.409038 1_555
