# generated using pymatgen
data_Cd4SiSe6
_symmetry_space_group_name_H-M   'P 1'
_cell_length_a   7.57601042
_cell_length_b   7.57601042
_cell_length_c   13.13906206
_cell_angle_alpha   72.52363319
_cell_angle_beta   72.52363319
_cell_angle_gamma   59.69261386
_symmetry_Int_Tables_number   1
_chemical_formula_structural   Cd4SiSe6
_chemical_formula_sum   'Cd8 Si2 Se12'
_cell_volume   610.79249767
_cell_formula_units_Z   2
loop_
 _symmetry_equiv_pos_site_id
 _symmetry_equiv_pos_as_xyz
  1  'x, y, z'
loop_
 _atom_site_type_symbol
 _atom_site_label
 _atom_site_symmetry_multiplicity
 _atom_site_fract_x
 _atom_site_fract_y
 _atom_site_fract_z
 _atom_site_occupancy
  Cd  Cd0  1  0.32306400  0.72617400  0.69083300  1
  Cd  Cd1  1  0.72617400  0.32306400  0.19083300  1
  Cd  Cd2  1  0.08815400  0.22765500  0.84722100  1
  Cd  Cd3  1  0.22765500  0.08815400  0.34722100  1
  Cd  Cd4  1  0.23182900  0.44474300  0.04183800  1
  Cd  Cd5  1  0.44474300  0.23182900  0.54183800  1
  Cd  Cd6  1  0.71082100  0.92032600  0.85392400  1
  Cd  Cd7  1  0.92032600  0.71082100  0.35392400  1
  Si  Si0  1  0.85967500  0.31810700  0.60423500  1
  Si  Si1  1  0.31810700  0.85967500  0.10423500  1
  Se  Se0  1  0.97599000  0.44245100  0.23382900  1
  Se  Se1  1  0.44245100  0.97599000  0.73382900  1
  Se  Se2  1  0.03308000  0.00148200  0.55327300  1
  Se  Se3  1  0.00148200  0.03308000  0.05327300  1
  Se  Se4  1  0.51697400  0.03011400  0.05301000  1
  Se  Se5  1  0.03011400  0.51697400  0.55301000  1
  Se  Se6  1  0.74592800  0.28666200  0.78822200  1
  Se  Se7  1  0.28666200  0.74592800  0.28822200  1
  Se  Se8  1  0.08456500  0.58432700  0.85513100  1
  Se  Se9  1  0.58432700  0.08456500  0.35513100  1
  Se  Se10  1  0.56914200  0.51913900  0.52428400  1
  Se  Se11  1  0.51913900  0.56914200  0.02428400  1
loop_
_geom_bond_atom_site_label_1
_geom_bond_atom_site_label_2
_geom_bond_distance
_geom_bond_site_symmetry_2
Cd0 Se8 2.702468 1_555
Cd0 Se10 2.717421 1_555
Cd0 Se1 2.719553 1_555
Cd0 Se2 2.817708 1_565
Cd1 Se9 2.702468 1_555
Cd1 Se11 2.717421 1_555
Cd1 Se0 2.719553 1_555
Cd1 Se3 2.817708 1_655
Cd2 Se1 2.683032 1_545
Cd2 Se6 2.711481 1_455
Cd2 Se8 2.721394 1_555
Cd2 Se3 2.728724 1_556
Cd3 Se0 2.683032 1_455
Cd3 Se7 2.711481 1_545
Cd3 Se9 2.721394 1_555
Cd3 Se2 2.728724 1_555
Cd4 Se0 2.681693 1_455
Cd4 Se8 2.697397 1_554
Cd4 Se11 2.705107 1_555
Cd4 Se4 2.760488 1_555
Cd5 Se1 2.681693 1_545
Cd5 Se9 2.697397 1_555
Cd5 Se10 2.705107 1_555
Cd5 Se5 2.760488 1_555
Cd6 Se8 2.688033 1_655
Cd6 Se4 2.730864 1_566
Cd6 Se1 2.731924 1_555
Cd6 Se6 2.772491 1_565
Cd7 Se9 2.688033 1_565
Cd7 Se5 2.730864 1_655
Cd7 Se0 2.731924 1_555
Cd7 Se7 2.772491 1_655
Se2 Si0 2.276858 1_455
Se3 Si1 2.276858 1_545
Se4 Si1 2.285311 1_545
Se5 Si0 2.285311 1_455
Se6 Si0 2.292017 1_555
Se7 Si1 2.292017 1_555
Se10 Si0 2.304840 1_555
Se11 Si1 2.304840 1_555
