# generated using pymatgen
data_La2(Ga3Ru)3
_symmetry_space_group_name_H-M   'P 1'
_cell_length_a   7.50977039
_cell_length_b   7.50979826
_cell_length_c   9.94090822
_cell_angle_alpha   90.00063671
_cell_angle_beta   90.00057385
_cell_angle_gamma   118.66192980
_symmetry_Int_Tables_number   1
_chemical_formula_structural   La2(Ga3Ru)3
_chemical_formula_sum   'La4 Ga18 Ru6'
_cell_volume   491.93851177
_cell_formula_units_Z   2
loop_
 _symmetry_equiv_pos_site_id
 _symmetry_equiv_pos_as_xyz
  1  'x, y, z'
loop_
 _atom_site_type_symbol
 _atom_site_label
 _atom_site_symmetry_multiplicity
 _atom_site_fract_x
 _atom_site_fract_y
 _atom_site_fract_z
 _atom_site_occupancy
  La  La0  1  0.99871021  0.67475640  0.25005216  1
  La  La1  1  0.00132431  0.32521838  0.74999872  1
  La  La2  1  0.67477906  0.99867834  0.25000434  1
  La  La3  1  0.32524543  0.00132137  0.74994199  1
  Ga  Ga0  1  0.13964554  0.13964271  0.24997231  1
  Ga  Ga1  1  0.86035382  0.86035902  0.75003263  1
  Ga  Ga2  1  0.01517804  0.33868990  0.07069974  1
  Ga  Ga3  1  0.98481590  0.66130467  0.92929527  1
  Ga  Ga4  1  0.98476434  0.66130632  0.57074821  1
  Ga  Ga5  1  0.33869547  0.01523415  0.42925351  1
  Ga  Ga6  1  0.01523243  0.33870036  0.42925148  1
  Ga  Ga7  1  0.66128760  0.98476078  0.57074674  1
  Ga  Ga8  1  0.66130868  0.98482353  0.92929721  1
  Ga  Ga9  1  0.33868625  0.01517867  0.07070069  1
  Ga  Ga10  1  0.34201539  0.34201416  0.55385580  1
  Ga  Ga11  1  0.65798329  0.65798687  0.44614440  1
  Ga  Ga12  1  0.65801724  0.65802248  0.05382548  1
  Ga  Ga13  1  0.34197904  0.34198487  0.94617228  1
  Ga  Ga14  1  0.33916313  0.54728991  0.24997256  1
  Ga  Ga15  1  0.66083548  0.45270489  0.75002814  1
  Ga  Ga16  1  0.54730379  0.33916675  0.24996642  1
  Ga  Ga17  1  0.45270036  0.66084185  0.75002800  1
  Ru  Ru0  1  0.67545315  0.32454948  0.00000203  1
  Ru  Ru1  1  0.32454186  0.67545264  0.00000419  1
  Ru  Ru2  1  0.32451572  0.67548208  0.49999808  1
  Ru  Ru3  1  0.67547465  0.32452170  0.50000146  1
  Ru  Ru4  1  -0.00000311  0.00000629  0.00000038  1
  Ru  Ru5  1  -0.00000304  0.00000144  0.50000479  1
loop_
_geom_bond_atom_site_label_1
_geom_bond_atom_site_label_2
_geom_bond_distance
_geom_bond_site_symmetry_2
Ga0 Ga14 2.686393 1_555
Ga0 Ga16 2.686456 1_555
Ga0 Ru4 2.705435 1_555
Ga0 Ru5 2.706036 1_555
Ga0 Ga5 2.761045 1_555
Ga0 Ga6 2.761094 1_555
Ga0 Ga9 2.761190 1_555
Ga0 Ga2 2.761250 1_555
Ga0 La2 3.124555 1_445
Ga0 La0 3.124754 1_445
Ga1 Ga17 2.686425 1_555
Ga1 Ga15 2.686439 1_555
Ga1 Ru4 2.705405 1_666
Ga1 Ru5 2.705987 1_665
Ga1 Ga4 2.761090 1_555
Ga1 Ga7 2.761131 1_555
Ga1 Ga8 2.761171 1_555
Ga1 Ga3 2.761199 1_555
Ga1 La1 3.124508 1_665
Ga1 La3 3.124739 1_665
Ga2 Ru1 2.578974 1_555
Ga2 Ru4 2.588022 1_555
Ga2 Ru0 2.598881 1_455
Ga2 La0 3.140534 1_455
Ga2 La2 3.157605 1_445
Ga2 La1 3.189776 1_554
Ga3 Ru0 2.578969 1_556
Ga3 Ru4 2.588168 1_666
Ga3 Ru1 2.598894 1_656
Ga3 La1 3.140471 1_655
Ga3 La3 3.157991 1_665
Ga3 La0 3.190334 1_556
Ga4 Ru3 2.578935 1_555
Ga4 Ru5 2.588075 1_665
Ga4 Ru2 2.599114 1_655
Ga4 La1 3.140416 1_655
Ga4 La3 3.157193 1_665
Ga4 La0 3.189741 1_555
Ga5 Ru3 2.578907 1_555
Ga5 Ru5 2.588111 1_555
Ga5 Ru2 2.599101 1_545
Ga5 La2 3.140359 1_545
Ga5 La0 3.157131 1_445
Ga5 La3 3.189661 1_555
Ga6 Ru2 2.578902 1_555
Ga6 Ru5 2.588120 1_555
Ga6 Ru3 2.599150 1_455
Ga6 La0 3.139810 1_455
Ga6 La2 3.157427 1_445
Ga6 La1 3.190248 1_555
Ga7 Ru2 2.578851 1_555
Ga7 Ru5 2.588138 1_665
Ga7 Ru3 2.599143 1_565
Ga7 La3 3.139814 1_565
Ga7 La1 3.157513 1_665
Ga7 La2 3.190202 1_555
Ga8 Ru1 2.579043 1_556
Ga8 Ru4 2.588052 1_666
Ga8 Ru0 2.598903 1_566
Ga8 La3 3.140620 1_565
Ga8 La1 3.157570 1_665
Ga8 La2 3.189837 1_556
Ga9 Ru0 2.579020 1_555
Ga9 Ru4 2.588086 1_555
Ga9 Ru1 2.598882 1_545
Ga9 La2 3.140519 1_545
Ga9 La0 3.157829 1_445
Ga9 La3 3.190346 1_554
Ga10 Ru3 2.624975 1_555
Ga10 Ru2 2.625082 1_555
Ga10 Ga11 2.646958 1_555
Ga10 Ru5 2.674349 1_555
Ga10 Ga5 2.738341 1_555
Ga10 Ga6 2.738382 1_555
Ga10 Ga15 2.883949 1_555
Ga10 Ga17 2.883998 1_555
Ga10 La3 3.170591 1_555
Ga10 La1 3.170851 1_555
Ga11 Ru3 2.625029 1_555
Ga11 Ru2 2.625045 1_555
Ga11 Ru5 2.674357 1_665
Ga11 Ga4 2.738349 1_555
Ga11 Ga7 2.738349 1_555
Ga11 Ga14 2.883941 1_555
Ga11 Ga16 2.884002 1_555
Ga11 La0 3.170822 1_555
Ga11 La2 3.170845 1_555
Ga12 Ru1 2.624779 1_555
Ga12 Ru0 2.624796 1_555
Ga12 Ga13 2.647157 1_554
Ga12 Ru4 2.674065 1_665
Ga12 Ga8 2.738264 1_554
Ga12 Ga3 2.738276 1_554
Ga12 Ga16 2.883957 1_555
Ga12 Ga14 2.883967 1_555
Ga12 La2 3.170924 1_555
Ga12 La0 3.171502 1_555
Ga13 Ru1 2.624780 1_556
Ga13 Ru0 2.624807 1_556
Ga13 Ru4 2.674061 1_556
Ga13 Ga2 2.738239 1_556
Ga13 Ga9 2.738295 1_556
Ga13 Ga15 2.883969 1_555
Ga13 Ga17 2.883980 1_555
Ga13 La1 3.170866 1_555
Ga13 La3 3.171357 1_555
Ga14 Ru1 2.686007 1_555
Ga14 Ru2 2.686640 1_555
Ga14 Ga16 2.688805 1_555
Ga14 Ga6 2.809352 1_555
Ga14 Ga2 2.809516 1_555
Ga14 La2 3.106051 1_555
Ga14 La0 3.130642 1_455
Ga15 Ru0 2.686031 1_556
Ga15 Ru3 2.686612 1_555
Ga15 Ga17 2.688858 1_555
Ga15 Ga4 2.809362 1_555
Ga15 Ga3 2.809459 1_555
Ga15 La3 3.105969 1_555
Ga15 La1 3.131006 1_655
Ga16 Ru0 2.685924 1_555
Ga16 Ru3 2.686663 1_555
Ga16 Ga5 2.809437 1_555
Ga16 Ga9 2.809507 1_555
Ga16 La0 3.106083 1_555
Ga16 La2 3.130951 1_545
Ga17 Ru1 2.686048 1_556
Ga17 Ru2 2.686648 1_555
Ga17 Ga7 2.809316 1_555
Ga17 Ga8 2.809491 1_555
Ga17 La1 3.105996 1_555
Ga17 La3 3.130780 1_565
