# generated using pymatgen
data_Rb2U(ClO)4
_symmetry_space_group_name_H-M   'P 1'
_cell_length_a   7.03781900
_cell_length_b   6.98833909
_cell_length_c   7.87216871
_cell_angle_alpha   78.90650316
_cell_angle_beta   108.57496559
_cell_angle_gamma   121.33482692
_symmetry_Int_Tables_number   1
_chemical_formula_structural   Rb2U(ClO)4
_chemical_formula_sum   'Rb2 U1 Cl4 O4'
_cell_volume   313.30388381
_cell_formula_units_Z   1
loop_
 _symmetry_equiv_pos_site_id
 _symmetry_equiv_pos_as_xyz
  1  'x, y, z'
loop_
 _atom_site_type_symbol
 _atom_site_label
 _atom_site_symmetry_multiplicity
 _atom_site_fract_x
 _atom_site_fract_y
 _atom_site_fract_z
 _atom_site_occupancy
  Rb  Rb0  1  0.43184700  0.72327400  0.24569200  1
  Rb  Rb1  1  0.56815300  0.27672600  0.75430800  1
  U  U0  1  0.00000000  0.00000000  0.00000000  1
  Cl  Cl0  1  0.75067000  0.83337000  0.67109000  1
  Cl  Cl1  1  0.24933000  0.16663000  0.32891000  1
  Cl  Cl2  1  0.84534000  0.59500100  0.15437400  1
  Cl  Cl3  1  0.15466000  0.40499900  0.84562600  1
  O  O0  1  0.75567900  0.01120700  0.02031000  1
  O  O1  1  0.24432000  0.98879300  0.97969000  1
  O  O2  1  0.35486100  0.79230700  0.58863600  1
  O  O3  1  0.64513900  0.20769300  0.41136400  1
loop_
_geom_bond_atom_site_label_1
_geom_bond_atom_site_label_2
_geom_bond_distance
_geom_bond_site_symmetry_2
Cl0 U0 2.698091 1_666
Cl0 Rb0 3.354095 1_555
Cl0 Rb1 3.401436 1_555
Cl1 U0 2.698091 1_555
Cl1 Rb1 3.354095 1_555
Cl1 Rb0 3.401436 1_555
Cl2 U0 2.643303 1_665
Cl2 Rb0 3.587141 1_655
Cl2 Rb1 3.597217 1_554
Cl2 Rb0 3.752720 1_555
Cl3 U0 2.643303 1_556
Cl3 Rb1 3.587141 1_455
Cl3 Rb0 3.597217 1_556
Cl3 Rb1 3.752720 1_555
O0 U0 1.818891 1_655
O0 Rb0 2.970453 1_545
O0 Rb1 2.976715 1_554
O1 U0 1.818883 1_566
O1 Rb1 2.970457 1_565
O1 Rb0 2.976719 1_556
O2 Rb0 3.085401 1_555
O2 Rb1 3.252818 1_565
O3 Rb1 3.085401 1_555
O3 Rb0 3.252818 1_545
