# generated using pymatgen
data_Li5MnF8
_symmetry_space_group_name_H-M   'P 1'
_cell_length_a   5.27161820
_cell_length_b   5.27161820
_cell_length_c   5.82128000
_cell_angle_alpha   90.00000000
_cell_angle_beta   90.00000000
_cell_angle_gamma   114.38727253
_symmetry_Int_Tables_number   1
_chemical_formula_structural   Li5MnF8
_chemical_formula_sum   'Li5 Mn1 F8'
_cell_volume   147.33898697
_cell_formula_units_Z   1
loop_
 _symmetry_equiv_pos_site_id
 _symmetry_equiv_pos_as_xyz
  1  'x, y, z'
loop_
 _atom_site_type_symbol
 _atom_site_label
 _atom_site_symmetry_multiplicity
 _atom_site_fract_x
 _atom_site_fract_y
 _atom_site_fract_z
 _atom_site_occupancy
  Li  Li0  1  0.50000000  0.00000000  0.23554700  1
  Li  Li1  1  0.50000000  0.00000000  0.76445300  1
  Li  Li2  1  0.50000000  0.50000000  0.00000000  1
  Li  Li3  1  0.00000000  0.50000000  0.76445300  1
  Li  Li4  1  0.00000000  0.50000000  0.23554700  1
  Mn  Mn0  1  0.50000000  0.50000000  0.50000000  1
  F  F0  1  0.72699700  0.27300300  0.00000000  1
  F  F1  1  0.73666900  0.26333100  0.50000000  1
  F  F2  1  0.27349100  0.27349100  0.73621200  1
  F  F3  1  0.72650900  0.72650900  0.73621200  1
  F  F4  1  0.27349100  0.27349100  0.26378800  1
  F  F5  1  0.72650900  0.72650900  0.26378800  1
  F  F6  1  0.26333100  0.73666900  0.50000000  1
  F  F7  1  0.27300300  0.72699700  0.00000000  1
loop_
_geom_bond_atom_site_label_1
_geom_bond_atom_site_label_2
_geom_bond_distance
_geom_bond_site_symmetry_2
F0 Li1 1.990259 1_554
F0 Li3 1.990259 1_654
F0 Li4 1.990259 1_655
F0 Li0 1.990259 1_555
F0 Li2 2.011570 1_555
F1 Mn0 2.097280 1_555
F1 Li0 2.103166 1_555
F1 Li4 2.103166 1_655
F1 Li1 2.103166 1_555
F1 Li3 2.103166 1_655
F2 Mn0 1.888107 1_555
F2 Li2 2.008031 1_556
F2 Li3 2.225555 1_555
F2 Li1 2.225555 1_555
F3 Mn0 1.888107 1_555
F3 Li2 2.008031 1_556
F3 Li1 2.225555 1_565
F3 Li3 2.225555 1_655
F4 Mn0 1.888107 1_555
F4 Li2 2.008031 1_555
F4 Li4 2.225555 1_555
F4 Li0 2.225555 1_555
F5 Mn0 1.888107 1_555
F5 Li2 2.008031 1_555
F5 Li0 2.225555 1_565
F5 Li4 2.225555 1_655
F6 Mn0 2.097280 1_555
F6 Li0 2.103166 1_565
F6 Li4 2.103166 1_555
F6 Li3 2.103166 1_555
F6 Li1 2.103166 1_565
F7 Li1 1.990259 1_564
F7 Li3 1.990259 1_554
F7 Li0 1.990259 1_565
F7 Li4 1.990259 1_555
F7 Li2 2.011570 1_555
