# generated using pymatgen
data_SrPrEuSbO6
_symmetry_space_group_name_H-M   'P 1'
_cell_length_a   5.91311140
_cell_length_b   6.06726769
_cell_length_c   8.48064679
_cell_angle_alpha   90.08694943
_cell_angle_beta   90.54410223
_cell_angle_gamma   89.94841030
_symmetry_Int_Tables_number   1
_chemical_formula_structural   SrPrEuSbO6
_chemical_formula_sum   'Sr2 Pr2 Eu2 Sb2 O12'
_cell_volume   304.24113989
_cell_formula_units_Z   2
loop_
 _symmetry_equiv_pos_site_id
 _symmetry_equiv_pos_as_xyz
  1  'x, y, z'
loop_
 _atom_site_type_symbol
 _atom_site_label
 _atom_site_symmetry_multiplicity
 _atom_site_fract_x
 _atom_site_fract_y
 _atom_site_fract_z
 _atom_site_occupancy
  Sr  Sr0  1  0.98780685  0.04698506  0.25147926  1
  Sr  Sr1  1  0.01219315  0.95301494  0.74852074  1
  Pr  Pr0  1  0.00000000  0.50000000  -0.00000000  1
  Pr  Pr1  1  0.50000000  0.00000000  0.50000000  1
  Eu  Eu0  1  0.51348758  0.54810168  0.24820853  1
  Eu  Eu1  1  0.48651242  0.45189832  0.75179147  1
  Sb  Sb0  1  0.50000000  0.00000000  -0.00000000  1
  Sb  Sb1  1  0.00000000  0.50000000  0.50000000  1
  O  O0  1  0.22454454  0.18566181  0.94938754  1
  O  O1  1  0.27614907  0.68426729  0.55455469  1
  O  O2  1  0.77545546  0.81433819  0.05061246  1
  O  O3  1  0.72385093  0.31573271  0.44544531  1
  O  O4  1  0.32324119  0.72006959  0.94478296  1
  O  O5  1  0.17919837  0.22275090  0.55421559  1
  O  O6  1  0.67675881  0.27993041  0.05521704  1
  O  O7  1  0.82080163  0.77724910  0.44578441  1
  O  O8  1  0.40408613  0.96190007  0.22834695  1
  O  O9  1  0.10415767  0.46760108  0.27178196  1
  O  O10  1  0.59591387  0.03809993  0.77165305  1
  O  O11  1  0.89584233  0.53239892  0.72821804  1
loop_
_geom_bond_atom_site_label_1
_geom_bond_atom_site_label_2
_geom_bond_distance
_geom_bond_site_symmetry_2
Eu0 O9 2.479624 1_555
Eu0 O6 2.505451 1_555
Eu0 O3 2.509451 1_555
Eu0 O8 2.597380 1_555
Eu0 O2 2.806949 1_555
Eu0 O7 2.825291 1_555
Eu0 O4 2.987773 1_554
Eu0 O1 3.076102 1_555
Eu1 O11 2.479624 1_555
Eu1 O4 2.505451 1_555
Eu1 O1 2.509451 1_555
Eu1 O10 2.597380 1_555
Eu1 O0 2.806949 1_555
Eu1 O5 2.825291 1_555
Eu1 O6 2.987773 1_556
Eu1 O3 3.076102 1_555
O0 Sb0 2.022627 1_556
O0 Pr0 2.363951 1_556
O0 Sr1 2.534997 1_545
O0 Sr0 3.050871 1_456
O1 Sb1 2.029214 1_555
O1 Pr1 2.377953 1_565
O1 Sr1 2.799422 1_555
O2 Sb0 2.022627 1_565
O2 Pr0 2.363951 1_655
O2 Sr0 2.534997 1_565
O2 Sr1 3.050871 1_654
O3 Sb1 2.029214 1_655
O3 Pr1 2.377953 1_555
O3 Sr0 2.799422 1_555
O4 Sb0 2.046413 1_566
O4 Pr0 2.383043 1_556
O4 Sr1 2.845183 1_555
O5 Sb1 2.038060 1_555
O5 Pr1 2.376205 1_555
O5 Sr1 2.531972 1_545
O5 Sr0 2.991364 1_455
O6 Sb0 2.046413 1_555
O6 Pr0 2.383043 1_655
O6 Sr0 2.845183 1_555
O7 Sb1 2.038060 1_655
O7 Pr1 2.376205 1_565
O7 Sr0 2.531972 1_565
O7 Sr1 2.991364 1_655
O8 Sb0 2.036589 1_565
O8 Pr1 2.378311 1_565
O8 Sr0 2.523999 1_465
O9 Sb1 2.045764 1_555
O9 Pr0 2.388445 1_555
O9 Sr0 2.648625 1_455
O10 Sb0 2.036589 1_556
O10 Pr1 2.378311 1_555
O10 Sr1 2.523999 1_645
O11 Sb1 2.045764 1_655
O11 Pr0 2.388445 1_656
O11 Sr1 2.648625 1_655
