# generated using pymatgen
data_K2CoH12(SeO7)2
_symmetry_space_group_name_H-M   'P 1'
_cell_length_a   12.83316100
_cell_length_b   7.30565800
_cell_length_c   9.68438249
_cell_angle_alpha   70.47743699
_cell_angle_beta   90.00000000
_cell_angle_gamma   90.00000000
_symmetry_Int_Tables_number   1
_chemical_formula_structural   K2CoH12(SeO7)2
_chemical_formula_sum   'K4 Co2 H24 Se4 O28'
_cell_volume   855.75779715
_cell_formula_units_Z   2
loop_
 _symmetry_equiv_pos_site_id
 _symmetry_equiv_pos_as_xyz
  1  'x, y, z'
loop_
 _atom_site_type_symbol
 _atom_site_label
 _atom_site_symmetry_multiplicity
 _atom_site_fract_x
 _atom_site_fract_y
 _atom_site_fract_z
 _atom_site_occupancy
  K  K0  1  0.19040300  0.63451200  0.62804400  1
  K  K1  1  0.69040300  0.36548800  0.87195600  1
  K  K2  1  0.80959700  0.36548800  0.37195600  1
  K  K3  1  0.30959700  0.63451200  0.12804400  1
  Co  Co0  1  0.50000000  0.00000000  0.50000000  1
  Co  Co1  1  0.00000000  0.00000000  0.00000000  1
  H  H0  1  0.51647400  0.19726600  0.71661900  1
  H  H1  1  0.01647400  0.80273400  0.78338100  1
  H  H2  1  0.48352600  0.80273400  0.28338100  1
  H  H3  1  0.98352600  0.19726600  0.21661900  1
  H  H4  1  0.29019200  0.99713500  0.77814300  1
  H  H5  1  0.79019200  0.00286500  0.72185700  1
  H  H6  1  0.70980800  0.00286500  0.22185700  1
  H  H7  1  0.20980800  0.99713500  0.27814300  1
  H  H8  1  0.42485900  0.17475100  0.20554900  1
  H  H9  1  0.92485900  0.82524900  0.29445100  1
  H  H10  1  0.57514100  0.82524900  0.79445100  1
  H  H11  1  0.07514100  0.17475100  0.70554900  1
  H  H12  1  0.31169300  0.93216600  0.36563800  1
  H  H13  1  0.81169300  0.06783400  0.13436200  1
  H  H14  1  0.68830700  0.06783400  0.63436200  1
  H  H15  1  0.18830700  0.93216600  0.86563800  1
  H  H16  1  0.50579000  0.58008700  0.31654100  1
  H  H17  1  0.00579000  0.41991300  0.18345900  1
  H  H18  1  0.49421000  0.41991300  0.68345900  1
  H  H19  1  0.99421000  0.58008700  0.81654100  1
  H  H20  1  0.65157700  0.77457700  0.46541700  1
  H  H21  1  0.15157700  0.22542300  0.03458300  1
  H  H22  1  0.34842300  0.22542300  0.53458300  1
  H  H23  1  0.84842300  0.77457700  0.96541700  1
  Se  Se0  1  0.33360900  0.25144100  0.97876200  1
  Se  Se1  1  0.83360900  0.74855900  0.52123800  1
  Se  Se2  1  0.66639100  0.74855900  0.02123800  1
  Se  Se3  1  0.16639100  0.25144100  0.47876200  1
  O  O0  1  0.30085700  0.47566200  0.87945700  1
  O  O1  1  0.80085700  0.52433800  0.62054300  1
  O  O2  1  0.69914300  0.52433800  0.12054300  1
  O  O3  1  0.19914300  0.47566200  0.37945700  1
  O  O4  1  0.41061400  0.30023800  0.11671100  1
  O  O5  1  0.91061400  0.69976200  0.38328900  1
  O  O6  1  0.58938600  0.69976200  0.88328900  1
  O  O7  1  0.08938600  0.30023800  0.61671100  1
  O  O8  1  0.50275300  0.29699300  0.76413900  1
  O  O9  1  0.00275300  0.70300700  0.73586100  1
  O  O10  1  0.49724700  0.70300700  0.23586100  1
  O  O11  1  0.99724700  0.29699300  0.26413900  1
  O  O12  1  0.26503500  0.91112100  0.87434300  1
  O  O13  1  0.76503500  0.08887900  0.62565700  1
  O  O14  1  0.73496500  0.08887900  0.12565700  1
  O  O15  1  0.23496500  0.91112100  0.37434300  1
  O  O16  1  0.28370500  0.17839100  0.59649600  1
  O  O17  1  0.78370500  0.82160900  0.90350400  1
  O  O18  1  0.71629500  0.82160900  0.40350400  1
  O  O19  1  0.21629500  0.17839100  0.09649600  1
  O  O20  1  0.44094900  0.98968100  0.33676600  1
  O  O21  1  0.94094900  0.01031900  0.16323400  1
  O  O22  1  0.55905100  0.01031900  0.66323400  1
  O  O23  1  0.05905100  0.98968100  0.83676600  1
  O  O24  1  0.53482400  0.75796700  0.54464500  1
  O  O25  1  0.03482400  0.24203300  0.95535500  1
  O  O26  1  0.46517600  0.24203300  0.45535500  1
  O  O27  1  0.96517600  0.75796700  0.04464500  1
loop_
_geom_bond_atom_site_label_1
_geom_bond_atom_site_label_2
_geom_bond_distance
_geom_bond_site_symmetry_2
K0 O15 2.669993 1_555
K0 O0 2.719497 1_555
K0 O9 2.736602 1_555
K0 O7 2.799208 1_555
K0 O3 3.003704 1_555
K1 O14 2.669993 1_556
K1 O1 2.719497 1_555
K1 O8 2.736602 1_555
K1 O6 2.799208 1_555
K1 O2 3.003704 1_556
K2 O13 2.669993 1_555
K2 O2 2.719497 1_555
K2 O11 2.736602 1_555
K2 O5 2.799208 1_555
K2 O1 3.003704 1_555
K3 O12 2.669993 1_554
K3 O3 2.719497 1_555
K3 O10 2.736602 1_555
K3 O4 2.799208 1_555
K3 O0 3.003704 1_554
Co0 O26 1.732704 1_555
Co0 O24 1.732704 1_545
Co0 O22 1.777246 1_555
Co0 O20 1.777246 1_545
Co1 O25 1.732704 1_554
Co1 O27 1.732704 1_445
Co1 O23 1.777246 1_544
Co1 O21 1.777246 1_455
H0 O8 0.998850 1_555
H0 O22 1.703848 1_555
H1 O9 0.998850 1_555
H1 O23 1.703848 1_555
H2 O10 0.998850 1_555
H2 O20 1.703848 1_555
H3 O11 0.998850 1_555
H3 O21 1.703848 1_555
H4 O12 0.987812 1_555
H5 O13 0.987812 1_555
H6 O14 0.987812 1_555
H7 O15 0.987812 1_555
H8 O4 1.042550 1_555
H8 O20 1.528787 1_545
H9 O5 1.042550 1_555
H9 O21 1.528787 1_565
H10 O6 1.042550 1_555
H10 O22 1.528787 1_565
H11 O7 1.042550 1_555
H11 O23 1.528787 1_545
H12 O15 0.995813 1_555
H12 O20 1.711055 1_555
H13 O14 0.995813 1_555
H13 O21 1.711055 1_555
H14 O13 0.995813 1_555
H14 O22 1.711055 1_555
H15 O12 0.995813 1_555
H15 O23 1.711055 1_555
H16 O10 0.979785 1_555
H17 O11 0.979785 1_455
H18 O8 0.979785 1_555
H19 O9 0.979785 1_655
H20 O18 1.014724 1_555
H20 O24 1.669173 1_555
H21 O19 1.014724 1_555
H21 O25 1.669173 1_554
H22 O16 1.014724 1_555
H22 O26 1.669173 1_555
H23 O17 1.014724 1_555
H23 O27 1.669173 1_556
O0 Se0 1.652863 1_555
O1 Se1 1.652863 1_555
O2 Se2 1.652863 1_555
O3 Se3 1.652863 1_555
O4 Se0 1.790737 1_554
O5 Se1 1.790737 1_555
O6 Se2 1.790737 1_556
O7 Se3 1.790737 1_555
O16 Se3 1.855989 1_555
O17 Se2 1.855989 1_556
O18 Se1 1.855989 1_555
O19 Se0 1.855989 1_554
