# generated using pymatgen
data_EuSi2PdAu
_symmetry_space_group_name_H-M   'P 1'
_cell_length_a   5.90022102
_cell_length_b   5.90022102
_cell_length_c   5.90022102
_cell_angle_alpha   136.72047149
_cell_angle_beta   136.72047149
_cell_angle_gamma   62.86841999
_symmetry_Int_Tables_number   1
_chemical_formula_structural   EuSi2PdAu
_chemical_formula_sum   'Eu1 Si2 Pd1 Au1'
_cell_volume   95.33368545
_cell_formula_units_Z   1
loop_
 _symmetry_equiv_pos_site_id
 _symmetry_equiv_pos_as_xyz
  1  'x, y, z'
loop_
 _atom_site_type_symbol
 _atom_site_label
 _atom_site_symmetry_multiplicity
 _atom_site_fract_x
 _atom_site_fract_y
 _atom_site_fract_z
 _atom_site_occupancy
  Eu  Eu0  1  0.00000000  0.00000000  0.00000000  1
  Si  Si0  1  0.61815900  0.61815900  0.00000000  1
  Si  Si1  1  0.38184100  0.38184100  0.00000000  1
  Pd  Pd0  1  0.75000000  0.25000000  0.50000000  1
  Au  Au0  1  0.25000000  0.75000000  0.50000000  1
loop_
_geom_bond_atom_site_label_1
_geom_bond_atom_site_label_2
_geom_bond_distance
_geom_bond_site_symmetry_2
Eu0 Si0 3.299059 1_545
Eu0 Si1 3.299059 1_545
Eu0 Si1 3.299059 1_556
Eu0 Si0 3.299059 1_556
Eu0 Si1 3.299059 1_455
Eu0 Si0 3.299059 1_444
Eu0 Si0 3.299059 1_455
Eu0 Si1 3.299059 1_444
Eu0 Pd0 3.327199 1_455
Eu0 Pd0 3.327199 1_454
Eu0 Pd0 3.327199 1_444
Eu0 Pd0 3.327199 1_555
Si0 Si1 2.379392 1_555
Pd0 Si0 2.548792 1_545
Pd0 Si1 2.548792 1_555
Pd0 Si0 2.548792 1_556
Pd0 Si1 2.548792 1_656
Au0 Si0 2.548792 1_556
Au0 Si0 2.548792 1_455
Au0 Si1 2.548792 1_555
Au0 Si1 2.548792 1_566
Au0 Pd0 3.077078 1_566
Au0 Pd0 3.077078 1_465
Au0 Pd0 3.077078 1_555
Au0 Pd0 3.077078 1_454
Au0 Eu0 3.327199 1_565
Au0 Eu0 3.327199 1_555
Au0 Eu0 3.327199 1_566
Au0 Eu0 3.327199 1_666
