# generated using pymatgen
data_Li2HgO2
_symmetry_space_group_name_H-M   'P 1'
_cell_length_a   3.02498286
_cell_length_b   3.02498254
_cell_length_c   6.65708584
_cell_angle_alpha   103.12198697
_cell_angle_beta   103.12200056
_cell_angle_gamma   90.05651457
_symmetry_Int_Tables_number   1
_chemical_formula_structural   Li2HgO2
_chemical_formula_sum   'Li2 Hg1 O2'
_cell_volume   57.68750320
_cell_formula_units_Z   1
loop_
 _symmetry_equiv_pos_site_id
 _symmetry_equiv_pos_as_xyz
  1  'x, y, z'
loop_
 _atom_site_type_symbol
 _atom_site_label
 _atom_site_symmetry_multiplicity
 _atom_site_fract_x
 _atom_site_fract_y
 _atom_site_fract_z
 _atom_site_occupancy
  Li  Li0  1  0.31057393  0.31057394  0.62251253  1
  Li  Li1  1  0.68942593  0.68942601  0.37748739  1
  Hg  Hg0  1  0.00000032  0.00000001  -0.00000003  1
  O  O0  1  0.15874812  0.15874841  0.31740765  1
  O  O1  1  0.84125171  0.84125163  0.68259246  1
loop_
_geom_bond_atom_site_label_1
_geom_bond_atom_site_label_2
_geom_bond_distance
_geom_bond_site_symmetry_2
Li0 O0 1.923472 1_555
Li0 O1 2.168565 1_445
Li0 O1 2.173302 1_455
Li0 O1 2.173302 1_545
Li0 O1 2.173880 1_555
Li1 O1 1.923474 1_555
Li1 O0 2.168564 1_665
Li1 O0 2.173301 1_655
Li1 O0 2.173302 1_565
Li1 O0 2.173881 1_555
Hg0 O1 2.001029 1_444
Hg0 O0 2.001030 1_555
