# generated using pymatgen
data_Mg6ZrFe
_symmetry_space_group_name_H-M   'P 1'
_cell_length_a   4.86987500
_cell_length_b   6.14159700
_cell_length_c   11.14852800
_cell_angle_alpha   90.00000000
_cell_angle_beta   90.00000000
_cell_angle_gamma   90.00000000
_symmetry_Int_Tables_number   1
_chemical_formula_structural   Mg6ZrFe
_chemical_formula_sum   'Mg12 Zr2 Fe2'
_cell_volume   333.43920228
_cell_formula_units_Z   2
loop_
 _symmetry_equiv_pos_site_id
 _symmetry_equiv_pos_as_xyz
  1  'x, y, z'
loop_
 _atom_site_type_symbol
 _atom_site_label
 _atom_site_symmetry_multiplicity
 _atom_site_fract_x
 _atom_site_fract_y
 _atom_site_fract_z
 _atom_site_occupancy
  Mg  Mg0  1  0.00000000  0.25825600  0.07507400  1
  Mg  Mg1  1  0.00000000  0.74174400  0.07507400  1
  Mg  Mg2  1  0.00000000  0.00000000  0.33291900  1
  Mg  Mg3  1  0.50000000  0.74447100  0.42114100  1
  Mg  Mg4  1  0.50000000  0.25552900  0.42114100  1
  Mg  Mg5  1  0.50000000  0.00000000  0.17251200  1
  Mg  Mg6  1  0.00000000  0.75825600  0.57507400  1
  Mg  Mg7  1  0.00000000  0.24174400  0.57507400  1
  Mg  Mg8  1  0.00000000  0.50000000  0.83291900  1
  Mg  Mg9  1  0.50000000  0.24447100  0.92114100  1
  Mg  Mg10  1  0.50000000  0.75552900  0.92114100  1
  Mg  Mg11  1  0.50000000  0.50000000  0.67251200  1
  Zr  Zr0  1  0.00000000  0.50000000  0.31083500  1
  Zr  Zr1  1  0.00000000  0.00000000  0.81083500  1
  Fe  Fe0  1  0.50000000  0.50000000  0.19130400  1
  Fe  Fe1  1  0.50000000  0.00000000  0.69130400  1
loop_
_geom_bond_atom_site_label_1
_geom_bond_atom_site_label_2
_geom_bond_distance
_geom_bond_site_symmetry_2
Mg0 Mg1 2.969388 1_555
Mg0 Mg9 2.980131 1_554
Mg0 Mg9 2.980131 1_454
Mg0 Zr0 3.018732 1_555
Mg0 Mg8 3.080997 1_554
Mg0 Mg5 3.102366 1_455
Mg0 Mg5 3.102366 1_555
Mg0 Mg1 3.172209 1_545
Mg0 Mg2 3.283140 1_555
Mg0 Zr1 3.345730 1_554
Mg1 Mg10 2.980131 1_554
Mg1 Mg10 2.980131 1_454
Mg1 Zr0 3.018732 1_555
Mg1 Mg8 3.080997 1_554
Mg1 Mg5 3.102366 1_565
Mg1 Mg5 3.102366 1_465
Mg1 Mg2 3.283140 1_565
Mg1 Zr1 3.345730 1_564
Mg2 Mg5 3.021083 1_555
Mg2 Mg5 3.021083 1_455
Mg2 Mg3 3.059275 1_545
Mg2 Mg3 3.059275 1_445
Mg2 Mg4 3.059275 1_555
Mg2 Mg4 3.059275 1_455
Mg2 Zr0 3.080653 1_545
Mg2 Zr0 3.080653 1_555
Mg2 Mg7 3.080997 1_555
Mg2 Mg6 3.080997 1_545
Mg3 Mg6 2.980131 1_555
Mg3 Mg6 2.980131 1_655
Mg3 Mg4 3.002885 1_555
Mg3 Zr0 3.113765 1_655
Mg3 Zr0 3.113765 1_555
Mg3 Mg4 3.138712 1_565
Mg3 Mg5 3.185281 1_565
Mg4 Mg7 2.980131 1_555
Mg4 Mg7 2.980131 1_655
Mg4 Zr0 3.113765 1_655
Mg4 Zr0 3.113765 1_555
Mg4 Mg5 3.185281 1_555
Mg5 Mg9 3.179287 1_554
Mg6 Mg7 2.969388 1_565
Mg6 Zr1 3.018732 1_565
Mg6 Mg7 3.172209 1_555
Mg6 Mg8 3.283140 1_555
Mg6 Zr0 3.345730 1_555
Mg7 Zr1 3.018732 1_555
Mg7 Mg8 3.283140 1_555
Mg7 Zr0 3.345730 1_555
Mg8 Mg9 3.059275 1_555
Mg8 Mg9 3.059275 1_455
Mg8 Zr1 3.080653 1_565
Mg8 Zr1 3.080653 1_555
Mg9 Zr1 3.113765 1_655
Mg9 Zr1 3.113765 1_555
Mg10 Mg9 3.002885 1_565
Mg10 Mg8 3.059275 1_655
Mg10 Mg8 3.059275 1_555
Mg10 Zr1 3.113765 1_565
Mg10 Zr1 3.113765 1_665
Mg10 Mg9 3.138712 1_555
Mg10 Mg5 3.179287 1_566
Mg10 Mg11 3.185281 1_555
Mg11 Mg8 3.021083 1_655
Mg11 Mg8 3.021083 1_555
Mg11 Mg6 3.102366 1_655
Mg11 Mg6 3.102366 1_555
Mg11 Mg7 3.102366 1_555
Mg11 Mg7 3.102366 1_655
Mg11 Mg3 3.179287 1_555
Mg11 Mg4 3.179287 1_555
Mg11 Mg9 3.185281 1_555
Fe0 Zr0 2.775739 1_555
Fe0 Zr0 2.775739 1_655
Fe0 Mg3 2.969838 1_555
Fe0 Mg4 2.969838 1_555
Fe0 Mg5 3.077937 1_565
Fe0 Mg5 3.077937 1_555
Fe0 Mg1 3.132462 1_655
Fe0 Mg1 3.132462 1_555
Fe0 Mg0 3.132462 1_555
Fe0 Mg0 3.132462 1_655
Fe0 Mg9 3.396254 1_554
Fe0 Mg10 3.396254 1_554
Fe1 Zr1 2.775739 1_555
Fe1 Zr1 2.775739 1_655
Fe1 Mg9 2.969838 1_555
Fe1 Mg10 2.969838 1_545
Fe1 Mg11 3.077937 1_555
Fe1 Mg11 3.077937 1_545
Fe1 Mg7 3.132462 1_655
Fe1 Mg7 3.132462 1_555
Fe1 Mg6 3.132462 1_545
Fe1 Mg6 3.132462 1_645
Fe1 Mg3 3.396254 1_545
Fe1 Mg4 3.396254 1_555
