# generated using pymatgen
data_Li4MnCo2O7
_symmetry_space_group_name_H-M   'P 1'
_cell_length_a   2.98570039
_cell_length_b   2.98570039
_cell_length_c   34.57706200
_cell_angle_alpha   86.85690491
_cell_angle_beta   86.85690491
_cell_angle_gamma   57.59627137
_symmetry_Int_Tables_number   1
_chemical_formula_structural   Li4MnCo2O7
_chemical_formula_sum   'Li8 Mn2 Co4 O14'
_cell_volume   259.72993423
_cell_formula_units_Z   2
loop_
 _symmetry_equiv_pos_site_id
 _symmetry_equiv_pos_as_xyz
  1  'x, y, z'
loop_
 _atom_site_type_symbol
 _atom_site_label
 _atom_site_symmetry_multiplicity
 _atom_site_fract_x
 _atom_site_fract_y
 _atom_site_fract_z
 _atom_site_occupancy
  Li  Li0  1  0.71414000  0.71414000  0.92892000  1
  Li  Li1  1  0.14593700  0.14593700  0.78379300  1
  Li  Li2  1  0.57830700  0.57830700  0.64168300  1
  Li  Li3  1  0.99216600  0.99216600  0.50055900  1
  Li  Li4  1  0.42985100  0.42985100  0.35685000  1
  Li  Li5  1  0.85628500  0.85628500  0.21450000  1
  Li  Li6  1  0.28014600  0.28014600  0.07346200  1
  Li  Li7  1  0.28566300  0.28566300  0.57148800  1
  Mn  Mn0  1  0.99718800  0.99718800  0.00086000  1
  Mn  Mn1  1  0.42939800  0.42939800  0.85667700  1
  Co  Co0  1  0.86076700  0.86076700  0.71503600  1
  Co  Co1  1  0.71423600  0.71423600  0.42736300  1
  Co  Co2  1  0.14364900  0.14364900  0.28519200  1
  Co  Co3  1  0.57061400  0.57061400  0.14333300  1
  O  O0  1  0.38008100  0.38008100  0.96729900  1
  O  O1  1  0.81002500  0.81002500  0.82330200  1
  O  O2  1  0.22477100  0.22477100  0.68555900  1
  O  O3  1  0.64509200  0.64509200  0.53425900  1
  O  O4  1  0.07139700  0.07139700  0.39491500  1
  O  O5  1  0.49897900  0.49897900  0.25321500  1
  O  O6  1  0.92210100  0.92210100  0.10993000  1
  O  O7  1  0.04798600  0.04798600  0.89014600  1
  O  O8  1  0.48751000  0.48751000  0.74672700  1
  O  O9  1  0.92640800  0.92640800  0.60918900  1
  O  O10  1  0.36039100  0.36039100  0.45857500  1
  O  O11  1  0.78908000  0.78908000  0.31746200  1
  O  O12  1  0.22060000  0.22060000  0.17589000  1
  O  O13  1  0.61723000  0.61723000  0.03381700  1
loop_
_geom_bond_atom_site_label_1
_geom_bond_atom_site_label_2
_geom_bond_distance
_geom_bond_site_symmetry_2
Li0 O0 2.127567 1_555
Li0 O7 2.134545 1_665
Li0 O0 2.174376 1_565
Li0 O0 2.174376 1_655
Li0 O7 2.183565 1_655
Li0 O7 2.183565 1_565
Li1 O8 2.128732 1_545
Li1 O8 2.128732 1_455
Li1 O8 2.133248 1_555
Li1 O1 2.157674 1_445
Li1 O1 2.195218 1_545
Li1 O1 2.195218 1_455
Li2 O9 2.018563 1_545
Li2 O9 2.018563 1_455
Li2 O9 2.079510 1_555
Li2 O2 2.259023 1_565
Li2 O2 2.259023 1_655
Li2 O2 2.317956 1_555
Li3 O3 2.045372 1_565
Li3 O3 2.045372 1_655
Li3 O3 2.095598 1_555
Li3 O10 2.185592 1_655
Li3 O10 2.185592 1_565
Li3 O10 2.338845 1_665
Li4 O4 2.114617 1_655
Li4 O4 2.114617 1_565
Li4 O11 2.142819 1_545
Li4 O11 2.142819 1_455
Li4 O4 2.223015 1_555
Li4 O11 2.251246 1_555
Li5 O12 2.115111 1_655
Li5 O12 2.115111 1_565
Li5 O5 2.131501 1_655
Li5 O5 2.131501 1_565
Li5 O5 2.230402 1_555
Li5 O12 2.257921 1_665
Li6 O6 2.080311 1_455
Li6 O6 2.080311 1_545
Li6 O13 2.165165 1_555
Li6 O6 2.191977 1_445
Li6 O13 2.195634 1_545
Li6 O13 2.195634 1_455
Li7 O3 2.094115 1_545
Li7 O3 2.094115 1_455
Li7 O9 2.104897 1_455
Li7 O9 2.104897 1_545
Li7 O3 2.211712 1_555
Li7 O9 2.219648 1_445
Mn0 O13 1.962505 1_655
Mn0 O13 1.962505 1_565
Mn0 O0 1.969724 1_654
Mn0 O0 1.969724 1_564
Mn0 O13 2.228965 1_555
Mn0 O0 2.251711 1_664
Mn1 O1 1.969979 1_455
Mn1 O1 1.969979 1_545
Mn1 O7 1.970501 1_655
Mn1 O7 1.970501 1_565
Mn1 O1 2.238586 1_555
Mn1 O7 2.243603 1_555
Co0 O2 1.924761 1_565
Co0 O2 1.924761 1_655
Co0 O8 1.949416 1_655
Co0 O8 1.949416 1_565
Co0 O2 2.103353 1_665
Co0 O8 2.178973 1_555
Co1 O10 1.980304 1_655
Co1 O10 1.980304 1_565
Co1 O4 1.997771 1_565
Co1 O4 1.997771 1_655
Co1 O10 2.084027 1_555
Co1 O4 2.118836 1_665
Co2 O5 1.992242 1_455
Co2 O5 1.992242 1_545
Co2 O11 1.999774 1_545
Co2 O11 1.999774 1_455
Co2 O5 2.102997 1_555
Co2 O11 2.104402 1_445
Co3 O12 2.015562 1_565
Co3 O12 2.015562 1_655
Co3 O6 2.029514 1_455
Co3 O6 2.029514 1_545
Co3 O12 2.089001 1_555
Co3 O6 2.109767 1_555
