# generated using pymatgen
data_Sm4CrFe33
_symmetry_space_group_name_H-M   'P 1'
_cell_length_a   6.44177334
_cell_length_b   6.44177334
_cell_length_c   12.86416767
_cell_angle_alpha   82.85627065
_cell_angle_beta   82.85627065
_cell_angle_gamma   82.98641111
_symmetry_Int_Tables_number   1
_chemical_formula_structural   Sm4CrFe33
_chemical_formula_sum   'Sm4 Cr1 Fe33'
_cell_volume   522.46960385
_cell_formula_units_Z   1
loop_
 _symmetry_equiv_pos_site_id
 _symmetry_equiv_pos_as_xyz
  1  'x, y, z'
loop_
 _atom_site_type_symbol
 _atom_site_label
 _atom_site_symmetry_multiplicity
 _atom_site_fract_x
 _atom_site_fract_y
 _atom_site_fract_z
 _atom_site_occupancy
  Sm  Sm0  1  0.65522400  0.65522400  0.32752800  1
  Sm  Sm1  1  0.65994400  0.65994400  0.83003200  1
  Sm  Sm2  1  0.34087600  0.34087600  0.17074800  1
  Sm  Sm3  1  0.34042400  0.34042400  0.66985500  1
  Cr  Cr0  1  0.90844400  0.90844400  0.45414400  1
  Fe  Fe0  1  0.29208000  0.70799100  0.00016300  1
  Fe  Fe1  1  0.29506500  0.70605700  0.50011000  1
  Fe  Fe2  1  0.70804800  0.99957300  0.14616100  1
  Fe  Fe3  1  0.70704600  0.00060500  0.64717100  1
  Fe  Fe4  1  0.00085000  0.29421600  0.35360800  1
  Fe  Fe5  1  0.99973600  0.29224800  0.85361400  1
  Fe  Fe6  1  0.29421600  0.00085000  0.35360800  1
  Fe  Fe7  1  0.29224800  0.99973600  0.85361400  1
  Fe  Fe8  1  0.99957300  0.70804800  0.14616100  1
  Fe  Fe9  1  0.00060500  0.70704600  0.64717100  1
  Fe  Fe10  1  0.70799100  0.29208000  0.00016300  1
  Fe  Fe11  1  0.70605700  0.29506500  0.50011000  1
  Fe  Fe12  1  0.99849400  0.99849400  0.25088400  1
  Fe  Fe13  1  0.00007600  0.00007600  0.74986300  1
  Fe  Fe14  1  0.99857700  0.50151800  0.49919800  1
  Fe  Fe15  1  0.00000600  0.49998300  0.00018900  1
  Fe  Fe16  1  0.49998300  0.00000600  0.00018900  1
  Fe  Fe17  1  0.50151800  0.99857700  0.49919800  1
  Fe  Fe18  1  0.84386200  0.34060400  0.17174800  1
  Fe  Fe19  1  0.84426600  0.34308100  0.67001300  1
  Fe  Fe20  1  0.34142600  0.34142600  0.42189000  1
  Fe  Fe21  1  0.34209600  0.34209600  0.92206000  1
  Fe  Fe22  1  0.34060400  0.84386200  0.17174800  1
  Fe  Fe23  1  0.34308100  0.84426600  0.67001300  1
  Fe  Fe24  1  0.15547900  0.65831400  0.32933600  1
  Fe  Fe25  1  0.15625400  0.65824100  0.82874000  1
  Fe  Fe26  1  0.65780200  0.65780200  0.07814600  1
  Fe  Fe27  1  0.65864500  0.65864500  0.57811300  1
  Fe  Fe28  1  0.65831400  0.15547900  0.32933600  1
  Fe  Fe29  1  0.65824100  0.15625400  0.82874000  1
  Fe  Fe30  1  0.90399700  0.90399700  0.95205000  1
  Fe  Fe31  1  0.09605300  0.09605300  0.04785900  1
  Fe  Fe32  1  0.09280100  0.09280100  0.54672900  1
loop_
_geom_bond_atom_site_label_1
_geom_bond_atom_site_label_2
_geom_bond_distance
_geom_bond_site_symmetry_2
Cr0 Fe32 2.299411 1_665
Cr0 Fe12 2.614898 1_555
Cr0 Fe17 2.622693 1_555
Cr0 Fe14 2.622693 1_555
Cr0 Fe27 2.660413 1_555
Cr0 Fe24 2.662363 1_655
Cr0 Fe28 2.662363 1_565
Cr0 Fe6 2.751889 1_665
Cr0 Fe4 2.751889 1_665
Cr0 Fe9 2.752972 1_655
Cr0 Fe3 2.752972 1_565
Cr0 Fe1 2.762912 1_655
Cr0 Fe11 2.762912 1_565
Cr0 Sm0 3.153723 1_555
Fe0 Fe16 2.438779 1_565
Fe0 Fe15 2.439423 1_555
Fe0 Fe8 2.489514 1_455
Fe0 Fe7 2.490954 1_554
Fe0 Fe22 2.540641 1_555
Fe0 Fe25 2.540744 1_554
Fe0 Fe26 2.642406 1_555
Fe0 Fe21 2.644207 1_554
Fe0 Fe31 2.763687 1_565
Fe0 Fe30 2.765257 1_454
Fe0 Sm1 3.033256 1_554
Fe0 Sm2 3.034181 1_555
Fe1 Fe17 2.433561 1_555
Fe1 Fe14 2.451104 1_455
Fe1 Fe6 2.503578 1_565
Fe1 Fe9 2.506903 1_555
Fe1 Fe23 2.526819 1_555
Fe1 Fe24 2.540910 1_555
Fe1 Fe27 2.630442 1_555
Fe1 Fe20 2.638312 1_555
Fe1 Fe32 2.765595 1_565
Fe1 Sm3 3.018708 1_555
Fe1 Sm0 3.022094 1_555
Fe2 Fe8 2.488385 1_555
Fe2 Fe26 2.537908 1_555
Fe2 Fe28 2.643130 1_565
Fe2 Fe22 2.649721 1_555
Fe2 Fe30 2.759781 1_554
Fe2 Fe31 2.762312 1_665
Fe2 Sm0 3.029763 1_555
Fe2 Sm2 3.040588 1_565
Fe3 Fe9 2.505747 1_645
Fe3 Fe32 2.751032 1_655
Fe3 Sm1 3.023650 1_545
Fe3 Sm3 3.029784 1_555
Fe4 Fe6 2.504099 1_555
Fe4 Sm2 3.020759 1_555
Fe4 Sm0 3.033975 1_455
Fe5 Fe7 2.496810 1_645
Fe5 Sm3 3.032215 1_655
Fe5 Sm1 3.035424 1_555
Fe6 Sm2 3.020759 1_555
Fe6 Sm0 3.033975 1_545
Fe7 Sm3 3.032215 1_565
Fe7 Sm1 3.035424 1_555
Fe8 Sm0 3.029763 1_555
Fe8 Sm2 3.040588 1_655
Fe9 Sm1 3.023650 1_455
Fe9 Sm3 3.029784 1_555
Fe10 Fe15 2.438779 1_655
Fe10 Fe16 2.439423 1_555
Fe10 Fe2 2.489514 1_545
Fe10 Fe5 2.490954 1_554
Fe10 Fe18 2.540641 1_555
Fe10 Fe29 2.540744 1_554
Fe10 Fe26 2.642406 1_555
Fe10 Fe21 2.644207 1_554
Fe10 Fe31 2.763687 1_655
Fe10 Fe30 2.765257 1_544
Fe10 Sm1 3.033256 1_554
Fe10 Sm2 3.034181 1_555
Fe11 Fe14 2.433561 1_555
Fe11 Fe17 2.451104 1_545
Fe11 Fe4 2.503578 1_655
Fe11 Fe3 2.506903 1_555
Fe11 Fe19 2.526819 1_555
Fe11 Fe28 2.540910 1_555
Fe11 Fe27 2.630442 1_555
Fe11 Fe20 2.638312 1_555
Fe11 Fe32 2.765595 1_655
Fe11 Sm3 3.018708 1_555
Fe11 Sm0 3.022094 1_555
Fe12 Fe8 2.436579 1_555
Fe12 Fe2 2.436579 1_555
Fe12 Fe24 2.450683 1_655
Fe12 Fe28 2.450683 1_565
Fe12 Fe6 2.452257 1_665
Fe12 Fe4 2.452257 1_665
Fe12 Fe22 2.458337 1_655
Fe12 Fe18 2.458337 1_565
Fe12 Fe31 2.625093 1_665
Fe12 Sm2 3.293712 1_665
Fe12 Sm0 3.295621 1_555
Fe13 Fe9 2.434309 1_545
Fe13 Fe3 2.434309 1_455
Fe13 Fe5 2.438589 1_455
Fe13 Fe7 2.438589 1_545
Fe13 Fe29 2.459232 1_455
Fe13 Fe25 2.459232 1_545
Fe13 Fe19 2.468813 1_455
Fe13 Fe23 2.468813 1_545
Fe13 Fe30 2.612266 1_445
Fe13 Fe32 2.617789 1_555
Fe13 Sm1 3.273129 1_445
Fe13 Sm3 3.274804 1_555
Fe14 Fe4 2.429337 1_655
Fe14 Fe24 2.442872 1_655
Fe14 Fe19 2.450508 1_555
Fe14 Fe27 2.451846 1_555
Fe14 Fe9 2.452303 1_655
Fe14 Fe20 2.466347 1_655
Fe14 Fe32 2.641190 1_655
Fe14 Sm3 3.289901 1_655
Fe14 Sm0 3.299339 1_555
Fe15 Fe8 2.438517 1_455
Fe15 Fe5 2.444391 1_454
Fe15 Fe26 2.460709 1_455
Fe15 Fe25 2.460901 1_554
Fe15 Fe21 2.461051 1_554
Fe15 Fe18 2.464347 1_455
Fe15 Fe31 2.614143 1_555
Fe15 Fe30 2.615468 1_454
Fe15 Sm1 3.276021 1_454
Fe15 Sm2 3.282603 1_555
Fe16 Fe2 2.438517 1_545
Fe16 Fe7 2.444391 1_544
Fe16 Fe26 2.460709 1_545
Fe16 Fe29 2.460901 1_554
Fe16 Fe21 2.461051 1_554
Fe16 Fe22 2.464347 1_545
Fe16 Fe31 2.614143 1_555
Fe16 Fe30 2.615468 1_544
Fe16 Sm1 3.276021 1_544
Fe16 Sm2 3.282603 1_555
Fe17 Fe6 2.429337 1_565
Fe17 Fe28 2.442872 1_565
Fe17 Fe23 2.450508 1_555
Fe17 Fe27 2.451846 1_555
Fe17 Fe3 2.452303 1_565
Fe17 Fe20 2.466347 1_565
Fe17 Fe32 2.641190 1_565
Fe17 Sm3 3.289901 1_565
Fe17 Sm0 3.299339 1_555
Fe18 Fe28 2.470752 1_555
Fe18 Fe26 2.492088 1_555
Fe18 Fe2 2.533915 1_545
Fe18 Fe4 2.631710 1_655
Fe18 Fe31 2.648842 1_655
Fe18 Fe8 2.649721 1_555
Fe18 Sm0 3.066460 1_555
Fe18 Sm2 3.200291 1_655
Fe18 Sm2 3.241532 1_555
Fe19 Fe27 2.473848 1_555
Fe19 Fe29 2.487195 1_555
Fe19 Fe3 2.537100 1_555
Fe19 Fe9 2.632362 1_655
Fe19 Fe5 2.646612 1_555
Fe19 Fe32 2.655534 1_655
Fe19 Sm1 3.107877 1_555
Fe19 Sm3 3.193842 1_655
Fe19 Sm3 3.248025 1_555
Fe20 Fe24 2.484446 1_555
Fe20 Fe28 2.484446 1_555
Fe20 Fe4 2.527053 1_555
Fe20 Fe6 2.527053 1_555
Fe20 Fe32 2.656353 1_555
Fe20 Sm0 3.069698 1_555
Fe20 Sm3 3.188272 1_555
Fe20 Sm2 3.231618 1_555
Fe21 Fe25 2.485114 1_555
Fe21 Fe29 2.485114 1_555
Fe21 Fe5 2.543314 1_455
Fe21 Fe7 2.543314 1_545
Fe21 Fe31 2.642089 1_556
Fe21 Sm1 3.099050 1_555
Fe21 Sm2 3.197231 1_556
Fe21 Sm3 3.247125 1_555
Fe22 Fe24 2.470752 1_555
Fe22 Fe26 2.492088 1_555
Fe22 Fe8 2.533915 1_455
Fe22 Fe6 2.631710 1_565
Fe22 Fe31 2.648842 1_565
Fe22 Sm0 3.066460 1_555
Fe22 Sm2 3.200291 1_565
Fe22 Sm2 3.241532 1_555
Fe23 Fe27 2.473848 1_555
Fe23 Fe25 2.487195 1_555
Fe23 Fe9 2.537100 1_555
Fe23 Fe3 2.632362 1_565
Fe23 Fe7 2.646612 1_555
Fe23 Fe32 2.655534 1_565
Fe23 Sm1 3.107877 1_555
Fe23 Sm3 3.193842 1_565
Fe23 Sm3 3.248025 1_555
Fe24 Fe6 2.547033 1_565
Fe24 Fe4 2.627125 1_555
Fe24 Fe8 2.643130 1_455
Fe24 Sm2 3.099193 1_555
Fe24 Sm0 3.214080 1_555
Fe24 Sm0 3.228011 1_455
Fe25 Fe7 2.534666 1_555
Fe25 Fe9 2.623485 1_555
Fe25 Fe5 2.643877 1_455
Fe25 Fe30 2.649211 1_455
Fe25 Sm3 3.101787 1_555
Fe25 Sm1 3.193777 1_455
Fe25 Sm1 3.248129 1_555
Fe26 Fe8 2.537908 1_555
Fe26 Fe30 2.645029 1_554
Fe26 Sm2 3.092434 1_555
Fe26 Sm1 3.188413 1_554
Fe26 Sm0 3.204055 1_555
Fe27 Fe3 2.542089 1_565
Fe27 Fe9 2.542089 1_655
Fe27 Sm3 3.101588 1_555
Fe27 Sm0 3.229213 1_555
Fe27 Sm1 3.242833 1_555
Fe28 Fe4 2.547033 1_655
Fe28 Fe6 2.627125 1_555
Fe28 Sm2 3.099193 1_555
Fe28 Sm0 3.214080 1_555
Fe28 Sm0 3.228011 1_545
Fe29 Fe5 2.534666 1_555
Fe29 Fe3 2.623485 1_555
Fe29 Fe7 2.643877 1_545
Fe29 Fe30 2.649211 1_545
Fe29 Sm3 3.101787 1_555
Fe29 Sm1 3.193777 1_545
Fe29 Sm1 3.248129 1_555
Fe30 Fe31 2.390103 1_666
Fe30 Fe8 2.759781 1_556
Fe30 Fe5 2.762921 1_565
Fe30 Fe7 2.762921 1_655
Fe30 Sm1 3.039435 1_555
Fe31 Fe8 2.762312 1_445
Fe31 Fe5 2.763133 1_454
Fe31 Fe7 2.763133 1_544
Fe31 Sm2 3.053061 1_555
Fe32 Fe9 2.751032 1_545
Fe32 Fe4 2.753696 1_555
Fe32 Fe6 2.753696 1_555
Fe32 Sm3 3.078285 1_555
