# generated using pymatgen
data_Ho2TeO2
_symmetry_space_group_name_H-M   'P 1'
_cell_length_a   6.77296989
_cell_length_b   6.77296989
_cell_length_c   6.77296989
_cell_angle_alpha   146.58911122
_cell_angle_beta   146.58911122
_cell_angle_gamma   47.97255778
_symmetry_Int_Tables_number   1
_chemical_formula_structural   Ho2TeO2
_chemical_formula_sum   'Ho2 Te1 O2'
_cell_volume   93.82166558
_cell_formula_units_Z   1
loop_
 _symmetry_equiv_pos_site_id
 _symmetry_equiv_pos_as_xyz
  1  'x, y, z'
loop_
 _atom_site_type_symbol
 _atom_site_label
 _atom_site_symmetry_multiplicity
 _atom_site_fract_x
 _atom_site_fract_y
 _atom_site_fract_z
 _atom_site_occupancy
  Ho  Ho0  1  0.33673415  0.33673415  -0.00000000  1
  Ho  Ho1  1  0.66326585  0.66326585  0.00000000  1
  Te  Te0  1  -0.00000000  0.00000000  0.00000000  1
  O  O0  1  0.75000000  0.25000000  0.50000000  1
  O  O1  1  0.25000000  0.75000000  0.50000000  1
loop_
_geom_bond_atom_site_label_1
_geom_bond_atom_site_label_2
_geom_bond_distance
_geom_bond_site_symmetry_2
Ho0 O1 2.223215 1_555
Ho0 O1 2.223215 1_544
Ho0 O0 2.223215 1_555
Ho0 O0 2.223215 1_454
Ho0 Te0 3.415213 1_666
Ho0 Te0 3.415213 1_565
Ho0 Te0 3.415213 1_655
Ho0 Te0 3.415213 1_554
Ho1 O0 2.223215 1_554
Ho1 O1 2.223215 1_554
Ho1 O0 2.223215 1_565
Ho1 O1 2.223215 1_655
Ho1 Te0 3.415213 1_565
Ho1 Te0 3.415213 1_554
Ho1 Te0 3.415213 1_655
Ho1 Te0 3.415213 1_666
