# generated using pymatgen
data_La5BPb3
_symmetry_space_group_name_H-M   'P 1'
_cell_length_a   9.77296169
_cell_length_b   9.77296169
_cell_length_c   6.84262700
_cell_angle_alpha   90.00000000
_cell_angle_beta   90.00000000
_cell_angle_gamma   119.99999788
_symmetry_Int_Tables_number   1
_chemical_formula_structural   La5BPb3
_chemical_formula_sum   'La10 B2 Pb6'
_cell_volume   565.98627533
_cell_formula_units_Z   2
loop_
 _symmetry_equiv_pos_site_id
 _symmetry_equiv_pos_as_xyz
  1  'x, y, z'
loop_
 _atom_site_type_symbol
 _atom_site_label
 _atom_site_symmetry_multiplicity
 _atom_site_fract_x
 _atom_site_fract_y
 _atom_site_fract_z
 _atom_site_occupancy
  La  La0  1  0.66666700  0.33333300  0.00000000  1
  La  La1  1  0.33333300  0.66666700  0.00000000  1
  La  La2  1  0.33333300  0.66666700  0.50000000  1
  La  La3  1  0.66666700  0.33333300  0.50000000  1
  La  La4  1  0.77452600  0.77452600  0.75000000  1
  La  La5  1  0.22547400  0.00000000  0.75000000  1
  La  La6  1  0.00000000  0.22547400  0.75000000  1
  La  La7  1  0.22547400  0.22547400  0.25000000  1
  La  La8  1  0.77452600  0.00000000  0.25000000  1
  La  La9  1  0.00000000  0.77452600  0.25000000  1
  B  B0  1  0.00000000  0.00000000  0.00000000  1
  B  B1  1  0.00000000  0.00000000  0.50000000  1
  Pb  Pb0  1  0.40595400  0.40595400  0.75000000  1
  Pb  Pb1  1  0.59404600  0.00000000  0.75000000  1
  Pb  Pb2  1  0.00000000  0.59404600  0.75000000  1
  Pb  Pb3  1  0.59404600  0.59404600  0.25000000  1
  Pb  Pb4  1  0.40595400  0.00000000  0.25000000  1
  Pb  Pb5  1  0.00000000  0.40595400  0.25000000  1
loop_
_geom_bond_atom_site_label_1
_geom_bond_atom_site_label_2
_geom_bond_distance
_geom_bond_site_symmetry_2
La0 Pb1 3.424954 1_554
La0 Pb5 3.424954 1_655
La0 Pb2 3.424957 1_654
La0 Pb4 3.424957 1_555
La0 Pb0 3.424963 1_554
La0 Pb3 3.424963 1_555
La1 Pb4 3.424954 1_565
La1 Pb2 3.424954 1_554
La1 Pb5 3.424957 1_555
La1 Pb1 3.424957 1_564
La1 Pb3 3.424963 1_555
La1 Pb0 3.424963 1_554
La2 Pb4 3.424954 1_565
La2 Pb2 3.424954 1_555
La2 Pb5 3.424957 1_555
La2 Pb1 3.424957 1_565
La2 Pb3 3.424963 1_555
La2 Pb0 3.424963 1_555
La3 Pb1 3.424954 1_555
La3 Pb5 3.424954 1_655
La3 Pb2 3.424957 1_655
La3 Pb4 3.424957 1_555
La3 Pb0 3.424963 1_555
La3 Pb3 3.424963 1_555
La4 Pb1 3.442873 1_565
La4 Pb2 3.442873 1_655
La4 Pb0 3.602040 1_555
La4 Pb3 3.849216 1_556
La4 Pb3 3.849216 1_555
La5 Pb0 3.442873 1_555
La5 Pb2 3.442873 1_545
La5 Pb1 3.602040 1_555
La5 Pb4 3.849216 1_555
La5 Pb4 3.849216 1_556
La6 Pb0 3.442873 1_555
La6 Pb1 3.442873 1_455
La6 Pb2 3.602040 1_555
La6 Pb5 3.849216 1_556
La6 Pb5 3.849216 1_555
La7 Pb4 3.442873 1_555
La7 Pb5 3.442873 1_555
La7 Pb3 3.602040 1_555
La7 Pb0 3.849216 1_554
La7 Pb0 3.849216 1_555
La8 Pb3 3.442873 1_545
La8 Pb5 3.442873 1_655
La8 Pb4 3.602040 1_555
La8 Pb1 3.849216 1_554
La8 Pb1 3.849216 1_555
La9 Pb3 3.442873 1_455
La9 Pb4 3.442873 1_565
La9 Pb5 3.602040 1_555
La9 Pb2 3.849216 1_555
La9 Pb2 3.849216 1_554
B0 La8 2.789619 1_455
B0 La9 2.789619 1_545
B0 La6 2.789619 1_554
B0 La5 2.789619 1_554
B0 La4 2.789619 1_444
B0 La7 2.789619 1_555
B1 La8 2.789619 1_455
B1 La9 2.789619 1_545
B1 La6 2.789619 1_555
B1 La5 2.789619 1_555
B1 La4 2.789619 1_445
B1 La7 2.789619 1_555
