# generated using pymatgen
data_Pr6Mn(GeS7)2
_symmetry_space_group_name_H-M   'P 1'
_cell_length_a   10.22824698
_cell_length_b   10.22824698
_cell_length_c   5.82673900
_cell_angle_alpha   90.00000000
_cell_angle_beta   90.00000000
_cell_angle_gamma   120.00000632
_symmetry_Int_Tables_number   1
_chemical_formula_structural   Pr6Mn(GeS7)2
_chemical_formula_sum   'Pr6 Mn1 Ge2 S14'
_cell_volume   527.90841082
_cell_formula_units_Z   1
loop_
 _symmetry_equiv_pos_site_id
 _symmetry_equiv_pos_as_xyz
  1  'x, y, z'
loop_
 _atom_site_type_symbol
 _atom_site_label
 _atom_site_symmetry_multiplicity
 _atom_site_fract_x
 _atom_site_fract_y
 _atom_site_fract_z
 _atom_site_occupancy
  Pr  Pr0  1  0.22901800  0.35445000  0.25306500  1
  Pr  Pr1  1  0.64555000  0.87456800  0.25306500  1
  Pr  Pr2  1  0.12543200  0.77098200  0.25306500  1
  Pr  Pr3  1  0.77122200  0.64682700  0.74669600  1
  Pr  Pr4  1  0.35317300  0.12439500  0.74669600  1
  Pr  Pr5  1  0.87560500  0.22877800  0.74669600  1
  Mn  Mn0  1  0.00000000  0.00000000  0.48222000  1
  Ge  Ge0  1  0.33333300  0.66666700  0.83020800  1
  Ge  Ge1  1  0.66666700  0.33333300  0.33245400  1
  S  S0  1  0.10421600  0.51747400  0.98267600  1
  S  S1  1  0.48252600  0.58674200  0.98267600  1
  S  S2  1  0.41325800  0.89578400  0.98267600  1
  S  S3  1  0.89504800  0.47985000  0.48612800  1
  S  S4  1  0.52015000  0.41519800  0.48612800  1
  S  S5  1  0.58480200  0.10495200  0.48612800  1
  S  S6  1  0.33333300  0.66666700  0.45384300  1
  S  S7  1  0.66666700  0.33333300  0.95650300  1
  S  S8  1  0.14988900  0.23409100  0.70978000  1
  S  S9  1  0.76590900  0.91579800  0.70978000  1
  S  S10  1  0.08420200  0.85011100  0.70978000  1
  S  S11  1  0.84646300  0.76537400  0.26255500  1
  S  S12  1  0.23462600  0.08108900  0.26255500  1
  S  S13  1  0.91891100  0.15353700  0.26255500  1
loop_
_geom_bond_atom_site_label_1
_geom_bond_atom_site_label_2
_geom_bond_distance
_geom_bond_site_symmetry_2
Pr0 S13 2.787213 1_455
Pr0 S12 2.825662 1_555
Pr0 S8 2.873320 1_555
Pr0 S1 2.947867 1_554
Pr0 S0 3.003418 1_554
Pr0 S4 3.040907 1_555
Pr0 S6 3.049225 1_555
Pr0 S8 3.345907 1_554
Pr1 S11 2.787213 1_555
Pr1 S13 2.825661 1_565
Pr1 S9 2.873320 1_555
Pr1 S2 2.947867 1_554
Pr1 S1 3.003418 1_554
Pr1 S5 3.040907 1_565
Pr1 S6 3.049223 1_555
Pr1 S9 3.345907 1_554
Pr2 S12 2.787213 1_565
Pr2 S11 2.825662 1_455
Pr2 S10 2.873320 1_555
Pr2 S0 2.947867 1_554
Pr2 S2 3.003418 1_554
Pr2 S3 3.040907 1_455
Pr2 S6 3.049216 1_555
Pr2 S10 3.345907 1_554
Pr3 S9 2.786985 1_555
Pr3 S10 2.821574 1_655
Pr3 S4 2.903227 1_555
Pr3 S3 2.998188 1_555
Pr3 S11 3.014494 1_555
Pr3 S1 3.028684 1_555
Pr3 S7 3.080692 1_555
Pr3 S11 3.188107 1_556
Pr4 S10 2.786985 1_545
Pr4 S8 2.821575 1_555
Pr4 S5 2.903227 1_555
Pr4 S4 2.998188 1_555
Pr4 S12 3.014494 1_555
Pr4 S2 3.028684 1_545
Pr4 S7 3.080690 1_555
Pr4 S12 3.188107 1_556
Pr5 S8 2.786985 1_655
Pr5 S9 2.821574 1_545
Pr5 S3 2.903227 1_555
Pr5 S5 2.998188 1_555
Pr5 S13 3.014494 1_555
Pr5 S0 3.028684 1_655
Pr5 S7 3.080683 1_555
Pr5 S13 3.188107 1_556
Mn0 S11 2.468770 1_445
Mn0 S12 2.468770 1_555
Mn0 S13 2.468770 1_455
Mn0 S8 2.484069 1_555
Mn0 S9 2.484069 1_445
Mn0 S10 2.484069 1_545
Ge0 S6 2.192981 1_555
Ge0 S2 2.243568 1_555
Ge0 S0 2.243569 1_555
Ge0 S1 2.243577 1_555
Ge1 S7 2.190568 1_554
Ge1 S5 2.236860 1_555
Ge1 S3 2.236862 1_555
Ge1 S4 2.236869 1_555
