# generated using pymatgen
data_U2(Al3Ir)3
_symmetry_space_group_name_H-M   'P 1'
_cell_length_a   7.56246800
_cell_length_b   7.56246800
_cell_length_c   9.37322814
_cell_angle_alpha   90.00000000
_cell_angle_beta   90.00000000
_cell_angle_gamma   119.23326470
_symmetry_Int_Tables_number   1
_chemical_formula_structural   U2(Al3Ir)3
_chemical_formula_sum   'U4 Al18 Ir6'
_cell_volume   467.78980454
_cell_formula_units_Z   2
loop_
 _symmetry_equiv_pos_site_id
 _symmetry_equiv_pos_as_xyz
  1  'x, y, z'
loop_
 _atom_site_type_symbol
 _atom_site_label
 _atom_site_symmetry_multiplicity
 _atom_site_fract_x
 _atom_site_fract_y
 _atom_site_fract_z
 _atom_site_occupancy
  U  U0  1  0.99313734  0.67027032  0.75000000  1
  U  U1  1  0.00686266  0.32972968  0.25000000  1
  U  U2  1  0.67027032  0.99313734  0.75000000  1
  U  U3  1  0.32972968  0.00686266  0.25000000  1
  Al  Al0  1  0.13226995  0.13226995  0.75000000  1
  Al  Al1  1  0.86773005  0.86773005  0.25000000  1
  Al  Al2  1  0.00355145  0.33626619  0.57339056  1
  Al  Al3  1  0.99644855  0.66373381  0.42660944  1
  Al  Al4  1  0.99644855  0.66373381  0.07339056  1
  Al  Al5  1  0.33626619  0.00355145  0.92660944  1
  Al  Al6  1  0.00355145  0.33626619  0.92660944  1
  Al  Al7  1  0.66373381  0.99644855  0.07339056  1
  Al  Al8  1  0.66373381  0.99644855  0.42660944  1
  Al  Al9  1  0.33626619  0.00355145  0.57339056  1
  Al  Al10  1  0.33493118  0.33493118  0.05066896  1
  Al  Al11  1  0.66506882  0.66506882  0.94933104  1
  Al  Al12  1  0.66506882  0.66506882  0.55066896  1
  Al  Al13  1  0.33493118  0.33493118  0.44933104  1
  Al  Al14  1  0.34123651  0.54839135  0.75000000  1
  Al  Al15  1  0.65876349  0.45160865  0.25000000  1
  Al  Al16  1  0.54839135  0.34123651  0.75000000  1
  Al  Al17  1  0.45160865  0.65876349  0.25000000  1
  Ir  Ir0  1  0.67276358  0.32723642  0.50000000  1
  Ir  Ir1  1  0.32723642  0.67276358  0.50000000  1
  Ir  Ir2  1  0.32723642  0.67276358  -0.00000000  1
  Ir  Ir3  1  0.67276358  0.32723642  -0.00000000  1
  Ir  Ir4  1  0.00000000  0.00000000  0.50000000  1
  Ir  Ir5  1  0.00000000  0.00000000  -0.00000000  1
loop_
_geom_bond_atom_site_label_1
_geom_bond_atom_site_label_2
_geom_bond_distance
_geom_bond_site_symmetry_2
Al0 Ir4 2.552439 1_555
Al0 Ir5 2.552439 1_556
Al0 U2 3.118250 1_445
Al0 U0 3.118250 1_445
Al1 Ir4 2.552439 1_665
Al1 Ir5 2.552439 1_665
Al1 U1 3.118250 1_665
Al1 U3 3.118250 1_665
Al2 Ir0 2.562985 1_455
Al2 Ir1 2.618535 1_555
Al2 Ir4 2.621848 1_555
Al2 U1 3.031919 1_555
Al2 U0 3.053032 1_455
Al2 U2 3.072187 1_445
Al3 Ir1 2.562985 1_655
Al3 Ir0 2.618535 1_555
Al3 Ir4 2.621848 1_665
Al3 U0 3.031919 1_555
Al3 U1 3.053032 1_655
Al3 U3 3.072187 1_665
Al4 Ir2 2.562985 1_655
Al4 Ir3 2.618535 1_555
Al4 Ir5 2.621848 1_665
Al4 U0 3.031919 1_554
Al4 U1 3.053032 1_655
Al4 U3 3.072187 1_665
Al5 Ir2 2.562985 1_546
Al5 Ir3 2.618535 1_556
Al5 Ir5 2.621848 1_556
Al5 U3 3.031919 1_556
Al5 U2 3.053032 1_545
Al5 U0 3.072187 1_445
Al6 Ir3 2.562985 1_456
Al6 Ir2 2.618535 1_556
Al6 Ir5 2.621848 1_556
Al6 U1 3.031919 1_556
Al6 U0 3.053032 1_455
Al6 U2 3.072187 1_445
Al7 Ir3 2.562985 1_565
Al7 Ir2 2.618535 1_555
Al7 Ir5 2.621848 1_665
Al7 U2 3.031919 1_554
Al7 U3 3.053032 1_565
Al7 U1 3.072187 1_665
Al8 Ir0 2.562985 1_565
Al8 Ir1 2.618535 1_555
Al8 Ir4 2.621848 1_665
Al8 U2 3.031919 1_555
Al8 U3 3.053032 1_565
Al8 U1 3.072187 1_665
Al9 Ir1 2.562985 1_545
Al9 Ir0 2.618535 1_555
Al9 Ir4 2.621848 1_555
Al9 U3 3.031919 1_555
Al9 U2 3.053032 1_545
Al9 U0 3.072187 1_445
Al10 Ir5 2.605849 1_555
Al10 Ir3 2.627051 1_555
Al10 Ir2 2.627051 1_555
Al10 U1 3.090704 1_555
Al10 U3 3.090704 1_555
Al11 Ir5 2.605849 1_666
Al11 Ir3 2.627051 1_556
Al11 Ir2 2.627051 1_556
Al11 U0 3.090704 1_555
Al11 U2 3.090704 1_555
Al12 Ir4 2.605849 1_665
Al12 Ir1 2.627051 1_555
Al12 Ir0 2.627051 1_555
Al12 U0 3.090704 1_555
Al12 U2 3.090704 1_555
Al13 Ir4 2.605849 1_555
Al13 Ir1 2.627051 1_555
Al13 Ir0 2.627051 1_555
Al13 U1 3.090704 1_555
Al13 U3 3.090704 1_555
Al14 Ir1 2.546413 1_555
Al14 Ir2 2.546413 1_556
Al14 U2 3.054438 1_555
Al14 U0 3.185822 1_455
Al15 Ir3 2.546413 1_555
Al15 Ir0 2.546413 1_555
Al15 U3 3.054438 1_555
Al15 U1 3.185822 1_655
Al16 Ir0 2.546413 1_555
Al16 Ir3 2.546413 1_556
Al16 U0 3.054438 1_555
Al16 U2 3.185822 1_545
Al17 Ir1 2.546413 1_555
Al17 Ir2 2.546413 1_555
Al17 U1 3.054438 1_555
Al17 U3 3.185822 1_565
Ir0 U1 3.439286 1_655
Ir0 U2 3.439286 1_545
Ir0 U0 3.457155 1_555
Ir0 U3 3.457155 1_555
Ir1 U3 3.439286 1_565
Ir1 U0 3.439286 1_455
Ir1 U1 3.457155 1_555
Ir1 U2 3.457155 1_555
Ir2 U3 3.439286 1_565
Ir2 U0 3.439286 1_454
Ir2 U1 3.457155 1_555
Ir2 U2 3.457155 1_554
Ir3 U1 3.439286 1_655
Ir3 U2 3.439286 1_544
Ir3 U0 3.457155 1_554
Ir3 U3 3.457155 1_555
Ir4 U2 3.403714 1_445
Ir4 U1 3.403714 1_555
Ir4 U0 3.403714 1_445
Ir4 U3 3.403714 1_555
Ir5 U2 3.403714 1_444
Ir5 U0 3.403714 1_444
Ir5 U1 3.403714 1_555
Ir5 U3 3.403714 1_555
