# generated using pymatgen
data_Ba5(Sn3Bi2)3
_symmetry_space_group_name_H-M   'P 1'
_cell_length_a   7.44877716
_cell_length_b   7.44877716
_cell_length_c   28.01080700
_cell_angle_alpha   90.00000000
_cell_angle_beta   90.00000000
_cell_angle_gamma   119.99999250
_symmetry_Int_Tables_number   1
_chemical_formula_structural   Ba5(Sn3Bi2)3
_chemical_formula_sum   'Ba10 Sn18 Bi12'
_cell_volume   1345.94170140
_cell_formula_units_Z   2
loop_
 _symmetry_equiv_pos_site_id
 _symmetry_equiv_pos_as_xyz
  1  'x, y, z'
loop_
 _atom_site_type_symbol
 _atom_site_label
 _atom_site_symmetry_multiplicity
 _atom_site_fract_x
 _atom_site_fract_y
 _atom_site_fract_z
 _atom_site_occupancy
  Ba  Ba0  1  0.33333300  0.66666700  0.55689600  1
  Ba  Ba1  1  0.66666700  0.33333300  0.44310400  1
  Ba  Ba2  1  0.66666700  0.33333300  0.05689600  1
  Ba  Ba3  1  0.33333300  0.66666700  0.94310400  1
  Ba  Ba4  1  0.00000000  0.00000000  0.15818200  1
  Ba  Ba5  1  0.00000000  0.00000000  0.84181800  1
  Ba  Ba6  1  0.00000000  0.00000000  0.65818200  1
  Ba  Ba7  1  0.00000000  0.00000000  0.34181800  1
  Ba  Ba8  1  0.33333300  0.66666700  0.75000000  1
  Ba  Ba9  1  0.66666700  0.33333300  0.25000000  1
  Sn  Sn0  1  0.19564300  0.39128600  0.25000000  1
  Sn  Sn1  1  0.80435700  0.60871400  0.75000000  1
  Sn  Sn2  1  0.60871400  0.80435700  0.25000000  1
  Sn  Sn3  1  0.39128600  0.19564300  0.75000000  1
  Sn  Sn4  1  0.19564300  0.80435700  0.25000000  1
  Sn  Sn5  1  0.80435700  0.19564300  0.75000000  1
  Sn  Sn6  1  0.52816200  0.05632300  0.65000200  1
  Sn  Sn7  1  0.47183800  0.94367700  0.34999800  1
  Sn  Sn8  1  0.94367700  0.47183800  0.65000200  1
  Sn  Sn9  1  0.47183800  0.94367700  0.15000200  1
  Sn  Sn10  1  0.05632300  0.52816200  0.34999800  1
  Sn  Sn11  1  0.52816200  0.05632300  0.84999800  1
  Sn  Sn12  1  0.52816200  0.47183800  0.65000200  1
  Sn  Sn13  1  0.05632300  0.52816200  0.15000200  1
  Sn  Sn14  1  0.47183800  0.52816200  0.34999800  1
  Sn  Sn15  1  0.94367700  0.47183800  0.84999800  1
  Sn  Sn16  1  0.47183800  0.52816200  0.15000200  1
  Sn  Sn17  1  0.52816200  0.47183800  0.84999800  1
  Bi  Bi0  1  0.16577100  0.33154300  0.05098900  1
  Bi  Bi1  1  0.83422900  0.66845700  0.94901100  1
  Bi  Bi2  1  0.66845700  0.83422900  0.05098900  1
  Bi  Bi3  1  0.83422900  0.66845700  0.55098900  1
  Bi  Bi4  1  0.33154300  0.16577100  0.94901100  1
  Bi  Bi5  1  0.16577100  0.33154300  0.44901100  1
  Bi  Bi6  1  0.16577100  0.83422900  0.05098900  1
  Bi  Bi7  1  0.33154300  0.16577100  0.55098900  1
  Bi  Bi8  1  0.83422900  0.16577100  0.94901100  1
  Bi  Bi9  1  0.66845700  0.83422900  0.44901100  1
  Bi  Bi10  1  0.83422900  0.16577100  0.55098900  1
  Bi  Bi11  1  0.16577100  0.83422900  0.44901100  1
loop_
_geom_bond_atom_site_label_1
_geom_bond_atom_site_label_2
_geom_bond_distance
_geom_bond_site_symmetry_2
Ba0 Sn6 3.622118 1_565
Ba0 Sn8 3.622118 1_455
Ba0 Sn12 3.622127 1_555
Ba0 Bi11 3.715596 1_555
Ba0 Bi5 3.715597 1_555
Ba0 Bi9 3.715597 1_555
Ba0 Bi7 3.728073 1_565
Ba0 Bi3 3.728073 1_455
Ba0 Bi10 3.728080 1_565
Ba0 Bi10 3.728080 1_455
Ba0 Bi3 3.728087 1_555
Ba0 Bi7 3.728087 1_555
Ba1 Sn10 3.622118 1_655
Ba1 Sn7 3.622118 1_545
Ba1 Sn14 3.622127 1_555
Ba1 Bi10 3.715596 1_555
Ba1 Bi3 3.715597 1_555
Ba1 Bi7 3.715597 1_555
Ba1 Bi5 3.728073 1_655
Ba1 Bi9 3.728073 1_545
Ba1 Bi11 3.728080 1_655
Ba1 Bi11 3.728080 1_545
Ba1 Bi5 3.728087 1_555
Ba1 Bi9 3.728087 1_555
Ba2 Sn13 3.622118 1_655
Ba2 Sn9 3.622118 1_545
Ba2 Sn16 3.622127 1_555
Ba2 Bi8 3.715596 1_554
Ba2 Bi4 3.715597 1_554
Ba2 Bi1 3.715597 1_554
Ba2 Bi0 3.728073 1_655
Ba2 Bi2 3.728073 1_545
Ba2 Bi6 3.728080 1_655
Ba2 Bi6 3.728080 1_545
Ba2 Bi0 3.728087 1_555
Ba2 Bi2 3.728087 1_555
Ba3 Sn11 3.622118 1_565
Ba3 Sn15 3.622118 1_455
Ba3 Sn17 3.622127 1_555
Ba3 Bi6 3.715596 1_556
Ba3 Bi0 3.715597 1_556
Ba3 Bi2 3.715597 1_556
Ba3 Bi4 3.728073 1_565
Ba3 Bi1 3.728073 1_455
Ba3 Bi8 3.728080 1_565
Ba3 Bi8 3.728080 1_455
Ba3 Bi4 3.728087 1_555
Ba3 Bi1 3.728087 1_555
Ba4 Sn4 3.603586 1_545
Ba4 Sn0 3.603586 1_555
Ba4 Sn2 3.603586 1_445
Ba4 Bi6 3.686395 1_545
Ba4 Bi2 3.686399 1_445
Ba4 Bi0 3.686399 1_555
Ba4 Sn9 3.749073 1_545
Ba4 Sn13 3.749073 1_545
Ba4 Sn16 3.749078 1_445
Ba4 Sn16 3.749078 1_555
Ba4 Sn9 3.749081 1_445
Ba4 Sn13 3.749081 1_555
Ba5 Sn5 3.603586 1_455
Ba5 Sn3 3.603586 1_555
Ba5 Sn1 3.603586 1_445
Ba5 Bi8 3.686395 1_455
Ba5 Bi4 3.686399 1_555
Ba5 Bi1 3.686399 1_445
Ba5 Sn11 3.749073 1_455
Ba5 Sn15 3.749073 1_455
Ba5 Sn17 3.749078 1_555
Ba5 Sn17 3.749078 1_445
Ba5 Sn11 3.749081 1_555
Ba5 Sn15 3.749081 1_445
Ba6 Sn5 3.603586 1_455
Ba6 Sn3 3.603586 1_555
Ba6 Sn1 3.603586 1_445
Ba6 Bi10 3.686395 1_455
Ba6 Bi7 3.686399 1_555
Ba6 Bi3 3.686399 1_445
Ba6 Sn8 3.749073 1_455
Ba6 Sn6 3.749073 1_455
Ba6 Sn12 3.749078 1_445
Ba6 Sn12 3.749078 1_555
Ba6 Sn6 3.749081 1_555
Ba6 Sn8 3.749081 1_445
Ba7 Sn4 3.603586 1_545
Ba7 Sn0 3.603586 1_555
Ba7 Sn2 3.603586 1_445
Ba7 Bi11 3.686395 1_545
Ba7 Bi5 3.686399 1_555
Ba7 Bi9 3.686399 1_445
Ba7 Sn10 3.749073 1_545
Ba7 Sn7 3.749073 1_545
Ba7 Sn14 3.749078 1_445
Ba7 Sn14 3.749078 1_555
Ba7 Sn7 3.749081 1_445
Ba7 Sn10 3.749081 1_555
Ba8 Sn3 3.743101 1_565
Ba8 Sn1 3.743101 1_455
Ba8 Sn5 3.743104 1_565
Ba8 Sn5 3.743104 1_455
Ba8 Sn1 3.743108 1_555
Ba8 Sn3 3.743108 1_555
Ba8 Sn11 3.763502 1_565
Ba8 Sn15 3.763502 1_455
Ba8 Sn6 3.763502 1_565
Ba8 Sn8 3.763502 1_455
Ba8 Sn17 3.763511 1_555
Ba8 Sn12 3.763511 1_555
Ba9 Sn0 3.743101 1_655
Ba9 Sn2 3.743101 1_545
Ba9 Sn4 3.743104 1_655
Ba9 Sn4 3.743104 1_545
Ba9 Sn2 3.743108 1_555
Ba9 Sn0 3.743108 1_555
Ba9 Sn10 3.763502 1_655
Ba9 Sn7 3.763502 1_545
Ba9 Sn13 3.763502 1_655
Ba9 Sn9 3.763502 1_545
Ba9 Sn14 3.763511 1_555
Ba9 Sn16 3.763511 1_555
Sn0 Sn4 3.076874 1_555
Sn0 Sn2 3.076874 1_555
Sn0 Sn14 3.319673 1_555
Sn0 Sn16 3.319673 1_555
Sn0 Sn10 3.319677 1_555
Sn0 Sn13 3.319677 1_555
Sn1 Sn5 3.076874 1_555
Sn1 Sn3 3.076874 1_555
Sn1 Sn17 3.319673 1_555
Sn1 Sn12 3.319673 1_555
Sn1 Sn15 3.319677 1_555
Sn1 Sn8 3.319677 1_555
Sn2 Sn4 3.076874 1_555
Sn2 Sn7 3.319677 1_555
Sn2 Sn9 3.319677 1_555
Sn3 Sn5 3.076874 1_555
Sn3 Sn6 3.319677 1_555
Sn4 Sn7 3.319673 1_555
Sn4 Sn9 3.319673 1_555
Sn5 Sn6 3.319673 1_555
Sn5 Sn8 3.319673 1_555
Sn6 Sn8 3.095079 1_555
Sn10 Sn14 3.095079 1_555
Sn10 Sn7 3.095079 1_555
Sn10 Sn4 3.319673 1_555
Sn11 Sn17 3.095079 1_555
Sn11 Sn15 3.095079 1_555
Sn11 Sn5 3.319673 1_555
Sn11 Sn3 3.319677 1_555
Sn12 Sn8 3.095079 1_555
Sn12 Sn6 3.095079 1_555
Sn12 Sn3 3.319673 1_555
Sn13 Sn16 3.095079 1_555
Sn13 Sn9 3.095079 1_555
Sn13 Sn4 3.319673 1_555
Sn14 Sn7 3.095079 1_555
Sn14 Sn2 3.319673 1_555
Sn15 Sn17 3.095079 1_555
Sn15 Sn5 3.319673 1_555
Sn16 Sn9 3.095079 1_555
Sn16 Sn2 3.319673 1_555
Sn17 Sn3 3.319673 1_555
Bi0 Sn13 3.419874 1_555
Bi0 Sn16 3.419874 1_555
Bi1 Sn15 3.419874 1_555
Bi1 Sn17 3.419874 1_555
Bi2 Sn9 3.419874 1_555
Bi2 Sn16 3.419874 1_555
Bi3 Sn8 3.419874 1_555
Bi3 Sn12 3.419874 1_555
Bi4 Sn11 3.419874 1_555
Bi4 Sn17 3.419874 1_555
Bi5 Sn10 3.419874 1_555
Bi5 Sn14 3.419874 1_555
Bi6 Sn13 3.419874 1_555
Bi6 Sn9 3.419874 1_555
Bi7 Sn6 3.419874 1_555
Bi7 Sn12 3.419874 1_555
Bi8 Sn15 3.419874 1_555
Bi8 Sn11 3.419874 1_555
Bi9 Sn7 3.419874 1_555
Bi9 Sn14 3.419874 1_555
Bi10 Sn8 3.419874 1_555
Bi10 Sn6 3.419874 1_555
Bi11 Sn7 3.419874 1_555
Bi11 Sn10 3.419874 1_555
