# generated using pymatgen
data_KDy(MoO4)2
_symmetry_space_group_name_H-M   'P 1'
_cell_length_a   5.14558900
_cell_length_b   8.13448800
_cell_length_c   18.44763100
_cell_angle_alpha   90.00000000
_cell_angle_beta   90.00000000
_cell_angle_gamma   90.00000000
_symmetry_Int_Tables_number   1
_chemical_formula_structural   KDy(MoO4)2
_chemical_formula_sum   'K4 Dy4 Mo8 O32'
_cell_volume   772.15754631
_cell_formula_units_Z   4
loop_
 _symmetry_equiv_pos_site_id
 _symmetry_equiv_pos_as_xyz
  1  'x, y, z'
loop_
 _atom_site_type_symbol
 _atom_site_label
 _atom_site_symmetry_multiplicity
 _atom_site_fract_x
 _atom_site_fract_y
 _atom_site_fract_z
 _atom_site_occupancy
  K  K0  1  0.00000000  0.75000000  0.76989600  1
  K  K1  1  0.00000000  0.25000000  0.23010400  1
  K  K2  1  0.50000000  0.25000000  0.73010400  1
  K  K3  1  0.50000000  0.75000000  0.26989600  1
  Dy  Dy0  1  0.00000000  0.75000000  0.00596100  1
  Dy  Dy1  1  0.00000000  0.25000000  0.99403900  1
  Dy  Dy2  1  0.50000000  0.25000000  0.49403900  1
  Dy  Dy3  1  0.50000000  0.75000000  0.50596100  1
  Mo  Mo0  1  0.02305600  0.51628000  0.39918500  1
  Mo  Mo1  1  0.97694400  0.48372000  0.60081500  1
  Mo  Mo2  1  0.47694400  0.01628000  0.10081500  1
  Mo  Mo3  1  0.97694400  0.98372000  0.39918500  1
  Mo  Mo4  1  0.52305600  0.98372000  0.89918500  1
  Mo  Mo5  1  0.02305600  0.01628000  0.60081500  1
  Mo  Mo6  1  0.52305600  0.48372000  0.10081500  1
  Mo  Mo7  1  0.47694400  0.51628000  0.89918500  1
  O  O0  1  0.10226100  0.97446700  0.31071800  1
  O  O1  1  0.89773900  0.02553300  0.68928200  1
  O  O2  1  0.39773900  0.47446700  0.18928200  1
  O  O3  1  0.89773900  0.52553300  0.31071800  1
  O  O4  1  0.60226100  0.52553300  0.81071800  1
  O  O5  1  0.10226100  0.47446700  0.68928200  1
  O  O6  1  0.60226100  0.02553300  0.18928200  1
  O  O7  1  0.39773900  0.97446700  0.81071800  1
  O  O8  1  0.26932800  0.83845000  0.09883100  1
  O  O9  1  0.73067200  0.16155000  0.90116900  1
  O  O10  1  0.23067200  0.33845000  0.40116900  1
  O  O11  1  0.73067200  0.66155000  0.09883100  1
  O  O12  1  0.76932800  0.66155000  0.59883100  1
  O  O13  1  0.26932800  0.33845000  0.90116900  1
  O  O14  1  0.76932800  0.16155000  0.40116900  1
  O  O15  1  0.23067200  0.83845000  0.59883100  1
  O  O16  1  0.24878600  0.50433500  0.03492900  1
  O  O17  1  0.75121400  0.49566500  0.96507100  1
  O  O18  1  0.25121400  0.00433500  0.46507100  1
  O  O19  1  0.75121400  0.99566500  0.03492900  1
  O  O20  1  0.74878600  0.99566500  0.53492900  1
  O  O21  1  0.24878600  0.00433500  0.96507100  1
  O  O22  1  0.74878600  0.49566500  0.46507100  1
  O  O23  1  0.25121400  0.50433500  0.53492900  1
  O  O24  1  0.24597300  0.68927200  0.40758600  1
  O  O25  1  0.75402700  0.31072800  0.59241400  1
  O  O26  1  0.25402700  0.18927200  0.09241400  1
  O  O27  1  0.75402700  0.81072800  0.40758600  1
  O  O28  1  0.74597300  0.81072800  0.90758600  1
  O  O29  1  0.24597300  0.18927200  0.59241400  1
  O  O30  1  0.74597300  0.31072800  0.09241400  1
  O  O31  1  0.25402700  0.68927200  0.90758600  1
loop_
_geom_bond_atom_site_label_1
_geom_bond_atom_site_label_2
_geom_bond_distance
_geom_bond_site_symmetry_2
K0 O5 2.740798 1_555
K0 O1 2.740798 1_465
K0 O4 2.844238 1_455
K0 O7 2.844238 1_555
K0 O28 2.899045 1_455
K0 O31 2.899045 1_555
K1 O0 2.740798 1_545
K1 O3 2.740798 1_455
K1 O2 2.844238 1_555
K1 O6 2.844238 1_455
K1 O30 2.899045 1_455
K1 O26 2.899045 1_555
K2 O7 2.740798 1_545
K2 O4 2.740798 1_555
K2 O1 2.844238 1_555
K2 O5 2.844238 1_555
K2 O25 2.899045 1_555
K2 O29 2.899045 1_555
K3 O2 2.740798 1_555
K3 O6 2.740798 1_565
K3 O0 2.844238 1_555
K3 O3 2.844238 1_555
K3 O24 2.899045 1_555
K3 O27 2.899045 1_555
Dy0 O31 2.290422 1_554
Dy0 O28 2.290422 1_454
Dy0 O11 2.318064 1_455
Dy0 O8 2.318064 1_555
Dy0 O19 2.432652 1_455
Dy0 O16 2.432652 1_555
Dy0 O17 2.547170 1_454
Dy0 O21 2.547170 1_564
Dy1 O30 2.290422 1_456
Dy1 O26 2.290422 1_556
Dy1 O9 2.318064 1_455
Dy1 O13 2.318064 1_555
Dy1 O17 2.432652 1_455
Dy1 O21 2.432652 1_555
Dy1 O19 2.547170 1_446
Dy1 O16 2.547170 1_556
Dy2 O29 2.290422 1_555
Dy2 O25 2.290422 1_555
Dy2 O14 2.318064 1_555
Dy2 O10 2.318064 1_555
Dy2 O18 2.432652 1_555
Dy2 O22 2.432652 1_555
Dy2 O20 2.547170 1_545
Dy2 O23 2.547170 1_555
Dy3 O27 2.290422 1_555
Dy3 O24 2.290422 1_555
Dy3 O15 2.318064 1_555
Dy3 O12 2.318064 1_555
Dy3 O20 2.432652 1_555
Dy3 O23 2.432652 1_555
Dy3 O22 2.547170 1_555
Dy3 O18 2.547170 1_565
Mo0 O3 1.756393 1_455
Mo0 O10 1.798650 1_555
Mo0 O24 1.822068 1_555
Mo0 O22 1.870061 1_455
Mo1 O5 1.756393 1_655
Mo1 O12 1.798650 1_555
Mo1 O25 1.822068 1_555
Mo1 O23 1.870061 1_655
Mo2 O6 1.756393 1_555
Mo2 O8 1.798650 1_545
Mo2 O26 1.822068 1_555
Mo2 O19 1.870061 1_545
Mo3 O0 1.756393 1_655
Mo3 O14 1.798650 1_565
Mo3 O27 1.822068 1_555
Mo3 O18 1.870061 1_665
Mo4 O7 1.756393 1_555
Mo4 O9 1.798650 1_565
Mo4 O28 1.822068 1_555
Mo4 O21 1.870061 1_565
Mo5 O1 1.756393 1_455
Mo5 O15 1.798650 1_545
Mo5 O29 1.822068 1_555
Mo5 O20 1.870061 1_445
Mo6 O2 1.756393 1_555
Mo6 O11 1.798650 1_555
Mo6 O30 1.822068 1_555
Mo6 O16 1.870061 1_555
Mo7 O4 1.756393 1_555
Mo7 O13 1.798650 1_555
Mo7 O31 1.822068 1_555
Mo7 O17 1.870061 1_555
