# generated using pymatgen
data_Ti(PbN)4
_symmetry_space_group_name_H-M   'P 1'
_cell_length_a   6.86715625
_cell_length_b   8.29872007
_cell_length_c   9.43534787
_cell_angle_alpha   63.93994799
_cell_angle_beta   74.68908111
_cell_angle_gamma   52.82601220
_symmetry_Int_Tables_number   1
_chemical_formula_structural   Ti(PbN)4
_chemical_formula_sum   'Ti2 Pb8 N8'
_cell_volume   384.88829483
_cell_formula_units_Z   2
loop_
 _symmetry_equiv_pos_site_id
 _symmetry_equiv_pos_as_xyz
  1  'x, y, z'
loop_
 _atom_site_type_symbol
 _atom_site_label
 _atom_site_symmetry_multiplicity
 _atom_site_fract_x
 _atom_site_fract_y
 _atom_site_fract_z
 _atom_site_occupancy
  Ti  Ti0  1  0.74979200  0.78925500  0.75009800  1
  Ti  Ti1  1  0.25020800  0.21074500  0.24990200  1
  Pb  Pb0  1  0.74103600  0.62319100  0.12653300  1
  Pb  Pb1  1  0.25896400  0.37680900  0.87346700  1
  Pb  Pb2  1  0.78991800  0.29295100  0.95825100  1
  Pb  Pb3  1  0.21008200  0.70704900  0.04174900  1
  Pb  Pb4  1  0.71001600  0.54135400  0.54163600  1
  Pb  Pb5  1  0.28998400  0.45864600  0.45836400  1
  Pb  Pb6  1  0.24087700  0.00921600  0.62634200  1
  Pb  Pb7  1  0.75912300  0.99078400  0.37365800  1
  N  N0  1  0.96022200  0.59223700  0.63593500  1
  N  N1  1  0.03977800  0.40776300  0.36406500  1
  N  N2  1  0.95854900  0.72429500  0.89829900  1
  N  N3  1  0.04145100  0.27570500  0.10170100  1
  N  N4  1  0.53963300  0.68824600  0.86412200  1
  N  N5  1  0.46036700  0.31175400  0.13587800  1
  N  N6  1  0.45906900  0.91884600  0.39796400  1
  N  N7  1  0.54093100  0.08115400  0.60203600  1
loop_
_geom_bond_atom_site_label_1
_geom_bond_atom_site_label_2
_geom_bond_distance
_geom_bond_site_symmetry_2
N0 Ti0 1.947264 1_555
N0 Pb5 2.399718 1_655
N0 Pb4 2.436479 1_555
N0 Pb1 2.627410 1_655
N0 Pb7 2.839707 1_555
N1 Ti1 1.947264 1_555
N1 Pb4 2.399718 1_455
N1 Pb5 2.436479 1_555
N1 Pb0 2.627410 1_455
N1 Pb6 2.839707 1_555
N2 Ti0 1.939962 1_555
N2 Pb3 2.366814 1_656
N2 Pb1 2.403252 1_655
N2 Pb0 2.408482 1_556
N3 Ti1 1.939962 1_555
N3 Pb2 2.366814 1_454
N3 Pb0 2.403252 1_455
N3 Pb1 2.408482 1_554
N4 Ti0 1.947441 1_555
N4 Pb3 2.398900 1_556
N4 Pb2 2.436553 1_555
N4 Pb6 2.629392 1_565
N4 Pb0 2.840119 1_556
N5 Ti1 1.947441 1_555
N5 Pb2 2.398900 1_554
N5 Pb3 2.436553 1_555
N5 Pb7 2.629392 1_545
N5 Pb1 2.840119 1_554
N6 Ti1 1.939817 1_565
N6 Pb4 2.366357 1_555
N6 Pb7 2.402382 1_555
N6 Pb6 2.409892 1_565
N7 Ti0 1.939817 1_545
N7 Pb5 2.366357 1_555
N7 Pb6 2.402382 1_555
N7 Pb7 2.409892 1_545
