# generated using pymatgen
data_CrCu3HgSe4
_symmetry_space_group_name_H-M   'P 1'
_cell_length_a   5.88632500
_cell_length_b   5.88632500
_cell_length_c   5.88632500
_cell_angle_alpha   90.00000000
_cell_angle_beta   90.00000000
_cell_angle_gamma   90.00000000
_symmetry_Int_Tables_number   1
_chemical_formula_structural   CrCu3HgSe4
_chemical_formula_sum   'Cr1 Cu3 Hg1 Se4'
_cell_volume   203.95422719
_cell_formula_units_Z   1
loop_
 _symmetry_equiv_pos_site_id
 _symmetry_equiv_pos_as_xyz
  1  'x, y, z'
loop_
 _atom_site_type_symbol
 _atom_site_label
 _atom_site_symmetry_multiplicity
 _atom_site_fract_x
 _atom_site_fract_y
 _atom_site_fract_z
 _atom_site_occupancy
  Cr  Cr0  1  0.00000000  0.00000000  0.00000000  1
  Cu  Cu0  1  0.00000000  0.50000000  0.00000000  1
  Cu  Cu1  1  0.00000000  0.00000000  0.50000000  1
  Cu  Cu2  1  0.50000000  0.00000000  0.00000000  1
  Hg  Hg0  1  0.50000000  0.50000000  0.50000000  1
  Se  Se0  1  0.23378800  0.23378800  0.23378800  1
  Se  Se1  1  0.76621200  0.76621200  0.23378800  1
  Se  Se2  1  0.23378800  0.76621200  0.76621200  1
  Se  Se3  1  0.76621200  0.23378800  0.76621200  1
loop_
_geom_bond_atom_site_label_1
_geom_bond_atom_site_label_2
_geom_bond_distance
_geom_bond_site_symmetry_2
Cr0 Se3 2.383565 1_454
Cr0 Se1 2.383565 1_445
Cr0 Se2 2.383565 1_544
Cr0 Se0 2.383565 1_555
Cu0 Se2 2.498622 1_554
Cu0 Se1 2.498622 1_455
Cu0 Se0 2.498622 1_555
Cu0 Se3 2.498622 1_454
Cu1 Se3 2.498622 1_455
Cu1 Se2 2.498622 1_545
Cu1 Se1 2.498622 1_445
Cu1 Se0 2.498622 1_555
Cu2 Se3 2.498622 1_554
Cu2 Se2 2.498622 1_544
Cu2 Se0 2.498622 1_555
Cu2 Se1 2.498622 1_545
Hg0 Se3 2.714142 1_555
Hg0 Se2 2.714142 1_555
Hg0 Se0 2.714142 1_555
Hg0 Se1 2.714142 1_555
