# generated using pymatgen
data_Pr2(GeIr)3
_symmetry_space_group_name_H-M   'P 1'
_cell_length_a   5.97239600
_cell_length_b   5.97239600
_cell_length_c   19.57752000
_cell_angle_alpha   90.00000000
_cell_angle_beta   90.00000000
_cell_angle_gamma   90.00000000
_symmetry_Int_Tables_number   1
_chemical_formula_structural   Pr2(GeIr)3
_chemical_formula_sum   'Pr2 Ge3 Ir3'
_cell_volume   698.32062335
_cell_formula_units_Z   1
loop_
 _symmetry_equiv_pos_site_id
 _symmetry_equiv_pos_as_xyz
  1  'x, y, z'
loop_
 _atom_site_type_symbol
 _atom_site_label
 _atom_site_symmetry_multiplicity
 _atom_site_fract_x
 _atom_site_fract_y
 _atom_site_fract_z
 _atom_site_occupancy
  Pr  Pr0  1  0.50000000  0.50000000  0.76379300  1
  Pr  Pr1  1  0.50000000  0.50000000  0.23620700  1
  Ge  Ge0  1  0.50000000  0.50000000  0.38135500  1
  Ge  Ge1  1  0.50000000  0.50000000  0.61864500  1
  Ge  Ge2  1  0.50000000  0.50000000  0.00000000  1
  Ir  Ir0  1  0.50000000  0.50000000  0.11789300  1
  Ir  Ir1  1  0.50000000  0.50000000  0.88210700  1
  Ir  Ir2  1  0.50000000  0.50000000  0.50000000  1
loop_
_geom_bond_atom_site_label_1
_geom_bond_atom_site_label_2
_geom_bond_distance
_geom_bond_site_symmetry_2
Ge0 Ir2 2.322775 1_555
Ge0 Pr1 2.841638 1_555
Ge1 Ir2 2.322775 1_555
Ge1 Pr0 2.841638 1_555
Ge2 Ir0 2.308053 1_555
Ge2 Ir1 2.308053 1_554
Ir0 Pr1 2.316295 1_555
Ir1 Pr0 2.316295 1_555
