# generated using pymatgen
data_CaCr3(P2O7)2
_symmetry_space_group_name_H-M   'P 1'
_cell_length_a   7.99524400
_cell_length_b   7.55017900
_cell_length_c   9.56205377
_cell_angle_alpha   69.96554375
_cell_angle_beta   90.00000000
_cell_angle_gamma   90.00000000
_symmetry_Int_Tables_number   1
_chemical_formula_structural   CaCr3(P2O7)2
_chemical_formula_sum   'Ca2 Cr6 P8 O28'
_cell_volume   542.28903086
_cell_formula_units_Z   2
loop_
 _symmetry_equiv_pos_site_id
 _symmetry_equiv_pos_as_xyz
  1  'x, y, z'
loop_
 _atom_site_type_symbol
 _atom_site_label
 _atom_site_symmetry_multiplicity
 _atom_site_fract_x
 _atom_site_fract_y
 _atom_site_fract_z
 _atom_site_occupancy
  Ca  Ca0  1  0.00000000  0.50000000  0.00000000  1
  Ca  Ca1  1  0.50000000  0.50000000  0.50000000  1
  Cr  Cr0  1  0.12983400  0.81009100  0.52341300  1
  Cr  Cr1  1  0.62983400  0.18990900  0.97658700  1
  Cr  Cr2  1  0.87016600  0.18990900  0.47658700  1
  Cr  Cr3  1  0.37016600  0.81009100  0.02341300  1
  Cr  Cr4  1  0.00000000  0.00000000  0.00000000  1
  Cr  Cr5  1  0.50000000  0.00000000  0.50000000  1
  P  P0  1  0.94347000  0.40455200  0.70303400  1
  P  P1  1  0.44347000  0.59544800  0.79696600  1
  P  P2  1  0.05653000  0.59544800  0.29696600  1
  P  P3  1  0.55653000  0.40455200  0.20303400  1
  P  P4  1  0.20520200  0.11704500  0.69338800  1
  P  P5  1  0.70520200  0.88295500  0.80661200  1
  P  P6  1  0.79479800  0.88295500  0.30661200  1
  P  P7  1  0.29479800  0.11704500  0.19338800  1
  O  O0  1  0.37341900  0.16991400  0.61282500  1
  O  O1  1  0.87341900  0.83008600  0.88717500  1
  O  O2  1  0.62658100  0.83008600  0.38717500  1
  O  O3  1  0.12658100  0.16991400  0.11282500  1
  O  O4  1  0.39540400  0.70255900  0.63309000  1
  O  O5  1  0.89540400  0.29744100  0.86691000  1
  O  O6  1  0.60459600  0.29744100  0.36691000  1
  O  O7  1  0.10459600  0.70255900  0.13309000  1
  O  O8  1  0.81659300  0.37663100  0.59218700  1
  O  O9  1  0.31659300  0.62336900  0.90781300  1
  O  O10  1  0.18340700  0.62336900  0.40781300  1
  O  O11  1  0.68340700  0.37663100  0.09218700  1
  O  O12  1  0.12039100  0.31761400  0.67354700  1
  O  O13  1  0.62039100  0.68238600  0.82645300  1
  O  O14  1  0.87960900  0.68238600  0.32645300  1
  O  O15  1  0.37960900  0.31761400  0.17354700  1
  O  O16  1  0.51318800  0.60689300  0.18838300  1
  O  O17  1  0.01318800  0.39310700  0.31161700  1
  O  O18  1  0.48681200  0.39310700  0.81161700  1
  O  O19  1  0.98681200  0.60689300  0.68838300  1
  O  O20  1  0.78770500  0.98563400  0.13590600  1
  O  O21  1  0.28770500  0.01436600  0.36409400  1
  O  O22  1  0.21229500  0.01436600  0.86409400  1
  O  O23  1  0.71229500  0.98563400  0.63590600  1
  O  O24  1  0.41025100  0.01471600  0.11924400  1
  O  O25  1  0.91025100  0.98528400  0.38075600  1
  O  O26  1  0.58974900  0.98528400  0.88075600  1
  O  O27  1  0.08974900  0.01471600  0.61924400  1
loop_
_geom_bond_atom_site_label_1
_geom_bond_atom_site_label_2
_geom_bond_distance
_geom_bond_site_symmetry_2
Ca0 O5 2.447725 1_454
Ca0 O7 2.447725 1_555
Ca0 O3 2.560668 1_555
Ca0 O1 2.560668 1_454
Ca0 O11 2.736648 1_455
Ca0 O9 2.736648 1_554
Ca0 O17 2.809515 1_555
Ca0 O19 2.809515 1_454
Ca1 O6 2.447725 1_555
Ca1 O4 2.447725 1_555
Ca1 O0 2.560668 1_555
Ca1 O2 2.560668 1_555
Ca1 O10 2.736648 1_555
Ca1 O8 2.736648 1_555
Ca1 O18 2.809515 1_555
Ca1 O16 2.809515 1_555
Cr0 O27 2.073471 1_565
Cr0 O10 2.111998 1_555
Cr0 O19 2.119309 1_455
Cr0 O21 2.163990 1_565
Cr0 O25 2.335875 1_455
Cr0 O4 2.384116 1_555
Cr1 O26 2.073471 1_545
Cr1 O11 2.111998 1_556
Cr1 O18 2.119309 1_555
Cr1 O20 2.163990 1_546
Cr1 O24 2.335875 1_556
Cr1 O5 2.384116 1_555
Cr2 O25 2.073471 1_545
Cr2 O8 2.111998 1_555
Cr2 O17 2.119309 1_655
Cr2 O23 2.163990 1_545
Cr2 O27 2.335875 1_655
Cr2 O6 2.384116 1_555
Cr3 O24 2.073471 1_565
Cr3 O9 2.111998 1_554
Cr3 O16 2.119309 1_555
Cr3 O22 2.163990 1_564
Cr3 O26 2.335875 1_554
Cr3 O7 2.384116 1_555
Cr4 O22 2.117779 1_554
Cr4 O20 2.117779 1_445
Cr4 O3 2.186825 1_555
Cr4 O1 2.186825 1_444
Cr4 O7 2.324656 1_545
Cr4 O5 2.324656 1_454
Cr5 O23 2.117779 1_545
Cr5 O21 2.117779 1_555
Cr5 O0 2.186825 1_555
Cr5 O2 2.186825 1_545
Cr5 O6 2.324656 1_555
Cr5 O4 2.324656 1_545
O0 P4 1.533276 1_555
O1 P5 1.533276 1_555
O2 P6 1.533276 1_555
O3 P7 1.533276 1_555
O4 P1 1.545601 1_555
O5 P0 1.545601 1_555
O6 P3 1.545601 1_555
O7 P2 1.545601 1_555
O8 P0 1.532974 1_555
O9 P1 1.532974 1_555
O10 P2 1.532974 1_555
O11 P3 1.532974 1_555
O12 P4 1.610014 1_555
O12 P0 1.624208 1_455
O13 P5 1.610014 1_555
O13 P1 1.624208 1_555
O14 P6 1.610014 1_555
O14 P2 1.624208 1_655
O15 P7 1.610014 1_555
O15 P3 1.624208 1_555
O16 P3 1.525440 1_555
O17 P2 1.525440 1_555
O18 P1 1.525440 1_555
O19 P0 1.525440 1_555
O20 P6 1.549706 1_555
O21 P7 1.549706 1_555
O22 P4 1.549706 1_555
O23 P5 1.549706 1_555
O24 P7 1.525425 1_555
O25 P6 1.525425 1_555
O26 P5 1.525425 1_555
O27 P4 1.525425 1_555
