# generated using pymatgen
data_KSiSbO5
_symmetry_space_group_name_H-M   'P 1'
_cell_length_a   6.56847400
_cell_length_b   10.79028300
_cell_length_c   13.20997700
_cell_angle_alpha   90.00000000
_cell_angle_beta   90.00000000
_cell_angle_gamma   90.00000000
_symmetry_Int_Tables_number   1
_chemical_formula_structural   KSiSbO5
_chemical_formula_sum   'K8 Si8 Sb8 O40'
_cell_volume   936.26627886
_cell_formula_units_Z   8
loop_
 _symmetry_equiv_pos_site_id
 _symmetry_equiv_pos_as_xyz
  1  'x, y, z'
loop_
 _atom_site_type_symbol
 _atom_site_label
 _atom_site_symmetry_multiplicity
 _atom_site_fract_x
 _atom_site_fract_y
 _atom_site_fract_z
 _atom_site_occupancy
  K  K0  1  0.19708300  0.56322900  0.39251100  1
  K  K1  1  0.22502800  0.80714900  0.61943800  1
  K  K2  1  0.72502800  0.30714900  0.88056200  1
  K  K3  1  0.27497200  0.80714900  0.11943800  1
  K  K4  1  0.77497200  0.30714900  0.38056200  1
  K  K5  1  0.69708300  0.06322900  0.10748900  1
  K  K6  1  0.30291700  0.56322900  0.89251100  1
  K  K7  1  0.80291700  0.06322900  0.60748900  1
  Si  Si0  1  0.82849700  0.75060000  0.99997300  1
  Si  Si1  1  0.32849700  0.25060000  0.50002700  1
  Si  Si2  1  0.67150300  0.75060000  0.49997300  1
  Si  Si3  1  0.17150300  0.25060000  0.00002700  1
  Si  Si4  1  0.50304900  0.50144200  0.18104200  1
  Si  Si5  1  0.49695100  0.00144200  0.81895800  1
  Si  Si6  1  0.99695100  0.50144200  0.68104200  1
  Si  Si7  1  0.00304900  0.00144200  0.31895800  1
  Sb  Sb0  1  0.75302000  0.75007500  0.25215400  1
  Sb  Sb1  1  0.24698000  0.25007500  0.74784600  1
  Sb  Sb2  1  0.74698000  0.75007500  0.75215400  1
  Sb  Sb3  1  0.25302000  0.25007500  0.24784600  1
  Sb  Sb4  1  0.99981800  0.50100900  0.11938400  1
  Sb  Sb5  1  0.00018200  0.00100900  0.88061600  1
  Sb  Sb6  1  0.50018200  0.50100900  0.61938400  1
  Sb  Sb7  1  0.49981800  0.00100900  0.38061600  1
  O  O0  1  0.53279900  0.87589100  0.27133400  1
  O  O1  1  0.46720100  0.37589100  0.72866600  1
  O  O2  1  0.96720100  0.87589100  0.77133400  1
  O  O3  1  0.03279900  0.37589100  0.22866600  1
  O  O4  1  0.47890000  0.13139100  0.27390400  1
  O  O5  1  0.52110000  0.63139100  0.72609600  1
  O  O6  1  0.02110000  0.13139100  0.77390400  1
  O  O7  1  0.97890000  0.63139100  0.22609600  1
  O  O8  1  0.95797500  0.88582700  0.24056200  1
  O  O9  1  0.04202500  0.38582700  0.75943800  1
  O  O10  1  0.54202500  0.88582700  0.74056200  1
  O  O11  1  0.45797500  0.38582700  0.25943800  1
  O  O12  1  0.04065800  0.11917800  0.24124300  1
  O  O13  1  0.95934200  0.61917800  0.75875700  1
  O  O14  1  0.45934200  0.11917800  0.74124300  1
  O  O15  1  0.68155400  0.73098900  0.90073300  1
  O  O16  1  0.54065800  0.61917800  0.25875700  1
  O  O17  1  0.80086400  0.47373900  0.60786300  1
  O  O18  1  0.30086400  0.97373900  0.89213700  1
  O  O19  1  0.69913600  0.47373900  0.10786300  1
  O  O20  1  0.80507200  0.03184600  0.39114100  1
  O  O21  1  0.19492800  0.53184600  0.60885900  1
  O  O22  1  0.69492800  0.03184600  0.89114100  1
  O  O23  1  0.30507200  0.53184600  0.10885900  1
  O  O24  1  0.48775500  0.13378500  0.48666300  1
  O  O25  1  0.51224500  0.63378500  0.51333700  1
  O  O26  1  0.01224500  0.13378500  0.98666300  1
  O  O27  1  0.98775500  0.63378500  0.01333700  1
  O  O28  1  0.47158600  0.37587100  0.51016100  1
  O  O29  1  0.52841400  0.87587100  0.48983900  1
  O  O30  1  0.02841400  0.37587100  0.01016100  1
  O  O31  1  0.97158600  0.87587100  0.98983900  1
  O  O32  1  0.18647600  0.26898100  0.39841300  1
  O  O33  1  0.81352400  0.76898100  0.60158700  1
  O  O34  1  0.31352400  0.26898100  0.89841300  1
  O  O35  1  0.68647600  0.76898100  0.10158700  1
  O  O36  1  0.18155400  0.23098900  0.59926700  1
  O  O37  1  0.81844600  0.73098900  0.40073300  1
  O  O38  1  0.31844600  0.23098900  0.09926700  1
  O  O39  1  0.19913600  0.97373900  0.39213700  1
loop_
_geom_bond_atom_site_label_1
_geom_bond_atom_site_label_2
_geom_bond_distance
_geom_bond_site_symmetry_2
K0 O25 2.722613 1_555
K0 O7 2.725343 1_455
K0 O21 2.877979 1_555
K0 O16 2.929050 1_555
K0 O37 3.077994 1_455
K0 O11 3.113045 1_555
K0 O28 3.123058 1_555
K0 O3 3.152016 1_555
K0 O32 3.176740 1_555
K1 O2 2.728451 1_455
K1 O29 2.729834 1_555
K1 O33 2.744299 1_455
K1 O10 2.759778 1_555
K1 O21 2.980448 1_555
K1 O25 3.003823 1_555
K1 O5 3.060031 1_555
K1 O13 3.247533 1_455
K2 O1 2.728451 1_555
K2 O30 2.729834 1_656
K2 O34 2.744299 1_555
K2 O9 2.759778 1_655
K2 O22 2.980448 1_555
K2 O26 3.003823 1_655
K2 O6 3.060031 1_655
K2 O14 3.247533 1_555
K3 O0 2.728451 1_555
K3 O31 2.729834 1_454
K3 O35 2.744299 1_555
K3 O8 2.759778 1_455
K3 O23 2.980448 1_555
K3 O27 3.003823 1_455
K3 O7 3.060031 1_455
K3 O16 3.247533 1_555
K4 O3 2.728451 1_655
K4 O28 2.729834 1_555
K4 O32 2.744299 1_655
K4 O11 2.759778 1_555
K4 O20 2.980448 1_555
K4 O24 3.003823 1_555
K4 O4 3.060031 1_555
K4 O12 3.247533 1_655
K5 O26 2.722613 1_654
K5 O4 2.725343 1_555
K5 O22 2.877979 1_554
K5 O12 2.929050 1_655
K5 O38 3.077994 1_555
K5 O8 3.113045 1_545
K5 O31 3.123058 1_544
K5 O0 3.152016 1_545
K5 O35 3.176740 1_545
K6 O27 2.722613 1_456
K6 O5 2.725343 1_555
K6 O23 2.877979 1_556
K6 O13 2.929050 1_455
K6 O15 3.077994 1_555
K6 O9 3.113045 1_555
K6 O30 3.123058 1_556
K6 O1 3.152016 1_555
K6 O34 3.176740 1_555
K7 O24 2.722613 1_555
K7 O6 2.725343 1_655
K7 O20 2.877979 1_555
K7 O14 2.929050 1_555
K7 O36 3.077994 1_655
K7 O10 3.113045 1_545
K7 O29 3.123058 1_545
K7 O2 3.152016 1_545
K7 O33 3.176740 1_545
O0 Sb7 1.988368 1_565
O0 Sb0 1.999914 1_555
O1 Sb6 1.988368 1_555
O1 Sb1 1.999914 1_555
O2 Sb5 1.988368 1_665
O2 Sb2 1.999914 1_555
O3 Sb4 1.988368 1_455
O3 Sb3 1.999914 1_555
O4 Sb3 1.989935 1_555
O4 Sb7 1.996317 1_555
O5 Sb2 1.989935 1_555
O5 Sb6 1.996317 1_555
O6 Sb1 1.989935 1_555
O6 Sb5 1.996317 1_555
O7 Sb0 1.989935 1_555
O7 Sb4 1.996317 1_555
O8 Si7 1.648164 1_665
O8 Sb0 1.995360 1_555
O9 Si6 1.648164 1_455
O9 Sb1 1.995360 1_555
O10 Si5 1.648164 1_565
O10 Sb2 1.995360 1_555
O11 Si4 1.648164 1_555
O11 Sb3 1.995360 1_555
O12 Si7 1.651935 1_555
O12 Sb3 1.987022 1_555
O13 Si6 1.651935 1_555
O13 Sb2 1.987022 1_555
O14 Si5 1.651935 1_555
O14 Sb1 1.987022 1_555
O15 Si0 1.641640 1_555
O15 Sb2 2.019749 1_555
O16 Si4 1.651935 1_555
O16 Sb0 1.987022 1_555
O17 Si6 1.637918 1_555
O17 Sb6 2.002613 1_555
O18 Si5 1.637918 1_565
O18 Sb5 2.002613 1_565
O19 Si4 1.637918 1_555
O19 Sb4 2.002613 1_555
O20 Si7 1.645575 1_655
O20 Sb7 2.037225 1_555
O21 Si6 1.645575 1_455
O21 Sb6 2.037225 1_555
O22 Si5 1.645575 1_555
O22 Sb5 2.037225 1_655
O23 Si4 1.645575 1_555
O23 Sb4 2.037225 1_455
O24 Si1 1.647492 1_555
O24 Sb7 2.005328 1_555
O25 Si2 1.647492 1_555
O25 Sb6 2.005328 1_555
O26 Si3 1.647492 1_556
O26 Sb5 2.005328 1_555
O27 Si0 1.647492 1_554
O27 Sb4 2.005328 1_555
O28 Si1 1.651789 1_555
O28 Sb6 1.985016 1_555
O29 Si2 1.651789 1_555
O29 Sb7 1.985016 1_565
O30 Si3 1.651789 1_555
O30 Sb4 1.985016 1_455
O31 Si0 1.651789 1_555
O31 Sb5 1.985016 1_665
O32 Si1 1.646629 1_555
O32 Sb3 2.046640 1_555
O33 Si2 1.646629 1_555
O33 Sb2 2.046640 1_555
O34 Si3 1.646629 1_556
O34 Sb1 2.046640 1_555
O35 Si0 1.646629 1_554
O35 Sb0 2.046640 1_555
O36 Si1 1.641640 1_555
O36 Sb1 2.019749 1_555
O37 Si2 1.641640 1_555
O37 Sb0 2.019749 1_555
O38 Si3 1.641640 1_555
O38 Sb3 2.019749 1_555
O39 Si7 1.637918 1_565
O39 Sb7 2.002613 1_565
