# generated using pymatgen
data_Sr8Co6Cl4O15
_symmetry_space_group_name_H-M   'P 1'
_cell_length_a   16.08308206
_cell_length_b   16.08308206
_cell_length_c   5.52905424
_cell_angle_alpha   89.93780490
_cell_angle_beta   89.93780490
_cell_angle_gamma   160.20297861
_symmetry_Int_Tables_number   1
_chemical_formula_structural   Sr8Co6Cl4O15
_chemical_formula_sum   'Sr8 Co6 Cl4 O15'
_cell_volume   484.37514190
_cell_formula_units_Z   1
loop_
 _symmetry_equiv_pos_site_id
 _symmetry_equiv_pos_as_xyz
  1  'x, y, z'
loop_
 _atom_site_type_symbol
 _atom_site_label
 _atom_site_symmetry_multiplicity
 _atom_site_fract_x
 _atom_site_fract_y
 _atom_site_fract_z
 _atom_site_occupancy
  Sr  Sr0  1  0.67891400  0.80779300  0.75661600  1
  Sr  Sr1  1  0.19220700  0.32108600  0.24338400  1
  Sr  Sr2  1  0.32108600  0.19220700  0.24338400  1
  Sr  Sr3  1  0.80779300  0.67891400  0.75661600  1
  Sr  Sr4  1  0.56983400  0.92785100  0.75116900  1
  Sr  Sr5  1  0.07214900  0.43016600  0.24883100  1
  Sr  Sr6  1  0.43016600  0.07214900  0.24883100  1
  Sr  Sr7  1  0.92785100  0.56983400  0.75116900  1
  Co  Co0  1  0.36673000  0.12646700  0.74655200  1
  Co  Co1  1  0.87353300  0.63327000  0.25344800  1
  Co  Co2  1  0.63327000  0.87353300  0.25344800  1
  Co  Co3  1  0.12646700  0.36673000  0.74655200  1
  Co  Co4  1  0.73725200  0.73725200  0.23720700  1
  Co  Co5  1  0.26274800  0.26274800  0.76279300  1
  Cl  Cl0  1  0.46561200  0.03447100  0.74997300  1
  Cl  Cl1  1  0.96552900  0.53438800  0.25002700  1
  Cl  Cl2  1  0.53438800  0.96552900  0.25002700  1
  Cl  Cl3  1  0.03447100  0.46561200  0.74997300  1
  O  O0  1  0.28485800  0.16880300  0.72724500  1
  O  O1  1  0.83119700  0.71514200  0.27275500  1
  O  O2  1  0.71514200  0.83119700  0.27275500  1
  O  O3  1  0.16880300  0.28485800  0.72724500  1
  O  O4  1  0.62493000  0.37507000  0.00000000  1
  O  O5  1  0.12916100  0.87083900  0.50000000  1
  O  O6  1  0.12776300  0.87223700  0.00000000  1
  O  O7  1  0.62777400  0.37222600  0.50000000  1
  O  O8  1  0.37507000  0.62493000  0.00000000  1
  O  O9  1  0.87083900  0.12916100  0.50000000  1
  O  O10  1  0.87223700  0.12776300  0.00000000  1
  O  O11  1  0.37222600  0.62777400  0.50000000  1
  O  O12  1  0.50000000  0.50000000  0.00000000  1
  O  O13  1  0.00000000  0.00000000  0.00000000  1
  O  O14  1  0.50000000  0.50000000  0.50000000  1
loop_
_geom_bond_atom_site_label_1
_geom_bond_atom_site_label_2
_geom_bond_distance
_geom_bond_site_symmetry_2
Co0 O5 1.955237 1_545
Co0 O7 1.963704 1_555
Co0 O6 1.964017 1_546
Co0 O0 1.973869 1_555
Co0 O4 1.993724 1_556
Co1 O5 1.955237 1_655
Co1 O7 1.963704 1_555
Co1 O6 1.964017 1_655
Co1 O1 1.973869 1_555
Co1 O4 1.993724 1_555
Co2 O9 1.955237 1_565
Co2 O11 1.963704 1_555
Co2 O10 1.964017 1_565
Co2 O2 1.973869 1_555
Co2 O8 1.993724 1_555
Co3 O9 1.955237 1_455
Co3 O11 1.963704 1_555
Co3 O10 1.964017 1_456
Co3 O3 1.973869 1_555
Co3 O8 1.993724 1_556
Co4 O1 1.859979 1_555
Co4 O2 1.859979 1_555
Co4 O12 1.860878 1_555
Co4 O13 1.951114 1_665
Co4 O14 1.951449 1_555
Co5 O3 1.859979 1_555
Co5 O0 1.859979 1_555
Co5 O12 1.860878 1_556
Co5 O13 1.951114 1_556
Co5 O14 1.951449 1_555
Cl0 Sr7 2.991601 1_555
Cl0 Sr6 2.991694 1_556
Cl0 Sr6 3.003269 1_555
Cl0 Sr7 3.003754 1_445
Cl0 Co0 3.024327 1_555
Cl0 Sr4 3.340523 1_545
Cl1 Sr6 2.991601 1_555
Cl1 Sr7 2.991694 1_554
Cl1 Sr7 3.003269 1_555
Cl1 Sr6 3.003754 1_665
Cl1 Co1 3.024327 1_555
Cl1 Sr5 3.340523 1_655
Cl2 Sr5 2.991601 1_555
Cl2 Sr4 2.991694 1_554
Cl2 Sr4 3.003269 1_555
Cl2 Sr5 3.003754 1_665
Cl2 Co2 3.024327 1_555
Cl2 Sr6 3.340523 1_565
Cl3 Sr4 2.991601 1_555
Cl3 Sr5 2.991694 1_556
Cl3 Sr5 3.003269 1_555
Cl3 Sr4 3.003754 1_445
Cl3 Co3 3.024327 1_555
Cl3 Sr7 3.340523 1_455
O0 Sr3 2.684977 1_445
O0 Sr2 2.687022 1_555
O0 Sr2 2.866767 1_556
O0 Sr3 2.868942 1_555
O1 Sr2 2.684977 1_665
O1 Sr3 2.687022 1_555
O1 Sr3 2.866767 1_554
O1 Sr2 2.868942 1_555
O2 Sr1 2.684977 1_665
O2 Sr0 2.687022 1_555
O2 Sr0 2.866767 1_554
O2 Sr1 2.868942 1_555
O3 Sr0 2.684977 1_445
O3 Sr1 2.687022 1_555
O3 Sr1 2.866767 1_556
O3 Sr0 2.868942 1_555
O4 Sr6 2.588174 1_555
O4 Sr7 2.588174 1_554
O4 Sr2 2.696801 1_555
O4 Sr3 2.696801 1_554
O5 Sr6 2.515515 1_565
O5 Sr7 2.515515 1_455
O5 Sr3 2.864888 1_455
O5 Sr2 2.864888 1_565
O6 Sr6 2.546070 1_565
O6 Sr7 2.546070 1_454
O6 Sr2 2.806268 1_565
O6 Sr3 2.806268 1_454
O7 Sr6 2.545916 1_555
O7 Sr7 2.545916 1_555
O7 Sr2 2.806344 1_555
O7 Sr3 2.806344 1_555
O8 Sr5 2.588174 1_555
O8 Sr4 2.588174 1_554
O8 Sr1 2.696801 1_555
O8 Sr0 2.696801 1_554
O9 Sr5 2.515515 1_655
O9 Sr4 2.515515 1_545
O9 Sr1 2.864888 1_655
O9 Sr0 2.864888 1_545
O10 Sr5 2.546070 1_655
O10 Sr4 2.546070 1_544
O10 Sr0 2.806268 1_544
O10 Sr1 2.806268 1_655
O11 Sr5 2.545916 1_555
O11 Sr4 2.545916 1_555
O11 Sr1 2.806344 1_555
O11 Sr0 2.806344 1_555
O12 Sr2 2.787131 1_555
O12 Sr0 2.787131 1_554
O12 Sr1 2.787131 1_555
O12 Sr3 2.787131 1_554
O13 Sr3 2.831661 1_444
O13 Sr1 2.831661 1_555
O13 Sr2 2.831661 1_555
O13 Sr0 2.831661 1_444
O14 Sr2 2.831490 1_555
O14 Sr0 2.831490 1_555
O14 Sr3 2.831490 1_555
O14 Sr1 2.831490 1_555
