# generated using pymatgen
data_Rb2MoBr6
_symmetry_space_group_name_H-M   'P 1'
_cell_length_a   7.45620405
_cell_length_b   7.45619801
_cell_length_c   7.45621913
_cell_angle_alpha   59.99995988
_cell_angle_beta   59.99987950
_cell_angle_gamma   60.00016062
_symmetry_Int_Tables_number   1
_chemical_formula_structural   Rb2MoBr6
_chemical_formula_sum   'Rb2 Mo1 Br6'
_cell_volume   293.11556615
_cell_formula_units_Z   1
loop_
 _symmetry_equiv_pos_site_id
 _symmetry_equiv_pos_as_xyz
  1  'x, y, z'
loop_
 _atom_site_type_symbol
 _atom_site_label
 _atom_site_symmetry_multiplicity
 _atom_site_fract_x
 _atom_site_fract_y
 _atom_site_fract_z
 _atom_site_occupancy
  Rb  Rb0  1  0.25000000  0.25000000  0.25000000  1
  Rb  Rb1  1  0.75000000  0.75000000  0.75000000  1
  Mo  Mo0  1  -0.00000000  0.00000000  0.00000000  1
  Br  Br0  1  0.75849822  0.24150178  0.24150178  1
  Br  Br1  1  0.24150178  0.75849822  0.75849822  1
  Br  Br2  1  0.24150178  0.75849822  0.24150178  1
  Br  Br3  1  0.75849822  0.24150178  0.75849822  1
  Br  Br4  1  0.24150178  0.24150178  0.75849822  1
  Br  Br5  1  0.75849822  0.75849822  0.24150178  1
loop_
_geom_bond_atom_site_label_1
_geom_bond_atom_site_label_2
_geom_bond_distance
_geom_bond_site_symmetry_2
Br0 Mo0 2.546558 1_655
Br0 Rb0 3.729179 1_655
Br0 Rb1 3.729179 1_545
Br0 Rb0 3.729179 1_555
Br0 Rb1 3.729179 1_554
Br1 Mo0 2.546558 1_566
Br1 Rb1 3.729179 1_455
Br1 Rb0 3.729179 1_556
Br1 Rb1 3.729179 1_555
Br1 Rb0 3.729179 1_565
Br2 Mo0 2.546563 1_565
Br2 Rb0 3.729176 1_555
Br2 Rb1 3.729176 1_455
Br2 Rb1 3.729176 1_554
Br2 Rb0 3.729176 1_565
Br3 Mo0 2.546563 1_656
Br3 Rb1 3.729176 1_545
Br3 Rb1 3.729176 1_555
Br3 Rb0 3.729176 1_556
Br3 Rb0 3.729176 1_655
Br4 Mo0 2.546548 1_556
Br4 Rb1 3.729186 1_545
Br4 Rb0 3.729186 1_555
Br4 Rb0 3.729186 1_556
Br4 Rb1 3.729186 1_455
Br5 Mo0 2.546548 1_665
Br5 Rb1 3.729186 1_555
Br5 Rb1 3.729186 1_554
Br5 Rb0 3.729186 1_565
Br5 Rb0 3.729186 1_655
