# generated using pymatgen
data_Li9Mn2Co5O16
_symmetry_space_group_name_H-M   'P 1'
_cell_length_a   2.90192100
_cell_length_b   9.78210400
_cell_length_c   10.27711499
_cell_angle_alpha   79.63582107
_cell_angle_beta   90.00000000
_cell_angle_gamma   90.00000000
_symmetry_Int_Tables_number   1
_chemical_formula_structural   Li9Mn2Co5O16
_chemical_formula_sum   'Li9 Mn2 Co5 O16'
_cell_volume   286.97544986
_cell_formula_units_Z   1
loop_
 _symmetry_equiv_pos_site_id
 _symmetry_equiv_pos_as_xyz
  1  'x, y, z'
loop_
 _atom_site_type_symbol
 _atom_site_label
 _atom_site_symmetry_multiplicity
 _atom_site_fract_x
 _atom_site_fract_y
 _atom_site_fract_z
 _atom_site_occupancy
  Li  Li0  1  0.50000000  0.99623200  0.24394500  1
  Li  Li1  1  0.50000000  0.00340200  0.75418900  1
  Li  Li2  1  0.00000000  0.75475200  0.35714100  1
  Li  Li3  1  0.00000000  0.74060600  0.89159300  1
  Li  Li4  1  0.50000000  0.49559200  0.49227700  1
  Li  Li5  1  0.50000000  0.49782000  0.00872500  1
  Li  Li6  1  0.00000000  0.25487000  0.12753500  1
  Li  Li7  1  0.00000000  0.25258100  0.62344200  1
  Li  Li8  1  0.50000000  0.75039400  0.12880800  1
  Mn  Mn0  1  0.00000000  0.99039600  0.00739300  1
  Mn  Mn1  1  0.50000000  0.75035400  0.62625300  1
  Co  Co0  1  0.00000000  0.00739100  0.49603600  1
  Co  Co1  1  0.00000000  0.51716300  0.23614800  1
  Co  Co2  1  0.00000000  0.49448300  0.75280500  1
  Co  Co3  1  0.50000000  0.25903600  0.37118100  1
  Co  Co4  1  0.50000000  0.24802400  0.87422200  1
  O  O0  1  0.50000000  0.10986900  0.05267500  1
  O  O1  1  0.50000000  0.11602100  0.55703500  1
  O  O2  1  0.00000000  0.88646100  0.17424100  1
  O  O3  1  0.00000000  0.86211200  0.67942200  1
  O  O4  1  0.50000000  0.61545400  0.31083300  1
  O  O5  1  0.50000000  0.62830600  0.79801700  1
  O  O6  1  0.00000000  0.36705700  0.93152000  1
  O  O7  1  0.00000000  0.37016700  0.43001400  1
  O  O8  1  0.50000000  0.87736400  0.45265500  1
  O  O9  1  0.50000000  0.88799500  0.94489700  1
  O  O10  1  0.00000000  0.64053700  0.57179400  1
  O  O11  1  0.00000000  0.61553700  0.07021600  1
  O  O12  1  0.50000000  0.37677400  0.69322700  1
  O  O13  1  0.50000000  0.37960500  0.19567000  1
  O  O14  1  0.00000000  0.13263700  0.32021700  1
  O  O15  1  0.00000000  0.12100900  0.82587200  1
loop_
_geom_bond_atom_site_label_1
_geom_bond_atom_site_label_2
_geom_bond_distance
_geom_bond_site_symmetry_2
Li0 O2 2.012027 1_655
Li0 O2 2.012027 1_555
Li0 O0 2.076885 1_565
Li0 O14 2.208275 1_565
Li0 O14 2.208275 1_665
Li0 O8 2.248425 1_555
Li1 O15 2.067964 1_655
Li1 O15 2.067964 1_555
Li1 O9 2.078382 1_545
Li1 O1 2.125059 1_555
Li1 O3 2.233397 1_645
Li1 O3 2.233397 1_545
Li2 O2 2.078892 1_555
Li2 O4 2.102823 1_555
Li2 O4 2.102823 1_455
Li2 O8 2.220592 1_455
Li2 O8 2.220592 1_555
Li2 O10 2.286472 1_555
Li3 O11 2.014599 1_556
Li3 O5 2.148726 1_455
Li3 O5 2.148726 1_555
Li3 O9 2.183639 1_455
Li3 O9 2.183639 1_555
Li3 O3 2.287972 1_555
Li4 O4 2.016250 1_555
Li4 O7 2.074259 1_555
Li4 O7 2.074259 1_655
Li4 O12 2.179965 1_555
Li4 O10 2.280431 1_655
Li4 O10 2.280431 1_555
Li5 O11 2.022988 1_555
Li5 O11 2.022988 1_655
Li5 O13 2.056470 1_555
Li5 O6 2.176284 1_654
Li5 O6 2.176284 1_554
Li5 O5 2.307378 1_554
Li6 O13 2.095674 1_455
Li6 O13 2.095674 1_555
Li6 O6 2.113525 1_554
Li6 O14 2.121087 1_555
Li6 O0 2.258699 1_455
Li6 O0 2.258699 1_555
Li7 O12 2.099774 1_455
Li7 O12 2.099774 1_555
Li7 O7 2.109978 1_555
Li7 O1 2.164154 1_455
Li7 O1 2.164154 1_555
Li7 O15 2.240789 1_555
Li8 O2 2.078108 1_655
Li8 O2 2.078108 1_555
Li8 O4 2.086481 1_555
Li8 O9 2.113950 1_554
Li8 O11 2.119893 1_655
Li8 O11 2.119893 1_555
Mn0 O2 1.829388 1_555
Mn0 O9 1.937187 1_554
Mn0 O9 1.937187 1_454
Mn0 O0 1.970634 1_565
Mn0 O0 1.970634 1_465
Mn0 O15 2.062758 1_564
Mn1 O5 1.945029 1_555
Mn1 O10 1.946498 1_555
Mn1 O10 1.946498 1_655
Mn1 O3 1.952934 1_555
Mn1 O3 1.952934 1_655
Mn1 O8 1.982180 1_555
Co0 O1 1.966508 1_455
Co0 O1 1.966508 1_555
Co0 O14 1.992345 1_555
Co0 O8 2.031235 1_445
Co0 O8 2.031235 1_545
Co0 O3 2.146610 1_545
Co1 O11 1.801009 1_555
Co1 O4 1.970892 1_455
Co1 O4 1.970892 1_555
Co1 O13 2.071330 1_555
Co1 O13 2.071330 1_455
Co1 O7 2.237502 1_555
Co2 O12 2.014863 1_455
Co2 O12 2.014863 1_555
Co2 O6 2.025679 1_555
Co2 O5 2.062452 1_455
Co2 O5 2.062452 1_555
Co2 O10 2.132027 1_555
Co3 O13 1.969539 1_555
Co3 O7 1.972091 1_655
Co3 O7 1.972091 1_555
Co3 O14 2.035051 1_555
Co3 O14 2.035051 1_655
Co3 O1 2.154989 1_555
Co4 O6 2.013594 1_555
Co4 O6 2.013594 1_655
Co4 O15 2.029304 1_655
Co4 O15 2.029304 1_555
Co4 O12 2.050189 1_555
Co4 O0 2.073187 1_556
