# generated using pymatgen
data_SbN
_symmetry_space_group_name_H-M   'P 1'
_cell_length_a   15.31980858
_cell_length_b   16.88696029
_cell_length_c   15.34277427
_cell_angle_alpha   84.32079566
_cell_angle_beta   93.08664421
_cell_angle_gamma   85.95960023
_symmetry_Int_Tables_number   1
_chemical_formula_structural   SbN
_chemical_formula_sum   'Sb50 N50'
_cell_volume   3932.55034873
_cell_formula_units_Z   50
loop_
 _symmetry_equiv_pos_site_id
 _symmetry_equiv_pos_as_xyz
  1  'x, y, z'
loop_
 _atom_site_type_symbol
 _atom_site_label
 _atom_site_symmetry_multiplicity
 _atom_site_fract_x
 _atom_site_fract_y
 _atom_site_fract_z
 _atom_site_occupancy
  Sb  Sb0  1  0.41307382  0.20302015  0.82531400  1
  Sb  Sb1  1  0.46205587  0.48714669  0.33043533  1
  Sb  Sb2  1  0.81868469  0.51393983  0.36782398  1
  Sb  Sb3  1  0.96981191  0.66328031  0.42409856  1
  Sb  Sb4  1  0.28663542  0.89258012  0.48749460  1
  Sb  Sb5  1  0.86737738  0.29915731  0.60307638  1
  Sb  Sb6  1  0.31701908  0.74320852  0.39875946  1
  Sb  Sb7  1  0.59493427  0.24349524  0.82535069  1
  Sb  Sb8  1  0.79331512  0.16368550  0.14820597  1
  Sb  Sb9  1  0.29191012  0.99933677  0.62815526  1
  Sb  Sb10  1  0.40853705  0.63692328  0.13071254  1
  Sb  Sb11  1  0.90841900  0.52708747  0.17014350  1
  Sb  Sb12  1  0.63051145  0.47248058  0.10019927  1
  Sb  Sb13  1  0.90263151  0.14063623  0.35434899  1
  Sb  Sb14  1  0.48623481  0.74714872  0.25846128  1
  Sb  Sb15  1  0.45055001  0.04517659  0.68103818  1
  Sb  Sb16  1  0.70213347  0.53523487  0.51156002  1
  Sb  Sb17  1  0.38889147  0.37781648  0.66134891  1
  Sb  Sb18  1  0.35532853  0.23074027  0.58927061  1
  Sb  Sb19  1  0.23723035  0.68225353  0.58916328  1
  Sb  Sb20  1  0.86638517  0.83164847  0.33189845  1
  Sb  Sb21  1  0.08484732  0.57493457  0.15739293  1
  Sb  Sb22  1  0.06817841  0.21644059  0.45686828  1
  Sb  Sb23  1  0.07764731  0.85426694  0.54077441  1
  Sb  Sb24  1  0.92241706  0.33596841  0.42532611  1
  Sb  Sb25  1  0.12612684  0.01906088  0.47584903  1
  Sb  Sb26  1  0.74425961  0.37675997  0.99745372  1
  Sb  Sb27  1  0.57552028  0.37392510  0.69096417  1
  Sb  Sb28  1  0.62536016  0.40109225  0.44382293  1
  Sb  Sb29  1  0.83211596  0.75762631  0.50267691  1
  Sb  Sb30  1  0.03136083  0.08261818  0.63910294  1
  Sb  Sb31  1  0.95157173  0.70130453  0.17145671  1
  Sb  Sb32  1  0.86272498  0.08946590  0.54291238  1
  Sb  Sb33  1  0.20743160  0.32830928  0.45396319  1
  Sb  Sb34  1  0.27336037  0.45362269  0.22545241  1
  Sb  Sb35  1  0.31467035  0.40160557  0.85209314  1
  Sb  Sb36  1  0.76280212  0.66744304  0.26559407  1
  Sb  Sb37  1  0.12510657  0.27051751  0.66899520  1
  Sb  Sb38  1  0.57796518  0.60313067  0.21860359  1
  Sb  Sb39  1  0.21524710  0.53457099  0.39084581  1
  Sb  Sb40  1  0.45096154  0.41959263  0.12379174  1
  Sb  Sb41  1  0.63067693  0.35949695  0.26010051  1
  Sb  Sb42  1  0.91635106  0.43368098  0.02079151  1
  Sb  Sb43  1  0.55102126  0.40770182  0.87467105  1
  Sb  Sb44  1  0.84610208  0.33078242  0.15906962  1
  Sb  Sb45  1  0.02142325  0.45728690  0.50238206  1
  Sb  Sb46  1  0.04958224  0.85189384  0.35282734  1
  Sb  Sb47  1  0.66487622  0.73811827  0.40074013  1
  Sb  Sb48  1  0.48443031  0.61597317  0.47335583  1
  Sb  Sb49  1  0.03519160  0.02311093  0.30363622  1
  N  N0  1  0.13275081  0.23976988  0.25295882  1
  N  N1  1  0.23983353  0.97797475  0.20323525  1
  N  N2  1  0.17989740  0.54051922  0.25598339  1
  N  N3  1  0.94245427  0.54650802  0.41839025  1
  N  N4  1  0.42228362  0.88169090  0.89635109  1
  N  N5  1  0.84276569  0.70399721  0.88702200  1
  N  N6  1  0.96741640  0.29325179  0.85547127  1
  N  N7  1  0.19350098  0.65769733  0.97873379  1
  N  N8  1  0.16493891  0.18446218  0.23091510  1
  N  N9  1  0.61439886  0.71987262  0.89652930  1
  N  N10  1  0.24834292  0.78170219  0.77932018  1
  N  N11  1  0.40258882  0.61541633  0.68952299  1
  N  N12  1  0.17031843  0.29055004  0.00660764  1
  N  N13  1  0.29226155  0.01099466  0.23311438  1
  N  N14  1  0.20860112  0.80516143  0.54387987  1
  N  N15  1  0.28972218  0.76861572  0.84167956  1
  N  N16  1  0.42858450  0.86385681  0.96838961  1
  N  N17  1  0.07367549  0.65561252  0.80239178  1
  N  N18  1  0.79531192  0.13308966  0.27541268  1
  N  N19  1  0.59960367  0.98731634  0.92635417  1
  N  N20  1  0.85250703  0.18491373  0.61182071  1
  N  N21  1  0.91996310  0.11300669  0.11196415  1
  N  N22  1  0.92774089  0.10855927  0.03361906  1
  N  N23  1  0.01824907  0.24236922  0.86033494  1
  N  N24  1  0.22718131  0.29165403  0.59111557  1
  N  N25  1  0.02290722  0.85473918  0.78065152  1
  N  N26  1  0.39249344  0.15802403  0.70372834  1
  N  N27  1  0.32296718  0.46303930  0.35303844  1
  N  N28  1  0.19361158  0.71765966  0.00275758  1
  N  N29  1  0.01831227  0.61724974  0.81400319  1
  N  N30  1  0.32728304  0.63272362  0.70550557  1
  N  N31  1  0.61704074  0.63378367  0.45898986  1
  N  N32  1  0.74900920  0.90322300  0.12181992  1
  N  N33  1  0.14407474  0.32458231  0.05947737  1
  N  N34  1  0.82040911  0.65550018  0.93323019  1
  N  N35  1  0.47505836  0.59731701  0.67597164  1
  N  N36  1  0.35278775  0.31161696  0.77633202  1
  N  N37  1  0.44587507  0.71326045  0.38364386  1
  N  N38  1  0.78232475  0.95223009  0.08625943  1
  N  N39  1  0.95793557  0.88473329  0.79206005  1
  N  N40  1  0.38030138  0.51744341  0.17599446  1
  N  N41  1  0.14195697  0.44058185  0.44297116  1
  N  N42  1  0.89846647  0.70629943  0.30139546  1
  N  N43  1  0.42457052  0.43664136  0.89832808  1
  N  N44  1  0.49356861  0.39028927  0.25590646  1
  N  N45  1  0.07451431  0.18950838  0.59273779  1
  N  N46  1  0.57888849  0.01498307  0.98566004  1
  N  N47  1  0.33700111  0.66853466  0.51094417  1
  N  N48  1  0.58755845  0.75676881  0.83553512  1
  N  N49  1  0.93850644  0.10287557  0.96015057  1
loop_
_geom_bond_atom_site_label_1
_geom_bond_atom_site_label_2
_geom_bond_distance
_geom_bond_site_symmetry_2
Sb0 Sb7 2.915065 1_555
Sb1 Sb28 3.148942 1_555
Sb1 Sb38 3.175913 1_555
Sb2 Sb24 3.314723 1_555
Sb4 Sb9 2.947182 1_555
Sb10 Sb38 2.853644 1_555
Sb11 Sb21 2.886160 1_655
Sb11 Sb42 2.910670 1_555
Sb11 Sb31 3.062216 1_555
Sb11 Sb2 3.390689 1_555
Sb12 Sb26 2.921944 1_554
Sb12 Sb41 2.954883 1_555
Sb12 Sb40 2.980655 1_555
Sb12 Sb38 3.084866 1_555
Sb13 Sb49 2.928510 1_655
Sb14 Sb38 2.858119 1_555
Sb15 Sb9 2.709451 1_545
Sb16 Sb28 2.881769 1_555
Sb17 Sb27 2.865840 1_555
Sb20 Sb46 2.855971 1_655
Sb20 Sb29 2.880288 1_555
Sb22 Sb24 2.889630 1_455
Sb22 Sb25 3.368357 1_555
Sb23 Sb46 2.897165 1_555
Sb23 Sb25 3.018365 1_565
Sb24 Sb5 2.919059 1_555
Sb24 Sb45 2.935914 1_655
Sb25 Sb49 2.912246 1_555
Sb25 Sb4 3.126886 1_545
Sb25 Sb30 3.199629 1_555
Sb25 Sb9 3.333106 1_545
Sb26 Sb44 2.866582 1_556
Sb26 Sb42 2.885547 1_556
Sb26 Sb43 3.401803 1_555
Sb27 Sb7 2.851990 1_555
Sb27 Sb43 2.968586 1_555
Sb28 Sb41 2.975611 1_555
Sb29 Sb3 2.936351 1_555
Sb29 Sb47 2.984667 1_555
Sb36 Sb38 3.175861 1_555
Sb42 Sb44 2.908343 1_555
Sb43 Sb7 2.986917 1_555
Sb44 Sb8 3.007360 1_555
Sb46 Sb49 2.904894 1_565
N0 N8 1.115995 1_555
N1 N13 1.113662 1_565
N2 Sb21 2.053239 1_555
N2 Sb34 2.082086 1_555
N2 Sb39 2.101268 1_555
N3 Sb3 2.053905 1_555
N3 Sb2 2.138378 1_555
N3 Sb45 2.141328 1_655
N10 N15 1.113189 1_555
N11 N35 1.165698 1_555
N11 N30 1.213936 1_555
N12 N33 1.115681 1_555
N14 Sb23 2.112380 1_555
N14 Sb4 2.112852 1_555
N14 Sb19 2.129893 1_555
N16 N4 1.113631 1_555
N17 N29 1.114292 1_555
N18 Sb8 1.966926 1_555
N18 Sb13 2.007925 1_555
N19 N46 1.114130 1_565
N20 Sb5 1.950849 1_555
N20 Sb32 2.014890 1_555
N21 N22 1.223416 1_555
N21 Sb8 2.186880 1_555
N22 N49 1.160267 1_554
N23 N6 1.112243 1_455
N24 Sb37 2.048413 1_555
N24 Sb33 2.133076 1_555
N24 Sb18 2.154114 1_555
N25 N39 1.114981 1_455
N26 Sb18 2.069526 1_555
N26 Sb0 2.099448 1_555
N26 Sb15 2.114133 1_555
N27 Sb34 2.086424 1_555
N27 Sb39 2.116558 1_555
N27 Sb1 2.236121 1_555
N28 N7 1.111408 1_554
N30 Sb19 2.250738 1_555
N31 Sb47 2.093053 1_555
N31 Sb48 2.094639 1_555
N31 Sb16 2.105910 1_555
N32 N38 1.114992 1_555
N34 N5 1.114183 1_555
N36 Sb0 2.048085 1_555
N36 Sb35 2.073421 1_555
N36 Sb17 2.114188 1_555
N37 Sb6 2.034269 1_555
N37 Sb48 2.066558 1_555
N37 Sb14 2.087797 1_555
N40 Sb10 2.149100 1_555
N40 Sb34 2.154588 1_555
N40 Sb40 2.155685 1_555
N40 Sb1 2.606789 1_555
N41 Sb33 2.068737 1_555
N41 Sb45 2.116359 1_555
N41 Sb39 2.125097 1_555
N42 Sb3 2.159266 1_555
N42 Sb31 2.200410 1_555
N42 Sb20 2.239531 1_555
N42 Sb36 2.278682 1_555
N43 Sb35 1.944930 1_555
N43 Sb43 2.025028 1_555
N44 Sb40 2.095987 1_555
N44 Sb41 2.124011 1_555
N44 Sb1 2.129373 1_555
N45 Sb30 2.041074 1_555
N45 Sb37 2.051726 1_555
N45 Sb22 2.084762 1_555
N47 Sb19 2.008181 1_555
N47 Sb6 2.026268 1_555
N47 Sb48 2.486107 1_555
N48 N9 1.113598 1_555
