# generated using pymatgen
data_Rb6Si2O7
_symmetry_space_group_name_H-M   'P 1'
_cell_length_a   9.21448849
_cell_length_b   6.74760263
_cell_length_c   11.32063384
_cell_angle_alpha   54.49150151
_cell_angle_beta   90.00000000
_cell_angle_gamma   90.00000000
_symmetry_Int_Tables_number   1
_chemical_formula_structural   Rb6Si2O7
_chemical_formula_sum   'Rb12 Si4 O14'
_cell_volume   572.96956221
_cell_formula_units_Z   2
loop_
 _symmetry_equiv_pos_site_id
 _symmetry_equiv_pos_as_xyz
  1  'x, y, z'
loop_
 _atom_site_type_symbol
 _atom_site_label
 _atom_site_symmetry_multiplicity
 _atom_site_fract_x
 _atom_site_fract_y
 _atom_site_fract_z
 _atom_site_occupancy
  Rb  Rb0  1  0.35258828  0.51689510  0.59295815  1
  Rb  Rb1  1  0.14741172  0.51689510  0.09295815  1
  Rb  Rb2  1  0.64741172  0.48310490  0.40704185  1
  Rb  Rb3  1  0.97441495  0.70755568  0.54495727  1
  Rb  Rb4  1  0.47441495  0.29244432  0.95504273  1
  Rb  Rb5  1  0.02558505  0.29244432  0.45504273  1
  Rb  Rb6  1  0.52558505  0.70755568  0.04495727  1
  Rb  Rb7  1  0.27673244  0.88900092  0.72478932  1
  Rb  Rb8  1  0.77673244  0.11099908  0.77521068  1
  Rb  Rb9  1  0.72326756  0.11099908  0.27521068  1
  Rb  Rb10  1  0.22326756  0.88900092  0.22478932  1
  Rb  Rb11  1  0.85258828  0.48310490  0.90704185  1
  Si  Si0  1  0.63150414  0.83391253  0.62293965  1
  Si  Si1  1  0.86849586  0.83391253  0.12293965  1
  Si  Si2  1  0.36849586  0.16608747  0.37706035  1
  Si  Si3  1  0.13150414  0.16608747  0.87706035  1
  O  O0  1  0.27652712  0.99497099  0.93514949  1
  O  O1  1  -0.00000000  0.00000000  -0.00000000  1
  O  O2  1  0.50000000  0.00000000  0.50000000  1
  O  O3  1  0.92207320  0.77033389  0.27870547  1
  O  O4  1  0.77652712  0.00502901  0.56485051  1
  O  O5  1  0.72347288  0.00502901  0.06485051  1
  O  O6  1  0.22347288  0.99497099  0.43514949  1
  O  O7  1  0.65580298  0.58905205  0.62768937  1
  O  O8  1  0.15580298  0.41094795  0.87231063  1
  O  O9  1  0.34419702  0.41094795  0.37231063  1
  O  O10  1  0.84419702  0.58905205  0.12768937  1
  O  O11  1  0.57792680  0.77033389  0.77870547  1
  O  O12  1  0.07792680  0.22966611  0.72129453  1
  O  O13  1  0.42207320  0.22966611  0.22129453  1
loop_
_geom_bond_atom_site_label_1
_geom_bond_atom_site_label_2
_geom_bond_distance
_geom_bond_site_symmetry_2
O0 Si3 1.633803 1_565
O0 Rb6 2.787949 1_556
O0 Rb4 2.815976 1_565
O0 Rb7 2.856655 1_555
O0 Rb1 2.884211 1_556
O0 Rb10 2.963074 1_556
O0 Rb0 3.471667 1_565
O1 Si3 1.688016 1_554
O1 Si1 1.688016 1_445
O1 Rb10 3.009180 1_545
O1 Rb8 3.009180 1_454
O1 Rb11 3.097388 1_454
O1 Rb1 3.097388 1_545
O2 Si2 1.688016 1_555
O2 Si0 1.688016 1_545
O2 Rb9 3.009180 1_555
O2 Rb7 3.009180 1_545
O2 Rb2 3.097388 1_555
O2 Rb0 3.097388 1_545
O3 Si1 1.630479 1_555
O3 Rb5 2.795567 1_655
O3 Rb3 2.830884 1_555
O3 Rb10 2.854565 1_655
O3 Rb9 2.921583 1_565
O3 Rb2 3.000228 1_555
O4 Si0 1.633803 1_545
O4 Rb5 2.787949 1_655
O4 Rb3 2.815976 1_545
O4 Rb8 2.856655 1_555
O4 Rb2 2.884211 1_555
O4 Rb9 2.963074 1_555
O4 Rb11 3.471667 1_545
O5 Si1 1.633803 1_545
O5 Rb4 2.787949 1_554
O5 Rb6 2.815976 1_545
O5 Rb9 2.856655 1_555
O5 Rb11 2.884211 1_554
O5 Rb8 2.963074 1_554
O5 Rb2 3.471667 1_545
O6 Si2 1.633803 1_565
O6 Rb3 2.787949 1_455
O6 Rb5 2.815976 1_565
O6 Rb10 2.856655 1_555
O6 Rb0 2.884211 1_555
O6 Rb7 2.963074 1_555
O6 Rb1 3.471667 1_565
O7 Si0 1.636966 1_555
O7 Rb8 2.859729 1_555
O7 Rb0 2.901773 1_555
O7 Rb2 2.971658 1_555
O7 Rb3 3.043977 1_555
O7 Rb11 3.342732 1_555
O8 Si3 1.636966 1_555
O8 Rb7 2.859729 1_555
O8 Rb11 2.901773 1_455
O8 Rb1 2.971658 1_556
O8 Rb4 3.043977 1_555
O8 Rb0 3.342732 1_555
O9 Si2 1.636966 1_555
O9 Rb10 2.859729 1_555
O9 Rb2 2.901773 1_555
O9 Rb0 2.971658 1_555
O9 Rb5 3.043977 1_555
O9 Rb1 3.342732 1_555
O10 Si1 1.636966 1_555
O10 Rb9 2.859729 1_555
O10 Rb1 2.901773 1_655
O10 Rb11 2.971658 1_554
O10 Rb6 3.043977 1_555
O10 Rb2 3.342732 1_555
O11 Si0 1.630479 1_555
O11 Rb4 2.795567 1_555
O11 Rb6 2.830884 1_556
O11 Rb7 2.854565 1_555
O11 Rb8 2.921583 1_565
O11 Rb11 3.000228 1_555
O12 Si3 1.630479 1_555
O12 Rb3 2.795567 1_455
O12 Rb5 2.830884 1_555
O12 Rb8 2.854565 1_455
O12 Rb7 2.921583 1_545
O12 Rb0 3.000228 1_555
O13 Si2 1.630479 1_555
O13 Rb6 2.795567 1_555
O13 Rb4 2.830884 1_554
O13 Rb9 2.854565 1_555
O13 Rb10 2.921583 1_545
O13 Rb1 3.000228 1_555
