# generated using pymatgen
data_H16OsC4S4Br8N8O3
_symmetry_space_group_name_H-M   'P 1'
_cell_length_a   9.48661709
_cell_length_b   9.48661709
_cell_length_c   17.36811200
_cell_angle_alpha   90.00000000
_cell_angle_beta   90.00000000
_cell_angle_gamma   98.57147483
_symmetry_Int_Tables_number   1
_chemical_formula_structural   H16OsC4S4Br8N8O3
_chemical_formula_sum   'H32 Os2 C8 S8 Br16 N16 O6'
_cell_volume   1545.60067169
_cell_formula_units_Z   2
loop_
 _symmetry_equiv_pos_site_id
 _symmetry_equiv_pos_as_xyz
  1  'x, y, z'
loop_
 _atom_site_type_symbol
 _atom_site_label
 _atom_site_symmetry_multiplicity
 _atom_site_fract_x
 _atom_site_fract_y
 _atom_site_fract_z
 _atom_site_occupancy
  H  H0  1  0.38079600  0.10711500  0.16801700  1
  H  H1  1  0.10711500  0.38079600  0.83198300  1
  H  H2  1  0.38079600  0.10711500  0.33198300  1
  H  H3  1  0.10711500  0.38079600  0.66801700  1
  H  H4  1  0.61920400  0.89288500  0.83198300  1
  H  H5  1  0.89288500  0.61920400  0.16801700  1
  H  H6  1  0.61920400  0.89288500  0.66801700  1
  H  H7  1  0.89288500  0.61920400  0.33198300  1
  H  H8  1  0.36597800  0.93431900  0.12065200  1
  H  H9  1  0.93431900  0.36597800  0.87934800  1
  H  H10  1  0.36597800  0.93431900  0.37934800  1
  H  H11  1  0.93431900  0.36597800  0.62065200  1
  H  H12  1  0.63402200  0.06568100  0.87934800  1
  H  H13  1  0.06568100  0.63402200  0.12065200  1
  H  H14  1  0.63402200  0.06568100  0.62065200  1
  H  H15  1  0.06568100  0.63402200  0.37934800  1
  H  H16  1  0.28315200  0.06667200  0.93852400  1
  H  H17  1  0.06667200  0.28315200  0.06147600  1
  H  H18  1  0.28315200  0.06667200  0.56147600  1
  H  H19  1  0.06667200  0.28315200  0.43852400  1
  H  H20  1  0.71684800  0.93332800  0.06147600  1
  H  H21  1  0.93332800  0.71684800  0.93852400  1
  H  H22  1  0.71684800  0.93332800  0.43852400  1
  H  H23  1  0.93332800  0.71684800  0.56147600  1
  H  H24  1  0.31304600  0.91463700  0.99106900  1
  H  H25  1  0.91463700  0.31304600  0.00893100  1
  H  H26  1  0.31304600  0.91463700  0.50893100  1
  H  H27  1  0.91463700  0.31304600  0.49106900  1
  H  H28  1  0.68695400  0.08536300  0.00893100  1
  H  H29  1  0.08536300  0.68695400  0.99106900  1
  H  H30  1  0.68695400  0.08536300  0.49106900  1
  H  H31  1  0.08536300  0.68695400  0.50893100  1
  Os  Os0  1  0.15408900  0.84591100  0.75000000  1
  Os  Os1  1  0.84591100  0.15408900  0.25000000  1
  C  C0  1  0.33613800  0.09894000  0.05212800  1
  C  C1  1  0.09894000  0.33613800  0.94787200  1
  C  C2  1  0.33613800  0.09894000  0.44787200  1
  C  C3  1  0.09894000  0.33613800  0.55212800  1
  C  C4  1  0.66386200  0.90106000  0.94787200  1
  C  C5  1  0.90106000  0.66386200  0.05212800  1
  C  C6  1  0.66386200  0.90106000  0.55212800  1
  C  C7  1  0.90106000  0.66386200  0.44787200  1
  S  S0  1  0.33246600  0.28658300  0.05539300  1
  S  S1  1  0.28658300  0.33246600  0.94460700  1
  S  S2  1  0.33246600  0.28658300  0.44460700  1
  S  S3  1  0.28658300  0.33246600  0.55539300  1
  S  S4  1  0.66753400  0.71341700  0.94460700  1
  S  S5  1  0.71341700  0.66753400  0.05539300  1
  S  S6  1  0.66753400  0.71341700  0.55539300  1
  S  S7  1  0.71341700  0.66753400  0.44460700  1
  Br  Br0  1  0.02941600  0.97058400  0.64928900  1
  Br  Br1  1  0.97058400  0.02941600  0.35071100  1
  Br  Br2  1  0.02941600  0.97058400  0.85071100  1
  Br  Br3  1  0.97058400  0.02941600  0.14928900  1
  Br  Br4  1  0.35052500  0.04999400  0.75000000  1
  Br  Br5  1  0.04999400  0.35052500  0.25000000  1
  Br  Br6  1  0.64947500  0.95000600  0.25000000  1
  Br  Br7  1  0.95000600  0.64947500  0.75000000  1
  Br  Br8  1  0.27568900  0.72431100  0.85074200  1
  Br  Br9  1  0.72431100  0.27568900  0.14925800  1
  Br  Br10  1  0.27568900  0.72431100  0.64925800  1
  Br  Br11  1  0.72431100  0.27568900  0.35074200  1
  Br  Br12  1  0.30728400  0.69271600  0.07845600  1
  Br  Br13  1  0.69271600  0.30728400  0.92154400  1
  Br  Br14  1  0.30728400  0.69271600  0.42154400  1
  Br  Br15  1  0.69271600  0.30728400  0.57845600  1
  N  N0  1  0.36811500  0.04362400  0.11817200  1
  N  N1  1  0.04362400  0.36811500  0.88182800  1
  N  N2  1  0.36811500  0.04362400  0.38182800  1
  N  N3  1  0.04362400  0.36811500  0.61817200  1
  N  N4  1  0.63188500  0.95637600  0.88182800  1
  N  N5  1  0.95637600  0.63188500  0.11817200  1
  N  N6  1  0.63188500  0.95637600  0.61817200  1
  N  N7  1  0.95637600  0.63188500  0.38182800  1
  N  N8  1  0.31311000  0.02287300  0.98842400  1
  N  N9  1  0.02287300  0.31311000  0.01157600  1
  N  N10  1  0.31311000  0.02287300  0.51157600  1
  N  N11  1  0.02287300  0.31311000  0.48842400  1
  N  N12  1  0.68689000  0.97712700  0.01157600  1
  N  N13  1  0.97712700  0.68689000  0.98842400  1
  N  N14  1  0.68689000  0.97712700  0.48842400  1
  N  N15  1  0.97712700  0.68689000  0.51157600  1
  O  O0  1  0.38523900  0.21352600  0.25000000  1
  O  O1  1  0.21352600  0.38523900  0.75000000  1
  O  O2  1  0.61476100  0.78647400  0.75000000  1
  O  O3  1  0.78647400  0.61476100  0.25000000  1
  O  O4  1  0.47240200  0.52759800  0.25000000  1
  O  O5  1  0.52759800  0.47240200  0.75000000  1
loop_
_geom_bond_atom_site_label_1
_geom_bond_atom_site_label_2
_geom_bond_distance
_geom_bond_site_symmetry_2
H0 N0 1.051245 1_555
H0 O0 1.742299 1_555
H1 N1 1.051245 1_555
H1 O1 1.742299 1_555
H2 N2 1.051245 1_555
H2 O0 1.742299 1_555
H3 N3 1.051245 1_555
H3 O1 1.742299 1_555
H4 N4 1.051245 1_555
H4 O2 1.742299 1_555
H5 N5 1.051245 1_555
H5 O3 1.742299 1_555
H6 N6 1.051245 1_555
H6 O2 1.742299 1_555
H7 N7 1.051245 1_555
H7 O3 1.742299 1_555
H8 N0 1.035004 1_565
H9 N1 1.035004 1_655
H10 N2 1.035004 1_565
H11 N3 1.035004 1_655
H12 N4 1.035004 1_545
H13 N5 1.035004 1_455
H14 N6 1.035004 1_545
H15 N7 1.035004 1_455
H16 N8 1.019671 1_555
H17 N9 1.019671 1_555
H18 N10 1.019671 1_555
H19 N11 1.019671 1_555
H20 N12 1.019671 1_555
H21 N13 1.019671 1_555
H22 N14 1.019671 1_555
H23 N15 1.019671 1_555
H24 N8 1.027730 1_565
H25 N9 1.027730 1_655
H26 N10 1.027730 1_565
H27 N11 1.027730 1_655
H28 N12 1.027730 1_545
H29 N13 1.027730 1_455
H30 N14 1.027730 1_545
H31 N15 1.027730 1_455
C0 N0 1.315521 1_555
C0 N8 1.321222 1_554
C0 S0 1.786522 1_555
C1 N1 1.315521 1_555
C1 N9 1.321222 1_556
C1 S1 1.786522 1_555
C2 N2 1.315521 1_555
C2 N10 1.321222 1_555
C2 S2 1.786522 1_555
C3 N3 1.315521 1_555
C3 N11 1.321222 1_555
C3 S3 1.786522 1_555
C4 N4 1.315521 1_555
C4 N12 1.321222 1_556
C4 S4 1.786522 1_555
C5 N5 1.315521 1_555
C5 N13 1.321222 1_554
C5 S5 1.786522 1_555
C6 N6 1.315521 1_555
C6 N14 1.321222 1_555
C6 S6 1.786522 1_555
C7 N7 1.315521 1_555
C7 N15 1.321222 1_555
C7 S7 1.786522 1_555
S0 S1 2.034142 1_554
S2 S3 2.034142 1_555
S4 S5 2.034142 1_556
S6 S7 2.034142 1_555
Br0 Os0 2.504838 1_555
Br1 Os1 2.504838 1_555
Br2 Os0 2.504838 1_555
Br3 Os1 2.504838 1_555
Br4 Os0 2.479021 1_545
Br5 Os1 2.479021 1_455
Br6 Os1 2.479021 1_565
Br7 Os0 2.479021 1_655
Br8 Os0 2.473778 1_555
Br9 Os1 2.473778 1_555
Br10 Os0 2.473778 1_555
Br11 Os1 2.473778 1_555
