# generated using pymatgen
data_ZnFe(Mo3S4)4
_symmetry_space_group_name_H-M   'P 1'
_cell_length_a   8.93354490
_cell_length_b   8.93354490
_cell_length_c   8.93354455
_cell_angle_alpha   64.02842945
_cell_angle_beta   64.02842945
_cell_angle_gamma   64.02842990
_symmetry_Int_Tables_number   1
_chemical_formula_structural   ZnFe(Mo3S4)4
_chemical_formula_sum   'Zn1 Fe1 Mo12 S16'
_cell_volume   548.86395944
_cell_formula_units_Z   1
loop_
 _symmetry_equiv_pos_site_id
 _symmetry_equiv_pos_as_xyz
  1  'x, y, z'
loop_
 _atom_site_type_symbol
 _atom_site_label
 _atom_site_symmetry_multiplicity
 _atom_site_fract_x
 _atom_site_fract_y
 _atom_site_fract_z
 _atom_site_occupancy
  Zn  Zn0  1  0.50000000  0.50000000  0.50000000  1
  Fe  Fe0  1  0.00000000  0.00000000  0.00000000  1
  Mo  Mo0  1  0.13043600  0.46082600  0.32161700  1
  Mo  Mo1  1  0.63011900  0.95969800  0.82195700  1
  Mo  Mo2  1  0.32161700  0.13043600  0.46082600  1
  Mo  Mo3  1  0.82195700  0.63011900  0.95969800  1
  Mo  Mo4  1  0.46082600  0.32161700  0.13043600  1
  Mo  Mo5  1  0.95969800  0.82195700  0.63011900  1
  Mo  Mo6  1  0.36988100  0.04030200  0.17804300  1
  Mo  Mo7  1  0.86956400  0.53917400  0.67838300  1
  Mo  Mo8  1  0.17804300  0.36988100  0.04030200  1
  Mo  Mo9  1  0.67838300  0.86956400  0.53917400  1
  Mo  Mo10  1  0.04030200  0.17804300  0.36988100  1
  Mo  Mo11  1  0.53917400  0.67838300  0.86956400  1
  S  S0  1  0.39233500  0.39233500  0.39233500  1
  S  S1  1  0.89319000  0.89319000  0.89319000  1
  S  S2  1  0.10681000  0.10681000  0.10681000  1
  S  S3  1  0.60766500  0.60766500  0.60766500  1
  S  S4  1  0.25340000  0.61299100  0.01537900  1
  S  S5  1  0.75591600  0.11047000  0.51397500  1
  S  S6  1  0.01537900  0.25340000  0.61299100  1
  S  S7  1  0.51397500  0.75591600  0.11047000  1
  S  S8  1  0.61299100  0.01537900  0.25340000  1
  S  S9  1  0.11047000  0.51397500  0.75591600  1
  S  S10  1  0.24408400  0.88953000  0.48602500  1
  S  S11  1  0.74660000  0.38700900  0.98462100  1
  S  S12  1  0.48602500  0.24408400  0.88953000  1
  S  S13  1  0.98462100  0.74660000  0.38700900  1
  S  S14  1  0.88953000  0.48602500  0.24408400  1
  S  S15  1  0.38700900  0.98462100  0.74660000  1
loop_
_geom_bond_atom_site_label_1
_geom_bond_atom_site_label_2
_geom_bond_distance
_geom_bond_site_symmetry_2
Fe0 S1 2.263578 1_444
Fe0 S2 2.263578 1_555
Mo0 S14 2.430404 1_455
Mo0 S0 2.439230 1_555
Mo0 S4 2.440824 1_555
Mo0 S13 2.506557 1_455
Mo0 S6 2.523117 1_555
Mo1 S15 2.438320 1_555
Mo1 S5 2.453369 1_565
Mo1 S1 2.457019 1_555
Mo1 S7 2.497282 1_556
Mo1 S12 2.504848 1_565
Mo2 S10 2.430404 1_545
Mo2 S0 2.439230 1_555
Mo2 S6 2.440824 1_555
Mo2 S15 2.506557 1_545
Mo2 S8 2.523117 1_555
Mo3 S11 2.438320 1_555
Mo3 S7 2.453369 1_556
Mo3 S1 2.457019 1_555
Mo3 S9 2.497282 1_655
Mo3 S14 2.504848 1_556
Mo4 S12 2.430404 1_554
Mo4 S0 2.439230 1_555
Mo4 S8 2.440824 1_555
Mo4 S11 2.506557 1_554
Mo4 S4 2.523117 1_555
Mo5 S13 2.438320 1_555
Mo5 S9 2.453369 1_655
Mo5 S1 2.457019 1_555
Mo5 S5 2.497282 1_565
Mo5 S10 2.504848 1_655
Mo6 S8 2.438320 1_555
Mo6 S10 2.453369 1_545
Mo6 S2 2.457019 1_555
Mo6 S12 2.497282 1_554
Mo6 S7 2.504848 1_545
Mo7 S9 2.430404 1_655
Mo7 S3 2.439230 1_555
Mo7 S11 2.440824 1_555
Mo7 S6 2.506557 1_655
Mo7 S13 2.523117 1_555
Mo8 S4 2.438320 1_555
Mo8 S12 2.453369 1_554
Mo8 S2 2.457019 1_555
Mo8 S14 2.497282 1_455
Mo8 S9 2.504848 1_554
Mo9 S5 2.430404 1_565
Mo9 S3 2.439230 1_555
Mo9 S13 2.440824 1_555
Mo9 S8 2.506557 1_565
Mo9 S15 2.523117 1_555
Mo10 S6 2.438320 1_555
Mo10 S14 2.453369 1_455
Mo10 S2 2.457019 1_555
Mo10 S10 2.497282 1_545
Mo10 S5 2.504848 1_455
Mo11 S7 2.430404 1_556
Mo11 S3 2.439230 1_555
Mo11 S15 2.440824 1_555
Mo11 S4 2.506557 1_556
Mo11 S11 2.523117 1_555
S0 Zn0 2.281698 1_555
S3 Zn0 2.281698 1_555
