# generated using pymatgen
data_EuBr3
_symmetry_space_group_name_H-M   'P 1'
_cell_length_a   6.66766724
_cell_length_b   6.66766724
_cell_length_c   5.68695100
_cell_angle_alpha   90.00000000
_cell_angle_beta   90.00000000
_cell_angle_gamma   119.99999251
_symmetry_Int_Tables_number   1
_chemical_formula_structural   EuBr3
_chemical_formula_sum   'Eu2 Br6'
_cell_volume   218.95657273
_cell_formula_units_Z   2
loop_
 _symmetry_equiv_pos_site_id
 _symmetry_equiv_pos_as_xyz
  1  'x, y, z'
loop_
 _atom_site_type_symbol
 _atom_site_label
 _atom_site_symmetry_multiplicity
 _atom_site_fract_x
 _atom_site_fract_y
 _atom_site_fract_z
 _atom_site_occupancy
  Eu  Eu0  1  0.33333300  0.66666700  0.75000000  1
  Eu  Eu1  1  0.66666700  0.33333300  0.25000000  1
  Br  Br0  1  0.17283000  0.34566000  0.25000000  1
  Br  Br1  1  0.65434000  0.82717000  0.25000000  1
  Br  Br2  1  0.17283000  0.82717000  0.25000000  1
  Br  Br3  1  0.82717000  0.65434000  0.75000000  1
  Br  Br4  1  0.34566000  0.17283000  0.75000000  1
  Br  Br5  1  0.82717000  0.17283000  0.75000000  1
loop_
_geom_bond_atom_site_label_1
_geom_bond_atom_site_label_2
_geom_bond_distance
_geom_bond_site_symmetry_2
Br0 Eu1 3.334590 1_455
Br0 Eu1 3.334597 1_555
Br0 Eu0 3.394294 1_555
Br0 Eu0 3.394294 1_554
Br1 Eu1 3.334590 1_565
Br1 Eu1 3.334597 1_555
Br1 Eu0 3.394294 1_555
Br1 Eu0 3.394294 1_554
Br2 Eu1 3.334594 1_565
Br2 Eu1 3.334594 1_455
Br2 Eu0 3.394291 1_554
Br2 Eu0 3.394291 1_555
Br3 Eu0 3.334590 1_655
Br3 Eu0 3.334597 1_555
Br3 Eu1 3.394294 1_555
Br3 Eu1 3.394294 1_556
Br4 Eu0 3.334590 1_545
Br4 Eu0 3.334597 1_555
Br4 Eu1 3.394294 1_555
Br4 Eu1 3.394294 1_556
Br5 Eu0 3.334594 1_655
Br5 Eu0 3.334594 1_545
Br5 Eu1 3.394291 1_556
Br5 Eu1 3.394291 1_555
