# generated using pymatgen
data_RbMnBi
_symmetry_space_group_name_H-M   'P 1'
_cell_length_a   4.87100400
_cell_length_b   4.87100400
_cell_length_c   8.83241000
_cell_angle_alpha   90.00000000
_cell_angle_beta   90.00000000
_cell_angle_gamma   90.00000000
_symmetry_Int_Tables_number   1
_chemical_formula_structural   RbMnBi
_chemical_formula_sum   'Rb2 Mn2 Bi2'
_cell_volume   209.56376542
_cell_formula_units_Z   2
loop_
 _symmetry_equiv_pos_site_id
 _symmetry_equiv_pos_as_xyz
  1  'x, y, z'
loop_
 _atom_site_type_symbol
 _atom_site_label
 _atom_site_symmetry_multiplicity
 _atom_site_fract_x
 _atom_site_fract_y
 _atom_site_fract_z
 _atom_site_occupancy
  Rb  Rb0  1  0.00000000  0.50000000  0.34282300  1
  Rb  Rb1  1  0.50000000  0.00000000  0.65717700  1
  Mn  Mn0  1  0.00000000  0.00000000  0.00000000  1
  Mn  Mn1  1  0.50000000  0.50000000  0.00000000  1
  Bi  Bi0  1  0.00000000  0.50000000  0.81876300  1
  Bi  Bi1  1  0.50000000  0.00000000  0.18123700  1
loop_
_geom_bond_atom_site_label_1
_geom_bond_atom_site_label_2
_geom_bond_distance
_geom_bond_site_symmetry_2
Mn0 Rb1 3.885894 1_554
Mn0 Rb0 3.885894 1_545
Mn0 Rb1 3.885894 1_454
Mn0 Rb0 3.885894 1_555
Mn1 Rb1 3.885894 1_564
Mn1 Rb1 3.885894 1_554
Mn1 Rb0 3.885894 1_655
Mn1 Rb0 3.885894 1_555
Bi0 Mn0 2.914464 1_556
Bi0 Mn1 2.914464 1_556
Bi0 Mn0 2.914464 1_566
Bi0 Mn1 2.914464 1_456
Bi0 Rb1 3.728300 1_565
Bi0 Rb1 3.728300 1_465
Bi0 Rb1 3.728300 1_455
Bi0 Rb1 3.728300 1_555
Bi0 Rb0 4.203697 1_555
Bi1 Mn0 2.914464 1_555
Bi1 Mn1 2.914464 1_555
Bi1 Mn0 2.914464 1_655
Bi1 Mn1 2.914464 1_545
Bi1 Rb0 3.728300 1_545
Bi1 Rb0 3.728300 1_655
Bi1 Rb0 3.728300 1_645
Bi1 Rb0 3.728300 1_555
Bi1 Rb1 4.203697 1_555
