# generated using pymatgen
data_Mg3V2O8
_symmetry_space_group_name_H-M   'P 1'
_cell_length_a   5.73862516
_cell_length_b   5.73862516
_cell_length_c   5.73862612
_cell_angle_alpha   62.97924599
_cell_angle_beta   62.97924599
_cell_angle_gamma   62.97925264
_symmetry_Int_Tables_number   1
_chemical_formula_structural   Mg3V2O8
_chemical_formula_sum   'Mg3 V2 O8'
_cell_volume   142.47135967
_cell_formula_units_Z   1
loop_
 _symmetry_equiv_pos_site_id
 _symmetry_equiv_pos_as_xyz
  1  'x, y, z'
loop_
 _atom_site_type_symbol
 _atom_site_label
 _atom_site_symmetry_multiplicity
 _atom_site_fract_x
 _atom_site_fract_y
 _atom_site_fract_z
 _atom_site_occupancy
  Mg  Mg0  1  0.50000000  0.50000000  0.00000000  1
  Mg  Mg1  1  -0.00000000  0.50000000  0.50000000  1
  Mg  Mg2  1  0.50000000  0.00000000  0.50000000  1
  V  V0  1  0.87597283  0.87597283  0.87597283  1
  V  V1  1  0.12402717  0.12402717  0.12402717  1
  O  O0  1  0.23707852  0.77243300  0.23707852  1
  O  O1  1  0.74440566  0.74440566  0.74440566  1
  O  O2  1  0.76292148  0.76292148  0.22756700  1
  O  O3  1  0.22756700  0.76292148  0.76292148  1
  O  O4  1  0.23707852  0.23707852  0.77243300  1
  O  O5  1  0.77243300  0.23707852  0.23707852  1
  O  O6  1  0.76292148  0.22756700  0.76292148  1
  O  O7  1  0.25559434  0.25559434  0.25559434  1
loop_
_geom_bond_atom_site_label_1
_geom_bond_atom_site_label_2
_geom_bond_distance
_geom_bond_site_symmetry_2
Mg0 O1 2.033380 1_554
Mg0 O7 2.033380 1_555
Mg0 O0 2.120335 1_555
Mg0 O5 2.120335 1_555
Mg0 O3 2.120335 1_554
Mg0 O6 2.120335 1_554
Mg1 O7 2.033380 1_555
Mg1 O1 2.033380 1_455
Mg1 O0 2.120335 1_555
Mg1 O6 2.120335 1_455
Mg1 O4 2.120335 1_555
Mg1 O2 2.120335 1_455
Mg2 O7 2.033380 1_555
Mg2 O1 2.033380 1_545
Mg2 O5 2.120335 1_555
Mg2 O3 2.120335 1_545
Mg2 O4 2.120335 1_555
Mg2 O2 2.120335 1_545
O0 V1 1.707759 1_565
O1 V0 1.806660 1_555
O2 V0 1.707759 1_554
O3 V0 1.707759 1_455
O4 V1 1.707759 1_556
O5 V1 1.707759 1_655
O6 V0 1.707759 1_545
O7 V1 1.806660 1_555
