# generated using pymatgen
data_ZnWO2
_symmetry_space_group_name_H-M   'P 1'
_cell_length_a   2.99614100
_cell_length_b   8.15927367
_cell_length_c   8.67246188
_cell_angle_alpha   95.15509956
_cell_angle_beta   90.60766314
_cell_angle_gamma   98.62409941
_symmetry_Int_Tables_number   1
_chemical_formula_structural   ZnWO2
_chemical_formula_sum   'Zn4 W4 O8'
_cell_volume   208.70250612
_cell_formula_units_Z   4
loop_
 _symmetry_equiv_pos_site_id
 _symmetry_equiv_pos_as_xyz
  1  'x, y, z'
loop_
 _atom_site_type_symbol
 _atom_site_label
 _atom_site_symmetry_multiplicity
 _atom_site_fract_x
 _atom_site_fract_y
 _atom_site_fract_z
 _atom_site_occupancy
  Zn  Zn0  1  0.78534900  0.93411300  0.29083100  1
  Zn  Zn1  1  0.21465100  0.06588700  0.70916900  1
  Zn  Zn2  1  0.32627800  0.13120300  0.04717200  1
  Zn  Zn3  1  0.67372200  0.86879700  0.95282800  1
  W  W0  1  0.56388000  0.68088600  0.58270300  1
  W  W1  1  0.03011000  0.56872000  0.26701700  1
  W  W2  1  0.96989000  0.43128000  0.73298300  1
  W  W3  1  0.43612000  0.31911400  0.41729700  1
  O  O0  1  0.90291300  0.22313000  0.56485700  1
  O  O1  1  0.54633700  0.61013600  0.81280400  1
  O  O2  1  0.45366300  0.38986400  0.18719600  1
  O  O3  1  0.09708700  0.77687000  0.43514300  1
  O  O4  1  0.65190300  0.91260000  0.71258500  1
  O  O5  1  0.59082800  0.71488600  0.16613100  1
  O  O6  1  0.34809700  0.08740000  0.28741500  1
  O  O7  1  0.40917200  0.28511400  0.83386900  1
loop_
_geom_bond_atom_site_label_1
_geom_bond_atom_site_label_2
_geom_bond_distance
_geom_bond_site_symmetry_2
O0 W2 2.120662 1_555
O0 W3 2.156721 1_655
O0 W3 2.162785 1_555
O0 Zn1 2.169776 1_655
O1 W0 2.125636 1_555
O1 W2 2.147505 1_555
O1 W2 2.151513 1_455
O1 Zn3 2.315709 1_555
O2 W3 2.125636 1_555
O2 W1 2.147505 1_555
O2 W1 2.151513 1_655
O2 Zn2 2.315709 1_555
O3 W1 2.120662 1_555
O3 W0 2.156721 1_455
O3 W0 2.162785 1_555
O3 Zn0 2.169776 1_455
O4 Zn1 1.943879 1_565
O4 Zn1 1.945066 1_665
O4 W0 2.091465 1_555
O4 Zn3 2.147302 1_555
O5 Zn0 2.008766 1_555
O5 W1 2.133987 1_655
O5 W1 2.151278 1_555
O5 Zn3 2.322581 1_554
O6 Zn0 1.943879 1_545
O6 Zn0 1.945066 1_445
O6 W3 2.091465 1_555
O6 Zn2 2.147302 1_555
O7 Zn1 2.008766 1_555
O7 W2 2.133987 1_455
O7 W2 2.151278 1_555
O7 Zn2 2.322581 1_556
