# generated using pymatgen
data_CaDyMn4O12
_symmetry_space_group_name_H-M   'P 1'
_cell_length_a   5.30209187
_cell_length_b   5.30209187
_cell_length_c   7.49628287
_cell_angle_alpha   90.00000000
_cell_angle_beta   90.00000000
_cell_angle_gamma   91.33040840
_symmetry_Int_Tables_number   1
_chemical_formula_structural   CaDyMn4O12
_chemical_formula_sum   'Ca1 Dy1 Mn4 O12'
_cell_volume   210.68003096
_cell_formula_units_Z   1
loop_
 _symmetry_equiv_pos_site_id
 _symmetry_equiv_pos_as_xyz
  1  'x, y, z'
loop_
 _atom_site_type_symbol
 _atom_site_label
 _atom_site_symmetry_multiplicity
 _atom_site_fract_x
 _atom_site_fract_y
 _atom_site_fract_z
 _atom_site_occupancy
  Ca  Ca0  1  0.51418805  0.48581195  0.50000000  1
  Dy  Dy0  1  0.97542497  0.02457503  -0.00000000  1
  Mn  Mn0  1  0.49449935  0.99956847  0.25212068  1
  Mn  Mn1  1  0.49449935  0.99956847  0.74787932  1
  Mn  Mn2  1  0.00043153  0.50550065  0.74787932  1
  Mn  Mn3  1  0.00043153  0.50550065  0.25212068  1
  O  O0  1  0.29560823  0.29474110  0.24592605  1
  O  O1  1  0.70525890  0.70439177  0.24592605  1
  O  O2  1  0.70525890  0.70439177  0.75407395  1
  O  O3  1  0.29560823  0.29474110  0.75407395  1
  O  O4  1  0.20201782  0.79798218  0.19645958  1
  O  O5  1  0.79863703  0.20136297  0.28724759  1
  O  O6  1  0.79863703  0.20136297  0.71275241  1
  O  O7  1  0.20201782  0.79798218  0.80354042  1
  O  O8  1  0.55472392  0.03765380  -0.00000000  1
  O  O9  1  0.44702899  0.94271785  0.50000000  1
  O  O10  1  0.96234620  0.44527608  -0.00000000  1
  O  O11  1  0.05728215  0.55297101  0.50000000  1
loop_
_geom_bond_atom_site_label_1
_geom_bond_atom_site_label_2
_geom_bond_distance
_geom_bond_site_symmetry_2
Ca0 O3 2.437716 1_555
Ca0 O1 2.437716 1_555
Ca0 O0 2.437716 1_555
Ca0 O2 2.437716 1_555
Ca0 O11 2.456753 1_555
Ca0 O9 2.456753 1_555
Ca0 O5 2.682976 1_555
Ca0 O6 2.682976 1_555
Ca0 O9 2.893251 1_545
Ca0 O11 2.893251 1_655
Dy0 O8 2.233282 1_555
Dy0 O10 2.233282 1_555
Dy0 O7 2.263343 1_644
Dy0 O4 2.263343 1_645
Dy0 O6 2.536669 1_554
Dy0 O5 2.536669 1_555
Mn0 O9 1.898287 1_555
Mn0 O0 1.907924 1_565
Mn0 O4 1.909030 1_555
Mn0 O8 1.926583 1_565
Mn0 O5 1.932446 1_565
Mn0 O1 1.944606 1_555
Mn1 O9 1.898287 1_555
Mn1 O3 1.907924 1_565
Mn1 O7 1.909030 1_555
Mn1 O8 1.926583 1_566
Mn1 O6 1.932446 1_565
Mn1 O2 1.944606 1_555
Mn2 O11 1.898287 1_555
Mn2 O2 1.907924 1_455
Mn2 O7 1.909030 1_555
Mn2 O10 1.926583 1_456
Mn2 O6 1.932446 1_455
Mn2 O3 1.944606 1_555
Mn3 O11 1.898287 1_555
Mn3 O1 1.907924 1_455
Mn3 O4 1.909030 1_555
Mn3 O10 1.926583 1_455
Mn3 O5 1.932446 1_455
Mn3 O0 1.944606 1_555
