# generated using pymatgen
data_B8O
_symmetry_space_group_name_H-M   'P 1'
_cell_length_a   5.30538683
_cell_length_b   5.12191393
_cell_length_c   7.34077920
_cell_angle_alpha   87.54177743
_cell_angle_beta   90.00000000
_cell_angle_gamma   90.00000000
_symmetry_Int_Tables_number   1
_chemical_formula_structural   B8O
_chemical_formula_sum   'B24 O3'
_cell_volume   199.29282052
_cell_formula_units_Z   3
loop_
 _symmetry_equiv_pos_site_id
 _symmetry_equiv_pos_as_xyz
  1  'x, y, z'
loop_
 _atom_site_type_symbol
 _atom_site_label
 _atom_site_symmetry_multiplicity
 _atom_site_fract_x
 _atom_site_fract_y
 _atom_site_fract_z
 _atom_site_occupancy
  B  B0  1  -0.00000000  0.87758239  0.80028051  1
  B  B1  1  0.50000000  0.37554398  0.29562798  1
  B  B2  1  0.23512665  0.63237286  0.55914648  1
  B  B3  1  0.73938532  0.14663669  0.06449621  1
  B  B4  1  0.76487335  0.63237286  0.55914648  1
  B  B5  1  0.26061468  0.14663669  0.06449621  1
  B  B6  1  -0.00000000  0.14715400  0.21844401  1
  B  B7  1  0.50000000  0.61669763  0.70074113  1
  B  B8  1  0.77975889  0.35149349  0.42697495  1
  B  B9  1  0.26243607  0.86282184  0.94143025  1
  B  B10  1  0.22024111  0.35149349  0.42697495  1
  B  B11  1  0.73756393  0.86282184  0.94143025  1
  B  B12  1  -0.00000000  0.34253627  0.00308916  1
  B  B13  1  0.50000000  0.82754572  0.49824492  1
  B  B14  1  0.16619819  0.16995677  0.83348003  1
  B  B15  1  0.66898139  0.66403692  0.33064754  1
  B  B16  1  0.83380181  0.16995677  0.83348003  1
  B  B17  1  0.33101861  0.66403692  0.33064754  1
  B  B18  1  -0.00000000  0.67159940  0.00529367  1
  B  B19  1  0.50000000  0.15660629  0.49455416  1
  B  B20  1  0.83459818  0.84155025  0.17401046  1
  B  B21  1  0.33036715  0.32293483  0.66246402  1
  B  B22  1  0.16540182  0.84155025  0.17401046  1
  B  B23  1  0.66963285  0.32293483  0.66246402  1
  O  O0  1  0.50000000  0.74115661  0.88082084  1
  O  O1  1  -0.00000000  0.75346635  0.62185594  1
  O  O2  1  0.50000000  0.26250208  0.11774780  1
loop_
_geom_bond_atom_site_label_1
_geom_bond_atom_site_label_2
_geom_bond_distance
_geom_bond_site_symmetry_2
B0 O1 1.480225 1_555
B0 B14 1.763727 1_565
B0 B16 1.763727 1_465
B0 B18 1.800493 1_556
B1 O2 1.450911 1_555
B1 B17 1.756648 1_555
B1 B15 1.756648 1_555
B1 B10 1.771322 1_555
B1 B8 1.771322 1_555
B1 B19 1.802615 1_555
B2 O1 1.475530 1_555
B2 B21 1.799826 1_555
B3 O2 1.462148 1_555
B3 B6 1.785815 1_655
B4 O1 1.475530 1_655
B4 B8 1.771166 1_555
B5 O2 1.462148 1_555
B5 B6 1.785815 1_555
B6 B8 2.222930 1_455
B7 O0 1.492025 1_555
B9 O0 1.482765 1_555
B10 B2 1.771166 1_555
B10 B17 1.819602 1_555
B10 B21 1.824658 1_555
B10 B19 1.844709 1_555
B10 B6 2.222930 1_555
B10 B8 2.336929 1_455
B11 O0 1.482765 1_555
B11 B18 1.754490 1_656
B11 B20 1.782099 1_556
B11 B16 1.804555 1_565
B12 B18 1.686205 1_555
B12 B5 1.755826 1_555
B12 B3 1.755826 1_455
B12 B14 1.789807 1_554
B12 B16 1.789807 1_454
B12 B6 1.834369 1_555
B13 B19 1.684475 1_565
B13 B17 1.762701 1_555
B13 B15 1.762701 1_555
B13 B4 1.770760 1_555
B13 B2 1.770760 1_555
B13 B7 1.799500 1_555
B14 B21 1.692385 1_555
B14 B16 1.763491 1_455
B14 B5 1.767393 1_556
B14 B9 1.804555 1_545
B15 B20 1.682603 1_555
B15 B4 1.753660 1_555
B15 B17 1.793023 1_555
B15 B8 1.819602 1_555
B16 B23 1.692385 1_555
B16 B3 1.767393 1_556
B17 B22 1.682603 1_555
B17 B2 1.753660 1_555
B18 B9 1.754490 1_554
B18 B20 1.775996 1_455
B18 B22 1.775996 1_555
B19 B23 1.773433 1_555
B19 B21 1.773433 1_555
B19 B8 1.844709 1_555
B20 B22 1.755041 1_655
B20 B3 1.798748 1_565
B20 B6 1.835843 1_665
B21 B7 1.785795 1_555
B21 B23 1.799936 1_555
B22 B9 1.782099 1_554
B22 B5 1.798748 1_565
B22 B6 1.835843 1_565
B23 B7 1.785795 1_555
B23 B4 1.799826 1_555
B23 B8 1.824658 1_555
