# generated using pymatgen
data_CaMnBiO5
_symmetry_space_group_name_H-M   'P 1'
_cell_length_a   5.54452000
_cell_length_b   11.34745100
_cell_length_c   15.57922600
_cell_angle_alpha   90.00000000
_cell_angle_beta   90.00000000
_cell_angle_gamma   90.00000000
_symmetry_Int_Tables_number   1
_chemical_formula_structural   CaMnBiO5
_chemical_formula_sum   'Ca8 Mn8 Bi8 O40'
_cell_volume   980.18521619
_cell_formula_units_Z   8
loop_
 _symmetry_equiv_pos_site_id
 _symmetry_equiv_pos_as_xyz
  1  'x, y, z'
loop_
 _atom_site_type_symbol
 _atom_site_label
 _atom_site_symmetry_multiplicity
 _atom_site_fract_x
 _atom_site_fract_y
 _atom_site_fract_z
 _atom_site_occupancy
  Ca  Ca0  1  0.50200700  0.35877100  0.44869500  1
  Ca  Ca1  1  0.00200700  0.14122900  0.44869500  1
  Ca  Ca2  1  0.00200700  0.64122900  0.05130500  1
  Ca  Ca3  1  0.99799300  0.35877100  0.94869500  1
  Ca  Ca4  1  0.49799300  0.14122900  0.94869500  1
  Ca  Ca5  1  0.99799300  0.85877100  0.55130500  1
  Ca  Ca6  1  0.49799300  0.64122900  0.55130500  1
  Ca  Ca7  1  0.50200700  0.85877100  0.05130500  1
  Mn  Mn0  1  0.98238500  0.40456700  0.59850000  1
  Mn  Mn1  1  0.51761500  0.90456700  0.40150000  1
  Mn  Mn2  1  0.01761500  0.59543300  0.40150000  1
  Mn  Mn3  1  0.48238500  0.09543300  0.59850000  1
  Mn  Mn4  1  0.01761500  0.09543300  0.09850000  1
  Mn  Mn5  1  0.98238500  0.90456700  0.90150000  1
  Mn  Mn6  1  0.51761500  0.40456700  0.09850000  1
  Mn  Mn7  1  0.48238500  0.59543300  0.90150000  1
  Bi  Bi0  1  0.95202600  0.84674400  0.23256400  1
  Bi  Bi1  1  0.04797400  0.15325600  0.76743600  1
  Bi  Bi2  1  0.54797400  0.34674400  0.76743600  1
  Bi  Bi3  1  0.04797400  0.65325600  0.73256400  1
  Bi  Bi4  1  0.45202600  0.15325600  0.26743600  1
  Bi  Bi5  1  0.45202600  0.65325600  0.23256400  1
  Bi  Bi6  1  0.54797400  0.84674400  0.73256400  1
  Bi  Bi7  1  0.95202600  0.34674400  0.26743600  1
  O  O0  1  0.93747800  0.33059300  0.69618700  1
  O  O1  1  0.29483000  0.04645600  0.06729300  1
  O  O2  1  0.20517000  0.54645600  0.93270700  1
  O  O3  1  0.23860400  0.76585300  0.15187300  1
  O  O4  1  0.26139600  0.26585300  0.84812700  1
  O  O5  1  0.93747800  0.83059300  0.80381300  1
  O  O6  1  0.26139600  0.76585300  0.65187300  1
  O  O7  1  0.56252200  0.83059300  0.30381300  1
  O  O8  1  0.29483000  0.54645600  0.43270700  1
  O  O9  1  0.06252200  0.66940700  0.30381300  1
  O  O10  1  0.56252200  0.33059300  0.19618600  1
  O  O11  1  0.62377900  0.18187700  0.52570600  1
  O  O12  1  0.79483000  0.95354400  0.43270700  1
  O  O13  1  0.76139600  0.73414700  0.65187300  1
  O  O14  1  0.16809400  0.02320200  0.87388200  1
  O  O15  1  0.79483000  0.45354400  0.06729300  1
  O  O16  1  0.06252200  0.16940700  0.19618600  1
  O  O17  1  0.73860400  0.23414700  0.34812700  1
  O  O18  1  0.12377900  0.81812300  0.97429400  1
  O  O19  1  0.20517000  0.04645600  0.56729300  1
  O  O20  1  0.37622100  0.81812300  0.47429400  1
  O  O21  1  0.83190600  0.97679800  0.12611800  1
  O  O22  1  0.76139600  0.23414700  0.84812700  1
  O  O23  1  0.66809400  0.97679800  0.62611800  1
  O  O24  1  0.37622100  0.31812300  0.02570600  1
  O  O25  1  0.12377900  0.31812300  0.52570600  1
  O  O26  1  0.70517000  0.45354400  0.56729300  1
  O  O27  1  0.70517000  0.95354400  0.93270700  1
  O  O28  1  0.66809400  0.47679800  0.87388200  1
  O  O29  1  0.87622100  0.68187700  0.47429400  1
  O  O30  1  0.87622100  0.18187700  0.02570600  1
  O  O31  1  0.62377900  0.68187700  0.97429400  1
  O  O32  1  0.83190600  0.47679800  0.37388200  1
  O  O33  1  0.73860400  0.73414700  0.15187300  1
  O  O34  1  0.23860400  0.26585300  0.34812700  1
  O  O35  1  0.16809400  0.52320200  0.62611800  1
  O  O36  1  0.33190600  0.52320200  0.12611800  1
  O  O37  1  0.43747800  0.16940700  0.69618700  1
  O  O38  1  0.33190600  0.02320200  0.37388200  1
  O  O39  1  0.43747800  0.66940700  0.80381300  1
loop_
_geom_bond_atom_site_label_1
_geom_bond_atom_site_label_2
_geom_bond_distance
_geom_bond_site_symmetry_2
Ca0 O34 2.387340 1_555
Ca0 O26 2.416462 1_555
Ca0 O8 2.432564 1_555
Ca0 O11 2.434038 1_555
Ca0 O25 2.459675 1_555
Ca0 O17 2.485055 1_555
Ca0 O32 2.549102 1_555
Ca1 O17 2.387340 1_455
Ca1 O19 2.416462 1_555
Ca1 O12 2.432564 1_445
Ca1 O25 2.434038 1_555
Ca1 O11 2.459675 1_455
Ca1 O34 2.485055 1_555
Ca1 O38 2.549102 1_555
Ca2 O33 2.387340 1_455
Ca2 O2 2.416462 1_554
Ca2 O15 2.432564 1_455
Ca2 O18 2.434038 1_554
Ca2 O31 2.459675 1_454
Ca2 O3 2.485055 1_555
Ca2 O36 2.549102 1_555
Ca3 O4 2.387340 1_655
Ca3 O15 2.416462 1_556
Ca3 O2 2.432564 1_655
Ca3 O30 2.434038 1_556
Ca3 O24 2.459675 1_656
Ca3 O22 2.485055 1_555
Ca3 O28 2.549102 1_555
Ca4 O22 2.387340 1_555
Ca4 O1 2.416462 1_556
Ca4 O27 2.432564 1_545
Ca4 O24 2.434038 1_556
Ca4 O30 2.459675 1_556
Ca4 O4 2.485055 1_555
Ca4 O14 2.549102 1_555
Ca5 O6 2.387340 1_655
Ca5 O12 2.416462 1_555
Ca5 O19 2.432564 1_665
Ca5 O29 2.434038 1_555
Ca5 O20 2.459675 1_655
Ca5 O13 2.485055 1_555
Ca5 O23 2.549102 1_555
Ca6 O13 2.387340 1_555
Ca6 O8 2.416462 1_555
Ca6 O26 2.432564 1_555
Ca6 O20 2.434038 1_555
Ca6 O29 2.459675 1_555
Ca6 O6 2.485055 1_555
Ca6 O35 2.549102 1_555
Ca7 O3 2.387340 1_555
Ca7 O27 2.416462 1_554
Ca7 O1 2.432564 1_565
Ca7 O31 2.434038 1_554
Ca7 O18 2.459675 1_554
Ca7 O33 2.485055 1_555
Ca7 O21 2.549102 1_555
Mn0 O25 1.692017 1_655
Mn0 O26 1.705195 1_555
Mn0 O35 1.748603 1_655
Mn0 O0 1.755778 1_555
Mn1 O20 1.692017 1_555
Mn1 O12 1.705195 1_555
Mn1 O38 1.748603 1_565
Mn1 O7 1.755778 1_555
Mn2 O29 1.692017 1_455
Mn2 O8 1.705195 1_555
Mn2 O32 1.748603 1_455
Mn2 O9 1.755778 1_555
Mn3 O11 1.692017 1_555
Mn3 O19 1.705195 1_555
Mn3 O23 1.748603 1_545
Mn3 O37 1.755778 1_555
Mn4 O30 1.692017 1_455
Mn4 O1 1.705195 1_555
Mn4 O21 1.748603 1_445
Mn4 O16 1.755765 1_555
Mn5 O18 1.692017 1_655
Mn5 O27 1.705195 1_555
Mn5 O14 1.748603 1_665
Mn5 O5 1.755778 1_555
Mn6 O24 1.692017 1_555
Mn6 O15 1.705195 1_555
Mn6 O36 1.748603 1_555
Mn6 O10 1.755765 1_555
Mn7 O31 1.692017 1_555
Mn7 O2 1.705195 1_555
Mn7 O28 1.748603 1_555
Mn7 O39 1.755778 1_555
Bi0 O33 2.147801 1_555
Bi0 O3 2.224316 1_655
Bi0 O21 2.317673 1_555
Bi0 O9 2.378422 1_655
Bi0 O7 2.435082 1_555
Bi1 O4 2.147801 1_555
Bi1 O22 2.224316 1_455
Bi1 O14 2.317673 1_555
Bi1 O0 2.378422 1_455
Bi1 O37 2.435082 1_555
Bi2 O22 2.147801 1_555
Bi2 O4 2.224316 1_555
Bi2 O28 2.317673 1_555
Bi2 O37 2.378422 1_555
Bi2 O0 2.435082 1_555
Bi3 O6 2.147801 1_555
Bi3 O13 2.224316 1_455
Bi3 O35 2.317673 1_555
Bi3 O5 2.378422 1_455
Bi3 O39 2.435082 1_555
Bi4 O34 2.147801 1_555
Bi4 O17 2.224316 1_555
Bi4 O38 2.317673 1_555
Bi4 O10 2.378429 1_555
Bi4 O16 2.435089 1_555
Bi5 O3 2.147801 1_555
Bi5 O33 2.224316 1_555
Bi5 O36 2.317673 1_555
Bi5 O7 2.378422 1_555
Bi5 O9 2.435082 1_555
Bi6 O13 2.147801 1_555
Bi6 O6 2.224316 1_555
Bi6 O23 2.317673 1_555
Bi6 O39 2.378422 1_555
Bi6 O5 2.435082 1_555
Bi7 O17 2.147801 1_555
Bi7 O34 2.224316 1_655
Bi7 O32 2.317673 1_555
Bi7 O16 2.378429 1_655
Bi7 O10 2.435089 1_555
