# generated using pymatgen
data_CaSiO5
_symmetry_space_group_name_H-M   'P 1'
_cell_length_a   6.38994562
_cell_length_b   6.38994562
_cell_length_c   6.82162015
_cell_angle_alpha   106.33799225
_cell_angle_beta   106.33799225
_cell_angle_gamma   124.88961019
_symmetry_Int_Tables_number   1
_chemical_formula_structural   CaSiO5
_chemical_formula_sum   'Ca2 Si2 O10'
_cell_volume   181.37624930
_cell_formula_units_Z   2
loop_
 _symmetry_equiv_pos_site_id
 _symmetry_equiv_pos_as_xyz
  1  'x, y, z'
loop_
 _atom_site_type_symbol
 _atom_site_label
 _atom_site_symmetry_multiplicity
 _atom_site_fract_x
 _atom_site_fract_y
 _atom_site_fract_z
 _atom_site_occupancy
  Ca  Ca0  1  0.65730300  0.34269700  0.75000000  1
  Ca  Ca1  1  0.34269700  0.65730300  0.25000000  1
  Si  Si0  1  0.35366600  0.64633400  0.75000000  1
  Si  Si1  1  0.64633400  0.35366600  0.25000000  1
  O  O0  1  0.01945200  0.98054800  0.75000000  1
  O  O1  1  0.98054800  0.01945200  0.25000000  1
  O  O2  1  0.67957800  0.75571000  0.96015700  1
  O  O3  1  0.32042200  0.24429000  0.03984300  1
  O  O4  1  0.24429000  0.32042200  0.53984300  1
  O  O5  1  0.75571000  0.67957800  0.46015700  1
  O  O6  1  0.41418900  0.84589000  0.63601900  1
  O  O7  1  0.58581100  0.15411000  0.36398100  1
  O  O8  1  0.15411000  0.58581100  0.86398100  1
  O  O9  1  0.84589000  0.41418900  0.13601900  1
loop_
_geom_bond_atom_site_label_1
_geom_bond_atom_site_label_2
_geom_bond_distance
_geom_bond_site_symmetry_2
Ca0 O6 2.320716 1_545
Ca0 O8 2.320716 1_655
Ca0 O7 2.345877 1_555
Ca0 O9 2.345877 1_556
Ca0 O4 2.523363 1_555
Ca0 O2 2.523363 1_555
Ca1 O9 2.320716 1_455
Ca1 O7 2.320716 1_565
Ca1 O6 2.345877 1_555
Ca1 O8 2.345877 1_554
Ca1 O5 2.523363 1_555
Ca1 O3 2.523363 1_555
O0 O5 1.651156 1_455
O0 O3 1.651156 1_566
O1 O4 1.651156 1_655
O1 O2 1.651156 1_544
O2 Si0 1.724022 1_555
O3 Si1 1.724022 1_555
O4 Si0 1.724022 1_555
O5 Si1 1.724022 1_555
O6 Si0 1.594668 1_555
O7 Si1 1.594668 1_555
O8 Si0 1.594668 1_555
O9 Si1 1.594668 1_555
