# generated using pymatgen
data_MgTiFeS4
_symmetry_space_group_name_H-M   'P 1'
_cell_length_a   7.26937824
_cell_length_b   7.20992413
_cell_length_c   7.20376127
_cell_angle_alpha   59.60570295
_cell_angle_beta   59.91606693
_cell_angle_gamma   59.92295088
_symmetry_Int_Tables_number   1
_chemical_formula_structural   MgTiFeS4
_chemical_formula_sum   'Mg2 Ti2 Fe2 S8'
_cell_volume   265.84902755
_cell_formula_units_Z   2
loop_
 _symmetry_equiv_pos_site_id
 _symmetry_equiv_pos_as_xyz
  1  'x, y, z'
loop_
 _atom_site_type_symbol
 _atom_site_label
 _atom_site_symmetry_multiplicity
 _atom_site_fract_x
 _atom_site_fract_y
 _atom_site_fract_z
 _atom_site_occupancy
  Mg  Mg0  1  0.87152132  0.87763117  0.87775050  1
  Mg  Mg1  1  0.12847813  0.12237596  0.12224828  1
  Ti  Ti0  1  0.50000211  0.49999919  0.99999796  1
  Ti  Ti1  1  0.50000084  0.99999627  0.49998854  1
  Fe  Fe0  1  0.50000184  0.50000113  0.49998408  1
  Fe  Fe1  1  -0.00000133  0.49997853  0.50004614  1
  S  S0  1  0.73911190  0.74052017  0.74056991  1
  S  S1  1  0.26715091  0.27217559  0.70970082  1
  S  S2  1  0.26737598  0.70927613  0.27225379  1
  S  S3  1  0.71687002  0.26848349  0.26832348  1
  S  S4  1  0.73260996  0.29074577  0.72772371  1
  S  S5  1  0.28313091  0.73151222  0.73166846  1
  S  S6  1  0.26088384  0.25948359  0.25943839  1
  S  S7  1  0.73286757  0.72781579  0.29030694  1
loop_
_geom_bond_atom_site_label_1
_geom_bond_atom_site_label_2
_geom_bond_distance
_geom_bond_site_symmetry_2
Mg0 S0 2.403366 1_555
Mg0 S7 2.419703 1_556
Mg0 S4 2.425157 1_565
Mg0 S5 2.444533 1_655
Mg1 S6 2.403380 1_555
Mg1 S1 2.419651 1_554
Mg1 S2 2.425065 1_545
Mg1 S3 2.444520 1_455
Fe0 S4 2.355077 1_555
Fe0 S2 2.355113 1_555
Fe0 S1 2.357494 1_555
Fe0 S7 2.357537 1_555
Fe0 S3 2.366473 1_555
Fe0 S5 2.366563 1_555
Fe1 S4 2.446069 1_455
Fe1 S1 2.446101 1_555
Fe1 S2 2.446288 1_555
Fe1 S7 2.446385 1_455
Fe1 S0 2.460943 1_455
Fe1 S6 2.461123 1_555
S0 Ti1 2.450442 1_555
S0 Ti0 2.450782 1_555
S1 Ti1 2.470874 1_545
S2 Ti0 2.468781 1_554
S3 Ti0 2.482017 1_554
S3 Ti1 2.483935 1_545
S4 Ti0 2.468771 1_555
S5 Ti0 2.482056 1_555
S5 Ti1 2.483917 1_555
S6 Ti1 2.450323 1_545
S6 Ti0 2.450803 1_554
S7 Ti1 2.470730 1_555
