# generated using pymatgen
data_ScCrGe2
_symmetry_space_group_name_H-M   'P 1'
_cell_length_a   8.17332400
_cell_length_b   9.42169500
_cell_length_c   10.12688500
_cell_angle_alpha   90.00000000
_cell_angle_beta   90.00000000
_cell_angle_gamma   90.00000000
_symmetry_Int_Tables_number   1
_chemical_formula_structural   ScCrGe2
_chemical_formula_sum   'Sc12 Cr12 Ge24'
_cell_volume   779.83663675
_cell_formula_units_Z   12
loop_
 _symmetry_equiv_pos_site_id
 _symmetry_equiv_pos_as_xyz
  1  'x, y, z'
loop_
 _atom_site_type_symbol
 _atom_site_label
 _atom_site_symmetry_multiplicity
 _atom_site_fract_x
 _atom_site_fract_y
 _atom_site_fract_z
 _atom_site_occupancy
  Sc  Sc0  1  0.74429900  0.83006000  0.04612900  1
  Sc  Sc1  1  0.74429900  0.16994000  0.95387100  1
  Sc  Sc2  1  0.25570100  0.66994000  0.54612900  1
  Sc  Sc3  1  0.25570100  0.33006000  0.45387100  1
  Sc  Sc4  1  0.25570100  0.16994000  0.95387100  1
  Sc  Sc5  1  0.25570100  0.83006000  0.04612900  1
  Sc  Sc6  1  0.74429900  0.33006000  0.45387100  1
  Sc  Sc7  1  0.74429900  0.66994000  0.54612900  1
  Sc  Sc8  1  0.50000000  0.83467400  0.32011900  1
  Sc  Sc9  1  0.50000000  0.16532600  0.67988100  1
  Sc  Sc10  1  0.50000000  0.66532600  0.82011900  1
  Sc  Sc11  1  0.50000000  0.33467400  0.17988100  1
  Cr  Cr0  1  0.74944300  0.58134300  0.24511900  1
  Cr  Cr1  1  0.74944300  0.41865700  0.75488100  1
  Cr  Cr2  1  0.25055700  0.91865700  0.74511900  1
  Cr  Cr3  1  0.25055700  0.08134300  0.25488100  1
  Cr  Cr4  1  0.25055700  0.41865700  0.75488100  1
  Cr  Cr5  1  0.25055700  0.58134300  0.24511900  1
  Cr  Cr6  1  0.74944300  0.08134300  0.25488100  1
  Cr  Cr7  1  0.74944300  0.91865700  0.74511900  1
  Cr  Cr8  1  0.74493600  0.00000000  0.50000000  1
  Cr  Cr9  1  0.25506400  0.50000000  0.00000000  1
  Cr  Cr10  1  0.25506400  0.00000000  0.50000000  1
  Cr  Cr11  1  0.74493600  0.50000000  0.00000000  1
  Ge  Ge0  1  0.84025900  0.83099200  0.31765200  1
  Ge  Ge1  1  0.84025900  0.16900800  0.68234800  1
  Ge  Ge2  1  0.15974100  0.66900800  0.81765200  1
  Ge  Ge3  1  0.15974100  0.33099200  0.18234800  1
  Ge  Ge4  1  0.15974100  0.16900800  0.68234800  1
  Ge  Ge5  1  0.15974100  0.83099200  0.31765200  1
  Ge  Ge6  1  0.84025900  0.33099200  0.18234800  1
  Ge  Ge7  1  0.84025900  0.66900800  0.81765200  1
  Ge  Ge8  1  0.50000000  0.54061500  0.37958800  1
  Ge  Ge9  1  0.50000000  0.45938500  0.62041200  1
  Ge  Ge10  1  0.50000000  0.95938500  0.87958800  1
  Ge  Ge11  1  0.50000000  0.04061500  0.12041200  1
  Ge  Ge12  1  0.00000000  0.54199100  0.37745200  1
  Ge  Ge13  1  0.00000000  0.45800900  0.62254800  1
  Ge  Ge14  1  0.00000000  0.95800900  0.87745200  1
  Ge  Ge15  1  0.00000000  0.04199100  0.12254800  1
  Ge  Ge16  1  0.50000000  0.63294300  0.09971700  1
  Ge  Ge17  1  0.50000000  0.36705700  0.90028300  1
  Ge  Ge18  1  0.50000000  0.86705700  0.59971700  1
  Ge  Ge19  1  0.50000000  0.13294300  0.40028300  1
  Ge  Ge20  1  0.00000000  0.62622000  0.09287400  1
  Ge  Ge21  1  0.00000000  0.37378000  0.90712600  1
  Ge  Ge22  1  0.00000000  0.87378000  0.59287400  1
  Ge  Ge23  1  0.00000000  0.12622000  0.40712600  1
loop_
_geom_bond_atom_site_label_1
_geom_bond_atom_site_label_2
_geom_bond_distance
_geom_bond_site_symmetry_2
Cr0 Ge12 2.475321 1_655
Cr0 Ge8 2.481579 1_555
Cr0 Ge6 2.553166 1_555
Cr0 Ge16 2.561471 1_555
Cr0 Ge0 2.573510 1_555
Cr0 Ge20 2.598009 1_655
Cr1 Ge13 2.475321 1_655
Cr1 Ge9 2.481579 1_555
Cr1 Ge7 2.553166 1_555
Cr1 Ge17 2.561471 1_555
Cr1 Ge1 2.573510 1_555
Cr1 Ge21 2.598009 1_655
Cr2 Ge14 2.475321 1_555
Cr2 Ge10 2.481579 1_555
Cr2 Ge4 2.553166 1_565
Cr2 Ge18 2.561471 1_555
Cr2 Ge2 2.573510 1_555
Cr2 Ge22 2.598009 1_555
Cr3 Ge15 2.475321 1_555
Cr3 Ge11 2.481579 1_555
Cr3 Ge5 2.553166 1_545
Cr3 Ge19 2.561471 1_555
Cr3 Ge3 2.573510 1_555
Cr3 Ge23 2.598009 1_555
Cr4 Ge13 2.475321 1_555
Cr4 Ge9 2.481579 1_555
Cr4 Ge2 2.553166 1_555
Cr4 Ge17 2.561471 1_555
Cr4 Ge4 2.573510 1_555
Cr4 Ge21 2.598009 1_555
Cr5 Ge12 2.475321 1_555
Cr5 Ge8 2.481579 1_555
Cr5 Ge3 2.553166 1_555
Cr5 Ge16 2.561471 1_555
Cr5 Ge5 2.573510 1_555
Cr5 Ge20 2.598009 1_555
Cr6 Ge15 2.475321 1_655
Cr6 Ge11 2.481579 1_555
Cr6 Ge0 2.553166 1_545
Cr6 Ge19 2.561471 1_555
Cr6 Ge6 2.573510 1_555
Cr6 Ge23 2.598009 1_655
Cr7 Ge14 2.475321 1_655
Cr7 Ge10 2.481579 1_555
Cr7 Ge1 2.553166 1_565
Cr7 Ge18 2.561471 1_555
Cr7 Ge7 2.573510 1_555
Cr7 Ge22 2.598009 1_655
Cr8 Ge1 2.559796 1_555
Cr8 Ge0 2.559796 1_545
Cr8 Ge19 2.568343 1_555
Cr8 Ge18 2.568343 1_545
Cr8 Ge22 2.577762 1_645
Cr8 Ge23 2.577762 1_655
Cr9 Ge3 2.559796 1_555
Cr9 Ge2 2.559796 1_554
Cr9 Ge16 2.568343 1_555
Cr9 Ge17 2.568343 1_554
Cr9 Ge20 2.577762 1_555
Cr9 Ge21 2.577762 1_554
Cr10 Ge4 2.559796 1_555
Cr10 Ge5 2.559796 1_545
Cr10 Ge19 2.568343 1_555
Cr10 Ge18 2.568343 1_545
Cr10 Ge22 2.577762 1_545
Cr10 Ge23 2.577762 1_555
Cr11 Ge6 2.559796 1_555
Cr11 Ge7 2.559796 1_554
Cr11 Ge16 2.568343 1_555
Cr11 Ge17 2.568343 1_554
Cr11 Ge21 2.577762 1_654
Cr11 Ge20 2.577762 1_655
Ge0 Ge5 2.611230 1_655
Ge0 Sc8 2.781376 1_555
Ge0 Sc0 2.859366 1_555
Ge0 Sc7 2.875949 1_555
Ge1 Ge4 2.611230 1_655
Ge1 Sc9 2.781376 1_555
Ge1 Sc1 2.859366 1_555
Ge1 Sc6 2.875949 1_555
Ge2 Ge7 2.611230 1_455
Ge2 Sc10 2.781376 1_555
Ge2 Sc2 2.859366 1_555
Ge2 Sc5 2.875949 1_556
Ge3 Ge6 2.611230 1_455
Ge3 Sc11 2.781376 1_555
Ge3 Sc3 2.859366 1_555
Ge3 Sc4 2.875949 1_554
Ge4 Sc9 2.781376 1_555
Ge4 Sc4 2.859366 1_555
Ge4 Sc3 2.875949 1_555
Ge5 Sc8 2.781376 1_555
Ge5 Sc5 2.859366 1_555
Ge5 Sc2 2.875949 1_555
Ge6 Sc11 2.781376 1_555
Ge6 Sc6 2.859366 1_555
Ge6 Sc1 2.875949 1_554
Ge7 Sc10 2.781376 1_555
Ge7 Sc7 2.859366 1_555
Ge7 Sc0 2.875949 1_556
Ge8 Ge9 2.556062 1_555
Ge8 Sc11 2.802670 1_555
Ge8 Sc8 2.835233 1_555
Ge8 Sc7 2.883751 1_555
Ge8 Sc2 2.883751 1_555
Ge8 Sc6 2.913459 1_555
Ge8 Sc3 2.913459 1_555
Ge9 Sc10 2.802670 1_555
Ge9 Sc9 2.835233 1_555
Ge9 Sc6 2.883751 1_555
Ge9 Sc3 2.883751 1_555
Ge9 Sc7 2.913459 1_555
Ge9 Sc2 2.913459 1_555
Ge10 Ge11 2.556062 1_566
Ge10 Sc9 2.802670 1_565
Ge10 Sc10 2.835233 1_555
Ge10 Sc0 2.883751 1_556
Ge10 Sc5 2.883751 1_556
Ge10 Sc1 2.913459 1_565
Ge10 Sc4 2.913459 1_565
Ge11 Sc8 2.802670 1_545
Ge11 Sc11 2.835233 1_555
Ge11 Sc1 2.883751 1_554
Ge11 Sc4 2.883751 1_554
Ge11 Sc0 2.913459 1_545
Ge11 Sc5 2.913459 1_545
Ge12 Ge13 2.605129 1_555
Ge12 Sc2 2.956158 1_555
Ge12 Sc7 2.956158 1_455
Ge12 Sc3 2.992274 1_555
Ge12 Sc6 2.992274 1_455
Ge13 Sc3 2.956158 1_555
Ge13 Sc6 2.956158 1_455
Ge13 Sc2 2.992274 1_555
Ge13 Sc7 2.992274 1_455
Ge14 Ge15 2.605129 1_566
Ge14 Sc5 2.956158 1_556
Ge14 Sc0 2.956158 1_456
Ge14 Sc4 2.992274 1_565
Ge14 Sc1 2.992274 1_465
Ge15 Sc4 2.956158 1_554
Ge15 Sc1 2.956158 1_454
Ge15 Sc5 2.992274 1_545
Ge15 Sc0 2.992274 1_445
Ge16 Sc0 2.780388 1_555
Ge16 Sc5 2.780388 1_555
Ge16 Sc10 2.847847 1_554
Ge16 Sc11 2.925108 1_555
Ge16 Sc8 2.931590 1_555
Ge17 Sc1 2.780388 1_555
Ge17 Sc4 2.780388 1_555
Ge17 Sc11 2.847847 1_556
Ge17 Sc10 2.925108 1_555
Ge17 Sc9 2.931590 1_555
Ge18 Sc7 2.780388 1_555
Ge18 Sc2 2.780388 1_555
Ge18 Sc8 2.847847 1_555
Ge18 Sc9 2.925108 1_565
Ge18 Sc10 2.931590 1_555
Ge19 Sc6 2.780388 1_555
Ge19 Sc3 2.780388 1_555
Ge19 Sc9 2.847847 1_555
Ge19 Sc8 2.925108 1_545
Ge19 Sc11 2.931590 1_555
Ge20 Sc5 2.877547 1_555
Ge20 Sc0 2.877547 1_455
Ge21 Sc4 2.877547 1_555
Ge21 Sc1 2.877547 1_455
Ge22 Sc2 2.877547 1_555
Ge22 Sc7 2.877547 1_455
Ge23 Sc3 2.877547 1_555
Ge23 Sc6 2.877547 1_455
