# generated using pymatgen
data_LuAu3
_symmetry_space_group_name_H-M   'P 1'
_cell_length_a   4.93174915
_cell_length_b   6.03500805
_cell_length_c   5.08390271
_cell_angle_alpha   90.00000000
_cell_angle_beta   90.00000000
_cell_angle_gamma   90.00000000
_symmetry_Int_Tables_number   1
_chemical_formula_structural   LuAu3
_chemical_formula_sum   'Lu2 Au6'
_cell_volume   151.31293770
_cell_formula_units_Z   2
loop_
 _symmetry_equiv_pos_site_id
 _symmetry_equiv_pos_as_xyz
  1  'x, y, z'
loop_
 _atom_site_type_symbol
 _atom_site_label
 _atom_site_symmetry_multiplicity
 _atom_site_fract_x
 _atom_site_fract_y
 _atom_site_fract_z
 _atom_site_occupancy
  Lu  Lu0  1  -0.00000000  -0.00000000  0.34506320  1
  Lu  Lu1  1  0.50000000  0.50000000  0.65493680  1
  Au  Au0  1  0.50000000  -0.00000000  0.66270882  1
  Au  Au1  1  0.00000000  0.50000000  0.33729118  1
  Au  Au2  1  0.00000000  0.74583029  0.83835489  1
  Au  Au3  1  -0.00000000  0.25416971  0.83835489  1
  Au  Au4  1  0.50000000  0.75416971  0.16164511  1
  Au  Au5  1  0.50000000  0.24583029  0.16164511  1
loop_
_geom_bond_atom_site_label_1
_geom_bond_atom_site_label_2
_geom_bond_distance
_geom_bond_site_symmetry_2
Au0 Lu0 2.947605 1_655
Au0 Lu0 2.947605 1_555
Au0 Lu1 3.017763 1_545
Au0 Lu1 3.017763 1_555
Au1 Lu1 2.947605 1_455
Au1 Lu1 2.947605 1_555
Au1 Lu0 3.017763 1_565
Au1 Lu0 3.017763 1_555
Au2 Lu0 2.939761 1_565
Au2 Lu0 2.998160 1_566
Au2 Lu1 3.025077 1_455
Au2 Lu1 3.025077 1_555
Au3 Lu0 2.939761 1_555
Au3 Lu0 2.998160 1_556
Au3 Lu1 3.025077 1_555
Au3 Lu1 3.025077 1_455
Au4 Lu1 2.939761 1_555
Au4 Lu1 2.998160 1_554
Au4 Lu0 3.025077 1_565
Au4 Lu0 3.025077 1_665
Au5 Lu1 2.939761 1_555
Au5 Lu1 2.998160 1_554
Au5 Lu0 3.025077 1_555
Au5 Lu0 3.025077 1_655
