# generated using pymatgen
data_Rb2LiGaF6
_symmetry_space_group_name_H-M   'P 1'
_cell_length_a   10.27361345
_cell_length_b   10.27361345
_cell_length_c   10.27361381
_cell_angle_alpha   33.76325633
_cell_angle_beta   33.76325633
_cell_angle_gamma   33.76325801
_symmetry_Int_Tables_number   1
_chemical_formula_structural   Rb2LiGaF6
_chemical_formula_sum   'Rb4 Li2 Ga2 F12'
_cell_volume   298.42743386
_cell_formula_units_Z   2
loop_
 _symmetry_equiv_pos_site_id
 _symmetry_equiv_pos_as_xyz
  1  'x, y, z'
loop_
 _atom_site_type_symbol
 _atom_site_label
 _atom_site_symmetry_multiplicity
 _atom_site_fract_x
 _atom_site_fract_y
 _atom_site_fract_z
 _atom_site_occupancy
  Rb  Rb0  1  0.71712400  0.71712400  0.71712400  1
  Rb  Rb1  1  0.28287600  0.28287600  0.28287600  1
  Rb  Rb2  1  0.87243800  0.87243800  0.87243800  1
  Rb  Rb3  1  0.12756200  0.12756200  0.12756200  1
  Li  Li0  1  0.40405800  0.40405800  0.40405800  1
  Li  Li1  1  0.59594200  0.59594200  0.59594200  1
  Ga  Ga0  1  0.50000000  0.50000000  0.50000000  1
  Ga  Ga1  1  0.00000000  0.00000000  0.00000000  1
  F  F0  1  0.19317400  0.72753500  0.19317400  1
  F  F1  1  0.80682600  0.27246500  0.80682600  1
  F  F2  1  0.19317400  0.19317400  0.72753500  1
  F  F3  1  0.72753500  0.19317400  0.19317400  1
  F  F4  1  0.80682600  0.80682600  0.27246500  1
  F  F5  1  0.27246500  0.80682600  0.80682600  1
  F  F6  1  0.16486600  0.60673500  0.60673500  1
  F  F7  1  0.60673500  0.60673500  0.16486600  1
  F  F8  1  0.60673500  0.16486600  0.60673500  1
  F  F9  1  0.39326500  0.83513400  0.39326500  1
  F  F10  1  0.83513400  0.39326500  0.39326500  1
  F  F11  1  0.39326500  0.39326500  0.83513400  1
loop_
_geom_bond_atom_site_label_1
_geom_bond_atom_site_label_2
_geom_bond_distance
_geom_bond_site_symmetry_2
F0 Ga1 1.946304 1_565
F0 Li0 2.072138 1_555
F0 Rb0 3.007724 1_554
F0 Rb0 3.007724 1_455
F0 Rb3 3.056461 1_565
F0 Rb1 3.159116 1_555
F1 Ga1 1.946304 1_656
F1 Li1 2.072138 1_555
F1 Rb1 3.007724 1_556
F1 Rb1 3.007724 1_655
F1 Rb2 3.056461 1_545
F1 Rb0 3.159116 1_555
F2 Ga1 1.946304 1_556
F2 Li0 2.072138 1_555
F2 Rb0 3.007724 1_545
F2 Rb0 3.007724 1_455
F2 Rb3 3.056461 1_556
F2 Rb1 3.159117 1_555
F3 Ga1 1.946304 1_655
F3 Li0 2.072138 1_555
F3 Rb0 3.007724 1_554
F3 Rb0 3.007724 1_545
F3 Rb3 3.056461 1_655
F3 Rb1 3.159116 1_555
F4 Ga1 1.946304 1_665
F4 Li1 2.072138 1_555
F4 Rb1 3.007724 1_655
F4 Rb1 3.007724 1_565
F4 Rb2 3.056461 1_554
F4 Rb0 3.159117 1_555
F5 Ga1 1.946304 1_566
F5 Li1 2.072138 1_555
F5 Rb1 3.007724 1_556
F5 Rb1 3.007724 1_565
F5 Rb2 3.056461 1_455
F5 Rb0 3.159116 1_555
F6 Ga0 1.924524 1_555
F6 Li0 2.214410 1_555
F6 Rb0 2.919344 1_455
F6 Rb3 2.990420 1_556
F6 Rb3 2.990420 1_565
F6 Rb2 3.007819 1_455
F7 Ga0 1.924524 1_555
F7 Li0 2.214409 1_555
F7 Rb0 2.919345 1_554
F7 Rb3 2.990420 1_655
F7 Rb3 2.990420 1_565
F7 Rb2 3.007819 1_554
F8 Ga0 1.924524 1_555
F8 Li0 2.214410 1_555
F8 Rb0 2.919344 1_545
F8 Rb3 2.990420 1_556
F8 Rb3 2.990420 1_655
F8 Rb2 3.007819 1_545
F9 Ga0 1.924524 1_555
F9 Li1 2.214410 1_555
F9 Rb1 2.919344 1_565
F9 Rb2 2.990420 1_554
F9 Rb2 2.990420 1_455
F9 Rb3 3.007819 1_565
F10 Ga0 1.924524 1_555
F10 Li1 2.214410 1_555
F10 Rb1 2.919344 1_655
F10 Rb2 2.990420 1_554
F10 Rb2 2.990420 1_545
F10 Rb3 3.007819 1_655
F11 Ga0 1.924524 1_555
F11 Li1 2.214409 1_555
F11 Rb1 2.919345 1_556
F11 Rb2 2.990420 1_545
F11 Rb2 2.990420 1_455
F11 Rb3 3.007819 1_556
