# generated using pymatgen
data_Er3Ga8Ag3
_symmetry_space_group_name_H-M   'P 1'
_cell_length_a   4.38193300
_cell_length_b   8.28215359
_cell_length_c   8.28215359
_cell_angle_alpha   70.36109509
_cell_angle_beta   74.66033500
_cell_angle_gamma   74.66033500
_symmetry_Int_Tables_number   1
_chemical_formula_structural   Er3Ga8Ag3
_chemical_formula_sum   'Er3 Ga8 Ag3'
_cell_volume   267.85223006
_cell_formula_units_Z   1
loop_
 _symmetry_equiv_pos_site_id
 _symmetry_equiv_pos_as_xyz
  1  'x, y, z'
loop_
 _atom_site_type_symbol
 _atom_site_label
 _atom_site_symmetry_multiplicity
 _atom_site_fract_x
 _atom_site_fract_y
 _atom_site_fract_z
 _atom_site_occupancy
  Er  Er0  1  0.50000000  0.50000000  0.50000000  1
  Er  Er1  1  0.20466100  0.79533900  0.79533900  1
  Er  Er2  1  0.79533900  0.20466100  0.20466100  1
  Ga  Ga0  1  0.35819200  0.36105300  0.92256200  1
  Ga  Ga1  1  0.64180800  0.63894700  0.07743800  1
  Ga  Ga2  1  0.35819200  0.92256200  0.36105300  1
  Ga  Ga3  1  0.64180800  0.07743800  0.63894700  1
  Ga  Ga4  1  0.15733800  0.47363100  0.21169400  1
  Ga  Ga5  1  0.84266200  0.52636900  0.78830600  1
  Ga  Ga6  1  0.15733800  0.21169400  0.47363100  1
  Ga  Ga7  1  0.84266200  0.78830600  0.52636900  1
  Ag  Ag0  1  0.50000000  0.00000000  0.00000000  1
  Ag  Ag1  1  0.00000000  0.81274100  0.18725900  1
  Ag  Ag2  1  0.00000000  0.18725900  0.81274100  1
loop_
_geom_bond_atom_site_label_1
_geom_bond_atom_site_label_2
_geom_bond_distance
_geom_bond_site_symmetry_2
Er0 Ga7 3.228743 1_555
Er0 Ga5 3.228743 1_555
Er0 Ga6 3.228743 1_555
Er0 Ga4 3.228743 1_555
Er0 Ga4 3.228745 1_655
Er0 Ga6 3.228745 1_655
Er0 Ga5 3.228745 1_455
Er0 Ga7 3.228745 1_455
Er0 Ga2 3.237140 1_555
Er0 Ga0 3.237140 1_555
Er0 Ga1 3.237140 1_555
Er0 Ga3 3.237140 1_555
Er1 Ga7 3.080209 1_555
Er1 Ga5 3.080209 1_555
Er1 Ga7 3.080212 1_455
Er1 Ga5 3.080212 1_455
Er1 Ga3 3.134756 1_465
Er1 Ga1 3.134756 1_456
Er1 Ga1 3.134759 1_556
Er1 Ga3 3.134759 1_565
Er1 Ga2 3.323742 1_555
Er1 Ga0 3.323742 1_555
Er2 Ga4 3.080209 1_555
Er2 Ga6 3.080209 1_555
Er2 Ga4 3.080212 1_655
Er2 Ga6 3.080212 1_655
Er2 Ga0 3.134756 1_654
Er2 Ga2 3.134756 1_645
Er2 Ga0 3.134759 1_554
Er2 Ga2 3.134759 1_545
Er2 Ga3 3.323742 1_555
Er2 Ga1 3.323742 1_555
Ga0 Ga5 2.623619 1_455
Ga0 Ga5 2.623619 1_555
Ga0 Ga4 2.707359 1_556
Ga1 Ga4 2.623619 1_655
Ga1 Ga4 2.623619 1_555
Ga1 Ga5 2.707359 1_554
Ga2 Ga7 2.623619 1_455
Ga2 Ga7 2.623619 1_555
Ga2 Ga6 2.707359 1_565
Ga3 Ga6 2.623619 1_655
Ga3 Ga6 2.623619 1_555
Ga3 Ga7 2.707359 1_545
Ga4 Ga6 2.499824 1_555
Ga5 Ga7 2.499824 1_555
Ag0 Ga2 2.770910 1_545
Ag0 Ga0 2.770910 1_554
Ag0 Ga1 2.770910 1_545
Ag0 Ga3 2.770910 1_554
Ag0 Ag1 2.827393 1_645
Ag0 Ag2 2.827393 1_654
Ag0 Ag2 2.827393 1_554
Ag0 Ag1 2.827393 1_545
Ag0 Er2 3.416667 1_455
Ag0 Er1 3.416667 1_644
Ag0 Er2 3.416668 1_555
Ag0 Er1 3.416668 1_544
Ag1 Ga4 2.659245 1_555
Ag1 Ga7 2.659245 1_455
Ag1 Ga1 2.862403 1_455
Ag1 Ga2 2.862403 1_555
Ag1 Ga1 2.862406 1_555
Ag1 Ga2 2.862406 1_455
Ag1 Er1 3.172870 1_554
Ag1 Er2 3.172870 1_465
Ag2 Ga6 2.659245 1_555
Ag2 Ga5 2.659245 1_455
Ag2 Ga3 2.862403 1_455
Ag2 Ga0 2.862403 1_555
Ag2 Ga3 2.862406 1_555
Ag2 Ga0 2.862406 1_455
Ag2 Er1 3.172870 1_545
Ag2 Er2 3.172870 1_456
