# generated using pymatgen
data_Sr2Ti5(Bi2O9)2
_symmetry_space_group_name_H-M   'P 1'
_cell_length_a   5.50753500
_cell_length_b   5.53767627
_cell_length_c   24.86155876
_cell_angle_alpha   96.30260549
_cell_angle_beta   90.08148814
_cell_angle_gamma   90.31795075
_symmetry_Int_Tables_number   1
_chemical_formula_structural   Sr2Ti5(Bi2O9)2
_chemical_formula_sum   'Sr4 Ti10 Bi8 O36'
_cell_volume   753.65525770
_cell_formula_units_Z   2
loop_
 _symmetry_equiv_pos_site_id
 _symmetry_equiv_pos_as_xyz
  1  'x, y, z'
loop_
 _atom_site_type_symbol
 _atom_site_label
 _atom_site_symmetry_multiplicity
 _atom_site_fract_x
 _atom_site_fract_y
 _atom_site_fract_z
 _atom_site_occupancy
  Sr  Sr0  1  0.50212100  0.38462000  0.74872300  1
  Sr  Sr1  1  0.50450100  0.55228100  0.08097700  1
  Sr  Sr2  1  0.00810300  0.96749300  0.91872700  1
  Sr  Sr3  1  0.99507900  0.05495700  0.08180100  1
  Ti  Ti0  1  0.49858100  0.09039000  0.16182500  1
  Ti  Ti1  1  0.50675800  0.92544200  0.83332300  1
  Ti  Ti2  1  0.00346200  0.59058500  0.16133000  1
  Ti  Ti3  1  0.00950300  0.43949100  0.83487400  1
  Ti  Ti4  1  0.50041800  0.01216900  0.00192000  1
  Ti  Ti5  1  0.00172500  0.51612800  0.00077200  1
  Ti  Ti6  1  0.49733300  0.17605500  0.33700500  1
  Ti  Ti7  1  0.50791600  0.85079900  0.66236000  1
  Ti  Ti8  1  0.00449600  0.67555100  0.33677800  1
  Ti  Ti9  1  0.99722600  0.33401500  0.66232000  1
  Bi  Bi0  1  0.53010800  0.27968000  0.55139400  1
  Bi  Bi1  1  0.46982800  0.72991000  0.44879300  1
  Bi  Bi2  1  0.97175800  0.77755300  0.55151500  1
  Bi  Bi3  1  0.02845600  0.22775000  0.44886500  1
  Bi  Bi4  1  0.51078900  0.58228400  0.25352600  1
  Bi  Bi5  1  0.01706800  0.84582600  0.73608500  1
  Bi  Bi6  1  0.98998700  0.08189400  0.25361900  1
  Bi  Bi7  1  0.52047100  0.42478500  0.91309400  1
  O  O0  1  0.20764000  0.91775900  0.17038000  1
  O  O1  1  0.78845800  0.74612300  0.83264200  1
  O  O2  1  0.29069900  0.41791500  0.17029500  1
  O  O3  1  0.70248600  0.25127000  0.83527700  1
  O  O4  1  0.45603100  0.08155500  0.08172600  1
  O  O5  1  0.54171600  0.02264300  0.92091600  1
  O  O6  1  0.04054300  0.58044700  0.08191100  1
  O  O7  1  0.93534900  0.49503200  0.92050100  1
  O  O8  1  0.25495300  0.92656200  0.31395200  1
  O  O9  1  0.74652000  0.60963300  0.68275900  1
  O  O10  1  0.24443900  0.42657300  0.31418800  1
  O  O11  1  0.75742700  0.10217400  0.68329500  1
  O  O12  1  0.24283000  0.78715700  0.99462200  1
  O  O13  1  0.74744400  0.79121200  0.00800500  1
  O  O14  1  0.24911400  0.28651300  0.99378500  1
  O  O15  1  0.74839800  0.29050000  0.00837700  1
  O  O16  1  0.55805600  0.17517500  0.24134800  1
  O  O17  1  0.44676400  0.89753600  0.75990500  1
  O  O18  1  0.94004200  0.67512500  0.24117300  1
  O  O19  1  0.03412600  0.43420600  0.76008300  1
  O  O20  1  0.28491000  0.67710500  0.85000300  1
  O  O21  1  0.71622400  0.84025800  0.15392200  1
  O  O22  1  0.22171200  0.18960600  0.84699800  1
  O  O23  1  0.78101200  0.33977400  0.15423100  1
  O  O24  1  0.44248800  0.21573900  0.40779400  1
  O  O25  1  0.55367400  0.81171600  0.59117700  1
  O  O26  1  0.05854000  0.71651300  0.40767300  1
  O  O27  1  0.94517500  0.31294400  0.59121200  1
  O  O28  1  0.23482900  0.62047800  0.67228400  1
  O  O29  1  0.77122400  0.96430800  0.32876300  1
  O  O30  1  0.25390000  0.11044200  0.67168800  1
  O  O31  1  0.72828000  0.46408600  0.32872400  1
  O  O32  1  0.24878700  0.51006400  0.50204200  1
  O  O33  1  0.75109800  0.00840800  0.49864800  1
  O  O34  1  0.25061000  0.00977300  0.50193700  1
  O  O35  1  0.74881800  0.50801700  0.49813800  1
loop_
_geom_bond_atom_site_label_1
_geom_bond_atom_site_label_2
_geom_bond_distance
_geom_bond_site_symmetry_2
Bi0 O33 2.247212 1_555
Bi0 O35 2.271136 1_555
Bi0 O34 2.383490 1_555
Bi0 O32 2.427737 1_555
Bi0 O27 2.487677 1_555
Bi1 O32 2.249173 1_555
Bi1 O34 2.276171 1_565
Bi1 O35 2.392164 1_555
Bi1 O33 2.421326 1_565
Bi1 O26 2.481243 1_555
Bi2 O35 2.244246 1_555
Bi2 O33 2.284818 1_565
Bi2 O32 2.380189 1_655
Bi2 O34 2.421380 1_665
Bi2 O25 2.506085 1_555
Bi3 O34 2.248667 1_555
Bi3 O32 2.277076 1_555
Bi3 O33 2.378133 1_455
Bi3 O35 2.428136 1_455
Bi3 O24 2.498037 1_555
Bi4 O16 2.258052 1_555
Bi4 O10 2.334033 1_555
Bi4 O31 2.372641 1_555
Bi4 O18 2.443558 1_555
Bi4 O2 2.479256 1_555
Bi4 O8 2.698879 1_555
Bi5 O28 2.258114 1_555
Bi5 O9 2.297977 1_455
Bi5 O19 2.421022 1_555
Bi5 O17 2.446343 1_555
Bi5 O11 2.491744 1_465
Bi5 O30 2.629009 1_565
Bi5 O1 2.818631 1_455
Bi6 O18 2.255053 1_545
Bi6 O8 2.326026 1_645
Bi6 O29 2.372888 1_545
Bi6 O16 2.462748 1_555
Bi6 O0 2.480302 1_645
Bi6 O10 2.684762 1_655
Bi7 O5 2.260231 1_555
Bi7 O3 2.297634 1_555
Bi7 O7 2.319368 1_555
Bi7 O20 2.567362 1_555
Bi7 O22 2.569523 1_555
Bi7 O14 2.679067 1_555
O0 Ti0 1.885555 1_565
O0 Ti2 2.117756 1_555
O0 Sr3 2.677195 1_465
O1 Ti1 1.845781 1_555
O1 Ti3 2.100456 1_655
O1 Sr2 2.635673 1_655
O1 Sr0 3.144198 1_555
O2 Ti2 1.878611 1_555
O2 Ti0 2.141182 1_555
O2 Sr1 2.689180 1_555
O3 Ti3 1.982032 1_655
O3 Ti1 2.092612 1_545
O3 Sr0 2.597069 1_555
O3 Sr2 3.215941 1_645
O4 Ti4 1.994767 1_555
O4 Ti0 2.000021 1_555
O4 Sr3 2.542178 1_455
O4 Sr1 2.620990 1_555
O4 Sr1 2.942581 1_545
O4 Sr3 2.973302 1_555
O5 Ti4 2.034118 1_556
O5 Ti1 2.193049 1_545
O5 Sr2 2.588361 1_645
O5 Sr2 2.952838 1_545
O6 Ti2 1.979992 1_555
O6 Ti5 2.020399 1_555
O6 Sr1 2.560868 1_555
O6 Sr3 2.641269 1_465
O6 Sr3 2.919063 1_455
O6 Sr1 2.955447 1_455
O7 Ti5 2.018965 1_656
O7 Ti3 2.157169 1_655
O7 Sr2 2.649805 1_655
O7 Sr2 2.946436 1_645
O8 Ti6 1.955206 1_565
O8 Ti8 2.076314 1_555
O9 Ti7 1.983421 1_555
O9 Ti9 2.085518 1_555
O9 Sr0 2.547602 1_555
O10 Ti8 1.953219 1_555
O10 Ti6 2.092437 1_555
O11 Ti9 1.947977 1_555
O11 Ti7 1.978563 1_545
O11 Sr0 2.557694 1_555
O12 Ti4 1.878349 1_566
O12 Ti5 2.016962 1_556
O12 Sr2 2.578742 1_555
O12 Sr3 2.843223 1_466
O12 Sr1 3.000509 1_556
O13 Ti4 1.851907 1_565
O13 Ti5 2.068430 1_655
O13 Sr3 2.596493 1_565
O13 Sr1 2.710451 1_555
O13 Sr2 2.899944 1_654
O14 Ti5 1.864080 1_556
O14 Ti4 2.086768 1_556
O14 Sr2 2.758298 1_545
O14 Sr1 2.848041 1_556
O14 Sr3 2.999148 1_456
O15 Ti5 1.891232 1_655
O15 Ti4 2.046554 1_555
O15 Sr1 2.572498 1_555
O15 Sr3 2.723007 1_555
O15 Sr2 3.061894 1_644
O16 Ti0 2.007279 1_555
O16 Ti6 2.401532 1_555
O17 Ti1 1.844048 1_555
O17 Ti7 2.434566 1_555
O17 Sr0 2.757080 1_565
O17 Sr0 2.841545 1_555
O18 Ti2 2.020206 1_655
O18 Ti8 2.402495 1_655
O19 Ti3 1.861587 1_555
O19 Ti9 2.440886 1_455
O19 Sr0 2.606063 1_555
O19 Sr0 2.951604 1_455
O20 Ti1 1.914173 1_555
O20 Ti3 2.010265 1_555
O20 Sr2 2.694572 1_555
O20 Sr0 3.086967 1_555
O21 Ti0 1.831233 1_565
O21 Ti2 2.127797 1_655
O21 Sr1 2.555408 1_555
O21 Sr3 2.728163 1_565
O22 Ti3 1.865531 1_555
O22 Ti1 2.153585 1_545
O22 Sr2 2.559017 1_545
O22 Sr0 3.176854 1_555
O23 Ti2 1.840623 1_655
O23 Ti0 2.096818 1_555
O23 Sr3 2.554082 1_555
O23 Sr1 2.739235 1_555
O24 Ti6 1.776007 1_555
O25 Ti7 1.777650 1_555
O26 Ti8 1.776695 1_555
O27 Ti9 1.781574 1_555
O28 Ti7 1.999653 1_555
O28 Ti9 2.044517 1_455
O28 Sr0 2.835999 1_555
O29 Ti6 1.913156 1_565
O29 Ti8 2.083091 1_655
O30 Ti9 1.915007 1_455
O30 Ti7 2.007075 1_545
O30 Sr0 2.678298 1_555
O31 Ti8 1.911422 1_655
O31 Ti6 2.062684 1_555
