# generated using pymatgen
data_Er4(GeO5)3
_symmetry_space_group_name_H-M   'P 1'
_cell_length_a   9.32985670
_cell_length_b   9.32985670
_cell_length_c   7.08269200
_cell_angle_alpha   90.00000000
_cell_angle_beta   90.00000000
_cell_angle_gamma   109.99620587
_symmetry_Int_Tables_number   1
_chemical_formula_structural   Er4(GeO5)3
_chemical_formula_sum   'Er8 Ge6 O30'
_cell_volume   579.35476839
_cell_formula_units_Z   2
loop_
 _symmetry_equiv_pos_site_id
 _symmetry_equiv_pos_as_xyz
  1  'x, y, z'
loop_
 _atom_site_type_symbol
 _atom_site_label
 _atom_site_symmetry_multiplicity
 _atom_site_fract_x
 _atom_site_fract_y
 _atom_site_fract_z
 _atom_site_occupancy
  Er  Er0  1  0.57915600  0.83967000  0.25000000  1
  Er  Er1  1  0.16033000  0.42084400  0.75000000  1
  Er  Er2  1  0.42084400  0.16033000  0.75000000  1
  Er  Er3  1  0.83967000  0.57915600  0.25000000  1
  Er  Er4  1  0.19964600  0.90668100  0.25000000  1
  Er  Er5  1  0.09331900  0.80035400  0.75000000  1
  Er  Er6  1  0.80035400  0.09331900  0.75000000  1
  Er  Er7  1  0.90668100  0.19964600  0.25000000  1
  Ge  Ge0  1  0.50000000  0.50000000  0.00000000  1
  Ge  Ge1  1  0.50000000  0.50000000  0.50000000  1
  Ge  Ge2  1  0.53550800  0.22640900  0.25000000  1
  Ge  Ge3  1  0.77359100  0.46449200  0.75000000  1
  Ge  Ge4  1  0.46449200  0.77359100  0.75000000  1
  Ge  Ge5  1  0.22640900  0.53550800  0.25000000  1
  O  O0  1  0.46197000  0.28683200  0.04412100  1
  O  O1  1  0.71316800  0.53803000  0.95587900  1
  O  O2  1  0.46197000  0.28683200  0.45587900  1
  O  O3  1  0.71316800  0.53803000  0.54412100  1
  O  O4  1  0.53803000  0.71316800  0.95587900  1
  O  O5  1  0.28683200  0.46197000  0.04412100  1
  O  O6  1  0.53803000  0.71316800  0.54412100  1
  O  O7  1  0.28683200  0.46197000  0.45587900  1
  O  O8  1  0.46799500  0.02554700  0.25000000  1
  O  O9  1  0.97445300  0.53200500  0.75000000  1
  O  O10  1  0.53200500  0.97445300  0.75000000  1
  O  O11  1  0.02554700  0.46799500  0.25000000  1
  O  O12  1  0.31542600  0.73381400  0.25000000  1
  O  O13  1  0.26618700  0.68457400  0.75000000  1
  O  O14  1  0.68457400  0.26618700  0.75000000  1
  O  O15  1  0.73381400  0.31542600  0.25000000  1
  O  O16  1  0.43170200  0.43170200  0.75000000  1
  O  O17  1  0.56829800  0.56829800  0.25000000  1
  O  O18  1  0.25769700  0.98512400  0.94266600  1
  O  O19  1  0.01487600  0.74230300  0.05733400  1
  O  O20  1  0.25769700  0.98512400  0.55733400  1
  O  O21  1  0.01487600  0.74230300  0.44266600  1
  O  O22  1  0.74230300  0.01487600  0.05733400  1
  O  O23  1  0.98512400  0.25769700  0.94266600  1
  O  O24  1  0.74230300  0.01487600  0.44266600  1
  O  O25  1  0.98512400  0.25769700  0.55733400  1
  O  O26  1  0.13744900  0.13744900  0.75000000  1
  O  O27  1  0.86255100  0.86255100  0.25000000  1
  O  O28  1  0.07745600  0.07745600  0.25000000  1
  O  O29  1  0.92254400  0.92254400  0.75000000  1
loop_
_geom_bond_atom_site_label_1
_geom_bond_atom_site_label_2
_geom_bond_distance
_geom_bond_site_symmetry_2
Er0 O24 2.269229 1_565
Er0 O22 2.269229 1_565
Er0 O8 2.305028 1_565
Er0 O12 2.316847 1_555
Er0 O6 2.360101 1_555
Er0 O4 2.360101 1_554
Er0 O17 2.499034 1_555
Er0 O27 2.578849 1_555
Er1 O25 2.269229 1_455
Er1 O23 2.269229 1_455
Er1 O9 2.305028 1_455
Er1 O13 2.316848 1_555
Er1 O7 2.360101 1_555
Er1 O5 2.360101 1_556
Er1 O16 2.499034 1_555
Er1 O26 2.578849 1_555
Er2 O20 2.269229 1_545
Er2 O18 2.269229 1_545
Er2 O10 2.305028 1_545
Er2 O14 2.316848 1_555
Er2 O2 2.360101 1_555
Er2 O0 2.360101 1_556
Er2 O16 2.499034 1_555
Er2 O26 2.578849 1_555
Er3 O21 2.269229 1_655
Er3 O19 2.269229 1_655
Er3 O11 2.305028 1_655
Er3 O15 2.316847 1_555
Er3 O3 2.360101 1_555
Er3 O1 2.360101 1_554
Er3 O17 2.499034 1_555
Er3 O27 2.578849 1_555
Er4 O12 2.227009 1_555
Er4 O28 2.254001 1_565
Er4 O18 2.301330 1_554
Er4 O20 2.301330 1_555
Er4 O21 2.318997 1_555
Er4 O19 2.318997 1_555
Er4 O8 2.366274 1_565
Er5 O13 2.227017 1_555
Er5 O29 2.254001 1_455
Er5 O19 2.301330 1_556
Er5 O21 2.301330 1_555
Er5 O20 2.318997 1_555
Er5 O18 2.318997 1_555
Er5 O9 2.366274 1_455
Er6 O14 2.227017 1_555
Er6 O29 2.254001 1_545
Er6 O22 2.301330 1_556
Er6 O24 2.301330 1_555
Er6 O25 2.318997 1_555
Er6 O23 2.318997 1_555
Er6 O10 2.366274 1_545
Er7 O15 2.227009 1_555
Er7 O28 2.254001 1_655
Er7 O25 2.301330 1_555
Er7 O23 2.301330 1_554
Er7 O24 2.318997 1_555
Er7 O22 2.318997 1_555
Er7 O11 2.366274 1_655
Ge0 O17 1.915636 1_555
Ge0 O16 1.915636 1_554
Ge0 O1 1.922593 1_554
Ge0 O4 1.922593 1_554
Ge0 O5 1.922593 1_555
Ge0 O0 1.922593 1_555
Ge1 O17 1.915636 1_555
Ge1 O16 1.915636 1_555
Ge1 O3 1.922593 1_555
Ge1 O6 1.922593 1_555
Ge1 O2 1.922593 1_555
Ge1 O7 1.922593 1_555
Ge2 O15 1.749849 1_555
Ge2 O8 1.761073 1_555
Ge2 O2 1.783070 1_555
Ge2 O0 1.783070 1_555
Ge3 O14 1.749841 1_555
Ge3 O9 1.761073 1_555
Ge3 O1 1.783070 1_555
Ge3 O3 1.783070 1_555
Ge4 O13 1.749841 1_555
Ge4 O10 1.761073 1_555
Ge4 O4 1.783070 1_555
Ge4 O6 1.783070 1_555
Ge5 O12 1.749849 1_555
Ge5 O11 1.761073 1_555
Ge5 O7 1.783070 1_555
Ge5 O5 1.783070 1_555
