# generated using pymatgen
data_YAlCu
_symmetry_space_group_name_H-M   'P 1'
_cell_length_a   7.16507751
_cell_length_b   7.16507751
_cell_length_c   4.59953100
_cell_angle_alpha   90.00000000
_cell_angle_beta   90.00000000
_cell_angle_gamma   119.99999546
_symmetry_Int_Tables_number   1
_chemical_formula_structural   YAlCu
_chemical_formula_sum   'Y3 Al3 Cu3'
_cell_volume   204.49655082
_cell_formula_units_Z   3
loop_
 _symmetry_equiv_pos_site_id
 _symmetry_equiv_pos_as_xyz
  1  'x, y, z'
loop_
 _atom_site_type_symbol
 _atom_site_label
 _atom_site_symmetry_multiplicity
 _atom_site_fract_x
 _atom_site_fract_y
 _atom_site_fract_z
 _atom_site_occupancy
  Y  Y0  1  0.33333300  0.66666700  0.50000000  1
  Y  Y1  1  0.66666700  0.33333300  0.50000000  1
  Y  Y2  1  0.00000000  0.00000000  0.00000000  1
  Al  Al0  1  0.22762200  0.00000000  0.50000000  1
  Al  Al1  1  0.00000000  0.22762200  0.50000000  1
  Al  Al2  1  0.77237800  0.77237800  0.50000000  1
  Cu  Cu0  1  0.40086500  0.00000000  0.00000000  1
  Cu  Cu1  1  0.00000000  0.40086500  0.00000000  1
  Cu  Cu2  1  0.59913500  0.59913500  0.00000000  1
loop_
_geom_bond_atom_site_label_1
_geom_bond_atom_site_label_2
_geom_bond_distance
_geom_bond_site_symmetry_2
Al0 Cu0 2.613378 1_555
Al0 Cu0 2.613378 1_556
Al0 Y2 2.819371 1_555
Al0 Y2 2.819371 1_556
Al0 Al1 2.824852 1_555
Al0 Al2 2.824852 1_445
Al0 Y0 2.843757 1_545
Al0 Y1 2.843762 1_555
Al1 Cu1 2.613378 1_555
Al1 Cu1 2.613378 1_556
Al1 Y2 2.819371 1_555
Al1 Y2 2.819371 1_556
Al1 Al2 2.824852 1_445
Al1 Y1 2.843757 1_455
Al1 Y0 2.843762 1_555
Al2 Cu2 2.613378 1_556
Al2 Cu2 2.613378 1_555
Al2 Y2 2.819371 1_666
Al2 Y2 2.819371 1_665
Al2 Y0 2.843764 1_555
Al2 Y1 2.843764 1_555
Cu0 Y2 2.872229 1_555
Cu0 Y0 3.173585 1_545
Cu0 Y0 3.173585 1_544
Cu0 Y1 3.173587 1_554
Cu0 Y1 3.173587 1_555
Cu1 Y2 2.872229 1_555
Cu1 Y1 3.173585 1_455
Cu1 Y1 3.173585 1_454
Cu1 Y0 3.173587 1_555
Cu1 Y0 3.173587 1_554
Cu2 Y2 2.872229 1_665
Cu2 Y0 3.173590 1_554
Cu2 Y1 3.173590 1_555
Cu2 Y1 3.173590 1_554
Cu2 Y0 3.173590 1_555
