# generated using pymatgen
data_ZnH14C2N10(ClO3)2
_symmetry_space_group_name_H-M   'P 1'
_cell_length_a   7.97406900
_cell_length_b   13.25848200
_cell_length_c   8.14710941
_cell_angle_alpha   90.00000000
_cell_angle_beta   118.51752172
_cell_angle_gamma   90.00000000
_symmetry_Int_Tables_number   1
_chemical_formula_structural   ZnH14C2N10(ClO3)2
_chemical_formula_sum   'Zn2 H28 C4 N20 Cl4 O12'
_cell_volume   756.83935822
_cell_formula_units_Z   2
loop_
 _symmetry_equiv_pos_site_id
 _symmetry_equiv_pos_as_xyz
  1  'x, y, z'
loop_
 _atom_site_type_symbol
 _atom_site_label
 _atom_site_symmetry_multiplicity
 _atom_site_fract_x
 _atom_site_fract_y
 _atom_site_fract_z
 _atom_site_occupancy
  Zn  Zn0  1  0.00000000  0.00000000  0.00000000  1
  Zn  Zn1  1  0.00000000  0.50000000  0.50000000  1
  H  H0  1  0.63791200  0.84492500  0.10302500  1
  H  H1  1  0.63791200  0.65507500  0.60302500  1
  H  H2  1  0.36208800  0.15507500  0.89697500  1
  H  H3  1  0.36208800  0.34492500  0.39697500  1
  H  H4  1  0.73910700  0.05549200  0.40645800  1
  H  H5  1  0.73910700  0.44450800  0.90645800  1
  H  H6  1  0.26089300  0.94450800  0.59354200  1
  H  H7  1  0.26089300  0.55549200  0.09354200  1
  H  H8  1  0.57815600  0.95423000  0.30310600  1
  H  H9  1  0.57815600  0.54577000  0.80310600  1
  H  H10  1  0.42184400  0.04577000  0.69689400  1
  H  H11  1  0.42184400  0.45423000  0.19689400  1
  H  H12  1  0.89814100  0.81627300  0.04110000  1
  H  H13  1  0.89814100  0.68372700  0.54110000  1
  H  H14  1  0.10185900  0.18372700  0.95890000  1
  H  H15  1  0.10185900  0.31627300  0.45890000  1
  H  H16  1  0.71941100  0.86610300  0.85384900  1
  H  H17  1  0.71941100  0.63389700  0.35384900  1
  H  H18  1  0.28058900  0.13389700  0.14615100  1
  H  H19  1  0.28058900  0.36610300  0.64615100  1
  H  H20  1  0.59233700  0.28961400  0.34475600  1
  H  H21  1  0.59233700  0.21038600  0.84475600  1
  H  H22  1  0.40766300  0.71038600  0.65524400  1
  H  H23  1  0.40766300  0.78961400  0.15524400  1
  H  H24  1  0.56970400  0.21114100  0.47981600  1
  H  H25  1  0.56970400  0.28885900  0.97981600  1
  H  H26  1  0.43029600  0.78885900  0.52018400  1
  H  H27  1  0.43029600  0.71114100  0.02018400  1
  C  C0  1  0.77630800  0.98179000  0.21046600  1
  C  C1  1  0.77630800  0.51821000  0.71046600  1
  C  C2  1  0.22369200  0.01821000  0.78953400  1
  C  C3  1  0.22369200  0.48179000  0.28953400  1
  N  N0  1  0.81902600  0.88124400  0.98934900  1
  N  N1  1  0.81902600  0.61875600  0.48934900  1
  N  N2  1  0.18097400  0.11875600  0.01065100  1
  N  N3  1  0.18097400  0.38124400  0.51065100  1
  N  N4  1  0.72307300  0.90246900  0.09294000  1
  N  N5  1  0.72307300  0.59753100  0.59294000  1
  N  N6  1  0.27692700  0.09753100  0.90706000  1
  N  N7  1  0.27692700  0.40246900  0.40706000  1
  N  N8  1  0.69485800  0.99513500  0.31854200  1
  N  N9  1  0.69485800  0.50486500  0.81854200  1
  N  N10  1  0.30514200  0.00486500  0.68145800  1
  N  N11  1  0.30514200  0.49513500  0.18145800  1
  N  N12  1  0.91110200  0.04289000  0.20356900  1
  N  N13  1  0.91110200  0.45711000  0.70356900  1
  N  N14  1  0.08889800  0.95711000  0.79643100  1
  N  N15  1  0.08889800  0.54289000  0.29643100  1
  N  N16  1  0.97365100  0.12674100  0.31069000  1
  N  N17  1  0.97365100  0.37325900  0.81069000  1
  N  N18  1  0.02634900  0.87325900  0.68931000  1
  N  N19  1  0.02634900  0.62674100  0.18931000  1
  Cl  Cl0  1  0.29935300  0.90118900  0.26532900  1
  Cl  Cl1  1  0.29935300  0.59881100  0.76532900  1
  Cl  Cl2  1  0.70064700  0.09881100  0.73467100  1
  Cl  Cl3  1  0.70064700  0.40118900  0.23467100  1
  O  O0  1  0.08873600  0.17990900  0.28510600  1
  O  O1  1  0.08873600  0.32009100  0.78510600  1
  O  O2  1  0.91126400  0.82009100  0.71489400  1
  O  O3  1  0.91126400  0.67990900  0.21489400  1
  O  O4  1  0.92253700  0.14993100  0.42968800  1
  O  O5  1  0.92253700  0.35006900  0.92968800  1
  O  O6  1  0.07746300  0.85006900  0.57031200  1
  O  O7  1  0.07746300  0.64993100  0.07031200  1
  O  O8  1  0.49711800  0.25234000  0.36737900  1
  O  O9  1  0.49711800  0.24766000  0.86737900  1
  O  O10  1  0.50288200  0.74766000  0.63262100  1
  O  O11  1  0.50288200  0.75234000  0.13262100  1
loop_
_geom_bond_atom_site_label_1
_geom_bond_atom_site_label_2
_geom_bond_distance
_geom_bond_site_symmetry_2
H0 N4 1.050364 1_555
H1 N5 1.050364 1_555
H2 N6 1.050364 1_555
H3 N7 1.050364 1_555
H4 N8 1.018134 1_545
H5 N9 1.018134 1_555
H6 N10 1.018134 1_565
H7 N11 1.018134 1_555
H8 N8 1.031599 1_555
H9 N9 1.031599 1_555
H10 N10 1.031599 1_555
H11 N11 1.031599 1_555
H12 N0 1.031416 1_554
H13 N1 1.031416 1_555
H14 N2 1.031416 1_556
H15 N3 1.031416 1_555
H16 N0 1.025978 1_555
H17 N1 1.025978 1_555
H18 N2 1.025978 1_555
H19 N3 1.025978 1_555
H20 O8 0.994152 1_555
H21 O9 0.994152 1_555
H22 O10 0.994152 1_555
H23 O11 0.994152 1_555
H24 O8 0.982976 1_555
H25 O9 0.982976 1_555
H26 O10 0.982976 1_555
H27 O11 0.982976 1_555
C0 N8 1.332101 1_555
C0 N4 1.347188 1_555
C0 N12 1.368355 1_565
C1 N9 1.332101 1_555
C1 N5 1.347188 1_555
C1 N13 1.368355 1_555
C2 N10 1.332101 1_555
C2 N6 1.347188 1_555
C2 N14 1.368355 1_545
C3 N11 1.332101 1_555
C3 N7 1.347188 1_555
C3 N15 1.368355 1_555
N0 N4 1.411915 1_556
N0 Zn0 2.109412 1_666
N1 N5 1.411915 1_555
N1 Zn1 2.109412 1_655
N2 N6 1.411915 1_554
N2 Zn0 2.109412 1_555
N3 N7 1.411915 1_555
N3 Zn1 2.109412 1_555
N12 N16 1.353050 1_555
N12 Zn0 2.167740 1_655
N13 N17 1.353050 1_555
N13 Zn1 2.167740 1_655
N14 N18 1.353050 1_555
N14 Zn0 2.167740 1_566
N15 N19 1.353050 1_555
N15 Zn1 2.167740 1_555
N16 O0 1.251071 1_655
N16 O4 1.256138 1_555
N17 O1 1.251071 1_655
N17 O5 1.256138 1_555
N18 O2 1.251071 1_455
N18 O6 1.256138 1_555
N19 O3 1.251071 1_455
N19 O7 1.256138 1_555
Cl0 H23 2.116204 1_555
Cl0 Zn0 2.675836 1_565
Cl1 H22 2.116204 1_555
Cl1 Zn1 2.675836 1_555
Cl2 H21 2.116204 1_555
Cl2 Zn0 2.675836 1_656
Cl3 H20 2.116204 1_555
Cl3 Zn1 2.675836 1_655
