# generated using pymatgen
data_Sn3Ge
_symmetry_space_group_name_H-M   'P 1'
_cell_length_a   5.24506354
_cell_length_b   5.24506354
_cell_length_c   5.24506354
_cell_angle_alpha   60.00000000
_cell_angle_beta   60.00000000
_cell_angle_gamma   60.00000000
_symmetry_Int_Tables_number   1
_chemical_formula_structural   Sn3Ge
_chemical_formula_sum   'Sn3 Ge1'
_cell_volume   102.03220316
_cell_formula_units_Z   1
loop_
 _symmetry_equiv_pos_site_id
 _symmetry_equiv_pos_as_xyz
  1  'x, y, z'
loop_
 _atom_site_type_symbol
 _atom_site_label
 _atom_site_symmetry_multiplicity
 _atom_site_fract_x
 _atom_site_fract_y
 _atom_site_fract_z
 _atom_site_occupancy
  Sn  Sn0  1  0.25000000  0.25000000  0.25000000  1
  Sn  Sn1  1  0.75000000  0.75000000  0.75000000  1
  Sn  Sn2  1  0.50000000  0.50000000  0.50000000  1
  Ge  Ge0  1  0.00000000  0.00000000  0.00000000  1
loop_
_geom_bond_atom_site_label_1
_geom_bond_atom_site_label_2
_geom_bond_distance
_geom_bond_site_symmetry_2
Sn0 Sn2 3.211932 1_555
Sn0 Sn2 3.211932 1_545
Sn0 Sn2 3.211932 1_554
Sn0 Sn2 3.211932 1_455
Sn1 Sn2 3.211932 1_556
Sn1 Sn2 3.211932 1_565
Sn1 Sn2 3.211932 1_555
Sn1 Sn2 3.211932 1_655
Ge0 Sn1 3.211932 1_444
Ge0 Sn0 3.211932 1_554
Ge0 Sn1 3.211932 1_445
Ge0 Sn0 3.211932 1_555
Ge0 Sn1 3.211932 1_454
Ge0 Sn0 3.211932 1_545
Ge0 Sn0 3.211932 1_455
Ge0 Sn1 3.211932 1_544
