# generated using pymatgen
data_K2LaBr5
_symmetry_space_group_name_H-M   'P 1'
_cell_length_a   8.49832049
_cell_length_b   9.29437595
_cell_length_c   13.43874097
_cell_angle_alpha   90.00000000
_cell_angle_beta   90.00000000
_cell_angle_gamma   90.00000000
_symmetry_Int_Tables_number   1
_chemical_formula_structural   K2LaBr5
_chemical_formula_sum   'K8 La4 Br20'
_cell_volume   1061.48026368
_cell_formula_units_Z   4
loop_
 _symmetry_equiv_pos_site_id
 _symmetry_equiv_pos_as_xyz
  1  'x, y, z'
loop_
 _atom_site_type_symbol
 _atom_site_label
 _atom_site_symmetry_multiplicity
 _atom_site_fract_x
 _atom_site_fract_y
 _atom_site_fract_z
 _atom_site_occupancy
  K  K0  1  0.94831884  0.00442432  0.82786131  1
  K  K1  1  0.05168116  0.99557568  0.17213869  1
  K  K2  1  0.44831884  0.99557568  0.67213869  1
  K  K3  1  0.05168116  0.50442432  0.17213869  1
  K  K4  1  0.55168116  0.00442432  0.32786131  1
  K  K5  1  0.94831884  0.49557568  0.82786131  1
  K  K6  1  0.55168116  0.49557568  0.32786131  1
  K  K7  1  0.44831884  0.50442432  0.67213869  1
  La  La0  1  0.92086824  0.75000000  0.50672364  1
  La  La1  1  0.07913176  0.25000000  0.49327636  1
  La  La2  1  0.42086824  0.25000000  0.99327636  1
  La  La3  1  0.57913176  0.75000000  0.00672364  1
  Br  Br0  1  0.13221385  0.75000000  0.68317680  1
  Br  Br1  1  0.86778615  0.25000000  0.31682320  1
  Br  Br2  1  0.63221385  0.25000000  0.81682320  1
  Br  Br3  1  0.36778615  0.75000000  0.18317680  1
  Br  Br4  1  0.83187996  0.04530118  0.58029886  1
  Br  Br5  1  0.16812004  0.95469882  0.41970114  1
  Br  Br6  1  0.33187996  0.95469882  0.91970114  1
  Br  Br7  1  0.16812004  0.54530118  0.41970114  1
  Br  Br8  1  0.66812004  0.04530118  0.08029886  1
  Br  Br9  1  0.83187996  0.45469882  0.58029886  1
  Br  Br10  1  0.66812004  0.45469882  0.08029886  1
  Br  Br11  1  0.33187996  0.54530118  0.91970114  1
  Br  Br12  1  0.56643630  0.75000000  0.50655558  1
  Br  Br13  1  0.43356370  0.25000000  0.49344442  1
  Br  Br14  1  0.06643630  0.25000000  0.99344442  1
  Br  Br15  1  0.93356370  0.75000000  0.00655558  1
  Br  Br16  1  0.66819867  0.75000000  0.79069394  1
  Br  Br17  1  0.33180133  0.25000000  0.20930606  1
  Br  Br18  1  0.16819867  0.25000000  0.70930606  1
  Br  Br19  1  0.83180133  0.75000000  0.29069394  1
loop_
_geom_bond_atom_site_label_1
_geom_bond_atom_site_label_2
_geom_bond_distance
_geom_bond_site_symmetry_2
Br0 La0 2.974730 1_455
Br0 K5 3.437270 1_455
Br0 K0 3.437270 1_465
Br0 K7 3.528204 1_555
Br0 K2 3.528204 1_555
Br1 La1 2.974730 1_655
Br1 K1 3.437270 1_645
Br1 K3 3.437270 1_655
Br1 K4 3.528204 1_555
Br1 K6 3.528204 1_555
Br2 La2 2.974730 1_555
Br2 K2 3.437270 1_545
Br2 K7 3.437270 1_555
Br2 K5 3.528204 1_555
Br2 K0 3.528204 1_555
Br3 La3 2.974730 1_555
Br3 K6 3.437270 1_555
Br3 K4 3.437270 1_565
Br3 K3 3.528204 1_555
Br3 K1 3.528204 1_555
Br4 La0 3.013737 1_545
Br4 La1 3.066350 1_655
Br4 K0 3.491700 1_555
Br4 K2 3.515969 1_545
Br5 La1 3.013737 1_565
Br5 La0 3.066350 1_455
Br5 K1 3.491700 1_555
Br5 K4 3.515969 1_565
Br6 La2 3.013737 1_565
Br6 La3 3.066350 1_556
Br6 K2 3.491700 1_555
Br6 K0 3.515969 1_465
Br7 La1 3.013737 1_555
Br7 La0 3.066350 1_455
Br7 K3 3.491700 1_555
Br7 K6 3.515969 1_555
Br8 La3 3.013737 1_545
Br8 La2 3.066350 1_554
Br8 K4 3.491700 1_555
Br8 K1 3.515969 1_645
Br9 La0 3.013737 1_555
Br9 La1 3.066350 1_655
Br9 K5 3.491700 1_555
Br9 K7 3.515969 1_555
Br10 La3 3.013737 1_555
Br10 La2 3.066350 1_554
Br10 K6 3.491700 1_555
Br10 K3 3.515969 1_655
Br11 La2 3.013737 1_555
Br11 La3 3.066350 1_556
Br11 K7 3.491700 1_555
Br11 K5 3.515969 1_455
Br12 La0 3.012077 1_555
Br12 K7 3.341996 1_555
Br12 K2 3.341996 1_555
Br12 K6 3.372603 1_555
Br12 K4 3.372603 1_565
Br13 La1 3.012077 1_555
Br13 K4 3.341996 1_555
Br13 K6 3.341996 1_555
Br13 K2 3.372603 1_545
Br13 K7 3.372603 1_555
Br14 La2 3.012077 1_555
Br14 K5 3.341996 1_455
Br14 K0 3.341996 1_455
Br14 K1 3.372603 1_546
Br14 K3 3.372603 1_556
Br15 La3 3.012077 1_555
Br15 K3 3.341996 1_655
Br15 K1 3.341996 1_655
Br15 K0 3.372603 1_564
Br15 K5 3.372603 1_554
Br16 La3 3.000218 1_556
Br16 K7 3.352577 1_555
Br16 K2 3.352577 1_555
Br16 K5 3.392401 1_555
Br16 K0 3.392401 1_565
Br17 La2 3.000218 1_554
Br17 K6 3.352577 1_555
Br17 K4 3.352577 1_555
Br17 K1 3.392401 1_545
Br17 K3 3.392401 1_555
Br18 La1 3.000218 1_555
Br18 K0 3.352577 1_455
Br18 K5 3.352577 1_455
Br18 K2 3.392401 1_545
Br18 K7 3.392401 1_555
Br19 La0 3.000218 1_555
Br19 K3 3.352577 1_655
Br19 K1 3.352577 1_655
Br19 K6 3.392401 1_555
Br19 K4 3.392401 1_565
