# generated using pymatgen
data_Zn(MoO2)2
_symmetry_space_group_name_H-M   'P 1'
_cell_length_a   5.52832400
_cell_length_b   6.43739500
_cell_length_c   10.46362500
_cell_angle_alpha   90.00000000
_cell_angle_beta   90.00000000
_cell_angle_gamma   90.00000000
_symmetry_Int_Tables_number   1
_chemical_formula_structural   Zn(MoO2)2
_chemical_formula_sum   'Zn4 Mo8 O16'
_cell_volume   372.37954171
_cell_formula_units_Z   4
loop_
 _symmetry_equiv_pos_site_id
 _symmetry_equiv_pos_as_xyz
  1  'x, y, z'
loop_
 _atom_site_type_symbol
 _atom_site_label
 _atom_site_symmetry_multiplicity
 _atom_site_fract_x
 _atom_site_fract_y
 _atom_site_fract_z
 _atom_site_occupancy
  Zn  Zn0  1  0.86206600  0.00000000  0.50000000  1
  Zn  Zn1  1  0.13793400  0.50000000  0.00000000  1
  Zn  Zn2  1  0.54942600  0.00000000  0.00000000  1
  Zn  Zn3  1  0.45057400  0.50000000  0.50000000  1
  Mo  Mo0  1  0.51658400  0.50000000  0.22953700  1
  Mo  Mo1  1  0.51658400  0.50000000  0.77046300  1
  Mo  Mo2  1  0.48341600  0.00000000  0.27046300  1
  Mo  Mo3  1  0.48341600  0.00000000  0.72953700  1
  Mo  Mo4  1  0.00000000  0.25000000  0.25000000  1
  Mo  Mo5  1  0.00000000  0.75000000  0.75000000  1
  Mo  Mo6  1  0.00000000  0.75000000  0.25000000  1
  Mo  Mo7  1  0.00000000  0.25000000  0.75000000  1
  O  O0  1  0.87253200  0.50000000  0.13612800  1
  O  O1  1  0.87253200  0.50000000  0.86387200  1
  O  O2  1  0.12746800  0.00000000  0.36387200  1
  O  O3  1  0.12746800  0.00000000  0.63612800  1
  O  O4  1  0.20252400  0.50000000  0.34805300  1
  O  O5  1  0.20252400  0.50000000  0.65194700  1
  O  O6  1  0.79747600  0.00000000  0.15194700  1
  O  O7  1  0.79747600  0.00000000  0.84805300  1
  O  O8  1  0.66472200  0.25699200  0.36200000  1
  O  O9  1  0.66472200  0.74300800  0.63800000  1
  O  O10  1  0.33527800  0.75699200  0.13800000  1
  O  O11  1  0.33527800  0.24300800  0.86200000  1
  O  O12  1  0.33527800  0.24300800  0.13800000  1
  O  O13  1  0.33527800  0.75699200  0.86200000  1
  O  O14  1  0.66472200  0.74300800  0.36200000  1
  O  O15  1  0.66472200  0.25699200  0.63800000  1
loop_
_geom_bond_atom_site_label_1
_geom_bond_atom_site_label_2
_geom_bond_distance
_geom_bond_site_symmetry_2
Mo0 O4 2.133622 1_555
Mo0 O12 2.158459 1_555
Mo0 O10 2.158459 1_555
Mo0 O0 2.197163 1_555
Mo0 O8 2.244762 1_555
Mo0 O14 2.244762 1_555
Mo1 O5 2.133622 1_555
Mo1 O11 2.158459 1_555
Mo1 O13 2.158459 1_555
Mo1 O1 2.197163 1_555
Mo1 O15 2.244762 1_555
Mo1 O9 2.244762 1_555
Mo2 O6 2.133622 1_555
Mo2 O14 2.158459 1_545
Mo2 O8 2.158459 1_555
Mo2 O2 2.197163 1_555
Mo2 O10 2.244762 1_545
Mo2 O12 2.244762 1_555
Mo3 O7 2.133622 1_555
Mo3 O15 2.158459 1_555
Mo3 O9 2.158459 1_545
Mo3 O3 2.197163 1_555
Mo3 O13 2.244762 1_545
Mo3 O11 2.244762 1_555
Mo4 O2 2.122802 1_555
Mo4 O0 2.122802 1_455
Mo4 O12 2.193398 1_555
Mo4 O8 2.193398 1_455
Mo4 O4 2.212737 1_555
Mo4 O6 2.212737 1_455
Mo5 O3 2.122802 1_565
Mo5 O1 2.122802 1_455
Mo5 O9 2.193398 1_455
Mo5 O13 2.193398 1_555
Mo5 O7 2.212737 1_465
Mo5 O5 2.212737 1_555
Mo6 O2 2.122802 1_565
Mo6 O0 2.122802 1_455
Mo6 O10 2.193398 1_555
Mo6 O14 2.193398 1_455
Mo6 O4 2.212737 1_555
Mo6 O6 2.212737 1_465
Mo7 O3 2.122802 1_555
Mo7 O1 2.122802 1_455
Mo7 O11 2.193398 1_555
Mo7 O15 2.193398 1_455
Mo7 O7 2.212737 1_455
Mo7 O5 2.212737 1_555
O0 Zn1 2.044909 1_655
O1 Zn1 2.044909 1_656
O2 Zn0 2.044909 1_455
O3 Zn0 2.044909 1_455
O4 Zn3 2.099595 1_555
O5 Zn3 2.099595 1_555
O6 Zn2 2.099595 1_555
O7 Zn2 2.099595 1_556
O8 Zn3 2.435940 1_555
O8 Zn0 2.451984 1_555
O9 Zn3 2.435940 1_555
O9 Zn0 2.451984 1_565
O10 Zn2 2.435940 1_565
O10 Zn1 2.451984 1_555
O11 Zn2 2.435940 1_556
O11 Zn1 2.451984 1_556
O12 Zn2 2.435940 1_555
O12 Zn1 2.451984 1_555
O13 Zn2 2.435940 1_566
O13 Zn1 2.451984 1_556
O14 Zn3 2.435940 1_555
O14 Zn0 2.451984 1_565
O15 Zn3 2.435940 1_555
O15 Zn0 2.451984 1_555
