# generated using pymatgen
data_B5I
_symmetry_space_group_name_H-M   'P 1'
_cell_length_a   6.74909642
_cell_length_b   6.74909642
_cell_length_c   10.47920381
_cell_angle_alpha   85.21518590
_cell_angle_beta   85.21518590
_cell_angle_gamma   126.47552383
_symmetry_Int_Tables_number   1
_chemical_formula_structural   B5I
_chemical_formula_sum   'B20 I4'
_cell_volume   377.18385521
_cell_formula_units_Z   4
loop_
 _symmetry_equiv_pos_site_id
 _symmetry_equiv_pos_as_xyz
  1  'x, y, z'
loop_
 _atom_site_type_symbol
 _atom_site_label
 _atom_site_symmetry_multiplicity
 _atom_site_fract_x
 _atom_site_fract_y
 _atom_site_fract_z
 _atom_site_occupancy
  B  B0  1  0.70906000  0.57234800  0.72170300  1
  B  B1  1  0.42765200  0.29094000  0.77829700  1
  B  B2  1  0.29094000  0.42765200  0.27829700  1
  B  B3  1  0.57234800  0.70906000  0.22170300  1
  B  B4  1  0.07754800  0.51178200  0.69382600  1
  B  B5  1  0.48821800  0.92245200  0.80617400  1
  B  B6  1  0.92245200  0.48821800  0.30617400  1
  B  B7  1  0.51178200  0.07754800  0.19382600  1
  B  B8  1  0.05054900  0.44624500  0.55044200  1
  B  B9  1  0.55375500  0.94945100  0.94955800  1
  B  B10  1  0.94945100  0.55375500  0.44955800  1
  B  B11  1  0.44624500  0.05054900  0.05044200  1
  B  B12  1  0.89865600  0.55296600  0.61065500  1
  B  B13  1  0.44703400  0.10134400  0.88934500  1
  B  B14  1  0.10134400  0.44703400  0.38934500  1
  B  B15  1  0.55296600  0.89865600  0.11065500  1
  B  B16  1  0.01604800  0.72640500  0.73276700  1
  B  B17  1  0.27359500  0.98395200  0.76723300  1
  B  B18  1  0.98395200  0.27359500  0.26723300  1
  B  B19  1  0.72640500  0.01604800  0.23276700  1
  I  I0  1  0.65872700  0.87623900  0.63425700  1
  I  I1  1  0.12376100  0.34127300  0.86574300  1
  I  I2  1  0.34127300  0.12376100  0.36574300  1
  I  I3  1  0.87623900  0.65872700  0.13425700  1
loop_
_geom_bond_atom_site_label_1
_geom_bond_atom_site_label_2
_geom_bond_distance
_geom_bond_site_symmetry_2
B0 B16 1.698862 1_655
B0 B1 1.703364 1_555
B0 B12 1.727620 1_555
B0 I0 2.393417 1_555
B1 B17 1.698862 1_545
B1 B13 1.727620 1_555
B1 I1 2.393417 1_555
B2 B3 1.703364 1_555
B2 I2 2.393417 1_555
B3 I3 2.393417 1_555
B4 B8 1.596003 1_555
B4 I1 2.200407 1_555
B5 B9 1.596003 1_555
B5 I0 2.200407 1_555
B6 I3 2.200407 1_555
B7 I2 2.200407 1_555
B10 B6 1.596003 1_555
B10 B8 1.640334 1_655
B10 B14 1.677395 1_655
B10 B12 1.693295 1_555
B11 B7 1.596003 1_555
B11 B9 1.640334 1_544
B11 B15 1.677395 1_545
B11 B13 1.693295 1_554
B12 B8 1.677395 1_655
B12 B4 1.681887 1_655
B12 B16 1.718068 1_655
B13 B9 1.677395 1_545
B13 B5 1.681887 1_545
B13 B17 1.718068 1_545
B14 B6 1.681887 1_455
B14 B8 1.693295 1_555
B14 B18 1.718068 1_455
B14 B2 1.727620 1_555
B15 B7 1.681887 1_565
B15 B9 1.693295 1_554
B15 B19 1.718068 1_565
B15 B3 1.727620 1_555
B16 B17 1.670441 1_555
B16 B4 1.795044 1_555
B17 B5 1.795044 1_555
B18 B19 1.670441 1_555
B18 B2 1.698862 1_655
B18 B6 1.795044 1_555
B19 B3 1.698862 1_545
B19 B7 1.795044 1_555
