# generated using pymatgen
data_Ti20(Ge3Sb)3
_symmetry_space_group_name_H-M   'P 1'
_cell_length_a   5.25063200
_cell_length_b   7.67401000
_cell_length_c   13.40997008
_cell_angle_alpha   89.99358679
_cell_angle_beta   90.00000000
_cell_angle_gamma   90.00000000
_symmetry_Int_Tables_number   1
_chemical_formula_structural   Ti20(Ge3Sb)3
_chemical_formula_sum   'Ti20 Ge9 Sb3'
_cell_volume   540.33331838
_cell_formula_units_Z   1
loop_
 _symmetry_equiv_pos_site_id
 _symmetry_equiv_pos_as_xyz
  1  'x, y, z'
loop_
 _atom_site_type_symbol
 _atom_site_label
 _atom_site_symmetry_multiplicity
 _atom_site_fract_x
 _atom_site_fract_y
 _atom_site_fract_z
 _atom_site_occupancy
  Ti  Ti0  1  0.74384600  0.00677200  0.33338700  1
  Ti  Ti1  1  0.74682500  0.50248900  0.82883300  1
  Ti  Ti2  1  0.74364700  0.49444600  0.16929800  1
  Ti  Ti3  1  0.74660900  0.00272600  0.67067200  1
  Ti  Ti4  1  0.25635300  0.49444600  0.16929800  1
  Ti  Ti5  1  0.25339100  0.00272600  0.67067200  1
  Ti  Ti6  1  0.25615400  0.00677200  0.33338700  1
  Ti  Ti7  1  0.25317500  0.50248900  0.82883300  1
  Ti  Ti8  1  0.00000000  0.26248600  0.50010800  1
  Ti  Ti9  1  0.00000000  0.76045000  0.99356500  1
  Ti  Ti10  1  0.00000000  0.61299000  0.37528800  1
  Ti  Ti11  1  0.00000000  0.11893100  0.86799300  1
  Ti  Ti12  1  0.00000000  0.13002700  0.12996900  1
  Ti  Ti13  1  0.00000000  0.61867700  0.63132600  1
  Ti  Ti14  1  0.50000000  0.74453100  0.50039900  1
  Ti  Ti15  1  0.50000000  0.24387800  0.00016500  1
  Ti  Ti16  1  0.50000000  0.87512400  0.12489100  1
  Ti  Ti17  1  0.50000000  0.37381200  0.62821600  1
  Ti  Ti18  1  0.50000000  0.37229100  0.37222300  1
  Ti  Ti19  1  0.50000000  0.87309200  0.87155000  1
  Ge  Ge0  1  0.00000000  0.30331900  0.69466900  1
  Ge  Ge1  1  0.00000000  0.30309200  0.30573500  1
  Ge  Ge2  1  0.00000000  0.80344200  0.80307500  1
  Ge  Ge3  1  0.50000000  0.61316300  0.99922800  1
  Ge  Ge4  1  0.50000000  0.11478400  0.50165600  1
  Ge  Ge5  1  0.50000000  0.69457700  0.30746500  1
  Ge  Ge6  1  0.50000000  0.19579200  0.80664000  1
  Ge  Ge7  1  0.50000000  0.19335900  0.19367400  1
  Ge  Ge8  1  0.50000000  0.69605900  0.69348600  1
  Sb  Sb0  1  0.00000000  0.88938200  0.50128000  1
  Sb  Sb1  1  0.00000000  0.39121100  0.99781100  1
  Sb  Sb2  1  0.00000000  0.80259100  0.19519500  1
loop_
_geom_bond_atom_site_label_1
_geom_bond_atom_site_label_2
_geom_bond_distance
_geom_bond_site_symmetry_2
Ti2 Ti4 2.558601 1_555
Ti2 Ti4 2.692031 1_655
Ge0 Ti13 2.564714 1_555
Ge0 Ti8 2.627842 1_555
Ge0 Ti5 2.682343 1_555
Ge0 Ti3 2.682343 1_455
Ge0 Ti7 2.709377 1_555
Ge0 Ti1 2.709377 1_455
Ge0 Ti11 2.720975 1_555
Ge0 Ti17 2.824701 1_555
Ge0 Ti17 2.824701 1_455
Ge1 Ti10 2.554619 1_555
Ge1 Ti8 2.625062 1_555
Ge1 Ti6 2.667801 1_555
Ge1 Ti0 2.667801 1_455
Ge1 Ti4 2.704626 1_555
Ge1 Ti2 2.704626 1_455
Ge1 Ti12 2.705566 1_555
Ge1 Ti18 2.823002 1_555
Ge1 Ti18 2.823002 1_455
Ge2 Ti11 2.572914 1_565
Ge2 Ti9 2.575646 1_555
Ge2 Ti7 2.687027 1_555
Ge2 Ti1 2.687027 1_455
Ge2 Ti5 2.694583 1_565
Ge2 Ti3 2.694583 1_465
Ge2 Ti13 2.704743 1_555
Ge2 Ti19 2.832182 1_455
Ge2 Ti19 2.832182 1_555
Ge3 Ti16 2.623303 1_556
Ge3 Ti19 2.628600 1_555
Ge3 Ti7 2.760894 1_555
Ge3 Ti1 2.760894 1_555
Ge3 Ti2 2.769011 1_556
Ge3 Ti4 2.769011 1_556
Ge3 Ti15 2.833923 1_556
Ge3 Ti9 2.859295 1_655
Ge3 Ti9 2.859295 1_555
Ge4 Ti17 2.613888 1_555
Ge4 Ti18 2.629996 1_555
Ge4 Ti0 2.723686 1_555
Ge4 Ti6 2.723686 1_555
Ge4 Ti5 2.748220 1_555
Ge4 Ti3 2.748220 1_555
Ge4 Ti14 2.841377 1_545
Ge4 Ti8 2.859625 1_655
Ge4 Ti8 2.859625 1_555
Ge5 Ti14 2.615527 1_555
Ge5 Ti18 2.621162 1_555
Ge5 Ti2 2.725596 1_555
Ge5 Ti4 2.725596 1_555
Ge5 Ti0 2.738632 1_565
Ge5 Ti6 2.738632 1_565
Ge5 Ti16 2.813030 1_555
Ge5 Ti10 2.848044 1_655
Ge5 Ti10 2.848044 1_555
Ge6 Ti15 2.621309 1_556
Ge6 Ti19 2.624835 1_545
Ge6 Ti5 2.682700 1_555
Ge6 Ti3 2.682700 1_555
Ge6 Ti1 2.703280 1_555
Ge6 Ti7 2.703280 1_555
Ge6 Ti17 2.755067 1_555
Ge6 Ti11 2.813713 1_655
Ge6 Ti11 2.813713 1_555
Ge7 Ti16 2.610618 1_545
Ge7 Ti15 2.623707 1_555
Ge7 Ti4 2.661186 1_555
Ge7 Ti2 2.661186 1_555
Ge7 Ti0 2.683117 1_555
Ge7 Ti6 2.683117 1_555
Ge7 Ti18 2.760264 1_555
Ge7 Ti12 2.803280 1_555
Ge7 Ti12 2.803280 1_655
Ge8 Ti14 2.615832 1_555
Ge8 Ti17 2.623346 1_555
Ge8 Ti7 2.679513 1_555
Ge8 Ti1 2.679513 1_555
Ge8 Ti5 2.703407 1_565
Ge8 Ti3 2.703407 1_565
Ge8 Ti19 2.747388 1_555
Ge8 Ti13 2.817775 1_655
Ge8 Ti13 2.817775 1_555
Sb0 Ti10 2.711857 1_555
Sb0 Ti13 2.712191 1_555
Sb0 Ti5 2.772550 1_565
Sb0 Ti3 2.772550 1_465
Sb0 Ti0 2.772906 1_465
Sb0 Ti6 2.772906 1_565
Sb0 Ti14 2.850974 1_455
Sb0 Ti14 2.850974 1_555
Sb0 Ti8 2.863245 1_565
Sb1 Ti12 2.675323 1_556
Sb1 Ti11 2.719801 1_555
Sb1 Ti7 2.762358 1_555
Sb1 Ti1 2.762358 1_455
Sb1 Ti2 2.779948 1_456
Sb1 Ti4 2.779948 1_556
Sb1 Ti9 2.834109 1_555
Sb1 Ti15 2.858602 1_456
Sb1 Ti15 2.858602 1_556
Sb2 Ti12 2.660539 1_565
Sb2 Ti9 2.723159 1_554
Sb2 Ti4 2.743061 1_555
Sb2 Ti2 2.743061 1_455
Sb2 Ti0 2.774689 1_465
Sb2 Ti6 2.774689 1_565
Sb2 Ti10 2.819338 1_555
Sb2 Ti16 2.844436 1_455
Sb2 Ti16 2.844436 1_555
