# generated using pymatgen
data_Rb6ReN4
_symmetry_space_group_name_H-M   'P 1'
_cell_length_a   8.80266000
_cell_length_b   8.80266000
_cell_length_c   7.50443000
_cell_angle_alpha   90.00000000
_cell_angle_beta   90.00000000
_cell_angle_gamma   90.00000000
_symmetry_Int_Tables_number   1
_chemical_formula_structural   Rb6ReN4
_chemical_formula_sum   'Rb12 Re2 N8'
_cell_volume   581.49443969
_cell_formula_units_Z   2
loop_
 _symmetry_equiv_pos_site_id
 _symmetry_equiv_pos_as_xyz
  1  'x, y, z'
loop_
 _atom_site_type_symbol
 _atom_site_label
 _atom_site_symmetry_multiplicity
 _atom_site_fract_x
 _atom_site_fract_y
 _atom_site_fract_z
 _atom_site_occupancy
  Rb  Rb0  1  0.00000000  0.50000000  0.74949600  1
  Rb  Rb1  1  0.50000000  0.00000000  0.75050400  1
  Rb  Rb2  1  0.50000000  0.00000000  0.25050400  1
  Rb  Rb3  1  0.00000000  0.50000000  0.24949600  1
  Rb  Rb4  1  0.21289800  0.21289800  0.50000000  1
  Rb  Rb5  1  0.78710200  0.78710200  0.50000000  1
  Rb  Rb6  1  0.71289800  0.71289800  0.00000000  1
  Rb  Rb7  1  0.28710200  0.28710200  0.00000000  1
  Rb  Rb8  1  0.78710200  0.21289800  0.50000000  1
  Rb  Rb9  1  0.21289800  0.78710200  0.50000000  1
  Rb  Rb10  1  0.28710200  0.71289800  0.00000000  1
  Rb  Rb11  1  0.71289800  0.28710200  0.00000000  1
  Re  Re0  1  0.50000000  0.50000000  0.50000000  1
  Re  Re1  1  0.00000000  0.00000000  0.00000000  1
  N  N0  1  0.32361600  0.50000000  0.36139800  1
  N  N1  1  0.67638400  0.50000000  0.36139800  1
  N  N2  1  0.82361600  0.00000000  0.13860200  1
  N  N3  1  0.17638400  0.00000000  0.13860200  1
  N  N4  1  0.50000000  0.32361600  0.63860200  1
  N  N5  1  0.50000000  0.67638400  0.63860200  1
  N  N6  1  0.00000000  0.82361600  0.86139800  1
  N  N7  1  0.00000000  0.17638400  0.86139800  1
loop_
_geom_bond_atom_site_label_1
_geom_bond_atom_site_label_2
_geom_bond_distance
_geom_bond_site_symmetry_2
N0 Re0 1.868846 1_555
N0 Rb4 2.901515 1_555
N0 Rb9 2.901515 1_555
N0 Rb3 2.969880 1_555
N0 Rb7 3.312228 1_555
N0 Rb10 3.312228 1_555
N1 Re0 1.868846 1_555
N1 Rb8 2.901515 1_555
N1 Rb5 2.901515 1_555
N1 Rb3 2.969880 1_655
N1 Rb11 3.312228 1_555
N1 Rb6 3.312228 1_555
N2 Re1 1.868846 1_655
N2 Rb6 2.901515 1_545
N2 Rb11 2.901515 1_555
N2 Rb2 2.969880 1_555
N2 Rb8 3.312228 1_555
N2 Rb5 3.312228 1_545
N3 Re1 1.868846 1_555
N3 Rb10 2.901515 1_545
N3 Rb7 2.901515 1_555
N3 Rb2 2.969880 1_555
N3 Rb9 3.312228 1_545
N3 Rb4 3.312228 1_555
N4 Re0 1.868846 1_555
N4 Rb4 2.901515 1_555
N4 Rb8 2.901515 1_555
N4 Rb1 2.969880 1_555
N4 Rb7 3.312228 1_556
N4 Rb11 3.312228 1_556
N5 Re0 1.868846 1_555
N5 Rb5 2.901515 1_555
N5 Rb9 2.901515 1_555
N5 Rb1 2.969880 1_565
N5 Rb10 3.312228 1_556
N5 Rb6 3.312228 1_556
N6 Re1 1.868846 1_566
N6 Rb6 2.901515 1_456
N6 Rb10 2.901515 1_556
N6 Rb0 2.969880 1_555
N6 Rb5 3.312228 1_455
N6 Rb9 3.312228 1_555
N7 Re1 1.868846 1_556
N7 Rb7 2.901515 1_556
N7 Rb11 2.901515 1_456
N7 Rb0 2.969880 1_555
N7 Rb4 3.312228 1_555
N7 Rb8 3.312228 1_455
