# generated using pymatgen
data_KHCS2N
_symmetry_space_group_name_H-M   'P 1'
_cell_length_a   6.74435900
_cell_length_b   10.97055400
_cell_length_c   13.08054400
_cell_angle_alpha   90.00000000
_cell_angle_beta   90.00000000
_cell_angle_gamma   90.00000000
_symmetry_Int_Tables_number   1
_chemical_formula_structural   KHCS2N
_chemical_formula_sum   'K8 H8 C8 S16 N8'
_cell_volume   967.82100844
_cell_formula_units_Z   8
loop_
 _symmetry_equiv_pos_site_id
 _symmetry_equiv_pos_as_xyz
  1  'x, y, z'
loop_
 _atom_site_type_symbol
 _atom_site_label
 _atom_site_symmetry_multiplicity
 _atom_site_fract_x
 _atom_site_fract_y
 _atom_site_fract_z
 _atom_site_occupancy
  K  K0  1  0.79449100  0.55453900  0.14134600  1
  K  K1  1  0.70550900  0.05453900  0.35865400  1
  K  K2  1  0.70550900  0.44546100  0.64134600  1
  K  K3  1  0.79449100  0.94546100  0.85865400  1
  K  K4  1  0.20550900  0.44546100  0.85865400  1
  K  K5  1  0.29449100  0.94546100  0.64134600  1
  K  K6  1  0.29449100  0.55453900  0.35865400  1
  K  K7  1  0.20550900  0.05453900  0.14134600  1
  H  H0  1  0.48187700  0.62613100  0.97572200  1
  H  H1  1  0.01812300  0.12613100  0.52427800  1
  H  H2  1  0.01812300  0.37386900  0.47572200  1
  H  H3  1  0.48187700  0.87386900  0.02427800  1
  H  H4  1  0.51812300  0.37386900  0.02427800  1
  H  H5  1  0.98187700  0.87386900  0.47572200  1
  H  H6  1  0.98187700  0.62613100  0.52427800  1
  H  H7  1  0.51812300  0.12613100  0.97572200  1
  C  C0  1  0.28560100  0.65362100  0.09592400  1
  C  C1  1  0.21439900  0.15362100  0.40407600  1
  C  C2  1  0.21439900  0.34637900  0.59592400  1
  C  C3  1  0.28560100  0.84637900  0.90407600  1
  C  C4  1  0.71439900  0.34637900  0.90407600  1
  C  C5  1  0.78560100  0.84637900  0.59592400  1
  C  C6  1  0.78560100  0.65362100  0.40407600  1
  C  C7  1  0.71439900  0.15362100  0.09592400  1
  S  S0  1  0.28491700  0.49815100  0.11698800  1
  S  S1  1  0.21508300  0.99815100  0.38301200  1
  S  S2  1  0.21508300  0.50184900  0.61698800  1
  S  S3  1  0.28491700  0.00184900  0.88301200  1
  S  S4  1  0.71508300  0.50184900  0.88301200  1
  S  S5  1  0.78491700  0.00184900  0.61698800  1
  S  S6  1  0.78491700  0.49815100  0.38301200  1
  S  S7  1  0.71508300  0.99815100  0.11698800  1
  S  S8  1  0.14853200  0.75273100  0.16465200  1
  S  S9  1  0.35146800  0.25273100  0.33534800  1
  S  S10  1  0.35146800  0.24726900  0.66465200  1
  S  S11  1  0.14853200  0.74726900  0.83534800  1
  S  S12  1  0.85146800  0.24726900  0.83534800  1
  S  S13  1  0.64853200  0.74726900  0.66465200  1
  S  S14  1  0.64853200  0.75273100  0.33534800  1
  S  S15  1  0.85146800  0.25273100  0.16465200  1
  N  N0  1  0.41051500  0.69137800  0.01911100  1
  N  N1  1  0.08948500  0.19137800  0.48088900  1
  N  N2  1  0.08948500  0.30862200  0.51911100  1
  N  N3  1  0.41051500  0.80862200  0.98088900  1
  N  N4  1  0.58948500  0.30862200  0.98088900  1
  N  N5  1  0.91051500  0.80862200  0.51911100  1
  N  N6  1  0.91051500  0.69137800  0.48088900  1
  N  N7  1  0.58948500  0.19137800  0.01911100  1
loop_
_geom_bond_atom_site_label_1
_geom_bond_atom_site_label_2
_geom_bond_distance
_geom_bond_site_symmetry_2
K0 S6 3.221730 1_555
K0 S8 3.243749 1_655
K0 S15 3.347138 1_555
K0 S0 3.380010 1_655
K0 N0 3.393594 1_555
K0 S4 3.469812 1_554
K0 S14 3.483704 1_555
K0 S0 3.506486 1_555
K1 S7 3.221730 1_545
K1 S9 3.243749 1_555
K1 S14 3.347138 1_545
K1 S1 3.380010 1_545
K1 N1 3.393594 1_655
K1 S5 3.469812 1_555
K1 S15 3.483704 1_555
K1 S1 3.506486 1_645
K2 S4 3.221730 1_555
K2 S10 3.243749 1_555
K2 S13 3.347138 1_555
K2 S2 3.380010 1_555
K2 N2 3.393594 1_655
K2 S6 3.469812 1_555
K2 S12 3.483704 1_555
K2 S2 3.506486 1_655
K3 S5 3.221730 1_565
K3 S11 3.243749 1_655
K3 S12 3.347138 1_565
K3 S3 3.380010 1_665
K3 N3 3.393594 1_555
K3 S7 3.469812 1_556
K3 S13 3.483704 1_555
K3 S3 3.506486 1_565
K4 S2 3.221730 1_555
K4 S12 3.243749 1_455
K4 S11 3.347138 1_555
K4 S4 3.380010 1_455
K4 N4 3.393594 1_555
K4 S0 3.469812 1_556
K4 S10 3.483704 1_555
K4 S4 3.506486 1_555
K5 S3 3.221730 1_565
K5 S13 3.243749 1_555
K5 S10 3.347138 1_565
K5 S5 3.380010 1_565
K5 N5 3.393594 1_455
K5 S1 3.469812 1_555
K5 S11 3.483704 1_555
K5 S5 3.506486 1_465
K6 S0 3.221730 1_555
K6 S14 3.243749 1_555
K6 S9 3.347138 1_555
K6 S6 3.380010 1_555
K6 N6 3.393594 1_455
K6 S2 3.469812 1_555
K6 S8 3.483704 1_555
K6 S6 3.506486 1_455
K7 S1 3.221730 1_545
K7 S15 3.243749 1_455
K7 S8 3.347138 1_545
K7 S7 3.380010 1_445
K7 N7 3.393594 1_555
K7 S3 3.469812 1_554
K7 S9 3.483704 1_555
K7 S7 3.506486 1_545
H0 N0 1.032531 1_556
H0 K4 3.122124 1_555
H0 K0 3.123403 1_556
H1 N1 1.032531 1_555
H1 K5 3.122124 1_545
H1 K1 3.123403 1_455
H2 N2 1.032531 1_555
H2 K6 3.122124 1_555
H2 K2 3.123403 1_455
H3 N3 1.032531 1_554
H3 K7 3.122124 1_565
H3 K3 3.123403 1_554
H4 N4 1.032531 1_554
H4 K0 3.122124 1_555
H4 K4 3.123403 1_554
H5 N5 1.032531 1_555
H5 K1 3.122124 1_565
H5 K5 3.123403 1_655
H6 N6 1.032531 1_555
H6 K2 3.122124 1_555
H6 K6 3.123403 1_655
H7 N7 1.032531 1_556
H7 K3 3.122124 1_545
H7 K7 3.123403 1_556
C0 N0 1.375084 1_555
C0 S8 1.686712 1_555
C0 S0 1.727710 1_555
C1 N1 1.375084 1_555
C1 S9 1.686712 1_555
C1 S1 1.727710 1_545
C2 N2 1.375084 1_555
C2 S10 1.686712 1_555
C2 S2 1.727710 1_555
C3 N3 1.375084 1_555
C3 S11 1.686712 1_555
C3 S3 1.727710 1_565
C4 N4 1.375084 1_555
C4 S12 1.686712 1_555
C4 S4 1.727710 1_555
C5 N5 1.375084 1_555
C5 S13 1.686712 1_555
C5 S5 1.727710 1_565
C6 N6 1.375084 1_555
C6 S14 1.686712 1_555
C6 S6 1.727710 1_555
C7 N7 1.375084 1_555
C7 S15 1.686712 1_555
C7 S7 1.727710 1_545
N0 N3 1.379984 1_554
N1 N2 1.379984 1_555
N4 N7 1.379984 1_556
N5 N6 1.379984 1_555
