# generated using pymatgen
data_CaSmCoO4
_symmetry_space_group_name_H-M   'P 1'
_cell_length_a   6.56193249
_cell_length_b   6.56193249
_cell_length_c   5.47460800
_cell_angle_alpha   90.00000000
_cell_angle_beta   90.00000000
_cell_angle_gamma   132.62080957
_symmetry_Int_Tables_number   1
_chemical_formula_structural   CaSmCoO4
_chemical_formula_sum   'Ca2 Sm2 Co2 O8'
_cell_volume   173.46287767
_cell_formula_units_Z   2
loop_
 _symmetry_equiv_pos_site_id
 _symmetry_equiv_pos_as_xyz
  1  'x, y, z'
loop_
 _atom_site_type_symbol
 _atom_site_label
 _atom_site_symmetry_multiplicity
 _atom_site_fract_x
 _atom_site_fract_y
 _atom_site_fract_z
 _atom_site_occupancy
  Ca  Ca0  1  0.89396500  0.10603500  0.51400600  1
  Ca  Ca1  1  0.10603500  0.89396500  0.01400600  1
  Sm  Sm0  1  0.61169400  0.38830700  0.48050700  1
  Sm  Sm1  1  0.38830700  0.61169300  0.98050700  1
  Co  Co0  1  0.24875300  0.75124700  0.49941100  1
  Co  Co1  1  0.75124700  0.24875300  0.99941100  1
  O  O0  1  0.98421100  0.51468300  0.74899900  1
  O  O1  1  0.01578900  0.48531700  0.24899900  1
  O  O2  1  0.51468300  0.98421100  0.24899900  1
  O  O3  1  0.48531700  0.01578900  0.74899900  1
  O  O4  1  0.08119500  0.91880500  0.45424500  1
  O  O5  1  0.42474900  0.57525100  0.55383200  1
  O  O6  1  0.91880500  0.08119500  0.95424500  1
  O  O7  1  0.57525100  0.42474900  0.05383200  1
loop_
_geom_bond_atom_site_label_1
_geom_bond_atom_site_label_2
_geom_bond_distance
_geom_bond_site_symmetry_2
Ca0 O4 2.273789 1_645
Ca0 O6 2.428554 1_555
Ca0 O2 2.498737 1_545
Ca0 O1 2.498737 1_655
Ca0 O3 2.654383 1_555
Ca0 O0 2.654383 1_555
Ca0 O5 2.671207 1_545
Ca0 O5 2.671207 1_655
Ca1 O6 2.273789 1_464
Ca1 O4 2.428554 1_555
Ca1 O0 2.498737 1_454
Ca1 O3 2.498737 1_564
Ca1 O1 2.654383 1_555
Ca1 O2 2.654383 1_555
Ca1 O7 2.671207 1_455
Ca1 O7 2.671207 1_565
Co0 O3 1.908071 1_565
Co0 O0 1.908071 1_455
Co0 O2 1.910153 1_555
Co0 O1 1.910153 1_555
Co0 O4 2.028835 1_555
Co0 O5 2.135998 1_555
Co1 O2 1.908071 1_546
Co1 O1 1.908071 1_656
Co1 O3 1.910153 1_555
Co1 O0 1.910153 1_555
Co1 O6 2.028835 1_555
Co1 O7 2.135998 1_556
O0 Sm0 2.465408 1_555
O0 Sm1 2.599389 1_655
O1 Sm1 2.465413 1_554
O1 Sm0 2.599384 1_455
O2 Sm1 2.465413 1_554
O2 Sm0 2.599386 1_565
O3 Sm0 2.465411 1_555
O3 Sm1 2.599389 1_545
O4 Sm0 2.665697 1_455
O4 Sm0 2.665702 1_565
O5 Sm0 2.282277 1_555
O5 Sm1 2.376581 1_555
O6 Sm1 2.665698 1_655
O6 Sm1 2.665698 1_545
O7 Sm1 2.282272 1_554
O7 Sm0 2.376582 1_555
