# generated using pymatgen
data_LaAlNi
_symmetry_space_group_name_H-M   'P 1'
_cell_length_a   4.19575184
_cell_length_b   7.16033171
_cell_length_c   15.88125066
_cell_angle_alpha   90.00000000
_cell_angle_beta   90.00000000
_cell_angle_gamma   90.00000000
_symmetry_Int_Tables_number   1
_chemical_formula_structural   LaAlNi
_chemical_formula_sum   'La8 Al8 Ni8'
_cell_volume   477.12001571
_cell_formula_units_Z   8
loop_
 _symmetry_equiv_pos_site_id
 _symmetry_equiv_pos_as_xyz
  1  'x, y, z'
loop_
 _atom_site_type_symbol
 _atom_site_label
 _atom_site_symmetry_multiplicity
 _atom_site_fract_x
 _atom_site_fract_y
 _atom_site_fract_z
 _atom_site_occupancy
  La  La0  1  0.75000000  0.85573303  0.93869465  1
  La  La1  1  0.25000000  0.14426697  0.06130535  1
  La  La2  1  0.25000000  0.64426697  0.43869465  1
  La  La3  1  0.75000000  0.35573303  0.56130535  1
  La  La4  1  0.75000000  0.98813690  0.72300049  1
  La  La5  1  0.25000000  0.01186310  0.27699951  1
  La  La6  1  0.25000000  0.51186310  0.22300049  1
  La  La7  1  0.75000000  0.48813690  0.77699951  1
  Al  Al0  1  0.75000000  0.82679131  0.14490975  1
  Al  Al1  1  0.25000000  0.17320869  0.85509025  1
  Al  Al2  1  0.25000000  0.67320869  0.64490975  1
  Al  Al3  1  0.75000000  0.32679131  0.35509025  1
  Al  Al4  1  0.75000000  0.99097866  0.44049108  1
  Al  Al5  1  0.25000000  0.00902134  0.55950892  1
  Al  Al6  1  0.25000000  0.50902134  0.94049108  1
  Al  Al7  1  0.75000000  0.49097866  0.05950892  1
  Ni  Ni0  1  0.75000000  0.79972924  0.57276739  1
  Ni  Ni1  1  0.25000000  0.20027076  0.42723261  1
  Ni  Ni2  1  0.25000000  0.70027076  0.07276739  1
  Ni  Ni3  1  0.75000000  0.29972924  0.92723261  1
  Ni  Ni4  1  0.75000000  0.73031230  0.32002258  1
  Ni  Ni5  1  0.25000000  0.26968770  0.67997742  1
  Ni  Ni6  1  0.25000000  0.76968770  0.82002258  1
  Ni  Ni7  1  0.75000000  0.23031230  0.17997742  1
loop_
_geom_bond_atom_site_label_1
_geom_bond_atom_site_label_2
_geom_bond_distance
_geom_bond_site_symmetry_2
La0 Ni6 2.886629 1_555
La0 Ni6 2.886629 1_655
La0 Ni3 3.184367 1_565
La0 Ni2 3.189653 1_556
La0 Ni2 3.189653 1_656
La1 Ni7 2.886629 1_455
La1 Ni7 2.886629 1_555
La1 Ni2 3.184367 1_545
La1 Ni3 3.189653 1_454
La1 Ni3 3.189653 1_554
La2 Ni4 2.886629 1_455
La2 Ni4 2.886629 1_555
La2 Ni1 3.184367 1_555
La2 Ni0 3.189653 1_455
La2 Ni0 3.189653 1_555
La3 Ni5 2.886629 1_555
La3 Ni5 2.886629 1_655
La3 Ni0 3.184367 1_555
La3 Ni1 3.189653 1_555
La3 Ni1 3.189653 1_655
La4 Ni0 2.740882 1_555
La4 Ni5 2.988674 1_565
La4 Ni5 2.988674 1_665
La4 Ni6 3.036753 1_655
La4 Ni6 3.036753 1_555
La5 Ni1 2.740882 1_555
La5 Ni4 2.988674 1_545
La5 Ni4 2.988674 1_445
La5 Ni7 3.036753 1_455
La5 Ni7 3.036753 1_555
La6 Ni2 2.740882 1_555
La6 Ni7 2.988674 1_455
La6 Ni7 2.988674 1_555
La6 Ni4 3.036753 1_555
La6 Ni4 3.036753 1_455
La7 Ni3 2.740882 1_555
La7 Ni6 2.988674 1_555
La7 Ni6 2.988674 1_655
La7 Ni5 3.036753 1_555
La7 Ni5 3.036753 1_655
Al0 Ni2 2.556256 1_655
Al0 Ni2 2.556256 1_555
Al0 Al7 2.760659 1_555
Al0 Ni4 2.865529 1_555
Al0 Ni7 2.942527 1_565
Al0 La5 3.249266 1_565
Al0 La5 3.249266 1_665
Al0 La0 3.281504 1_554
Al0 La6 3.320257 1_655
Al0 La6 3.320257 1_555
Al0 La1 3.366239 1_565
Al0 La1 3.366239 1_665
Al1 Ni3 2.556256 1_455
Al1 Ni3 2.556256 1_555
Al1 Al6 2.760659 1_555
Al1 Ni5 2.865529 1_555
Al1 Ni6 2.942527 1_545
Al1 La4 3.249266 1_545
Al1 La4 3.249266 1_445
Al1 La1 3.281504 1_556
Al1 La7 3.320257 1_555
Al1 La7 3.320257 1_455
Al1 La0 3.366239 1_545
Al1 La0 3.366239 1_445
Al2 Ni0 2.556256 1_455
Al2 Ni0 2.556256 1_555
Al2 Al5 2.760659 1_565
Al2 Ni6 2.865529 1_555
Al2 Ni5 2.942527 1_555
Al2 La7 3.249266 1_555
Al2 La7 3.249266 1_455
Al2 La2 3.281504 1_555
Al2 La4 3.320257 1_455
Al2 La4 3.320257 1_555
Al2 La3 3.366239 1_555
Al2 La3 3.366239 1_455
Al3 Ni1 2.556256 1_555
Al3 Ni1 2.556256 1_655
Al3 Al4 2.760659 1_545
Al3 Ni7 2.865529 1_555
Al3 Ni4 2.942527 1_555
Al3 La6 3.249266 1_555
Al3 La6 3.249266 1_655
Al3 La3 3.281504 1_555
Al3 La5 3.320257 1_555
Al3 La5 3.320257 1_655
Al3 La2 3.366239 1_655
Al3 La2 3.366239 1_555
Al4 Ni0 2.507644 1_555
Al4 Ni1 2.586740 1_665
Al4 Ni1 2.586740 1_565
Al4 Ni4 2.672819 1_555
Al4 La3 3.240778 1_565
Al4 La2 3.250393 1_655
Al4 La2 3.250393 1_555
Al5 Ni1 2.507644 1_555
Al5 Ni0 2.586740 1_545
Al5 Ni0 2.586740 1_445
Al5 Ni5 2.672819 1_555
Al5 La2 3.240778 1_545
Al5 La3 3.250393 1_455
Al5 La3 3.250393 1_555
Al6 Ni2 2.507644 1_556
Al6 Ni3 2.586740 1_455
Al6 Ni3 2.586740 1_555
Al6 Ni6 2.672819 1_555
Al6 La1 3.240778 1_556
Al6 La0 3.250393 1_455
Al6 La0 3.250393 1_555
Al7 Ni3 2.507644 1_554
Al7 Ni2 2.586740 1_655
Al7 Ni2 2.586740 1_555
Al7 Ni7 2.672819 1_555
Al7 La0 3.240778 1_554
Al7 La1 3.250393 1_655
Al7 La1 3.250393 1_555
