# generated using pymatgen
data_Mg6VSi
_symmetry_space_group_name_H-M   'P 1'
_cell_length_a   4.86727100
_cell_length_b   6.19547300
_cell_length_c   10.59599900
_cell_angle_alpha   90.00000000
_cell_angle_beta   90.00000000
_cell_angle_gamma   90.00000000
_symmetry_Int_Tables_number   1
_chemical_formula_structural   Mg6VSi
_chemical_formula_sum   'Mg12 V2 Si2'
_cell_volume   319.52283794
_cell_formula_units_Z   2
loop_
 _symmetry_equiv_pos_site_id
 _symmetry_equiv_pos_as_xyz
  1  'x, y, z'
loop_
 _atom_site_type_symbol
 _atom_site_label
 _atom_site_symmetry_multiplicity
 _atom_site_fract_x
 _atom_site_fract_y
 _atom_site_fract_z
 _atom_site_occupancy
  Mg  Mg0  1  0.00000000  0.25550100  0.08466900  1
  Mg  Mg1  1  0.00000000  0.74449900  0.08466900  1
  Mg  Mg2  1  0.00000000  0.50000000  0.83443600  1
  Mg  Mg3  1  0.50000000  0.24241600  0.91235000  1
  Mg  Mg4  1  0.50000000  0.75758400  0.91235000  1
  Mg  Mg5  1  0.50000000  0.50000000  0.66666600  1
  Mg  Mg6  1  0.00000000  0.75550100  0.58466900  1
  Mg  Mg7  1  0.00000000  0.24449900  0.58466900  1
  Mg  Mg8  1  0.00000000  0.00000000  0.33443600  1
  Mg  Mg9  1  0.50000000  0.74241600  0.41235000  1
  Mg  Mg10  1  0.50000000  0.25758400  0.41235000  1
  Mg  Mg11  1  0.50000000  0.00000000  0.16666600  1
  V  V0  1  0.00000000  0.50000000  0.32370500  1
  V  V1  1  0.00000000  0.00000000  0.82370500  1
  Si  Si0  1  0.50000000  0.50000000  0.18115500  1
  Si  Si1  1  0.50000000  0.00000000  0.68115500  1
loop_
_geom_bond_atom_site_label_1
_geom_bond_atom_site_label_2
_geom_bond_distance
_geom_bond_site_symmetry_2
Mg0 V0 2.951234 1_555
Mg0 Mg1 3.029574 1_555
Mg0 Mg11 3.030379 1_455
Mg0 Mg11 3.030379 1_555
Mg0 Si0 3.043418 1_555
Mg0 Si0 3.043418 1_455
Mg0 Mg3 3.043523 1_454
Mg0 Mg3 3.043523 1_554
Mg0 Mg2 3.053664 1_554
Mg0 Mg8 3.083805 1_555
Mg0 Mg1 3.165899 1_545
Mg0 V1 3.186207 1_554
Mg1 V0 2.951234 1_555
Mg1 Mg11 3.030379 1_565
Mg1 Mg11 3.030379 1_465
Mg1 Si0 3.043418 1_555
Mg1 Si0 3.043418 1_455
Mg1 Mg4 3.043523 1_554
Mg1 Mg4 3.043523 1_454
Mg1 Mg2 3.053664 1_554
Mg1 Mg8 3.083805 1_565
Mg1 V1 3.186207 1_564
Mg2 Mg5 3.013763 1_555
Mg2 Mg5 3.013763 1_455
Mg2 Mg4 3.025047 1_555
Mg2 Mg4 3.025047 1_455
Mg2 Mg3 3.025047 1_455
Mg2 Mg3 3.025047 1_555
Mg2 Mg7 3.083805 1_555
Mg2 Mg6 3.083805 1_555
Mg2 V1 3.099823 1_565
Mg2 V1 3.099823 1_555
Mg3 Si1 2.873480 1_555
Mg3 Mg4 3.003764 1_545
Mg3 V1 3.010063 1_555
Mg3 V1 3.010063 1_655
Mg3 Mg5 3.053482 1_555
Mg3 Mg4 3.191709 1_555
Mg3 Si0 3.264862 1_556
Mg4 Si1 2.873480 1_565
Mg4 V1 3.010063 1_665
Mg4 V1 3.010063 1_565
Mg4 Mg5 3.053482 1_555
Mg4 Si0 3.264862 1_556
Mg5 Mg7 3.030379 1_655
Mg5 Mg6 3.030379 1_555
Mg5 Mg7 3.030379 1_555
Mg5 Mg6 3.030379 1_655
Mg5 Mg9 3.085001 1_555
Mg5 Si1 3.101539 1_555
Mg5 Si1 3.101539 1_565
Mg6 V1 2.951234 1_565
Mg6 Mg7 3.029574 1_565
Mg6 Si1 3.043418 1_465
Mg6 Si1 3.043418 1_565
Mg6 Mg9 3.043523 1_555
Mg6 Mg9 3.043523 1_455
Mg6 Mg8 3.053664 1_565
Mg6 Mg7 3.165899 1_555
Mg6 V0 3.186207 1_555
Mg7 V1 2.951234 1_555
Mg7 Si1 3.043418 1_455
Mg7 Si1 3.043418 1_555
Mg7 Mg8 3.053664 1_555
Mg7 V0 3.186207 1_555
Mg8 Mg9 3.025047 1_545
Mg8 Mg9 3.025047 1_445
Mg8 V0 3.099823 1_545
Mg8 V0 3.099823 1_555
Mg9 Si0 2.873480 1_555
Mg9 V0 3.010063 1_555
Mg9 V0 3.010063 1_655
Mg9 Si1 3.264862 1_565
Mg10 Si0 2.873480 1_555
Mg10 Mg9 3.003764 1_555
Mg10 V0 3.010063 1_555
Mg10 V0 3.010063 1_655
Mg10 Mg8 3.025047 1_555
Mg10 Mg8 3.025047 1_655
Mg10 Mg7 3.043523 1_555
Mg10 Mg7 3.043523 1_655
Mg10 Mg11 3.053482 1_555
Mg10 Mg5 3.085001 1_555
Mg10 Mg9 3.191709 1_545
Mg10 Si1 3.264862 1_555
Mg11 Mg8 3.013763 1_655
Mg11 Mg8 3.013763 1_555
Mg11 Mg9 3.053482 1_545
Mg11 Mg3 3.085001 1_554
Mg11 Mg4 3.085001 1_544
Mg11 Si0 3.101539 1_555
Mg11 Si0 3.101539 1_545
Si0 V0 2.864275 1_655
Si0 V0 2.864275 1_555
Si1 V1 2.864275 1_555
Si1 V1 2.864275 1_655
