# generated using pymatgen
data_ErCuPb
_symmetry_space_group_name_H-M   'P 1'
_cell_length_a   4.62364746
_cell_length_b   4.62364746
_cell_length_c   7.22212000
_cell_angle_alpha   90.00000000
_cell_angle_beta   90.00000000
_cell_angle_gamma   119.99999224
_symmetry_Int_Tables_number   1
_chemical_formula_structural   ErCuPb
_chemical_formula_sum   'Er2 Cu2 Pb2'
_cell_volume   133.71027788
_cell_formula_units_Z   2
loop_
 _symmetry_equiv_pos_site_id
 _symmetry_equiv_pos_as_xyz
  1  'x, y, z'
loop_
 _atom_site_type_symbol
 _atom_site_label
 _atom_site_symmetry_multiplicity
 _atom_site_fract_x
 _atom_site_fract_y
 _atom_site_fract_z
 _atom_site_occupancy
  Er  Er0  1  0.00000000  0.00000000  0.50000000  1
  Er  Er1  1  0.00000000  0.00000000  0.00000000  1
  Cu  Cu0  1  0.33333300  0.66666700  0.25000000  1
  Cu  Cu1  1  0.66666700  0.33333300  0.75000000  1
  Pb  Pb0  1  0.33333300  0.66666700  0.75000000  1
  Pb  Pb1  1  0.66666700  0.33333300  0.25000000  1
loop_
_geom_bond_atom_site_label_1
_geom_bond_atom_site_label_2
_geom_bond_distance
_geom_bond_site_symmetry_2
Er0 Pb1 3.222726 1_455
Er0 Pb0 3.222726 1_545
Er0 Pb0 3.222729 1_445
Er0 Pb1 3.222729 1_555
Er0 Pb0 3.222729 1_555
Er0 Pb1 3.222729 1_445
Er1 Pb1 3.222726 1_455
Er1 Pb0 3.222726 1_544
Er1 Pb1 3.222729 1_555
Er1 Pb0 3.222729 1_444
Er1 Pb1 3.222729 1_445
Er1 Pb0 3.222729 1_554
Cu0 Pb1 2.669462 1_455
Cu0 Pb1 2.669462 1_565
Cu0 Pb1 2.669469 1_555
Cu0 Er1 3.222726 1_565
Cu0 Er0 3.222726 1_565
Cu0 Er1 3.222729 1_665
Cu0 Er0 3.222729 1_665
Cu0 Er1 3.222729 1_555
Cu0 Er0 3.222729 1_555
Cu1 Pb0 2.669462 1_655
Cu1 Pb0 2.669462 1_545
Cu1 Pb0 2.669469 1_555
Cu1 Er1 3.222726 1_656
Cu1 Er0 3.222726 1_655
Cu1 Er1 3.222729 1_556
Cu1 Er0 3.222729 1_555
Cu1 Er0 3.222729 1_665
Cu1 Er1 3.222729 1_666
