# generated using pymatgen
data_LaBeCu12
_symmetry_space_group_name_H-M   'P 1'
_cell_length_a   8.09401232
_cell_length_b   8.09401232
_cell_length_c   8.09401232
_cell_angle_alpha   60.00000000
_cell_angle_beta   60.00000000
_cell_angle_gamma   60.00000000
_symmetry_Int_Tables_number   1
_chemical_formula_structural   LaBeCu12
_chemical_formula_sum   'La2 Be2 Cu24'
_cell_volume   374.95278682
_cell_formula_units_Z   2
loop_
 _symmetry_equiv_pos_site_id
 _symmetry_equiv_pos_as_xyz
  1  'x, y, z'
loop_
 _atom_site_type_symbol
 _atom_site_label
 _atom_site_symmetry_multiplicity
 _atom_site_fract_x
 _atom_site_fract_y
 _atom_site_fract_z
 _atom_site_occupancy
  La  La0  1  0.25000000  0.25000000  0.25000000  1
  La  La1  1  0.75000000  0.75000000  0.75000000  1
  Be  Be0  1  0.50000000  0.50000000  0.50000000  1
  Be  Be1  1  0.00000000  0.00000000  0.00000000  1
  Cu  Cu0  1  0.79169400  0.56121200  0.20830600  1
  Cu  Cu1  1  0.20830600  0.43878800  0.79169400  1
  Cu  Cu2  1  0.56121200  0.79169400  0.43878800  1
  Cu  Cu3  1  0.43878800  0.20830600  0.56121200  1
  Cu  Cu4  1  0.29169400  0.93878800  0.70830600  1
  Cu  Cu5  1  0.70830600  0.06121200  0.29169400  1
  Cu  Cu6  1  0.93878800  0.29169400  0.06121200  1
  Cu  Cu7  1  0.06121200  0.70830600  0.93878800  1
  Cu  Cu8  1  0.20830600  0.79169400  0.56121200  1
  Cu  Cu9  1  0.79169400  0.20830600  0.43878800  1
  Cu  Cu10  1  0.43878800  0.56121200  0.79169400  1
  Cu  Cu11  1  0.56121200  0.43878800  0.20830600  1
  Cu  Cu12  1  0.70830600  0.29169400  0.93878800  1
  Cu  Cu13  1  0.29169400  0.70830600  0.06121200  1
  Cu  Cu14  1  0.06121200  0.93878800  0.29169400  1
  Cu  Cu15  1  0.93878800  0.06121200  0.70830600  1
  Cu  Cu16  1  0.56121200  0.20830600  0.79169400  1
  Cu  Cu17  1  0.43878800  0.79169400  0.20830600  1
  Cu  Cu18  1  0.79169400  0.43878800  0.56121200  1
  Cu  Cu19  1  0.20830600  0.56121200  0.43878800  1
  Cu  Cu20  1  0.93878800  0.70830600  0.29169400  1
  Cu  Cu21  1  0.06121200  0.29169400  0.70830600  1
  Cu  Cu22  1  0.29169400  0.06121200  0.93878800  1
  Cu  Cu23  1  0.70830600  0.93878800  0.06121200  1
loop_
_geom_bond_atom_site_label_1
_geom_bond_atom_site_label_2
_geom_bond_distance
_geom_bond_site_symmetry_2
Be0 Cu19 2.412400 1_555
Be0 Cu3 2.412400 1_555
Be0 Cu11 2.412400 1_555
Be0 Cu16 2.412400 1_555
Be0 Cu8 2.412400 1_555
Be0 Cu1 2.412400 1_555
Be0 Cu0 2.412400 1_555
Be0 Cu9 2.412400 1_555
Be0 Cu17 2.412400 1_555
Be0 Cu18 2.412400 1_555
Be0 Cu10 2.412400 1_555
Be0 Cu2 2.412400 1_555
Be1 Cu21 2.412400 1_554
Be1 Cu14 2.412400 1_545
Be1 Cu22 2.412400 1_554
Be1 Cu20 2.412400 1_445
Be1 Cu15 2.412400 1_454
Be1 Cu12 2.412400 1_454
Be1 Cu4 2.412400 1_544
Be1 Cu5 2.412400 1_455
Be1 Cu7 2.412400 1_544
Be1 Cu6 2.412400 1_455
Be1 Cu23 2.412400 1_445
Be1 Cu13 2.412400 1_545
Cu0 Cu6 2.485226 1_555
Cu0 Cu7 2.485226 1_654
Cu0 Cu11 2.512094 1_555
Cu0 Cu17 2.512094 1_555
Cu0 Cu9 2.512094 1_555
Cu0 Cu18 2.512094 1_555
Cu0 Cu23 2.512995 1_555
Cu0 Cu20 2.512995 1_555
Cu0 Cu2 2.638250 1_555
Cu0 La0 3.358170 1_655
Cu0 La1 3.358170 1_554
Cu1 Cu7 2.485226 1_555
Cu1 Cu6 2.485226 1_456
Cu1 Cu19 2.512094 1_555
Cu1 Cu8 2.512094 1_555
Cu1 Cu16 2.512094 1_555
Cu1 Cu10 2.512094 1_555
Cu1 Cu22 2.512995 1_555
Cu1 Cu21 2.512995 1_555
Cu1 Cu3 2.638250 1_555
Cu1 La1 3.358170 1_455
Cu1 La0 3.358170 1_556
Cu2 Cu4 2.485226 1_555
Cu2 Cu5 2.485226 1_565
Cu2 Cu8 2.512094 1_555
Cu2 Cu20 2.512995 1_555
Cu2 Cu23 2.512995 1_555
Cu2 La1 3.358170 1_555
Cu2 La0 3.358170 1_565
Cu3 Cu5 2.485226 1_555
Cu3 Cu4 2.485226 1_545
Cu3 Cu9 2.512094 1_555
Cu3 La1 3.358170 1_545
Cu3 La0 3.358170 1_555
Cu4 Cu8 2.512995 1_555
Cu4 Cu7 2.638250 1_555
Cu4 La1 3.358170 1_555
Cu4 La0 3.358170 1_565
Cu5 Cu9 2.512995 1_555
Cu5 Cu6 2.638250 1_555
Cu5 La1 3.358170 1_545
Cu5 La0 3.358170 1_555
Cu6 Cu9 2.512995 1_555
Cu6 La1 3.358170 1_554
Cu6 La0 3.358170 1_655
Cu7 Cu8 2.512995 1_555
Cu7 La1 3.358170 1_455
Cu7 La0 3.358170 1_556
Cu8 La1 3.358170 1_455
Cu8 La0 3.358170 1_565
Cu9 La1 3.358170 1_545
Cu9 La0 3.358170 1_655
Cu10 Cu13 2.485226 1_556
Cu10 Cu12 2.485226 1_555
Cu10 Cu2 2.512094 1_555
Cu10 Cu18 2.512094 1_555
Cu10 Cu16 2.512094 1_555
Cu10 Cu4 2.512995 1_555
Cu10 Cu7 2.512995 1_555
Cu10 Cu8 2.638250 1_555
Cu10 La1 3.358170 1_555
Cu10 La0 3.358170 1_556
Cu11 Cu13 2.485226 1_555
Cu11 Cu12 2.485226 1_554
Cu11 Cu17 2.512094 1_555
Cu11 Cu3 2.512094 1_555
Cu11 Cu19 2.512094 1_555
Cu11 Cu6 2.512995 1_555
Cu11 Cu5 2.512995 1_555
Cu11 Cu9 2.638250 1_555
Cu11 La1 3.358170 1_554
Cu11 La0 3.358170 1_555
Cu12 Cu23 2.512094 1_546
Cu12 Cu6 2.512094 1_556
Cu12 Cu21 2.512094 1_655
Cu12 Cu5 2.512094 1_556
Cu12 Cu18 2.512995 1_555
Cu12 Cu16 2.512995 1_555
Cu12 Cu15 2.638250 1_555
Cu12 La0 3.358170 1_556
Cu12 La1 3.358170 1_555
Cu13 Cu4 2.512094 1_554
Cu13 Cu20 2.512094 1_455
Cu13 Cu7 2.512094 1_554
Cu13 Cu22 2.512094 1_564
Cu13 Cu19 2.512995 1_555
Cu13 Cu17 2.512995 1_555
Cu13 Cu14 2.638250 1_555
Cu13 La1 3.358170 1_554
Cu13 La0 3.358170 1_555
Cu14 Cu9 2.485226 1_465
Cu14 Cu8 2.485226 1_555
Cu14 Cu20 2.512094 1_455
Cu14 Cu5 2.512094 1_465
Cu14 Cu22 2.512094 1_564
Cu14 Cu6 2.512094 1_465
Cu14 Cu19 2.512995 1_555
Cu14 Cu17 2.512995 1_555
Cu14 La1 3.358170 1_455
Cu14 La0 3.358170 1_565
Cu15 Cu8 2.485226 1_645
Cu15 Cu9 2.485226 1_555
Cu15 Cu7 2.512094 1_645
Cu15 Cu23 2.512094 1_546
Cu15 Cu21 2.512094 1_655
Cu15 Cu4 2.512094 1_645
Cu15 Cu16 2.512995 1_555
Cu15 Cu18 2.512995 1_555
Cu15 La1 3.358170 1_545
Cu15 La0 3.358170 1_655
Cu16 Cu23 2.485226 1_546
Cu16 Cu22 2.485226 1_555
Cu16 Cu9 2.512094 1_555
Cu16 Cu3 2.512094 1_555
Cu16 Cu18 2.638250 1_555
Cu16 La0 3.358170 1_556
Cu16 La1 3.358170 1_545
Cu17 Cu23 2.485226 1_555
Cu17 Cu22 2.485226 1_564
Cu17 Cu8 2.512094 1_555
Cu17 Cu2 2.512094 1_555
Cu17 Cu19 2.638250 1_555
Cu17 La0 3.358170 1_565
Cu17 La1 3.358170 1_554
Cu18 Cu20 2.485226 1_555
Cu18 Cu21 2.485226 1_655
Cu18 Cu2 2.512094 1_555
Cu18 Cu9 2.512094 1_555
Cu18 La1 3.358170 1_555
Cu18 La0 3.358170 1_655
Cu19 Cu21 2.485226 1_555
Cu19 Cu20 2.485226 1_455
Cu19 Cu8 2.512094 1_555
Cu19 Cu3 2.512094 1_555
Cu19 La1 3.358170 1_455
Cu19 La0 3.358170 1_555
Cu20 Cu5 2.512094 1_565
Cu20 Cu7 2.512094 1_654
Cu20 Cu23 2.638250 1_555
Cu20 La1 3.358170 1_555
Cu20 La0 3.358170 1_655
Cu21 Cu4 2.512094 1_545
Cu21 Cu6 2.512094 1_456
Cu21 Cu3 2.512995 1_555
Cu21 Cu22 2.638250 1_555
Cu21 La1 3.358170 1_455
Cu21 La0 3.358170 1_555
Cu22 Cu4 2.512094 1_545
Cu22 Cu6 2.512094 1_456
Cu22 Cu3 2.512995 1_555
Cu22 La1 3.358170 1_545
Cu22 La0 3.358170 1_556
Cu23 Cu7 2.512094 1_654
Cu23 Cu5 2.512094 1_565
Cu23 La1 3.358170 1_554
Cu23 La0 3.358170 1_565
