# generated using pymatgen
data_BaSrNdBiO6
_symmetry_space_group_name_H-M   'P 1'
_cell_length_a   6.15482762
_cell_length_b   6.22893069
_cell_length_c   8.75093054
_cell_angle_alpha   90.19360226
_cell_angle_beta   89.72140817
_cell_angle_gamma   89.94936288
_symmetry_Int_Tables_number   1
_chemical_formula_structural   BaSrNdBiO6
_chemical_formula_sum   'Ba2 Sr2 Nd2 Bi2 O12'
_cell_volume   335.48711134
_cell_formula_units_Z   2
loop_
 _symmetry_equiv_pos_site_id
 _symmetry_equiv_pos_as_xyz
  1  'x, y, z'
loop_
 _atom_site_type_symbol
 _atom_site_label
 _atom_site_symmetry_multiplicity
 _atom_site_fract_x
 _atom_site_fract_y
 _atom_site_fract_z
 _atom_site_occupancy
  Ba  Ba0  1  0.99338416  0.03182437  0.24991676  1
  Ba  Ba1  1  0.00661584  0.96817563  0.75008324  1
  Sr  Sr0  1  0.50923897  0.53924486  0.25149688  1
  Sr  Sr1  1  0.49076103  0.46075514  0.74850312  1
  Nd  Nd0  1  0.50000000  0.00000000  0.00000000  1
  Nd  Nd1  1  0.00000000  0.50000000  0.50000000  1
  Bi  Bi0  1  0.00000000  0.50000000  0.00000000  1
  Bi  Bi1  1  0.50000000  0.00000000  0.50000000  1
  O  O0  1  0.20007068  0.22337859  0.95722295  1
  O  O1  1  0.30746822  0.71712456  0.54901842  1
  O  O2  1  0.79992932  0.77662141  0.04277705  1
  O  O3  1  0.69253178  0.28287544  0.45098158  1
  O  O4  1  0.27982339  0.69751141  0.94965105  1
  O  O5  1  0.22272546  0.20254052  0.53741289  1
  O  O6  1  0.72017661  0.30248859  0.05034895  1
  O  O7  1  0.77727454  0.79745948  0.46258711  1
  O  O8  1  0.42699443  0.95689017  0.26141042  1
  O  O9  1  0.09477368  0.48504307  0.23784425  1
  O  O10  1  0.57300557  0.04310983  0.73858958  1
  O  O11  1  0.90522632  0.51495693  0.76215575  1
loop_
_geom_bond_atom_site_label_1
_geom_bond_atom_site_label_2
_geom_bond_distance
_geom_bond_site_symmetry_2
Ba0 O2 2.689851 1_545
Ba0 O8 2.711306 1_645
Ba0 O7 2.713232 1_545
Ba0 O9 2.893921 1_655
Ba0 O6 2.960302 1_555
Ba0 O3 2.985739 1_555
Ba0 O5 3.077648 1_655
Ba0 O0 3.097433 1_654
Ba1 O0 2.689851 1_565
Ba1 O10 2.711306 1_465
Ba1 O5 2.713232 1_565
Ba1 O11 2.893921 1_455
Ba1 O4 2.960302 1_555
Ba1 O1 2.985739 1_555
Ba1 O7 3.077648 1_455
Ba1 O2 3.097433 1_456
Nd0 O0 2.342993 1_554
Nd0 O2 2.342993 1_545
Nd0 O8 2.345511 1_545
Nd0 O10 2.345511 1_554
Nd0 O4 2.363346 1_544
Nd0 O6 2.363346 1_555
Nd1 O5 2.328825 1_555
Nd1 O7 2.328825 1_455
Nd1 O9 2.365863 1_555
Nd1 O11 2.365863 1_455
Nd1 O1 2.367037 1_555
Nd1 O3 2.367037 1_455
Bi0 O2 2.147744 1_455
Bi0 O0 2.147744 1_554
Bi0 O6 2.161933 1_455
Bi0 O4 2.161933 1_554
Bi0 O11 2.166567 1_454
Bi0 O9 2.166567 1_555
Bi1 O7 2.144581 1_545
Bi1 O5 2.144581 1_555
Bi1 O10 2.153789 1_555
Bi1 O8 2.153789 1_545
Bi1 O1 2.167203 1_545
Bi1 O3 2.167203 1_555
O0 Sr1 2.952040 1_555
O1 Sr1 2.627736 1_555
O1 Sr0 3.081429 1_555
O2 Sr0 2.952040 1_555
O3 Sr0 2.627736 1_555
O3 Sr1 3.081429 1_555
O4 Sr1 2.629764 1_555
O4 Sr0 3.161363 1_556
O5 Sr1 2.955509 1_555
O6 Sr0 2.629764 1_555
O6 Sr1 3.161363 1_554
O7 Sr0 2.955509 1_555
O8 Sr0 2.650887 1_555
O9 Sr0 2.576797 1_555
O10 Sr1 2.650887 1_555
O11 Sr1 2.576797 1_555
