# generated using pymatgen
data_Yb2Se3
_symmetry_space_group_name_H-M   'P 1'
_cell_length_a   13.26284702
_cell_length_b   12.65705059
_cell_length_c   6.93372259
_cell_angle_alpha   79.37110235
_cell_angle_beta   69.71007738
_cell_angle_gamma   30.91882026
_symmetry_Int_Tables_number   1
_chemical_formula_structural   Yb2Se3
_chemical_formula_sum   'Yb8 Se12'
_cell_volume   545.30587955
_cell_formula_units_Z   4
loop_
 _symmetry_equiv_pos_site_id
 _symmetry_equiv_pos_as_xyz
  1  'x, y, z'
loop_
 _atom_site_type_symbol
 _atom_site_label
 _atom_site_symmetry_multiplicity
 _atom_site_fract_x
 _atom_site_fract_y
 _atom_site_fract_z
 _atom_site_occupancy
  Yb  Yb0  1  0.33381973  0.33381973  0.16618027  1
  Yb  Yb1  1  0.16618027  0.16618027  0.33381973  1
  Yb  Yb2  1  0.91618027  0.91618027  0.08381973  1
  Yb  Yb3  1  0.08381973  0.08381973  0.91618027  1
  Yb  Yb4  1  0.99756114  0.99756114  0.50243886  1
  Yb  Yb5  1  0.50243886  0.50243886  0.99756114  1
  Yb  Yb6  1  0.25243886  0.25243886  0.74756114  1
  Yb  Yb7  1  0.74756114  0.74756114  0.25243886  1
  Se  Se0  1  0.00687961  0.49312039  0.49312039  1
  Se  Se1  1  0.49312039  0.00687961  0.00687961  1
  Se  Se2  1  0.24312039  0.75687961  0.75687961  1
  Se  Se3  1  0.75687961  0.24312039  0.24312039  1
  Se  Se4  1  0.66488983  0.17275105  0.84117765  1
  Se  Se5  1  0.84117765  0.32118247  0.66488983  1
  Se  Se6  1  0.32118247  0.84117765  0.17275105  1
  Se  Se7  1  0.17275105  0.66488983  0.32118247  1
  Se  Se8  1  0.58511017  0.07724895  0.40882235  1
  Se  Se9  1  0.40882235  0.92881753  0.58511017  1
  Se  Se10  1  0.92881753  0.40882235  0.07724895  1
  Se  Se11  1  0.07724895  0.58511017  0.92881753  1
loop_
_geom_bond_atom_site_label_1
_geom_bond_atom_site_label_2
_geom_bond_distance
_geom_bond_site_symmetry_2
Se0 Yb1 2.806127 1_555
Se0 Yb0 2.806127 1_555
Se0 Yb7 2.824682 1_455
Se0 Yb6 2.824682 1_555
Se1 Yb1 2.806127 1_555
Se1 Yb0 2.806127 1_555
Se1 Yb6 2.824682 1_554
Se1 Yb7 2.824682 1_545
Se2 Yb3 2.806127 1_565
Se2 Yb2 2.806127 1_456
Se2 Yb4 2.824682 1_455
Se2 Yb5 2.824682 1_555
Se3 Yb3 2.806127 1_654
Se3 Yb2 2.806127 1_545
Se3 Yb5 2.824682 1_554
Se3 Yb4 2.824682 1_545
Se4 Yb2 2.790552 1_546
Se4 Yb4 2.801458 1_545
Se4 Yb5 2.802399 1_555
Se4 Yb0 2.826253 1_556
Se5 Yb3 2.790551 1_655
Se5 Yb5 2.801464 1_555
Se5 Yb4 2.802410 1_545
Se5 Yb1 2.826247 1_655
Se6 Yb3 2.790557 1_564
Se6 Yb5 2.801466 1_554
Se6 Yb4 2.802407 1_455
Se6 Yb1 2.826244 1_565
Se7 Yb2 2.790557 1_455
Se7 Yb4 2.801455 1_455
Se7 Yb5 2.802402 1_554
Se7 Yb0 2.826256 1_555
Se8 Yb0 2.790552 1_555
Se8 Yb6 2.801458 1_555
Se8 Yb7 2.802399 1_545
Se8 Yb2 2.826253 1_545
Se9 Yb1 2.790551 1_565
Se9 Yb7 2.801464 1_555
Se9 Yb6 2.802410 1_565
Se9 Yb3 2.826247 1_565
Se10 Yb1 2.790557 1_655
Se10 Yb7 2.801466 1_555
Se10 Yb6 2.802407 1_654
Se10 Yb3 2.826244 1_654
Se11 Yb0 2.790557 1_556
Se11 Yb6 2.801455 1_555
Se11 Yb7 2.802402 1_456
Se11 Yb2 2.826256 1_456
