# generated using pymatgen
data_Mg149Mn
_symmetry_space_group_name_H-M   'P 1'
_cell_length_a   15.88651248
_cell_length_b   15.88651804
_cell_length_c   15.62106887
_cell_angle_alpha   90.00000000
_cell_angle_beta   90.00000000
_cell_angle_gamma   120.00000938
_symmetry_Int_Tables_number   1
_chemical_formula_structural   Mg149Mn
_chemical_formula_sum   'Mg149 Mn1'
_cell_volume   3414.27600789
_cell_formula_units_Z   1
loop_
 _symmetry_equiv_pos_site_id
 _symmetry_equiv_pos_as_xyz
  1  'x, y, z'
loop_
 _atom_site_type_symbol
 _atom_site_label
 _atom_site_symmetry_multiplicity
 _atom_site_fract_x
 _atom_site_fract_y
 _atom_site_fract_z
 _atom_site_occupancy
  Mg  Mg0  1  0.60196374  0.00011115  -0.00000000  1
  Mg  Mg1  1  0.39814740  0.00011115  -0.00000000  1
  Mg  Mg2  1  0.80825786  0.00077210  -0.00000000  1
  Mg  Mg3  1  0.19251425  0.00077210  -0.00000000  1
  Mg  Mg4  1  0.99922890  0.19174214  -0.00000000  1
  Mg  Mg5  1  0.19251425  0.19174314  -0.00000000  1
  Mg  Mg6  1  0.59985257  0.19970614  -0.00000000  1
  Mg  Mg7  1  0.39893312  0.19946606  -0.00000000  1
  Mg  Mg8  1  0.80053394  0.19946606  -0.00000000  1
  Mg  Mg9  1  0.39814740  0.39803626  -0.00000000  1
  Mg  Mg10  1  0.99988885  0.39803726  -0.00000000  1
  Mg  Mg11  1  0.19916288  0.39832476  -0.00000000  1
  Mg  Mg12  1  0.59985257  0.40014643  -0.00000000  1
  Mg  Mg13  1  0.80029386  0.40014643  -0.00000000  1
  Mg  Mg14  1  0.39999944  0.60000056  -0.00000000  1
  Mg  Mg15  1  0.20000211  0.60000156  -0.00000000  1
  Mg  Mg16  1  0.80053394  0.60106688  -0.00000000  1
  Mg  Mg17  1  0.99988885  0.60185160  -0.00000000  1
  Mg  Mg18  1  0.60196374  0.60185260  -0.00000000  1
  Mg  Mg19  1  0.39999944  0.79999789  -0.00000000  1
  Mg  Mg20  1  0.19916288  0.80083712  -0.00000000  1
  Mg  Mg21  1  0.60167524  0.80083712  -0.00000000  1
  Mg  Mg22  1  0.80825786  0.80748575  -0.00000000  1
  Mg  Mg23  1  0.99922890  0.80748575  -0.00000000  1
  Mg  Mg24  1  0.06402355  0.12804810  0.15775965  1
  Mg  Mg25  1  0.06402355  0.93597545  0.15775965  1
  Mg  Mg26  1  0.87195190  0.93597645  0.15775965  1
  Mg  Mg27  1  0.26583308  0.33259275  0.16599794  1
  Mg  Mg28  1  0.06676067  0.33259375  0.16599794  1
  Mg  Mg29  1  0.66740625  0.73416692  0.16599794  1
  Mg  Mg30  1  0.06676067  0.73416692  0.16599794  1
  Mg  Mg31  1  0.26583308  0.93323933  0.16599794  1
  Mg  Mg32  1  0.66740625  0.93324033  0.16599794  1
  Mg  Mg33  1  0.46668390  0.53331610  0.16644427  1
  Mg  Mg34  1  0.06663220  0.53331610  0.16644427  1
  Mg  Mg35  1  0.46668390  0.93336780  0.16644427  1
  Mg  Mg36  1  0.66666700  0.33333300  0.16607429  1
  Mg  Mg37  1  0.26671204  0.53342407  0.16623235  1
  Mg  Mg38  1  0.46657593  0.73328796  0.16623235  1
  Mg  Mg39  1  0.26671204  0.73328796  0.16623235  1
  Mg  Mg40  1  0.46691118  0.13357994  0.16652693  1
  Mg  Mg41  1  0.66666875  0.13357994  0.16652693  1
  Mg  Mg42  1  0.46691118  0.33333125  0.16652693  1
  Mg  Mg43  1  0.86642006  0.33333125  0.16652693  1
  Mg  Mg44  1  0.86642006  0.53308882  0.16652693  1
  Mg  Mg45  1  0.66666875  0.53308882  0.16652693  1
  Mg  Mg46  1  0.26799256  0.13399628  0.16614505  1
  Mg  Mg47  1  0.86600372  0.13399628  0.16614505  1
  Mg  Mg48  1  0.86600372  0.73200744  0.16614505  1
  Mg  Mg49  1  0.19927643  0.19950142  0.33172243  1
  Mg  Mg50  1  0.00022500  0.19950142  0.33172243  1
  Mg  Mg51  1  0.00022500  0.80072357  0.33172243  1
  Mg  Mg52  1  0.80049858  0.80072357  0.33172243  1
  Mg  Mg53  1  0.19927643  0.99977500  0.33172243  1
  Mg  Mg54  1  0.80049858  0.99977600  0.33172243  1
  Mg  Mg55  1  -0.00000000  0.00000000  0.33294995  1
  Mg  Mg56  1  0.00020031  0.39945344  0.33274304  1
  Mg  Mg57  1  0.39925413  0.39945344  0.33274304  1
  Mg  Mg58  1  0.00020031  0.60074687  0.33274304  1
  Mg  Mg59  1  0.60054656  0.60074687  0.33274304  1
  Mg  Mg60  1  0.60054656  0.99979969  0.33274304  1
  Mg  Mg61  1  0.39925413  0.99979969  0.33274304  1
  Mg  Mg62  1  0.59970885  0.19941769  0.33305453  1
  Mg  Mg63  1  0.59970885  0.40029115  0.33305453  1
  Mg  Mg64  1  0.80058231  0.40029115  0.33305453  1
  Mg  Mg65  1  0.20012192  0.40024384  0.33333327  1
  Mg  Mg66  1  0.59975616  0.79987808  0.33333327  1
  Mg  Mg67  1  0.20012192  0.79987808  0.33333327  1
  Mg  Mg68  1  0.80015265  0.19984635  0.33327630  1
  Mg  Mg69  1  0.39969369  0.19984635  0.33327630  1
  Mg  Mg70  1  0.80015265  0.60030631  0.33327630  1
  Mg  Mg71  1  0.39998505  0.60001495  0.33300069  1
  Mg  Mg72  1  0.20002990  0.60001495  0.33300069  1
  Mg  Mg73  1  0.39998505  0.79997010  0.33300069  1
  Mg  Mg74  1  0.06661709  0.13323518  0.50000000  1
  Mg  Mg75  1  0.26668104  0.13334052  0.50000000  1
  Mg  Mg76  1  0.86665948  0.13334052  0.50000000  1
  Mg  Mg77  1  0.66687668  0.13383319  0.50000000  1
  Mg  Mg78  1  0.46695651  0.13383419  0.50000000  1
  Mg  Mg79  1  0.06630925  0.33295689  0.50000000  1
  Mg  Mg80  1  0.26664764  0.33295789  0.50000000  1
  Mg  Mg81  1  0.46695651  0.33312232  0.50000000  1
  Mg  Mg82  1  0.86616581  0.33312232  0.50000000  1
  Mg  Mg83  1  0.66666700  0.33333300  0.50000000  1
  Mg  Mg84  1  0.26635872  0.53271743  0.50000000  1
  Mg  Mg85  1  0.46748672  0.53251328  0.50000000  1
  Mg  Mg86  1  0.06502557  0.53251328  0.50000000  1
  Mg  Mg87  1  0.66687668  0.53304249  0.50000000  1
  Mg  Mg88  1  0.86616581  0.53304349  0.50000000  1
  Mg  Mg89  1  0.46728357  0.73364128  0.50000000  1
  Mg  Mg90  1  0.26635872  0.73364228  0.50000000  1
  Mg  Mg91  1  0.06630925  0.73335236  0.50000000  1
  Mg  Mg92  1  0.66704211  0.73335236  0.50000000  1
  Mg  Mg93  1  0.86665948  0.73331896  0.50000000  1
  Mg  Mg94  1  0.86676482  0.93338191  0.50000000  1
  Mg  Mg95  1  0.06661709  0.93338291  0.50000000  1
  Mg  Mg96  1  0.66704211  0.93368975  0.50000000  1
  Mg  Mg97  1  0.26664764  0.93368975  0.50000000  1
  Mg  Mg98  1  0.46748672  0.93497443  0.50000000  1
  Mg  Mg99  1  0.39998505  0.60001495  0.66700031  1
  Mg  Mg100  1  0.20002990  0.60001495  0.66700031  1
  Mg  Mg101  1  0.39998505  0.79997010  0.66700031  1
  Mg  Mg102  1  0.80015265  0.19984635  0.66672370  1
  Mg  Mg103  1  0.39969369  0.19984635  0.66672370  1
  Mg  Mg104  1  0.80015265  0.60030631  0.66672370  1
  Mg  Mg105  1  0.20012192  0.40024384  0.66666673  1
  Mg  Mg106  1  0.59975616  0.79987808  0.66666673  1
  Mg  Mg107  1  0.20012192  0.79987808  0.66666673  1
  Mg  Mg108  1  0.59970885  0.19941769  0.66694547  1
  Mg  Mg109  1  0.59970885  0.40029115  0.66694547  1
  Mg  Mg110  1  0.80058231  0.40029115  0.66694547  1
  Mg  Mg111  1  0.00020031  0.39945344  0.66725696  1
  Mg  Mg112  1  0.39925413  0.39945344  0.66725696  1
  Mg  Mg113  1  0.00020031  0.60074687  0.66725696  1
  Mg  Mg114  1  0.60054656  0.60074687  0.66725696  1
  Mg  Mg115  1  0.60054656  0.99979969  0.66725696  1
  Mg  Mg116  1  0.39925413  0.99979969  0.66725696  1
  Mg  Mg117  1  -0.00000000  0.00000000  0.66705005  1
  Mg  Mg118  1  0.19927643  0.19950142  0.66827857  1
  Mg  Mg119  1  0.00022500  0.19950142  0.66827857  1
  Mg  Mg120  1  0.00022500  0.80072357  0.66827857  1
  Mg  Mg121  1  0.80049858  0.80072357  0.66827857  1
  Mg  Mg122  1  0.19927643  0.99977500  0.66827857  1
  Mg  Mg123  1  0.80049858  0.99977600  0.66827857  1
  Mg  Mg124  1  0.26799256  0.13399628  0.83385495  1
  Mg  Mg125  1  0.86600372  0.13399628  0.83385495  1
  Mg  Mg126  1  0.86600372  0.73200744  0.83385495  1
  Mg  Mg127  1  0.46691118  0.13357994  0.83347307  1
  Mg  Mg128  1  0.66666875  0.13357994  0.83347307  1
  Mg  Mg129  1  0.46691118  0.33333125  0.83347307  1
  Mg  Mg130  1  0.86642006  0.33333125  0.83347307  1
  Mg  Mg131  1  0.86642006  0.53308882  0.83347307  1
  Mg  Mg132  1  0.66666875  0.53308882  0.83347307  1
  Mg  Mg133  1  0.26671204  0.53342407  0.83376765  1
  Mg  Mg134  1  0.46657593  0.73328796  0.83376765  1
  Mg  Mg135  1  0.26671204  0.73328796  0.83376765  1
  Mg  Mg136  1  0.66666700  0.33333300  0.83392571  1
  Mg  Mg137  1  0.46668390  0.53331610  0.83355573  1
  Mg  Mg138  1  0.06663220  0.53331610  0.83355573  1
  Mg  Mg139  1  0.46668390  0.93336780  0.83355573  1
  Mg  Mg140  1  0.26583308  0.33259275  0.83400206  1
  Mg  Mg141  1  0.06676067  0.33259375  0.83400206  1
  Mg  Mg142  1  0.66740625  0.73416692  0.83400206  1
  Mg  Mg143  1  0.06676067  0.73416692  0.83400206  1
  Mg  Mg144  1  0.26583308  0.93323933  0.83400206  1
  Mg  Mg145  1  0.66740625  0.93324033  0.83400206  1
  Mg  Mg146  1  0.06402355  0.12804810  0.84224135  1
  Mg  Mg147  1  0.06402355  0.93597545  0.84224135  1
  Mg  Mg148  1  0.87195190  0.93597645  0.84224135  1
  Mn  Mn0  1  -0.00000000  0.00000000  -0.00000000  1
loop_
_geom_bond_atom_site_label_1
_geom_bond_atom_site_label_2
_geom_bond_distance
_geom_bond_site_symmetry_2
Mg0 Mg8 3.160840 1_555
Mg0 Mg21 3.163481 1_545
Mg0 Mg32 3.168266 1_545
Mg0 Mg145 3.168266 1_544
Mg0 Mg128 3.184317 1_554
Mg0 Mg41 3.184317 1_555
Mg0 Mg6 3.187771 1_555
Mg0 Mg19 3.193907 1_545
Mg0 Mg139 3.197569 1_544
Mg0 Mg35 3.197569 1_545
Mg0 Mg1 3.237931 1_555
Mg0 Mg2 3.272057 1_555
Mg1 Mg7 3.160833 1_555
Mg1 Mg20 3.163472 1_545
Mg1 Mg31 3.168274 1_545
Mg1 Mg144 3.168274 1_544
Mg1 Mg40 3.184317 1_555
Mg1 Mg127 3.184317 1_554
Mg1 Mg6 3.187762 1_555
Mg1 Mg19 3.193916 1_545
Mg1 Mg139 3.197570 1_544
Mg1 Mg35 3.197570 1_545
Mg1 Mg3 3.272056 1_555
Mg2 Mg26 3.032862 1_545
Mg2 Mg4 3.033856 1_555
Mg2 Mn0 3.052265 1_655
Mg2 Mg22 3.070647 1_545
Mg2 Mg47 3.180460 1_555
Mg2 Mg8 3.219662 1_555
Mg2 Mg21 3.230368 1_545
Mg2 Mg32 3.237496 1_545
Mg3 Mg5 3.033865 1_555
Mg3 Mn0 3.052266 1_555
Mg3 Mg46 3.180460 1_555
Mg3 Mg7 3.219670 1_555
Mg3 Mg31 3.237496 1_545
Mg4 Mn0 3.052258 1_655
Mg4 Mg5 3.070622 1_655
Mg4 Mg47 3.180468 1_555
Mg4 Mg8 3.219677 1_555
Mg5 Mn0 3.052273 1_555
Mg5 Mg7 3.219684 1_555
Mg5 Mg9 3.272049 1_555
Mg6 Mg7 3.190004 1_555
Mg6 Mg8 3.190036 1_555
Mg7 Mg9 3.160849 1_555
Mg10 Mg8 3.160848 1_555
Mg10 Mg11 3.163488 1_655
Mg10 Mg28 3.168282 1_655
Mg10 Mg141 3.168282 1_654
Mg10 Mg130 3.184317 1_554
Mg10 Mg43 3.184317 1_555
Mg10 Mg13 3.187754 1_555
Mg10 Mg15 3.193907 1_655
Mg10 Mg138 3.197562 1_654
Mg10 Mg34 3.197562 1_655
Mg10 Mg17 3.237900 1_555
Mg10 Mg4 3.272082 1_555
Mg11 Mg9 3.163464 1_555
Mg11 Mg28 3.168957 1_555
Mg11 Mg141 3.168957 1_554
Mg11 Mg140 3.168958 1_554
Mg11 Mg27 3.168958 1_555
Mg11 Mg37 3.193400 1_555
Mg11 Mg133 3.193400 1_554
Mg11 Mg14 3.197280 1_555
Mg11 Mg15 3.197297 1_555
Mg11 Mg5 3.230346 1_555
Mg11 Mg4 3.230361 1_455
Mg12 Mg136 3.179645 1_554
Mg12 Mg36 3.179645 1_555
Mg12 Mg129 3.179979 1_554
Mg12 Mg42 3.179979 1_555
Mg12 Mg132 3.179988 1_554
Mg12 Mg45 3.179988 1_555
Mg12 Mg6 3.184298 1_555
Mg12 Mg13 3.184313 1_555
Mg12 Mg9 3.187762 1_555
Mg12 Mg18 3.187771 1_555
Mg12 Mg7 3.190012 1_555
Mg12 Mg16 3.190028 1_555
Mg13 Mg136 3.179637 1_554
Mg13 Mg36 3.179637 1_555
Mg13 Mg130 3.179980 1_554
Mg13 Mg43 3.179980 1_555
Mg13 Mg131 3.179988 1_554
Mg13 Mg44 3.179988 1_555
Mg13 Mg6 3.184305 1_555
Mg13 Mg17 3.187762 1_555
Mg13 Mg8 3.190021 1_555
Mg13 Mg16 3.190021 1_555
Mg14 Mg19 3.177261 1_555
Mg14 Mg15 3.177268 1_555
Mg14 Mg37 3.178955 1_555
Mg14 Mg38 3.178956 1_555
Mg14 Mg33 3.182307 1_555
Mg14 Mg18 3.193899 1_555
Mg14 Mg9 3.193900 1_555
Mg14 Mg21 3.197280 1_555
Mg15 Mg19 3.177252 1_555
Mg15 Mg39 3.178948 1_555
Mg15 Mg37 3.178956 1_555
Mg15 Mg34 3.182314 1_555
Mg15 Mg17 3.193899 1_455
Mg15 Mg20 3.197265 1_555
Mg16 Mg48 3.159320 1_555
Mg16 Mg17 3.160839 1_555
Mg16 Mg18 3.160848 1_555
Mg16 Mg44 3.187338 1_555
Mg16 Mg45 3.187345 1_555
Mg16 Mg23 3.219677 1_555
Mg16 Mg22 3.219678 1_555
Mg17 Mg20 3.163480 1_655
Mg17 Mg30 3.168282 1_655
Mg17 Mg44 3.184317 1_555
Mg17 Mg34 3.197562 1_655
Mg17 Mg23 3.272065 1_555
Mg18 Mg21 3.163465 1_555
Mg18 Mg29 3.168274 1_555
Mg18 Mg45 3.184317 1_555
Mg18 Mg33 3.197569 1_555
Mg18 Mg9 3.237931 1_555
Mg18 Mg22 3.272057 1_555
Mg19 Mg38 3.178948 1_555
Mg19 Mg39 3.178955 1_555
Mg19 Mg35 3.182315 1_555
Mg19 Mg20 3.197280 1_555
Mg19 Mg21 3.197280 1_555
Mg20 Mg30 3.168957 1_555
Mg20 Mg31 3.168958 1_555
Mg20 Mg39 3.193393 1_555
Mg20 Mg23 3.230361 1_455
Mg20 Mg3 3.230378 1_565
Mg21 Mg29 3.168950 1_555
Mg21 Mg32 3.168966 1_555
Mg21 Mg38 3.193400 1_555
Mg21 Mg22 3.230361 1_555
Mg22 Mg26 3.032871 1_555
Mg22 Mg23 3.033864 1_555
Mg22 Mn0 3.052266 1_665
Mg22 Mg48 3.180460 1_555
Mg22 Mg29 3.237495 1_555
Mg23 Mg25 3.032862 1_655
Mg23 Mn0 3.052274 1_665
Mg23 Mg3 3.070638 1_665
Mg23 Mg48 3.180468 1_555
Mg23 Mg30 3.237488 1_655
Mg24 Mn0 3.029313 1_555
Mg24 Mg4 3.032854 1_455
Mg24 Mg5 3.032870 1_555
Mg24 Mg26 3.051349 1_445
Mg24 Mg25 3.051366 1_545
Mg24 Mg47 3.196826 1_455
Mg24 Mg46 3.196842 1_555
Mg24 Mg27 3.230559 1_555
Mg24 Mg28 3.230560 1_555
Mg24 Mg55 3.254674 1_555
Mg24 Mg50 3.294092 1_555
Mg24 Mg49 3.294099 1_555
Mg25 Mn0 3.029313 1_565
Mg25 Mg3 3.032870 1_565
Mg25 Mg26 3.051357 1_455
Mg25 Mg48 3.196826 1_455
Mg25 Mg46 3.196842 1_565
Mg25 Mg30 3.230560 1_555
Mg25 Mg31 3.230567 1_555
Mg25 Mg55 3.254674 1_565
Mg25 Mg51 3.294092 1_555
Mg25 Mg53 3.294099 1_555
Mg26 Mn0 3.029312 1_665
Mg26 Mg47 3.196827 1_565
Mg26 Mg48 3.196843 1_555
Mg26 Mg32 3.230567 1_555
Mg26 Mg29 3.230567 1_555
Mg26 Mg55 3.254673 1_665
Mg26 Mg54 3.294100 1_555
Mg26 Mg52 3.294100 1_555
Mg27 Mg28 3.162574 1_555
Mg27 Mg9 3.168274 1_555
Mg27 Mg49 3.170920 1_555
Mg27 Mg46 3.172300 1_555
Mg27 Mg37 3.183554 1_555
Mg27 Mg57 3.186561 1_555
Mg27 Mg42 3.188591 1_555
Mg27 Mg33 3.189815 1_555
Mg27 Mg65 3.193674 1_555
Mg27 Mg5 3.237480 1_555
Mg28 Mg50 3.170928 1_555
Mg28 Mg47 3.172315 1_455
Mg28 Mg37 3.183537 1_555
Mg28 Mg56 3.186553 1_555
Mg28 Mg43 3.188599 1_455
Mg28 Mg34 3.189808 1_555
Mg28 Mg65 3.193665 1_555
Mg28 Mg4 3.237496 1_455
Mg29 Mg32 3.162583 1_555
Mg29 Mg52 3.170928 1_555
Mg29 Mg48 3.172314 1_555
Mg29 Mg38 3.183537 1_555
Mg29 Mg59 3.186553 1_555
Mg29 Mg45 3.188600 1_555
Mg29 Mg33 3.189807 1_555
Mg29 Mg66 3.193666 1_555
Mg30 Mg31 3.162566 1_555
Mg30 Mg51 3.170928 1_555
Mg30 Mg48 3.172314 1_455
Mg30 Mg39 3.183537 1_555
Mg30 Mg58 3.186553 1_555
Mg30 Mg44 3.188599 1_455
Mg30 Mg34 3.189808 1_555
Mg30 Mg67 3.193665 1_555
Mg31 Mg53 3.170928 1_555
Mg31 Mg46 3.172316 1_565
Mg31 Mg39 3.183538 1_555
Mg31 Mg61 3.186561 1_555
Mg31 Mg40 3.188599 1_565
Mg31 Mg35 3.189807 1_555
Mg31 Mg67 3.193666 1_555
Mg32 Mg54 3.170928 1_555
Mg32 Mg47 3.172306 1_565
Mg32 Mg38 3.183545 1_555
Mg32 Mg60 3.186545 1_555
Mg32 Mg41 3.188584 1_565
Mg32 Mg35 3.189799 1_555
Mg32 Mg66 3.193674 1_555
Mg33 Mg37 3.177715 1_555
Mg33 Mg38 3.177716 1_555
Mg33 Mg45 3.178869 1_555
Mg33 Mg42 3.178870 1_555
Mg33 Mg71 3.183966 1_555
Mg33 Mg59 3.184383 1_555
Mg33 Mg57 3.184384 1_555
Mg33 Mg9 3.197570 1_555
Mg34 Mg37 3.177715 1_555
Mg34 Mg39 3.177715 1_555
Mg34 Mg44 3.178869 1_455
Mg34 Mg43 3.178869 1_455
Mg34 Mg72 3.183966 1_555
Mg34 Mg58 3.184384 1_555
Mg34 Mg56 3.184384 1_555
Mg35 Mg39 3.177715 1_555
Mg35 Mg38 3.177716 1_555
Mg35 Mg41 3.178869 1_565
Mg35 Mg40 3.178870 1_565
Mg35 Mg73 3.183967 1_555
Mg35 Mg61 3.184376 1_555
Mg35 Mg60 3.184383 1_555
Mg36 Mg43 3.173401 1_555
Mg36 Mg41 3.173402 1_555
Mg36 Mg40 3.173409 1_555
Mg36 Mg44 3.173409 1_555
Mg36 Mg42 3.173417 1_555
Mg36 Mg45 3.173418 1_555
Mg36 Mg6 3.179637 1_555
Mg36 Mg64 3.193482 1_555
Mg36 Mg62 3.193482 1_555
Mg36 Mg63 3.193490 1_555
Mg37 Mg38 3.175140 1_555
Mg37 Mg39 3.175141 1_555
Mg37 Mg71 3.185684 1_555
Mg37 Mg72 3.185685 1_555
Mg37 Mg65 3.189201 1_555
Mg38 Mg39 3.175140 1_555
Mg38 Mg71 3.185685 1_555
Mg38 Mg73 3.185685 1_555
Mg38 Mg66 3.189200 1_555
Mg39 Mg73 3.185684 1_555
Mg39 Mg72 3.185685 1_555
Mg39 Mg67 3.189201 1_555
Mg40 Mg46 3.163441 1_555
Mg40 Mg42 3.173353 1_555
Mg40 Mg41 3.173451 1_555
Mg40 Mg62 3.178859 1_555
Mg40 Mg6 3.179979 1_555
Mg40 Mg61 3.182688 1_545
Mg40 Mg69 3.187122 1_555
Mg40 Mg7 3.187338 1_555
Mg41 Mg47 3.163441 1_555
Mg41 Mg43 3.173352 1_555
Mg41 Mg62 3.178859 1_555
Mg41 Mg6 3.179988 1_555
Mg41 Mg60 3.182688 1_545
Mg41 Mg68 3.187122 1_555
Mg41 Mg8 3.187345 1_555
Mg42 Mg46 3.163441 1_555
Mg42 Mg45 3.173451 1_555
Mg42 Mg63 3.178859 1_555
Mg42 Mg57 3.182680 1_555
Mg42 Mg9 3.184317 1_555
Mg42 Mg69 3.187130 1_555
Mg42 Mg7 3.187346 1_555
Mg43 Mg47 3.163442 1_555
Mg43 Mg44 3.173452 1_555
Mg43 Mg64 3.178859 1_555
Mg43 Mg56 3.182688 1_655
Mg43 Mg68 3.187130 1_555
Mg43 Mg8 3.187346 1_555
Mg44 Mg48 3.163442 1_555
Mg44 Mg45 3.173352 1_555
Mg44 Mg64 3.178859 1_555
Mg44 Mg58 3.182688 1_655
Mg44 Mg70 3.187130 1_555
Mg45 Mg48 3.163441 1_555
Mg45 Mg63 3.178859 1_555
Mg45 Mg59 3.182688 1_555
Mg45 Mg70 3.187122 1_555
Mg46 Mg7 3.159319 1_555
Mg46 Mg69 3.177942 1_555
Mg46 Mg49 3.178154 1_555
Mg46 Mg53 3.178154 1_545
Mg46 Mg5 3.180468 1_555
Mg47 Mg8 3.159312 1_555
Mg47 Mg68 3.177942 1_555
Mg47 Mg54 3.178146 1_545
Mg47 Mg50 3.178154 1_655
Mg48 Mg70 3.177942 1_555
Mg48 Mg51 3.178154 1_655
Mg48 Mg52 3.178154 1_555
Mg49 Mg50 3.162233 1_555
Mg49 Mg55 3.167654 1_555
Mg49 Mg53 3.172957 1_545
Mg49 Mg57 3.176784 1_555
Mg49 Mg69 3.181288 1_555
Mg49 Mg65 3.182503 1_555
Mg49 Mg74 3.200169 1_555
Mg49 Mg80 3.206453 1_555
Mg49 Mg75 3.207312 1_555
Mg50 Mg55 3.167655 1_555
Mg50 Mg54 3.172948 1_445
Mg50 Mg56 3.176778 1_555
Mg50 Mg68 3.181288 1_455
Mg50 Mg65 3.182502 1_555
Mg50 Mg74 3.200162 1_555
Mg50 Mg79 3.206445 1_555
Mg50 Mg76 3.207311 1_455
Mg51 Mg53 3.162233 1_555
Mg51 Mg55 3.167655 1_565
Mg51 Mg52 3.172956 1_455
Mg51 Mg58 3.176777 1_555
Mg51 Mg70 3.181288 1_455
Mg51 Mg67 3.182502 1_555
Mg51 Mg95 3.200170 1_555
Mg51 Mg91 3.206445 1_555
Mg51 Mg93 3.207311 1_455
Mg52 Mg54 3.162250 1_555
Mg52 Mg55 3.167654 1_665
Mg52 Mg59 3.176776 1_555
Mg52 Mg70 3.181281 1_555
Mg52 Mg66 3.182502 1_555
Mg52 Mg94 3.200162 1_555
Mg52 Mg92 3.206453 1_555
Mg52 Mg93 3.207312 1_555
Mg53 Mg55 3.167654 1_565
Mg53 Mg61 3.176792 1_555
Mg53 Mg69 3.181280 1_565
Mg53 Mg67 3.182503 1_555
Mg53 Mg95 3.200169 1_555
Mg53 Mg97 3.206453 1_555
Mg53 Mg75 3.207312 1_565
Mg54 Mg55 3.167662 1_665
Mg54 Mg60 3.176768 1_555
Mg54 Mg68 3.181265 1_565
Mg54 Mg66 3.182510 1_555
Mg54 Mg94 3.200178 1_555
Mg54 Mg96 3.206453 1_555
Mg54 Mg76 3.207304 1_565
Mg55 Mg95 3.188977 1_545
Mg55 Mg94 3.188985 1_445
Mg55 Mg74 3.188985 1_555
Mg56 Mg65 3.169811 1_555
Mg56 Mg68 3.174577 1_455
Mg56 Mg64 3.177913 1_455
Mg56 Mg72 3.180428 1_555
Mg56 Mg79 3.186664 1_555
Mg56 Mg86 3.190360 1_555
Mg56 Mg58 3.197852 1_555
Mg56 Mg82 3.197977 1_455
Mg57 Mg65 3.169827 1_555
Mg57 Mg69 3.174570 1_555
Mg57 Mg63 3.177897 1_555
Mg57 Mg71 3.180437 1_555
Mg57 Mg80 3.186671 1_555
Mg57 Mg85 3.190360 1_555
Mg57 Mg59 3.197843 1_555
Mg57 Mg81 3.197970 1_555
Mg58 Mg67 3.169811 1_555
Mg58 Mg70 3.174577 1_455
Mg58 Mg64 3.177913 1_455
Mg58 Mg72 3.180428 1_555
Mg58 Mg91 3.186664 1_555
Mg58 Mg86 3.190352 1_555
Mg58 Mg88 3.197977 1_455
Mg59 Mg66 3.169812 1_555
Mg59 Mg70 3.174561 1_555
Mg59 Mg63 3.177914 1_555
Mg59 Mg71 3.180428 1_555
Mg59 Mg92 3.186664 1_555
Mg59 Mg85 3.190360 1_555
Mg59 Mg87 3.197978 1_555
Mg60 Mg66 3.169812 1_555
Mg60 Mg68 3.174561 1_565
Mg60 Mg62 3.177914 1_565
Mg60 Mg73 3.180428 1_555
Mg60 Mg96 3.186664 1_555
Mg60 Mg98 3.190360 1_555
Mg60 Mg61 3.197835 1_555
Mg60 Mg77 3.197970 1_565
Mg61 Mg67 3.169819 1_555
Mg61 Mg69 3.174570 1_565
Mg61 Mg62 3.177905 1_565
Mg61 Mg73 3.180421 1_555
Mg61 Mg97 3.186672 1_555
Mg61 Mg98 3.190344 1_555
Mg61 Mg78 3.197978 1_565
Mg62 Mg68 3.180955 1_555
Mg62 Mg69 3.180956 1_555
Mg62 Mg78 3.183857 1_555
Mg62 Mg77 3.183858 1_555
Mg62 Mg64 3.191179 1_555
Mg62 Mg63 3.191180 1_555
Mg62 Mg83 3.193038 1_555
Mg63 Mg70 3.180956 1_555
Mg63 Mg69 3.180964 1_555
Mg63 Mg87 3.183850 1_555
Mg63 Mg81 3.183857 1_555
Mg63 Mg64 3.191179 1_555
Mg63 Mg83 3.193046 1_555
Mg64 Mg68 3.180964 1_555
Mg64 Mg70 3.180965 1_555
Mg64 Mg82 3.183858 1_555
Mg64 Mg88 3.183858 1_555
Mg64 Mg83 3.193038 1_555
Mg65 Mg71 3.174402 1_555
Mg65 Mg72 3.174403 1_555
Mg65 Mg84 3.178066 1_555
Mg65 Mg80 3.188665 1_555
Mg65 Mg79 3.188673 1_555
Mg66 Mg73 3.174402 1_555
Mg66 Mg71 3.174402 1_555
Mg66 Mg89 3.178058 1_555
Mg66 Mg92 3.188665 1_555
Mg66 Mg96 3.188665 1_555
Mg67 Mg73 3.174402 1_555
Mg67 Mg72 3.174403 1_555
Mg67 Mg90 3.178059 1_555
Mg67 Mg97 3.188665 1_555
Mg67 Mg91 3.188673 1_555
Mg68 Mg76 3.183054 1_555
Mg68 Mg77 3.185153 1_555
Mg68 Mg82 3.185153 1_555
Mg69 Mg75 3.183053 1_555
Mg69 Mg78 3.185145 1_555
Mg69 Mg81 3.185153 1_555
Mg70 Mg93 3.183054 1_555
Mg70 Mg87 3.185153 1_555
Mg70 Mg88 3.185153 1_555
Mg71 Mg72 3.176590 1_555
Mg71 Mg73 3.176591 1_555
Mg71 Mg84 3.191442 1_555
Mg71 Mg89 3.191443 1_555
Mg71 Mg85 3.202384 1_555
Mg72 Mg73 3.176590 1_555
Mg72 Mg84 3.191443 1_555
Mg72 Mg90 3.191451 1_555
Mg72 Mg86 3.202392 1_555
Mg73 Mg90 3.191442 1_555
Mg73 Mg89 3.191451 1_555
Mg73 Mg98 3.202392 1_555
Mg74 Mg95 3.174957 1_545
Mg74 Mg94 3.174964 1_445
Mg74 Mg79 3.175331 1_555
Mg74 Mg80 3.175346 1_555
Mg74 Mg76 3.177466 1_455
Mg74 Mg75 3.177482 1_555
Mg75 Mg80 3.171490 1_555
Mg75 Mg97 3.171490 1_545
Mg75 Mg95 3.177474 1_545
Mg75 Mg78 3.177765 1_555
Mg75 Mg81 3.177765 1_555
Mg76 Mg79 3.171473 1_655
Mg76 Mg96 3.171489 1_545
Mg76 Mg94 3.177483 1_545
Mg76 Mg82 3.177766 1_555
Mg76 Mg77 3.177773 1_555
Mg77 Mg98 3.163400 1_545
Mg77 Mg82 3.166009 1_555
Mg77 Mg83 3.171024 1_555
Mg77 Mg78 3.176042 1_555
Mg77 Mg96 3.180897 1_545
Mg78 Mg98 3.163409 1_545
Mg78 Mg81 3.165994 1_555
Mg78 Mg83 3.171023 1_555
Mg78 Mg97 3.180904 1_545
Mg79 Mg84 3.175796 1_555
Mg79 Mg86 3.180502 1_555
Mg79 Mg82 3.180896 1_455
Mg79 Mg80 3.182670 1_555
Mg80 Mg84 3.175781 1_555
Mg80 Mg85 3.180485 1_555
Mg80 Mg81 3.180904 1_555
Mg81 Mg85 3.163425 1_555
Mg81 Mg83 3.171031 1_555
Mg81 Mg87 3.176034 1_555
Mg82 Mg86 3.163416 1_655
Mg82 Mg83 3.171015 1_555
Mg82 Mg88 3.176051 1_555
Mg83 Mg88 3.171023 1_555
Mg83 Mg87 3.171024 1_555
Mg84 Mg99 3.191455 1_555
Mg84 Mg89 3.191987 1_555
Mg84 Mg90 3.191996 1_555
Mg84 Mg85 3.196845 1_555
Mg84 Mg86 3.196861 1_555
Mg85 Mg87 3.163416 1_555
Mg85 Mg92 3.180485 1_555
Mg85 Mg89 3.196838 1_555
Mg85 Mg99 3.202397 1_555
Mg86 Mg88 3.163408 1_455
Mg86 Mg91 3.180486 1_555
Mg86 Mg90 3.196861 1_555
Mg87 Mg88 3.166001 1_555
Mg87 Mg93 3.177781 1_555
Mg87 Mg92 3.180913 1_555
Mg88 Mg93 3.177766 1_555
Mg88 Mg91 3.180896 1_655
Mg89 Mg92 3.175764 1_555
Mg89 Mg96 3.175772 1_555
Mg89 Mg99 3.191455 1_555
Mg89 Mg90 3.192003 1_555
Mg89 Mg98 3.196870 1_555
Mg90 Mg97 3.175765 1_555
Mg90 Mg91 3.175788 1_555
Mg90 Mg98 3.196845 1_555
Mg91 Mg93 3.171473 1_455
Mg91 Mg95 3.175347 1_555
Mg91 Mg97 3.182670 1_555
Mg92 Mg93 3.171489 1_555
Mg92 Mg94 3.175338 1_555
Mg92 Mg96 3.182664 1_555
Mg93 Mg94 3.177467 1_555
Mg93 Mg95 3.177474 1_655
Mg94 Mg95 3.174948 1_655
Mg94 Mg96 3.175345 1_555
Mg95 Mg97 3.175353 1_555
Mg96 Mg98 3.180493 1_555
Mg97 Mg98 3.180477 1_555
Mg100 Mg105 3.174403 1_555
Mg100 Mg107 3.174403 1_555
Mg100 Mg99 3.176590 1_555
Mg100 Mg101 3.176590 1_555
Mg100 Mg113 3.180428 1_555
Mg100 Mg111 3.180428 1_555
Mg100 Mg138 3.183953 1_555
Mg100 Mg135 3.185672 1_555
Mg100 Mg133 3.185672 1_555
Mg100 Mg84 3.191455 1_555
Mg100 Mg90 3.191463 1_555
Mg100 Mg86 3.202405 1_555
Mg101 Mg107 3.174402 1_555
Mg101 Mg106 3.174402 1_555
Mg101 Mg99 3.176591 1_555
Mg101 Mg116 3.180421 1_555
Mg101 Mg115 3.180428 1_555
Mg101 Mg139 3.183954 1_555
Mg101 Mg135 3.185671 1_555
Mg101 Mg134 3.185672 1_555
Mg101 Mg90 3.191455 1_555
Mg101 Mg89 3.191463 1_555
Mg101 Mg98 3.202405 1_555
Mg102 Mg115 3.174561 1_545
Mg102 Mg111 3.174577 1_655
Mg102 Mg125 3.177942 1_555
Mg102 Mg108 3.180955 1_555
Mg102 Mg110 3.180964 1_555
Mg102 Mg123 3.181265 1_545
Mg102 Mg119 3.181288 1_655
Mg102 Mg76 3.183054 1_555
Mg102 Mg77 3.185153 1_555
Mg102 Mg82 3.185153 1_555
Mg102 Mg128 3.187122 1_555
Mg102 Mg130 3.187130 1_555
Mg103 Mg112 3.174570 1_555
Mg103 Mg116 3.174570 1_545
Mg103 Mg124 3.177942 1_555
Mg103 Mg108 3.180956 1_555
Mg103 Mg109 3.180964 1_555
Mg103 Mg122 3.181280 1_545
Mg103 Mg118 3.181288 1_555
Mg103 Mg75 3.183053 1_555
Mg103 Mg78 3.185145 1_555
Mg103 Mg81 3.185153 1_555
Mg103 Mg127 3.187122 1_555
Mg103 Mg129 3.187130 1_555
Mg104 Mg114 3.174561 1_555
Mg104 Mg113 3.174577 1_655
Mg104 Mg126 3.177942 1_555
Mg104 Mg109 3.180956 1_555
Mg104 Mg110 3.180965 1_555
Mg104 Mg121 3.181281 1_555
Mg104 Mg120 3.181288 1_655
Mg104 Mg93 3.183054 1_555
Mg104 Mg87 3.185153 1_555
Mg104 Mg88 3.185153 1_555
Mg104 Mg132 3.187122 1_555
Mg104 Mg131 3.187130 1_555
Mg105 Mg111 3.169811 1_555
Mg105 Mg112 3.169827 1_555
Mg105 Mg99 3.174402 1_555
Mg105 Mg84 3.178066 1_555
Mg105 Mg119 3.182502 1_555
Mg105 Mg118 3.182503 1_555
Mg105 Mg80 3.188665 1_555
Mg105 Mg79 3.188673 1_555
Mg105 Mg133 3.189201 1_555
Mg105 Mg141 3.193665 1_555
Mg105 Mg140 3.193674 1_555
Mg106 Mg114 3.169812 1_555
Mg106 Mg115 3.169812 1_555
Mg106 Mg99 3.174402 1_555
Mg106 Mg89 3.178058 1_555
Mg106 Mg121 3.182502 1_555
Mg106 Mg123 3.182510 1_555
Mg106 Mg92 3.188665 1_555
Mg106 Mg96 3.188665 1_555
Mg106 Mg134 3.189200 1_555
Mg106 Mg142 3.193666 1_555
Mg106 Mg145 3.193674 1_555
Mg107 Mg113 3.169811 1_555
Mg107 Mg116 3.169819 1_555
Mg107 Mg90 3.178059 1_555
Mg107 Mg120 3.182502 1_555
Mg107 Mg122 3.182503 1_555
Mg107 Mg97 3.188665 1_555
Mg107 Mg91 3.188673 1_555
Mg107 Mg135 3.189201 1_555
Mg107 Mg143 3.193665 1_555
Mg107 Mg144 3.193666 1_555
Mg108 Mg116 3.177905 1_545
Mg108 Mg115 3.177914 1_545
Mg108 Mg127 3.178859 1_555
Mg108 Mg128 3.178859 1_555
Mg108 Mg78 3.183857 1_555
Mg108 Mg77 3.183858 1_555
Mg108 Mg110 3.191179 1_555
Mg108 Mg109 3.191180 1_555
Mg108 Mg83 3.193038 1_555
Mg108 Mg136 3.193482 1_555
Mg109 Mg112 3.177897 1_555
Mg109 Mg114 3.177914 1_555
Mg109 Mg129 3.178859 1_555
Mg109 Mg132 3.178859 1_555
Mg109 Mg87 3.183850 1_555
Mg109 Mg81 3.183857 1_555
Mg109 Mg110 3.191179 1_555
Mg109 Mg83 3.193046 1_555
Mg109 Mg136 3.193490 1_555
Mg110 Mg111 3.177913 1_655
Mg110 Mg113 3.177913 1_655
Mg110 Mg130 3.178859 1_555
Mg110 Mg131 3.178859 1_555
Mg110 Mg82 3.183858 1_555
Mg110 Mg88 3.183858 1_555
Mg110 Mg83 3.193038 1_555
Mg110 Mg136 3.193482 1_555
Mg111 Mg119 3.176778 1_555
Mg111 Mg130 3.182688 1_455
Mg111 Mg138 3.184384 1_555
Mg111 Mg141 3.186553 1_555
Mg111 Mg79 3.186664 1_555
Mg111 Mg86 3.190360 1_555
Mg111 Mg113 3.197852 1_555
Mg111 Mg82 3.197977 1_455
Mg112 Mg118 3.176784 1_555
Mg112 Mg99 3.180437 1_555
Mg112 Mg129 3.182680 1_555
Mg112 Mg137 3.184384 1_555
Mg112 Mg140 3.186561 1_555
Mg112 Mg80 3.186671 1_555
Mg112 Mg85 3.190360 1_555
Mg112 Mg114 3.197843 1_555
Mg112 Mg81 3.197970 1_555
Mg113 Mg120 3.176777 1_555
Mg113 Mg131 3.182688 1_455
Mg113 Mg138 3.184384 1_555
Mg113 Mg143 3.186553 1_555
Mg113 Mg91 3.186664 1_555
Mg113 Mg86 3.190352 1_555
Mg113 Mg88 3.197977 1_455
Mg114 Mg121 3.176777 1_555
Mg114 Mg99 3.180428 1_555
Mg114 Mg132 3.182688 1_555
Mg114 Mg137 3.184383 1_555
Mg114 Mg142 3.186553 1_555
Mg114 Mg92 3.186664 1_555
Mg114 Mg85 3.190360 1_555
Mg114 Mg87 3.197978 1_555
Mg115 Mg123 3.176769 1_555
Mg115 Mg128 3.182688 1_565
Mg115 Mg139 3.184383 1_555
Mg115 Mg145 3.186545 1_555
Mg115 Mg96 3.186664 1_555
Mg115 Mg98 3.190360 1_555
Mg115 Mg116 3.197835 1_555
Mg115 Mg77 3.197970 1_565
Mg116 Mg122 3.176792 1_555
Mg116 Mg127 3.182688 1_565
Mg116 Mg139 3.184376 1_555
Mg116 Mg144 3.186561 1_555
Mg116 Mg97 3.186672 1_555
Mg116 Mg98 3.190344 1_555
Mg116 Mg78 3.197978 1_565
Mg117 Mg122 3.167654 1_545
Mg117 Mg121 3.167654 1_445
Mg117 Mg118 3.167654 1_555
Mg117 Mg119 3.167655 1_555
Mg117 Mg120 3.167655 1_545
Mg117 Mg123 3.167662 1_445
Mg117 Mg95 3.188977 1_545
Mg117 Mg94 3.188985 1_445
Mg117 Mg74 3.188985 1_555
Mg117 Mg148 3.254686 1_445
Mg117 Mg147 3.254687 1_545
Mg117 Mg146 3.254687 1_555
Mg118 Mg119 3.162233 1_555
Mg118 Mg140 3.170907 1_555
Mg118 Mg122 3.172957 1_545
Mg118 Mg124 3.178142 1_555
Mg118 Mg74 3.200182 1_555
Mg118 Mg80 3.206466 1_555
Mg118 Mg75 3.207324 1_555
Mg118 Mg146 3.294099 1_555
Mg119 Mg141 3.170915 1_555
Mg119 Mg123 3.172948 1_445
Mg119 Mg125 3.178141 1_455
Mg119 Mg74 3.200175 1_555
Mg119 Mg79 3.206458 1_555
Mg119 Mg76 3.207324 1_455
Mg119 Mg146 3.294092 1_555
Mg120 Mg122 3.162233 1_555
Mg120 Mg143 3.170915 1_555
Mg120 Mg121 3.172956 1_455
Mg120 Mg126 3.178141 1_455
Mg120 Mg95 3.200183 1_555
Mg120 Mg91 3.206458 1_555
Mg120 Mg93 3.207324 1_455
Mg120 Mg147 3.294092 1_555
Mg121 Mg123 3.162250 1_555
Mg121 Mg142 3.170915 1_555
Mg121 Mg126 3.178142 1_555
Mg121 Mg94 3.200175 1_555
Mg121 Mg92 3.206466 1_555
Mg121 Mg93 3.207324 1_555
Mg121 Mg148 3.294100 1_555
Mg122 Mg144 3.170915 1_555
Mg122 Mg124 3.178142 1_565
Mg122 Mg95 3.200182 1_555
Mg122 Mg97 3.206466 1_555
Mg122 Mg75 3.207324 1_565
Mg122 Mg147 3.294099 1_555
Mg123 Mg145 3.170915 1_555
Mg123 Mg125 3.178134 1_565
Mg123 Mg94 3.200190 1_555
Mg123 Mg96 3.206466 1_555
Mg123 Mg76 3.207317 1_565
Mg123 Mg148 3.294100 1_555
Mg124 Mg7 3.159319 1_556
Mg124 Mg127 3.163441 1_555
Mg124 Mg129 3.163441 1_555
Mg124 Mg140 3.172300 1_555
Mg124 Mg144 3.172316 1_545
Mg124 Mg3 3.180460 1_556
Mg124 Mg5 3.180468 1_556
Mg124 Mg146 3.196842 1_555
Mg124 Mg147 3.196842 1_545
Mg125 Mg8 3.159312 1_556
Mg125 Mg128 3.163441 1_555
Mg125 Mg130 3.163442 1_555
Mg125 Mg145 3.172306 1_545
Mg125 Mg141 3.172315 1_655
Mg125 Mg2 3.180460 1_556
Mg125 Mg4 3.180468 1_556
Mg125 Mg146 3.196826 1_655
Mg125 Mg148 3.196827 1_545
Mg126 Mg16 3.159320 1_556
Mg126 Mg132 3.163441 1_555
Mg126 Mg131 3.163442 1_555
Mg126 Mg143 3.172314 1_655
Mg126 Mg142 3.172314 1_555
Mg126 Mg22 3.180460 1_556
Mg126 Mg23 3.180468 1_556
Mg126 Mg147 3.196826 1_655
Mg126 Mg148 3.196843 1_555
Mg127 Mg129 3.173353 1_555
Mg127 Mg136 3.173409 1_555
Mg127 Mg128 3.173451 1_555
Mg127 Mg139 3.178870 1_545
Mg127 Mg6 3.179979 1_556
Mg127 Mg7 3.187338 1_556
Mg127 Mg144 3.188599 1_545
Mg128 Mg130 3.173352 1_555
Mg128 Mg136 3.173402 1_555
Mg128 Mg139 3.178869 1_545
Mg128 Mg6 3.179988 1_556
Mg128 Mg8 3.187345 1_556
Mg128 Mg145 3.188584 1_545
Mg129 Mg136 3.173417 1_555
Mg129 Mg132 3.173451 1_555
Mg129 Mg137 3.178870 1_555
Mg129 Mg9 3.184317 1_556
Mg129 Mg7 3.187346 1_556
Mg129 Mg140 3.188591 1_555
Mg130 Mg136 3.173401 1_555
Mg130 Mg131 3.173452 1_555
Mg130 Mg138 3.178869 1_655
Mg130 Mg8 3.187346 1_556
Mg130 Mg141 3.188599 1_655
Mg131 Mg132 3.173352 1_555
Mg131 Mg136 3.173409 1_555
Mg131 Mg138 3.178869 1_655
Mg131 Mg17 3.184317 1_556
Mg131 Mg16 3.187338 1_556
Mg131 Mg143 3.188599 1_655
Mg132 Mg136 3.173418 1_555
Mg132 Mg137 3.178869 1_555
Mg132 Mg18 3.184317 1_556
Mg132 Mg16 3.187345 1_556
Mg132 Mg142 3.188600 1_555
Mg133 Mg134 3.175140 1_555
Mg133 Mg135 3.175141 1_555
Mg133 Mg137 3.177715 1_555
Mg133 Mg138 3.177715 1_555
Mg133 Mg14 3.178955 1_556
Mg133 Mg15 3.178956 1_556
Mg133 Mg141 3.183537 1_555
Mg133 Mg140 3.183554 1_555
Mg133 Mg99 3.185671 1_555
Mg134 Mg135 3.175140 1_555
Mg134 Mg137 3.177716 1_555
Mg134 Mg139 3.177716 1_555
Mg134 Mg19 3.178948 1_556
Mg134 Mg14 3.178956 1_556
Mg134 Mg142 3.183537 1_555
Mg134 Mg145 3.183545 1_555
Mg134 Mg99 3.185672 1_555
Mg134 Mg21 3.193400 1_556
Mg135 Mg138 3.177715 1_555
Mg135 Mg139 3.177715 1_555
Mg135 Mg15 3.178948 1_556
Mg135 Mg19 3.178955 1_556
Mg135 Mg143 3.183537 1_555
Mg135 Mg144 3.183538 1_555
Mg135 Mg20 3.193393 1_556
Mg136 Mg6 3.179637 1_556
Mg137 Mg14 3.182307 1_556
Mg137 Mg99 3.183954 1_555
Mg137 Mg142 3.189807 1_555
Mg137 Mg140 3.189815 1_555
Mg137 Mg18 3.197569 1_556
Mg137 Mg9 3.197570 1_556
Mg138 Mg15 3.182314 1_556
Mg138 Mg141 3.189808 1_555
Mg138 Mg143 3.189808 1_555
Mg138 Mg17 3.197562 1_456
Mg139 Mg19 3.182315 1_556
Mg139 Mg145 3.189799 1_555
Mg139 Mg144 3.189807 1_555
Mg140 Mg141 3.162574 1_555
Mg140 Mg9 3.168274 1_556
Mg140 Mg146 3.230560 1_555
Mg140 Mg5 3.237480 1_556
Mg141 Mg146 3.230561 1_555
Mg141 Mg4 3.237496 1_456
Mg142 Mg145 3.162583 1_555
Mg142 Mg18 3.168274 1_556
Mg142 Mg21 3.168950 1_556
Mg142 Mg148 3.230568 1_555
Mg142 Mg22 3.237495 1_556
Mg143 Mg144 3.162566 1_555
Mg143 Mg17 3.168282 1_456
Mg143 Mg20 3.168957 1_556
Mg143 Mg147 3.230561 1_555
Mg143 Mg23 3.237488 1_456
Mg144 Mg20 3.168958 1_556
Mg144 Mg147 3.230568 1_555
Mg144 Mg3 3.237496 1_566
Mg145 Mg21 3.168966 1_556
Mg145 Mg148 3.230568 1_555
Mg145 Mg2 3.237496 1_566
Mg146 Mn0 3.029300 1_556
Mg146 Mg4 3.032842 1_456
Mg146 Mg5 3.032857 1_556
Mg146 Mg148 3.051349 1_445
Mg146 Mg147 3.051366 1_545
Mg147 Mn0 3.029300 1_566
Mg147 Mg23 3.032850 1_456
Mg147 Mg3 3.032858 1_566
Mg147 Mg148 3.051357 1_455
Mg148 Mn0 3.029300 1_666
Mg148 Mg2 3.032850 1_566
Mg148 Mg22 3.032858 1_556
