# generated using pymatgen
data_FeSO10
_symmetry_space_group_name_H-M   'P 1'
_cell_length_a   13.66290323
_cell_length_b   13.66290323
_cell_length_c   13.66290328
_cell_angle_alpha   116.37523001
_cell_angle_beta   116.37523001
_cell_angle_gamma   116.37522911
_symmetry_Int_Tables_number   1
_chemical_formula_structural   FeSO10
_chemical_formula_sum   'Fe6 S6 O60'
_cell_volume   1230.03178471
_cell_formula_units_Z   6
loop_
 _symmetry_equiv_pos_site_id
 _symmetry_equiv_pos_as_xyz
  1  'x, y, z'
loop_
 _atom_site_type_symbol
 _atom_site_label
 _atom_site_symmetry_multiplicity
 _atom_site_fract_x
 _atom_site_fract_y
 _atom_site_fract_z
 _atom_site_occupancy
  Fe  Fe0  1  0.72229200  0.00066100  0.28400100  1
  Fe  Fe1  1  0.28400100  0.72229200  0.00066100  1
  Fe  Fe2  1  0.00066100  0.28400100  0.72229200  1
  Fe  Fe3  1  0.27770800  0.99933900  0.71599900  1
  Fe  Fe4  1  0.71599900  0.27770800  0.99933900  1
  Fe  Fe5  1  0.99933900  0.71599900  0.27770800  1
  S  S0  1  0.74225300  0.85990800  0.41290400  1
  S  S1  1  0.41290400  0.74225300  0.85990800  1
  S  S2  1  0.85990800  0.41290400  0.74225300  1
  S  S3  1  0.25774700  0.14009200  0.58709600  1
  S  S4  1  0.58709600  0.25774700  0.14009200  1
  S  S5  1  0.14009200  0.58709600  0.25774700  1
  O  O0  1  0.83117500  0.03128000  0.57362100  1
  O  O1  1  0.57362100  0.83117500  0.03128000  1
  O  O2  1  0.03128000  0.57362100  0.83117500  1
  O  O3  1  0.16882500  0.96872000  0.42637900  1
  O  O4  1  0.42637900  0.16882500  0.96872000  1
  O  O5  1  0.96872000  0.42637900  0.16882500  1
  O  O6  1  0.55770400  0.70531100  0.30131000  1
  O  O7  1  0.30131000  0.55770400  0.70531100  1
  O  O8  1  0.70531100  0.30131000  0.55770400  1
  O  O9  1  0.44229600  0.29468900  0.69869000  1
  O  O10  1  0.69869000  0.44229600  0.29468900  1
  O  O11  1  0.29468900  0.69869000  0.44229600  1
  O  O12  1  0.84844800  0.84666800  0.47353900  1
  O  O13  1  0.47353900  0.84844800  0.84666800  1
  O  O14  1  0.84666800  0.47353900  0.84844800  1
  O  O15  1  0.15155200  0.15333200  0.52646100  1
  O  O16  1  0.52646100  0.15155200  0.15333200  1
  O  O17  1  0.15333200  0.52646100  0.15155200  1
  O  O18  1  0.73513400  0.87184300  0.30417700  1
  O  O19  1  0.30417700  0.73513400  0.87184300  1
  O  O20  1  0.87184300  0.30417700  0.73513400  1
  O  O21  1  0.26486600  0.12815700  0.69582300  1
  O  O22  1  0.69582300  0.26486600  0.12815700  1
  O  O23  1  0.12815700  0.69582300  0.26486600  1
  O  O24  1  0.53146000  0.91918200  0.22056600  1
  O  O25  1  0.22056600  0.53146000  0.91918200  1
  O  O26  1  0.91918200  0.22056600  0.53146000  1
  O  O27  1  0.46854000  0.08081800  0.77943400  1
  O  O28  1  0.77943400  0.46854000  0.08081800  1
  O  O29  1  0.08081800  0.77943400  0.46854000  1
  O  O30  1  0.91679700  0.17326200  0.31948500  1
  O  O31  1  0.31948500  0.91679700  0.17326200  1
  O  O32  1  0.17326200  0.31948500  0.91679700  1
  O  O33  1  0.08320300  0.82673800  0.68051500  1
  O  O34  1  0.68051500  0.08320300  0.82673800  1
  O  O35  1  0.82673800  0.68051500  0.08320300  1
  O  O36  1  0.93601900  0.29388000  0.35753800  1
  O  O37  1  0.35753800  0.93601900  0.29388000  1
  O  O38  1  0.29388000  0.35753800  0.93601900  1
  O  O39  1  0.06398100  0.70612000  0.64246200  1
  O  O40  1  0.64246200  0.06398100  0.70612000  1
  O  O41  1  0.70612000  0.64246200  0.06398100  1
  O  O42  1  0.90672400  0.95966700  0.02024300  1
  O  O43  1  0.02024400  0.90672400  0.95966700  1
  O  O44  1  0.95966700  0.02024400  0.90672400  1
  O  O45  1  0.09327600  0.04033300  0.97975600  1
  O  O46  1  0.97975600  0.09327600  0.04033300  1
  O  O47  1  0.04033300  0.97975700  0.09327600  1
  O  O48  1  0.47803000  0.54137600  0.59169800  1
  O  O49  1  0.59169800  0.47803000  0.54137600  1
  O  O50  1  0.54137600  0.59169800  0.47803000  1
  O  O51  1  0.52197000  0.45862400  0.40830200  1
  O  O52  1  0.40830200  0.52197000  0.45862400  1
  O  O53  1  0.45862400  0.40830200  0.52197000  1
  O  O54  1  0.94123100  0.58675400  0.59607500  1
  O  O55  1  0.59607500  0.94123100  0.58675400  1
  O  O56  1  0.58675400  0.59607500  0.94123100  1
  O  O57  1  0.05876900  0.41324600  0.40392500  1
  O  O58  1  0.40392500  0.05876900  0.41324600  1
  O  O59  1  0.41324600  0.40392500  0.05876900  1
loop_
_geom_bond_atom_site_label_1
_geom_bond_atom_site_label_2
_geom_bond_distance
_geom_bond_site_symmetry_2
Fe0 O24 1.828825 1_545
Fe0 O26 1.845827 1_555
Fe0 O18 1.966457 1_545
Fe0 O1 1.973758 1_545
Fe0 O30 2.264919 1_555
Fe1 O25 1.828825 1_554
Fe1 O24 1.845827 1_555
Fe1 O19 1.966457 1_554
Fe1 O2 1.973758 1_554
Fe1 O31 2.264919 1_555
Fe2 O26 1.828825 1_455
Fe2 O25 1.845827 1_555
Fe2 O20 1.966457 1_455
Fe2 O0 1.973758 1_455
Fe2 O32 2.264919 1_555
Fe3 O27 1.828825 1_565
Fe3 O29 1.845827 1_555
Fe3 O21 1.966457 1_565
Fe3 O4 1.973758 1_565
Fe3 O33 2.264919 1_555
Fe4 O28 1.828825 1_556
Fe4 O27 1.845827 1_555
Fe4 O22 1.966457 1_556
Fe4 O5 1.973758 1_556
Fe4 O34 2.264919 1_555
Fe5 O29 1.828825 1_655
Fe5 O28 1.845827 1_555
Fe5 O23 1.966457 1_655
Fe5 O3 1.973758 1_655
Fe5 O35 2.264919 1_555
O0 S0 1.521243 1_545
O1 S1 1.521243 1_554
O2 S2 1.521243 1_455
O3 S3 1.521243 1_565
O4 S4 1.521243 1_556
O5 S5 1.521243 1_655
O6 S0 1.461085 1_555
O7 S1 1.461085 1_555
O8 S2 1.461085 1_555
O9 S3 1.461085 1_555
O10 S4 1.461085 1_555
O11 S5 1.461085 1_555
O12 S0 1.456921 1_555
O13 S1 1.456921 1_555
O14 S2 1.456921 1_555
O15 S3 1.456921 1_555
O16 S4 1.456921 1_555
O17 S5 1.456921 1_555
O18 S0 1.530941 1_555
O19 S1 1.530941 1_555
O20 S2 1.530941 1_555
O21 S3 1.530941 1_555
O22 S4 1.530941 1_555
O23 S5 1.530941 1_555
O30 O36 1.337168 1_555
O31 O37 1.337168 1_555
O32 O38 1.337168 1_555
O33 O39 1.337168 1_555
O34 O40 1.337168 1_555
O35 O41 1.337168 1_555
O36 O57 1.257465 1_655
O37 O58 1.257465 1_565
O38 O59 1.257465 1_556
O39 O54 1.257465 1_455
O40 O55 1.257465 1_545
O41 O56 1.257465 1_554
O42 O46 1.447908 1_565
O42 O47 1.447909 1_655
O43 O45 1.447918 1_565
O43 O47 1.447918 1_556
O44 O45 1.447918 1_655
O44 O46 1.447918 1_556
O48 O53 1.446346 1_555
O48 O52 1.446346 1_555
O49 O51 1.446346 1_555
O49 O53 1.446346 1_555
O50 O51 1.446346 1_555
O50 O52 1.446346 1_555
