# generated using pymatgen
data_Cs2ReF6
_symmetry_space_group_name_H-M   'P 1'
_cell_length_a   6.28118566
_cell_length_b   6.28120145
_cell_length_c   4.94872613
_cell_angle_alpha   90.00217411
_cell_angle_beta   89.99788581
_cell_angle_gamma   119.99894739
_symmetry_Int_Tables_number   1
_chemical_formula_structural   Cs2ReF6
_chemical_formula_sum   'Cs2 Re1 F6'
_cell_volume   169.08808695
_cell_formula_units_Z   1
loop_
 _symmetry_equiv_pos_site_id
 _symmetry_equiv_pos_as_xyz
  1  'x, y, z'
loop_
 _atom_site_type_symbol
 _atom_site_label
 _atom_site_symmetry_multiplicity
 _atom_site_fract_x
 _atom_site_fract_y
 _atom_site_fract_z
 _atom_site_occupancy
  Cs  Cs0  1  0.33333270  0.66666965  0.29880565  1
  Cs  Cs1  1  0.66666293  0.33333275  0.70113018  1
  Re  Re0  1  -0.00000256  -0.00000226  -0.00002732  1
  F  F0  1  0.84747603  0.15251673  0.21742176  1
  F  F1  1  0.15249714  0.84750250  0.78260621  1
  F  F2  1  0.84746731  0.69494052  0.21742714  1
  F  F3  1  0.15250503  0.30500493  0.78260267  1
  F  F4  1  0.30506352  0.15253496  0.21742925  1
  F  F5  1  0.69499689  0.84749922  0.78260547  1
loop_
_geom_bond_atom_site_label_1
_geom_bond_atom_site_label_2
_geom_bond_distance
_geom_bond_site_symmetry_2
Cs0 F1 3.098746 1_555
Cs0 F3 3.098841 1_555
Cs0 F5 3.098844 1_555
Cs0 F2 3.170024 1_555
Cs0 F4 3.170035 1_555
Cs0 F2 3.170058 1_455
Cs0 F4 3.170058 1_565
Cs0 F0 3.170073 1_565
Cs0 F0 3.170133 1_455
Cs0 F5 3.224269 1_554
Cs0 F3 3.224282 1_554
Cs0 F1 3.224362 1_554
Cs1 F4 3.098242 1_555
Cs1 F0 3.098258 1_555
Cs1 F2 3.098285 1_555
Cs1 F3 3.170066 1_555
Cs1 F5 3.170111 1_555
Cs1 F5 3.170142 1_545
Cs1 F1 3.170159 1_545
Cs1 F3 3.170165 1_655
Cs1 F1 3.170184 1_655
Cs1 F4 3.224442 1_556
Cs1 F2 3.224462 1_556
Cs1 F0 3.224593 1_556
F0 Re0 1.977661 1_655
F1 Re0 1.977231 1_566
F2 Re0 1.977835 1_665
F3 Re0 1.977380 1_556
F4 Re0 1.977876 1_555
F5 Re0 1.977337 1_666
