# generated using pymatgen
data_Ba10Re3O22
_symmetry_space_group_name_H-M   'P 1'
_cell_length_a   10.57818447
_cell_length_b   10.57818447
_cell_length_c   10.23793635
_cell_angle_alpha   86.80185976
_cell_angle_beta   86.80185976
_cell_angle_gamma   32.07398131
_symmetry_Int_Tables_number   1
_chemical_formula_structural   Ba10Re3O22
_chemical_formula_sum   'Ba10 Re3 O22'
_cell_volume   607.30604547
_cell_formula_units_Z   1
loop_
 _symmetry_equiv_pos_site_id
 _symmetry_equiv_pos_as_xyz
  1  'x, y, z'
loop_
 _atom_site_type_symbol
 _atom_site_label
 _atom_site_symmetry_multiplicity
 _atom_site_fract_x
 _atom_site_fract_y
 _atom_site_fract_z
 _atom_site_occupancy
  Ba  Ba0  1  0.29224700  0.29224700  0.41390000  1
  Ba  Ba1  1  0.70775300  0.70775300  0.58610000  1
  Ba  Ba2  1  0.40705700  0.40705700  0.08534400  1
  Ba  Ba3  1  0.59294300  0.59294300  0.91465600  1
  Ba  Ba4  1  0.17858700  0.17858700  0.10391900  1
  Ba  Ba5  1  0.82141300  0.82141300  0.89608100  1
  Ba  Ba6  1  0.06663000  0.06663000  0.65976800  1
  Ba  Ba7  1  0.93337000  0.93337000  0.34023200  1
  Ba  Ba8  1  0.43129300  0.43129300  0.67171600  1
  Ba  Ba9  1  0.56870700  0.56870700  0.32828400  1
  Re  Re0  1  0.00000000  0.00000000  0.00000000  1
  Re  Re1  1  0.25692300  0.25692300  0.76148400  1
  Re  Re2  1  0.74307700  0.74307700  0.23851600  1
  O  O0  1  0.08312100  0.53312800  0.65936100  1
  O  O1  1  0.53312800  0.08312100  0.65936100  1
  O  O2  1  0.91687900  0.46687200  0.34063900  1
  O  O3  1  0.46687200  0.91687900  0.34063900  1
  O  O4  1  0.32547300  0.32547300  0.88149400  1
  O  O5  1  0.67452700  0.67452700  0.11850600  1
  O  O6  1  0.19670300  0.19670300  0.62385400  1
  O  O7  1  0.80329700  0.80329700  0.37614600  1
  O  O8  1  0.97389000  0.44862200  0.84892600  1
  O  O9  1  0.44862200  0.97389000  0.84892600  1
  O  O10  1  0.02611000  0.55137800  0.15107400  1
  O  O11  1  0.55137800  0.02611000  0.15107400  1
  O  O12  1  0.08643500  0.08643500  0.91860200  1
  O  O13  1  0.91356500  0.91356500  0.08139800  1
  O  O14  1  0.79388900  0.25846100  0.11824800  1
  O  O15  1  0.25846100  0.79388900  0.11824800  1
  O  O16  1  0.20611100  0.74153900  0.88175200  1
  O  O17  1  0.74153900  0.20611100  0.88175200  1
  O  O18  1  0.42666800  0.42666800  0.35787000  1
  O  O19  1  0.57333200  0.57333200  0.64213000  1
  O  O20  1  0.95021500  0.95021500  0.58778600  1
  O  O21  1  0.04978500  0.04978500  0.41221400  1
loop_
_geom_bond_atom_site_label_1
_geom_bond_atom_site_label_2
_geom_bond_distance
_geom_bond_site_symmetry_2
Ba0 O3 2.736534 1_545
Ba0 O2 2.736534 1_455
Ba0 O18 2.759954 1_555
Ba0 O6 2.812404 1_555
Ba0 O1 2.871068 1_555
Ba0 O0 2.871068 1_555
Ba0 O7 2.954603 1_545
Ba0 O7 2.954603 1_455
Ba0 O11 3.102243 1_555
Ba0 O10 3.102243 1_555
Ba1 O0 2.736534 1_655
Ba1 O1 2.736534 1_565
Ba1 O19 2.759954 1_555
Ba1 O7 2.812404 1_555
Ba1 O2 2.871068 1_555
Ba1 O3 2.871068 1_555
Ba1 O6 2.954603 1_655
Ba1 O6 2.954603 1_565
Ba1 O8 3.102243 1_555
Ba1 O9 3.102243 1_555
Ba2 O4 2.740310 1_554
Ba2 O18 2.841275 1_555
Ba2 O16 2.882248 1_554
Ba2 O17 2.882248 1_554
Ba2 O11 2.899711 1_555
Ba2 O10 2.899711 1_555
Ba2 O15 2.919362 1_555
Ba2 O14 2.919362 1_555
Ba2 O13 2.925474 1_545
Ba2 O13 2.925474 1_455
Ba3 O5 2.740310 1_556
Ba3 O19 2.841275 1_555
Ba3 O15 2.882248 1_556
Ba3 O14 2.882248 1_556
Ba3 O9 2.899711 1_555
Ba3 O8 2.899711 1_555
Ba3 O17 2.919362 1_555
Ba3 O16 2.919362 1_555
Ba3 O12 2.925474 1_565
Ba3 O12 2.925474 1_655
Ba4 O12 2.742844 1_554
Ba4 O11 2.780582 1_555
Ba4 O10 2.780582 1_555
Ba4 O5 2.927040 1_545
Ba4 O5 2.927040 1_455
Ba4 O3 2.933555 1_545
Ba4 O2 2.933555 1_455
Ba4 O8 2.996631 1_454
Ba4 O9 2.996631 1_544
Ba4 O15 3.378709 1_545
Ba4 O14 3.378709 1_455
Ba5 O13 2.742844 1_556
Ba5 O8 2.780582 1_555
Ba5 O9 2.780582 1_555
Ba5 O4 2.927040 1_655
Ba5 O4 2.927040 1_565
Ba5 O1 2.933555 1_565
Ba5 O0 2.933555 1_655
Ba5 O10 2.996631 1_656
Ba5 O11 2.996631 1_566
Ba5 O16 3.378709 1_655
Ba5 O17 3.378709 1_565
Ba6 O20 2.519649 1_445
Ba6 O21 2.577109 1_555
Ba6 O6 2.648991 1_555
Ba6 O12 2.703361 1_555
Ba6 O19 2.930563 1_455
Ba6 O19 2.930563 1_545
Ba6 O17 3.173488 1_455
Ba6 O16 3.173488 1_545
Ba7 O21 2.519649 1_665
Ba7 O20 2.577109 1_555
Ba7 O7 2.648991 1_555
Ba7 O13 2.703361 1_555
Ba7 O18 2.930563 1_655
Ba7 O18 2.930563 1_565
Ba7 O14 3.173488 1_565
Ba7 O15 3.173488 1_655
Ba8 O17 2.834777 1_555
Ba8 O16 2.834777 1_555
Ba8 O1 2.837979 1_555
Ba8 O0 2.837979 1_555
Ba8 O19 2.886385 1_555
Ba8 O4 2.950536 1_555
Ba8 O20 3.063963 1_455
Ba8 O20 3.063963 1_545
Ba8 O18 3.219963 1_555
Ba9 O14 2.834777 1_555
Ba9 O15 2.834777 1_555
Ba9 O2 2.837979 1_555
Ba9 O3 2.837979 1_555
Ba9 O18 2.886385 1_555
Ba9 O5 2.950536 1_555
Ba9 O21 3.063963 1_655
Ba9 O21 3.063963 1_565
Ba9 O19 3.219963 1_555
O0 Re1 1.944220 1_555
O1 Re1 1.944220 1_555
O2 Re2 1.944220 1_555
O3 Re2 1.944220 1_555
O4 Re1 1.910804 1_555
O5 Re2 1.910804 1_555
O6 Re1 1.919637 1_555
O7 Re2 1.919637 1_555
O8 Re1 1.868626 1_655
O9 Re1 1.868626 1_565
O10 Re2 1.868626 1_455
O11 Re2 1.868626 1_545
O12 Re0 1.900840 1_556
O13 Re0 1.900840 1_665
O14 Re0 1.914885 1_655
O15 Re0 1.914885 1_565
O16 Re0 1.914885 1_566
O17 Re0 1.914885 1_656
