# generated using pymatgen
data_Li2TiFe3O8
_symmetry_space_group_name_H-M   'P 1'
_cell_length_a   5.99434812
_cell_length_b   5.96335182
_cell_length_c   10.40021729
_cell_angle_alpha   107.10715195
_cell_angle_beta   90.44831277
_cell_angle_gamma   60.23706391
_symmetry_Int_Tables_number   1
_chemical_formula_structural   Li2TiFe3O8
_chemical_formula_sum   'Li4 Ti2 Fe6 O16'
_cell_volume   304.14105083
_cell_formula_units_Z   2
loop_
 _symmetry_equiv_pos_site_id
 _symmetry_equiv_pos_as_xyz
  1  'x, y, z'
loop_
 _atom_site_type_symbol
 _atom_site_label
 _atom_site_symmetry_multiplicity
 _atom_site_fract_x
 _atom_site_fract_y
 _atom_site_fract_z
 _atom_site_occupancy
  Li  Li0  1  0.31821000  0.37400800  0.56637100  1
  Li  Li1  1  0.80588300  0.37929400  0.06606500  1
  Li  Li2  1  0.17967200  0.62794900  0.93433700  1
  Li  Li3  1  0.69509300  0.62037600  0.43388800  1
  Ti  Ti0  1  0.75293400  0.49995900  0.74834700  1
  Ti  Ti1  1  0.25245200  0.49853600  0.24961600  1
  Fe  Fe0  1  0.24879400  0.00026800  0.75112700  1
  Fe  Fe1  1  0.75089200  0.99866800  0.24966800  1
  Fe  Fe2  1  0.00618100  0.99167800  0.49842000  1
  Fe  Fe3  1  0.74847700  0.00270300  0.75009200  1
  Fe  Fe4  1  0.25037600  0.99972000  0.25026500  1
  Fe  Fe5  1  0.49314300  0.00597100  0.00088700  1
  O  O0  1  0.11663900  0.79116200  0.63753600  1
  O  O1  1  0.58951700  0.79363500  0.13380900  1
  O  O2  1  0.38022400  0.21043300  0.86325400  1
  O  O3  1  0.91191500  0.20564000  0.36629700  1
  O  O4  1  0.86229500  0.25754900  0.85946600  1
  O  O5  1  0.37584600  0.23806000  0.35681600  1
  O  O6  1  0.65990100  0.24041000  0.63031500  1
  O  O7  1  0.14817400  0.25333600  0.13252000  1
  O  O8  1  0.11307400  0.23735100  0.63952200  1
  O  O9  1  0.59953500  0.24653700  0.13461900  1
  O  O10  1  0.38536100  0.76308200  0.86010600  1
  O  O11  1  0.90257600  0.75121300  0.36588800  1
  O  O12  1  0.83878700  0.76079600  0.86984200  1
  O  O13  1  0.35271100  0.74621900  0.36709100  1
  O  O14  1  0.63536700  0.74488600  0.64079300  1
  O  O15  1  0.12597000  0.76056000  0.14304400  1
loop_
_geom_bond_atom_site_label_1
_geom_bond_atom_site_label_2
_geom_bond_distance
_geom_bond_site_symmetry_2
Li0 O6 1.985566 1_555
Li0 O8 2.032058 1_555
Li0 O0 2.035354 1_555
Li0 O5 2.054431 1_555
Li1 O9 1.995784 1_555
Li1 O7 2.001229 1_655
Li1 O1 2.022910 1_555
Li1 O4 2.026849 1_554
Li2 O12 1.984171 1_455
Li2 O10 2.032973 1_555
Li2 O2 2.037194 1_555
Li2 O15 2.046662 1_556
Li3 O11 1.989366 1_555
Li3 O13 2.003302 1_555
Li3 O3 2.024910 1_555
Li3 O14 2.029315 1_555
Fe0 O2 1.912433 1_555
Fe0 O0 1.917695 1_545
Fe0 O10 1.932459 1_545
Fe0 O8 1.953639 1_555
Fe0 O4 2.117982 1_455
Fe0 O14 2.124976 1_545
Fe1 O9 2.032683 1_565
Fe1 O11 2.040916 1_555
Fe1 O1 2.042519 1_555
Fe1 O3 2.051830 1_565
Fe1 O15 2.060104 1_655
Fe1 O5 2.061767 1_565
Fe2 O11 2.012414 1_455
Fe2 O3 2.034451 1_465
Fe2 O13 2.042654 1_555
Fe2 O0 2.044098 1_555
Fe2 O6 2.044784 1_465
Fe2 O8 2.088745 1_565
Fe3 O4 2.017240 1_555
Fe3 O14 2.027395 1_545
Fe3 O6 2.030854 1_555
Fe3 O12 2.048481 1_545
Fe3 O0 2.059053 1_645
Fe3 O2 2.064096 1_555
Fe4 O3 1.942532 1_465
Fe4 O1 1.947419 1_555
Fe4 O5 1.983793 1_565
Fe4 O15 1.985173 1_555
Fe4 O13 2.070290 1_555
Fe4 O7 2.078512 1_565
Fe5 O9 2.029726 1_555
Fe5 O1 2.034513 1_545
Fe5 O12 2.037714 1_544
Fe5 O7 2.038134 1_555
Fe5 O2 2.045970 1_554
Fe5 O10 2.079844 1_544
O4 Ti0 1.971074 1_555
O5 Ti1 2.016963 1_555
O6 Ti0 1.985440 1_555
O7 Ti1 1.964633 1_555
O8 Ti0 2.008194 1_455
O9 Ti1 1.973516 1_555
O10 Ti0 2.049993 1_555
O11 Ti1 1.990358 1_655
O12 Ti0 1.977169 1_555
O13 Ti1 1.960519 1_555
O14 Ti0 1.951437 1_555
O15 Ti1 2.018519 1_555
