# generated using pymatgen
data_Na2SrV2CoO8
_symmetry_space_group_name_H-M   'P 1'
_cell_length_a   5.57985000
_cell_length_b   9.70002200
_cell_length_c   13.85622375
_cell_angle_alpha   89.90828519
_cell_angle_beta   90.00000000
_cell_angle_gamma   90.00000000
_symmetry_Int_Tables_number   1
_chemical_formula_structural   Na2SrV2CoO8
_chemical_formula_sum   'Na8 Sr4 V8 Co4 O32'
_cell_volume   749.96254612
_cell_formula_units_Z   4
loop_
 _symmetry_equiv_pos_site_id
 _symmetry_equiv_pos_as_xyz
  1  'x, y, z'
loop_
 _atom_site_type_symbol
 _atom_site_label
 _atom_site_symmetry_multiplicity
 _atom_site_fract_x
 _atom_site_fract_y
 _atom_site_fract_z
 _atom_site_occupancy
  Na  Na0  1  0.48083300  0.81918300  0.91659200  1
  Na  Na1  1  0.98083300  0.68081700  0.08340800  1
  Na  Na2  1  0.51916700  0.18081700  0.08340800  1
  Na  Na3  1  0.01916700  0.31918300  0.91659200  1
  Na  Na4  1  0.51942200  0.15024100  0.58353800  1
  Na  Na5  1  0.01942200  0.34975900  0.41646200  1
  Na  Na6  1  0.48057800  0.84975900  0.41646200  1
  Na  Na7  1  0.98057800  0.65024100  0.58353800  1
  Sr  Sr0  1  0.55444300  0.46188200  0.75046300  1
  Sr  Sr1  1  0.05444300  0.03811800  0.24953700  1
  Sr  Sr2  1  0.44555700  0.53811800  0.24953700  1
  Sr  Sr3  1  0.94555700  0.96188200  0.75046300  1
  V  V0  1  0.46854900  0.81711100  0.63494900  1
  V  V1  1  0.96854900  0.68288900  0.36505100  1
  V  V2  1  0.53145100  0.18288900  0.36505100  1
  V  V3  1  0.03145100  0.31711100  0.63494900  1
  V  V4  1  0.48254500  0.15031000  0.86533200  1
  V  V5  1  0.98254500  0.34969000  0.13466800  1
  V  V6  1  0.51745500  0.84969000  0.13466800  1
  V  V7  1  0.01745500  0.65031000  0.86533200  1
  Co  Co0  1  0.50000000  0.50000000  0.50000000  1
  Co  Co1  1  0.00000000  0.00000000  0.50000000  1
  Co  Co2  1  0.50000000  0.50000000  0.00000000  1
  Co  Co3  1  0.00000000  0.00000000  0.00000000  1
  O  O0  1  0.49373600  0.63779100  0.61511700  1
  O  O1  1  0.99373600  0.86220900  0.38488300  1
  O  O2  1  0.50626400  0.36220900  0.38488300  1
  O  O3  1  0.00626400  0.13779100  0.61511700  1
  O  O4  1  0.69675600  0.90591200  0.57652500  1
  O  O5  1  0.19675600  0.59408800  0.42347500  1
  O  O6  1  0.30324400  0.09408800  0.42347500  1
  O  O7  1  0.80324400  0.40591200  0.57652500  1
  O  O8  1  0.19409500  0.08055000  0.88287200  1
  O  O9  1  0.69409500  0.41945000  0.11712800  1
  O  O10  1  0.80590500  0.91945000  0.11712800  1
  O  O11  1  0.30590500  0.58055000  0.88287200  1
  O  O12  1  0.70031800  0.04130400  0.91597100  1
  O  O13  1  0.20031800  0.45869600  0.08402900  1
  O  O14  1  0.29968200  0.95869600  0.08402900  1
  O  O15  1  0.79968200  0.54130400  0.91597100  1
  O  O16  1  0.49269000  0.30788700  0.92502500  1
  O  O17  1  0.99269000  0.19211300  0.07497500  1
  O  O18  1  0.50731000  0.69211300  0.07497500  1
  O  O19  1  0.00731000  0.80788700  0.92502500  1
  O  O20  1  0.19576900  0.87291100  0.58561300  1
  O  O21  1  0.69576900  0.62708900  0.41438700  1
  O  O22  1  0.80423100  0.12708900  0.41438700  1
  O  O23  1  0.30423100  0.37291100  0.58561300  1
  O  O24  1  0.47843200  0.85986200  0.75447400  1
  O  O25  1  0.97843200  0.64013800  0.24552600  1
  O  O26  1  0.52156800  0.14013800  0.24552600  1
  O  O27  1  0.02156800  0.35986200  0.75447400  1
  O  O28  1  0.55189900  0.18287000  0.74698800  1
  O  O29  1  0.05189900  0.31713000  0.25301200  1
  O  O30  1  0.44810100  0.81713000  0.25301200  1
  O  O31  1  0.94810100  0.68287000  0.74698800  1
loop_
_geom_bond_atom_site_label_1
_geom_bond_atom_site_label_2
_geom_bond_distance
_geom_bond_site_symmetry_2
Na0 O24 2.280153 1_555
Na0 O12 2.478326 1_565
Na0 O18 2.519653 1_556
Na0 O11 2.555882 1_555
Na0 O19 2.647031 1_555
Na0 O14 2.871538 1_556
Na0 O19 2.942020 1_655
Na1 O25 2.280153 1_555
Na1 O13 2.478326 1_655
Na1 O19 2.519653 1_654
Na1 O10 2.555882 1_555
Na1 O18 2.647031 1_555
Na1 O15 2.871538 1_554
Na1 O18 2.942020 1_655
Na2 O26 2.280153 1_555
Na2 O14 2.478326 1_545
Na2 O16 2.519653 1_554
Na2 O9 2.555882 1_555
Na2 O17 2.647031 1_555
Na2 O12 2.871538 1_554
Na2 O17 2.942020 1_455
Na3 O27 2.280153 1_555
Na3 O15 2.478326 1_455
Na3 O17 2.519653 1_456
Na3 O8 2.555882 1_555
Na3 O16 2.647031 1_555
Na3 O13 2.871538 1_556
Na3 O16 2.942020 1_455
Na4 O28 2.294477 1_555
Na4 O23 2.471431 1_555
Na4 O4 2.570247 1_545
Na4 O6 2.583507 1_555
Na4 O3 2.754139 1_655
Na4 O22 2.840954 1_555
Na4 O3 2.899073 1_555
Na4 O7 2.944011 1_555
Na5 O29 2.294477 1_555
Na5 O22 2.471431 1_455
Na5 O5 2.570247 1_555
Na5 O7 2.583507 1_455
Na5 O2 2.754139 1_555
Na5 O23 2.840954 1_555
Na5 O2 2.899073 1_455
Na5 O6 2.944011 1_555
Na6 O30 2.294477 1_555
Na6 O21 2.471431 1_555
Na6 O6 2.570247 1_565
Na6 O4 2.583507 1_555
Na6 O1 2.754139 1_455
Na6 O20 2.840954 1_555
Na6 O1 2.899073 1_555
Na6 O5 2.944011 1_555
Na7 O31 2.294477 1_555
Na7 O20 2.471431 1_655
Na7 O7 2.570247 1_555
Na7 O5 2.583507 1_655
Na7 O0 2.754139 1_555
Na7 O21 2.840954 1_555
Na7 O0 2.899073 1_655
Na7 O4 2.944011 1_555
Co0 O23 2.028676 1_555
Co0 O21 2.028676 1_555
Co0 O0 2.082975 1_555
Co0 O2 2.082975 1_555
Co0 O7 2.194820 1_555
Co0 O5 2.194820 1_555
Co1 O20 2.028676 1_545
Co1 O22 2.028676 1_455
Co1 O3 2.082975 1_555
Co1 O1 2.082975 1_445
Co1 O6 2.194820 1_555
Co1 O4 2.194820 1_445
Co2 O13 2.076263 1_555
Co2 O15 2.076263 1_554
Co2 O9 2.100794 1_555
Co2 O11 2.100794 1_554
Co2 O18 2.135356 1_555
Co2 O16 2.135356 1_554
Co3 O14 2.076263 1_545
Co3 O12 2.076263 1_454
Co3 O10 2.100794 1_445
Co3 O8 2.100794 1_554
Co3 O17 2.135356 1_455
Co3 O19 2.135356 1_544
O0 V0 1.767013 1_555
O0 Sr0 2.555992 1_555
O1 V1 1.767013 1_555
O1 Sr1 2.555992 1_665
O2 V2 1.767013 1_555
O2 Sr2 2.555992 1_555
O3 V3 1.767013 1_555
O3 Sr3 2.555992 1_445
O4 V0 1.736815 1_555
O4 Sr3 2.834597 1_555
O5 V1 1.736815 1_455
O5 Sr2 2.834597 1_555
O6 V2 1.736815 1_555
O6 Sr1 2.834597 1_555
O7 V3 1.736815 1_655
O7 Sr0 2.834597 1_555
O8 V4 1.762652 1_555
O8 Sr3 2.573142 1_445
O9 V5 1.762652 1_555
O9 Sr2 2.573142 1_555
O10 V6 1.762652 1_555
O10 Sr1 2.573142 1_665
O11 V7 1.762652 1_555
O11 Sr0 2.573142 1_555
O12 V4 1.756285 1_555
O12 Sr3 2.780463 1_545
O13 V5 1.756285 1_455
O13 Sr2 2.780463 1_555
O14 V6 1.756285 1_555
O14 Sr1 2.780463 1_565
O15 V7 1.756285 1_655
O15 Sr0 2.780463 1_555
O16 V4 1.740026 1_555
O16 Sr0 2.861628 1_555
O17 V5 1.740026 1_555
O17 Sr1 2.861628 1_655
O18 V6 1.740026 1_555
O18 Sr2 2.861628 1_555
O19 V7 1.740026 1_555
O19 Sr3 2.861628 1_455
O20 V0 1.753797 1_555
O20 Sr3 2.813876 1_455
O21 V1 1.753797 1_555
O21 Sr2 2.813876 1_555
O22 V2 1.753797 1_555
O22 Sr1 2.813876 1_655
O23 V3 1.753797 1_555
O23 Sr0 2.813876 1_555
O24 V0 1.708826 1_555
O24 Sr3 2.788546 1_555
O24 Sr3 3.134182 1_455
O25 V1 1.708826 1_555
O25 Sr2 2.788546 1_655
O25 Sr2 3.134182 1_555
O26 V2 1.708826 1_555
O26 Sr1 2.788546 1_555
O26 Sr1 3.134182 1_655
O27 V3 1.708826 1_555
O27 Sr0 2.788546 1_455
O27 Sr0 3.134182 1_555
O28 V4 1.713708 1_555
O28 Sr0 2.706965 1_555
O28 Sr3 3.069496 1_545
O29 V5 1.713708 1_455
O29 Sr1 2.706965 1_555
O29 Sr2 3.069496 1_555
O30 V6 1.713708 1_555
O30 Sr2 2.706965 1_555
O30 Sr1 3.069496 1_565
O31 V7 1.713708 1_655
O31 Sr3 2.706965 1_555
O31 Sr0 3.069496 1_555
