# generated using pymatgen
data_CsPr2Cl7
_symmetry_space_group_name_H-M   'P 1'
_cell_length_a   9.85100300
_cell_length_b   15.15762000
_cell_length_c   16.99085500
_cell_angle_alpha   90.00000000
_cell_angle_beta   90.00000000
_cell_angle_gamma   90.00000000
_symmetry_Int_Tables_number   1
_chemical_formula_structural   CsPr2Cl7
_chemical_formula_sum   'Cs8 Pr16 Cl56'
_cell_volume   2537.03641066
_cell_formula_units_Z   8
loop_
 _symmetry_equiv_pos_site_id
 _symmetry_equiv_pos_as_xyz
  1  'x, y, z'
loop_
 _atom_site_type_symbol
 _atom_site_label
 _atom_site_symmetry_multiplicity
 _atom_site_fract_x
 _atom_site_fract_y
 _atom_site_fract_z
 _atom_site_occupancy
  Cs  Cs0  1  0.25000000  0.91553400  0.59776000  1
  Cs  Cs1  1  0.75000000  0.08446600  0.40224000  1
  Cs  Cs2  1  0.75000000  0.58446600  0.09776000  1
  Cs  Cs3  1  0.25000000  0.41553400  0.90224000  1
  Cs  Cs4  1  0.25000000  0.56904700  0.56920800  1
  Cs  Cs5  1  0.75000000  0.43095300  0.43079200  1
  Cs  Cs6  1  0.75000000  0.93095300  0.06920800  1
  Cs  Cs7  1  0.25000000  0.06904700  0.93079200  1
  Pr  Pr0  1  0.02649200  0.74432100  0.83917000  1
  Pr  Pr1  1  0.97350800  0.25567900  0.16083000  1
  Pr  Pr2  1  0.97350800  0.75567900  0.33917000  1
  Pr  Pr3  1  0.52649200  0.25567900  0.16083000  1
  Pr  Pr4  1  0.02649200  0.24432100  0.66083000  1
  Pr  Pr5  1  0.47350800  0.74432100  0.83917000  1
  Pr  Pr6  1  0.47350800  0.24432100  0.66083000  1
  Pr  Pr7  1  0.52649200  0.75567900  0.33917000  1
  Pr  Pr8  1  0.25000000  0.71187700  0.06108000  1
  Pr  Pr9  1  0.75000000  0.28812300  0.93892000  1
  Pr  Pr10  1  0.75000000  0.78812300  0.56108000  1
  Pr  Pr11  1  0.25000000  0.21187700  0.43892000  1
  Pr  Pr12  1  0.25000000  0.51301300  0.25600300  1
  Pr  Pr13  1  0.75000000  0.48698700  0.74399700  1
  Pr  Pr14  1  0.75000000  0.98698700  0.75600300  1
  Pr  Pr15  1  0.25000000  0.01301300  0.24399700  1
  Cl  Cl0  1  0.57430300  0.91489600  0.87866300  1
  Cl  Cl1  1  0.42569700  0.08510400  0.12133700  1
  Cl  Cl2  1  0.42569700  0.58510400  0.37866300  1
  Cl  Cl3  1  0.07430300  0.08510400  0.12133700  1
  Cl  Cl4  1  0.57430300  0.41489600  0.62133700  1
  Cl  Cl5  1  0.92569700  0.91489600  0.87866300  1
  Cl  Cl6  1  0.92569700  0.41489600  0.62133700  1
  Cl  Cl7  1  0.07430300  0.58510400  0.37866300  1
  Cl  Cl8  1  0.01986700  0.77783800  0.50438800  1
  Cl  Cl9  1  0.98013300  0.22216200  0.49561200  1
  Cl  Cl10  1  0.98013300  0.72216200  0.00438800  1
  Cl  Cl11  1  0.51986700  0.22216200  0.49561200  1
  Cl  Cl12  1  0.01986700  0.27783800  0.99561200  1
  Cl  Cl13  1  0.48013300  0.77783800  0.50438800  1
  Cl  Cl14  1  0.48013300  0.27783800  0.99561200  1
  Cl  Cl15  1  0.51986700  0.72216200  0.00438800  1
  Cl  Cl16  1  0.25000000  0.80609400  0.34455900  1
  Cl  Cl17  1  0.75000000  0.19390600  0.65544100  1
  Cl  Cl18  1  0.75000000  0.69390600  0.84455900  1
  Cl  Cl19  1  0.25000000  0.30609400  0.15544100  1
  Cl  Cl20  1  0.25000000  0.75130300  0.73189700  1
  Cl  Cl21  1  0.75000000  0.24869700  0.26810300  1
  Cl  Cl22  1  0.75000000  0.74869700  0.23189700  1
  Cl  Cl23  1  0.25000000  0.25130300  0.76810300  1
  Cl  Cl24  1  0.57582600  0.83045300  0.69713800  1
  Cl  Cl25  1  0.42417400  0.16954700  0.30286200  1
  Cl  Cl26  1  0.42417400  0.66954700  0.19713800  1
  Cl  Cl27  1  0.07582600  0.16954700  0.30286200  1
  Cl  Cl28  1  0.57582600  0.33045300  0.80286200  1
  Cl  Cl29  1  0.92417400  0.83045300  0.69713800  1
  Cl  Cl30  1  0.92417400  0.33045300  0.80286200  1
  Cl  Cl31  1  0.07582600  0.66954700  0.19713800  1
  Cl  Cl32  1  0.00758900  0.57205400  0.76864900  1
  Cl  Cl33  1  0.99241100  0.42794600  0.23135100  1
  Cl  Cl34  1  0.99241100  0.92794600  0.26864900  1
  Cl  Cl35  1  0.50758900  0.42794600  0.23135100  1
  Cl  Cl36  1  0.00758900  0.07205400  0.73135100  1
  Cl  Cl37  1  0.49241100  0.57205400  0.76864900  1
  Cl  Cl38  1  0.49241100  0.07205400  0.73135100  1
  Cl  Cl39  1  0.50758900  0.92794600  0.26864900  1
  Cl  Cl40  1  0.25000000  0.52598100  0.08609500  1
  Cl  Cl41  1  0.75000000  0.47401900  0.91390500  1
  Cl  Cl42  1  0.75000000  0.97401900  0.58609500  1
  Cl  Cl43  1  0.25000000  0.02598100  0.41390500  1
  Cl  Cl44  1  0.25000000  0.87919400  0.12368400  1
  Cl  Cl45  1  0.75000000  0.12080600  0.87631600  1
  Cl  Cl46  1  0.75000000  0.62080600  0.62368400  1
  Cl  Cl47  1  0.25000000  0.37919400  0.37631600  1
  Cl  Cl48  1  0.25000000  0.84010500  0.91982800  1
  Cl  Cl49  1  0.75000000  0.15989500  0.08017200  1
  Cl  Cl50  1  0.75000000  0.65989500  0.41982800  1
  Cl  Cl51  1  0.25000000  0.34010500  0.58017200  1
  Cl  Cl52  1  0.25000000  0.63296500  0.90479200  1
  Cl  Cl53  1  0.75000000  0.36703500  0.09520800  1
  Cl  Cl54  1  0.75000000  0.86703500  0.40479200  1
  Cl  Cl55  1  0.25000000  0.13296500  0.59520800  1
loop_
_geom_bond_atom_site_label_1
_geom_bond_atom_site_label_2
_geom_bond_distance
_geom_bond_site_symmetry_2
Cl0 Pr5 2.849745 1_555
Cl0 Pr14 2.921157 1_555
Cl0 Cs6 3.679189 1_556
Cl0 Cs7 4.055883 1_565
Cl1 Pr3 2.849745 1_555
Cl1 Pr15 2.921157 1_555
Cl1 Cs7 3.679189 1_554
Cl1 Cs6 4.055883 1_545
Cl2 Pr7 2.849745 1_555
Cl2 Pr12 2.921157 1_555
Cl2 Cs4 3.679189 1_555
Cl2 Cs5 4.055883 1_555
Cl3 Pr1 2.849745 1_455
Cl3 Pr15 2.921157 1_555
Cl3 Cs7 3.679189 1_554
Cl3 Cs6 4.055883 1_445
Cl4 Pr6 2.849745 1_555
Cl4 Pr13 2.921157 1_555
Cl4 Cs5 3.679189 1_555
Cl4 Cs4 4.055883 1_555
Cl5 Pr0 2.849745 1_655
Cl5 Pr14 2.921157 1_555
Cl5 Cs6 3.679189 1_556
Cl5 Cs7 4.055883 1_665
Cl6 Pr4 2.849745 1_655
Cl6 Pr13 2.921157 1_555
Cl6 Cs5 3.679189 1_555
Cl6 Cs4 4.055883 1_655
Cl7 Pr2 2.849745 1_455
Cl7 Pr12 2.921157 1_555
Cl7 Cs4 3.679189 1_555
Cl7 Cs5 4.055883 1_455
Cl8 Pr10 2.831883 1_455
Cl8 Pr2 2.863864 1_455
Cl8 Cs0 3.465910 1_555
Cl8 Cs4 4.045768 1_555
Cl9 Pr11 2.831883 1_655
Cl9 Pr4 2.863864 1_655
Cl9 Cs1 3.465910 1_555
Cl9 Cs5 4.045768 1_555
Cl10 Pr8 2.831883 1_655
Cl10 Pr0 2.863864 1_654
Cl10 Cs2 3.465910 1_555
Cl10 Cs6 4.045768 1_555
Cl11 Pr11 2.831883 1_555
Cl11 Pr6 2.863864 1_555
Cl11 Cs1 3.465910 1_555
Cl11 Cs5 4.045768 1_555
Cl12 Pr9 2.831883 1_455
Cl12 Pr1 2.863864 1_456
Cl12 Cs3 3.465910 1_555
Cl12 Cs7 4.045768 1_555
Cl13 Pr10 2.831883 1_555
Cl13 Pr7 2.863864 1_555
Cl13 Cs0 3.465910 1_555
Cl13 Cs4 4.045768 1_555
Cl14 Pr9 2.831883 1_555
Cl14 Pr3 2.863864 1_556
Cl14 Cs3 3.465910 1_555
Cl14 Cs7 4.045768 1_555
Cl15 Pr8 2.831883 1_555
Cl15 Pr5 2.863864 1_554
Cl15 Cs2 3.465910 1_555
Cl15 Cs6 4.045768 1_555
Cl16 Pr7 2.830373 1_555
Cl16 Pr2 2.830373 1_455
Cl17 Pr4 2.830373 1_655
Cl17 Pr6 2.830373 1_555
Cl18 Pr0 2.830373 1_655
Cl18 Pr5 2.830373 1_555
Cl19 Pr3 2.830373 1_555
Cl19 Pr1 2.830373 1_455
Cl20 Pr5 2.860265 1_555
Cl20 Pr0 2.860265 1_555
Cl20 Cs0 3.375082 1_555
Cl20 Cs4 3.908033 1_555
Cl21 Pr1 2.860265 1_555
Cl21 Pr3 2.860265 1_555
Cl21 Cs1 3.375082 1_555
Cl21 Cs5 3.908033 1_555
Cl22 Pr2 2.860265 1_555
Cl22 Pr7 2.860265 1_555
Cl22 Cs2 3.375082 1_555
Cl22 Cs6 3.908033 1_555
Cl23 Pr6 2.860265 1_555
Cl23 Pr4 2.860265 1_555
Cl23 Cs3 3.375082 1_555
Cl23 Cs7 3.908033 1_555
Cl24 Pr5 2.923040 1_555
Cl24 Pr10 2.949535 1_555
Cl24 Pr14 3.094170 1_555
Cl24 Cs0 3.849218 1_555
Cl25 Pr3 2.923040 1_555
Cl25 Pr11 2.949535 1_555
Cl25 Pr15 3.094170 1_555
Cl25 Cs1 3.849218 1_555
Cl26 Pr7 2.923040 1_555
Cl26 Pr8 2.949535 1_555
Cl26 Pr12 3.094170 1_555
Cl26 Cs2 3.849218 1_555
Cl27 Pr1 2.923040 1_455
Cl27 Pr11 2.949535 1_555
Cl27 Pr15 3.094170 1_555
Cl27 Cs1 3.849218 1_455
Cl28 Pr6 2.923040 1_555
Cl28 Pr9 2.949535 1_555
Cl28 Pr13 3.094170 1_555
Cl28 Cs3 3.849218 1_555
Cl29 Pr0 2.923040 1_655
Cl29 Pr10 2.949535 1_555
Cl29 Pr14 3.094170 1_555
Cl29 Cs0 3.849218 1_655
Cl30 Pr4 2.923040 1_655
Cl30 Pr9 2.949535 1_555
Cl30 Pr13 3.094170 1_555
Cl30 Cs3 3.849218 1_655
Cl31 Pr2 2.923040 1_455
Cl31 Pr8 2.949535 1_555
Cl31 Pr12 3.094170 1_555
Cl31 Cs2 3.849218 1_455
Cl32 Pr13 2.876975 1_455
Cl32 Pr0 2.878981 1_555
Cl32 Cs3 4.059954 1_555
Cl32 Cs4 4.145803 1_555
Cl33 Pr12 2.876975 1_655
Cl33 Pr1 2.878981 1_555
Cl33 Cs2 4.059954 1_555
Cl33 Cs5 4.145803 1_555
Cl34 Pr15 2.876975 1_665
Cl34 Pr2 2.878981 1_555
Cl34 Cs1 4.059954 1_565
Cl34 Cs6 4.145803 1_555
Cl35 Pr12 2.876975 1_555
Cl35 Pr3 2.878981 1_555
Cl35 Cs2 4.059954 1_555
Cl35 Cs5 4.145803 1_555
Cl36 Pr14 2.876975 1_445
Cl36 Pr4 2.878981 1_555
Cl36 Cs0 4.059954 1_545
Cl36 Cs7 4.145803 1_555
Cl37 Pr13 2.876975 1_555
Cl37 Pr5 2.878981 1_555
Cl37 Cs3 4.059954 1_555
Cl37 Cs4 4.145803 1_555
Cl38 Pr14 2.876975 1_545
Cl38 Pr6 2.878981 1_555
Cl38 Cs0 4.059954 1_545
Cl38 Cs7 4.145803 1_555
Cl39 Pr15 2.876975 1_565
Cl39 Pr7 2.878981 1_555
Cl39 Cs1 4.059954 1_565
Cl39 Cs6 4.145803 1_555
Cl40 Pr8 2.849616 1_555
Cl40 Pr12 2.893566 1_555
Cl40 Cs3 3.544167 1_554
Cl41 Pr9 2.849616 1_555
Cl41 Pr13 2.893566 1_555
Cl41 Cs2 3.544167 1_556
Cl42 Pr10 2.849616 1_555
Cl42 Pr14 2.893566 1_555
Cl42 Cs1 3.544167 1_565
Cl43 Pr11 2.849616 1_555
Cl43 Pr15 2.893566 1_555
Cl43 Cs0 3.544167 1_545
Cl44 Pr8 2.750162 1_555
Cl44 Pr15 2.879784 1_565
Cl45 Pr9 2.750162 1_555
Cl45 Pr14 2.879784 1_545
Cl46 Pr10 2.750162 1_555
Cl46 Pr13 2.879784 1_555
Cl47 Pr11 2.750162 1_555
Cl47 Pr12 2.879784 1_555
Cl48 Pr5 2.972179 1_555
Cl48 Pr0 2.972179 1_555
Cl48 Pr8 3.088311 1_556
Cl48 Cs7 3.475212 1_565
Cl49 Pr1 2.972179 1_555
Cl49 Pr3 2.972179 1_555
Cl49 Pr9 3.088311 1_554
Cl49 Cs6 3.475212 1_545
Cl50 Pr2 2.972179 1_555
Cl50 Pr7 2.972179 1_555
Cl50 Pr10 3.088311 1_555
Cl50 Cs5 3.475212 1_555
Cl51 Pr6 2.972179 1_555
Cl51 Pr4 2.972179 1_555
Cl51 Pr11 3.088311 1_555
Cl51 Cs4 3.475212 1_555
Cl52 Pr8 2.912422 1_556
Cl52 Pr5 2.989979 1_555
Cl52 Pr0 2.989979 1_555
Cl52 Cs3 3.296022 1_555
Cl53 Pr9 2.912422 1_554
Cl53 Pr1 2.989979 1_555
Cl53 Pr3 2.989979 1_555
Cl53 Cs2 3.296022 1_555
Cl54 Pr10 2.912422 1_555
Cl54 Pr2 2.989979 1_555
Cl54 Pr7 2.989979 1_555
Cl54 Cs1 3.296022 1_565
Cl55 Pr11 2.912422 1_555
Cl55 Pr6 2.989979 1_555
Cl55 Pr4 2.989979 1_555
Cl55 Cs0 3.296022 1_545
