# generated using pymatgen
data_AlV6Sb
_symmetry_space_group_name_H-M   'P 1'
_cell_length_a   4.85682695
_cell_length_b   4.85684464
_cell_length_c   4.85676749
_cell_angle_alpha   90.00000000
_cell_angle_beta   90.00000000
_cell_angle_gamma   90.00000000
_symmetry_Int_Tables_number   1
_chemical_formula_structural   AlV6Sb
_chemical_formula_sum   'Al1 V6 Sb1'
_cell_volume   114.56557894
_cell_formula_units_Z   1
loop_
 _symmetry_equiv_pos_site_id
 _symmetry_equiv_pos_as_xyz
  1  'x, y, z'
loop_
 _atom_site_type_symbol
 _atom_site_label
 _atom_site_symmetry_multiplicity
 _atom_site_fract_x
 _atom_site_fract_y
 _atom_site_fract_z
 _atom_site_occupancy
  Al  Al0  1  0.50000000  0.50000000  0.50000000  1
  V  V0  1  0.00000000  0.50000000  0.73745646  1
  V  V1  1  0.50000000  0.26259893  0.00000000  1
  V  V2  1  0.73743697  0.00000000  0.50000000  1
  V  V3  1  -0.00000000  0.50000000  0.26254354  1
  V  V4  1  0.50000000  0.73740107  0.00000000  1
  V  V5  1  0.26256303  -0.00000000  0.50000000  1
  Sb  Sb0  1  0.00000000  0.00000000  -0.00000000  1
loop_
_geom_bond_atom_site_label_1
_geom_bond_atom_site_label_2
_geom_bond_distance
_geom_bond_site_symmetry_2
Al0 V4 2.688216 1_555
Al0 V1 2.688216 1_556
Al0 V1 2.688216 1_555
Al0 V4 2.688216 1_556
Al0 V2 2.688323 1_555
Al0 V5 2.688323 1_565
Al0 V2 2.688323 1_565
Al0 V5 2.688323 1_555
Al0 V0 2.688350 1_655
Al0 V3 2.688350 1_555
Al0 V0 2.688350 1_555
Al0 V3 2.688350 1_655
V0 V3 2.306542 1_555
V0 V3 2.550226 1_556
V1 V4 2.306040 1_555
V1 V4 2.550804 1_545
V2 V5 2.306381 1_555
V2 V5 2.550446 1_655
Sb0 V3 2.742836 1_545
Sb0 V0 2.742836 1_544
Sb0 V3 2.742836 1_555
Sb0 V0 2.742836 1_554
Sb0 V2 2.742853 1_455
Sb0 V5 2.742853 1_554
Sb0 V2 2.742853 1_454
Sb0 V5 2.742853 1_555
Sb0 V1 2.742962 1_555
Sb0 V1 2.742962 1_455
Sb0 V4 2.742962 1_445
Sb0 V4 2.742962 1_545
