# generated using pymatgen
data_SrCaNbCrO6
_symmetry_space_group_name_H-M   'P 1'
_cell_length_a   5.58035446
_cell_length_b   7.91438621
_cell_length_c   5.62918900
_cell_angle_alpha   89.99996521
_cell_angle_beta   89.99958092
_cell_angle_gamma   90.03628536
_symmetry_Int_Tables_number   1
_chemical_formula_structural   SrCaNbCrO6
_chemical_formula_sum   'Sr2 Ca2 Nb2 Cr2 O12'
_cell_volume   248.61353457
_cell_formula_units_Z   2
loop_
 _symmetry_equiv_pos_site_id
 _symmetry_equiv_pos_as_xyz
  1  'x, y, z'
loop_
 _atom_site_type_symbol
 _atom_site_label
 _atom_site_symmetry_multiplicity
 _atom_site_fract_x
 _atom_site_fract_y
 _atom_site_fract_z
 _atom_site_occupancy
  Sr  Sr0  1  0.50414100  0.24968500  0.97575900  1
  Sr  Sr1  1  0.00413100  0.74969200  0.52427500  1
  Ca  Ca0  1  0.49294600  0.75180100  0.03890700  1
  Ca  Ca1  1  0.99292300  0.25181600  0.46110800  1
  Nb  Nb0  1  0.49996700  0.49975400  0.50104400  1
  Nb  Nb1  1  0.99995100  0.99973100  0.99886700  1
  Cr  Cr0  1  0.99999600  0.50027900  0.99844000  1
  Cr  Cr1  1  0.49998700  0.00023900  0.50149500  1
  O  O0  1  0.79043400  0.46085700  0.70834000  1
  O  O1  1  0.29043400  0.96086200  0.79167600  1
  O  O2  1  0.22045300  0.52985100  0.27952400  1
  O  O3  1  0.72046800  0.02986000  0.22049200  1
  O  O4  1  0.72086200  0.46770300  0.22146000  1
  O  O5  1  0.22085700  0.96770400  0.27855300  1
  O  O6  1  0.29295400  0.54012800  0.78952600  1
  O  O7  1  0.79295400  0.04013400  0.71049300  1
  O  O8  1  0.55680800  0.74949000  0.48046200  1
  O  O9  1  0.05681900  0.24948000  0.01956400  1
  O  O10  1  0.42145500  0.25046500  0.51209900  1
  O  O11  1  0.92145900  0.75047100  0.98791500  1
loop_
_geom_bond_atom_site_label_1
_geom_bond_atom_site_label_2
_geom_bond_distance
_geom_bond_site_symmetry_2
Ca0 O11 2.408449 1_554
Ca0 O1 2.440084 1_554
Ca0 O6 2.453643 1_554
Ca0 O8 2.511085 1_555
Ca0 O5 2.654860 1_555
Ca0 O2 2.688695 1_555
Ca0 O3 2.737933 1_565
Ca0 O4 2.780798 1_555
Ca1 O10 2.408558 1_655
Ca1 O0 2.439913 1_555
Ca1 O7 2.453636 1_555
Ca1 O9 2.511047 1_655
Ca1 O4 2.654705 1_555
Ca1 O3 2.688615 1_555
Ca1 O2 2.737791 1_655
Ca1 O5 2.780932 1_645
Nb0 O8 2.004949 1_555
Nb0 O2 2.011250 1_555
Nb0 O4 2.015227 1_555
Nb0 O6 2.018455 1_555
Nb0 O0 2.021002 1_555
Nb0 O10 2.021717 1_555
Nb1 O9 2.005112 1_666
Nb1 O3 2.011499 1_566
Nb1 O5 2.015703 1_656
Nb1 O7 2.017964 1_565
Nb1 O1 2.020685 1_655
Nb1 O11 2.021451 1_555
Cr0 O9 2.013801 1_656
Cr0 O4 2.017013 1_556
Cr0 O2 2.017795 1_656
Cr0 O11 2.029173 1_555
Cr0 O0 2.032550 1_555
Cr0 O6 2.038234 1_655
Cr1 O8 2.013378 1_545
Cr1 O5 2.016696 1_545
Cr1 O3 2.017550 1_555
Cr1 O10 2.029443 1_555
Cr1 O1 2.032818 1_545
Cr1 O7 2.038618 1_555
O0 Sr0 2.758310 1_555
O0 Sr1 2.778084 1_655
O1 Sr1 2.758292 1_555
O1 Sr0 2.778075 1_565
O2 Sr1 2.526921 1_555
O3 Sr0 2.526800 1_554
O4 Sr0 2.519964 1_554
O5 Sr1 2.519999 1_555
O6 Sr1 2.753444 1_555
O6 Sr0 2.788412 1_555
O7 Sr0 2.753383 1_555
O7 Sr1 2.788345 1_645
O8 Sr1 2.508376 1_655
O9 Sr0 2.508363 1_554
O10 Sr0 2.650513 1_555
O11 Sr1 2.650382 1_655
