# generated using pymatgen
data_Ce(Fe5Re)2
_symmetry_space_group_name_H-M   'P 1'
_cell_length_a   4.68728600
_cell_length_b   6.53113410
_cell_length_c   6.53113410
_cell_angle_alpha   96.30509049
_cell_angle_beta   111.02907540
_cell_angle_gamma   68.97092460
_symmetry_Int_Tables_number   1
_chemical_formula_structural   Ce(Fe5Re)2
_chemical_formula_sum   'Ce1 Fe10 Re2'
_cell_volume   174.15265755
_cell_formula_units_Z   1
loop_
 _symmetry_equiv_pos_site_id
 _symmetry_equiv_pos_as_xyz
  1  'x, y, z'
loop_
 _atom_site_type_symbol
 _atom_site_label
 _atom_site_symmetry_multiplicity
 _atom_site_fract_x
 _atom_site_fract_y
 _atom_site_fract_z
 _atom_site_occupancy
  Ce  Ce0  1  0.00000000  0.00000000  0.00000000  1
  Fe  Fe0  1  0.72036000  0.77964000  0.22036000  1
  Fe  Fe1  1  0.27964000  0.22036000  0.77964000  1
  Fe  Fe2  1  0.50000000  0.76830100  0.76830100  1
  Fe  Fe3  1  0.50000000  0.23169900  0.23169900  1
  Fe  Fe4  1  0.50000000  0.00000000  0.50000000  1
  Fe  Fe5  1  0.00000000  0.00000000  0.50000000  1
  Fe  Fe6  1  0.50000000  0.50000000  0.00000000  1
  Fe  Fe7  1  0.00000000  0.50000000  0.00000000  1
  Fe  Fe8  1  0.64129300  0.35870700  0.64129300  1
  Fe  Fe9  1  0.35870700  0.64129300  0.35870700  1
  Re  Re0  1  0.00000000  0.35809200  0.35809200  1
  Re  Re1  1  0.00000000  0.64190800  0.64190800  1
loop_
_geom_bond_atom_site_label_1
_geom_bond_atom_site_label_2
_geom_bond_distance
_geom_bond_site_symmetry_2
Ce0 Fe1 3.003889 1_554
Ce0 Fe1 3.003889 1_454
Ce0 Fe0 3.003889 1_445
Ce0 Fe0 3.003889 1_545
Ce0 Fe9 3.058698 1_545
Ce0 Fe8 3.058698 1_454
Ce0 Fe2 3.093474 1_444
Ce0 Fe3 3.093474 1_455
Ce0 Fe3 3.093474 1_555
Ce0 Fe2 3.093474 1_544
Ce0 Re1 3.120588 1_544
Ce0 Re0 3.120588 1_555
Ce0 Fe7 3.265567 1_555
Ce0 Fe6 3.265567 1_545
Ce0 Fe5 3.265567 1_554
Ce0 Fe5 3.265567 1_555
Ce0 Fe7 3.265567 1_545
Ce0 Fe4 3.265567 1_555
Ce0 Fe6 3.265567 1_455
Ce0 Fe4 3.265567 1_454
Fe0 Fe6 2.486652 1_555
Fe0 Fe5 2.486652 1_665
Fe0 Fe7 2.486652 1_655
Fe0 Fe4 2.486652 1_565
Fe0 Fe9 2.623799 1_655
Fe0 Fe9 2.623799 1_555
Fe0 Re0 2.686098 1_655
Fe0 Re1 2.686098 1_655
Fe0 Fe3 2.758189 1_565
Fe0 Fe2 2.758189 1_554
Fe1 Fe6 2.486652 1_556
Fe1 Fe7 2.486652 1_556
Fe1 Fe4 2.486652 1_555
Fe1 Fe5 2.486652 1_555
Fe1 Fe8 2.623799 1_555
Fe1 Fe8 2.623799 1_455
Fe1 Re0 2.686098 1_555
Fe1 Re1 2.686098 1_555
Fe1 Fe3 2.758189 1_556
Fe1 Fe2 2.758189 1_545
Fe2 Fe4 2.437821 1_565
Fe2 Fe7 2.437821 1_656
Fe2 Fe5 2.437821 1_565
Fe2 Fe6 2.437821 1_556
Fe2 Re1 2.589567 1_655
Fe2 Re1 2.589567 1_555
Fe2 Fe8 2.630266 1_555
Fe2 Fe9 2.630266 1_555
Fe3 Fe5 2.437821 1_655
Fe3 Fe7 2.437821 1_555
Fe3 Fe6 2.437821 1_555
Fe3 Fe4 2.437821 1_555
Fe3 Re0 2.589567 1_555
Fe3 Re0 2.589567 1_655
Fe3 Fe9 2.630266 1_555
Fe3 Fe8 2.630266 1_555
Fe4 Fe5 2.343643 1_655
Fe4 Fe5 2.343643 1_555
Fe4 Re0 2.608608 1_555
Fe4 Re1 2.608608 1_645
Fe4 Fe9 2.641740 1_545
Fe4 Fe8 2.641740 1_555
Fe5 Re1 2.608608 1_545
Fe5 Re0 2.608608 1_555
Fe5 Fe9 2.641740 1_545
Fe5 Fe8 2.641740 1_455
Fe6 Fe7 2.343643 1_555
Fe6 Fe7 2.343643 1_655
Fe6 Re1 2.608608 1_554
Fe6 Re0 2.608608 1_655
Fe6 Fe8 2.641740 1_554
Fe6 Fe9 2.641740 1_555
Fe7 Re0 2.608608 1_555
Fe7 Re1 2.608608 1_554
Fe7 Fe8 2.641740 1_454
Fe7 Fe9 2.641740 1_555
Fe8 Fe9 2.409614 1_555
Fe8 Re0 2.910934 1_655
Fe8 Re0 2.910934 1_555
Fe8 Re1 2.910934 1_555
Fe8 Re1 2.910934 1_655
Fe9 Re0 2.910934 1_655
Fe9 Re0 2.910934 1_555
Fe9 Re1 2.910934 1_555
Fe9 Re1 2.910934 1_655
Re0 Re1 2.473311 1_555
