# generated using pymatgen
data_YSO4F
_symmetry_space_group_name_H-M   'P 1'
_cell_length_a   6.45182900
_cell_length_b   7.00275600
_cell_length_c   8.41211000
_cell_angle_alpha   90.00000000
_cell_angle_beta   90.00000000
_cell_angle_gamma   90.00000000
_symmetry_Int_Tables_number   1
_chemical_formula_structural   YSO4F
_chemical_formula_sum   'Y4 S4 O16 F4'
_cell_volume   380.06404450
_cell_formula_units_Z   4
loop_
 _symmetry_equiv_pos_site_id
 _symmetry_equiv_pos_as_xyz
  1  'x, y, z'
loop_
 _atom_site_type_symbol
 _atom_site_label
 _atom_site_symmetry_multiplicity
 _atom_site_fract_x
 _atom_site_fract_y
 _atom_site_fract_z
 _atom_site_occupancy
  Y  Y0  1  0.65207900  0.75000000  0.44567600  1
  Y  Y1  1  0.15207900  0.25000000  0.05432400  1
  Y  Y2  1  0.34792100  0.25000000  0.55432400  1
  Y  Y3  1  0.84792100  0.75000000  0.94567600  1
  S  S0  1  0.18584800  0.75000000  0.59268700  1
  S  S1  1  0.68584800  0.25000000  0.90731300  1
  S  S2  1  0.81415200  0.25000000  0.40731300  1
  S  S3  1  0.31415200  0.75000000  0.09268700  1
  O  O0  1  0.01235600  0.75000000  0.48023300  1
  O  O1  1  0.51235600  0.25000000  0.01976700  1
  O  O2  1  0.98764400  0.25000000  0.51976700  1
  O  O3  1  0.48764400  0.75000000  0.98023300  1
  O  O4  1  0.38208400  0.75000000  0.25838400  1
  O  O5  1  0.88208400  0.25000000  0.24161600  1
  O  O6  1  0.61791600  0.25000000  0.74161600  1
  O  O7  1  0.11791600  0.75000000  0.75838400  1
  O  O8  1  0.32631600  0.91806000  0.56126100  1
  O  O9  1  0.82631600  0.08194000  0.93873900  1
  O  O10  1  0.67368400  0.41806000  0.43873900  1
  O  O11  1  0.17368400  0.58194000  0.06126100  1
  O  O12  1  0.82631600  0.41806000  0.93873900  1
  O  O13  1  0.32631600  0.58194000  0.56126100  1
  O  O14  1  0.17368400  0.91806000  0.06126100  1
  O  O15  1  0.67368400  0.08194000  0.43873900  1
  F  F0  1  0.70166500  0.75000000  0.70559400  1
  F  F1  1  0.20166500  0.25000000  0.79440600  1
  F  F2  1  0.29833500  0.25000000  0.29440600  1
  F  F3  1  0.79833500  0.75000000  0.20559400  1
loop_
_geom_bond_atom_site_label_1
_geom_bond_atom_site_label_2
_geom_bond_distance
_geom_bond_site_symmetry_2
O0 S0 1.465535 1_555
O0 Y0 2.342553 1_455
O1 S1 1.465535 1_554
O1 Y1 2.342553 1_555
O2 S2 1.465535 1_555
O2 Y2 2.342553 1_655
O3 S3 1.465535 1_556
O3 Y3 2.342553 1_555
O4 S3 1.461145 1_555
O4 Y0 2.348765 1_555
O5 S2 1.461145 1_555
O5 Y1 2.348765 1_655
O6 S1 1.461145 1_555
O6 Y2 2.348765 1_555
O7 S0 1.461145 1_555
O7 Y3 2.348765 1_455
O8 S0 1.508733 1_555
O8 Y2 2.329402 1_565
O8 Y0 2.597667 1_555
O9 S1 1.508733 1_555
O9 Y3 2.329402 1_545
O9 Y1 2.597667 1_656
O10 S2 1.508733 1_555
O10 Y0 2.329402 1_555
O10 Y2 2.597667 1_555
O11 S3 1.508733 1_555
O11 Y1 2.329402 1_555
O11 Y3 2.597667 1_454
O12 S1 1.508733 1_555
O12 Y3 2.329402 1_555
O12 Y1 2.597667 1_656
O13 S0 1.508733 1_555
O13 Y2 2.329402 1_555
O13 Y0 2.597667 1_555
O14 S3 1.508733 1_555
O14 Y1 2.329402 1_565
O14 Y3 2.597667 1_454
O15 S2 1.508733 1_555
O15 Y0 2.329402 1_545
O15 Y2 2.597667 1_555
F0 Y0 2.209740 1_555
F0 Y3 2.229167 1_555
F1 Y1 2.209740 1_556
F1 Y2 2.229167 1_555
F2 Y2 2.209740 1_555
F2 Y1 2.229167 1_555
F3 Y3 2.209740 1_554
F3 Y0 2.229167 1_555
