# generated using pymatgen
data_NiNF3
_symmetry_space_group_name_H-M   'P 1'
_cell_length_a   5.49734885
_cell_length_b   5.49734885
_cell_length_c   14.22935100
_cell_angle_alpha   90.00000000
_cell_angle_beta   90.00000000
_cell_angle_gamma   120.00001020
_symmetry_Int_Tables_number   1
_chemical_formula_structural   NiNF3
_chemical_formula_sum   'Ni6 N6 F18'
_cell_volume   372.41080548
_cell_formula_units_Z   6
loop_
 _symmetry_equiv_pos_site_id
 _symmetry_equiv_pos_as_xyz
  1  'x, y, z'
loop_
 _atom_site_type_symbol
 _atom_site_label
 _atom_site_symmetry_multiplicity
 _atom_site_fract_x
 _atom_site_fract_y
 _atom_site_fract_z
 _atom_site_occupancy
  Ni  Ni0  1  0.00000000  0.00000000  0.50000000  1
  Ni  Ni1  1  0.00000000  0.00000000  0.00000000  1
  Ni  Ni2  1  0.33333300  0.66666700  0.65548000  1
  Ni  Ni3  1  0.66666700  0.33333300  0.34452000  1
  Ni  Ni4  1  0.66666700  0.33333300  0.15548000  1
  Ni  Ni5  1  0.33333300  0.66666700  0.84452000  1
  N  N0  1  0.00000000  0.00000000  0.25000000  1
  N  N1  1  0.00000000  0.00000000  0.75000000  1
  N  N2  1  0.33333300  0.66666700  0.40247500  1
  N  N3  1  0.66666700  0.33333300  0.59752500  1
  N  N4  1  0.66666700  0.33333300  0.90247500  1
  N  N5  1  0.33333300  0.66666700  0.09752500  1
  F  F0  1  0.51413100  0.48586900  0.25000000  1
  F  F1  1  0.51413100  0.02826100  0.25000000  1
  F  F2  1  0.97173900  0.48586900  0.25000000  1
  F  F3  1  0.48586900  0.51413100  0.75000000  1
  F  F4  1  0.48586900  0.97173900  0.75000000  1
  F  F5  1  0.02826100  0.51413100  0.75000000  1
  F  F6  1  0.83489500  0.16510500  0.42091400  1
  F  F7  1  0.83489500  0.66979100  0.42091400  1
  F  F8  1  0.33020900  0.16510500  0.42091400  1
  F  F9  1  0.16510500  0.83489500  0.57908600  1
  F  F10  1  0.16510500  0.33020900  0.57908600  1
  F  F11  1  0.66979100  0.83489500  0.57908600  1
  F  F12  1  0.16510500  0.83489500  0.92091400  1
  F  F13  1  0.16510500  0.33020900  0.92091400  1
  F  F14  1  0.66979100  0.83489500  0.92091400  1
  F  F15  1  0.83489500  0.16510500  0.07908600  1
  F  F16  1  0.83489500  0.66979100  0.07908600  1
  F  F17  1  0.33020900  0.16510500  0.07908600  1
loop_
_geom_bond_atom_site_label_1
_geom_bond_atom_site_label_2
_geom_bond_distance
_geom_bond_site_symmetry_2
F0 Ni4 1.979490 1_555
F0 Ni3 1.979490 1_555
F1 Ni3 1.979489 1_555
F1 Ni4 1.979489 1_555
F2 Ni3 1.979489 1_555
F2 Ni4 1.979489 1_555
F3 Ni2 1.979490 1_555
F3 Ni5 1.979490 1_555
F4 Ni5 1.979489 1_555
F4 Ni2 1.979489 1_555
F5 Ni5 1.979489 1_555
F5 Ni2 1.979489 1_555
F6 Ni0 1.933346 1_655
F6 Ni3 1.935836 1_555
F7 Ni0 1.933342 1_665
F7 Ni3 1.935843 1_555
F8 Ni0 1.933342 1_555
F8 Ni3 1.935843 1_555
F9 Ni0 1.933346 1_565
F9 Ni2 1.935836 1_555
F10 Ni0 1.933342 1_555
F10 Ni2 1.935843 1_555
F11 Ni0 1.933342 1_665
F11 Ni2 1.935843 1_555
F12 Ni1 1.933346 1_566
F12 Ni5 1.935836 1_555
F13 Ni1 1.933342 1_556
F13 Ni5 1.935843 1_555
F14 Ni1 1.933342 1_666
F14 Ni5 1.935843 1_555
F15 Ni1 1.933346 1_655
F15 Ni4 1.935836 1_555
F16 Ni1 1.933342 1_665
F16 Ni4 1.935843 1_555
F17 Ni1 1.933342 1_555
F17 Ni4 1.935843 1_555
