# generated using pymatgen
data_Tb2Mg5Ag
_symmetry_space_group_name_H-M   'P 1'
_cell_length_a   8.78549921
_cell_length_b   8.78549921
_cell_length_c   8.78549915
_cell_angle_alpha   33.70002609
_cell_angle_beta   33.70002609
_cell_angle_gamma   33.70002417
_symmetry_Int_Tables_number   1
_chemical_formula_structural   Tb2Mg5Ag
_chemical_formula_sum   'Tb2 Mg5 Ag1'
_cell_volume   185.98906896
_cell_formula_units_Z   1
loop_
 _symmetry_equiv_pos_site_id
 _symmetry_equiv_pos_as_xyz
  1  'x, y, z'
loop_
 _atom_site_type_symbol
 _atom_site_label
 _atom_site_symmetry_multiplicity
 _atom_site_fract_x
 _atom_site_fract_y
 _atom_site_fract_z
 _atom_site_occupancy
  Tb  Tb0  1  0.24814300  0.24814300  0.24814300  1
  Tb  Tb1  1  0.75185700  0.75185700  0.75185700  1
  Mg  Mg0  1  0.62746100  0.62746100  0.62746100  1
  Mg  Mg1  1  0.12225900  0.12225900  0.12225900  1
  Mg  Mg2  1  0.87774100  0.87774100  0.87774100  1
  Mg  Mg3  1  0.37253900  0.37253900  0.37253900  1
  Mg  Mg4  1  0.50000000  0.50000000  0.50000000  1
  Ag  Ag0  1  0.00000000  0.00000000  0.00000000  1
loop_
_geom_bond_atom_site_label_1
_geom_bond_atom_site_label_2
_geom_bond_distance
_geom_bond_site_symmetry_2
Mg0 Tb1 3.089535 1_555
Mg0 Tb0 3.154593 1_565
Mg0 Tb0 3.154593 1_655
Mg0 Tb0 3.154593 1_556
Mg0 Mg4 3.165658 1_555
Mg1 Tb1 3.081345 1_454
Mg1 Tb1 3.081345 1_544
Mg1 Tb1 3.081345 1_445
Mg1 Tb0 3.126491 1_555
Mg1 Mg4 3.140625 1_545
Mg1 Mg4 3.140625 1_455
Mg1 Mg4 3.140626 1_554
Mg2 Tb0 3.081345 1_656
Mg2 Tb0 3.081345 1_566
Mg2 Tb0 3.081345 1_665
Mg2 Tb1 3.126491 1_555
Mg2 Mg4 3.140625 1_655
Mg2 Mg4 3.140625 1_565
Mg2 Mg4 3.140626 1_556
Mg3 Tb0 3.089535 1_555
Mg3 Tb1 3.154593 1_455
Mg3 Tb1 3.154593 1_545
Mg3 Tb1 3.154593 1_554
Mg3 Mg4 3.165658 1_555
Mg4 Tb0 3.569584 1_565
Mg4 Tb0 3.569584 1_655
Mg4 Tb1 3.569584 1_545
Mg4 Tb1 3.569584 1_455
Mg4 Tb0 3.569584 1_556
Mg4 Tb1 3.569584 1_554
Ag0 Mg2 3.036460 1_444
Ag0 Mg1 3.036460 1_555
Ag0 Mg0 3.097617 1_454
Ag0 Mg0 3.097617 1_544
Ag0 Mg3 3.097617 1_455
Ag0 Mg3 3.097617 1_545
Ag0 Mg0 3.097617 1_445
Ag0 Mg3 3.097617 1_554
