# generated using pymatgen
data_Ce2Zn3Cu7
_symmetry_space_group_name_H-M   'P 1'
_cell_length_a   4.12124255
_cell_length_b   5.14854547
_cell_length_c   8.95322159
_cell_angle_alpha   89.64941329
_cell_angle_beta   90.00000000
_cell_angle_gamma   90.00000000
_symmetry_Int_Tables_number   1
_chemical_formula_structural   Ce2Zn3Cu7
_chemical_formula_sum   'Ce2 Zn3 Cu7'
_cell_volume   189.96952241
_cell_formula_units_Z   1
loop_
 _symmetry_equiv_pos_site_id
 _symmetry_equiv_pos_as_xyz
  1  'x, y, z'
loop_
 _atom_site_type_symbol
 _atom_site_label
 _atom_site_symmetry_multiplicity
 _atom_site_fract_x
 _atom_site_fract_y
 _atom_site_fract_z
 _atom_site_occupancy
  Ce  Ce0  1  0.00000000  0.25037459  0.74744397  1
  Ce  Ce1  1  0.00000000  0.74962541  0.25255603  1
  Zn  Zn0  1  0.50000000  0.25468670  0.25341291  1
  Zn  Zn1  1  0.50000000  0.74531330  0.74658709  1
  Zn  Zn2  1  0.50000000  -0.00000000  0.00000000  1
  Cu  Cu0  1  0.50000000  0.50000000  0.50000000  1
  Cu  Cu1  1  0.50000000  0.50000000  0.00000000  1
  Cu  Cu2  1  0.50000000  -0.00000000  0.50000000  1
  Cu  Cu3  1  0.00000000  0.25631081  0.08054586  1
  Cu  Cu4  1  0.00000000  0.75204263  0.57964521  1
  Cu  Cu5  1  0.00000000  0.74368919  0.91945414  1
  Cu  Cu6  1  0.00000000  0.24795737  0.42035479  1
loop_
_geom_bond_atom_site_label_1
_geom_bond_atom_site_label_2
_geom_bond_distance
_geom_bond_site_symmetry_2
Ce0 Cu6 2.928605 1_555
Ce0 Cu5 2.978331 1_555
Ce0 Cu4 2.980052 1_555
Ce0 Cu4 2.981096 1_545
Ce0 Cu3 2.982679 1_556
Ce0 Cu5 3.021234 1_545
Ce0 Zn1 3.277099 1_555
Ce0 Zn1 3.277099 1_455
Ce0 Cu0 3.281945 1_455
Ce0 Cu0 3.281945 1_555
Ce0 Cu2 3.294068 1_455
Ce0 Cu2 3.294068 1_555
Ce0 Zn2 3.314387 1_556
Ce0 Zn2 3.314387 1_456
Ce0 Zn1 3.317858 1_545
Ce0 Zn1 3.317858 1_445
Ce0 Cu1 3.323622 1_556
Ce0 Cu1 3.323622 1_456
Ce1 Cu4 2.928605 1_555
Ce1 Cu3 2.978331 1_555
Ce1 Cu6 2.980052 1_555
Ce1 Cu6 2.981096 1_565
Ce1 Cu5 2.982679 1_554
Ce1 Cu3 3.021234 1_565
Ce1 Zn0 3.277099 1_455
Ce1 Zn0 3.277099 1_555
Ce1 Cu0 3.281945 1_555
Ce1 Cu0 3.281945 1_455
Ce1 Cu2 3.294068 1_465
Ce1 Cu2 3.294068 1_565
Ce1 Zn2 3.314387 1_465
Ce1 Zn2 3.314387 1_565
Ce1 Zn0 3.317858 1_565
Ce1 Zn0 3.317858 1_465
Ce1 Cu1 3.323622 1_555
Ce1 Cu1 3.323622 1_455
Zn0 Zn2 2.627463 1_555
Zn1 Zn2 2.627463 1_566
Cu0 Cu6 2.539660 1_555
Cu0 Cu6 2.539660 1_655
Cu0 Cu4 2.539660 1_655
Cu0 Cu4 2.539660 1_555
Cu0 Zn0 2.550189 1_555
Cu0 Zn1 2.550189 1_555
Cu0 Cu2 2.574273 1_555
Cu0 Cu2 2.574273 1_565
Cu1 Cu3 2.515804 1_655
Cu1 Cu5 2.515804 1_654
Cu1 Cu5 2.515804 1_554
Cu1 Cu3 2.515804 1_555
Cu1 Zn2 2.574273 1_555
Cu1 Zn2 2.574273 1_565
Cu1 Zn1 2.589952 1_554
Cu1 Zn0 2.589952 1_555
Cu2 Cu6 2.524532 1_655
Cu2 Cu4 2.524532 1_645
Cu2 Cu4 2.524532 1_545
Cu2 Cu6 2.524532 1_555
Cu2 Zn1 2.560888 1_545
Cu2 Zn0 2.560888 1_555
Cu3 Zn2 2.553287 1_555
Cu3 Zn2 2.553287 1_455
Cu3 Zn0 2.577111 1_455
Cu3 Zn0 2.577111 1_555
Cu4 Zn1 2.545733 1_455
Cu4 Zn1 2.545733 1_555
Cu5 Zn2 2.553287 1_566
Cu5 Zn2 2.553287 1_466
Cu5 Zn1 2.577111 1_455
Cu5 Zn1 2.577111 1_555
Cu6 Zn0 2.545733 1_455
Cu6 Zn0 2.545733 1_555
