# generated using pymatgen
data_ZnAgPO4
_symmetry_space_group_name_H-M   'P 1'
_cell_length_a   8.30905400
_cell_length_b   8.86807674
_cell_length_c   15.71996908
_cell_angle_alpha   89.55385478
_cell_angle_beta   90.00000000
_cell_angle_gamma   90.00000000
_symmetry_Int_Tables_number   1
_chemical_formula_structural   ZnAgPO4
_chemical_formula_sum   'Zn12 Ag12 P12 O48'
_cell_volume   1158.29596997
_cell_formula_units_Z   12
loop_
 _symmetry_equiv_pos_site_id
 _symmetry_equiv_pos_as_xyz
  1  'x, y, z'
loop_
 _atom_site_type_symbol
 _atom_site_label
 _atom_site_symmetry_multiplicity
 _atom_site_fract_x
 _atom_site_fract_y
 _atom_site_fract_z
 _atom_site_occupancy
  Zn  Zn0  1  0.20936100  0.08206800  0.73666500  1
  Zn  Zn1  1  0.79063900  0.91793200  0.26333500  1
  Zn  Zn2  1  0.70936100  0.41793200  0.76333500  1
  Zn  Zn3  1  0.29063900  0.58206800  0.23666500  1
  Zn  Zn4  1  0.71212800  0.93326800  0.90905500  1
  Zn  Zn5  1  0.28787200  0.06673200  0.09094500  1
  Zn  Zn6  1  0.21212800  0.56673200  0.59094500  1
  Zn  Zn7  1  0.78787200  0.43326800  0.40905500  1
  Zn  Zn8  1  0.70650800  0.89374600  0.58098600  1
  Zn  Zn9  1  0.29349200  0.10625400  0.41901400  1
  Zn  Zn10  1  0.20650800  0.60625400  0.91901400  1
  Zn  Zn11  1  0.79349200  0.39374600  0.08098600  1
  Ag  Ag0  1  0.52166700  0.26946800  0.58976100  1
  Ag  Ag1  1  0.47833300  0.73053200  0.41023900  1
  Ag  Ag2  1  0.02166700  0.23053200  0.91023900  1
  Ag  Ag3  1  0.97833300  0.76946800  0.08976100  1
  Ag  Ag4  1  0.99030200  0.21608900  0.56427200  1
  Ag  Ag5  1  0.00969800  0.78391100  0.43572800  1
  Ag  Ag6  1  0.49030200  0.28391100  0.93572800  1
  Ag  Ag7  1  0.50969800  0.71608900  0.06427200  1
  Ag  Ag8  1  0.50000500  0.79058300  0.75413900  1
  Ag  Ag9  1  0.49999500  0.20941700  0.24586100  1
  Ag  Ag10  1  0.00000500  0.70941700  0.74586100  1
  Ag  Ag11  1  0.99999500  0.29058300  0.25413900  1
  P  P0  1  0.81857900  0.07646400  0.73554000  1
  P  P1  1  0.18142100  0.92353600  0.26446000  1
  P  P2  1  0.31857900  0.42353600  0.76446000  1
  P  P3  1  0.68142100  0.57646400  0.23554000  1
  P  P4  1  0.81803200  0.59932400  0.92088400  1
  P  P5  1  0.18196800  0.40067600  0.07911600  1
  P  P6  1  0.31803200  0.90067600  0.57911600  1
  P  P7  1  0.68196800  0.09932400  0.42088400  1
  P  P8  1  0.32066600  0.94009500  0.90980900  1
  P  P9  1  0.67933400  0.05990500  0.09019100  1
  P  P10  1  0.82066600  0.55990500  0.59019100  1
  P  P11  1  0.17933400  0.44009500  0.40980900  1
  O  O0  1  0.34069100  0.78035400  0.95053800  1
  O  O1  1  0.65930900  0.21964600  0.04946200  1
  O  O2  1  0.84069100  0.71964600  0.54946200  1
  O  O3  1  0.15930900  0.28035400  0.45053800  1
  O  O4  1  0.22797000  0.92236000  0.82474000  1
  O  O5  1  0.77203000  0.07764000  0.17526000  1
  O  O6  1  0.72797000  0.57764000  0.67526000  1
  O  O7  1  0.27203000  0.42236000  0.32474000  1
  O  O8  1  0.72635200  0.45451100  0.52909000  1
  O  O9  1  0.27364800  0.54548900  0.47091000  1
  O  O10  1  0.22635200  0.04548900  0.97091000  1
  O  O11  1  0.77364800  0.95451100  0.02909000  1
  O  O12  1  0.72990700  0.22245400  0.70771700  1
  O  O13  1  0.27009300  0.77754600  0.29228300  1
  O  O14  1  0.22990700  0.27754600  0.79228300  1
  O  O15  1  0.77009300  0.72245400  0.20771700  1
  O  O16  1  0.98632700  0.06992700  0.69189600  1
  O  O17  1  0.01367300  0.93007300  0.30810400  1
  O  O18  1  0.48632700  0.43007300  0.80810400  1
  O  O19  1  0.51367300  0.56992700  0.19189600  1
  O  O20  1  0.77676300  0.05676900  0.50349900  1
  O  O21  1  0.22323700  0.94323100  0.49650100  1
  O  O22  1  0.27676300  0.44323100  0.99650100  1
  O  O23  1  0.72323700  0.55676900  0.00349900  1
  O  O24  1  0.48962900  0.00931600  0.89150600  1
  O  O25  1  0.51037100  0.99068400  0.10849400  1
  O  O26  1  0.98962900  0.49068400  0.60849400  1
  O  O27  1  0.01037100  0.50931600  0.39150600  1
  O  O28  1  0.84262200  0.45835500  0.86416500  1
  O  O29  1  0.15737800  0.54164500  0.13583500  1
  O  O30  1  0.34262200  0.04164500  0.63583500  1
  O  O31  1  0.65737800  0.95835500  0.36416500  1
  O  O32  1  0.72435300  0.72251900  0.86996500  1
  O  O33  1  0.27564700  0.27748100  0.13003500  1
  O  O34  1  0.22435300  0.77748100  0.63003500  1
  O  O35  1  0.77564700  0.22251900  0.36996500  1
  O  O36  1  0.98477200  0.66514700  0.94702700  1
  O  O37  1  0.01522800  0.33485300  0.05297300  1
  O  O38  1  0.48477200  0.83485300  0.55297300  1
  O  O39  1  0.51522800  0.16514700  0.44702700  1
  O  O40  1  0.72133700  0.93634100  0.70398000  1
  O  O41  1  0.27866300  0.06365900  0.29602000  1
  O  O42  1  0.22133700  0.56365900  0.79602000  1
  O  O43  1  0.77866300  0.43634100  0.20398000  1
  O  O44  1  0.83782700  0.06797200  0.83379100  1
  O  O45  1  0.16217300  0.93202800  0.16620900  1
  O  O46  1  0.33782700  0.43202800  0.66620900  1
  O  O47  1  0.66217300  0.56797200  0.33379100  1
loop_
_geom_bond_atom_site_label_1
_geom_bond_atom_site_label_2
_geom_bond_distance
_geom_bond_site_symmetry_2
Ag0 O46 2.425442 1_555
Ag0 O39 2.434249 1_555
Ag0 O8 2.543732 1_555
Ag0 O12 2.567867 1_555
Ag0 O30 2.607077 1_555
Ag1 O47 2.425442 1_555
Ag1 O38 2.434249 1_555
Ag1 O9 2.543732 1_555
Ag1 O13 2.567867 1_555
Ag1 O31 2.607077 1_555
Ag2 O44 2.425442 1_455
Ag2 O37 2.434249 1_556
Ag2 O10 2.543732 1_555
Ag2 O14 2.567867 1_555
Ag2 O28 2.607077 1_455
Ag3 O45 2.425442 1_655
Ag3 O36 2.434249 1_554
Ag3 O11 2.543732 1_555
Ag3 O15 2.567867 1_555
Ag3 O29 2.607077 1_655
Ag4 O3 2.340410 1_655
Ag4 O16 2.380270 1_555
Ag4 O20 2.465372 1_555
Ag4 O26 2.537619 1_555
Ag5 O2 2.340410 1_455
Ag5 O17 2.380270 1_555
Ag5 O21 2.465372 1_555
Ag5 O27 2.537619 1_555
Ag6 O1 2.340410 1_556
Ag6 O18 2.380270 1_555
Ag6 O22 2.465372 1_555
Ag6 O24 2.537619 1_555
Ag7 O0 2.340410 1_554
Ag7 O19 2.380270 1_555
Ag7 O23 2.465372 1_555
Ag7 O25 2.537619 1_555
Ag8 O40 2.378822 1_555
Ag8 O32 2.671591 1_555
Ag8 O4 2.779712 1_555
Ag9 O41 2.378822 1_555
Ag9 O33 2.671591 1_555
Ag9 O5 2.779712 1_555
Ag10 O42 2.378822 1_555
Ag10 O34 2.671591 1_555
Ag10 O6 2.779712 1_455
Ag11 O43 2.378822 1_555
Ag11 O35 2.671591 1_555
Ag11 O7 2.779712 1_655
O0 P8 1.558921 1_555
O0 Zn10 1.970862 1_555
O1 P9 1.558921 1_555
O1 Zn11 1.970862 1_555
O2 P10 1.558921 1_555
O2 Zn8 1.970862 1_555
O3 P11 1.558921 1_555
O3 Zn9 1.970862 1_555
O4 P8 1.552278 1_555
O4 Zn0 1.978945 1_565
O5 P9 1.552278 1_555
O5 Zn1 1.978945 1_545
O6 P10 1.552278 1_555
O6 Zn2 1.978945 1_555
O7 P11 1.552278 1_555
O7 Zn3 1.978945 1_555
O8 P10 1.556994 1_555
O8 Zn7 1.965423 1_555
O9 P11 1.556994 1_555
O9 Zn6 1.965423 1_555
O10 P8 1.556994 1_545
O10 Zn5 1.965423 1_556
O11 P9 1.556994 1_565
O11 Zn4 1.965423 1_554
O12 P0 1.549660 1_555
O12 Zn2 1.955056 1_555
O13 P1 1.549660 1_555
O13 Zn3 1.955056 1_555
O14 P2 1.549660 1_555
O14 Zn0 1.955056 1_555
O15 P3 1.549660 1_555
O15 Zn1 1.955056 1_555
O16 P0 1.554813 1_555
O16 Zn0 1.985552 1_655
O17 P1 1.554813 1_555
O17 Zn1 1.985552 1_455
O18 P2 1.554813 1_555
O18 Zn2 1.985552 1_555
O19 P3 1.554813 1_555
O19 Zn3 1.985552 1_555
O20 P7 1.562633 1_555
O20 Zn8 1.971584 1_545
O21 P6 1.562633 1_555
O21 Zn9 1.971584 1_565
O22 P5 1.562633 1_556
O22 Zn10 1.971584 1_555
O23 P4 1.562633 1_554
O23 Zn11 1.971584 1_555
O24 P8 1.558157 1_545
O24 Zn4 1.986434 1_545
O25 P9 1.558157 1_565
O25 Zn5 1.986434 1_565
O26 P10 1.558157 1_555
O26 Zn6 1.986434 1_655
O27 P11 1.558157 1_555
O27 Zn7 1.986434 1_455
O28 P4 1.554639 1_555
O28 Zn2 1.968698 1_555
O29 P5 1.554639 1_555
O29 Zn3 1.968698 1_555
O30 P6 1.554639 1_545
O30 Zn0 1.968698 1_555
O31 P7 1.554639 1_565
O31 Zn1 1.968698 1_555
O32 P4 1.557735 1_555
O32 Zn4 1.974522 1_555
O33 P5 1.557735 1_555
O33 Zn5 1.974522 1_555
O34 P6 1.557735 1_555
O34 Zn6 1.974522 1_555
O35 P7 1.557735 1_555
O35 Zn7 1.974522 1_555
O36 P4 1.559756 1_555
O36 Zn10 1.965900 1_655
O37 P5 1.559756 1_555
O37 Zn11 1.965900 1_455
O38 P6 1.559756 1_555
O38 Zn8 1.965900 1_555
O39 P7 1.559756 1_555
O39 Zn9 1.965900 1_555
O40 P0 1.566107 1_565
O40 Zn8 1.976743 1_555
O41 P1 1.566107 1_545
O41 Zn9 1.976743 1_555
O42 P2 1.566107 1_555
O42 Zn10 1.976743 1_555
O43 P3 1.566107 1_555
O43 Zn11 1.976743 1_555
O44 P0 1.554003 1_555
O44 Zn4 1.973745 1_545
O45 P1 1.554003 1_555
O45 Zn5 1.973745 1_565
O46 P2 1.554003 1_555
O46 Zn6 1.973745 1_555
O47 P3 1.554003 1_555
O47 Zn7 1.973745 1_555
