# generated using pymatgen
data_BaTeMo2O9
_symmetry_space_group_name_H-M   'P 1'
_cell_length_a   5.79168500
_cell_length_b   15.10439000
_cell_length_c   18.04993300
_cell_angle_alpha   90.00000000
_cell_angle_beta   90.00000000
_cell_angle_gamma   90.00000000
_symmetry_Int_Tables_number   1
_chemical_formula_structural   BaTeMo2O9
_chemical_formula_sum   'Ba8 Te8 Mo16 O72'
_cell_volume   1579.00577425
_cell_formula_units_Z   8
loop_
 _symmetry_equiv_pos_site_id
 _symmetry_equiv_pos_as_xyz
  1  'x, y, z'
loop_
 _atom_site_type_symbol
 _atom_site_label
 _atom_site_symmetry_multiplicity
 _atom_site_fract_x
 _atom_site_fract_y
 _atom_site_fract_z
 _atom_site_occupancy
  Ba  Ba0  1  0.97357400  0.33805600  0.20131000  1
  Ba  Ba1  1  0.02642600  0.66194400  0.70131000  1
  Ba  Ba2  1  0.97357400  0.16194400  0.70131000  1
  Ba  Ba3  1  0.02642600  0.83805600  0.20131000  1
  Ba  Ba4  1  0.48997000  0.09130700  0.26238800  1
  Ba  Ba5  1  0.51003000  0.90869300  0.76238800  1
  Ba  Ba6  1  0.48997000  0.40869300  0.76238800  1
  Ba  Ba7  1  0.51003000  0.59130700  0.26238800  1
  Te  Te0  1  0.84963900  0.28829600  0.92613000  1
  Te  Te1  1  0.15036100  0.71170400  0.42613000  1
  Te  Te2  1  0.84963900  0.21170400  0.42613000  1
  Te  Te3  1  0.15036100  0.78829600  0.92613000  1
  Te  Te4  1  0.35511000  0.96664700  0.03855900  1
  Te  Te5  1  0.64489000  0.03335300  0.53855900  1
  Te  Te6  1  0.35511000  0.53335300  0.53855900  1
  Te  Te7  1  0.64489000  0.46664700  0.03855900  1
  Mo  Mo0  1  0.48400500  0.24233300  0.07224600  1
  Mo  Mo1  1  0.51599500  0.75766700  0.57224600  1
  Mo  Mo2  1  0.48400500  0.25766700  0.57224600  1
  Mo  Mo3  1  0.51599500  0.74233300  0.07224600  1
  Mo  Mo4  1  0.48041800  0.16248900  0.85078200  1
  Mo  Mo5  1  0.51958200  0.83751100  0.35078200  1
  Mo  Mo6  1  0.48041800  0.33751100  0.35078200  1
  Mo  Mo7  1  0.51958200  0.66248900  0.85078200  1
  Mo  Mo8  1  0.98914100  0.01002000  0.89114700  1
  Mo  Mo9  1  0.01085900  0.98998000  0.39114700  1
  Mo  Mo10  1  0.98914100  0.48998000  0.39114700  1
  Mo  Mo11  1  0.01085900  0.51002000  0.89114700  1
  Mo  Mo12  1  0.97832800  0.08835900  0.11266000  1
  Mo  Mo13  1  0.02167200  0.91164100  0.61266000  1
  Mo  Mo14  1  0.97832800  0.41164100  0.61266000  1
  Mo  Mo15  1  0.02167200  0.58835900  0.11266000  1
  O  O0  1  0.82640900  0.16963000  0.05752000  1
  O  O1  1  0.17359100  0.83037000  0.55752000  1
  O  O2  1  0.82640900  0.33037000  0.55752000  1
  O  O3  1  0.17359100  0.66963000  0.05752000  1
  O  O4  1  0.74273000  0.34432100  0.05304200  1
  O  O5  1  0.25727000  0.65567900  0.55304200  1
  O  O6  1  0.74273000  0.15567900  0.55304200  1
  O  O7  1  0.25727000  0.84432100  0.05304200  1
  O  O8  1  0.55999400  0.23855700  0.16816300  1
  O  O9  1  0.44000600  0.76144300  0.66816300  1
  O  O10  1  0.55999400  0.26144300  0.66816300  1
  O  O11  1  0.44000600  0.73855700  0.16816300  1
  O  O12  1  0.26535700  0.32347700  0.07234200  1
  O  O13  1  0.73464300  0.67652300  0.57234200  1
  O  O14  1  0.26535700  0.17652300  0.57234200  1
  O  O15  1  0.73464300  0.82347700  0.07234200  1
  O  O16  1  0.04842400  0.14887900  0.19422500  1
  O  O17  1  0.95157600  0.85112100  0.69422500  1
  O  O18  1  0.04842400  0.35112100  0.69422500  1
  O  O19  1  0.95157600  0.64887900  0.19422500  1
  O  O20  1  0.75139000  0.01837500  0.14244300  1
  O  O21  1  0.24861000  0.98162500  0.64244300  1
  O  O22  1  0.75139000  0.48162500  0.64244300  1
  O  O23  1  0.24861000  0.51837500  0.14244300  1
  O  O24  1  0.24317100  0.99453300  0.13715000  1
  O  O25  1  0.75682900  0.00546700  0.63715000  1
  O  O26  1  0.24317100  0.50546700  0.63715000  1
  O  O27  1  0.75682900  0.49453300  0.13715000  1
  O  O28  1  0.31936400  0.14133200  0.06190800  1
  O  O29  1  0.68063600  0.85866800  0.56190800  1
  O  O30  1  0.31936400  0.35866800  0.56190800  1
  O  O31  1  0.68063600  0.64133200  0.06190800  1
  O  O32  1  0.54796500  0.24289600  0.95320100  1
  O  O33  1  0.45203500  0.75710400  0.45320100  1
  O  O34  1  0.54796500  0.25710400  0.45320100  1
  O  O35  1  0.45203500  0.74289600  0.95320100  1
  O  O36  1  0.74608500  0.40916700  0.91042600  1
  O  O37  1  0.25391500  0.59083300  0.41042600  1
  O  O38  1  0.74608500  0.09083300  0.41042600  1
  O  O39  1  0.25391500  0.90916700  0.91042600  1
  O  O40  1  0.74264400  0.25763700  0.82737300  1
  O  O41  1  0.25735600  0.74236300  0.32737300  1
  O  O42  1  0.74264400  0.24236300  0.32737300  1
  O  O43  1  0.25735600  0.75763700  0.82737300  1
  O  O44  1  0.55155900  0.09852500  0.77141100  1
  O  O45  1  0.44844100  0.90147500  0.27141100  1
  O  O46  1  0.55155900  0.40147500  0.27141100  1
  O  O47  1  0.44844100  0.59852500  0.77141100  1
  O  O48  1  0.32012100  0.08444000  0.90686700  1
  O  O49  1  0.67987900  0.91556000  0.40686700  1
  O  O50  1  0.32012100  0.41556000  0.40686700  1
  O  O51  1  0.67987900  0.58444000  0.90686700  1
  O  O52  1  0.25937000  0.23295800  0.81721400  1
  O  O53  1  0.74063000  0.76704200  0.31721400  1
  O  O54  1  0.25937000  0.26704200  0.31721400  1
  O  O55  1  0.74063000  0.73295800  0.81721400  1
  O  O56  1  0.05741900  0.01380000  0.79503400  1
  O  O57  1  0.94258100  0.98620000  0.29503400  1
  O  O58  1  0.05741900  0.48620000  0.29503400  1
  O  O59  1  0.94258100  0.51380000  0.79503400  1
  O  O60  1  0.77865000  0.92511700  0.89282800  1
  O  O61  1  0.22135000  0.07488300  0.39282800  1
  O  O62  1  0.77865000  0.57488300  0.39282800  1
  O  O63  1  0.22135000  0.42511700  0.89282800  1
  O  O64  1  0.81508700  0.10863000  0.90203900  1
  O  O65  1  0.18491300  0.89137000  0.40203900  1
  O  O66  1  0.81508700  0.39137000  0.40203900  1
  O  O67  1  0.18491300  0.60863000  0.90203900  1
  O  O68  1  0.05118700  0.00871100  0.01098300  1
  O  O69  1  0.94881300  0.99128900  0.51098300  1
  O  O70  1  0.05118700  0.49128900  0.51098300  1
  O  O71  1  0.94881300  0.50871100  0.01098300  1
loop_
_geom_bond_atom_site_label_1
_geom_bond_atom_site_label_2
_geom_bond_distance
_geom_bond_site_symmetry_2
Ba0 O58 2.846869 1_655
Ba0 O54 2.875248 1_655
Ba0 O12 2.885005 1_655
Ba0 O8 2.890358 1_555
Ba0 O16 2.892929 1_655
Ba0 O46 2.914210 1_555
Ba0 O27 2.916002 1_555
Ba0 O4 2.993101 1_555
Ba0 O42 3.009244 1_555
Ba0 O23 3.329331 1_655
Ba1 O59 2.846869 1_455
Ba1 O55 2.875248 1_455
Ba1 O13 2.885005 1_455
Ba1 O9 2.890358 1_555
Ba1 O17 2.892929 1_455
Ba1 O47 2.914210 1_555
Ba1 O26 2.916002 1_555
Ba1 O5 2.993101 1_555
Ba1 O43 3.009244 1_555
Ba1 O22 3.329331 1_455
Ba2 O56 2.846869 1_655
Ba2 O52 2.875248 1_655
Ba2 O14 2.885005 1_655
Ba2 O10 2.890358 1_555
Ba2 O18 2.892929 1_655
Ba2 O44 2.914210 1_555
Ba2 O25 2.916002 1_555
Ba2 O6 2.993101 1_555
Ba2 O40 3.009244 1_555
Ba2 O21 3.329331 1_645
Ba3 O57 2.846869 1_455
Ba3 O53 2.875248 1_455
Ba3 O15 2.885005 1_455
Ba3 O11 2.890358 1_555
Ba3 O19 2.892929 1_455
Ba3 O45 2.914210 1_555
Ba3 O24 2.916002 1_555
Ba3 O7 2.993101 1_555
Ba3 O41 3.009244 1_555
Ba3 O20 3.329331 1_465
Ba4 O8 2.829092 1_555
Ba4 O61 2.832895 1_555
Ba4 O20 2.862362 1_555
Ba4 O45 2.881973 1_545
Ba4 O42 2.953502 1_555
Ba4 O16 2.968110 1_555
Ba4 O24 3.047912 1_545
Ba4 O38 3.056196 1_555
Ba4 O57 3.120779 1_545
Ba4 O54 3.131889 1_555
Ba5 O9 2.829092 1_555
Ba5 O60 2.832895 1_555
Ba5 O21 2.862362 1_555
Ba5 O44 2.881973 1_565
Ba5 O43 2.953502 1_555
Ba5 O17 2.968110 1_555
Ba5 O25 3.047912 1_565
Ba5 O39 3.056196 1_555
Ba5 O56 3.120779 1_565
Ba5 O55 3.131889 1_555
Ba6 O10 2.829092 1_555
Ba6 O63 2.832895 1_555
Ba6 O22 2.862362 1_555
Ba6 O47 2.881973 1_555
Ba6 O40 2.953502 1_555
Ba6 O18 2.968110 1_555
Ba6 O26 3.047912 1_555
Ba6 O36 3.056196 1_555
Ba6 O59 3.120779 1_555
Ba6 O52 3.131889 1_555
Ba7 O11 2.829092 1_555
Ba7 O62 2.832895 1_555
Ba7 O23 2.862362 1_555
Ba7 O46 2.881973 1_555
Ba7 O41 2.953502 1_555
Ba7 O19 2.968110 1_555
Ba7 O27 3.047912 1_555
Ba7 O37 3.056196 1_555
Ba7 O58 3.120779 1_555
Ba7 O53 3.131889 1_555
Mo0 O12 1.762326 1_555
Mo0 O8 1.787268 1_555
Mo0 O28 1.808702 1_555
Mo0 O4 2.176822 1_555
Mo0 O32 2.180468 1_554
Mo0 O0 2.282372 1_555
Mo1 O13 1.762326 1_555
Mo1 O9 1.787268 1_555
Mo1 O29 1.808702 1_555
Mo1 O5 2.176822 1_555
Mo1 O33 2.180468 1_555
Mo1 O1 2.282372 1_555
Mo2 O14 1.762326 1_555
Mo2 O10 1.787268 1_555
Mo2 O30 1.808702 1_555
Mo2 O6 2.176822 1_555
Mo2 O34 2.180468 1_555
Mo2 O2 2.282372 1_555
Mo3 O15 1.762326 1_555
Mo3 O11 1.787268 1_555
Mo3 O31 1.808702 1_555
Mo3 O7 2.176822 1_555
Mo3 O35 2.180468 1_554
Mo3 O3 2.282372 1_555
Mo4 O52 1.771739 1_555
Mo4 O44 1.776414 1_555
Mo4 O48 1.810106 1_555
Mo4 O40 2.133186 1_555
Mo4 O32 2.246237 1_555
Mo4 O64 2.296684 1_555
Mo5 O53 1.771739 1_555
Mo5 O45 1.776414 1_555
Mo5 O49 1.810106 1_555
Mo5 O41 2.133186 1_555
Mo5 O33 2.246237 1_555
Mo5 O65 2.296684 1_555
Mo6 O54 1.771739 1_555
Mo6 O46 1.776414 1_555
Mo6 O50 1.810106 1_555
Mo6 O42 2.133186 1_555
Mo6 O34 2.246237 1_555
Mo6 O66 2.296684 1_555
Mo7 O55 1.771739 1_555
Mo7 O47 1.776414 1_555
Mo7 O51 1.810106 1_555
Mo7 O43 2.133186 1_555
Mo7 O35 2.246237 1_555
Mo7 O67 2.296684 1_555
Mo8 O60 1.769658 1_545
Mo8 O56 1.780248 1_655
Mo8 O64 1.809224 1_555
Mo8 O39 2.189336 1_645
Mo8 O68 2.192768 1_656
Mo8 O48 2.240239 1_655
Mo9 O61 1.769658 1_565
Mo9 O57 1.780248 1_455
Mo9 O65 1.809224 1_555
Mo9 O38 2.189336 1_465
Mo9 O69 2.192768 1_455
Mo9 O49 2.240239 1_455
Mo10 O62 1.769658 1_555
Mo10 O58 1.780248 1_655
Mo10 O66 1.809224 1_555
Mo10 O37 2.189336 1_655
Mo10 O70 2.192768 1_655
Mo10 O50 2.240239 1_655
Mo11 O63 1.769658 1_555
Mo11 O59 1.780248 1_455
Mo11 O67 1.809224 1_555
Mo11 O36 2.189336 1_455
Mo11 O71 2.192768 1_456
Mo11 O51 2.240239 1_455
Mo12 O20 1.770284 1_555
Mo12 O16 1.779867 1_655
Mo12 O0 1.808760 1_555
Mo12 O24 2.134625 1_645
Mo12 O68 2.234624 1_655
Mo12 O28 2.319632 1_655
Mo13 O21 1.770284 1_555
Mo13 O17 1.779867 1_455
Mo13 O1 1.808760 1_555
Mo13 O25 2.134625 1_465
Mo13 O69 2.234624 1_455
Mo13 O29 2.319632 1_455
Mo14 O22 1.770284 1_555
Mo14 O18 1.779867 1_655
Mo14 O2 1.808760 1_555
Mo14 O26 2.134625 1_655
Mo14 O70 2.234624 1_655
Mo14 O30 2.319632 1_655
Mo15 O23 1.770284 1_555
Mo15 O19 1.779867 1_455
Mo15 O3 1.808760 1_555
Mo15 O27 2.134625 1_455
Mo15 O71 2.234624 1_455
Mo15 O31 2.319632 1_455
O4 Te7 1.950202 1_555
O4 Te0 2.519332 1_554
O5 Te6 1.950202 1_555
O5 Te1 2.519332 1_555
O6 Te5 1.950202 1_555
O6 Te2 2.519332 1_555
O7 Te4 1.950202 1_555
O7 Te3 2.519332 1_554
O24 Te4 1.940247 1_555
O25 Te5 1.940247 1_555
O26 Te6 1.940247 1_555
O27 Te7 1.940247 1_555
O32 Te0 1.939512 1_555
O33 Te1 1.939512 1_555
O34 Te2 1.939512 1_555
O35 Te3 1.939512 1_555
O36 Te0 1.942464 1_555
O36 Te7 2.538953 1_556
O37 Te1 1.942464 1_555
O37 Te6 2.538953 1_555
O38 Te2 1.942464 1_555
O38 Te5 2.538953 1_555
O39 Te3 1.942464 1_555
O39 Te4 2.538953 1_556
O40 Te0 1.943184 1_555
O41 Te1 1.943184 1_555
O42 Te2 1.943184 1_555
O43 Te3 1.943184 1_555
O68 Te4 1.936445 1_545
O69 Te5 1.936445 1_565
O70 Te6 1.936445 1_555
O71 Te7 1.936445 1_555
