# generated using pymatgen
data_Y2Co3Si5
_symmetry_space_group_name_H-M   'P 1'
_cell_length_a   7.80489727
_cell_length_b   7.80489727
_cell_length_c   5.48549915
_cell_angle_alpha   70.76018168
_cell_angle_beta   70.76018168
_cell_angle_gamma   93.39579640
_symmetry_Int_Tables_number   1
_chemical_formula_structural   Y2Co3Si5
_chemical_formula_sum   'Y4 Co6 Si10'
_cell_volume   292.54619793
_cell_formula_units_Z   2
loop_
 _symmetry_equiv_pos_site_id
 _symmetry_equiv_pos_as_xyz
  1  'x, y, z'
loop_
 _atom_site_type_symbol
 _atom_site_label
 _atom_site_symmetry_multiplicity
 _atom_site_fract_x
 _atom_site_fract_y
 _atom_site_fract_z
 _atom_site_occupancy
  Y  Y0  1  0.86916484  0.59893516  0.76382594  1
  Y  Y1  1  0.40106484  0.13083516  0.73617406  1
  Y  Y2  1  0.13083516  0.40106484  0.23617406  1
  Y  Y3  1  0.59893516  0.86916484  0.26382594  1
  Co  Co0  1  0.26275042  0.53817308  0.62641820  1
  Co  Co1  1  0.46182692  0.73724958  0.87358180  1
  Co  Co2  1  0.73724958  0.46182692  0.37358180  1
  Co  Co3  1  0.53817308  0.26275042  0.12641820  1
  Co  Co4  1  0.00384842  0.99615158  0.75000000  1
  Co  Co5  1  0.99615158  0.00384842  0.25000000  1
  Si  Si0  1  0.06139400  0.26089483  0.83676337  1
  Si  Si1  1  0.73910517  0.93860600  0.66323663  1
  Si  Si2  1  0.93860600  0.73910517  0.16323663  1
  Si  Si3  1  0.26089483  0.06139400  0.33676337  1
  Si  Si4  1  0.21590102  0.78409898  0.75000000  1
  Si  Si5  1  0.78409898  0.21590102  0.25000000  1
  Si  Si6  1  0.51126157  0.48873843  0.75000000  1
  Si  Si7  1  0.48873843  0.51126157  0.25000000  1
  Si  Si8  1  0.76926194  0.23073806  0.75000000  1
  Si  Si9  1  0.23073806  0.76926194  0.25000000  1
loop_
_geom_bond_atom_site_label_1
_geom_bond_atom_site_label_2
_geom_bond_distance
_geom_bond_site_symmetry_2
Co0 Si4 2.248285 1_555
Co0 Si6 2.270094 1_555
Co0 Si0 2.289314 1_555
Co0 Si7 2.312618 1_555
Co0 Si9 2.349050 1_555
Co0 Y2 2.938351 1_556
Co0 Y0 3.018571 1_455
Co0 Y2 3.101528 1_555
Co0 Y3 3.144161 1_555
Co0 Y1 3.347958 1_555
Co1 Si4 2.248285 1_555
Co1 Si6 2.270094 1_555
Co1 Si1 2.289314 1_555
Co1 Si7 2.312618 1_556
Co1 Si9 2.349050 1_556
Co1 Y3 2.938351 1_555
Co1 Y1 3.018571 1_565
Co1 Y3 3.101528 1_556
Co1 Y2 3.144161 1_556
Co1 Y0 3.347958 1_555
Co2 Si5 2.248285 1_555
Co2 Si7 2.270094 1_555
Co2 Si2 2.289314 1_555
Co2 Si6 2.312618 1_555
Co2 Si8 2.349050 1_555
Co2 Y0 2.938351 1_554
Co2 Y2 3.018571 1_655
Co2 Y0 3.101528 1_555
Co2 Y1 3.144161 1_555
Co2 Y3 3.347958 1_555
Co3 Si5 2.248285 1_555
Co3 Si7 2.270094 1_555
Co3 Si3 2.289314 1_555
Co3 Si6 2.312618 1_554
Co3 Si8 2.349050 1_554
Co3 Y1 2.938351 1_555
Co3 Y3 3.018571 1_545
Co3 Y1 3.101528 1_554
Co3 Y0 3.144161 1_554
Co3 Y2 3.347958 1_555
Co4 Si0 2.318810 1_565
Co4 Si1 2.318810 1_455
Co4 Si3 2.354514 1_565
Co4 Si2 2.354514 1_456
Co4 Si4 2.408916 1_555
Co4 Si8 2.664900 1_465
Co4 Co5 2.744143 1_466
Co4 Co5 2.744143 1_465
Co4 Y1 3.182550 1_565
Co4 Y0 3.182550 1_455
Co4 Y3 3.291146 1_456
Co4 Y2 3.291146 1_565
Co5 Si3 2.318810 1_655
Co5 Si2 2.318810 1_545
Co5 Si1 2.354514 1_545
Co5 Si0 2.354514 1_654
Co5 Si5 2.408916 1_555
Co5 Si9 2.664900 1_645
Co5 Y2 3.182550 1_655
Co5 Y3 3.182550 1_545
Co5 Y0 3.291146 1_545
Co5 Y1 3.291146 1_654
Si0 Si5 2.469382 1_456
Si0 Si8 2.491190 1_455
Si0 Y1 2.843780 1_555
Si0 Y2 2.929674 1_556
Si0 Y2 2.953330 1_555
Si0 Y0 3.088838 1_455
Si1 Si5 2.469382 1_565
Si1 Si8 2.491190 1_565
Si1 Y0 2.843780 1_555
Si1 Y3 2.929674 1_555
Si1 Y3 2.953330 1_556
Si1 Y1 3.088838 1_565
Si2 Si4 2.469382 1_654
Si2 Si9 2.491190 1_655
Si2 Y3 2.843780 1_555
Si2 Y0 2.929674 1_554
Si2 Y0 2.953330 1_555
Si2 Y2 3.088838 1_655
Si3 Si4 2.469382 1_545
Si3 Si9 2.491190 1_545
Si3 Y2 2.843780 1_555
Si3 Y1 2.929674 1_555
Si3 Y1 2.953330 1_554
Si3 Y3 3.088838 1_545
Si4 Si9 2.747924 1_555
Si4 Si9 2.747924 1_556
Si4 Y0 2.957570 1_455
Si4 Y1 2.957570 1_565
Si4 Y2 3.135926 1_556
Si4 Y3 3.135926 1_555
Si5 Si8 2.747924 1_554
Si5 Si8 2.747924 1_555
Si5 Y2 2.957570 1_655
Si5 Y3 2.957570 1_545
Si5 Y0 3.135926 1_554
Si5 Y1 3.135926 1_555
Si6 Y1 2.906295 1_555
Si6 Y0 2.906295 1_555
Si6 Y3 3.120037 1_555
Si6 Y2 3.120037 1_556
Si7 Y2 2.906295 1_555
Si7 Y3 2.906295 1_555
Si7 Y0 3.120037 1_554
Si7 Y1 3.120037 1_555
Si8 Y1 2.964672 1_555
Si8 Y0 2.964672 1_555
Si8 Y2 3.085384 1_655
Si8 Y3 3.085384 1_546
Si9 Y2 2.964672 1_555
Si9 Y3 2.964672 1_555
Si9 Y0 3.085384 1_455
Si9 Y1 3.085384 1_564
