# generated using pymatgen
data_MgSi2
_symmetry_space_group_name_H-M   'P 1'
_cell_length_a   5.99888700
_cell_length_b   7.04459804
_cell_length_c   10.12251154
_cell_angle_alpha   94.79029551
_cell_angle_beta   98.59737677
_cell_angle_gamma   90.08657894
_symmetry_Int_Tables_number   1
_chemical_formula_structural   MgSi2
_chemical_formula_sum   'Mg8 Si16'
_cell_volume   421.44803701
_cell_formula_units_Z   8
loop_
 _symmetry_equiv_pos_site_id
 _symmetry_equiv_pos_as_xyz
  1  'x, y, z'
loop_
 _atom_site_type_symbol
 _atom_site_label
 _atom_site_symmetry_multiplicity
 _atom_site_fract_x
 _atom_site_fract_y
 _atom_site_fract_z
 _atom_site_occupancy
  Mg  Mg0  1  0.65701600  0.91599100  0.10555100  1
  Mg  Mg1  1  0.49399800  0.15178500  0.60148800  1
  Mg  Mg2  1  0.74161400  0.41958100  0.39478400  1
  Mg  Mg3  1  0.10043000  0.36363800  0.91845000  1
  Mg  Mg4  1  0.24933700  0.49088200  0.38470100  1
  Mg  Mg5  1  0.60082700  0.44514500  0.91082400  1
  Mg  Mg6  1  0.15068600  0.99962000  0.08542200  1
  Mg  Mg7  1  0.01204700  0.21716500  0.62571900  1
  Si  Si0  1  0.87734000  0.29040600  0.14750800  1
  Si  Si1  1  0.71978500  0.52359200  0.66537700  1
  Si  Si2  1  0.93865400  0.78578100  0.35720400  1
  Si  Si3  1  0.28408800  0.73703300  0.87671000  1
  Si  Si4  1  0.03483700  0.11877900  0.35196000  1
  Si  Si5  1  0.37859600  0.06783000  0.85627500  1
  Si  Si6  1  0.97634000  0.62302700  0.13736100  1
  Si  Si7  1  0.80250300  0.85240800  0.62996100  1
  Si  Si8  1  0.55476900  0.79934800  0.40276200  1
  Si  Si9  1  0.88633100  0.73463200  0.88556200  1
  Si  Si10  1  0.47531400  0.29177500  0.13824500  1
  Si  Si11  1  0.31450500  0.53078600  0.66854600  1
  Si  Si12  1  0.37290100  0.62537900  0.12785400  1
  Si  Si13  1  0.18916100  0.84173500  0.58439000  1
  Si  Si14  1  0.43043700  0.11074400  0.32907800  1
  Si  Si15  1  0.77811400  0.06278200  0.84501800  1
loop_
_geom_bond_atom_site_label_1
_geom_bond_atom_site_label_2
_geom_bond_distance
_geom_bond_site_symmetry_2
Mg0 Si12 2.707168 1_555
Mg0 Si6 2.823298 1_555
Mg0 Si10 2.876771 1_565
Mg0 Si0 2.918691 1_565
Mg0 Si9 2.988222 1_554
Mg0 Si14 3.042371 1_565
Mg0 Si2 3.048458 1_555
Mg0 Mg6 3.058445 1_655
Mg0 Mg6 3.074884 1_555
Mg0 Si5 3.081709 1_564
Mg0 Si15 3.094859 1_564
Mg0 Si3 3.148722 1_554
Mg1 Si14 2.717498 1_555
Mg1 Si7 2.812435 1_545
Mg1 Si13 2.823975 1_545
Mg1 Si5 2.875424 1_555
Mg1 Si15 2.894844 1_555
Mg1 Si1 2.925351 1_555
Mg1 Si11 2.945015 1_555
Mg1 Mg7 2.971250 1_555
Mg1 Mg7 3.111126 1_655
Mg1 Si8 3.119533 1_545
Mg2 Si1 2.798019 1_555
Mg2 Si4 2.803237 1_655
Mg2 Si0 2.826202 1_555
Mg2 Si14 2.834646 1_555
Mg2 Si8 2.901751 1_555
Mg2 Si10 2.910492 1_555
Mg2 Si2 2.913077 1_555
Mg2 Mg4 2.984380 1_555
Mg2 Mg7 3.091861 1_655
Mg2 Mg4 3.104243 1_655
Mg3 Si5 2.761974 1_555
Mg3 Si15 2.842143 1_455
Mg3 Si0 2.925526 1_456
Mg3 Si9 2.935715 1_455
Mg3 Si6 2.936746 1_456
Mg3 Si3 2.937259 1_555
Mg3 Si12 2.977722 1_556
Mg3 Si10 2.993237 1_556
Mg3 Mg7 3.023933 1_555
Mg3 Mg5 3.043265 1_455
Mg3 Mg5 3.068888 1_555
Mg4 Si2 2.796427 1_455
Mg4 Si8 2.816744 1_555
Mg4 Si11 2.831292 1_555
Mg4 Si4 2.890345 1_555
Mg4 Si14 2.934004 1_555
Mg4 Si6 2.997514 1_455
Mg4 Si12 3.031886 1_555
Mg4 Si13 3.116331 1_555
Mg4 Si10 3.234391 1_555
Mg4 Si0 3.249827 1_455
Mg5 Si9 2.713865 1_555
Mg5 Si1 2.783129 1_555
Mg5 Si3 2.809249 1_555
Mg5 Si10 2.822226 1_556
Mg5 Si11 2.884367 1_555
Mg5 Si5 2.944718 1_555
Mg5 Si12 2.957257 1_556
Mg5 Si15 2.958216 1_555
Mg5 Si0 2.988859 1_556
Mg5 Si6 3.141701 1_556
Mg6 Si0 2.717222 1_465
Mg6 Si10 2.794083 1_565
Mg6 Si14 2.819286 1_565
Mg6 Si3 2.895333 1_554
Mg6 Si9 2.914366 1_454
Mg6 Si5 2.934748 1_564
Mg6 Si4 2.941275 1_565
Mg6 Si6 2.966038 1_455
Mg6 Si12 2.990073 1_555
Mg6 Si15 3.110128 1_464
Mg7 Si11 2.820271 1_555
Mg7 Si4 2.823295 1_555
Mg7 Si1 2.823465 1_455
Mg7 Si7 2.865213 1_445
Mg7 Si13 2.873188 1_545
Mg7 Si15 3.067559 1_455
Mg7 Si5 3.204874 1_555
Si0 Si10 2.399549 1_555
Si0 Si6 2.430634 1_555
Si0 Si4 2.544467 1_655
Si1 Si7 2.434904 1_555
Si1 Si11 2.436779 1_555
Si1 Si9 2.636743 1_555
Si2 Si8 2.415760 1_555
Si2 Si4 2.421684 1_665
Si2 Si6 2.458243 1_555
Si3 Si9 2.401216 1_455
Si3 Si5 2.430275 1_565
Si6 Si9 2.707537 1_554
Si7 Si8 2.543692 1_555
Si7 Si9 2.757951 1_555
Si10 Si12 2.436767 1_555
Si10 Si14 2.448721 1_555
Si11 Si3 2.487723 1_555
Si11 Si13 2.492898 1_555
Si12 Si6 2.395290 1_455
Si12 Si3 2.701043 1_554
Si13 Si7 2.431716 1_455
Si13 Si2 2.552611 1_455
Si14 Si4 2.418946 1_555
Si14 Si8 2.456959 1_545
Si15 Si5 2.416501 1_555
Si15 Si9 2.452976 1_545
Si15 Si7 2.552204 1_545
