# generated using pymatgen
data_BaSrCaWO6
_symmetry_space_group_name_H-M   'P 1'
_cell_length_a   5.96038003
_cell_length_b   6.07150685
_cell_length_c   8.56834107
_cell_angle_alpha   89.45638064
_cell_angle_beta   90.96693527
_cell_angle_gamma   89.89893066
_symmetry_Int_Tables_number   1
_chemical_formula_structural   BaSrCaWO6
_chemical_formula_sum   'Ba2 Sr2 Ca2 W2 O12'
_cell_volume   310.01662635
_cell_formula_units_Z   2
loop_
 _symmetry_equiv_pos_site_id
 _symmetry_equiv_pos_as_xyz
  1  'x, y, z'
loop_
 _atom_site_type_symbol
 _atom_site_label
 _atom_site_symmetry_multiplicity
 _atom_site_fract_x
 _atom_site_fract_y
 _atom_site_fract_z
 _atom_site_occupancy
  Ba  Ba0  1  0.99675412  0.04177660  0.24833253  1
  Ba  Ba1  1  0.00324588  0.95822340  0.75166747  1
  Sr  Sr0  1  -0.00000000  0.50000000  -0.00000000  1
  Sr  Sr1  1  0.50000000  0.00000000  0.50000000  1
  Ca  Ca0  1  0.51387181  0.54187515  0.24363009  1
  Ca  Ca1  1  0.48612819  0.45812485  0.75636991  1
  W  W0  1  0.50000000  0.00000000  -0.00000000  1
  W  W1  1  -0.00000000  0.50000000  0.50000000  1
  O  O0  1  0.22622694  0.17208161  0.97432889  1
  O  O1  1  0.26032218  0.67179498  0.57374202  1
  O  O2  1  0.77377306  0.82791839  0.02567111  1
  O  O3  1  0.73967782  0.32820502  0.42625798  1
  O  O4  1  0.34212282  0.72668086  0.93516212  1
  O  O5  1  0.17176030  0.23410875  0.54806089  1
  O  O6  1  0.65787718  0.27331914  0.06483788  1
  O  O7  1  0.82823970  0.76589125  0.45193911  1
  O  O8  1  0.43095451  0.92886419  0.21818063  1
  O  O9  1  0.12552162  0.49521423  0.28570807  1
  O  O10  1  0.56904549  0.07113581  0.78181937  1
  O  O11  1  0.87447838  0.50478577  0.71429193  1
loop_
_geom_bond_atom_site_label_1
_geom_bond_atom_site_label_2
_geom_bond_distance
_geom_bond_site_symmetry_2
Ba0 O7 2.620639 1_545
Ba0 O2 2.657009 1_545
Ba0 O8 2.693349 1_645
Ba0 O3 2.795727 1_555
Ba0 O0 2.843511 1_654
Ba0 O9 2.878679 1_655
Ba0 O6 2.892897 1_555
Ba0 O5 3.003000 1_655
Ba1 O5 2.620639 1_565
Ba1 O0 2.657009 1_565
Ba1 O10 2.693349 1_465
Ba1 O1 2.795727 1_555
Ba1 O2 2.843511 1_456
Ba1 O11 2.878679 1_455
Ba1 O4 2.892897 1_555
Ba1 O7 3.003000 1_455
Ca0 O9 2.365733 1_555
Ca0 O8 2.407280 1_555
Ca0 O3 2.413980 1_555
Ca0 O6 2.414354 1_555
Ca0 O7 2.913550 1_555
Ca0 O2 2.991527 1_555
Ca0 O4 3.023417 1_554
Ca1 O11 2.365733 1_555
Ca1 O10 2.407280 1_555
Ca1 O1 2.413980 1_555
Ca1 O4 2.414354 1_555
Ca1 O5 2.913550 1_555
Ca1 O0 2.991527 1_555
Ca1 O6 3.023417 1_556
O0 W0 1.944282 1_556
O0 Sr0 2.416470 1_556
O1 W1 1.969731 1_555
O1 Sr1 2.535254 1_565
O2 W0 1.944282 1_565
O2 Sr0 2.416470 1_655
O3 W1 1.969731 1_655
O3 Sr1 2.535254 1_555
O4 W0 1.988290 1_566
O4 Sr0 2.528778 1_556
O5 W1 1.947086 1_555
O5 Sr1 2.458873 1_555
O6 W0 1.988290 1_555
O6 Sr0 2.528778 1_655
O7 W1 1.947086 1_655
O7 Sr1 2.458873 1_565
O8 W0 1.965198 1_565
O8 Sr1 2.484688 1_565
O9 W1 1.994804 1_555
O9 Sr0 2.547599 1_555
O10 W0 1.965198 1_556
O10 Sr1 2.484688 1_555
O11 W1 1.994804 1_655
O11 Sr0 2.547599 1_656
