# generated using pymatgen
data_ZnCo4O9
_symmetry_space_group_name_H-M   'P 1'
_cell_length_a   4.90416858
_cell_length_b   8.21548494
_cell_length_c   8.18997438
_cell_angle_alpha   90.06301953
_cell_angle_beta   90.20068441
_cell_angle_gamma   89.93016112
_symmetry_Int_Tables_number   1
_chemical_formula_structural   ZnCo4O9
_chemical_formula_sum   'Zn2 Co8 O18'
_cell_volume   329.97260855
_cell_formula_units_Z   2
loop_
 _symmetry_equiv_pos_site_id
 _symmetry_equiv_pos_as_xyz
  1  'x, y, z'
loop_
 _atom_site_type_symbol
 _atom_site_label
 _atom_site_symmetry_multiplicity
 _atom_site_fract_x
 _atom_site_fract_y
 _atom_site_fract_z
 _atom_site_occupancy
  Zn  Zn0  1  0.10341800  0.24912700  0.25092200  1
  Zn  Zn1  1  0.89283100  0.74758300  0.75220800  1
  Co  Co0  1  0.61284700  0.53382600  0.33820700  1
  Co  Co1  1  0.38458800  0.83901700  0.46607200  1
  Co  Co2  1  0.61367800  0.33822800  0.96552500  1
  Co  Co3  1  0.38555900  0.03323500  0.83783400  1
  Co  Co4  1  0.61424900  0.96674900  0.16205300  1
  Co  Co5  1  0.61394400  0.16159200  0.53401900  1
  Co  Co6  1  0.38834800  0.46663200  0.66182900  1
  Co  Co7  1  0.38698600  0.66151200  0.03447100  1
  O  O0  1  0.50400500  0.74996600  0.24987800  1
  O  O1  1  0.49354400  0.24914000  0.74955200  1
  O  O2  1  0.06186100  0.68331600  0.97706900  1
  O  O3  1  0.06167900  0.52179900  0.68199900  1
  O  O4  1  0.05898100  0.97778200  0.81719400  1
  O  O5  1  0.06020900  0.81666800  0.52397700  1
  O  O6  1  0.93814400  0.31649300  0.02391300  1
  O  O7  1  0.93973900  0.47876400  0.31793500  1
  O  O8  1  0.94188700  0.02094500  0.18155100  1
  O  O9  1  0.93870600  0.18350700  0.47705300  1
  O  O10  1  0.43760800  0.04415200  0.35421100  1
  O  O11  1  0.45264000  0.14535700  0.04100600  1
  O  O12  1  0.45188800  0.35523400  0.45753200  1
  O  O13  1  0.43601500  0.45914900  0.14359800  1
  O  O14  1  0.56401300  0.54129600  0.85700100  1
  O  O15  1  0.54729800  0.85436300  0.95684800  1
  O  O16  1  0.55506400  0.64498600  0.54324700  1
  O  O17  1  0.56027400  0.95958400  0.64329400  1
loop_
_geom_bond_atom_site_label_1
_geom_bond_atom_site_label_2
_geom_bond_distance
_geom_bond_site_symmetry_2
Co0 O7 1.673967 1_555
Co0 O13 1.912655 1_555
Co0 O16 1.932248 1_555
Co0 O12 1.934496 1_555
Co0 O0 1.989761 1_555
Co1 O5 1.671968 1_555
Co1 O16 1.906504 1_555
Co1 O10 1.937326 1_565
Co1 O17 1.954562 1_555
Co1 O0 2.004167 1_555
Co2 O6 1.669357 1_556
Co2 O11 1.877560 1_556
Co2 O14 1.906120 1_555
Co2 O13 1.968911 1_556
Co2 O1 2.000597 1_555
Co3 O4 1.673600 1_545
Co3 O17 1.909187 1_545
Co3 O11 1.928486 1_556
Co3 O15 1.932259 1_545
Co3 O1 1.989285 1_555
Co4 O8 1.674908 1_565
Co4 O10 1.907240 1_565
Co4 O11 1.938800 1_565
Co4 O15 1.943774 1_554
Co4 O0 1.997360 1_555
Co5 O9 1.671175 1_555
Co5 O12 1.884278 1_555
Co5 O17 1.905378 1_545
Co5 O10 1.958914 1_555
Co5 O1 1.996348 1_555
Co6 O3 1.673066 1_555
Co6 O14 1.913888 1_555
Co6 O12 1.932308 1_555
Co6 O16 1.941723 1_555
Co6 O1 1.993229 1_555
Co7 O2 1.670230 1_554
Co7 O15 1.881814 1_554
Co7 O13 1.902979 1_555
Co7 O14 1.960948 1_554
Co7 O0 1.990188 1_555
O2 Zn1 2.085142 1_455
O3 Zn1 2.110524 1_455
O4 Zn1 2.126581 1_455
O5 Zn1 2.122281 1_455
O6 Zn0 2.100117 1_655
O7 Zn0 2.121759 1_655
O8 Zn0 2.112505 1_655
O9 Zn0 2.094468 1_655
O10 Zn0 2.494819 1_555
O11 Zn0 2.574773 1_555
O12 Zn0 2.554185 1_555
O13 Zn0 2.535841 1_555
O14 Zn1 2.495743 1_555
O15 Zn1 2.542258 1_555
O16 Zn1 2.522607 1_555
O17 Zn1 2.544670 1_555
