# generated using pymatgen
data_P2SN6
_symmetry_space_group_name_H-M   'P 1'
_cell_length_a   8.51565600
_cell_length_b   12.07731000
_cell_length_c   12.82578769
_cell_angle_alpha   78.45859346
_cell_angle_beta   90.00000000
_cell_angle_gamma   90.00000000
_symmetry_Int_Tables_number   1
_chemical_formula_structural   P2SN6
_chemical_formula_sum   'P8 S4 N24'
_cell_volume   1292.41236244
_cell_formula_units_Z   4
loop_
 _symmetry_equiv_pos_site_id
 _symmetry_equiv_pos_as_xyz
  1  'x, y, z'
loop_
 _atom_site_type_symbol
 _atom_site_label
 _atom_site_symmetry_multiplicity
 _atom_site_fract_x
 _atom_site_fract_y
 _atom_site_fract_z
 _atom_site_occupancy
  P  P0  1  0.55430500  0.90708300  0.27625900  1
  P  P1  1  0.44569500  0.09291700  0.72374100  1
  P  P2  1  0.05430500  0.59291700  0.72374100  1
  P  P3  1  0.94569500  0.40708300  0.27625900  1
  P  P4  1  0.47958500  0.68296200  0.21449200  1
  P  P5  1  0.52041500  0.31703800  0.78550800  1
  P  P6  1  0.97958500  0.81703800  0.78550800  1
  P  P7  1  0.02041500  0.18296200  0.21449200  1
  S  S0  1  0.81788300  0.86035900  0.68056800  1
  S  S1  1  0.18211700  0.13964100  0.31943200  1
  S  S2  1  0.31788300  0.63964100  0.31943200  1
  S  S3  1  0.68211700  0.36035900  0.68056800  1
  N  N0  1  0.83090300  0.72286900  0.42702700  1
  N  N1  1  0.16909700  0.27713100  0.57297400  1
  N  N2  1  0.33090300  0.77713100  0.57297400  1
  N  N3  1  0.66909700  0.22286900  0.42702700  1
  N  N4  1  0.93247600  0.76130400  0.37817800  1
  N  N5  1  0.06752400  0.23869600  0.62182200  1
  N  N6  1  0.43247600  0.73869600  0.62182200  1
  N  N7  1  0.56752400  0.26130400  0.37817800  1
  N  N8  1  0.57098300  0.80540300  0.21706300  1
  N  N9  1  0.42901700  0.19459700  0.78293700  1
  N  N10  1  0.07098300  0.69459700  0.78293700  1
  N  N11  1  0.92901700  0.30540300  0.21706300  1
  N  N12  1  0.31825800  0.90623100  0.97945800  1
  N  N13  1  0.68174200  0.09376900  0.02054200  1
  N  N14  1  0.81825800  0.59376900  0.02054200  1
  N  N15  1  0.18174200  0.40623100  0.97945800  1
  N  N16  1  0.83959000  0.68051500  0.03472900  1
  N  N17  1  0.16041000  0.31948500  0.96527100  1
  N  N18  1  0.33959000  0.81948500  0.96527100  1
  N  N19  1  0.66041000  0.18051500  0.03472900  1
  N  N20  1  0.56289300  0.02243500  0.30382100  1
  N  N21  1  0.43710700  0.97756500  0.69617900  1
  N  N22  1  0.06289300  0.47756500  0.69617900  1
  N  N23  1  0.93710700  0.52243500  0.30382100  1
loop_
_geom_bond_atom_site_label_1
_geom_bond_atom_site_label_2
_geom_bond_distance
_geom_bond_site_symmetry_2
P4 S2 1.923442 1_555
P5 S3 1.923442 1_555
P6 S0 1.923442 1_555
P7 S1 1.923442 1_555
N0 N4 1.113459 1_555
N1 N5 1.113453 1_555
N2 N6 1.113453 1_555
N3 N7 1.113459 1_555
N8 P0 1.574080 1_555
N8 P4 1.677229 1_555
N9 P1 1.574080 1_555
N9 P5 1.677229 1_555
N10 P2 1.574080 1_555
N10 P6 1.677229 1_455
N11 P3 1.574080 1_555
N11 P7 1.677229 1_655
N12 N18 1.113543 1_555
N13 N19 1.113543 1_555
N14 N16 1.113543 1_555
N15 N17 1.113543 1_555
N20 P0 1.506063 1_545
N21 P1 1.506063 1_565
N22 P2 1.506063 1_555
N23 P3 1.506063 1_555
