# generated using pymatgen
data_La2MgS4
_symmetry_space_group_name_H-M   'P 1'
_cell_length_a   8.38269600
_cell_length_b   7.16518200
_cell_length_c   11.90874400
_cell_angle_alpha   90.00000000
_cell_angle_beta   90.00000000
_cell_angle_gamma   90.00000000
_symmetry_Int_Tables_number   1
_chemical_formula_structural   La2MgS4
_chemical_formula_sum   'La8 Mg4 S16'
_cell_volume   715.28135125
_cell_formula_units_Z   4
loop_
 _symmetry_equiv_pos_site_id
 _symmetry_equiv_pos_as_xyz
  1  'x, y, z'
loop_
 _atom_site_type_symbol
 _atom_site_label
 _atom_site_symmetry_multiplicity
 _atom_site_fract_x
 _atom_site_fract_y
 _atom_site_fract_z
 _atom_site_occupancy
  La  La0  1  0.02297700  0.75000000  0.31474700  1
  La  La1  1  0.97702300  0.25000000  0.68525300  1
  La  La2  1  0.47702300  0.25000000  0.81474700  1
  La  La3  1  0.52297700  0.75000000  0.18525300  1
  La  La4  1  0.09494800  0.25000000  0.04123400  1
  La  La5  1  0.90505200  0.75000000  0.95876600  1
  La  La6  1  0.40505200  0.75000000  0.54123400  1
  La  La7  1  0.59494800  0.25000000  0.45876600  1
  Mg  Mg0  1  0.19619100  0.25000000  0.41827000  1
  Mg  Mg1  1  0.80380900  0.75000000  0.58173000  1
  Mg  Mg2  1  0.30380900  0.75000000  0.91827000  1
  Mg  Mg3  1  0.69619100  0.25000000  0.08173000  1
  S  S0  1  0.14941800  0.49156400  0.84755800  1
  S  S1  1  0.85058200  0.50843600  0.15244200  1
  S  S2  1  0.35058200  0.50843600  0.34755800  1
  S  S3  1  0.64941800  0.49156400  0.65244200  1
  S  S4  1  0.64941800  0.00843600  0.65244200  1
  S  S5  1  0.35058200  0.99156400  0.34755800  1
  S  S6  1  0.85058200  0.99156400  0.15244200  1
  S  S7  1  0.14941800  0.00843600  0.84755800  1
  S  S8  1  0.91986700  0.25000000  0.44247300  1
  S  S9  1  0.08013300  0.75000000  0.55752700  1
  S  S10  1  0.58013300  0.75000000  0.94247300  1
  S  S11  1  0.41986700  0.25000000  0.05752700  1
  S  S12  1  0.19630300  0.75000000  0.10690000  1
  S  S13  1  0.80369700  0.25000000  0.89310000  1
  S  S14  1  0.30369700  0.25000000  0.60690000  1
  S  S15  1  0.69630300  0.75000000  0.39310000  1
loop_
_geom_bond_atom_site_label_1
_geom_bond_atom_site_label_2
_geom_bond_distance
_geom_bond_site_symmetry_2
La0 S12 2.870127 1_555
La0 S15 2.893014 1_455
La0 S9 2.930635 1_555
La0 S1 2.969876 1_455
La0 S6 2.969876 1_455
La0 S5 3.269588 1_555
La0 S2 3.269588 1_555
La1 S13 2.870127 1_555
La1 S14 2.893014 1_655
La1 S8 2.930635 1_555
La1 S7 2.969876 1_655
La1 S0 2.969876 1_655
La1 S3 3.269588 1_555
La1 S4 3.269588 1_555
La2 S14 2.870127 1_555
La2 S13 2.893014 1_555
La2 S11 2.930635 1_556
La2 S3 2.969876 1_555
La2 S4 2.969876 1_555
La2 S7 3.269588 1_555
La2 S0 3.269588 1_555
La3 S15 2.870127 1_555
La3 S12 2.893014 1_555
La3 S10 2.930635 1_554
La3 S5 2.969876 1_555
La3 S2 2.969876 1_555
La3 S1 3.269588 1_555
La3 S6 3.269588 1_555
La4 S11 2.730600 1_555
La4 S0 2.919587 1_554
La4 S7 2.919587 1_554
La4 S13 3.012106 1_454
La4 S6 3.062511 1_445
La4 S1 3.062511 1_455
La5 S10 2.730600 1_555
La5 S6 2.919587 1_556
La5 S1 2.919587 1_556
La5 S12 3.012106 1_656
La5 S0 3.062511 1_655
La5 S7 3.062511 1_665
La6 S9 2.730600 1_555
La6 S5 2.919587 1_555
La6 S2 2.919587 1_555
La6 S15 3.012106 1_555
La6 S3 3.062511 1_555
La6 S4 3.062511 1_565
La7 S8 2.730600 1_555
La7 S3 2.919587 1_555
La7 S4 2.919587 1_555
La7 S14 3.012106 1_555
La7 S2 3.062511 1_555
La7 S5 3.062511 1_545
Mg0 S8 2.334204 1_455
Mg0 S5 2.411027 1_545
Mg0 S2 2.411027 1_555
Mg0 S14 2.420375 1_555
Mg1 S9 2.334204 1_655
Mg1 S3 2.411027 1_555
Mg1 S4 2.411027 1_565
Mg1 S15 2.420375 1_555
Mg2 S10 2.334204 1_555
Mg2 S0 2.411027 1_555
Mg2 S7 2.411027 1_565
Mg2 S12 2.420375 1_556
Mg3 S11 2.334204 1_555
Mg3 S6 2.411027 1_545
Mg3 S1 2.411027 1_555
Mg3 S13 2.420375 1_554
