# generated using pymatgen
data_Mg14CdBiO16
_symmetry_space_group_name_H-M   'P 1'
_cell_length_a   8.78745994
_cell_length_b   8.91594988
_cell_length_c   4.43914028
_cell_angle_alpha   90.00000000
_cell_angle_beta   90.00000000
_cell_angle_gamma   90.00000000
_symmetry_Int_Tables_number   1
_chemical_formula_structural   Mg14CdBiO16
_chemical_formula_sum   'Mg14 Cd1 Bi1 O16'
_cell_volume   347.80021483
_cell_formula_units_Z   1
loop_
 _symmetry_equiv_pos_site_id
 _symmetry_equiv_pos_as_xyz
  1  'x, y, z'
loop_
 _atom_site_type_symbol
 _atom_site_label
 _atom_site_symmetry_multiplicity
 _atom_site_fract_x
 _atom_site_fract_y
 _atom_site_fract_z
 _atom_site_occupancy
  Mg  Mg0  1  0.50000000  -0.00000000  0.00000000  1
  Mg  Mg1  1  0.50000000  0.50000000  0.00000000  1
  Mg  Mg2  1  0.00000000  0.23672718  0.50000000  1
  Mg  Mg3  1  0.00000000  0.76327282  0.50000000  1
  Mg  Mg4  1  0.50000000  0.24764064  0.50000000  1
  Mg  Mg5  1  0.50000000  0.75235936  0.50000000  1
  Mg  Mg6  1  0.25728479  -0.00000000  0.50000000  1
  Mg  Mg7  1  0.26546538  0.50000000  0.50000000  1
  Mg  Mg8  1  0.74271521  -0.00000000  0.50000000  1
  Mg  Mg9  1  0.73453462  0.50000000  0.50000000  1
  Mg  Mg10  1  0.26060110  0.24219414  0.00000000  1
  Mg  Mg11  1  0.26060110  0.75780586  -0.00000000  1
  Mg  Mg12  1  0.73939890  0.24219414  0.00000000  1
  Mg  Mg13  1  0.73939890  0.75780586  -0.00000000  1
  Cd  Cd0  1  0.00000000  -0.00000000  0.00000000  1
  Bi  Bi0  1  0.00000000  0.50000000  0.00000000  1
  O  O0  1  0.27244495  -0.00000000  -0.00000000  1
  O  O1  1  0.26926384  0.50000000  -0.00000000  1
  O  O2  1  0.72755505  -0.00000000  0.00000000  1
  O  O3  1  0.73073616  0.50000000  0.00000000  1
  O  O4  1  0.25036359  0.25256441  0.50000000  1
  O  O5  1  0.25036359  0.74743559  0.50000000  1
  O  O6  1  0.74963641  0.25256441  0.50000000  1
  O  O7  1  0.74963641  0.74743559  0.50000000  1
  O  O8  1  0.00000000  -0.00000000  0.50000000  1
  O  O9  1  0.00000000  0.50000000  0.50000000  1
  O  O10  1  0.50000000  -0.00000000  0.50000000  1
  O  O11  1  0.50000000  0.50000000  0.50000000  1
  O  O12  1  0.00000000  0.24701402  0.00000000  1
  O  O13  1  0.00000000  0.75298598  -0.00000000  1
  O  O14  1  0.50000000  0.25225148  0.00000000  1
  O  O15  1  0.50000000  0.74774852  0.00000000  1
loop_
_geom_bond_atom_site_label_1
_geom_bond_atom_site_label_2
_geom_bond_distance
_geom_bond_site_symmetry_2
Mg0 O0 1.999631 1_555
Mg0 O2 1.999631 1_555
Mg0 O10 2.219570 1_555
Mg0 O10 2.219570 1_554
Mg0 O15 2.249062 1_545
Mg0 O14 2.249062 1_555
Mg1 O3 2.027585 1_555
Mg1 O1 2.027585 1_555
Mg1 O14 2.208913 1_555
Mg1 O15 2.208913 1_555
Mg1 O11 2.219570 1_554
Mg1 O11 2.219570 1_555
Mg2 O8 2.110648 1_555
Mg2 O6 2.204587 1_455
Mg2 O4 2.204587 1_555
Mg2 O12 2.221464 1_555
Mg2 O12 2.221464 1_556
Mg2 O9 2.347327 1_555
Mg3 O8 2.110648 1_565
Mg3 O7 2.204587 1_455
Mg3 O5 2.204587 1_555
Mg3 O13 2.221464 1_555
Mg3 O13 2.221464 1_556
Mg3 O9 2.347327 1_555
Mg4 O4 2.194109 1_555
Mg4 O6 2.194109 1_555
Mg4 O10 2.207952 1_555
Mg4 O14 2.219951 1_556
Mg4 O14 2.219951 1_555
Mg4 O11 2.250023 1_555
Mg5 O5 2.194109 1_555
Mg5 O7 2.194109 1_555
Mg5 O10 2.207952 1_565
Mg5 O15 2.219951 1_556
Mg5 O15 2.219951 1_555
Mg5 O11 2.250023 1_555
Mg6 O10 2.132850 1_555
Mg6 O0 2.223564 1_556
Mg6 O0 2.223564 1_555
Mg6 O5 2.252673 1_545
Mg6 O4 2.252673 1_555
Mg6 O8 2.260880 1_555
Mg7 O11 2.060964 1_555
Mg7 O4 2.210111 1_555
Mg7 O5 2.210111 1_555
Mg7 O1 2.219821 1_555
Mg7 O1 2.219821 1_556
Mg7 O9 2.332766 1_555
Mg8 O10 2.132850 1_555
Mg8 O2 2.223564 1_555
Mg8 O2 2.223564 1_556
Mg8 O7 2.252673 1_545
Mg8 O6 2.252673 1_555
Mg8 O8 2.260880 1_655
Mg9 O11 2.060964 1_555
Mg9 O6 2.210111 1_555
Mg9 O7 2.210111 1_555
Mg9 O3 2.219821 1_556
Mg9 O3 2.219821 1_555
Mg9 O9 2.332766 1_655
Mg10 O14 2.105618 1_555
Mg10 O0 2.161897 1_555
Mg10 O4 2.223316 1_554
Mg10 O4 2.223316 1_555
Mg10 O12 2.290425 1_555
Mg10 O1 2.299844 1_555
Mg11 O15 2.105618 1_555
Mg11 O0 2.161897 1_565
Mg11 O5 2.223316 1_555
Mg11 O5 2.223316 1_554
Mg11 O13 2.290425 1_555
Mg11 O1 2.299844 1_555
Mg12 O14 2.105618 1_555
Mg12 O2 2.161897 1_555
Mg12 O6 2.223316 1_555
Mg12 O6 2.223316 1_554
Mg12 O12 2.290425 1_655
Mg12 O3 2.299844 1_555
Mg13 O15 2.105618 1_555
Mg13 O2 2.161897 1_565
Mg13 O7 2.223316 1_555
Mg13 O7 2.223316 1_554
Mg13 O13 2.290425 1_655
Mg13 O3 2.299844 1_555
Cd0 O13 2.202365 1_545
Cd0 O12 2.202365 1_555
Cd0 O8 2.219570 1_555
Cd0 O8 2.219570 1_554
Cd0 O2 2.394099 1_455
Cd0 O0 2.394099 1_555
Bi0 O9 2.219570 1_555
Bi0 O9 2.219570 1_554
Bi0 O12 2.255610 1_555
Bi0 O13 2.255610 1_555
Bi0 O3 2.366145 1_455
Bi0 O1 2.366145 1_555
