# generated using pymatgen
data_Pr(AsRh)2
_symmetry_space_group_name_H-M   'P 1'
_cell_length_a   4.30958463
_cell_length_b   4.30958463
_cell_length_c   9.89163913
_cell_angle_alpha   90.00000000
_cell_angle_beta   90.00000000
_cell_angle_gamma   90.00000000
_symmetry_Int_Tables_number   1
_chemical_formula_structural   Pr(AsRh)2
_chemical_formula_sum   'Pr2 As4 Rh4'
_cell_volume   183.71266244
_cell_formula_units_Z   2
loop_
 _symmetry_equiv_pos_site_id
 _symmetry_equiv_pos_as_xyz
  1  'x, y, z'
loop_
 _atom_site_type_symbol
 _atom_site_label
 _atom_site_symmetry_multiplicity
 _atom_site_fract_x
 _atom_site_fract_y
 _atom_site_fract_z
 _atom_site_occupancy
  Pr  Pr0  1  0.75000000  0.75000000  0.25404804  1
  Pr  Pr1  1  0.25000000  0.25000000  0.74595196  1
  As  As0  1  0.75000000  0.25000000  0.50000000  1
  As  As1  1  0.25000000  0.75000000  0.50000000  1
  As  As2  1  0.75000000  0.75000000  0.86459718  1
  As  As3  1  0.25000000  0.25000000  0.13540282  1
  Rh  Rh0  1  0.75000000  0.25000000  0.00000000  1
  Rh  Rh1  1  0.25000000  0.75000000  0.00000000  1
  Rh  Rh2  1  0.75000000  0.75000000  0.61719069  1
  Rh  Rh3  1  0.25000000  0.25000000  0.38280931  1
loop_
_geom_bond_atom_site_label_1
_geom_bond_atom_site_label_2
_geom_bond_distance
_geom_bond_site_symmetry_2
Pr0 Rh3 3.302797 1_555
Pr0 Rh3 3.302797 1_655
Pr0 Rh3 3.302797 1_565
Pr0 Rh3 3.302797 1_665
Pr0 Rh1 3.310295 1_655
Pr0 Rh0 3.310295 1_565
Pr0 Rh0 3.310295 1_555
Pr0 Rh1 3.310295 1_555
Pr1 Rh2 3.302797 1_455
Pr1 Rh2 3.302797 1_555
Pr1 Rh2 3.302797 1_445
Pr1 Rh2 3.302797 1_545
Pr1 Rh1 3.310295 1_556
Pr1 Rh0 3.310295 1_556
Pr1 Rh0 3.310295 1_456
Pr1 Rh1 3.310295 1_546
As0 Rh3 2.446813 1_655
As0 Rh3 2.446813 1_555
As0 Rh2 2.446813 1_545
As0 Rh2 2.446813 1_555
As0 Pr1 3.249920 1_655
As0 Pr1 3.249920 1_555
As0 Pr0 3.249920 1_555
As0 Pr0 3.249920 1_545
As1 Rh3 2.446813 1_565
As1 Rh3 2.446813 1_555
As1 Rh2 2.446813 1_455
As1 Rh2 2.446813 1_555
As1 Pr1 3.249920 1_565
As1 Pr1 3.249920 1_555
As1 Pr0 3.249920 1_555
As1 Pr0 3.249920 1_455
As2 Rh2 2.447256 1_555
As2 Rh1 2.537125 1_556
As2 Rh1 2.537125 1_656
As2 Rh0 2.537125 1_566
As2 Rh0 2.537125 1_556
As2 Pr1 3.265515 1_655
As2 Pr1 3.265515 1_565
As2 Pr1 3.265515 1_555
As2 Pr1 3.265515 1_665
As3 Rh3 2.447256 1_555
As3 Rh1 2.537125 1_545
As3 Rh0 2.537125 1_455
As3 Rh0 2.537125 1_555
As3 Rh1 2.537125 1_555
As3 Pr0 3.265515 1_455
As3 Pr0 3.265515 1_545
As3 Pr0 3.265515 1_445
As3 Pr0 3.265515 1_555
