# generated using pymatgen
data_Li2V(CO3)2
_symmetry_space_group_name_H-M   'P 1'
_cell_length_a   4.90414266
_cell_length_b   6.38433302
_cell_length_c   8.32973053
_cell_angle_alpha   90.00686505
_cell_angle_beta   87.53079452
_cell_angle_gamma   89.99550119
_symmetry_Int_Tables_number   1
_chemical_formula_structural   Li2V(CO3)2
_chemical_formula_sum   'Li4 V2 C4 O12'
_cell_volume   260.55904558
_cell_formula_units_Z   2
loop_
 _symmetry_equiv_pos_site_id
 _symmetry_equiv_pos_as_xyz
  1  'x, y, z'
loop_
 _atom_site_type_symbol
 _atom_site_label
 _atom_site_symmetry_multiplicity
 _atom_site_fract_x
 _atom_site_fract_y
 _atom_site_fract_z
 _atom_site_occupancy
  Li  Li0  1  0.01783000  0.28133600  0.67295800  1
  Li  Li1  1  0.48228000  0.78103000  0.82712500  1
  Li  Li2  1  0.51765400  0.21924400  0.17285600  1
  Li  Li3  1  0.98230100  0.71899400  0.32713700  1
  V  V0  1  0.50001300  0.50008500  0.50010300  1
  V  V1  1  0.99987700  0.99964900  0.99988900  1
  C  C0  1  0.01462200  0.26688800  0.32903100  1
  C  C1  1  0.48549700  0.76669000  0.17089400  1
  C  C2  1  0.51455800  0.23322000  0.82911900  1
  C  C3  1  0.98535800  0.73308000  0.67092000  1
  O  O0  1  0.13069400  0.17789800  0.20382000  1
  O  O1  1  0.36912300  0.67816000  0.29619100  1
  O  O2  1  0.63071300  0.32209900  0.70389900  1
  O  O3  1  0.86905800  0.82181300  0.79611400  1
  O  O4  1  0.15444900  0.29809200  0.45558600  1
  O  O5  1  0.34566600  0.79805900  0.04437800  1
  O  O6  1  0.65453900  0.20184100  0.95559900  1
  O  O7  1  0.84560400  0.70187800  0.54438300  1
  O  O8  1  0.26065100  0.17524900  0.82778200  1
  O  O9  1  0.23915100  0.67472600  0.67246500  1
  O  O10  1  0.76092700  0.32544000  0.32752900  1
  O  O11  1  0.73943600  0.82452700  0.17222000  1
loop_
_geom_bond_atom_site_label_1
_geom_bond_atom_site_label_2
_geom_bond_distance
_geom_bond_site_symmetry_2
Li0 O4 1.906391 1_555
Li0 O8 1.916348 1_555
Li0 O2 1.922528 1_455
Li1 O5 1.905525 1_556
Li1 O9 1.916822 1_555
Li1 O3 1.921015 1_555
Li2 O6 1.906106 1_554
Li2 O10 1.917114 1_555
Li2 O0 1.922346 1_555
Li3 O7 1.905659 1_555
Li3 O11 1.915783 1_555
Li3 O1 1.921173 1_655
C0 O0 1.297404 1_555
C0 O4 1.297476 1_555
C0 O10 1.299650 1_455
C1 O5 1.297401 1_555
C1 O1 1.297432 1_555
C1 O11 1.299473 1_555
C2 O2 1.297466 1_555
C2 O6 1.297575 1_555
C2 O8 1.299570 1_555
C3 O3 1.297028 1_555
C3 O7 1.297148 1_555
C3 O9 1.299765 1_655
O0 V1 2.164654 1_444
O1 V0 2.164223 1_555
O2 V0 2.162846 1_555
O3 V1 2.162236 1_555
O4 V0 2.174147 1_555
O5 V1 2.173338 1_454
O6 V1 2.173539 1_545
O7 V0 2.173092 1_555
O8 V1 2.188656 1_445
O9 V0 2.186828 1_555
O10 V0 2.188098 1_555
O11 V1 2.187363 1_554
