# generated using pymatgen
data_NdCo9Si4
_symmetry_space_group_name_H-M   'P 1'
_cell_length_a   7.93938536
_cell_length_b   7.93938670
_cell_length_c   7.94109919
_cell_angle_alpha   122.07590018
_cell_angle_beta   122.07574630
_cell_angle_gamma   86.45348987
_symmetry_Int_Tables_number   1
_chemical_formula_structural   NdCo9Si4
_chemical_formula_sum   'Nd2 Co18 Si8'
_cell_volume   342.08782160
_cell_formula_units_Z   2
loop_
 _symmetry_equiv_pos_site_id
 _symmetry_equiv_pos_as_xyz
  1  'x, y, z'
loop_
 _atom_site_type_symbol
 _atom_site_label
 _atom_site_symmetry_multiplicity
 _atom_site_fract_x
 _atom_site_fract_y
 _atom_site_fract_z
 _atom_site_occupancy
  Nd  Nd0  1  0.75001406  0.74997144  -0.00000082  1
  Nd  Nd1  1  0.24998993  0.25002478  0.00000070  1
  Co  Co0  1  0.69192492  0.44804201  0.49997925  1
  Co  Co1  1  0.44800442  0.94800915  0.75599126  1
  Co  Co2  1  0.19184234  0.69184087  0.24376437  1
  Co  Co3  1  0.55199505  0.05199366  0.24401096  1
  Co  Co4  1  0.94804026  0.19192482  0.49998289  1
  Co  Co5  1  0.19664009  0.93224051  0.12888643  1
  Co  Co6  1  0.80335687  0.06775136  0.87110634  1
  Co  Co7  1  0.43225444  0.69663366  0.12889193  1
  Co  Co8  1  0.56775177  0.30336591  0.87111598  1
  Co  Co9  1  0.69661155  0.56778935  0.26442305  1
  Co  Co10  1  0.30339203  0.43221448  0.73558059  1
  Co  Co11  1  0.93220798  0.80338570  0.73556672  1
  Co  Co12  1  0.30807930  0.55196256  0.50002145  1
  Co  Co13  1  0.80815365  0.30815900  0.75623713  1
  Co  Co14  1  -0.00000721  0.50000469  0.49999856  1
  Co  Co15  1  0.50000114  0.00000235  0.50000168  1
  Co  Co16  1  0.06778844  0.19661111  0.26442400  1
  Co  Co17  1  0.05195748  0.80807377  0.50001640  1
  Si  Si0  1  0.29167992  0.79168196  0.83509339  1
  Si  Si1  1  0.04343853  0.54344060  0.83506093  1
  Si  Si2  1  0.54339425  0.70833182  0.49996689  1
  Si  Si3  1  0.79167019  0.95659333  0.50003072  1
  Si  Si4  1  0.45660558  0.29167044  0.50003344  1
  Si  Si5  1  0.95656681  0.45657345  0.16495364  1
  Si  Si6  1  0.70831258  0.20832040  0.16489083  1
  Si  Si7  1  0.20833361  0.04338680  0.49997129  1
loop_
_geom_bond_atom_site_label_1
_geom_bond_atom_site_label_2
_geom_bond_distance
_geom_bond_site_symmetry_2
Nd0 Si4 3.211191 1_554
Nd0 Si7 3.211291 1_665
Nd0 Si0 3.211930 1_554
Nd0 Si6 3.212032 1_565
Nd0 Si5 3.212156 1_555
Nd0 Si1 3.212233 1_654
Nd0 Si3 3.212748 1_555
Nd0 Si2 3.212828 1_554
Nd1 Si2 3.211212 1_555
Nd1 Si3 3.211306 1_444
Nd1 Si6 3.211852 1_555
Nd1 Si0 3.211947 1_544
Nd1 Si1 3.212221 1_554
Nd1 Si5 3.212319 1_455
Nd1 Si7 3.212714 1_554
Nd1 Si4 3.212811 1_555
Co0 Si4 2.306556 1_555
Co0 Si2 2.315125 1_555
Co0 Si1 2.382563 1_655
Co0 Si6 2.382897 1_555
Co0 Co14 2.505364 1_655
Co0 Co11 2.523526 1_555
Co0 Co9 2.524165 1_555
Co0 Co3 2.549232 1_555
Co0 Co13 2.550519 1_555
Co0 Nd1 3.131089 1_555
Co0 Nd0 3.131780 1_556
Co1 Si0 2.306952 1_555
Co1 Si6 2.315125 1_566
Co1 Si7 2.382369 1_565
Co1 Si2 2.382471 1_555
Co1 Co15 2.505369 1_565
Co1 Co6 2.523634 1_565
Co1 Co8 2.523643 1_565
Co1 Co12 2.549216 1_555
Co1 Co17 2.549225 1_555
Co1 Nd1 3.132105 1_566
Co1 Nd0 3.132229 1_556
Co2 Si5 2.306151 1_455
Co2 Si1 2.314955 1_554
Co2 Si7 2.382803 1_565
Co2 Si2 2.382836 1_555
Co2 Co5 2.524217 1_555
Co2 Co7 2.524266 1_555
Co2 Nd1 3.130759 1_555
Co2 Nd0 3.130787 1_455
Co3 Si6 2.307030 1_555
Co3 Si0 2.315202 1_544
Co3 Si4 2.382459 1_555
Co3 Si3 2.382509 1_545
Co3 Co5 2.523643 1_545
Co3 Co7 2.523673 1_545
Co3 Co4 2.549213 1_555
Co3 Nd0 3.132163 1_545
Co3 Nd1 3.132183 1_555
Co4 Si3 2.306594 1_545
Co4 Si7 2.315174 1_655
Co4 Si1 2.382560 1_655
Co4 Si6 2.382970 1_555
Co4 Nd0 3.131163 1_545
Co4 Nd1 3.131747 1_656
Co5 Si1 2.500575 1_554
Co5 Si0 2.501620 1_554
Co5 Si4 2.534769 1_565
Co5 Si7 2.535512 1_565
Co5 Co7 2.562305 1_555
Co5 Nd0 3.304922 1_455
Co5 Nd1 3.305721 1_565
Co6 Si5 2.500718 1_556
Co6 Si6 2.501584 1_556
Co6 Si2 2.534709 1_545
Co6 Si3 2.535447 1_545
Co6 Co8 2.562297 1_555
Co6 Nd1 3.304958 1_656
Co6 Nd0 3.305713 1_546
Co7 Co9 2.261509 1_555
Co7 Si1 2.500672 1_554
Co7 Si0 2.501705 1_554
Co7 Si3 2.534687 1_555
Co7 Si2 2.535432 1_555
Co7 Nd1 3.304765 1_555
Co7 Nd0 3.305547 1_555
Co8 Co9 2.262067 1_556
Co8 Si5 2.500676 1_556
Co8 Si6 2.501534 1_556
Co8 Si7 2.534745 1_555
Co8 Si4 2.535488 1_555
Co8 Nd0 3.304766 1_556
Co8 Nd1 3.305522 1_556
Co9 Si3 2.500675 1_555
Co9 Si2 2.501094 1_555
Co9 Si6 2.535318 1_555
Co9 Si5 2.535440 1_555
Co9 Nd1 3.304516 1_555
Co9 Nd0 3.305797 1_555
Co10 Co8 2.261552 1_555
Co10 Co7 2.262076 1_556
Co10 Co14 2.390549 1_555
Co10 Si7 2.500835 1_555
Co10 Si4 2.501089 1_555
Co10 Co4 2.523578 1_455
Co10 Co12 2.524194 1_555
Co10 Si0 2.535360 1_555
Co10 Si1 2.535485 1_555
Co10 Co16 2.561896 1_555
Co10 Nd0 3.304499 1_556
Co10 Nd1 3.305815 1_556
Co11 Co6 2.261600 1_565
Co11 Co5 2.262159 1_656
Co11 Co14 2.390395 1_655
Co11 Si2 2.500750 1_555
Co11 Si3 2.500983 1_555
Co11 Co17 2.524137 1_655
Co11 Si0 2.535357 1_655
Co11 Si1 2.535490 1_655
Co11 Co9 2.561826 1_555
Co11 Nd1 3.304660 1_666
Co11 Nd0 3.305979 1_556
Co12 Si2 2.306518 1_555
Co12 Si4 2.315125 1_555
Co12 Si5 2.382537 1_455
Co12 Si0 2.382855 1_555
Co12 Co14 2.505484 1_555
Co12 Co16 2.523580 1_555
Co12 Co2 2.550476 1_555
Co12 Nd0 3.131092 1_556
Co12 Nd1 3.131791 1_555
Co13 Si1 2.306224 1_655
Co13 Si5 2.315006 1_556
Co13 Si4 2.382822 1_555
Co13 Si3 2.382936 1_545
Co13 Co15 2.505516 1_555
Co13 Co6 2.524222 1_555
Co13 Co8 2.524228 1_555
Co13 Co4 2.550511 1_555
Co13 Nd0 3.130710 1_556
Co13 Nd1 3.130847 1_656
Co14 Si0 2.319559 1_555
Co14 Si6 2.319568 1_455
Co14 Si5 2.320075 1_455
Co14 Si1 2.320125 1_555
Co14 Co9 2.390422 1_455
Co14 Co16 2.390522 1_555
Co14 Co17 2.505384 1_555
Co14 Co4 2.505458 1_455
Co15 Si7 2.319859 1_555
Co15 Si4 2.319866 1_555
Co15 Si2 2.319873 1_545
Co15 Si3 2.319892 1_545
Co15 Co6 2.390209 1_555
Co15 Co5 2.390236 1_545
Co15 Co8 2.390267 1_555
Co15 Co7 2.390272 1_545
Co15 Co3 2.505356 1_555
Co15 Co2 2.505566 1_545
Co16 Co5 2.261624 1_545
Co16 Co6 2.262139 1_454
Co16 Si4 2.500767 1_555
Co16 Si7 2.501167 1_555
Co16 Co4 2.524188 1_455
Co16 Si6 2.535379 1_455
Co16 Si5 2.535506 1_455
Co16 Nd0 3.304658 1_445
Co16 Nd1 3.305956 1_555
Co17 Si7 2.306483 1_565
Co17 Si3 2.315071 1_455
Co17 Si5 2.382459 1_455
Co17 Si0 2.382857 1_555
Co17 Co9 2.523533 1_455
Co17 Co2 2.550485 1_555
Co17 Nd1 3.131151 1_566
Co17 Nd0 3.131729 1_455
