# generated using pymatgen
data_CsY(MoO4)2
_symmetry_space_group_name_H-M   'P 1'
_cell_length_a   5.11195400
_cell_length_b   8.35068900
_cell_length_c   9.78968675
_cell_angle_alpha   87.95552797
_cell_angle_beta   90.00000000
_cell_angle_gamma   90.00000000
_symmetry_Int_Tables_number   1
_chemical_formula_structural   CsY(MoO4)2
_chemical_formula_sum   'Cs2 Y2 Mo4 O16'
_cell_volume   417.63943420
_cell_formula_units_Z   2
loop_
 _symmetry_equiv_pos_site_id
 _symmetry_equiv_pos_as_xyz
  1  'x, y, z'
loop_
 _atom_site_type_symbol
 _atom_site_label
 _atom_site_symmetry_multiplicity
 _atom_site_fract_x
 _atom_site_fract_y
 _atom_site_fract_z
 _atom_site_occupancy
  Cs  Cs0  1  0.03685100  0.25000000  0.50000000  1
  Cs  Cs1  1  0.96314900  0.75000000  0.50000000  1
  Y  Y0  1  0.00007800  0.25000000  0.00000000  1
  Y  Y1  1  0.99992200  0.75000000  0.00000000  1
  Mo  Mo0  1  0.47482700  0.49213400  0.19023200  1
  Mo  Mo1  1  0.47482700  0.00786600  0.80976800  1
  Mo  Mo2  1  0.52517300  0.50786600  0.80976800  1
  Mo  Mo3  1  0.52517300  0.99213400  0.19023200  1
  O  O0  1  0.61121800  0.48369500  0.35514500  1
  O  O1  1  0.61121800  0.01630500  0.64485500  1
  O  O2  1  0.38878200  0.51630500  0.64485500  1
  O  O3  1  0.38878200  0.98369500  0.35514500  1
  O  O4  1  0.26014600  0.32045900  0.17858300  1
  O  O5  1  0.26014600  0.17954100  0.82141700  1
  O  O6  1  0.73985400  0.67954100  0.82141700  1
  O  O7  1  0.73985400  0.82045900  0.17858300  1
  O  O8  1  0.26008200  0.66454900  0.17923700  1
  O  O9  1  0.26008200  0.83545100  0.82076300  1
  O  O10  1  0.73991800  0.33545100  0.82076300  1
  O  O11  1  0.73991800  0.16454900  0.17923700  1
  O  O12  1  0.24943500  0.99784800  0.06674700  1
  O  O13  1  0.24943500  0.50215200  0.93325300  1
  O  O14  1  0.75056500  0.00215200  0.93325300  1
  O  O15  1  0.75056500  0.49784800  0.06674700  1
loop_
_geom_bond_atom_site_label_1
_geom_bond_atom_site_label_2
_geom_bond_distance
_geom_bond_site_symmetry_2
Cs0 O1 3.218089 1_455
Cs0 O0 3.218089 1_455
Cs0 O2 3.227692 1_555
Cs0 O3 3.227692 1_545
Cs0 O4 3.379049 1_555
Cs0 O5 3.379049 1_555
Cs0 O11 3.582426 1_455
Cs0 O10 3.582426 1_455
Cs1 O3 3.218089 1_655
Cs1 O2 3.218089 1_655
Cs1 O0 3.227692 1_555
Cs1 O1 3.227692 1_565
Cs1 O6 3.379049 1_555
Cs1 O7 3.379049 1_555
Cs1 O9 3.582426 1_655
Cs1 O8 3.582426 1_655
Mo0 O0 1.757671 1_555
Mo0 O8 1.810690 1_555
Mo0 O4 1.812254 1_555
Mo0 O15 1.856451 1_555
Mo1 O1 1.757671 1_555
Mo1 O9 1.810690 1_545
Mo1 O5 1.812254 1_555
Mo1 O14 1.856451 1_555
Mo2 O2 1.757671 1_555
Mo2 O10 1.810690 1_555
Mo2 O6 1.812254 1_555
Mo2 O13 1.856451 1_555
Mo3 O3 1.757671 1_555
Mo3 O11 1.810690 1_565
Mo3 O7 1.812254 1_555
Mo3 O12 1.856451 1_555
O4 Y0 2.289867 1_555
O5 Y0 2.289867 1_556
O6 Y1 2.289867 1_556
O7 Y1 2.289867 1_555
O8 Y1 2.295090 1_455
O9 Y1 2.295090 1_456
O10 Y0 2.295090 1_656
O11 Y0 2.295090 1_655
O12 Y0 2.527330 1_565
O12 Y1 2.536539 1_455
O13 Y0 2.527330 1_556
O13 Y1 2.536539 1_456
O14 Y1 2.527330 1_546
O14 Y0 2.536539 1_656
O15 Y1 2.527330 1_555
O15 Y0 2.536539 1_655
