# generated using pymatgen
data_Cr3N2
_symmetry_space_group_name_H-M   'P 1'
_cell_length_a   7.92175261
_cell_length_b   7.92175261
_cell_length_c   7.92175261
_cell_angle_alpha   109.47122063
_cell_angle_beta   109.47122063
_cell_angle_gamma   109.47122063
_symmetry_Int_Tables_number   1
_chemical_formula_structural   Cr3N2
_chemical_formula_sum   'Cr24 N16'
_cell_volume   382.68543699
_cell_formula_units_Z   8
loop_
 _symmetry_equiv_pos_site_id
 _symmetry_equiv_pos_as_xyz
  1  'x, y, z'
loop_
 _atom_site_type_symbol
 _atom_site_label
 _atom_site_symmetry_multiplicity
 _atom_site_fract_x
 _atom_site_fract_y
 _atom_site_fract_z
 _atom_site_occupancy
  Cr  Cr0  1  0.77656500  0.55253200  0.50779500  1
  Cr  Cr1  1  0.72343500  0.23123000  0.77596600  1
  Cr  Cr2  1  0.54473600  0.26877000  0.99220500  1
  Cr  Cr3  1  0.95526400  0.94746800  0.72403400  1
  Cr  Cr4  1  0.55253200  0.50779500  0.77656500  1
  Cr  Cr5  1  0.23123000  0.77596600  0.72343500  1
  Cr  Cr6  1  0.26877000  0.99220500  0.54473600  1
  Cr  Cr7  1  0.94746800  0.72403400  0.95526400  1
  Cr  Cr8  1  0.50779500  0.77656500  0.55253200  1
  Cr  Cr9  1  0.77596600  0.72343500  0.23123000  1
  Cr  Cr10  1  0.99220500  0.54473600  0.26877000  1
  Cr  Cr11  1  0.72403400  0.95526400  0.94746800  1
  Cr  Cr12  1  0.22343500  0.44746800  0.49220500  1
  Cr  Cr13  1  0.27656500  0.76877000  0.22403400  1
  Cr  Cr14  1  0.45526400  0.73123000  0.00779500  1
  Cr  Cr15  1  0.04473600  0.05253200  0.27596600  1
  Cr  Cr16  1  0.44746800  0.49220500  0.22343500  1
  Cr  Cr17  1  0.76877000  0.22403400  0.27656500  1
  Cr  Cr18  1  0.73123000  0.00779500  0.45526400  1
  Cr  Cr19  1  0.05253200  0.27596600  0.04473600  1
  Cr  Cr20  1  0.49220500  0.22343500  0.44746800  1
  Cr  Cr21  1  0.22403400  0.27656500  0.76877000  1
  Cr  Cr22  1  0.00779500  0.45526400  0.73123000  1
  Cr  Cr23  1  0.27596600  0.04473600  0.05253200  1
  N  N0  1  0.00000000  0.50000000  0.50000000  1
  N  N1  1  0.50000000  0.00000000  0.50000000  1
  N  N2  1  0.50000000  0.50000000  0.00000000  1
  N  N3  1  0.00000000  0.00000000  0.00000000  1
  N  N4  1  0.75000000  0.95630300  0.20630300  1
  N  N5  1  0.25000000  0.54369700  0.29369700  1
  N  N6  1  0.95630300  0.20630300  0.75000000  1
  N  N7  1  0.54369700  0.29369700  0.25000000  1
  N  N8  1  0.20630300  0.75000000  0.95630300  1
  N  N9  1  0.29369700  0.25000000  0.54369700  1
  N  N10  1  0.25000000  0.04369700  0.79369700  1
  N  N11  1  0.75000000  0.45630300  0.70630300  1
  N  N12  1  0.04369700  0.79369700  0.25000000  1
  N  N13  1  0.45630300  0.70630300  0.75000000  1
  N  N14  1  0.79369700  0.25000000  0.04369700  1
  N  N15  1  0.70630300  0.75000000  0.45630300  1
loop_
_geom_bond_atom_site_label_1
_geom_bond_atom_site_label_2
_geom_bond_distance
_geom_bond_site_symmetry_2
Cr0 N15 1.943627 1_555
Cr0 N0 1.963839 1_655
Cr0 N7 1.988229 1_555
Cr0 N11 2.002768 1_555
Cr1 N14 1.943635 1_556
Cr1 N1 1.963835 1_555
Cr1 N6 1.988226 1_555
Cr1 N11 2.002763 1_555
Cr2 N14 1.943635 1_556
Cr2 N2 1.963835 1_556
Cr2 N7 1.988226 1_556
Cr2 N10 2.002763 1_555
Cr3 N15 1.943634 1_555
Cr3 N3 1.963833 1_666
Cr3 N6 1.988234 1_565
Cr3 N10 2.002762 1_665
Cr4 N11 1.943627 1_555
Cr4 N2 1.963839 1_556
Cr4 N9 1.988229 1_555
Cr4 N13 2.002768 1_555
Cr5 N10 1.943635 1_565
Cr5 N0 1.963835 1_555
Cr5 N8 1.988226 1_555
Cr5 N13 2.002763 1_555
Cr6 N10 1.943635 1_565
Cr6 N1 1.963835 1_565
Cr6 N9 1.988226 1_565
Cr6 N12 2.002763 1_555
Cr7 N11 1.943634 1_555
Cr7 N3 1.963833 1_666
Cr7 N8 1.988234 1_655
Cr7 N12 2.002762 1_656
Cr8 N13 1.943627 1_555
Cr8 N1 1.963839 1_565
Cr8 N5 1.988229 1_555
Cr8 N15 2.002768 1_555
Cr9 N12 1.943635 1_655
Cr9 N2 1.963835 1_555
Cr9 N4 1.988226 1_555
Cr9 N15 2.002763 1_555
Cr10 N12 1.943635 1_655
Cr10 N0 1.963835 1_655
Cr10 N5 1.988226 1_655
Cr10 N14 2.002763 1_555
Cr11 N13 1.943634 1_555
Cr11 N3 1.963833 1_666
Cr11 N4 1.988234 1_556
Cr11 N14 2.002762 1_566
Cr12 N9 1.943627 1_555
Cr12 N0 1.963839 1_555
Cr12 N13 1.988229 1_555
Cr12 N5 2.002768 1_555
Cr13 N8 1.943635 1_554
Cr13 N1 1.963835 1_565
Cr13 N12 1.988226 1_555
Cr13 N5 2.002763 1_555
Cr14 N8 1.943635 1_554
Cr14 N2 1.963835 1_555
Cr14 N13 1.988226 1_554
Cr14 N4 2.002763 1_555
Cr15 N9 1.943634 1_555
Cr15 N3 1.963833 1_555
Cr15 N12 1.988234 1_545
Cr15 N4 2.002762 1_445
Cr16 N5 1.943627 1_555
Cr16 N2 1.963839 1_555
Cr16 N15 1.988229 1_555
Cr16 N7 2.002768 1_555
Cr17 N4 1.943635 1_545
Cr17 N0 1.963835 1_655
Cr17 N14 1.988226 1_555
Cr17 N7 2.002763 1_555
Cr18 N4 1.943635 1_545
Cr18 N1 1.963835 1_555
Cr18 N15 1.988226 1_545
Cr18 N6 2.002763 1_555
Cr19 N5 1.943634 1_555
Cr19 N3 1.963833 1_555
Cr19 N14 1.988234 1_455
Cr19 N6 2.002762 1_454
Cr20 N7 1.943627 1_555
Cr20 N1 1.963839 1_555
Cr20 N11 1.988229 1_555
Cr20 N9 2.002768 1_555
Cr21 N6 1.943635 1_455
Cr21 N2 1.963835 1_556
Cr21 N10 1.988226 1_555
Cr21 N9 2.002763 1_555
Cr22 N6 1.943635 1_455
Cr22 N0 1.963835 1_555
Cr22 N11 1.988226 1_455
Cr22 N8 2.002763 1_555
Cr23 N7 1.943634 1_555
Cr23 N3 1.963833 1_555
Cr23 N10 1.988234 1_554
Cr23 N8 2.002762 1_544
