# generated using pymatgen
data_GdB4
_symmetry_space_group_name_H-M   'P 1'
_cell_length_a   4.04503389
_cell_length_b   7.13801637
_cell_length_c   7.13801655
_cell_angle_alpha   89.99999446
_cell_angle_beta   90.00000239
_cell_angle_gamma   90.00000117
_symmetry_Int_Tables_number   1
_chemical_formula_structural   GdB4
_chemical_formula_sum   'Gd4 B16'
_cell_volume   206.09965023
_cell_formula_units_Z   4
loop_
 _symmetry_equiv_pos_site_id
 _symmetry_equiv_pos_as_xyz
  1  'x, y, z'
loop_
 _atom_site_type_symbol
 _atom_site_label
 _atom_site_symmetry_multiplicity
 _atom_site_fract_x
 _atom_site_fract_y
 _atom_site_fract_z
 _atom_site_occupancy
  Gd  Gd0  1  0.00000000  0.31698993  0.81698994  1
  Gd  Gd1  1  -0.00000000  0.68301007  0.18301006  1
  Gd  Gd2  1  -0.00000000  0.18301017  0.31698972  1
  Gd  Gd3  1  0.00000000  0.81698983  0.68301028  1
  B  B0  1  0.79656395  0.50000000  0.50000001  1
  B  B1  1  0.79656394  0.00000001  0.00000001  1
  B  B2  1  0.20343605  0.50000000  0.49999999  1
  B  B3  1  0.20343606  -0.00000001  -0.00000001  1
  B  B4  1  0.49999998  0.53852976  0.67538210  1
  B  B5  1  0.50000002  0.46147024  0.32461790  1
  B  B6  1  0.49999999  0.96147012  0.17538212  1
  B  B7  1  0.50000001  0.03852988  0.82461788  1
  B  B8  1  0.50000001  0.67538213  0.46147015  1
  B  B9  1  0.49999999  0.32461787  0.53852985  1
  B  B10  1  0.49999998  0.17538213  0.03852975  1
  B  B11  1  0.50000002  0.82461787  0.96147025  1
  B  B12  1  0.50000001  0.58753178  0.91246820  1
  B  B13  1  0.49999999  0.41246822  0.08753180  1
  B  B14  1  0.50000002  0.91246827  0.41246823  1
  B  B15  1  0.49999998  0.08753173  0.58753177  1
loop_
_geom_bond_atom_site_label_1
_geom_bond_atom_site_label_2
_geom_bond_distance
_geom_bond_site_symmetry_2
B0 B2 1.645811 1_655
B0 B5 1.755537 1_555
B0 B4 1.755537 1_555
B0 B8 1.755537 1_555
B0 B9 1.755537 1_555
B0 Gd0 2.739231 1_655
B0 Gd1 2.739231 1_655
B0 Gd3 2.739231 1_655
B0 Gd2 2.739231 1_655
B1 B3 1.645812 1_655
B1 B11 1.755537 1_544
B1 B10 1.755537 1_555
B1 B7 1.755537 1_554
B1 B6 1.755537 1_545
B1 Gd2 2.739230 1_655
B1 Gd3 2.739230 1_644
B1 Gd0 2.739231 1_654
B1 Gd1 2.739231 1_645
B2 B4 1.755537 1_555
B2 B5 1.755537 1_555
B2 B9 1.755537 1_555
B2 B8 1.755537 1_555
B2 Gd1 2.739231 1_555
B2 Gd0 2.739231 1_555
B2 Gd2 2.739231 1_555
B2 Gd3 2.739231 1_555
B3 B6 1.755537 1_545
B3 B7 1.755537 1_554
B3 Gd3 2.739230 1_544
B3 Gd2 2.739230 1_555
B3 Gd1 2.739231 1_545
B3 Gd0 2.739231 1_554
B4 B9 1.812646 1_555
B4 B8 1.812647 1_555
B4 Gd0 2.759162 1_555
B4 Gd0 2.759162 1_655
B4 Gd3 2.836248 1_555
B4 Gd3 2.836248 1_655
B5 B8 1.812646 1_555
B5 B9 1.812647 1_555
B5 Gd1 2.759162 1_655
B5 Gd1 2.759162 1_555
B5 Gd2 2.836248 1_655
B5 Gd2 2.836248 1_555
B6 Gd2 2.759162 1_665
B6 Gd2 2.759162 1_565
B6 Gd1 2.836248 1_555
B6 Gd1 2.836248 1_655
B7 Gd3 2.759162 1_545
B7 Gd3 2.759162 1_645
B7 Gd0 2.836248 1_655
B7 Gd0 2.836248 1_555
B8 Gd3 2.759162 1_655
B8 Gd3 2.759163 1_555
B8 Gd1 2.836248 1_555
B8 Gd1 2.836248 1_655
B9 Gd2 2.759162 1_555
B9 Gd2 2.759163 1_655
B9 Gd0 2.836248 1_655
B9 Gd0 2.836248 1_555
B10 B13 1.728093 1_555
B10 B3 1.755537 1_555
B10 B7 1.812646 1_554
B10 B6 1.812647 1_545
B10 Gd0 2.759161 1_554
B10 Gd0 2.759162 1_654
B10 Gd2 2.836247 1_655
B10 Gd2 2.836247 1_555
B11 B12 1.728093 1_555
B11 B3 1.755537 1_566
B11 B6 1.812646 1_556
B11 B7 1.812647 1_565
B11 Gd1 2.759161 1_656
B11 Gd1 2.759162 1_556
B11 Gd3 2.836247 1_555
B11 Gd3 2.836247 1_655
B12 B4 1.728093 1_555
B12 B13 1.767211 1_556
B12 Gd0 2.878250 1_555
B12 Gd0 2.878250 1_655
B12 Gd1 2.878250 1_656
B12 Gd1 2.878250 1_556
B12 Gd3 3.075035 1_655
B12 Gd3 3.075035 1_555
B13 B5 1.728093 1_555
B13 Gd1 2.878250 1_655
B13 Gd1 2.878250 1_555
B13 Gd0 2.878250 1_554
B13 Gd0 2.878250 1_654
B13 Gd2 3.075035 1_555
B13 Gd2 3.075035 1_655
B14 B6 1.728093 1_555
B14 B8 1.728093 1_555
B14 B15 1.767210 1_565
B14 Gd2 2.878251 1_665
B14 Gd2 2.878251 1_565
B14 Gd3 2.878251 1_655
B14 Gd3 2.878251 1_555
B14 Gd1 3.075037 1_555
B14 Gd1 3.075037 1_655
B15 B7 1.728093 1_555
B15 B9 1.728093 1_555
B15 Gd3 2.878251 1_545
B15 Gd3 2.878251 1_645
B15 Gd2 2.878251 1_555
B15 Gd2 2.878251 1_655
B15 Gd0 3.075037 1_655
B15 Gd0 3.075037 1_555
