# generated using pymatgen
data_Yb(SbSe2)2
_symmetry_space_group_name_H-M   'P 1'
_cell_length_a   12.29711500
_cell_length_b   4.06504700
_cell_length_c   15.16818100
_cell_angle_alpha   90.00000000
_cell_angle_beta   90.00000000
_cell_angle_gamma   90.00000000
_symmetry_Int_Tables_number   1
_chemical_formula_structural   Yb(SbSe2)2
_chemical_formula_sum   'Yb4 Sb8 Se16'
_cell_volume   758.23234736
_cell_formula_units_Z   4
loop_
 _symmetry_equiv_pos_site_id
 _symmetry_equiv_pos_as_xyz
  1  'x, y, z'
loop_
 _atom_site_type_symbol
 _atom_site_label
 _atom_site_symmetry_multiplicity
 _atom_site_fract_x
 _atom_site_fract_y
 _atom_site_fract_z
 _atom_site_occupancy
  Yb  Yb0  1  0.24137000  0.25000000  0.33833700  1
  Yb  Yb1  1  0.74137000  0.25000000  0.16166300  1
  Yb  Yb2  1  0.75863000  0.75000000  0.66166300  1
  Yb  Yb3  1  0.25863000  0.75000000  0.83833700  1
  Sb  Sb0  1  0.07466400  0.25000000  0.59962900  1
  Sb  Sb1  1  0.57466400  0.25000000  0.90037100  1
  Sb  Sb2  1  0.92533600  0.75000000  0.40037100  1
  Sb  Sb3  1  0.42533600  0.75000000  0.09962900  1
  Sb  Sb4  1  0.07305200  0.25000000  0.11439500  1
  Sb  Sb5  1  0.57305200  0.25000000  0.38560500  1
  Sb  Sb6  1  0.92694800  0.75000000  0.88560500  1
  Sb  Sb7  1  0.42694800  0.75000000  0.61439500  1
  Se  Se0  1  0.35711600  0.25000000  0.96865700  1
  Se  Se1  1  0.85711600  0.25000000  0.53134300  1
  Se  Se2  1  0.64288400  0.75000000  0.03134300  1
  Se  Se3  1  0.14288400  0.75000000  0.46865700  1
  Se  Se4  1  0.28028300  0.25000000  0.69163000  1
  Se  Se5  1  0.78028300  0.25000000  0.80837000  1
  Se  Se6  1  0.71971700  0.75000000  0.30837000  1
  Se  Se7  1  0.21971700  0.75000000  0.19163000  1
  Se  Se8  1  0.08594900  0.25000000  0.91519900  1
  Se  Se9  1  0.58594900  0.25000000  0.58480100  1
  Se  Se10  1  0.91405100  0.75000000  0.08480100  1
  Se  Se11  1  0.41405100  0.75000000  0.41519900  1
  Se  Se12  1  0.99744000  0.25000000  0.28845600  1
  Se  Se13  1  0.49744000  0.25000000  0.21154400  1
  Se  Se14  1  0.00256000  0.75000000  0.71154400  1
  Se  Se15  1  0.50256000  0.75000000  0.78845600  1
loop_
_geom_bond_atom_site_label_1
_geom_bond_atom_site_label_2
_geom_bond_distance
_geom_bond_site_symmetry_2
Sb0 Se14 2.792670 1_545
Sb0 Se14 2.792670 1_555
Sb0 Se1 2.868727 1_455
Sb0 Se4 2.888045 1_555
Sb0 Se3 2.963364 1_545
Sb0 Se3 2.963364 1_555
Sb1 Se15 2.792670 1_545
Sb1 Se15 2.792670 1_555
Sb1 Se0 2.868727 1_555
Sb1 Se5 2.888045 1_555
Sb1 Se2 2.963364 1_546
Sb1 Se2 2.963364 1_556
Sb2 Se12 2.792670 1_555
Sb2 Se12 2.792670 1_565
Sb2 Se3 2.868727 1_655
Sb2 Se6 2.888045 1_555
Sb2 Se1 2.963364 1_555
Sb2 Se1 2.963364 1_565
Sb3 Se13 2.792670 1_565
Sb3 Se13 2.792670 1_555
Sb3 Se2 2.868727 1_555
Sb3 Se7 2.888045 1_555
Sb3 Se0 2.963364 1_564
Sb3 Se0 2.963364 1_554
Sb4 Se12 2.799132 1_455
Sb4 Se10 2.855813 1_455
Sb4 Se10 2.855813 1_445
Sb4 Se7 2.959124 1_555
Sb4 Se7 2.959124 1_545
Sb4 Se8 3.025600 1_554
Sb5 Se13 2.799132 1_555
Sb5 Se11 2.855813 1_545
Sb5 Se11 2.855813 1_555
Sb5 Se6 2.959124 1_555
Sb5 Se6 2.959124 1_545
Sb5 Se9 3.025600 1_555
Sb6 Se14 2.799132 1_655
Sb6 Se8 2.855813 1_665
Sb6 Se8 2.855813 1_655
Sb6 Se5 2.959124 1_565
Sb6 Se5 2.959124 1_555
Sb6 Se10 3.025600 1_556
Sb7 Se15 2.799132 1_555
Sb7 Se9 2.855813 1_565
Sb7 Se9 2.855813 1_555
Sb7 Se4 2.959124 1_565
Sb7 Se4 2.959124 1_555
Sb7 Se11 3.025600 1_555
Se0 Yb3 3.083068 1_555
Se0 Yb3 3.083068 1_545
Se1 Yb2 3.083068 1_555
Se1 Yb2 3.083068 1_545
Se2 Yb1 3.083068 1_565
Se2 Yb1 3.083068 1_555
Se3 Yb0 3.083068 1_565
Se3 Yb0 3.083068 1_555
Se4 Yb3 3.025544 1_555
Se4 Yb3 3.025544 1_545
Se5 Yb2 3.025544 1_545
Se5 Yb2 3.025544 1_555
Se6 Yb1 3.025544 1_565
Se6 Yb1 3.025544 1_555
Se7 Yb0 3.025544 1_565
Se7 Yb0 3.025544 1_555
Se8 Yb3 3.162204 1_555
Se8 Yb3 3.162204 1_545
Se9 Yb2 3.162204 1_555
Se9 Yb2 3.162204 1_545
Se10 Yb1 3.162204 1_555
Se10 Yb1 3.162204 1_565
Se11 Yb0 3.162204 1_565
Se11 Yb0 3.162204 1_555
Se12 Yb0 3.093584 1_655
Se12 Yb1 3.689781 1_555
Se13 Yb1 3.093584 1_555
Se13 Yb0 3.689781 1_555
Se14 Yb2 3.093584 1_455
Se14 Yb3 3.689781 1_555
Se15 Yb3 3.093584 1_555
Se15 Yb2 3.689781 1_555
