# generated using pymatgen
data_Rb3LiErV2O8
_symmetry_space_group_name_H-M   'P 1'
_cell_length_a   6.10946858
_cell_length_b   6.16833386
_cell_length_c   7.95082827
_cell_angle_alpha   84.34965012
_cell_angle_beta   94.29376946
_cell_angle_gamma   119.49251310
_symmetry_Int_Tables_number   1
_chemical_formula_structural   Rb3LiErV2O8
_chemical_formula_sum   'Rb3 Li1 Er1 V2 O8'
_cell_volume   259.41525185
_cell_formula_units_Z   1
loop_
 _symmetry_equiv_pos_site_id
 _symmetry_equiv_pos_as_xyz
  1  'x, y, z'
loop_
 _atom_site_type_symbol
 _atom_site_label
 _atom_site_symmetry_multiplicity
 _atom_site_fract_x
 _atom_site_fract_y
 _atom_site_fract_z
 _atom_site_occupancy
  Rb  Rb0  1  0.65902100  0.33969600  0.31022200  1
  Rb  Rb1  1  0.36321500  0.64643600  0.67534900  1
  Rb  Rb2  1  0.00132000  0.08990400  0.03012700  1
  Li  Li0  1  0.00613800  0.65177500  0.90971900  1
  Er  Er0  1  0.00022800  0.99081300  0.51174100  1
  V  V0  1  0.67117900  0.30142000  0.74213700  1
  V  V1  1  0.32326900  0.68311700  0.25061600  1
  O  O0  1  0.72070000  0.33767500  0.96125000  1
  O  O1  1  0.29983500  0.69208700  0.03203600  1
  O  O2  1  0.87025800  0.64326600  0.67398700  1
  O  O3  1  0.17257600  0.36813900  0.32970500  1
  O  O4  1  0.82279200  0.14090600  0.65817600  1
  O  O5  1  0.17266800  0.83450800  0.32457400  1
  O  O6  1  0.34939400  0.16162100  0.65804900  1
  O  O7  1  0.64032300  0.82697100  0.32397900  1
loop_
_geom_bond_atom_site_label_1
_geom_bond_atom_site_label_2
_geom_bond_distance
_geom_bond_site_symmetry_2
Li0 O1 1.890572 1_556
Li0 O0 1.893858 1_455
Li0 O2 1.987024 1_455
Li0 Rb2 2.968675 1_566
Er0 O6 2.161171 1_565
Er0 O4 2.185699 1_465
Er0 O2 2.196164 1_455
Er0 O7 2.387969 1_455
Er0 O5 2.402376 1_555
Er0 O3 2.402595 1_565
O0 V0 1.762877 1_555
O0 Rb2 2.801704 1_656
O0 Rb0 2.829955 1_556
O1 V1 1.730733 1_555
O1 Rb1 2.949734 1_554
O1 Rb2 3.234260 1_555
O2 V0 1.888831 1_555
O2 Rb1 3.001340 1_655
O2 Rb1 3.108270 1_555
O2 Rb0 3.415403 1_555
O3 V1 1.761458 1_555
O3 Rb2 2.894367 1_555
O3 Rb0 3.047877 1_455
O3 Rb0 3.078111 1_555
O3 Rb1 3.215085 1_555
O4 V0 1.846530 1_555
O4 Rb1 2.957756 1_545
O4 Rb2 3.115447 1_656
O4 Rb0 3.206845 1_555
O4 Rb1 3.243853 1_655
O5 V1 1.760547 1_555
O5 Rb0 3.068616 1_565
O5 Rb2 3.096609 1_565
O5 Rb0 3.124214 1_455
O5 Rb1 3.268907 1_555
O6 V0 1.817416 1_555
O6 Rb1 2.966441 1_555
O6 Rb1 3.209527 1_545
O6 Rb0 3.251501 1_555
O7 V1 1.766370 1_555
O7 Rb2 3.075175 1_665
O7 Rb0 3.076325 1_555
O7 Rb0 3.099266 1_565
O7 Rb1 3.185947 1_555
