# generated using pymatgen
data_CrMoO3
_symmetry_space_group_name_H-M   'P 1'
_cell_length_a   3.97026825
_cell_length_b   3.97026825
_cell_length_c   3.97026847
_cell_angle_alpha   80.63273246
_cell_angle_beta   80.63273246
_cell_angle_gamma   80.63274194
_symmetry_Int_Tables_number   1
_chemical_formula_structural   CrMoO3
_chemical_formula_sum   'Cr1 Mo1 O3'
_cell_volume   60.32568395
_cell_formula_units_Z   1
loop_
 _symmetry_equiv_pos_site_id
 _symmetry_equiv_pos_as_xyz
  1  'x, y, z'
loop_
 _atom_site_type_symbol
 _atom_site_label
 _atom_site_symmetry_multiplicity
 _atom_site_fract_x
 _atom_site_fract_y
 _atom_site_fract_z
 _atom_site_occupancy
  Cr  Cr0  1  0.80040200  0.80040200  0.80040200  1
  Mo  Mo0  1  0.19202800  0.19202800  0.19202800  1
  O  O0  1  0.97139400  0.72104900  0.31512700  1
  O  O1  1  0.72104900  0.31512700  0.97139400  1
  O  O2  1  0.31512700  0.97139400  0.72104900  1
loop_
_geom_bond_atom_site_label_1
_geom_bond_atom_site_label_2
_geom_bond_distance
_geom_bond_site_symmetry_2
Cr0 O1 1.993588 1_555
Cr0 O2 1.993588 1_555
Cr0 O0 1.993588 1_555
Cr0 O2 2.215590 1_655
Cr0 O1 2.215590 1_565
Cr0 O0 2.215590 1_556
Mo0 O0 2.144556 1_445
Mo0 O1 2.144556 1_454
Mo0 O2 2.144556 1_544
Mo0 O1 2.239099 1_554
Mo0 O2 2.239099 1_545
Mo0 O0 2.239099 1_455
