# generated using pymatgen
data_Ba2Li3La3(MoO4)8
_symmetry_space_group_name_H-M   'P 1'
_cell_length_a   5.41076800
_cell_length_b   7.12630652
_cell_length_c   19.50864220
_cell_angle_alpha   89.28252640
_cell_angle_beta   89.65150307
_cell_angle_gamma   68.11374492
_symmetry_Int_Tables_number   1
_chemical_formula_structural   Ba2Li3La3(MoO4)8
_chemical_formula_sum   'Ba2 Li3 La3 Mo8 O32'
_cell_volume   697.95770265
_cell_formula_units_Z   1
loop_
 _symmetry_equiv_pos_site_id
 _symmetry_equiv_pos_as_xyz
  1  'x, y, z'
loop_
 _atom_site_type_symbol
 _atom_site_label
 _atom_site_symmetry_multiplicity
 _atom_site_fract_x
 _atom_site_fract_y
 _atom_site_fract_z
 _atom_site_occupancy
  Ba  Ba0  1  0.96767300  0.05690000  0.76536000  1
  Ba  Ba1  1  0.02963900  0.94466500  0.23815500  1
  Li  Li0  1  0.68884200  0.62656200  0.75815900  1
  Li  Li1  1  0.31283700  0.37083200  0.24314300  1
  Li  Li2  1  0.85041600  0.28934000  0.96308100  1
  La  La0  1  0.85724000  0.29388400  0.53678400  1
  La  La1  1  0.14705600  0.70879000  0.02827700  1
  La  La2  1  0.14292100  0.70655900  0.46502600  1
  Mo  Mo0  1  0.56239500  0.88335000  0.90549500  1
  Mo  Mo1  1  0.55634700  0.87749200  0.59540600  1
  Mo  Mo2  1  0.43446400  0.12082800  0.09340900  1
  Mo  Mo3  1  0.44434600  0.12228500  0.40481900  1
  Mo  Mo4  1  0.27383400  0.47475400  0.65688100  1
  Mo  Mo5  1  0.26189200  0.47153300  0.84636000  1
  Mo  Mo6  1  0.72742800  0.52487500  0.34416300  1
  Mo  Mo7  1  0.74078200  0.52453600  0.15445500  1
  O  O0  1  0.29094400  0.70948500  0.67925100  1
  O  O1  1  0.00100100  0.69459000  0.81560600  1
  O  O2  1  0.70746600  0.29190800  0.32037400  1
  O  O3  1  0.99825000  0.30055700  0.18516600  1
  O  O4  1  0.60609300  0.28731900  0.63837000  1
  O  O5  1  0.11221000  0.28817800  0.85748700  1
  O  O6  1  0.39450500  0.71173700  0.36138400  1
  O  O7  1  0.89673600  0.70813000  0.14171300  1
  O  O8  1  0.10225400  0.51327800  0.57174900  1
  O  O9  1  0.39127700  0.51703100  0.92732700  1
  O  O10  1  0.90002300  0.48636200  0.42848400  1
  O  O11  1  0.60725600  0.48858600  0.07401200  1
  O  O12  1  0.06145900  0.39776000  0.71018200  1
  O  O13  1  0.51847600  0.40270500  0.77936600  1
  O  O14  1  0.93478500  0.60234400  0.28892900  1
  O  O15  1  0.47811100  0.59742100  0.21909300  1
  O  O16  1  0.45479100  0.82802100  0.82335900  1
  O  O17  1  0.71943500  0.82166900  0.67470900  1
  O  O18  1  0.54438900  0.17217400  0.17573000  1
  O  O19  1  0.28104000  0.17785600  0.32517500  1
  O  O20  1  0.69160000  0.07792600  0.89174500  1
  O  O21  1  0.23525700  0.07432900  0.60621300  1
  O  O22  1  0.30237300  0.92272600  0.10847000  1
  O  O23  1  0.76560100  0.92544500  0.39353300  1
  O  O24  1  0.27193200  0.96216300  0.96102900  1
  O  O25  1  0.76843000  0.96296100  0.53870400  1
  O  O26  1  0.72755000  0.03041900  0.04050500  1
  O  O27  1  0.23224800  0.03666800  0.46098200  1
  O  O28  1  0.81231200  0.67213300  0.94998000  1
  O  O29  1  0.52857000  0.66273700  0.54799300  1
  O  O30  1  0.19326500  0.34091100  0.05276600  1
  O  O31  1  0.47225200  0.33728600  0.45163900  1
loop_
_geom_bond_atom_site_label_1
_geom_bond_atom_site_label_2
_geom_bond_distance
_geom_bond_site_symmetry_2
Ba0 O1 2.692841 1_645
Ba0 O13 2.756492 1_555
Ba0 O5 2.758707 1_655
Ba0 O16 2.769926 1_645
Ba0 O20 2.851413 1_555
Ba0 O12 2.857182 1_655
Ba0 O0 2.975042 1_645
Ba0 O17 3.086004 1_545
Ba0 O4 3.197414 1_555
Ba0 O21 3.438139 1_655
Ba1 O3 2.673032 1_465
Ba1 O15 2.772258 1_555
Ba1 O18 2.796641 1_465
Ba1 O7 2.810315 1_455
Ba1 O14 2.839431 1_455
Ba1 O22 2.897483 1_555
Ba1 O2 2.929912 1_465
Ba1 O19 3.045962 1_565
Ba1 O6 3.153863 1_555
Ba1 O23 3.366134 1_455
Li0 O16 1.988327 1_555
Li0 O13 2.154289 1_555
Li0 O17 2.173151 1_555
Li0 O1 2.234030 1_655
Li0 O12 2.272419 1_655
Li0 O0 2.534380 1_555
Li1 O18 2.001929 1_555
Li1 O19 2.144711 1_555
Li1 O15 2.163260 1_555
Li1 O3 2.258439 1_455
Li1 O14 2.280946 1_455
Li1 O2 2.503647 1_555
Li2 O20 2.444845 1_555
Li2 O5 2.491250 1_655
Li2 O9 2.505705 1_555
Li2 O24 2.583844 1_645
Li2 O26 2.638267 1_556
Li2 O11 2.660839 1_556
Li2 O28 2.667049 1_555
Li2 O30 2.683551 1_656
La0 O4 2.405963 1_555
La0 O21 2.461886 1_655
La0 O8 2.500044 1_655
La0 O10 2.560682 1_555
La0 O25 2.576065 1_545
La0 O29 2.577667 1_555
La0 O31 2.596711 1_555
La0 O27 2.631049 1_655
La1 O28 2.465424 1_454
La1 O9 2.486279 1_554
La1 O24 2.505464 1_554
La1 O22 2.551277 1_555
La1 O11 2.556891 1_555
La1 O26 2.567285 1_465
La1 O30 2.577799 1_555
La1 O7 2.588398 1_455
La2 O6 2.438162 1_555
La2 O23 2.480414 1_455
La2 O10 2.504956 1_455
La2 O8 2.535540 1_555
La2 O29 2.571780 1_555
La2 O27 2.572246 1_565
La2 O31 2.585369 1_555
La2 O25 2.603950 1_455
Mo0 O20 1.787310 1_565
Mo0 O16 1.805638 1_555
Mo0 O24 1.815392 1_555
Mo0 O28 1.819737 1_555
Mo1 O17 1.752119 1_555
Mo1 O21 1.793467 1_565
Mo1 O25 1.843964 1_555
Mo1 O29 1.851735 1_555
Mo2 O26 1.797261 1_555
Mo2 O30 1.801987 1_555
Mo2 O18 1.804268 1_555
Mo2 O22 1.824673 1_545
Mo3 O19 1.758447 1_555
Mo3 O23 1.795239 1_545
Mo3 O27 1.838406 1_555
Mo3 O31 1.847651 1_555
Mo4 O0 1.769574 1_555
Mo4 O12 1.773130 1_555
Mo4 O4 1.833161 1_555
Mo4 O8 1.874265 1_555
Mo5 O5 1.786079 1_555
Mo5 O1 1.786874 1_555
Mo5 O9 1.812658 1_555
Mo5 O13 1.833702 1_555
Mo6 O2 1.771125 1_555
Mo6 O14 1.776751 1_555
Mo6 O6 1.829355 1_555
Mo6 O10 1.862720 1_555
Mo7 O3 1.782080 1_555
Mo7 O11 1.792281 1_555
Mo7 O7 1.816040 1_555
Mo7 O15 1.823213 1_555
