# generated using pymatgen
data_Ca8Be5Al3Si18(HO14)4
_symmetry_space_group_name_H-M   'P 1'
_cell_length_a   5.05196015
_cell_length_b   12.00857454
_cell_length_c   19.65496714
_cell_angle_alpha   89.88724323
_cell_angle_beta   89.72922445
_cell_angle_gamma   77.85421089
_symmetry_Int_Tables_number   1
_chemical_formula_structural   Ca8Be5Al3Si18(HO14)4
_chemical_formula_sum   'Ca8 Be5 Al3 Si18 H4 O56'
_cell_volume   1165.69965218
_cell_formula_units_Z   1
loop_
 _symmetry_equiv_pos_site_id
 _symmetry_equiv_pos_as_xyz
  1  'x, y, z'
loop_
 _atom_site_type_symbol
 _atom_site_label
 _atom_site_symmetry_multiplicity
 _atom_site_fract_x
 _atom_site_fract_y
 _atom_site_fract_z
 _atom_site_occupancy
  Ca  Ca0  1  0.67397000  0.16883300  0.65154100  1
  Ca  Ca1  1  0.15892300  0.16658300  0.34612700  1
  Ca  Ca2  1  0.67399000  0.16977600  0.84893400  1
  Ca  Ca3  1  0.17734800  0.16393800  0.15159200  1
  Ca  Ca4  1  0.32547900  0.83369200  0.34676500  1
  Ca  Ca5  1  0.84300900  0.83140100  0.65089100  1
  Ca  Ca6  1  0.34135900  0.83892700  0.15591600  1
  Ca  Ca7  1  0.84194100  0.83272300  0.84403900  1
  Be  Be0  1  0.05851800  0.24941300  0.74994500  1
  Be  Be1  1  0.69472000  0.24798900  0.24947900  1
  Be  Be2  1  0.94338100  0.75209200  0.24972800  1
  Be  Be3  1  0.30754800  0.75054700  0.74950800  1
  Be  Be4  1  0.70223900  0.00063500  0.10291300  1
  Al  Al0  1  0.40511800  0.19071300  0.49963800  1
  Al  Al1  1  0.41006600  0.18816700  0.00210800  1
  Al  Al2  1  0.59550700  0.80930900  0.49970600  1
  Si  Si0  1  0.21914900  0.99924100  0.75063400  1
  Si  Si1  1  0.77574100  0.99949600  0.24686600  1
  Si  Si2  1  0.92653900  0.42781700  0.64305500  1
  Si  Si3  1  0.64594200  0.42734600  0.35670300  1
  Si  Si4  1  0.92605000  0.42769000  0.85715200  1
  Si  Si5  1  0.64687500  0.42672300  0.14297600  1
  Si  Si6  1  0.07328300  0.57249600  0.35673500  1
  Si  Si7  1  0.35454700  0.57201200  0.64308600  1
  Si  Si8  1  0.07450300  0.57302000  0.14449900  1
  Si  Si9  1  0.35309400  0.57199500  0.85569800  1
  Si  Si10  1  0.82973100  0.33995500  0.49990200  1
  Si  Si11  1  0.82894400  0.33887300  0.99984800  1
  Si  Si12  1  0.16959100  0.66008400  0.49988600  1
  Si  Si13  1  0.16658000  0.66139400  0.99954300  1
  Si  Si14  1  0.59535400  0.81534500  0.00188700  1
  Si  Si15  1  0.27734900  0.99998100  0.60517300  1
  Si  Si16  1  0.72462400  0.00002400  0.39437300  1
  Si  Si17  1  0.27810500  0.99952600  0.89668200  1
  H  H0  1  0.40338700  0.32199200  0.74979600  1
  H  H1  1  0.27480900  0.32237100  0.25013200  1
  H  H2  1  0.59795000  0.67710900  0.25042500  1
  H  H3  1  0.72522600  0.67748100  0.74962100  1
  O  O0  1  0.91417400  0.30873300  0.68055100  1
  O  O1  1  0.77810800  0.30844700  0.31974600  1
  O  O2  1  0.91329500  0.30925400  0.81963900  1
  O  O3  1  0.78048200  0.30906200  0.18040800  1
  O  O4  1  0.08653800  0.69142200  0.31953300  1
  O  O5  1  0.22318500  0.69083200  0.68071000  1
  O  O6  1  0.08905600  0.69247200  0.18007200  1
  O  O7  1  0.22179800  0.69210100  0.81984200  1
  O  O8  1  0.96243700  0.99995400  0.61482900  1
  O  O9  1  0.04044000  0.99983400  0.38708600  1
  O  O10  1  0.96710900  0.99489500  0.88739300  1
  O  O11  1  0.02184600  0.99800800  0.11787400  1
  O  O12  1  0.34444400  0.11540700  0.57271100  1
  O  O13  1  0.54173000  0.11488100  0.42776100  1
  O  O14  1  0.34693500  0.11409100  0.92780100  1
  O  O15  1  0.53464300  0.11239500  0.07244000  1
  O  O16  1  0.65658100  0.88501700  0.42776600  1
  O  O17  1  0.45959600  0.88453100  0.57270500  1
  O  O18  1  0.65013900  0.88307600  0.06750900  1
  O  O19  1  0.46486300  0.88361900  0.93240600  1
  O  O20  1  0.63812000  0.26271200  0.53720000  1
  O  O21  1  0.09896200  0.26282500  0.46359800  1
  O  O22  1  0.63626900  0.26335700  0.96200100  1
  O  O23  1  0.09801300  0.26328200  0.03529600  1
  O  O24  1  0.36158400  0.73733800  0.46354000  1
  O  O25  1  0.90083900  0.73724800  0.53718600  1
  O  O26  1  0.37292000  0.74056200  0.02855200  1
  O  O27  1  0.88122500  0.74012000  0.96755700  1
  O  O28  1  0.38771400  0.24175200  0.75033900  1
  O  O29  1  0.37203200  0.24233400  0.25057100  1
  O  O30  1  0.61495900  0.75718500  0.25036600  1
  O  O31  1  0.62928500  0.75768200  0.75027000  1
  O  O32  1  0.92462300  0.41651500  0.56011300  1
  O  O33  1  0.65717100  0.41646400  0.44009400  1
  O  O34  1  0.92161000  0.41812000  0.93994800  1
  O  O35  1  0.65686700  0.41724000  0.05952200  1
  O  O36  1  0.07354100  0.58379600  0.44006600  1
  O  O37  1  0.34133600  0.58370200  0.56015900  1
  O  O38  1  0.08120500  0.58786400  0.06098600  1
  O  O39  1  0.32710500  0.58676500  0.93854800  1
  O  O40  1  0.42444300  0.99956800  0.68391900  1
  O  O41  1  0.57827200  0.99962800  0.31658300  1
  O  O42  1  0.42638000  0.99434000  0.81816000  1
  O  O43  1  0.57544900  0.99477300  0.18254500  1
  O  O44  1  0.98938500  0.11720200  0.75134300  1
  O  O45  1  0.89549200  0.11650800  0.24969400  1
  O  O46  1  0.01580100  0.88299700  0.25004800  1
  O  O47  1  0.10396200  0.88188500  0.75023900  1
  O  O48  1  0.20550300  0.46770100  0.66526800  1
  O  O49  1  0.32639400  0.46783300  0.33523300  1
  O  O50  1  0.20591600  0.46756900  0.83464500  1
  O  O51  1  0.32587400  0.46760000  0.16455200  1
  O  O52  1  0.79396700  0.53237500  0.33519400  1
  O  O53  1  0.67357200  0.53232600  0.66528100  1
  O  O54  1  0.79260800  0.53309900  0.16384500  1
  O  O55  1  0.67371600  0.53299100  0.83525800  1
loop_
_geom_bond_atom_site_label_1
_geom_bond_atom_site_label_2
_geom_bond_distance
_geom_bond_site_symmetry_2
Ca0 O0 2.342709 1_555
Ca0 O8 2.347211 1_545
Ca0 O12 2.461988 1_555
Ca0 O28 2.465010 1_555
Ca0 O20 2.502469 1_555
Ca0 O44 2.525957 1_555
Ca0 O40 2.681651 1_545
Ca1 O1 2.345017 1_455
Ca1 O9 2.347240 1_545
Ca1 O29 2.429057 1_555
Ca1 O45 2.467857 1_455
Ca1 O13 2.494024 1_555
Ca1 O21 2.571966 1_555
Ca1 O41 2.655299 1_545
Ca2 O2 2.332430 1_555
Ca2 O10 2.422861 1_545
Ca2 O14 2.452893 1_555
Ca2 O28 2.467384 1_555
Ca2 O22 2.480653 1_555
Ca2 O44 2.483800 1_555
Ca2 O42 2.736806 1_545
Ca3 O15 2.359806 1_555
Ca3 O11 2.386538 1_545
Ca3 O3 2.429108 1_455
Ca3 O29 2.460333 1_555
Ca3 O45 2.526044 1_455
Ca3 O23 2.570101 1_555
Ca3 O43 2.613275 1_545
Ca4 O9 2.338526 1_555
Ca4 O4 2.353718 1_555
Ca4 O30 2.447050 1_555
Ca4 O46 2.458809 1_555
Ca4 O16 2.485036 1_555
Ca4 O24 2.558274 1_555
Ca4 O41 2.648136 1_555
Ca5 O8 2.338274 1_555
Ca5 O5 2.350376 1_655
Ca5 O17 2.454547 1_555
Ca5 O31 2.477966 1_555
Ca5 O25 2.494618 1_555
Ca5 O47 2.506746 1_655
Ca5 O40 2.676989 1_555
Ca6 O11 2.349937 1_555
Ca6 O30 2.401349 1_555
Ca6 O6 2.424350 1_555
Ca6 O46 2.452968 1_555
Ca6 O18 2.460214 1_555
Ca6 O43 2.473059 1_555
Ca6 O26 2.759712 1_555
Ca7 O7 2.321924 1_655
Ca7 O10 2.334175 1_555
Ca7 O31 2.407408 1_555
Ca7 O47 2.408579 1_655
Ca7 O19 2.549927 1_555
Ca7 O42 2.593169 1_555
Ca7 O27 2.659133 1_555
Be0 O0 1.639059 1_455
Be0 O2 1.644269 1_455
Be0 O28 1.646242 1_555
Be0 O44 1.696022 1_455
Be1 O3 1.640998 1_555
Be1 O29 1.645872 1_555
Be1 O1 1.658355 1_555
Be1 O45 1.687557 1_555
Be2 O6 1.643537 1_655
Be2 O30 1.647381 1_555
Be2 O4 1.649241 1_655
Be2 O46 1.687335 1_655
Be3 O5 1.631638 1_555
Be3 O31 1.645703 1_555
Be3 O7 1.646145 1_555
Be3 O47 1.692008 1_555
Be4 O15 1.549276 1_555
Be4 O11 1.636322 1_645
Be4 O18 1.645723 1_545
Be4 O43 1.695302 1_545
Al0 O13 1.741491 1_555
Al0 O12 1.755541 1_555
Al0 O21 1.757341 1_555
Al0 O20 1.765558 1_555
Al1 O15 1.702142 1_555
Al1 O23 1.765970 1_555
Al1 O14 1.776226 1_554
Al1 O22 1.779183 1_554
Al2 O16 1.740671 1_555
Al2 O17 1.755232 1_555
Al2 O24 1.757551 1_555
Al2 O25 1.765625 1_555
H0 O28 0.983312 1_555
H1 O29 0.983081 1_555
H2 O30 0.983271 1_555
H3 O31 0.982958 1_555
O0 Si2 1.620196 1_555
O1 Si3 1.615681 1_555
O2 Si4 1.616700 1_555
O3 Si5 1.610146 1_555
O4 Si6 1.616902 1_555
O5 Si7 1.619954 1_555
O6 Si8 1.612675 1_555
O7 Si9 1.617010 1_555
O8 Si15 1.601380 1_655
O9 Si16 1.600755 1_465
O10 Si17 1.595125 1_655
O12 Si15 1.623406 1_545
O13 Si16 1.627366 1_555
O14 Si17 1.610705 1_545
O16 Si16 1.627996 1_565
O17 Si15 1.624135 1_555
O18 Si14 1.582389 1_555
O19 Si14 1.657842 1_556
O19 Si17 1.664432 1_555
O20 Si10 1.644179 1_555
O21 Si10 1.637176 1_455
O22 Si11 1.644427 1_555
O23 Si11 1.626168 1_454
O24 Si12 1.637455 1_555
O25 Si12 1.644200 1_655
O26 Si13 1.655395 1_554
O26 Si14 1.661670 1_555
O27 Si13 1.673304 1_655
O27 Si14 1.673700 1_556
O32 Si10 1.634234 1_555
O32 Si2 1.636371 1_555
O33 Si10 1.629220 1_555
O33 Si3 1.644289 1_555
O34 Si4 1.631561 1_555
O34 Si11 1.639740 1_555
O35 Si11 1.633240 1_554
O35 Si5 1.644259 1_555
O36 Si12 1.629055 1_555
O36 Si6 1.643775 1_555
O37 Si12 1.633438 1_555
O37 Si7 1.636157 1_555
O38 Si13 1.604769 1_554
O38 Si8 1.651704 1_555
O39 Si13 1.608503 1_555
O39 Si9 1.640045 1_555
O40 Si0 1.668522 1_555
O40 Si15 1.719611 1_555
O41 Si1 1.690953 1_555
O41 Si16 1.701938 1_565
O42 Si0 1.687580 1_555
O42 Si17 1.707847 1_555
O43 Si1 1.631528 1_555
O44 Si0 1.631615 1_645
O45 Si1 1.643735 1_545
O46 Si1 1.648732 1_455
O47 Si0 1.633994 1_555
O48 Si2 1.642210 1_455
O48 Si7 1.648560 1_555
O49 Si3 1.641925 1_555
O49 Si6 1.647445 1_555
O50 Si9 1.641315 1_555
O50 Si4 1.643848 1_455
O51 Si8 1.642230 1_555
O51 Si5 1.646208 1_555
O52 Si6 1.641677 1_655
O52 Si3 1.649396 1_555
O53 Si7 1.642445 1_555
O53 Si2 1.649569 1_555
O54 Si8 1.638286 1_655
O54 Si5 1.656134 1_555
O55 Si9 1.637003 1_555
O55 Si4 1.653472 1_555
