# generated using pymatgen
data_ScZn12
_symmetry_space_group_name_H-M   'P 1'
_cell_length_a   5.07102493
_cell_length_b   6.64596281
_cell_length_c   6.64596072
_cell_angle_alpha   81.71389182
_cell_angle_beta   67.63152667
_cell_angle_gamma   67.63153704
_symmetry_Int_Tables_number   1
_chemical_formula_structural   ScZn12
_chemical_formula_sum   'Sc1 Zn12'
_cell_volume   191.54253069
_cell_formula_units_Z   1
loop_
 _symmetry_equiv_pos_site_id
 _symmetry_equiv_pos_as_xyz
  1  'x, y, z'
loop_
 _atom_site_type_symbol
 _atom_site_label
 _atom_site_symmetry_multiplicity
 _atom_site_fract_x
 _atom_site_fract_y
 _atom_site_fract_z
 _atom_site_occupancy
  Sc  Sc0  1  -0.00000000  0.00000000  0.00000000  1
  Zn  Zn0  1  0.50000000  0.00000000  0.50000000  1
  Zn  Zn1  1  -0.00000000  0.50000000  0.00000000  1
  Zn  Zn2  1  0.50000000  0.50000000  0.00000000  1
  Zn  Zn3  1  -0.00000000  0.00000000  0.50000000  1
  Zn  Zn4  1  0.35125879  0.64859565  0.64859565  1
  Zn  Zn5  1  -0.00000000  0.35179169  0.64820831  1
  Zn  Zn6  1  0.00000000  0.64820831  0.35179169  1
  Zn  Zn7  1  0.64874121  0.35140435  0.35140435  1
  Zn  Zn8  1  0.28637335  0.21378467  0.21378467  1
  Zn  Zn9  1  0.50000000  0.78623541  0.21376459  1
  Zn  Zn10  1  0.50000000  0.21376459  0.78623541  1
  Zn  Zn11  1  0.71362665  0.78621533  0.78621533  1
loop_
_geom_bond_atom_site_label_1
_geom_bond_atom_site_label_2
_geom_bond_distance
_geom_bond_site_symmetry_2
Sc0 Zn4 3.052999 1_544
Sc0 Zn7 3.052999 1_455
Sc0 Zn5 3.058904 1_554
Sc0 Zn6 3.058904 1_545
Sc0 Zn11 3.141493 1_444
Sc0 Zn8 3.141493 1_555
Sc0 Zn10 3.143834 1_554
Sc0 Zn9 3.143834 1_445
Sc0 Zn10 3.143835 1_454
Sc0 Zn9 3.143835 1_545
Sc0 Zn8 3.144557 1_455
Sc0 Zn11 3.144557 1_544
Sc0 Zn3 3.322980 1_554
Sc0 Zn3 3.322980 1_555
Sc0 Zn1 3.322981 1_555
Sc0 Zn1 3.322981 1_545
Sc0 Zn0 3.325389 1_554
Sc0 Zn0 3.325389 1_455
Sc0 Zn2 3.325390 1_455
Sc0 Zn2 3.325390 1_545
Zn0 Zn9 2.532993 1_545
Zn0 Zn10 2.532993 1_555
Zn0 Zn8 2.535436 1_555
Zn0 Zn11 2.535436 1_545
Zn0 Zn3 2.535512 1_655
Zn0 Zn3 2.535512 1_555
Zn0 Zn7 2.665973 1_555
Zn0 Zn4 2.665973 1_545
Zn0 Zn6 2.667620 1_645
Zn0 Zn5 2.667620 1_555
Zn1 Zn2 2.535512 1_555
Zn1 Zn2 2.535512 1_455
Zn1 Zn9 2.536152 1_455
Zn1 Zn10 2.536152 1_554
Zn1 Zn11 2.536694 1_454
Zn1 Zn8 2.536694 1_555
Zn1 Zn6 2.664617 1_555
Zn1 Zn5 2.664617 1_554
Zn1 Zn7 2.666489 1_455
Zn1 Zn4 2.666489 1_554
Zn2 Zn9 2.532993 1_555
Zn2 Zn8 2.535436 1_555
Zn2 Zn4 2.665973 1_554
Zn2 Zn7 2.665973 1_555
Zn2 Zn5 2.667620 1_654
Zn2 Zn6 2.667620 1_555
Zn3 Zn9 2.536152 1_545
Zn3 Zn8 2.536694 1_555
Zn3 Zn6 2.664617 1_545
Zn3 Zn5 2.664617 1_555
Zn3 Zn7 2.666489 1_455
Zn3 Zn4 2.666489 1_545
Zn4 Zn7 2.582000 1_555
Zn4 Zn9 2.803782 1_555
Zn5 Zn6 2.577406 1_555
Zn5 Zn8 2.800737 1_555
Zn6 Zn8 2.800738 1_555
Zn6 Zn9 2.805217 1_555
Zn6 Zn9 2.805217 1_455
Zn7 Zn8 2.801650 1_555
Zn7 Zn9 2.803783 1_555
Zn7 Zn8 2.804909 1_655
Zn8 Zn9 2.627672 1_545
Zn10 Zn2 2.532993 1_556
Zn10 Zn3 2.536152 1_655
Zn10 Zn8 2.627671 1_556
Zn10 Zn11 2.627672 1_545
Zn10 Zn7 2.803782 1_555
Zn10 Zn4 2.803783 1_555
Zn10 Zn5 2.805217 1_655
Zn10 Zn5 2.805217 1_555
Zn11 Zn2 2.535436 1_556
Zn11 Zn3 2.536694 1_665
Zn11 Zn9 2.627671 1_556
Zn11 Zn6 2.800737 1_655
Zn11 Zn5 2.800738 1_655
Zn11 Zn4 2.801650 1_555
Zn11 Zn4 2.804909 1_655
