# generated using pymatgen
data_Sm8MgTi4O20
_symmetry_space_group_name_H-M   'P 1'
_cell_length_a   8.08832628
_cell_length_b   3.66459000
_cell_length_c   15.42673796
_cell_angle_alpha   90.00000000
_cell_angle_beta   95.25625505
_cell_angle_gamma   90.00000000
_symmetry_Int_Tables_number   1
_chemical_formula_structural   Sm8MgTi4O20
_chemical_formula_sum   'Sm8 Mg1 Ti4 O20'
_cell_volume   455.33189096
_cell_formula_units_Z   1
loop_
 _symmetry_equiv_pos_site_id
 _symmetry_equiv_pos_as_xyz
  1  'x, y, z'
loop_
 _atom_site_type_symbol
 _atom_site_label
 _atom_site_symmetry_multiplicity
 _atom_site_fract_x
 _atom_site_fract_y
 _atom_site_fract_z
 _atom_site_occupancy
  Sm  Sm0  1  0.03983200  0.25000000  0.09524300  1
  Sm  Sm1  1  0.12097500  0.25000000  0.73827900  1
  Sm  Sm2  1  0.35082000  0.75000000  0.23808000  1
  Sm  Sm3  1  0.37233300  0.75000000  0.57383200  1
  Sm  Sm4  1  0.64607800  0.25000000  0.43963400  1
  Sm  Sm5  1  0.71228600  0.25000000  0.69466600  1
  Sm  Sm6  1  0.83906900  0.75000000  0.27047200  1
  Sm  Sm7  1  0.83876600  0.75000000  0.90430800  1
  Mg  Mg0  1  0.46869600  0.25000000  0.82022600  1
  Ti  Ti0  1  0.13822300  0.25000000  0.41560100  1
  Ti  Ti1  1  0.32094500  0.75000000  0.95172200  1
  Ti  Ti2  1  0.59159600  0.25000000  0.07414200  1
  Ti  Ti3  1  0.93721500  0.75000000  0.56743800  1
  O  O0  1  0.06105200  0.75000000  0.18285500  1
  O  O1  1  0.09945500  0.75000000  0.46114800  1
  O  O2  1  0.14393100  0.75000000  0.64147800  1
  O  O3  1  0.12018500  0.75000000  0.99970900  1
  O  O4  1  0.23575200  0.25000000  0.31600100  1
  O  O5  1  0.25409600  0.75000000  0.82648500  1
  O  O6  1  0.36587600  0.25000000  0.48511800  1
  O  O7  1  0.37436000  0.25000000  0.14774800  1
  O  O8  1  0.40068100  0.25000000  0.94276600  1
  O  O9  1  0.42688200  0.25000000  0.68486700  1
  O  O10  1  0.58873300  0.75000000  0.33938100  1
  O  O11  1  0.53708800  0.75000000  0.04231100  1
  O  O12  1  0.60800600  0.75000000  0.81237400  1
  O  O13  1  0.65272900  0.75000000  0.54714800  1
  O  O14  1  0.74974500  0.25000000  0.17252600  1
  O  O15  1  0.87462000  0.75000000  0.69104000  1
  O  O16  1  0.79880900  0.25000000  0.00200600  1
  O  O17  1  0.89483000  0.25000000  0.35941600  1
  O  O18  1  0.89169500  0.25000000  0.54865000  1
  O  O19  1  0.91130900  0.25000000  0.82582700  1
loop_
_geom_bond_atom_site_label_1
_geom_bond_atom_site_label_2
_geom_bond_distance
_geom_bond_site_symmetry_2
Mg0 O8 2.016622 1_555
Mg0 O9 2.084550 1_555
Mg0 O12 2.160238 1_545
Mg0 O12 2.160238 1_555
Mg0 O5 2.531833 1_545
Mg0 O5 2.531833 1_555
O0 Sm0 2.273982 1_555
O0 Sm0 2.273982 1_565
O0 Sm6 2.344207 1_455
O0 Sm2 2.419312 1_555
O1 Ti0 1.997424 1_565
O1 Ti0 1.997424 1_555
O1 Ti3 2.192004 1_455
O1 Sm3 2.681470 1_555
O2 Ti3 1.936555 1_455
O2 Sm3 2.203426 1_555
O2 Sm1 2.381722 1_565
O2 Sm1 2.381722 1_555
O3 Ti1 1.845273 1_555
O3 Sm0 2.475322 1_556
O3 Sm0 2.475322 1_566
O3 Sm7 2.594865 1_455
O4 Ti0 1.790306 1_555
O4 Sm2 2.423524 1_545
O4 Sm2 2.423524 1_555
O5 Ti1 1.957951 1_555
O5 Sm1 2.469775 1_565
O5 Sm1 2.469775 1_555
O6 Ti0 2.044208 1_555
O6 Sm3 2.284713 1_545
O6 Sm3 2.284713 1_555
O6 Sm4 2.433129 1_555
O7 Ti2 2.177666 1_555
O7 Sm2 2.320364 1_555
O7 Sm2 2.320364 1_545
O7 Sm0 2.752402 1_555
O8 Ti1 1.951578 1_545
O8 Ti1 1.951578 1_555
O8 Ti2 2.432821 1_556
O9 Sm5 2.299525 1_555
O9 Sm3 2.519435 1_555
O9 Sm3 2.519435 1_545
O9 Sm1 2.678528 1_555
O10 Sm2 2.365203 1_555
O10 Sm6 2.371548 1_555
O10 Sm4 2.415141 1_565
O10 Sm4 2.415141 1_555
O11 Ti2 1.937303 1_555
O11 Ti2 1.937303 1_565
O11 Ti1 2.135808 1_554
O12 Sm7 2.238323 1_555
O12 Sm5 2.765257 1_565
O12 Sm5 2.765257 1_555
O13 Ti3 2.293618 1_555
O13 Sm3 2.341801 1_555
O13 Sm4 2.468759 1_555
O13 Sm4 2.468759 1_565
O13 Sm5 2.927014 1_555
O13 Sm5 2.927014 1_565
O14 Ti2 1.893169 1_555
O14 Sm6 2.441793 1_545
O14 Sm6 2.441793 1_555
O14 Sm0 2.727479 1_655
O15 Ti3 2.017176 1_555
O15 Sm5 2.257850 1_555
O15 Sm5 2.257850 1_565
O15 Sm1 2.755498 1_655
O15 Sm1 2.755498 1_665
O16 Ti2 2.095017 1_555
O16 Sm0 2.314200 1_655
O16 Sm7 2.412993 1_554
O16 Sm7 2.412993 1_544
O17 Ti0 2.077059 1_655
O17 Sm6 2.308687 1_545
O17 Sm6 2.308687 1_555
O17 Sm4 2.456765 1_555
O18 Ti3 1.886085 1_555
O18 Ti3 1.886085 1_545
O18 Sm4 2.482514 1_555
O18 Sm5 2.789019 1_555
O19 Sm1 2.262655 1_655
O19 Sm7 2.301640 1_555
O19 Sm7 2.301640 1_545
O19 Sm5 2.467519 1_555
