# generated using pymatgen
data_Sm4CrS7
_symmetry_space_group_name_H-M   'P 1'
_cell_length_a   9.78208962
_cell_length_b   9.78208962
_cell_length_c   6.74999500
_cell_angle_alpha   90.00000000
_cell_angle_beta   90.00000000
_cell_angle_gamma   119.99999741
_symmetry_Int_Tables_number   1
_chemical_formula_structural   Sm4CrS7
_chemical_formula_sum   'Sm8 Cr2 S14'
_cell_volume   559.36767895
_cell_formula_units_Z   2
loop_
 _symmetry_equiv_pos_site_id
 _symmetry_equiv_pos_as_xyz
  1  'x, y, z'
loop_
 _atom_site_type_symbol
 _atom_site_label
 _atom_site_symmetry_multiplicity
 _atom_site_fract_x
 _atom_site_fract_y
 _atom_site_fract_z
 _atom_site_occupancy
  Sm  Sm0  1  0.33333300  0.66666700  0.16758500  1
  Sm  Sm1  1  0.66666700  0.33333300  0.66758500  1
  Sm  Sm2  1  0.37577000  0.22506800  0.21550600  1
  Sm  Sm3  1  0.77493200  0.15070200  0.21550600  1
  Sm  Sm4  1  0.62423000  0.77493200  0.71550600  1
  Sm  Sm5  1  0.84929800  0.62423000  0.21550600  1
  Sm  Sm6  1  0.22506800  0.84929800  0.71550600  1
  Sm  Sm7  1  0.15070200  0.37577000  0.71550600  1
  Cr  Cr0  1  0.00000000  0.00000000  0.03680100  1
  Cr  Cr1  1  0.00000000  0.00000000  0.53680100  1
  S  S0  1  0.50907600  0.07139400  0.45648800  1
  S  S1  1  0.92860600  0.43768100  0.45648800  1
  S  S2  1  0.49092400  0.92860600  0.95648800  1
  S  S3  1  0.56231900  0.49092400  0.45648800  1
  S  S4  1  0.07139400  0.56231900  0.95648800  1
  S  S5  1  0.43768100  0.50907600  0.95648800  1
  S  S6  1  0.33333300  0.66666700  0.55544500  1
  S  S7  1  0.66666700  0.33333300  0.05544500  1
  S  S8  1  0.09829400  0.23347900  0.30672900  1
  S  S9  1  0.76652100  0.86481500  0.30672900  1
  S  S10  1  0.90170600  0.76652100  0.80672900  1
  S  S11  1  0.13518500  0.90170600  0.30672900  1
  S  S12  1  0.23347900  0.13518500  0.80672900  1
  S  S13  1  0.86481500  0.09829400  0.80672900  1
loop_
_geom_bond_atom_site_label_1
_geom_bond_atom_site_label_2
_geom_bond_distance
_geom_bond_site_symmetry_2
Cr0 S13 2.521212 1_454
Cr0 S10 2.521212 1_444
Cr0 S12 2.521212 1_554
Cr0 S11 2.695270 1_545
Cr0 S8 2.695270 1_555
Cr0 S9 2.695270 1_445
Cr1 S11 2.521212 1_545
Cr1 S8 2.521212 1_555
Cr1 S9 2.521212 1_445
Cr1 S13 2.695270 1_455
Cr1 S10 2.695270 1_445
Cr1 S12 2.695270 1_555
S0 Sm1 2.649952 1_555
S0 Sm3 2.827274 1_555
S0 Sm2 2.926839 1_555
S0 Sm6 3.075611 1_545
S1 Sm1 2.649952 1_555
S1 Sm5 2.827282 1_555
S1 Sm3 2.926833 1_555
S1 Sm7 3.075605 1_655
S2 Sm0 2.649952 1_556
S2 Sm6 2.827274 1_555
S2 Sm4 2.926839 1_555
S2 Sm3 3.075611 1_566
S3 Sm1 2.649952 1_555
S3 Sm2 2.827276 1_555
S3 Sm5 2.926832 1_555
S3 Sm4 3.075613 1_555
S4 Sm0 2.649952 1_556
S4 Sm7 2.827282 1_555
S4 Sm6 2.926833 1_555
S4 Sm5 3.075605 1_456
S5 Sm0 2.649952 1_556
S5 Sm4 2.827276 1_555
S5 Sm7 2.926832 1_555
S5 Sm2 3.075613 1_556
S6 Sm0 2.618053 1_555
S6 Sm6 2.715242 1_555
S6 Sm7 2.715249 1_555
S6 Sm4 2.715251 1_555
S7 Sm1 2.618053 1_554
S7 Sm3 2.715242 1_555
S7 Sm5 2.715249 1_555
S7 Sm2 2.715251 1_555
S8 Sm2 2.824296 1_555
S8 Sm3 2.911884 1_455
S8 Sm7 3.016631 1_555
S9 Sm3 2.824296 1_565
S9 Sm5 2.911884 1_555
S9 Sm4 3.016631 1_555
S10 Sm4 2.824296 1_555
S10 Sm6 2.911884 1_655
S10 Sm5 3.016631 1_556
S11 Sm5 2.824296 1_455
S11 Sm2 2.911884 1_565
S11 Sm6 3.016631 1_555
S12 Sm6 2.824296 1_545
S12 Sm7 2.911884 1_555
S12 Sm2 3.016631 1_556
S13 Sm7 2.824296 1_655
S13 Sm4 2.911884 1_545
S13 Sm3 3.016631 1_556
