# generated using pymatgen
data_Rb2Mg
_symmetry_space_group_name_H-M   'P 1'
_cell_length_a   19.93063379
_cell_length_b   19.93063379
_cell_length_c   17.96148435
_cell_angle_alpha   75.39732980
_cell_angle_beta   75.39732980
_cell_angle_gamma   25.82333275
_symmetry_Int_Tables_number   1
_chemical_formula_structural   Rb2Mg
_chemical_formula_sum   'Rb32 Mg16'
_cell_volume   3002.15863757
_cell_formula_units_Z   16
loop_
 _symmetry_equiv_pos_site_id
 _symmetry_equiv_pos_as_xyz
  1  'x, y, z'
loop_
 _atom_site_type_symbol
 _atom_site_label
 _atom_site_symmetry_multiplicity
 _atom_site_fract_x
 _atom_site_fract_y
 _atom_site_fract_z
 _atom_site_occupancy
  Rb  Rb0_0  1  0.44031400  0.44031400  0.28091750  1
  Rb  Rb0_1  1  0.44031400  0.44031400  0.78091750  1
  Rb  Rb0_2  1  0.44031400  0.94031400  0.28091750  1
  Rb  Rb0_3  1  0.44031400  0.94031400  0.78091750  1
  Rb  Rb0_4  1  0.94031400  0.44031400  0.28091750  1
  Rb  Rb0_5  1  0.94031400  0.44031400  0.78091750  1
  Rb  Rb0_6  1  0.94031400  0.94031400  0.28091750  1
  Rb  Rb0_7  1  0.94031400  0.94031400  0.78091750  1
  Rb  Rb1_0  1  0.05968600  0.05968600  0.21908250  1
  Rb  Rb1_1  1  0.05968600  0.05968600  0.71908250  1
  Rb  Rb1_2  1  0.05968600  0.55968600  0.21908250  1
  Rb  Rb1_3  1  0.05968600  0.55968600  0.71908250  1
  Rb  Rb1_4  1  0.55968600  0.05968600  0.21908250  1
  Rb  Rb1_5  1  0.55968600  0.05968600  0.71908250  1
  Rb  Rb1_6  1  0.55968600  0.55968600  0.21908250  1
  Rb  Rb1_7  1  0.55968600  0.55968600  0.71908250  1
  Rb  Rb2_0  1  0.42146150  0.42146150  0.04637950  1
  Rb  Rb2_1  1  0.42146150  0.42146150  0.54637950  1
  Rb  Rb2_2  1  0.42146150  0.92146150  0.04637950  1
  Rb  Rb2_3  1  0.42146150  0.92146150  0.54637950  1
  Rb  Rb2_4  1  0.92146150  0.42146150  0.04637950  1
  Rb  Rb2_5  1  0.92146150  0.42146150  0.54637950  1
  Rb  Rb2_6  1  0.92146150  0.92146150  0.04637950  1
  Rb  Rb2_7  1  0.92146150  0.92146150  0.54637950  1
  Rb  Rb3_0  1  0.07853850  0.07853850  0.45362050  1
  Rb  Rb3_1  1  0.07853850  0.07853850  0.95362050  1
  Rb  Rb3_2  1  0.07853850  0.57853850  0.45362050  1
  Rb  Rb3_3  1  0.07853850  0.57853850  0.95362050  1
  Rb  Rb3_4  1  0.57853850  0.07853850  0.45362050  1
  Rb  Rb3_5  1  0.57853850  0.07853850  0.95362050  1
  Rb  Rb3_6  1  0.57853850  0.57853850  0.45362050  1
  Rb  Rb3_7  1  0.57853850  0.57853850  0.95362050  1
  Mg  Mg0_0  1  0.24883450  0.24883450  0.41220450  1
  Mg  Mg0_1  1  0.24883450  0.24883450  0.91220450  1
  Mg  Mg0_2  1  0.24883450  0.74883450  0.41220450  1
  Mg  Mg0_3  1  0.24883450  0.74883450  0.91220450  1
  Mg  Mg0_4  1  0.74883450  0.24883450  0.41220450  1
  Mg  Mg0_5  1  0.74883450  0.24883450  0.91220450  1
  Mg  Mg0_6  1  0.74883450  0.74883450  0.41220450  1
  Mg  Mg0_7  1  0.74883450  0.74883450  0.91220450  1
  Mg  Mg1_0  1  0.25116550  0.25116550  0.08779550  1
  Mg  Mg1_1  1  0.25116550  0.25116550  0.58779550  1
  Mg  Mg1_2  1  0.25116550  0.75116550  0.08779550  1
  Mg  Mg1_3  1  0.25116550  0.75116550  0.58779550  1
  Mg  Mg1_4  1  0.75116550  0.25116550  0.08779550  1
  Mg  Mg1_5  1  0.75116550  0.25116550  0.58779550  1
  Mg  Mg1_6  1  0.75116550  0.75116550  0.08779550  1
  Mg  Mg1_7  1  0.75116550  0.75116550  0.58779550  1
loop_
_geom_bond_atom_site_label_1
_geom_bond_atom_site_label_2
_geom_bond_distance
_geom_bond_site_symmetry_2
Rb0_0 Rb0_6 4.453472 1_455
Rb0_0 Rb0_6 4.453472 1_545
Rb0_0 Rb2_0 4.458611 1_555
Rb0_0 Rb1_6 4.481061 1_555
Rb0_0 Rb2_1 4.632980 1_555
Rb0_1 Rb0_7 4.453472 1_545
Rb0_1 Rb0_7 4.453472 1_455
Rb0_1 Rb2_1 4.458611 1_555
Rb0_1 Rb1_7 4.481061 1_555
Rb0_1 Rb2_0 4.632980 1_556
Rb0_2 Rb0_4 4.453472 1_465
Rb0_2 Rb0_4 4.453472 1_555
Rb0_2 Rb2_2 4.458611 1_555
Rb0_2 Rb1_4 4.481061 1_565
Rb0_2 Rb2_3 4.632980 1_555
Rb0_3 Rb0_5 4.453472 1_555
Rb0_3 Rb0_5 4.453472 1_465
Rb0_3 Rb2_3 4.458611 1_555
Rb0_3 Rb1_5 4.481061 1_565
Rb0_3 Rb2_2 4.632980 1_556
Rb0_4 Rb2_4 4.458611 1_555
Rb0_4 Rb1_2 4.481061 1_655
Rb0_4 Rb2_5 4.632980 1_555
Rb0_5 Rb2_5 4.458611 1_555
Rb0_5 Rb1_3 4.481061 1_655
Rb0_5 Rb2_4 4.632980 1_556
Rb0_6 Rb2_6 4.458611 1_555
Rb0_6 Rb1_0 4.481061 1_665
Rb0_6 Rb2_7 4.632980 1_555
Rb0_7 Rb2_7 4.458611 1_555
Rb0_7 Rb1_1 4.481061 1_665
Rb0_7 Rb2_6 4.632980 1_556
Rb1_0 Rb1_6 4.453472 1_545
Rb1_0 Rb1_6 4.453472 1_455
Rb1_0 Rb3_0 4.458611 1_555
Rb1_0 Rb3_1 4.632980 1_554
Rb1_1 Rb1_7 4.453472 1_455
Rb1_1 Rb1_7 4.453472 1_545
Rb1_1 Rb3_1 4.458611 1_555
Rb1_1 Rb3_0 4.632980 1_555
Rb1_2 Rb1_4 4.453472 1_465
Rb1_2 Rb1_4 4.453472 1_555
Rb1_2 Rb3_2 4.458611 1_555
Rb1_2 Rb3_3 4.632980 1_554
Rb1_3 Rb1_5 4.453472 1_555
Rb1_3 Rb1_5 4.453472 1_465
Rb1_3 Rb3_3 4.458611 1_555
Rb1_3 Rb3_2 4.632980 1_555
Rb1_4 Rb3_4 4.458611 1_555
Rb1_4 Rb3_5 4.632980 1_554
Rb1_5 Rb3_5 4.458611 1_555
Rb1_5 Rb3_4 4.632980 1_555
Rb1_6 Rb3_6 4.458611 1_555
Rb1_6 Rb3_7 4.632980 1_554
Rb1_7 Rb3_7 4.458611 1_555
Rb1_7 Rb3_6 4.632980 1_555
Rb2_0 Rb2_6 4.453472 1_545
Rb2_0 Rb2_6 4.453472 1_455
Rb2_0 Rb3_3 4.886792 1_554
Rb2_0 Rb3_5 4.886792 1_554
Rb2_1 Rb2_7 4.453472 1_545
Rb2_1 Rb2_7 4.453472 1_455
Rb2_1 Rb3_2 4.886792 1_555
Rb2_1 Rb3_4 4.886792 1_555
Rb2_2 Rb2_4 4.453472 1_465
Rb2_2 Rb2_4 4.453472 1_555
Rb2_2 Rb3_1 4.886792 1_564
Rb2_2 Rb3_7 4.886792 1_554
Rb2_3 Rb2_5 4.453472 1_465
Rb2_3 Rb2_5 4.453472 1_555
Rb2_3 Rb3_6 4.886792 1_555
Rb2_3 Rb3_0 4.886792 1_565
Rb2_4 Rb3_1 4.886792 1_654
Rb2_4 Rb3_7 4.886792 1_554
Rb2_5 Rb3_6 4.886792 1_555
Rb2_5 Rb3_0 4.886792 1_655
Rb2_6 Rb3_5 4.886792 1_564
Rb2_6 Rb3_3 4.886792 1_654
Rb2_7 Rb3_2 4.886792 1_655
Rb2_7 Rb3_4 4.886792 1_565
Rb3_0 Rb3_6 4.453472 1_545
Rb3_0 Rb3_6 4.453472 1_455
Rb3_1 Rb3_7 4.453472 1_455
Rb3_1 Rb3_7 4.453472 1_545
Rb3_2 Rb3_4 4.453472 1_555
Rb3_2 Rb3_4 4.453472 1_465
Rb3_3 Rb3_5 4.453472 1_555
Rb3_3 Rb3_5 4.453472 1_465
Mg0_0 Mg1_1 3.178505 1_555
Mg0_0 Rb2_3 4.006967 1_545
Mg0_0 Rb2_5 4.006967 1_455
Mg0_0 Rb3_2 4.036512 1_555
Mg0_0 Rb3_4 4.036512 1_555
Mg0_0 Rb1_2 4.282285 1_555
Mg0_0 Rb1_4 4.282285 1_555
Mg0_0 Rb0_2 4.296799 1_545
Mg0_0 Rb0_4 4.296799 1_455
Mg0_1 Mg1_0 3.178505 1_556
Mg0_1 Rb2_4 4.006967 1_456
Mg0_1 Rb2_2 4.006967 1_546
Mg0_1 Rb3_5 4.036512 1_555
Mg0_1 Rb3_3 4.036512 1_555
Mg0_1 Rb1_3 4.282285 1_555
Mg0_1 Rb1_5 4.282285 1_555
Mg0_1 Rb0_3 4.296799 1_545
Mg0_1 Rb0_5 4.296799 1_455
Mg0_2 Mg1_3 3.178505 1_555
Mg0_2 Rb2_7 4.006967 1_455
Mg0_2 Rb2_1 4.006967 1_555
Mg0_2 Rb3_0 4.036512 1_565
Mg0_2 Rb3_6 4.036512 1_555
Mg0_2 Rb1_0 4.282285 1_565
Mg0_2 Rb1_6 4.282285 1_555
Mg0_2 Rb0_6 4.296799 1_455
Mg0_2 Rb0_0 4.296799 1_555
Mg0_3 Mg1_2 3.178505 1_556
Mg0_3 Rb2_6 4.006967 1_456
Mg0_3 Rb2_0 4.006967 1_556
Mg0_3 Rb3_7 4.036512 1_555
Mg0_3 Rb3_1 4.036512 1_565
Mg0_3 Rb1_7 4.282285 1_555
Mg0_3 Rb1_1 4.282285 1_565
Mg0_3 Rb0_1 4.296799 1_555
Mg0_3 Rb0_7 4.296799 1_455
Mg0_4 Mg1_5 3.178505 1_555
Mg0_4 Rb2_7 4.006967 1_545
Mg0_4 Rb2_1 4.006967 1_555
Mg0_4 Rb3_0 4.036512 1_655
Mg0_4 Rb3_6 4.036512 1_555
Mg0_4 Rb1_0 4.282285 1_655
Mg0_4 Rb1_6 4.282285 1_555
Mg0_4 Rb0_6 4.296799 1_545
Mg0_4 Rb0_0 4.296799 1_555
Mg0_5 Mg1_4 3.178505 1_556
Mg0_5 Rb2_6 4.006967 1_546
Mg0_5 Rb2_0 4.006967 1_556
Mg0_5 Rb3_7 4.036512 1_555
Mg0_5 Rb3_1 4.036512 1_655
Mg0_5 Rb1_7 4.282285 1_555
Mg0_5 Rb1_1 4.282285 1_655
Mg0_5 Rb0_1 4.296799 1_555
Mg0_5 Rb0_7 4.296799 1_545
Mg0_6 Mg1_7 3.178505 1_555
Mg0_6 Rb2_3 4.006967 1_555
Mg0_6 Rb2_5 4.006967 1_555
Mg0_6 Rb3_4 4.036512 1_565
Mg0_6 Rb3_2 4.036512 1_655
Mg0_6 Rb1_2 4.282285 1_655
Mg0_6 Rb1_4 4.282285 1_565
Mg0_6 Rb0_2 4.296799 1_555
Mg0_6 Rb0_4 4.296799 1_555
Mg0_7 Mg1_6 3.178505 1_556
Mg0_7 Rb2_4 4.006967 1_556
Mg0_7 Rb2_2 4.006967 1_556
Mg0_7 Rb3_5 4.036512 1_565
Mg0_7 Rb3_3 4.036512 1_655
Mg0_7 Rb1_3 4.282285 1_655
Mg0_7 Rb1_5 4.282285 1_565
Mg0_7 Rb0_5 4.296799 1_555
Mg0_7 Rb0_3 4.296799 1_555
Mg1_0 Rb3_3 4.006967 1_554
Mg1_0 Rb3_5 4.006967 1_554
Mg1_0 Rb2_2 4.036512 1_545
Mg1_0 Rb2_4 4.036512 1_455
Mg1_0 Rb0_2 4.282285 1_545
Mg1_0 Rb0_4 4.282285 1_455
Mg1_0 Rb1_4 4.296799 1_555
Mg1_0 Rb1_2 4.296799 1_555
Mg1_1 Rb3_2 4.006967 1_555
Mg1_1 Rb3_4 4.006967 1_555
Mg1_1 Rb2_5 4.036512 1_455
Mg1_1 Rb2_3 4.036512 1_545
Mg1_1 Rb0_3 4.282285 1_545
Mg1_1 Rb0_5 4.282285 1_455
Mg1_1 Rb1_3 4.296799 1_555
Mg1_1 Rb1_5 4.296799 1_555
Mg1_2 Rb3_7 4.006967 1_554
Mg1_2 Rb3_1 4.006967 1_564
Mg1_2 Rb2_6 4.036512 1_455
Mg1_2 Rb2_0 4.036512 1_555
Mg1_2 Rb0_6 4.282285 1_455
Mg1_2 Rb0_0 4.282285 1_555
Mg1_2 Rb1_0 4.296799 1_565
Mg1_2 Rb1_6 4.296799 1_555
Mg1_3 Rb3_0 4.006967 1_565
Mg1_3 Rb3_6 4.006967 1_555
Mg1_3 Rb2_7 4.036512 1_455
Mg1_3 Rb2_1 4.036512 1_555
Mg1_3 Rb0_1 4.282285 1_555
Mg1_3 Rb0_7 4.282285 1_455
Mg1_3 Rb1_7 4.296799 1_555
Mg1_3 Rb1_1 4.296799 1_565
Mg1_4 Rb3_7 4.006967 1_554
Mg1_4 Rb3_1 4.006967 1_654
Mg1_4 Rb2_6 4.036512 1_545
Mg1_4 Rb2_0 4.036512 1_555
Mg1_4 Rb0_6 4.282285 1_545
Mg1_4 Rb0_0 4.282285 1_555
Mg1_4 Rb1_0 4.296799 1_655
Mg1_4 Rb1_6 4.296799 1_555
Mg1_5 Rb3_0 4.006967 1_655
Mg1_5 Rb3_6 4.006967 1_555
Mg1_5 Rb2_7 4.036512 1_545
Mg1_5 Rb2_1 4.036512 1_555
Mg1_5 Rb0_1 4.282285 1_555
Mg1_5 Rb0_7 4.282285 1_545
Mg1_5 Rb1_7 4.296799 1_555
Mg1_5 Rb1_1 4.296799 1_655
Mg1_6 Rb3_3 4.006967 1_654
Mg1_6 Rb3_5 4.006967 1_564
Mg1_6 Rb2_2 4.036512 1_555
Mg1_6 Rb2_4 4.036512 1_555
Mg1_6 Rb0_4 4.282285 1_555
Mg1_6 Rb0_2 4.282285 1_555
Mg1_6 Rb1_4 4.296799 1_565
Mg1_6 Rb1_2 4.296799 1_655
Mg1_7 Rb3_4 4.006967 1_565
Mg1_7 Rb3_2 4.006967 1_655
Mg1_7 Rb2_3 4.036512 1_555
Mg1_7 Rb2_5 4.036512 1_555
Mg1_7 Rb0_3 4.282285 1_555
Mg1_7 Rb0_5 4.282285 1_555
Mg1_7 Rb1_3 4.296799 1_655
Mg1_7 Rb1_5 4.296799 1_565
