# generated using pymatgen
data_Zr3Fe(CuS4)2
_symmetry_space_group_name_H-M   'P 1'
_cell_length_a   7.18947403
_cell_length_b   7.18947403
_cell_length_c   7.18947513
_cell_angle_alpha   61.15071440
_cell_angle_beta   61.15071440
_cell_angle_gamma   61.15071197
_symmetry_Int_Tables_number   1
_chemical_formula_structural   Zr3Fe(CuS4)2
_chemical_formula_sum   'Zr3 Fe1 Cu2 S8'
_cell_volume   269.57433364
_cell_formula_units_Z   1
loop_
 _symmetry_equiv_pos_site_id
 _symmetry_equiv_pos_as_xyz
  1  'x, y, z'
loop_
 _atom_site_type_symbol
 _atom_site_label
 _atom_site_symmetry_multiplicity
 _atom_site_fract_x
 _atom_site_fract_y
 _atom_site_fract_z
 _atom_site_occupancy
  Zr  Zr0  1  0.00000000  0.50000000  0.50000000  1
  Zr  Zr1  1  0.50000000  0.50000000  0.00000000  1
  Zr  Zr2  1  0.50000000  0.00000000  0.50000000  1
  Fe  Fe0  1  0.50000000  0.50000000  0.50000000  1
  Cu  Cu0  1  0.12128400  0.12128400  0.12128400  1
  Cu  Cu1  1  0.87871600  0.87871600  0.87871600  1
  S  S0  1  0.74905800  0.74905800  0.74905800  1
  S  S1  1  0.26315500  0.73477100  0.73477100  1
  S  S2  1  0.73477100  0.73477100  0.26315500  1
  S  S3  1  0.73477100  0.26315500  0.73477100  1
  S  S4  1  0.25094200  0.25094200  0.25094200  1
  S  S5  1  0.73684500  0.26522900  0.26522900  1
  S  S6  1  0.26522900  0.26522900  0.73684500  1
  S  S7  1  0.26522900  0.73684500  0.26522900  1
loop_
_geom_bond_atom_site_label_1
_geom_bond_atom_site_label_2
_geom_bond_distance
_geom_bond_site_symmetry_2
Fe0 S2 2.408222 1_555
Fe0 S6 2.408222 1_555
Fe0 S3 2.408222 1_555
Fe0 S1 2.408222 1_555
Fe0 S7 2.408222 1_555
Fe0 S5 2.408222 1_555
Cu0 S4 2.263289 1_555
Cu0 S5 2.300911 1_455
Cu0 S7 2.300911 1_545
Cu0 S6 2.300911 1_554
Cu1 S0 2.263289 1_555
Cu1 S1 2.300911 1_655
Cu1 S3 2.300911 1_565
Cu1 S2 2.300911 1_556
S0 Zr1 2.554706 1_556
S0 Zr2 2.554706 1_565
S0 Zr0 2.554706 1_655
S1 Zr2 2.576514 1_565
S1 Zr1 2.576514 1_556
S2 Zr2 2.576514 1_565
S2 Zr0 2.576514 1_655
S3 Zr0 2.576514 1_655
S3 Zr1 2.576514 1_556
S4 Zr1 2.554706 1_555
S4 Zr0 2.554706 1_555
S4 Zr2 2.554706 1_555
S5 Zr2 2.576514 1_555
S5 Zr1 2.576514 1_555
S6 Zr0 2.576514 1_555
S6 Zr2 2.576514 1_555
S7 Zr0 2.576514 1_555
S7 Zr1 2.576514 1_555
