# generated using pymatgen
data_La4BiPb2
_symmetry_space_group_name_H-M   'P 1'
_cell_length_a   8.58405038
_cell_length_b   8.58405281
_cell_length_c   8.58405280
_cell_angle_alpha   109.39977059
_cell_angle_beta   109.39975913
_cell_angle_gamma   109.61422124
_symmetry_Int_Tables_number   1
_chemical_formula_structural   La4BiPb2
_chemical_formula_sum   'La8 Bi2 Pb4'
_cell_volume   486.91497191
_cell_formula_units_Z   2
loop_
 _symmetry_equiv_pos_site_id
 _symmetry_equiv_pos_as_xyz
  1  'x, y, z'
loop_
 _atom_site_type_symbol
 _atom_site_label
 _atom_site_symmetry_multiplicity
 _atom_site_fract_x
 _atom_site_fract_y
 _atom_site_fract_z
 _atom_site_occupancy
  La  La0  1  0.01292206  0.26355232  0.89159023  1
  La  La1  1  0.37196209  0.12133184  0.10840977  1
  La  La2  1  0.23707794  0.62866816  0.75063026  1
  La  La3  1  0.87803791  0.48644868  0.24936974  1
  La  La4  1  0.37133184  0.12196209  0.60840977  1
  La  La5  1  0.51355132  0.76292106  0.39159023  1
  La  La6  1  0.73644768  0.62803791  0.74936974  1
  La  La7  1  0.87866816  0.98707894  0.25063026  1
  Bi  Bi0  1  0.50000000  0.50000000  0.00000000  1
  Bi  Bi1  1  0.75000000  0.25000000  0.50000000  1
  Pb  Pb0  1  0.99835518  0.87500000  0.62335518  1
  Pb  Pb1  1  0.25164482  0.37500000  0.37664482  1
  Pb  Pb2  1  0.12500000  0.74835518  0.12335518  1
  Pb  Pb3  1  0.62500000  0.00164482  0.87664482  1
loop_
_geom_bond_atom_site_label_1
_geom_bond_atom_site_label_2
_geom_bond_distance
_geom_bond_site_symmetry_2
La0 Pb3 3.264644 1_455
La0 Pb0 3.296795 1_445
La0 Pb2 3.569689 1_556
La0 Pb1 3.580592 1_556
La0 La3 3.792063 1_456
La0 La1 3.831213 1_556
La0 La2 3.873859 1_555
La1 Pb2 3.264645 1_545
La1 Pb1 3.296794 1_555
La1 Pb3 3.569688 1_554
La1 Pb0 3.580592 1_444
La1 La2 3.792060 1_544
La1 La3 3.873861 1_555
La2 Pb3 3.264644 1_565
La2 Pb1 3.296794 1_555
La2 Pb2 3.569688 1_556
La2 Pb0 3.580591 1_455
La2 La3 3.831216 1_455
La3 Pb2 3.264639 1_655
La3 Pb0 3.296790 1_555
La3 Pb3 3.569694 1_554
La3 Pb1 3.580597 1_655
La4 Pb0 3.264644 1_445
La4 Pb3 3.296795 1_555
La4 Pb1 3.569689 1_555
La4 Pb2 3.580592 1_545
La4 La7 3.792063 1_445
La4 La5 3.831213 1_545
La4 La6 3.873859 1_555
La5 Pb1 3.264635 1_555
La5 Pb2 3.296792 1_555
La5 Pb0 3.569693 1_555
La5 Pb3 3.580590 1_565
La5 La6 3.792057 1_555
La5 La7 3.873871 1_555
La6 Pb0 3.264644 1_555
La6 Pb2 3.296795 1_656
La6 Pb1 3.569688 1_555
La6 Pb3 3.580591 1_565
La6 La7 3.831216 1_556
La7 Pb1 3.264639 1_665
La7 Pb3 3.296790 1_564
La7 Pb0 3.569694 1_555
La7 Pb2 3.580597 1_655
Bi0 La3 3.306143 1_555
Bi0 La2 3.306148 1_554
Bi0 La4 3.306148 1_554
Bi0 La5 3.306150 1_555
Bi0 La0 3.595860 1_554
Bi0 La6 3.595861 1_554
Bi0 La1 3.595861 1_555
Bi0 La7 3.595867 1_555
Bi1 La7 3.306143 1_545
Bi1 La6 3.306148 1_555
Bi1 La1 3.306148 1_555
Bi1 La0 3.306148 1_655
Bi1 La4 3.595860 1_555
Bi1 La2 3.595861 1_655
Bi1 La3 3.595867 1_555
Bi1 La5 3.595870 1_545
