# generated using pymatgen
data_MgNiBiP2O9
_symmetry_space_group_name_H-M   'P 1'
_cell_length_a   6.61689000
_cell_length_b   7.74618600
_cell_length_c   14.21493800
_cell_angle_alpha   90.00000000
_cell_angle_beta   90.00000000
_cell_angle_gamma   90.00000000
_symmetry_Int_Tables_number   1
_chemical_formula_structural   MgNiBiP2O9
_chemical_formula_sum   'Mg4 Ni4 Bi4 P8 O36'
_cell_volume   728.59603874
_cell_formula_units_Z   4
loop_
 _symmetry_equiv_pos_site_id
 _symmetry_equiv_pos_as_xyz
  1  'x, y, z'
loop_
 _atom_site_type_symbol
 _atom_site_label
 _atom_site_symmetry_multiplicity
 _atom_site_fract_x
 _atom_site_fract_y
 _atom_site_fract_z
 _atom_site_occupancy
  Mg  Mg0  1  0.75000000  0.95675000  0.79810500  1
  Mg  Mg1  1  0.75000000  0.54325000  0.29810500  1
  Mg  Mg2  1  0.25000000  0.04325000  0.20189500  1
  Mg  Mg3  1  0.25000000  0.45675000  0.70189500  1
  Ni  Ni0  1  0.50000000  0.00000000  0.00000000  1
  Ni  Ni1  1  0.50000000  0.50000000  0.50000000  1
  Ni  Ni2  1  0.00000000  0.50000000  0.50000000  1
  Ni  Ni3  1  0.00000000  0.00000000  0.00000000  1
  Bi  Bi0  1  0.75000000  0.36663600  0.88310100  1
  Bi  Bi1  1  0.25000000  0.63336400  0.11689900  1
  Bi  Bi2  1  0.25000000  0.86663600  0.61689900  1
  Bi  Bi3  1  0.75000000  0.13336400  0.38310100  1
  P  P0  1  0.25000000  0.34091800  0.90565900  1
  P  P1  1  0.75000000  0.65908200  0.09434100  1
  P  P2  1  0.75000000  0.84091800  0.59434100  1
  P  P3  1  0.25000000  0.15908200  0.40565900  1
  P  P4  1  0.75000000  0.35793500  0.67714100  1
  P  P5  1  0.25000000  0.64206500  0.32285900  1
  P  P6  1  0.25000000  0.85793500  0.82285900  1
  P  P7  1  0.75000000  0.14206500  0.17714100  1
  O  O0  1  0.04836000  0.63555000  0.37923800  1
  O  O1  1  0.54836000  0.36445000  0.62076200  1
  O  O2  1  0.95164000  0.13555000  0.12076200  1
  O  O3  1  0.45164000  0.86445000  0.87923800  1
  O  O4  1  0.95164000  0.36445000  0.62076200  1
  O  O5  1  0.45164000  0.63555000  0.37923800  1
  O  O6  1  0.04836000  0.86445000  0.87923800  1
  O  O7  1  0.54836000  0.13555000  0.12076200  1
  O  O8  1  0.25000000  0.32984800  0.45960500  1
  O  O9  1  0.75000000  0.67015200  0.54039500  1
  O  O10  1  0.75000000  0.82984800  0.04039500  1
  O  O11  1  0.25000000  0.17015200  0.95960500  1
  O  O12  1  0.75000000  0.09615100  0.92821600  1
  O  O13  1  0.25000000  0.90384900  0.07178400  1
  O  O14  1  0.25000000  0.59615100  0.57178400  1
  O  O15  1  0.75000000  0.40384900  0.42821600  1
  O  O16  1  0.75000000  0.19452500  0.74120700  1
  O  O17  1  0.25000000  0.80547500  0.25879300  1
  O  O18  1  0.25000000  0.69452500  0.75879300  1
  O  O19  1  0.75000000  0.30547500  0.24120700  1
  O  O20  1  0.42618300  0.14324500  0.33353800  1
  O  O21  1  0.92618300  0.85675500  0.66646200  1
  O  O22  1  0.57381700  0.64324500  0.16646200  1
  O  O23  1  0.07381700  0.35675500  0.83353800  1
  O  O24  1  0.57381700  0.85675500  0.66646200  1
  O  O25  1  0.07381700  0.14324500  0.33353800  1
  O  O26  1  0.42618300  0.35675500  0.83353800  1
  O  O27  1  0.92618300  0.64324500  0.16646200  1
  O  O28  1  0.75000000  0.98302700  0.24761600  1
  O  O29  1  0.25000000  0.01697300  0.75238400  1
  O  O30  1  0.25000000  0.48302700  0.25238400  1
  O  O31  1  0.75000000  0.51697300  0.74761600  1
  O  O32  1  0.75000000  0.99850700  0.52843800  1
  O  O33  1  0.25000000  0.00149300  0.47156200  1
  O  O34  1  0.25000000  0.49850700  0.97156200  1
  O  O35  1  0.75000000  0.50149300  0.02843800  1
loop_
_geom_bond_atom_site_label_1
_geom_bond_atom_site_label_2
_geom_bond_distance
_geom_bond_site_symmetry_2
Mg0 O16 2.011609 1_565
Mg0 O12 2.141669 1_565
Mg0 O21 2.336831 1_555
Mg0 O24 2.336831 1_555
Mg0 O6 2.395582 1_655
Mg0 O3 2.395582 1_555
Mg1 O19 2.011609 1_555
Mg1 O15 2.141669 1_555
Mg1 O27 2.336831 1_555
Mg1 O22 2.336831 1_555
Mg1 O0 2.395582 1_655
Mg1 O5 2.395582 1_555
Mg2 O17 2.011609 1_545
Mg2 O13 2.141669 1_545
Mg2 O25 2.336831 1_555
Mg2 O20 2.336831 1_555
Mg2 O7 2.395582 1_555
Mg2 O2 2.395582 1_455
Mg3 O18 2.011609 1_555
Mg3 O14 2.141669 1_555
Mg3 O26 2.336831 1_555
Mg3 O23 2.336831 1_555
Mg3 O1 2.395582 1_555
Mg3 O4 2.395582 1_455
Ni0 O7 2.037568 1_555
Ni0 O3 2.037568 1_544
Ni0 O13 2.081444 1_545
Ni0 O12 2.081444 1_554
Ni0 O10 2.191660 1_545
Ni0 O11 2.191660 1_554
Ni1 O5 2.037568 1_555
Ni1 O1 2.037568 1_555
Ni1 O14 2.081444 1_555
Ni1 O15 2.081444 1_555
Ni1 O9 2.191660 1_555
Ni1 O8 2.191660 1_555
Ni2 O0 2.037568 1_555
Ni2 O4 2.037568 1_455
Ni2 O14 2.081444 1_555
Ni2 O15 2.081444 1_455
Ni2 O9 2.191660 1_455
Ni2 O8 2.191660 1_555
Ni3 O2 2.037568 1_455
Ni3 O6 2.037568 1_544
Ni3 O13 2.081444 1_545
Ni3 O12 2.081444 1_454
Ni3 O10 2.191660 1_445
Ni3 O11 2.191660 1_554
Bi0 O12 2.191176 1_555
Bi0 O31 2.250618 1_555
Bi0 O26 2.256818 1_555
Bi0 O23 2.256818 1_655
Bi0 O35 2.315043 1_556
Bi0 O16 2.417805 1_555
Bi1 O13 2.191176 1_555
Bi1 O30 2.250618 1_555
Bi1 O27 2.256818 1_455
Bi1 O22 2.256818 1_555
Bi1 O34 2.315043 1_554
Bi1 O17 2.417805 1_555
Bi2 O14 2.191176 1_555
Bi2 O29 2.250618 1_565
Bi2 O24 2.256818 1_555
Bi2 O21 2.256818 1_455
Bi2 O33 2.315043 1_565
Bi2 O18 2.417805 1_555
Bi3 O15 2.191176 1_555
Bi3 O28 2.250618 1_545
Bi3 O25 2.256818 1_655
Bi3 O20 2.256818 1_555
Bi3 O32 2.315043 1_545
Bi3 O19 2.417805 1_555
O0 P5 1.557240 1_555
O1 P4 1.557240 1_555
O2 P7 1.557240 1_555
O3 P6 1.557240 1_555
O4 P4 1.557240 1_555
O5 P5 1.557240 1_555
O6 P6 1.557240 1_555
O7 P7 1.557240 1_555
O8 P3 1.528988 1_555
O9 P2 1.528988 1_555
O10 P1 1.528988 1_555
O11 P0 1.528988 1_555
O16 P4 1.559367 1_555
O17 P5 1.559367 1_555
O18 P6 1.559367 1_555
O19 P7 1.559367 1_555
O20 P3 1.557282 1_555
O21 P2 1.557282 1_555
O22 P1 1.557282 1_555
O23 P0 1.557282 1_555
O24 P2 1.557282 1_555
O25 P3 1.557282 1_555
O26 P0 1.557282 1_555
O27 P1 1.557282 1_555
O28 P7 1.587851 1_565
O29 P6 1.587851 1_545
O30 P5 1.587851 1_555
O31 P4 1.587851 1_555
O32 P2 1.538749 1_555
O33 P3 1.538749 1_555
O34 P0 1.538749 1_555
O35 P1 1.538749 1_555
