# generated using pymatgen
data_Li9Mn2Co5O16
_symmetry_space_group_name_H-M   'P 1'
_cell_length_a   2.98933516
_cell_length_b   2.98933516
_cell_length_c   39.18382698
_cell_angle_alpha   89.29042516
_cell_angle_beta   89.29042516
_cell_angle_gamma   57.33074365
_symmetry_Int_Tables_number   1
_chemical_formula_structural   Li9Mn2Co5O16
_chemical_formula_sum   'Li9 Mn2 Co5 O16'
_cell_volume   294.72841653
_cell_formula_units_Z   1
loop_
 _symmetry_equiv_pos_site_id
 _symmetry_equiv_pos_as_xyz
  1  'x, y, z'
loop_
 _atom_site_type_symbol
 _atom_site_label
 _atom_site_symmetry_multiplicity
 _atom_site_fract_x
 _atom_site_fract_y
 _atom_site_fract_z
 _atom_site_occupancy
  Li  Li0  1  0.69992800  0.69992800  0.93361700  1
  Li  Li1  1  0.05118800  0.05118800  0.81300000  1
  Li  Li2  1  0.43554900  0.43554900  0.68756900  1
  Li  Li3  1  0.81206900  0.81206900  0.56311900  1
  Li  Li4  1  0.18527300  0.18527300  0.43941000  1
  Li  Li5  1  0.56433900  0.56433900  0.31060600  1
  Li  Li6  1  0.93840100  0.93840100  0.18738600  1
  Li  Li7  1  0.30937100  0.30937100  0.06510100  1
  Li  Li8  1  0.37382700  0.37382700  0.87449100  1
  Mn  Mn0  1  0.00173800  0.00173800  0.00082000  1
  Mn  Mn1  1  0.87474300  0.87474300  0.37486200  1
  Co  Co0  1  0.75040800  0.75040800  0.74930400  1
  Co  Co1  1  0.12300100  0.12300100  0.62511400  1
  Co  Co2  1  0.49803800  0.49803800  0.50042200  1
  Co  Co3  1  0.25168600  0.25168600  0.24967800  1
  Co  Co4  1  0.62467400  0.62467400  0.12573900  1
  O  O0  1  0.35701300  0.35701300  0.97373600  1
  O  O1  1  0.71919700  0.71919700  0.84273500  1
  O  O2  1  0.09238400  0.09238400  0.71990200  1
  O  O3  1  0.46036400  0.46036400  0.59571200  1
  O  O4  1  0.86539400  0.86539400  0.47239700  1
  O  O5  1  0.24396400  0.24396400  0.34570000  1
  O  O6  1  0.61568600  0.61568600  0.22256100  1
  O  O7  1  0.96074000  0.96074000  0.09632200  1
  O  O8  1  0.03174700  0.03174700  0.90658800  1
  O  O9  1  0.41215900  0.41215900  0.77700300  1
  O  O10  1  0.78827700  0.78827700  0.65337300  1
  O  O11  1  0.13476900  0.13476900  0.52743300  1
  O  O12  1  0.50625800  0.50625800  0.40442200  1
  O  O13  1  0.88429500  0.88429500  0.27778300  1
  O  O14  1  0.29045500  0.29045500  0.15479500  1
  O  O15  1  0.64306400  0.64306400  0.02930100  1
loop_
_geom_bond_atom_site_label_1
_geom_bond_atom_site_label_2
_geom_bond_distance
_geom_bond_site_symmetry_2
Li0 O8 1.995672 1_565
Li0 O8 1.995672 1_655
Li0 O8 2.024760 1_665
Li0 O0 2.289785 1_655
Li0 O0 2.289785 1_565
Li0 O0 2.372223 1_555
Li1 O1 2.054158 1_545
Li1 O1 2.054158 1_455
Li1 O1 2.081681 1_445
Li1 O9 2.146329 1_545
Li1 O9 2.146329 1_455
Li1 O9 2.345188 1_555
Li2 O2 2.089902 1_565
Li2 O2 2.089902 1_655
Li2 O10 2.116071 1_455
Li2 O10 2.116071 1_545
Li2 O2 2.186662 1_555
Li2 O10 2.269211 1_555
Li3 O3 2.078586 1_565
Li3 O3 2.078586 1_655
Li3 O11 2.180416 1_665
Li3 O11 2.216603 1_565
Li3 O11 2.216603 1_655
Li3 O3 2.229031 1_555
Li4 O4 2.103650 1_445
Li4 O12 2.156327 1_555
Li4 O4 2.157374 1_545
Li4 O4 2.157374 1_455
Li4 O12 2.203188 1_455
Li4 O12 2.203188 1_545
Li5 O13 2.100099 1_555
Li5 O13 2.153310 1_455
Li5 O13 2.153310 1_545
Li5 O5 2.156459 1_555
Li5 O5 2.207192 1_655
Li5 O5 2.207192 1_565
Li6 O14 2.077837 1_655
Li6 O14 2.077837 1_565
Li6 O6 2.167911 1_555
Li6 O6 2.203874 1_565
Li6 O6 2.203874 1_655
Li6 O14 2.230488 1_665
Li7 O7 2.052029 1_545
Li7 O7 2.052029 1_455
Li7 O7 2.185924 1_445
Li7 O15 2.195388 1_455
Li7 O15 2.195388 1_545
Li7 O15 2.227735 1_555
Li8 O1 2.071493 1_455
Li8 O1 2.071493 1_545
Li8 O8 2.086560 1_655
Li8 O8 2.086560 1_565
Li8 O8 2.176776 1_555
Li8 O1 2.183400 1_555
Mn0 O0 1.944650 1_544
Mn0 O0 1.944650 1_454
Mn0 O15 1.968426 1_545
Mn0 O15 1.968426 1_455
Mn0 O0 2.131654 1_554
Mn0 O15 2.174045 1_445
Mn1 O5 1.963356 1_655
Mn1 O5 1.963356 1_565
Mn1 O12 1.973928 1_565
Mn1 O12 1.973928 1_655
Mn1 O5 2.234907 1_665
Mn1 O12 2.239425 1_555
Co0 O9 1.995055 1_655
Co0 O9 1.995055 1_565
Co0 O2 2.024281 1_565
Co0 O2 2.024281 1_655
Co0 O9 2.066930 1_555
Co0 O2 2.118323 1_665
Co1 O10 2.015238 1_455
Co1 O10 2.015238 1_545
Co1 O3 2.034504 1_455
Co1 O3 2.034504 1_545
Co1 O10 2.062646 1_445
Co1 O3 2.098056 1_555
Co2 O11 1.926751 1_655
Co2 O11 1.926751 1_565
Co2 O4 1.941106 1_545
Co2 O4 1.941106 1_455
Co2 O11 2.166762 1_555
Co2 O4 2.204521 1_555
Co3 O6 1.927605 1_545
Co3 O6 1.927605 1_455
Co3 O13 1.942830 1_455
Co3 O13 1.942830 1_545
Co3 O6 2.172086 1_555
Co3 O13 2.206205 1_445
Co4 O14 2.033905 1_565
Co4 O14 2.033905 1_655
Co4 O7 2.037757 1_545
Co4 O7 2.037757 1_455
Co4 O14 2.076989 1_555
Co4 O7 2.092689 1_555
