# generated using pymatgen
data_Er4MgGe4
_symmetry_space_group_name_H-M   'P 1'
_cell_length_a   7.17279100
_cell_length_b   7.71721800
_cell_length_c   14.45865100
_cell_angle_alpha   90.00000000
_cell_angle_beta   90.00000000
_cell_angle_gamma   90.00000000
_symmetry_Int_Tables_number   1
_chemical_formula_structural   Er4MgGe4
_chemical_formula_sum   'Er16 Mg4 Ge16'
_cell_volume   800.34404912
_cell_formula_units_Z   4
loop_
 _symmetry_equiv_pos_site_id
 _symmetry_equiv_pos_as_xyz
  1  'x, y, z'
loop_
 _atom_site_type_symbol
 _atom_site_label
 _atom_site_symmetry_multiplicity
 _atom_site_fract_x
 _atom_site_fract_y
 _atom_site_fract_z
 _atom_site_occupancy
  Er  Er0  1  0.00892900  0.18268900  0.09453500  1
  Er  Er1  1  0.99107100  0.81731100  0.90546500  1
  Er  Er2  1  0.49107100  0.68268900  0.90546500  1
  Er  Er3  1  0.99107100  0.81731100  0.59453500  1
  Er  Er4  1  0.50892900  0.31731100  0.09453500  1
  Er  Er5  1  0.00892900  0.18268900  0.40546500  1
  Er  Er6  1  0.50892900  0.31731100  0.40546500  1
  Er  Er7  1  0.49107100  0.68268900  0.59453500  1
  Er  Er8  1  0.33087200  0.17722300  0.62658100  1
  Er  Er9  1  0.66912800  0.82277700  0.37341900  1
  Er  Er10  1  0.16912800  0.67722300  0.37341900  1
  Er  Er11  1  0.66912800  0.82277700  0.12658100  1
  Er  Er12  1  0.83087200  0.32277700  0.62658100  1
  Er  Er13  1  0.33087200  0.17722300  0.87341900  1
  Er  Er14  1  0.83087200  0.32277700  0.87341900  1
  Er  Er15  1  0.16912800  0.67722300  0.12658100  1
  Mg  Mg0  1  0.16088000  0.51571200  0.75000000  1
  Mg  Mg1  1  0.83912000  0.48428800  0.25000000  1
  Mg  Mg2  1  0.33912000  0.01571200  0.25000000  1
  Mg  Mg3  1  0.66088000  0.98428800  0.75000000  1
  Ge  Ge0  1  0.02491000  0.09164600  0.75000000  1
  Ge  Ge1  1  0.97509000  0.90835400  0.25000000  1
  Ge  Ge2  1  0.47509000  0.59164600  0.25000000  1
  Ge  Ge3  1  0.52491000  0.40835400  0.75000000  1
  Ge  Ge4  1  0.17208600  0.46589200  0.53617500  1
  Ge  Ge5  1  0.82791400  0.53410800  0.46382500  1
  Ge  Ge6  1  0.32791400  0.96589200  0.46382500  1
  Ge  Ge7  1  0.82791400  0.53410800  0.03617500  1
  Ge  Ge8  1  0.67208600  0.03410800  0.53617500  1
  Ge  Ge9  1  0.17208600  0.46589200  0.96382500  1
  Ge  Ge10  1  0.67208600  0.03410800  0.96382500  1
  Ge  Ge11  1  0.32791400  0.96589200  0.03617500  1
  Ge  Ge12  1  0.28927400  0.86105900  0.75000000  1
  Ge  Ge13  1  0.71072600  0.13894100  0.25000000  1
  Ge  Ge14  1  0.21072600  0.36105900  0.25000000  1
  Ge  Ge15  1  0.78927400  0.63894100  0.75000000  1
loop_
_geom_bond_atom_site_label_1
_geom_bond_atom_site_label_2
_geom_bond_distance
_geom_bond_site_symmetry_2
Er0 Ge11 2.957393 1_545
Er0 Ge14 3.007088 1_555
Er0 Ge1 3.097371 1_445
Er0 Ge9 3.117346 1_554
Er0 Ge13 3.121177 1_455
Er0 Ge7 3.122920 1_455
Er0 Ge10 3.274754 1_454
Er1 Ge10 2.957393 1_565
Er1 Ge15 3.007088 1_555
Er1 Ge0 3.097371 1_665
Er1 Ge7 3.117346 1_556
Er1 Ge12 3.121177 1_655
Er1 Ge9 3.122920 1_655
Er1 Ge11 3.274754 1_656
Er2 Ge9 2.957393 1_555
Er2 Ge12 3.007088 1_555
Er2 Ge3 3.097371 1_555
Er2 Ge11 3.117346 1_556
Er2 Ge15 3.121177 1_555
Er2 Ge10 3.122920 1_565
Er2 Ge7 3.274754 1_556
Er3 Ge8 2.957393 1_565
Er3 Ge15 3.007088 1_555
Er3 Ge0 3.097371 1_665
Er3 Ge5 3.117346 1_555
Er3 Ge12 3.121177 1_655
Er3 Ge4 3.122920 1_655
Er3 Ge6 3.274754 1_655
Er4 Ge7 2.957393 1_555
Er4 Ge13 3.007088 1_555
Er4 Ge2 3.097371 1_555
Er4 Ge10 3.117346 1_554
Er4 Ge14 3.121177 1_555
Er4 Ge11 3.122920 1_545
Er4 Ge9 3.274754 1_554
Er5 Ge6 2.957393 1_545
Er5 Ge14 3.007088 1_555
Er5 Ge1 3.097371 1_445
Er5 Ge4 3.117346 1_555
Er5 Ge13 3.121177 1_455
Er5 Ge5 3.122920 1_455
Er5 Ge8 3.274754 1_455
Er6 Ge5 2.957393 1_555
Er6 Ge13 3.007088 1_555
Er6 Ge2 3.097371 1_555
Er6 Ge8 3.117346 1_555
Er6 Ge14 3.121177 1_555
Er6 Ge6 3.122920 1_545
Er6 Ge4 3.274754 1_555
Er7 Ge4 2.957393 1_555
Er7 Ge12 3.007088 1_555
Er7 Ge3 3.097371 1_555
Er7 Ge6 3.117346 1_555
Er7 Ge15 3.121177 1_555
Er7 Ge8 3.122920 1_565
Er7 Ge5 3.274754 1_555
Er8 Ge4 2.822864 1_555
Er8 Ge6 2.863205 1_545
Er8 Ge3 2.881488 1_555
Er8 Ge0 2.904611 1_555
Er8 Ge8 2.986384 1_555
Er8 Ge12 3.037517 1_545
Er9 Ge5 2.822864 1_555
Er9 Ge8 2.863205 1_565
Er9 Ge2 2.881488 1_555
Er9 Ge1 2.904611 1_555
Er9 Ge6 2.986384 1_555
Er9 Ge13 3.037517 1_565
Er10 Ge6 2.822864 1_555
Er10 Ge4 2.863205 1_555
Er10 Ge1 2.881488 1_455
Er10 Ge2 2.904611 1_555
Er10 Ge5 2.986384 1_455
Er10 Ge14 3.037517 1_555
Er11 Ge7 2.822864 1_555
Er11 Ge10 2.863205 1_564
Er11 Ge2 2.881488 1_555
Er11 Ge1 2.904611 1_555
Er11 Ge11 2.986384 1_555
Er11 Ge13 3.037517 1_565
Er12 Ge8 2.822864 1_555
Er12 Ge5 2.863205 1_555
Er12 Ge0 2.881488 1_655
Er12 Ge3 2.904611 1_555
Er12 Ge4 2.986384 1_655
Er12 Ge15 3.037517 1_555
Er13 Ge9 2.822864 1_555
Er13 Ge11 2.863205 1_546
Er13 Ge3 2.881488 1_555
Er13 Ge0 2.904611 1_555
Er13 Ge10 2.986384 1_555
Er13 Ge12 3.037517 1_545
Er14 Ge10 2.822864 1_555
Er14 Ge7 2.863205 1_556
Er14 Ge0 2.881488 1_655
Er14 Ge3 2.904611 1_555
Er14 Ge9 2.986384 1_655
Er14 Ge15 3.037517 1_555
Er15 Ge11 2.822864 1_555
Er15 Ge9 2.863205 1_554
Er15 Ge1 2.881488 1_455
Er15 Ge2 2.904611 1_555
Er15 Ge7 2.986384 1_455
Er15 Ge14 3.037517 1_555
Ge0 Ge12 2.600435 1_545
Ge0 Mg3 2.739402 1_445
Ge1 Ge13 2.600435 1_565
Ge1 Mg2 2.739402 1_665
Ge2 Mg1 2.739402 1_555
Ge3 Mg0 2.739402 1_555
Ge4 Ge5 2.732358 1_455
Ge4 Mg0 3.116472 1_555
Ge5 Mg1 3.116472 1_555
Ge6 Ge8 2.732358 1_565
Ge6 Mg2 3.116472 1_565
Ge7 Ge9 2.732358 1_654
Ge7 Mg1 3.116472 1_555
Ge8 Mg3 3.116472 1_545
Ge9 Mg0 3.116472 1_555
Ge10 Ge11 2.732358 1_546
Ge10 Mg3 3.116472 1_545
Ge11 Mg2 3.116472 1_565
Ge12 Mg0 2.819750 1_555
Ge12 Mg3 2.830019 1_555
Ge13 Mg1 2.819750 1_555
Ge13 Mg2 2.830019 1_555
Ge14 Ge2 2.600435 1_555
Ge14 Mg2 2.819750 1_555
Ge14 Mg1 2.830019 1_455
Ge15 Ge3 2.600435 1_555
Ge15 Mg3 2.819750 1_555
Ge15 Mg0 2.830019 1_655
