# generated using pymatgen
data_Ba2B10O17
_symmetry_space_group_name_H-M   'P 1'
_cell_length_a   6.81994100
_cell_length_b   10.12965580
_cell_length_c   10.20553649
_cell_angle_alpha   75.98401749
_cell_angle_beta   82.99760188
_cell_angle_gamma   72.62238848
_symmetry_Int_Tables_number   1
_chemical_formula_structural   Ba2B10O17
_chemical_formula_sum   'Ba4 B20 O34'
_cell_volume   651.88739363
_cell_formula_units_Z   2
loop_
 _symmetry_equiv_pos_site_id
 _symmetry_equiv_pos_as_xyz
  1  'x, y, z'
loop_
 _atom_site_type_symbol
 _atom_site_label
 _atom_site_symmetry_multiplicity
 _atom_site_fract_x
 _atom_site_fract_y
 _atom_site_fract_z
 _atom_site_occupancy
  Ba  Ba0  1  0.74920900  0.01947700  0.77934400  1
  Ba  Ba1  1  0.25079100  0.98052300  0.22065600  1
  Ba  Ba2  1  0.73244700  0.47731800  0.70101700  1
  Ba  Ba3  1  0.26755300  0.52268200  0.29898300  1
  B  B0  1  0.77758300  0.79996100  0.12824600  1
  B  B1  1  0.22241700  0.20003900  0.87175400  1
  B  B2  1  0.98923300  0.73365600  0.51484800  1
  B  B3  1  0.01076700  0.26634400  0.48515200  1
  B  B4  1  0.29304300  0.29279900  0.61737100  1
  B  B5  1  0.70695700  0.70720100  0.38262900  1
  B  B6  1  0.51792000  0.76745700  0.97497800  1
  B  B7  1  0.48208000  0.23254300  0.02502200  1
  B  B8  1  0.14856100  0.75477400  0.02383200  1
  B  B9  1  0.85143900  0.24522600  0.97616800  1
  B  B10  1  0.73569600  0.50319000  0.02991300  1
  B  B11  1  0.26430400  0.49681000  0.97008700  1
  B  B12  1  0.76339200  0.99574400  0.45321500  1
  B  B13  1  0.23660800  0.00425600  0.54678500  1
  B  B14  1  0.19617700  0.61339800  0.71786600  1
  B  B15  1  0.80382300  0.38660200  0.28213400  1
  B  B16  1  0.64422400  0.25219100  0.48347300  1
  B  B17  1  0.35577600  0.74780900  0.51652700  1
  B  B18  1  0.25747800  0.88886000  0.80216300  1
  B  B19  1  0.74252200  0.11114000  0.19783700  1
  O  O0  1  0.62371300  0.62505100  0.94986500  1
  O  O1  1  0.37628700  0.37494900  0.05013500  1
  O  O2  1  0.83602700  0.39589400  0.96528900  1
  O  O3  1  0.16397300  0.60410600  0.03471100  1
  O  O4  1  0.66310000  0.23008000  0.92966900  1
  O  O5  1  0.33690000  0.76992000  0.07033100  1
  O  O6  1  0.34343800  0.68159400  0.66257200  1
  O  O7  1  0.65656200  0.31840600  0.33742800  1
  O  O8  1  0.02075600  0.63538500  0.65361600  1
  O  O9  1  0.97924400  0.36461500  0.34638400  1
  O  O10  1  0.63551600  0.10324900  0.50973800  1
  O  O11  1  0.36448400  0.89675100  0.49026200  1
  O  O12  1  0.45234800  0.86350200  0.83999500  1
  O  O13  1  0.54765200  0.13649800  0.16000500  1
  O  O14  1  0.81325000  0.25807700  0.55437200  1
  O  O15  1  0.18675000  0.74192300  0.44562800  1
  O  O16  1  0.84910200  0.86990400  0.53944100  1
  O  O17  1  0.15089800  0.13009600  0.46055900  1
  O  O18  1  0.33841700  0.21955200  0.74852700  1
  O  O19  1  0.66158300  0.78044800  0.25147300  1
  O  O20  1  0.18329200  0.98489700  0.68383100  1
  O  O21  1  0.81670800  0.01510300  0.31616900  1
  O  O22  1  0.02138200  0.19869200  0.87564900  1
  O  O23  1  0.97861800  0.80130800  0.12435100  1
  O  O24  1  0.10820900  0.83860100  0.88485100  1
  O  O25  1  0.89179100  0.16139900  0.11514900  1
  O  O26  1  0.24609500  0.50740100  0.83369400  1
  O  O27  1  0.75390500  0.49259900  0.16630600  1
  O  O28  1  0.67135700  0.82831300  0.01424300  1
  O  O29  1  0.32864300  0.17168700  0.98575700  1
  O  O30  1  0.10108300  0.33214200  0.56895700  1
  O  O31  1  0.89891700  0.66785800  0.43104300  1
  O  O32  1  0.55313700  0.66239200  0.46375700  1
  O  O33  1  0.44686300  0.33760800  0.53624300  1
loop_
_geom_bond_atom_site_label_1
_geom_bond_atom_site_label_2
_geom_bond_distance
_geom_bond_site_symmetry_2
Ba0 O24 2.741976 1_645
Ba0 O28 2.798888 1_546
Ba0 O4 2.804799 1_555
Ba0 O10 2.808575 1_555
Ba0 O12 2.847776 1_545
Ba0 O18 2.927401 1_555
Ba0 O20 2.946067 1_645
Ba0 O14 3.000313 1_555
Ba0 O16 3.086692 1_545
Ba0 O22 3.321000 1_655
Ba1 O25 2.741976 1_465
Ba1 O29 2.798888 1_564
Ba1 O5 2.804799 1_555
Ba1 O11 2.808575 1_555
Ba1 O13 2.847776 1_565
Ba1 O19 2.927401 1_555
Ba1 O21 2.946067 1_465
Ba1 O15 3.000313 1_555
Ba1 O17 3.086692 1_565
Ba1 O23 3.321000 1_455
Ba2 O2 2.737206 1_555
Ba2 O8 2.817333 1_655
Ba2 O32 2.833159 1_555
Ba2 O6 2.838229 1_555
Ba2 O14 2.855414 1_555
Ba2 O30 2.867934 1_655
Ba2 O4 3.090111 1_555
Ba2 O0 3.155618 1_555
Ba2 O22 3.181626 1_655
Ba2 O31 3.252057 1_555
Ba2 O26 3.380696 1_555
Ba2 O33 3.495974 1_555
Ba3 O3 2.737206 1_555
Ba3 O9 2.817333 1_455
Ba3 O33 2.833159 1_555
Ba3 O7 2.838229 1_555
Ba3 O15 2.855414 1_555
Ba3 O31 2.867934 1_455
Ba3 O5 3.090111 1_555
Ba3 O1 3.155618 1_555
Ba3 O23 3.181626 1_455
Ba3 O30 3.252057 1_555
Ba3 O27 3.380696 1_555
Ba3 O32 3.495974 1_555
B0 O23 1.370824 1_555
B0 O28 1.371254 1_555
B0 O19 1.406023 1_555
B1 O22 1.370824 1_555
B1 O29 1.371254 1_555
B1 O18 1.406023 1_555
B2 O15 1.458532 1_655
B2 O16 1.484101 1_555
B2 O31 1.484899 1_555
B2 O8 1.518652 1_655
B3 O14 1.458532 1_455
B3 O17 1.484101 1_555
B3 O30 1.484899 1_555
B3 O9 1.518652 1_455
B4 O30 1.366573 1_555
B4 O33 1.372095 1_555
B4 O18 1.385888 1_555
B5 O31 1.366573 1_555
B5 O32 1.372095 1_555
B5 O19 1.385888 1_555
B6 O5 1.473820 1_556
B6 O0 1.476287 1_555
B6 O28 1.497607 1_556
B6 O12 1.511740 1_555
B7 O4 1.473820 1_554
B7 O1 1.476287 1_555
B7 O29 1.497607 1_554
B7 O13 1.511740 1_555
B8 O3 1.475686 1_555
B8 O24 1.476737 1_554
B8 O5 1.483298 1_555
B8 O23 1.495273 1_455
B9 O2 1.475686 1_555
B9 O25 1.476737 1_556
B9 O4 1.483298 1_555
B9 O22 1.495273 1_655
B10 O0 1.369282 1_554
B10 O2 1.370186 1_554
B10 O27 1.387929 1_555
B11 O1 1.369282 1_556
B11 O3 1.370186 1_556
B11 O26 1.387929 1_555
B12 O16 1.370378 1_555
B12 O10 1.376060 1_565
B12 O21 1.382957 1_565
B13 O17 1.370378 1_555
B13 O11 1.376060 1_545
B13 O20 1.382957 1_545
B14 O8 1.368284 1_555
B14 O6 1.375391 1_555
B14 O26 1.389629 1_555
B15 O9 1.368284 1_555
B15 O7 1.375391 1_555
B15 O27 1.389629 1_555
B16 O14 1.456449 1_555
B16 O7 1.482346 1_555
B16 O33 1.484479 1_555
B16 O10 1.485057 1_555
B17 O15 1.456449 1_555
B17 O6 1.482346 1_555
B17 O32 1.484479 1_555
B17 O11 1.485057 1_555
B18 O12 1.361782 1_555
B18 O24 1.378286 1_555
B18 O20 1.395229 1_555
B19 O13 1.361782 1_555
B19 O25 1.378286 1_555
B19 O21 1.395229 1_555
