# generated using pymatgen
data_Ti4FeBi3O14
_symmetry_space_group_name_H-M   'P 1'
_cell_length_a   7.22278179
_cell_length_b   7.28349895
_cell_length_c   10.25759820
_cell_angle_alpha   90.00003150
_cell_angle_beta   89.31933048
_cell_angle_gamma   89.99998892
_symmetry_Int_Tables_number   1
_chemical_formula_structural   Ti4FeBi3O14
_chemical_formula_sum   'Ti8 Fe2 Bi6 O28'
_cell_volume   539.58465725
_cell_formula_units_Z   2
loop_
 _symmetry_equiv_pos_site_id
 _symmetry_equiv_pos_as_xyz
  1  'x, y, z'
loop_
 _atom_site_type_symbol
 _atom_site_label
 _atom_site_symmetry_multiplicity
 _atom_site_fract_x
 _atom_site_fract_y
 _atom_site_fract_z
 _atom_site_occupancy
  Ti  Ti0  1  0.25000000  0.75000000  0.25000000  1
  Ti  Ti1  1  0.75000000  0.25000000  0.75000000  1
  Ti  Ti2  1  0.99999900  0.49999900  0.49999900  1
  Ti  Ti3  1  0.50000100  0.00000100  0.00000100  1
  Ti  Ti4  1  0.75000000  0.75000000  0.25000000  1
  Ti  Ti5  1  0.25000000  0.25000000  0.75000000  1
  Ti  Ti6  1  0.99999900  0.00000100  0.49999900  1
  Ti  Ti7  1  0.50000000  0.49999900  0.00000100  1
  Fe  Fe0  1  0.25000000  0.74999800  0.75000300  1
  Fe  Fe1  1  0.75000000  0.25000300  0.25000000  1
  Bi  Bi0  1  0.00000000  0.49999900  0.00000000  1
  Bi  Bi1  1  0.50000000  0.00000100  0.50000000  1
  Bi  Bi2  1  0.25000000  0.25000000  0.25000000  1
  Bi  Bi3  1  0.75000000  0.75000000  0.75000000  1
  Bi  Bi4  1  0.00000000  0.00000100  0.00000000  1
  Bi  Bi5  1  0.50000000  0.49999900  0.50000000  1
  O  O0  1  0.96599500  0.25000000  0.14199700  1
  O  O1  1  0.46599400  0.75000000  0.64199700  1
  O  O2  1  0.03400600  0.75000000  0.85800300  1
  O  O3  1  0.53400500  0.25000000  0.35800300  1
  O  O4  1  0.79607400  0.04737200  0.62564800  1
  O  O5  1  0.29607400  0.54737200  0.12564900  1
  O  O6  1  0.79607400  0.45262700  0.62564800  1
  O  O7  1  0.29607400  0.95262800  0.12564900  1
  O  O8  1  0.99870500  0.25000000  0.82827700  1
  O  O9  1  0.49870600  0.75000000  0.32827600  1
  O  O10  1  0.20392600  0.95262800  0.37435100  1
  O  O11  1  0.70392600  0.45262700  0.87435200  1
  O  O12  1  0.20392600  0.54737200  0.37435100  1
  O  O13  1  0.70392600  0.04737200  0.87435200  1
  O  O14  1  0.00129400  0.75000000  0.17172400  1
  O  O15  1  0.50129500  0.25000000  0.67172300  1
  O  O16  1  0.19902100  0.45080200  0.62588600  1
  O  O17  1  0.69902100  0.95080200  0.12588700  1
  O  O18  1  0.19902000  0.04919800  0.62588600  1
  O  O19  1  0.69902100  0.54919800  0.12588700  1
  O  O20  1  0.99822100  0.25000000  0.42509000  1
  O  O21  1  0.49822100  0.75000000  0.92509100  1
  O  O22  1  0.80097900  0.54919800  0.37411300  1
  O  O23  1  0.30098000  0.04919800  0.87411400  1
  O  O24  1  0.80097900  0.95080200  0.37411300  1
  O  O25  1  0.30097900  0.45080200  0.87411400  1
  O  O26  1  0.00177900  0.75000000  0.57490900  1
  O  O27  1  0.50177900  0.25000000  0.07491000  1
loop_
_geom_bond_atom_site_label_1
_geom_bond_atom_site_label_2
_geom_bond_distance
_geom_bond_site_symmetry_2
Fe0 O2 1.902642 1_555
Fe0 O1 1.902677 1_555
Fe0 O25 2.552712 1_555
Fe0 O21 2.552715 1_555
Fe0 O23 2.552737 1_565
Fe0 O16 2.552742 1_555
Fe0 O26 2.552759 1_555
Fe0 O18 2.552769 1_565
Fe1 O0 1.902665 1_555
Fe1 O3 1.902665 1_555
Fe1 O22 2.552715 1_555
Fe1 O19 2.552716 1_555
Fe1 O27 2.552729 1_555
Fe1 O20 2.552729 1_555
Fe1 O17 2.552752 1_545
Fe1 O24 2.552753 1_545
Bi0 O0 2.342844 1_455
Bi0 O2 2.342856 1_554
Bi0 O11 2.533524 1_454
Bi0 O5 2.533531 1_555
Bi0 O8 2.533534 1_454
Bi0 O14 2.533552 1_555
Bi0 O25 2.540668 1_554
Bi0 O19 2.540675 1_455
Bi1 O3 2.342844 1_555
Bi1 O1 2.342856 1_545
Bi1 O4 2.533524 1_555
Bi1 O10 2.533531 1_545
Bi1 O15 2.533534 1_555
Bi1 O9 2.533552 1_545
Bi1 O18 2.540674 1_555
Bi1 O24 2.540675 1_545
Bi2 O0 2.342901 1_455
Bi2 O3 2.342901 1_555
Bi2 O12 2.533540 1_555
Bi2 O7 2.533540 1_545
Bi2 O5 2.533541 1_555
Bi2 O10 2.533541 1_545
Bi2 O27 2.540695 1_555
Bi2 O20 2.540695 1_455
Bi3 O2 2.342907 1_655
Bi3 O1 2.342907 1_555
Bi3 O13 2.533545 1_565
Bi3 O4 2.533546 1_565
Bi3 O6 2.533551 1_555
Bi3 O11 2.533553 1_555
Bi3 O26 2.540702 1_655
Bi3 O21 2.540702 1_555
Bi4 O0 2.342843 1_455
Bi4 O2 2.342855 1_544
Bi4 O13 2.533524 1_454
Bi4 O7 2.533531 1_545
Bi4 O8 2.533535 1_454
Bi4 O14 2.533553 1_545
Bi4 O23 2.540674 1_554
Bi4 O17 2.540675 1_445
Bi5 O3 2.342843 1_555
Bi5 O1 2.342855 1_555
Bi5 O6 2.533525 1_555
Bi5 O12 2.533531 1_555
Bi5 O15 2.533535 1_555
Bi5 O9 2.533553 1_555
Bi5 O16 2.540668 1_555
Bi5 O22 2.540675 1_555
O4 Ti6 1.975992 1_555
O4 Ti1 1.976309 1_555
O5 Ti7 1.975993 1_555
O5 Ti0 1.976303 1_555
O6 Ti2 1.975993 1_555
O6 Ti1 1.976305 1_555
O7 Ti3 1.975998 1_565
O7 Ti0 1.976304 1_555
O8 Ti5 1.975976 1_655
O8 Ti1 1.976314 1_555
O9 Ti4 1.975965 1_555
O9 Ti0 1.976316 1_555
O10 Ti6 1.975998 1_465
O10 Ti0 1.976303 1_555
O11 Ti7 1.975998 1_556
O11 Ti1 1.976304 1_555
O12 Ti2 1.975998 1_455
O12 Ti0 1.976304 1_555
O13 Ti3 1.975992 1_556
O13 Ti1 1.976310 1_555
O14 Ti4 1.975965 1_455
O14 Ti0 1.976316 1_555
O15 Ti5 1.975976 1_555
O15 Ti1 1.976314 1_555
O16 Ti2 1.976445 1_455
O16 Ti5 1.976501 1_555
O17 Ti3 1.976431 1_565
O17 Ti4 1.976495 1_555
O18 Ti6 1.976440 1_455
O18 Ti5 1.976502 1_555
O19 Ti7 1.976436 1_555
O19 Ti4 1.976494 1_555
O20 Ti2 1.976455 1_555
O20 Ti6 1.976456 1_555
O21 Ti3 1.976472 1_566
O21 Ti7 1.976473 1_556
O22 Ti2 1.976431 1_555
O22 Ti4 1.976495 1_555
O23 Ti3 1.976440 1_556
O23 Ti5 1.976503 1_555
O24 Ti6 1.976431 1_565
O24 Ti4 1.976494 1_555
O25 Ti7 1.976440 1_556
O25 Ti5 1.976501 1_555
O26 Ti2 1.976472 1_455
O26 Ti6 1.976473 1_465
O27 Ti3 1.976455 1_555
O27 Ti7 1.976456 1_555
