# generated using pymatgen
data_Tm10S19
_symmetry_space_group_name_H-M   'P 1'
_cell_length_a   8.53271920
_cell_length_b   8.53271920
_cell_length_c   15.54231317
_cell_angle_alpha   90.00000000
_cell_angle_beta   90.00000000
_cell_angle_gamma   90.00000000
_symmetry_Int_Tables_number   1
_chemical_formula_structural   Tm10S19
_chemical_formula_sum   'Tm20 S38'
_cell_volume   1131.59381020
_cell_formula_units_Z   2
loop_
 _symmetry_equiv_pos_site_id
 _symmetry_equiv_pos_as_xyz
  1  'x, y, z'
loop_
 _atom_site_type_symbol
 _atom_site_label
 _atom_site_symmetry_multiplicity
 _atom_site_fract_x
 _atom_site_fract_y
 _atom_site_fract_z
 _atom_site_occupancy
  Tm  Tm0  1  0.75000000  0.25000000  0.38443371  1
  Tm  Tm1  1  0.75000000  0.25000000  0.88443371  1
  Tm  Tm2  1  0.25000000  0.75000000  0.61556629  1
  Tm  Tm3  1  0.25000000  0.75000000  0.11556629  1
  Tm  Tm4  1  0.55397805  0.64525236  0.39578196  1
  Tm  Tm5  1  0.94602195  0.85474764  0.39578196  1
  Tm  Tm6  1  0.14525236  0.44602195  0.89578196  1
  Tm  Tm7  1  0.35474764  0.05397805  0.89578196  1
  Tm  Tm8  1  0.44602195  0.35474764  0.60421804  1
  Tm  Tm9  1  0.05397805  0.14525236  0.60421804  1
  Tm  Tm10  1  0.85474764  0.55397805  0.10421804  1
  Tm  Tm11  1  0.64525236  0.94602195  0.10421804  1
  Tm  Tm12  1  0.34837093  0.04114931  0.37858340  1
  Tm  Tm13  1  0.15162907  0.45885069  0.37858340  1
  Tm  Tm14  1  0.54114931  0.65162907  0.87858340  1
  Tm  Tm15  1  0.95885069  0.84837093  0.87858340  1
  Tm  Tm16  1  0.65162907  0.95885069  0.62141660  1
  Tm  Tm17  1  0.84837093  0.54114931  0.62141660  1
  Tm  Tm18  1  0.45885069  0.34837093  0.12141660  1
  Tm  Tm19  1  0.04114931  0.15162907  0.12141660  1
  S  S0  1  0.57071932  0.11615532  0.25030510  1
  S  S1  1  0.92928068  0.38384468  0.25030510  1
  S  S2  1  0.61615532  0.42928068  0.75030510  1
  S  S3  1  0.88384468  0.07071932  0.75030510  1
  S  S4  1  0.42928068  0.88384468  0.74969490  1
  S  S5  1  0.07071932  0.61615532  0.74969490  1
  S  S6  1  0.38384468  0.57071932  0.24969390  1
  S  S7  1  0.11615532  0.92928068  0.24969390  1
  S  S8  1  0.80720948  0.02866893  0.25015401  1
  S  S9  1  0.69279052  0.47133107  0.25015401  1
  S  S10  1  0.52866893  0.19279052  0.75015401  1
  S  S11  1  0.97133107  0.30720948  0.75015401  1
  S  S12  1  0.19279052  0.97133107  0.74984599  1
  S  S13  1  0.30720948  0.52866893  0.74984599  1
  S  S14  1  0.47133107  0.80720948  0.24984599  1
  S  S15  1  0.02866893  0.69279052  0.24984599  1
  S  S16  1  0.85063472  0.55400431  0.43845114  1
  S  S17  1  0.64936528  0.94599569  0.43845114  1
  S  S18  1  0.05400331  0.14936528  0.93845114  1
  S  S19  1  0.44599669  0.35063472  0.93845114  1
  S  S20  1  0.14936528  0.44599669  0.56154886  1
  S  S21  1  0.35063472  0.05400331  0.56154886  1
  S  S22  1  0.94599569  0.85063472  0.06154886  1
  S  S23  1  0.55400431  0.64936528  0.06154886  1
  S  S24  1  0.04805137  0.15139114  0.42852425  1
  S  S25  1  0.45194863  0.34860886  0.42852425  1
  S  S26  1  0.65139114  0.95194863  0.92852425  1
  S  S27  1  0.84860886  0.54805137  0.92852425  1
  S  S28  1  0.95194863  0.84860886  0.57147575  1
  S  S29  1  0.54805137  0.65139114  0.57147575  1
  S  S30  1  0.34860886  0.04805137  0.07147575  1
  S  S31  1  0.15139114  0.45194863  0.07147575  1
  S  S32  1  0.25000000  0.75000000  0.43564695  1
  S  S33  1  0.25000000  0.75000000  0.93564695  1
  S  S34  1  0.75000000  0.25000000  0.56435305  1
  S  S35  1  0.75000000  0.25000000  0.06435305  1
  S  S36  1  0.25000000  0.25000000  0.25000000  1
  S  S37  1  0.75000000  0.75000000  0.75000000  1
loop_
_geom_bond_atom_site_label_1
_geom_bond_atom_site_label_2
_geom_bond_distance
_geom_bond_site_symmetry_2
S0 S8 2.151558 1_555
S0 Tm11 2.768971 1_545
S0 Tm12 2.825618 1_555
S0 Tm0 2.826709 1_555
S0 Tm18 2.974917 1_555
S1 S9 2.151558 1_555
S1 Tm10 2.768971 1_555
S1 Tm13 2.825618 1_655
S1 Tm0 2.826709 1_555
S1 Tm19 2.974917 1_655
S2 Tm8 2.768971 1_555
S2 Tm14 2.825618 1_555
S2 Tm1 2.826709 1_555
S2 Tm17 2.974917 1_555
S3 Tm9 2.768971 1_655
S3 Tm15 2.825618 1_545
S3 Tm1 2.826709 1_555
S3 Tm16 2.974917 1_545
S4 Tm7 2.768971 1_565
S4 Tm16 2.825618 1_555
S4 Tm2 2.826709 1_555
S4 Tm14 2.974917 1_555
S5 Tm6 2.768971 1_555
S5 Tm17 2.825618 1_455
S5 Tm2 2.826709 1_555
S5 Tm15 2.974917 1_455
S6 Tm4 2.768984 1_555
S6 Tm18 2.825607 1_555
S6 Tm3 2.826697 1_555
S6 Tm13 2.974928 1_555
S7 Tm5 2.768984 1_455
S7 Tm19 2.825607 1_565
S7 Tm3 2.826697 1_555
S7 Tm12 2.974928 1_565
S8 Tm11 2.748037 1_545
S8 Tm0 2.856672 1_555
S8 Tm5 2.954352 1_545
S8 Tm19 3.014778 1_655
S9 Tm10 2.748037 1_555
S9 Tm0 2.856672 1_555
S9 Tm4 2.954352 1_555
S9 Tm18 3.014778 1_555
S10 S2 2.151558 1_555
S10 Tm8 2.748037 1_555
S10 Tm1 2.856672 1_555
S10 Tm7 2.954352 1_555
S10 Tm16 3.014778 1_545
S11 S3 2.151558 1_555
S11 Tm9 2.748037 1_655
S11 Tm1 2.856672 1_555
S11 Tm6 2.954352 1_655
S11 Tm17 3.014778 1_555
S12 S4 2.151558 1_555
S12 Tm7 2.748037 1_565
S12 Tm2 2.856672 1_555
S12 Tm9 2.954352 1_565
S12 Tm15 3.014778 1_455
S13 S5 2.151558 1_555
S13 Tm6 2.748037 1_555
S13 Tm2 2.856672 1_555
S13 Tm8 2.954352 1_555
S13 Tm14 3.014778 1_555
S14 S6 2.151558 1_555
S14 Tm4 2.748037 1_555
S14 Tm3 2.856672 1_555
S14 Tm11 2.954352 1_555
S14 Tm12 3.014778 1_565
S15 S7 2.151558 1_555
S15 Tm5 2.748037 1_455
S15 Tm3 2.856672 1_555
S15 Tm10 2.954352 1_455
S15 Tm13 3.014778 1_555
S16 Tm4 2.730098 1_555
S16 Tm5 2.772621 1_555
S16 Tm17 2.845887 1_555
S16 Tm13 2.849768 1_655
S16 Tm0 2.858487 1_555
S17 Tm5 2.730098 1_555
S17 Tm4 2.772621 1_555
S17 Tm16 2.845887 1_555
S17 Tm12 2.849768 1_565
S17 Tm0 2.858487 1_565
S18 Tm6 2.730100 1_555
S18 Tm7 2.772629 1_555
S18 Tm19 2.845886 1_556
S18 Tm15 2.849766 1_445
S18 Tm1 2.858479 1_455
S19 Tm7 2.730100 1_555
S19 Tm6 2.772629 1_555
S19 Tm18 2.845886 1_556
S19 Tm14 2.849766 1_555
S19 Tm1 2.858479 1_555
S20 Tm8 2.730100 1_555
S20 Tm9 2.772629 1_555
S20 Tm13 2.845886 1_555
S20 Tm17 2.849766 1_455
S20 Tm2 2.858479 1_555
S21 Tm9 2.730100 1_555
S21 Tm8 2.772629 1_555
S21 Tm12 2.845886 1_555
S21 Tm16 2.849766 1_545
S21 Tm2 2.858479 1_545
S22 Tm10 2.730098 1_555
S22 Tm11 2.772621 1_555
S22 Tm15 2.845887 1_554
S22 Tm19 2.849768 1_665
S22 Tm3 2.858487 1_655
S23 Tm11 2.730098 1_555
S23 Tm10 2.772621 1_555
S23 Tm14 2.845887 1_554
S23 Tm18 2.849768 1_555
S23 Tm3 2.858487 1_555
S24 Tm5 2.724655 1_445
S24 Tm9 2.731658 1_555
S24 Tm0 2.765024 1_455
S24 Tm12 2.837948 1_555
S24 Tm13 2.875092 1_555
S25 Tm4 2.724655 1_555
S25 Tm8 2.731658 1_555
S25 Tm0 2.765024 1_555
S25 Tm13 2.837948 1_555
S25 Tm12 2.875092 1_555
S26 Tm7 2.724655 1_565
S26 Tm11 2.731658 1_556
S26 Tm1 2.765024 1_565
S26 Tm14 2.837948 1_555
S26 Tm15 2.875092 1_555
S27 Tm6 2.724655 1_655
S27 Tm10 2.731658 1_556
S27 Tm1 2.765024 1_555
S27 Tm15 2.837948 1_555
S27 Tm14 2.875092 1_555
S28 Tm9 2.724655 1_665
S28 Tm5 2.731658 1_555
S28 Tm2 2.765024 1_655
S28 Tm16 2.837948 1_555
S28 Tm17 2.875092 1_555
S29 Tm8 2.724655 1_555
S29 Tm4 2.731658 1_555
S29 Tm2 2.765024 1_555
S29 Tm17 2.837948 1_555
S29 Tm16 2.875092 1_555
S30 Tm11 2.724655 1_545
S30 Tm7 2.731658 1_554
S30 Tm3 2.765024 1_545
S30 Tm18 2.837948 1_555
S30 Tm19 2.875092 1_555
S31 Tm10 2.724655 1_455
S31 Tm6 2.731658 1_554
S31 Tm3 2.765024 1_555
S31 Tm19 2.837948 1_555
S31 Tm18 2.875092 1_555
S32 Tm13 2.768187 1_555
S32 Tm12 2.768187 1_565
S32 Tm2 2.796363 1_555
S32 Tm4 2.812531 1_555
S32 Tm5 2.812531 1_455
S33 Tm14 2.768187 1_555
S33 Tm15 2.768187 1_455
S33 Tm3 2.796363 1_556
S33 Tm7 2.812531 1_565
S33 Tm6 2.812531 1_555
S34 Tm16 2.768187 1_545
S34 Tm17 2.768187 1_555
S34 Tm0 2.796363 1_555
S34 Tm8 2.812531 1_555
S34 Tm9 2.812531 1_655
S35 Tm18 2.768187 1_555
S35 Tm19 2.768187 1_655
S35 Tm1 2.796363 1_554
S35 Tm10 2.812531 1_555
S35 Tm11 2.812531 1_545
S36 Tm18 2.806107 1_555
S36 Tm12 2.806107 1_555
S36 Tm13 2.806107 1_555
S36 Tm19 2.806107 1_555
S37 Tm16 2.806107 1_555
S37 Tm15 2.806107 1_555
S37 Tm17 2.806107 1_555
S37 Tm14 2.806107 1_555
