# generated using pymatgen
data_Li9Mn2Co5O16
_symmetry_space_group_name_H-M   'P 1'
_cell_length_a   2.89292100
_cell_length_b   8.52516800
_cell_length_c   11.82657359
_cell_angle_alpha   89.77327396
_cell_angle_beta   90.00000000
_cell_angle_gamma   90.00000000
_symmetry_Int_Tables_number   1
_chemical_formula_structural   Li9Mn2Co5O16
_chemical_formula_sum   'Li9 Mn2 Co5 O16'
_cell_volume   291.67221423
_cell_formula_units_Z   1
loop_
 _symmetry_equiv_pos_site_id
 _symmetry_equiv_pos_as_xyz
  1  'x, y, z'
loop_
 _atom_site_type_symbol
 _atom_site_label
 _atom_site_symmetry_multiplicity
 _atom_site_fract_x
 _atom_site_fract_y
 _atom_site_fract_z
 _atom_site_occupancy
  Li  Li0  1  0.50000000  0.74352700  0.86216700  1
  Li  Li1  1  0.50000000  0.24017400  0.62089900  1
  Li  Li2  1  0.50000000  0.76432200  0.38779300  1
  Li  Li3  1  0.00000000  0.49803000  0.99273400  1
  Li  Li4  1  0.00000000  0.00216400  0.74286000  1
  Li  Li5  1  0.00000000  0.49920000  0.50198100  1
  Li  Li6  1  0.50000000  0.25877500  0.12684500  1
  Li  Li7  1  0.00000000  0.00322400  0.25784300  1
  Li  Li8  1  0.00000000  0.99990600  0.50134600  1
  Mn  Mn0  1  0.00000000  0.00179600  0.99701600  1
  Mn  Mn1  1  0.50000000  0.74463900  0.12790200  1
  Co  Co0  1  0.00000000  0.50405500  0.74200400  1
  Co  Co1  1  0.00000000  0.49685700  0.25787900  1
  Co  Co2  1  0.50000000  0.26115700  0.87480000  1
  Co  Co3  1  0.50000000  0.77563200  0.62104200  1
  Co  Co4  1  0.50000000  0.22221600  0.37655300  1
  O  O0  1  0.50000000  0.00289200  0.88633900  1
  O  O1  1  0.50000000  0.49797600  0.63008600  1
  O  O2  1  0.50000000  0.01056200  0.37166000  1
  O  O3  1  0.00000000  0.73545200  0.01754800  1
  O  O4  1  0.00000000  0.25488800  0.76203500  1
  O  O5  1  0.00000000  0.74754200  0.51079700  1
  O  O6  1  0.50000000  0.51649100  0.14456100  1
  O  O7  1  0.00000000  0.25315600  0.25776600  1
  O  O8  1  0.50000000  0.49767900  0.86706300  1
  O  O9  1  0.50000000  0.98747000  0.62744700  1
  O  O10  1  0.50000000  0.49810500  0.36305700  1
  O  O11  1  0.00000000  0.25626500  0.99567700  1
  O  O12  1  0.00000000  0.74151200  0.74178100  1
  O  O13  1  0.00000000  0.25073700  0.48490500  1
  O  O14  1  0.50000000  0.97729400  0.11113900  1
  O  O15  1  0.00000000  0.75630700  0.23647800  1
loop_
_geom_bond_atom_site_label_1
_geom_bond_atom_site_label_2
_geom_bond_distance
_geom_bond_site_symmetry_2
Li0 O12 2.029732 1_555
Li0 O12 2.029732 1_655
Li0 O8 2.096466 1_555
Li0 O0 2.230655 1_565
Li0 O3 2.339413 1_556
Li0 O3 2.339413 1_656
Li1 O9 2.155429 1_545
Li1 O13 2.164712 1_655
Li1 O13 2.164712 1_555
Li1 O1 2.200919 1_555
Li1 O4 2.212627 1_555
Li1 O4 2.212627 1_655
Li2 O5 2.056031 1_555
Li2 O5 2.056031 1_655
Li2 O2 2.107138 1_565
Li2 O10 2.289469 1_555
Li2 O15 2.302245 1_555
Li2 O15 2.302245 1_655
Li3 O3 2.046375 1_556
Li3 O11 2.061243 1_555
Li3 O8 2.073946 1_455
Li3 O8 2.073946 1_555
Li3 O6 2.311581 1_456
Li3 O6 2.311581 1_556
Li4 O9 1.993077 1_545
Li4 O9 1.993077 1_445
Li4 O4 2.167309 1_555
Li4 O12 2.222189 1_545
Li4 O0 2.229736 1_555
Li4 O0 2.229736 1_455
Li5 O1 2.094657 1_455
Li5 O1 2.094657 1_555
Li5 O5 2.120135 1_555
Li5 O13 2.128590 1_555
Li5 O10 2.189038 1_455
Li5 O10 2.189038 1_555
Li6 O7 2.119277 1_655
Li6 O7 2.119277 1_555
Li6 O11 2.121179 1_654
Li6 O11 2.121179 1_554
Li6 O6 2.207865 1_555
Li6 O14 2.407584 1_545
Li7 O2 1.977048 1_455
Li7 O2 1.977048 1_555
Li7 O15 2.121112 1_545
Li7 O7 2.130709 1_555
Li7 O14 2.270329 1_445
Li7 O14 2.270329 1_545
Li8 O9 2.079986 1_455
Li8 O9 2.079986 1_555
Li8 O2 2.109919 1_565
Li8 O2 2.109919 1_465
Li8 O13 2.146432 1_565
Li8 O5 2.153905 1_555
Mn0 O0 1.950778 1_455
Mn0 O0 1.950778 1_555
Mn0 O14 1.988793 1_546
Mn0 O14 1.988793 1_446
Mn0 O11 2.169386 1_555
Mn0 O3 2.282619 1_546
Mn1 O15 1.937013 1_655
Mn1 O15 1.937013 1_555
Mn1 O3 1.950001 1_555
Mn1 O3 1.950001 1_655
Mn1 O6 1.954177 1_555
Mn1 O14 1.992525 1_555
Co0 O1 1.961482 1_455
Co0 O1 1.961482 1_555
Co0 O12 2.024352 1_555
Co0 O8 2.069315 1_455
Co0 O8 2.069315 1_555
Co0 O4 2.136428 1_555
Co1 O10 1.907811 1_555
Co1 O10 1.907811 1_455
Co1 O6 1.978517 1_455
Co1 O6 1.978517 1_555
Co1 O7 2.077598 1_555
Co1 O15 2.225293 1_555
Co2 O4 1.968304 1_555
Co2 O4 1.968304 1_655
Co2 O8 2.018103 1_555
Co2 O11 2.034001 1_555
Co2 O11 2.034001 1_655
Co2 O0 2.205439 1_555
Co3 O9 1.807842 1_555
Co3 O5 1.962655 1_555
Co3 O5 1.962655 1_655
Co3 O12 2.052450 1_655
Co3 O12 2.052450 1_555
Co3 O1 2.369057 1_555
Co4 O2 1.805542 1_555
Co4 O13 1.948308 1_655
Co4 O13 1.948308 1_555
Co4 O7 2.032849 1_655
Co4 O7 2.032849 1_555
Co4 O10 2.356779 1_555
