# generated using pymatgen
data_Gd3CI3
_symmetry_space_group_name_H-M   'P 1'
_cell_length_a   3.94913342
_cell_length_b   8.77070064
_cell_length_c   11.93805243
_cell_angle_alpha   92.42559398
_cell_angle_beta   90.00000000
_cell_angle_gamma   90.00000000
_symmetry_Int_Tables_number   1
_chemical_formula_structural   Gd3CI3
_chemical_formula_sum   'Gd6 C2 I6'
_cell_volume   413.12386586
_cell_formula_units_Z   2
loop_
 _symmetry_equiv_pos_site_id
 _symmetry_equiv_pos_as_xyz
  1  'x, y, z'
loop_
 _atom_site_type_symbol
 _atom_site_label
 _atom_site_symmetry_multiplicity
 _atom_site_fract_x
 _atom_site_fract_y
 _atom_site_fract_z
 _atom_site_occupancy
  Gd  Gd0  1  0.25000000  0.91720732  0.59916196  1
  Gd  Gd1  1  0.75000000  0.08166050  0.39826276  1
  Gd  Gd2  1  0.25000000  0.88726122  0.18428331  1
  Gd  Gd3  1  0.75000000  0.11296644  0.81734719  1
  Gd  Gd4  1  0.25000000  0.29352441  0.61597883  1
  Gd  Gd5  1  0.75000000  0.70591287  0.38383012  1
  C  C0  1  0.25000000  0.88335174  0.38542676  1
  C  C1  1  0.75000000  0.11807103  0.61550327  1
  I  I0  1  0.25000000  0.85567337  0.87528400  1
  I  I1  1  0.75000000  0.14416351  0.12426899  1
  I  I2  1  0.25000000  0.37815010  0.87320925  1
  I  I3  1  0.75000000  0.62273384  0.12679582  1
  I  I4  1  0.25000000  0.38479212  0.36724395  1
  I  I5  1  0.75000000  0.61453154  0.63340679  1
loop_
_geom_bond_atom_site_label_1
_geom_bond_atom_site_label_2
_geom_bond_distance
_geom_bond_site_symmetry_2
Gd0 I5 3.347421 1_555
Gd0 I5 3.347421 1_455
Gd0 I0 3.362713 1_555
Gd1 I1 3.339374 1_555
Gd1 I4 3.344837 1_655
Gd1 I4 3.344837 1_555
Gd2 I3 3.101282 1_455
Gd2 I3 3.101282 1_555
Gd2 I1 3.102553 1_565
Gd2 I1 3.102553 1_465
Gd2 I0 3.687528 1_554
Gd3 I0 3.098683 1_545
Gd3 I0 3.098683 1_645
Gd3 I2 3.101922 1_555
Gd3 I2 3.101922 1_655
Gd3 I1 3.662685 1_556
Gd4 I4 3.107951 1_555
Gd4 I2 3.128574 1_555
Gd4 I5 3.437938 1_555
Gd4 I5 3.437938 1_455
Gd5 I5 3.117960 1_555
Gd5 I3 3.123839 1_555
Gd5 I4 3.438507 1_655
Gd5 I4 3.438507 1_555
C0 Gd2 2.402956 1_555
C0 Gd5 2.513707 1_455
C0 Gd5 2.513707 1_555
C0 Gd0 2.556289 1_555
C0 Gd1 2.631544 1_565
C0 Gd1 2.631544 1_465
C1 Gd3 2.411933 1_555
C1 Gd4 2.503250 1_555
C1 Gd4 2.503250 1_655
C1 Gd1 2.599568 1_555
C1 Gd0 2.647928 1_545
C1 Gd0 2.647928 1_645
