# generated using pymatgen
data_Y(FeO2)2
_symmetry_space_group_name_H-M   'P 1'
_cell_length_a   3.51352579
_cell_length_b   8.80436770
_cell_length_c   6.12630561
_cell_angle_alpha   104.11920638
_cell_angle_beta   89.99942655
_cell_angle_gamma   89.99879096
_symmetry_Int_Tables_number   1
_chemical_formula_structural   Y(FeO2)2
_chemical_formula_sum   'Y2 Fe4 O8'
_cell_volume   183.78827856
_cell_formula_units_Z   2
loop_
 _symmetry_equiv_pos_site_id
 _symmetry_equiv_pos_as_xyz
  1  'x, y, z'
loop_
 _atom_site_type_symbol
 _atom_site_label
 _atom_site_symmetry_multiplicity
 _atom_site_fract_x
 _atom_site_fract_y
 _atom_site_fract_z
 _atom_site_occupancy
  Y  Y0  1  0.50000000  0.00485300  0.50528700  1
  Y  Y1  1  0.00000500  0.99518300  0.99470600  1
  Fe  Fe0  1  0.49994700  0.35811600  0.29030900  1
  Fe  Fe1  1  0.00003100  0.64186000  0.20958800  1
  Fe  Fe2  1  0.99996700  0.35889800  0.78750200  1
  Fe  Fe3  1  0.50002000  0.64112000  0.71256300  1
  O  O0  1  0.50000400  0.61502000  0.35564200  1
  O  O1  1  0.00000900  0.61272300  0.89111400  1
  O  O2  1  0.50000000  0.38729900  0.60893200  1
  O  O3  1  0.00000500  0.38490900  0.14436000  1
  O  O4  1  0.50000100  0.12830400  0.20901200  1
  O  O5  1  0.99999000  0.12142700  0.71235600  1
  O  O6  1  0.50001400  0.87860900  0.78762600  1
  O  O7  1  0.00000700  0.87168000  0.29100300  1
loop_
_geom_bond_atom_site_label_1
_geom_bond_atom_site_label_2
_geom_bond_distance
_geom_bond_site_symmetry_2
Fe0 O2 1.905665 1_555
Fe0 O4 1.962230 1_555
Fe0 O3 2.010853 1_555
Fe0 O3 2.011202 1_655
Fe0 O0 2.198773 1_555
Fe1 O1 1.904807 1_554
Fe1 O7 1.962300 1_555
Fe1 O0 2.011346 1_555
Fe1 O0 2.011505 1_455
Fe1 O3 2.199225 1_555
Fe2 O5 2.028228 1_555
Fe2 O2 2.116269 1_555
Fe2 O2 2.116452 1_655
Fe2 O3 2.141902 1_656
Fe2 O1 2.169109 1_655
Fe3 O6 2.028395 1_555
Fe3 O1 2.116261 1_655
Fe3 O1 2.116316 1_555
Fe3 O0 2.142174 1_555
Fe3 O2 2.169080 1_555
O4 Y1 2.330837 1_644
O4 Y1 2.330872 1_544
O4 Y0 2.332027 1_555
O5 Y0 2.261342 1_555
O5 Y0 2.261344 1_655
O5 Y1 2.272778 1_645
O6 Y1 2.261371 1_555
O6 Y1 2.261375 1_655
O6 Y0 2.272719 1_565
O7 Y0 2.330952 1_465
O7 Y0 2.330973 1_565
O7 Y1 2.332448 1_554
