# generated using pymatgen
data_Pr2(CuSn)3
_symmetry_space_group_name_H-M   'P 1'
_cell_length_a   6.04781600
_cell_length_b   6.04781600
_cell_length_c   45.64943000
_cell_angle_alpha   90.00000000
_cell_angle_beta   90.00000000
_cell_angle_gamma   90.00000000
_symmetry_Int_Tables_number   1
_chemical_formula_structural   Pr2(CuSn)3
_chemical_formula_sum   'Pr16 Cu24 Sn24'
_cell_volume   1669.67712922
_cell_formula_units_Z   8
loop_
 _symmetry_equiv_pos_site_id
 _symmetry_equiv_pos_as_xyz
  1  'x, y, z'
loop_
 _atom_site_type_symbol
 _atom_site_label
 _atom_site_symmetry_multiplicity
 _atom_site_fract_x
 _atom_site_fract_y
 _atom_site_fract_z
 _atom_site_occupancy
  Pr  Pr0_0  1  0.25000000  0.25000000  0.37882100  1
  Pr  Pr0_1  1  0.25000000  0.25000000  0.87882100  1
  Pr  Pr0_2  1  0.25000000  0.75000000  0.37882100  1
  Pr  Pr0_3  1  0.25000000  0.75000000  0.87882100  1
  Pr  Pr0_4  1  0.75000000  0.25000000  0.37882100  1
  Pr  Pr0_5  1  0.75000000  0.25000000  0.87882100  1
  Pr  Pr0_6  1  0.75000000  0.75000000  0.37882100  1
  Pr  Pr0_7  1  0.75000000  0.75000000  0.87882100  1
  Pr  Pr1_0  1  0.25000000  0.25000000  0.12117900  1
  Pr  Pr1_1  1  0.25000000  0.25000000  0.62117900  1
  Pr  Pr1_2  1  0.25000000  0.75000000  0.12117900  1
  Pr  Pr1_3  1  0.25000000  0.75000000  0.62117900  1
  Pr  Pr1_4  1  0.75000000  0.25000000  0.12117900  1
  Pr  Pr1_5  1  0.75000000  0.25000000  0.62117900  1
  Pr  Pr1_6  1  0.75000000  0.75000000  0.12117900  1
  Pr  Pr1_7  1  0.75000000  0.75000000  0.62117900  1
  Cu  Cu0_0  1  0.25000000  0.25000000  0.05818850  1
  Cu  Cu0_1  1  0.25000000  0.25000000  0.55818850  1
  Cu  Cu0_2  1  0.25000000  0.75000000  0.05818850  1
  Cu  Cu0_3  1  0.25000000  0.75000000  0.55818850  1
  Cu  Cu0_4  1  0.75000000  0.25000000  0.05818850  1
  Cu  Cu0_5  1  0.75000000  0.25000000  0.55818850  1
  Cu  Cu0_6  1  0.75000000  0.75000000  0.05818850  1
  Cu  Cu0_7  1  0.75000000  0.75000000  0.55818850  1
  Cu  Cu1_0  1  0.25000000  0.25000000  0.44181150  1
  Cu  Cu1_1  1  0.25000000  0.25000000  0.94181150  1
  Cu  Cu1_2  1  0.25000000  0.75000000  0.44181150  1
  Cu  Cu1_3  1  0.25000000  0.75000000  0.94181150  1
  Cu  Cu1_4  1  0.75000000  0.25000000  0.44181150  1
  Cu  Cu1_5  1  0.75000000  0.25000000  0.94181150  1
  Cu  Cu1_6  1  0.75000000  0.75000000  0.44181150  1
  Cu  Cu1_7  1  0.75000000  0.75000000  0.94181150  1
  Cu  Cu2_0  1  0.25000000  0.25000000  0.25000000  1
  Cu  Cu2_1  1  0.25000000  0.25000000  0.75000000  1
  Cu  Cu2_2  1  0.25000000  0.75000000  0.25000000  1
  Cu  Cu2_3  1  0.25000000  0.75000000  0.75000000  1
  Cu  Cu2_4  1  0.75000000  0.25000000  0.25000000  1
  Cu  Cu2_5  1  0.75000000  0.25000000  0.75000000  1
  Cu  Cu2_6  1  0.75000000  0.75000000  0.25000000  1
  Cu  Cu2_7  1  0.75000000  0.75000000  0.75000000  1
  Sn  Sn0_0  1  0.25000000  0.25000000  0.19388650  1
  Sn  Sn0_1  1  0.25000000  0.25000000  0.69388650  1
  Sn  Sn0_2  1  0.25000000  0.75000000  0.19388650  1
  Sn  Sn0_3  1  0.25000000  0.75000000  0.69388650  1
  Sn  Sn0_4  1  0.75000000  0.25000000  0.19388650  1
  Sn  Sn0_5  1  0.75000000  0.25000000  0.69388650  1
  Sn  Sn0_6  1  0.75000000  0.75000000  0.19388650  1
  Sn  Sn0_7  1  0.75000000  0.75000000  0.69388650  1
  Sn  Sn1_0  1  0.25000000  0.25000000  0.30611350  1
  Sn  Sn1_1  1  0.25000000  0.25000000  0.80611350  1
  Sn  Sn1_2  1  0.25000000  0.75000000  0.30611350  1
  Sn  Sn1_3  1  0.25000000  0.75000000  0.80611350  1
  Sn  Sn1_4  1  0.75000000  0.25000000  0.30611350  1
  Sn  Sn1_5  1  0.75000000  0.25000000  0.80611350  1
  Sn  Sn1_6  1  0.75000000  0.75000000  0.30611350  1
  Sn  Sn1_7  1  0.75000000  0.75000000  0.80611350  1
  Sn  Sn2_0  1  0.25000000  0.25000000  0.00000000  1
  Sn  Sn2_1  1  0.25000000  0.25000000  0.50000000  1
  Sn  Sn2_2  1  0.25000000  0.75000000  0.00000000  1
  Sn  Sn2_3  1  0.25000000  0.75000000  0.50000000  1
  Sn  Sn2_4  1  0.75000000  0.25000000  0.00000000  1
  Sn  Sn2_5  1  0.75000000  0.25000000  0.50000000  1
  Sn  Sn2_6  1  0.75000000  0.75000000  0.00000000  1
  Sn  Sn2_7  1  0.75000000  0.75000000  0.50000000  1
loop_
_geom_bond_atom_site_label_1
_geom_bond_atom_site_label_2
_geom_bond_distance
_geom_bond_site_symmetry_2
Pr0_0 Pr0_2 3.023908 1_555
Pr0_0 Pr0_4 3.023908 1_555
Pr0_0 Pr0_4 3.023908 1_455
Pr0_0 Pr0_2 3.023908 1_545
Pr0_0 Sn1_0 3.319056 1_555
Pr0_1 Pr0_3 3.023908 1_555
Pr0_1 Pr0_5 3.023908 1_555
Pr0_1 Pr0_5 3.023908 1_455
Pr0_1 Pr0_3 3.023908 1_545
Pr0_1 Sn1_1 3.319056 1_555
Pr0_2 Pr0_6 3.023908 1_555
Pr0_2 Pr0_6 3.023908 1_455
Pr0_2 Sn1_2 3.319056 1_555
Pr0_3 Pr0_7 3.023908 1_555
Pr0_3 Pr0_7 3.023908 1_455
Pr0_3 Sn1_3 3.319056 1_555
Pr0_4 Pr0_6 3.023908 1_555
Pr0_4 Pr0_6 3.023908 1_545
Pr0_4 Sn1_4 3.319056 1_555
Pr0_5 Pr0_7 3.023908 1_555
Pr0_5 Pr0_7 3.023908 1_545
Pr0_5 Sn1_5 3.319056 1_555
Pr0_6 Sn1_6 3.319056 1_555
Pr0_7 Sn1_7 3.319056 1_555
Pr1_0 Pr1_2 3.023908 1_555
Pr1_0 Pr1_4 3.023908 1_555
Pr1_0 Pr1_2 3.023908 1_545
Pr1_0 Pr1_4 3.023908 1_455
Pr1_0 Sn0_0 3.319056 1_555
Pr1_1 Pr1_3 3.023908 1_555
Pr1_1 Pr1_5 3.023908 1_555
Pr1_1 Pr1_5 3.023908 1_455
Pr1_1 Pr1_3 3.023908 1_545
Pr1_1 Sn0_1 3.319056 1_555
Pr1_2 Pr1_6 3.023908 1_555
Pr1_2 Pr1_6 3.023908 1_455
Pr1_2 Sn0_2 3.319056 1_555
Pr1_3 Pr1_7 3.023908 1_555
Pr1_3 Pr1_7 3.023908 1_455
Pr1_3 Sn0_3 3.319056 1_555
Pr1_4 Pr1_6 3.023908 1_555
Pr1_4 Pr1_6 3.023908 1_545
Pr1_4 Sn0_4 3.319056 1_555
Pr1_5 Pr1_7 3.023908 1_555
Pr1_5 Pr1_7 3.023908 1_545
Pr1_5 Sn0_5 3.319056 1_555
Pr1_6 Sn0_6 3.319056 1_555
Pr1_7 Sn0_7 3.319056 1_555
Cu0_0 Sn2_0 2.656272 1_555
Cu0_0 Pr1_0 2.875480 1_555
Cu0_0 Cu0_4 3.023908 1_555
Cu0_0 Cu0_2 3.023908 1_555
Cu0_0 Cu0_4 3.023908 1_455
Cu0_0 Cu0_2 3.023908 1_545
Cu0_1 Sn2_1 2.656272 1_555
Cu0_1 Pr1_1 2.875480 1_555
Cu0_1 Cu0_3 3.023908 1_555
Cu0_1 Cu0_5 3.023908 1_555
Cu0_1 Cu0_3 3.023908 1_545
Cu0_1 Cu0_5 3.023908 1_455
Cu0_2 Sn2_2 2.656272 1_555
Cu0_2 Pr1_2 2.875480 1_555
Cu0_2 Cu0_6 3.023908 1_555
Cu0_2 Cu0_6 3.023908 1_455
Cu0_3 Sn2_3 2.656272 1_555
Cu0_3 Pr1_3 2.875480 1_555
Cu0_3 Cu0_7 3.023908 1_555
Cu0_3 Cu0_7 3.023908 1_455
Cu0_4 Sn2_4 2.656272 1_555
Cu0_4 Pr1_4 2.875480 1_555
Cu0_4 Cu0_6 3.023908 1_555
Cu0_4 Cu0_6 3.023908 1_545
Cu0_5 Sn2_5 2.656272 1_555
Cu0_5 Pr1_5 2.875480 1_555
Cu0_5 Cu0_7 3.023908 1_555
Cu0_5 Cu0_7 3.023908 1_545
Cu0_6 Sn2_6 2.656272 1_555
Cu0_6 Pr1_6 2.875480 1_555
Cu0_7 Sn2_7 2.656272 1_555
Cu0_7 Pr1_7 2.875480 1_555
Cu1_0 Sn2_1 2.656272 1_555
Cu1_0 Pr0_0 2.875480 1_555
Cu1_0 Cu1_2 3.023908 1_555
Cu1_0 Cu1_4 3.023908 1_555
Cu1_0 Cu1_4 3.023908 1_455
Cu1_0 Cu1_2 3.023908 1_545
Cu1_1 Sn2_0 2.656272 1_556
Cu1_1 Pr0_1 2.875480 1_555
Cu1_1 Cu1_5 3.023908 1_555
Cu1_1 Cu1_3 3.023908 1_555
Cu1_1 Cu1_5 3.023908 1_455
Cu1_1 Cu1_3 3.023908 1_545
Cu1_2 Sn2_3 2.656272 1_555
Cu1_2 Pr0_2 2.875480 1_555
Cu1_2 Cu1_6 3.023908 1_555
Cu1_2 Cu1_6 3.023908 1_455
Cu1_3 Sn2_2 2.656272 1_556
Cu1_3 Pr0_3 2.875480 1_555
Cu1_3 Cu1_7 3.023908 1_555
Cu1_3 Cu1_7 3.023908 1_455
Cu1_4 Sn2_5 2.656272 1_555
Cu1_4 Pr0_4 2.875480 1_555
Cu1_4 Cu1_6 3.023908 1_555
Cu1_4 Cu1_6 3.023908 1_545
Cu1_5 Sn2_4 2.656272 1_556
Cu1_5 Pr0_5 2.875480 1_555
Cu1_5 Cu1_7 3.023908 1_555
Cu1_5 Cu1_7 3.023908 1_545
Cu1_6 Sn2_7 2.656272 1_555
Cu1_6 Pr0_6 2.875480 1_555
Cu1_7 Sn2_6 2.656272 1_556
Cu1_7 Pr0_7 2.875480 1_555
Cu2_0 Sn1_0 2.561549 1_555
Cu2_0 Sn0_0 2.561549 1_555
Cu2_0 Cu2_4 3.023908 1_555
Cu2_0 Cu2_2 3.023908 1_555
Cu2_0 Cu2_4 3.023908 1_455
Cu2_0 Cu2_2 3.023908 1_545
Cu2_1 Sn1_1 2.561549 1_555
Cu2_1 Sn0_1 2.561549 1_555
Cu2_1 Cu2_3 3.023908 1_555
Cu2_1 Cu2_5 3.023908 1_555
Cu2_1 Cu2_5 3.023908 1_455
Cu2_1 Cu2_3 3.023908 1_545
Cu2_2 Sn1_2 2.561549 1_555
Cu2_2 Sn0_2 2.561549 1_555
Cu2_2 Cu2_6 3.023908 1_555
Cu2_2 Cu2_6 3.023908 1_455
Cu2_3 Sn1_3 2.561549 1_555
Cu2_3 Sn0_3 2.561549 1_555
Cu2_3 Cu2_7 3.023908 1_555
Cu2_3 Cu2_7 3.023908 1_455
Cu2_4 Sn1_4 2.561549 1_555
Cu2_4 Sn0_4 2.561549 1_555
Cu2_4 Cu2_6 3.023908 1_555
Cu2_4 Cu2_6 3.023908 1_545
Cu2_5 Sn1_5 2.561549 1_555
Cu2_5 Sn0_5 2.561549 1_555
Cu2_5 Cu2_7 3.023908 1_555
Cu2_5 Cu2_7 3.023908 1_545
Cu2_6 Sn1_6 2.561549 1_555
Cu2_6 Sn0_6 2.561549 1_555
Cu2_7 Sn1_7 2.561549 1_555
Cu2_7 Sn0_7 2.561549 1_555
Sn0_0 Sn0_4 3.023908 1_555
Sn0_0 Sn0_2 3.023908 1_555
Sn0_0 Sn0_2 3.023908 1_545
Sn0_0 Sn0_4 3.023908 1_455
Sn0_1 Sn0_5 3.023908 1_555
Sn0_1 Sn0_3 3.023908 1_555
Sn0_1 Sn0_5 3.023908 1_455
Sn0_1 Sn0_3 3.023908 1_545
Sn0_2 Sn0_6 3.023908 1_555
Sn0_2 Sn0_6 3.023908 1_455
Sn0_3 Sn0_7 3.023908 1_555
Sn0_3 Sn0_7 3.023908 1_455
Sn0_4 Sn0_6 3.023908 1_555
Sn0_4 Sn0_6 3.023908 1_545
Sn0_5 Sn0_7 3.023908 1_555
Sn0_5 Sn0_7 3.023908 1_545
Sn1_0 Sn1_2 3.023908 1_555
Sn1_0 Sn1_4 3.023908 1_555
Sn1_0 Sn1_4 3.023908 1_455
Sn1_0 Sn1_2 3.023908 1_545
Sn1_1 Sn1_3 3.023908 1_555
Sn1_1 Sn1_5 3.023908 1_555
Sn1_1 Sn1_5 3.023908 1_455
Sn1_1 Sn1_3 3.023908 1_545
Sn1_2 Sn1_6 3.023908 1_555
Sn1_2 Sn1_6 3.023908 1_455
Sn1_3 Sn1_7 3.023908 1_555
Sn1_3 Sn1_7 3.023908 1_455
Sn1_4 Sn1_6 3.023908 1_555
Sn1_4 Sn1_6 3.023908 1_545
Sn1_5 Sn1_7 3.023908 1_555
Sn1_5 Sn1_7 3.023908 1_545
Sn2_0 Sn2_2 3.023908 1_555
Sn2_0 Sn2_4 3.023908 1_555
Sn2_0 Sn2_2 3.023908 1_545
Sn2_0 Sn2_4 3.023908 1_455
Sn2_1 Sn2_5 3.023908 1_555
Sn2_1 Sn2_3 3.023908 1_555
Sn2_1 Sn2_3 3.023908 1_545
Sn2_1 Sn2_5 3.023908 1_455
Sn2_2 Sn2_6 3.023908 1_555
Sn2_2 Sn2_6 3.023908 1_455
Sn2_3 Sn2_7 3.023908 1_555
Sn2_3 Sn2_7 3.023908 1_455
Sn2_4 Sn2_6 3.023908 1_555
Sn2_4 Sn2_6 3.023908 1_545
Sn2_5 Sn2_7 3.023908 1_555
Sn2_5 Sn2_7 3.023908 1_545
