# generated using pymatgen
data_LiTiFe5O8
_symmetry_space_group_name_H-M   'P 1'
_cell_length_a   6.30947121
_cell_length_b   5.98986321
_cell_length_c   6.23207605
_cell_angle_alpha   87.93542641
_cell_angle_beta   57.46616965
_cell_angle_gamma   116.33266197
_symmetry_Int_Tables_number   1
_chemical_formula_structural   LiTiFe5O8
_chemical_formula_sum   'Li1 Ti1 Fe5 O8'
_cell_volume   165.79608136
_cell_formula_units_Z   1
loop_
 _symmetry_equiv_pos_site_id
 _symmetry_equiv_pos_as_xyz
  1  'x, y, z'
loop_
 _atom_site_type_symbol
 _atom_site_label
 _atom_site_symmetry_multiplicity
 _atom_site_fract_x
 _atom_site_fract_y
 _atom_site_fract_z
 _atom_site_occupancy
  Li  Li0  1  0.00000000  0.00000000  0.00000000  1
  Ti  Ti0  1  0.50000000  0.00000000  0.50000000  1
  Fe  Fe0  1  0.26328200  0.10762400  0.17769300  1
  Fe  Fe1  1  0.73671800  0.89237600  0.82230700  1
  Fe  Fe2  1  0.50000000  0.50000000  0.50000000  1
  Fe  Fe3  1  0.00000000  0.50000000  0.00000000  1
  Fe  Fe4  1  0.00000000  0.50000000  0.50000000  1
  O  O0  1  0.96554300  0.71798200  0.26441800  1
  O  O1  1  0.94566700  0.20696400  0.28331300  1
  O  O2  1  0.47704200  0.22070400  0.74082500  1
  O  O3  1  0.53020300  0.27240200  0.27240200  1
  O  O4  1  0.03445700  0.28201800  0.73558200  1
  O  O5  1  0.05433300  0.79303600  0.71668700  1
  O  O6  1  0.52295800  0.77929600  0.25917500  1
  O  O7  1  0.46979700  0.72759800  0.72759800  1
loop_
_geom_bond_atom_site_label_1
_geom_bond_atom_site_label_2
_geom_bond_distance
_geom_bond_site_symmetry_2
Li0 O2 2.122014 1_554
Li0 O6 2.122014 1_445
Li0 O1 2.157657 1_455
Li0 O5 2.157657 1_544
Li0 O0 2.169008 1_445
Li0 O4 2.169008 1_554
Fe0 O3 1.948156 1_555
Fe0 O0 2.048316 1_445
Fe0 O1 2.114376 1_455
Fe0 O2 2.190303 1_554
Fe1 O7 1.948156 1_555
Fe1 O4 2.048316 1_665
Fe1 O5 2.114376 1_655
Fe1 O6 2.190303 1_556
Fe2 O7 1.996448 1_555
Fe2 O3 1.996448 1_555
Fe2 O4 2.075848 1_555
Fe2 O0 2.075848 1_555
Fe2 O2 2.107728 1_555
Fe2 O6 2.107728 1_555
Fe3 O7 2.088671 1_554
Fe3 O3 2.088671 1_455
Fe3 O4 2.118744 1_554
Fe3 O0 2.118744 1_455
Fe3 O1 2.215332 1_455
Fe3 O5 2.215332 1_554
Fe4 O0 2.089165 1_455
Fe4 O4 2.089165 1_555
Fe4 O5 2.270882 1_555
Fe4 O1 2.270882 1_455
Fe4 O6 2.352436 1_555
Fe4 O2 2.352436 1_455
O1 Ti0 1.992448 1_555
O2 Ti0 2.024885 1_555
O3 Ti0 1.994278 1_555
O5 Ti0 1.992448 1_565
O6 Ti0 2.024885 1_565
O7 Ti0 1.994278 1_565
