# generated using pymatgen
data_Li6Mn3CoO10
_symmetry_space_group_name_H-M   'P 1'
_cell_length_a   5.11117135
_cell_length_b   5.11117135
_cell_length_c   13.05684903
_cell_angle_alpha   78.19550460
_cell_angle_beta   78.19550460
_cell_angle_gamma   32.70665546
_symmetry_Int_Tables_number   1
_chemical_formula_structural   Li6Mn3CoO10
_chemical_formula_sum   'Li6 Mn3 Co1 O10'
_cell_volume   180.07084082
_cell_formula_units_Z   1
loop_
 _symmetry_equiv_pos_site_id
 _symmetry_equiv_pos_as_xyz
  1  'x, y, z'
loop_
 _atom_site_type_symbol
 _atom_site_label
 _atom_site_symmetry_multiplicity
 _atom_site_fract_x
 _atom_site_fract_y
 _atom_site_fract_z
 _atom_site_occupancy
  Li  Li0  1  0.30414500  0.30414500  0.90921500  1
  Li  Li1  1  0.90071800  0.90071800  0.69239800  1
  Li  Li2  1  0.49418200  0.49418200  0.49573700  1
  Li  Li3  1  0.10031300  0.10031300  0.28916200  1
  Li  Li4  1  0.69892800  0.69892800  0.11239100  1
  Li  Li5  1  0.39968200  0.39968200  0.20133800  1
  Mn  Mn0  1  0.00708200  0.00708200  0.01290400  1
  Mn  Mn1  1  0.79622000  0.79622000  0.39057000  1
  Mn  Mn2  1  0.60287300  0.60287300  0.79995600  1
  Co  Co0  1  0.19462800  0.19462800  0.59504600  1
  O  O0  1  0.37407500  0.37407500  0.04498800  1
  O  O1  1  0.96918400  0.96918400  0.85620200  1
  O  O2  1  0.55234400  0.55234400  0.64383600  1
  O  O3  1  0.16188900  0.16188900  0.44415300  1
  O  O4  1  0.74804500  0.74804500  0.26184000  1
  O  O5  1  0.23863200  0.23863200  0.75065100  1
  O  O6  1  0.83546100  0.83546100  0.54186900  1
  O  O7  1  0.42868200  0.42868200  0.35517100  1
  O  O8  1  0.05095300  0.05095300  0.14184100  1
  O  O9  1  0.64196200  0.64196200  0.96073000  1
loop_
_geom_bond_atom_site_label_1
_geom_bond_atom_site_label_2
_geom_bond_distance
_geom_bond_site_symmetry_2
Li0 O0 2.032657 1_556
Li0 O9 2.144267 1_545
Li0 O9 2.144267 1_455
Li0 O1 2.166323 1_545
Li0 O1 2.166323 1_455
Li0 O5 2.294897 1_555
Li1 O2 2.069520 1_565
Li1 O2 2.069520 1_655
Li1 O5 2.159069 1_655
Li1 O5 2.159069 1_565
Li1 O6 2.192962 1_555
Li1 O1 2.374397 1_555
Li2 O7 2.069800 1_555
Li2 O6 2.111346 1_545
Li2 O6 2.111346 1_455
Li2 O2 2.129572 1_555
Li2 O3 2.181342 1_565
Li2 O3 2.181342 1_655
Li3 O4 2.019322 1_545
Li3 O4 2.019322 1_455
Li3 O8 2.081239 1_555
Li3 O3 2.231886 1_555
Li3 O7 2.242609 1_545
Li3 O7 2.242609 1_455
Li4 O8 2.021784 1_655
Li4 O8 2.021784 1_565
Li4 O4 2.107290 1_555
Li4 O9 2.169163 1_554
Li4 O0 2.269868 1_655
Li4 O0 2.269868 1_565
Li5 O7 2.087799 1_555
Li5 O8 2.093949 1_655
Li5 O8 2.093949 1_565
Li5 O4 2.099127 1_455
Li5 O4 2.099127 1_545
Li5 O0 2.109312 1_555
Mn0 O8 1.824360 1_555
Mn0 O0 1.927574 1_545
Mn0 O0 1.927574 1_455
Mn0 O9 1.975130 1_544
Mn0 O9 1.975130 1_454
Mn0 O1 2.156096 1_444
Mn1 O4 1.840400 1_555
Mn1 O7 1.927883 1_565
Mn1 O7 1.927883 1_655
Mn1 O3 1.975740 1_655
Mn1 O3 1.975740 1_565
Mn1 O6 2.091633 1_555
Mn2 O5 1.973108 1_655
Mn2 O5 1.973108 1_565
Mn2 O1 1.979720 1_545
Mn2 O1 1.979720 1_455
Mn2 O2 2.198103 1_555
Mn2 O9 2.212882 1_555
Co0 O2 2.011350 1_455
Co0 O2 2.011350 1_545
Co0 O6 2.013055 1_545
Co0 O6 2.013055 1_455
Co0 O3 2.062653 1_555
Co0 O5 2.165196 1_555
