# generated using pymatgen
data_Sm2Mn2Al2Fe13C
_symmetry_space_group_name_H-M   'P 1'
_cell_length_a   6.48603989
_cell_length_b   6.43857497
_cell_length_c   6.42147412
_cell_angle_alpha   83.24273300
_cell_angle_beta   83.31143544
_cell_angle_gamma   82.82851659
_symmetry_Int_Tables_number   1
_chemical_formula_structural   Sm2Mn2Al2Fe13C
_chemical_formula_sum   'Sm2 Mn2 Al2 Fe13 C1'
_cell_volume   262.80652291
_cell_formula_units_Z   1
loop_
 _symmetry_equiv_pos_site_id
 _symmetry_equiv_pos_as_xyz
  1  'x, y, z'
loop_
 _atom_site_type_symbol
 _atom_site_label
 _atom_site_symmetry_multiplicity
 _atom_site_fract_x
 _atom_site_fract_y
 _atom_site_fract_z
 _atom_site_occupancy
  Sm  Sm0  1  0.65497900  0.65509900  0.63993700  1
  Sm  Sm1  1  0.34502100  0.34490100  0.36006300  1
  Mn  Mn0  1  0.00000000  0.00000000  0.50000000  1
  Mn  Mn1  1  0.00000000  0.50000000  0.00000000  1
  Al  Al0  1  0.89490400  0.89864400  0.89732200  1
  Al  Al1  1  0.10509600  0.10135600  0.10267800  1
  Fe  Fe0  1  0.34312200  0.34359800  0.85151900  1
  Fe  Fe1  1  0.34042600  0.85171300  0.34475700  1
  Fe  Fe2  1  0.85436400  0.34040600  0.34487200  1
  Fe  Fe3  1  0.65687800  0.65640200  0.14848100  1
  Fe  Fe4  1  0.65957400  0.14828700  0.65524300  1
  Fe  Fe5  1  0.14563600  0.65959400  0.65512800  1
  Fe  Fe6  1  0.28328600  0.71323200  0.99925800  1
  Fe  Fe7  1  0.72156000  0.00261100  0.28229400  1
  Fe  Fe8  1  0.99751700  0.28365000  0.71409200  1
  Fe  Fe9  1  0.27844000  0.99738900  0.71770600  1
  Fe  Fe10  1  0.00248300  0.71635000  0.28590800  1
  Fe  Fe11  1  0.71671400  0.28676800  0.00074200  1
  Fe  Fe12  1  0.50000000  0.00000000  0.00000000  1
  C  C0  1  0.50000000  0.50000000  0.00000000  1
loop_
_geom_bond_atom_site_label_1
_geom_bond_atom_site_label_2
_geom_bond_distance
_geom_bond_site_symmetry_2
Al0 Al1 2.563031 1_666
Al0 Fe4 2.584953 1_565
Al0 Fe12 2.590695 1_566
Al0 Mn0 2.591187 1_665
Al0 Mn1 2.599411 1_656
Al0 Fe5 2.604157 1_655
Al0 Fe3 2.616580 1_556
Al0 Fe7 2.716148 1_566
Al0 Fe9 2.734372 1_655
Al0 Fe11 2.740849 1_566
Al0 Fe8 2.741422 1_565
Al0 Fe10 2.757329 1_656
Al0 Fe6 2.765620 1_655
Al0 Sm0 3.070920 1_555
Al1 Fe1 2.584953 1_545
Al1 Fe12 2.590695 1_555
Al1 Mn0 2.591187 1_555
Al1 Mn1 2.599411 1_555
Al1 Fe2 2.604157 1_455
Al1 Fe0 2.616580 1_554
Al1 Fe9 2.716148 1_544
Al1 Fe7 2.734372 1_455
Al1 Fe6 2.740849 1_544
Al1 Fe10 2.741422 1_545
Al1 Fe8 2.757329 1_454
Al1 Fe11 2.765620 1_455
Al1 Sm1 3.070920 1_555
Fe0 Fe12 2.450756 1_556
Fe0 Mn1 2.459293 1_556
Fe0 Fe5 2.548016 1_555
Fe0 Fe4 2.551213 1_555
Fe0 Fe9 2.579037 1_545
Fe0 Fe8 2.590281 1_455
Fe1 Mn0 2.442451 1_565
Fe1 Fe12 2.469713 1_565
Fe1 Fe5 2.514359 1_555
Fe1 Fe10 2.540533 1_555
Fe1 Fe3 2.551213 1_555
Fe1 Fe6 2.567906 1_554
Fe1 Fe9 2.643295 1_555
Fe1 Fe7 2.737307 1_565
Fe1 Sm0 3.008184 1_555
Fe1 Sm1 3.192436 1_565
Fe1 Sm1 3.249554 1_555
Fe2 Mn0 2.424203 1_655
Fe2 Mn1 2.464158 1_655
Fe2 Fe4 2.514359 1_555
Fe2 Fe7 2.527402 1_555
Fe2 Fe3 2.548016 1_555
Fe2 Fe8 2.615566 1_555
Fe2 Sm0 3.007708 1_555
Fe2 Sm1 3.199083 1_655
Fe2 Sm1 3.290285 1_555
Fe3 Mn1 2.459293 1_655
Fe3 Fe7 2.579037 1_565
Fe4 Mn0 2.442451 1_655
Fe4 Fe8 2.540533 1_555
Fe4 Fe7 2.643295 1_555
Fe4 Fe9 2.737307 1_545
Fe4 Sm1 3.008184 1_555
Fe4 Sm0 3.192436 1_545
Fe4 Sm0 3.249554 1_555
Fe5 Mn0 2.424203 1_565
Fe5 Mn1 2.464158 1_556
Fe5 Fe9 2.527402 1_555
Fe5 Fe6 2.552615 1_555
Fe5 Fe8 2.684315 1_455
Fe5 Sm1 3.007708 1_555
Fe5 Sm0 3.199083 1_455
Fe5 Sm0 3.290285 1_555
Fe6 Fe9 2.416102 1_555
Fe6 Mn1 2.426359 1_556
Fe7 Mn0 2.406496 1_655
Fe7 Sm0 3.044362 1_545
Fe7 Sm1 3.114801 1_555
Fe8 Mn0 2.409155 1_655
Fe8 Fe9 2.424636 1_645
Fe8 Mn1 2.434278 1_656
Fe8 Sm1 3.036664 1_655
Fe8 Sm0 3.087769 1_555
Fe9 Mn0 2.406496 1_565
Fe9 Sm1 3.044362 1_565
Fe9 Sm0 3.114801 1_555
Fe10 Mn0 2.409155 1_565
Fe10 Fe7 2.424636 1_465
Fe10 Fe6 2.434007 1_554
Fe10 Mn1 2.434278 1_555
Fe10 Fe3 2.590281 1_455
Fe10 Fe5 2.615566 1_555
Fe10 Fe2 2.684315 1_455
Fe10 Sm0 3.036664 1_455
Fe10 Sm1 3.087769 1_555
Fe11 Fe7 2.416102 1_555
Fe11 Mn1 2.426359 1_655
Fe11 Fe8 2.434007 1_554
Fe11 Fe12 2.456931 1_555
Fe11 Fe2 2.552615 1_555
Fe11 Fe4 2.567906 1_554
Fe12 Fe7 2.443655 1_555
Fe12 Fe9 2.443655 1_544
Fe12 Fe3 2.450756 1_545
Fe12 Fe6 2.456931 1_544
Fe12 Fe4 2.469713 1_554
C0 Fe6 1.838166 1_554
C0 Fe11 1.838166 1_555
C0 Fe3 1.914753 1_555
C0 Fe0 1.914753 1_554
C0 Sm1 2.553332 1_555
C0 Sm0 2.553332 1_554
