# generated using pymatgen
data_Tm2ZnS4
_symmetry_space_group_name_H-M   'P 1'
_cell_length_a   6.25277137
_cell_length_b   7.74662770
_cell_length_c   13.30612194
_cell_angle_alpha   90.00000000
_cell_angle_beta   90.00000000
_cell_angle_gamma   90.00000000
_symmetry_Int_Tables_number   1
_chemical_formula_structural   Tm2ZnS4
_chemical_formula_sum   'Tm8 Zn4 S16'
_cell_volume   644.52049609
_cell_formula_units_Z   4
loop_
 _symmetry_equiv_pos_site_id
 _symmetry_equiv_pos_as_xyz
  1  'x, y, z'
loop_
 _atom_site_type_symbol
 _atom_site_label
 _atom_site_symmetry_multiplicity
 _atom_site_fract_x
 _atom_site_fract_y
 _atom_site_fract_z
 _atom_site_occupancy
  Tm  Tm0  1  0.50373942  0.75000000  0.76537833  1
  Tm  Tm1  1  0.00373942  0.25000000  0.73462167  1
  Tm  Tm2  1  0.49626058  0.25000000  0.23462167  1
  Tm  Tm3  1  0.99626058  0.75000000  0.26537833  1
  Tm  Tm4  1  0.50000000  0.50000000  0.50000000  1
  Tm  Tm5  1  0.00000000  0.50000000  -0.00000000  1
  Tm  Tm6  1  0.50000000  0.00000000  0.50000000  1
  Tm  Tm7  1  0.00000000  -0.00000000  -0.00000000  1
  Zn  Zn0  1  0.08801071  0.75000000  0.59213112  1
  Zn  Zn1  1  0.58801071  0.25000000  0.90786888  1
  Zn  Zn2  1  0.91198929  0.25000000  0.40786888  1
  Zn  Zn3  1  0.41198929  0.75000000  0.09213112  1
  S  S0  1  0.24327779  0.51175367  0.16822517  1
  S  S1  1  0.74327779  0.48824633  0.33177483  1
  S  S2  1  0.75672221  0.01175367  0.83177483  1
  S  S3  1  0.25672221  0.98824633  0.66822517  1
  S  S4  1  0.75672221  0.48824633  0.83177483  1
  S  S5  1  0.25672221  0.51175367  0.66822517  1
  S  S6  1  0.24327779  0.98824633  0.16822517  1
  S  S7  1  0.74327779  0.01175367  0.33177483  1
  S  S8  1  0.25610414  0.75000000  0.92926223  1
  S  S9  1  0.75610414  0.25000000  0.57073777  1
  S  S10  1  0.74389586  0.25000000  0.07073777  1
  S  S11  1  0.24389586  0.75000000  0.42926223  1
  S  S12  1  0.77613974  0.75000000  0.08997773  1
  S  S13  1  0.27613974  0.25000000  0.41002227  1
  S  S14  1  0.22386026  0.25000000  0.91002227  1
  S  S15  1  0.72386026  0.75000000  0.58997773  1
loop_
_geom_bond_atom_site_label_1
_geom_bond_atom_site_label_2
_geom_bond_distance
_geom_bond_site_symmetry_2
S0 Zn3 2.354633 1_555
S0 Tm5 2.707908 1_555
S0 Tm2 2.719258 1_555
S0 Tm3 2.731854 1_455
S1 Zn2 2.354633 1_555
S1 Tm4 2.707908 1_555
S1 Tm3 2.719258 1_555
S1 Tm2 2.731854 1_555
S2 Zn1 2.354633 1_555
S2 Tm7 2.707908 1_656
S2 Tm0 2.719258 1_545
S2 Tm1 2.731854 1_655
S3 Zn0 2.354633 1_555
S3 Tm6 2.707908 1_565
S3 Tm1 2.719258 1_565
S3 Tm0 2.731854 1_555
S4 Zn1 2.354633 1_555
S4 Tm5 2.707908 1_656
S4 Tm0 2.719258 1_555
S4 Tm1 2.731854 1_655
S5 Zn0 2.354633 1_555
S5 Tm4 2.707908 1_555
S5 Tm1 2.719258 1_555
S5 Tm0 2.731854 1_555
S6 Zn3 2.354633 1_555
S6 Tm7 2.707908 1_565
S6 Tm2 2.719258 1_565
S6 Tm3 2.731854 1_455
S7 Zn2 2.354633 1_555
S7 Tm6 2.707908 1_555
S7 Tm3 2.719258 1_545
S7 Tm2 2.731854 1_555
S8 Zn3 2.376262 1_556
S8 Tm0 2.674479 1_555
S8 Tm5 2.683457 1_556
S8 Tm7 2.683457 1_566
S9 Zn2 2.376262 1_555
S9 Tm1 2.674479 1_655
S9 Tm4 2.683457 1_555
S9 Tm6 2.683457 1_555
S10 Zn1 2.376262 1_554
S10 Tm2 2.674479 1_555
S10 Tm5 2.683457 1_655
S10 Tm7 2.683457 1_655
S11 Zn0 2.376262 1_555
S11 Tm3 2.674479 1_455
S11 Tm4 2.683457 1_555
S11 Tm6 2.683457 1_565
S12 Zn3 2.277130 1_555
S12 Tm7 2.672705 1_665
S12 Tm5 2.672705 1_655
S12 Tm3 2.709516 1_555
S13 Zn2 2.277130 1_455
S13 Tm6 2.672705 1_555
S13 Tm4 2.672705 1_555
S13 Tm2 2.709516 1_555
S14 Zn1 2.277130 1_555
S14 Tm5 2.672705 1_556
S14 Tm7 2.672705 1_556
S14 Tm1 2.709516 1_555
S15 Zn0 2.277130 1_655
S15 Tm6 2.672705 1_565
S15 Tm4 2.672705 1_555
S15 Tm0 2.709516 1_555
