# generated using pymatgen
data_Li3BH6
_symmetry_space_group_name_H-M   'P 1'
_cell_length_a   5.18278635
_cell_length_b   5.18278635
_cell_length_c   5.18278633
_cell_angle_alpha   92.16385581
_cell_angle_beta   92.16385581
_cell_angle_gamma   92.16386394
_symmetry_Int_Tables_number   1
_chemical_formula_structural   Li3BH6
_chemical_formula_sum   'Li6 B2 H12'
_cell_volume   138.91071050
_cell_formula_units_Z   2
loop_
 _symmetry_equiv_pos_site_id
 _symmetry_equiv_pos_as_xyz
  1  'x, y, z'
loop_
 _atom_site_type_symbol
 _atom_site_label
 _atom_site_symmetry_multiplicity
 _atom_site_fract_x
 _atom_site_fract_y
 _atom_site_fract_z
 _atom_site_occupancy
  Li  Li0  1  0.91561900  0.41969100  0.74160400  1
  Li  Li1  1  0.74160400  0.91561900  0.41969100  1
  Li  Li2  1  0.41969100  0.74160400  0.91561900  1
  Li  Li3  1  0.08438100  0.58030900  0.25839600  1
  Li  Li4  1  0.25839600  0.08438100  0.58030900  1
  Li  Li5  1  0.58030900  0.25839600  0.08438100  1
  B  B0  1  0.00000000  0.00000000  0.00000000  1
  B  B1  1  0.50000000  0.50000000  0.50000000  1
  H  H0  1  0.73489300  0.92184900  0.05072900  1
  H  H1  1  0.05072900  0.73489300  0.92184900  1
  H  H2  1  0.92184900  0.05072900  0.73489300  1
  H  H3  1  0.26510700  0.07815100  0.94927100  1
  H  H4  1  0.94927100  0.26510700  0.07815100  1
  H  H5  1  0.07815100  0.94927100  0.26510700  1
  H  H6  1  0.55323900  0.23584400  0.43073500  1
  H  H7  1  0.43073500  0.55323900  0.23584400  1
  H  H8  1  0.23584400  0.43073500  0.55323900  1
  H  H9  1  0.44676100  0.76415600  0.56926500  1
  H  H10  1  0.56926500  0.44676100  0.76415600  1
  H  H11  1  0.76415600  0.56926500  0.44676100  1
loop_
_geom_bond_atom_site_label_1
_geom_bond_atom_site_label_2
_geom_bond_distance
_geom_bond_site_symmetry_2
B0 H3 1.454075 1_554
B0 H0 1.454075 1_445
B0 H2 1.454075 1_454
B0 H5 1.454075 1_545
B0 H4 1.454075 1_455
B0 H1 1.454075 1_544
B1 H8 1.441609 1_555
B1 H11 1.441609 1_555
B1 H7 1.441609 1_555
B1 H10 1.441609 1_555
B1 H6 1.441609 1_555
B1 H9 1.441609 1_555
H0 Li1 1.912768 1_555
H0 Li2 1.944409 1_554
H0 Li5 1.951364 1_565
H1 Li2 1.912768 1_555
H1 Li0 1.944409 1_455
H1 Li3 1.951364 1_556
H2 Li0 1.912768 1_555
H2 Li1 1.944409 1_545
H2 Li4 1.951364 1_655
H3 Li4 1.912768 1_555
H3 Li5 1.944409 1_556
H3 Li2 1.951364 1_545
H4 Li5 1.912768 1_555
H4 Li3 1.944409 1_655
H4 Li0 1.951364 1_554
H5 Li3 1.912768 1_555
H5 Li4 1.944409 1_565
H5 Li1 1.951364 1_455
H6 Li5 1.813636 1_555
H6 Li4 1.896606 1_555
H6 Li1 1.957093 1_545
H7 Li3 1.813636 1_555
H7 Li5 1.896606 1_555
H7 Li2 1.957093 1_554
H8 Li4 1.813636 1_555
H8 Li3 1.896606 1_555
H8 Li0 1.957093 1_455
H9 Li2 1.813636 1_555
H9 Li1 1.896606 1_555
H9 Li4 1.957093 1_565
H10 Li0 1.813636 1_555
H10 Li2 1.896606 1_555
H10 Li5 1.957093 1_556
H11 Li1 1.813636 1_555
H11 Li0 1.896606 1_555
H11 Li3 1.957093 1_655
