# generated using pymatgen
data_Be12Ag
_symmetry_space_group_name_H-M   'P 1'
_cell_length_a   5.62572423
_cell_length_b   5.62572423
_cell_length_c   5.62572423
_cell_angle_alpha   98.25375866
_cell_angle_beta   98.25375866
_cell_angle_gamma   135.47012714
_symmetry_Int_Tables_number   1
_chemical_formula_structural   Be12Ag
_chemical_formula_sum   'Be12 Ag1'
_cell_volume   115.55174624
_cell_formula_units_Z   1
loop_
 _symmetry_equiv_pos_site_id
 _symmetry_equiv_pos_as_xyz
  1  'x, y, z'
loop_
 _atom_site_type_symbol
 _atom_site_label
 _atom_site_symmetry_multiplicity
 _atom_site_fract_x
 _atom_site_fract_y
 _atom_site_fract_z
 _atom_site_occupancy
  Be  Be0  1  0.00000000  0.50000000  0.00000000  1
  Be  Be1  1  0.00000000  0.00000000  0.50000000  1
  Be  Be2  1  0.50000000  0.50000000  0.50000000  1
  Be  Be3  1  0.50000000  0.00000000  0.00000000  1
  Be  Be4  1  0.00000000  0.35321500  0.35321500  1
  Be  Be5  1  0.64678500  0.00000000  0.64678500  1
  Be  Be6  1  0.35321500  0.00000000  0.35321500  1
  Be  Be7  1  0.00000000  0.64678500  0.64678500  1
  Be  Be8  1  0.50000000  0.26550100  0.76550100  1
  Be  Be9  1  0.73449900  0.50000000  0.23449900  1
  Be  Be10  1  0.26550100  0.50000000  0.76550100  1
  Be  Be11  1  0.50000000  0.73449900  0.23449900  1
  Ag  Ag0  1  0.00000000  0.00000000  0.00000000  1
loop_
_geom_bond_atom_site_label_1
_geom_bond_atom_site_label_2
_geom_bond_distance
_geom_bond_site_symmetry_2
Be0 Be9 2.130035 1_455
Be0 Be11 2.130035 1_555
Be0 Be8 2.130035 1_454
Be0 Be10 2.130035 1_554
Be0 Be3 2.131530 1_455
Be0 Be3 2.131530 1_565
Be0 Be6 2.258661 1_565
Be0 Be4 2.258661 1_555
Be0 Be5 2.258661 1_454
Be0 Be7 2.258661 1_554
Be1 Be10 2.130035 1_555
Be1 Be8 2.130035 1_555
Be1 Be9 2.130035 1_445
Be1 Be11 2.130035 1_445
Be1 Be2 2.131530 1_445
Be1 Be2 2.131530 1_555
Be1 Be6 2.258661 1_555
Be1 Be4 2.258661 1_555
Be1 Be7 2.258661 1_545
Be1 Be5 2.258661 1_455
Be2 Be8 2.130035 1_555
Be2 Be9 2.130035 1_555
Be2 Be6 2.258661 1_555
Be2 Be4 2.258661 1_555
Be2 Be7 2.258661 1_655
Be2 Be5 2.258661 1_565
Be3 Be9 2.130035 1_555
Be3 Be8 2.130035 1_554
Be3 Be6 2.258661 1_555
Be3 Be4 2.258661 1_655
Be3 Be5 2.258661 1_554
Be3 Be7 2.258661 1_544
Be4 Be7 2.161495 1_555
Be4 Be9 2.233690 1_455
Be5 Be6 2.161495 1_555
Be5 Be8 2.233690 1_555
Be6 Be8 2.233690 1_555
Be6 Be9 2.303788 1_445
Be6 Be9 2.303788 1_555
Be7 Be9 2.233690 1_455
Be7 Be8 2.303788 1_455
Be7 Be8 2.303788 1_565
Be8 Be9 2.441735 1_556
Be10 Be3 2.130035 1_566
Be10 Be2 2.130035 1_555
Be10 Be7 2.233690 1_555
Be10 Be4 2.233690 1_555
Be10 Be5 2.303788 1_455
Be10 Be5 2.303788 1_565
Be10 Be11 2.441735 1_556
Be10 Be8 2.441735 1_555
Be11 Be3 2.130035 1_565
Be11 Be2 2.130035 1_555
Be11 Be5 2.233690 1_565
Be11 Be6 2.233690 1_565
Be11 Be4 2.303788 1_665
Be11 Be4 2.303788 1_555
Be11 Be9 2.441735 1_555
Ag0 Be6 2.600649 1_555
Ag0 Be4 2.600649 1_555
Ag0 Be5 2.600649 1_454
Ag0 Be7 2.600649 1_544
Ag0 Be9 2.743074 1_445
Ag0 Be11 2.743074 1_445
Ag0 Be11 2.743074 1_555
Ag0 Be9 2.743074 1_555
Ag0 Be8 2.743074 1_554
Ag0 Be10 2.743074 1_554
Ag0 Be8 2.743074 1_444
Ag0 Be10 2.743074 1_444
Ag0 Be2 2.812862 1_555
Ag0 Be0 2.812862 1_555
Ag0 Be2 2.812862 1_444
Ag0 Be1 2.812862 1_555
Ag0 Be1 2.812862 1_554
Ag0 Be3 2.812862 1_455
Ag0 Be3 2.812862 1_555
Ag0 Be0 2.812862 1_545
