# generated using pymatgen
data_Ce4S3O4
_symmetry_space_group_name_H-M   'P 1'
_cell_length_a   3.95007356
_cell_length_b   6.84545541
_cell_length_c   14.74541270
_cell_angle_alpha   89.99698675
_cell_angle_beta   90.00319948
_cell_angle_gamma   89.99565844
_symmetry_Int_Tables_number   1
_chemical_formula_structural   Ce4S3O4
_chemical_formula_sum   'Ce8 S6 O8'
_cell_volume   398.71673043
_cell_formula_units_Z   2
loop_
 _symmetry_equiv_pos_site_id
 _symmetry_equiv_pos_as_xyz
  1  'x, y, z'
loop_
 _atom_site_type_symbol
 _atom_site_label
 _atom_site_symmetry_multiplicity
 _atom_site_fract_x
 _atom_site_fract_y
 _atom_site_fract_z
 _atom_site_occupancy
  Ce  Ce0  1  0.50007987  0.29290635  0.65838480  1
  Ce  Ce1  1  0.49982467  0.70715369  0.34152729  1
  Ce  Ce2  1  0.49962614  0.79292118  0.84154984  1
  Ce  Ce3  1  0.50033303  0.20711043  0.15855958  1
  Ce  Ce4  1  0.00015801  0.21765773  0.92309751  1
  Ce  Ce5  1  -0.00014731  0.78235634  0.07701992  1
  Ce  Ce6  1  -0.00004562  0.71768735  0.57687064  1
  Ce  Ce7  1  0.00006841  0.28237461  0.42298267  1
  S  S0  1  -0.00003420  0.00639953  0.28053697  1
  S  S1  1  0.00003268  0.99353981  0.71944774  1
  S  S2  1  -0.00000367  0.50642211  0.21960368  1
  S  S3  1  0.00001148  0.49352945  0.78047613  1
  S  S4  1  0.49999908  -0.00000979  0.49983615  1
  S  S5  1  0.50000051  0.49999387  0.00010788  1
  O  O0  1  0.50014436  0.11935577  0.87719752  1
  O  O1  1  0.49987166  0.88060663  0.12295819  1
  O  O2  1  0.49996367  0.61929068  0.62270561  1
  O  O3  1  0.50005814  0.38074403  0.37716274  1
  O  O4  1  -0.00003916  0.36113239  0.57158732  1
  O  O5  1  0.00008167  0.63885220  0.42826588  1
  O  O6  1  0.00024005  0.86119289  0.92838335  1
  O  O7  1  -0.00022349  0.13878275  0.07173857  1
loop_
_geom_bond_atom_site_label_1
_geom_bond_atom_site_label_2
_geom_bond_distance
_geom_bond_site_symmetry_2
Ce0 O2 2.295328 1_555
Ce0 O4 2.399052 1_655
Ce0 O4 2.399650 1_555
Ce0 S1 2.984858 1_645
Ce0 S1 2.985377 1_545
Ce0 S3 3.004516 1_655
Ce0 S3 3.004867 1_555
Ce0 S4 3.080051 1_555
Ce1 O3 2.295350 1_555
Ce1 O5 2.398241 1_555
Ce1 O5 2.399736 1_655
Ce1 S0 2.983722 1_565
Ce1 S0 2.984732 1_665
Ce1 S2 3.003107 1_555
Ce1 S2 3.003994 1_655
Ce1 S4 3.077012 1_565
Ce2 O0 2.295612 1_565
Ce2 O6 2.397756 1_555
Ce2 O6 2.401688 1_655
Ce2 S3 2.984411 1_555
Ce2 S3 2.986286 1_655
Ce2 S1 3.003497 1_555
Ce2 S1 3.005877 1_655
Ce2 S5 3.080046 1_556
Ce3 O1 2.295917 1_545
Ce3 O7 2.397919 1_655
Ce3 O7 2.401478 1_555
Ce3 S2 2.984030 1_655
Ce3 S2 2.985651 1_555
Ce3 S0 3.002786 1_655
Ce3 S0 3.004962 1_555
Ce3 S5 3.078660 1_555
Ce4 O0 2.193503 1_555
Ce4 O0 2.193624 1_455
Ce4 O7 2.257273 1_556
Ce4 O6 2.441405 1_545
Ce4 S3 2.826402 1_555
Ce4 S5 2.987265 1_556
Ce4 S5 2.987977 1_456
Ce5 O1 2.193550 1_455
Ce5 O1 2.193708 1_555
Ce5 O6 2.257146 1_554
Ce5 O7 2.441139 1_565
Ce5 S2 2.826275 1_555
Ce5 S5 2.986856 1_455
Ce5 S5 2.987518 1_555
Ce6 O2 2.193398 1_555
Ce6 O2 2.193492 1_455
Ce6 O5 2.256742 1_555
Ce6 O4 2.442028 1_555
Ce6 S1 2.825976 1_555
Ce6 S4 2.987276 1_465
Ce6 S4 2.987787 1_565
Ce7 O3 2.193276 1_455
Ce7 O3 2.193363 1_555
Ce7 O4 2.256614 1_555
Ce7 O5 2.441499 1_555
Ce7 S0 2.825096 1_555
Ce7 S4 2.986559 1_555
Ce7 S4 2.987199 1_455
