# generated using pymatgen
data_TbH5(SeO4)2
_symmetry_space_group_name_H-M   'P 1'
_cell_length_a   6.74366300
_cell_length_b   7.11246800
_cell_length_c   17.14561700
_cell_angle_alpha   90.00000000
_cell_angle_beta   90.00000000
_cell_angle_gamma   90.00000000
_symmetry_Int_Tables_number   1
_chemical_formula_structural   TbH5(SeO4)2
_chemical_formula_sum   'Tb4 H20 Se8 O32'
_cell_volume   822.37387043
_cell_formula_units_Z   4
loop_
 _symmetry_equiv_pos_site_id
 _symmetry_equiv_pos_as_xyz
  1  'x, y, z'
loop_
 _atom_site_type_symbol
 _atom_site_label
 _atom_site_symmetry_multiplicity
 _atom_site_fract_x
 _atom_site_fract_y
 _atom_site_fract_z
 _atom_site_occupancy
  Tb  Tb0  1  0.87170600  0.88523800  0.28357300  1
  Tb  Tb1  1  0.62829400  0.11476200  0.78357300  1
  Tb  Tb2  1  0.37170600  0.61476200  0.71642700  1
  Tb  Tb3  1  0.12829400  0.38523800  0.21642700  1
  H  H0  1  0.05609300  0.78524500  0.99518700  1
  H  H1  1  0.44390700  0.21475500  0.49518700  1
  H  H2  1  0.55609300  0.71475500  0.00481300  1
  H  H3  1  0.94390700  0.28524500  0.50481300  1
  H  H4  1  0.96909000  0.57786000  0.39338300  1
  H  H5  1  0.53091000  0.42214000  0.89338300  1
  H  H6  1  0.46909000  0.92214000  0.60661700  1
  H  H7  1  0.03091000  0.07786000  0.10661700  1
  H  H8  1  0.88282400  0.73347700  0.45282100  1
  H  H9  1  0.61717600  0.26652300  0.95282100  1
  H  H10  1  0.38282400  0.76652300  0.54717900  1
  H  H11  1  0.11717600  0.23347700  0.04717900  1
  H  H12  1  0.42287200  0.75231600  0.39911100  1
  H  H13  1  0.07712800  0.24768400  0.89911100  1
  H  H14  1  0.92287200  0.74768400  0.60088900  1
  H  H15  1  0.57712800  0.25231600  0.10088900  1
  H  H16  1  0.30036800  0.58430800  0.43056400  1
  H  H17  1  0.19963200  0.41569200  0.93056400  1
  H  H18  1  0.80036800  0.91569200  0.56943600  1
  H  H19  1  0.69963200  0.08430800  0.06943600  1
  Se  Se0  1  0.65935100  0.38098600  0.27101300  1
  Se  Se1  1  0.84064900  0.61901400  0.77101300  1
  Se  Se2  1  0.15935100  0.11901400  0.72898700  1
  Se  Se3  1  0.34064900  0.88098600  0.22898700  1
  Se  Se4  1  0.85994000  0.68019400  0.09341100  1
  Se  Se5  1  0.64006000  0.31980600  0.59341100  1
  Se  Se6  1  0.35994000  0.81980600  0.90658900  1
  Se  Se7  1  0.14006000  0.18019400  0.40658900  1
  O  O0  1  0.47172500  0.38304200  0.20327600  1
  O  O1  1  0.02827500  0.61695800  0.70327600  1
  O  O2  1  0.97172500  0.11695800  0.79672400  1
  O  O3  1  0.52827500  0.88304200  0.29672400  1
  O  O4  1  0.81666300  0.20769000  0.23606300  1
  O  O5  1  0.68333700  0.79231000  0.73606300  1
  O  O6  1  0.31666300  0.29231000  0.76393700  1
  O  O7  1  0.18333700  0.70769000  0.26393700  1
  O  O8  1  0.81494500  0.56341500  0.23957100  1
  O  O9  1  0.68505500  0.43658500  0.73957100  1
  O  O10  1  0.31494500  0.93658500  0.76042900  1
  O  O11  1  0.18505500  0.06341500  0.26042900  1
  O  O12  1  0.08089500  0.57733100  0.10917600  1
  O  O13  1  0.41910500  0.42266900  0.60917600  1
  O  O14  1  0.58089500  0.92266900  0.89082400  1
  O  O15  1  0.91910500  0.07733100  0.39082400  1
  O  O16  1  0.86549100  0.88837900  0.14491300  1
  O  O17  1  0.63450900  0.11162100  0.64491300  1
  O  O18  1  0.36549100  0.61162100  0.85508700  1
  O  O19  1  0.13450900  0.38837900  0.35508700  1
  O  O20  1  0.91092600  0.77892300  0.99729600  1
  O  O21  1  0.58907400  0.22107700  0.49729600  1
  O  O22  1  0.41092600  0.72107700  0.00270400  1
  O  O23  1  0.08907400  0.27892300  0.50270400  1
  O  O24  1  0.88215400  0.68918900  0.39771700  1
  O  O25  1  0.61784600  0.31081100  0.89771700  1
  O  O26  1  0.38215400  0.81081100  0.60228300  1
  O  O27  1  0.11784600  0.18918900  0.10228300  1
  O  O28  1  0.38022200  0.69186700  0.44757200  1
  O  O29  1  0.11977800  0.30813300  0.94757200  1
  O  O30  1  0.88022200  0.80813300  0.55242800  1
  O  O31  1  0.61977800  0.19186700  0.05242800  1
loop_
_geom_bond_atom_site_label_1
_geom_bond_atom_site_label_2
_geom_bond_distance
_geom_bond_site_symmetry_2
H0 O20 0.980656 1_455
H1 O21 0.980656 1_555
H2 O22 0.980656 1_555
H3 O23 0.980656 1_655
H4 O24 0.988036 1_555
H5 O25 0.988036 1_555
H6 O26 0.988036 1_555
H7 O27 0.988036 1_555
H8 O24 0.995930 1_555
H9 O25 0.995930 1_555
H10 O26 0.995930 1_555
H11 O27 0.995930 1_555
H12 O28 0.978753 1_555
H13 O29 0.978753 1_555
H14 O30 0.978753 1_555
H15 O31 0.978753 1_555
H16 O28 0.979933 1_555
H17 O29 0.979933 1_555
H18 O30 0.979933 1_555
H19 O31 0.979933 1_555
O0 Se0 1.717555 1_555
O0 Tb3 2.326986 1_555
O1 Se1 1.717555 1_455
O1 Tb2 2.326986 1_555
O2 Se2 1.717555 1_655
O2 Tb1 2.326986 1_555
O3 Se3 1.717555 1_555
O3 Tb0 2.326986 1_555
O4 Se0 1.733124 1_555
O4 Tb0 2.461942 1_545
O4 Tb3 2.474767 1_655
O5 Se1 1.733124 1_555
O5 Tb1 2.461942 1_565
O5 Tb2 2.474767 1_555
O6 Se2 1.733124 1_555
O6 Tb2 2.461942 1_555
O6 Tb1 2.474767 1_555
O7 Se3 1.733124 1_555
O7 Tb3 2.461942 1_555
O7 Tb0 2.474767 1_455
O8 Se0 1.753612 1_555
O8 Tb0 2.440291 1_555
O8 Tb3 2.495743 1_655
O9 Se1 1.753612 1_555
O9 Tb1 2.440291 1_555
O9 Tb2 2.495743 1_555
O10 Se2 1.753612 1_565
O10 Tb2 2.440291 1_555
O10 Tb1 2.495743 1_565
O11 Se3 1.753612 1_545
O11 Tb3 2.440291 1_555
O11 Tb0 2.495743 1_445
O12 Se4 1.681830 1_455
O12 Tb3 2.313076 1_555
O13 Se5 1.681830 1_555
O13 Tb2 2.313076 1_555
O14 Se6 1.681830 1_555
O14 Tb1 2.313076 1_565
O15 Se7 1.681830 1_655
O15 Tb0 2.313076 1_545
O16 Se4 1.724427 1_555
O16 Tb0 2.377886 1_555
O17 Se5 1.724427 1_555
O17 Tb1 2.377886 1_555
O18 Se6 1.724427 1_555
O18 Tb2 2.377886 1_555
O19 Se7 1.724427 1_555
O19 Tb3 2.377886 1_555
O20 Se4 1.824022 1_556
O21 Se5 1.824022 1_555
O22 Se6 1.824022 1_554
O23 Se7 1.824022 1_555
O24 Tb0 2.404041 1_555
O25 Tb1 2.404041 1_555
O26 Tb2 2.404041 1_555
O27 Tb3 2.404041 1_555
