# generated using pymatgen
data_Be2Re
_symmetry_space_group_name_H-M   'P 1'
_cell_length_a   4.36168394
_cell_length_b   4.36168141
_cell_length_c   7.12271297
_cell_angle_alpha   90.00000000
_cell_angle_beta   90.00000000
_cell_angle_gamma   119.99998860
_symmetry_Int_Tables_number   1
_chemical_formula_structural   Be2Re
_chemical_formula_sum   'Be8 Re4'
_cell_volume   117.35031433
_cell_formula_units_Z   4
loop_
 _symmetry_equiv_pos_site_id
 _symmetry_equiv_pos_as_xyz
  1  'x, y, z'
loop_
 _atom_site_type_symbol
 _atom_site_label
 _atom_site_symmetry_multiplicity
 _atom_site_fract_x
 _atom_site_fract_y
 _atom_site_fract_z
 _atom_site_occupancy
  Be  Be0  1  0.00000000  0.00000000  -0.00000000  1
  Be  Be1  1  0.00000000  0.00000000  0.50000000  1
  Be  Be2  1  0.83103591  0.66207083  0.25000000  1
  Be  Be3  1  0.16896409  0.83103591  0.75000000  1
  Be  Be4  1  0.66207083  0.83103591  0.75000000  1
  Be  Be5  1  0.33792917  0.16896409  0.25000000  1
  Be  Be6  1  0.83103591  0.16896409  0.25000000  1
  Be  Be7  1  0.16896409  0.33792917  0.75000000  1
  Re  Re0  1  0.33333300  0.66666700  0.06117514  1
  Re  Re1  1  0.66666700  0.33333300  0.56117514  1
  Re  Re2  1  0.66666700  0.33333300  0.93882486  1
  Re  Re3  1  0.33333300  0.66666700  0.43882486  1
loop_
_geom_bond_atom_site_label_1
_geom_bond_atom_site_label_2
_geom_bond_distance
_geom_bond_site_symmetry_2
Be0 Be6 2.190931 1_455
Be0 Be3 2.190931 1_544
Be0 Be7 2.190933 1_554
Be0 Be2 2.190933 1_445
Be0 Be5 2.190934 1_555
Be0 Be4 2.190934 1_444
Be0 Re2 2.555636 1_454
Be0 Re0 2.555636 1_545
Be0 Re2 2.555639 1_444
Be0 Re0 2.555639 1_555
Be0 Re0 2.555641 1_445
Be0 Re2 2.555641 1_554
Be1 Be6 2.190931 1_455
Be1 Be3 2.190931 1_545
Be1 Be7 2.190933 1_555
Be1 Be2 2.190933 1_445
Be1 Be4 2.190934 1_445
Be1 Be5 2.190934 1_555
Be1 Re1 2.555636 1_455
Be1 Re3 2.555636 1_545
Be1 Re1 2.555639 1_445
Be1 Re3 2.555639 1_555
Be1 Re3 2.555641 1_445
Be1 Re1 2.555641 1_555
Be2 Be6 2.150774 1_555
Be2 Be5 2.150775 1_555
Be2 Be6 2.210907 1_565
Be2 Be5 2.210908 1_665
Be2 Re1 2.540556 1_555
Be2 Re2 2.540556 1_554
Be2 Re0 2.562271 1_655
Be2 Re3 2.562271 1_655
Be2 Re0 2.562278 1_555
Be2 Re3 2.562278 1_555
Be3 Be7 2.150774 1_555
Be3 Be4 2.150776 1_555
Be3 Be7 2.210907 1_565
Be3 Be4 2.210908 1_455
Be3 Re3 2.540556 1_555
Be3 Re0 2.540556 1_556
Be3 Re1 2.562274 1_565
Be3 Re2 2.562274 1_565
Be3 Re1 2.562274 1_455
Be3 Re2 2.562274 1_455
Be4 Be7 2.150775 1_555
Be4 Be7 2.210908 1_665
Be4 Re0 2.540556 1_556
Be4 Re3 2.540556 1_555
Be4 Re1 2.562270 1_565
Be4 Re2 2.562270 1_565
Be4 Re1 2.562277 1_555
Be4 Re2 2.562277 1_555
Be5 Be6 2.150776 1_555
Be5 Be6 2.210908 1_455
Be5 Re1 2.540556 1_555
Be5 Re2 2.540556 1_554
Be5 Re3 2.562270 1_545
Be5 Re0 2.562270 1_545
Be5 Re0 2.562277 1_555
Be5 Re3 2.562277 1_555
Be6 Re2 2.540556 1_554
Be6 Re1 2.540556 1_555
Be6 Re3 2.562274 1_545
Be6 Re0 2.562274 1_545
Be6 Re3 2.562274 1_655
Be6 Re0 2.562274 1_655
Be7 Re0 2.540556 1_556
Be7 Re3 2.540556 1_555
Be7 Re1 2.562271 1_455
Be7 Re2 2.562271 1_455
Be7 Re2 2.562278 1_555
Be7 Re1 2.562278 1_555
Re0 Re2 2.664744 1_564
Re0 Re2 2.664746 1_454
Re0 Re2 2.664752 1_554
Re0 Re3 2.689891 1_555
Re1 Re3 2.664744 1_545
Re1 Re3 2.664746 1_655
Re1 Re3 2.664752 1_555
Re1 Re2 2.689891 1_555
