# generated using pymatgen
data_K3La(PO4)2
_symmetry_space_group_name_H-M   'P 1'
_cell_length_a   5.74103500
_cell_length_b   7.61213700
_cell_length_c   9.73823116
_cell_angle_alpha   88.76336121
_cell_angle_beta   90.00000000
_cell_angle_gamma   90.00000000
_symmetry_Int_Tables_number   1
_chemical_formula_structural   K3La(PO4)2
_chemical_formula_sum   'K6 La2 P4 O16'
_cell_volume   425.47662460
_cell_formula_units_Z   2
loop_
 _symmetry_equiv_pos_site_id
 _symmetry_equiv_pos_as_xyz
  1  'x, y, z'
loop_
 _atom_site_type_symbol
 _atom_site_label
 _atom_site_symmetry_multiplicity
 _atom_site_fract_x
 _atom_site_fract_y
 _atom_site_fract_z
 _atom_site_occupancy
  K  K0  1  0.75000000  0.20419000  0.91567100  1
  K  K1  1  0.25000000  0.79581000  0.08432900  1
  K  K2  1  0.75000000  0.64171600  0.59452400  1
  K  K3  1  0.25000000  0.35828400  0.40547600  1
  K  K4  1  0.75000000  0.49226200  0.19026100  1
  K  K5  1  0.25000000  0.50773800  0.80973900  1
  La  La0  1  0.75000000  0.99301700  0.29185100  1
  La  La1  1  0.25000000  0.00698300  0.70814900  1
  P  P0  1  0.75000000  0.19935200  0.57313200  1
  P  P1  1  0.25000000  0.80064800  0.42686800  1
  P  P2  1  0.25000000  0.23565900  0.08515900  1
  P  P3  1  0.75000000  0.76434100  0.91484100  1
  O  O0  1  0.75000000  0.99625000  0.55645500  1
  O  O1  1  0.25000000  0.00375000  0.44354500  1
  O  O2  1  0.75000000  0.28397100  0.42546900  1
  O  O3  1  0.25000000  0.71602900  0.57453100  1
  O  O4  1  0.52797800  0.25643400  0.65296600  1
  O  O5  1  0.02797800  0.74356600  0.34703400  1
  O  O6  1  0.47202200  0.74356600  0.34703400  1
  O  O7  1  0.97202200  0.25643400  0.65296600  1
  O  O8  1  0.47174500  0.15633800  0.15711800  1
  O  O9  1  0.97174500  0.84366200  0.84288200  1
  O  O10  1  0.52825500  0.84366200  0.84288200  1
  O  O11  1  0.02825500  0.15633800  0.15711800  1
  O  O12  1  0.25000000  0.18202700  0.93123700  1
  O  O13  1  0.75000000  0.81797300  0.06876300  1
  O  O14  1  0.25000000  0.43661300  0.09948500  1
  O  O15  1  0.75000000  0.56338700  0.90051500  1
loop_
_geom_bond_atom_site_label_1
_geom_bond_atom_site_label_2
_geom_bond_distance
_geom_bond_site_symmetry_2
K0 O15 2.735055 1_555
K0 O11 2.859385 1_656
K0 O8 2.859385 1_556
K0 O4 2.878150 1_555
K0 O7 2.878150 1_555
K0 O12 2.879272 1_555
K0 O12 2.879272 1_655
K0 O10 3.120694 1_545
K0 O9 3.120694 1_545
K0 O13 3.267516 1_546
K1 O14 2.735055 1_555
K1 O9 2.859385 1_454
K1 O10 2.859385 1_554
K1 O6 2.878150 1_555
K1 O5 2.878150 1_555
K1 O13 2.879272 1_455
K1 O13 2.879272 1_555
K1 O11 3.120694 1_565
K1 O8 3.120694 1_565
K1 O12 3.267516 1_564
K2 O0 2.716167 1_555
K2 O3 2.931385 1_555
K2 O3 2.931385 1_655
K2 O6 2.979249 1_555
K2 O5 2.979249 1_655
K2 O15 3.026235 1_555
K2 O9 3.161282 1_555
K2 O10 3.161282 1_555
K2 O2 3.212420 1_555
K2 O4 3.236971 1_555
K2 O7 3.236971 1_555
K3 O1 2.716167 1_555
K3 O2 2.931385 1_455
K3 O2 2.931385 1_555
K3 O7 2.979249 1_455
K3 O4 2.979249 1_555
K3 O14 3.026235 1_555
K3 O8 3.161282 1_555
K3 O11 3.161282 1_555
K3 O3 3.212420 1_555
K3 O6 3.236971 1_555
K3 O5 3.236971 1_555
K4 O13 2.724058 1_555
K4 O2 2.757465 1_555
K4 O15 2.861589 1_554
K4 O6 2.943315 1_555
K4 O5 2.943315 1_655
K4 O14 3.035940 1_555
K4 O14 3.035940 1_655
K4 O8 3.038168 1_555
K4 O11 3.038168 1_655
K5 O12 2.724058 1_555
K5 O3 2.757465 1_555
K5 O14 2.861589 1_556
K5 O4 2.943315 1_555
K5 O7 2.943315 1_455
K5 O15 3.035940 1_555
K5 O15 3.035940 1_455
K5 O9 3.038168 1_455
K5 O10 3.038168 1_555
La0 O8 2.397627 1_565
La0 O11 2.397627 1_665
La0 O6 2.529274 1_555
La0 O5 2.529274 1_655
La0 O13 2.572950 1_555
La0 O0 2.577423 1_555
La0 O2 2.592832 1_565
La1 O10 2.397627 1_545
La1 O9 2.397627 1_445
La1 O4 2.529274 1_555
La1 O7 2.529274 1_455
La1 O12 2.572950 1_555
La1 O1 2.577423 1_555
La1 O3 2.592832 1_545
O0 P0 1.558029 1_565
O1 P1 1.558029 1_545
O2 P0 1.562914 1_555
O3 P1 1.562914 1_555
O4 P0 1.559647 1_555
O5 P1 1.559647 1_555
O6 P1 1.559647 1_555
O7 P0 1.559647 1_555
O8 P2 1.567806 1_555
O9 P3 1.567806 1_555
O10 P3 1.567806 1_555
O11 P2 1.567806 1_555
O12 P2 1.562008 1_556
O13 P3 1.562008 1_554
O14 P2 1.539033 1_555
O15 P3 1.539033 1_555
