# generated using pymatgen
data_Sc2FeB2Ru2Rh3
_symmetry_space_group_name_H-M   'P 1'
_cell_length_a   3.04492400
_cell_length_b   9.34083700
_cell_length_c   9.40152600
_cell_angle_alpha   90.00000000
_cell_angle_beta   90.00000000
_cell_angle_gamma   90.00000000
_symmetry_Int_Tables_number   1
_chemical_formula_structural   Sc2FeB2Ru2Rh3
_chemical_formula_sum   'Sc4 Fe2 B4 Ru4 Rh6'
_cell_volume   267.39950706
_cell_formula_units_Z   2
loop_
 _symmetry_equiv_pos_site_id
 _symmetry_equiv_pos_as_xyz
  1  'x, y, z'
loop_
 _atom_site_type_symbol
 _atom_site_label
 _atom_site_symmetry_multiplicity
 _atom_site_fract_x
 _atom_site_fract_y
 _atom_site_fract_z
 _atom_site_occupancy
  Sc  Sc0  1  0.00000000  0.32497600  0.82318000  1
  Sc  Sc1  1  0.00000000  0.67502400  0.17682000  1
  Sc  Sc2  1  0.00000000  0.82497600  0.67682000  1
  Sc  Sc3  1  0.00000000  0.17502400  0.32318000  1
  Fe  Fe0  1  0.00000000  0.50000000  0.50000000  1
  Fe  Fe1  1  0.00000000  0.00000000  0.00000000  1
  B  B0  1  0.00000000  0.87845700  0.36977000  1
  B  B1  1  0.00000000  0.12154300  0.63023000  1
  B  B2  1  0.00000000  0.37845700  0.13023000  1
  B  B3  1  0.00000000  0.62154300  0.86977000  1
  Ru  Ru0  1  0.50000000  0.43030100  0.28559700  1
  Ru  Ru1  1  0.50000000  0.56969900  0.71440300  1
  Ru  Ru2  1  0.50000000  0.93030100  0.21440300  1
  Ru  Ru3  1  0.50000000  0.06969900  0.78559700  1
  Rh  Rh0  1  0.50000000  0.71573500  0.43053300  1
  Rh  Rh1  1  0.50000000  0.28426500  0.56946700  1
  Rh  Rh2  1  0.50000000  0.78426500  0.93053300  1
  Rh  Rh3  1  0.50000000  0.21573500  0.06946700  1
  Rh  Rh4  1  0.50000000  0.50000000  0.00000000  1
  Rh  Rh5  1  0.50000000  0.00000000  0.50000000  1
loop_
_geom_bond_atom_site_label_1
_geom_bond_atom_site_label_2
_geom_bond_distance
_geom_bond_site_symmetry_2
Fe0 Ru1 2.608613 1_455
Fe0 Ru1 2.608613 1_555
Fe0 Ru0 2.608613 1_455
Fe0 Ru0 2.608613 1_555
Fe0 Rh1 2.608685 1_555
Fe0 Rh0 2.608685 1_555
Fe0 Rh0 2.608685 1_455
Fe0 Rh1 2.608685 1_455
Fe1 Ru2 2.608613 1_545
Fe1 Ru2 2.608613 1_445
Fe1 Ru3 2.608613 1_554
Fe1 Ru3 2.608613 1_454
Fe1 Rh2 2.608685 1_544
Fe1 Rh3 2.608685 1_455
Fe1 Rh3 2.608685 1_555
Fe1 Rh2 2.608685 1_444
B0 Ru2 2.164720 1_555
B0 Ru2 2.164720 1_455
B0 Rh0 2.225873 1_455
B0 Rh0 2.225873 1_555
B0 Rh5 2.259621 1_565
B0 Rh5 2.259621 1_465
B0 Sc1 2.627085 1_555
B0 Sc3 2.804600 1_565
B0 Sc2 2.929645 1_555
B1 Ru3 2.164720 1_455
B1 Ru3 2.164720 1_555
B1 Rh1 2.225873 1_555
B1 Rh1 2.225873 1_455
B1 Rh5 2.259621 1_555
B1 Rh5 2.259621 1_455
B1 Sc0 2.627085 1_555
B1 Sc2 2.804600 1_545
B1 Sc3 2.929645 1_555
B2 Ru0 2.164720 1_555
B2 Ru0 2.164720 1_455
B2 Rh3 2.225873 1_455
B2 Rh3 2.225873 1_555
B2 Rh4 2.259621 1_555
B2 Rh4 2.259621 1_455
B2 Sc3 2.627085 1_555
B2 Sc1 2.804600 1_555
B2 Sc0 2.929645 1_554
B3 Ru1 2.164720 1_455
B3 Ru1 2.164720 1_555
B3 Rh2 2.225873 1_455
B3 Rh2 2.225873 1_555
B3 Rh4 2.259621 1_556
B3 Rh4 2.259621 1_456
B3 Sc2 2.627085 1_555
B3 Sc0 2.804600 1_555
B3 Sc1 2.929645 1_556
Ru0 Sc3 2.851067 1_555
Ru0 Sc3 2.851067 1_655
Ru0 Sc1 2.930727 1_655
Ru0 Sc1 2.930727 1_555
Ru1 Sc2 2.851067 1_555
Ru1 Sc2 2.851067 1_655
Ru1 Sc0 2.930727 1_555
Ru1 Sc0 2.930727 1_655
Ru2 Sc1 2.851067 1_555
Ru2 Sc1 2.851067 1_655
Ru2 Sc3 2.930727 1_565
Ru2 Sc3 2.930727 1_665
Ru3 Sc0 2.851067 1_555
Ru3 Sc0 2.851067 1_655
Ru3 Sc2 2.930727 1_545
Ru3 Sc2 2.930727 1_645
Rh0 Sc1 2.855189 1_555
Rh0 Sc1 2.855189 1_655
Rh0 Sc2 2.953054 1_655
Rh0 Sc2 2.953054 1_555
Rh1 Sc0 2.855189 1_555
Rh1 Sc0 2.855189 1_655
Rh1 Sc3 2.953054 1_655
Rh1 Sc3 2.953054 1_555
Rh2 Sc2 2.855189 1_555
Rh2 Sc2 2.855189 1_655
Rh2 Sc1 2.953054 1_556
Rh2 Sc1 2.953054 1_656
Rh3 Sc3 2.855189 1_655
Rh3 Sc3 2.855189 1_555
Rh3 Sc0 2.953054 1_554
Rh3 Sc0 2.953054 1_654
Rh4 Sc1 2.784635 1_555
Rh4 Sc1 2.784635 1_655
Rh4 Sc0 2.784635 1_654
Rh4 Sc0 2.784635 1_554
Rh5 Sc2 2.784635 1_545
Rh5 Sc2 2.784635 1_645
Rh5 Sc3 2.784635 1_555
Rh5 Sc3 2.784635 1_655
