# generated using pymatgen
data_Rb4Cu5Cl9
_symmetry_space_group_name_H-M   'P 1'
_cell_length_a   8.65565800
_cell_length_b   14.79577600
_cell_length_c   15.83104801
_cell_angle_alpha   73.79085125
_cell_angle_beta   90.00000000
_cell_angle_gamma   90.00000000
_symmetry_Int_Tables_number   1
_chemical_formula_structural   Rb4Cu5Cl9
_chemical_formula_sum   'Rb16 Cu20 Cl36'
_cell_volume   1946.84520645
_cell_formula_units_Z   4
loop_
 _symmetry_equiv_pos_site_id
 _symmetry_equiv_pos_as_xyz
  1  'x, y, z'
loop_
 _atom_site_type_symbol
 _atom_site_label
 _atom_site_symmetry_multiplicity
 _atom_site_fract_x
 _atom_site_fract_y
 _atom_site_fract_z
 _atom_site_occupancy
  Rb  Rb0  1  0.66729000  0.99703400  0.50128600  1
  Rb  Rb1  1  0.33271000  0.99703400  0.00128600  1
  Rb  Rb2  1  0.84057600  0.98430700  0.79517100  1
  Rb  Rb3  1  0.15942400  0.98430700  0.29517100  1
  Rb  Rb4  1  0.51581000  0.47234300  0.97811900  1
  Rb  Rb5  1  0.48419000  0.47234300  0.47811900  1
  Rb  Rb6  1  0.97901000  0.47974800  0.61164900  1
  Rb  Rb7  1  0.02099000  0.47974800  0.11164900  1
  Rb  Rb8  1  0.83391500  0.73155300  0.38124000  1
  Rb  Rb9  1  0.16608500  0.73155300  0.88124000  1
  Rb  Rb10  1  0.65658500  0.74372400  0.08210900  1
  Rb  Rb11  1  0.34341500  0.74372400  0.58210900  1
  Rb  Rb12  1  0.52126800  0.25550200  0.26488600  1
  Rb  Rb13  1  0.47873200  0.25550200  0.76488600  1
  Rb  Rb14  1  0.98369600  0.26280000  0.89931700  1
  Rb  Rb15  1  0.01630400  0.26280000  0.39931700  1
  Cu  Cu0  1  0.39247600  0.55916200  0.21391200  1
  Cu  Cu1  1  0.60752400  0.55916200  0.71391200  1
  Cu  Cu2  1  0.11425500  0.55967400  0.33117700  1
  Cu  Cu3  1  0.88574500  0.55967400  0.83117700  1
  Cu  Cu4  1  0.62489200  0.16621500  0.04849500  1
  Cu  Cu5  1  0.37510800  0.16621500  0.54849500  1
  Cu  Cu6  1  0.89568200  0.17091000  0.16497900  1
  Cu  Cu7  1  0.10431800  0.17091000  0.66497900  1
  Cu  Cu8  1  0.37118200  0.74801300  0.32937100  1
  Cu  Cu9  1  0.62881800  0.74801300  0.82937100  1
  Cu  Cu10  1  0.90152400  0.77512900  0.62267500  1
  Cu  Cu11  1  0.09847600  0.77512900  0.12267500  1
  Cu  Cu12  1  0.62793400  0.97252800  0.25777900  1
  Cu  Cu13  1  0.37206600  0.97252800  0.75777900  1
  Cu  Cu14  1  0.85003600  0.99162700  0.05831200  1
  Cu  Cu15  1  0.14996400  0.99162700  0.55831200  1
  Cu  Cu16  1  0.75394000  0.51730900  0.28705800  1
  Cu  Cu17  1  0.24606000  0.51730900  0.78705800  1
  Cu  Cu18  1  0.25568400  0.21892500  0.08867300  1
  Cu  Cu19  1  0.74431600  0.21892500  0.58867300  1
  Cl  Cl0  1  0.65825600  0.46916500  0.17840200  1
  Cl  Cl1  1  0.34174400  0.46916500  0.67840200  1
  Cl  Cl2  1  0.87441700  0.47855600  0.41546400  1
  Cl  Cl3  1  0.12558300  0.47855600  0.91546400  1
  Cl  Cl4  1  0.81990600  0.09796100  0.30363200  1
  Cl  Cl5  1  0.18009400  0.09796100  0.80363200  1
  Cl  Cl6  1  0.69944000  0.08433100  0.95037400  1
  Cl  Cl7  1  0.30056000  0.08433100  0.45037400  1
  Cl  Cl8  1  0.29021100  0.83389700  0.18825600  1
  Cl  Cl9  1  0.70978900  0.83389700  0.68825600  1
  Cl  Cl10  1  0.79500300  0.89223500  0.19274500  1
  Cl  Cl11  1  0.20499700  0.89223500  0.69274500  1
  Cl  Cl12  1  0.99602800  0.86756100  0.99601000  1
  Cl  Cl13  1  0.00397200  0.86756100  0.49601000  1
  Cl  Cl14  1  0.50553100  0.86664000  0.37675800  1
  Cl  Cl15  1  0.49446900  0.86664000  0.87675800  1
  Cl  Cl16  1  0.97140100  0.64812000  0.20948100  1
  Cl  Cl17  1  0.02859900  0.64812000  0.70948100  1
  Cl  Cl18  1  0.54951100  0.63915800  0.29133400  1
  Cl  Cl19  1  0.45048900  0.63915800  0.79133400  1
  Cl  Cl20  1  0.32484500  0.62537700  0.07193000  1
  Cl  Cl21  1  0.67515500  0.62537700  0.57193000  1
  Cl  Cl22  1  0.20458200  0.64734000  0.42313100  1
  Cl  Cl23  1  0.79541800  0.64734000  0.92313100  1
  Cl  Cl24  1  0.15515300  0.26072700  0.19981400  1
  Cl  Cl25  1  0.84484700  0.26072700  0.69981400  1
  Cl  Cl26  1  0.37679400  0.25535200  0.96200300  1
  Cl  Cl27  1  0.62320600  0.25535200  0.46200300  1
  Cl  Cl28  1  0.47161000  0.08509400  0.16766400  1
  Cl  Cl29  1  0.52839000  0.08509400  0.66766400  1
  Cl  Cl30  1  0.05206300  0.09237200  0.08560900  1
  Cl  Cl31  1  0.94793700  0.09237200  0.58560900  1
  Cl  Cl32  1  0.76399900  0.29123200  0.06810100  1
  Cl  Cl33  1  0.23600100  0.29123200  0.56810100  1
  Cl  Cl34  1  0.26308600  0.43937800  0.31058200  1
  Cl  Cl35  1  0.73691400  0.43937800  0.81058200  1
loop_
_geom_bond_atom_site_label_1
_geom_bond_atom_site_label_2
_geom_bond_distance
_geom_bond_site_symmetry_2
Cl0 Cu16 2.199156 1_555
Cl0 Cu0 2.792729 1_555
Cl0 Rb12 3.295136 1_555
Cl0 Rb7 3.302518 1_655
Cl0 Rb4 3.390052 1_554
Cl1 Cu17 2.199156 1_555
Cl1 Cu1 2.792729 1_555
Cl1 Rb13 3.295136 1_555
Cl1 Rb6 3.302518 1_455
Cl1 Rb5 3.390052 1_555
Cl2 Cu16 2.213091 1_555
Cl2 Cu2 2.576136 1_655
Cl2 Rb6 3.239843 1_555
Cl2 Rb15 3.495690 1_655
Cl2 Rb5 3.514266 1_555
Cl2 Rb8 3.646419 1_555
Cl3 Cu17 2.213091 1_555
Cl3 Cu3 2.576136 1_455
Cl3 Rb7 3.239843 1_556
Cl3 Rb14 3.495690 1_455
Cl3 Rb4 3.514266 1_555
Cl3 Rb9 3.646419 1_555
Cl4 Cu6 2.256237 1_555
Cl4 Cu12 2.735762 1_545
Cl4 Rb0 3.340262 1_545
Cl4 Rb3 3.407012 1_645
Cl4 Rb12 3.419511 1_555
Cl4 Rb15 3.632541 1_655
Cl5 Cu7 2.256237 1_555
Cl5 Cu13 2.735762 1_545
Cl5 Rb1 3.340262 1_546
Cl5 Rb2 3.407012 1_445
Cl5 Rb13 3.419511 1_555
Cl5 Rb14 3.632541 1_455
Cl6 Cu14 2.278569 1_546
Cl6 Cu4 2.312527 1_556
Cl6 Rb2 3.427771 1_545
Cl6 Rb1 3.436980 1_546
Cl6 Rb14 3.533854 1_555
Cl6 Rb13 3.812417 1_555
Cl7 Cu15 2.278569 1_545
Cl7 Cu5 2.312527 1_555
Cl7 Rb3 3.427771 1_545
Cl7 Rb0 3.436980 1_545
Cl7 Rb15 3.533854 1_555
Cl7 Rb12 3.812417 1_555
Cl8 Cu11 2.256589 1_555
Cl8 Cu8 2.347726 1_555
Cl8 Rb1 3.276271 1_555
Cl8 Rb3 3.346911 1_555
Cl9 Cu10 2.256589 1_555
Cl9 Cu9 2.347726 1_555
Cl9 Rb0 3.276271 1_555
Cl9 Rb2 3.346911 1_555
Cl10 Cu14 2.274100 1_555
Cl10 Cu12 2.290274 1_555
Cl10 Rb8 3.272541 1_555
Cl10 Rb10 3.388222 1_555
Cl11 Cu15 2.274100 1_555
Cl11 Cu13 2.290274 1_555
Cl11 Rb9 3.272541 1_555
Cl11 Rb11 3.388222 1_555
Cl12 Cu11 2.268617 1_656
Cl12 Cu14 2.636293 1_556
Cl12 Rb9 3.399805 1_655
Cl12 Rb2 3.440524 1_555
Cl12 Rb1 3.501231 1_656
Cl12 Rb10 3.528911 1_556
Cl13 Cu10 2.268617 1_455
Cl13 Cu15 2.636293 1_555
Cl13 Rb8 3.399805 1_455
Cl13 Rb3 3.440524 1_555
Cl13 Rb0 3.501231 1_455
Cl13 Rb11 3.528911 1_555
Cl14 Cu12 2.340372 1_555
Cl14 Cu8 2.393914 1_555
Cl14 Rb0 3.419406 1_555
Cl14 Rb8 3.464080 1_555
Cl14 Rb3 3.523998 1_555
Cl14 Rb11 3.541782 1_555
Cl15 Cu13 2.340372 1_555
Cl15 Cu9 2.393914 1_555
Cl15 Rb1 3.419406 1_556
Cl15 Rb9 3.464080 1_555
Cl15 Rb2 3.523998 1_555
Cl15 Rb10 3.541782 1_556
Cl16 Cu11 2.277708 1_655
Cl16 Cu2 2.354905 1_655
Cl16 Cu16 2.733158 1_555
Cl16 Rb7 3.308031 1_655
Cl16 Rb10 3.449607 1_555
Cl16 Rb8 3.493948 1_555
Cl17 Cu10 2.277708 1_455
Cl17 Cu3 2.354905 1_455
Cl17 Cu17 2.733158 1_555
Cl17 Rb6 3.308031 1_455
Cl17 Rb11 3.449607 1_555
Cl17 Rb9 3.493948 1_555
Cl18 Cu0 2.358100 1_555
Cl18 Cu8 2.425001 1_555
Cl18 Cu16 2.540473 1_555
Cl18 Rb8 3.322787 1_555
Cl18 Rb5 3.328776 1_555
Cl18 Rb10 3.370851 1_555
Cl19 Cu1 2.358100 1_555
Cl19 Cu9 2.425001 1_555
Cl19 Cu17 2.540473 1_555
Cl19 Rb9 3.322787 1_555
Cl19 Rb4 3.328776 1_555
Cl19 Rb11 3.370851 1_555
Cl20 Cu0 2.263924 1_555
Cl20 Rb9 3.289664 1_554
Cl20 Rb7 3.346480 1_555
Cl20 Rb10 3.390387 1_555
Cl20 Rb4 3.455719 1_554
Cl21 Cu1 2.263924 1_555
Cl21 Rb8 3.289664 1_555
Cl21 Rb6 3.346480 1_555
Cl21 Rb11 3.390387 1_555
Cl21 Rb5 3.455719 1_555
Cl22 Cu8 2.295001 1_555
Cl22 Cu2 2.338165 1_555
Cl22 Rb11 3.437405 1_555
Cl22 Rb8 3.438693 1_455
Cl22 Rb5 3.472867 1_555
Cl22 Rb6 3.838771 1_455
Cl23 Cu9 2.295001 1_555
Cl23 Cu3 2.338165 1_555
Cl23 Rb10 3.437405 1_556
Cl23 Rb9 3.438693 1_655
Cl23 Rb4 3.472867 1_555
Cl23 Rb7 3.838771 1_656
Cl24 Cu18 2.200687 1_555
Cl24 Cu6 2.742866 1_455
Cl24 Rb12 3.326423 1_555
Cl24 Rb7 3.357512 1_555
Cl24 Rb15 3.387409 1_555
Cl25 Cu19 2.200687 1_555
Cl25 Cu7 2.742866 1_655
Cl25 Rb13 3.326423 1_555
Cl25 Rb6 3.357512 1_555
Cl25 Rb14 3.387409 1_555
Cl26 Cu18 2.192555 1_556
Cl26 Cu4 2.686559 1_556
Cl26 Rb13 3.242316 1_555
Cl26 Rb4 3.503984 1_555
Cl26 Rb14 3.537382 1_455
Cl26 Rb1 3.716607 1_546
Cl27 Cu19 2.192555 1_555
Cl27 Cu5 2.686559 1_555
Cl27 Rb12 3.242316 1_555
Cl27 Rb5 3.503984 1_555
Cl27 Rb15 3.537382 1_655
Cl27 Rb0 3.716607 1_545
Cl28 Cu12 2.305094 1_545
Cl28 Cu4 2.344326 1_555
Cl28 Cu18 2.755971 1_555
Cl28 Rb12 3.328245 1_555
Cl28 Rb3 3.452476 1_545
Cl28 Rb1 3.463612 1_545
Cl29 Cu13 2.305094 1_545
Cl29 Cu5 2.344326 1_555
Cl29 Cu19 2.755971 1_555
Cl29 Rb13 3.328245 1_555
Cl29 Rb2 3.452476 1_545
Cl29 Rb0 3.463612 1_545
Cl30 Cu6 2.361456 1_455
Cl30 Cu14 2.413737 1_445
Cl30 Cu18 2.581752 1_555
Cl30 Rb1 3.274756 1_545
Cl30 Rb14 3.354793 1_454
Cl30 Rb3 3.385999 1_545
Cl31 Cu7 2.361456 1_655
Cl31 Cu15 2.413737 1_645
Cl31 Cu19 2.581752 1_555
Cl31 Rb0 3.274756 1_545
Cl31 Rb15 3.354793 1_655
Cl31 Rb2 3.385999 1_545
Cl32 Cu4 2.299589 1_555
Cl32 Cu6 2.301374 1_555
Cl32 Rb14 3.400060 1_554
Cl32 Rb4 3.419608 1_554
Cl32 Rb12 3.671427 1_555
Cl32 Rb7 3.778462 1_655
Cl33 Cu5 2.299589 1_555
Cl33 Cu7 2.301374 1_555
Cl33 Rb15 3.400060 1_555
Cl33 Rb5 3.419608 1_555
Cl33 Rb13 3.671427 1_555
Cl33 Rb6 3.778462 1_455
Cl34 Cu0 2.285427 1_555
Cl34 Cu2 2.292982 1_555
Cl34 Rb15 3.363461 1_555
Cl34 Rb5 3.414289 1_555
Cl34 Rb7 3.689973 1_555
Cl34 Rb12 3.744028 1_555
Cl35 Cu1 2.285427 1_555
Cl35 Cu3 2.292982 1_555
Cl35 Rb14 3.363461 1_555
Cl35 Rb4 3.414289 1_555
Cl35 Rb6 3.689973 1_555
Cl35 Rb13 3.744028 1_555
