# generated using pymatgen
data_FeSiMo
_symmetry_space_group_name_H-M   'P 1'
_cell_length_a   4.80034548
_cell_length_b   4.80034548
_cell_length_c   7.49618700
_cell_angle_alpha   90.00000000
_cell_angle_beta   90.00000000
_cell_angle_gamma   119.84529592
_symmetry_Int_Tables_number   1
_chemical_formula_structural   FeSiMo
_chemical_formula_sum   'Fe4 Si4 Mo4'
_cell_volume   149.82729779
_cell_formula_units_Z   4
loop_
 _symmetry_equiv_pos_site_id
 _symmetry_equiv_pos_as_xyz
  1  'x, y, z'
loop_
 _atom_site_type_symbol
 _atom_site_label
 _atom_site_symmetry_multiplicity
 _atom_site_fract_x
 _atom_site_fract_y
 _atom_site_fract_z
 _atom_site_occupancy
  Fe  Fe0  1  0.99863100  0.00136900  0.25669700  1
  Fe  Fe1  1  0.99863100  0.00136900  0.74330300  1
  Fe  Fe2  1  0.83150200  0.65570400  0.00000000  1
  Fe  Fe3  1  0.34429600  0.16849800  0.00000000  1
  Si  Si0  1  0.83346600  0.16653400  0.00000000  1
  Si  Si1  1  0.16709600  0.33767700  0.50000000  1
  Si  Si2  1  0.66232300  0.83290400  0.50000000  1
  Si  Si3  1  0.16699900  0.83300100  0.50000000  1
  Mo  Mo0  1  0.33264100  0.66735900  0.19083800  1
  Mo  Mo1  1  0.66594900  0.33405100  0.32131000  1
  Mo  Mo2  1  0.66594900  0.33405100  0.67869000  1
  Mo  Mo3  1  0.33264100  0.66735900  0.80916200  1
loop_
_geom_bond_atom_site_label_1
_geom_bond_atom_site_label_2
_geom_bond_distance
_geom_bond_site_symmetry_2
Fe0 Si3 2.298485 1_645
Fe0 Si2 2.299397 1_545
Fe0 Si1 2.299397 1_655
Fe0 Si0 2.363392 1_555
Fe0 Fe2 2.403060 1_545
Fe0 Fe3 2.403060 1_655
Fe0 Mo1 2.806025 1_555
Fe0 Mo0 2.816606 1_655
Fe0 Mo0 2.816606 1_545
Fe0 Mo0 2.818514 1_645
Fe0 Mo1 2.820405 1_545
Fe0 Mo1 2.820405 1_655
Fe1 Si3 2.298485 1_645
Fe1 Si2 2.299397 1_545
Fe1 Si1 2.299397 1_655
Fe1 Si0 2.363392 1_556
Fe1 Fe2 2.403060 1_546
Fe1 Fe3 2.403060 1_656
Fe1 Mo2 2.806025 1_555
Fe1 Mo3 2.816606 1_655
Fe1 Mo3 2.816606 1_545
Fe1 Mo3 2.818514 1_645
Fe1 Mo2 2.820405 1_545
Fe1 Mo2 2.820405 1_655
Fe2 Fe3 2.344224 1_555
Fe2 Si0 2.352891 1_555
Fe2 Si0 2.447482 1_565
Fe2 Fe3 2.467342 1_665
Fe2 Mo2 2.756024 1_554
Fe2 Mo1 2.756024 1_555
Fe2 Mo0 2.775386 1_655
Fe2 Mo3 2.775386 1_654
Fe2 Mo0 2.813821 1_555
Fe2 Mo3 2.813821 1_554
Fe3 Si0 2.352891 1_555
Fe3 Si0 2.447482 1_455
Fe3 Mo2 2.756024 1_554
Fe3 Mo1 2.756024 1_555
Fe3 Mo0 2.775386 1_545
Fe3 Mo3 2.775386 1_544
Fe3 Mo0 2.813821 1_555
Fe3 Mo3 2.813821 1_554
Si1 Si3 2.377958 1_555
Si1 Si2 2.382817 1_555
Si1 Si3 2.422387 1_545
Si1 Si2 2.428749 1_445
Si2 Si3 2.377958 1_555
Si2 Si3 2.422387 1_655
Mo0 Si1 2.693568 1_555
Mo0 Si2 2.693568 1_555
Mo0 Si3 2.695320 1_555
Mo0 Si0 2.798988 1_455
Mo0 Si0 2.798988 1_565
Mo0 Mo3 2.861115 1_554
Mo0 Mo1 2.936754 1_555
Mo0 Mo1 2.943165 1_455
Mo0 Mo1 2.943165 1_565
Mo1 Mo2 2.678987 1_555
Mo1 Si1 2.745935 1_655
Mo1 Si2 2.745935 1_545
Mo1 Si1 2.751447 1_555
Mo1 Si2 2.751447 1_555
Mo1 Si3 2.753563 1_655
Mo1 Si3 2.753563 1_545
Mo1 Si0 2.781771 1_555
Mo2 Si1 2.745935 1_655
Mo2 Si2 2.745935 1_545
Mo2 Si2 2.751447 1_555
Mo2 Si1 2.751447 1_555
Mo2 Si3 2.753563 1_655
Mo2 Si3 2.753563 1_545
Mo2 Si0 2.781771 1_556
Mo2 Mo3 2.936754 1_555
Mo2 Mo3 2.943165 1_655
Mo2 Mo3 2.943165 1_545
Mo3 Si1 2.693568 1_555
Mo3 Si2 2.693568 1_555
Mo3 Si3 2.695320 1_555
Mo3 Si0 2.798988 1_456
Mo3 Si0 2.798988 1_566
