# generated using pymatgen
data_Te2MoWSe2
_symmetry_space_group_name_H-M   'P 1'
_cell_length_a   3.44303494
_cell_length_b   3.44303494
_cell_length_c   39.11541800
_cell_angle_alpha   90.00000000
_cell_angle_beta   90.00000000
_cell_angle_gamma   120.00001814
_symmetry_Int_Tables_number   1
_chemical_formula_structural   Te2MoWSe2
_chemical_formula_sum   'Te4 Mo2 W2 Se4'
_cell_volume   401.57011857
_cell_formula_units_Z   2
loop_
 _symmetry_equiv_pos_site_id
 _symmetry_equiv_pos_as_xyz
  1  'x, y, z'
loop_
 _atom_site_type_symbol
 _atom_site_label
 _atom_site_symmetry_multiplicity
 _atom_site_fract_x
 _atom_site_fract_y
 _atom_site_fract_z
 _atom_site_occupancy
  Te  Te0  1  0.00000000  0.00000000  0.32944100  1
  Te  Te1  1  0.00000000  0.00000000  0.70517000  1
  Te  Te2  1  0.00000000  0.00000000  0.23414200  1
  Te  Te3  1  0.00000000  0.00000000  0.60988000  1
  Mo  Mo0  1  0.00000000  0.00000000  0.09391300  1
  Mo  Mo1  1  0.00000000  0.00000000  0.46967900  1
  W  W0  1  0.33333300  0.66666700  0.28180700  1
  W  W1  1  0.33333300  0.66666700  0.65753900  1
  Se  Se0  1  0.33333300  0.66666700  0.05214300  1
  Se  Se1  1  0.33333300  0.66666700  0.42785800  1
  Se  Se2  1  0.33333300  0.66666700  0.13571000  1
  Se  Se3  1  0.33333300  0.66666700  0.51146500  1
loop_
_geom_bond_atom_site_label_1
_geom_bond_atom_site_label_2
_geom_bond_distance
_geom_bond_site_symmetry_2
Te0 W0 2.724535 1_545
Te0 W0 2.724537 1_445
Te0 W0 2.724537 1_555
Te1 W1 2.724455 1_545
Te1 W1 2.724457 1_445
Te1 W1 2.724457 1_555
Te2 W0 2.725365 1_545
Te2 W0 2.725366 1_555
Te2 W0 2.725366 1_445
Te3 W1 2.725204 1_545
Te3 W1 2.725206 1_555
Te3 W1 2.725206 1_445
Mo0 Se0 2.573122 1_545
Mo0 Se0 2.573124 1_445
Mo0 Se0 2.573124 1_555
Mo0 Se2 2.573793 1_545
Mo0 Se2 2.573795 1_445
Mo0 Se2 2.573795 1_555
Mo1 Se3 2.573520 1_545
Mo1 Se3 2.573522 1_445
Mo1 Se3 2.573522 1_555
Mo1 Se1 2.574389 1_545
Mo1 Se1 2.574391 1_445
Mo1 Se1 2.574391 1_555
