# generated using pymatgen
data_Li2MnO3
_symmetry_space_group_name_H-M   'P 1'
_cell_length_a   2.89242786
_cell_length_b   7.72131418
_cell_length_c   5.09526088
_cell_angle_alpha   76.57419199
_cell_angle_beta   73.71541849
_cell_angle_gamma   79.32869356
_symmetry_Int_Tables_number   1
_chemical_formula_structural   Li2MnO3
_chemical_formula_sum   'Li4 Mn2 O6'
_cell_volume   105.36161147
_cell_formula_units_Z   2
loop_
 _symmetry_equiv_pos_site_id
 _symmetry_equiv_pos_as_xyz
  1  'x, y, z'
loop_
 _atom_site_type_symbol
 _atom_site_label
 _atom_site_symmetry_multiplicity
 _atom_site_fract_x
 _atom_site_fract_y
 _atom_site_fract_z
 _atom_site_occupancy
  Li  Li0  1  0.65845700  0.18709800  0.49208800  1
  Li  Li1  1  0.00821600  0.47956800  0.50790300  1
  Li  Li2  1  0.33333700  0.83333200  0.49999700  1
  Li  Li3  1  0.33333600  0.33333500  0.99999600  1
  Mn  Mn0  1  0.00132300  0.01109500  0.98812900  1
  Mn  Mn1  1  0.66534200  0.65556800  0.01189200  1
  O  O0  1  0.36003500  0.06899100  0.21640600  1
  O  O1  1  0.65961300  0.43800500  0.24191900  1
  O  O2  1  0.01531000  0.75273300  0.21826400  1
  O  O3  1  0.00705200  0.22866200  0.75807800  1
  O  O4  1  0.30663100  0.59767900  0.78359200  1
  O  O5  1  0.65134900  0.91393500  0.78173700  1
loop_
_geom_bond_atom_site_label_1
_geom_bond_atom_site_label_2
_geom_bond_distance
_geom_bond_site_symmetry_2
Li0 O3 2.008919 1_555
Li0 O3 2.011126 1_655
Li0 O1 2.057017 1_555
Li0 O0 2.261887 1_555
Li0 O5 2.276113 1_545
Li0 O0 2.287699 1_655
Li1 O1 2.008887 1_555
Li1 O1 2.011114 1_455
Li1 O3 2.057024 1_555
Li1 O4 2.261923 1_555
Li1 O2 2.276103 1_555
Li1 O4 2.287740 1_455
Li2 O4 2.042852 1_555
Li2 O0 2.042875 1_565
Li2 O2 2.159058 1_555
Li2 O5 2.159076 1_555
Li2 O2 2.170518 1_655
Li2 O5 2.170572 1_455
Li3 O4 2.081361 1_555
Li3 O0 2.081371 1_556
Li3 O1 2.112047 1_556
Li3 O3 2.112055 1_555
Li3 O3 2.121837 1_655
Li3 O1 2.121853 1_456
Mn0 O3 1.811446 1_555
Mn0 O0 1.928136 1_456
Mn0 O0 1.928534 1_556
Mn0 O5 1.984445 1_445
Mn0 O5 1.984645 1_545
Mn0 O2 2.065594 1_546
Mn1 O1 1.811370 1_555
Mn1 O4 1.928173 1_654
Mn1 O4 1.928601 1_554
Mn1 O2 1.984378 1_655
Mn1 O2 1.984635 1_555
Mn1 O5 2.065661 1_554
