# generated using pymatgen
data_PrMg(WO3)2
_symmetry_space_group_name_H-M   'P 1'
_cell_length_a   5.71966600
_cell_length_b   5.50392900
_cell_length_c   9.78420996
_cell_angle_alpha   55.99123919
_cell_angle_beta   90.00000000
_cell_angle_gamma   90.00000000
_symmetry_Int_Tables_number   1
_chemical_formula_structural   PrMg(WO3)2
_chemical_formula_sum   'Pr2 Mg2 W4 O12'
_cell_volume   255.32813354
_cell_formula_units_Z   2
loop_
 _symmetry_equiv_pos_site_id
 _symmetry_equiv_pos_as_xyz
  1  'x, y, z'
loop_
 _atom_site_type_symbol
 _atom_site_label
 _atom_site_symmetry_multiplicity
 _atom_site_fract_x
 _atom_site_fract_y
 _atom_site_fract_z
 _atom_site_occupancy
  Pr  Pr0  1  0.30304300  0.75828200  0.24932500  1
  Pr  Pr1  1  0.69695700  0.75828200  0.74932500  1
  Mg  Mg0  1  0.79836700  0.23539000  0.24901600  1
  Mg  Mg1  1  0.20163300  0.23539000  0.74901600  1
  W  W0  1  0.75548200  0.99906100  0.99981200  1
  W  W1  1  0.75215600  0.49967000  0.49941200  1
  W  W2  1  0.24451800  0.99906100  0.49981200  1
  W  W3  1  0.24784400  0.49967000  0.99941200  1
  O  O0  1  0.83502700  0.35775300  0.75201000  1
  O  O1  1  0.03917900  0.12553300  0.06958400  1
  O  O2  1  0.04675100  0.78052800  0.43131600  1
  O  O3  1  0.55743800  0.89734900  0.43244200  1
  O  O4  1  0.56977900  0.23972900  0.07086400  1
  O  O5  1  0.30117800  0.60670300  0.74626600  1
  O  O6  1  0.16497300  0.35775300  0.25201000  1
  O  O7  1  0.95324900  0.78052800  0.93131600  1
  O  O8  1  0.96082100  0.12553300  0.56958400  1
  O  O9  1  0.44256200  0.89734900  0.93244200  1
  O  O10  1  0.43022100  0.23972900  0.57086400  1
  O  O11  1  0.69882200  0.60670300  0.24626600  1
loop_
_geom_bond_atom_site_label_1
_geom_bond_atom_site_label_2
_geom_bond_distance
_geom_bond_site_symmetry_2
Mg0 O11 2.107135 1_555
Mg0 O4 2.168349 1_555
Mg0 O3 2.201423 1_545
Mg0 O6 2.207564 1_655
Mg0 O2 2.544050 1_645
Mg0 O1 2.555839 1_655
Mg1 O5 2.107135 1_555
Mg1 O10 2.168349 1_555
Mg1 O9 2.201423 1_545
Mg1 O0 2.207564 1_455
Mg1 O7 2.544050 1_445
Mg1 O8 2.555839 1_455
O0 W0 2.151394 1_545
O0 W1 2.187113 1_555
O0 Pr1 2.327939 1_555
O1 W0 2.028583 1_444
O1 W3 2.134167 1_554
O1 Pr0 2.340887 1_545
O2 W2 2.019180 1_555
O2 W1 2.126155 1_455
O2 Pr0 2.361870 1_555
O3 W2 2.089032 1_555
O3 W1 2.203679 1_555
O3 Pr0 2.728943 1_555
O3 Pr1 2.860206 1_555
O4 W0 2.096710 1_544
O4 W3 2.192574 1_554
O4 Pr0 2.687436 1_545
O4 Pr1 2.920282 1_554
O5 W2 2.181286 1_555
O5 W3 2.223193 1_555
O5 Pr1 2.418532 1_555
O6 W2 2.151394 1_545
O6 W3 2.187113 1_554
O6 Pr0 2.327939 1_555
O7 W0 2.019180 1_555
O7 W3 2.126155 1_655
O7 Pr1 2.361870 1_555
O8 W2 2.028583 1_645
O8 W1 2.134167 1_555
O8 Pr1 2.340887 1_545
O9 W0 2.089032 1_555
O9 W3 2.203679 1_555
O9 Pr1 2.728943 1_555
O9 Pr0 2.860206 1_556
O10 W2 2.096710 1_545
O10 W1 2.192574 1_555
O10 Pr1 2.687436 1_545
O10 Pr0 2.920282 1_555
O11 W0 2.181286 1_554
O11 W1 2.223193 1_555
O11 Pr0 2.418532 1_555
