# generated using pymatgen
data_BaYCu4O7
_symmetry_space_group_name_H-M   'P 1'
_cell_length_a   6.31076268
_cell_length_b   6.31076268
_cell_length_c   10.45635600
_cell_angle_alpha   90.00000000
_cell_angle_beta   90.00000000
_cell_angle_gamma   120.00000718
_symmetry_Int_Tables_number   1
_chemical_formula_structural   BaYCu4O7
_chemical_formula_sum   'Ba2 Y2 Cu8 O14'
_cell_volume   360.64063498
_cell_formula_units_Z   2
loop_
 _symmetry_equiv_pos_site_id
 _symmetry_equiv_pos_as_xyz
  1  'x, y, z'
loop_
 _atom_site_type_symbol
 _atom_site_label
 _atom_site_symmetry_multiplicity
 _atom_site_fract_x
 _atom_site_fract_y
 _atom_site_fract_z
 _atom_site_occupancy
  Ba  Ba0  1  0.66666700  0.33333300  0.48314200  1
  Ba  Ba1  1  0.33333300  0.66666700  0.98314200  1
  Y  Y0  1  0.66666700  0.33333300  0.87826200  1
  Y  Y1  1  0.33333300  0.66666700  0.37826200  1
  Cu  Cu0  1  0.83210000  0.16790000  0.18864500  1
  Cu  Cu1  1  0.66420000  0.83210000  0.68864500  1
  Cu  Cu2  1  0.16790000  0.33580000  0.68864500  1
  Cu  Cu3  1  0.83210000  0.66420000  0.18864500  1
  Cu  Cu4  1  0.33580000  0.16790000  0.18864500  1
  Cu  Cu5  1  0.16790000  0.83210000  0.68864500  1
  Cu  Cu6  1  0.00000000  0.00000000  0.43938600  1
  Cu  Cu7  1  0.00000000  0.00000000  0.93938600  1
  O  O0  1  0.83619500  0.16380500  0.00619100  1
  O  O1  1  0.67239100  0.83619500  0.50619100  1
  O  O2  1  0.16380500  0.32760900  0.50619100  1
  O  O3  1  0.83619500  0.67239100  0.00619100  1
  O  O4  1  0.32760900  0.16380500  0.00619100  1
  O  O5  1  0.16380500  0.83619500  0.50619100  1
  O  O6  1  0.00000000  0.00000000  0.75455500  1
  O  O7  1  0.00000000  0.00000000  0.25455500  1
  O  O8  1  0.50862800  0.49137200  0.26471500  1
  O  O9  1  0.01725600  0.50862800  0.76471500  1
  O  O10  1  0.49137200  0.98274400  0.76471500  1
  O  O11  1  0.50862800  0.01725600  0.26471500  1
  O  O12  1  0.49137200  0.50862800  0.76471500  1
  O  O13  1  0.98274400  0.49137200  0.26471500  1
loop_
_geom_bond_atom_site_label_1
_geom_bond_atom_site_label_2
_geom_bond_distance
_geom_bond_site_symmetry_2
Ba0 O13 2.863653 1_555
Ba0 O11 2.863653 1_555
Ba0 O8 2.863657 1_555
Ba0 O5 3.164726 1_655
Ba0 O5 3.164726 1_545
Ba0 O1 3.164727 1_555
Ba0 O2 3.164727 1_555
Ba0 O1 3.164727 1_545
Ba0 O2 3.164727 1_655
Ba1 O10 2.863653 1_555
Ba1 O9 2.863653 1_555
Ba1 O12 2.863657 1_555
Ba1 O0 3.164726 1_456
Ba1 O0 3.164726 1_566
Ba1 O3 3.164727 1_556
Ba1 O4 3.164727 1_556
Ba1 O4 3.164727 1_566
Ba1 O3 3.164727 1_456
Cu0 O0 1.908329 1_555
Cu0 O13 1.939828 1_555
Cu0 O11 1.939828 1_555
Cu0 O7 1.960377 1_655
Cu1 O1 1.908329 1_555
Cu1 O12 1.939828 1_555
Cu1 O10 1.939828 1_555
Cu1 O6 1.960377 1_665
Cu2 O2 1.908329 1_555
Cu2 O12 1.939828 1_555
Cu2 O9 1.939828 1_555
Cu2 O6 1.960377 1_555
Cu3 O3 1.908329 1_555
Cu3 O8 1.939828 1_555
Cu3 O13 1.939828 1_555
Cu3 O7 1.960377 1_665
Cu4 O4 1.908329 1_555
Cu4 O8 1.939828 1_555
Cu4 O11 1.939828 1_555
Cu4 O7 1.960377 1_555
Cu5 O5 1.908329 1_555
Cu5 O10 1.939828 1_555
Cu5 O9 1.939828 1_555
Cu5 O6 1.960377 1_565
Cu6 O2 1.921914 1_555
Cu6 O1 1.921914 1_445
Cu6 O5 1.921920 1_545
Cu6 O7 1.932659 1_555
Cu7 O4 1.921914 1_556
Cu7 O3 1.921914 1_446
Cu7 O0 1.921920 1_456
Cu7 O6 1.932659 1_555
O0 Y0 2.285412 1_554
O1 Y1 2.285421 1_555
O2 Y1 2.285421 1_555
O3 Y0 2.285421 1_554
O4 Y0 2.285421 1_554
O5 Y1 2.285412 1_555
O8 Y1 2.254105 1_555
O9 Y0 2.254100 1_455
O10 Y0 2.254100 1_565
O11 Y1 2.254100 1_545
O12 Y0 2.254105 1_555
O13 Y1 2.254100 1_655
