# generated using pymatgen
data_Li7Mn4CoO12
_symmetry_space_group_name_H-M   'P 1'
_cell_length_a   3.00216800
_cell_length_b   7.64184205
_cell_length_c   9.76757956
_cell_angle_alpha   91.92920360
_cell_angle_beta   95.95841272
_cell_angle_gamma   98.04304634
_symmetry_Int_Tables_number   1
_chemical_formula_structural   Li7Mn4CoO12
_chemical_formula_sum   'Li7 Mn4 Co1 O12'
_cell_volume   220.42132936
_cell_formula_units_Z   1
loop_
 _symmetry_equiv_pos_site_id
 _symmetry_equiv_pos_as_xyz
  1  'x, y, z'
loop_
 _atom_site_type_symbol
 _atom_site_label
 _atom_site_symmetry_multiplicity
 _atom_site_fract_x
 _atom_site_fract_y
 _atom_site_fract_z
 _atom_site_occupancy
  Li  Li0  1  0.74244600  0.74586800  0.75501900  1
  Li  Li1  1  0.91246100  0.58857200  0.23820200  1
  Li  Li2  1  0.08861300  0.41440400  0.75482800  1
  Li  Li3  1  0.25705000  0.25235900  0.24969500  1
  Li  Li4  1  0.42511400  0.08719300  0.75286000  1
  Li  Li5  1  0.56697400  0.90754800  0.24256100  1
  Li  Li6  1  0.34560100  0.66955300  0.00813800  1
  Mn  Mn0  1  0.99530500  0.99363600  0.00060900  1
  Mn  Mn1  1  0.49967900  0.49977300  0.49992200  1
  Mn  Mn2  1  0.16587000  0.83369300  0.50009200  1
  Mn  Mn3  1  0.83343000  0.16637200  0.50014400  1
  Co  Co0  1  0.66785300  0.34618100  0.99598400  1
  O  O0  1  0.41702700  0.89351000  0.89167100  1
  O  O1  1  0.51138900  0.70236500  0.38332100  1
  O  O2  1  0.69533500  0.51853800  0.88434500  1
  O  O3  1  0.84699000  0.36956700  0.38248000  1
  O  O4  1  0.02445100  0.20787600  0.88918300  1
  O  O5  1  0.17867300  0.03768200  0.38357600  1
  O  O6  1  0.15669200  0.63123200  0.61951400  1
  O  O7  1  0.29778600  0.44106200  0.11311200  1
  O  O8  1  0.48868500  0.29703200  0.61705400  1
  O  O9  1  0.58865700  0.12177000  0.10164200  1
  O  O10  1  0.82331000  0.96305300  0.61834400  1
  O  O11  1  0.97060800  0.81116000  0.11770300  1
loop_
_geom_bond_atom_site_label_1
_geom_bond_atom_site_label_2
_geom_bond_distance
_geom_bond_site_symmetry_2
Li0 O0 2.118204 1_555
Li0 O6 2.149252 1_555
Li0 O6 2.152765 1_655
Li0 O10 2.167813 1_555
Li0 O2 2.179381 1_555
Li0 O0 2.419502 1_655
Li1 O11 2.098443 1_555
Li1 O7 2.160412 1_655
Li1 O1 2.186220 1_555
Li1 O1 2.224589 1_655
Li1 O3 2.224816 1_555
Li1 O7 2.241863 1_555
Li2 O2 2.032958 1_455
Li2 O4 2.087353 1_555
Li2 O2 2.144679 1_555
Li2 O8 2.147981 1_555
Li2 O6 2.154748 1_555
Li2 O8 2.196094 1_455
Li3 O7 1.997064 1_555
Li3 O5 2.134728 1_555
Li3 O9 2.134944 1_555
Li3 O3 2.135836 1_455
Li3 O3 2.149927 1_555
Li3 O9 2.419445 1_455
Li4 O0 2.039972 1_545
Li4 O8 2.116021 1_555
Li4 O10 2.148233 1_545
Li4 O4 2.151901 1_555
Li4 O4 2.194678 1_655
Li4 O10 2.198662 1_445
Li5 O11 1.998598 1_555
Li5 O11 2.086274 1_455
Li5 O1 2.120440 1_555
Li5 O9 2.172383 1_565
Li5 O5 2.193313 1_565
Li5 O5 2.264984 1_665
Li6 O11 2.024055 1_455
Li6 O7 2.049812 1_555
Li6 O0 2.085232 1_554
Li6 O2 2.098802 1_554
Li6 O11 2.184955 1_555
Li6 O2 2.321745 1_454
Mn0 O11 1.831436 1_555
Mn0 O0 1.953611 1_654
Mn0 O0 1.980306 1_554
Mn0 O9 1.985613 1_565
Mn0 O4 1.993045 1_664
Mn0 O9 2.046391 1_665
Mn1 O1 1.951153 1_555
Mn1 O8 1.955325 1_555
Mn1 O3 1.963400 1_555
Mn1 O6 1.973369 1_555
Mn1 O3 2.248645 1_455
Mn1 O6 2.269904 1_655
Mn2 O10 1.955306 1_455
Mn2 O5 1.959205 1_565
Mn2 O1 1.960604 1_555
Mn2 O6 1.967588 1_555
Mn2 O1 2.252692 1_455
Mn2 O10 2.260714 1_555
Mn3 O5 1.947473 1_655
Mn3 O8 1.957024 1_555
Mn3 O3 1.961084 1_555
Mn3 O10 1.965398 1_545
Mn3 O5 2.246430 1_555
Mn3 O8 2.253439 1_655
Co0 O2 1.736566 1_555
Co0 O7 1.871462 1_556
Co0 O4 1.955929 1_655
Co0 O9 2.029417 1_556
Co0 O7 2.126578 1_656
Co0 O4 2.207375 1_555
