# generated using pymatgen
data_Pr2Fe2S2O3
_symmetry_space_group_name_H-M   'P 1'
_cell_length_a   4.07539800
_cell_length_b   4.07539800
_cell_length_c   9.46621977
_cell_angle_alpha   102.43078467
_cell_angle_beta   102.43078467
_cell_angle_gamma   90.00000000
_symmetry_Int_Tables_number   1
_chemical_formula_structural   Pr2Fe2S2O3
_chemical_formula_sum   'Pr2 Fe2 S2 O3'
_cell_volume   149.76087500
_cell_formula_units_Z   1
loop_
 _symmetry_equiv_pos_site_id
 _symmetry_equiv_pos_as_xyz
  1  'x, y, z'
loop_
 _atom_site_type_symbol
 _atom_site_label
 _atom_site_symmetry_multiplicity
 _atom_site_fract_x
 _atom_site_fract_y
 _atom_site_fract_z
 _atom_site_occupancy
  Pr  Pr0  1  0.31655000  0.31655000  0.63310000  1
  Pr  Pr1  1  0.68345000  0.68345000  0.36690000  1
  Fe  Fe0  1  0.00000000  0.50000000  0.00000000  1
  Fe  Fe1  1  0.50000000  0.00000000  0.00000000  1
  S  S0  1  0.90440500  0.90440500  0.80881000  1
  S  S1  1  0.09559500  0.09559500  0.19119000  1
  O  O0  1  0.75000000  0.25000000  0.50000000  1
  O  O1  1  0.25000000  0.75000000  0.50000000  1
  O  O2  1  0.50000000  0.50000000  0.00000000  1
loop_
_geom_bond_atom_site_label_1
_geom_bond_atom_site_label_2
_geom_bond_distance
_geom_bond_site_symmetry_2
Pr0 S0 3.288562 1_545
Pr0 S0 3.288562 1_455
Pr0 S0 3.288562 1_555
Pr0 S0 3.288562 1_445
Pr1 S1 3.288562 1_555
Pr1 S1 3.288562 1_655
Pr1 S1 3.288562 1_565
Pr1 S1 3.288562 1_665
Fe0 O2 2.037699 1_555
Fe0 O2 2.037699 1_455
Fe0 S1 2.669121 1_565
Fe0 S0 2.669121 1_454
Fe0 S1 2.669121 1_555
Fe0 S0 2.669121 1_444
Fe1 O2 2.037699 1_555
Fe1 O2 2.037699 1_545
Fe1 S1 2.669121 1_655
Fe1 S1 2.669121 1_555
Fe1 S0 2.669121 1_444
Fe1 S0 2.669121 1_544
O0 Pr0 2.364864 1_655
O0 Pr0 2.364864 1_555
O0 Pr1 2.364864 1_545
O0 Pr1 2.364864 1_555
O1 Pr0 2.364864 1_565
O1 Pr0 2.364864 1_555
O1 Pr1 2.364864 1_455
O1 Pr1 2.364864 1_555
