# generated using pymatgen
data_Sm(Sn2Rh)2
_symmetry_space_group_name_H-M   'P 1'
_cell_length_a   4.51558000
_cell_length_b   7.23790000
_cell_length_c   18.58960800
_cell_angle_alpha   90.00000000
_cell_angle_beta   90.00000000
_cell_angle_gamma   90.00000000
_symmetry_Int_Tables_number   1
_chemical_formula_structural   Sm(Sn2Rh)2
_chemical_formula_sum   'Sm4 Sn16 Rh8'
_cell_volume   607.57004154
_cell_formula_units_Z   4
loop_
 _symmetry_equiv_pos_site_id
 _symmetry_equiv_pos_as_xyz
  1  'x, y, z'
loop_
 _atom_site_type_symbol
 _atom_site_label
 _atom_site_symmetry_multiplicity
 _atom_site_fract_x
 _atom_site_fract_y
 _atom_site_fract_z
 _atom_site_occupancy
  Sm  Sm0  1  0.25000000  0.99873600  0.85763600  1
  Sm  Sm1  1  0.25000000  0.50126400  0.35763600  1
  Sm  Sm2  1  0.75000000  0.00126400  0.14236400  1
  Sm  Sm3  1  0.75000000  0.49873600  0.64236400  1
  Sn  Sn0  1  0.25000000  0.30195000  0.18195000  1
  Sn  Sn1  1  0.25000000  0.19805000  0.68195000  1
  Sn  Sn2  1  0.75000000  0.69805000  0.81805000  1
  Sn  Sn3  1  0.75000000  0.80195000  0.31805000  1
  Sn  Sn4  1  0.25000000  0.72295900  0.19413800  1
  Sn  Sn5  1  0.25000000  0.77704100  0.69413800  1
  Sn  Sn6  1  0.75000000  0.27704100  0.80586200  1
  Sn  Sn7  1  0.75000000  0.22295900  0.30586200  1
  Sn  Sn8  1  0.25000000  0.86575100  0.03185900  1
  Sn  Sn9  1  0.25000000  0.63424900  0.53185900  1
  Sn  Sn10  1  0.75000000  0.13424900  0.96814100  1
  Sn  Sn11  1  0.75000000  0.36575100  0.46814100  1
  Sn  Sn12  1  0.25000000  0.51707500  0.93219100  1
  Sn  Sn13  1  0.25000000  0.98292500  0.43219100  1
  Sn  Sn14  1  0.75000000  0.48292500  0.06780900  1
  Sn  Sn15  1  0.75000000  0.01707500  0.56780900  1
  Rh  Rh0  1  0.25000000  0.24896000  0.03532000  1
  Rh  Rh1  1  0.25000000  0.25104000  0.53532000  1
  Rh  Rh2  1  0.75000000  0.75104000  0.96468000  1
  Rh  Rh3  1  0.75000000  0.74896000  0.46468000  1
  Rh  Rh4  1  0.25000000  0.01853800  0.28583600  1
  Rh  Rh5  1  0.25000000  0.48146200  0.78583600  1
  Rh  Rh6  1  0.75000000  0.98146200  0.71416400  1
  Rh  Rh7  1  0.75000000  0.51853800  0.21416400  1
loop_
_geom_bond_atom_site_label_1
_geom_bond_atom_site_label_2
_geom_bond_distance
_geom_bond_site_symmetry_2
Sm0 Sn6 3.175141 1_565
Sm0 Sn6 3.175141 1_465
Sm0 Sn10 3.206176 1_465
Sm0 Sn10 3.206176 1_565
Sm0 Sn2 3.221115 1_455
Sm0 Sn2 3.221115 1_555
Sm1 Sn7 3.175141 1_455
Sm1 Sn7 3.175141 1_555
Sm1 Sn11 3.206176 1_555
Sm1 Sn11 3.206176 1_455
Sm1 Sn3 3.221115 1_555
Sm1 Sn3 3.221115 1_455
Sm2 Sn4 3.175141 1_645
Sm2 Sn4 3.175141 1_545
Sm2 Sn8 3.206176 1_545
Sm2 Sn8 3.206176 1_645
Sm2 Sn0 3.221115 1_555
Sm2 Sn0 3.221115 1_655
Sm3 Sn5 3.175141 1_555
Sm3 Sn5 3.175141 1_655
Sm3 Sn9 3.206176 1_555
Sm3 Sn9 3.206176 1_655
Sm3 Sn1 3.221115 1_555
Sm3 Sn1 3.221115 1_655
Rh0 Sn10 2.710450 1_554
Rh0 Sn10 2.710450 1_454
Rh0 Sn12 2.727868 1_554
Rh0 Sn0 2.752645 1_555
Rh0 Sn8 2.774375 1_545
Rh0 Sn14 2.886180 1_455
Rh0 Sn14 2.886180 1_555
Rh1 Sn11 2.710450 1_455
Rh1 Sn11 2.710450 1_555
Rh1 Sn13 2.727868 1_545
Rh1 Sn1 2.752645 1_555
Rh1 Sn9 2.774375 1_555
Rh1 Sn15 2.886180 1_555
Rh1 Sn15 2.886180 1_455
Rh2 Sn8 2.710450 1_656
Rh2 Sn8 2.710450 1_556
Rh2 Sn14 2.727868 1_556
Rh2 Sn2 2.752645 1_555
Rh2 Sn10 2.774375 1_565
Rh2 Sn12 2.886180 1_655
Rh2 Sn12 2.886180 1_555
Rh3 Sn9 2.710450 1_655
Rh3 Sn9 2.710450 1_555
Rh3 Sn15 2.727868 1_565
Rh3 Sn3 2.752645 1_555
Rh3 Sn11 2.774375 1_555
Rh3 Sn13 2.886180 1_655
Rh3 Sn13 2.886180 1_555
Rh4 Sn7 2.724951 1_455
Rh4 Sn7 2.724951 1_555
Rh4 Sn13 2.732865 1_545
Rh4 Sn4 2.735447 1_545
Rh4 Sn3 2.813136 1_445
Rh4 Sn3 2.813136 1_545
Rh4 Sn0 2.817339 1_555
Rh5 Sn6 2.724951 1_555
Rh5 Sn6 2.724951 1_455
Rh5 Sn12 2.732865 1_555
Rh5 Sn5 2.735447 1_555
Rh5 Sn2 2.813136 1_555
Rh5 Sn2 2.813136 1_455
Rh5 Sn1 2.817339 1_555
Rh6 Sn5 2.724951 1_655
Rh6 Sn5 2.724951 1_555
Rh6 Sn15 2.732865 1_565
Rh6 Sn6 2.735447 1_565
Rh6 Sn1 2.813136 1_565
Rh6 Sn1 2.813136 1_665
Rh6 Sn2 2.817339 1_555
Rh7 Sn4 2.724951 1_655
Rh7 Sn4 2.724951 1_555
Rh7 Sn14 2.732865 1_555
Rh7 Sn7 2.735447 1_555
Rh7 Sn0 2.813136 1_555
Rh7 Sn0 2.813136 1_655
Rh7 Sn3 2.817339 1_555
