# generated using pymatgen
data_Sr2YCu2SbO7
_symmetry_space_group_name_H-M   'P 1'
_cell_length_a   12.91541528
_cell_length_b   12.91541528
_cell_length_c   12.91541528
_cell_angle_alpha   155.75006120
_cell_angle_beta   155.61001693
_cell_angle_gamma   34.66230918
_symmetry_Int_Tables_number   1
_chemical_formula_structural   Sr2YCu2SbO7
_chemical_formula_sum   'Sr4 Y2 Cu4 Sb2 O14'
_cell_volume   364.99973587
_cell_formula_units_Z   2
loop_
 _symmetry_equiv_pos_site_id
 _symmetry_equiv_pos_as_xyz
  1  'x, y, z'
loop_
 _atom_site_type_symbol
 _atom_site_label
 _atom_site_symmetry_multiplicity
 _atom_site_fract_x
 _atom_site_fract_y
 _atom_site_fract_z
 _atom_site_occupancy
  Sr  Sr0  1  0.63540800  0.66066400  0.01217400  1
  Sr  Sr1  1  0.36459200  0.37676600  0.02525500  1
  Sr  Sr2  1  0.14849000  0.16066400  0.02525500  1
  Sr  Sr3  1  0.85151000  0.87676600  0.01217400  1
  Y  Y0  1  0.00000000  0.01478100  0.01478100  1
  Y  Y1  1  0.50000000  0.51478100  0.01478100  1
  Cu  Cu0  1  0.56679300  0.08171800  0.51580800  1
  Cu  Cu1  1  0.43320700  0.94901600  0.51492500  1
  Cu  Cu2  1  0.06590900  0.58171800  0.51492500  1
  Cu  Cu3  1  0.93409100  0.44901600  0.51580800  1
  Sb  Sb0  1  0.25763300  0.74061600  0.49824900  1
  Sb  Sb1  1  0.74236700  0.24061600  0.48298400  1
  O  O0  1  0.61416900  0.88106800  0.99523700  1
  O  O1  1  0.38583100  0.38106800  0.26689800  1
  O  O2  1  0.80464100  0.81939800  0.50471800  1
  O  O3  1  0.19535900  0.70007600  0.01475700  1
  O  O4  1  0.81468000  0.31939800  0.01475700  1
  O  O5  1  0.18532000  0.20007600  0.50471800  1
  O  O6  1  0.31439200  0.33022400  0.52516100  1
  O  O7  1  0.68560800  0.21076900  0.01583200  1
  O  O8  1  0.30506300  0.83022400  0.01583200  1
  O  O9  1  0.69493700  0.71076900  0.52516100  1
  O  O10  1  0.17494900  0.67674300  0.52453000  1
  O  O11  1  0.82505100  0.34958100  0.50179400  1
  O  O12  1  0.65221300  0.17674300  0.50179400  1
  O  O13  1  0.34778700  0.84958100  0.52453000  1
loop_
_geom_bond_atom_site_label_1
_geom_bond_atom_site_label_2
_geom_bond_distance
_geom_bond_site_symmetry_2
Cu0 O4 1.927368 1_556
Cu0 O8 1.931166 1_545
Cu0 O2 1.931649 1_545
Cu0 O6 1.934242 1_555
Cu0 O12 2.398389 1_555
Cu1 O5 1.927358 1_565
Cu1 O9 1.931169 1_555
Cu1 O3 1.931647 1_555
Cu1 O7 1.934241 1_566
Cu1 O13 2.398401 1_555
Cu2 O2 1.927363 1_455
Cu2 O6 1.931169 1_555
Cu2 O4 1.931648 1_455
Cu2 O8 1.934241 1_556
Cu2 O10 2.398401 1_555
Cu3 O3 1.927364 1_656
Cu3 O7 1.931164 1_555
Cu3 O5 1.931649 1_655
Cu3 O9 1.934240 1_555
Cu3 O11 2.398413 1_555
O0 Sb1 2.072401 1_566
O0 Sb0 2.089359 1_555
O0 Sr0 2.822754 1_556
O0 Sr3 2.822754 1_556
O1 Sb0 2.072400 1_555
O1 Sb1 2.089362 1_555
O1 Sr2 2.822754 1_555
O1 Sr1 2.822754 1_555
O2 Y1 2.391106 1_555
O2 Y0 2.452611 1_666
O2 Sr0 2.776828 1_555
O2 Sr2 2.851042 1_666
O3 Y1 2.391110 1_555
O3 Y0 2.452621 1_565
O3 Sr1 2.776808 1_555
O3 Sr3 2.851030 1_455
O4 Y0 2.391106 1_655
O4 Y1 2.452611 1_555
O4 Sr2 2.776837 1_655
O4 Sr0 2.851036 1_555
O5 Y0 2.391113 1_555
O5 Y1 2.452618 1_556
O5 Sr3 2.776819 1_445
O5 Sr1 2.851016 1_556
O6 Y1 2.391182 1_556
O6 Y0 2.454563 1_555
O6 Sr0 2.760782 1_556
O6 Sr2 2.794579 1_555
O7 Y1 2.391182 1_555
O7 Y0 2.454563 1_655
O7 Sr1 2.760773 1_555
O7 Sr3 2.794567 1_545
O8 Y0 2.391182 1_565
O8 Y1 2.454563 1_555
O8 Sr2 2.760791 1_565
O8 Sr0 2.794567 1_555
O9 Y0 2.391182 1_666
O9 Y1 2.454563 1_555
O9 Sr3 2.760782 1_556
O9 Sr1 2.794561 1_555
O10 Sb0 2.134532 1_555
O10 Sr0 2.684228 1_556
O10 Sr2 2.735327 1_555
O10 Sr2 2.794444 1_566
O10 Sr0 2.876022 1_455
O11 Sb1 2.134545 1_555
O11 Sr1 2.684234 1_555
O11 Sr3 2.735327 1_545
O11 Sr3 2.794449 1_556
O11 Sr1 2.876021 1_656
O12 Sb1 2.134520 1_555
O12 Sr2 2.684229 1_555
O12 Sr0 2.735327 1_545
O12 Sr0 2.794449 1_556
O12 Sr2 2.876017 1_656
O13 Sb0 2.134532 1_555
O13 Sr3 2.684228 1_556
O13 Sr1 2.735332 1_555
O13 Sr1 2.794449 1_566
O13 Sr3 2.876022 1_455
