# generated using pymatgen
data_Mg6ZnBi
_symmetry_space_group_name_H-M   'P 1'
_cell_length_a   5.33895800
_cell_length_b   6.23458300
_cell_length_c   11.02098900
_cell_angle_alpha   90.00000000
_cell_angle_beta   90.00000000
_cell_angle_gamma   90.00000000
_symmetry_Int_Tables_number   1
_chemical_formula_structural   Mg6ZnBi
_chemical_formula_sum   'Mg12 Zn2 Bi2'
_cell_volume   366.84658819
_cell_formula_units_Z   2
loop_
 _symmetry_equiv_pos_site_id
 _symmetry_equiv_pos_as_xyz
  1  'x, y, z'
loop_
 _atom_site_type_symbol
 _atom_site_label
 _atom_site_symmetry_multiplicity
 _atom_site_fract_x
 _atom_site_fract_y
 _atom_site_fract_z
 _atom_site_occupancy
  Mg  Mg0  1  0.00000000  0.24417700  0.08091500  1
  Mg  Mg1  1  0.00000000  0.75582300  0.08091500  1
  Mg  Mg2  1  0.00000000  0.00000000  0.33197700  1
  Mg  Mg3  1  0.50000000  0.74606300  0.41241300  1
  Mg  Mg4  1  0.50000000  0.25393700  0.41241300  1
  Mg  Mg5  1  0.50000000  0.00000000  0.16735100  1
  Mg  Mg6  1  0.00000000  0.74417700  0.58091500  1
  Mg  Mg7  1  0.00000000  0.25582300  0.58091500  1
  Mg  Mg8  1  0.00000000  0.50000000  0.83197700  1
  Mg  Mg9  1  0.50000000  0.24606300  0.91241300  1
  Mg  Mg10  1  0.50000000  0.75393700  0.91241300  1
  Mg  Mg11  1  0.50000000  0.50000000  0.66735100  1
  Zn  Zn0  1  0.00000000  0.50000000  0.34982700  1
  Zn  Zn1  1  0.00000000  0.00000000  0.84982700  1
  Bi  Bi0  1  0.50000000  0.50000000  0.16418900  1
  Bi  Bi1  1  0.50000000  0.00000000  0.66418900  1
loop_
_geom_bond_atom_site_label_1
_geom_bond_atom_site_label_2
_geom_bond_distance
_geom_bond_site_symmetry_2
Mg0 Zn1 2.967121 1_554
Mg0 Mg1 3.044684 1_545
Mg0 Mg2 3.158092 1_555
Mg0 Mg8 3.173467 1_554
Mg0 Mg1 3.189899 1_555
Mg0 Mg5 3.217314 1_455
Mg0 Mg5 3.217314 1_555
Mg0 Mg9 3.251911 1_554
Mg0 Mg9 3.251911 1_454
Mg0 Zn0 3.365597 1_555
Mg1 Zn1 2.967121 1_564
Mg1 Mg2 3.158092 1_565
Mg1 Mg8 3.173467 1_554
Mg1 Mg5 3.217314 1_465
Mg1 Mg5 3.217314 1_565
Mg1 Mg10 3.251911 1_554
Mg1 Mg10 3.251911 1_454
Mg1 Zn0 3.365597 1_555
Mg2 Zn0 3.123493 1_555
Mg2 Zn0 3.123493 1_545
Mg2 Mg7 3.173467 1_555
Mg2 Mg6 3.173467 1_545
Mg2 Mg5 3.227685 1_555
Mg2 Mg5 3.227685 1_455
Mg2 Mg4 3.227765 1_455
Mg2 Mg4 3.227765 1_555
Mg2 Mg3 3.227765 1_545
Mg2 Mg3 3.227765 1_445
Mg3 Mg4 3.068200 1_555
Mg3 Mg5 3.130647 1_565
Mg3 Zn0 3.155210 1_655
Mg3 Zn0 3.155210 1_555
Mg3 Mg4 3.166383 1_565
Mg3 Mg6 3.251911 1_555
Mg3 Mg6 3.251911 1_655
Mg4 Mg5 3.130647 1_555
Mg4 Zn0 3.155210 1_555
Mg4 Zn0 3.155210 1_655
Mg4 Mg7 3.251911 1_655
Mg4 Mg7 3.251911 1_555
Mg5 Mg9 3.201203 1_554
Mg6 Zn0 2.967121 1_555
Mg6 Mg7 3.044684 1_555
Mg6 Mg8 3.158092 1_555
Mg6 Mg7 3.189899 1_565
Mg6 Zn1 3.365597 1_565
Mg7 Zn0 2.967121 1_555
Mg7 Mg8 3.158092 1_555
Mg7 Zn1 3.365597 1_555
Mg8 Zn1 3.123493 1_555
Mg8 Zn1 3.123493 1_565
Mg8 Mg9 3.227765 1_455
Mg8 Mg9 3.227765 1_555
Mg9 Zn1 3.155210 1_655
Mg9 Zn1 3.155210 1_555
Mg10 Mg9 3.068200 1_565
Mg10 Mg11 3.130647 1_555
Mg10 Zn1 3.155210 1_565
Mg10 Zn1 3.155210 1_665
Mg10 Mg9 3.166383 1_555
Mg10 Mg5 3.201203 1_566
Mg10 Mg8 3.227765 1_555
Mg10 Mg8 3.227765 1_655
Mg11 Mg9 3.130647 1_555
Mg11 Mg3 3.201203 1_555
Mg11 Mg4 3.201203 1_555
Mg11 Mg6 3.217314 1_655
Mg11 Mg6 3.217314 1_555
Mg11 Mg7 3.217314 1_555
Mg11 Mg7 3.217314 1_655
Mg11 Mg8 3.227685 1_555
Mg11 Mg8 3.227685 1_655
Bi0 Mg5 3.117486 1_565
Bi0 Mg5 3.117486 1_555
Bi0 Mg3 3.136459 1_555
Bi0 Mg4 3.136459 1_555
Bi0 Mg10 3.194702 1_554
Bi0 Mg9 3.194702 1_554
Bi0 Mg1 3.242263 1_655
Bi0 Mg1 3.242263 1_555
Bi0 Mg0 3.242263 1_555
Bi0 Mg0 3.242263 1_655
Bi0 Zn0 3.363314 1_655
Bi0 Zn0 3.363314 1_555
Bi1 Mg11 3.117486 1_545
Bi1 Mg11 3.117486 1_555
Bi1 Mg9 3.136459 1_555
Bi1 Mg10 3.136459 1_545
Bi1 Mg4 3.194702 1_555
Bi1 Mg3 3.194702 1_545
Bi1 Mg7 3.242263 1_655
Bi1 Mg7 3.242263 1_555
Bi1 Mg6 3.242263 1_545
Bi1 Mg6 3.242263 1_645
Bi1 Zn1 3.363314 1_655
Bi1 Zn1 3.363314 1_555
