# generated using pymatgen
data_Ca3Al2(SiO6)2
_symmetry_space_group_name_H-M   'P 1'
_cell_length_a   10.59323098
_cell_length_b   10.59323098
_cell_length_c   10.59323098
_cell_angle_alpha   108.97226079
_cell_angle_beta   108.97226079
_cell_angle_gamma   110.47381642
_symmetry_Int_Tables_number   1
_chemical_formula_structural   Ca3Al2(SiO6)2
_chemical_formula_sum   'Ca12 Al8 Si8 O48'
_cell_volume   914.87863754
_cell_formula_units_Z   4
loop_
 _symmetry_equiv_pos_site_id
 _symmetry_equiv_pos_as_xyz
  1  'x, y, z'
loop_
 _atom_site_type_symbol
 _atom_site_label
 _atom_site_symmetry_multiplicity
 _atom_site_fract_x
 _atom_site_fract_y
 _atom_site_fract_z
 _atom_site_occupancy
  Ca  Ca0  1  0.00000000  0.50000000  0.50000000  1
  Ca  Ca1  1  0.75000000  0.75000000  0.00000000  1
  Ca  Ca2  1  0.37500000  0.75229600  0.87729600  1
  Ca  Ca3  1  0.87500000  0.49770400  0.12270400  1
  Ca  Ca4  1  0.74770400  0.12500000  0.12270400  1
  Ca  Ca5  1  0.00229600  0.62500000  0.87729600  1
  Ca  Ca6  1  0.25000000  0.25000000  0.00000000  1
  Ca  Ca7  1  0.50000000  0.00000000  0.50000000  1
  Ca  Ca8  1  0.87500000  0.99770400  0.62270400  1
  Ca  Ca9  1  0.37500000  0.25229600  0.37729600  1
  Ca  Ca10  1  0.50229600  0.62500000  0.37729600  1
  Ca  Ca11  1  0.24770400  0.12500000  0.62270400  1
  Al  Al0  1  0.12500000  0.37500000  0.75000000  1
  Al  Al1  1  0.62500000  0.37500000  0.25000000  1
  Al  Al2  1  0.62500000  0.87500000  0.75000000  1
  Al  Al3  1  0.12500000  0.87500000  0.25000000  1
  Al  Al4  1  0.12500000  0.87500000  0.75000000  1
  Al  Al5  1  0.62500000  0.87500000  0.25000000  1
  Al  Al6  1  0.12500000  0.37500000  0.25000000  1
  Al  Al7  1  0.62500000  0.37500000  0.75000000  1
  Si  Si0  1  0.37500000  0.00384400  0.12884400  1
  Si  Si1  1  0.87500000  0.24615600  0.87115600  1
  Si  Si2  1  0.99615600  0.12500000  0.37115600  1
  Si  Si3  1  0.75384400  0.62500000  0.62884400  1
  Si  Si4  1  0.87500000  0.74615600  0.37115600  1
  Si  Si5  1  0.37500000  0.50384400  0.62884400  1
  Si  Si6  1  0.25384400  0.62500000  0.12884400  1
  Si  Si7  1  0.49615600  0.12500000  0.87115600  1
  O  O0  1  0.49817900  0.44490900  0.17505200  1
  O  O1  1  0.26985700  0.32312600  0.82494800  1
  O  O2  1  0.25182100  0.92687400  0.44673100  1
  O  O3  1  0.48014300  0.80509100  0.55326900  1
  O  O4  1  0.01231500  0.26243200  0.82383200  1
  O  O5  1  0.73768500  0.06151700  0.75011700  1
  O  O6  1  0.31140000  0.98756800  0.24988300  1
  O  O7  1  0.43860000  0.18848300  0.17616800  1
  O  O8  1  0.72035100  0.77072800  0.64643200  1
  O  O9  1  0.62570400  0.47927200  0.44962200  1
  O  O10  1  0.12429600  0.07391900  0.35356800  1
  O  O11  1  0.02964900  0.17608200  0.55037800  1
  O  O12  1  0.75182100  0.30509100  0.32494800  1
  O  O13  1  0.98014300  0.42687400  0.67505200  1
  O  O14  1  0.99817900  0.82312600  0.05326900  1
  O  O15  1  0.76985700  0.94490900  0.94673100  1
  O  O16  1  0.23768500  0.48756800  0.67616800  1
  O  O17  1  0.51231500  0.68848300  0.74988300  1
  O  O18  1  0.93860000  0.76243200  0.25011700  1
  O  O19  1  0.81140000  0.56151700  0.32383200  1
  O  O20  1  0.52964900  0.97927200  0.85356800  1
  O  O21  1  0.62429600  0.27072800  0.05037800  1
  O  O22  1  0.12570400  0.67608100  0.14643200  1
  O  O23  1  0.22035100  0.57391900  0.94962200  1
  O  O24  1  0.52072800  0.97035100  0.14643200  1
  O  O25  1  0.22927200  0.87570400  0.94962200  1
  O  O26  1  0.82391900  0.37429600  0.85356800  1
  O  O27  1  0.92608200  0.27964900  0.05037800  1
  O  O28  1  0.19490900  0.74817900  0.67505200  1
  O  O29  1  0.07312600  0.51985700  0.32494800  1
  O  O30  1  0.67687400  0.50182100  0.94673100  1
  O  O31  1  0.55509100  0.73014300  0.05326900  1
  O  O32  1  0.01243200  0.26231500  0.32383200  1
  O  O33  1  0.81151700  0.98768500  0.25011700  1
  O  O34  1  0.73756800  0.56140000  0.74988300  1
  O  O35  1  0.93848300  0.68860000  0.67616800  1
  O  O36  1  0.72927200  0.77964900  0.35356800  1
  O  O37  1  0.02072800  0.87429600  0.55037800  1
  O  O38  1  0.42608200  0.37570400  0.64643200  1
  O  O39  1  0.32391900  0.47035100  0.44962200  1
  O  O40  1  0.05509100  0.00182100  0.82494800  1
  O  O41  1  0.17687400  0.23014300  0.17505200  1
  O  O42  1  0.57312600  0.24817900  0.55326900  1
  O  O43  1  0.69490900  0.01985700  0.44673100  1
  O  O44  1  0.23756800  0.48768500  0.17616800  1
  O  O45  1  0.43848300  0.76231500  0.24988300  1
  O  O46  1  0.51243200  0.18860000  0.75011700  1
  O  O47  1  0.31151700  0.06140000  0.82383200  1
loop_
_geom_bond_atom_site_label_1
_geom_bond_atom_site_label_2
_geom_bond_distance
_geom_bond_site_symmetry_2
Ca0 O13 2.270826 1_455
Ca0 O29 2.270826 1_555
Ca0 O28 2.270832 1_555
Ca0 O12 2.270832 1_455
Ca0 O16 2.678825 1_555
Ca0 O19 2.678825 1_455
Ca0 O35 2.678825 1_455
Ca0 O32 2.678825 1_555
Ca1 O31 2.270826 1_555
Ca1 O15 2.270826 1_554
Ca1 O14 2.270836 1_555
Ca1 O30 2.270836 1_554
Ca1 O33 2.678825 1_555
Ca1 O18 2.678825 1_555
Ca1 O17 2.678825 1_554
Ca1 O34 2.678825 1_554
Ca2 O31 2.335549 1_556
Ca2 O28 2.335555 1_555
Ca2 O16 2.401204 1_555
Ca2 O17 2.401204 1_555
Ca2 O25 2.491724 1_555
Ca2 O24 2.491728 1_556
Ca2 O23 2.536395 1_555
Ca2 O20 2.536403 1_555
Ca3 O30 2.335542 1_554
Ca3 O29 2.335549 1_655
Ca3 O19 2.401204 1_555
Ca3 O18 2.401204 1_555
Ca3 O26 2.491728 1_554
Ca3 O27 2.491734 1_555
Ca3 O22 2.536403 1_655
Ca3 O21 2.536406 1_555
Ca4 O15 2.335549 1_544
Ca4 O12 2.335555 1_555
Ca4 O32 2.401204 1_655
Ca4 O33 2.401204 1_545
Ca4 O21 2.491724 1_555
Ca4 O20 2.491728 1_544
Ca4 O27 2.536401 1_555
Ca4 O24 2.536403 1_545
Ca5 O14 2.335542 1_456
Ca5 O13 2.335549 1_455
Ca5 O35 2.401204 1_455
Ca5 O34 2.401204 1_455
Ca5 O23 2.491727 1_555
Ca5 O22 2.491728 1_556
Ca5 O26 2.536403 1_455
Ca5 O25 2.536406 1_555
Ca6 O41 2.270826 1_555
Ca6 O1 2.270826 1_554
Ca6 O0 2.270832 1_555
Ca6 O40 2.270832 1_554
Ca6 O47 2.678825 1_554
Ca6 O44 2.678825 1_555
Ca6 O4 2.678825 1_554
Ca6 O7 2.678825 1_555
Ca7 O43 2.270826 1_555
Ca7 O3 2.270826 1_545
Ca7 O42 2.270836 1_555
Ca7 O2 2.270836 1_545
Ca7 O5 2.678825 1_555
Ca7 O46 2.678825 1_555
Ca7 O45 2.678825 1_545
Ca7 O6 2.678825 1_545
Ca8 O43 2.335549 1_565
Ca8 O40 2.335555 1_665
Ca8 O5 2.401204 1_565
Ca8 O4 2.401204 1_665
Ca8 O37 2.491724 1_655
Ca8 O36 2.491728 1_555
Ca8 O11 2.536401 1_665
Ca8 O8 2.536403 1_555
Ca9 O42 2.335542 1_555
Ca9 O41 2.335549 1_555
Ca9 O6 2.401204 1_545
Ca9 O7 2.401204 1_555
Ca9 O38 2.491724 1_555
Ca9 O39 2.491727 1_555
Ca9 O10 2.536403 1_555
Ca9 O9 2.536406 1_555
Ca10 O3 2.335549 1_555
Ca10 O0 2.335555 1_555
Ca10 O44 2.401204 1_555
Ca10 O45 2.401204 1_555
Ca10 O9 2.491724 1_555
Ca10 O8 2.491728 1_555
Ca10 O39 2.536395 1_555
Ca10 O36 2.536403 1_555
Ca11 O2 2.335542 1_545
Ca11 O1 2.335549 1_555
Ca11 O46 2.401204 1_555
Ca11 O47 2.401204 1_555
Ca11 O10 2.491728 1_555
Ca11 O11 2.491734 1_555
Ca11 O38 2.536406 1_555
Ca11 O37 2.536406 1_545
Al0 O13 1.835323 1_455
Al0 O1 1.835323 1_555
Al0 O16 1.917365 1_555
Al0 O4 1.917365 1_555
Al0 O11 2.038886 1_555
Al0 O23 2.038891 1_555
Al1 O12 1.835315 1_555
Al1 O0 1.835315 1_555
Al1 O19 1.917365 1_555
Al1 O7 1.917365 1_555
Al1 O9 2.038888 1_555
Al1 O21 2.038888 1_555
Al2 O15 1.835323 1_555
Al2 O3 1.835323 1_555
Al2 O5 1.917365 1_565
Al2 O17 1.917365 1_555
Al2 O8 2.038897 1_555
Al2 O20 2.038897 1_555
Al3 O2 1.835320 1_555
Al3 O14 1.835320 1_455
Al3 O18 1.917365 1_455
Al3 O6 1.917365 1_555
Al3 O22 2.038897 1_555
Al3 O10 2.038897 1_565
Al4 O28 1.835315 1_555
Al4 O40 1.835315 1_565
Al4 O47 1.917365 1_565
Al4 O35 1.917365 1_455
Al4 O25 2.038888 1_555
Al4 O37 2.038888 1_555
Al5 O43 1.835323 1_565
Al5 O31 1.835323 1_555
Al5 O33 1.917365 1_555
Al5 O45 1.917365 1_555
Al5 O24 2.038897 1_555
Al5 O36 2.038897 1_555
Al6 O29 1.835323 1_555
Al6 O41 1.835323 1_555
Al6 O44 1.917365 1_555
Al6 O32 1.917365 1_555
Al6 O27 2.038886 1_455
Al6 O39 2.038891 1_555
Al7 O30 1.835320 1_555
Al7 O42 1.835320 1_555
Al7 O46 1.917365 1_555
Al7 O34 1.917365 1_555
Al7 O38 2.038888 1_555
Al7 O26 2.038897 1_555
O4 Si1 1.658866 1_455
O5 Si1 1.658866 1_555
O6 Si0 1.658866 1_565
O7 Si0 1.658866 1_555
O8 Si3 1.668180 1_555
O9 Si3 1.668186 1_555
O10 Si2 1.668180 1_455
O11 Si2 1.668189 1_455
O16 Si5 1.658866 1_555
O17 Si5 1.658866 1_555
O18 Si4 1.658866 1_555
O19 Si4 1.658866 1_555
O20 Si7 1.668180 1_565
O21 Si7 1.668186 1_554
O22 Si6 1.668180 1_555
O23 Si6 1.668190 1_556
O24 Si0 1.668180 1_565
O25 Si0 1.668186 1_566
O26 Si1 1.668180 1_555
O27 Si1 1.668189 1_554
O32 Si2 1.658866 1_455
O33 Si2 1.658866 1_565
O34 Si3 1.658866 1_555
O35 Si3 1.658866 1_555
O36 Si4 1.668180 1_555
O37 Si4 1.668186 1_455
O38 Si5 1.668186 1_555
O39 Si5 1.668190 1_555
O44 Si6 1.658866 1_555
O45 Si6 1.658866 1_555
O46 Si7 1.658866 1_555
O47 Si7 1.658866 1_555
