# generated using pymatgen
data_Ta6Ga5
_symmetry_space_group_name_H-M   'P 1'
_cell_length_a   8.94044123
_cell_length_b   8.94044123
_cell_length_c   5.47129100
_cell_angle_alpha   90.00000000
_cell_angle_beta   90.00000000
_cell_angle_gamma   119.99999428
_symmetry_Int_Tables_number   1
_chemical_formula_structural   Ta6Ga5
_chemical_formula_sum   'Ta12 Ga10'
_cell_volume   378.73755909
_cell_formula_units_Z   2
loop_
 _symmetry_equiv_pos_site_id
 _symmetry_equiv_pos_as_xyz
  1  'x, y, z'
loop_
 _atom_site_type_symbol
 _atom_site_label
 _atom_site_symmetry_multiplicity
 _atom_site_fract_x
 _atom_site_fract_y
 _atom_site_fract_z
 _atom_site_occupancy
  Ta  Ta0  1  0.50000000  0.50000000  0.50000000  1
  Ta  Ta1  1  0.50000000  0.00000000  0.50000000  1
  Ta  Ta2  1  0.00000000  0.50000000  0.50000000  1
  Ta  Ta3  1  0.50000000  0.50000000  0.00000000  1
  Ta  Ta4  1  0.50000000  0.00000000  0.00000000  1
  Ta  Ta5  1  0.00000000  0.50000000  0.00000000  1
  Ta  Ta6  1  0.15316500  0.84683500  0.25000000  1
  Ta  Ta7  1  0.15316500  0.30633000  0.25000000  1
  Ta  Ta8  1  0.69367000  0.84683500  0.25000000  1
  Ta  Ta9  1  0.84683500  0.15316500  0.75000000  1
  Ta  Ta10  1  0.84683500  0.69367000  0.75000000  1
  Ta  Ta11  1  0.30633000  0.15316500  0.75000000  1
  Ga  Ga0  1  0.00000000  0.00000000  0.50000000  1
  Ga  Ga1  1  0.00000000  0.00000000  0.00000000  1
  Ga  Ga2  1  0.33333300  0.66666700  0.25000000  1
  Ga  Ga3  1  0.66666700  0.33333300  0.75000000  1
  Ga  Ga4  1  0.79441600  0.20558400  0.25000000  1
  Ga  Ga5  1  0.79441600  0.58883200  0.25000000  1
  Ga  Ga6  1  0.41116800  0.20558400  0.25000000  1
  Ga  Ga7  1  0.20558400  0.79441600  0.75000000  1
  Ga  Ga8  1  0.20558400  0.41116800  0.75000000  1
  Ga  Ga9  1  0.58883200  0.79441600  0.75000000  1
loop_
_geom_bond_atom_site_label_1
_geom_bond_atom_site_label_2
_geom_bond_distance
_geom_bond_site_symmetry_2
Ta0 Ta3 2.735645 1_555
Ta0 Ta3 2.735645 1_556
Ta0 Ta10 3.019141 1_555
Ta0 Ta7 3.019141 1_555
Ta0 Ta8 3.019141 1_555
Ta0 Ta11 3.019141 1_555
Ta1 Ta4 2.735645 1_556
Ta1 Ta4 2.735645 1_555
Ta1 Ta8 3.019141 1_545
Ta1 Ta11 3.019141 1_555
Ta1 Ta9 3.019141 1_555
Ta1 Ta6 3.019141 1_545
Ta2 Ta5 2.735645 1_555
Ta2 Ta5 2.735645 1_556
Ta2 Ta7 3.019141 1_555
Ta2 Ta6 3.019141 1_555
Ta2 Ta9 3.019141 1_455
Ta3 Ta7 3.019141 1_555
Ta3 Ta8 3.019141 1_555
Ta4 Ta8 3.019141 1_545
Ta4 Ta9 3.019141 1_554
Ta4 Ta6 3.019141 1_545
Ta5 Ta7 3.019141 1_555
Ta5 Ta9 3.019141 1_454
Ta5 Ta6 3.019141 1_555
Ta10 Ta5 3.019141 1_656
Ta10 Ta2 3.019141 1_655
Ta10 Ta3 3.019141 1_556
Ta11 Ta4 3.019141 1_556
Ta11 Ta3 3.019141 1_556
Ga0 Ga1 2.735645 1_556
Ga0 Ga1 2.735645 1_555
Ga0 Ta6 2.737956 1_545
Ga0 Ta9 2.737956 1_455
Ga0 Ta11 2.737956 1_555
Ga0 Ta7 2.737956 1_555
Ga0 Ta10 2.737956 1_445
Ga0 Ta8 2.737956 1_445
Ga1 Ta6 2.737956 1_545
Ga1 Ta9 2.737956 1_454
Ga1 Ta8 2.737956 1_445
Ga1 Ta10 2.737956 1_444
Ga1 Ta11 2.737956 1_554
Ga1 Ta7 2.737956 1_555
Ga2 Ta6 2.789955 1_555
Ga2 Ta7 2.789963 1_555
Ga2 Ta8 2.789963 1_555
Ga2 Ta4 2.920939 1_565
Ga2 Ta2 2.920939 1_555
Ga2 Ta5 2.920939 1_555
Ga2 Ta1 2.920939 1_565
Ga2 Ta3 2.920946 1_555
Ga2 Ta0 2.920946 1_555
Ga3 Ta9 2.789955 1_555
Ga3 Ta10 2.789963 1_555
Ga3 Ta11 2.789963 1_555
Ga3 Ta5 2.920939 1_656
Ga3 Ta2 2.920939 1_655
Ga3 Ta1 2.920939 1_555
Ga3 Ta4 2.920939 1_556
Ga3 Ta0 2.920946 1_555
Ga3 Ta3 2.920946 1_556
Ga4 Ta5 2.709192 1_655
Ga4 Ta4 2.709192 1_555
Ga4 Ta1 2.709192 1_555
Ga4 Ta2 2.709192 1_655
Ga4 Ta9 2.853533 1_555
Ga4 Ta9 2.853533 1_554
Ga4 Ta7 2.865242 1_655
Ga4 Ta8 2.865242 1_545
Ga5 Ta5 2.709192 1_655
Ga5 Ta2 2.709192 1_655
Ga5 Ta3 2.709192 1_555
Ga5 Ta0 2.709192 1_555
Ga5 Ta10 2.853533 1_554
Ga5 Ta10 2.853533 1_555
Ga5 Ta8 2.865242 1_555
Ga5 Ta6 2.865242 1_655
Ga6 Ta4 2.709192 1_555
Ga6 Ta1 2.709192 1_555
Ga6 Ta3 2.709192 1_555
Ga6 Ta0 2.709192 1_555
Ga6 Ta11 2.853533 1_555
Ga6 Ta11 2.853533 1_554
Ga6 Ta7 2.865242 1_555
Ga6 Ta6 2.865242 1_545
Ga7 Ta4 2.709192 1_566
Ga7 Ta2 2.709192 1_555
Ga7 Ta5 2.709192 1_556
Ga7 Ta1 2.709192 1_565
Ga7 Ta6 2.853533 1_555
Ga7 Ta6 2.853533 1_556
Ga7 Ta11 2.865242 1_565
Ga7 Ta10 2.865242 1_455
Ga8 Ta2 2.709192 1_555
Ga8 Ta5 2.709192 1_556
Ga8 Ta3 2.709192 1_556
Ga8 Ta0 2.709192 1_555
Ga8 Ta7 2.853533 1_555
Ga8 Ta7 2.853533 1_556
Ga8 Ta11 2.865242 1_555
Ga8 Ta9 2.865242 1_455
Ga9 Ta4 2.709192 1_566
Ga9 Ta1 2.709192 1_565
Ga9 Ta3 2.709192 1_556
Ga9 Ta0 2.709192 1_555
Ga9 Ta8 2.853533 1_556
Ga9 Ta8 2.853533 1_555
Ga9 Ta10 2.865242 1_555
Ga9 Ta9 2.865242 1_565
