# generated using pymatgen
data_CsSO4
_symmetry_space_group_name_H-M   'P 1'
_cell_length_a   8.14646549
_cell_length_b   5.98053100
_cell_length_c   10.10740056
_cell_angle_alpha   90.00000000
_cell_angle_beta   107.46450880
_cell_angle_gamma   90.00000000
_symmetry_Int_Tables_number   1
_chemical_formula_structural   CsSO4
_chemical_formula_sum   'Cs4 S4 O16'
_cell_volume   469.73473559
_cell_formula_units_Z   4
loop_
 _symmetry_equiv_pos_site_id
 _symmetry_equiv_pos_as_xyz
  1  'x, y, z'
loop_
 _atom_site_type_symbol
 _atom_site_label
 _atom_site_symmetry_multiplicity
 _atom_site_fract_x
 _atom_site_fract_y
 _atom_site_fract_z
 _atom_site_occupancy
  Cs  Cs0  1  0.11912800  0.75636100  0.84876100  1
  Cs  Cs1  1  0.61912800  0.74363900  0.34876100  1
  Cs  Cs2  1  0.88087200  0.24363900  0.15123900  1
  Cs  Cs3  1  0.38087200  0.25636100  0.65123900  1
  S  S0  1  0.15575900  0.74463500  0.39318300  1
  S  S1  1  0.65575900  0.75536500  0.89318300  1
  S  S2  1  0.84424100  0.25536500  0.60681700  1
  S  S3  1  0.34424100  0.24463500  0.10681700  1
  O  O0  1  0.25439200  0.54154900  0.37488700  1
  O  O1  1  0.75439200  0.95845100  0.87488700  1
  O  O2  1  0.74560800  0.45845100  0.62511300  1
  O  O3  1  0.24560800  0.04154900  0.12511300  1
  O  O4  1  0.14627700  0.73736300  0.53866500  1
  O  O5  1  0.64627700  0.76263700  0.03866500  1
  O  O6  1  0.85372300  0.26263700  0.46133500  1
  O  O7  1  0.35372300  0.23736300  0.96133500  1
  O  O8  1  0.98343400  0.74614400  0.29074900  1
  O  O9  1  0.48343400  0.75385600  0.79074900  1
  O  O10  1  0.01656600  0.25385600  0.70925100  1
  O  O11  1  0.51656600  0.24614400  0.20925100  1
  O  O12  1  0.25132900  0.95495000  0.38432400  1
  O  O13  1  0.75132900  0.54505000  0.88432400  1
  O  O14  1  0.74867100  0.04505000  0.61567600  1
  O  O15  1  0.24867100  0.45495000  0.11567600  1
loop_
_geom_bond_atom_site_label_1
_geom_bond_atom_site_label_2
_geom_bond_distance
_geom_bond_site_symmetry_2
Cs0 O15 3.151568 1_556
Cs0 O3 3.169406 1_566
Cs0 O9 3.193182 1_555
Cs0 O4 3.209598 1_555
Cs0 O1 3.290910 1_455
Cs0 O10 3.291137 1_565
Cs0 O10 3.318248 1_555
Cs0 O13 3.369022 1_455
Cs0 O7 3.452089 1_565
Cs0 O7 3.643613 1_555
Cs0 O14 3.656679 1_465
Cs0 O2 3.662594 1_455
Cs1 O14 3.151568 1_565
Cs1 O2 3.169406 1_555
Cs1 O8 3.193182 1_555
Cs1 O5 3.209598 1_555
Cs1 O0 3.290910 1_555
Cs1 O11 3.291137 1_555
Cs1 O11 3.318248 1_565
Cs1 O12 3.369022 1_555
Cs1 O6 3.452089 1_555
Cs1 O6 3.643613 1_565
Cs1 O15 3.656679 1_555
Cs1 O3 3.662594 1_565
Cs2 O13 3.151568 1_554
Cs2 O1 3.169406 1_544
Cs2 O11 3.193182 1_555
Cs2 O6 3.209598 1_555
Cs2 O3 3.290910 1_655
Cs2 O8 3.291137 1_545
Cs2 O8 3.318248 1_555
Cs2 O15 3.369022 1_655
Cs2 O5 3.452089 1_545
Cs2 O5 3.643613 1_555
Cs2 O12 3.656679 1_645
Cs2 O0 3.662594 1_655
Cs3 O12 3.151568 1_545
Cs3 O0 3.169406 1_555
Cs3 O10 3.193182 1_555
Cs3 O7 3.209598 1_555
Cs3 O2 3.290910 1_555
Cs3 O9 3.291137 1_555
Cs3 O9 3.318248 1_545
Cs3 O14 3.369022 1_555
Cs3 O4 3.452089 1_555
Cs3 O4 3.643613 1_545
Cs3 O13 3.656679 1_555
Cs3 O1 3.662594 1_545
O0 S0 1.498057 1_555
O1 S1 1.498057 1_555
O2 S2 1.498057 1_555
O3 S3 1.498057 1_555
O4 S0 1.496076 1_555
O5 S1 1.496076 1_554
O6 S2 1.496076 1_555
O7 S3 1.496076 1_556
O8 S0 1.473219 1_655
O9 S1 1.473219 1_555
O10 S2 1.473219 1_455
O11 S3 1.473219 1_555
O12 S0 1.496016 1_555
O13 S1 1.496016 1_555
O14 S2 1.496016 1_555
O15 S3 1.496016 1_555
