# generated using pymatgen
data_Tb2Fe17
_symmetry_space_group_name_H-M   'P 1'
_cell_length_a   8.51178831
_cell_length_b   8.51178831
_cell_length_c   8.24559000
_cell_angle_alpha   90.00000000
_cell_angle_beta   90.00000000
_cell_angle_gamma   120.00000243
_symmetry_Int_Tables_number   1
_chemical_formula_structural   Tb2Fe17
_chemical_formula_sum   'Tb4 Fe34'
_cell_volume   517.36135551
_cell_formula_units_Z   2
loop_
 _symmetry_equiv_pos_site_id
 _symmetry_equiv_pos_as_xyz
  1  'x, y, z'
loop_
 _atom_site_type_symbol
 _atom_site_label
 _atom_site_symmetry_multiplicity
 _atom_site_fract_x
 _atom_site_fract_y
 _atom_site_fract_z
 _atom_site_occupancy
  Tb  Tb0  1  0.00000000  0.00000000  0.25000000  1
  Tb  Tb1  1  0.00000000  0.00000000  0.75000000  1
  Tb  Tb2  1  0.33333300  0.66666700  0.75000000  1
  Tb  Tb3  1  0.66666700  0.33333300  0.25000000  1
  Fe  Fe0  1  0.33333300  0.66666700  0.39338400  1
  Fe  Fe1  1  0.66666700  0.33333300  0.60661600  1
  Fe  Fe2  1  0.66666700  0.33333300  0.89338400  1
  Fe  Fe3  1  0.33333300  0.66666700  0.10661600  1
  Fe  Fe4  1  0.50000000  0.50000000  0.50000000  1
  Fe  Fe5  1  0.50000000  0.00000000  0.50000000  1
  Fe  Fe6  1  0.00000000  0.50000000  0.50000000  1
  Fe  Fe7  1  0.50000000  0.50000000  0.00000000  1
  Fe  Fe8  1  0.50000000  0.00000000  0.00000000  1
  Fe  Fe9  1  0.00000000  0.50000000  0.00000000  1
  Fe  Fe10  1  0.32957600  0.36927900  0.25000000  1
  Fe  Fe11  1  0.63072100  0.96029700  0.25000000  1
  Fe  Fe12  1  0.03970300  0.67042400  0.25000000  1
  Fe  Fe13  1  0.63072100  0.67042400  0.25000000  1
  Fe  Fe14  1  0.03970300  0.36927900  0.25000000  1
  Fe  Fe15  1  0.32957600  0.96029700  0.25000000  1
  Fe  Fe16  1  0.67042400  0.63072100  0.75000000  1
  Fe  Fe17  1  0.36927900  0.03970300  0.75000000  1
  Fe  Fe18  1  0.96029700  0.32957600  0.75000000  1
  Fe  Fe19  1  0.36927900  0.32957600  0.75000000  1
  Fe  Fe20  1  0.96029700  0.63072100  0.75000000  1
  Fe  Fe21  1  0.67042400  0.03970300  0.75000000  1
  Fe  Fe22  1  0.16607400  0.83392600  0.51577900  1
  Fe  Fe23  1  0.16607400  0.33214800  0.51577900  1
  Fe  Fe24  1  0.66785200  0.83392600  0.51577900  1
  Fe  Fe25  1  0.83392600  0.16607400  0.48422100  1
  Fe  Fe26  1  0.83392600  0.66785200  0.48422100  1
  Fe  Fe27  1  0.33214800  0.16607400  0.48422100  1
  Fe  Fe28  1  0.83392600  0.16607400  0.01577900  1
  Fe  Fe29  1  0.83392600  0.66785200  0.01577900  1
  Fe  Fe30  1  0.33214800  0.16607400  0.01577900  1
  Fe  Fe31  1  0.16607400  0.83392600  0.98422100  1
  Fe  Fe32  1  0.16607400  0.33214800  0.98422100  1
  Fe  Fe33  1  0.66785200  0.83392600  0.98422100  1
loop_
_geom_bond_atom_site_label_1
_geom_bond_atom_site_label_2
_geom_bond_distance
_geom_bond_site_symmetry_2
Fe0 Fe3 2.364571 1_555
Fe0 Fe6 2.609669 1_555
Fe0 Fe5 2.609669 1_565
Fe0 Fe4 2.609676 1_555
Fe0 Fe22 2.664406 1_555
Fe0 Fe24 2.664413 1_555
Fe0 Fe23 2.664413 1_555
Fe0 Fe15 2.779448 1_555
Fe0 Fe12 2.779448 1_555
Fe0 Fe11 2.779452 1_555
Fe0 Fe14 2.779452 1_555
Fe0 Fe13 2.779455 1_555
Fe0 Fe10 2.779455 1_555
Fe0 Tb2 2.940509 1_555
Fe1 Fe2 2.364571 1_555
Fe1 Fe6 2.609669 1_655
Fe1 Fe5 2.609669 1_555
Fe1 Fe4 2.609676 1_555
Fe1 Fe25 2.664406 1_555
Fe1 Fe27 2.664413 1_555
Fe1 Fe26 2.664413 1_555
Fe1 Fe18 2.779448 1_555
Fe1 Fe21 2.779448 1_555
Fe1 Fe17 2.779452 1_555
Fe1 Fe20 2.779452 1_555
Fe1 Fe19 2.779455 1_555
Fe1 Fe16 2.779455 1_555
Fe1 Tb3 2.940509 1_555
Fe2 Fe8 2.609669 1_556
Fe2 Fe9 2.609669 1_656
Fe2 Fe7 2.609676 1_556
Fe2 Fe28 2.664406 1_556
Fe2 Fe30 2.664413 1_556
Fe2 Fe29 2.664413 1_556
Fe2 Fe21 2.779448 1_555
Fe2 Fe20 2.779452 1_555
Fe2 Tb3 2.940509 1_556
Fe3 Fe8 2.609669 1_565
Fe3 Fe9 2.609669 1_555
Fe3 Fe7 2.609676 1_555
Fe3 Fe31 2.664406 1_554
Fe3 Fe33 2.664413 1_554
Fe3 Fe32 2.664413 1_554
Fe3 Tb2 2.940509 1_554
Fe4 Tb2 3.207324 1_555
Fe4 Tb3 3.207324 1_555
Fe5 Tb3 3.207319 1_555
Fe5 Tb2 3.207319 1_545
Fe6 Tb2 3.207319 1_555
Fe6 Tb3 3.207319 1_455
Fe7 Tb2 3.207324 1_554
Fe7 Tb3 3.207324 1_555
Fe8 Tb2 3.207319 1_544
Fe8 Tb3 3.207319 1_555
Fe9 Tb3 3.207319 1_455
Fe9 Tb2 3.207319 1_554
Fe10 Fe4 2.444917 1_555
Fe10 Fe7 2.444917 1_555
Fe10 Fe14 2.467338 1_555
Fe10 Fe32 2.529733 1_554
Fe10 Fe23 2.529733 1_555
Fe10 Fe13 2.563282 1_555
Fe10 Fe30 2.599976 1_555
Fe10 Fe27 2.599976 1_555
Fe10 Fe3 2.779455 1_555
Fe10 Tb0 2.988617 1_555
Fe10 Tb3 3.033823 1_555
Fe11 Fe8 2.444917 1_565
Fe11 Fe5 2.444917 1_565
Fe11 Fe13 2.467338 1_555
Fe11 Fe33 2.529733 1_554
Fe11 Fe24 2.529733 1_555
Fe11 Fe15 2.563282 1_555
Fe11 Fe28 2.599976 1_565
Fe11 Fe25 2.599976 1_565
Fe11 Fe3 2.779452 1_555
Fe11 Tb0 2.988618 1_665
Fe11 Tb3 3.033815 1_565
Fe12 Fe9 2.444917 1_555
Fe12 Fe6 2.444917 1_555
Fe12 Fe15 2.467338 1_555
Fe12 Fe22 2.529733 1_555
Fe12 Fe31 2.529733 1_554
Fe12 Fe14 2.563282 1_555
Fe12 Fe26 2.599976 1_455
Fe12 Fe29 2.599976 1_455
Fe12 Fe3 2.779448 1_555
Fe12 Tb0 2.988618 1_565
Fe12 Tb3 3.033818 1_455
Fe13 Fe4 2.444917 1_555
Fe13 Fe7 2.444917 1_555
Fe13 Fe33 2.529733 1_554
Fe13 Fe24 2.529733 1_555
Fe13 Fe26 2.599976 1_555
Fe13 Fe29 2.599976 1_555
Fe13 Fe3 2.779455 1_555
Fe13 Tb0 2.988617 1_665
Fe13 Tb3 3.033823 1_555
Fe14 Fe9 2.444917 1_555
Fe14 Fe6 2.444917 1_555
Fe14 Fe23 2.529733 1_555
Fe14 Fe32 2.529733 1_554
Fe14 Fe28 2.599976 1_455
Fe14 Fe25 2.599976 1_455
Fe14 Fe3 2.779452 1_555
Fe14 Tb0 2.988618 1_555
Fe14 Tb3 3.033815 1_455
Fe15 Fe8 2.444917 1_565
Fe15 Fe5 2.444917 1_565
Fe15 Fe22 2.529733 1_555
Fe15 Fe31 2.529733 1_554
Fe15 Fe30 2.599976 1_565
Fe15 Fe27 2.599976 1_565
Fe15 Fe3 2.779448 1_555
Fe15 Tb0 2.988618 1_565
Fe15 Tb3 3.033818 1_565
Fe16 Fe4 2.444917 1_555
Fe16 Fe7 2.444917 1_556
Fe16 Fe20 2.467338 1_555
Fe16 Fe26 2.529733 1_555
Fe16 Fe29 2.529733 1_556
Fe16 Fe19 2.563282 1_555
Fe16 Fe24 2.599976 1_555
Fe16 Fe33 2.599976 1_555
Fe16 Fe2 2.779455 1_555
Fe16 Tb1 2.988617 1_665
Fe16 Tb2 3.033823 1_555
Fe17 Fe8 2.444917 1_556
Fe17 Fe5 2.444917 1_555
Fe17 Fe19 2.467338 1_555
Fe17 Fe30 2.529733 1_556
Fe17 Fe27 2.529733 1_555
Fe17 Fe21 2.563282 1_555
Fe17 Fe22 2.599976 1_545
Fe17 Fe31 2.599976 1_545
Fe17 Fe2 2.779452 1_555
Fe17 Tb1 2.988618 1_555
Fe17 Tb2 3.033815 1_545
Fe18 Fe9 2.444917 1_656
Fe18 Fe6 2.444917 1_655
Fe18 Fe21 2.467338 1_555
Fe18 Fe28 2.529733 1_556
Fe18 Fe25 2.529733 1_555
Fe18 Fe20 2.563282 1_555
Fe18 Fe32 2.599976 1_655
Fe18 Fe23 2.599976 1_655
Fe18 Fe2 2.779448 1_555
Fe18 Tb1 2.988618 1_655
Fe18 Tb2 3.033818 1_655
Fe19 Fe4 2.444917 1_555
Fe19 Fe7 2.444917 1_556
Fe19 Fe30 2.529733 1_556
Fe19 Fe27 2.529733 1_555
Fe19 Fe32 2.599976 1_555
Fe19 Fe23 2.599976 1_555
Fe19 Fe2 2.779455 1_555
Fe19 Tb1 2.988617 1_555
Fe19 Tb2 3.033823 1_555
Fe20 Fe9 2.444917 1_656
Fe20 Fe6 2.444917 1_655
Fe20 Fe29 2.529733 1_556
Fe20 Fe26 2.529733 1_555
Fe20 Fe31 2.599976 1_655
Fe20 Fe22 2.599976 1_655
Fe20 Tb1 2.988618 1_665
Fe20 Tb2 3.033815 1_655
Fe21 Fe5 2.444917 1_555
Fe21 Fe8 2.444917 1_556
Fe21 Fe28 2.529733 1_556
Fe21 Fe25 2.529733 1_555
Fe21 Fe33 2.599976 1_545
Fe21 Fe24 2.599976 1_545
Fe21 Tb1 2.988618 1_655
Fe21 Tb2 3.033818 1_545
Fe22 Fe26 2.462193 1_455
Fe22 Fe27 2.462193 1_565
Fe22 Fe6 2.464958 1_555
Fe22 Fe5 2.464958 1_565
Fe22 Tb1 3.118423 1_565
Fe22 Tb2 3.132159 1_555
Fe22 Tb0 3.285936 1_565
Fe23 Fe25 2.462193 1_455
Fe23 Fe27 2.462193 1_555
Fe23 Fe4 2.464958 1_555
Fe23 Fe6 2.464958 1_555
Fe23 Tb1 3.118423 1_555
Fe23 Tb2 3.132165 1_555
Fe23 Tb0 3.285936 1_555
Fe24 Fe25 2.462193 1_565
Fe24 Fe26 2.462193 1_555
Fe24 Fe4 2.464958 1_555
Fe24 Fe5 2.464958 1_565
Fe24 Tb1 3.118423 1_665
Fe24 Tb2 3.132165 1_555
Fe24 Tb0 3.285936 1_665
Fe25 Fe6 2.464958 1_655
Fe25 Fe5 2.464958 1_555
Fe25 Tb0 3.118423 1_655
Fe25 Tb3 3.132159 1_555
Fe25 Tb1 3.285936 1_655
Fe26 Fe4 2.464958 1_555
Fe26 Fe6 2.464958 1_655
Fe26 Tb0 3.118423 1_665
Fe26 Tb3 3.132165 1_555
Fe26 Tb1 3.285936 1_665
Fe27 Fe4 2.464958 1_555
Fe27 Fe5 2.464958 1_555
Fe27 Tb0 3.118423 1_555
Fe27 Tb3 3.132165 1_555
Fe27 Tb1 3.285936 1_555
Fe28 Fe33 2.462193 1_544
Fe28 Fe32 2.462193 1_654
Fe28 Fe9 2.464958 1_655
Fe28 Fe8 2.464958 1_555
Fe28 Tb0 3.118423 1_655
Fe28 Tb3 3.132159 1_555
Fe28 Tb1 3.285936 1_654
Fe29 Fe31 2.462193 1_654
Fe29 Fe33 2.462193 1_554
Fe29 Fe7 2.464958 1_555
Fe29 Fe9 2.464958 1_655
Fe29 Tb0 3.118423 1_665
Fe29 Tb3 3.132165 1_555
Fe29 Tb1 3.285936 1_664
Fe30 Fe31 2.462193 1_544
Fe30 Fe32 2.462193 1_554
Fe30 Fe7 2.464958 1_555
Fe30 Fe8 2.464958 1_555
Fe30 Tb0 3.118423 1_555
Fe30 Tb3 3.132165 1_555
Fe30 Tb1 3.285936 1_554
Fe31 Fe9 2.464958 1_556
Fe31 Fe8 2.464958 1_566
Fe31 Tb1 3.118423 1_565
Fe31 Tb2 3.132159 1_555
Fe31 Tb0 3.285936 1_566
Fe32 Fe7 2.464958 1_556
Fe32 Fe9 2.464958 1_556
Fe32 Tb1 3.118423 1_555
Fe32 Tb2 3.132165 1_555
Fe32 Tb0 3.285936 1_556
Fe33 Fe7 2.464958 1_556
Fe33 Fe8 2.464958 1_566
Fe33 Tb1 3.118423 1_665
Fe33 Tb2 3.132165 1_555
Fe33 Tb0 3.285936 1_666
