# generated using pymatgen
data_Lu2MgS4
_symmetry_space_group_name_H-M   'P 1'
_cell_length_a   3.78503900
_cell_length_b   12.47181500
_cell_length_c   13.10569800
_cell_angle_alpha   90.00000000
_cell_angle_beta   90.00000000
_cell_angle_gamma   90.00000000
_symmetry_Int_Tables_number   1
_chemical_formula_structural   Lu2MgS4
_chemical_formula_sum   'Lu8 Mg4 S16'
_cell_volume   618.67159244
_cell_formula_units_Z   4
loop_
 _symmetry_equiv_pos_site_id
 _symmetry_equiv_pos_as_xyz
  1  'x, y, z'
loop_
 _atom_site_type_symbol
 _atom_site_label
 _atom_site_symmetry_multiplicity
 _atom_site_fract_x
 _atom_site_fract_y
 _atom_site_fract_z
 _atom_site_occupancy
  Lu  Lu0  1  0.25000000  0.11420000  0.07747900  1
  Lu  Lu1  1  0.75000000  0.88580000  0.92252100  1
  Lu  Lu2  1  0.75000000  0.38580000  0.57747900  1
  Lu  Lu3  1  0.25000000  0.61420000  0.42252100  1
  Lu  Lu4  1  0.25000000  0.14267300  0.70375800  1
  Lu  Lu5  1  0.75000000  0.85732700  0.29624200  1
  Lu  Lu6  1  0.75000000  0.35732700  0.20375800  1
  Lu  Lu7  1  0.25000000  0.64267300  0.79624200  1
  Mg  Mg0  1  0.75000000  0.11728900  0.43994100  1
  Mg  Mg1  1  0.25000000  0.88271100  0.56005900  1
  Mg  Mg2  1  0.25000000  0.38271100  0.93994100  1
  Mg  Mg3  1  0.75000000  0.61728900  0.06005900  1
  S  S0  1  0.75000000  0.01617900  0.61509700  1
  S  S1  1  0.25000000  0.98382100  0.38490300  1
  S  S2  1  0.25000000  0.48382100  0.11509700  1
  S  S3  1  0.75000000  0.51617900  0.88490300  1
  S  S4  1  0.25000000  0.02936800  0.88210700  1
  S  S5  1  0.75000000  0.97063200  0.11789300  1
  S  S6  1  0.75000000  0.47063200  0.38210700  1
  S  S7  1  0.25000000  0.52936800  0.61789300  1
  S  S8  1  0.25000000  0.22155100  0.25363400  1
  S  S9  1  0.75000000  0.77844900  0.74636600  1
  S  S10  1  0.75000000  0.27844900  0.75363400  1
  S  S11  1  0.25000000  0.72155100  0.24636600  1
  S  S12  1  0.75000000  0.25600100  0.01749900  1
  S  S13  1  0.25000000  0.74399900  0.98250100  1
  S  S14  1  0.25000000  0.24399900  0.51749900  1
  S  S15  1  0.75000000  0.75600100  0.48250100  1
loop_
_geom_bond_atom_site_label_1
_geom_bond_atom_site_label_2
_geom_bond_distance
_geom_bond_site_symmetry_2
Lu0 S5 2.658617 1_445
Lu0 S5 2.658617 1_545
Lu0 S8 2.668772 1_555
Lu0 S12 2.706880 1_555
Lu0 S12 2.706880 1_455
Lu0 S4 2.770465 1_554
Lu1 S4 2.658617 1_565
Lu1 S4 2.658617 1_665
Lu1 S9 2.668772 1_555
Lu1 S13 2.706880 1_555
Lu1 S13 2.706880 1_655
Lu1 S5 2.770465 1_556
Lu2 S7 2.658617 1_555
Lu2 S7 2.658617 1_655
Lu2 S10 2.668772 1_555
Lu2 S14 2.706880 1_555
Lu2 S14 2.706880 1_655
Lu2 S6 2.770465 1_555
Lu3 S6 2.658617 1_455
Lu3 S6 2.658617 1_555
Lu3 S11 2.668772 1_555
Lu3 S15 2.706880 1_555
Lu3 S15 2.706880 1_455
Lu3 S7 2.770465 1_555
Lu4 S10 2.622292 1_455
Lu4 S10 2.622292 1_555
Lu4 S0 2.724086 1_455
Lu4 S0 2.724086 1_555
Lu4 S4 2.731353 1_555
Lu4 S14 2.748769 1_555
Lu5 S11 2.622292 1_655
Lu5 S11 2.622292 1_555
Lu5 S1 2.724086 1_555
Lu5 S1 2.724086 1_655
Lu5 S5 2.731353 1_555
Lu5 S15 2.748769 1_555
Lu6 S8 2.622292 1_655
Lu6 S8 2.622292 1_555
Lu6 S2 2.724086 1_555
Lu6 S2 2.724086 1_655
Lu6 S6 2.731353 1_555
Lu6 S12 2.748769 1_555
Lu7 S9 2.622292 1_455
Lu7 S9 2.622292 1_555
Lu7 S3 2.724086 1_455
Lu7 S3 2.724086 1_555
Lu7 S7 2.731353 1_555
Lu7 S13 2.748769 1_555
Mg0 S0 2.619102 1_555
Mg0 S1 2.621598 1_645
Mg0 S1 2.621598 1_545
Mg0 S14 2.666864 1_655
Mg0 S14 2.666864 1_555
Mg1 S1 2.619102 1_555
Mg1 S0 2.621598 1_565
Mg1 S0 2.621598 1_465
Mg1 S15 2.666864 1_555
Mg1 S15 2.666864 1_455
Mg2 S2 2.619102 1_556
Mg2 S3 2.621598 1_455
Mg2 S3 2.621598 1_555
Mg2 S12 2.666864 1_456
Mg2 S12 2.666864 1_556
Mg3 S3 2.619102 1_554
Mg3 S2 2.621598 1_555
Mg3 S2 2.621598 1_655
Mg3 S13 2.666864 1_554
Mg3 S13 2.666864 1_654
