# generated using pymatgen
data_Nd3Cl
_symmetry_space_group_name_H-M   'P 1'
_cell_length_a   7.28451600
_cell_length_b   7.28451694
_cell_length_c   5.22476600
_cell_angle_alpha   90.00000000
_cell_angle_beta   90.00000000
_cell_angle_gamma   119.99999571
_symmetry_Int_Tables_number   1
_chemical_formula_structural   Nd3Cl
_chemical_formula_sum   'Nd6 Cl2'
_cell_volume   240.10375629
_cell_formula_units_Z   2
loop_
 _symmetry_equiv_pos_site_id
 _symmetry_equiv_pos_as_xyz
  1  'x, y, z'
loop_
 _atom_site_type_symbol
 _atom_site_label
 _atom_site_symmetry_multiplicity
 _atom_site_fract_x
 _atom_site_fract_y
 _atom_site_fract_z
 _atom_site_occupancy
  Nd  Nd0  1  0.17240400  0.34480800  0.25000200  1
  Nd  Nd1  1  0.65519200  0.82759700  0.25000200  1
  Nd  Nd2  1  0.17240400  0.82759700  0.25000200  1
  Nd  Nd3  1  0.82759500  0.65519100  0.75000000  1
  Nd  Nd4  1  0.34480800  0.17240400  0.75000000  1
  Nd  Nd5  1  0.82759700  0.17240400  0.75000000  1
  Cl  Cl0  1  0.33333400  0.66666800  0.75000000  1
  Cl  Cl1  1  0.66666600  0.33333300  0.25000200  1
loop_
_geom_bond_atom_site_label_1
_geom_bond_atom_site_label_2
_geom_bond_distance
_geom_bond_site_symmetry_2
Cl0 Nd1 3.308668 1_555
Cl0 Nd2 3.308671 1_555
Cl0 Nd0 3.308676 1_555
Cl0 Nd1 3.308684 1_556
Cl0 Nd2 3.308688 1_556
Cl0 Nd0 3.308692 1_556
Cl0 Nd4 3.642970 1_565
Cl0 Nd5 3.642974 1_565
Cl0 Nd3 3.642974 1_555
Cl0 Nd5 3.642981 1_455
Cl0 Nd3 3.642981 1_455
Cl0 Nd4 3.642985 1_555
Cl1 Nd4 3.308668 1_555
Cl1 Nd3 3.308668 1_555
Cl1 Nd5 3.308675 1_555
Cl1 Nd4 3.308684 1_554
Cl1 Nd3 3.308684 1_554
Cl1 Nd5 3.308692 1_554
Cl1 Nd2 3.642970 1_545
Cl1 Nd1 3.642970 1_545
Cl1 Nd0 3.642974 1_555
Cl1 Nd0 3.642981 1_655
Cl1 Nd2 3.642985 1_655
Cl1 Nd1 3.642985 1_555
