# generated using pymatgen
data_CaPrCoO4
_symmetry_space_group_name_H-M   'P 1'
_cell_length_a   6.67865861
_cell_length_b   6.67865861
_cell_length_c   6.67865861
_cell_angle_alpha   146.96828069
_cell_angle_beta   146.96828069
_cell_angle_gamma   47.41075012
_symmetry_Int_Tables_number   1
_chemical_formula_structural   CaPrCoO4
_chemical_formula_sum   'Ca1 Pr1 Co1 O4'
_cell_volume   88.17392622
_cell_formula_units_Z   1
loop_
 _symmetry_equiv_pos_site_id
 _symmetry_equiv_pos_as_xyz
  1  'x, y, z'
loop_
 _atom_site_type_symbol
 _atom_site_label
 _atom_site_symmetry_multiplicity
 _atom_site_fract_x
 _atom_site_fract_y
 _atom_site_fract_z
 _atom_site_occupancy
  Ca  Ca0  1  0.64054700  0.64054700  0.00000000  1
  Pr  Pr0  1  0.35826500  0.35826500  0.00000000  1
  Co  Co0  1  0.00509700  0.00509700  0.00000000  1
  O  O0  1  0.83065900  0.83065900  0.00000000  1
  O  O1  1  0.17012400  0.17012400  0.00000000  1
  O  O2  1  0.49765400  0.99765400  0.50000000  1
  O  O3  1  0.99765400  0.49765400  0.50000000  1
loop_
_geom_bond_atom_site_label_1
_geom_bond_atom_site_label_2
_geom_bond_distance
_geom_bond_site_symmetry_2
Ca0 O0 2.325125 1_555
Ca0 O2 2.580489 1_555
Ca0 O3 2.580489 1_454
Ca0 O2 2.580489 1_544
Ca0 O3 2.580489 1_555
Ca0 O1 2.709303 1_655
Ca0 O1 2.709303 1_666
Ca0 O1 2.709303 1_565
Ca0 O1 2.709303 1_554
Co0 O2 1.900795 1_545
Co0 O3 1.900795 1_455
Co0 O3 1.900795 1_444
Co0 O2 1.900795 1_444
Co0 O1 2.018328 1_555
Co0 O0 2.133428 1_445
O0 Pr0 2.706190 1_655
O0 Pr0 2.706190 1_554
O0 Pr0 2.706190 1_565
O0 Pr0 2.706190 1_666
O1 Pr0 2.301019 1_555
O2 Pr0 2.551660 1_566
O2 Pr0 2.551660 1_555
O3 Pr0 2.551660 1_555
O3 Pr0 2.551660 1_656
