# generated using pymatgen
data_Sr4CaMn2(SO3)2
_symmetry_space_group_name_H-M   'P 1'
_cell_length_a   3.91146900
_cell_length_b   3.91105600
_cell_length_c   34.09722300
_cell_angle_alpha   90.00022474
_cell_angle_beta   90.00029268
_cell_angle_gamma   89.99772942
_symmetry_Int_Tables_number   1
_chemical_formula_structural   Sr4CaMn2(SO3)2
_chemical_formula_sum   'Sr8 Ca2 Mn4 S4 O12'
_cell_volume   521.61844099
_cell_formula_units_Z   2
loop_
 _symmetry_equiv_pos_site_id
 _symmetry_equiv_pos_as_xyz
  1  'x, y, z'
loop_
 _atom_site_type_symbol
 _atom_site_label
 _atom_site_symmetry_multiplicity
 _atom_site_fract_x
 _atom_site_fract_y
 _atom_site_fract_z
 _atom_site_occupancy
  Sr  Sr0  1  0.74998800  0.74999200  0.10128800  1
  Sr  Sr1  1  0.74998900  0.74999000  0.60126200  1
  Sr  Sr2  1  0.25001600  0.25000900  0.39867400  1
  Sr  Sr3  1  0.25001100  0.25001100  0.89877000  1
  Sr  Sr4  1  0.74999700  0.74999100  0.21050500  1
  Sr  Sr5  1  0.74999600  0.74999000  0.71054900  1
  Sr  Sr6  1  0.25001000  0.25000500  0.28945100  1
  Sr  Sr7  1  0.25000500  0.25000700  0.78948800  1
  Ca  Ca0  1  0.25000500  0.74999500  0.00005000  1
  Ca  Ca1  1  0.25000600  0.74999700  0.49997500  1
  Mn  Mn0  1  0.24998000  0.24999300  0.65827800  1
  Mn  Mn1  1  0.75000500  0.75001300  0.84173000  1
  Mn  Mn2  1  0.24999000  0.24999600  0.15837200  1
  Mn  Mn3  1  0.75001400  0.75000300  0.34159800  1
  S  S0  1  0.24998800  0.24999600  0.05547300  1
  S  S1  1  0.24998700  0.24999400  0.55543100  1
  S  S2  1  0.75000500  0.75001000  0.44453400  1
  S  S3  1  0.75000500  0.75000800  0.94456200  1
  O  O0  1  0.74998600  0.24999000  0.14967200  1
  O  O1  1  0.74998400  0.24998900  0.64957700  1
  O  O2  1  0.75001400  0.25001000  0.35033000  1
  O  O3  1  0.75001100  0.25001200  0.85042200  1
  O  O4  1  0.24998800  0.74999400  0.14954200  1
  O  O5  1  0.24999100  0.74999200  0.64944400  1
  O  O6  1  0.25001300  0.75001200  0.35046500  1
  O  O7  1  0.25000700  0.75001100  0.85055900  1
  O  O8  1  0.24999800  0.24999300  0.21788900  1
  O  O9  1  0.24999800  0.24999300  0.71777600  1
  O  O10  1  0.75000800  0.75000600  0.28210400  1
  O  O11  1  0.75000600  0.75000400  0.78223200  1
loop_
_geom_bond_atom_site_label_1
_geom_bond_atom_site_label_2
_geom_bond_distance
_geom_bond_site_symmetry_2
Ca0 S0 2.719432 1_565
Ca0 S0 2.719437 1_555
Ca0 S3 2.721116 1_454
Ca0 S3 2.721130 1_554
Ca1 S2 2.720005 1_455
Ca1 S2 2.720013 1_555
Ca1 S1 2.720202 1_565
Ca1 S1 2.720230 1_555
Mn0 O1 1.978092 1_455
Mn0 O1 1.978126 1_555
Mn0 O5 1.978588 1_555
Mn0 O5 1.978593 1_545
Mn0 O9 2.028717 1_555
Mn1 O3 1.977854 1_565
Mn1 O3 1.977864 1_555
Mn1 O7 1.978762 1_555
Mn1 O7 1.978775 1_655
Mn1 O11 2.028717 1_555
Mn2 O0 1.978090 1_555
Mn2 O0 1.978118 1_455
Mn2 O4 1.978563 1_555
Mn2 O4 1.978576 1_545
Mn2 O8 2.029364 1_555
Mn3 O2 1.978038 1_555
Mn3 O2 1.978090 1_565
Mn3 O6 1.978961 1_655
Mn3 O6 1.978972 1_555
Mn3 O10 2.028580 1_555
S0 Sr0 3.176317 1_455
S0 Sr0 3.176334 1_545
S0 Sr0 3.176402 1_555
S0 Sr0 3.176439 1_445
S1 Sr1 3.176580 1_455
S1 Sr1 3.176607 1_545
S1 Sr1 3.176675 1_555
S1 Sr1 3.176702 1_445
S2 Sr2 3.177050 1_565
S2 Sr2 3.177110 1_655
S2 Sr2 3.177143 1_555
S2 Sr2 3.177208 1_665
S3 Sr3 3.175931 1_565
S3 Sr3 3.175948 1_655
S3 Sr3 3.176005 1_555
S3 Sr3 3.176065 1_665
O0 Sr0 2.558465 1_545
O0 Sr0 2.558487 1_555
O0 Sr4 2.850707 1_555
O0 Sr4 2.850713 1_545
O1 Sr1 2.556951 1_545
O1 Sr1 2.556967 1_555
O1 Sr5 2.854157 1_555
O1 Sr5 2.854163 1_545
O2 Sr2 2.557754 1_655
O2 Sr2 2.557755 1_555
O2 Sr6 2.851989 1_655
O2 Sr6 2.851996 1_555
O3 Sr3 2.557836 1_655
O3 Sr3 2.557849 1_555
O3 Sr7 2.853349 1_655
O3 Sr7 2.853367 1_555
O4 Sr0 2.555771 1_455
O4 Sr0 2.555784 1_555
O4 Sr4 2.854061 1_455
O4 Sr4 2.854095 1_555
O5 Sr1 2.554198 1_455
O5 Sr1 2.554198 1_555
O5 Sr5 2.857600 1_455
O5 Sr5 2.857613 1_555
O6 Sr2 2.554618 1_565
O6 Sr2 2.554646 1_555
O6 Sr6 2.855190 1_565
O6 Sr6 2.855217 1_555
O7 Sr3 2.554671 1_565
O7 Sr3 2.554681 1_555
O7 Sr7 2.856615 1_565
O7 Sr7 2.856625 1_555
O8 Sr6 2.440065 1_555
O8 Sr4 2.777059 1_455
O8 Sr4 2.777065 1_545
O8 Sr4 2.777165 1_555
O8 Sr4 2.777178 1_445
O9 Sr7 2.445180 1_555
O9 Sr5 2.776579 1_455
O9 Sr5 2.776585 1_545
O9 Sr5 2.776679 1_555
O9 Sr5 2.776703 1_445
O10 Sr4 2.441327 1_555
O10 Sr6 2.776940 1_565
O10 Sr6 2.776956 1_655
O10 Sr6 2.777056 1_555
O10 Sr6 2.777058 1_665
O11 Sr5 2.444191 1_555
O11 Sr7 2.776659 1_655
O11 Sr7 2.776681 1_565
O11 Sr7 2.776775 1_555
O11 Sr7 2.776783 1_665
