# generated using pymatgen
data_Ca6Ge7Au15
_symmetry_space_group_name_H-M   'P 1'
_cell_length_a   4.55473200
_cell_length_b   9.58467700
_cell_length_c   13.43029443
_cell_angle_alpha   89.36900944
_cell_angle_beta   90.00000000
_cell_angle_gamma   90.00000000
_symmetry_Int_Tables_number   1
_chemical_formula_structural   Ca6Ge7Au15
_chemical_formula_sum   'Ca6 Ge7 Au15'
_cell_volume   586.27247768
_cell_formula_units_Z   1
loop_
 _symmetry_equiv_pos_site_id
 _symmetry_equiv_pos_as_xyz
  1  'x, y, z'
loop_
 _atom_site_type_symbol
 _atom_site_label
 _atom_site_symmetry_multiplicity
 _atom_site_fract_x
 _atom_site_fract_y
 _atom_site_fract_z
 _atom_site_occupancy
  Ca  Ca0  1  0.50000000  0.99933200  0.18873700  1
  Ca  Ca1  1  0.50000000  0.00018400  0.81118300  1
  Ca  Ca2  1  0.00000000  0.49471900  0.31187600  1
  Ca  Ca3  1  0.00000000  0.50092200  0.69038200  1
  Ca  Ca4  1  0.00000000  0.49833900  0.99872300  1
  Ca  Ca5  1  0.50000000  0.00641800  0.49943500  1
  Ge  Ge0  1  0.50000000  0.35017500  0.17967100  1
  Ge  Ge1  1  0.50000000  0.64910700  0.81784500  1
  Ge  Ge2  1  0.00000000  0.84931100  0.31774900  1
  Ge  Ge3  1  0.00000000  0.14547700  0.68599900  1
  Ge  Ge4  1  0.50000000  0.72872100  0.62648900  1
  Ge  Ge5  1  0.00000000  0.77708600  0.12406800  1
  Ge  Ge6  1  0.00000000  0.21985000  0.87537100  1
  Au  Au0  1  0.50000000  0.73740700  0.35917600  1
  Au  Au1  1  0.50000000  0.25970600  0.63941400  1
  Au  Au2  1  0.00000000  0.23876000  0.13766500  1
  Au  Au3  1  0.00000000  0.75785300  0.85855200  1
  Au  Au4  1  0.50000000  0.38364000  0.83991300  1
  Au  Au5  1  0.50000000  0.61414800  0.15944000  1
  Au  Au6  1  0.00000000  0.88374100  0.65791900  1
  Au  Au7  1  0.00000000  0.11061600  0.34113300  1
  Au  Au8  1  0.50000000  0.50464400  0.50895000  1
  Au  Au9  1  0.00000000  0.99892100  0.99982800  1
  Au  Au10  1  0.50000000  0.20545200  0.00457400  1
  Au  Au11  1  0.50000000  0.79935400  0.99614000  1
  Au  Au12  1  0.00000000  0.70142100  0.49509900  1
  Au  Au13  1  0.00000000  0.29779100  0.50562200  1
  Au  Au14  1  0.50000000  0.28690400  0.36904800  1
loop_
_geom_bond_atom_site_label_1
_geom_bond_atom_site_label_2
_geom_bond_distance
_geom_bond_site_symmetry_2
Ca0 Ge2 3.193936 1_655
Ca0 Ge2 3.193936 1_555
Ca0 Ge5 3.243307 1_655
Ca0 Ge5 3.243307 1_555
Ca0 Ge0 3.363580 1_565
Ca1 Ge3 3.146546 1_555
Ca1 Ge3 3.146546 1_655
Ca1 Ge6 3.225268 1_655
Ca1 Ge6 3.225268 1_555
Ca1 Ge1 3.365164 1_545
Ca2 Ge0 3.211310 1_555
Ca2 Ge0 3.211310 1_455
Ca2 Ge2 3.400433 1_555
Ca3 Ge1 3.191817 1_555
Ca3 Ge1 3.191817 1_455
Ca3 Ge4 3.263222 1_555
Ca3 Ge4 3.263222 1_455
Ca3 Ge3 3.407982 1_555
Ca4 Ge6 3.157003 1_555
Ca4 Ge5 3.173475 1_556
Ca5 Ge4 3.145788 1_545
Ge1 Ge4 2.672793 1_555
Ge2 Ge5 2.699089 1_555
Ge3 Ge6 2.648879 1_555
Au0 Ge2 2.575500 1_655
Au0 Ge2 2.575500 1_555
Au0 Au12 2.936646 1_555
Au0 Au12 2.936646 1_655
Au0 Au5 2.943022 1_555
Au0 Au8 2.987391 1_555
Au0 Ca5 3.209897 1_565
Au0 Ca2 3.321621 1_655
Au0 Ca2 3.321621 1_555
Au0 Ca0 3.378699 1_555
Au1 Ge3 2.600277 1_555
Au1 Ge3 2.600277 1_655
Au1 Au8 2.913926 1_555
Au1 Au13 2.921288 1_655
Au1 Au13 2.921288 1_555
Au1 Au4 2.955070 1_555
Au1 Ca5 3.086813 1_555
Au1 Ca3 3.321905 1_555
Au1 Ca3 3.321905 1_655
Au1 Ca1 3.373836 1_555
Au2 Ge0 2.580367 1_555
Au2 Ge0 2.580367 1_455
Au2 Au9 2.967326 1_544
Au2 Au7 2.983604 1_555
Au2 Ca4 3.093520 1_554
Au2 Ca0 3.299772 1_545
Au2 Ca0 3.299772 1_445
Au2 Ca2 3.408702 1_555
Au3 Ge1 2.565972 1_455
Au3 Ge1 2.565972 1_555
Au3 Au6 2.940224 1_555
Au3 Au9 3.005875 1_555
Au3 Ca4 3.102864 1_555
Au3 Ca1 3.309584 1_565
Au3 Ca1 3.309584 1_465
Au3 Ca3 3.359770 1_555
Au4 Ge1 2.558375 1_555
Au4 Ge6 2.803785 1_655
Au4 Ge6 2.803785 1_555
Au4 Ca3 3.230069 1_555
Au4 Ca3 3.230069 1_655
Au4 Ca4 3.315981 1_655
Au4 Ca4 3.315981 1_555
Au5 Ge0 2.541667 1_555
Au5 Ge5 2.799047 1_555
Au5 Ge5 2.799047 1_655
Au5 Ca2 3.261344 1_655
Au5 Ca2 3.261344 1_555
Au5 Ca4 3.336206 1_554
Au5 Ca4 3.336206 1_654
Au5 Ca0 3.717078 1_555
Au6 Ge3 2.540946 1_565
Au6 Ge4 2.754277 1_455
Au6 Ge4 2.754277 1_555
Au6 Ca1 3.274070 1_465
Au6 Ca1 3.274070 1_565
Au6 Ca5 3.323294 1_465
Au6 Ca5 3.323294 1_565
Au7 Ge2 2.527567 1_545
Au7 Ca0 3.249805 1_545
Au7 Ca0 3.249805 1_445
Au7 Ca5 3.264521 1_455
Au7 Ca5 3.264521 1_555
Au8 Ge4 2.679410 1_555
Au8 Ca3 3.335144 1_655
Au8 Ca3 3.335144 1_555
Au8 Ca2 3.493757 1_555
Au8 Ca2 3.493757 1_655
Au9 Ge6 2.683260 1_565
Au9 Ge5 2.688274 1_556
Au9 Ca1 3.406579 1_565
Au9 Ca1 3.406579 1_465
Au9 Ca0 3.409329 1_556
Au9 Ca0 3.409329 1_456
Au10 Ge0 2.743355 1_555
Au10 Au4 2.779234 1_554
Au10 Ge6 2.865520 1_654
Au10 Ge6 2.865520 1_554
Au10 Au2 2.914767 1_555
Au10 Au2 2.914767 1_655
Au10 Au9 3.018574 1_544
Au10 Au9 3.018574 1_644
Au10 Ca0 3.148471 1_545
Au10 Ca1 3.275558 1_554
Au10 Ca4 3.615002 1_654
Au10 Ca4 3.615002 1_554
Au11 Au5 2.806306 1_556
Au11 Ge1 2.807782 1_555
Au11 Ge5 2.859332 1_556
Au11 Ge5 2.859332 1_656
Au11 Au3 2.962322 1_555
Au11 Au3 2.962322 1_655
Au11 Au9 2.974842 1_655
Au11 Au9 2.974842 1_555
Au11 Ca1 3.125745 1_565
Au11 Ca0 3.236311 1_556
Au11 Ca4 3.675511 1_655
Au11 Ca4 3.675511 1_555
Au12 Ge2 2.758288 1_555
Au12 Au6 2.814177 1_555
Au12 Ge4 2.894627 1_455
Au12 Ge4 2.894627 1_555
Au12 Au8 2.961492 1_555
Au12 Au8 2.961492 1_455
Au12 Ca2 3.176107 1_555
Au12 Ca3 3.234283 1_555
Au12 Ca5 3.706644 1_465
Au12 Ca5 3.706644 1_565
Au13 Ge3 2.814594 1_555
Au13 Au7 2.861127 1_555
Au13 Au14 2.926755 1_455
Au13 Au14 2.926755 1_555
Au13 Au8 3.020120 1_455
Au13 Au8 3.020120 1_555
Au13 Ca3 3.170844 1_555
Au13 Ca2 3.197686 1_555
Au13 Ca5 3.605229 1_455
Au13 Ca5 3.605229 1_555
Au14 Ge0 2.608182 1_555
Au14 Au8 2.823501 1_555
Au14 Ca2 3.116041 1_555
Au14 Ca2 3.116041 1_655
Au14 Ca5 3.192195 1_555
Au14 Ca0 3.688958 1_545
