# generated using pymatgen
data_MnFeCoGe
_symmetry_space_group_name_H-M   'P 1'
_cell_length_a   4.04421662
_cell_length_b   4.04421662
_cell_length_c   4.04421662
_cell_angle_alpha   60.00000000
_cell_angle_beta   60.00000000
_cell_angle_gamma   60.00000000
_symmetry_Int_Tables_number   1
_chemical_formula_structural   MnFeCoGe
_chemical_formula_sum   'Mn1 Fe1 Co1 Ge1'
_cell_volume   46.77224679
_cell_formula_units_Z   1
loop_
 _symmetry_equiv_pos_site_id
 _symmetry_equiv_pos_as_xyz
  1  'x, y, z'
loop_
 _atom_site_type_symbol
 _atom_site_label
 _atom_site_symmetry_multiplicity
 _atom_site_fract_x
 _atom_site_fract_y
 _atom_site_fract_z
 _atom_site_occupancy
  Mn  Mn0  1  0.50000000  0.50000000  0.50000000  1
  Fe  Fe0  1  0.25000000  0.25000000  0.25000000  1
  Co  Co0  1  0.75000000  0.75000000  0.75000000  1
  Ge  Ge0  1  0.00000000  0.00000000  0.00000000  1
loop_
_geom_bond_atom_site_label_1
_geom_bond_atom_site_label_2
_geom_bond_distance
_geom_bond_site_symmetry_2
Fe0 Mn0 2.476567 1_455
Fe0 Mn0 2.476567 1_555
Fe0 Mn0 2.476567 1_554
Fe0 Ge0 2.476567 1_655
Fe0 Ge0 2.476567 1_555
Fe0 Mn0 2.476567 1_545
Fe0 Ge0 2.476567 1_565
Fe0 Ge0 2.476567 1_556
Co0 Mn0 2.476567 1_555
Co0 Mn0 2.476567 1_556
Co0 Ge0 2.476567 1_666
Co0 Mn0 2.476567 1_655
Co0 Mn0 2.476567 1_565
Co0 Ge0 2.476567 1_656
Co0 Ge0 2.476567 1_665
Co0 Ge0 2.476567 1_566
Ge0 Mn0 2.859693 1_544
Ge0 Mn0 2.859693 1_454
Ge0 Mn0 2.859693 1_554
Ge0 Mn0 2.859693 1_445
Ge0 Mn0 2.859693 1_545
Ge0 Mn0 2.859693 1_455
