# generated using pymatgen
data_KZn2CdB2O6F
_symmetry_space_group_name_H-M   'P 1'
_cell_length_a   5.09253330
_cell_length_b   5.09253330
_cell_length_c   15.41325300
_cell_angle_alpha   90.00000000
_cell_angle_beta   90.00000000
_cell_angle_gamma   119.99999085
_symmetry_Int_Tables_number   1
_chemical_formula_structural   KZn2CdB2O6F
_chemical_formula_sum   'K2 Zn4 Cd2 B4 O12 F2'
_cell_volume   346.17263447
_cell_formula_units_Z   2
loop_
 _symmetry_equiv_pos_site_id
 _symmetry_equiv_pos_as_xyz
  1  'x, y, z'
loop_
 _atom_site_type_symbol
 _atom_site_label
 _atom_site_symmetry_multiplicity
 _atom_site_fract_x
 _atom_site_fract_y
 _atom_site_fract_z
 _atom_site_occupancy
  K  K0  1  0.00000000  0.00000000  0.75000000  1
  K  K1  1  0.00000000  0.00000000  0.25000000  1
  Zn  Zn0  1  0.66666700  0.33333300  0.61625800  1
  Zn  Zn1  1  0.33333300  0.66666700  0.11625800  1
  Zn  Zn2  1  0.33333300  0.66666700  0.38374200  1
  Zn  Zn3  1  0.66666700  0.33333300  0.88374200  1
  Cd  Cd0  1  0.00000000  0.00000000  0.50000000  1
  Cd  Cd1  1  0.00000000  0.00000000  0.00000000  1
  B  B0  1  0.33333300  0.66666700  0.59514200  1
  B  B1  1  0.66666700  0.33333300  0.09514200  1
  B  B2  1  0.66666700  0.33333300  0.40485800  1
  B  B3  1  0.33333300  0.66666700  0.90485800  1
  O  O0  1  0.61315000  0.93171300  0.59554500  1
  O  O1  1  0.31856200  0.38685000  0.59554500  1
  O  O2  1  0.06828700  0.68143800  0.59554500  1
  O  O3  1  0.68143800  0.06828700  0.09554500  1
  O  O4  1  0.38685000  0.31856200  0.09554500  1
  O  O5  1  0.93171300  0.61315000  0.09554500  1
  O  O6  1  0.38685000  0.06828700  0.40445500  1
  O  O7  1  0.68143800  0.61315000  0.40445500  1
  O  O8  1  0.93171300  0.31856200  0.40445500  1
  O  O9  1  0.31856200  0.93171300  0.90445500  1
  O  O10  1  0.61315000  0.68143800  0.90445500  1
  O  O11  1  0.06828700  0.38685000  0.90445500  1
  F  F0  1  0.66666700  0.33333300  0.75000000  1
  F  F1  1  0.33333300  0.66666700  0.25000000  1
loop_
_geom_bond_atom_site_label_1
_geom_bond_atom_site_label_2
_geom_bond_distance
_geom_bond_site_symmetry_2
K0 O2 2.997402 1_545
K0 O9 2.997402 1_545
K0 O1 2.997404 1_555
K0 O10 2.997404 1_445
K0 O11 2.997405 1_555
K0 O0 2.997405 1_445
K1 O3 2.997402 1_455
K1 O8 2.997402 1_455
K1 O4 2.997404 1_555
K1 O7 2.997404 1_445
K1 O6 2.997405 1_555
K1 O5 2.997405 1_445
Cd0 O2 2.342143 1_545
Cd0 O8 2.342143 1_455
Cd0 O1 2.342145 1_555
Cd0 O7 2.342145 1_445
Cd0 O6 2.342147 1_555
Cd0 O0 2.342147 1_445
Cd1 O3 2.342143 1_455
Cd1 O9 2.342143 1_544
Cd1 O4 2.342145 1_555
Cd1 O10 2.342145 1_444
Cd1 O5 2.342147 1_445
Cd1 O11 2.342147 1_554
B0 O2 1.388909 1_555
B0 O1 1.388909 1_555
B0 O0 1.388909 1_555
B1 O3 1.388909 1_555
B1 O4 1.388909 1_555
B1 O5 1.388909 1_555
B2 O8 1.388909 1_555
B2 O7 1.388909 1_555
B2 O6 1.388909 1_555
B3 O9 1.388909 1_555
B3 O10 1.388909 1_555
B3 O11 1.388909 1_555
O0 Zn0 1.949844 1_565
O1 Zn0 1.949854 1_555
O2 Zn0 1.949848 1_455
O3 Zn1 1.949848 1_545
O4 Zn1 1.949854 1_555
O5 Zn1 1.949844 1_655
O6 Zn2 1.949844 1_545
O7 Zn2 1.949854 1_555
O8 Zn2 1.949848 1_655
O9 Zn3 1.949848 1_565
O10 Zn3 1.949854 1_555
O11 Zn3 1.949844 1_455
F0 Zn3 2.061399 1_555
F0 Zn0 2.061399 1_555
F0 K0 2.940172 1_655
F0 K0 2.940177 1_555
F0 K0 2.940177 1_665
F1 Zn1 2.061399 1_555
F1 Zn2 2.061399 1_555
F1 K1 2.940172 1_565
F1 K1 2.940177 1_555
F1 K1 2.940177 1_665
