# generated using pymatgen
data_LiGa(WO4)2
_symmetry_space_group_name_H-M   'P 1'
_cell_length_a   5.73777000
_cell_length_b   5.01207400
_cell_length_c   9.46010799
_cell_angle_alpha   88.93637543
_cell_angle_beta   90.00000000
_cell_angle_gamma   90.00000000
_symmetry_Int_Tables_number   1
_chemical_formula_structural   LiGa(WO4)2
_chemical_formula_sum   'Li2 Ga2 W4 O16'
_cell_volume   272.00811945
_cell_formula_units_Z   2
loop_
 _symmetry_equiv_pos_site_id
 _symmetry_equiv_pos_as_xyz
  1  'x, y, z'
loop_
 _atom_site_type_symbol
 _atom_site_label
 _atom_site_symmetry_multiplicity
 _atom_site_fract_x
 _atom_site_fract_y
 _atom_site_fract_z
 _atom_site_occupancy
  Li  Li0  1  0.34738700  0.25000000  0.50000000  1
  Li  Li1  1  0.65261300  0.75000000  0.50000000  1
  Ga  Ga0  1  0.33756600  0.25000000  0.00000000  1
  Ga  Ga1  1  0.66243400  0.75000000  0.00000000  1
  W  W0  1  0.17700100  0.76045800  0.75145800  1
  W  W1  1  0.17700100  0.73954200  0.24854200  1
  W  W2  1  0.82299900  0.26045800  0.75145800  1
  W  W3  1  0.82299900  0.23954200  0.24854200  1
  O  O0  1  0.38049900  0.59013300  0.88733900  1
  O  O1  1  0.12108400  0.07808200  0.87029800  1
  O  O2  1  0.12108400  0.42191800  0.12970200  1
  O  O3  1  0.87891600  0.92191800  0.12970200  1
  O  O4  1  0.87891600  0.57808200  0.87029800  1
  O  O5  1  0.10079000  0.44101800  0.65382300  1
  O  O6  1  0.62170900  0.39725000  0.62819600  1
  O  O7  1  0.38049900  0.90986700  0.11266100  1
  O  O8  1  0.61950100  0.40986700  0.11266100  1
  O  O9  1  0.61950100  0.09013300  0.88733900  1
  O  O10  1  0.62170900  0.10275000  0.37180400  1
  O  O11  1  0.89921000  0.55898200  0.34617700  1
  O  O12  1  0.37829100  0.60275000  0.37180400  1
  O  O13  1  0.37829100  0.89725000  0.62819600  1
  O  O14  1  0.89921000  0.94101800  0.65382300  1
  O  O15  1  0.10079000  0.05898200  0.34617700  1
loop_
_geom_bond_atom_site_label_1
_geom_bond_atom_site_label_2
_geom_bond_distance
_geom_bond_site_symmetry_2
Li0 O10 2.127472 1_555
Li0 O6 2.127472 1_555
Li0 O12 2.132710 1_555
Li0 O13 2.132710 1_545
Li0 O15 2.255632 1_555
Li0 O5 2.255632 1_555
Li1 O12 2.127472 1_555
Li1 O13 2.127472 1_555
Li1 O10 2.132710 1_565
Li1 O6 2.132710 1_555
Li1 O11 2.255632 1_555
Li1 O14 2.255632 1_555
Ga0 O1 1.957066 1_554
Ga0 O2 1.957066 1_555
Ga0 O0 2.008824 1_554
Ga0 O7 2.008824 1_545
Ga0 O8 2.103928 1_555
Ga0 O9 2.103928 1_554
Ga1 O4 1.957066 1_554
Ga1 O3 1.957066 1_555
Ga1 O9 2.008824 1_564
Ga1 O8 2.008824 1_555
Ga1 O7 2.103928 1_555
Ga1 O0 2.103928 1_554
O0 W0 1.924515 1_555
O1 W0 1.991888 1_545
O1 W2 2.233066 1_455
O2 W1 1.991888 1_555
O2 W3 2.233066 1_455
O3 W3 1.991888 1_565
O3 W1 2.233066 1_655
O4 W2 1.991888 1_555
O4 W0 2.233066 1_655
O5 W0 1.913793 1_555
O5 W2 2.044892 1_455
O6 W2 1.770319 1_555
O7 W1 1.924515 1_555
O8 W3 1.924515 1_555
O9 W2 1.924515 1_555
O10 W3 1.770319 1_555
O11 W3 1.913793 1_555
O11 W1 2.044892 1_655
O12 W1 1.770319 1_555
O13 W0 1.770319 1_555
O14 W2 1.913793 1_565
O14 W0 2.044892 1_655
O15 W1 1.913793 1_545
O15 W3 2.044892 1_455
