# generated using pymatgen
data_NbSn2
_symmetry_space_group_name_H-M   'P 1'
_cell_length_a   5.69847959
_cell_length_b   5.72465246
_cell_length_c   10.02023004
_cell_angle_alpha   81.86394816
_cell_angle_beta   73.48007947
_cell_angle_gamma   60.15113332
_symmetry_Int_Tables_number   1
_chemical_formula_structural   NbSn2
_chemical_formula_sum   'Nb4 Sn8'
_cell_volume   271.81163289
_cell_formula_units_Z   4
loop_
 _symmetry_equiv_pos_site_id
 _symmetry_equiv_pos_as_xyz
  1  'x, y, z'
loop_
 _atom_site_type_symbol
 _atom_site_label
 _atom_site_symmetry_multiplicity
 _atom_site_fract_x
 _atom_site_fract_y
 _atom_site_fract_z
 _atom_site_occupancy
  Nb  Nb0  1  0.00190591  0.25000000  0.99618819  1
  Nb  Nb1  1  0.74809409  0.25000000  0.50381181  1
  Nb  Nb2  1  0.99809409  0.75000000  0.00381181  1
  Nb  Nb3  1  0.25190591  0.75000000  0.49618819  1
  Sn  Sn0  1  0.04316711  0.91366678  0.25000000  1
  Sn  Sn1  1  0.70683289  0.58633322  0.25000000  1
  Sn  Sn2  1  0.95683289  0.08633322  0.75000000  1
  Sn  Sn3  1  0.29316711  0.41366678  0.75000000  1
  Sn  Sn4  1  0.29207511  0.25000000  0.41585078  1
  Sn  Sn5  1  0.45792489  0.25000000  0.08414922  1
  Sn  Sn6  1  0.70792489  0.75000000  0.58414922  1
  Sn  Sn7  1  0.54207511  0.75000000  0.91585078  1
loop_
_geom_bond_atom_site_label_1
_geom_bond_atom_site_label_2
_geom_bond_distance
_geom_bond_site_symmetry_2
Nb0 Nb2 2.863263 1_456
Nb0 Nb2 2.863263 1_446
Nb0 Sn2 2.878075 1_455
Nb0 Sn3 2.878075 1_555
Nb0 Sn1 2.955327 1_456
Nb0 Sn0 2.955328 1_546
Nb0 Sn7 2.964546 1_455
Nb0 Sn7 2.964549 1_545
Nb0 Sn5 2.971900 1_556
Nb0 Sn5 2.971905 1_456
Nb1 Nb3 2.863263 1_555
Nb1 Nb3 2.863263 1_645
Nb1 Sn3 2.878072 1_555
Nb1 Sn2 2.878073 1_555
Nb1 Sn0 2.955327 1_645
Nb1 Sn1 2.955328 1_555
Nb1 Sn6 2.964546 1_555
Nb1 Sn6 2.964549 1_545
Nb1 Sn4 2.971900 1_555
Nb1 Sn4 2.971905 1_655
Nb2 Sn0 2.878075 1_655
Nb2 Sn1 2.878075 1_555
Nb2 Sn3 2.955327 1_654
Nb2 Sn2 2.955328 1_564
Nb2 Sn5 2.964546 1_655
Nb2 Sn5 2.964549 1_565
Nb2 Sn7 2.971900 1_554
Nb2 Sn7 2.971905 1_654
Nb3 Sn1 2.878072 1_555
Nb3 Sn0 2.878073 1_555
Nb3 Sn2 2.955327 1_465
Nb3 Sn3 2.955328 1_555
Nb3 Sn4 2.964546 1_555
Nb3 Sn4 2.964549 1_565
Nb3 Sn6 2.971900 1_555
Nb3 Sn6 2.971905 1_455
