# generated using pymatgen
data_Ca2Sn3O8
_symmetry_space_group_name_H-M   'P 1'
_cell_length_a   6.48343799
_cell_length_b   6.48343799
_cell_length_c   10.53257800
_cell_angle_alpha   90.00000000
_cell_angle_beta   90.00000000
_cell_angle_gamma   119.99999990
_symmetry_Int_Tables_number   1
_chemical_formula_structural   Ca2Sn3O8
_chemical_formula_sum   'Ca4 Sn6 O16'
_cell_volume   383.42112669
_cell_formula_units_Z   2
loop_
 _symmetry_equiv_pos_site_id
 _symmetry_equiv_pos_as_xyz
  1  'x, y, z'
loop_
 _atom_site_type_symbol
 _atom_site_label
 _atom_site_symmetry_multiplicity
 _atom_site_fract_x
 _atom_site_fract_y
 _atom_site_fract_z
 _atom_site_occupancy
  Ca  Ca0  1  0.66666700  0.33333300  0.03072300  1
  Ca  Ca1  1  0.33333300  0.66666700  0.53072300  1
  Ca  Ca2  1  0.66666700  0.33333300  0.40871900  1
  Ca  Ca3  1  0.33333300  0.66666700  0.90871900  1
  Sn  Sn0  1  0.67059700  0.83529800  0.24564200  1
  Sn  Sn1  1  0.83529800  0.16470200  0.74564200  1
  Sn  Sn2  1  0.16470200  0.32940300  0.24564200  1
  Sn  Sn3  1  0.83529800  0.67059700  0.74564200  1
  Sn  Sn4  1  0.32940300  0.16470200  0.74564200  1
  Sn  Sn5  1  0.16470200  0.83529800  0.24564200  1
  O  O0  1  0.83701800  0.16298200  0.15401400  1
  O  O1  1  0.67403600  0.83701800  0.65401400  1
  O  O2  1  0.16298200  0.32596400  0.65401400  1
  O  O3  1  0.83701800  0.67403600  0.15401400  1
  O  O4  1  0.32596400  0.16298200  0.15401400  1
  O  O5  1  0.16298200  0.83701800  0.65401400  1
  O  O6  1  0.52412900  0.47587100  0.85648400  1
  O  O7  1  0.04825800  0.52412900  0.35648400  1
  O  O8  1  0.47587100  0.95174200  0.35648400  1
  O  O9  1  0.52412900  0.04825800  0.85648400  1
  O  O10  1  0.00000000  0.00000000  0.35024400  1
  O  O11  1  0.00000000  0.00000000  0.85024400  1
  O  O12  1  0.33333300  0.66666700  0.13539700  1
  O  O13  1  0.95174200  0.47587100  0.85648400  1
  O  O14  1  0.47587100  0.52412900  0.35648400  1
  O  O15  1  0.66666700  0.33333300  0.63539700  1
loop_
_geom_bond_atom_site_label_1
_geom_bond_atom_site_label_2
_geom_bond_distance
_geom_bond_site_symmetry_2
Ca0 O0 2.312096 1_555
Ca0 O3 2.312100 1_555
Ca0 O4 2.312100 1_555
Ca0 O13 2.435154 1_554
Ca0 O9 2.435154 1_554
Ca0 O6 2.435157 1_554
Ca1 O5 2.312096 1_555
Ca1 O2 2.312100 1_555
Ca1 O1 2.312100 1_555
Ca1 O8 2.435154 1_555
Ca1 O7 2.435154 1_555
Ca1 O14 2.435157 1_555
Ca2 O7 2.212074 1_655
Ca2 O8 2.212074 1_545
Ca2 O14 2.212080 1_555
Ca2 O15 2.387504 1_555
Ca3 O9 2.212074 1_565
Ca3 O13 2.212074 1_455
Ca3 O6 2.212080 1_555
Ca3 O12 2.387504 1_556
O0 Sn0 2.077701 1_545
O0 Sn2 2.077701 1_655
O1 Sn3 2.077696 1_555
O1 Sn1 2.077701 1_565
O2 Sn4 2.077696 1_555
O2 Sn1 2.077701 1_455
O3 Sn0 2.077696 1_555
O3 Sn5 2.077701 1_655
O4 Sn2 2.077696 1_555
O4 Sn5 2.077701 1_545
O5 Sn3 2.077701 1_455
O5 Sn4 2.077701 1_565
O6 Sn4 2.116579 1_555
O6 Sn3 2.116579 1_555
O7 Sn5 2.116578 1_555
O7 Sn2 2.116583 1_555
O8 Sn5 2.116578 1_555
O8 Sn0 2.116583 1_555
O9 Sn1 2.116578 1_555
O9 Sn4 2.116583 1_555
O10 Sn0 2.152812 1_445
O10 Sn2 2.152812 1_555
O10 Sn5 2.152817 1_545
O11 Sn4 2.152812 1_555
O11 Sn3 2.152812 1_445
O11 Sn1 2.152817 1_455
O12 Sn5 2.221322 1_555
O12 Sn2 2.221332 1_555
O12 Sn0 2.221332 1_555
O13 Sn1 2.116578 1_555
O13 Sn3 2.116583 1_555
O14 Sn0 2.116579 1_555
O14 Sn2 2.116579 1_555
O15 Sn1 2.221322 1_555
O15 Sn3 2.221332 1_555
O15 Sn4 2.221332 1_555
