# generated using pymatgen
data_Li9Mn2Co5O16
_symmetry_space_group_name_H-M   'P 1'
_cell_length_a   5.80188900
_cell_length_b   6.65005805
_cell_length_c   7.76415812
_cell_angle_alpha   89.85895379
_cell_angle_beta   100.28377205
_cell_angle_gamma   102.80100396
_symmetry_Int_Tables_number   1
_chemical_formula_structural   Li9Mn2Co5O16
_chemical_formula_sum   'Li9 Mn2 Co5 O16'
_cell_volume   287.21065277
_cell_formula_units_Z   1
loop_
 _symmetry_equiv_pos_site_id
 _symmetry_equiv_pos_as_xyz
  1  'x, y, z'
loop_
 _atom_site_type_symbol
 _atom_site_label
 _atom_site_symmetry_multiplicity
 _atom_site_fract_x
 _atom_site_fract_y
 _atom_site_fract_z
 _atom_site_occupancy
  Li  Li0  1  0.37873000  0.37874300  0.13415000  1
  Li  Li1  1  0.62233800  0.12448400  0.37839100  1
  Li  Li2  1  0.62439000  0.62892400  0.87288400  1
  Li  Li3  1  0.88169800  0.38275000  0.13540500  1
  Li  Li4  1  0.86837800  0.86919800  0.61753500  1
  Li  Li5  1  0.12467800  0.62379700  0.87504100  1
  Li  Li6  1  0.12680200  0.12344600  0.37945200  1
  Li  Li7  1  0.37121500  0.86722700  0.60962600  1
  Li  Li8  1  0.25252100  0.74800800  0.25080100  1
  Mn  Mn0  1  0.00333300  0.99880000  0.00431900  1
  Mn  Mn1  1  0.50199800  0.99845800  0.00428100  1
  Co  Co0  1  0.49135000  0.50415500  0.49193800  1
  Co  Co1  1  0.75367300  0.25390600  0.74440600  1
  Co  Co2  1  0.74790600  0.74771500  0.25175300  1
  Co  Co3  1  0.99894700  0.51273300  0.49100600  1
  Co  Co4  1  0.25649300  0.25816600  0.74427100  1
  O  O0  1  0.30576200  0.05845700  0.16496900  1
  O  O1  1  0.57467700  0.80031800  0.42698000  1
  O  O2  1  0.56413600  0.28895500  0.92922800  1
  O  O3  1  0.80801700  0.06547700  0.16524400  1
  O  O4  1  0.79380100  0.54752600  0.67997500  1
  O  O5  1  0.06712300  0.29092800  0.92888700  1
  O  O6  1  0.04202900  0.79287800  0.43191700  1
  O  O7  1  0.30367200  0.55442600  0.68399900  1
  O  O8  1  0.46155000  0.71750600  0.06955000  1
  O  O9  1  0.68835000  0.43576000  0.31735300  1
  O  O10  1  0.69929500  0.95107300  0.83310500  1
  O  O11  1  0.93281400  0.71769900  0.07141300  1
  O  O12  1  0.93278600  0.19917500  0.57241100  1
  O  O13  1  0.19661700  0.94287700  0.83713100  1
  O  O14  1  0.19822100  0.43325400  0.32663600  1
  O  O15  1  0.42670100  0.18317900  0.57594300  1
loop_
_geom_bond_atom_site_label_1
_geom_bond_atom_site_label_2
_geom_bond_distance
_geom_bond_site_symmetry_2
Li0 O9 2.045121 1_555
Li0 O14 2.047309 1_555
Li0 O0 2.099317 1_555
Li0 O5 2.158105 1_554
Li0 O2 2.223843 1_554
Li0 O8 2.271198 1_555
Li1 O9 2.089222 1_555
Li1 O12 2.097304 1_555
Li1 O15 2.148077 1_555
Li1 O1 2.152908 1_545
Li1 O0 2.207194 1_555
Li1 O3 2.209144 1_555
Li2 O4 2.065873 1_555
Li2 O8 2.082623 1_556
Li2 O11 2.116150 1_556
Li2 O7 2.116449 1_555
Li2 O10 2.122698 1_555
Li2 O2 2.263707 1_555
Li3 O9 2.030226 1_555
Li3 O3 2.078774 1_555
Li3 O14 2.108402 1_655
Li3 O2 2.188340 1_554
Li3 O5 2.238991 1_654
Li3 O11 2.247374 1_555
Li4 O1 2.014876 1_555
Li4 O6 2.024410 1_655
Li4 O4 2.158191 1_555
Li4 O12 2.181105 1_565
Li4 O10 2.210785 1_555
Li4 O13 2.281466 1_655
Li5 O7 2.063270 1_555
Li5 O13 2.100390 1_555
Li5 O4 2.184158 1_455
Li5 O11 2.207352 1_456
Li5 O8 2.213619 1_556
Li5 O5 2.214507 1_555
Li6 O15 2.064380 1_555
Li6 O14 2.064622 1_555
Li6 O12 2.149947 1_455
Li6 O6 2.197351 1_545
Li6 O0 2.204035 1_555
Li6 O3 2.219102 1_455
Li7 O15 2.077082 1_565
Li7 O1 2.106186 1_555
Li7 O6 2.107115 1_555
Li7 O7 2.127832 1_555
Li7 O13 2.295310 1_555
Li7 O10 2.302175 1_555
Li8 O8 2.052340 1_555
Li8 O1 2.070518 1_555
Li8 O11 2.081935 1_455
Li8 O6 2.081980 1_555
Li8 O0 2.141456 1_565
Li8 O14 2.143615 1_555
Mn0 O11 1.914569 1_455
Mn0 O0 1.924717 1_565
Mn0 O3 1.942368 1_465
Mn0 O13 1.946225 1_554
Mn0 O10 1.973896 1_454
Mn0 O5 2.001781 1_564
Mn1 O8 1.909478 1_555
Mn1 O0 1.929486 1_565
Mn1 O3 1.942340 1_565
Mn1 O13 1.962460 1_554
Mn1 O10 1.970040 1_554
Mn1 O2 1.990558 1_564
Co0 O14 1.905307 1_555
Co0 O1 2.006803 1_555
Co0 O9 2.034018 1_555
Co0 O4 2.038871 1_555
Co0 O7 2.065091 1_555
Co0 O15 2.201802 1_555
Co1 O12 1.913416 1_555
Co1 O4 1.988063 1_555
Co1 O2 2.000361 1_555
Co1 O15 2.062167 1_555
Co1 O5 2.071907 1_655
Co1 O10 2.102053 1_545
Co2 O1 1.905202 1_555
Co2 O11 1.945227 1_555
Co2 O8 1.953509 1_555
Co2 O6 1.970180 1_655
Co2 O9 2.102957 1_555
Co2 O3 2.188193 1_565
Co3 O6 1.890512 1_655
Co3 O14 2.011387 1_655
Co3 O9 2.013547 1_555
Co3 O7 2.070472 1_655
Co3 O4 2.090464 1_555
Co3 O12 2.149475 1_555
Co4 O15 1.901099 1_555
Co4 O7 1.994396 1_555
Co4 O5 1.994776 1_555
Co4 O2 2.052887 1_555
Co4 O12 2.059853 1_455
Co4 O13 2.189937 1_545
