# generated using pymatgen
data_CaCo4O9
_symmetry_space_group_name_H-M   'P 1'
_cell_length_a   8.26876600
_cell_length_b   8.26876600
_cell_length_c   5.19515200
_cell_angle_alpha   90.00000000
_cell_angle_beta   90.00000000
_cell_angle_gamma   90.00000000
_symmetry_Int_Tables_number   1
_chemical_formula_structural   CaCo4O9
_chemical_formula_sum   'Ca2 Co8 O18'
_cell_volume   355.20548421
_cell_formula_units_Z   2
loop_
 _symmetry_equiv_pos_site_id
 _symmetry_equiv_pos_as_xyz
  1  'x, y, z'
loop_
 _atom_site_type_symbol
 _atom_site_label
 _atom_site_symmetry_multiplicity
 _atom_site_fract_x
 _atom_site_fract_y
 _atom_site_fract_z
 _atom_site_occupancy
  Ca  Ca0  1  0.00000000  0.50000000  0.86223900  1
  Ca  Ca1  1  0.50000000  0.00000000  0.13776100  1
  Co  Co0  1  0.71438600  0.41161600  0.39175200  1
  Co  Co1  1  0.41161600  0.28561400  0.60824800  1
  Co  Co2  1  0.91161600  0.78561400  0.39175200  1
  Co  Co3  1  0.21438600  0.91161600  0.60824800  1
  Co  Co4  1  0.28561400  0.58838400  0.39175200  1
  Co  Co5  1  0.08838400  0.21438600  0.39175200  1
  Co  Co6  1  0.78561400  0.08838400  0.60824800  1
  Co  Co7  1  0.58838400  0.71438600  0.60824800  1
  O  O0  1  0.50000000  0.50000000  0.50000000  1
  O  O1  1  0.00000000  0.00000000  0.50000000  1
  O  O2  1  0.57228700  0.75608400  0.91760800  1
  O  O3  1  0.74391600  0.07228700  0.91760800  1
  O  O4  1  0.25608400  0.92771300  0.91760800  1
  O  O5  1  0.42771300  0.24391600  0.91760800  1
  O  O6  1  0.92771300  0.74391600  0.08239200  1
  O  O7  1  0.75608400  0.42771300  0.08239200  1
  O  O8  1  0.24391600  0.57228700  0.08239200  1
  O  O9  1  0.07228700  0.25608400  0.08239200  1
  O  O10  1  0.21022900  0.39448600  0.55205600  1
  O  O11  1  0.10551400  0.71022900  0.55205600  1
  O  O12  1  0.89448600  0.28977100  0.55205600  1
  O  O13  1  0.78977100  0.60551400  0.55205600  1
  O  O14  1  0.71022900  0.89448600  0.44794400  1
  O  O15  1  0.39448600  0.78977100  0.44794400  1
  O  O16  1  0.60551400  0.21022900  0.44794400  1
  O  O17  1  0.28977100  0.10551400  0.44794400  1
loop_
_geom_bond_atom_site_label_1
_geom_bond_atom_site_label_2
_geom_bond_distance
_geom_bond_site_symmetry_2
Ca0 O8 2.394412 1_556
Ca0 O7 2.394412 1_456
Ca0 O6 2.394412 1_456
Ca0 O9 2.394412 1_556
Ca0 O10 2.525822 1_555
Ca0 O12 2.525822 1_455
Ca0 O11 2.525822 1_555
Ca0 O13 2.525822 1_455
Ca1 O5 2.394412 1_554
Ca1 O4 2.394412 1_544
Ca1 O3 2.394412 1_554
Ca1 O2 2.394412 1_544
Ca1 O17 2.525822 1_555
Ca1 O16 2.525822 1_555
Ca1 O14 2.525822 1_545
Ca1 O15 2.525822 1_545
Co0 O7 1.649121 1_555
Co0 O13 1.911198 1_555
Co0 O16 1.915362 1_555
Co0 O12 1.981506 1_555
Co0 O0 1.998213 1_555
Co1 O5 1.649121 1_555
Co1 O16 1.911198 1_555
Co1 O10 1.915362 1_555
Co1 O17 1.981506 1_555
Co1 O0 1.998213 1_555
Co2 O6 1.649121 1_555
Co2 O11 1.911198 1_655
Co2 O14 1.915362 1_555
Co2 O13 1.981506 1_555
Co2 O1 1.998213 1_665
Co3 O4 1.649121 1_555
Co3 O17 1.911198 1_565
Co3 O11 1.915362 1_555
Co3 O15 1.981506 1_555
Co3 O1 1.998213 1_565
Co4 O8 1.649121 1_555
Co4 O10 1.911198 1_555
Co4 O15 1.915362 1_555
Co4 O11 1.981506 1_555
Co4 O0 1.998213 1_555
Co5 O9 1.649121 1_555
Co5 O12 1.911198 1_455
Co5 O17 1.915362 1_555
Co5 O10 1.981506 1_555
Co5 O1 1.998213 1_555
Co6 O3 1.649121 1_555
Co6 O14 1.911198 1_545
Co6 O12 1.915362 1_555
Co6 O16 1.981506 1_555
Co6 O1 1.998213 1_655
Co7 O2 1.649121 1_555
Co7 O15 1.911198 1_555
Co7 O13 1.915362 1_555
Co7 O14 1.981506 1_555
Co7 O0 1.998213 1_555
