# generated using pymatgen
data_LiVPO4F
_symmetry_space_group_name_H-M   'P 1'
_cell_length_a   6.40972668
_cell_length_b   10.70009764
_cell_length_c   12.91335872
_cell_angle_alpha   89.96919230
_cell_angle_beta   89.94000981
_cell_angle_gamma   89.98248997
_symmetry_Int_Tables_number   1
_chemical_formula_structural   LiVPO4F
_chemical_formula_sum   'Li8 V8 P8 O32 F8'
_cell_volume   885.65819566
_cell_formula_units_Z   8
loop_
 _symmetry_equiv_pos_site_id
 _symmetry_equiv_pos_as_xyz
  1  'x, y, z'
loop_
 _atom_site_type_symbol
 _atom_site_label
 _atom_site_symmetry_multiplicity
 _atom_site_fract_x
 _atom_site_fract_y
 _atom_site_fract_z
 _atom_site_occupancy
  Li  Li0  1  0.75225629  0.26180397  0.74880796  1
  Li  Li1  1  0.75150562  0.25974509  0.24960932  1
  Li  Li2  1  0.25923563  0.76676037  0.75133856  1
  Li  Li3  1  0.24769132  0.76141578  0.25192732  1
  Li  Li4  1  0.49854753  0.51092585  0.39337650  1
  Li  Li5  1  0.00329380  0.01029193  0.10576807  1
  Li  Li6  1  0.99745336  0.51041868  0.89335511  1
  Li  Li7  1  0.50371989  0.01158394  0.60547639  1
  V  V0  1  0.49886882  0.01143111  0.38273496  1
  V  V1  1  0.50137133  0.51195163  0.61651342  1
  V  V2  1  0.00182475  0.01097428  0.88276321  1
  V  V3  1  0.99918709  0.51115281  0.11624823  1
  V  V4  1  0.24997768  0.26140716  0.24957386  1
  V  V5  1  0.75315443  0.76144032  0.74897601  1
  V  V6  1  0.25115089  0.26150862  0.74966424  1
  V  V7  1  0.74880440  0.76136058  0.24899411  1
  P  P0  1  0.34335772  0.26143938  0.49960165  1
  P  P1  1  0.65801779  0.76141954  0.49925415  1
  P  P2  1  0.15702880  0.26105627  0.99966907  1
  P  P3  1  0.84362408  0.76146324  0.99920511  1
  P  P4  1  0.49903549  0.51134680  0.18383884  1
  P  P5  1  0.50261552  0.01188858  0.81492780  1
  P  P6  1  0.00026169  0.51069696  0.68410810  1
  P  P7  1  0.99950727  0.01085163  0.31499293  1
  O  O0  1  0.48394475  0.14174854  0.49552493  1
  O  O1  1  0.51773449  0.64170000  0.50335627  1
  O  O2  1  0.01744515  0.14128528  0.99606274  1
  O  O3  1  0.98311437  0.64154682  0.00297184  1
  O  O4  1  0.48436078  0.38039583  0.50331044  1
  O  O5  1  0.51615533  0.88027030  0.49588681  1
  O  O6  1  0.01491100  0.37988100  0.00350032  1
  O  O7  1  0.98592063  0.88014663  0.99565273  1
  O  O8  1  0.20682426  0.27081988  0.40132032  1
  O  O9  1  0.79527682  0.77100350  0.59718492  1
  O  O10  1  0.29332709  0.27103916  0.90130978  1
  O  O11  1  0.70660055  0.77139569  0.09738332  1
  O  O12  1  0.20753300  0.25143799  0.59810900  1
  O  O13  1  0.79326985  0.75183887  0.40054407  1
  O  O14  1  0.29342012  0.25173732  0.09800629  1
  O  O15  1  0.70793243  0.75285759  0.90066178  1
  O  O16  1  0.30549101  0.52727367  0.11691831  1
  O  O17  1  0.69562848  0.02790550  0.88201217  1
  O  O18  1  0.19479442  0.52717640  0.61789352  1
  O  O19  1  0.80535412  0.02723867  0.38152079  1
  O  O20  1  0.69283626  0.49506921  0.11702437  1
  O  O21  1  0.30849643  0.99459730  0.88131516  1
  O  O22  1  0.80749660  0.49357602  0.61667606  1
  O  O23  1  0.19261639  0.99368332  0.38214708  1
  O  O24  1  0.51839777  0.62677362  0.25947724  1
  O  O25  1  0.48284326  0.12737050  0.73937482  1
  O  O26  1  0.97870339  0.62542220  0.76009096  1
  O  O27  1  0.02039894  0.12632819  0.23949418  1
  O  O28  1  0.47934762  0.39622264  0.25982260  1
  O  O29  1  0.52318324  0.89690613  0.73877043  1
  O  O30  1  0.01951486  0.39518330  0.75977548  1
  O  O31  1  0.97982160  0.89590184  0.23899858  1
  F  F0  1  0.49620066  0.87674371  0.26926595  1
  F  F1  1  0.50298927  0.37774414  0.73028921  1
  F  F2  1  0.00613013  0.87656257  0.76876258  1
  F  F3  1  0.99672205  0.37649902  0.22981737  1
  F  F4  1  0.50217513  0.14584261  0.26904261  1
  F  F5  1  0.49976748  0.64711532  0.72979128  1
  F  F6  1  0.99938948  0.14536740  0.76921462  1
  F  F7  1  0.00143957  0.64595781  0.22969615  1
loop_
_geom_bond_atom_site_label_1
_geom_bond_atom_site_label_2
_geom_bond_distance
_geom_bond_site_symmetry_2
Li0 O30 2.234648 1_655
Li0 O25 2.251263 1_555
Li1 O27 2.241388 1_655
Li1 O28 2.278430 1_555
Li2 O29 2.197388 1_555
Li2 O26 2.352502 1_455
Li3 O31 2.246210 1_455
Li3 O24 2.257103 1_555
Li4 O4 1.992983 1_555
Li4 O1 1.998188 1_555
Li4 O28 2.121004 1_555
Li4 O24 2.130688 1_555
Li5 O7 1.994033 1_444
Li5 O2 1.994351 1_554
Li5 O31 2.116138 1_445
Li5 O27 2.130351 1_555
Li6 O3 1.995639 1_556
Li6 O6 1.996157 1_656
Li6 O26 2.118541 1_555
Li6 O30 2.125446 1_655
Li7 O0 1.992481 1_555
Li7 O5 1.996274 1_545
Li7 O29 2.117101 1_545
Li7 O25 2.131731 1_555
O0 P0 1.566610 1_555
O0 V0 2.019090 1_555
O1 P1 1.566157 1_555
O1 V1 2.017731 1_555
O2 P2 1.563936 1_555
O2 V2 2.024201 1_555
O3 P3 1.564444 1_554
O3 V3 2.023618 1_555
O4 P0 1.562091 1_555
O4 V1 2.032974 1_555
O5 P1 1.563743 1_555
O5 V0 2.028536 1_565
O6 P2 1.564630 1_554
O6 V3 2.026012 1_455
O7 P3 1.564373 1_555
O7 V2 2.023051 1_665
O8 P0 1.545576 1_555
O8 V4 1.981306 1_555
O9 P1 1.544774 1_555
O9 V5 1.980954 1_555
O10 P2 1.544511 1_555
O10 V6 1.979792 1_555
O11 P3 1.545243 1_554
O11 V7 1.979538 1_555
O12 P0 1.544385 1_555
O12 V6 1.980242 1_555
O13 P1 1.544232 1_555
O13 V7 1.980523 1_555
O14 P2 1.545611 1_554
O14 V4 1.979423 1_555
O15 P3 1.544911 1_555
O15 V5 1.981887 1_555
O16 P4 1.522102 1_555
O16 V3 1.970968 1_455
O17 P5 1.520829 1_555
O17 V2 1.970956 1_655
O18 P6 1.521417 1_555
O18 V1 1.971828 1_555
O19 P7 1.521607 1_555
O19 V0 1.971852 1_555
O20 P4 1.521719 1_555
O20 V3 1.971219 1_555
O21 P5 1.521533 1_565
O21 V2 1.973494 1_565
O22 P6 1.523486 1_655
O22 V1 1.971949 1_555
O23 P7 1.523084 1_465
O23 V0 1.972239 1_565
O24 P4 1.580031 1_555
O24 V7 2.067349 1_555
O25 P5 1.579140 1_555
O25 V6 2.069222 1_555
O26 P6 1.577870 1_655
O26 V5 2.056163 1_555
O27 P7 1.579149 1_455
O27 V4 2.067203 1_555
O28 P4 1.579447 1_555
O28 V4 2.064419 1_555
O29 P5 1.580878 1_565
O29 V5 2.071265 1_555
O30 P6 1.580053 1_555
O30 V6 2.065381 1_555
O31 P7 1.579064 1_565
O31 V7 2.069412 1_555
F0 Li3 2.027915 1_555
F0 V7 2.052458 1_555
F0 V0 2.055870 1_565
F1 Li0 2.036719 1_555
F1 V6 2.053096 1_555
F1 V1 2.053943 1_555
F2 Li2 2.015275 1_555
F2 V5 2.052893 1_455
F2 V2 2.058779 1_565
F3 Li1 2.023980 1_555
F3 V4 2.053308 1_655
F3 V3 2.055400 1_555
F4 Li1 2.025449 1_555
F4 V4 2.050533 1_555
F4 V0 2.054766 1_555
F5 Li2 2.022775 1_555
F5 V5 2.048909 1_555
F5 V1 2.057620 1_555
F6 Li0 2.032293 1_555
F6 V6 2.052372 1_655
F6 V2 2.053272 1_655
F7 Li3 2.025474 1_555
F7 V7 2.051183 1_455
F7 V3 2.056536 1_455
