# generated using pymatgen
data_Tb2MgS4
_symmetry_space_group_name_H-M   'P 1'
_cell_length_a   13.59283400
_cell_length_b   7.94671200
_cell_length_c   6.54944600
_cell_angle_alpha   90.00000000
_cell_angle_beta   90.00000000
_cell_angle_gamma   90.00000000
_symmetry_Int_Tables_number   1
_chemical_formula_structural   Tb2MgS4
_chemical_formula_sum   'Tb8 Mg4 S16'
_cell_volume   707.46026560
_cell_formula_units_Z   4
loop_
 _symmetry_equiv_pos_site_id
 _symmetry_equiv_pos_as_xyz
  1  'x, y, z'
loop_
 _atom_site_type_symbol
 _atom_site_label
 _atom_site_symmetry_multiplicity
 _atom_site_fract_x
 _atom_site_fract_y
 _atom_site_fract_z
 _atom_site_occupancy
  Tb  Tb0  1  0.00000000  0.00000000  0.50000000  1
  Tb  Tb1  1  0.50000000  0.00000000  0.00000000  1
  Tb  Tb2  1  0.50000000  0.50000000  0.00000000  1
  Tb  Tb3  1  0.00000000  0.50000000  0.50000000  1
  Tb  Tb4  1  0.23205700  0.75000000  0.99892600  1
  Tb  Tb5  1  0.76794300  0.25000000  0.00107400  1
  Tb  Tb6  1  0.26794300  0.25000000  0.49892600  1
  Tb  Tb7  1  0.73205700  0.75000000  0.50107400  1
  Mg  Mg0  1  0.09341200  0.25000000  0.92240500  1
  Mg  Mg1  1  0.90658800  0.75000000  0.07759500  1
  Mg  Mg2  1  0.40658800  0.75000000  0.42240500  1
  Mg  Mg3  1  0.59341200  0.25000000  0.57759500  1
  S  S0  1  0.16865500  0.01041500  0.74212000  1
  S  S1  1  0.83134500  0.98958500  0.25788000  1
  S  S2  1  0.33134500  0.98958500  0.24212000  1
  S  S3  1  0.66865500  0.01041500  0.75788000  1
  S  S4  1  0.66865500  0.48958500  0.75788000  1
  S  S5  1  0.33134500  0.51041500  0.24212000  1
  S  S6  1  0.83134500  0.51041500  0.25788000  1
  S  S7  1  0.16865500  0.48958500  0.74212000  1
  S  S8  1  0.06996800  0.75000000  0.24686600  1
  S  S9  1  0.93003200  0.25000000  0.75313400  1
  S  S10  1  0.43003200  0.25000000  0.74686600  1
  S  S11  1  0.56996800  0.75000000  0.25313400  1
  S  S12  1  0.09161600  0.25000000  0.28915200  1
  S  S13  1  0.90838400  0.75000000  0.71084800  1
  S  S14  1  0.40838400  0.75000000  0.78915200  1
  S  S15  1  0.59161600  0.25000000  0.21084800  1
loop_
_geom_bond_atom_site_label_1
_geom_bond_atom_site_label_2
_geom_bond_distance
_geom_bond_site_symmetry_2
Mg0 S12 2.402114 1_556
Mg0 S7 2.462751 1_555
Mg0 S0 2.462751 1_555
Mg0 S9 2.482137 1_455
Mg1 S13 2.402114 1_554
Mg1 S1 2.462751 1_555
Mg1 S6 2.462751 1_555
Mg1 S8 2.482137 1_655
Mg2 S14 2.402114 1_555
Mg2 S2 2.462751 1_555
Mg2 S5 2.462751 1_555
Mg2 S11 2.482137 1_555
Mg3 S15 2.402114 1_555
Mg3 S4 2.462751 1_555
Mg3 S3 2.462751 1_555
Mg3 S10 2.482137 1_555
S0 Tb0 2.788730 1_555
S0 Tb4 2.802540 1_545
S0 Tb6 2.825471 1_555
S1 Tb0 2.788730 1_665
S1 Tb5 2.802540 1_565
S1 Tb7 2.825471 1_555
S2 Tb1 2.788730 1_565
S2 Tb6 2.802540 1_565
S2 Tb4 2.825471 1_554
S3 Tb1 2.788730 1_556
S3 Tb7 2.802540 1_545
S3 Tb5 2.825471 1_556
S4 Tb2 2.788730 1_556
S4 Tb7 2.802540 1_555
S4 Tb5 2.825471 1_556
S5 Tb2 2.788730 1_555
S5 Tb6 2.802540 1_555
S5 Tb4 2.825471 1_554
S6 Tb3 2.788730 1_655
S6 Tb5 2.802540 1_555
S6 Tb7 2.825471 1_555
S7 Tb3 2.788730 1_555
S7 Tb4 2.802540 1_555
S7 Tb6 2.825471 1_555
S8 Tb4 2.737016 1_554
S8 Tb3 2.756810 1_555
S8 Tb0 2.756810 1_565
S9 Tb5 2.737016 1_556
S9 Tb0 2.756810 1_655
S9 Tb3 2.756810 1_655
S10 Tb6 2.737016 1_555
S10 Tb2 2.756810 1_556
S10 Tb1 2.756810 1_556
S11 Tb7 2.737016 1_555
S11 Tb2 2.756810 1_555
S11 Tb1 2.756810 1_565
S12 Tb0 2.721158 1_555
S12 Tb3 2.721158 1_555
S12 Tb6 2.762641 1_555
S13 Tb3 2.721158 1_655
S13 Tb0 2.721158 1_665
S13 Tb7 2.762641 1_555
S14 Tb2 2.721158 1_556
S14 Tb1 2.721158 1_566
S14 Tb4 2.762641 1_555
S15 Tb2 2.721158 1_555
S15 Tb1 2.721158 1_555
S15 Tb5 2.762641 1_555
