# generated using pymatgen
data_U3Co3Sb4
_symmetry_space_group_name_H-M   'P 1'
_cell_length_a   8.06923154
_cell_length_b   8.06923154
_cell_length_c   8.06923154
_cell_angle_alpha   109.47122063
_cell_angle_beta   109.47122063
_cell_angle_gamma   109.47122063
_symmetry_Int_Tables_number   1
_chemical_formula_structural   U3Co3Sb4
_chemical_formula_sum   'U6 Co6 Sb8'
_cell_volume   404.45912769
_cell_formula_units_Z   2
loop_
 _symmetry_equiv_pos_site_id
 _symmetry_equiv_pos_as_xyz
  1  'x, y, z'
loop_
 _atom_site_type_symbol
 _atom_site_label
 _atom_site_symmetry_multiplicity
 _atom_site_fract_x
 _atom_site_fract_y
 _atom_site_fract_z
 _atom_site_occupancy
  U  U0  1  0.87500000  0.25000000  0.12500000  1
  U  U1  1  0.62500000  0.75000000  0.37500000  1
  U  U2  1  0.25000000  0.12500000  0.87500000  1
  U  U3  1  0.75000000  0.37500000  0.62500000  1
  U  U4  1  0.12500000  0.87500000  0.25000000  1
  U  U5  1  0.37500000  0.62500000  0.75000000  1
  Co  Co0  1  0.37500000  0.25000000  0.62500000  1
  Co  Co1  1  0.12500000  0.75000000  0.87500000  1
  Co  Co2  1  0.25000000  0.62500000  0.37500000  1
  Co  Co3  1  0.75000000  0.87500000  0.12500000  1
  Co  Co4  1  0.62500000  0.37500000  0.25000000  1
  Co  Co5  1  0.87500000  0.12500000  0.75000000  1
  Sb  Sb0  1  0.66637500  0.50000000  0.00000000  1
  Sb  Sb1  1  0.50000000  0.00000000  0.66637500  1
  Sb  Sb2  1  0.00000000  0.66637500  0.50000000  1
  Sb  Sb3  1  0.83362500  0.83362500  0.83362500  1
  Sb  Sb4  1  0.50000000  0.00000000  0.16637500  1
  Sb  Sb5  1  0.16637500  0.50000000  0.00000000  1
  Sb  Sb6  1  0.00000000  0.16637500  0.50000000  1
  Sb  Sb7  1  0.33362500  0.33362500  0.33362500  1
loop_
_geom_bond_atom_site_label_1
_geom_bond_atom_site_label_2
_geom_bond_distance
_geom_bond_site_symmetry_2
Co0 Sb0 2.603727 1_556
Co0 Sb1 2.603727 1_555
Co0 Sb6 2.603727 1_555
Co0 Sb7 2.603727 1_555
Co0 U3 2.852904 1_555
Co0 U2 2.852904 1_555
Co0 U4 2.852904 1_545
Co0 U5 2.852904 1_555
Co1 Sb2 2.603727 1_555
Co1 Sb5 2.603727 1_556
Co1 Sb4 2.603727 1_566
Co1 Sb3 2.603727 1_455
Co1 U2 2.852904 1_565
Co1 U4 2.852904 1_556
Co1 U5 2.852904 1_555
Co1 U3 2.852904 1_455
Co2 Sb2 2.603727 1_555
Co2 Sb1 2.603727 1_565
Co2 Sb5 2.603727 1_555
Co2 Sb7 2.603727 1_555
Co2 U1 2.852904 1_555
Co2 U4 2.852904 1_555
Co2 U5 2.852904 1_555
Co2 U0 2.852904 1_455
Co3 Sb0 2.603727 1_555
Co3 Sb3 2.603727 1_554
Co3 Sb6 2.603727 1_665
Co3 Sb4 2.603727 1_565
Co3 U4 2.852904 1_655
Co3 U1 2.852904 1_555
Co3 U0 2.852904 1_565
Co3 U5 2.852904 1_554
Co4 Sb2 2.603727 1_655
Co4 Sb0 2.603727 1_555
Co4 Sb4 2.603727 1_555
Co4 Sb7 2.603727 1_555
Co4 U3 2.852904 1_555
Co4 U2 2.852904 1_554
Co4 U0 2.852904 1_555
Co4 U1 2.852904 1_555
Co5 Sb1 2.603727 1_555
Co5 Sb5 2.603727 1_656
Co5 Sb6 2.603727 1_655
Co5 Sb3 2.603727 1_545
Co5 U3 2.852904 1_555
Co5 U0 2.852904 1_556
Co5 U2 2.852904 1_655
Co5 U1 2.852904 1_545
Sb0 U2 3.223418 1_554
Sb0 U1 3.223418 1_555
Sb0 U5 3.223418 1_554
Sb0 U4 3.226362 1_655
Sb0 U3 3.226362 1_554
Sb0 U0 3.226362 1_555
Sb1 U4 3.223418 1_545
Sb1 U1 3.223418 1_545
Sb1 U3 3.223418 1_555
Sb1 U2 3.226362 1_555
Sb1 U0 3.226362 1_556
Sb1 U5 3.226362 1_545
Sb2 U5 3.223418 1_555
Sb2 U0 3.223418 1_455
Sb2 U3 3.223418 1_455
Sb2 U2 3.226362 1_565
Sb2 U1 3.226362 1_455
Sb2 U4 3.226362 1_555
Sb3 U2 3.223418 1_665
Sb3 U0 3.223418 1_566
Sb3 U4 3.223418 1_656
Sb3 U3 3.226362 1_555
Sb3 U1 3.226362 1_555
Sb3 U5 3.226362 1_555
Sb4 U0 3.223418 1_555
Sb4 U5 3.223418 1_544
Sb4 U2 3.223418 1_554
Sb4 U3 3.226362 1_555
Sb4 U4 3.226362 1_545
Sb4 U1 3.226362 1_545
Sb5 U0 3.223418 1_455
Sb5 U3 3.223418 1_454
Sb5 U4 3.223418 1_555
Sb5 U1 3.226362 1_555
Sb5 U5 3.226362 1_554
Sb5 U2 3.226362 1_554
Sb6 U1 3.223418 1_445
Sb6 U2 3.223418 1_555
Sb6 U4 3.223418 1_545
Sb6 U5 3.226362 1_555
Sb6 U0 3.226362 1_455
Sb6 U3 3.226362 1_455
Sb7 U1 3.223418 1_555
Sb7 U5 3.223418 1_555
Sb7 U3 3.223418 1_555
Sb7 U0 3.226362 1_455
Sb7 U2 3.226362 1_554
Sb7 U4 3.226362 1_545
