# generated using pymatgen
data_Pb8Cl4O7
_symmetry_space_group_name_H-M   'P 1'
_cell_length_a   13.67008339
_cell_length_b   13.67008339
_cell_length_c   22.09755231
_cell_angle_alpha   78.37084668
_cell_angle_beta   78.37084668
_cell_angle_gamma   24.60536962
_symmetry_Int_Tables_number   1
_chemical_formula_structural   Pb8Cl4O7
_chemical_formula_sum   'Pb32 Cl16 O28'
_cell_volume   1682.34972929
_cell_formula_units_Z   4
loop_
 _symmetry_equiv_pos_site_id
 _symmetry_equiv_pos_as_xyz
  1  'x, y, z'
loop_
 _atom_site_type_symbol
 _atom_site_label
 _atom_site_symmetry_multiplicity
 _atom_site_fract_x
 _atom_site_fract_y
 _atom_site_fract_z
 _atom_site_occupancy
  Pb  Pb0  1  0.79033900  0.85687700  0.17384800  1
  Pb  Pb1  1  0.14312300  0.20966100  0.32615200  1
  Pb  Pb2  1  0.20966100  0.14312300  0.82615200  1
  Pb  Pb3  1  0.85687700  0.79033900  0.67384800  1
  Pb  Pb4  1  0.45701300  0.39416800  0.14702800  1
  Pb  Pb5  1  0.60583200  0.54298700  0.35297200  1
  Pb  Pb6  1  0.54298700  0.60583200  0.85297200  1
  Pb  Pb7  1  0.39416800  0.45701300  0.64702800  1
  Pb  Pb8  1  0.34782300  0.29792100  0.03919500  1
  Pb  Pb9  1  0.70207900  0.65217700  0.46080500  1
  Pb  Pb10  1  0.65217700  0.70207900  0.96080500  1
  Pb  Pb11  1  0.29792100  0.34782300  0.53919500  1
  Pb  Pb12  1  0.89087200  0.96076200  0.01402200  1
  Pb  Pb13  1  0.03923800  0.10912800  0.48597800  1
  Pb  Pb14  1  0.10912800  0.03923800  0.98597800  1
  Pb  Pb15  1  0.96076200  0.89087200  0.51402200  1
  Pb  Pb16  1  0.67778600  0.67023100  0.20422900  1
  Pb  Pb17  1  0.32976900  0.32221400  0.29577100  1
  Pb  Pb18  1  0.32221400  0.32976900  0.79577100  1
  Pb  Pb19  1  0.67023100  0.67778600  0.70422900  1
  Pb  Pb20  1  0.05737200  0.09069800  0.22625500  1
  Pb  Pb21  1  0.90930200  0.94262800  0.27374500  1
  Pb  Pb22  1  0.94262800  0.90930200  0.77374500  1
  Pb  Pb23  1  0.09069800  0.05737200  0.72625500  1
  Pb  Pb24  1  0.17095600  0.17474800  0.08090600  1
  Pb  Pb25  1  0.82525200  0.82904400  0.41909400  1
  Pb  Pb26  1  0.82904400  0.82525200  0.91909400  1
  Pb  Pb27  1  0.17474800  0.17095600  0.58090600  1
  Pb  Pb28  1  0.55463700  0.59226900  0.11209600  1
  Pb  Pb29  1  0.40773100  0.44536300  0.38790400  1
  Pb  Pb30  1  0.44536300  0.40773100  0.88790400  1
  Pb  Pb31  1  0.59226900  0.55463700  0.61209600  1
  Cl  Cl0  1  0.50000000  0.50000000  0.00000000  1
  Cl  Cl1  1  0.50000000  0.50000000  0.50000000  1
  Cl  Cl2  1  0.49960800  0.50039200  0.25000000  1
  Cl  Cl3  1  0.50039200  0.49960800  0.75000000  1
  Cl  Cl4  1  0.23987400  0.24373800  0.18919000  1
  Cl  Cl5  1  0.75626200  0.76012600  0.31081000  1
  Cl  Cl6  1  0.76012600  0.75626200  0.81081000  1
  Cl  Cl7  1  0.24373800  0.23987400  0.68919000  1
  Cl  Cl8  1  0.26485900  0.25182300  0.93466800  1
  Cl  Cl9  1  0.74817700  0.73514100  0.56533200  1
  Cl  Cl10  1  0.73514100  0.74817700  0.06533200  1
  Cl  Cl11  1  0.25182300  0.26485900  0.43466800  1
  Cl  Cl12  1  0.00408600  0.00584300  0.12131700  1
  Cl  Cl13  1  0.99415700  0.99591400  0.37868300  1
  Cl  Cl14  1  0.99591400  0.99415700  0.87868300  1
  Cl  Cl15  1  0.00584300  0.00408600  0.62131700  1
  O  O0  1  0.62044100  0.12984000  0.09360600  1
  O  O1  1  0.87016000  0.37955900  0.40639400  1
  O  O2  1  0.37955900  0.87016000  0.90639400  1
  O  O3  1  0.12984000  0.62044100  0.59360600  1
  O  O4  1  0.62884600  0.12311500  0.22357200  1
  O  O5  1  0.87688500  0.37115400  0.27642800  1
  O  O6  1  0.37115400  0.87688500  0.77642800  1
  O  O7  1  0.12311500  0.62884600  0.72357200  1
  O  O8  1  0.61500400  0.13697200  0.96330400  1
  O  O9  1  0.86302800  0.38499600  0.53669600  1
  O  O10  1  0.38499600  0.86302800  0.03669600  1
  O  O11  1  0.13697200  0.61500400  0.46330400  1
  O  O12  1  0.37105500  0.87595300  0.16580100  1
  O  O13  1  0.12404700  0.62894500  0.33419900  1
  O  O14  1  0.62894500  0.12404700  0.83419900  1
  O  O15  1  0.87595300  0.37105500  0.66580100  1
  O  O16  1  0.87037800  0.37683100  0.14762000  1
  O  O17  1  0.62316900  0.12962200  0.35238000  1
  O  O18  1  0.12962200  0.62316900  0.85238000  1
  O  O19  1  0.37683100  0.87037800  0.64762000  1
  O  O20  1  0.09030900  0.64644400  0.99926000  1
  O  O21  1  0.35355600  0.90969100  0.50074000  1
  O  O22  1  0.90969100  0.35355600  0.00074000  1
  O  O23  1  0.64644400  0.09030900  0.49926000  1
  O  O24  1  0.13262900  0.61079500  0.18628100  1
  O  O25  1  0.38920500  0.86737100  0.31371900  1
  O  O26  1  0.86737100  0.38920500  0.81371900  1
  O  O27  1  0.61079500  0.13262900  0.68628100  1
loop_
_geom_bond_atom_site_label_1
_geom_bond_atom_site_label_2
_geom_bond_distance
_geom_bond_site_symmetry_2
Cl4 Pb1 3.172426 1_555
Cl5 Pb0 3.172426 1_555
Cl6 Pb3 3.172426 1_555
Cl7 Pb2 3.172426 1_555
Cl8 Pb8 3.156099 1_556
Cl8 Pb18 3.225069 1_555
Cl9 Pb9 3.156099 1_555
Cl9 Pb19 3.225069 1_555
Cl10 Pb10 3.156099 1_554
Cl10 Pb16 3.225069 1_555
Cl11 Pb11 3.156099 1_555
Cl11 Pb17 3.225069 1_555
Cl12 Pb14 3.181925 1_554
Cl12 Pb20 3.248871 1_555
Cl13 Pb15 3.181925 1_555
Cl13 Pb21 3.248871 1_555
Cl14 Pb12 3.181925 1_556
Cl14 Pb22 3.248871 1_555
Cl15 Pb13 3.181925 1_555
Cl15 Pb23 3.248871 1_555
O0 Pb4 2.327775 1_555
O0 Pb12 2.362574 1_545
O0 Pb0 2.386584 1_545
O0 Pb8 2.394894 1_555
O1 Pb5 2.327775 1_555
O1 Pb13 2.362574 1_655
O1 Pb1 2.386584 1_655
O1 Pb9 2.394894 1_555
O2 Pb6 2.327775 1_555
O2 Pb14 2.362574 1_565
O2 Pb2 2.386584 1_565
O2 Pb10 2.394894 1_555
O3 Pb7 2.327775 1_555
O3 Pb15 2.362574 1_455
O3 Pb3 2.386584 1_455
O3 Pb11 2.394894 1_555
O4 Pb0 2.313222 1_545
O4 Pb4 2.314382 1_555
O4 Pb21 2.329257 1_545
O4 Pb17 2.356904 1_555
O5 Pb1 2.313222 1_655
O5 Pb5 2.314382 1_555
O5 Pb20 2.329257 1_655
O5 Pb16 2.356904 1_555
O6 Pb2 2.313222 1_565
O6 Pb6 2.314382 1_555
O6 Pb23 2.329257 1_565
O6 Pb19 2.356904 1_555
O7 Pb3 2.313222 1_455
O7 Pb7 2.314382 1_555
O7 Pb22 2.329257 1_455
O7 Pb18 2.356904 1_555
O8 Pb30 2.305880 1_555
O8 Pb12 2.318892 1_546
O8 Pb8 2.323529 1_556
O8 Pb26 2.351086 1_545
O9 Pb31 2.305880 1_555
O9 Pb13 2.318892 1_655
O9 Pb9 2.323529 1_555
O9 Pb27 2.351086 1_655
O10 Pb28 2.305880 1_555
O10 Pb14 2.318892 1_564
O10 Pb10 2.323529 1_554
O10 Pb24 2.351086 1_565
O11 Pb29 2.305880 1_555
O11 Pb15 2.318892 1_455
O11 Pb11 2.323529 1_555
O11 Pb25 2.351086 1_455
O12 Pb20 2.274086 1_565
O12 Pb16 2.289512 1_555
O12 Pb28 2.388097 1_555
O12 Pb24 2.519566 1_565
O13 Pb21 2.274086 1_455
O13 Pb17 2.289512 1_555
O13 Pb29 2.388097 1_555
O13 Pb25 2.519566 1_455
O14 Pb22 2.274086 1_545
O14 Pb18 2.289512 1_555
O14 Pb30 2.388097 1_555
O14 Pb26 2.519566 1_545
O15 Pb23 2.274086 1_655
O15 Pb19 2.289512 1_555
O15 Pb31 2.388097 1_555
O15 Pb27 2.519566 1_655
O16 Pb28 2.288815 1_555
O16 Pb24 2.290710 1_655
O16 Pb20 2.392169 1_655
O16 Pb16 2.465047 1_555
O17 Pb29 2.288815 1_555
O17 Pb25 2.290710 1_545
O17 Pb21 2.392169 1_545
O17 Pb17 2.465047 1_555
O18 Pb30 2.288815 1_555
O18 Pb26 2.290710 1_455
O18 Pb22 2.392169 1_455
O18 Pb18 2.465047 1_555
O19 Pb31 2.288815 1_555
O19 Pb27 2.290710 1_565
O19 Pb23 2.392169 1_565
O19 Pb19 2.465047 1_555
O20 Pb12 2.215081 1_456
O20 Pb8 2.220302 1_556
O20 Pb26 2.607508 1_455
O21 Pb13 2.215081 1_565
O21 Pb9 2.220302 1_555
O21 Pb27 2.607508 1_565
O22 Pb14 2.215081 1_654
O22 Pb10 2.220302 1_554
O22 Pb24 2.607508 1_655
O23 Pb15 2.215081 1_545
O23 Pb11 2.220302 1_555
O23 Pb25 2.607508 1_545
O24 Pb4 2.189038 1_555
O24 Pb0 2.193030 1_455
O25 Pb5 2.189038 1_555
O25 Pb1 2.193030 1_565
O26 Pb6 2.189038 1_555
O26 Pb2 2.193030 1_655
O27 Pb7 2.189038 1_555
O27 Pb3 2.193030 1_545
