# generated using pymatgen
data_Cs2CeO3
_symmetry_space_group_name_H-M   'P 1'
_cell_length_a   6.89643309
_cell_length_b   7.48297799
_cell_length_c   14.61778750
_cell_angle_alpha   90.04104867
_cell_angle_beta   90.02821577
_cell_angle_gamma   117.35448511
_symmetry_Int_Tables_number   1
_chemical_formula_structural   Cs2CeO3
_chemical_formula_sum   'Cs8 Ce4 O12'
_cell_volume   670.01058587
_cell_formula_units_Z   4
loop_
 _symmetry_equiv_pos_site_id
 _symmetry_equiv_pos_as_xyz
  1  'x, y, z'
loop_
 _atom_site_type_symbol
 _atom_site_label
 _atom_site_symmetry_multiplicity
 _atom_site_fract_x
 _atom_site_fract_y
 _atom_site_fract_z
 _atom_site_occupancy
  Cs  Cs0  1  0.37277400  0.74319700  0.08291300  1
  Cs  Cs1  1  0.05396300  0.10899800  0.13269600  1
  Cs  Cs2  1  0.12632100  0.25179400  0.58438900  1
  Cs  Cs3  1  0.44558900  0.89069400  0.63221500  1
  Cs  Cs4  1  0.55508300  0.10377400  0.36379300  1
  Cs  Cs5  1  0.87844100  0.74793600  0.41725100  1
  Cs  Cs6  1  0.94238000  0.88976100  0.86665900  1
  Cs  Cs7  1  0.62293700  0.24938100  0.91858600  1
  Ce  Ce0  1  0.23801800  0.47711900  0.34106100  1
  Ce  Ce1  1  0.25900600  0.52030700  0.84003200  1
  Ce  Ce2  1  0.75855500  0.52147600  0.66010000  1
  Ce  Ce3  1  0.74032100  0.47832300  0.16115500  1
  O  O0  1  0.02333700  0.54608200  0.25117600  1
  O  O1  1  0.34052600  0.68284900  0.44566900  1
  O  O2  1  0.08266800  0.17684400  0.36862200  1
  O  O3  1  0.16011500  0.32157300  0.94700600  1
  O  O4  1  0.40871700  0.82091900  0.86810000  1
  O  O5  1  0.47642500  0.45346900  0.75101200  1
  O  O6  1  0.51759500  0.53626200  0.25068100  1
  O  O7  1  0.83821700  0.68104600  0.05551400  1
  O  O8  1  0.59518700  0.17830400  0.13133600  1
  O  O9  1  0.90541000  0.82271400  0.63319600  1
  O  O10  1  0.66285100  0.32373700  0.55305300  1
  O  O11  1  0.98095500  0.45934800  0.74820500  1
loop_
_geom_bond_atom_site_label_1
_geom_bond_atom_site_label_2
_geom_bond_distance
_geom_bond_site_symmetry_2
Cs0 O8 2.976699 1_565
Cs0 O4 3.182886 1_554
Cs0 O0 3.282885 1_555
Cs0 O6 3.291483 1_555
Cs0 O3 3.433314 1_554
Cs0 O7 3.471749 1_555
Cs0 O7 3.519931 1_455
Cs1 O7 3.058793 1_445
Cs1 O3 3.061382 1_554
Cs1 O8 3.433310 1_455
Cs1 O2 3.477792 1_555
Cs1 O8 3.524513 1_555
Cs2 O9 2.940792 1_445
Cs2 O2 3.192881 1_555
Cs2 O11 3.252593 1_455
Cs2 O5 3.268019 1_555
Cs2 O10 3.506585 1_455
Cs2 O1 3.511673 1_555
Cs2 O10 3.515982 1_555
Cs3 O1 3.055525 1_555
Cs3 O10 3.103178 1_565
Cs3 O9 3.434737 1_555
Cs3 O4 3.479686 1_555
Cs3 O9 3.520716 1_455
Cs4 O1 3.044177 1_545
Cs4 O10 3.127734 1_555
Cs4 O2 3.422532 1_655
Cs4 O8 3.434512 1_555
Cs4 O2 3.543393 1_555
Cs5 O2 2.939390 1_665
Cs5 O9 3.195828 1_555
Cs5 O0 3.249269 1_655
Cs5 O6 3.316103 1_555
Cs5 O10 3.449936 1_555
Cs5 O1 3.462717 1_655
Cs5 O1 3.537372 1_555
Cs6 O7 3.090876 1_556
Cs6 O3 3.099841 1_665
Cs6 O9 3.441288 1_555
Cs6 O4 3.474005 1_555
Cs6 O4 3.483007 1_655
Cs7 O4 2.940978 1_545
Cs7 O8 3.146524 1_556
Cs7 O5 3.282465 1_555
Cs7 O11 3.348801 1_555
Cs7 O7 3.496428 1_556
Cs7 O3 3.498242 1_555
Cs7 O3 3.513913 1_655
Ce0 O2 2.036753 1_555
Ce0 O1 2.050223 1_555
Ce0 O6 2.208618 1_555
Ce0 O0 2.210398 1_555
Ce1 O4 2.039206 1_555
Ce1 O3 2.047978 1_555
Ce1 O11 2.208992 1_455
Ce1 O5 2.209497 1_555
Ce2 O9 2.040896 1_555
Ce2 O10 2.042499 1_555
Ce2 O11 2.209403 1_555
Ce2 O5 2.214571 1_555
Ce3 O8 2.040866 1_555
Ce3 O7 2.050578 1_555
Ce3 O6 2.207510 1_555
Ce3 O0 2.210266 1_655
