# generated using pymatgen
data_BaEr2CoO5
_symmetry_space_group_name_H-M   'P 1'
_cell_length_a   3.65897174
_cell_length_b   5.71506153
_cell_length_c   6.66671766
_cell_angle_alpha   115.36579704
_cell_angle_beta   105.91232865
_cell_angle_gamma   89.99423198
_symmetry_Int_Tables_number   1
_chemical_formula_structural   BaEr2CoO5
_chemical_formula_sum   'Ba1 Er2 Co1 O5'
_cell_volume   120.03250460
_cell_formula_units_Z   1
loop_
 _symmetry_equiv_pos_site_id
 _symmetry_equiv_pos_as_xyz
  1  'x, y, z'
loop_
 _atom_site_type_symbol
 _atom_site_label
 _atom_site_symmetry_multiplicity
 _atom_site_fract_x
 _atom_site_fract_y
 _atom_site_fract_z
 _atom_site_occupancy
  Ba  Ba0  1  -0.00000572  0.00000082  -0.00000477  1
  Er  Er0  1  0.79513281  0.29506983  0.59015352  1
  Er  Er1  1  0.20485816  0.70492909  0.40985011  1
  Co  Co0  1  0.49997128  0.50002791  0.00001066  1
  O  O0  1  0.34687121  0.58827789  0.69369605  1
  O  O1  1  0.65313633  0.41172024  0.30630597  1
  O  O2  1  0.65307746  0.89487717  0.30604232  1
  O  O3  1  0.34691025  0.10510825  0.69394234  1
  O  O4  1  0.00004522  0.49998778  -0.00000019  1
loop_
_geom_bond_atom_site_label_1
_geom_bond_atom_site_label_2
_geom_bond_distance
_geom_bond_site_symmetry_2
Ba0 O4 2.857443 1_555
Ba0 O4 2.857618 1_545
Ba0 O3 2.933535 1_554
Ba0 O2 2.933549 1_445
Ba0 O3 2.934370 1_454
Ba0 O2 2.934393 1_545
Ba0 O1 2.936164 1_455
Ba0 O0 2.936182 1_544
Ba0 O0 2.937004 1_444
Ba0 O1 2.937047 1_555
Er0 O1 2.199320 1_555
Er0 O2 2.199421 1_545
Er0 O4 2.352556 1_656
Er0 O0 2.367246 1_555
Er0 O0 2.367593 1_655
Er0 O3 2.368685 1_655
Er0 O3 2.369243 1_555
Er1 O0 2.199313 1_555
Er1 O3 2.199325 1_565
Er1 O4 2.352579 1_555
Er1 O1 2.367298 1_555
Er1 O1 2.367546 1_455
Er1 O2 2.368681 1_455
Er1 O2 2.369274 1_555
Co0 O4 1.829196 1_555
Co0 O4 1.829776 1_655
Co0 O0 2.234621 1_554
Co0 O1 2.234703 1_555
Co0 O2 2.235499 1_555
Co0 O3 2.235849 1_554
