# generated using pymatgen
data_CrCuRhSe4
_symmetry_space_group_name_H-M   'P 1'
_cell_length_a   7.33747477
_cell_length_b   7.33747477
_cell_length_c   7.33747477
_cell_angle_alpha   121.12225673
_cell_angle_beta   118.81040614
_cell_angle_gamma   90.06997353
_symmetry_Int_Tables_number   1
_chemical_formula_structural   CrCuRhSe4
_chemical_formula_sum   'Cr2 Cu2 Rh2 Se8'
_cell_volume   279.33462195
_cell_formula_units_Z   2
loop_
 _symmetry_equiv_pos_site_id
 _symmetry_equiv_pos_as_xyz
  1  'x, y, z'
loop_
 _atom_site_type_symbol
 _atom_site_label
 _atom_site_symmetry_multiplicity
 _atom_site_fract_x
 _atom_site_fract_y
 _atom_site_fract_z
 _atom_site_occupancy
  Cr  Cr0  1  0.00000000  0.00000000  0.50000000  1
  Cr  Cr1  1  0.00000000  0.50000000  0.00000000  1
  Cu  Cu0  1  0.37775300  0.62775300  0.75000000  1
  Cu  Cu1  1  0.62224700  0.37224700  0.25000000  1
  Rh  Rh0  1  0.00000000  0.00000000  0.00000000  1
  Rh  Rh1  1  0.50000000  0.00000000  0.50000000  1
  Se  Se0  1  0.24162400  0.75900200  0.01737800  1
  Se  Se1  1  0.24162400  0.22424600  0.48262200  1
  Se  Se2  1  0.24175000  0.75705100  0.48469800  1
  Se  Se3  1  0.77235300  0.75705100  0.01530200  1
  Se  Se4  1  0.75837600  0.24099800  0.98262200  1
  Se  Se5  1  0.75837600  0.77575400  0.51737800  1
  Se  Se6  1  0.75825000  0.24294900  0.51530200  1
  Se  Se7  1  0.22764700  0.24294900  0.98469800  1
loop_
_geom_bond_atom_site_label_1
_geom_bond_atom_site_label_2
_geom_bond_distance
_geom_bond_site_symmetry_2
Cr0 Se5 2.508875 1_445
Cr0 Se1 2.508875 1_555
Cr0 Se3 2.515875 1_445
Cr0 Se7 2.515875 1_555
Cr0 Se2 2.515880 1_545
Cr0 Se6 2.515880 1_455
Cr1 Se0 2.508875 1_555
Cr1 Se4 2.508875 1_454
Cr1 Se7 2.515875 1_554
Cr1 Se3 2.515875 1_455
Cr1 Se6 2.515875 1_454
Cr1 Se2 2.515875 1_555
Cu0 Se0 2.389995 1_556
Cu0 Se1 2.389995 1_555
Cu0 Se2 2.392584 1_555
Cu0 Se3 2.392584 1_556
Cu1 Se4 2.389995 1_554
Cu1 Se5 2.389995 1_555
Cu1 Se6 2.392584 1_555
Cu1 Se7 2.392584 1_554
Rh0 Se5 2.511826 1_444
Rh0 Se4 2.511826 1_454
Rh0 Se1 2.511826 1_555
Rh0 Se0 2.511826 1_545
Rh0 Se7 2.522074 1_554
Rh0 Se3 2.522074 1_445
Rh1 Se0 2.511826 1_545
Rh1 Se4 2.511826 1_555
Rh1 Se1 2.511826 1_555
Rh1 Se5 2.511826 1_545
Rh1 Se2 2.522068 1_545
Rh1 Se6 2.522068 1_555
