# generated using pymatgen
data_Sr3NbCoO7
_symmetry_space_group_name_H-M   'P 1'
_cell_length_a   4.00069792
_cell_length_b   11.05215005
_cell_length_c   7.93528414
_cell_angle_alpha   79.67428733
_cell_angle_beta   89.98686564
_cell_angle_gamma   79.46362616
_symmetry_Int_Tables_number   1
_chemical_formula_structural   Sr3NbCoO7
_chemical_formula_sum   'Sr6 Nb2 Co2 O14'
_cell_volume   339.17420357
_cell_formula_units_Z   2
loop_
 _symmetry_equiv_pos_site_id
 _symmetry_equiv_pos_as_xyz
  1  'x, y, z'
loop_
 _atom_site_type_symbol
 _atom_site_label
 _atom_site_symmetry_multiplicity
 _atom_site_fract_x
 _atom_site_fract_y
 _atom_site_fract_z
 _atom_site_occupancy
  Sr  Sr0  1  0.30632200  0.38318600  0.15267700  1
  Sr  Sr1  1  0.31018600  0.38108800  0.65638400  1
  Sr  Sr2  1  0.68400000  0.63658800  0.83349400  1
  Sr  Sr3  1  0.68376700  0.63671800  0.34822300  1
  Sr  Sr4  1  0.52394200  0.96010200  0.75618100  1
  Sr  Sr5  1  0.52347500  0.96027700  0.26381900  1
  Nb  Nb0  1  0.90454000  0.19343800  0.95195300  1
  Nb  Nb1  1  0.90260200  0.19678000  0.45065300  1
  Co  Co0  1  0.11783400  0.78398400  0.05375800  1
  Co  Co1  1  0.10897100  0.78648500  0.55335700  1
  O  O0  1  0.99007200  0.01423400  0.99636500  1
  O  O1  1  0.99173200  0.01755200  0.49559800  1
  O  O2  1  0.17567500  0.60837500  0.09744900  1
  O  O3  1  0.19981800  0.60066800  0.60022700  1
  O  O4  1  0.80102700  0.39219900  0.90431300  1
  O  O5  1  0.80113900  0.39362200  0.39910200  1
  O  O6  1  0.58815700  0.81045900  0.04740000  1
  O  O7  1  0.59939900  0.80694900  0.54828300  1
  O  O8  1  0.10069200  0.80578900  0.79137500  1
  O  O9  1  0.10065900  0.80558100  0.30580100  1
  O  O10  1  0.39676600  0.20511600  0.94924500  1
  O  O11  1  0.39617100  0.20754800  0.44761400  1
  O  O12  1  0.89686600  0.20612000  0.19822000  1
  O  O13  1  0.89618800  0.20713800  0.69851000  1
loop_
_geom_bond_atom_site_label_1
_geom_bond_atom_site_label_2
_geom_bond_distance
_geom_bond_site_symmetry_2
Nb0 O0 1.914680 1_555
Nb0 O12 1.983954 1_556
Nb0 O13 1.989410 1_555
Nb0 O10 1.996746 1_655
Nb0 O10 2.011727 1_555
Nb0 O4 2.123611 1_555
Nb1 O1 1.914840 1_555
Nb1 O12 1.987141 1_555
Nb1 O13 1.990414 1_555
Nb1 O11 1.999691 1_655
Nb1 O11 2.007622 1_555
Nb1 O5 2.103119 1_555
Co0 O2 1.880222 1_555
Co0 O6 1.955678 1_555
Co0 O8 2.052315 1_554
Co0 O9 2.055944 1_555
Co0 O6 2.084861 1_455
Co0 O0 2.460367 1_464
Co1 O9 1.937384 1_555
Co1 O8 1.937989 1_555
Co1 O3 1.985266 1_555
Co1 O7 2.009226 1_455
Co1 O7 2.015297 1_555
Co1 O1 2.468668 1_465
O0 Sr4 2.878641 1_545
O0 Sr5 2.880293 1_546
O0 Sr4 2.914094 1_645
O0 Sr5 2.914914 1_646
O1 Sr4 2.853691 1_545
O1 Sr5 2.854046 1_545
O1 Sr5 2.869173 1_645
O1 Sr4 2.872179 1_645
O2 Sr0 2.406832 1_555
O2 Sr2 2.810178 1_454
O2 Sr3 2.815532 1_455
O2 Sr2 2.935299 1_554
O2 Sr3 2.940788 1_555
O3 Sr1 2.345968 1_555
O3 Sr2 2.793671 1_455
O3 Sr3 2.799196 1_455
O3 Sr2 2.807578 1_555
O3 Sr3 2.810867 1_555
O4 Sr2 2.612285 1_555
O4 Sr0 2.794845 1_556
O4 Sr0 2.799737 1_656
O4 Sr1 2.813966 1_555
O4 Sr1 2.833428 1_655
O5 Sr3 2.598435 1_555
O5 Sr0 2.813480 1_655
O5 Sr0 2.814622 1_555
O5 Sr1 2.835759 1_555
O5 Sr1 2.851701 1_655
O6 Sr4 2.572227 1_554
O6 Sr5 2.573022 1_555
O6 Sr3 2.760511 1_555
O6 Sr2 2.760523 1_554
O7 Sr4 2.547906 1_555
O7 Sr5 2.549535 1_555
O7 Sr3 2.648050 1_555
O7 Sr2 2.649823 1_555
O8 Sr4 2.588658 1_455
O8 Sr4 2.595985 1_555
O8 Sr2 2.689779 1_555
O8 Sr2 2.702521 1_455
O9 Sr5 2.592020 1_455
O9 Sr5 2.597838 1_555
O9 Sr3 2.687268 1_555
O9 Sr3 2.700195 1_455
O10 Sr1 2.727067 1_555
O10 Sr0 2.736480 1_556
O11 Sr1 2.727457 1_555
O11 Sr0 2.737048 1_555
O12 Sr0 2.749961 1_655
O12 Sr0 2.756461 1_555
O13 Sr1 2.725019 1_555
O13 Sr1 2.735872 1_655
