# generated using pymatgen
data_Tb5S7
_symmetry_space_group_name_H-M   'P 1'
_cell_length_a   3.81837624
_cell_length_b   6.71978707
_cell_length_c   11.62757845
_cell_angle_alpha   104.10490926
_cell_angle_beta   90.00000000
_cell_angle_gamma   106.50592249
_symmetry_Int_Tables_number   1
_chemical_formula_structural   Tb5S7
_chemical_formula_sum   'Tb5 S7'
_cell_volume   276.65913233
_cell_formula_units_Z   1
loop_
 _symmetry_equiv_pos_site_id
 _symmetry_equiv_pos_as_xyz
  1  'x, y, z'
loop_
 _atom_site_type_symbol
 _atom_site_label
 _atom_site_symmetry_multiplicity
 _atom_site_fract_x
 _atom_site_fract_y
 _atom_site_fract_z
 _atom_site_occupancy
  Tb  Tb0  1  -0.00000000  -0.00000000  0.00000000  1
  Tb  Tb1  1  0.11169098  0.22338295  0.42133278  1
  Tb  Tb2  1  0.88830802  0.77661705  0.57866722  1
  Tb  Tb3  1  0.30050322  0.60100744  0.18839857  1
  Tb  Tb4  1  0.69949678  0.39899256  0.81160143  1
  S  S0  1  0.50000000  -0.00000000  0.50000000  1
  S  S1  1  0.65906637  0.31813174  0.05115132  1
  S  S2  1  0.34093363  0.68186826  0.94884868  1
  S  S3  1  0.95857108  0.91714416  0.21505032  1
  S  S4  1  0.04142792  0.08285584  0.78494968  1
  S  S5  1  0.25933144  0.51866188  0.64754740  1
  S  S6  1  0.74066856  0.48133812  0.35245260  1
loop_
_geom_bond_atom_site_label_1
_geom_bond_atom_site_label_2
_geom_bond_distance
_geom_bond_site_symmetry_2
S0 Tb1 2.687430 1_655
S0 Tb2 2.687430 1_545
S0 Tb2 2.687433 1_445
S0 Tb1 2.687433 1_555
S1 Tb0 2.753219 1_655
S1 Tb0 2.753222 1_555
S1 Tb3 2.834578 1_655
S1 Tb3 2.834583 1_555
S1 Tb4 2.960989 1_554
S2 Tb0 2.753219 1_566
S2 Tb0 2.753222 1_666
S2 Tb4 2.834578 1_455
S2 Tb4 2.834583 1_555
S2 Tb3 2.960989 1_556
S3 Tb0 2.686282 1_665
S3 Tb1 2.690785 1_665
S3 Tb3 2.751149 1_555
S3 Tb3 2.751152 1_655
S4 Tb0 2.686282 1_556
S4 Tb2 2.690785 1_445
S4 Tb4 2.751149 1_455
S4 Tb4 2.751152 1_555
S5 Tb2 2.779432 1_555
S5 Tb2 2.779437 1_455
S5 Tb1 2.827390 1_555
S5 Tb4 2.936981 1_455
S5 Tb4 2.936981 1_555
S6 Tb1 2.779434 1_555
S6 Tb1 2.779434 1_655
S6 Tb2 2.827390 1_555
S6 Tb3 2.936981 1_655
S6 Tb3 2.936981 1_555
