# generated using pymatgen
data_Na8ThU(MoO4)8
_symmetry_space_group_name_H-M   'P 1'
_cell_length_a   10.15674036
_cell_length_b   10.15674036
_cell_length_c   10.15674036
_cell_angle_alpha   111.31024402
_cell_angle_beta   111.31024402
_cell_angle_gamma   105.85265380
_symmetry_Int_Tables_number   1
_chemical_formula_structural   Na8ThU(MoO4)8
_chemical_formula_sum   'Na8 Th1 U1 Mo8 O32'
_cell_volume   804.17512606
_cell_formula_units_Z   1
loop_
 _symmetry_equiv_pos_site_id
 _symmetry_equiv_pos_as_xyz
  1  'x, y, z'
loop_
 _atom_site_type_symbol
 _atom_site_label
 _atom_site_symmetry_multiplicity
 _atom_site_fract_x
 _atom_site_fract_y
 _atom_site_fract_z
 _atom_site_occupancy
  Na  Na0  1  0.59513800  0.48500000  0.64998600  1
  Na  Na1  1  0.83501400  0.94515200  0.35001400  1
  Na  Na2  1  0.23423000  0.08425700  0.38815700  1
  Na  Na3  1  0.69610000  0.84607200  0.61184300  1
  Na  Na4  1  0.15392800  0.76577000  0.85002800  1
  Na  Na5  1  0.91574300  0.30390000  0.14997200  1
  Na  Na6  1  0.51500000  0.16498600  0.11013700  1
  Na  Na7  1  0.05484800  0.40486200  0.88986300  1
  Th  Th0  1  0.25000000  0.75000000  0.50000000  1
  U  U0  1  0.50000000  0.50000000  0.00000000  1
  Mo  Mo0  1  0.92668100  0.66593000  0.08779400  1
  Mo  Mo1  1  0.57813500  0.83888600  0.91220600  1
  Mo  Mo2  1  0.41941600  0.82676600  0.23722800  1
  Mo  Mo3  1  0.58953700  0.18218800  0.76277200  1
  Mo  Mo4  1  0.81781200  0.58058400  0.40735000  1
  Mo  Mo5  1  0.17323400  0.41046300  0.59265000  1
  Mo  Mo6  1  0.33407000  0.42186500  0.26075100  1
  Mo  Mo7  1  0.16111400  0.07331900  0.73924900  1
  O  O0  1  0.71113600  0.54172200  0.94420300  1
  O  O1  1  0.59751900  0.76693300  0.05579700  1
  O  O2  1  0.29279200  0.84561800  0.32573700  1
  O  O3  1  0.51988000  0.96705500  0.67426300  1
  O  O4  1  0.03294500  0.70720800  0.55282500  1
  O  O5  1  0.15438200  0.48012000  0.44717500  1
  O  O6  1  0.45827800  0.40248100  0.16941400  1
  O  O7  1  0.23306700  0.28886400  0.83058600  1
  O  O8  1  0.01527600  0.65135700  0.96507600  1
  O  O9  1  0.68628100  0.05019900  0.03492400  1
  O  O10  1  0.40444000  0.93393600  0.13332500  1
  O  O11  1  0.80061100  0.27111500  0.86667500  1
  O  O12  1  0.72888500  0.59556000  0.52949600  1
  O  O13  1  0.06606400  0.19938900  0.47050400  1
  O  O14  1  0.34864300  0.31371900  0.36391800  1
  O  O15  1  0.94980100  0.98472400  0.63608200  1
  O  O16  1  0.00602600  0.59847600  0.23173100  1
  O  O17  1  0.36674500  0.77429500  0.76826900  1
  O  O18  1  0.35442300  0.61533700  0.09038100  1
  O  O19  1  0.52495600  0.26404200  0.90961900  1
  O  O20  1  0.73595800  0.64557700  0.26091400  1
  O  O21  1  0.38466300  0.47504400  0.73908600  1
  O  O22  1  0.40152400  0.63325500  0.40755000  1
  O  O23  1  0.22570500  0.99397400  0.59245000  1
  O  O24  1  0.96905800  0.86689200  0.20194400  1
  O  O25  1  0.66494700  0.76711400  0.79805600  1
  O  O26  1  0.61879400  0.91722000  0.39869400  1
  O  O27  1  0.51852700  0.22010100  0.60130600  1
  O  O28  1  0.77989900  0.38120600  0.29842600  1
  O  O29  1  0.08278000  0.48147300  0.70157400  1
  O  O30  1  0.13310800  0.33505300  0.10216600  1
  O  O31  1  0.23288600  0.03094200  0.89783400  1
loop_
_geom_bond_atom_site_label_1
_geom_bond_atom_site_label_2
_geom_bond_distance
_geom_bond_site_symmetry_2
Na0 O27 2.387153 1_555
Na0 O25 2.440832 1_555
Na0 O12 2.444940 1_555
Na0 O14 2.529010 1_555
Na0 O0 2.543370 1_555
Na0 O21 2.598780 1_555
Na1 O26 2.387162 1_555
Na1 O24 2.440830 1_555
Na1 O13 2.444940 1_665
Na1 O15 2.529014 1_555
Na1 O1 2.543370 1_555
Na1 O20 2.598780 1_555
Na2 O24 2.391466 1_445
Na2 O14 2.447036 1_555
Na2 O27 2.457041 1_555
Na2 O13 2.530396 1_555
Na2 O2 2.564239 1_545
Na2 O23 2.573698 1_545
Na3 O25 2.391463 1_555
Na3 O15 2.447036 1_555
Na3 O26 2.457042 1_555
Na3 O12 2.530386 1_555
Na3 O3 2.564254 1_555
Na3 O22 2.573696 1_555
Na4 O31 2.391470 1_565
Na4 O8 2.447028 1_555
Na4 O29 2.457042 1_555
Na4 O10 2.530386 1_556
Na4 O4 2.564258 1_555
Na4 O17 2.573695 1_555
Na5 O30 2.391459 1_655
Na5 O9 2.447039 1_555
Na5 O28 2.457051 1_555
Na5 O11 2.530386 1_554
Na5 O5 2.564251 1_655
Na5 O16 2.573696 1_655
Na6 O28 2.387156 1_555
Na6 O31 2.440827 1_554
Na6 O10 2.444946 1_545
Na6 O9 2.529006 1_555
Na6 O6 2.543370 1_555
Na6 O19 2.598770 1_554
Na7 O29 2.387166 1_555
Na7 O30 2.440814 1_556
Na7 O11 2.444935 1_455
Na7 O8 2.529004 1_555
Na7 O7 2.543374 1_555
Na7 O18 2.598779 1_556
Mo0 O24 1.770006 1_555
Mo0 O8 1.771732 1_654
Mo0 O0 1.828780 1_554
Mo0 O16 1.851859 1_655
Mo1 O25 1.770003 1_555
Mo1 O9 1.771732 1_566
Mo1 O1 1.828772 1_556
Mo1 O17 1.851854 1_555
Mo2 O26 1.763227 1_555
Mo2 O10 1.769282 1_555
Mo2 O2 1.829910 1_555
Mo2 O18 1.858420 1_555
Mo3 O27 1.763231 1_555
Mo3 O11 1.769291 1_555
Mo3 O3 1.829910 1_545
Mo3 O19 1.858412 1_555
Mo4 O28 1.763224 1_555
Mo4 O12 1.769282 1_555
Mo4 O4 1.829909 1_655
Mo4 O20 1.858420 1_555
Mo5 O29 1.763220 1_555
Mo5 O13 1.769291 1_555
Mo5 O5 1.829901 1_555
Mo5 O21 1.858423 1_555
Mo6 O30 1.770006 1_555
Mo6 O14 1.771732 1_555
Mo6 O6 1.828781 1_555
Mo6 O22 1.851851 1_555
Mo7 O31 1.770004 1_555
Mo7 O15 1.771732 1_445
Mo7 O7 1.828781 1_555
Mo7 O23 1.851851 1_545
O0 U0 2.379248 1_556
O1 U0 2.379248 1_555
O2 Th0 2.417160 1_555
O3 Th0 2.417154 1_555
O4 Th0 2.417154 1_555
O5 Th0 2.417154 1_555
O6 U0 2.379248 1_555
O7 U0 2.379248 1_556
O16 Th0 2.427807 1_555
O17 Th0 2.427807 1_555
O18 U0 2.356356 1_555
O19 U0 2.356356 1_556
O20 U0 2.356356 1_555
O21 U0 2.356356 1_556
O22 Th0 2.427807 1_555
O23 Th0 2.427807 1_555
