# generated using pymatgen
data_La18In3Co28
_symmetry_space_group_name_H-M   'P 1'
_cell_length_a   11.21921274
_cell_length_b   11.21921274
_cell_length_c   11.21921274
_cell_angle_alpha   100.42296945
_cell_angle_beta   100.42296945
_cell_angle_gamma   129.65572859
_symmetry_Int_Tables_number   1
_chemical_formula_structural   La18In3Co28
_chemical_formula_sum   'La18 In3 Co28'
_cell_volume   983.97113739
_cell_formula_units_Z   1
loop_
 _symmetry_equiv_pos_site_id
 _symmetry_equiv_pos_as_xyz
  1  'x, y, z'
loop_
 _atom_site_type_symbol
 _atom_site_label
 _atom_site_symmetry_multiplicity
 _atom_site_fract_x
 _atom_site_fract_y
 _atom_site_fract_z
 _atom_site_occupancy
  La  La0  1  0.50000000  0.00000000  0.50000000  1
  La  La1  1  0.00000000  0.50000000  0.50000000  1
  La  La2  1  0.76274100  0.00000000  0.76274100  1
  La  La3  1  0.23725900  0.00000000  0.23725900  1
  La  La4  1  0.00000000  0.76274100  0.76274100  1
  La  La5  1  0.00000000  0.23725900  0.23725900  1
  La  La6  1  0.09565900  0.09566000  0.66933500  1
  La  La7  1  0.42632500  0.42632500  0.33066500  1
  La  La8  1  0.42632500  0.09566000  0.00000000  1
  La  La9  1  0.09565900  0.42632500  0.00000000  1
  La  La10  1  0.90434000  0.90434000  0.33066500  1
  La  La11  1  0.57367500  0.57367500  0.66933500  1
  La  La12  1  0.57367500  0.90434000  0.00000000  1
  La  La13  1  0.90434100  0.57367500  0.00000000  1
  La  La14  1  0.50000000  0.74911700  0.24911700  1
  La  La15  1  0.50000000  0.25088300  0.75088300  1
  La  La16  1  0.25088300  0.50000000  0.75088300  1
  La  La17  1  0.74911700  0.50000000  0.24911700  1
  In  In0  1  0.50000000  0.50000000  0.00000000  1
  In  In1  1  0.16371200  0.16371200  0.00000000  1
  In  In2  1  0.83628800  0.83628800  0.00000000  1
  Co  Co0  1  0.47506600  0.97881000  0.20484400  1
  Co  Co1  1  0.77396500  0.27022200  0.79515600  1
  Co  Co2  1  0.77396500  0.97881000  0.50374400  1
  Co  Co3  1  0.47506600  0.27022200  0.49625600  1
  Co  Co4  1  0.27022200  0.47506600  0.49625600  1
  Co  Co5  1  0.97881000  0.77396500  0.50374400  1
  Co  Co6  1  0.97881000  0.47506600  0.20484400  1
  Co  Co7  1  0.27022200  0.77396500  0.79515600  1
  Co  Co8  1  0.52493400  0.02119000  0.79515600  1
  Co  Co9  1  0.22603500  0.72977800  0.20484400  1
  Co  Co10  1  0.22603500  0.02119000  0.49625600  1
  Co  Co11  1  0.52493400  0.72977800  0.50374400  1
  Co  Co12  1  0.72977800  0.52493400  0.50374400  1
  Co  Co13  1  0.02119000  0.22603500  0.49625600  1
  Co  Co14  1  0.02119000  0.52493400  0.79515600  1
  Co  Co15  1  0.72977800  0.22603500  0.20484400  1
  Co  Co16  1  0.37702800  0.74945500  0.62757200  1
  Co  Co17  1  0.12188300  0.74945500  0.37242800  1
  Co  Co18  1  0.74945500  0.37702800  0.62757200  1
  Co  Co19  1  0.74945500  0.12188300  0.37242800  1
  Co  Co20  1  0.62297200  0.25054500  0.37242800  1
  Co  Co21  1  0.87811700  0.25054500  0.62757200  1
  Co  Co22  1  0.25054500  0.62297200  0.37242800  1
  Co  Co23  1  0.25054500  0.87811700  0.62757200  1
  Co  Co24  1  0.75556400  0.75556400  0.51112900  1
  Co  Co25  1  0.24443600  0.24443600  0.48887100  1
  Co  Co26  1  0.24443600  0.75556400  0.00000000  1
  Co  Co27  1  0.75556400  0.24443600  0.00000000  1
loop_
_geom_bond_atom_site_label_1
_geom_bond_atom_site_label_2
_geom_bond_distance
_geom_bond_site_symmetry_2
In0 In2 3.209513 1_555
In0 In1 3.209513 1_555
In0 La17 3.577220 1_555
In0 La14 3.577220 1_555
In0 La15 3.577220 1_554
In0 La16 3.577220 1_554
In0 La8 4.059073 1_555
In0 La11 4.059073 1_554
In0 La10 4.059073 1_555
In0 La12 4.059073 1_555
In0 La7 4.059073 1_555
In0 La6 4.059076 1_554
In0 La9 4.059085 1_555
In0 La13 4.059085 1_555
In1 In2 3.124916 1_445
In1 La6 3.483500 1_554
In1 La8 3.483501 1_555
In1 La7 3.483501 1_555
In1 La9 3.483510 1_555
In1 La4 3.748138 1_544
In1 La3 3.748138 1_555
In1 La2 3.748138 1_454
In1 La5 3.748138 1_555
In2 La10 3.483501 1_555
In2 La11 3.483501 1_554
In2 La12 3.483501 1_555
In2 La13 3.483510 1_555
In2 La5 3.748138 1_665
In2 La3 3.748138 1_665
In2 La4 3.748138 1_654
In2 La2 3.748138 1_564
Co0 Co9 2.376742 1_555
Co0 Co15 2.396435 1_565
Co0 Co26 2.396664 1_555
Co0 Co20 2.433743 1_565
Co0 Co19 2.468835 1_565
Co0 La14 2.880752 1_555
Co0 La3 2.904546 1_565
Co0 La12 2.934043 1_555
Co0 La8 2.974849 1_565
Co0 La0 3.224184 1_565
Co1 Co8 2.376742 1_555
Co1 Co14 2.396435 1_655
Co1 Co27 2.396662 1_556
Co1 Co21 2.433748 1_555
Co1 Co18 2.468839 1_555
Co1 La15 2.880741 1_555
Co1 La2 2.904553 1_555
Co1 La13 2.934034 1_556
Co1 La9 2.974849 1_656
Co1 La0 3.224182 1_555
Co2 Co24 2.396673 1_555
Co2 Co21 2.433735 1_565
Co2 La14 2.880748 1_555
Co2 La2 2.904543 1_565
Co2 La10 2.934052 1_555
Co2 La6 2.974849 1_665
Co2 La0 3.224173 1_565
Co3 La15 2.880752 1_555
Co3 La3 2.904546 1_555
Co3 La11 2.934043 1_555
Co3 La7 2.974849 1_555
Co3 La0 3.224184 1_555
Co4 La16 2.880752 1_555
Co4 La5 2.904546 1_555
Co4 La11 2.934043 1_555
Co4 La7 2.974849 1_555
Co4 La1 3.224184 1_555
Co5 La17 2.880748 1_555
Co5 La4 2.904543 1_655
Co5 La10 2.934052 1_555
Co5 La6 2.974863 1_665
Co5 La1 3.224173 1_655
Co6 Co9 2.396435 1_655
Co6 La17 2.880752 1_555
Co6 La5 2.904546 1_655
Co6 La13 2.934039 1_555
Co6 La9 2.974841 1_655
Co6 La1 3.224184 1_655
Co7 Co8 2.396435 1_565
Co7 La16 2.880741 1_555
Co7 La4 2.904553 1_555
Co7 La12 2.934039 1_556
Co7 La8 2.974857 1_566
Co7 La1 3.224182 1_555
Co8 La15 2.880752 1_555
Co8 La2 2.904546 1_555
Co8 La8 2.934043 1_556
Co8 La12 2.974849 1_546
Co8 La0 3.224184 1_555
Co9 La14 2.880741 1_555
Co9 La3 2.904553 1_565
Co9 La9 2.934034 1_555
Co9 La13 2.974849 1_455
Co9 La0 3.224182 1_565
Co10 Co3 2.376742 1_555
Co10 Co5 2.396440 1_445
Co10 Co25 2.396673 1_555
Co10 Co17 2.433735 1_545
Co10 Co23 2.468830 1_545
Co10 La15 2.880748 1_555
Co10 La3 2.904543 1_555
Co10 La6 2.934061 1_555
Co10 La10 2.974858 1_445
Co10 La0 3.224173 1_555
Co11 Co2 2.376742 1_555
Co11 Co4 2.396430 1_555
Co11 Co24 2.396662 1_555
Co11 Co16 2.433730 1_555
Co11 Co22 2.468830 1_555
Co11 La14 2.880752 1_555
Co11 La2 2.904546 1_565
Co11 La7 2.934043 1_555
Co11 La11 2.974849 1_555
Co11 La0 3.224184 1_565
Co12 Co5 2.376742 1_555
Co12 Co3 2.396430 1_555
Co12 Co24 2.396662 1_555
Co12 Co18 2.433730 1_555
Co12 Co20 2.468830 1_555
Co12 La17 2.880752 1_555
Co12 La4 2.904546 1_655
Co12 La7 2.934043 1_555
Co12 La11 2.974849 1_555
Co12 La1 3.224184 1_655
Co13 Co4 2.376742 1_555
Co13 Co2 2.396440 1_445
Co13 Co25 2.396673 1_555
Co13 Co19 2.433735 1_455
Co13 Co21 2.468830 1_455
Co13 La16 2.880748 1_555
Co13 La5 2.904543 1_555
Co13 La6 2.934047 1_555
Co13 La10 2.974858 1_445
Co13 La1 3.224173 1_555
Co14 Co7 2.376742 1_555
Co14 Co26 2.396664 1_556
Co14 Co18 2.433743 1_455
Co14 Co21 2.468835 1_455
Co14 La16 2.880752 1_555
Co14 La4 2.904546 1_555
Co14 La9 2.934039 1_556
Co14 La13 2.974841 1_456
Co14 La1 3.224184 1_555
Co15 Co6 2.376742 1_555
Co15 Co27 2.396662 1_555
Co15 Co19 2.433748 1_555
Co15 Co20 2.468839 1_555
Co15 La17 2.880741 1_555
Co15 La5 2.904553 1_655
Co15 La8 2.934039 1_555
Co15 La12 2.974857 1_545
Co15 La1 3.224182 1_655
Co16 Co8 2.433743 1_565
Co16 Co4 2.468830 1_555
Co16 Co7 2.468839 1_555
Co16 Co22 2.590694 1_555
Co16 Co23 2.590704 1_555
Co16 La16 2.967069 1_555
Co16 La1 3.003993 1_555
Co16 La0 3.012237 1_565
Co16 La2 3.079789 1_565
Co17 Co9 2.433748 1_555
Co17 Co5 2.468830 1_455
Co17 Co6 2.468835 1_455
Co17 Co23 2.590694 1_555
Co17 Co22 2.590704 1_555
Co17 La17 2.967069 1_455
Co17 La1 3.003985 1_555
Co17 La0 3.012237 1_565
Co17 La3 3.079797 1_565
Co18 Co3 2.468830 1_555
Co18 Co20 2.590694 1_555
Co18 Co21 2.590704 1_555
Co18 La15 2.967069 1_555
Co18 La0 3.003993 1_555
Co18 La1 3.012237 1_655
Co18 La4 3.079789 1_655
Co19 Co2 2.468830 1_545
Co19 Co21 2.590694 1_555
Co19 Co20 2.590704 1_555
Co19 La14 2.967069 1_545
Co19 La0 3.003985 1_555
Co19 La1 3.012237 1_655
Co19 La5 3.079797 1_655
Co20 Co3 2.433730 1_555
Co20 La17 2.967069 1_555
Co20 La1 3.003993 1_655
Co20 La0 3.012237 1_555
Co20 La3 3.079789 1_555
Co21 La16 2.967069 1_655
Co21 La1 3.003985 1_655
Co21 La0 3.012237 1_555
Co21 La2 3.079797 1_555
Co22 Co4 2.433730 1_555
Co22 Co6 2.433743 1_455
Co22 Co9 2.468839 1_555
Co22 La14 2.967069 1_555
Co22 La0 3.003993 1_565
Co22 La1 3.012237 1_555
Co22 La5 3.079789 1_555
Co23 Co5 2.433735 1_455
Co23 Co7 2.433748 1_555
Co23 Co8 2.468835 1_565
Co23 La15 2.967069 1_565
Co23 La0 3.003985 1_565
Co23 La1 3.012237 1_555
Co23 La4 3.079797 1_555
Co24 Co5 2.396673 1_555
Co24 La7 2.925906 1_555
Co24 La10 2.925914 1_555
Co24 La11 2.963954 1_555
Co24 La6 2.963958 1_665
Co25 Co4 2.396662 1_555
Co25 Co3 2.396662 1_555
Co25 La11 2.925906 1_555
Co25 La6 2.925917 1_555
Co25 La7 2.963954 1_555
Co25 La10 2.963962 1_445
Co26 Co7 2.396662 1_554
Co26 Co9 2.396662 1_555
Co26 La9 2.925901 1_555
Co26 La12 2.925904 1_555
Co26 La13 2.963954 1_455
Co26 La8 2.963964 1_565
Co27 Co6 2.396664 1_555
Co27 Co8 2.396664 1_554
Co27 La13 2.925901 1_555
Co27 La8 2.925904 1_555
Co27 La9 2.963954 1_655
Co27 La12 2.963964 1_545
