# generated using pymatgen
data_Li4CrO5
_symmetry_space_group_name_H-M   'P 1'
_cell_length_a   4.99458200
_cell_length_b   5.11588724
_cell_length_c   7.56572525
_cell_angle_alpha   106.33161807
_cell_angle_beta   102.92173097
_cell_angle_gamma   102.24177094
_symmetry_Int_Tables_number   1
_chemical_formula_structural   Li4CrO5
_chemical_formula_sum   'Li8 Cr2 O10'
_cell_volume   172.83221378
_cell_formula_units_Z   2
loop_
 _symmetry_equiv_pos_site_id
 _symmetry_equiv_pos_as_xyz
  1  'x, y, z'
loop_
 _atom_site_type_symbol
 _atom_site_label
 _atom_site_symmetry_multiplicity
 _atom_site_fract_x
 _atom_site_fract_y
 _atom_site_fract_z
 _atom_site_occupancy
  Li  Li0  1  0.88066500  0.48243800  0.70640700  1
  Li  Li1  1  0.50000000  0.50000000  0.50000000  1
  Li  Li2  1  0.50000000  0.00000000  0.00000000  1
  Li  Li3  1  0.30454400  0.48802500  0.90353800  1
  Li  Li4  1  0.29268400  0.99284900  0.38979700  1
  Li  Li5  1  0.70731600  0.00715100  0.61020300  1
  Li  Li6  1  0.69545600  0.51197500  0.09646200  1
  Li  Li7  1  0.11933500  0.51756200  0.29359300  1
  Cr  Cr0  1  0.87383600  0.03179700  0.21831700  1
  Cr  Cr1  1  0.12616400  0.96820300  0.78168300  1
  O  O0  1  0.89777400  0.21967400  0.97765300  1
  O  O1  1  0.53915200  0.76848300  0.24553000  1
  O  O2  1  0.90509000  0.76790100  0.41322600  1
  O  O3  1  0.28583800  0.77130300  0.65992300  1
  O  O4  1  0.74495500  0.76927600  0.84193300  1
  O  O5  1  0.25504500  0.23072400  0.15806700  1
  O  O6  1  0.71416200  0.22869700  0.34007700  1
  O  O7  1  0.09491000  0.23209900  0.58677400  1
  O  O8  1  0.46084800  0.23151700  0.75447000  1
  O  O9  1  0.10222600  0.78032600  0.02234700  1
loop_
_geom_bond_atom_site_label_1
_geom_bond_atom_site_label_2
_geom_bond_distance
_geom_bond_site_symmetry_2
Li0 O4 1.884297 1_555
Li0 O7 1.991705 1_655
Li0 Li5 2.240921 1_555
Li1 O3 2.190543 1_555
Li1 O6 2.190543 1_555
Li1 Li5 2.399359 1_565
Li1 Li4 2.399359 1_545
Li1 O7 2.515376 1_555
Li1 O2 2.515376 1_555
Li2 O0 2.132804 1_554
Li2 O9 2.132804 1_545
Li2 O5 2.189323 1_555
Li2 O4 2.189323 1_544
Li2 O6 2.382947 1_555
Li2 O3 2.382947 1_544
Li2 O8 2.462707 1_554
Li2 O1 2.462707 1_545
Li3 O8 1.897189 1_555
Li3 O9 2.087182 1_556
Li3 O7 2.255152 1_555
Li4 O2 2.103997 1_455
Li4 O1 2.125975 1_555
Li4 O7 2.200010 1_565
Li4 Li7 2.240921 1_555
Li4 Li5 2.323223 1_565
Li4 O6 2.358192 1_565
Li4 O5 2.395730 1_565
Li4 O8 2.538226 1_565
Li4 O9 2.548398 1_555
Li4 O3 2.603841 1_555
Li5 O7 2.103997 1_655
Li5 O8 2.125975 1_555
Li5 O2 2.200010 1_545
Li5 O3 2.358192 1_545
Li5 O4 2.395730 1_545
Li5 O1 2.538226 1_545
Li5 O0 2.548398 1_555
Li5 O6 2.603841 1_555
Li6 O1 1.897189 1_555
Li6 O0 2.087182 1_554
Li6 O2 2.255152 1_555
Li7 O5 1.884297 1_555
Li7 O2 1.991705 1_455
Cr0 O6 1.626867 1_555
Cr0 O1 2.001566 1_545
Cr0 Li2 2.140495 1_555
Cr0 O2 2.264424 1_545
Cr0 Li4 2.282001 1_645
Cr0 O7 2.564616 1_655
Cr1 O3 1.626867 1_555
Cr1 O8 2.001566 1_565
Cr1 Li2 2.140495 1_566
Cr1 O7 2.264424 1_565
Cr1 Li5 2.282001 1_465
Cr1 O2 2.564616 1_455
O1 O2 1.979283 1_555
O7 O8 1.979283 1_555
