# generated using pymatgen
data_LaNb8O14
_symmetry_space_group_name_H-M   'P 1'
_cell_length_a   6.04589700
_cell_length_b   9.28774200
_cell_length_c   10.41132400
_cell_angle_alpha   90.00000000
_cell_angle_beta   90.00000000
_cell_angle_gamma   90.00000000
_symmetry_Int_Tables_number   1
_chemical_formula_structural   LaNb8O14
_chemical_formula_sum   'La2 Nb16 O28'
_cell_volume   584.62428108
_cell_formula_units_Z   2
loop_
 _symmetry_equiv_pos_site_id
 _symmetry_equiv_pos_as_xyz
  1  'x, y, z'
loop_
 _atom_site_type_symbol
 _atom_site_label
 _atom_site_symmetry_multiplicity
 _atom_site_fract_x
 _atom_site_fract_y
 _atom_site_fract_z
 _atom_site_occupancy
  La  La0  1  0.50000000  0.00000000  0.00000000  1
  La  La1  1  0.50000000  0.50000000  0.50000000  1
  Nb  Nb0  1  0.26905200  0.12575600  0.42320500  1
  Nb  Nb1  1  0.73094800  0.87424400  0.57679500  1
  Nb  Nb2  1  0.26905200  0.87424400  0.57679500  1
  Nb  Nb3  1  0.73094800  0.37424400  0.92320500  1
  Nb  Nb4  1  0.73094800  0.12575600  0.42320500  1
  Nb  Nb5  1  0.26905200  0.62575600  0.07679500  1
  Nb  Nb6  1  0.73094800  0.62575600  0.07679500  1
  Nb  Nb7  1  0.26905200  0.37424400  0.92320500  1
  Nb  Nb8  1  0.50000000  0.38028900  0.16411600  1
  Nb  Nb9  1  0.50000000  0.61971100  0.83588400  1
  Nb  Nb10  1  0.50000000  0.11971100  0.66411600  1
  Nb  Nb11  1  0.50000000  0.88028900  0.33588400  1
  Nb  Nb12  1  0.00000000  0.11502600  0.16469600  1
  Nb  Nb13  1  0.00000000  0.88497400  0.83530400  1
  Nb  Nb14  1  0.00000000  0.38497400  0.66469600  1
  Nb  Nb15  1  0.00000000  0.61502600  0.33530400  1
  O  O0  1  0.00000000  0.23498200  0.32071600  1
  O  O1  1  0.00000000  0.76501800  0.67928400  1
  O  O2  1  0.00000000  0.26501800  0.82071600  1
  O  O3  1  0.00000000  0.73498200  0.17928400  1
  O  O4  1  0.26054400  0.23394800  0.08307900  1
  O  O5  1  0.73945600  0.76605200  0.91692100  1
  O  O6  1  0.26054400  0.76605200  0.91692100  1
  O  O7  1  0.73945600  0.26605200  0.58307900  1
  O  O8  1  0.73945600  0.23394800  0.08307900  1
  O  O9  1  0.26054400  0.73394800  0.41692100  1
  O  O10  1  0.73945600  0.73394800  0.41692100  1
  O  O11  1  0.26054400  0.26605200  0.58307900  1
  O  O12  1  0.00000000  0.00000000  0.50000000  1
  O  O13  1  0.00000000  0.50000000  0.00000000  1
  O  O14  1  0.50000000  0.27153100  0.35343400  1
  O  O15  1  0.50000000  0.72846900  0.64656600  1
  O  O16  1  0.50000000  0.22846900  0.85343400  1
  O  O17  1  0.50000000  0.77153100  0.14656600  1
  O  O18  1  0.25654600  0.00411600  0.24578000  1
  O  O19  1  0.74345400  0.99588400  0.75422000  1
  O  O20  1  0.25654600  0.99588400  0.75422000  1
  O  O21  1  0.74345400  0.49588400  0.74578000  1
  O  O22  1  0.74345400  0.00411600  0.24578000  1
  O  O23  1  0.25654600  0.50411600  0.25422000  1
  O  O24  1  0.74345400  0.50411600  0.25422000  1
  O  O25  1  0.25654600  0.49588400  0.74578000  1
  O  O26  1  0.00000000  0.00000000  0.00000000  1
  O  O27  1  0.00000000  0.50000000  0.50000000  1
loop_
_geom_bond_atom_site_label_1
_geom_bond_atom_site_label_2
_geom_bond_distance
_geom_bond_site_symmetry_2
La0 O16 2.613662 1_554
La0 O17 2.613662 1_545
La0 O8 2.750517 1_555
La0 O4 2.750517 1_555
La0 O6 2.750517 1_544
La0 O5 2.750517 1_544
La0 O22 2.952268 1_555
La0 O19 2.952268 1_544
La0 O18 2.952268 1_555
La0 O20 2.952268 1_544
La0 O26 3.022949 1_555
La0 O26 3.022949 1_655
La1 O14 2.613662 1_555
La1 O15 2.613662 1_555
La1 O7 2.750517 1_555
La1 O11 2.750517 1_555
La1 O9 2.750517 1_555
La1 O10 2.750517 1_555
La1 O24 2.952268 1_555
La1 O21 2.952268 1_555
La1 O25 2.952268 1_555
La1 O23 2.952268 1_555
La1 O27 3.022949 1_655
La1 O27 3.022949 1_555
Nb0 O14 2.076148 1_555
Nb0 O11 2.114498 1_555
Nb0 O12 2.156266 1_555
Nb0 O18 2.166641 1_555
Nb0 O0 2.194025 1_555
Nb1 O15 2.076148 1_555
Nb1 O10 2.114498 1_555
Nb1 O12 2.156266 1_665
Nb1 O19 2.166641 1_555
Nb1 O1 2.194025 1_655
Nb2 O15 2.076148 1_555
Nb2 O9 2.114498 1_555
Nb2 O12 2.156266 1_565
Nb2 O20 2.166641 1_555
Nb2 O1 2.194025 1_555
Nb3 O16 2.076148 1_555
Nb3 O8 2.114498 1_556
Nb3 O13 2.156266 1_656
Nb3 O21 2.166641 1_555
Nb3 O2 2.194025 1_655
Nb4 O14 2.076148 1_555
Nb4 O7 2.114498 1_555
Nb4 O12 2.156266 1_655
Nb4 O22 2.166641 1_555
Nb4 O0 2.194025 1_655
Nb5 O17 2.076148 1_555
Nb5 O6 2.114498 1_554
Nb5 O13 2.156266 1_555
Nb5 O23 2.166641 1_555
Nb5 O3 2.194025 1_555
Nb6 O17 2.076148 1_555
Nb6 O5 2.114498 1_554
Nb6 O13 2.156266 1_655
Nb6 O24 2.166641 1_555
Nb6 O3 2.194025 1_655
Nb7 O16 2.076148 1_555
Nb7 O4 2.114498 1_556
Nb7 O13 2.156266 1_556
Nb7 O25 2.166641 1_555
Nb7 O2 2.194025 1_555
Nb8 O24 2.090260 1_555
Nb8 O23 2.090260 1_555
Nb8 O4 2.157570 1_555
Nb8 O8 2.157570 1_555
Nb8 O14 2.214809 1_555
Nb9 O25 2.090260 1_555
Nb9 O21 2.090260 1_555
Nb9 O6 2.157570 1_555
Nb9 O5 2.157570 1_555
Nb9 O15 2.214809 1_555
Nb10 O19 2.090260 1_545
Nb10 O20 2.090260 1_545
Nb10 O11 2.157570 1_555
Nb10 O7 2.157570 1_555
Nb10 O16 2.214809 1_555
Nb11 O22 2.090260 1_565
Nb11 O18 2.090260 1_565
Nb11 O9 2.157570 1_555
Nb11 O10 2.157570 1_555
Nb11 O17 2.214809 1_555
Nb12 O0 1.969735 1_555
Nb12 O26 2.020282 1_555
Nb12 O18 2.044390 1_555
Nb12 O22 2.044390 1_455
Nb12 O4 2.103174 1_555
Nb12 O8 2.103174 1_455
Nb13 O1 1.969735 1_555
Nb13 O26 2.020282 1_566
Nb13 O20 2.044390 1_555
Nb13 O19 2.044390 1_455
Nb13 O5 2.103174 1_455
Nb13 O6 2.103174 1_555
Nb14 O2 1.969735 1_555
Nb14 O27 2.020282 1_555
Nb14 O25 2.044390 1_555
Nb14 O21 2.044390 1_455
Nb14 O7 2.103174 1_455
Nb14 O11 2.103174 1_555
Nb15 O3 1.969735 1_555
Nb15 O27 2.020282 1_555
Nb15 O23 2.044390 1_555
Nb15 O24 2.044390 1_455
Nb15 O9 2.103174 1_555
Nb15 O10 2.103174 1_455
