# generated using pymatgen
data_HfCrS4
_symmetry_space_group_name_H-M   'P 1'
_cell_length_a   7.04678745
_cell_length_b   7.04625049
_cell_length_c   6.96048592
_cell_angle_alpha   60.54378729
_cell_angle_beta   60.54276261
_cell_angle_gamma   61.67685884
_symmetry_Int_Tables_number   1
_chemical_formula_structural   HfCrS4
_chemical_formula_sum   'Hf2 Cr2 S8'
_cell_volume   249.39408960
_cell_formula_units_Z   2
loop_
 _symmetry_equiv_pos_site_id
 _symmetry_equiv_pos_as_xyz
  1  'x, y, z'
loop_
 _atom_site_type_symbol
 _atom_site_label
 _atom_site_symmetry_multiplicity
 _atom_site_fract_x
 _atom_site_fract_y
 _atom_site_fract_z
 _atom_site_occupancy
  Hf  Hf0  1  0.00005800  0.49999800  0.50017000  1
  Hf  Hf1  1  0.50004600  0.00010100  0.50010500  1
  Cr  Cr0  1  0.50022200  0.50011400  0.49986600  1
  Cr  Cr1  1  0.49975100  0.49979500  0.00008800  1
  S  S0  1  0.74358300  0.74361100  0.76198000  1
  S  S1  1  0.25640700  0.25640400  0.74941500  1
  S  S2  1  0.27923400  0.72961400  0.24552300  1
  S  S3  1  0.72958400  0.27923500  0.24551200  1
  S  S4  1  0.72080500  0.27026200  0.75438300  1
  S  S5  1  0.27022100  0.72082300  0.75441100  1
  S  S6  1  0.25633000  0.25632400  0.23812500  1
  S  S7  1  0.74375200  0.74372400  0.25041100  1
loop_
_geom_bond_atom_site_label_1
_geom_bond_atom_site_label_2
_geom_bond_distance
_geom_bond_site_symmetry_2
Hf0 S2 2.529781 1_555
Hf0 S4 2.530734 1_455
Hf0 S0 2.535207 1_455
Hf0 S1 2.535870 1_555
Hf0 S6 2.536598 1_555
Hf0 S7 2.538163 1_455
Hf1 S3 2.529172 1_555
Hf1 S5 2.531257 1_545
Hf1 S0 2.535282 1_545
Hf1 S1 2.535815 1_555
Hf1 S6 2.536598 1_555
Hf1 S7 2.538072 1_545
Cr0 S4 2.382300 1_555
Cr0 S3 2.382792 1_555
Cr0 S5 2.382946 1_555
Cr0 S2 2.383393 1_555
Cr0 S7 2.416506 1_555
Cr0 S1 2.418401 1_555
Cr1 S5 2.382574 1_554
Cr1 S4 2.382601 1_554
Cr1 S2 2.382767 1_555
Cr1 S3 2.382903 1_555
Cr1 S6 2.414984 1_555
Cr1 S0 2.418761 1_554
