# generated using pymatgen
data_Rb2U(PdS2)3
_symmetry_space_group_name_H-M   'P 1'
_cell_length_a   11.28360490
_cell_length_b   9.78587278
_cell_length_c   8.92000653
_cell_angle_alpha   74.03779606
_cell_angle_beta   56.49377968
_cell_angle_gamma   49.46842426
_symmetry_Int_Tables_number   1
_chemical_formula_structural   Rb2U(PdS2)3
_chemical_formula_sum   'Rb4 U2 Pd6 S12'
_cell_volume   618.73412937
_cell_formula_units_Z   2
loop_
 _symmetry_equiv_pos_site_id
 _symmetry_equiv_pos_as_xyz
  1  'x, y, z'
loop_
 _atom_site_type_symbol
 _atom_site_label
 _atom_site_symmetry_multiplicity
 _atom_site_fract_x
 _atom_site_fract_y
 _atom_site_fract_z
 _atom_site_occupancy
  Rb  Rb0  1  0.75000000  0.75000000  0.75000000  1
  Rb  Rb1  1  0.25000000  0.25000000  0.25000000  1
  Rb  Rb2  1  0.29648800  0.70351200  0.29648800  1
  Rb  Rb3  1  0.70351200  0.29648800  0.70351200  1
  U  U0  1  0.83205400  0.83205400  0.16794600  1
  U  U1  1  0.16794600  0.16794600  0.83205400  1
  Pd  Pd0  1  0.50372400  0.17762200  0.49627600  1
  Pd  Pd1  1  0.82237800  0.49627600  0.17762200  1
  Pd  Pd2  1  0.49627600  0.82237800  0.50372400  1
  Pd  Pd3  1  0.17762200  0.50372400  0.82237800  1
  Pd  Pd4  1  0.82699400  0.17300600  0.17300600  1
  Pd  Pd5  1  0.17300600  0.82699400  0.82699400  1
  S  S0  1  0.81985400  0.97543500  0.39720400  1
  S  S1  1  0.80750700  0.39720400  0.97543500  1
  S  S2  1  0.39720400  0.80750700  0.81985400  1
  S  S3  1  0.97543500  0.81985400  0.80750700  1
  S  S4  1  0.18014600  0.02456500  0.60279600  1
  S  S5  1  0.19249300  0.60279600  0.02456500  1
  S  S6  1  0.60279600  0.19249300  0.18014600  1
  S  S7  1  0.02456500  0.18014600  0.19249300  1
  S  S8  1  0.81119300  0.59621000  0.40379000  1
  S  S9  1  0.18880700  0.40379000  0.59621000  1
  S  S10  1  0.40379000  0.18880700  0.81119300  1
  S  S11  1  0.59621000  0.81119300  0.18880700  1
loop_
_geom_bond_atom_site_label_1
_geom_bond_atom_site_label_2
_geom_bond_distance
_geom_bond_site_symmetry_2
Rb0 S1 3.330830 1_555
Rb0 S2 3.330830 1_555
Rb0 S0 3.330830 1_555
Rb0 S3 3.330830 1_555
Rb0 S9 3.336173 1_655
Rb0 S10 3.336173 1_565
Rb0 S11 3.336173 1_556
Rb0 S8 3.336173 1_555
Rb1 S6 3.330830 1_555
Rb1 S4 3.330830 1_555
Rb1 S7 3.330830 1_555
Rb1 S5 3.330830 1_555
Rb1 S8 3.336173 1_455
Rb1 S11 3.336173 1_545
Rb1 S10 3.336173 1_554
Rb1 S9 3.336173 1_555
Rb2 S9 3.736219 1_555
Rb2 S11 3.736219 1_555
Rb2 S7 3.767242 1_565
Rb2 S0 3.767242 1_455
Rb2 S5 3.767242 1_555
Rb2 S2 3.767242 1_554
Rb2 S3 3.802650 1_455
Rb2 S1 3.802650 1_554
Rb2 S4 3.802650 1_565
Rb2 S6 3.802650 1_555
Rb3 S10 3.736219 1_555
Rb3 S8 3.736219 1_555
Rb3 S6 3.767242 1_556
Rb3 S4 3.767242 1_655
Rb3 S1 3.767242 1_555
Rb3 S3 3.767242 1_545
Rb3 S5 3.802650 1_556
Rb3 S0 3.802650 1_545
Rb3 S2 3.802650 1_555
Rb3 S7 3.802650 1_655
Pd0 S9 2.384507 1_555
Pd0 S10 2.384507 1_555
Pd0 S0 2.393323 1_545
Pd0 S6 2.393323 1_555
Pd1 S8 2.384507 1_555
Pd1 S11 2.384507 1_555
Pd1 S7 2.393323 1_655
Pd1 S1 2.393323 1_554
Pd2 S11 2.384507 1_555
Pd2 S8 2.384507 1_555
Pd2 S4 2.393323 1_565
Pd2 S2 2.393323 1_555
Pd3 S10 2.384507 1_555
Pd3 S9 2.384507 1_555
Pd3 S5 2.393323 1_556
Pd3 S3 2.393323 1_455
Pd4 S7 2.375268 1_655
Pd4 S1 2.375268 1_554
Pd4 S0 2.375268 1_545
Pd4 S6 2.375268 1_555
Pd5 S5 2.375268 1_556
Pd5 S4 2.375268 1_565
Pd5 S3 2.375268 1_455
Pd5 S2 2.375268 1_555
S0 U0 2.680656 1_555
S1 U1 2.680656 1_655
S2 U1 2.680656 1_565
S3 U0 2.680656 1_556
S4 U1 2.680656 1_555
S5 U0 2.680656 1_455
S6 U0 2.680656 1_545
S7 U1 2.680656 1_554
S8 U0 2.701224 1_555
S9 U1 2.701224 1_555
S10 U1 2.701224 1_555
S11 U0 2.701224 1_555
