# generated using pymatgen
data_MgMn2O4
_symmetry_space_group_name_H-M   'P 1'
_cell_length_a   6.04304639
_cell_length_b   6.04304639
_cell_length_c   14.82043093
_cell_angle_alpha   89.98241890
_cell_angle_beta   89.98241890
_cell_angle_gamma   60.22087484
_symmetry_Int_Tables_number   1
_chemical_formula_structural   MgMn2O4
_chemical_formula_sum   'Mg6 Mn12 O24'
_cell_volume   469.74871193
_cell_formula_units_Z   6
loop_
 _symmetry_equiv_pos_site_id
 _symmetry_equiv_pos_as_xyz
  1  'x, y, z'
loop_
 _atom_site_type_symbol
 _atom_site_label
 _atom_site_symmetry_multiplicity
 _atom_site_fract_x
 _atom_site_fract_y
 _atom_site_fract_z
 _atom_site_occupancy
  Mg  Mg0  1  0.84267900  0.84267900  0.95809400  1
  Mg  Mg1  1  0.16552600  0.16552600  0.66654700  1
  Mg  Mg2  1  0.33314300  0.33314300  0.83316400  1
  Mg  Mg3  1  0.83398400  0.83398400  0.33389400  1
  Mg  Mg4  1  0.99978500  0.99978500  0.50016600  1
  Mg  Mg5  1  0.66693100  0.66693100  0.16656000  1
  Mn  Mn0  1  0.83442600  0.33504000  0.83302800  1
  Mn  Mn1  1  0.50687000  0.50687000  0.62091300  1
  Mn  Mn2  1  0.49992800  0.49992800  0.99899000  1
  Mn  Mn3  1  0.33504000  0.83442600  0.83302800  1
  Mn  Mn4  1  0.50016100  0.99960900  0.50029200  1
  Mn  Mn5  1  0.17423600  0.17423600  0.29113100  1
  Mn  Mn6  1  0.99960900  0.50016100  0.50029200  1
  Mn  Mn7  1  0.16302600  0.66607100  0.16693900  1
  Mn  Mn8  1  0.82583100  0.82583100  0.70978900  1
  Mn  Mn9  1  0.66607100  0.16302600  0.16693900  1
  Mn  Mn10  1  0.49258500  0.49258500  0.37832400  1
  Mn  Mn11  1  0.16011000  0.16011000  0.04217100  1
  O  O0  1  0.65880400  0.20775200  0.91493700  1
  O  O1  1  0.50725700  0.50725700  0.76250300  1
  O  O2  1  0.20775200  0.65880400  0.91493700  1
  O  O3  1  0.65713000  0.65713000  0.91394800  1
  O  O4  1  0.32962400  0.86855900  0.57601200  1
  O  O5  1  0.00882200  0.00882200  0.75948900  1
  O  O6  1  0.17471700  0.17471700  0.42916700  1
  O  O7  1  0.46697100  0.00273000  0.75889800  1
  O  O8  1  0.86855900  0.32962400  0.57601200  1
  O  O9  1  0.15901400  0.15901400  0.90431600  1
  O  O10  1  0.32026100  0.32026100  0.57455000  1
  O  O11  1  0.00273000  0.46697100  0.75889800  1
  O  O12  1  0.99590900  0.53258100  0.24106900  1
  O  O13  1  0.67919100  0.67919100  0.42596000  1
  O  O14  1  0.13153900  0.66962700  0.42439200  1
  O  O15  1  0.53258100  0.99590900  0.24106900  1
  O  O16  1  0.84035100  0.84035100  0.09420600  1
  O  O17  1  0.82507200  0.82507200  0.57153600  1
  O  O18  1  0.99117000  0.99117000  0.24145900  1
  O  O19  1  0.66962700  0.13153900  0.42439200  1
  O  O20  1  0.34589100  0.34589100  0.08568200  1
  O  O21  1  0.78836700  0.34259700  0.08478700  1
  O  O22  1  0.49126100  0.49126100  0.23663300  1
  O  O23  1  0.34259700  0.78836700  0.08478700  1
loop_
_geom_bond_atom_site_label_1
_geom_bond_atom_site_label_2
_geom_bond_distance
_geom_bond_site_symmetry_2
Mg0 O16 2.017377 1_556
Mg0 O2 2.018774 1_655
Mg0 O0 2.018774 1_565
Mg0 O3 2.047528 1_555
Mg1 O4 2.058447 1_545
Mg1 O8 2.058447 1_455
Mg1 O7 2.092867 1_555
Mg1 O11 2.092867 1_555
Mg1 O10 2.115329 1_555
Mg1 O5 2.140094 1_555
Mg2 O7 2.061335 1_555
Mg2 O11 2.061335 1_555
Mg2 O1 2.099803 1_555
Mg2 O9 2.103575 1_555
Mg2 O0 2.106064 1_555
Mg2 O2 2.106064 1_555
Mg3 O14 2.060415 1_655
Mg3 O19 2.060415 1_565
Mg3 O15 2.097116 1_555
Mg3 O12 2.097116 1_555
Mg3 O13 2.116452 1_555
Mg3 O18 2.139135 1_555
Mg4 O8 2.072708 1_565
Mg4 O4 2.072708 1_655
Mg4 O14 2.073315 1_655
Mg4 O19 2.073315 1_565
Mg4 O6 2.109713 1_665
Mg4 O17 2.110477 1_555
Mg5 O15 2.056291 1_555
Mg5 O12 2.056291 1_555
Mg5 O23 2.102603 1_555
Mg5 O21 2.102603 1_555
Mg5 O16 2.106172 1_555
Mg5 O22 2.109618 1_555
Mn0 O11 1.918671 1_655
Mn0 O0 2.000293 1_555
Mn0 O9 2.005807 1_655
Mn0 O1 2.010280 1_555
Mn0 O5 2.030187 1_655
Mn0 O3 2.074571 1_555
Mn1 O8 2.010340 1_555
Mn1 O4 2.010340 1_555
Mn1 O10 2.068723 1_555
Mn1 O1 2.098430 1_555
Mn2 O0 1.976812 1_555
Mn2 O2 1.976812 1_555
Mn2 O23 1.978251 1_556
Mn2 O21 1.978251 1_556
Mn2 O20 2.059841 1_556
Mn2 O3 2.070841 1_555
Mn3 O7 1.918671 1_565
Mn3 O2 2.000293 1_555
Mn3 O9 2.005807 1_565
Mn3 O1 2.010280 1_555
Mn3 O5 2.030187 1_565
Mn3 O3 2.074571 1_555
Mn4 O4 1.938558 1_555
Mn4 O19 1.938935 1_565
Mn4 O17 2.006483 1_555
Mn4 O6 2.008006 1_565
Mn4 O13 2.013220 1_555
Mn4 O10 2.013922 1_565
Mn5 O15 2.020553 1_545
Mn5 O12 2.020553 1_455
Mn5 O6 2.045761 1_555
Mn5 O18 2.050925 1_445
Mn6 O8 1.938558 1_555
Mn6 O14 1.938935 1_655
Mn6 O17 2.006483 1_555
Mn6 O6 2.008006 1_655
Mn6 O13 2.013220 1_555
Mn6 O10 2.013922 1_655
Mn7 O12 1.919801 1_455
Mn7 O23 2.000342 1_555
Mn7 O16 2.008502 1_455
Mn7 O22 2.009095 1_555
Mn7 O18 2.032701 1_455
Mn7 O20 2.071683 1_555
Mn8 O11 2.017945 1_655
Mn8 O7 2.017945 1_565
Mn8 O17 2.048987 1_555
Mn8 O5 2.050342 1_665
Mn9 O15 1.919801 1_545
Mn9 O21 2.000342 1_555
Mn9 O16 2.008502 1_545
Mn9 O22 2.009095 1_555
Mn9 O18 2.032701 1_545
Mn9 O20 2.071683 1_555
Mn10 O19 2.012951 1_555
Mn10 O14 2.012951 1_555
Mn10 O13 2.075043 1_555
Mn10 O22 2.099972 1_555
Mn11 O9 2.043107 1_554
Mn11 O20 2.046839 1_555
Mn11 O21 2.049482 1_455
Mn11 O23 2.049482 1_545
