# generated using pymatgen
data_KInAs3H7O13
_symmetry_space_group_name_H-M   'P 1'
_cell_length_a   4.92293189
_cell_length_b   8.84278200
_cell_length_c   14.30814674
_cell_angle_alpha   90.00000000
_cell_angle_beta   94.50409601
_cell_angle_gamma   90.00000000
_symmetry_Int_Tables_number   1
_chemical_formula_structural   KInAs3H7O13
_chemical_formula_sum   'K2 In2 As6 H14 O26'
_cell_volume   620.94457079
_cell_formula_units_Z   2
loop_
 _symmetry_equiv_pos_site_id
 _symmetry_equiv_pos_as_xyz
  1  'x, y, z'
loop_
 _atom_site_type_symbol
 _atom_site_label
 _atom_site_symmetry_multiplicity
 _atom_site_fract_x
 _atom_site_fract_y
 _atom_site_fract_z
 _atom_site_occupancy
  K  K0  1  0.15065100  0.00588400  0.51052800  1
  K  K1  1  0.65065100  0.99411600  0.01052800  1
  In  In0  1  0.24960000  0.22897900  0.75344000  1
  In  In1  1  0.74960000  0.77102100  0.25344000  1
  As  As0  1  0.69956000  0.34607000  0.59796800  1
  As  As1  1  0.29632300  0.64245600  0.40373900  1
  As  As2  1  0.79632300  0.35754400  0.90373900  1
  As  As3  1  0.19956000  0.65393000  0.09796800  1
  As  As4  1  0.74829000  0.95762900  0.74729300  1
  As  As5  1  0.24829000  0.04237100  0.24729300  1
  H  H0  1  0.39309700  0.33838400  0.47166000  1
  H  H1  1  0.60408400  0.67626900  0.52917400  1
  H  H2  1  0.10408400  0.32373100  0.02917400  1
  H  H3  1  0.89309700  0.66161600  0.97166000  1
  H  H4  1  0.47495000  0.77046300  0.80483300  1
  H  H5  1  0.51445200  0.23187800  0.19245200  1
  H  H6  1  0.01445200  0.76812200  0.69245200  1
  H  H7  1  0.97495000  0.22953700  0.30483300  1
  H  H8  1  0.34813300  0.58664800  0.71106800  1
  H  H9  1  0.64675900  0.41565800  0.28911100  1
  H  H10  1  0.14675900  0.58434200  0.78911100  1
  H  H11  1  0.84813300  0.41335200  0.21106800  1
  H  H12  1  0.97496000  0.49820200  0.50946200  1
  H  H13  1  0.47496000  0.50179800  0.00946200  1
  O  O0  1  0.82119100  0.51808900  0.55722200  1
  O  O1  1  0.18470200  0.47520900  0.44645500  1
  O  O2  1  0.68470200  0.52479100  0.94645500  1
  O  O3  1  0.32119100  0.48191100  0.05722200  1
  O  O4  1  0.48801000  0.05313400  0.68772500  1
  O  O5  1  0.50327700  0.94906200  0.30979000  1
  O  O6  1  0.00327700  0.05093800  0.80979000  1
  O  O7  1  0.98801000  0.94686600  0.18772500  1
  O  O8  1  0.48541800  0.39973600  0.68060300  1
  O  O9  1  0.51655700  0.59879300  0.32013400  1
  O  O10  1  0.01655700  0.40120700  0.82013400  1
  O  O11  1  0.98541800  0.60026400  0.18060300  1
  O  O12  1  0.62412900  0.83946400  0.83338600  1
  O  O13  1  0.37482000  0.15994000  0.16091400  1
  O  O14  1  0.87482000  0.84006000  0.66091400  1
  O  O15  1  0.12412900  0.16053600  0.33338600  1
  O  O16  1  0.96286500  0.22638400  0.62787200  1
  O  O17  1  0.03803800  0.76841100  0.37471100  1
  O  O18  1  0.53803800  0.23158900  0.87471100  1
  O  O19  1  0.46286500  0.77361600  0.12787200  1
  O  O20  1  0.52405500  0.25787600  0.50110500  1
  O  O21  1  0.46664200  0.74553100  0.49755000  1
  O  O22  1  0.96664200  0.25446900  0.99755000  1
  O  O23  1  0.02405500  0.74212400  0.00110500  1
  O  O24  1  0.24503700  0.65599400  0.74990500  1
  O  O25  1  0.74503700  0.34400600  0.24990500  1
loop_
_geom_bond_atom_site_label_1
_geom_bond_atom_site_label_2
_geom_bond_distance
_geom_bond_site_symmetry_2
K0 O16 2.778347 1_455
K0 O21 2.792862 1_545
K0 O15 2.873907 1_555
K0 O17 2.885166 1_545
K0 O20 2.898552 1_555
K0 O4 2.949497 1_555
K0 O14 3.013796 1_445
K1 O19 2.778347 1_555
K1 O22 2.792862 1_564
K1 O12 2.873907 1_554
K1 O18 2.885166 1_564
K1 O23 2.898552 1_655
K1 O7 2.949497 1_555
K1 O13 3.013796 1_565
In0 O18 2.154214 1_555
In0 O10 2.172146 1_555
In0 O6 2.180083 1_555
In0 O16 2.196062 1_455
In0 O4 2.202914 1_555
In0 O8 2.214464 1_555
In1 O17 2.154214 1_655
In1 O9 2.172146 1_555
In1 O5 2.180083 1_555
In1 O19 2.196062 1_555
In1 O7 2.202914 1_555
In1 O11 2.214464 1_555
As0 O16 1.701853 1_555
As0 O8 1.711807 1_555
As0 O0 1.751309 1_555
As0 O20 1.757111 1_555
As1 O1 1.707478 1_555
As1 O17 1.716641 1_555
As1 O9 1.720241 1_555
As1 O21 1.777276 1_555
As2 O2 1.707478 1_555
As2 O18 1.716641 1_555
As2 O10 1.720241 1_655
As2 O22 1.777276 1_555
As3 O19 1.701853 1_555
As3 O11 1.711807 1_455
As3 O3 1.751309 1_555
As3 O23 1.757111 1_555
As4 O6 1.697017 1_665
As4 O4 1.705863 1_565
As4 O12 1.760996 1_555
As4 O14 1.765579 1_555
As5 O5 1.697017 1_545
As5 O7 1.705863 1_445
As5 O15 1.760996 1_555
As5 O13 1.765579 1_555
H0 O20 1.028248 1_555
H0 O1 1.608832 1_555
H1 O21 0.994778 1_555
H2 O22 0.994778 1_454
H3 O23 1.028248 1_656
H3 O2 1.608832 1_555
H4 O12 1.015588 1_555
H4 O24 1.668421 1_555
H5 O13 1.015918 1_555
H6 O14 1.015918 1_455
H7 O15 1.015588 1_655
H7 O25 1.668421 1_555
H8 O24 0.993329 1_555
H9 O25 0.996413 1_555
H10 O24 0.996413 1_555
H11 O25 0.993329 1_555
H12 O0 1.073401 1_555
H12 O1 1.437504 1_655
H13 O3 1.073401 1_555
H13 O2 1.437504 1_554
