# generated using pymatgen
data_BiPb4
_symmetry_space_group_name_H-M   'P 1'
_cell_length_a   28.94118640
_cell_length_b   28.94118640
_cell_length_c   28.94118604
_cell_angle_alpha   14.24432047
_cell_angle_beta   14.24432047
_cell_angle_gamma   14.24431715
_symmetry_Int_Tables_number   1
_chemical_formula_structural   BiPb4
_chemical_formula_sum   'Bi8 Pb32'
_cell_volume   1277.56420825
_cell_formula_units_Z   8
loop_
 _symmetry_equiv_pos_site_id
 _symmetry_equiv_pos_as_xyz
  1  'x, y, z'
loop_
 _atom_site_type_symbol
 _atom_site_label
 _atom_site_symmetry_multiplicity
 _atom_site_fract_x
 _atom_site_fract_y
 _atom_site_fract_z
 _atom_site_occupancy
  Bi  Bi0_0  1  0.00000000  0.00000000  0.00000000  1
  Bi  Bi0_1  1  0.00000000  0.00000000  0.50000000  1
  Bi  Bi0_2  1  0.00000000  0.50000000  0.00000000  1
  Bi  Bi0_3  1  0.00000000  0.50000000  0.50000000  1
  Bi  Bi0_4  1  0.50000000  0.00000000  0.00000000  1
  Bi  Bi0_5  1  0.50000000  0.00000000  0.50000000  1
  Bi  Bi0_6  1  0.50000000  0.50000000  0.00000000  1
  Bi  Bi0_7  1  0.50000000  0.50000000  0.50000000  1
  Pb  Pb0_0  1  0.30015100  0.30015100  0.30015100  1
  Pb  Pb0_1  1  0.30015100  0.30015100  0.80015100  1
  Pb  Pb0_2  1  0.30015100  0.80015100  0.30015100  1
  Pb  Pb0_3  1  0.30015100  0.80015100  0.80015100  1
  Pb  Pb0_4  1  0.80015100  0.30015100  0.30015100  1
  Pb  Pb0_5  1  0.80015100  0.30015100  0.80015100  1
  Pb  Pb0_6  1  0.80015100  0.80015100  0.30015100  1
  Pb  Pb0_7  1  0.80015100  0.80015100  0.80015100  1
  Pb  Pb1_0  1  0.09995850  0.09995850  0.09995850  1
  Pb  Pb1_1  1  0.09995850  0.09995850  0.59995850  1
  Pb  Pb1_2  1  0.09995850  0.59995850  0.09995850  1
  Pb  Pb1_3  1  0.09995850  0.59995850  0.59995850  1
  Pb  Pb1_4  1  0.59995850  0.09995850  0.09995850  1
  Pb  Pb1_5  1  0.59995850  0.09995850  0.59995850  1
  Pb  Pb1_6  1  0.59995850  0.59995850  0.09995850  1
  Pb  Pb1_7  1  0.59995850  0.59995850  0.59995850  1
  Pb  Pb2_0  1  0.40004150  0.40004150  0.40004150  1
  Pb  Pb2_1  1  0.40004150  0.40004150  0.90004150  1
  Pb  Pb2_2  1  0.40004150  0.90004150  0.40004150  1
  Pb  Pb2_3  1  0.40004150  0.90004150  0.90004150  1
  Pb  Pb2_4  1  0.90004150  0.40004150  0.40004150  1
  Pb  Pb2_5  1  0.90004150  0.40004150  0.90004150  1
  Pb  Pb2_6  1  0.90004150  0.90004150  0.40004150  1
  Pb  Pb2_7  1  0.90004150  0.90004150  0.90004150  1
  Pb  Pb3_0  1  0.19984900  0.19984900  0.19984900  1
  Pb  Pb3_1  1  0.19984900  0.19984900  0.69984900  1
  Pb  Pb3_2  1  0.19984900  0.69984900  0.19984900  1
  Pb  Pb3_3  1  0.19984900  0.69984900  0.69984900  1
  Pb  Pb3_4  1  0.69984900  0.19984900  0.19984900  1
  Pb  Pb3_5  1  0.69984900  0.19984900  0.69984900  1
  Pb  Pb3_6  1  0.69984900  0.69984900  0.19984900  1
  Pb  Pb3_7  1  0.69984900  0.69984900  0.69984900  1
loop_
_geom_bond_atom_site_label_1
_geom_bond_atom_site_label_2
_geom_bond_distance
_geom_bond_site_symmetry_2
Bi0_0 Pb0_5 3.524486 1_454
Bi0_0 Pb3_4 3.524486 1_455
Bi0_0 Pb3_2 3.524486 1_545
Bi0_0 Pb0_3 3.524486 1_544
Bi0_0 Pb3_1 3.524486 1_554
Bi0_0 Pb0_6 3.524486 1_445
Bi0_0 Bi0_6 3.588280 1_455
Bi0_0 Bi0_6 3.588280 1_545
Bi0_0 Bi0_5 3.588281 1_455
Bi0_0 Bi0_3 3.588281 1_545
Bi0_0 Bi0_3 3.588281 1_554
Bi0_0 Bi0_5 3.588281 1_554
Bi0_1 Pb3_5 3.524486 1_455
Bi0_1 Pb0_2 3.524486 1_545
Bi0_1 Pb3_3 3.524486 1_545
Bi0_1 Pb0_4 3.524486 1_455
Bi0_1 Pb3_0 3.524486 1_555
Bi0_1 Pb0_7 3.524486 1_445
Bi0_1 Bi0_7 3.588280 1_455
Bi0_1 Bi0_7 3.588280 1_545
Bi0_1 Bi0_2 3.588281 1_546
Bi0_1 Bi0_4 3.588281 1_555
Bi0_1 Bi0_2 3.588281 1_555
Bi0_1 Bi0_4 3.588281 1_456
Bi0_2 Pb3_6 3.524486 1_455
Bi0_2 Pb3_0 3.524486 1_555
Bi0_2 Pb0_1 3.524486 1_554
Bi0_2 Pb0_7 3.524486 1_454
Bi0_2 Pb3_3 3.524486 1_554
Bi0_2 Pb0_4 3.524486 1_455
Bi0_2 Bi0_4 3.588280 1_555
Bi0_2 Bi0_4 3.588280 1_465
Bi0_2 Bi0_7 3.588281 1_455
Bi0_2 Bi0_7 3.588281 1_554
Bi0_3 Pb3_1 3.524486 1_555
Bi0_3 Pb3_7 3.524486 1_455
Bi0_3 Pb0_0 3.524486 1_555
Bi0_3 Pb0_6 3.524486 1_455
Bi0_3 Pb3_2 3.524486 1_555
Bi0_3 Pb0_5 3.524486 1_455
Bi0_3 Bi0_5 3.588280 1_465
Bi0_3 Bi0_5 3.588280 1_555
Bi0_3 Bi0_6 3.588281 1_456
Bi0_3 Bi0_6 3.588281 1_555
Bi0_4 Pb0_1 3.524486 1_554
Bi0_4 Pb3_6 3.524486 1_545
Bi0_4 Pb3_0 3.524486 1_555
Bi0_4 Pb0_7 3.524486 1_544
Bi0_4 Pb3_5 3.524486 1_554
Bi0_4 Pb0_2 3.524486 1_545
Bi0_4 Bi0_7 3.588281 1_554
Bi0_4 Bi0_7 3.588281 1_545
Bi0_5 Pb3_1 3.524486 1_555
Bi0_5 Pb3_7 3.524486 1_545
Bi0_5 Pb0_0 3.524486 1_555
Bi0_5 Pb0_6 3.524486 1_545
Bi0_5 Pb3_4 3.524486 1_555
Bi0_5 Pb0_3 3.524486 1_545
Bi0_5 Bi0_6 3.588281 1_546
Bi0_5 Bi0_6 3.588281 1_555
Bi0_6 Pb3_4 3.524486 1_555
Bi0_6 Pb3_2 3.524486 1_555
Bi0_6 Pb0_5 3.524486 1_554
Bi0_6 Pb0_3 3.524486 1_554
Bi0_6 Pb0_0 3.524486 1_555
Bi0_6 Pb3_7 3.524486 1_554
Bi0_7 Pb3_5 3.524486 1_555
Bi0_7 Pb3_3 3.524486 1_555
Bi0_7 Pb0_2 3.524486 1_555
Bi0_7 Pb0_4 3.524486 1_555
Bi0_7 Pb3_6 3.524486 1_555
Bi0_7 Pb0_1 3.524486 1_555
Pb0_0 Pb1_4 3.548408 1_555
Pb0_0 Pb1_2 3.548408 1_555
Pb0_0 Pb1_1 3.548408 1_555
Pb0_1 Pb1_3 3.548408 1_555
Pb0_1 Pb1_5 3.548408 1_555
Pb0_1 Pb1_0 3.548408 1_556
Pb0_2 Pb1_6 3.548408 1_555
Pb0_2 Pb1_0 3.548408 1_565
Pb0_2 Pb1_3 3.548408 1_555
Pb0_3 Pb1_7 3.548408 1_555
Pb0_3 Pb1_1 3.548408 1_565
Pb0_3 Pb1_2 3.548408 1_556
Pb0_4 Pb1_6 3.548408 1_555
Pb0_4 Pb1_0 3.548408 1_655
Pb0_4 Pb1_5 3.548408 1_555
Pb0_5 Pb1_7 3.548408 1_555
Pb0_5 Pb1_1 3.548408 1_655
Pb0_5 Pb1_4 3.548408 1_556
Pb0_6 Pb1_4 3.548408 1_565
Pb0_6 Pb1_2 3.548408 1_655
Pb0_6 Pb1_7 3.548408 1_555
Pb0_7 Pb1_3 3.548408 1_655
Pb0_7 Pb1_5 3.548408 1_565
Pb0_7 Pb1_6 3.548408 1_556
Pb1_0 Pb2_5 3.529215 1_454
Pb1_0 Pb2_3 3.529215 1_544
Pb1_0 Pb2_6 3.529215 1_445
Pb1_0 Pb1_6 3.588280 1_455
Pb1_0 Pb1_6 3.588280 1_545
Pb1_0 Pb1_5 3.588281 1_455
Pb1_0 Pb1_3 3.588281 1_545
Pb1_0 Pb1_3 3.588281 1_554
Pb1_0 Pb1_5 3.588281 1_554
Pb1_1 Pb2_2 3.529215 1_545
Pb1_1 Pb2_4 3.529215 1_455
Pb1_1 Pb2_7 3.529215 1_445
Pb1_1 Pb1_7 3.588280 1_455
Pb1_1 Pb1_7 3.588280 1_545
Pb1_1 Pb1_2 3.588281 1_555
Pb1_1 Pb1_4 3.588281 1_555
Pb1_1 Pb1_2 3.588281 1_546
Pb1_1 Pb1_4 3.588281 1_456
Pb1_2 Pb2_7 3.529215 1_454
Pb1_2 Pb2_1 3.529215 1_554
Pb1_2 Pb2_4 3.529215 1_455
Pb1_2 Pb1_4 3.588280 1_555
Pb1_2 Pb1_4 3.588280 1_465
Pb1_2 Pb1_7 3.588281 1_455
Pb1_2 Pb1_7 3.588281 1_554
Pb1_3 Pb2_6 3.529215 1_455
Pb1_3 Pb2_0 3.529215 1_555
Pb1_3 Pb2_5 3.529215 1_455
Pb1_3 Pb1_5 3.588280 1_555
Pb1_3 Pb1_5 3.588280 1_465
Pb1_3 Pb1_6 3.588281 1_555
Pb1_3 Pb1_6 3.588281 1_456
Pb1_4 Pb2_7 3.529215 1_544
Pb1_4 Pb2_1 3.529215 1_554
Pb1_4 Pb2_2 3.529215 1_545
Pb1_4 Pb1_7 3.588281 1_554
Pb1_4 Pb1_7 3.588281 1_545
Pb1_5 Pb2_6 3.529215 1_545
Pb1_5 Pb2_0 3.529215 1_555
Pb1_5 Pb2_3 3.529215 1_545
Pb1_5 Pb1_6 3.588281 1_555
Pb1_5 Pb1_6 3.588281 1_546
Pb1_6 Pb2_3 3.529215 1_554
Pb1_6 Pb2_5 3.529215 1_554
Pb1_6 Pb2_0 3.529215 1_555
Pb1_7 Pb2_2 3.529215 1_555
Pb1_7 Pb2_4 3.529215 1_555
Pb1_7 Pb2_1 3.529215 1_555
Pb2_0 Pb3_2 3.548408 1_555
Pb2_0 Pb3_4 3.548408 1_555
Pb2_0 Pb3_1 3.548408 1_555
Pb2_0 Pb2_6 3.588280 1_455
Pb2_0 Pb2_6 3.588280 1_545
Pb2_0 Pb2_5 3.588281 1_455
Pb2_0 Pb2_3 3.588281 1_545
Pb2_0 Pb2_3 3.588281 1_554
Pb2_0 Pb2_5 3.588281 1_554
Pb2_1 Pb3_3 3.548408 1_555
Pb2_1 Pb3_5 3.548408 1_555
Pb2_1 Pb3_0 3.548408 1_556
Pb2_1 Pb2_7 3.588280 1_545
Pb2_1 Pb2_7 3.588280 1_455
Pb2_1 Pb2_2 3.588281 1_546
Pb2_1 Pb2_4 3.588281 1_555
Pb2_1 Pb2_4 3.588281 1_456
Pb2_1 Pb2_2 3.588281 1_555
Pb2_2 Pb3_0 3.548408 1_565
Pb2_2 Pb3_6 3.548408 1_555
Pb2_2 Pb3_3 3.548408 1_555
Pb2_2 Pb2_4 3.588280 1_465
Pb2_2 Pb2_4 3.588280 1_555
Pb2_2 Pb2_7 3.588281 1_455
Pb2_2 Pb2_7 3.588281 1_554
Pb2_3 Pb3_7 3.548408 1_555
Pb2_3 Pb3_1 3.548408 1_565
Pb2_3 Pb3_2 3.548408 1_556
Pb2_3 Pb2_5 3.588280 1_465
Pb2_3 Pb2_5 3.588280 1_555
Pb2_3 Pb2_6 3.588281 1_456
Pb2_3 Pb2_6 3.588281 1_555
Pb2_4 Pb3_0 3.548408 1_655
Pb2_4 Pb3_6 3.548408 1_555
Pb2_4 Pb3_5 3.548408 1_555
Pb2_4 Pb2_7 3.588281 1_545
Pb2_4 Pb2_7 3.588281 1_554
Pb2_5 Pb3_7 3.548408 1_555
Pb2_5 Pb3_1 3.548408 1_655
Pb2_5 Pb3_4 3.548408 1_556
Pb2_5 Pb2_6 3.588281 1_546
Pb2_5 Pb2_6 3.588281 1_555
Pb2_6 Pb3_2 3.548408 1_655
Pb2_6 Pb3_4 3.548408 1_565
Pb2_6 Pb3_7 3.548408 1_555
Pb2_7 Pb3_3 3.548408 1_655
Pb2_7 Pb3_5 3.548408 1_565
Pb2_7 Pb3_6 3.548408 1_556
