# generated using pymatgen
data_Mg14AlB
_symmetry_space_group_name_H-M   'P 1'
_cell_length_a   6.23719580
_cell_length_b   6.23719532
_cell_length_c   10.17244863
_cell_angle_alpha   90.00000000
_cell_angle_beta   90.00000000
_cell_angle_gamma   120.00000253
_symmetry_Int_Tables_number   1
_chemical_formula_structural   Mg14AlB
_chemical_formula_sum   'Mg14 Al1 B1'
_cell_volume   342.71636930
_cell_formula_units_Z   1
loop_
 _symmetry_equiv_pos_site_id
 _symmetry_equiv_pos_as_xyz
  1  'x, y, z'
loop_
 _atom_site_type_symbol
 _atom_site_label
 _atom_site_symmetry_multiplicity
 _atom_site_fract_x
 _atom_site_fract_y
 _atom_site_fract_z
 _atom_site_occupancy
  Mg  Mg0  1  0.16801890  0.83400895  0.12500000  1
  Mg  Mg1  1  0.16476633  0.83238267  0.62500000  1
  Mg  Mg2  1  0.66599105  0.33198110  0.12500000  1
  Mg  Mg3  1  0.66761733  0.33523367  0.62500000  1
  Mg  Mg4  1  0.66599105  0.83400895  0.12500000  1
  Mg  Mg5  1  0.66761733  0.83238267  0.62500000  1
  Mg  Mg6  1  0.32829483  0.17170517  0.38086163  1
  Mg  Mg7  1  0.32829483  0.17170517  0.86913837  1
  Mg  Mg8  1  0.32829483  0.65659065  0.38086163  1
  Mg  Mg9  1  0.32829483  0.65659065  0.86913837  1
  Mg  Mg10  1  0.84340935  0.17170517  0.38086163  1
  Mg  Mg11  1  0.84340935  0.17170517  0.86913837  1
  Mg  Mg12  1  0.83333300  0.66666700  0.37384168  1
  Mg  Mg13  1  0.83333300  0.66666700  0.87615832  1
  Al  Al0  1  0.16666700  0.33333300  0.12500000  1
  B  B0  1  0.16666700  0.33333300  0.62500000  1
loop_
_geom_bond_atom_site_label_1
_geom_bond_atom_site_label_2
_geom_bond_distance
_geom_bond_site_symmetry_2
Mg0 Mg2 3.105950 1_565
Mg0 Mg4 3.105950 1_555
Mg0 Mg13 3.110607 1_454
Mg0 Mg12 3.110607 1_455
Mg0 Mg2 3.131246 1_455
Mg0 Mg4 3.131246 1_455
Mg0 Mg9 3.178738 1_554
Mg0 Mg8 3.178738 1_555
Mg0 Mg7 3.178744 1_564
Mg0 Mg6 3.178744 1_565
Mg1 Mg8 3.086835 1_555
Mg1 Mg9 3.086835 1_555
Mg1 Mg6 3.086841 1_565
Mg1 Mg7 3.086841 1_565
Mg1 Mg12 3.119699 1_455
Mg1 Mg13 3.119699 1_455
Mg2 Mg4 3.105950 1_545
Mg2 Mg4 3.131246 1_555
Mg2 Mg7 3.178744 1_554
Mg2 Mg6 3.178744 1_555
Mg3 Mg6 3.086841 1_555
Mg3 Mg7 3.086841 1_555
Mg4 Mg9 3.178744 1_554
Mg4 Mg8 3.178744 1_555
Mg5 Mg8 3.086841 1_555
Mg5 Mg9 3.086841 1_555
Mg6 Mg8 3.024325 1_555
Mg6 Mg8 3.212870 1_545
Mg7 Mg9 3.024325 1_555
Mg7 Mg9 3.212870 1_545
Mg10 Mg8 3.024325 1_655
Mg10 Mg6 3.024326 1_655
Mg10 Mg3 3.086835 1_555
Mg10 Mg5 3.086841 1_545
Mg10 Mg12 3.119890 1_545
Mg10 Mg12 3.119890 1_555
Mg10 Mg2 3.178738 1_555
Mg10 Mg4 3.178744 1_545
Mg10 Mg8 3.212870 1_545
Mg10 Mg6 3.212870 1_555
Mg11 Mg9 3.024325 1_655
Mg11 Mg7 3.024326 1_655
Mg11 Mg3 3.086835 1_555
Mg11 Mg5 3.086841 1_545
Mg11 Mg13 3.119890 1_545
Mg11 Mg13 3.119890 1_555
Mg11 Mg2 3.178738 1_556
Mg11 Mg4 3.178744 1_546
Mg11 Mg9 3.212870 1_545
Mg11 Mg7 3.212870 1_555
Mg12 Mg4 3.110600 1_555
Mg12 Mg2 3.110607 1_555
Mg12 Mg5 3.119693 1_555
Mg12 Mg3 3.119699 1_555
Mg12 Mg6 3.119890 1_665
Mg12 Mg6 3.119890 1_555
Mg12 Mg8 3.119890 1_555
Mg12 Mg8 3.119890 1_655
Mg13 Mg4 3.110600 1_556
Mg13 Mg2 3.110607 1_556
Mg13 Mg5 3.119693 1_555
Mg13 Mg3 3.119699 1_555
Mg13 Mg7 3.119890 1_665
Mg13 Mg7 3.119890 1_555
Mg13 Mg9 3.119890 1_555
Mg13 Mg9 3.119890 1_655
Al0 Mg0 3.118606 1_555
Al0 Mg4 3.118606 1_555
Al0 Mg4 3.118606 1_445
Al0 Mg0 3.118606 1_545
Al0 Mg2 3.118606 1_455
Al0 Mg2 3.118606 1_555
Al0 Mg6 3.134179 1_555
Al0 Mg7 3.134179 1_554
Al0 Mg9 3.134184 1_554
Al0 Mg8 3.134184 1_555
Al0 Mg11 3.134185 1_454
Al0 Mg10 3.134185 1_455
B0 Mg6 3.035872 1_555
B0 Mg7 3.035872 1_555
B0 Mg9 3.035879 1_555
B0 Mg8 3.035879 1_555
B0 Mg10 3.035879 1_455
B0 Mg11 3.035879 1_455
