# generated using pymatgen
data_Mg2Sn
_symmetry_space_group_name_H-M   'P 1'
_cell_length_a   16.51032251
_cell_length_b   16.51032251
_cell_length_c   10.84218000
_cell_angle_alpha   90.00000000
_cell_angle_beta   90.00000000
_cell_angle_gamma   157.17826619
_symmetry_Int_Tables_number   1
_chemical_formula_structural   Mg2Sn
_chemical_formula_sum   'Mg32 Sn16'
_cell_volume   1146.32718908
_cell_formula_units_Z   16
loop_
 _symmetry_equiv_pos_site_id
 _symmetry_equiv_pos_as_xyz
  1  'x, y, z'
loop_
 _atom_site_type_symbol
 _atom_site_label
 _atom_site_symmetry_multiplicity
 _atom_site_fract_x
 _atom_site_fract_y
 _atom_site_fract_z
 _atom_site_occupancy
  Mg  Mg0_0  1  0.05532300  0.44467700  0.12500000  1
  Mg  Mg0_1  1  0.05532300  0.44467700  0.62500000  1
  Mg  Mg0_2  1  0.05532300  0.94467700  0.12500000  1
  Mg  Mg0_3  1  0.05532300  0.94467700  0.62500000  1
  Mg  Mg0_4  1  0.55532300  0.44467700  0.12500000  1
  Mg  Mg0_5  1  0.55532300  0.44467700  0.62500000  1
  Mg  Mg0_6  1  0.55532300  0.94467700  0.12500000  1
  Mg  Mg0_7  1  0.55532300  0.94467700  0.62500000  1
  Mg  Mg1_0  1  0.38841000  0.11159000  0.12500000  1
  Mg  Mg1_1  1  0.38841000  0.11159000  0.62500000  1
  Mg  Mg1_2  1  0.38841000  0.61159000  0.12500000  1
  Mg  Mg1_3  1  0.38841000  0.61159000  0.62500000  1
  Mg  Mg1_4  1  0.88841000  0.11159000  0.12500000  1
  Mg  Mg1_5  1  0.88841000  0.11159000  0.62500000  1
  Mg  Mg1_6  1  0.88841000  0.61159000  0.12500000  1
  Mg  Mg1_7  1  0.88841000  0.61159000  0.62500000  1
  Mg  Mg2_0  1  0.11159000  0.38841000  0.37500000  1
  Mg  Mg2_1  1  0.11159000  0.38841000  0.87500000  1
  Mg  Mg2_2  1  0.11159000  0.88841000  0.37500000  1
  Mg  Mg2_3  1  0.11159000  0.88841000  0.87500000  1
  Mg  Mg2_4  1  0.61159000  0.38841000  0.37500000  1
  Mg  Mg2_5  1  0.61159000  0.38841000  0.87500000  1
  Mg  Mg2_6  1  0.61159000  0.88841000  0.37500000  1
  Mg  Mg2_7  1  0.61159000  0.88841000  0.87500000  1
  Mg  Mg3_0  1  0.44467700  0.05532300  0.37500000  1
  Mg  Mg3_1  1  0.44467700  0.05532300  0.87500000  1
  Mg  Mg3_2  1  0.44467700  0.55532300  0.37500000  1
  Mg  Mg3_3  1  0.44467700  0.55532300  0.87500000  1
  Mg  Mg3_4  1  0.94467700  0.05532300  0.37500000  1
  Mg  Mg3_5  1  0.94467700  0.05532300  0.87500000  1
  Mg  Mg3_6  1  0.94467700  0.55532300  0.37500000  1
  Mg  Mg3_7  1  0.94467700  0.55532300  0.87500000  1
  Sn  Sn0_0  1  0.22167000  0.27833000  0.12500000  1
  Sn  Sn0_1  1  0.22167000  0.27833000  0.62500000  1
  Sn  Sn0_2  1  0.22167000  0.77833000  0.12500000  1
  Sn  Sn0_3  1  0.22167000  0.77833000  0.62500000  1
  Sn  Sn0_4  1  0.72167000  0.27833000  0.12500000  1
  Sn  Sn0_5  1  0.72167000  0.27833000  0.62500000  1
  Sn  Sn0_6  1  0.72167000  0.77833000  0.12500000  1
  Sn  Sn0_7  1  0.72167000  0.77833000  0.62500000  1
  Sn  Sn1_0  1  0.27833000  0.22167000  0.37500000  1
  Sn  Sn1_1  1  0.27833000  0.22167000  0.87500000  1
  Sn  Sn1_2  1  0.27833000  0.72167000  0.37500000  1
  Sn  Sn1_3  1  0.27833000  0.72167000  0.87500000  1
  Sn  Sn1_4  1  0.77833000  0.22167000  0.37500000  1
  Sn  Sn1_5  1  0.77833000  0.22167000  0.87500000  1
  Sn  Sn1_6  1  0.77833000  0.72167000  0.37500000  1
  Sn  Sn1_7  1  0.77833000  0.72167000  0.87500000  1
loop_
_geom_bond_atom_site_label_1
_geom_bond_atom_site_label_2
_geom_bond_distance
_geom_bond_site_symmetry_2
Mg0_0 Mg1_4 3.146437 1_455
Mg0_0 Mg1_2 3.146437 1_555
Mg0_0 Sn0_4 3.162110 1_455
Mg0_0 Sn0_2 3.162110 1_555
Mg0_0 Mg2_0 3.265577 1_555
Mg0_0 Mg2_1 3.265577 1_554
Mg0_0 Mg0_6 3.266456 1_445
Mg0_0 Mg0_6 3.266456 1_555
Mg0_0 Sn1_3 3.282964 1_554
Mg0_0 Sn1_5 3.282964 1_454
Mg0_0 Sn1_2 3.282964 1_555
Mg0_0 Sn1_4 3.282964 1_455
Mg0_1 Mg1_5 3.146437 1_455
Mg0_1 Mg1_3 3.146437 1_555
Mg0_1 Sn0_3 3.162110 1_555
Mg0_1 Sn0_5 3.162110 1_455
Mg0_1 Mg2_0 3.265577 1_555
Mg0_1 Mg2_1 3.265577 1_555
Mg0_1 Mg0_7 3.266456 1_445
Mg0_1 Mg0_7 3.266456 1_555
Mg0_1 Sn1_2 3.282964 1_555
Mg0_1 Sn1_4 3.282964 1_455
Mg0_1 Sn1_3 3.282964 1_555
Mg0_1 Sn1_5 3.282964 1_455
Mg0_2 Mg1_0 3.146437 1_565
Mg0_2 Mg1_6 3.146437 1_455
Mg0_2 Sn0_6 3.162110 1_455
Mg0_2 Sn0_0 3.162110 1_565
Mg0_2 Mg2_3 3.265577 1_554
Mg0_2 Mg2_2 3.265577 1_555
Mg0_2 Mg0_4 3.266456 1_565
Mg0_2 Mg0_4 3.266456 1_455
Mg0_2 Sn1_7 3.282964 1_454
Mg0_2 Sn1_6 3.282964 1_455
Mg0_2 Sn1_1 3.282964 1_564
Mg0_2 Sn1_0 3.282964 1_565
Mg0_3 Mg1_1 3.146437 1_565
Mg0_3 Mg1_7 3.146437 1_455
Mg0_3 Sn0_7 3.162110 1_455
Mg0_3 Sn0_1 3.162110 1_565
Mg0_3 Mg2_2 3.265577 1_555
Mg0_3 Mg2_3 3.265577 1_555
Mg0_3 Mg0_5 3.266456 1_565
Mg0_3 Mg0_5 3.266456 1_455
Mg0_3 Sn1_6 3.282964 1_455
Mg0_3 Sn1_7 3.282964 1_455
Mg0_3 Sn1_0 3.282964 1_565
Mg0_3 Sn1_1 3.282964 1_565
Mg0_4 Mg1_0 3.146437 1_555
Mg0_4 Mg1_6 3.146437 1_555
Mg0_4 Sn0_6 3.162110 1_555
Mg0_4 Sn0_0 3.162110 1_555
Mg0_4 Mg2_5 3.265577 1_554
Mg0_4 Mg2_4 3.265577 1_555
Mg0_4 Sn1_1 3.282964 1_554
Mg0_4 Sn1_0 3.282964 1_555
Mg0_4 Sn1_7 3.282964 1_554
Mg0_4 Sn1_6 3.282964 1_555
Mg0_5 Mg1_1 3.146437 1_555
Mg0_5 Mg1_7 3.146437 1_555
Mg0_5 Sn0_7 3.162110 1_555
Mg0_5 Sn0_1 3.162110 1_555
Mg0_5 Mg2_4 3.265577 1_555
Mg0_5 Mg2_5 3.265577 1_555
Mg0_5 Sn1_0 3.282964 1_555
Mg0_5 Sn1_1 3.282964 1_555
Mg0_5 Sn1_7 3.282964 1_555
Mg0_5 Sn1_6 3.282964 1_555
Mg0_6 Mg1_4 3.146437 1_565
Mg0_6 Mg1_2 3.146437 1_555
Mg0_6 Sn0_4 3.162110 1_565
Mg0_6 Sn0_2 3.162110 1_555
Mg0_6 Mg2_7 3.265577 1_554
Mg0_6 Mg2_6 3.265577 1_555
Mg0_6 Sn1_5 3.282964 1_564
Mg0_6 Sn1_3 3.282964 1_554
Mg0_6 Sn1_2 3.282964 1_555
Mg0_6 Sn1_4 3.282964 1_565
Mg0_7 Mg1_5 3.146437 1_565
Mg0_7 Mg1_3 3.146437 1_555
Mg0_7 Sn0_5 3.162110 1_565
Mg0_7 Sn0_3 3.162110 1_555
Mg0_7 Mg2_6 3.265577 1_555
Mg0_7 Mg2_7 3.265577 1_555
Mg0_7 Sn1_5 3.282964 1_565
Mg0_7 Sn1_2 3.282964 1_555
Mg0_7 Sn1_4 3.282964 1_565
Mg0_7 Sn1_3 3.282964 1_555
Mg1_0 Sn0_2 3.151225 1_545
Mg1_0 Sn0_4 3.151225 1_555
Mg1_0 Mg3_1 3.265577 1_554
Mg1_0 Mg3_0 3.265577 1_555
Mg1_1 Sn0_3 3.151225 1_545
Mg1_1 Sn0_5 3.151225 1_555
Mg1_1 Mg3_0 3.265577 1_555
Mg1_1 Mg3_1 3.265577 1_555
Mg1_2 Sn0_0 3.151225 1_555
Mg1_2 Sn0_6 3.151225 1_555
Mg1_2 Mg3_3 3.265577 1_554
Mg1_2 Mg3_2 3.265577 1_555
Mg1_3 Sn0_1 3.151225 1_555
Mg1_3 Sn0_7 3.151225 1_555
Mg1_3 Mg3_2 3.265577 1_555
Mg1_3 Mg3_3 3.265577 1_555
Mg1_4 Sn0_0 3.151225 1_655
Mg1_4 Sn0_6 3.151225 1_545
Mg1_4 Mg3_5 3.265577 1_554
Mg1_4 Mg3_4 3.265577 1_555
Mg1_5 Sn0_1 3.151225 1_655
Mg1_5 Sn0_7 3.151225 1_545
Mg1_5 Mg3_4 3.265577 1_555
Mg1_5 Mg3_5 3.265577 1_555
Mg1_6 Sn0_2 3.151225 1_655
Mg1_6 Sn0_4 3.151225 1_555
Mg1_6 Mg3_7 3.265577 1_554
Mg1_6 Mg3_6 3.265577 1_555
Mg1_7 Sn0_3 3.151225 1_655
Mg1_7 Sn0_5 3.151225 1_555
Mg1_7 Mg3_6 3.265577 1_555
Mg1_7 Mg3_7 3.265577 1_555
Mg2_0 Mg3_2 3.146437 1_555
Mg2_0 Mg3_4 3.146437 1_455
Mg2_0 Sn1_2 3.151225 1_555
Mg2_0 Sn1_4 3.151225 1_455
Mg2_1 Mg3_3 3.146437 1_555
Mg2_1 Mg3_5 3.146437 1_455
Mg2_1 Sn1_3 3.151225 1_555
Mg2_1 Sn1_5 3.151225 1_455
Mg2_2 Mg3_6 3.146437 1_455
Mg2_2 Mg3_0 3.146437 1_565
Mg2_2 Sn1_6 3.151225 1_455
Mg2_2 Sn1_0 3.151225 1_565
Mg2_3 Mg3_7 3.146437 1_455
Mg2_3 Mg3_1 3.146437 1_565
Mg2_3 Sn1_7 3.151225 1_455
Mg2_3 Sn1_1 3.151225 1_565
Mg2_4 Mg3_0 3.146437 1_555
Mg2_4 Mg3_6 3.146437 1_555
Mg2_4 Sn1_0 3.151225 1_555
Mg2_4 Sn1_6 3.151225 1_555
Mg2_5 Mg3_1 3.146437 1_555
Mg2_5 Mg3_7 3.146437 1_555
Mg2_5 Sn1_1 3.151225 1_555
Mg2_5 Sn1_7 3.151225 1_555
Mg2_6 Mg3_4 3.146437 1_565
Mg2_6 Mg3_2 3.146437 1_555
Mg2_6 Sn1_4 3.151225 1_565
Mg2_6 Sn1_2 3.151225 1_555
Mg2_7 Mg3_5 3.146437 1_565
Mg2_7 Mg3_3 3.146437 1_555
Mg2_7 Sn1_5 3.151225 1_565
Mg2_7 Sn1_3 3.151225 1_555
Mg3_0 Sn1_4 3.162110 1_555
Mg3_0 Sn1_2 3.162110 1_545
Mg3_0 Mg3_6 3.266456 1_445
Mg3_0 Mg3_6 3.266456 1_555
Mg3_0 Sn0_3 3.282964 1_545
Mg3_0 Sn0_5 3.282964 1_555
Mg3_0 Sn0_4 3.282964 1_555
Mg3_0 Sn0_2 3.282964 1_545
Mg3_1 Sn1_3 3.162110 1_545
Mg3_1 Sn1_5 3.162110 1_555
Mg3_1 Mg3_7 3.266456 1_445
Mg3_1 Mg3_7 3.266456 1_555
Mg3_1 Sn0_5 3.282964 1_555
Mg3_1 Sn0_2 3.282964 1_546
Mg3_1 Sn0_4 3.282964 1_556
Mg3_1 Sn0_3 3.282964 1_545
Mg3_2 Sn1_6 3.162110 1_555
Mg3_2 Sn1_0 3.162110 1_555
Mg3_2 Mg3_4 3.266456 1_565
Mg3_2 Mg3_4 3.266456 1_455
Mg3_2 Sn0_1 3.282964 1_555
Mg3_2 Sn0_0 3.282964 1_555
Mg3_2 Sn0_7 3.282964 1_555
Mg3_2 Sn0_6 3.282964 1_555
Mg3_3 Sn1_1 3.162110 1_555
Mg3_3 Sn1_7 3.162110 1_555
Mg3_3 Mg3_5 3.266456 1_565
Mg3_3 Mg3_5 3.266456 1_455
Mg3_3 Sn0_1 3.282964 1_555
Mg3_3 Sn0_0 3.282964 1_556
Mg3_3 Sn0_6 3.282964 1_556
Mg3_3 Sn0_7 3.282964 1_555
Mg3_4 Sn1_6 3.162110 1_545
Mg3_4 Sn1_0 3.162110 1_655
Mg3_4 Sn0_7 3.282964 1_545
Mg3_4 Sn0_1 3.282964 1_655
Mg3_4 Sn0_6 3.282964 1_545
Mg3_4 Sn0_0 3.282964 1_655
Mg3_5 Sn1_7 3.162110 1_545
Mg3_5 Sn1_1 3.162110 1_655
Mg3_5 Sn0_6 3.282964 1_546
Mg3_5 Sn0_7 3.282964 1_545
Mg3_5 Sn0_1 3.282964 1_655
Mg3_5 Sn0_0 3.282964 1_656
Mg3_6 Sn1_2 3.162110 1_655
Mg3_6 Sn1_4 3.162110 1_555
Mg3_6 Sn0_5 3.282964 1_555
Mg3_6 Sn0_3 3.282964 1_655
Mg3_6 Sn0_2 3.282964 1_655
Mg3_6 Sn0_4 3.282964 1_555
Mg3_7 Sn1_3 3.162110 1_655
Mg3_7 Sn1_5 3.162110 1_555
Mg3_7 Sn0_2 3.282964 1_656
Mg3_7 Sn0_3 3.282964 1_655
Mg3_7 Sn0_4 3.282964 1_556
Mg3_7 Sn0_5 3.282964 1_555
