# generated using pymatgen
data_Cr2(PO4)3
_symmetry_space_group_name_H-M   'P 1'
_cell_length_a   8.35922000
_cell_length_b   8.36272055
_cell_length_c   8.68514371
_cell_angle_alpha   118.04619345
_cell_angle_beta   90.04132353
_cell_angle_gamma   119.83506670
_symmetry_Int_Tables_number   1
_chemical_formula_structural   Cr2(PO4)3
_chemical_formula_sum   'Cr4 P6 O24'
_cell_volume   442.45563976
_cell_formula_units_Z   2
loop_
 _symmetry_equiv_pos_site_id
 _symmetry_equiv_pos_as_xyz
  1  'x, y, z'
loop_
 _atom_site_type_symbol
 _atom_site_label
 _atom_site_symmetry_multiplicity
 _atom_site_fract_x
 _atom_site_fract_y
 _atom_site_fract_z
 _atom_site_occupancy
  Cr  Cr0  1  0.35247500  0.13928600  0.07858400  1
  Cr  Cr1  1  0.14678500  0.35238200  0.43471800  1
  Cr  Cr2  1  0.64752500  0.86071400  0.92141600  1
  Cr  Cr3  1  0.85321500  0.64761800  0.56528200  1
  P  P0  1  0.25271700  0.97122300  0.74858900  1
  P  P1  1  0.74728300  0.02877700  0.25141100  1
  P  P2  1  0.03035400  0.74797100  0.24653200  1
  P  P3  1  0.46883100  0.45985500  0.25736800  1
  P  P4  1  0.53116900  0.54014500  0.74263200  1
  P  P5  1  0.96964600  0.25202900  0.75346800  1
  O  O0  1  0.28729800  0.17393200  0.59551500  1
  O  O1  1  0.28840000  0.99572300  0.92602700  1
  O  O2  1  0.01030400  0.53615400  0.29781200  1
  O  O3  1  0.60080000  0.10856000  0.22145600  1
  O  O4  1  0.98905400  0.77210800  0.38618600  1
  O  O5  1  0.04637300  0.82818500  0.69526100  1
  O  O6  1  0.29886600  0.47533600  0.27072600  1
  O  O7  1  0.35466100  0.53146500  0.56973400  1
  O  O8  1  0.01094600  0.22789200  0.61381400  1
  O  O9  1  0.51932600  0.62067900  0.08433700  1
  O  O10  1  0.95362700  0.17181500  0.30473900  1
  O  O11  1  0.88621000  0.80443200  0.05366900  1
  O  O12  1  0.71270200  0.82606800  0.40448500  1
  O  O13  1  0.98969600  0.46384600  0.70218800  1
  O  O14  1  0.64533900  0.46853500  0.43026600  1
  O  O15  1  0.71160000  0.00427700  0.07397300  1
  O  O16  1  0.60002700  0.74197500  0.75837200  1
  O  O17  1  0.23709200  0.88896100  0.24114600  1
  O  O18  1  0.39920000  0.89144000  0.77854400  1
  O  O19  1  0.76290800  0.11103900  0.75885400  1
  O  O20  1  0.48067400  0.37932100  0.91566300  1
  O  O21  1  0.70113400  0.52466400  0.72927400  1
  O  O22  1  0.39997300  0.25802500  0.24162800  1
  O  O23  1  0.11379000  0.19556800  0.94633100  1
loop_
_geom_bond_atom_site_label_1
_geom_bond_atom_site_label_2
_geom_bond_distance
_geom_bond_site_symmetry_2
Cr0 O1 1.160646 1_544
Cr0 O22 1.197294 1_555
Cr0 O23 2.638426 1_554
Cr1 O10 1.459466 1_455
Cr1 O7 1.547158 1_555
Cr1 O6 2.186585 1_555
Cr1 O13 2.678751 1_455
Cr2 O15 1.160646 1_566
Cr2 O16 1.197294 1_555
Cr2 O11 2.638426 1_556
Cr3 O5 1.459466 1_655
Cr3 O14 1.547158 1_555
Cr3 O21 2.186585 1_555
Cr3 O2 2.678751 1_655
O0 P4 2.296073 1_555
O1 P0 1.465426 1_555
O2 O4 1.854456 1_455
O2 P2 1.952118 1_555
O3 P1 1.728548 1_555
O4 P2 1.212769 1_655
O5 P0 1.430195 1_555
O6 P3 1.489280 1_555
O8 P5 1.212769 1_455
O9 P3 2.362643 1_555
O10 P1 1.430195 1_555
O11 P2 2.405720 1_655
O12 P3 2.296073 1_555
O13 O8 1.854456 1_655
O13 P5 1.952118 1_555
O15 P1 1.465426 1_555
O16 P4 1.419531 1_555
O17 P2 1.550314 1_555
O18 P0 1.728548 1_555
O19 P5 1.550314 1_555
O20 O9 1.701276 1_556
O20 P4 2.362643 1_555
O21 P4 1.489280 1_555
O22 P3 1.419531 1_555
O23 P5 2.405720 1_455
