# generated using pymatgen
data_Tb2Co14B
_symmetry_space_group_name_H-M   'P 1'
_cell_length_a   8.57662300
_cell_length_b   8.57662300
_cell_length_c   11.66528300
_cell_angle_alpha   90.00000000
_cell_angle_beta   90.00000000
_cell_angle_gamma   90.00000000
_symmetry_Int_Tables_number   1
_chemical_formula_structural   Tb2Co14B
_chemical_formula_sum   'Tb8 Co56 B4'
_cell_volume   858.08027726
_cell_formula_units_Z   4
loop_
 _symmetry_equiv_pos_site_id
 _symmetry_equiv_pos_as_xyz
  1  'x, y, z'
loop_
 _atom_site_type_symbol
 _atom_site_label
 _atom_site_symmetry_multiplicity
 _atom_site_fract_x
 _atom_site_fract_y
 _atom_site_fract_z
 _atom_site_occupancy
  Tb  Tb0  1  0.22394300  0.77605700  0.50000000  1
  Tb  Tb1  1  0.77605700  0.22394300  0.50000000  1
  Tb  Tb2  1  0.27605700  0.27605700  0.00000000  1
  Tb  Tb3  1  0.72394300  0.72394300  0.00000000  1
  Tb  Tb4  1  0.64619300  0.64619300  0.50000000  1
  Tb  Tb5  1  0.35380700  0.35380700  0.50000000  1
  Tb  Tb6  1  0.85380700  0.14619300  0.00000000  1
  Tb  Tb7  1  0.14619300  0.85380700  0.00000000  1
  Co  Co0  1  0.00000000  0.50000000  0.50000000  1
  Co  Co1  1  0.50000000  0.00000000  0.00000000  1
  Co  Co2  1  0.50000000  0.00000000  0.50000000  1
  Co  Co3  1  0.00000000  0.50000000  0.00000000  1
  Co  Co4  1  0.50000000  0.50000000  0.11668300  1
  Co  Co5  1  0.00000000  0.00000000  0.61668300  1
  Co  Co6  1  0.50000000  0.50000000  0.88331700  1
  Co  Co7  1  0.00000000  0.00000000  0.38331700  1
  Co  Co8  1  0.18206900  0.81793100  0.25376700  1
  Co  Co9  1  0.81793100  0.18206900  0.25376700  1
  Co  Co10  1  0.31793100  0.31793100  0.75376700  1
  Co  Co11  1  0.68206900  0.68206900  0.75376700  1
  Co  Co12  1  0.81793100  0.18206900  0.74623300  1
  Co  Co13  1  0.18206900  0.81793100  0.74623300  1
  Co  Co14  1  0.68206900  0.68206900  0.24623300  1
  Co  Co15  1  0.31793100  0.31793100  0.24623300  1
  Co  Co16  1  0.40181600  0.59818400  0.29820900  1
  Co  Co17  1  0.59818400  0.40181600  0.29820900  1
  Co  Co18  1  0.09818400  0.09818400  0.79820900  1
  Co  Co19  1  0.90181600  0.90181600  0.79820900  1
  Co  Co20  1  0.59818400  0.40181600  0.70179100  1
  Co  Co21  1  0.40181600  0.59818400  0.70179100  1
  Co  Co22  1  0.90181600  0.90181600  0.20179100  1
  Co  Co23  1  0.09818400  0.09818400  0.20179100  1
  Co  Co24  1  0.14072800  0.53683000  0.32245800  1
  Co  Co25  1  0.85927200  0.46317000  0.32245800  1
  Co  Co26  1  0.35927200  0.03683000  0.82245800  1
  Co  Co27  1  0.64072800  0.96317000  0.82245800  1
  Co  Co28  1  0.85927200  0.46317000  0.67754200  1
  Co  Co29  1  0.14072800  0.53683000  0.67754200  1
  Co  Co30  1  0.64072800  0.96317000  0.17754200  1
  Co  Co31  1  0.35927200  0.03683000  0.17754200  1
  Co  Co32  1  0.53683000  0.14072800  0.32245800  1
  Co  Co33  1  0.46317000  0.85927200  0.32245800  1
  Co  Co34  1  0.03683000  0.35927200  0.82245800  1
  Co  Co35  1  0.96317000  0.64072800  0.82245800  1
  Co  Co36  1  0.46317000  0.85927200  0.67754200  1
  Co  Co37  1  0.53683000  0.14072800  0.67754200  1
  Co  Co38  1  0.96317000  0.64072800  0.17754200  1
  Co  Co39  1  0.03683000  0.35927200  0.17754200  1
  Co  Co40  1  0.93128000  0.72419500  0.37380900  1
  Co  Co41  1  0.06872000  0.27580500  0.37380900  1
  Co  Co42  1  0.56872000  0.22419500  0.87380900  1
  Co  Co43  1  0.43128000  0.77580500  0.87380900  1
  Co  Co44  1  0.06872000  0.27580500  0.62619100  1
  Co  Co45  1  0.93128000  0.72419500  0.62619100  1
  Co  Co46  1  0.43128000  0.77580500  0.12619100  1
  Co  Co47  1  0.56872000  0.22419500  0.12619100  1
  Co  Co48  1  0.72419500  0.93128000  0.37380900  1
  Co  Co49  1  0.27580500  0.06872000  0.37380900  1
  Co  Co50  1  0.22419500  0.56872000  0.87380900  1
  Co  Co51  1  0.77580500  0.43128000  0.87380900  1
  Co  Co52  1  0.27580500  0.06872000  0.62619100  1
  Co  Co53  1  0.72419500  0.93128000  0.62619100  1
  Co  Co54  1  0.77580500  0.43128000  0.12619100  1
  Co  Co55  1  0.22419500  0.56872000  0.12619100  1
  B  B0  1  0.87719600  0.87719600  0.50000000  1
  B  B1  1  0.12280400  0.12280400  0.50000000  1
  B  B2  1  0.62280400  0.37719600  0.00000000  1
  B  B3  1  0.37719600  0.62280400  0.00000000  1
loop_
_geom_bond_atom_site_label_1
_geom_bond_atom_site_label_2
_geom_bond_distance
_geom_bond_site_symmetry_2
Co0 Co29 2.417834 1_555
Co0 Co28 2.417834 1_455
Co0 Co24 2.417834 1_555
Co0 Co25 2.417834 1_455
Co0 Co45 2.492311 1_455
Co0 Co40 2.492311 1_455
Co0 Co44 2.492311 1_555
Co0 Co41 2.492311 1_555
Co0 Tb0 3.048720 1_555
Co0 Tb1 3.048720 1_455
Co0 Tb4 3.283310 1_455
Co0 Tb5 3.283310 1_555
Co1 Co30 2.417834 1_545
Co1 Co31 2.417834 1_555
Co1 Co27 2.417834 1_544
Co1 Co26 2.417834 1_554
Co1 Co47 2.492311 1_555
Co1 Co42 2.492311 1_554
Co1 Co46 2.492311 1_545
Co1 Co43 2.492311 1_544
Co1 Tb2 3.048720 1_555
Co1 Tb3 3.048720 1_545
Co1 Tb6 3.283310 1_555
Co1 Tb7 3.283310 1_545
Co2 Co37 2.417834 1_555
Co2 Co36 2.417834 1_545
Co2 Co32 2.417834 1_555
Co2 Co33 2.417834 1_545
Co2 Co53 2.492311 1_545
Co2 Co48 2.492311 1_545
Co2 Co52 2.492311 1_555
Co2 Co49 2.492311 1_555
Co2 Tb1 3.048720 1_555
Co2 Tb0 3.048720 1_545
Co2 Tb4 3.283310 1_545
Co2 Tb5 3.283310 1_555
Co3 Co38 2.417834 1_455
Co3 Co39 2.417834 1_555
Co3 Co35 2.417834 1_454
Co3 Co34 2.417834 1_554
Co3 Co55 2.492311 1_555
Co3 Co50 2.492311 1_554
Co3 Co54 2.492311 1_455
Co3 Co51 2.492311 1_454
Co3 Tb2 3.048720 1_555
Co3 Tb3 3.048720 1_455
Co3 Tb7 3.283310 1_555
Co3 Tb6 3.283310 1_455
Co4 Tb2 3.038204 1_555
Co4 Tb3 3.038204 1_555
Co5 Tb0 3.038204 1_545
Co5 Tb1 3.038204 1_455
Co6 Tb2 3.038204 1_556
Co6 Tb3 3.038204 1_556
Co7 Co8 2.675936 1_545
Co7 Co9 2.675936 1_455
Co7 Tb0 3.038204 1_545
Co7 Tb1 3.038204 1_455
Co8 Tb0 2.916936 1_555
Co8 Tb7 2.992075 1_555
Co9 Tb1 2.916936 1_555
Co9 Tb6 2.992075 1_555
Co10 Co26 2.565195 1_555
Co10 Co34 2.565195 1_555
Co10 Co37 2.573934 1_555
Co10 Co29 2.573934 1_555
Co10 Co21 2.581208 1_555
Co10 Co20 2.581208 1_555
Co10 Co44 2.629399 1_555
Co10 Co52 2.629399 1_555
Co10 Co6 2.675936 1_555
Co10 Co50 2.689552 1_555
Co10 Co42 2.689552 1_555
Co10 Co18 2.715301 1_555
Co10 Tb2 2.916936 1_556
Co10 Tb5 2.992075 1_555
Co11 Co35 2.565195 1_555
Co11 Co27 2.565195 1_555
Co11 Co28 2.573934 1_555
Co11 Co36 2.573934 1_555
Co11 Co20 2.581208 1_555
Co11 Co21 2.581208 1_555
Co11 Co53 2.629399 1_555
Co11 Co45 2.629399 1_555
Co11 Co6 2.675936 1_555
Co11 Co51 2.689552 1_555
Co11 Co43 2.689552 1_555
Co11 Co19 2.715301 1_555
Co11 Tb3 2.916936 1_556
Co11 Tb4 2.992075 1_555
Co12 Co37 2.565195 1_555
Co12 Co28 2.565195 1_555
Co12 Co27 2.573934 1_545
Co12 Co34 2.573934 1_655
Co12 Co19 2.581208 1_545
Co12 Co18 2.581208 1_655
Co12 Co42 2.629399 1_555
Co12 Co51 2.629399 1_555
Co12 Co5 2.675936 1_655
Co12 Co53 2.689552 1_545
Co12 Co44 2.689552 1_655
Co12 Co20 2.715301 1_555
Co12 Tb1 2.916936 1_555
Co12 Tb6 2.992075 1_556
Co13 Co29 2.565195 1_555
Co13 Co36 2.565195 1_555
Co13 Co35 2.573934 1_455
Co13 Co26 2.573934 1_565
Co13 Co19 2.581208 1_455
Co13 Co18 2.581208 1_565
Co13 Co50 2.629399 1_555
Co13 Co43 2.629399 1_555
Co13 Co5 2.675936 1_565
Co13 Co45 2.689552 1_455
Co13 Co52 2.689552 1_565
Co13 Co21 2.715301 1_555
Co13 Tb0 2.916936 1_555
Co13 Tb7 2.992075 1_556
Co14 Co38 2.565195 1_555
Co14 Co30 2.565195 1_555
Co14 Co25 2.573934 1_555
Co14 Co33 2.573934 1_555
Co14 Co16 2.581208 1_555
Co14 Co17 2.581208 1_555
Co14 Co40 2.629399 1_555
Co14 Co48 2.629399 1_555
Co14 Co4 2.675936 1_555
Co14 Co46 2.689552 1_555
Co14 Co54 2.689552 1_555
Co14 Co22 2.715301 1_555
Co14 Tb3 2.916936 1_555
Co14 Tb4 2.992075 1_555
Co15 Co31 2.565195 1_555
Co15 Co39 2.565195 1_555
Co15 Co24 2.573934 1_555
Co15 Co32 2.573934 1_555
Co15 Co17 2.581208 1_555
Co15 Co16 2.581208 1_555
Co15 Co41 2.629399 1_555
Co15 Co49 2.629399 1_555
Co15 Co4 2.675936 1_555
Co15 Co47 2.689552 1_555
Co15 Co55 2.689552 1_555
Co15 Co23 2.715301 1_555
Co15 Tb2 2.916936 1_555
Co15 Tb5 2.992075 1_555
Co16 Co24 2.317578 1_555
Co16 Co33 2.317578 1_555
Co16 Co17 2.381782 1_555
Co16 Co4 2.429454 1_555
Co16 Co55 2.532029 1_555
Co16 Co46 2.532029 1_555
Co16 Co8 2.715301 1_555
Co16 Tb5 3.178606 1_555
Co16 Tb4 3.178606 1_555
Co16 Tb0 3.193067 1_555
Co17 Co32 2.317578 1_555
Co17 Co25 2.317578 1_555
Co17 Co4 2.429454 1_555
Co17 Co47 2.532029 1_555
Co17 Co54 2.532029 1_555
Co17 Co9 2.715301 1_555
Co17 Tb5 3.178606 1_555
Co17 Tb4 3.178606 1_555
Co17 Tb1 3.193067 1_555
Co18 Co26 2.317578 1_555
Co18 Co34 2.317578 1_555
Co18 Co19 2.381782 1_445
Co18 Co5 2.429454 1_555
Co18 Co44 2.532029 1_555
Co18 Co52 2.532029 1_555
Co18 Tb6 3.178606 1_456
Co18 Tb7 3.178606 1_546
Co18 Tb2 3.193067 1_556
Co19 Co35 2.317578 1_555
Co19 Co27 2.317578 1_555
Co19 Co5 2.429454 1_665
Co19 Co45 2.532029 1_555
Co19 Co53 2.532029 1_555
Co19 Tb6 3.178606 1_566
Co19 Tb7 3.178606 1_656
Co19 Tb3 3.193067 1_556
Co20 Co37 2.317578 1_555
Co20 Co28 2.317578 1_555
Co20 Co21 2.381782 1_555
Co20 Co6 2.429454 1_555
Co20 Co42 2.532029 1_555
Co20 Co51 2.532029 1_555
Co20 Tb5 3.178606 1_555
Co20 Tb4 3.178606 1_555
Co20 Tb1 3.193067 1_555
Co21 Co29 2.317578 1_555
Co21 Co36 2.317578 1_555
Co21 Co6 2.429454 1_555
Co21 Co50 2.532029 1_555
Co21 Co43 2.532029 1_555
Co21 Tb5 3.178606 1_555
Co21 Tb4 3.178606 1_555
Co21 Tb0 3.193067 1_555
Co22 Co38 2.317578 1_555
Co22 Co30 2.317578 1_555
Co22 Co23 2.381782 1_665
Co22 Co7 2.429454 1_665
Co22 Co40 2.532029 1_555
Co22 Co48 2.532029 1_555
Co22 Co8 2.581208 1_655
Co22 Co9 2.581208 1_565
Co22 Tb6 3.178606 1_565
Co22 Tb7 3.178606 1_655
Co22 Tb3 3.193067 1_555
Co23 Co31 2.317578 1_555
Co23 Co39 2.317578 1_555
Co23 Co7 2.429454 1_555
Co23 Co41 2.532029 1_555
Co23 Co49 2.532029 1_555
Co23 Co8 2.581208 1_545
Co23 Co9 2.581208 1_455
Co23 Tb7 3.178606 1_545
Co23 Tb6 3.178606 1_455
Co23 Tb2 3.193067 1_555
Co24 Co41 2.398349 1_555
Co24 Co55 2.414358 1_555
Co24 Co38 2.443534 1_455
Co24 Co39 2.443534 1_555
Co24 Co40 2.483555 1_455
Co24 Co25 2.495241 1_455
Co24 Co8 2.565195 1_555
Co24 Tb0 3.001409 1_555
Co24 Tb5 3.176969 1_555
Co25 Co40 2.398349 1_555
Co25 Co54 2.414358 1_555
Co25 Co38 2.443534 1_555
Co25 Co39 2.443534 1_655
Co25 Co41 2.483555 1_655
Co25 Co9 2.565195 1_555
Co25 Tb1 3.001409 1_555
Co25 Tb4 3.176969 1_555
Co26 Co43 2.398349 1_545
Co26 Co52 2.414358 1_555
Co26 Co37 2.443534 1_555
Co26 Co36 2.443534 1_545
Co26 Co42 2.483555 1_555
Co26 Co27 2.495241 1_545
Co26 Tb2 3.001409 1_556
Co26 Tb7 3.176969 1_546
Co27 Co42 2.398349 1_565
Co27 Co53 2.414358 1_555
Co27 Co37 2.443534 1_565
Co27 Co36 2.443534 1_555
Co27 Co43 2.483555 1_555
Co27 Tb3 3.001409 1_556
Co27 Tb6 3.176969 1_566
Co28 Co45 2.398349 1_555
Co28 Co51 2.414358 1_555
Co28 Co35 2.443534 1_555
Co28 Co34 2.443534 1_655
Co28 Co44 2.483555 1_655
Co28 Co29 2.495241 1_655
Co28 Tb1 3.001409 1_555
Co28 Tb4 3.176969 1_555
Co29 Co44 2.398349 1_555
Co29 Co50 2.414358 1_555
Co29 Co35 2.443534 1_455
Co29 Co34 2.443534 1_555
Co29 Co45 2.483555 1_455
Co29 Tb0 3.001409 1_555
Co29 Tb5 3.176969 1_555
Co30 Co47 2.398349 1_565
Co30 Co48 2.414358 1_555
Co30 Co32 2.443534 1_565
Co30 Co33 2.443534 1_555
Co30 Co46 2.483555 1_555
Co30 Co31 2.495241 1_565
Co30 Co9 2.573934 1_565
Co30 Tb3 3.001409 1_555
Co30 Tb6 3.176969 1_565
Co31 Co46 2.398349 1_545
Co31 Co49 2.414358 1_555
Co31 Co32 2.443534 1_555
Co31 Co33 2.443534 1_545
Co31 Co47 2.483555 1_555
Co31 Co8 2.573934 1_545
Co31 Tb2 3.001409 1_555
Co31 Tb7 3.176969 1_545
Co32 Co49 2.398349 1_555
Co32 Co47 2.414358 1_555
Co32 Co48 2.483555 1_545
Co32 Co33 2.495241 1_545
Co32 Co9 2.565195 1_555
Co32 Tb1 3.001409 1_555
Co32 Tb5 3.176969 1_555
Co33 Co48 2.398349 1_555
Co33 Co46 2.414358 1_555
Co33 Co49 2.483555 1_565
Co33 Co8 2.565195 1_555
Co33 Tb0 3.001409 1_555
Co33 Tb4 3.176969 1_555
Co34 Co51 2.398349 1_455
Co34 Co44 2.414358 1_555
Co34 Co50 2.483555 1_555
Co34 Co35 2.495241 1_455
Co34 Tb2 3.001409 1_556
Co34 Tb6 3.176969 1_456
Co35 Co50 2.398349 1_655
Co35 Co45 2.414358 1_555
Co35 Co51 2.483555 1_555
Co35 Tb3 3.001409 1_556
Co35 Tb7 3.176969 1_656
Co36 Co53 2.398349 1_555
Co36 Co43 2.414358 1_555
Co36 Co52 2.483555 1_565
Co36 Co37 2.495241 1_565
Co36 Tb0 3.001409 1_555
Co36 Tb4 3.176969 1_555
Co37 Co52 2.398349 1_555
Co37 Co42 2.414358 1_555
Co37 Co53 2.483555 1_545
Co37 Tb1 3.001409 1_555
Co37 Tb5 3.176969 1_555
Co38 Co55 2.398349 1_655
Co38 Co40 2.414358 1_555
Co38 Co54 2.483555 1_555
Co38 Co39 2.495241 1_655
Co38 Co8 2.573934 1_655
Co38 Tb3 3.001409 1_555
Co38 Tb7 3.176969 1_655
Co39 Co54 2.398349 1_455
Co39 Co41 2.414358 1_555
Co39 Co55 2.483555 1_555
Co39 Co9 2.573934 1_455
Co39 Tb2 3.001409 1_555
Co39 Tb6 3.176969 1_455
Co40 Co8 2.689552 1_655
Co40 Tb4 2.931370 1_555
Co40 Tb0 2.943670 1_655
Co41 Co9 2.689552 1_455
Co41 Tb5 2.931370 1_555
Co41 Tb1 2.943670 1_455
Co42 Tb6 2.931370 1_556
Co42 Tb2 2.943670 1_556
Co43 Tb7 2.931370 1_556
Co43 Tb3 2.943670 1_556
Co44 Tb5 2.931370 1_555
Co44 Tb1 2.943670 1_455
Co45 Tb4 2.931370 1_555
Co45 Tb0 2.943670 1_655
Co46 Co8 2.629399 1_555
Co46 Tb7 2.931370 1_555
Co46 Tb3 2.943670 1_555
Co47 Co9 2.629399 1_555
Co47 Tb6 2.931370 1_555
Co47 Tb2 2.943670 1_555
Co48 Co9 2.689552 1_565
Co48 Tb4 2.931370 1_555
Co48 Tb1 2.943670 1_565
Co49 Co8 2.689552 1_545
Co49 Tb5 2.931370 1_555
Co49 Tb0 2.943670 1_545
Co50 Tb7 2.931370 1_556
Co50 Tb2 2.943670 1_556
Co51 Tb6 2.931370 1_556
Co51 Tb3 2.943670 1_556
Co52 Tb5 2.931370 1_555
Co52 Tb0 2.943670 1_545
Co53 Tb4 2.931370 1_555
Co53 Tb1 2.943670 1_565
Co54 Co9 2.629399 1_555
Co54 Tb6 2.931370 1_555
Co54 Tb3 2.943670 1_555
Co55 Co8 2.629399 1_555
Co55 Tb7 2.931370 1_555
Co55 Tb2 2.943670 1_555
B0 Co5 2.017758 1_665
B0 Co7 2.017758 1_665
B0 Co45 2.025848 1_555
B0 Co53 2.025848 1_555
B0 Co48 2.025848 1_555
B0 Co40 2.025848 1_555
B0 Tb4 2.801876 1_555
B0 Tb1 3.097842 1_565
B0 Tb0 3.097842 1_655
B1 Co5 2.017758 1_555
B1 Co7 2.017758 1_555
B1 Co52 2.025848 1_555
B1 Co44 2.025848 1_555
B1 Co41 2.025848 1_555
B1 Co49 2.025848 1_555
B1 Tb5 2.801876 1_555
B1 Tb0 3.097842 1_545
B1 Tb1 3.097842 1_455
B2 Co4 2.017758 1_555
B2 Co6 2.017758 1_554
B2 Co54 2.025848 1_555
B2 Co51 2.025848 1_554
B2 Co47 2.025848 1_555
B2 Co42 2.025848 1_554
B2 Tb6 2.801876 1_555
B2 Tb3 3.097842 1_555
B2 Tb2 3.097842 1_555
B3 Co4 2.017758 1_555
B3 Co6 2.017758 1_554
B3 Co46 2.025848 1_555
B3 Co43 2.025848 1_554
B3 Co55 2.025848 1_555
B3 Co50 2.025848 1_554
B3 Tb7 2.801876 1_555
B3 Tb2 3.097842 1_555
B3 Tb3 3.097842 1_555
