# generated using pymatgen
data_HoFeSi
_symmetry_space_group_name_H-M   'P 1'
_cell_length_a   4.02426377
_cell_length_b   4.02426377
_cell_length_c   6.36295898
_cell_angle_alpha   90.00000000
_cell_angle_beta   90.00000000
_cell_angle_gamma   90.00000000
_symmetry_Int_Tables_number   1
_chemical_formula_structural   HoFeSi
_chemical_formula_sum   'Ho2 Fe2 Si2'
_cell_volume   103.04620473
_cell_formula_units_Z   2
loop_
 _symmetry_equiv_pos_site_id
 _symmetry_equiv_pos_as_xyz
  1  'x, y, z'
loop_
 _atom_site_type_symbol
 _atom_site_label
 _atom_site_symmetry_multiplicity
 _atom_site_fract_x
 _atom_site_fract_y
 _atom_site_fract_z
 _atom_site_occupancy
  Ho  Ho0  1  0.75000000  0.75000000  0.31118211  1
  Ho  Ho1  1  0.25000000  0.25000000  0.68881789  1
  Fe  Fe0  1  0.75000000  0.25000000  0.00000000  1
  Fe  Fe1  1  0.25000000  0.75000000  0.00000000  1
  Si  Si0  1  0.75000000  0.75000000  0.82027817  1
  Si  Si1  1  0.25000000  0.25000000  0.17972183  1
loop_
_geom_bond_atom_site_label_1
_geom_bond_atom_site_label_2
_geom_bond_distance
_geom_bond_site_symmetry_2
Ho0 Si1 2.965981 1_665
Ho0 Si1 2.965981 1_555
Ho0 Si1 2.965981 1_655
Ho0 Si1 2.965981 1_565
Ho0 Si0 3.239357 1_555
Ho1 Si0 2.965981 1_555
Ho1 Si0 2.965981 1_445
Ho1 Si0 2.965981 1_455
Ho1 Si0 2.965981 1_545
Ho1 Si1 3.239357 1_555
Fe0 Si1 2.314392 1_555
Fe0 Si0 2.314392 1_554
Fe0 Si0 2.314392 1_544
Fe0 Si1 2.314392 1_655
Fe0 Ho0 2.822982 1_555
Fe0 Ho0 2.822982 1_545
Fe0 Ho1 2.822982 1_654
Fe0 Ho1 2.822982 1_554
Fe1 Si1 2.314392 1_565
Fe1 Si1 2.314392 1_555
Fe1 Si0 2.314392 1_554
Fe1 Si0 2.314392 1_454
Fe1 Ho0 2.822982 1_555
Fe1 Ho1 2.822982 1_564
Fe1 Ho0 2.822982 1_455
Fe1 Ho1 2.822982 1_554
