# generated using pymatgen
data_MgHg3
_symmetry_space_group_name_H-M   'P 1'
_cell_length_a   4.47534766
_cell_length_b   4.47534766
_cell_length_c   4.47534766
_cell_angle_alpha   90.00000000
_cell_angle_beta   90.00000000
_cell_angle_gamma   90.00000000
_symmetry_Int_Tables_number   1
_chemical_formula_structural   MgHg3
_chemical_formula_sum   'Mg1 Hg3'
_cell_volume   89.63555982
_cell_formula_units_Z   1
loop_
 _symmetry_equiv_pos_site_id
 _symmetry_equiv_pos_as_xyz
  1  'x, y, z'
loop_
 _atom_site_type_symbol
 _atom_site_label
 _atom_site_symmetry_multiplicity
 _atom_site_fract_x
 _atom_site_fract_y
 _atom_site_fract_z
 _atom_site_occupancy
  Mg  Mg0  1  0.00000000  -0.00000000  -0.00000000  1
  Hg  Hg0  1  0.50000000  0.50000000  -0.00000000  1
  Hg  Hg1  1  0.50000000  -0.00000000  0.50000000  1
  Hg  Hg2  1  -0.00000000  0.50000000  0.50000000  1
loop_
_geom_bond_atom_site_label_1
_geom_bond_atom_site_label_2
_geom_bond_distance
_geom_bond_site_symmetry_2
Hg0 Hg2 3.164549 1_655
Hg0 Mg0 3.164549 1_565
Hg0 Hg2 3.164549 1_654
Hg0 Hg1 3.164549 1_555
Hg0 Hg1 3.164549 1_554
Hg0 Mg0 3.164549 1_665
Hg0 Hg1 3.164549 1_565
Hg0 Hg2 3.164549 1_554
Hg0 Mg0 3.164549 1_655
Hg0 Hg2 3.164549 1_555
Hg0 Hg1 3.164549 1_564
Hg0 Mg0 3.164549 1_555
Hg1 Mg0 3.164549 1_556
Hg1 Hg2 3.164549 1_655
Hg1 Mg0 3.164549 1_656
Hg1 Hg2 3.164549 1_545
Hg1 Hg2 3.164549 1_645
Hg1 Mg0 3.164549 1_655
Hg1 Hg2 3.164549 1_555
Hg1 Mg0 3.164549 1_555
Hg2 Mg0 3.164549 1_556
Hg2 Mg0 3.164549 1_565
Hg2 Mg0 3.164549 1_566
Hg2 Mg0 3.164549 1_555
