# generated using pymatgen
data_Ce7Ni3
_symmetry_space_group_name_H-M   'P 1'
_cell_length_a   5.98805500
_cell_length_b   9.46263248
_cell_length_c   9.46263248
_cell_angle_alpha   119.87207075
_cell_angle_beta   90.00000000
_cell_angle_gamma   90.00000000
_symmetry_Int_Tables_number   1
_chemical_formula_structural   Ce7Ni3
_chemical_formula_sum   'Ce14 Ni6'
_cell_volume   464.94198451
_cell_formula_units_Z   2
loop_
 _symmetry_equiv_pos_site_id
 _symmetry_equiv_pos_as_xyz
  1  'x, y, z'
loop_
 _atom_site_type_symbol
 _atom_site_label
 _atom_site_symmetry_multiplicity
 _atom_site_fract_x
 _atom_site_fract_y
 _atom_site_fract_z
 _atom_site_occupancy
  Ce  Ce0  1  0.41631200  0.33327200  0.66672800  1
  Ce  Ce1  1  0.91631200  0.66672800  0.33327200  1
  Ce  Ce2  1  0.24301800  0.12907800  0.87092200  1
  Ce  Ce3  1  0.24402000  0.74150000  0.87040700  1
  Ce  Ce4  1  0.24402000  0.12959300  0.25850000  1
  Ce  Ce5  1  0.74301800  0.87092200  0.12907800  1
  Ce  Ce6  1  0.74402000  0.25850000  0.12959300  1
  Ce  Ce7  1  0.74402000  0.87040700  0.74150000  1
  Ce  Ce8  1  0.47157500  0.54095700  0.45904300  1
  Ce  Ce9  1  0.47176100  0.91787100  0.45878600  1
  Ce  Ce10  1  0.47176100  0.54121400  0.08212900  1
  Ce  Ce11  1  0.97157500  0.45904300  0.54095700  1
  Ce  Ce12  1  0.97176100  0.08212900  0.54121400  1
  Ce  Ce13  1  0.97176100  0.45878600  0.91787100  1
  Ni  Ni0  1  0.19890200  0.81241300  0.18758700  1
  Ni  Ni1  1  0.19881500  0.37516500  0.18739200  1
  Ni  Ni2  1  0.19881500  0.81260800  0.62483500  1
  Ni  Ni3  1  0.69890200  0.18758700  0.81241300  1
  Ni  Ni4  1  0.69881500  0.62483500  0.81260800  1
  Ni  Ni5  1  0.69881500  0.18739200  0.37516500  1
loop_
_geom_bond_atom_site_label_1
_geom_bond_atom_site_label_2
_geom_bond_distance
_geom_bond_site_symmetry_2
Ce0 Ni3 2.925300 1_555
Ce0 Ni4 2.930062 1_555
Ce0 Ni5 2.930062 1_555
Ce1 Ni0 2.925300 1_655
Ce1 Ni2 2.930062 1_655
Ce1 Ni1 2.930062 1_655
Ce2 Ni1 2.741172 1_556
Ce2 Ni2 2.741172 1_545
Ce2 Ni3 2.893186 1_555
Ce2 Ni3 3.396210 1_455
Ce3 Ni2 2.735582 1_555
Ce3 Ni0 2.743214 1_556
Ce3 Ni4 2.886689 1_555
Ce3 Ni4 3.402174 1_455
Ce4 Ni1 2.735582 1_555
Ce4 Ni0 2.743214 1_545
Ce4 Ni5 2.886689 1_555
Ce4 Ni5 3.402174 1_455
Ce5 Ni5 2.741172 1_565
Ce5 Ni4 2.741172 1_554
Ce5 Ni0 2.893186 1_655
Ce5 Ni0 3.396210 1_555
Ce6 Ni5 2.735582 1_555
Ce6 Ni3 2.743214 1_554
Ce6 Ni1 2.886689 1_655
Ce6 Ni1 3.402174 1_555
Ce7 Ni4 2.735582 1_555
Ce7 Ni3 2.743214 1_565
Ce7 Ni2 2.886689 1_655
Ce7 Ni2 3.402174 1_555
Ce8 Ni2 2.778384 1_555
Ce8 Ni1 2.778384 1_555
Ce8 Ni5 3.321109 1_555
Ce8 Ni4 3.321109 1_555
Ce9 Ni2 2.773327 1_555
Ce9 Ni0 2.774910 1_555
Ce9 Ni5 3.315016 1_565
Ce9 Ni3 3.324731 1_565
Ce10 Ni1 2.773327 1_555
Ce10 Ni0 2.774910 1_555
Ce10 Ni4 3.315016 1_554
Ce10 Ni3 3.324731 1_554
Ce11 Ni4 2.778384 1_555
Ce11 Ni5 2.778384 1_555
Ce11 Ni1 3.321109 1_655
Ce11 Ni2 3.321109 1_655
Ce12 Ni5 2.773327 1_555
Ce12 Ni3 2.774910 1_555
Ce12 Ni2 3.315016 1_645
Ce12 Ni0 3.324731 1_645
Ce13 Ni4 2.773327 1_555
Ce13 Ni3 2.774910 1_555
Ce13 Ni1 3.315016 1_656
Ce13 Ni0 3.324731 1_656
