# generated using pymatgen
data_Mg6ZnCu
_symmetry_space_group_name_H-M   'P 1'
_cell_length_a   4.94446400
_cell_length_b   5.99881800
_cell_length_c   10.55066500
_cell_angle_alpha   90.00000000
_cell_angle_beta   90.00000000
_cell_angle_gamma   90.00000000
_symmetry_Int_Tables_number   1
_chemical_formula_structural   Mg6ZnCu
_chemical_formula_sum   'Mg12 Zn2 Cu2'
_cell_volume   312.94263776
_cell_formula_units_Z   2
loop_
 _symmetry_equiv_pos_site_id
 _symmetry_equiv_pos_as_xyz
  1  'x, y, z'
loop_
 _atom_site_type_symbol
 _atom_site_label
 _atom_site_symmetry_multiplicity
 _atom_site_fract_x
 _atom_site_fract_y
 _atom_site_fract_z
 _atom_site_occupancy
  Mg  Mg0  1  0.00000000  0.25901700  0.08870800  1
  Mg  Mg1  1  0.00000000  0.74098300  0.08870800  1
  Mg  Mg2  1  0.00000000  0.00000000  0.33214700  1
  Mg  Mg3  1  0.50000000  0.74480600  0.41296000  1
  Mg  Mg4  1  0.50000000  0.25519400  0.41296000  1
  Mg  Mg5  1  0.50000000  0.00000000  0.16727000  1
  Mg  Mg6  1  0.00000000  0.75901700  0.58870800  1
  Mg  Mg7  1  0.00000000  0.24098300  0.58870800  1
  Mg  Mg8  1  0.00000000  0.50000000  0.83214700  1
  Mg  Mg9  1  0.50000000  0.24480600  0.91296000  1
  Mg  Mg10  1  0.50000000  0.75519400  0.91296000  1
  Mg  Mg11  1  0.50000000  0.50000000  0.66727000  1
  Zn  Zn0  1  0.00000000  0.50000000  0.33168500  1
  Zn  Zn1  1  0.00000000  0.00000000  0.83168500  1
  Cu  Cu0  1  0.50000000  0.50000000  0.16556000  1
  Cu  Cu1  1  0.50000000  0.00000000  0.66556000  1
loop_
_geom_bond_atom_site_label_1
_geom_bond_atom_site_label_2
_geom_bond_distance
_geom_bond_site_symmetry_2
Mg0 Mg1 2.891226 1_555
Mg0 Zn0 2.943074 1_555
Mg0 Mg2 3.001863 1_555
Mg0 Mg5 3.035335 1_555
Mg0 Mg5 3.035335 1_455
Mg0 Mg8 3.068721 1_554
Mg0 Mg9 3.091516 1_554
Mg0 Mg9 3.091516 1_454
Mg0 Mg1 3.107592 1_545
Mg0 Zn1 3.125371 1_554
Mg1 Zn0 2.943074 1_555
Mg1 Mg2 3.001863 1_565
Mg1 Mg5 3.035335 1_465
Mg1 Mg5 3.035335 1_565
Mg1 Mg8 3.068721 1_554
Mg1 Mg10 3.091516 1_454
Mg1 Mg10 3.091516 1_554
Mg1 Zn1 3.125371 1_564
Mg2 Zn0 2.999413 1_545
Mg2 Zn0 2.999413 1_555
Mg2 Mg5 3.022914 1_455
Mg2 Mg5 3.022914 1_555
Mg2 Mg3 3.030256 1_545
Mg2 Mg4 3.030256 1_455
Mg2 Mg3 3.030256 1_445
Mg2 Mg4 3.030256 1_555
Mg2 Mg7 3.068721 1_555
Mg2 Mg6 3.068721 1_545
Mg3 Mg4 2.937093 1_555
Mg3 Zn0 3.000646 1_655
Mg3 Zn0 3.000646 1_555
Mg3 Mg5 3.010482 1_565
Mg3 Mg4 3.061725 1_565
Mg3 Mg6 3.091516 1_555
Mg3 Mg6 3.091516 1_655
Mg4 Zn0 3.000646 1_655
Mg4 Zn0 3.000646 1_555
Mg4 Mg5 3.010482 1_555
Mg4 Mg7 3.091516 1_655
Mg4 Mg7 3.091516 1_555
Mg5 Mg9 3.058736 1_554
Mg6 Mg7 2.891226 1_565
Mg6 Zn1 2.943074 1_565
Mg6 Mg8 3.001863 1_555
Mg6 Mg7 3.107592 1_555
Mg6 Zn0 3.125371 1_555
Mg7 Zn1 2.943074 1_555
Mg7 Mg8 3.001863 1_555
Mg7 Zn0 3.125371 1_555
Mg8 Zn1 2.999413 1_555
Mg8 Zn1 2.999413 1_565
Mg8 Mg9 3.030256 1_455
Mg8 Mg9 3.030256 1_555
Mg9 Zn1 3.000646 1_555
Mg9 Zn1 3.000646 1_655
Mg10 Mg9 2.937093 1_565
Mg10 Zn1 3.000646 1_565
Mg10 Zn1 3.000646 1_665
Mg10 Mg11 3.010482 1_555
Mg10 Mg8 3.030256 1_655
Mg10 Mg8 3.030256 1_555
Mg10 Mg5 3.058736 1_566
Mg10 Mg9 3.061725 1_555
Mg11 Mg9 3.010482 1_555
Mg11 Mg8 3.022914 1_655
Mg11 Mg8 3.022914 1_555
Mg11 Mg6 3.035335 1_555
Mg11 Mg6 3.035335 1_655
Mg11 Mg7 3.035335 1_655
Mg11 Mg7 3.035335 1_555
Mg11 Mg4 3.058736 1_555
Mg11 Mg3 3.058736 1_555
Cu0 Mg0 2.976439 1_655
Cu0 Mg1 2.976439 1_555
Cu0 Mg1 2.976439 1_655
Cu0 Mg0 2.976439 1_555
Cu0 Mg3 2.994988 1_555
Cu0 Mg4 2.994988 1_555
Cu0 Mg5 2.999463 1_555
Cu0 Mg5 2.999463 1_565
Cu0 Zn0 3.030510 1_555
Cu0 Zn0 3.030510 1_655
Cu0 Mg10 3.073481 1_554
Cu0 Mg9 3.073481 1_554
Cu1 Mg7 2.976439 1_555
Cu1 Mg7 2.976439 1_655
Cu1 Mg6 2.976439 1_545
Cu1 Mg6 2.976439 1_645
Cu1 Mg9 2.994988 1_555
Cu1 Mg10 2.994988 1_545
Cu1 Mg11 2.999463 1_545
Cu1 Mg11 2.999463 1_555
Cu1 Zn1 3.030510 1_655
Cu1 Zn1 3.030510 1_555
Cu1 Mg3 3.073481 1_545
Cu1 Mg4 3.073481 1_555
