# generated using pymatgen
data_TbAs3
_symmetry_space_group_name_H-M   'P 1'
_cell_length_a   4.37736800
_cell_length_b   4.37736800
_cell_length_c   4.37736800
_cell_angle_alpha   90.00000000
_cell_angle_beta   90.00000000
_cell_angle_gamma   90.00000000
_symmetry_Int_Tables_number   1
_chemical_formula_structural   TbAs3
_chemical_formula_sum   'Tb1 As3'
_cell_volume   83.87628299
_cell_formula_units_Z   1
loop_
 _symmetry_equiv_pos_site_id
 _symmetry_equiv_pos_as_xyz
  1  'x, y, z'
loop_
 _atom_site_type_symbol
 _atom_site_label
 _atom_site_symmetry_multiplicity
 _atom_site_fract_x
 _atom_site_fract_y
 _atom_site_fract_z
 _atom_site_occupancy
  Tb  Tb0  1  0.00000000  0.00000000  0.00000000  1
  As  As0  1  0.00000000  0.50000000  0.50000000  1
  As  As1  1  0.50000000  0.00000000  0.50000000  1
  As  As2  1  0.50000000  0.50000000  0.00000000  1
loop_
_geom_bond_atom_site_label_1
_geom_bond_atom_site_label_2
_geom_bond_distance
_geom_bond_site_symmetry_2
As0 Tb0 3.095267 1_555
As0 Tb0 3.095267 1_556
As0 Tb0 3.095267 1_565
As0 Tb0 3.095267 1_566
As1 Tb0 3.095267 1_656
As1 Tb0 3.095267 1_655
As1 Tb0 3.095267 1_556
As1 Tb0 3.095267 1_555
As2 Tb0 3.095267 1_655
As2 Tb0 3.095267 1_555
As2 Tb0 3.095267 1_565
As2 Tb0 3.095267 1_665
