# generated using pymatgen
data_CaMnO2
_symmetry_space_group_name_H-M   'P 1'
_cell_length_a   3.32281600
_cell_length_b   8.05115500
_cell_length_c   8.09899895
_cell_angle_alpha   70.39299277
_cell_angle_beta   90.00000000
_cell_angle_gamma   90.00000000
_symmetry_Int_Tables_number   1
_chemical_formula_structural   CaMnO2
_chemical_formula_sum   'Ca4 Mn4 O8'
_cell_volume   204.10530673
_cell_formula_units_Z   4
loop_
 _symmetry_equiv_pos_site_id
 _symmetry_equiv_pos_as_xyz
  1  'x, y, z'
loop_
 _atom_site_type_symbol
 _atom_site_label
 _atom_site_symmetry_multiplicity
 _atom_site_fract_x
 _atom_site_fract_y
 _atom_site_fract_z
 _atom_site_occupancy
  Ca  Ca0  1  0.25000000  0.69801800  0.93063700  1
  Ca  Ca1  1  0.75000000  0.30198200  0.06936300  1
  Ca  Ca2  1  0.75000000  0.56510200  0.31319100  1
  Ca  Ca3  1  0.25000000  0.43489800  0.68680900  1
  Mn  Mn0  1  0.75000000  0.06311600  0.81091800  1
  Mn  Mn1  1  0.75000000  0.81796000  0.55807500  1
  Mn  Mn2  1  0.25000000  0.18204000  0.44192500  1
  Mn  Mn3  1  0.25000000  0.93688400  0.18908200  1
  O  O0  1  0.75000000  0.05435800  0.31955100  1
  O  O1  1  0.75000000  0.30179600  0.56233600  1
  O  O2  1  0.25000000  0.69820400  0.43766400  1
  O  O3  1  0.25000000  0.94564200  0.68044900  1
  O  O4  1  0.25000000  0.17508600  0.93728600  1
  O  O5  1  0.75000000  0.56688100  0.80805100  1
  O  O6  1  0.75000000  0.82491400  0.06271400  1
  O  O7  1  0.25000000  0.43311900  0.19194900  1
loop_
_geom_bond_atom_site_label_1
_geom_bond_atom_site_label_2
_geom_bond_distance
_geom_bond_site_symmetry_2
Ca0 O3 2.317171 1_555
Ca0 O5 2.358856 1_555
Ca0 O5 2.358856 1_455
Ca0 O6 2.383644 1_556
Ca0 O6 2.383644 1_456
Ca0 O7 2.449148 1_556
Ca1 O0 2.317171 1_555
Ca1 O7 2.358856 1_555
Ca1 O7 2.358856 1_655
Ca1 O4 2.383644 1_654
Ca1 O4 2.383644 1_554
Ca1 O5 2.449148 1_554
Ca2 O7 2.356673 1_555
Ca2 O7 2.356673 1_655
Ca2 O6 2.375487 1_555
Ca2 O2 2.376966 1_555
Ca2 O2 2.376966 1_655
Ca2 O1 2.386381 1_555
Ca3 O5 2.356673 1_555
Ca3 O5 2.356673 1_455
Ca3 O4 2.375487 1_555
Ca3 O1 2.376966 1_555
Ca3 O1 2.376966 1_455
Ca3 O2 2.386381 1_555
Mn0 O1 2.269251 1_555
Mn0 O6 2.282961 1_546
Mn0 O4 2.289023 1_555
Mn0 O4 2.289023 1_655
Mn0 O3 2.332830 1_645
Mn0 O3 2.332830 1_545
Mn1 O0 2.210597 1_565
Mn1 O2 2.296081 1_655
Mn1 O2 2.296081 1_555
Mn1 O5 2.332062 1_555
Mn1 O3 2.341604 1_655
Mn1 O3 2.341604 1_555
Mn2 O3 2.210597 1_545
Mn2 O1 2.296081 1_455
Mn2 O1 2.296081 1_555
Mn2 O7 2.332062 1_555
Mn2 O0 2.341604 1_455
Mn2 O0 2.341604 1_555
Mn3 O2 2.269251 1_555
Mn3 O4 2.282961 1_564
Mn3 O6 2.289023 1_555
Mn3 O6 2.289023 1_455
Mn3 O0 2.332830 1_565
Mn3 O0 2.332830 1_465
