# generated using pymatgen
data_ErZr6(PO4)9
_symmetry_space_group_name_H-M   'P 1'
_cell_length_a   8.94697060
_cell_length_b   8.94697060
_cell_length_c   22.95961300
_cell_angle_alpha   90.00000000
_cell_angle_beta   90.00000000
_cell_angle_gamma   120.00000444
_symmetry_Int_Tables_number   1
_chemical_formula_structural   ErZr6(PO4)9
_chemical_formula_sum   'Er2 Zr12 P18 O72'
_cell_volume   1591.64861703
_cell_formula_units_Z   2
loop_
 _symmetry_equiv_pos_site_id
 _symmetry_equiv_pos_as_xyz
  1  'x, y, z'
loop_
 _atom_site_type_symbol
 _atom_site_label
 _atom_site_symmetry_multiplicity
 _atom_site_fract_x
 _atom_site_fract_y
 _atom_site_fract_z
 _atom_site_occupancy
  Er  Er0  1  0.00000000  0.00000000  0.50000000  1
  Er  Er1  1  0.00000000  0.00000000  0.00000000  1
  Zr  Zr0  1  0.33333300  0.66666700  0.52759500  1
  Zr  Zr1  1  0.66666700  0.33333300  0.47240500  1
  Zr  Zr2  1  0.66666700  0.33333300  0.97240500  1
  Zr  Zr3  1  0.33333300  0.66666700  0.02759500  1
  Zr  Zr4  1  0.00000000  0.00000000  0.64898500  1
  Zr  Zr5  1  0.00000000  0.00000000  0.35101500  1
  Zr  Zr6  1  0.00000000  0.00000000  0.85101500  1
  Zr  Zr7  1  0.00000000  0.00000000  0.14898500  1
  Zr  Zr8  1  0.33333300  0.66666700  0.81308700  1
  Zr  Zr9  1  0.66666700  0.33333300  0.18691300  1
  Zr  Zr10  1  0.66666700  0.33333300  0.68691300  1
  Zr  Zr11  1  0.33333300  0.66666700  0.31308700  1
  P  P0  1  0.37239100  0.31924700  0.57842600  1
  P  P1  1  0.62760900  0.68075300  0.42157400  1
  P  P2  1  0.68075300  0.05314400  0.57842600  1
  P  P3  1  0.31924700  0.37239100  0.92157400  1
  P  P4  1  0.31924700  0.94685600  0.42157400  1
  P  P5  1  0.68075300  0.62760900  0.07842600  1
  P  P6  1  0.94685600  0.62760900  0.57842600  1
  P  P7  1  0.05314400  0.68075300  0.92157400  1
  P  P8  1  0.05314400  0.37239100  0.42157400  1
  P  P9  1  0.94685600  0.31924700  0.07842600  1
  P  P10  1  0.62760900  0.94685600  0.92157400  1
  P  P11  1  0.37239100  0.05314400  0.07842600  1
  P  P12  1  0.29231200  0.00000000  0.75000000  1
  P  P13  1  0.70768800  0.00000000  0.25000000  1
  P  P14  1  0.00000000  0.29231200  0.75000000  1
  P  P15  1  0.00000000  0.70768800  0.25000000  1
  P  P16  1  0.70768800  0.70768800  0.75000000  1
  P  P17  1  0.29231200  0.29231200  0.25000000  1
  O  O0  1  0.45264100  0.28099900  0.52551700  1
  O  O1  1  0.54735900  0.71900100  0.47448300  1
  O  O2  1  0.71900100  0.17164300  0.52551700  1
  O  O3  1  0.28099900  0.45264100  0.97448300  1
  O  O4  1  0.28099900  0.82835700  0.47448300  1
  O  O5  1  0.71900100  0.54735900  0.02551700  1
  O  O6  1  0.82835700  0.54735900  0.52551700  1
  O  O7  1  0.17164300  0.71900100  0.97448300  1
  O  O8  1  0.17164300  0.45264100  0.47448300  1
  O  O9  1  0.82835700  0.28099900  0.02551700  1
  O  O10  1  0.54735900  0.82835700  0.97448300  1
  O  O11  1  0.45264100  0.17164300  0.02551700  1
  O  O12  1  0.37524900  0.49181400  0.57376500  1
  O  O13  1  0.62475100  0.50818600  0.42623500  1
  O  O14  1  0.50818600  0.88343500  0.57376500  1
  O  O15  1  0.49181400  0.37524900  0.92623500  1
  O  O16  1  0.49181400  0.11656500  0.42623500  1
  O  O17  1  0.50818600  0.62475100  0.07376500  1
  O  O18  1  0.11656500  0.62475100  0.57376500  1
  O  O19  1  0.88343500  0.50818600  0.92623500  1
  O  O20  1  0.88343500  0.37524900  0.42623500  1
  O  O21  1  0.11656500  0.49181400  0.07376500  1
  O  O22  1  0.62475100  0.11656500  0.92623500  1
  O  O23  1  0.37524900  0.88343500  0.07376500  1
  O  O24  1  0.17569400  0.16889400  0.57790300  1
  O  O25  1  0.82430600  0.83110600  0.42209700  1
  O  O26  1  0.83110600  0.00680000  0.57790300  1
  O  O27  1  0.16889400  0.17569400  0.92209700  1
  O  O28  1  0.16889400  0.99320000  0.42209700  1
  O  O29  1  0.83110600  0.82430600  0.07790300  1
  O  O30  1  0.99320000  0.82430600  0.57790300  1
  O  O31  1  0.00680000  0.83110600  0.92209700  1
  O  O32  1  0.00680000  0.17569400  0.42209700  1
  O  O33  1  0.99320000  0.16889400  0.07790300  1
  O  O34  1  0.82430600  0.99320000  0.92209700  1
  O  O35  1  0.17569400  0.00680000  0.07790300  1
  O  O36  1  0.02940700  0.20464600  0.69580300  1
  O  O37  1  0.97059300  0.79535400  0.30419700  1
  O  O38  1  0.79535400  0.82476100  0.69580300  1
  O  O39  1  0.20464600  0.02940700  0.80419700  1
  O  O40  1  0.20464600  0.17523900  0.30419700  1
  O  O41  1  0.79535400  0.97059300  0.19580300  1
  O  O42  1  0.17523900  0.97059300  0.69580300  1
  O  O43  1  0.82476100  0.79535400  0.80419700  1
  O  O44  1  0.82476100  0.02940700  0.30419700  1
  O  O45  1  0.17523900  0.20464600  0.19580300  1
  O  O46  1  0.97059300  0.17523900  0.80419700  1
  O  O47  1  0.02940700  0.82476100  0.19580300  1
  O  O48  1  0.46145900  0.31622700  0.63510100  1
  O  O49  1  0.53854100  0.68377300  0.36489900  1
  O  O50  1  0.68377300  0.14523200  0.63510100  1
  O  O51  1  0.31622700  0.46145900  0.86489900  1
  O  O52  1  0.31622700  0.85476800  0.36489900  1
  O  O53  1  0.68377300  0.53854100  0.13510100  1
  O  O54  1  0.85476800  0.53854100  0.63510100  1
  O  O55  1  0.14523200  0.68377300  0.86489900  1
  O  O56  1  0.14523200  0.46145900  0.36489900  1
  O  O57  1  0.85476800  0.31622700  0.13510100  1
  O  O58  1  0.53854100  0.85476800  0.86489900  1
  O  O59  1  0.46145900  0.14523200  0.13510100  1
  O  O60  1  0.46846400  0.15960100  0.74055200  1
  O  O61  1  0.53153600  0.84039900  0.25944800  1
  O  O62  1  0.84039900  0.30886200  0.74055200  1
  O  O63  1  0.15960100  0.46846400  0.75944800  1
  O  O64  1  0.15960100  0.69113800  0.25944800  1
  O  O65  1  0.84039900  0.53153600  0.24055200  1
  O  O66  1  0.69113800  0.53153600  0.74055200  1
  O  O67  1  0.30886200  0.84039900  0.75944800  1
  O  O68  1  0.30886200  0.46846400  0.25944800  1
  O  O69  1  0.69113800  0.15960100  0.24055200  1
  O  O70  1  0.53153600  0.69113800  0.75944800  1
  O  O71  1  0.46846400  0.30886200  0.24055200  1
loop_
_geom_bond_atom_site_label_1
_geom_bond_atom_site_label_2
_geom_bond_distance
_geom_bond_site_symmetry_2
Er0 O24 2.361821 1_555
Er0 O25 2.361821 1_445
Er0 O30 2.361821 1_445
Er0 O32 2.361821 1_555
Er0 O26 2.361821 1_455
Er0 O28 2.361821 1_545
Er1 O29 2.361821 1_445
Er1 O27 2.361821 1_554
Er1 O35 2.361821 1_555
Er1 O34 2.361821 1_444
Er1 O33 2.361821 1_455
Er1 O31 2.361821 1_544
O0 P0 1.534271 1_555
O0 Zr1 2.115757 1_555
O1 P1 1.534271 1_555
O1 Zr0 2.115757 1_555
O2 P2 1.534276 1_555
O2 Zr1 2.115742 1_555
O3 P3 1.534271 1_555
O3 Zr3 2.115757 1_556
O4 P4 1.534276 1_555
O4 Zr0 2.115742 1_555
O5 P5 1.534271 1_555
O5 Zr2 2.115757 1_554
O6 P6 1.534275 1_555
O6 Zr1 2.115752 1_555
O7 P7 1.534276 1_555
O7 Zr3 2.115742 1_556
O8 P8 1.534275 1_555
O8 Zr0 2.115752 1_555
O9 P9 1.534276 1_555
O9 Zr2 2.115742 1_554
O10 P10 1.534275 1_555
O10 Zr3 2.115752 1_556
O11 P11 1.534275 1_555
O11 Zr2 2.115752 1_554
O12 P0 1.535062 1_555
O12 Zr0 2.073254 1_555
O13 P1 1.535062 1_555
O13 Zr1 2.073254 1_555
O14 P2 1.535061 1_565
O14 Zr0 2.073249 1_555
O15 P3 1.535062 1_555
O15 Zr2 2.073254 1_555
O16 P4 1.535061 1_545
O16 Zr1 2.073249 1_555
O17 P5 1.535062 1_555
O17 Zr3 2.073254 1_555
O18 P6 1.535062 1_455
O18 Zr0 2.073247 1_555
O19 P7 1.535061 1_655
O19 Zr2 2.073249 1_555
O20 P8 1.535062 1_655
O20 Zr1 2.073247 1_555
O21 P9 1.535061 1_455
O21 Zr3 2.073249 1_555
O22 P10 1.535062 1_545
O22 Zr2 2.073247 1_555
O23 P11 1.535062 1_565
O23 Zr3 2.073247 1_555
O24 P0 1.593554 1_555
O24 Zr4 2.245551 1_555
O25 P1 1.593554 1_555
O25 Zr5 2.245551 1_665
O26 P2 1.593554 1_555
O26 Zr4 2.245551 1_655
O27 P3 1.593554 1_555
O27 Zr6 2.245551 1_555
O28 P4 1.593554 1_555
O28 Zr5 2.245551 1_565
O29 P5 1.593554 1_555
O29 Zr7 2.245551 1_665
O30 P6 1.593554 1_555
O30 Zr4 2.245551 1_665
O31 P7 1.593554 1_555
O31 Zr6 2.245551 1_565
O32 P8 1.593554 1_555
O32 Zr5 2.245551 1_555
O33 P9 1.593554 1_555
O33 Zr7 2.245551 1_655
O34 P10 1.593554 1_555
O34 Zr6 2.245551 1_665
O35 P11 1.593554 1_555
O35 Zr7 2.245551 1_555
O36 P14 1.561785 1_555
O36 Zr4 2.023702 1_555
O37 P15 1.561785 1_655
O37 Zr5 2.023702 1_665
O38 P16 1.561785 1_555
O38 Zr4 2.023702 1_665
O39 P12 1.561785 1_555
O39 Zr6 2.023702 1_555
O40 P17 1.561785 1_555
O40 Zr5 2.023702 1_555
O41 P13 1.561785 1_565
O41 Zr7 2.023702 1_665
O42 P12 1.561785 1_565
O42 Zr4 2.023702 1_565
O43 P16 1.561785 1_555
O43 Zr6 2.023702 1_665
O44 P13 1.561785 1_555
O44 Zr5 2.023702 1_655
O45 P17 1.561785 1_555
O45 Zr7 2.023702 1_555
O46 P14 1.561785 1_655
O46 Zr6 2.023702 1_655
O47 P15 1.561785 1_555
O47 Zr7 2.023702 1_565
O48 P0 1.533137 1_555
O48 Zr10 2.128003 1_555
O49 P1 1.533137 1_555
O49 Zr11 2.128003 1_555
O50 P2 1.533137 1_555
O50 Zr10 2.127996 1_555
O51 P3 1.533137 1_555
O51 Zr8 2.128003 1_555
O52 P4 1.533137 1_555
O52 Zr11 2.127996 1_555
O53 P5 1.533137 1_555
O53 Zr9 2.128003 1_555
O54 P6 1.533137 1_555
O54 Zr10 2.128000 1_555
O55 P7 1.533137 1_555
O55 Zr8 2.127996 1_555
O56 P8 1.533137 1_555
O56 Zr11 2.128000 1_555
O57 P9 1.533137 1_555
O57 Zr9 2.127996 1_555
O58 P10 1.533137 1_555
O58 Zr8 2.128000 1_555
O59 P11 1.533137 1_555
O59 Zr9 2.128000 1_555
O60 P12 1.522978 1_555
O60 Zr10 2.078702 1_555
O61 P13 1.522978 1_565
O61 Zr11 2.078702 1_555
O62 P14 1.522973 1_655
O62 Zr10 2.078702 1_555
O63 P14 1.522978 1_555
O63 Zr8 2.078702 1_555
O64 P15 1.522973 1_555
O64 Zr11 2.078702 1_555
O65 P15 1.522978 1_655
O65 Zr9 2.078702 1_555
O66 P16 1.522982 1_555
O66 Zr10 2.078702 1_555
O67 P12 1.522973 1_565
O67 Zr8 2.078702 1_555
O68 P17 1.522982 1_555
O68 Zr11 2.078702 1_555
O69 P13 1.522973 1_555
O69 Zr9 2.078702 1_555
O70 P16 1.522982 1_555
O70 Zr8 2.078702 1_555
O71 P17 1.522982 1_555
O71 Zr9 2.078702 1_555
