# generated using pymatgen
data_VSbO4
_symmetry_space_group_name_H-M   'P 1'
_cell_length_a   5.64059503
_cell_length_b   5.63937240
_cell_length_c   9.86893610
_cell_angle_alpha   80.77702665
_cell_angle_beta   78.63356132
_cell_angle_gamma   111.97934788
_symmetry_Int_Tables_number   1
_chemical_formula_structural   VSbO4
_chemical_formula_sum   'V4 Sb4 O16'
_cell_volume   275.78007472
_cell_formula_units_Z   4
loop_
 _symmetry_equiv_pos_site_id
 _symmetry_equiv_pos_as_xyz
  1  'x, y, z'
loop_
 _atom_site_type_symbol
 _atom_site_label
 _atom_site_symmetry_multiplicity
 _atom_site_fract_x
 _atom_site_fract_y
 _atom_site_fract_z
 _atom_site_occupancy
  V  V0  1  0.49998100  0.49998900  0.00003200  1
  V  V1  1  0.25002100  0.25001200  0.49996700  1
  V  V2  1  0.74999400  0.75001900  0.49999000  1
  V  V3  1  0.00000800  0.99997400  0.00001600  1
  Sb  Sb0  1  0.62504100  0.12503400  0.74995800  1
  Sb  Sb1  1  0.37494000  0.87493000  0.25003300  1
  Sb  Sb2  1  0.12506900  0.62510600  0.74998000  1
  Sb  Sb3  1  0.87494900  0.37493000  0.25002800  1
  O  O0  1  0.39867500  0.20041800  0.90088300  1
  O  O1  1  0.14858600  0.95043500  0.40092600  1
  O  O2  1  0.89877700  0.70048900  0.90086800  1
  O  O3  1  0.64872200  0.45054900  0.40091300  1
  O  O4  1  0.85122200  0.04948000  0.59912500  1
  O  O5  1  0.60139700  0.79957000  0.09907400  1
  O  O6  1  0.35134300  0.54958000  0.59911700  1
  O  O7  1  0.10127700  0.29948100  0.09909100  1
  O  O8  1  0.82635500  0.52100100  0.65266500  1
  O  O9  1  0.57631000  0.27100600  0.15265300  1
  O  O10  1  0.32636200  0.02098500  0.65267700  1
  O  O11  1  0.07631900  0.77103400  0.15264000  1
  O  O12  1  0.92366300  0.22903000  0.84732200  1
  O  O13  1  0.67365800  0.97893500  0.34737300  1
  O  O14  1  0.42366700  0.72904200  0.84731300  1
  O  O15  1  0.17366500  0.47896900  0.34735600  1
loop_
_geom_bond_atom_site_label_1
_geom_bond_atom_site_label_2
_geom_bond_distance
_geom_bond_site_symmetry_2
O0 Sb0 1.972111 1_555
O0 V0 2.041004 1_556
O0 V3 2.041382 1_546
O1 Sb1 1.972258 1_555
O1 V1 2.040368 1_565
O1 V2 2.040916 1_455
O2 Sb2 1.971624 1_655
O2 V3 2.040583 1_656
O2 V0 2.042038 1_556
O3 Sb3 1.972163 1_555
O3 V2 2.040062 1_555
O3 V1 2.041435 1_555
O4 Sb0 1.971461 1_555
O4 V2 2.040388 1_545
O4 V1 2.042053 1_655
O5 Sb1 1.972552 1_555
O5 V0 2.040385 1_555
O5 V3 2.040987 1_655
O6 Sb2 1.971869 1_555
O6 V1 2.041003 1_555
O6 V2 2.041298 1_555
O7 Sb3 1.972278 1_455
O7 V3 2.040215 1_545
O7 V0 2.041446 1_555
O8 V2 2.042602 1_555
O8 Sb0 2.045136 1_555
O8 Sb2 2.045512 1_655
O9 V0 2.042017 1_555
O9 Sb3 2.045517 1_555
O9 Sb1 2.045809 1_545
O10 V1 2.042800 1_555
O10 Sb2 2.044747 1_545
O10 Sb0 2.045108 1_555
O11 V3 2.041833 1_555
O11 Sb1 2.045547 1_555
O11 Sb3 2.045952 1_455
O12 V3 2.042803 1_646
O12 Sb0 2.045387 1_555
O12 Sb2 2.045751 1_655
O13 V2 2.041790 1_555
O13 Sb3 2.045352 1_565
O13 Sb1 2.045667 1_555
O14 V0 2.042856 1_556
O14 Sb2 2.045052 1_555
O14 Sb0 2.045382 1_565
O15 V1 2.041953 1_555
O15 Sb1 2.045152 1_555
O15 Sb3 2.045588 1_455
