# generated using pymatgen
data_InAgSe2
_symmetry_space_group_name_H-M   'P 1'
_cell_length_a   4.01107804
_cell_length_b   4.01107804
_cell_length_c   7.04400593
_cell_angle_alpha   73.45815010
_cell_angle_beta   73.45815010
_cell_angle_gamma   59.99999933
_symmetry_Int_Tables_number   1
_chemical_formula_structural   InAgSe2
_chemical_formula_sum   'In1 Ag1 Se2'
_cell_volume   92.69035603
_cell_formula_units_Z   1
loop_
 _symmetry_equiv_pos_site_id
 _symmetry_equiv_pos_as_xyz
  1  'x, y, z'
loop_
 _atom_site_type_symbol
 _atom_site_label
 _atom_site_symmetry_multiplicity
 _atom_site_fract_x
 _atom_site_fract_y
 _atom_site_fract_z
 _atom_site_occupancy
  In  In0  1  0.50000000  0.50000000  0.50000000  1
  Ag  Ag0  1  0.00000000  0.00000000  0.00000000  1
  Se  Se0  1  0.75256000  0.75256000  0.74232000  1
  Se  Se1  1  0.24744000  0.24744000  0.25768000  1
loop_
_geom_bond_atom_site_label_1
_geom_bond_atom_site_label_2
_geom_bond_distance
_geom_bond_site_symmetry_2
In0 Se1 2.821618 1_555
In0 Se0 2.821618 1_555
In0 Se0 2.821618 1_545
In0 Se0 2.821618 1_455
In0 Se1 2.821618 1_655
In0 Se1 2.821618 1_565
Ag0 Se1 2.881217 1_555
Ag0 Se0 2.881217 1_444
Ag0 Se1 2.881217 1_545
Ag0 Se0 2.881217 1_454
Ag0 Se0 2.881217 1_544
Ag0 Se1 2.881217 1_455
