# generated using pymatgen
data_CaMg6Sn
_symmetry_space_group_name_H-M   'P 1'
_cell_length_a   5.16889700
_cell_length_b   6.71729800
_cell_length_c   11.44528400
_cell_angle_alpha   90.00000000
_cell_angle_beta   90.00000000
_cell_angle_gamma   90.00000000
_symmetry_Int_Tables_number   1
_chemical_formula_structural   CaMg6Sn
_chemical_formula_sum   'Ca2 Mg12 Sn2'
_cell_volume   397.39195161
_cell_formula_units_Z   2
loop_
 _symmetry_equiv_pos_site_id
 _symmetry_equiv_pos_as_xyz
  1  'x, y, z'
loop_
 _atom_site_type_symbol
 _atom_site_label
 _atom_site_symmetry_multiplicity
 _atom_site_fract_x
 _atom_site_fract_y
 _atom_site_fract_z
 _atom_site_occupancy
  Ca  Ca0  1  0.00000000  0.00000000  0.82995800  1
  Ca  Ca1  1  0.00000000  0.50000000  0.32995800  1
  Mg  Mg0  1  0.00000000  0.74971900  0.58060100  1
  Mg  Mg1  1  0.00000000  0.25028100  0.58060100  1
  Mg  Mg2  1  0.00000000  0.00000000  0.33640300  1
  Mg  Mg3  1  0.50000000  0.76063100  0.42025200  1
  Mg  Mg4  1  0.50000000  0.23936900  0.42025200  1
  Mg  Mg5  1  0.50000000  0.00000000  0.16705400  1
  Mg  Mg6  1  0.00000000  0.24971900  0.08060100  1
  Mg  Mg7  1  0.00000000  0.75028100  0.08060100  1
  Mg  Mg8  1  0.00000000  0.50000000  0.83640300  1
  Mg  Mg9  1  0.50000000  0.26063100  0.92025200  1
  Mg  Mg10  1  0.50000000  0.73936900  0.92025200  1
  Mg  Mg11  1  0.50000000  0.50000000  0.66705400  1
  Sn  Sn0  1  0.50000000  0.00000000  0.66487800  1
  Sn  Sn1  1  0.50000000  0.50000000  0.16487800  1
loop_
_geom_bond_atom_site_label_1
_geom_bond_atom_site_label_2
_geom_bond_distance
_geom_bond_site_symmetry_2
Ca0 Sn0 3.201431 1_455
Ca0 Sn0 3.201431 1_555
Ca0 Mg9 3.288229 1_555
Ca0 Mg10 3.288229 1_445
Ca0 Mg10 3.288229 1_545
Ca0 Mg9 3.288229 1_455
Ca0 Mg1 3.312336 1_555
Ca0 Mg0 3.312336 1_545
Ca0 Mg6 3.323119 1_556
Ca0 Mg7 3.323119 1_546
Ca0 Mg8 3.359459 1_545
Ca0 Mg8 3.359459 1_555
Ca1 Sn1 3.201431 1_555
Ca1 Sn1 3.201431 1_455
Ca1 Mg3 3.288229 1_555
Ca1 Mg3 3.288229 1_455
Ca1 Mg4 3.288229 1_455
Ca1 Mg4 3.288229 1_555
Ca1 Mg7 3.312336 1_555
Ca1 Mg6 3.312336 1_555
Ca1 Mg0 3.323119 1_555
Ca1 Mg1 3.323119 1_555
Ca1 Mg2 3.359459 1_565
Ca1 Mg2 3.359459 1_555
Mg0 Mg3 3.170623 1_555
Mg0 Mg3 3.170623 1_455
Mg0 Sn0 3.230519 1_565
Mg0 Sn0 3.230519 1_465
Mg0 Mg11 3.236084 1_555
Mg0 Mg11 3.236084 1_455
Mg0 Mg2 3.261599 1_565
Mg0 Mg1 3.354874 1_555
Mg0 Mg1 3.362424 1_565
Mg0 Mg8 3.374222 1_555
Mg1 Mg4 3.170623 1_455
Mg1 Mg4 3.170623 1_555
Mg1 Sn0 3.230519 1_555
Mg1 Sn0 3.230519 1_455
Mg1 Mg11 3.236084 1_555
Mg1 Mg11 3.236084 1_455
Mg1 Mg2 3.261599 1_555
Mg1 Mg8 3.374222 1_555
Mg2 Mg4 3.191510 1_455
Mg2 Mg4 3.191510 1_555
Mg2 Mg3 3.191510 1_445
Mg2 Mg3 3.191510 1_545
Mg2 Mg5 3.230507 1_555
Mg2 Mg5 3.230507 1_455
Mg2 Mg6 3.374222 1_555
Mg2 Mg7 3.374222 1_545
Mg3 Mg4 3.215826 1_565
Mg3 Sn0 3.228675 1_565
Mg3 Mg5 3.314113 1_565
Mg3 Sn1 3.407052 1_555
Mg3 Mg4 3.501472 1_555
Mg4 Sn0 3.228675 1_555
Mg4 Mg5 3.314113 1_555
Mg4 Sn1 3.407052 1_555
Mg5 Mg6 3.236084 1_655
Mg5 Mg6 3.236084 1_555
Mg5 Mg7 3.236084 1_645
Mg5 Mg7 3.236084 1_545
Mg5 Mg9 3.323269 1_554
Mg5 Sn1 3.358741 1_545
Mg5 Sn1 3.358741 1_555
Mg6 Mg9 3.170623 1_554
Mg6 Mg9 3.170623 1_454
Mg6 Sn1 3.230519 1_555
Mg6 Sn1 3.230519 1_455
Mg6 Mg8 3.261599 1_554
Mg6 Mg7 3.354874 1_545
Mg6 Mg7 3.362424 1_555
Mg7 Sn1 3.230519 1_555
Mg7 Sn1 3.230519 1_455
Mg7 Mg8 3.261599 1_554
Mg8 Mg9 3.191510 1_555
Mg8 Mg9 3.191510 1_455
Mg9 Sn1 3.228675 1_556
Mg9 Sn0 3.407052 1_555
Mg10 Mg7 3.170623 1_656
Mg10 Mg7 3.170623 1_556
Mg10 Mg8 3.191510 1_555
Mg10 Mg8 3.191510 1_655
Mg10 Mg9 3.215826 1_555
Mg10 Sn1 3.228675 1_556
Mg10 Mg11 3.314113 1_555
Mg10 Mg5 3.323269 1_566
Mg10 Sn0 3.407052 1_565
Mg10 Mg9 3.501472 1_565
Mg11 Mg8 3.230507 1_655
Mg11 Mg8 3.230507 1_555
Mg11 Mg9 3.314113 1_555
Mg11 Mg3 3.323269 1_555
Mg11 Mg4 3.323269 1_555
Mg11 Sn0 3.358741 1_555
Mg11 Sn0 3.358741 1_565
