# generated using pymatgen
data_Mg3(Ni10B3)2
_symmetry_space_group_name_H-M   'P 1'
_cell_length_a   7.46456284
_cell_length_b   7.46456284
_cell_length_c   7.46456284
_cell_angle_alpha   60.00000000
_cell_angle_beta   60.00000000
_cell_angle_gamma   60.00000000
_symmetry_Int_Tables_number   1
_chemical_formula_structural   Mg3(Ni10B3)2
_chemical_formula_sum   'Mg3 Ni20 B6'
_cell_volume   294.10210769
_cell_formula_units_Z   1
loop_
 _symmetry_equiv_pos_site_id
 _symmetry_equiv_pos_as_xyz
  1  'x, y, z'
loop_
 _atom_site_type_symbol
 _atom_site_label
 _atom_site_symmetry_multiplicity
 _atom_site_fract_x
 _atom_site_fract_y
 _atom_site_fract_z
 _atom_site_occupancy
  Mg  Mg0  1  0.75000000  0.75000000  0.75000000  1
  Mg  Mg1  1  0.25000000  0.25000000  0.25000000  1
  Mg  Mg2  1  0.00000000  0.00000000  0.00000000  1
  Ni  Ni0  1  0.38541600  0.38541600  0.84375100  1
  Ni  Ni1  1  0.61458400  0.61458400  0.61458400  1
  Ni  Ni2  1  0.00000000  0.34033700  0.00000000  1
  Ni  Ni3  1  0.34033700  0.00000000  0.00000000  1
  Ni  Ni4  1  0.00000000  0.34033700  0.65966300  1
  Ni  Ni5  1  0.84375100  0.38541600  0.38541600  1
  Ni  Ni6  1  0.34033700  0.00000000  0.65966300  1
  Ni  Ni7  1  0.00000000  0.00000000  0.34033700  1
  Ni  Ni8  1  0.65966300  0.34033700  0.00000000  1
  Ni  Ni9  1  0.00000000  0.65966300  0.34033700  1
  Ni  Ni10  1  0.00000000  0.00000000  0.65966300  1
  Ni  Ni11  1  0.34033700  0.65966300  0.00000000  1
  Ni  Ni12  1  0.65966300  0.00000000  0.00000000  1
  Ni  Ni13  1  0.00000000  0.65966300  0.00000000  1
  Ni  Ni14  1  0.38541600  0.84375100  0.38541600  1
  Ni  Ni15  1  0.61458400  0.61458400  0.15624900  1
  Ni  Ni16  1  0.61458400  0.15624900  0.61458400  1
  Ni  Ni17  1  0.15624900  0.61458400  0.61458400  1
  Ni  Ni18  1  0.38541600  0.38541600  0.38541600  1
  Ni  Ni19  1  0.65966300  0.00000000  0.34033700  1
  B  B0  1  0.72903600  0.27096400  0.72903600  1
  B  B1  1  0.27096400  0.72903600  0.27096400  1
  B  B2  1  0.27096400  0.72903600  0.72903600  1
  B  B3  1  0.27096400  0.27096400  0.72903600  1
  B  B4  1  0.72903600  0.72903600  0.27096400  1
  B  B5  1  0.72903600  0.27096400  0.27096400  1
loop_
_geom_bond_atom_site_label_1
_geom_bond_atom_site_label_2
_geom_bond_distance
_geom_bond_site_symmetry_2
Mg0 Ni1 2.475996 1_555
Mg0 Ni16 2.476002 1_565
Mg0 Ni15 2.476002 1_556
Mg0 Ni17 2.476002 1_655
Mg0 Ni8 2.895753 1_556
Mg0 Ni10 2.895753 1_665
Mg0 Ni11 2.895753 1_556
Mg0 Ni13 2.895753 1_656
Mg0 Ni12 2.895753 1_566
Mg0 Ni19 2.895753 1_565
Mg0 Ni3 2.895753 1_566
Mg0 Ni7 2.895753 1_665
Mg0 Ni9 2.895753 1_655
Mg0 Ni6 2.895753 1_565
Mg0 Ni2 2.895753 1_656
Mg0 Ni4 2.895753 1_655
Mg1 Ni18 2.475996 1_555
Mg1 Ni0 2.476002 1_554
Mg1 Ni5 2.476002 1_455
Mg1 Ni14 2.476002 1_545
Mg1 Ni9 2.895753 1_555
Mg1 Ni11 2.895753 1_555
Mg1 Ni6 2.895753 1_555
Mg1 Ni3 2.895753 1_555
Mg1 Ni10 2.895753 1_555
Mg1 Ni4 2.895753 1_555
Mg1 Ni7 2.895753 1_555
Mg1 Ni13 2.895753 1_555
Mg1 Ni19 2.895753 1_555
Mg1 Ni2 2.895753 1_555
Mg1 Ni8 2.895753 1_555
Mg1 Ni12 2.895753 1_555
Mg2 Ni19 2.540467 1_455
Mg2 Ni13 2.540467 1_545
Mg2 Ni8 2.540467 1_455
Mg2 Ni12 2.540467 1_455
Mg2 Ni7 2.540467 1_555
Mg2 Ni6 2.540467 1_554
Mg2 Ni11 2.540467 1_545
Mg2 Ni2 2.540467 1_555
Mg2 Ni10 2.540467 1_554
Mg2 Ni4 2.540467 1_554
Mg2 Ni3 2.540467 1_555
Mg2 Ni9 2.540467 1_545
Ni0 Ni2 2.640189 1_556
Ni0 Ni3 2.640189 1_556
Ni0 Ni12 2.640192 1_556
Ni0 Ni13 2.640192 1_556
Ni0 Ni11 2.640196 1_556
Ni0 Ni8 2.640196 1_556
Ni1 Ni9 2.640190 1_655
Ni1 Ni4 2.640190 1_655
Ni1 Ni11 2.640190 1_556
Ni1 Ni19 2.640190 1_565
Ni1 Ni8 2.640190 1_556
Ni1 Ni6 2.640190 1_565
Ni2 Ni8 2.540467 1_455
Ni2 Ni7 2.540467 1_555
Ni2 Ni4 2.540467 1_554
Ni2 Ni3 2.540467 1_555
Ni2 Ni5 2.640189 1_455
Ni3 Ni7 2.540467 1_555
Ni3 Ni6 2.540467 1_554
Ni4 Ni9 2.383629 1_555
Ni4 Ni8 2.540467 1_456
Ni4 Ni6 2.540467 1_555
Ni4 Ni5 2.640196 1_455
Ni5 Ni7 2.640189 1_655
Ni5 Ni9 2.640196 1_655
Ni7 Ni9 2.540467 1_545
Ni10 Ni7 2.383629 1_555
Ni10 Ni4 2.540467 1_555
Ni10 Ni12 2.540467 1_456
Ni10 Ni6 2.540467 1_555
Ni10 Ni13 2.540467 1_546
Ni10 Ni17 2.640189 1_545
Ni10 Ni16 2.640189 1_455
Ni10 Ni5 2.640192 1_455
Ni10 Ni14 2.640192 1_545
Ni11 Ni8 2.383629 1_555
Ni11 Ni6 2.540467 1_564
Ni11 Ni13 2.540467 1_555
Ni11 Ni9 2.540467 1_555
Ni11 Ni3 2.540467 1_565
Ni11 Ni18 2.640190 1_555
Ni11 Ni15 2.640196 1_555
Ni12 Ni3 2.383629 1_555
Ni12 Ni13 2.540467 1_645
Ni12 Ni8 2.540467 1_555
Ni12 Ni19 2.540467 1_555
Ni12 Ni15 2.640189 1_545
Ni12 Ni16 2.640189 1_554
Ni12 Ni14 2.640192 1_545
Ni13 Ni2 2.383629 1_555
Ni13 Ni9 2.540467 1_555
Ni13 Ni15 2.640189 1_455
Ni13 Ni17 2.640189 1_554
Ni13 Ni5 2.640192 1_455
Ni14 Ni7 2.640189 1_565
Ni14 Ni3 2.640189 1_565
Ni14 Ni6 2.640196 1_565
Ni14 Ni19 2.640196 1_565
Ni15 Ni3 2.640192 1_565
Ni15 Ni2 2.640192 1_655
Ni15 Ni8 2.640196 1_555
Ni16 Ni7 2.640192 1_655
Ni16 Ni3 2.640192 1_556
Ni16 Ni6 2.640196 1_555
Ni16 Ni19 2.640196 1_555
Ni17 Ni2 2.640192 1_556
Ni17 Ni7 2.640192 1_565
Ni17 Ni9 2.640196 1_555
Ni17 Ni4 2.640196 1_555
Ni18 Ni9 2.640190 1_555
Ni18 Ni4 2.640190 1_555
Ni18 Ni19 2.640190 1_555
Ni18 Ni8 2.640190 1_555
Ni18 Ni6 2.640190 1_555
Ni19 Ni6 2.383629 1_555
Ni19 Ni9 2.540467 1_645
Ni19 Ni8 2.540467 1_555
Ni19 Ni7 2.540467 1_655
B0 Ni8 2.087865 1_556
B0 Ni4 2.087865 1_655
B0 Ni10 2.087865 1_655
B0 Ni12 2.087865 1_556
B0 Ni16 2.094286 1_555
B0 Ni0 2.094292 1_555
B0 Ni5 2.094292 1_555
B0 Ni1 2.094292 1_555
B1 Ni11 2.087865 1_555
B1 Ni9 2.087865 1_555
B1 Ni3 2.087865 1_565
B1 Ni7 2.087865 1_565
B1 Ni14 2.094286 1_555
B1 Ni15 2.094292 1_555
B1 Ni17 2.094292 1_555
B1 Ni18 2.094292 1_555
B2 Ni6 2.087865 1_565
B2 Ni10 2.087865 1_565
B2 Ni11 2.087865 1_556
B2 Ni13 2.087865 1_556
B2 Ni17 2.094286 1_555
B2 Ni14 2.094292 1_555
B2 Ni0 2.094292 1_555
B2 Ni1 2.094292 1_555
B3 Ni6 2.087865 1_555
B3 Ni3 2.087865 1_556
B3 Ni2 2.087865 1_556
B3 Ni4 2.087865 1_555
B3 Ni0 2.094286 1_555
B3 Ni16 2.094292 1_555
B3 Ni17 2.094292 1_555
B3 Ni18 2.094292 1_555
B4 Ni9 2.087865 1_655
B4 Ni13 2.087865 1_655
B4 Ni19 2.087865 1_565
B4 Ni12 2.087865 1_565
B4 Ni15 2.094286 1_555
B4 Ni5 2.094292 1_555
B4 Ni14 2.094292 1_555
B4 Ni1 2.094292 1_555
B5 Ni7 2.087865 1_655
B5 Ni19 2.087865 1_555
B5 Ni2 2.087865 1_655
B5 Ni8 2.087865 1_555
B5 Ni5 2.094286 1_555
B5 Ni15 2.094292 1_555
B5 Ni16 2.094292 1_555
B5 Ni18 2.094292 1_555
