# generated using pymatgen
data_PmBr2
_symmetry_space_group_name_H-M   'P 1'
_cell_length_a   7.44523746
_cell_length_b   7.44523746
_cell_length_c   3.69918106
_cell_angle_alpha   90.00000000
_cell_angle_beta   90.00000000
_cell_angle_gamma   90.00007926
_symmetry_Int_Tables_number   1
_chemical_formula_structural   PmBr2
_chemical_formula_sum   'Pm2 Br4'
_cell_volume   205.05137997
_cell_formula_units_Z   2
loop_
 _symmetry_equiv_pos_site_id
 _symmetry_equiv_pos_as_xyz
  1  'x, y, z'
loop_
 _atom_site_type_symbol
 _atom_site_label
 _atom_site_symmetry_multiplicity
 _atom_site_fract_x
 _atom_site_fract_y
 _atom_site_fract_z
 _atom_site_occupancy
  Pm  Pm0  1  0.00000000  0.00000000  0.00000000  1
  Pm  Pm1  1  0.50000000  0.50000000  0.50000000  1
  Br  Br0  1  0.28003852  0.28003852  -0.00000000  1
  Br  Br1  1  0.71996148  0.71996148  0.00000000  1
  Br  Br2  1  0.21996367  0.78003633  0.50000000  1
  Br  Br3  1  0.78003633  0.21996367  0.50000000  1
loop_
_geom_bond_atom_site_label_1
_geom_bond_atom_site_label_2
_geom_bond_distance
_geom_bond_site_symmetry_2
Br0 Pm0 2.948567 1_555
Br0 Pm1 2.963929 1_555
Br0 Pm1 2.963929 1_554
Br1 Pm0 2.948567 1_665
Br1 Pm1 2.963929 1_555
Br1 Pm1 2.963929 1_554
Br2 Pm1 2.948548 1_555
Br2 Pm0 2.963949 1_566
Br2 Pm0 2.963949 1_565
Br3 Pm1 2.948548 1_555
Br3 Pm0 2.963949 1_655
Br3 Pm0 2.963949 1_656
