# generated using pymatgen
data_MnTe2O5
_symmetry_space_group_name_H-M   'P 1'
_cell_length_a   8.94670800
_cell_length_b   8.94670800
_cell_length_c   13.14340500
_cell_angle_alpha   90.00000000
_cell_angle_beta   90.00000000
_cell_angle_gamma   90.00000000
_symmetry_Int_Tables_number   1
_chemical_formula_structural   MnTe2O5
_chemical_formula_sum   'Mn8 Te16 O40'
_cell_volume   1052.04524265
_cell_formula_units_Z   8
loop_
 _symmetry_equiv_pos_site_id
 _symmetry_equiv_pos_as_xyz
  1  'x, y, z'
loop_
 _atom_site_type_symbol
 _atom_site_label
 _atom_site_symmetry_multiplicity
 _atom_site_fract_x
 _atom_site_fract_y
 _atom_site_fract_z
 _atom_site_occupancy
  Mn  Mn0  1  0.25000000  0.25000000  0.00000000  1
  Mn  Mn1  1  0.25000000  0.25000000  0.50000000  1
  Mn  Mn2  1  0.75000000  0.75000000  0.00000000  1
  Mn  Mn3  1  0.75000000  0.75000000  0.50000000  1
  Mn  Mn4  1  0.25000000  0.25000000  0.25000000  1
  Mn  Mn5  1  0.25000000  0.25000000  0.75000000  1
  Mn  Mn6  1  0.75000000  0.75000000  0.75000000  1
  Mn  Mn7  1  0.75000000  0.75000000  0.25000000  1
  Te  Te0  1  0.03554400  0.93636400  0.61639700  1
  Te  Te1  1  0.56363600  0.03554400  0.11639700  1
  Te  Te2  1  0.46445600  0.93636400  0.38360300  1
  Te  Te3  1  0.46445600  0.56363600  0.61639700  1
  Te  Te4  1  0.93636400  0.46445600  0.11639700  1
  Te  Te5  1  0.56363600  0.46445600  0.88360300  1
  Te  Te6  1  0.93636400  0.03554400  0.88360300  1
  Te  Te7  1  0.03554400  0.56363600  0.38360300  1
  Te  Te8  1  0.96445600  0.43636300  0.61639700  1
  Te  Te9  1  0.06363600  0.96445600  0.11639700  1
  Te  Te10  1  0.43636300  0.53554400  0.11639700  1
  Te  Te11  1  0.96445600  0.06363600  0.38360300  1
  Te  Te12  1  0.53554400  0.43636300  0.38360300  1
  Te  Te13  1  0.53554400  0.06363600  0.61639700  1
  Te  Te14  1  0.43636300  0.96445600  0.88360300  1
  Te  Te15  1  0.06363600  0.53554400  0.88360300  1
  O  O0  1  0.05237300  0.05237300  0.75000000  1
  O  O1  1  0.44762800  0.05237300  0.25000000  1
  O  O2  1  0.05237300  0.44762800  0.25000000  1
  O  O3  1  0.44762800  0.44762800  0.75000000  1
  O  O4  1  0.94762700  0.94762700  0.25000000  1
  O  O5  1  0.55237300  0.94762700  0.75000000  1
  O  O6  1  0.94762700  0.55237300  0.75000000  1
  O  O7  1  0.55237300  0.55237300  0.25000000  1
  O  O8  1  0.87481500  0.52013700  0.95186800  1
  O  O9  1  0.62518500  0.97986300  0.95186800  1
  O  O10  1  0.52013700  0.87481500  0.54813200  1
  O  O11  1  0.52013700  0.62518500  0.45186800  1
  O  O12  1  0.97986300  0.87481500  0.45186800  1
  O  O13  1  0.62518500  0.52013700  0.04813200  1
  O  O14  1  0.87481500  0.97986300  0.04813200  1
  O  O15  1  0.60400400  0.67197600  0.86684600  1
  O  O16  1  0.12518500  0.47986300  0.04813200  1
  O  O17  1  0.37481400  0.02013700  0.04813200  1
  O  O18  1  0.47986300  0.12518500  0.45186800  1
  O  O19  1  0.47986300  0.37481400  0.54813200  1
  O  O20  1  0.02013700  0.12518500  0.54813200  1
  O  O21  1  0.37481400  0.47986300  0.95186800  1
  O  O22  1  0.12518500  0.02013700  0.95186800  1
  O  O23  1  0.02013700  0.37481400  0.45186800  1
  O  O24  1  0.17197700  0.10400400  0.36684600  1
  O  O25  1  0.39599500  0.17197700  0.86684600  1
  O  O26  1  0.10400400  0.32802400  0.86684600  1
  O  O27  1  0.17197700  0.39599500  0.63315400  1
  O  O28  1  0.32802400  0.10400400  0.63315400  1
  O  O29  1  0.32802400  0.39599500  0.36684600  1
  O  O30  1  0.10400400  0.17197700  0.13315400  1
  O  O31  1  0.39599500  0.32802400  0.13315400  1
  O  O32  1  0.82802400  0.89599600  0.63315400  1
  O  O33  1  0.60400400  0.82802400  0.13315400  1
  O  O34  1  0.89599600  0.67197600  0.13315400  1
  O  O35  1  0.82802400  0.60400400  0.36684600  1
  O  O36  1  0.67197600  0.89599600  0.36684600  1
  O  O37  1  0.67197600  0.60400400  0.63315400  1
  O  O38  1  0.89599600  0.82802400  0.86684600  1
  O  O39  1  0.97986300  0.62518500  0.54813200  1
loop_
_geom_bond_atom_site_label_1
_geom_bond_atom_site_label_2
_geom_bond_distance
_geom_bond_site_symmetry_2
Mn0 O25 2.292641 1_554
Mn0 O31 2.292644 1_555
Mn0 O30 2.292646 1_555
Mn0 O26 2.292649 1_554
Mn0 O21 2.424135 1_554
Mn0 O17 2.424135 1_555
Mn0 O16 2.424139 1_555
Mn0 O22 2.424139 1_554
Mn1 O27 2.292641 1_555
Mn1 O29 2.292644 1_555
Mn1 O24 2.292646 1_555
Mn1 O28 2.292649 1_555
Mn1 O19 2.424135 1_555
Mn1 O23 2.424135 1_555
Mn1 O20 2.424139 1_555
Mn1 O18 2.424139 1_555
Mn2 O33 2.292649 1_555
Mn2 O38 2.292649 1_554
Mn2 O34 2.292649 1_555
Mn2 O15 2.292649 1_554
Mn2 O14 2.424139 1_555
Mn2 O8 2.424139 1_554
Mn2 O9 2.424139 1_554
Mn2 O13 2.424139 1_555
Mn3 O32 2.292649 1_555
Mn3 O36 2.292649 1_555
Mn3 O35 2.292649 1_555
Mn3 O37 2.292649 1_555
Mn3 O10 2.424139 1_555
Mn3 O39 2.424139 1_555
Mn3 O11 2.424139 1_555
Mn3 O12 2.424139 1_555
Mn4 O31 2.133523 1_555
Mn4 O29 2.133523 1_555
Mn4 O24 2.133525 1_555
Mn4 O30 2.133525 1_555
Mn4 O1 2.500493 1_555
Mn4 O2 2.500493 1_555
Mn5 O27 2.133520 1_555
Mn5 O25 2.133520 1_555
Mn5 O26 2.133528 1_555
Mn5 O28 2.133528 1_555
Mn5 O0 2.500487 1_555
Mn5 O3 2.500499 1_555
Mn6 O32 2.133528 1_555
Mn6 O37 2.133528 1_555
Mn6 O15 2.133528 1_555
Mn6 O38 2.133528 1_555
Mn6 O6 2.500487 1_555
Mn6 O5 2.500487 1_555
Mn7 O33 2.133528 1_555
Mn7 O36 2.133528 1_555
Mn7 O34 2.133528 1_555
Mn7 O35 2.133528 1_555
Mn7 O7 2.500487 1_555
Mn7 O4 2.500487 1_555
O0 Te6 2.045344 1_455
O0 Te0 2.045344 1_545
O1 Te1 2.045340 1_555
O1 Te2 2.045344 1_545
O2 Te7 2.045340 1_555
O2 Te4 2.045344 1_455
O3 Te5 2.045339 1_555
O3 Te3 2.045339 1_555
O4 Te9 2.045344 1_655
O4 Te11 2.045344 1_565
O5 Te13 2.045344 1_565
O5 Te14 2.045349 1_555
O6 Te15 2.045344 1_655
O6 Te8 2.045349 1_555
O7 Te10 2.045349 1_555
O7 Te12 2.045349 1_555
O8 Te15 1.917773 1_655
O8 Te4 2.286411 1_556
O9 Te14 1.917781 1_555
O9 Te1 2.286411 1_566
O10 Te13 1.917773 1_565
O10 Te2 2.286411 1_555
O11 Te12 1.917781 1_555
O11 Te3 2.286411 1_555
O12 Te11 1.917773 1_565
O12 Te0 2.286411 1_655
O13 Te10 1.917781 1_555
O13 Te5 2.286411 1_554
O14 Te9 1.917773 1_655
O14 Te6 2.286411 1_564
O15 Te5 1.904202 1_555
O16 Te4 1.917773 1_455
O16 Te15 2.286411 1_554
O17 Te1 1.917781 1_555
O17 Te14 2.286411 1_544
O18 Te2 1.917773 1_545
O18 Te13 2.286411 1_555
O19 Te3 1.917781 1_555
O19 Te12 2.286411 1_555
O20 Te0 1.917773 1_545
O20 Te11 2.286411 1_455
O21 Te5 1.917781 1_555
O21 Te10 2.286411 1_556
O22 Te6 1.917773 1_455
O22 Te9 2.286411 1_546
O23 Te7 1.917781 1_555
O23 Te8 2.286411 1_455
O24 Te11 1.904211 1_455
O25 Te14 1.904211 1_545
O26 Te15 1.904202 1_555
O27 Te8 1.904211 1_455
O28 Te13 1.904202 1_555
O29 Te12 1.904202 1_555
O30 Te9 1.904211 1_545
O31 Te10 1.904202 1_555
O32 Te0 1.904202 1_655
O33 Te1 1.904202 1_565
O34 Te4 1.904202 1_555
O35 Te7 1.904202 1_655
O36 Te2 1.904202 1_555
O37 Te3 1.904202 1_555
O38 Te6 1.904202 1_565
O39 Te8 1.917781 1_555
O39 Te7 2.286411 1_655
