# generated using pymatgen
data_Y2Se3O20
_symmetry_space_group_name_H-M   'P 1'
_cell_length_a   6.98424900
_cell_length_b   7.19134066
_cell_length_c   19.79548708
_cell_angle_alpha   98.70517847
_cell_angle_beta   90.00000000
_cell_angle_gamma   119.05187206
_symmetry_Int_Tables_number   1
_chemical_formula_structural   Y2Se3O20
_chemical_formula_sum   'Y4 Se6 O40'
_cell_volume   856.02854126
_cell_formula_units_Z   2
loop_
 _symmetry_equiv_pos_site_id
 _symmetry_equiv_pos_as_xyz
  1  'x, y, z'
loop_
 _atom_site_type_symbol
 _atom_site_label
 _atom_site_symmetry_multiplicity
 _atom_site_fract_x
 _atom_site_fract_y
 _atom_site_fract_z
 _atom_site_occupancy
  Y  Y0  1  0.82407700  0.67892200  0.60648200  1
  Y  Y1  1  0.17592300  0.32107800  0.39351800  1
  Y  Y2  1  0.14515400  0.32107800  0.89351800  1
  Y  Y3  1  0.85484600  0.67892200  0.10648200  1
  Se  Se0  1  0.76722900  0.58786900  0.91610000  1
  Se  Se1  1  0.23277100  0.41213100  0.08390000  1
  Se  Se2  1  0.17936000  0.41213100  0.58390000  1
  Se  Se3  1  0.82064000  0.58786900  0.41610000  1
  Se  Se4  1  0.72221400  0.00000000  0.75000000  1
  Se  Se5  1  0.27778600  0.00000000  0.25000000  1
  O  O0  1  0.34402900  0.61600700  0.81807400  1
  O  O1  1  0.65597100  0.38399300  0.18192600  1
  O  O2  1  0.72802200  0.38399300  0.68192600  1
  O  O3  1  0.27197800  0.61600700  0.31807400  1
  O  O4  1  0.31953900  0.69744800  0.92484600  1
  O  O5  1  0.68046100  0.30255200  0.07515400  1
  O  O6  1  0.62209100  0.30255200  0.57515400  1
  O  O7  1  0.37790900  0.69744800  0.42484600  1
  O  O8  1  0.50972900  0.40228600  0.88713800  1
  O  O9  1  0.49027100  0.59771400  0.11286200  1
  O  O10  1  0.10744200  0.59771400  0.61286200  1
  O  O11  1  0.89255800  0.40228600  0.38713800  1
  O  O12  1  0.78589900  0.70678500  0.99649700  1
  O  O13  1  0.21410100  0.29321500  0.00350300  1
  O  O14  1  0.07911400  0.29321500  0.50350300  1
  O  O15  1  0.92088600  0.70678500  0.49649700  1
  O  O16  1  0.54917500  0.93912300  0.81430200  1
  O  O17  1  0.45082500  0.06087700  0.18569800  1
  O  O18  1  0.61005100  0.06087700  0.68569800  1
  O  O19  1  0.38994900  0.93912300  0.31430200  1
  O  O20  1  0.85288800  0.77024700  0.86214600  1
  O  O21  1  0.14711200  0.22975300  0.13785400  1
  O  O22  1  0.08264200  0.22975300  0.63785400  1
  O  O23  1  0.91735800  0.77024700  0.36214600  1
  O  O24  1  0.45234700  0.53453000  0.58707700  1
  O  O25  1  0.54765300  0.46547000  0.41292300  1
  O  O26  1  0.91781700  0.46547000  0.91292300  1
  O  O27  1  0.08218300  0.53453000  0.08707700  1
  O  O28  1  0.18927500  0.00529800  0.85849000  1
  O  O29  1  0.81072500  0.99470200  0.14151000  1
  O  O30  1  0.18397700  0.99470200  0.64151000  1
  O  O31  1  0.81602300  0.00529800  0.35849000  1
  O  O32  1  0.77152900  0.97340400  0.58110300  1
  O  O33  1  0.22847100  0.02659600  0.41889700  1
  O  O34  1  0.79812500  0.02659600  0.91889700  1
  O  O35  1  0.20187500  0.97340400  0.08110300  1
  O  O36  1  0.75593200  0.79317900  0.71476900  1
  O  O37  1  0.24406800  0.20682100  0.28523100  1
  O  O38  1  0.96275300  0.20682100  0.78523100  1
  O  O39  1  0.03724700  0.79317900  0.21476900  1
loop_
_geom_bond_atom_site_label_1
_geom_bond_atom_site_label_2
_geom_bond_distance
_geom_bond_site_symmetry_2
O0 Y2 2.599181 1_555
O1 Y3 2.599181 1_555
O2 Y0 2.599180 1_555
O3 Y1 2.599180 1_555
O4 Y2 2.341802 1_555
O5 Y3 2.341802 1_555
O6 Y0 2.341803 1_555
O7 Y1 2.341803 1_555
O8 Se0 1.667798 1_555
O8 Y2 2.327808 1_555
O9 Se1 1.667798 1_555
O9 Y3 2.327808 1_555
O10 Se2 1.667802 1_555
O10 Y0 2.327794 1_455
O11 Se3 1.667802 1_555
O11 Y1 2.327794 1_655
O12 Se0 1.661597 1_555
O12 Y3 2.288673 1_556
O13 Se1 1.661597 1_555
O13 Y2 2.288673 1_554
O14 Se2 1.661597 1_555
O14 Y1 2.288671 1_555
O15 Se3 1.661597 1_555
O15 Y0 2.288671 1_555
O16 Se4 1.710942 1_565
O17 Se5 1.710942 1_555
O18 Se4 1.710946 1_555
O19 Se5 1.710946 1_565
O20 Se0 1.697277 1_555
O21 Se1 1.697277 1_555
O22 Se2 1.697277 1_555
O23 Se3 1.697277 1_555
O24 Se2 1.663502 1_555
O24 Y0 2.286336 1_555
O25 Se3 1.663502 1_555
O25 Y1 2.286336 1_555
O26 Se0 1.663502 1_555
O26 Y2 2.286329 1_655
O27 Se1 1.663502 1_555
O27 Y3 2.286329 1_455
O28 Y2 2.436318 1_555
O29 Y3 2.436318 1_555
O30 Y0 2.436314 1_455
O31 Y1 2.436314 1_655
O32 Y0 2.438999 1_555
O33 Y1 2.438999 1_555
O34 Y2 2.438996 1_655
O35 Y3 2.438996 1_455
O36 Se4 1.667379 1_565
O36 Y0 2.311557 1_555
O37 Se5 1.667379 1_555
O37 Y1 2.311557 1_555
O38 Se4 1.667379 1_555
O38 Y2 2.311554 1_655
O39 Se5 1.667379 1_565
O39 Y3 2.311554 1_455
