# generated using pymatgen
data_Cs2ZrMn(PO4)3
_symmetry_space_group_name_H-M   'P 1'
_cell_length_a   10.40269400
_cell_length_b   10.40269400
_cell_length_c   10.40269400
_cell_angle_alpha   90.00000000
_cell_angle_beta   90.00000000
_cell_angle_gamma   90.00000000
_symmetry_Int_Tables_number   1
_chemical_formula_structural   Cs2ZrMn(PO4)3
_chemical_formula_sum   'Cs8 Zr4 Mn4 P12 O48'
_cell_volume   1125.73837558
_cell_formula_units_Z   4
loop_
 _symmetry_equiv_pos_site_id
 _symmetry_equiv_pos_as_xyz
  1  'x, y, z'
loop_
 _atom_site_type_symbol
 _atom_site_label
 _atom_site_symmetry_multiplicity
 _atom_site_fract_x
 _atom_site_fract_y
 _atom_site_fract_z
 _atom_site_occupancy
  Cs  Cs0  1  0.81829500  0.81829500  0.81829500  1
  Cs  Cs1  1  0.68170500  0.18170500  0.31829500  1
  Cs  Cs2  1  0.18170500  0.31829500  0.68170500  1
  Cs  Cs3  1  0.31829500  0.68170500  0.18170500  1
  Cs  Cs4  1  0.04088300  0.04088300  0.04088300  1
  Cs  Cs5  1  0.45911700  0.95911700  0.54088300  1
  Cs  Cs6  1  0.95911700  0.54088300  0.45911700  1
  Cs  Cs7  1  0.54088300  0.45911700  0.95911700  1
  Zr  Zr0  1  0.33752500  0.33752500  0.33752500  1
  Zr  Zr1  1  0.16247500  0.66247500  0.83752500  1
  Zr  Zr2  1  0.66247500  0.83752500  0.16247500  1
  Zr  Zr3  1  0.83752500  0.16247500  0.66247500  1
  Mn  Mn0  1  0.60424500  0.60424500  0.60424500  1
  Mn  Mn1  1  0.89575500  0.39575500  0.10424500  1
  Mn  Mn2  1  0.39575500  0.10424500  0.89575500  1
  Mn  Mn3  1  0.10424500  0.89575500  0.39575500  1
  P  P0  1  0.02099800  0.20593800  0.37198600  1
  P  P1  1  0.47900200  0.79406200  0.87198600  1
  P  P2  1  0.97900200  0.70593800  0.12801400  1
  P  P3  1  0.37198600  0.02099800  0.20593800  1
  P  P4  1  0.52099800  0.29406200  0.62801400  1
  P  P5  1  0.87198600  0.47900200  0.79406200  1
  P  P6  1  0.12801400  0.97900200  0.70593800  1
  P  P7  1  0.62801400  0.52099800  0.29406200  1
  P  P8  1  0.20593800  0.37198600  0.02099800  1
  P  P9  1  0.70593800  0.12801400  0.97900200  1
  P  P10  1  0.29406200  0.62801400  0.52099800  1
  P  P11  1  0.79406200  0.87198600  0.47900200  1
  O  O0  1  0.27600500  0.49685100  0.44904500  1
  O  O1  1  0.22399500  0.50314900  0.94904500  1
  O  O2  1  0.72399500  0.99685100  0.05095500  1
  O  O3  1  0.44904500  0.27600500  0.49685100  1
  O  O4  1  0.77600500  0.00314900  0.55095500  1
  O  O5  1  0.94904500  0.22399500  0.50314900  1
  O  O6  1  0.05095500  0.72399500  0.99685100  1
  O  O7  1  0.55095500  0.77600500  0.00314900  1
  O  O8  1  0.49685100  0.44904500  0.27600500  1
  O  O9  1  0.99685100  0.05095500  0.72399500  1
  O  O10  1  0.00314900  0.55095500  0.77600500  1
  O  O11  1  0.50314900  0.94904500  0.22399500  1
  O  O12  1  0.16008700  0.25768000  0.39157400  1
  O  O13  1  0.33991300  0.74232000  0.89157400  1
  O  O14  1  0.83991300  0.75768000  0.10842600  1
  O  O15  1  0.39157400  0.16008700  0.25768000  1
  O  O16  1  0.66008700  0.24232000  0.60842600  1
  O  O17  1  0.89157400  0.33991300  0.74232000  1
  O  O18  1  0.10842600  0.83991300  0.75768000  1
  O  O19  1  0.60842600  0.66008700  0.24232000  1
  O  O20  1  0.25768000  0.39157400  0.16008700  1
  O  O21  1  0.75768000  0.10842600  0.83991300  1
  O  O22  1  0.24232000  0.60842600  0.66008700  1
  O  O23  1  0.74232000  0.89157400  0.33991300  1
  O  O24  1  0.04998300  0.78300800  0.23194100  1
  O  O25  1  0.45001700  0.21699200  0.73194100  1
  O  O26  1  0.95001700  0.28300800  0.26805900  1
  O  O27  1  0.23194100  0.04998300  0.78300800  1
  O  O28  1  0.54998300  0.71699200  0.76805900  1
  O  O29  1  0.73194100  0.45001700  0.21699200  1
  O  O30  1  0.26805900  0.95001700  0.28300800  1
  O  O31  1  0.76805900  0.54998300  0.71699200  1
  O  O32  1  0.78300800  0.23194100  0.04998300  1
  O  O33  1  0.28300800  0.26805900  0.95001700  1
  O  O34  1  0.71699200  0.76805900  0.54998300  1
  O  O35  1  0.21699200  0.73194100  0.45001700  1
  O  O36  1  0.01963200  0.06246300  0.33260700  1
  O  O37  1  0.48036800  0.93753700  0.83260700  1
  O  O38  1  0.98036800  0.56246300  0.16739300  1
  O  O39  1  0.33260700  0.01963200  0.06246300  1
  O  O40  1  0.51963200  0.43753700  0.66739300  1
  O  O41  1  0.83260700  0.48036800  0.93753700  1
  O  O42  1  0.16739300  0.98036800  0.56246300  1
  O  O43  1  0.66739300  0.51963200  0.43753700  1
  O  O44  1  0.06246300  0.33260700  0.01963200  1
  O  O45  1  0.56246300  0.16739300  0.98036800  1
  O  O46  1  0.43753700  0.66739300  0.51963200  1
  O  O47  1  0.93753700  0.83260700  0.48036800  1
loop_
_geom_bond_atom_site_label_1
_geom_bond_atom_site_label_2
_geom_bond_distance
_geom_bond_site_symmetry_2
Cs0 O34 3.028904 1_555
Cs0 O31 3.028904 1_555
Cs0 O28 3.028904 1_555
Cs0 O14 3.091500 1_556
Cs0 O21 3.091500 1_565
Cs0 O18 3.091500 1_655
Cs0 O2 3.204729 1_556
Cs0 O6 3.204729 1_655
Cs0 O9 3.204729 1_565
Cs0 O7 3.409643 1_556
Cs0 O4 3.409643 1_565
Cs0 O10 3.409643 1_655
Cs1 O29 3.028904 1_555
Cs1 O32 3.028904 1_555
Cs1 O26 3.028904 1_555
Cs1 O15 3.091500 1_555
Cs1 O23 3.091500 1_545
Cs1 O16 3.091500 1_555
Cs1 O3 3.204729 1_555
Cs1 O4 3.204729 1_555
Cs1 O11 3.204729 1_545
Cs1 O2 3.409643 1_545
Cs1 O8 3.409643 1_555
Cs1 O5 3.409643 1_555
Cs2 O33 3.028904 1_555
Cs2 O25 3.028904 1_555
Cs2 O27 3.028904 1_555
Cs2 O17 3.091500 1_455
Cs2 O12 3.091500 1_555
Cs2 O22 3.091500 1_555
Cs2 O10 3.204729 1_555
Cs2 O0 3.204729 1_555
Cs2 O5 3.204729 1_455
Cs2 O1 3.409643 1_555
Cs2 O9 3.409643 1_455
Cs2 O3 3.409643 1_555
Cs3 O35 3.028904 1_555
Cs3 O30 3.028904 1_555
Cs3 O24 3.028904 1_555
Cs3 O13 3.091500 1_554
Cs3 O19 3.091500 1_555
Cs3 O20 3.091500 1_555
Cs3 O7 3.204729 1_555
Cs3 O8 3.204729 1_555
Cs3 O1 3.204729 1_554
Cs3 O0 3.409643 1_555
Cs3 O11 3.409643 1_555
Cs3 O6 3.409643 1_554
Cs4 O44 3.051027 1_555
Cs4 O39 3.051027 1_555
Cs4 O36 3.051027 1_555
Cs4 O9 3.329809 1_454
Cs4 O6 3.329809 1_544
Cs4 O2 3.329809 1_445
Cs4 O24 3.339986 1_545
Cs4 O27 3.339986 1_554
Cs4 O32 3.339986 1_455
Cs5 O46 3.051027 1_555
Cs5 O37 3.051027 1_555
Cs5 O42 3.051027 1_555
Cs5 O4 3.329809 1_565
Cs5 O11 3.329809 1_555
Cs5 O3 3.329809 1_565
Cs5 O34 3.339986 1_555
Cs5 O25 3.339986 1_565
Cs5 O30 3.339986 1_555
Cs6 O47 3.051027 1_555
Cs6 O38 3.051027 1_555
Cs6 O43 3.051027 1_555
Cs6 O10 3.329809 1_655
Cs6 O5 3.329809 1_555
Cs6 O0 3.329809 1_655
Cs6 O31 3.339986 1_555
Cs6 O26 3.339986 1_555
Cs6 O35 3.339986 1_655
Cs7 O45 3.051027 1_555
Cs7 O40 3.051027 1_555
Cs7 O41 3.051027 1_555
Cs7 O7 3.329809 1_556
Cs7 O1 3.329809 1_555
Cs7 O8 3.329809 1_556
Cs7 O28 3.339986 1_555
Cs7 O29 3.339986 1_556
Cs7 O33 3.339986 1_555
Mn0 O43 2.052749 1_555
Mn0 O40 2.052749 1_555
Mn0 O46 2.052749 1_555
Mn0 O34 2.144350 1_555
Mn0 O31 2.144350 1_555
Mn0 O28 2.144350 1_555
Mn1 O44 2.052749 1_655
Mn1 O41 2.052749 1_554
Mn1 O38 2.052749 1_555
Mn1 O32 2.144350 1_555
Mn1 O29 2.144350 1_555
Mn1 O26 2.144350 1_555
Mn2 O39 2.052749 1_556
Mn2 O37 2.052749 1_545
Mn2 O45 2.052749 1_555
Mn2 O27 2.144350 1_555
Mn2 O25 2.144350 1_555
Mn2 O33 2.144350 1_555
Mn3 O36 2.052749 1_565
Mn3 O47 2.052749 1_455
Mn3 O42 2.052749 1_555
Mn3 O24 2.144350 1_555
Mn3 O35 2.144350 1_555
Mn3 O30 2.144350 1_555
O0 P10 1.567566 1_555
O0 Zr0 2.121900 1_555
O1 P8 1.567566 1_556
O1 Zr1 2.121900 1_555
O2 P9 1.567566 1_564
O2 Zr2 2.121900 1_555
O3 P4 1.567566 1_555
O3 Zr0 2.121900 1_555
O4 P11 1.567566 1_545
O4 Zr3 2.121900 1_555
O5 P0 1.567566 1_655
O5 Zr3 2.121900 1_555
O6 P2 1.567566 1_456
O6 Zr1 2.121900 1_555
O7 P1 1.567566 1_554
O7 Zr2 2.121900 1_555
O8 P7 1.567566 1_555
O8 Zr0 2.121900 1_555
O9 P6 1.567566 1_645
O9 Zr3 2.121900 1_555
O10 P5 1.567566 1_455
O10 Zr1 2.121900 1_555
O11 P3 1.567566 1_565
O11 Zr2 2.121900 1_555
O12 P0 1.557165 1_555
O12 Zr0 2.100746 1_555
O13 P1 1.557165 1_555
O13 Zr1 2.100746 1_555
O14 P2 1.557165 1_555
O14 Zr2 2.100746 1_555
O15 P3 1.557165 1_555
O15 Zr0 2.100746 1_555
O16 P4 1.557165 1_555
O16 Zr3 2.100746 1_555
O17 P5 1.557165 1_555
O17 Zr3 2.100746 1_555
O18 P6 1.557165 1_555
O18 Zr1 2.100746 1_555
O19 P7 1.557165 1_555
O19 Zr2 2.100746 1_555
O20 P8 1.557165 1_555
O20 Zr0 2.100746 1_555
O21 P9 1.557165 1_555
O21 Zr3 2.100746 1_555
O22 P10 1.557165 1_555
O22 Zr1 2.100746 1_555
O23 P11 1.557165 1_555
O23 Zr2 2.100746 1_555
O24 P2 1.535196 1_455
O25 P4 1.535196 1_555
O26 P0 1.535196 1_655
O27 P6 1.535196 1_545
O28 P1 1.535196 1_555
O29 P7 1.535196 1_555
O30 P3 1.535196 1_565
O31 P5 1.535196 1_555
O32 P9 1.535196 1_554
O33 P8 1.535196 1_556
O34 P11 1.535196 1_555
O35 P10 1.535196 1_555
O36 P0 1.547788 1_555
O37 P1 1.547788 1_555
O38 P2 1.547788 1_555
O39 P3 1.547788 1_555
O40 P4 1.547788 1_555
O41 P5 1.547788 1_555
O42 P6 1.547788 1_555
O43 P7 1.547788 1_555
O44 P8 1.547788 1_555
O45 P9 1.547788 1_555
O46 P10 1.547788 1_555
O47 P11 1.547788 1_555
