# generated using pymatgen
data_BaLiAl3P2(HO7)2
_symmetry_space_group_name_H-M   'P 1'
_cell_length_a   7.35076055
_cell_length_b   7.17810532
_cell_length_c   7.93337907
_cell_angle_alpha   60.82548153
_cell_angle_beta   118.30737974
_cell_angle_gamma   126.60084051
_symmetry_Int_Tables_number   1
_chemical_formula_structural   BaLiAl3P2(HO7)2
_chemical_formula_sum   'Ba1 Li1 Al3 P2 H2 O14'
_cell_volume   283.18542417
_cell_formula_units_Z   1
loop_
 _symmetry_equiv_pos_site_id
 _symmetry_equiv_pos_as_xyz
  1  'x, y, z'
loop_
 _atom_site_type_symbol
 _atom_site_label
 _atom_site_symmetry_multiplicity
 _atom_site_fract_x
 _atom_site_fract_y
 _atom_site_fract_z
 _atom_site_occupancy
  Ba  Ba0  1  0.12389000  0.04671300  0.98749400  1
  Li  Li0  1  0.66835600  0.80508500  0.18386900  1
  Al  Al0  1  0.01493000  0.01235700  0.49961400  1
  Al  Al1  1  0.51939500  0.00645100  0.51675300  1
  Al  Al2  1  0.01098900  0.50949700  0.49986900  1
  P  P0  1  0.28148600  0.72759600  0.85445400  1
  P  P1  1  0.73314500  0.28495900  0.14903800  1
  H  H0  1  0.33002500  0.68551300  0.36481100  1
  H  H1  1  0.70277200  0.33689800  0.65188100  1
  O  O0  1  0.34595200  0.65910900  0.08104900  1
  O  O1  1  0.63247600  0.33754100  0.92672000  1
  O  O2  1  0.14302500  0.87285300  0.75913600  1
  O  O3  1  0.85492200  0.12104100  0.23651400  1
  O  O4  1  0.12459300  0.50132600  0.77482900  1
  O  O5  1  0.50990100  0.89046100  0.78075800  1
  O  O6  1  0.52701000  0.12763900  0.25249300  1
  O  O7  1  0.90707100  0.51443000  0.22673900  1
  O  O8  1  0.32355200  0.69170700  0.48200800  1
  O  O9  1  0.70176700  0.32946800  0.53114100  1
  O  O10  1  0.80609000  0.97820500  0.60780400  1
  O  O11  1  0.03356900  0.22171600  0.58712600  1
  O  O12  1  0.98226000  0.79834200  0.39835400  1
  O  O13  1  0.21710700  0.03754900  0.39825600  1
loop_
_geom_bond_atom_site_label_1
_geom_bond_atom_site_label_2
_geom_bond_distance
_geom_bond_site_symmetry_2
Ba0 O6 2.601489 1_556
Ba0 O11 2.685522 1_555
Ba0 O2 2.741275 1_545
Ba0 O4 2.848837 1_555
Ba0 O10 2.858869 1_445
Ba0 O13 2.969884 1_556
Ba0 O7 3.046012 1_446
Ba0 O1 3.160447 1_555
Li0 O0 1.848915 1_555
Li0 O3 1.967276 1_565
Li0 O12 2.133346 1_555
Al0 O2 1.845012 1_545
Al0 O11 1.854897 1_555
Al0 O3 1.878037 1_455
Al0 O13 1.886556 1_555
Al0 O12 1.908737 1_445
Al0 O10 1.936275 1_445
Al1 O6 1.852099 1_555
Al1 O5 1.858499 1_545
Al1 O9 1.895421 1_555
Al1 O8 1.898702 1_545
Al1 O10 1.981700 1_545
Al1 O13 2.068053 1_555
Al2 O8 1.885266 1_555
Al2 O9 1.902014 1_455
Al2 O4 1.914468 1_555
Al2 O7 1.915105 1_455
Al2 O11 1.918254 1_555
Al2 O12 1.929998 1_455
H0 O8 0.976469 1_555
H1 O9 0.981352 1_555
O0 P0 1.518590 1_554
O1 P1 1.499011 1_556
O2 P0 1.568991 1_555
O3 P1 1.593131 1_555
O4 P0 1.562934 1_555
O5 P0 1.565758 1_555
O6 P1 1.574877 1_555
O7 P1 1.568106 1_555
O10 O11 1.540619 1_665
O12 O13 1.547156 1_665
