# generated using pymatgen
data_ErI3O10
_symmetry_space_group_name_H-M   'P 1'
_cell_length_a   10.22452800
_cell_length_b   7.25553800
_cell_length_c   12.95343411
_cell_angle_alpha   77.94461025
_cell_angle_beta   90.00000000
_cell_angle_gamma   90.00000000
_symmetry_Int_Tables_number   1
_chemical_formula_structural   ErI3O10
_chemical_formula_sum   'Er4 I12 O40'
_cell_volume   939.75090071
_cell_formula_units_Z   4
loop_
 _symmetry_equiv_pos_site_id
 _symmetry_equiv_pos_as_xyz
  1  'x, y, z'
loop_
 _atom_site_type_symbol
 _atom_site_label
 _atom_site_symmetry_multiplicity
 _atom_site_fract_x
 _atom_site_fract_y
 _atom_site_fract_z
 _atom_site_occupancy
  Er  Er0  1  0.69012900  0.85732400  0.63695600  1
  Er  Er1  1  0.19012900  0.14267600  0.86304400  1
  Er  Er2  1  0.30987100  0.14267600  0.36304400  1
  Er  Er3  1  0.80987100  0.85732400  0.13695600  1
  I  I0  1  0.32524900  0.84113000  0.63334300  1
  I  I1  1  0.82524900  0.15887000  0.86665700  1
  I  I2  1  0.67475100  0.15887000  0.36665700  1
  I  I3  1  0.17475100  0.84113000  0.13334300  1
  I  I4  1  0.89544100  0.65445800  0.88404900  1
  I  I5  1  0.39544100  0.34554200  0.61595100  1
  I  I6  1  0.10455900  0.34554200  0.11595100  1
  I  I7  1  0.60455900  0.65445800  0.38404900  1
  I  I8  1  0.48829000  0.82233700  0.93541800  1
  I  I9  1  0.98829000  0.17766300  0.56458200  1
  I  I10  1  0.51171000  0.17766300  0.06458200  1
  I  I11  1  0.01171000  0.82233700  0.43541800  1
  O  O0  1  0.75773700  0.13191300  0.69453800  1
  O  O1  1  0.25773700  0.86808700  0.80546200  1
  O  O2  1  0.24226300  0.86808700  0.30546200  1
  O  O3  1  0.74226300  0.13191300  0.19453800  1
  O  O4  1  0.88061000  0.97007100  0.53038800  1
  O  O5  1  0.38061000  0.02992900  0.96961200  1
  O  O6  1  0.11939000  0.02992900  0.46961200  1
  O  O7  1  0.61939000  0.97007100  0.03038800  1
  O  O8  1  0.90381300  0.63505800  0.70677400  1
  O  O9  1  0.40381300  0.36494200  0.79322600  1
  O  O10  1  0.09618700  0.36494200  0.29322600  1
  O  O11  1  0.59618700  0.63505800  0.20677400  1
  O  O12  1  0.74496000  0.78261500  0.82160100  1
  O  O13  1  0.24496000  0.21738500  0.67839900  1
  O  O14  1  0.25504000  0.21738500  0.17839900  1
  O  O15  1  0.75504000  0.78261500  0.32160100  1
  O  O16  1  0.62320600  0.10429500  0.50870100  1
  O  O17  1  0.12320600  0.89570500  0.99129900  1
  O  O18  1  0.37679400  0.89570500  0.49129900  1
  O  O19  1  0.87679400  0.10429500  0.00870100  1
  O  O20  1  0.65394600  0.67599200  0.52277700  1
  O  O21  1  0.15394600  0.32400800  0.97722300  1
  O  O22  1  0.34605400  0.32400800  0.47722300  1
  O  O23  1  0.84605400  0.67599200  0.02277700  1
  O  O24  1  0.59015000  0.51377600  0.72623900  1
  O  O25  1  0.09015000  0.48622400  0.77376100  1
  O  O26  1  0.40985000  0.48622400  0.27376100  1
  O  O27  1  0.90985000  0.51377600  0.22623900  1
  O  O28  1  0.48571900  0.90441200  0.68681000  1
  O  O29  1  0.98571900  0.09558800  0.81319000  1
  O  O30  1  0.51428100  0.09558800  0.31319000  1
  O  O31  1  0.01428100  0.90441200  0.18681000  1
  O  O32  1  0.81782900  0.27175600  0.61389200  1
  O  O33  1  0.31782900  0.72824400  0.88610800  1
  O  O34  1  0.18217100  0.72824400  0.38610800  1
  O  O35  1  0.68217100  0.27175600  0.11389200  1
  O  O36  1  0.01312500  0.52531300  0.68810900  1
  O  O37  1  0.51312500  0.47468700  0.81189100  1
  O  O38  1  0.98687500  0.47468700  0.31189100  1
  O  O39  1  0.48687500  0.52531300  0.18810900  1
loop_
_geom_bond_atom_site_label_1
_geom_bond_atom_site_label_2
_geom_bond_distance
_geom_bond_site_symmetry_2
Er0 O20 2.206382 1_555
Er0 O28 2.234726 1_555
Er0 O16 2.279402 1_565
Er0 O0 2.371527 1_565
Er0 O12 2.405661 1_555
Er0 O4 2.428192 1_555
Er0 O24 2.718735 1_555
Er0 O8 2.753686 1_555
Er1 O21 2.206382 1_555
Er1 O29 2.234726 1_455
Er1 O17 2.279402 1_545
Er1 O1 2.371527 1_545
Er1 O13 2.405661 1_555
Er1 O5 2.428192 1_555
Er1 O25 2.718735 1_555
Er1 O9 2.753686 1_555
Er2 O22 2.206382 1_555
Er2 O30 2.234726 1_555
Er2 O18 2.279402 1_545
Er2 O2 2.371527 1_545
Er2 O14 2.405661 1_555
Er2 O6 2.428192 1_555
Er2 O26 2.718735 1_555
Er2 O10 2.753686 1_555
Er3 O23 2.206382 1_555
Er3 O31 2.234726 1_655
Er3 O19 2.279402 1_565
Er3 O3 2.371527 1_565
Er3 O15 2.405661 1_555
Er3 O7 2.428192 1_555
Er3 O27 2.718735 1_555
Er3 O11 2.753686 1_555
I0 O28 1.874916 1_555
I0 O18 1.875008 1_555
I0 O1 2.380694 1_555
I1 O29 1.874916 1_555
I1 O19 1.875008 1_556
I1 O0 2.380694 1_555
I2 O30 1.874916 1_555
I2 O16 1.875008 1_555
I2 O3 2.380694 1_555
I3 O31 1.874916 1_555
I3 O17 1.875008 1_554
I3 O2 2.380694 1_555
I4 O12 1.889987 1_555
I4 O23 1.904179 1_556
I4 O8 2.331360 1_555
I5 O13 1.889987 1_555
I5 O22 1.904179 1_555
I5 O9 2.331360 1_555
I6 O14 1.889987 1_555
I6 O21 1.904179 1_554
I6 O10 2.331360 1_555
I7 O15 1.889987 1_555
I7 O20 1.904179 1_555
I7 O11 2.331360 1_555
I8 O5 1.988875 1_565
I8 O33 2.023325 1_555
I8 O7 2.238277 1_556
I9 O4 1.988875 1_545
I9 O32 2.023325 1_555
I9 O6 2.238277 1_655
I10 O7 1.988875 1_545
I10 O35 2.023325 1_555
I10 O5 2.238277 1_554
I11 O6 1.988875 1_565
I11 O34 2.023325 1_555
I11 O4 2.238277 1_455
O0 O32 1.433708 1_555
O1 O33 1.433708 1_555
O2 O34 1.433708 1_555
O3 O35 1.433708 1_555
O10 O38 1.421996 1_455
O11 O39 1.421996 1_555
O24 O37 1.341710 1_555
O25 O36 1.341710 1_555
O26 O39 1.341710 1_555
O27 O38 1.341710 1_555
O36 O8 1.421996 1_455
O37 O9 1.421996 1_555
