# generated using pymatgen
data_NaCaMgCr(SiO3)4
_symmetry_space_group_name_H-M   'P 1'
_cell_length_a   6.63102618
_cell_length_b   6.63102720
_cell_length_c   10.67075926
_cell_angle_alpha   77.67935633
_cell_angle_beta   77.67944304
_cell_angle_gamma   84.72989335
_symmetry_Int_Tables_number   1
_chemical_formula_structural   NaCaMgCr(SiO3)4
_chemical_formula_sum   'Na2 Ca2 Mg2 Cr2 Si8 O24'
_cell_volume   447.30769561
_cell_formula_units_Z   2
loop_
 _symmetry_equiv_pos_site_id
 _symmetry_equiv_pos_as_xyz
  1  'x, y, z'
loop_
 _atom_site_type_symbol
 _atom_site_label
 _atom_site_symmetry_multiplicity
 _atom_site_fract_x
 _atom_site_fract_y
 _atom_site_fract_z
 _atom_site_occupancy
  Na  Na0  1  0.70128900  0.29872900  0.37501700  1
  Na  Na1  1  0.70127000  0.29870700  0.87498900  1
  Ca  Ca0  1  0.30210100  0.69789800  0.12500300  1
  Ca  Ca1  1  0.30212500  0.69787000  0.62500100  1
  Mg  Mg0  1  0.09150300  0.90848600  0.37498500  1
  Mg  Mg1  1  0.09151200  0.90849600  0.87500100  1
  Cr  Cr0  1  0.90575800  0.09427400  0.62498100  1
  Cr  Cr1  1  0.90545800  0.09456000  0.12500400  1
  Si  Si0  1  0.61973800  0.80412800  0.36372500  1
  Si  Si1  1  0.61974600  0.80412100  0.86371600  1
  Si  Si2  1  0.19586900  0.38023800  0.38627500  1
  Si  Si3  1  0.19586100  0.38026100  0.88628700  1
  Si  Si4  1  0.38219000  0.19806100  0.13278000  1
  Si  Si5  1  0.38220300  0.19801900  0.63279100  1
  Si  Si6  1  0.80195000  0.61782800  0.11721400  1
  Si  Si7  1  0.80197500  0.61779900  0.61721100  1
  O  O0  1  0.80283700  0.96861500  0.31485700  1
  O  O1  1  0.80286700  0.96857700  0.81486300  1
  O  O2  1  0.03141300  0.19711300  0.43515700  1
  O  O3  1  0.03138100  0.19715700  0.93514500  1
  O  O4  1  0.19816700  0.03258800  0.17486000  1
  O  O5  1  0.19822900  0.03250200  0.67488400  1
  O  O6  1  0.96744400  0.80180400  0.07514300  1
  O  O7  1  0.96749700  0.80177000  0.57512200  1
  O  O8  1  0.62964100  0.66251600  0.24963500  1
  O  O9  1  0.62966600  0.66249300  0.74963400  1
  O  O10  1  0.33748700  0.37034900  0.00036900  1
  O  O11  1  0.33749600  0.37033800  0.50036400  1
  O  O12  1  0.35971900  0.33610700  0.24882400  1
  O  O13  1  0.35967200  0.33606300  0.74883400  1
  O  O14  1  0.66391900  0.64031100  0.00117500  1
  O  O15  1  0.66392700  0.64032100  0.50116900  1
  O  O16  1  0.38587700  0.88690100  0.40811200  1
  O  O17  1  0.38590000  0.88690200  0.90811200  1
  O  O18  1  0.11304500  0.61406700  0.34187300  1
  O  O19  1  0.11309500  0.61411100  0.84189200  1
  O  O20  1  0.61520100  0.10515100  0.09579000  1
  O  O21  1  0.61518800  0.10513000  0.59585100  1
  O  O22  1  0.89492400  0.38481800  0.15419400  1
  O  O23  1  0.89486300  0.38481500  0.65416100  1
loop_
_geom_bond_atom_site_label_1
_geom_bond_atom_site_label_2
_geom_bond_distance
_geom_bond_site_symmetry_2
Na0 O22 2.407554 1_555
Na0 O21 2.407572 1_555
Na0 O0 2.408667 1_545
Na0 O2 2.408705 1_655
Na0 O11 2.552927 1_555
Na0 O8 2.553082 1_555
Na0 O15 2.839018 1_555
Na0 O12 2.839150 1_555
Na1 O20 2.407170 1_556
Na1 O23 2.407511 1_555
Na1 O3 2.408632 1_655
Na1 O1 2.408667 1_545
Na1 O9 2.552911 1_555
Na1 O10 2.553046 1_556
Na1 O13 2.839075 1_555
Na1 O14 2.839322 1_556
Ca0 O18 2.361549 1_555
Ca0 O17 2.361597 1_554
Ca0 O6 2.397672 1_455
Ca0 O4 2.397898 1_565
Ca0 O12 2.518222 1_555
Ca0 O14 2.518362 1_555
Ca0 O8 2.747165 1_555
Ca0 O10 2.747231 1_555
Ca1 O16 2.361618 1_555
Ca1 O19 2.361637 1_555
Ca1 O7 2.397556 1_455
Ca1 O5 2.397594 1_565
Ca1 O15 2.518245 1_555
Ca1 O13 2.518272 1_555
Ca1 O11 2.747161 1_555
Ca1 O9 2.747181 1_555
Mg0 O16 2.043846 1_555
Mg0 O18 2.044099 1_555
Mg0 O4 2.109533 1_565
Mg0 O7 2.109566 1_455
Mg0 O2 2.123485 1_565
Mg0 O0 2.123526 1_455
Mg1 O19 2.043850 1_555
Mg1 O17 2.043873 1_555
Mg1 O5 2.109384 1_565
Mg1 O6 2.109671 1_456
Mg1 O1 2.123430 1_455
Mg1 O3 2.123574 1_565
Cr0 O23 2.008667 1_555
Cr0 O21 2.008691 1_555
Cr0 O2 2.014157 1_655
Cr0 O1 2.014800 1_545
Cr0 O5 2.101014 1_655
Cr0 O7 2.101020 1_545
Cr1 O22 2.007055 1_555
Cr1 O20 2.007105 1_555
Cr1 O3 2.014623 1_654
Cr1 O0 2.014629 1_545
Cr1 O4 2.102397 1_655
Cr1 O6 2.102724 1_545
O0 Si0 1.632807 1_555
O1 Si1 1.632774 1_555
O2 Si2 1.632799 1_555
O3 Si3 1.632798 1_555
O4 Si4 1.642102 1_555
O5 Si5 1.642053 1_555
O6 Si6 1.641966 1_555
O7 Si7 1.642062 1_555
O8 Si0 1.676502 1_555
O8 Si6 1.678529 1_555
O9 Si1 1.676487 1_555
O9 Si7 1.678556 1_555
O10 Si3 1.676485 1_554
O10 Si4 1.678410 1_555
O11 Si2 1.676566 1_555
O11 Si5 1.678643 1_555
O12 Si4 1.665355 1_555
O12 Si2 1.691751 1_555
O13 Si5 1.665289 1_555
O13 Si3 1.691786 1_555
O14 Si6 1.665230 1_555
O14 Si1 1.691781 1_554
O15 Si7 1.665305 1_555
O15 Si0 1.691681 1_555
O16 Si0 1.603595 1_555
O17 Si1 1.603541 1_555
O18 Si2 1.603542 1_555
O19 Si3 1.603530 1_555
O20 Si4 1.609765 1_555
O21 Si5 1.609501 1_555
O22 Si6 1.609893 1_555
O23 Si7 1.609506 1_555
