# generated using pymatgen
data_NbReTc2
_symmetry_space_group_name_H-M   'P 1'
_cell_length_a   10.41166733
_cell_length_b   10.41166733
_cell_length_c   10.41166733
_cell_angle_alpha   128.99124849
_cell_angle_beta   116.46086044
_cell_angle_gamma   85.71095591
_symmetry_Int_Tables_number   1
_chemical_formula_structural   NbReTc2
_chemical_formula_sum   'Nb1 Re1 Tc2'
_cell_volume   750.27951709
_cell_formula_units_Z   1
loop_
 _symmetry_equiv_pos_site_id
 _symmetry_equiv_pos_as_xyz
  1  'x, y, z'
loop_
 _atom_site_type_symbol
 _atom_site_label
 _atom_site_symmetry_multiplicity
 _atom_site_fract_x
 _atom_site_fract_y
 _atom_site_fract_z
 _atom_site_occupancy
  Nb  Nb0  1  0.00000000  0.00000000  0.00000000  1
  Re  Re0  1  0.00000000  0.50000000  0.50000000  1
  Tc  Tc0  1  0.00000000  0.24797000  0.24797000  1
  Tc  Tc1  1  0.00000000  0.75203000  0.75203000  1
loop_
_geom_bond_atom_site_label_1
_geom_bond_atom_site_label_2
_geom_bond_distance
_geom_bond_site_symmetry_2
Nb0 Tc0 2.223327 1_555
Nb0 Tc1 2.223327 1_544
Re0 Tc1 2.259729 1_555
Re0 Tc0 2.259729 1_555
