# generated using pymatgen
data_Na5Ca4(SiO3)6
_symmetry_space_group_name_H-M   'P 1'
_cell_length_a   10.64912525
_cell_length_b   10.64912524
_cell_length_c   13.37704190
_cell_angle_alpha   90.00000000
_cell_angle_beta   90.00000000
_cell_angle_gamma   120.00000034
_symmetry_Int_Tables_number   1
_chemical_formula_structural   Na5Ca4(SiO3)6
_chemical_formula_sum   'Na15 Ca12 Si18 O54'
_cell_volume   1313.76772115
_cell_formula_units_Z   3
loop_
 _symmetry_equiv_pos_site_id
 _symmetry_equiv_pos_as_xyz
  1  'x, y, z'
loop_
 _atom_site_type_symbol
 _atom_site_label
 _atom_site_symmetry_multiplicity
 _atom_site_fract_x
 _atom_site_fract_y
 _atom_site_fract_z
 _atom_site_occupancy
  Na  Na0  1  0.19225001  0.48843183  0.83091349  1
  Na  Na1  1  0.29618182  0.80774999  0.49758049  1
  Na  Na2  1  0.51156817  0.70381818  0.16424649  1
  Na  Na3  1  0.99768890  0.66681954  0.40105527  1
  Na  Na4  1  0.66913064  0.00231110  0.06772227  1
  Na  Na5  1  0.33318046  0.33086936  0.73438827  1
  Na  Na6  1  0.48251386  0.65110969  0.66437035  1
  Na  Na7  1  0.16859583  0.51748614  0.33103735  1
  Na  Na8  1  0.34889031  0.83140417  0.99770335  1
  Na  Na9  1  0.81702238  0.83715948  0.99026003  1
  Na  Na10  1  0.02013710  0.18297762  0.65692703  1
  Na  Na11  1  0.16284052  0.97986290  0.32359303  1
  Na  Na12  1  0.84160955  0.30876497  0.99442213  1
  Na  Na13  1  0.46715541  0.15839045  0.66108913  1
  Na  Na14  1  0.69123503  0.53284459  0.32775513  1
  Ca  Ca0  1  0.84884671  0.34241581  0.48889275  1
  Ca  Ca1  1  0.49356910  0.15115329  0.15555975  1
  Ca  Ca2  1  0.65758419  0.50643090  0.82222575  1
  Ca  Ca3  1  0.83299286  0.85148999  0.47999804  1
  Ca  Ca4  1  0.01849714  0.16700714  0.14666504  1
  Ca  Ca5  1  0.14851001  0.98150286  0.81333104  1
  Ca  Ca6  1  0.64859952  0.00212678  0.57597627  1
  Ca  Ca7  1  0.35352726  0.35140048  0.24264327  1
  Ca  Ca8  1  0.99787322  0.64647274  0.90930927  1
  Ca  Ca9  1  0.97700924  0.64315976  0.65162722  1
  Ca  Ca10  1  0.66615052  0.02299076  0.31829422  1
  Ca  Ca11  1  0.35684024  0.33384948  0.98496022  1
  Si  Si0  1  0.81940564  0.28843032  0.76283303  1
  Si  Si1  1  0.46902468  0.18059436  0.42950003  1
  Si  Si2  1  0.71156968  0.53097532  0.09616603  1
  Si  Si3  1  0.49058873  0.65374063  0.42853865  1
  Si  Si4  1  0.16315190  0.50941127  0.09520565  1
  Si  Si5  1  0.34625937  0.83684810  0.76187165  1
  Si  Si6  1  0.51678162  0.70544973  0.89157862  1
  Si  Si7  1  0.18866810  0.48321838  0.55824562  1
  Si  Si8  1  0.29455027  0.81133190  0.22491162  1
  Si  Si9  1  0.51748948  0.13894514  0.88252388  1
  Si  Si10  1  0.62145566  0.48251052  0.54919088  1
  Si  Si11  1  0.86105486  0.37854434  0.21585688  1
  Si  Si12  1  0.98786301  0.15641174  0.88390792  1
  Si  Si13  1  0.16854873  0.01213699  0.55057492  1
  Si  Si14  1  0.84358826  0.83145127  0.21724092  1
  Si  Si15  1  0.81528702  0.85459810  0.75215522  1
  Si  Si16  1  0.03931108  0.18471298  0.41882222  1
  Si  Si17  1  0.14540190  0.96068892  0.08548822  1
  O  O0  1  0.86336889  0.10528327  0.43375419  1
  O  O1  1  0.24191439  0.13663111  0.10042119  1
  O  O2  1  0.89471673  0.75808561  0.76708719  1
  O  O3  1  0.66745019  0.17369714  0.82186901  1
  O  O4  1  0.50624695  0.33254981  0.48853601  1
  O  O5  1  0.82630286  0.49375305  0.15520201  1
  O  O6  1  0.77773399  0.93952457  0.20918167  1
  O  O7  1  0.16179058  0.22226601  0.87584867  1
  O  O8  1  0.06047543  0.83820942  0.54251467  1
  O  O9  1  0.58453949  0.83071273  0.43607446  1
  O  O10  1  0.24617324  0.41546051  0.10274146  1
  O  O11  1  0.16928727  0.75382676  0.76940746  1
  O  O12  1  0.55465813  0.77772939  0.00030352  1
  O  O13  1  0.22307126  0.44534187  0.66697052  1
  O  O14  1  0.22227061  0.77692874  0.33363652  1
  O  O15  1  0.81220181  0.23143283  0.64828084  1
  O  O16  1  0.41923102  0.18779819  0.31494784  1
  O  O17  1  0.76856717  0.58076898  0.98161384  1
  O  O18  1  0.92849476  0.00890114  0.81050144  1
  O  O19  1  0.08040638  0.07150524  0.47716844  1
  O  O20  1  0.99109886  0.91959362  0.14383444  1
  O  O21  1  0.39965538  0.74410469  0.83419338  1
  O  O22  1  0.34444931  0.60034462  0.50086038  1
  O  O23  1  0.25589531  0.65555069  0.16752638  1
  O  O24  1  0.78835752  0.52362286  0.52786417  1
  O  O25  1  0.73526534  0.21164248  0.19453117  1
  O  O26  1  0.47637714  0.26473466  0.86119717  1
  O  O27  1  0.77920433  0.89163184  0.64160575  1
  O  O28  1  0.11242751  0.22079567  0.30827275  1
  O  O29  1  0.10836816  0.88757249  0.97493875  1
  O  O30  1  0.94864435  0.27142748  0.82489607  1
  O  O31  1  0.32278314  0.05135565  0.49156307  1
  O  O32  1  0.72857252  0.67721686  0.15822907  1
  O  O33  1  0.45151740  0.53193227  0.87885888  1
  O  O34  1  0.08041487  0.54848260  0.54552588  1
  O  O35  1  0.46806773  0.91958513  0.21219188  1
  O  O36  1  0.52121059  0.08966317  0.99648500  1
  O  O37  1  0.56845258  0.47878941  0.66315200  1
  O  O38  1  0.91033683  0.43154742  0.32981800  1
  O  O39  1  0.60727347  0.61328698  0.48634589  1
  O  O40  1  0.00601351  0.39272653  0.15301289  1
  O  O41  1  0.38671302  0.99398649  0.81967889  1
  O  O42  1  0.42788136  0.87008434  0.65461807  1
  O  O43  1  0.44220298  0.57211864  0.32128507  1
  O  O44  1  0.12991566  0.55779702  0.98795107  1
  O  O45  1  0.90935705  0.11370344  0.99214995  1
  O  O46  1  0.20434639  0.09064295  0.65881695  1
  O  O47  1  0.88629656  0.79565361  0.32548295  1
  O  O48  1  0.85777905  0.45599416  0.78211702  1
  O  O49  1  0.59821510  0.14222095  0.44878402  1
  O  O50  1  0.54400584  0.40178490  0.11545002  1
  O  O51  1  0.66550585  0.77303275  0.81964781  1
  O  O52  1  0.10752691  0.33449415  0.48631481  1
  O  O53  1  0.22696725  0.89247309  0.15298081  1
loop_
_geom_bond_atom_site_label_1
_geom_bond_atom_site_label_2
_geom_bond_distance
_geom_bond_site_symmetry_2
Na0 O13 2.297491 1_555
Na0 O44 2.426841 1_555
Na0 O30 2.466100 1_455
Na0 O21 2.505933 1_555
Na0 O33 2.640058 1_555
Na0 O7 2.753389 1_555
Na1 O14 2.297504 1_555
Na1 O42 2.426841 1_555
Na1 O31 2.466100 1_565
Na1 O22 2.505933 1_555
Na1 O34 2.640058 1_555
Na1 O8 2.753386 1_555
Na2 O12 2.297491 1_555
Na2 O43 2.426853 1_555
Na2 O32 2.466101 1_555
Na2 O23 2.505933 1_555
Na2 O35 2.640058 1_555
Na2 O6 2.753389 1_555
Na3 O14 2.259138 1_655
Na3 O38 2.391660 1_555
Na3 O47 2.436987 1_555
Na3 O8 2.477646 1_655
Na3 O24 2.602475 1_555
Na3 O34 2.685001 1_655
Na4 O12 2.259138 1_545
Na4 O36 2.391660 1_554
Na4 O45 2.436987 1_554
Na4 O6 2.477646 1_545
Na4 O25 2.602475 1_555
Na4 O35 2.684991 1_545
Na5 O13 2.259133 1_555
Na5 O37 2.391655 1_555
Na5 O46 2.436982 1_555
Na5 O7 2.477656 1_555
Na5 O26 2.602475 1_555
Na5 O33 2.685001 1_555
Na6 O37 2.425829 1_555
Na6 O13 2.526259 1_555
Na6 O22 2.538365 1_555
Na6 O42 2.673923 1_555
Na6 O51 2.695856 1_555
Na6 O21 2.791753 1_555
Na6 O39 2.851971 1_555
Na6 O27 2.922855 1_555
Na7 O38 2.425829 1_455
Na7 O14 2.526258 1_555
Na7 O23 2.538377 1_555
Na7 O43 2.673923 1_555
Na7 O52 2.695857 1_555
Na7 O22 2.791753 1_555
Na7 O40 2.851971 1_555
Na7 O28 2.922855 1_555
Na8 O36 2.425829 1_565
Na8 O12 2.526259 1_556
Na8 O21 2.538365 1_555
Na8 O44 2.673923 1_555
Na8 O53 2.695856 1_556
Na8 O23 2.791753 1_556
Na8 O41 2.851971 1_555
Na8 O29 2.922855 1_555
Na9 O17 2.515054 1_555
Na9 O12 2.540966 1_556
Na9 O45 2.597018 1_565
Na9 O20 2.607714 1_556
Na9 O51 2.678947 1_555
Na9 O32 2.689356 1_556
Na9 O29 2.879336 1_655
Na9 O18 2.892277 1_565
Na10 O15 2.515054 1_455
Na10 O13 2.540966 1_555
Na10 O46 2.597018 1_555
Na10 O18 2.607714 1_455
Na10 O52 2.678947 1_555
Na10 O30 2.689356 1_455
Na10 O27 2.879336 1_445
Na10 O19 2.892277 1_555
Na11 O16 2.515054 1_565
Na11 O14 2.540966 1_555
Na11 O47 2.597018 1_455
Na11 O19 2.607724 1_565
Na11 O53 2.678947 1_555
Na11 O31 2.689367 1_565
Na11 O28 2.879335 1_565
Na11 O20 2.892277 1_455
Na12 O45 2.516932 1_555
Na12 O40 2.607657 1_656
Na12 O30 2.655792 1_555
Na12 O3 2.858138 1_555
Na12 O44 2.885225 1_655
Na12 O25 2.889038 1_556
Na12 O5 2.975599 1_556
Na12 O36 3.020821 1_555
Na13 O46 2.516931 1_555
Na13 O41 2.607646 1_545
Na13 O31 2.655792 1_555
Na13 O4 2.858138 1_555
Na13 O42 2.885225 1_545
Na13 O26 2.889026 1_555
Na13 O3 2.975599 1_555
Na13 O37 3.020821 1_555
Na14 O47 2.516931 1_555
Na14 O39 2.607657 1_555
Na14 O32 2.655792 1_555
Na14 O5 2.858138 1_555
Na14 O43 2.885225 1_555
Na14 O24 2.889038 1_555
Na14 O4 2.975609 1_555
Na14 O38 3.020821 1_555
Ca0 O38 2.288307 1_555
Ca0 O15 2.373588 1_555
Ca0 O24 2.377703 1_555
Ca0 O34 2.461533 1_655
Ca0 O49 2.503280 1_555
Ca0 O0 2.708393 1_555
Ca0 O52 2.798064 1_655
Ca1 O36 2.288307 1_554
Ca1 O16 2.373588 1_555
Ca1 O25 2.377703 1_555
Ca1 O35 2.461529 1_545
Ca1 O50 2.503283 1_555
Ca1 O1 2.708393 1_555
Ca1 O53 2.798064 1_545
Ca2 O37 2.288295 1_555
Ca2 O17 2.373588 1_555
Ca2 O26 2.377703 1_555
Ca2 O33 2.461533 1_555
Ca2 O48 2.503280 1_555
Ca2 O2 2.708393 1_555
Ca2 O51 2.798064 1_555
Ca3 O47 2.299043 1_555
Ca3 O27 2.330068 1_555
Ca3 O39 2.474323 1_555
Ca3 O19 2.501934 1_665
Ca3 O9 2.609425 1_555
Ca3 O0 2.630117 1_565
Ca3 O8 2.632573 1_655
Ca4 O45 2.299043 1_454
Ca4 O28 2.330068 1_555
Ca4 O40 2.474323 1_555
Ca4 O20 2.501934 1_445
Ca4 O10 2.609424 1_555
Ca4 O1 2.630117 1_555
Ca4 O6 2.632573 1_445
Ca5 O46 2.299031 1_565
Ca5 O29 2.330068 1_555
Ca5 O41 2.474323 1_555
Ca5 O18 2.501934 1_465
Ca5 O11 2.609424 1_555
Ca5 O2 2.630117 1_455
Ca5 O7 2.632578 1_565
Ca6 O42 2.302931 1_545
Ca6 O15 2.383154 1_555
Ca6 O27 2.392963 1_545
Ca6 O9 2.460618 1_545
Ca6 O49 2.491789 1_555
Ca6 O0 2.746764 1_555
Ca7 O43 2.302931 1_555
Ca7 O16 2.383154 1_555
Ca7 O28 2.392963 1_555
Ca7 O10 2.460618 1_555
Ca7 O50 2.491798 1_555
Ca7 O1 2.746764 1_555
Ca8 O44 2.302931 1_655
Ca8 O17 2.383154 1_555
Ca8 O29 2.392963 1_655
Ca8 O11 2.460618 1_655
Ca8 O48 2.491789 1_555
Ca8 O2 2.746764 1_555
Ca9 O34 2.313836 1_655
Ca9 O8 2.321344 1_655
Ca9 O11 2.377136 1_655
Ca9 O2 2.392457 1_555
Ca9 O24 2.416614 1_555
Ca9 O48 2.470038 1_555
Ca10 O35 2.313844 1_545
Ca10 O6 2.321344 1_545
Ca10 O9 2.377136 1_545
Ca10 O0 2.392457 1_555
Ca10 O25 2.416614 1_555
Ca10 O49 2.470038 1_555
Ca11 O33 2.313836 1_555
Ca11 O7 2.321336 1_555
Ca11 O10 2.377145 1_556
Ca11 O1 2.392466 1_556
Ca11 O26 2.416614 1_555
Ca11 O50 2.470038 1_556
O0 Si16 1.637388 1_655
O1 Si17 1.637390 1_545
O2 Si15 1.637388 1_555
O3 Si9 1.659685 1_555
O3 Si0 1.660696 1_555
O4 Si10 1.659685 1_555
O4 Si1 1.660696 1_555
O5 Si11 1.659685 1_555
O5 Si2 1.660696 1_555
O6 Si14 1.623291 1_555
O7 Si12 1.623291 1_455
O8 Si13 1.623292 1_565
O9 Si3 1.636255 1_555
O10 Si4 1.636255 1_555
O11 Si5 1.636255 1_555
O12 Si6 1.600006 1_554
O13 Si7 1.600006 1_555
O14 Si8 1.600006 1_555
O15 Si0 1.635816 1_555
O16 Si1 1.635816 1_555
O17 Si2 1.635816 1_556
O18 Si15 1.667834 1_545
O18 Si12 1.684761 1_555
O19 Si16 1.667834 1_555
O19 Si13 1.684761 1_555
O20 Si17 1.667834 1_655
O20 Si14 1.684761 1_555
O21 Si5 1.672216 1_555
O21 Si6 1.681637 1_555
O22 Si3 1.672216 1_555
O22 Si7 1.681637 1_555
O23 Si4 1.672208 1_555
O23 Si8 1.681637 1_555
O24 Si10 1.629087 1_555
O25 Si11 1.629085 1_555
O26 Si9 1.629087 1_555
O27 Si15 1.625313 1_555
O28 Si16 1.625313 1_555
O29 Si17 1.625313 1_556
O30 Si12 1.676097 1_555
O30 Si0 1.692746 1_555
O31 Si13 1.676097 1_555
O31 Si1 1.692746 1_555
O32 Si14 1.676097 1_555
O32 Si2 1.692746 1_555
O33 Si6 1.625468 1_555
O34 Si7 1.625468 1_555
O35 Si8 1.625468 1_555
O36 Si9 1.619191 1_555
O37 Si10 1.619191 1_555
O38 Si11 1.619191 1_555
O39 Si3 1.692010 1_555
O39 Si10 1.696871 1_555
O40 Si4 1.692010 1_555
O40 Si11 1.696864 1_455
O41 Si5 1.692010 1_555
O41 Si9 1.696871 1_565
O42 Si5 1.622223 1_555
O43 Si3 1.622223 1_555
O44 Si4 1.622235 1_556
O45 Si12 1.619300 1_555
O46 Si13 1.619300 1_555
O47 Si14 1.619300 1_555
O48 Si0 1.639653 1_555
O49 Si1 1.639653 1_555
O50 Si2 1.639653 1_555
O51 Si15 1.651758 1_555
O51 Si6 1.677009 1_555
O52 Si16 1.651758 1_555
O52 Si7 1.677009 1_555
O53 Si17 1.651758 1_555
O53 Si8 1.677009 1_555
