# generated using pymatgen
data_Yb(FeO2)2
_symmetry_space_group_name_H-M   'P 1'
_cell_length_a   3.43883908
_cell_length_b   3.43883908
_cell_length_c   8.47349194
_cell_angle_alpha   78.29239530
_cell_angle_beta   78.29239530
_cell_angle_gamma   60.00001359
_symmetry_Int_Tables_number   1
_chemical_formula_structural   Yb(FeO2)2
_chemical_formula_sum   'Yb1 Fe2 O4'
_cell_volume   84.36369106
_cell_formula_units_Z   1
loop_
 _symmetry_equiv_pos_site_id
 _symmetry_equiv_pos_as_xyz
  1  'x, y, z'
loop_
 _atom_site_type_symbol
 _atom_site_label
 _atom_site_symmetry_multiplicity
 _atom_site_fract_x
 _atom_site_fract_y
 _atom_site_fract_z
 _atom_site_occupancy
  Yb  Yb0  1  0.00000000  0.00000000  0.00000000  1
  Fe  Fe0  1  0.78685318  0.78685318  0.63944045  1
  Fe  Fe1  1  0.21314682  0.21314682  0.36055955  1
  O  O0  1  0.87322165  0.87322165  0.38033505  1
  O  O1  1  0.12677835  0.12677835  0.61966495  1
  O  O2  1  0.70758729  0.70758729  0.87723813  1
  O  O3  1  0.29241271  0.29241271  0.12276187  1
loop_
_geom_bond_atom_site_label_1
_geom_bond_atom_site_label_2
_geom_bond_distance
_geom_bond_site_symmetry_2
Fe0 O2 1.958884 1_555
Fe0 O1 1.992086 1_665
Fe0 O1 1.992087 1_655
Fe0 O1 1.992087 1_565
Fe0 O0 2.134409 1_555
Fe1 O3 1.958884 1_555
Fe1 O0 1.992086 1_445
Fe1 O0 1.992087 1_545
Fe1 O0 1.992087 1_455
Fe1 O1 2.134409 1_555
O2 Yb0 2.228121 1_666
O2 Yb0 2.228122 1_656
O2 Yb0 2.228122 1_566
O3 Yb0 2.228121 1_555
O3 Yb0 2.228122 1_565
O3 Yb0 2.228122 1_655
