# generated using pymatgen
data_Li5CoNi9O20
_symmetry_space_group_name_H-M   'P 1'
_cell_length_a   2.86220700
_cell_length_b   11.33448505
_cell_length_c   11.74689436
_cell_angle_alpha   115.37944862
_cell_angle_beta   89.14551361
_cell_angle_gamma   97.17924955
_symmetry_Int_Tables_number   1
_chemical_formula_structural   Li5CoNi9O20
_chemical_formula_sum   'Li5 Co1 Ni9 O20'
_cell_volume   341.29225106
_cell_formula_units_Z   1
loop_
 _symmetry_equiv_pos_site_id
 _symmetry_equiv_pos_as_xyz
  1  'x, y, z'
loop_
 _atom_site_type_symbol
 _atom_site_label
 _atom_site_symmetry_multiplicity
 _atom_site_fract_x
 _atom_site_fract_y
 _atom_site_fract_z
 _atom_site_occupancy
  Li  Li0  1  0.02594900  0.00090900  0.75063200  1
  Li  Li1  1  0.79420200  0.59744900  0.34750900  1
  Li  Li2  1  0.80154700  0.61106900  0.86335600  1
  Li  Li3  1  0.98384900  0.00142400  0.25193100  1
  Li  Li4  1  0.20116900  0.38754500  0.63536700  1
  Co  Co0  1  0.61696000  0.20164000  0.70171900  1
  Ni  Ni0  1  0.00025500  0.00117800  0.99987000  1
  Ni  Ni1  1  0.19226300  0.39799200  0.90118900  1
  Ni  Ni2  1  0.00460800  0.00070700  0.50009900  1
  Ni  Ni3  1  0.79624900  0.59944600  0.10132000  1
  Ni  Ni4  1  0.56943300  0.20368900  0.19773100  1
  Ni  Ni5  1  0.81160100  0.60168500  0.59952400  1
  Ni  Ni6  1  0.39861500  0.79908500  0.29997600  1
  Ni  Ni7  1  0.17528200  0.39687400  0.40006400  1
  Ni  Ni8  1  0.43699700  0.79911700  0.80017000  1
  O  O0  1  0.89423600  0.80649900  0.40769300  1
  O  O1  1  0.90068600  0.79071500  0.19136300  1
  O  O2  1  0.45840600  0.02024600  0.12317100  1
  O  O3  1  0.69156100  0.41219900  0.01274500  1
  O  O4  1  0.93816000  0.79169100  0.69189500  1
  O  O5  1  0.70277600  0.41318000  0.52141700  1
  O  O6  1  0.65767000  0.38861900  0.28694900  1
  O  O7  1  0.93480300  0.80817800  0.90859500  1
  O  O8  1  0.69586100  0.38708500  0.78159500  1
  O  O9  1  0.54865200  0.01976600  0.62498900  1
  O  O10  1  0.33789200  0.61580700  0.22400800  1
  O  O11  1  0.46300800  0.98379900  0.37708500  1
  O  O12  1  0.36219000  0.61277900  0.72323300  1
  O  O13  1  0.06829900  0.19105700  0.08884800  1
  O  O14  1  0.06910900  0.21037200  0.30685200  1
  O  O15  1  0.25808000  0.58179500  0.47544100  1
  O  O16  1  0.53989000  0.98216200  0.87539500  1
  O  O17  1  0.25047200  0.58146800  0.97625700  1
  O  O18  1  0.12282800  0.19470800  0.59389100  1
  O  O19  1  0.11448600  0.21062300  0.81136100  1
loop_
_geom_bond_atom_site_label_1
_geom_bond_atom_site_label_2
_geom_bond_distance
_geom_bond_site_symmetry_2
Li0 O16 2.064162 1_445
Li0 O9 2.119866 1_455
Li0 O9 2.141706 1_555
Li0 O4 2.148556 1_445
Li0 O19 2.150465 1_555
Li0 O16 2.183188 1_545
Li1 O10 2.058390 1_555
Li1 O15 2.097544 1_655
Li1 O6 2.143606 1_555
Li1 O0 2.143988 1_555
Li1 O10 2.163353 1_655
Li1 O15 2.176306 1_555
Li2 O17 2.015564 1_655
Li2 O7 2.048055 1_555
Li2 O12 2.094346 1_555
Li2 O17 2.132156 1_555
Li2 O8 2.277215 1_555
Li2 O12 2.285936 1_655
Li3 O2 2.078723 1_655
Li3 O11 2.112480 1_645
Li3 O11 2.129699 1_545
Li3 O14 2.152945 1_655
Li3 O1 2.161733 1_545
Li3 O2 2.240470 1_555
Li4 O18 2.008201 1_555
Li4 O5 2.027121 1_555
Li4 O5 2.098816 1_455
Li4 O8 2.230263 1_455
Li4 O8 2.244432 1_555
Li4 O12 2.292691 1_555
Co0 O9 1.847146 1_555
Co0 O8 1.883221 1_555
Co0 O18 1.884456 1_555
Co0 O18 1.896153 1_655
Co0 O19 1.898178 1_655
Co0 O19 1.899080 1_555
Ni0 O2 1.892517 1_556
Ni0 O16 1.907096 1_445
Ni0 O13 1.932687 1_556
Ni0 O7 1.965465 1_445
Ni0 O2 2.073225 1_456
Ni0 O16 2.077447 1_545
Ni1 O17 1.864376 1_555
Ni1 O3 1.898139 1_556
Ni1 O3 1.902042 1_456
Ni1 O19 1.908160 1_555
Ni1 O8 1.968337 1_455
Ni1 O8 1.975300 1_555
Ni2 O11 1.901366 1_545
Ni2 O9 1.908868 1_455
Ni2 O0 1.977806 1_445
Ni2 O18 1.977859 1_555
Ni2 O11 2.069551 1_445
Ni2 O9 2.082333 1_555
Ni3 O10 1.899443 1_555
Ni3 O3 1.906337 1_555
Ni3 O17 1.908566 1_654
Ni3 O1 1.946755 1_555
Ni3 O10 2.068948 1_655
Ni3 O17 2.091002 1_554
Ni4 O2 1.863698 1_555
Ni4 O13 1.880122 1_655
Ni4 O6 1.883665 1_555
Ni4 O13 1.886849 1_555
Ni4 O14 1.894380 1_555
Ni4 O14 1.907513 1_655
Ni5 O15 1.882346 1_655
Ni5 O12 1.900056 1_555
Ni5 O5 1.914589 1_555
Ni5 O4 1.939130 1_555
Ni5 O15 2.093631 1_555
Ni5 O12 2.114990 1_655
Ni6 O10 1.862055 1_555
Ni6 O11 1.876338 1_555
Ni6 O0 1.884961 1_555
Ni6 O0 1.891276 1_455
Ni6 O1 1.891434 1_555
Ni6 O1 1.893314 1_455
Ni7 O15 1.877373 1_555
Ni7 O6 1.884581 1_555
Ni7 O14 1.903962 1_555
Ni7 O5 1.916874 1_455
Ni7 O6 1.971472 1_455
Ni7 O5 2.028387 1_555
Ni8 O16 1.858900 1_555
Ni8 O4 1.888488 1_555
Ni8 O7 1.888993 1_555
Ni8 O7 1.889175 1_455
Ni8 O12 1.892050 1_555
Ni8 O4 1.896233 1_455
