# generated using pymatgen
data_ZrMoP
_symmetry_space_group_name_H-M   'P 1'
_cell_length_a   6.94004723
_cell_length_b   6.94004796
_cell_length_c   3.44533736
_cell_angle_alpha   90.00000000
_cell_angle_beta   90.00000000
_cell_angle_gamma   120.00000132
_symmetry_Int_Tables_number   1
_chemical_formula_structural   ZrMoP
_chemical_formula_sum   'Zr3 Mo3 P3'
_cell_volume   143.71009530
_cell_formula_units_Z   3
loop_
 _symmetry_equiv_pos_site_id
 _symmetry_equiv_pos_as_xyz
  1  'x, y, z'
loop_
 _atom_site_type_symbol
 _atom_site_label
 _atom_site_symmetry_multiplicity
 _atom_site_fract_x
 _atom_site_fract_y
 _atom_site_fract_z
 _atom_site_occupancy
  Zr  Zr0  1  0.40372125  0.40372125  0.50000000  1
  Zr  Zr1  1  0.59627875  1.00000000  0.50000000  1
  Zr  Zr2  1  0.00000000  0.59627875  0.50000000  1
  Mo  Mo0  1  0.00000000  0.25143980  0.00000000  1
  Mo  Mo1  1  0.25143980  1.00000000  0.00000000  1
  Mo  Mo2  1  0.74856020  0.74856020  0.00000000  1
  P  P0  1  0.66666700  0.33333300  0.00000000  1
  P  P1  1  0.33333300  0.66666700  0.00000000  1
  P  P2  1  -0.00000000  -0.00000000  0.50000000  1
loop_
_geom_bond_atom_site_label_1
_geom_bond_atom_site_label_2
_geom_bond_distance
_geom_bond_site_symmetry_2
Mo0 P2 2.452066 1_555
Mo0 P2 2.452066 1_554
Mo0 P0 2.643740 1_455
Mo0 P1 2.643745 1_555
Mo0 Zr2 2.948727 1_554
Mo0 Zr2 2.948727 1_555
Mo0 Zr0 2.995618 1_555
Mo0 Zr0 2.995618 1_554
Mo0 Zr1 2.995618 1_444
Mo0 Zr1 2.995618 1_445
Mo1 P2 2.452066 1_564
Mo1 P2 2.452066 1_565
Mo1 P1 2.643740 1_555
Mo1 P0 2.643744 1_565
Mo1 Zr1 2.948726 1_554
Mo1 Zr1 2.948726 1_555
Mo1 Zr2 2.995619 1_554
Mo1 Zr2 2.995619 1_555
Mo1 Zr0 2.995619 1_565
Mo1 Zr0 2.995619 1_564
Mo2 P2 2.452066 1_665
Mo2 P2 2.452066 1_664
Mo2 P1 2.643747 1_555
Mo2 P0 2.643747 1_555
Mo2 Zr0 2.948726 1_555
Mo2 Zr0 2.948726 1_554
Mo2 Zr2 2.995618 1_654
Mo2 Zr2 2.995618 1_655
Mo2 Zr1 2.995619 1_554
Mo2 Zr1 2.995619 1_555
P0 Zr1 2.725386 1_545
P0 Zr1 2.725386 1_544
P0 Zr2 2.725387 1_654
P0 Zr2 2.725387 1_655
P0 Zr0 2.725391 1_555
P0 Zr0 2.725391 1_554
P1 Zr2 2.725385 1_554
P1 Zr2 2.725385 1_555
P1 Zr1 2.725387 1_555
P1 Zr1 2.725387 1_554
P1 Zr0 2.725391 1_555
P1 Zr0 2.725391 1_554
P2 Zr1 2.801845 1_445
P2 Zr0 2.801845 1_555
P2 Zr2 2.801845 1_545
