# generated using pymatgen
data_Nb2Se3
_symmetry_space_group_name_H-M   'P 1'
_cell_length_a   3.46135471
_cell_length_b   3.46135471
_cell_length_c   13.66157339
_cell_angle_alpha   90.00000000
_cell_angle_beta   90.00000000
_cell_angle_gamma   120.00000355
_symmetry_Int_Tables_number   1
_chemical_formula_structural   Nb2Se3
_chemical_formula_sum   'Nb2 Se3'
_cell_volume   141.75015690
_cell_formula_units_Z   1
loop_
 _symmetry_equiv_pos_site_id
 _symmetry_equiv_pos_as_xyz
  1  'x, y, z'
loop_
 _atom_site_type_symbol
 _atom_site_label
 _atom_site_symmetry_multiplicity
 _atom_site_fract_x
 _atom_site_fract_y
 _atom_site_fract_z
 _atom_site_occupancy
  Nb  Nb0  1  -0.00000000  -0.00000000  0.49616249  1
  Nb  Nb1  1  0.00000000  0.00000000  0.75178356  1
  Se  Se0  1  0.66666700  0.33333300  0.62768222  1
  Se  Se1  1  0.33333300  0.66666700  0.37446829  1
  Se  Se2  1  0.66666700  0.33333300  0.87490344  1
loop_
_geom_bond_atom_site_label_1
_geom_bond_atom_site_label_2
_geom_bond_distance
_geom_bond_site_symmetry_2
Nb0 Se1 2.599552 1_545
Nb0 Se1 2.599554 1_555
Nb0 Se1 2.599554 1_445
Nb0 Se0 2.687382 1_455
Nb0 Se0 2.687384 1_445
Nb0 Se0 2.687384 1_555
Nb1 Se2 2.612051 1_455
Nb1 Se2 2.612054 1_445
Nb1 Se2 2.612054 1_555
Nb1 Se0 2.620706 1_455
Nb1 Se0 2.620708 1_445
Nb1 Se0 2.620708 1_555
