# generated using pymatgen
data_K2NaCeF6
_symmetry_space_group_name_H-M   'P 1'
_cell_length_a   6.44892300
_cell_length_b   6.44869638
_cell_length_c   6.44868778
_cell_angle_alpha   59.99004825
_cell_angle_beta   59.99201497
_cell_angle_gamma   59.99205093
_symmetry_Int_Tables_number   1
_chemical_formula_structural   K2NaCeF6
_chemical_formula_sum   'K2 Na1 Ce1 F6'
_cell_volume   189.59657968
_cell_formula_units_Z   1
loop_
 _symmetry_equiv_pos_site_id
 _symmetry_equiv_pos_as_xyz
  1  'x, y, z'
loop_
 _atom_site_type_symbol
 _atom_site_label
 _atom_site_symmetry_multiplicity
 _atom_site_fract_x
 _atom_site_fract_y
 _atom_site_fract_z
 _atom_site_occupancy
  K  K0  1  0.25000850  0.25000203  0.25000203  1
  K  K1  1  0.74999150  0.74999796  0.74999798  1
  Na  Na0  1  0.50000000  0.50000000  0.50000000  1
  Ce  Ce0  1  1.00000000  0.00000000  0.00000000  1
  F  F0  1  0.25018342  0.74979873  0.25019615  1
  F  F1  1  0.74981660  0.74980377  0.25020124  1
  F  F2  1  0.74981658  0.25020127  0.74980385  1
  F  F3  1  0.74981705  0.25018669  0.25018659  1
  F  F4  1  0.25018296  0.74981331  0.74981341  1
  F  F5  1  0.25018340  0.25019623  0.74979876  1
loop_
_geom_bond_atom_site_label_1
_geom_bond_atom_site_label_2
_geom_bond_distance
_geom_bond_site_symmetry_2
Ce0 F4 2.281556 1_644
Ce0 F3 2.281556 1_555
Ce0 F2 2.281557 1_554
Ce0 F0 2.281557 1_645
Ce0 F5 2.281557 1_654
Ce0 F1 2.281557 1_545
F0 Na0 2.278095 1_555
F0 K1 3.223994 1_455
F0 K1 3.224034 1_554
F0 K0 3.224228 1_555
F0 K0 3.224469 1_565
F1 Na0 2.278095 1_555
F1 K0 3.223998 1_655
F1 K0 3.224038 1_565
F1 K1 3.224224 1_555
F1 K1 3.224465 1_554
F2 Na0 2.278095 1_555
F2 K0 3.223994 1_655
F2 K0 3.224034 1_556
F2 K1 3.224228 1_555
F2 K1 3.224469 1_545
F3 Na0 2.278152 1_555
F3 K1 3.223861 1_554
F3 K1 3.223862 1_545
F3 K0 3.224418 1_555
F3 K0 3.224506 1_655
F4 Na0 2.278152 1_555
F4 K0 3.223861 1_556
F4 K0 3.223862 1_565
F4 K1 3.224418 1_555
F4 K1 3.224506 1_455
F5 Na0 2.278095 1_555
F5 K1 3.223997 1_455
F5 K1 3.224038 1_545
F5 K0 3.224224 1_555
F5 K0 3.224465 1_556
