# generated using pymatgen
data_Ca4GaSn3
_symmetry_space_group_name_H-M   'P 1'
_cell_length_a   4.37863930
_cell_length_b   4.73261295
_cell_length_c   11.37638000
_cell_angle_alpha   90.00000000
_cell_angle_beta   90.00000000
_cell_angle_gamma   90.00000000
_symmetry_Int_Tables_number   1
_chemical_formula_structural   Ca4GaSn3
_chemical_formula_sum   'Ca4 Ga1 Sn3'
_cell_volume   235.74595441
_cell_formula_units_Z   1
loop_
 _symmetry_equiv_pos_site_id
 _symmetry_equiv_pos_as_xyz
  1  'x, y, z'
loop_
 _atom_site_type_symbol
 _atom_site_label
 _atom_site_symmetry_multiplicity
 _atom_site_fract_x
 _atom_site_fract_y
 _atom_site_fract_z
 _atom_site_occupancy
  Ca  Ca0  1  -0.00000000  0.00000000  0.35658491  1
  Ca  Ca1  1  -0.00000000  0.50000000  0.86981416  1
  Ca  Ca2  1  0.50000000  0.50000000  0.13165306  1
  Ca  Ca3  1  0.50000000  0.00000000  0.63805428  1
  Ga  Ga0  1  -0.00000000  -0.00000000  0.07921734  1
  Sn  Sn0  1  -0.00000000  0.50000000  0.58245612  1
  Sn  Sn1  1  0.50000000  0.50000000  0.41646572  1
  Sn  Sn2  1  0.50000000  0.00000000  0.92575442  1
loop_
_geom_bond_atom_site_label_1
_geom_bond_atom_site_label_2
_geom_bond_distance
_geom_bond_site_symmetry_2
Ca0 Ga0 3.155439 1_555
Ca0 Sn1 3.294935 1_455
Ca0 Sn1 3.294935 1_445
Ca0 Sn1 3.294935 1_555
Ca0 Sn1 3.294935 1_545
Ca0 Sn0 3.493170 1_555
Ca0 Sn0 3.493170 1_545
Ca1 Sn0 3.269094 1_555
Ca1 Sn2 3.285959 1_565
Ca1 Sn2 3.285959 1_555
Ca1 Sn2 3.285959 1_465
Ca1 Sn2 3.285959 1_455
Ca1 Ga0 3.357756 1_566
Ca1 Ga0 3.357756 1_556
Ca2 Sn1 3.240137 1_555
Ca2 Ga0 3.278471 1_565
Ca2 Ga0 3.278471 1_655
Ca2 Ga0 3.278471 1_555
Ca2 Ga0 3.278471 1_665
Ca2 Sn2 3.329588 1_564
Ca2 Sn2 3.329588 1_554
Ca3 Sn2 3.272986 1_555
Ca3 Sn0 3.285208 1_545
Ca3 Sn0 3.285208 1_555
Ca3 Sn0 3.285208 1_655
Ca3 Sn0 3.285208 1_645
Ca3 Sn1 3.457488 1_555
Ca3 Sn1 3.457488 1_545
Ga0 Sn2 2.800200 1_454
Ga0 Sn2 2.800200 1_554
Sn0 Sn1 2.891204 1_555
Sn0 Sn1 2.891204 1_455
