# generated using pymatgen
data_Lu2ScV3O9
_symmetry_space_group_name_H-M   'P 1'
_cell_length_a   22.77102300
_cell_length_b   5.20747200
_cell_length_c   5.61375709
_cell_angle_alpha   89.98996719
_cell_angle_beta   90.00000000
_cell_angle_gamma   90.00000000
_symmetry_Int_Tables_number   1
_chemical_formula_structural   Lu2ScV3O9
_chemical_formula_sum   'Lu8 Sc4 V12 O36'
_cell_volume   665.67629993
_cell_formula_units_Z   4
loop_
 _symmetry_equiv_pos_site_id
 _symmetry_equiv_pos_as_xyz
  1  'x, y, z'
loop_
 _atom_site_type_symbol
 _atom_site_label
 _atom_site_symmetry_multiplicity
 _atom_site_fract_x
 _atom_site_fract_y
 _atom_site_fract_z
 _atom_site_occupancy
  Lu  Lu0  1  0.66656600  0.02161100  0.92914200  1
  Lu  Lu1  1  0.33343400  0.02161100  0.92914200  1
  Lu  Lu2  1  0.83323500  0.52399300  0.57087700  1
  Lu  Lu3  1  0.50000000  0.52326100  0.57120000  1
  Lu  Lu4  1  0.16676500  0.52399300  0.57087700  1
  Lu  Lu5  1  0.83352800  0.97628100  0.07142400  1
  Lu  Lu6  1  0.50000000  0.97599500  0.07264800  1
  Lu  Lu7  1  0.16647200  0.97628100  0.07142400  1
  Sc  Sc0  1  0.00000000  0.48144000  0.43656300  1
  Sc  Sc1  1  0.66654700  0.48043800  0.43286400  1
  Sc  Sc2  1  0.33345300  0.48043800  0.43286400  1
  Sc  Sc3  1  0.00000000  0.01820200  0.93638300  1
  V  V0  1  0.08174300  0.50092300  0.99935400  1
  V  V1  1  0.74939500  0.50052900  0.00161600  1
  V  V2  1  0.41601500  0.50038500  0.00160800  1
  V  V3  1  0.91821400  0.99875300  0.49975300  1
  V  V4  1  0.58398300  0.99960200  0.49861400  1
  V  V5  1  0.25060700  0.00019100  0.49802300  1
  V  V6  1  0.91825700  0.50092300  0.99935400  1
  V  V7  1  0.58398500  0.50038500  0.00160800  1
  V  V8  1  0.25060500  0.50052900  0.00161600  1
  V  V9  1  0.08178600  0.99875300  0.49975300  1
  V  V10  1  0.74939300  0.00019100  0.49802300  1
  V  V11  1  0.41601700  0.99960200  0.49861400  1
  O  O0  1  0.00000000  0.64370000  0.06540800  1
  O  O1  1  0.66663900  0.62979900  0.06723500  1
  O  O2  1  0.33336100  0.62979900  0.06723500  1
  O  O3  1  0.00000000  0.85583200  0.56586300  1
  O  O4  1  0.66661100  0.85599900  0.55407700  1
  O  O5  1  0.33338900  0.85599900  0.55407700  1
  O  O6  1  0.83376000  0.37003400  0.94392900  1
  O  O7  1  0.50000000  0.36934800  0.94373900  1
  O  O8  1  0.16624000  0.37003400  0.94392900  1
  O  O9  1  0.83378500  0.13014800  0.44512700  1
  O  O10  1  0.50000000  0.12955000  0.44676000  1
  O  O11  1  0.16621500  0.13014800  0.44512700  1
  O  O12  1  0.05922000  0.18463800  0.17825300  1
  O  O13  1  0.72787600  0.18941300  0.18533400  1
  O  O14  1  0.39459200  0.18953000  0.18595200  1
  O  O15  1  0.94080600  0.31511400  0.67809700  1
  O  O16  1  0.60706900  0.31464900  0.67919300  1
  O  O17  1  0.27383300  0.31454000  0.67909000  1
  O  O18  1  0.89485200  0.81022300  0.81316200  1
  O  O19  1  0.56202700  0.81132500  0.81470200  1
  O  O20  1  0.22882300  0.81151800  0.81444500  1
  O  O21  1  0.77227200  0.69128700  0.31266000  1
  O  O22  1  0.43901300  0.69081000  0.31293700  1
  O  O23  1  0.10517700  0.68960300  0.31325000  1
  O  O24  1  0.77117700  0.81151800  0.81444500  1
  O  O25  1  0.43797300  0.81132500  0.81470200  1
  O  O26  1  0.10514800  0.81022300  0.81316200  1
  O  O27  1  0.89482300  0.68960300  0.31325000  1
  O  O28  1  0.56098700  0.69081000  0.31293700  1
  O  O29  1  0.22772800  0.69128700  0.31266000  1
  O  O30  1  0.94078000  0.18463800  0.17825300  1
  O  O31  1  0.60540800  0.18953000  0.18595200  1
  O  O32  1  0.27212400  0.18941300  0.18533400  1
  O  O33  1  0.05919400  0.31511400  0.67809700  1
  O  O34  1  0.72616700  0.31454000  0.67909000  1
  O  O35  1  0.39293100  0.31464900  0.67919300  1
loop_
_geom_bond_atom_site_label_1
_geom_bond_atom_site_label_2
_geom_bond_distance
_geom_bond_site_symmetry_2
Lu0 O1 2.182532 1_546
Lu0 O13 2.186664 1_556
Lu0 O31 2.186985 1_556
Lu0 O4 2.275442 1_545
Lu0 O16 2.476334 1_555
Lu0 O34 2.477608 1_555
Lu0 O19 2.697910 1_545
Lu0 O24 2.699293 1_545
Lu1 O2 2.182532 1_546
Lu1 O32 2.186664 1_556
Lu1 O14 2.186985 1_556
Lu1 O5 2.275442 1_545
Lu1 O35 2.476334 1_555
Lu1 O17 2.477608 1_555
Lu1 O25 2.697910 1_545
Lu1 O20 2.699293 1_545
Lu2 O9 2.169180 1_555
Lu2 O21 2.187882 1_555
Lu2 O27 2.191291 1_555
Lu2 O6 2.242344 1_555
Lu2 O18 2.457843 1_555
Lu2 O24 2.471654 1_555
Lu2 O34 2.739078 1_555
Lu2 O15 2.746868 1_555
Lu3 O10 2.166100 1_555
Lu3 O28 2.188929 1_555
Lu3 O22 2.188929 1_555
Lu3 O7 2.239538 1_555
Lu3 O19 2.472748 1_555
Lu3 O25 2.472748 1_555
Lu3 O16 2.737084 1_555
Lu3 O35 2.737084 1_555
Lu4 O11 2.169180 1_555
Lu4 O29 2.187882 1_555
Lu4 O23 2.191291 1_555
Lu4 O8 2.242344 1_555
Lu4 O26 2.457843 1_555
Lu4 O20 2.471654 1_555
Lu4 O17 2.739078 1_555
Lu4 O33 2.746868 1_555
Lu5 O6 2.171671 1_564
Lu5 O18 2.190926 1_554
Lu5 O24 2.198536 1_554
Lu5 O9 2.245825 1_565
Lu5 O21 2.445700 1_555
Lu5 O27 2.453367 1_555
Lu5 O13 2.725598 1_565
Lu5 O30 2.738916 1_565
Lu6 O7 2.172328 1_564
Lu6 O19 2.197164 1_554
Lu6 O25 2.197164 1_554
Lu6 O10 2.247383 1_565
Lu6 O22 2.439874 1_555
Lu6 O28 2.439874 1_555
Lu6 O31 2.720755 1_565
Lu6 O14 2.720755 1_565
Lu7 O8 2.171671 1_564
Lu7 O26 2.190926 1_554
Lu7 O20 2.198536 1_554
Lu7 O11 2.245825 1_565
Lu7 O29 2.445700 1_555
Lu7 O23 2.453367 1_555
Lu7 O32 2.725598 1_565
Lu7 O12 2.738916 1_565
O0 V0 2.038408 1_554
O0 V6 2.038408 1_454
O0 Sc3 2.080253 1_564
O0 Sc0 2.248250 1_555
O1 V7 2.032817 1_555
O1 V1 2.034711 1_555
O1 Sc1 2.194853 1_555
O2 V2 2.032817 1_555
O2 V8 2.034711 1_555
O2 Sc2 2.194853 1_555
O3 V9 2.039585 1_555
O3 V3 2.039585 1_455
O3 Sc0 2.080492 1_555
O3 Sc3 2.245437 1_565
O4 V4 2.048466 1_555
O4 V10 2.053313 1_565
O4 Sc1 2.070833 1_555
O5 V11 2.048466 1_555
O5 V5 2.053313 1_565
O5 Sc2 2.070833 1_555
O6 V1 2.063317 1_556
O6 V6 2.064839 1_555
O7 V7 2.056359 1_556
O7 V2 2.056359 1_556
O8 V8 2.063317 1_556
O8 V0 2.064839 1_555
O9 V10 2.058882 1_555
O9 V3 2.063561 1_545
O10 V4 2.049337 1_545
O10 V11 2.049337 1_545
O11 V5 2.058882 1_555
O11 V9 2.063561 1_545
O12 V0 1.995952 1_554
O12 Sc3 2.100874 1_554
O12 V9 2.111356 1_545
O12 Sc0 2.512138 1_555
O13 V1 1.981923 1_555
O13 V10 2.071642 1_555
O13 Sc1 2.485696 1_555
O14 V2 1.982104 1_555
O14 V11 2.072770 1_545
O14 Sc2 2.480956 1_555
O15 V3 1.995408 1_545
O15 Sc0 2.098843 1_655
O15 V6 2.110204 1_555
O15 Sc3 2.511783 1_655
O16 V4 1.999035 1_545
O16 V7 2.118579 1_556
O16 Sc1 2.119315 1_555
O17 V5 1.998287 1_555
O17 V8 2.120528 1_556
O17 Sc2 2.121237 1_555
O18 V6 1.992544 1_555
O18 V3 2.083687 1_555
O18 Sc3 2.717452 1_665
O19 V7 1.993031 1_556
O19 V4 2.087886 1_555
O20 V8 1.993020 1_556
O20 V5 2.089515 1_565
O21 V10 1.985558 1_565
O21 V1 2.075502 1_555
O21 Sc1 2.730672 1_555
O22 V11 1.986711 1_555
O22 V2 2.076713 1_555
O22 Sc2 2.725976 1_555
O23 V9 1.993041 1_555
O23 V0 2.087073 1_554
O23 Sc0 2.718451 1_555
O24 V1 1.993020 1_556
O24 V10 2.089515 1_565
O25 V2 1.993031 1_556
O25 V11 2.087886 1_555
O26 V0 1.992544 1_555
O26 V9 2.083687 1_555
O26 Sc3 2.717452 1_565
O27 V3 1.993041 1_555
O27 V6 2.087073 1_554
O27 Sc0 2.718451 1_655
O28 V4 1.986711 1_555
O28 V7 2.076713 1_555
O28 Sc1 2.725976 1_555
O29 V5 1.985558 1_565
O29 V8 2.075502 1_555
O29 Sc2 2.730672 1_555
O30 V6 1.995952 1_554
O30 Sc3 2.100874 1_654
O30 V3 2.111356 1_545
O30 Sc0 2.512138 1_655
O31 V7 1.982104 1_555
O31 V4 2.072770 1_545
O31 Sc1 2.480956 1_555
O32 V8 1.981923 1_555
O32 V5 2.071642 1_555
O32 Sc2 2.485696 1_555
O33 V9 1.995408 1_545
O33 Sc0 2.098843 1_555
O33 V0 2.110204 1_555
O33 Sc3 2.511783 1_555
O34 V10 1.998287 1_555
O34 V1 2.120528 1_556
O34 Sc1 2.121237 1_555
O35 V11 1.999035 1_545
O35 V2 2.118579 1_556
O35 Sc2 2.119315 1_555
