# generated using pymatgen
data_La2MgS4
_symmetry_space_group_name_H-M   'P 1'
_cell_length_a   8.25028575
_cell_length_b   8.25028575
_cell_length_c   8.25028575
_cell_angle_alpha   60.00000000
_cell_angle_beta   60.00000000
_cell_angle_gamma   60.00000000
_symmetry_Int_Tables_number   1
_chemical_formula_structural   La2MgS4
_chemical_formula_sum   'La4 Mg2 S8'
_cell_volume   397.09276476
_cell_formula_units_Z   2
loop_
 _symmetry_equiv_pos_site_id
 _symmetry_equiv_pos_as_xyz
  1  'x, y, z'
loop_
 _atom_site_type_symbol
 _atom_site_label
 _atom_site_symmetry_multiplicity
 _atom_site_fract_x
 _atom_site_fract_y
 _atom_site_fract_z
 _atom_site_occupancy
  La  La0  1  0.62500000  0.12500000  0.62500000  1
  La  La1  1  0.62500000  0.62500000  0.12500000  1
  La  La2  1  0.12500000  0.62500000  0.62500000  1
  La  La3  1  0.62500000  0.62500000  0.62500000  1
  Mg  Mg0  1  0.00000000  0.00000000  0.00000000  1
  Mg  Mg1  1  0.25000000  0.25000000  0.25000000  1
  S  S0  1  0.37703500  0.37703500  0.37703500  1
  S  S1  1  0.86889500  0.37703500  0.37703500  1
  S  S2  1  0.37703500  0.86889500  0.37703500  1
  S  S3  1  0.37703500  0.37703500  0.86889500  1
  S  S4  1  0.87296500  0.87296500  0.38110500  1
  S  S5  1  0.87296500  0.38110500  0.87296500  1
  S  S6  1  0.38110500  0.87296500  0.87296500  1
  S  S7  1  0.87296500  0.87296500  0.87296500  1
loop_
_geom_bond_atom_site_label_1
_geom_bond_atom_site_label_2
_geom_bond_distance
_geom_bond_site_symmetry_2
La0 S0 2.893368 1_555
La0 S1 2.893368 1_555
La0 S6 2.893368 1_545
La0 S7 2.893368 1_545
La0 S4 2.893368 1_545
La0 S3 2.893368 1_555
La1 S6 2.893368 1_554
La1 S0 2.893368 1_555
La1 S7 2.893368 1_554
La1 S1 2.893368 1_555
La1 S2 2.893368 1_555
La1 S5 2.893368 1_554
La2 S0 2.893368 1_555
La2 S7 2.893368 1_455
La2 S5 2.893368 1_455
La2 S2 2.893368 1_555
La2 S4 2.893368 1_455
La2 S3 2.893368 1_555
La3 S6 2.893368 1_555
La3 S4 2.893368 1_555
La3 S1 2.893368 1_555
La3 S3 2.893368 1_555
La3 S5 2.893368 1_555
La3 S2 2.893368 1_555
Mg0 S6 2.567249 1_544
Mg0 S7 2.567249 1_444
Mg0 S5 2.567249 1_454
Mg0 S4 2.567249 1_445
Mg1 S0 2.567249 1_555
Mg1 S2 2.567249 1_545
Mg1 S1 2.567249 1_455
Mg1 S3 2.567249 1_554
