# generated using pymatgen
data_Li9Mn2Co5O16
_symmetry_space_group_name_H-M   'P 1'
_cell_length_a   3.01641900
_cell_length_b   10.02575793
_cell_length_c   10.12327769
_cell_angle_alpha   106.84297394
_cell_angle_beta   91.17937727
_cell_angle_gamma   91.86624815
_symmetry_Int_Tables_number   1
_chemical_formula_structural   Li9Mn2Co5O16
_chemical_formula_sum   'Li9 Mn2 Co5 O16'
_cell_volume   292.71440349
_cell_formula_units_Z   1
loop_
 _symmetry_equiv_pos_site_id
 _symmetry_equiv_pos_as_xyz
  1  'x, y, z'
loop_
 _atom_site_type_symbol
 _atom_site_label
 _atom_site_symmetry_multiplicity
 _atom_site_fract_x
 _atom_site_fract_y
 _atom_site_fract_z
 _atom_site_occupancy
  Li  Li0  1  0.99901800  0.25125600  0.24711900  1
  Li  Li1  1  0.49906900  0.50212500  0.75603900  1
  Li  Li2  1  0.00383200  0.75029700  0.24630900  1
  Li  Li3  1  0.50059700  0.49818500  0.24425600  1
  Li  Li4  1  0.00202500  0.74924600  0.75195200  1
  Li  Li5  1  0.50299300  0.99767400  0.25129200  1
  Li  Li6  1  0.49758900  0.00189000  0.74854000  1
  Li  Li7  1  0.99481400  0.24905800  0.75469200  1
  Li  Li8  1  0.00002600  0.50003400  0.00003000  1
  Mn  Mn0  1  0.00005300  0.99978900  0.99993800  1
  Mn  Mn1  1  0.49974400  0.25054400  0.50045400  1
  Co  Co0  1  0.50029800  0.74944900  0.49952600  1
  Co  Co1  1  0.99808400  0.50211000  0.49971200  1
  Co  Co2  1  0.50734300  0.73846700  0.99927200  1
  Co  Co3  1  0.00172300  0.99779900  0.50022700  1
  Co  Co4  1  0.49287000  0.26150300  0.00082100  1
  O  O0  1  0.47648500  0.12981400  0.11074600  1
  O  O1  1  0.96418100  0.37699300  0.61801100  1
  O  O2  1  0.49611500  0.64008600  0.11496300  1
  O  O3  1  0.97388200  0.36548700  0.11453800  1
  O  O4  1  0.50445700  0.62551300  0.61465500  1
  O  O5  1  0.97578700  0.87518500  0.11394800  1
  O  O6  1  0.00642800  0.87377600  0.61687100  1
  O  O7  1  0.50689700  0.12236400  0.61348900  1
  O  O8  1  0.49303900  0.37744500  0.38653800  1
  O  O9  1  0.02819500  0.63475500  0.88535500  1
  O  O10  1  0.49583200  0.87494400  0.38530800  1
  O  O11  1  0.99381800  0.62603000  0.38244200  1
  O  O12  1  0.52368400  0.87065100  0.88945200  1
  O  O13  1  0.03514700  0.12336400  0.38261700  1
  O  O14  1  0.02201900  0.12450600  0.88599400  1
  O  O15  1  0.50395400  0.35966100  0.88489500  1
loop_
_geom_bond_atom_site_label_1
_geom_bond_atom_site_label_2
_geom_bond_distance
_geom_bond_site_symmetry_2
Li0 O3 2.002735 1_555
Li0 O13 2.135330 1_655
Li0 O8 2.137537 1_655
Li0 O0 2.164260 1_555
Li0 O0 2.164396 1_655
Li0 O8 2.258690 1_555
Li1 O4 2.145879 1_555
Li1 O1 2.161976 1_555
Li1 O9 2.165663 1_555
Li1 O9 2.190050 1_655
Li1 O15 2.195937 1_555
Li1 O1 2.211116 1_455
Li2 O2 2.070965 1_455
Li2 O5 2.084413 1_455
Li2 O11 2.108681 1_455
Li2 O10 2.125654 1_555
Li2 O2 2.128534 1_555
Li2 O10 2.254824 1_455
Li3 O8 2.133177 1_555
Li3 O11 2.136416 1_555
Li3 O3 2.172778 1_555
Li3 O3 2.186933 1_455
Li3 O2 2.194743 1_555
Li3 O11 2.261229 1_455
Li4 O9 2.011821 1_555
Li4 O6 2.101890 1_555
Li4 O4 2.125325 1_455
Li4 O12 2.167568 1_555
Li4 O12 2.171679 1_455
Li4 O4 2.231047 1_555
Li5 O10 2.078929 1_555
Li5 O13 2.137553 1_565
Li5 O5 2.163644 1_555
Li5 O13 2.177522 1_665
Li5 O5 2.182320 1_455
Li5 O0 2.209149 1_565
Li6 O7 2.070049 1_555
Li6 O6 2.103349 1_545
Li6 O14 2.170495 1_555
Li6 O14 2.177455 1_655
Li6 O12 2.205024 1_545
Li6 O6 2.236691 1_645
Li7 O15 2.069861 1_655
Li7 O14 2.072895 1_655
Li7 O15 2.121209 1_555
Li7 O7 2.135941 1_555
Li7 O1 2.144563 1_555
Li7 O7 2.282361 1_655
Li8 O3 2.018061 1_455
Li8 O9 2.021002 1_554
Li8 O2 2.099833 1_555
Li8 O15 2.102067 1_454
Li8 O2 2.213777 1_455
Li8 O15 2.216166 1_554
Mn0 O5 1.931610 1_456
Mn0 O14 1.931823 1_565
Mn0 O12 1.991361 1_455
Mn0 O0 1.996797 1_566
Mn0 O12 2.188332 1_555
Mn0 O0 2.193509 1_466
Mn1 O8 1.949342 1_555
Mn1 O7 1.953022 1_555
Mn1 O1 1.981781 1_555
Mn1 O13 1.986493 1_555
Mn1 O1 2.229677 1_455
Mn1 O13 2.233615 1_655
Co0 O4 1.934444 1_555
Co0 O10 1.940014 1_555
Co0 O11 2.054853 1_455
Co0 O6 2.058878 1_655
Co0 O11 2.120089 1_555
Co0 O6 2.125988 1_555
Co1 O11 1.951453 1_555
Co1 O1 1.971134 1_555
Co1 O8 2.042036 1_555
Co1 O4 2.046264 1_655
Co1 O4 2.111583 1_555
Co1 O8 2.113273 1_655
Co2 O2 1.736245 1_556
Co2 O9 1.907516 1_555
Co2 O12 1.961239 1_555
Co2 O5 2.026657 1_556
Co2 O9 2.089391 1_655
Co2 O5 2.257217 1_456
Co3 O6 1.947295 1_555
Co3 O13 1.969194 1_565
Co3 O7 2.042216 1_565
Co3 O10 2.042854 1_455
Co3 O10 2.110095 1_555
Co3 O7 2.112871 1_465
Co4 O15 1.736533 1_554
Co4 O3 1.911683 1_555
Co4 O0 1.957891 1_555
Co4 O14 2.033395 1_554
Co4 O3 2.085146 1_455
Co4 O14 2.253735 1_654
