# generated using pymatgen
data_Na2UF8
_symmetry_space_group_name_H-M   'P 1'
_cell_length_a   6.48259401
_cell_length_b   6.48259401
_cell_length_c   6.48259401
_cell_angle_alpha   130.18253977
_cell_angle_beta   130.18253977
_cell_angle_gamma   73.11511323
_symmetry_Int_Tables_number   1
_chemical_formula_structural   Na2UF8
_chemical_formula_sum   'Na2 U1 F8'
_cell_volume   155.26914332
_cell_formula_units_Z   1
loop_
 _symmetry_equiv_pos_site_id
 _symmetry_equiv_pos_as_xyz
  1  'x, y, z'
loop_
 _atom_site_type_symbol
 _atom_site_label
 _atom_site_symmetry_multiplicity
 _atom_site_fract_x
 _atom_site_fract_y
 _atom_site_fract_z
 _atom_site_occupancy
  Na  Na0  1  0.75000000  0.25000000  0.50000000  1
  Na  Na1  1  0.25000000  0.75000000  0.50000000  1
  U  U0  1  0.00000000  0.00000000  0.00000000  1
  F  F0  1  0.10416981  0.10416981  0.44571298  1
  F  F1  1  0.65845483  0.65845483  0.55428702  1
  F  F2  1  0.10416981  0.65845483  -0.00000000  1
  F  F3  1  0.65845483  0.10416981  -0.00000000  1
  F  F4  1  0.89583019  0.89583019  0.55428702  1
  F  F5  1  0.34154517  0.34154517  0.44571298  1
  F  F6  1  0.89583019  0.34154517  -0.00000000  1
  F  F7  1  0.34154517  0.89583019  -0.00000000  1
loop_
_geom_bond_atom_site_label_1
_geom_bond_atom_site_label_2
_geom_bond_distance
_geom_bond_site_symmetry_2
F0 U0 2.118882 1_555
F0 Na1 2.375163 1_545
F0 Na0 2.375163 1_455
F1 U0 2.118894 1_666
F1 Na0 2.375151 1_555
F1 Na1 2.375151 1_555
F2 U0 2.118894 1_565
F2 Na0 2.375157 1_454
F2 Na1 2.375157 1_555
F3 U0 2.118894 1_655
F3 Na1 2.375157 1_544
F3 Na0 2.375157 1_555
F4 U0 2.118882 1_666
F4 Na1 2.375163 1_655
F4 Na0 2.375163 1_565
F5 U0 2.118894 1_555
F5 Na0 2.375151 1_555
F5 Na1 2.375151 1_555
F6 U0 2.118894 1_655
F6 Na0 2.375157 1_554
F6 Na1 2.375157 1_655
F7 U0 2.118894 1_565
F7 Na1 2.375157 1_554
F7 Na0 2.375157 1_565
