# generated using pymatgen
data_Sr5Sn3
_symmetry_space_group_name_H-M   'P 1'
_cell_length_a   8.60474791
_cell_length_b   8.60483806
_cell_length_c   10.24448506
_cell_angle_alpha   114.84649837
_cell_angle_beta   114.83614244
_cell_angle_gamma   90.00222483
_symmetry_Int_Tables_number   1
_chemical_formula_structural   Sr5Sn3
_chemical_formula_sum   'Sr10 Sn6'
_cell_volume   610.13439790
_cell_formula_units_Z   2
loop_
 _symmetry_equiv_pos_site_id
 _symmetry_equiv_pos_as_xyz
  1  'x, y, z'
loop_
 _atom_site_type_symbol
 _atom_site_label
 _atom_site_symmetry_multiplicity
 _atom_site_fract_x
 _atom_site_fract_y
 _atom_site_fract_z
 _atom_site_occupancy
  Sr  Sr0  1  0.31827631  0.81839397  0.27995864  1
  Sr  Sr1  1  0.46168551  0.31836988  0.27994776  1
  Sr  Sr2  1  0.81827235  0.96195282  0.28016552  1
  Sr  Sr3  1  0.53831449  0.68163012  0.72005224  1
  Sr  Sr4  1  0.18172765  0.03804718  0.71983448  1
  Sr  Sr5  1  0.03812129  0.53805989  0.71984080  1
  Sr  Sr6  1  0.68172369  0.18160603  0.72004136  1
  Sr  Sr7  1  0.96187871  0.46194011  0.28015920  1
  Sr  Sr8  1  -0.00000000  0.00000000  0.00000000  1
  Sr  Sr9  1  0.50000000  0.50000000  0.00000000  1
  Sn  Sn0  1  0.37988191  0.87988127  0.99967474  1
  Sn  Sn1  1  0.11981792  0.37990574  0.99972557  1
  Sn  Sn2  1  0.88018208  0.62009426  0.00027443  1
  Sn  Sn3  1  0.62011809  0.12011873  0.00032526  1
  Sn  Sn4  1  0.25032290  0.24996620  0.49995448  1
  Sn  Sn5  1  0.74967710  0.75003380  0.50004552  1
loop_
_geom_bond_atom_site_label_1
_geom_bond_atom_site_label_2
_geom_bond_distance
_geom_bond_site_symmetry_2
Sn0 Sn3 2.919434 1_566
Sn0 Sr5 3.368823 1_555
Sn0 Sr0 3.370609 1_556
Sn0 Sr8 3.429262 1_566
Sn0 Sr9 3.429285 1_556
Sn0 Sr3 3.485480 1_555
Sn0 Sr4 3.485834 1_565
Sn0 Sr1 3.489085 1_566
Sn0 Sr2 3.489150 1_556
Sn1 Sn2 2.919554 1_456
Sn1 Sr4 3.369515 1_555
Sn1 Sr1 3.370238 1_556
Sn1 Sr9 3.429190 1_556
Sn1 Sr8 3.429200 1_556
Sn1 Sr6 3.485562 1_455
Sn1 Sr5 3.486188 1_555
Sn1 Sr0 3.488915 1_556
Sn1 Sr7 3.489191 1_456
Sn2 Sr2 3.369515 1_555
Sn2 Sr3 3.370238 1_554
Sn2 Sr9 3.429190 1_555
Sn2 Sr8 3.429200 1_665
Sn2 Sr0 3.485562 1_655
Sn2 Sr7 3.486188 1_555
Sn2 Sr6 3.488915 1_554
Sn2 Sr5 3.489191 1_654
Sn3 Sr7 3.368823 1_555
Sn3 Sr6 3.370609 1_554
Sn3 Sr8 3.429262 1_655
Sn3 Sr9 3.429285 1_555
Sn3 Sr1 3.485480 1_555
Sn3 Sr2 3.485834 1_545
Sn3 Sr3 3.489085 1_544
Sn3 Sr4 3.489150 1_554
Sn4 Sr0 3.644968 1_545
Sn4 Sr3 3.645396 1_555
Sn4 Sr1 3.645864 1_555
Sn4 Sr6 3.645971 1_555
Sn4 Sr2 3.648410 1_445
Sn4 Sr7 3.648897 1_455
Sn4 Sr4 3.649166 1_555
Sn4 Sr5 3.649183 1_555
Sn5 Sr6 3.644968 1_565
Sn5 Sr1 3.645396 1_555
Sn5 Sr3 3.645864 1_555
Sn5 Sr0 3.645971 1_555
Sn5 Sr4 3.648410 1_665
Sn5 Sr5 3.648897 1_655
Sn5 Sr2 3.649166 1_555
Sn5 Sr7 3.649183 1_555
