# generated using pymatgen
data_NaHSeO4
_symmetry_space_group_name_H-M   'P 1'
_cell_length_a   5.18648800
_cell_length_b   5.77674521
_cell_length_c   6.68773154
_cell_angle_alpha   89.22898646
_cell_angle_beta   106.36688916
_cell_angle_gamma   97.19096107
_symmetry_Int_Tables_number   1
_chemical_formula_structural   NaHSeO4
_chemical_formula_sum   'Na2 H2 Se2 O8'
_cell_volume   190.68934476
_cell_formula_units_Z   2
loop_
 _symmetry_equiv_pos_site_id
 _symmetry_equiv_pos_as_xyz
  1  'x, y, z'
loop_
 _atom_site_type_symbol
 _atom_site_label
 _atom_site_symmetry_multiplicity
 _atom_site_fract_x
 _atom_site_fract_y
 _atom_site_fract_z
 _atom_site_occupancy
  Na  Na0  1  0.03021900  0.25263400  0.15894800  1
  Na  Na1  1  0.96775100  0.75155900  0.84799100  1
  H  H0  1  0.46921800  0.03820900  0.51374800  1
  H  H1  1  0.96866800  0.51313500  0.47983000  1
  Se  Se0  1  0.37333200  0.29687300  0.74737400  1
  Se  Se1  1  0.63712400  0.72644800  0.27487100  1
  O  O0  1  0.70055100  0.37065900  0.85081100  1
  O  O1  1  0.32159900  0.61860100  0.16230800  1
  O  O2  1  0.23095500  0.12267500  0.89406300  1
  O  O3  1  0.78627100  0.87594200  0.11759100  1
  O  O4  1  0.21702100  0.53114000  0.66832600  1
  O  O5  1  0.80371500  0.47741600  0.34949100  1
  O  O6  1  0.32257800  0.14576600  0.50773100  1
  O  O7  1  0.68200000  0.87294200  0.49891900  1
loop_
_geom_bond_atom_site_label_1
_geom_bond_atom_site_label_2
_geom_bond_distance
_geom_bond_site_symmetry_2
Na0 O3 2.354193 1_445
Na0 O0 2.429663 1_454
Na0 O1 2.436400 1_555
Na0 O5 2.441337 1_455
Na0 O2 2.461006 1_554
Na0 O6 2.514656 1_555
Na1 O2 2.366973 1_665
Na1 O3 2.411159 1_556
Na1 O0 2.452076 1_555
Na1 O4 2.462766 1_655
Na1 O7 2.530665 1_555
Na1 O1 2.551857 1_656
H0 O6 1.032707 1_555
H0 O7 1.570737 1_545
H1 O5 1.036668 1_555
H1 O4 1.521178 1_655
O0 Se0 1.644877 1_555
O1 Se1 1.641936 1_555
O2 Se0 1.648022 1_555
O3 Se1 1.648457 1_555
O4 Se0 1.667938 1_555
O5 Se1 1.764650 1_555
O6 Se0 1.772616 1_555
O7 Se1 1.674431 1_555
