# generated using pymatgen
data_La3InNiS7
_symmetry_space_group_name_H-M   'P 1'
_cell_length_a   10.17430870
_cell_length_b   10.17430870
_cell_length_c   6.32981500
_cell_angle_alpha   90.00000000
_cell_angle_beta   90.00000000
_cell_angle_gamma   120.00000454
_symmetry_Int_Tables_number   1
_chemical_formula_structural   La3InNiS7
_chemical_formula_sum   'La6 In2 Ni2 S14'
_cell_volume   567.45502973
_cell_formula_units_Z   2
loop_
 _symmetry_equiv_pos_site_id
 _symmetry_equiv_pos_as_xyz
  1  'x, y, z'
loop_
 _atom_site_type_symbol
 _atom_site_label
 _atom_site_symmetry_multiplicity
 _atom_site_fract_x
 _atom_site_fract_y
 _atom_site_fract_z
 _atom_site_occupancy
  La  La0  1  0.62909800  0.85294900  0.30762000  1
  La  La1  1  0.14705100  0.77614800  0.30762000  1
  La  La2  1  0.22385200  0.37090200  0.30762000  1
  La  La3  1  0.37090200  0.14705100  0.80762000  1
  La  La4  1  0.85294900  0.22385200  0.80762000  1
  La  La5  1  0.77614800  0.62909800  0.80762000  1
  In  In0  1  0.66666700  0.33333300  0.37923200  1
  In  In1  1  0.33333300  0.66666700  0.87923200  1
  Ni  Ni0  1  0.00000000  0.00000000  0.49553800  1
  Ni  Ni1  1  0.00000000  0.00000000  0.99553800  1
  S  S0  1  0.91149800  0.12873000  0.22825500  1
  S  S1  1  0.87127000  0.78276800  0.22825500  1
  S  S2  1  0.21723200  0.08850200  0.22825500  1
  S  S3  1  0.08850200  0.87127000  0.72825500  1
  S  S4  1  0.12873000  0.21723200  0.72825500  1
  S  S5  1  0.78276800  0.91149800  0.72825500  1
  S  S6  1  0.48871400  0.56994800  0.04711000  1
  S  S7  1  0.43005200  0.91876600  0.04711000  1
  S  S8  1  0.08123400  0.51128600  0.04711000  1
  S  S9  1  0.51128600  0.43005200  0.54711000  1
  S  S10  1  0.56994800  0.08123400  0.54711000  1
  S  S11  1  0.91876600  0.48871400  0.54711000  1
  S  S12  1  0.66666700  0.33333300  0.99615400  1
  S  S13  1  0.33333300  0.66666700  0.49615400  1
loop_
_geom_bond_atom_site_label_1
_geom_bond_atom_site_label_2
_geom_bond_distance
_geom_bond_site_symmetry_2
La0 S0 2.884239 1_565
La0 S13 2.892799 1_555
La0 S1 2.931305 1_555
La0 S7 2.936825 1_555
La0 S6 2.989517 1_555
La0 S5 2.992843 1_555
La0 S10 3.074519 1_565
La1 S1 2.884244 1_455
La1 S13 2.892785 1_555
La1 S2 2.931314 1_565
La1 S8 2.936817 1_555
La1 S7 2.989517 1_555
La1 S3 2.992847 1_555
La1 S11 3.074513 1_455
La2 S2 2.884234 1_555
La2 S13 2.892802 1_555
La2 S0 2.931311 1_455
La2 S6 2.936819 1_555
La2 S8 2.989524 1_555
La2 S4 2.992843 1_555
La2 S9 3.074510 1_555
La3 S3 2.884239 1_545
La3 S12 2.892799 1_555
La3 S4 2.931305 1_555
La3 S10 2.936825 1_555
La3 S9 2.989517 1_555
La3 S2 2.992843 1_556
La3 S7 3.074519 1_546
La4 S4 2.884244 1_655
La4 S12 2.892785 1_555
La4 S5 2.931314 1_545
La4 S11 2.936817 1_555
La4 S10 2.989517 1_555
La4 S0 2.992847 1_556
La4 S8 3.074513 1_656
La5 S5 2.884234 1_555
La5 S12 2.892802 1_555
La5 S3 2.931311 1_655
La5 S9 2.936819 1_555
La5 S11 2.989524 1_555
La5 S1 2.992843 1_556
La5 S6 3.074510 1_556
In0 S12 2.424813 1_554
In0 S10 2.480405 1_555
In0 S11 2.480407 1_555
In0 S9 2.480414 1_555
In1 S13 2.424813 1_555
In1 S7 2.480405 1_556
In1 S8 2.480407 1_556
In1 S6 2.480414 1_556
Ni0 S4 2.423935 1_555
Ni0 S5 2.423935 1_445
Ni0 S3 2.423935 1_545
Ni0 S1 2.562798 1_445
Ni0 S2 2.562798 1_555
Ni0 S0 2.562798 1_455
Ni1 S1 2.423935 1_446
Ni1 S2 2.423935 1_556
Ni1 S0 2.423935 1_456
Ni1 S4 2.562798 1_555
Ni1 S5 2.562798 1_445
Ni1 S3 2.562798 1_545
