# generated using pymatgen
data_KPHO3
_symmetry_space_group_name_H-M   'P 1'
_cell_length_a   8.35328300
_cell_length_b   8.46422925
_cell_length_c   11.01354666
_cell_angle_alpha   85.40240067
_cell_angle_beta   81.73921672
_cell_angle_gamma   88.16379967
_symmetry_Int_Tables_number   1
_chemical_formula_structural   KPHO3
_chemical_formula_sum   'K8 P8 H8 O24'
_cell_volume   767.97740614
_cell_formula_units_Z   8
loop_
 _symmetry_equiv_pos_site_id
 _symmetry_equiv_pos_as_xyz
  1  'x, y, z'
loop_
 _atom_site_type_symbol
 _atom_site_label
 _atom_site_symmetry_multiplicity
 _atom_site_fract_x
 _atom_site_fract_y
 _atom_site_fract_z
 _atom_site_occupancy
  K  K0  1  0.30963900  0.41184600  0.92609400  1
  K  K1  1  0.69036100  0.58815400  0.07390600  1
  K  K2  1  0.88858800  0.71296400  0.42015900  1
  K  K3  1  0.11141200  0.28703600  0.57984100  1
  K  K4  1  0.78173400  0.18917100  0.94730800  1
  K  K5  1  0.21826600  0.81082900  0.05269200  1
  K  K6  1  0.28861600  0.76797700  0.54971300  1
  K  K7  1  0.71138400  0.23202300  0.45028700  1
  P  P0  1  0.99736500  0.36981100  0.20332700  1
  P  P1  1  0.00263500  0.63018900  0.79667300  1
  P  P2  1  0.54245100  0.78414900  0.78692000  1
  P  P3  1  0.45754900  0.21585100  0.21308000  1
  P  P4  1  0.71401500  0.48600400  0.71625200  1
  P  P5  1  0.28598500  0.51399600  0.28374800  1
  P  P6  1  0.85736500  0.93744500  0.69638300  1
  P  P7  1  0.14263500  0.06255500  0.30361700  1
  H  H0  1  0.54553000  0.85279100  0.36054900  1
  H  H1  1  0.45447000  0.14720900  0.63945100  1
  H  H2  1  0.51723100  0.77785400  0.33804400  1
  H  H3  1  0.48276900  0.22214600  0.66195600  1
  H  H4  1  0.77877000  0.90772100  0.09526100  1
  H  H5  1  0.22123000  0.09227900  0.90473900  1
  H  H6  1  0.72216400  0.94824400  0.14358200  1
  H  H7  1  0.27783600  0.05175600  0.85641800  1
  O  O0  1  0.80927900  0.45172600  0.59448100  1
  O  O1  1  0.19072100  0.54827400  0.40551900  1
  O  O2  1  0.85957200  0.46706500  0.26458200  1
  O  O3  1  0.14042800  0.53293500  0.73541800  1
  O  O4  1  0.60139200  0.36664800  0.78692000  1
  O  O5  1  0.39860800  0.63335200  0.21308000  1
  O  O6  1  0.01004600  0.68922100  0.92027200  1
  O  O7  1  0.98995400  0.31077900  0.07972800  1
  O  O8  1  0.80989900  0.96392900  0.57043800  1
  O  O9  1  0.19010100  0.03607100  0.42956200  1
  O  O10  1  0.42409900  0.88466800  0.72494900  1
  O  O11  1  0.57590100  0.11533200  0.27505100  1
  O  O12  1  0.96860700  0.77177500  0.69318300  1
  O  O13  1  0.03139300  0.22822500  0.30681700  1
  O  O14  1  0.94278200  0.06316300  0.74917900  1
  O  O15  1  0.05721800  0.93683700  0.25082100  1
  O  O16  1  0.61818400  0.65390600  0.68995800  1
  O  O17  1  0.38181600  0.34609400  0.31004200  1
  O  O18  1  0.83470300  0.52890600  0.81379600  1
  O  O19  1  0.16529700  0.47109400  0.18620400  1
  O  O20  1  0.49054000  0.70184700  0.91198300  1
  O  O21  1  0.50946000  0.29815300  0.08801700  1
  O  O22  1  0.70346500  0.88463000  0.79994100  1
  O  O23  1  0.29653500  0.11537000  0.20005900  1
loop_
_geom_bond_atom_site_label_1
_geom_bond_atom_site_label_2
_geom_bond_distance
_geom_bond_site_symmetry_2
K0 O21 2.714739 1_556
K0 O4 2.719573 1_555
K0 O3 2.805978 1_555
K0 O20 2.905499 1_555
K0 O19 3.018439 1_556
K0 O7 3.056454 1_456
K1 O20 2.714739 1_554
K1 O5 2.719573 1_555
K1 O2 2.805978 1_555
K1 O21 2.905499 1_555
K1 O18 3.018439 1_554
K1 O6 3.056454 1_654
K2 O8 2.800946 1_555
K2 O15 2.811182 1_655
K2 O1 2.834145 1_655
K2 O2 2.837265 1_555
K2 O0 2.839373 1_555
K3 O9 2.800946 1_555
K3 O14 2.811182 1_455
K3 O0 2.834145 1_455
K3 O3 2.837265 1_555
K3 O1 2.839373 1_555
K4 O14 2.673296 1_555
K4 O7 2.701114 1_556
K4 O21 2.739928 1_556
K4 O4 2.800101 1_555
K4 O18 3.137471 1_555
K4 O22 3.284798 1_545
K5 O15 2.673296 1_555
K5 O6 2.701114 1_554
K5 O20 2.739928 1_554
K5 O5 2.800101 1_555
K5 O19 3.137471 1_555
K5 O23 3.284798 1_565
K6 O10 2.643108 1_555
K6 O9 2.699901 1_565
K6 O1 2.755536 1_555
K6 O12 2.903838 1_455
K6 O3 2.907115 1_555
K7 O11 2.643108 1_555
K7 O8 2.699901 1_545
K7 O0 2.755536 1_555
K7 O13 2.903838 1_655
K7 O2 2.907115 1_555
H0 H2 0.755830 1_555
H1 H3 0.755830 1_555
H4 H6 0.755652 1_555
H4 K4 2.775042 1_564
H4 K1 2.863047 1_555
H5 H7 0.755652 1_555
H5 K5 2.775042 1_546
H5 K0 2.863047 1_555
H6 K4 2.851010 1_564
H7 K5 2.851010 1_546
O0 P4 1.502320 1_555
O1 P5 1.502320 1_555
O2 P0 1.504255 1_555
O3 P1 1.504255 1_555
O4 P4 1.495285 1_555
O5 P5 1.495285 1_555
O6 P1 1.497254 1_555
O7 P0 1.497254 1_555
O8 P6 1.494660 1_555
O9 P7 1.494660 1_555
O10 P2 1.487953 1_555
O11 P3 1.487953 1_555
O12 P1 1.633527 1_655
O12 P6 1.657132 1_555
O13 P0 1.633527 1_455
O13 P7 1.657132 1_555
O14 P6 1.498867 1_545
O15 P7 1.498867 1_565
O16 P4 1.634655 1_555
O16 P2 1.644936 1_555
O17 P5 1.634655 1_555
O17 P3 1.644936 1_555
O18 P4 1.643037 1_555
O18 P1 1.647249 1_655
O19 P5 1.643037 1_555
O19 P0 1.647249 1_455
O20 P2 1.504797 1_555
O21 P3 1.504797 1_555
O22 P6 1.639244 1_555
O22 P2 1.643534 1_555
O23 P7 1.639244 1_555
O23 P3 1.643534 1_555
