# generated using pymatgen
data_SrCe3
_symmetry_space_group_name_H-M   'P 1'
_cell_length_a   5.06702300
_cell_length_b   5.06702300
_cell_length_c   5.06702300
_cell_angle_alpha   90.00000000
_cell_angle_beta   90.00000000
_cell_angle_gamma   90.00000000
_symmetry_Int_Tables_number   1
_chemical_formula_structural   SrCe3
_chemical_formula_sum   'Sr1 Ce3'
_cell_volume   130.09440731
_cell_formula_units_Z   1
loop_
 _symmetry_equiv_pos_site_id
 _symmetry_equiv_pos_as_xyz
  1  'x, y, z'
loop_
 _atom_site_type_symbol
 _atom_site_label
 _atom_site_symmetry_multiplicity
 _atom_site_fract_x
 _atom_site_fract_y
 _atom_site_fract_z
 _atom_site_occupancy
  Sr  Sr0  1  0.00000000  0.00000000  0.00000000  1
  Ce  Ce0  1  0.00000000  0.50000000  0.50000000  1
  Ce  Ce1  1  0.50000000  0.00000000  0.50000000  1
  Ce  Ce2  1  0.50000000  0.50000000  0.00000000  1
loop_
_geom_bond_atom_site_label_1
_geom_bond_atom_site_label_2
_geom_bond_distance
_geom_bond_site_symmetry_2
Ce0 Sr0 3.582926 1_556
Ce0 Ce2 3.582926 1_555
Ce0 Sr0 3.582926 1_566
Ce0 Ce2 3.582926 1_556
Ce0 Ce1 3.582926 1_455
Ce0 Sr0 3.582926 1_565
Ce0 Ce1 3.582926 1_565
Ce0 Ce2 3.582926 1_456
Ce0 Ce1 3.582926 1_555
Ce0 Sr0 3.582926 1_555
Ce0 Ce1 3.582926 1_465
Ce0 Ce2 3.582926 1_455
Ce1 Sr0 3.582926 1_556
Ce1 Sr0 3.582926 1_656
Ce1 Ce2 3.582926 1_545
Ce1 Ce2 3.582926 1_555
Ce1 Ce2 3.582926 1_556
Ce1 Sr0 3.582926 1_655
Ce1 Ce2 3.582926 1_546
Ce1 Sr0 3.582926 1_555
Ce2 Sr0 3.582926 1_665
Ce2 Sr0 3.582926 1_565
Ce2 Sr0 3.582926 1_655
Ce2 Sr0 3.582926 1_555
