# generated using pymatgen
data_Li9Co7O16
_symmetry_space_group_name_H-M   'P 1'
_cell_length_a   5.81639800
_cell_length_b   5.85351648
_cell_length_c   8.22888504
_cell_angle_alpha   90.67305006
_cell_angle_beta   90.20379355
_cell_angle_gamma   90.85023025
_symmetry_Int_Tables_number   1
_chemical_formula_structural   Li9Co7O16
_chemical_formula_sum   'Li9 Co7 O16'
_cell_volume   280.11163537
_cell_formula_units_Z   1
loop_
 _symmetry_equiv_pos_site_id
 _symmetry_equiv_pos_as_xyz
  1  'x, y, z'
loop_
 _atom_site_type_symbol
 _atom_site_label
 _atom_site_symmetry_multiplicity
 _atom_site_fract_x
 _atom_site_fract_y
 _atom_site_fract_z
 _atom_site_occupancy
  Li  Li0  1  0.75400900  0.24689000  0.75374800  1
  Li  Li1  1  0.00000000  0.50000000  0.00000000  1
  Li  Li2  1  0.00000000  0.00000000  0.50000000  1
  Li  Li3  1  0.24605800  0.24696700  0.75566000  1
  Li  Li4  1  0.24599100  0.75311000  0.24625200  1
  Li  Li5  1  0.50000000  0.00000000  0.50000000  1
  Li  Li6  1  0.50000000  0.50000000  0.00000000  1
  Li  Li7  1  0.75394200  0.75303300  0.24434000  1
  Li  Li8  1  0.00000000  0.00000000  0.00000000  1
  Co  Co0  1  0.75523400  0.75769800  0.75592100  1
  Co  Co1  1  0.50000000  0.00000000  0.00000000  1
  Co  Co2  1  0.24476600  0.24230200  0.24407900  1
  Co  Co3  1  0.50000000  0.50000000  0.50000000  1
  Co  Co4  1  0.24797900  0.75582100  0.75358500  1
  Co  Co5  1  0.75202100  0.24417900  0.24641500  1
  Co  Co6  1  0.00000000  0.50000000  0.50000000  1
  O  O0  1  0.50038100  0.52023400  0.73357700  1
  O  O1  1  0.72646600  0.77193300  0.99238600  1
  O  O2  1  0.74798300  0.25589300  0.48926900  1
  O  O3  1  0.01079000  0.51822900  0.74745800  1
  O  O4  1  0.99799700  0.01950700  0.25203100  1
  O  O5  1  0.25462300  0.27272100  0.49369800  1
  O  O6  1  0.26856900  0.76468300  0.98827500  1
  O  O7  1  0.51057100  0.01280400  0.23498500  1
  O  O8  1  0.00200300  0.98049300  0.74796900  1
  O  O9  1  0.27353400  0.22806700  0.00761400  1
  O  O10  1  0.25201700  0.74410700  0.51073100  1
  O  O11  1  0.48942900  0.98719600  0.76501500  1
  O  O12  1  0.49961900  0.47976600  0.26642300  1
  O  O13  1  0.74537700  0.72727900  0.50630200  1
  O  O14  1  0.73143100  0.23531700  0.01172500  1
  O  O15  1  0.98921000  0.48177100  0.25254200  1
loop_
_geom_bond_atom_site_label_1
_geom_bond_atom_site_label_2
_geom_bond_distance
_geom_bond_site_symmetry_2
Li0 O14 2.129197 1_556
Li0 O8 2.140087 1_645
Li0 O11 2.149998 1_545
Li0 O3 2.165197 1_655
Li0 O2 2.177794 1_555
Li0 O0 2.199635 1_555
Li1 O15 2.083249 1_455
Li1 O3 2.083249 1_554
Li1 O14 2.186927 1_455
Li1 O6 2.186927 1_554
Li1 O1 2.268404 1_454
Li1 O9 2.268404 1_555
Li2 O4 2.045041 1_455
Li2 O8 2.045041 1_545
Li2 O10 2.113630 1_545
Li2 O2 2.113630 1_455
Li2 O5 2.162583 1_555
Li2 O13 2.162583 1_445
Li3 O9 2.083245 1_556
Li3 O8 2.093653 1_545
Li3 O11 2.094680 1_545
Li3 O3 2.112978 1_555
Li3 O5 2.163385 1_555
Li3 O0 2.172173 1_555
Li4 O6 2.129197 1_554
Li4 O4 2.140087 1_465
Li4 O7 2.149998 1_565
Li4 O15 2.165197 1_455
Li4 O10 2.177794 1_555
Li4 O12 2.199635 1_555
Li5 O2 2.066820 1_555
Li5 O10 2.066820 1_545
Li5 O5 2.158025 1_555
Li5 O13 2.158025 1_545
Li5 O7 2.183998 1_555
Li5 O11 2.183998 1_545
Li6 O9 2.052658 1_555
Li6 O1 2.052658 1_554
Li6 O6 2.070308 1_554
Li6 O14 2.070308 1_555
Li6 O0 2.196957 1_554
Li6 O12 2.196957 1_555
Li7 O1 2.083245 1_554
Li7 O4 2.093653 1_565
Li7 O7 2.094680 1_565
Li7 O15 2.112978 1_555
Li7 O13 2.163385 1_555
Li7 O12 2.172173 1_555
Li8 O1 2.061954 1_444
Li8 O9 2.061954 1_555
Li8 O8 2.075819 1_544
Li8 O4 2.075819 1_455
Li8 O14 2.099668 1_455
Li8 O6 2.099668 1_544
Co0 O8 1.926726 1_655
Co0 O1 1.954525 1_555
Co0 O0 2.023390 1_555
Co0 O3 2.058986 1_655
Co0 O13 2.060225 1_555
Co0 O11 2.064108 1_555
Co1 O1 1.889974 1_544
Co1 O9 1.889974 1_555
Co1 O6 1.912989 1_544
Co1 O14 1.912989 1_555
Co1 O11 1.934960 1_544
Co1 O7 1.934960 1_555
Co2 O4 1.926726 1_455
Co2 O9 1.954525 1_555
Co2 O12 2.023390 1_555
Co2 O15 2.058986 1_455
Co2 O5 2.060225 1_555
Co2 O7 2.064108 1_555
Co3 O12 1.924326 1_555
Co3 O0 1.924326 1_555
Co3 O13 1.936759 1_555
Co3 O5 1.936759 1_555
Co3 O10 2.046714 1_555
Co3 O2 2.046714 1_555
Co4 O6 1.934561 1_555
Co4 O11 1.937783 1_555
Co4 O3 1.944453 1_555
Co4 O8 1.958408 1_555
Co4 O10 1.999022 1_555
Co4 O0 2.034817 1_555
Co5 O14 1.934561 1_555
Co5 O7 1.937783 1_555
Co5 O15 1.944453 1_555
Co5 O4 1.958408 1_555
Co5 O2 1.999022 1_555
Co5 O12 2.034817 1_555
Co6 O5 2.005824 1_555
Co6 O13 2.005824 1_455
Co6 O10 2.032763 1_555
Co6 O2 2.032763 1_455
Co6 O3 2.038540 1_555
Co6 O15 2.038540 1_455
