# generated using pymatgen
data_Li4Mn3O7
_symmetry_space_group_name_H-M   'P 1'
_cell_length_a   5.06760600
_cell_length_b   6.48810188
_cell_length_c   7.99490538
_cell_angle_alpha   85.49489123
_cell_angle_beta   81.71463058
_cell_angle_gamma   83.13930726
_symmetry_Int_Tables_number   1
_chemical_formula_structural   Li4Mn3O7
_chemical_formula_sum   'Li8 Mn6 O14'
_cell_volume   257.75567806
_cell_formula_units_Z   2
loop_
 _symmetry_equiv_pos_site_id
 _symmetry_equiv_pos_as_xyz
  1  'x, y, z'
loop_
 _atom_site_type_symbol
 _atom_site_label
 _atom_site_symmetry_multiplicity
 _atom_site_fract_x
 _atom_site_fract_y
 _atom_site_fract_z
 _atom_site_occupancy
  Li  Li0  1  0.66192300  0.72079800  0.20326300  1
  Li  Li1  1  0.33807700  0.27920200  0.79673700  1
  Li  Li2  1  0.07767100  0.85576200  0.34278700  1
  Li  Li3  1  0.50000000  0.00000000  0.50000000  1
  Li  Li4  1  0.20857900  0.57334000  0.06856000  1
  Li  Li5  1  0.92232900  0.14423800  0.65721300  1
  Li  Li6  1  0.79142100  0.42666000  0.93144000  1
  Li  Li7  1  0.00000000  0.00000000  0.00000000  1
  Mn  Mn0  1  0.56373700  0.85787000  0.86807500  1
  Mn  Mn1  1  0.43626300  0.14213000  0.13192500  1
  Mn  Mn2  1  0.29209000  0.42799400  0.42534700  1
  Mn  Mn3  1  0.70791000  0.57200600  0.57465300  1
  Mn  Mn4  1  0.13147200  0.71819700  0.72710100  1
  Mn  Mn5  1  0.86852800  0.28180300  0.27289900  1
  O  O0  1  0.86387800  0.72395800  0.96241100  1
  O  O1  1  0.59584000  0.30337400  0.53749900  1
  O  O2  1  0.34910000  0.87078300  0.08894200  1
  O  O3  1  0.74078500  0.01887000  0.25127200  1
  O  O4  1  0.44582300  0.59539900  0.82602600  1
  O  O5  1  0.20015400  0.15244000  0.36298700  1
  O  O6  1  0.01841200  0.44552700  0.67802300  1
  O  O7  1  0.40416000  0.69662600  0.46250100  1
  O  O8  1  0.13612200  0.27604200  0.03758900  1
  O  O9  1  0.79984600  0.84756000  0.63701300  1
  O  O10  1  0.25921500  0.98113000  0.74872800  1
  O  O11  1  0.98158800  0.55447300  0.32197700  1
  O  O12  1  0.65090000  0.12921700  0.91105800  1
  O  O13  1  0.55417700  0.40460100  0.17397400  1
loop_
_geom_bond_atom_site_label_1
_geom_bond_atom_site_label_2
_geom_bond_distance
_geom_bond_site_symmetry_2
Li0 O0 2.046108 1_554
Li0 O2 2.050535 1_555
Li0 O3 2.095843 1_565
Li0 O11 2.134033 1_555
Li0 O13 2.222977 1_555
Li0 O7 2.289996 1_555
Li1 O8 2.046108 1_556
Li1 O12 2.050535 1_555
Li1 O10 2.095843 1_545
Li1 O6 2.134033 1_555
Li1 O4 2.222977 1_555
Li1 O1 2.289996 1_555
Li2 O3 2.092011 1_465
Li2 O11 2.094712 1_455
Li2 O5 2.116522 1_565
Li2 O7 2.147680 1_555
Li2 O2 2.283996 1_555
Li2 O9 2.561666 1_455
Li3 O9 2.106531 1_545
Li3 O5 2.106531 1_555
Li3 O1 2.136145 1_555
Li3 O7 2.136145 1_545
Li3 O10 2.180910 1_545
Li3 O3 2.180910 1_555
Li4 O8 2.046273 1_555
Li4 O4 2.133403 1_554
Li4 O0 2.148407 1_454
Li4 O2 2.160810 1_555
Li4 O11 2.183124 1_455
Li4 O13 2.190537 1_555
Li5 O10 2.092011 1_645
Li5 O6 2.094712 1_655
Li5 O9 2.116522 1_545
Li5 O1 2.147680 1_555
Li5 O12 2.283996 1_555
Li5 O5 2.561666 1_655
Li6 O0 2.046273 1_555
Li6 O13 2.133403 1_556
Li6 O8 2.148407 1_656
Li6 O12 2.160810 1_555
Li6 O6 2.183124 1_655
Li6 O4 2.190537 1_555
Li7 O0 2.052622 1_444
Li7 O8 2.052622 1_555
Li7 O12 2.062229 1_454
Li7 O2 2.062229 1_545
Li7 O3 2.239613 1_455
Li7 O10 2.239613 1_544
Mn0 O0 1.883902 1_555
Mn0 O12 1.933191 1_565
Mn0 O2 1.938068 1_556
Mn0 O4 1.939333 1_555
Mn0 O10 1.985222 1_555
Mn0 O9 2.052303 1_555
Mn1 O8 1.883902 1_555
Mn1 O2 1.933191 1_545
Mn1 O12 1.938068 1_554
Mn1 O13 1.939333 1_555
Mn1 O3 1.985222 1_555
Mn1 O5 2.052303 1_555
Mn2 O11 1.947319 1_455
Mn2 O1 1.952860 1_555
Mn2 O7 1.953191 1_555
Mn2 O5 2.016904 1_555
Mn2 O13 2.248647 1_555
Mn2 O6 2.282157 1_555
Mn3 O6 1.947319 1_655
Mn3 O7 1.952860 1_555
Mn3 O1 1.953191 1_555
Mn3 O9 2.016904 1_555
Mn3 O4 2.248647 1_555
Mn3 O11 2.282157 1_555
Mn4 O10 1.923958 1_555
Mn4 O4 1.938778 1_555
Mn4 O9 1.991068 1_455
Mn4 O6 2.006982 1_555
Mn4 O0 2.154809 1_455
Mn4 O7 2.358410 1_555
Mn5 O3 1.923958 1_555
Mn5 O13 1.938778 1_555
Mn5 O5 1.991068 1_655
Mn5 O11 2.006982 1_555
Mn5 O8 2.154809 1_655
Mn5 O1 2.358410 1_555
