# generated using pymatgen
data_LiVFe(P2O7)2
_symmetry_space_group_name_H-M   'P 1'
_cell_length_a   7.19181000
_cell_length_b   9.73441760
_cell_length_c   16.94434494
_cell_angle_alpha   102.12443969
_cell_angle_beta   96.13308242
_cell_angle_gamma   111.36752253
_symmetry_Int_Tables_number   1
_chemical_formula_structural   LiVFe(P2O7)2
_chemical_formula_sum   'Li4 V4 Fe4 P16 O56'
_cell_volume   1057.93062264
_cell_formula_units_Z   4
loop_
 _symmetry_equiv_pos_site_id
 _symmetry_equiv_pos_as_xyz
  1  'x, y, z'
loop_
 _atom_site_type_symbol
 _atom_site_label
 _atom_site_symmetry_multiplicity
 _atom_site_fract_x
 _atom_site_fract_y
 _atom_site_fract_z
 _atom_site_occupancy
  Li  Li0  1  0.29324400  0.96577900  0.43176900  1
  Li  Li1  1  0.26253400  0.59224400  0.68072400  1
  Li  Li2  1  0.01374800  0.34419000  0.18131600  1
  Li  Li3  1  0.54141700  0.21553600  0.93154400  1
  V  V0  1  0.15795600  0.87845500  0.24711000  1
  V  V1  1  0.90588300  0.63317700  0.75351900  1
  V  V2  1  0.65550600  0.38465300  0.25394500  1
  V  V3  1  0.40784500  0.12987800  0.74774800  1
  Fe  Fe0  1  0.72860100  0.99497700  0.50474200  1
  Fe  Fe1  1  0.46976400  0.74459600  0.00326100  1
  Fe  Fe2  1  0.21539300  0.49029700  0.49705600  1
  Fe  Fe3  1  0.97436300  0.24102200  0.99875500  1
  P  P0  1  0.33095000  0.85473100  0.59039400  1
  P  P1  1  0.08227000  0.60393200  0.08928500  1
  P  P2  1  0.79272000  0.87805200  0.89071400  1
  P  P3  1  0.54429800  0.63095800  0.39103000  1
  P  P4  1  0.97235900  0.88552200  0.64244800  1
  P  P5  1  0.72355200  0.63610100  0.14171900  1
  P  P6  1  0.38312900  0.85965000  0.84204100  1
  P  P7  1  0.13392100  0.61057900  0.34137300  1
  P  P8  1  0.83526400  0.35547600  0.58879000  1
  P  P9  1  0.58418300  0.10589400  0.08982200  1
  P  P10  1  0.29219000  0.38128000  0.88964000  1
  P  P11  1  0.04048400  0.12850900  0.38941300  1
  P  P12  1  0.47725400  0.38796200  0.64196400  1
  P  P13  1  0.22546400  0.13725600  0.14233300  1
  P  P14  1  0.87792800  0.35722700  0.83839100  1
  P  P15  1  0.62668700  0.10649900  0.33874600  1
  O  O0  1  0.55396700  0.94494200  0.09007600  1
  O  O1  1  0.45491600  0.98665400  0.26900900  1
  O  O2  1  0.13464900  0.98628000  0.16623700  1
  O  O3  1  0.80574300  0.91464000  0.59658200  1
  O  O4  1  0.55689200  0.66469700  0.09616600  1
  O  O5  1  0.65984300  0.80380700  0.41339900  1
  O  O6  1  0.42569200  0.91087000  0.52079100  1
  O  O7  1  0.18257900  0.65618300  0.02140900  1
  O  O8  1  0.44479700  0.96662200  0.67583200  1
  O  O9  1  0.19283300  0.71433200  0.17603600  1
  O  O10  1  0.16739100  0.77497800  0.33675500  1
  O  O11  1  0.86531100  0.76728200  0.21737700  1
  O  O12  1  0.10797900  0.86008900  0.57499200  1
  O  O13  1  0.85860300  0.60852400  0.07471600  1
  O  O14  1  0.58498600  0.83495900  0.82318600  1
  O  O15  1  0.33511500  0.58497600  0.32312300  1
  O  O16  1  0.73523000  0.82134100  0.96500300  1
  O  O17  1  0.48387500  0.57147700  0.46464000  1
  O  O18  1  0.30306400  0.69256900  0.59171100  1
  O  O19  1  0.04845500  0.43955000  0.09102800  1
  O  O20  1  0.35361100  0.84169000  0.92643700  1
  O  O21  1  0.10343600  0.59284600  0.42602400  1
  O  O22  1  0.21448600  0.73583300  0.77070600  1
  O  O23  1  0.96457500  0.48605900  0.27085100  1
  O  O24  1  0.88812000  0.73696000  0.67014100  1
  O  O25  1  0.63913900  0.48748800  0.17038600  1
  O  O26  1  0.90654800  0.79729600  0.83992500  1
  O  O27  1  0.65728400  0.54867200  0.34049600  1
  O  O28  1  0.31055800  0.42487500  0.60012300  1
  O  O29  1  0.05927900  0.17454700  0.09976600  1
  O  O30  1  0.40920900  0.55246200  0.91018400  1
  O  O31  1  0.15961200  0.30033800  0.40929100  1
  O  O32  1  0.93535000  0.40983600  0.52060100  1
  O  O33  1  0.67757500  0.16354900  0.01960100  1
  O  O34  1  0.95259100  0.47190100  0.67390800  1
  O  O35  1  0.70469900  0.22384000  0.17354600  1
  O  O36  1  0.91374500  0.52082400  0.83258400  1
  O  O37  1  0.66290000  0.27010600  0.33180700  1
  O  O38  1  0.60955700  0.51978000  0.71874300  1
  O  O39  1  0.35780400  0.27012200  0.21849700  1
  O  O40  1  0.61212300  0.36493600  0.57536100  1
  O  O41  1  0.36181500  0.11628700  0.07567300  1
  O  O42  1  0.08158300  0.33291000  0.82362100  1
  O  O43  1  0.83105500  0.08289600  0.32380500  1
  O  O44  1  0.24002000  0.32270100  0.96515500  1
  O  O45  1  0.99119000  0.07259500  0.46557400  1
  O  O46  1  0.79861200  0.19209300  0.58906100  1
  O  O47  1  0.84242500  0.33516300  0.92321200  1
  O  O48  1  0.59115600  0.08467600  0.42331700  1
  O  O49  1  0.70524600  0.23665900  0.76937500  1
  O  O50  1  0.38631800  0.23680800  0.66672900  1
  O  O51  1  0.40434900  0.29175400  0.84286300  1
  O  O52  1  0.15329900  0.04057800  0.34235000  1
  O  O53  1  0.91081900  0.05155200  0.91243400  1
  O  O54  1  0.41676000  0.02432000  0.83653100  1
  O  O55  1  0.11434000  0.01755300  0.71747800  1
loop_
_geom_bond_atom_site_label_1
_geom_bond_atom_site_label_2
_geom_bond_distance
_geom_bond_site_symmetry_2
Li0 O6 1.967496 1_555
Li0 O10 2.017023 1_555
Li0 O48 2.068501 1_565
Li0 O52 2.123767 1_565
Li1 O18 1.954189 1_555
Li1 O22 1.991758 1_555
Li1 O28 2.053062 1_555
Li1 O34 2.083190 1_455
Li2 O19 1.942631 1_555
Li2 O23 1.980985 1_455
Li2 O29 2.067809 1_555
Li2 O35 2.074877 1_455
Li3 O33 1.951241 1_556
Li3 O54 2.019183 1_555
Li3 O47 2.087992 1_555
Li3 O51 2.113033 1_555
Fe0 O46 1.991803 1_565
Fe0 O3 1.995978 1_555
Fe0 O45 2.004104 1_565
Fe0 O5 2.014719 1_555
Fe0 O6 2.100095 1_555
Fe0 O48 2.118174 1_565
Fe1 O16 2.012928 1_554
Fe1 O7 2.013118 1_555
Fe1 O0 2.019413 1_555
Fe1 O4 2.033323 1_555
Fe1 O20 2.036036 1_554
Fe1 O30 2.048333 1_554
Fe2 O17 1.987839 1_555
Fe2 O31 1.992134 1_555
Fe2 O21 1.994189 1_555
Fe2 O32 1.995583 1_455
Fe2 O18 2.097513 1_555
Fe2 O28 2.110290 1_555
Fe3 O53 1.964609 1_555
Fe3 O44 1.980446 1_655
Fe3 O47 2.060461 1_555
Fe3 O29 2.061798 1_656
Fe3 O19 2.065326 1_656
Fe3 O33 2.085515 1_556
O0 P9 1.502316 1_565
O1 P15 1.530422 1_565
O1 V0 1.958446 1_555
O2 P13 1.535468 1_565
O2 V0 1.921182 1_555
O3 P4 1.503740 1_555
O4 P5 1.498525 1_555
O5 P3 1.520269 1_555
O6 P0 1.524777 1_555
O7 P1 1.502510 1_555
O8 P0 1.545002 1_555
O8 V3 1.909073 1_565
O9 P1 1.553024 1_555
O9 V0 1.901064 1_555
O10 P7 1.549528 1_555
O10 V0 1.999258 1_555
O11 P5 1.548510 1_555
O11 V0 1.933702 1_655
O12 P4 1.616896 1_455
O12 P0 1.618485 1_555
O13 P5 1.613058 1_555
O13 P1 1.619451 1_655
O14 P6 1.608860 1_555
O14 P2 1.641224 1_555
O15 P7 1.605435 1_555
O15 P3 1.646400 1_555
O16 P2 1.515593 1_555
O17 P3 1.521715 1_555
O18 P0 1.522370 1_555
O19 P1 1.535693 1_555
O20 P6 1.504486 1_555
O21 P7 1.509592 1_555
O22 P6 1.547341 1_555
O22 V1 2.032905 1_455
O23 P7 1.544439 1_655
O23 V2 2.035547 1_555
O24 P4 1.544661 1_555
O24 V1 1.920408 1_555
O25 P5 1.554203 1_555
O25 V2 1.914733 1_555
O26 P2 1.537540 1_555
O26 V1 1.925175 1_555
O27 P3 1.539456 1_555
O27 V2 1.922930 1_555
O28 P12 1.519306 1_555
O29 P13 1.523934 1_555
O30 P10 1.509306 1_555
O31 P11 1.517452 1_555
O32 P8 1.513308 1_555
O33 P9 1.535723 1_555
O34 P8 1.559820 1_555
O34 V1 1.997172 1_555
O35 P9 1.552388 1_555
O35 V2 2.010550 1_555
O36 P14 1.544174 1_555
O36 V1 1.907496 1_555
O37 P15 1.549530 1_555
O37 V2 1.906031 1_555
O38 P12 1.545623 1_555
O38 V1 1.962550 1_555
O39 P13 1.543873 1_555
O39 V2 1.972870 1_555
O40 P12 1.597098 1_555
O40 P8 1.635257 1_555
O41 P13 1.601479 1_555
O41 P9 1.634444 1_555
O42 P14 1.603103 1_455
O42 P10 1.632249 1_555
O43 P15 1.605702 1_555
O43 P11 1.627605 1_655
O44 P10 1.535048 1_555
O45 P11 1.529551 1_655
O46 P8 1.515530 1_555
O47 P14 1.531370 1_555
O48 P15 1.526591 1_555
O49 P14 1.529166 1_555
O49 V3 1.960072 1_555
O50 P12 1.544537 1_555
O50 V3 1.914248 1_555
O51 P10 1.548241 1_555
O51 V3 2.012919 1_555
O52 P11 1.544166 1_555
O52 V0 2.018974 1_545
O53 P2 1.528428 1_545
O54 P6 1.556242 1_545
O54 V3 1.999959 1_555
O55 P4 1.546189 1_445
O55 V3 1.940483 1_555
