# generated using pymatgen
data_Li4VFe3(PO4)4
_symmetry_space_group_name_H-M   'P 1'
_cell_length_a   6.11067100
_cell_length_b   4.75208000
_cell_length_c   10.46342151
_cell_angle_alpha   89.92693616
_cell_angle_beta   90.00000000
_cell_angle_gamma   90.00000000
_symmetry_Int_Tables_number   1
_chemical_formula_structural   Li4VFe3(PO4)4
_chemical_formula_sum   'Li4 V1 Fe3 P4 O16'
_cell_volume   303.84074533
_cell_formula_units_Z   1
loop_
 _symmetry_equiv_pos_site_id
 _symmetry_equiv_pos_as_xyz
  1  'x, y, z'
loop_
 _atom_site_type_symbol
 _atom_site_label
 _atom_site_symmetry_multiplicity
 _atom_site_fract_x
 _atom_site_fract_y
 _atom_site_fract_z
 _atom_site_occupancy
  Li  Li0  1  0.25071100  0.50015700  0.49960700  1
  Li  Li1  1  0.74987800  0.99950000  0.99979700  1
  Li  Li2  1  0.74928900  0.50015700  0.49960700  1
  Li  Li3  1  0.25012200  0.99950000  0.99979700  1
  V  V0  1  0.00000000  0.51722400  0.77768500  1
  Fe  Fe0  1  0.00000000  0.97480500  0.28098300  1
  Fe  Fe1  1  0.50000000  0.47505200  0.21789400  1
  Fe  Fe2  1  0.50000000  0.02347100  0.71954200  1
  P  P0  1  0.00000000  0.08144400  0.59419600  1
  P  P1  1  0.00000000  0.41806100  0.09473200  1
  P  P2  1  0.50000000  0.91814300  0.40537000  1
  P  P3  1  0.50000000  0.58388800  0.90591400  1
  O  O0  1  0.20273800  0.21475200  0.66525600  1
  O  O1  1  0.79757800  0.28451900  0.16549900  1
  O  O2  1  0.70266200  0.78481000  0.33504700  1
  O  O3  1  0.29865000  0.72027400  0.83586700  1
  O  O4  1  0.29733800  0.78481000  0.33504700  1
  O  O5  1  0.70135000  0.72027400  0.83586700  1
  O  O6  1  0.79726200  0.21475200  0.66525600  1
  O  O7  1  0.20242200  0.28451900  0.16549900  1
  O  O8  1  0.00000000  0.75848900  0.59640500  1
  O  O9  1  0.00000000  0.74133400  0.09709400  1
  O  O10  1  0.50000000  0.24163300  0.40327300  1
  O  O11  1  0.50000000  0.26011400  0.90306600  1
  O  O12  1  0.00000000  0.29274400  0.95748900  1
  O  O13  1  0.00000000  0.20639500  0.45717600  1
  O  O14  1  0.50000000  0.70550700  0.04395200  1
  O  O15  1  0.50000000  0.79366800  0.54308300  1
loop_
_geom_bond_atom_site_label_1
_geom_bond_atom_site_label_2
_geom_bond_distance
_geom_bond_site_symmetry_2
Li0 O15 2.115303 1_555
Li0 O13 2.120028 1_555
Li0 O10 2.202040 1_555
Li0 O4 2.206768 1_555
Li0 O8 2.209776 1_555
Li0 O0 2.218913 1_555
Li1 O12 2.114791 1_665
Li1 O14 2.120172 1_556
Li1 O5 2.190105 1_555
Li1 O9 2.207806 1_656
Li1 O11 2.210542 1_565
Li1 O1 2.220706 1_566
Li2 O15 2.115303 1_555
Li2 O13 2.120028 1_655
Li2 O10 2.202040 1_555
Li2 O2 2.206768 1_555
Li2 O8 2.209776 1_655
Li2 O6 2.218913 1_555
Li3 O12 2.114791 1_565
Li3 O14 2.120172 1_556
Li3 O3 2.190105 1_555
Li3 O9 2.207806 1_556
Li3 O11 2.210542 1_565
Li3 O7 2.220706 1_566
Fe0 O4 2.105976 1_555
Fe0 O2 2.105976 1_455
Fe0 O13 2.148288 1_565
Fe0 O9 2.222289 1_555
Fe0 O1 2.269747 1_465
Fe0 O7 2.269747 1_565
Fe1 O7 2.104330 1_555
Fe1 O1 2.104330 1_555
Fe1 O14 2.122911 1_555
Fe1 O10 2.233232 1_555
Fe1 O2 2.282026 1_555
Fe1 O4 2.282026 1_555
Fe2 O6 2.108824 1_555
Fe2 O0 2.108824 1_555
Fe2 O15 2.146337 1_545
Fe2 O11 2.226572 1_555
Fe2 O5 2.250954 1_545
Fe2 O3 2.250954 1_545
O0 P0 1.578017 1_555
O0 V0 2.233614 1_555
O1 P1 1.574743 1_655
O2 P2 1.574076 1_555
O3 P3 1.571584 1_555
O3 V0 2.152583 1_555
O4 P2 1.574076 1_555
O5 P3 1.571584 1_555
O5 V0 2.152583 1_655
O6 P0 1.578017 1_655
O6 V0 2.233614 1_655
O7 P1 1.574743 1_555
O8 P0 1.534853 1_565
O8 V0 2.215135 1_555
O9 P1 1.536449 1_555
O10 P2 1.537379 1_545
O11 P3 1.538926 1_555
O12 P1 1.555316 1_556
O12 V0 2.161565 1_555
O13 P0 1.551093 1_555
O14 P3 1.556372 1_554
O15 P2 1.556936 1_555
