# generated using pymatgen
data_Sc2BeB2Ir5
_symmetry_space_group_name_H-M   'P 1'
_cell_length_a   9.32082200
_cell_length_b   9.32082200
_cell_length_c   2.97357700
_cell_angle_alpha   90.00000000
_cell_angle_beta   90.00000000
_cell_angle_gamma   90.00000000
_symmetry_Int_Tables_number   1
_chemical_formula_structural   Sc2BeB2Ir5
_chemical_formula_sum   'Sc4 Be2 B4 Ir10'
_cell_volume   258.33759820
_cell_formula_units_Z   2
loop_
 _symmetry_equiv_pos_site_id
 _symmetry_equiv_pos_as_xyz
  1  'x, y, z'
loop_
 _atom_site_type_symbol
 _atom_site_label
 _atom_site_symmetry_multiplicity
 _atom_site_fract_x
 _atom_site_fract_y
 _atom_site_fract_z
 _atom_site_occupancy
  Sc  Sc0  1  0.67645300  0.17645300  0.00000000  1
  Sc  Sc1  1  0.32354700  0.82354700  0.00000000  1
  Sc  Sc2  1  0.17645300  0.32354700  0.00000000  1
  Sc  Sc3  1  0.82354700  0.67645300  0.00000000  1
  Be  Be0  1  0.00000000  0.00000000  0.00000000  1
  Be  Be1  1  0.50000000  0.50000000  0.00000000  1
  B  B0  1  0.12812300  0.62812300  0.00000000  1
  B  B1  1  0.87187700  0.37187700  0.00000000  1
  B  B2  1  0.62812300  0.87187700  0.00000000  1
  B  B3  1  0.37187700  0.12812300  0.00000000  1
  Ir  Ir0  1  0.20846300  0.06818100  0.50000000  1
  Ir  Ir1  1  0.79153700  0.93181900  0.50000000  1
  Ir  Ir2  1  0.06818100  0.79153700  0.50000000  1
  Ir  Ir3  1  0.70846300  0.43181900  0.50000000  1
  Ir  Ir4  1  0.93181900  0.20846300  0.50000000  1
  Ir  Ir5  1  0.29153700  0.56818100  0.50000000  1
  Ir  Ir6  1  0.56818100  0.70846300  0.50000000  1
  Ir  Ir7  1  0.43181900  0.29153700  0.50000000  1
  Ir  Ir8  1  0.50000000  0.00000000  0.50000000  1
  Ir  Ir9  1  0.00000000  0.50000000  0.50000000  1
loop_
_geom_bond_atom_site_label_1
_geom_bond_atom_site_label_2
_geom_bond_distance
_geom_bond_site_symmetry_2
Be0 Ir2 2.527812 1_544
Be0 Ir0 2.527812 1_554
Be0 Ir2 2.527812 1_545
Be0 Ir0 2.527812 1_555
Be0 Ir1 2.527812 1_444
Be0 Ir1 2.527812 1_445
Be0 Ir4 2.527812 1_454
Be0 Ir4 2.527812 1_455
Be1 Ir6 2.527812 1_554
Be1 Ir7 2.527812 1_554
Be1 Ir3 2.527812 1_555
Be1 Ir7 2.527812 1_555
Be1 Ir6 2.527812 1_555
Be1 Ir3 2.527812 1_554
Be1 Ir5 2.527812 1_554
Be1 Ir5 2.527812 1_555
B0 Ir5 2.200611 1_555
B0 Ir5 2.200611 1_554
B0 Ir2 2.200611 1_554
B0 Ir2 2.200611 1_555
B0 Ir9 2.250072 1_555
B0 Ir9 2.250072 1_554
B0 Sc1 2.576007 1_555
B0 Sc3 2.874417 1_455
B0 Sc2 2.874417 1_555
B1 Ir4 2.200611 1_555
B1 Ir4 2.200611 1_554
B1 Ir3 2.200611 1_555
B1 Ir3 2.200611 1_554
B1 Ir9 2.250072 1_655
B1 Ir9 2.250072 1_654
B1 Sc0 2.576007 1_555
B1 Sc2 2.874417 1_655
B1 Sc3 2.874417 1_555
B2 Ir1 2.200611 1_554
B2 Ir6 2.200611 1_555
B2 Ir6 2.200611 1_554
B2 Ir1 2.200611 1_555
B2 Ir8 2.250072 1_564
B2 Ir8 2.250072 1_565
B2 Sc3 2.576007 1_555
B2 Sc0 2.874417 1_565
B2 Sc1 2.874417 1_555
B3 Ir7 2.200611 1_555
B3 Ir0 2.200611 1_555
B3 Ir7 2.200611 1_554
B3 Ir0 2.200611 1_554
B3 Ir8 2.250072 1_555
B3 Ir8 2.250072 1_554
B3 Sc2 2.576007 1_555
B3 Sc1 2.874417 1_545
B3 Sc0 2.874417 1_555
Ir0 Sc2 2.822235 1_556
Ir0 Sc2 2.822235 1_555
Ir0 Sc1 2.925824 1_545
Ir0 Sc1 2.925824 1_546
Ir1 Sc3 2.822235 1_556
Ir1 Sc3 2.822235 1_555
Ir1 Sc0 2.925824 1_565
Ir1 Sc0 2.925824 1_566
Ir2 Sc1 2.822235 1_555
Ir2 Sc1 2.822235 1_556
Ir2 Sc3 2.925824 1_455
Ir2 Sc3 2.925824 1_456
Ir3 Sc0 2.822235 1_555
Ir3 Sc0 2.822235 1_556
Ir3 Sc3 2.925824 1_556
Ir3 Sc3 2.925824 1_555
Ir4 Sc0 2.822235 1_555
Ir4 Sc0 2.822235 1_556
Ir4 Sc2 2.925824 1_655
Ir4 Sc2 2.925824 1_656
Ir5 Sc1 2.822235 1_555
Ir5 Sc1 2.822235 1_556
Ir5 Sc2 2.925824 1_556
Ir5 Sc2 2.925824 1_555
Ir6 Sc3 2.822235 1_556
Ir6 Sc3 2.822235 1_555
Ir6 Sc1 2.925824 1_555
Ir6 Sc1 2.925824 1_556
Ir7 Sc2 2.822235 1_555
Ir7 Sc2 2.822235 1_556
Ir7 Sc0 2.925824 1_555
Ir7 Sc0 2.925824 1_556
Ir8 Sc0 2.760531 1_555
Ir8 Sc0 2.760531 1_556
Ir8 Sc1 2.760531 1_546
Ir8 Sc1 2.760531 1_545
Ir9 Sc3 2.760531 1_455
Ir9 Sc3 2.760531 1_456
Ir9 Sc2 2.760531 1_556
Ir9 Sc2 2.760531 1_555
