# generated using pymatgen
data_TeMoWSe3
_symmetry_space_group_name_H-M   'P 1'
_cell_length_a   3.38327380
_cell_length_b   3.38327380
_cell_length_c   38.49132900
_cell_angle_alpha   90.00000000
_cell_angle_beta   90.00000000
_cell_angle_gamma   119.99999607
_symmetry_Int_Tables_number   1
_chemical_formula_structural   TeMoWSe3
_chemical_formula_sum   'Te2 Mo2 W2 Se6'
_cell_volume   381.56439824
_cell_formula_units_Z   2
loop_
 _symmetry_equiv_pos_site_id
 _symmetry_equiv_pos_as_xyz
  1  'x, y, z'
loop_
 _atom_site_type_symbol
 _atom_site_label
 _atom_site_symmetry_multiplicity
 _atom_site_fract_x
 _atom_site_fract_y
 _atom_site_fract_z
 _atom_site_occupancy
  Te  Te0  1  0.33333300  0.66666700  0.33089500  1
  Te  Te1  1  0.33333300  0.66666700  0.23272700  1
  Mo  Mo0  1  0.33333300  0.66666700  0.09388100  1
  Mo  Mo1  1  0.33333300  0.66666700  0.46966800  1
  W  W0  1  0.66666700  0.33333300  0.28177900  1
  W  W1  1  0.66666700  0.33333300  0.65753100  1
  Se  Se0  1  0.33333300  0.66666700  0.70067100  1
  Se  Se1  1  0.66666700  0.33333300  0.05093800  1
  Se  Se2  1  0.66666700  0.33333300  0.42670900  1
  Se  Se3  1  0.66666700  0.33333300  0.13690400  1
  Se  Se4  1  0.66666700  0.33333300  0.51266600  1
  Se  Se5  1  0.33333300  0.66666700  0.61438000  1
loop_
_geom_bond_atom_site_label_1
_geom_bond_atom_site_label_2
_geom_bond_distance
_geom_bond_site_symmetry_2
Te0 W0 2.718391 1_455
Te0 W0 2.718391 1_565
Te0 W0 2.718395 1_555
Te1 W0 2.716678 1_455
Te1 W0 2.716678 1_565
Te1 W0 2.716682 1_555
Mo0 Se1 2.558846 1_455
Mo0 Se1 2.558846 1_565
Mo0 Se1 2.558851 1_555
Mo0 Se3 2.560837 1_565
Mo0 Se3 2.560837 1_455
Mo0 Se3 2.560841 1_555
Mo1 Se2 2.559244 1_455
Mo1 Se2 2.559244 1_565
Mo1 Se2 2.559249 1_555
Mo1 Se4 2.560214 1_455
Mo1 Se4 2.560214 1_565
Mo1 Se4 2.560219 1_555
Se0 W1 2.563751 1_565
Se0 W1 2.563751 1_455
Se0 W1 2.563755 1_555
Se5 W1 2.564025 1_455
Se5 W1 2.564025 1_565
Se5 W1 2.564030 1_555
