# generated using pymatgen
data_Lu2Si2O7
_symmetry_space_group_name_H-M   'P 1'
_cell_length_a   6.59326700
_cell_length_b   6.59326700
_cell_length_c   12.02407100
_cell_angle_alpha   90.00000000
_cell_angle_beta   90.00000000
_cell_angle_gamma   90.00000000
_symmetry_Int_Tables_number   1
_chemical_formula_structural   Lu2Si2O7
_chemical_formula_sum   'Lu8 Si8 O28'
_cell_volume   522.70043133
_cell_formula_units_Z   4
loop_
 _symmetry_equiv_pos_site_id
 _symmetry_equiv_pos_as_xyz
  1  'x, y, z'
loop_
 _atom_site_type_symbol
 _atom_site_label
 _atom_site_symmetry_multiplicity
 _atom_site_fract_x
 _atom_site_fract_y
 _atom_site_fract_z
 _atom_site_occupancy
  Lu  Lu0  1  0.14831700  0.37678000  0.11641400  1
  Lu  Lu1  1  0.85168300  0.62322000  0.61641400  1
  Lu  Lu2  1  0.87678000  0.35168300  0.36641400  1
  Lu  Lu3  1  0.12322000  0.64831700  0.86641400  1
  Lu  Lu4  1  0.62322000  0.85168300  0.38358600  1
  Lu  Lu5  1  0.37678000  0.14831700  0.88358600  1
  Lu  Lu6  1  0.35168300  0.87678000  0.63358600  1
  Lu  Lu7  1  0.64831700  0.12322000  0.13358600  1
  Si  Si0  1  0.15354900  0.90263100  0.12190900  1
  Si  Si1  1  0.84645100  0.09736900  0.62190900  1
  Si  Si2  1  0.40263100  0.34645100  0.37190900  1
  Si  Si3  1  0.59736900  0.65354900  0.87190900  1
  Si  Si4  1  0.09736900  0.84645100  0.37809100  1
  Si  Si5  1  0.90263100  0.15354900  0.87809100  1
  Si  Si6  1  0.34645100  0.40263100  0.62809100  1
  Si  Si7  1  0.65354900  0.59736900  0.12809100  1
  O  O0  1  0.33698700  0.05411000  0.07276500  1
  O  O1  1  0.66301300  0.94589000  0.57276500  1
  O  O2  1  0.55411000  0.16301300  0.32276500  1
  O  O3  1  0.44589000  0.83698700  0.82276500  1
  O  O4  1  0.94589000  0.66301300  0.42723500  1
  O  O5  1  0.05411000  0.33698700  0.92723500  1
  O  O6  1  0.16301300  0.55411000  0.67723500  1
  O  O7  1  0.83698700  0.44589000  0.17723500  1
  O  O8  1  0.97166100  0.07127000  0.12580600  1
  O  O9  1  0.02833900  0.92873000  0.62580600  1
  O  O10  1  0.57127000  0.52833900  0.37580600  1
  O  O11  1  0.42873000  0.47166100  0.87580600  1
  O  O12  1  0.92873000  0.02833900  0.37419400  1
  O  O13  1  0.07127000  0.97166100  0.87419400  1
  O  O14  1  0.52833900  0.57127000  0.62419400  1
  O  O15  1  0.47166100  0.42873000  0.12419400  1
  O  O16  1  0.13795500  0.69431400  0.04789400  1
  O  O17  1  0.86204500  0.30568600  0.54789400  1
  O  O18  1  0.19431400  0.36204500  0.29789400  1
  O  O19  1  0.80568600  0.63795500  0.79789400  1
  O  O20  1  0.30568600  0.86204500  0.45210600  1
  O  O21  1  0.69431400  0.13795500  0.95210600  1
  O  O22  1  0.36204500  0.19431400  0.70210600  1
  O  O23  1  0.63795500  0.80568600  0.20210600  1
  O  O24  1  0.18486400  0.81513600  0.25000000  1
  O  O25  1  0.81513600  0.18486400  0.75000000  1
  O  O26  1  0.31513600  0.31513600  0.50000000  1
  O  O27  1  0.68486400  0.68486400  0.00000000  1
loop_
_geom_bond_atom_site_label_1
_geom_bond_atom_site_label_2
_geom_bond_distance
_geom_bond_site_symmetry_2
Lu0 O15 2.161259 1_555
Lu0 O18 2.205243 1_555
Lu0 O7 2.226197 1_455
Lu0 O16 2.250903 1_555
Lu0 O8 2.329552 1_455
Lu0 O5 2.372532 1_554
Lu0 O0 2.519705 1_555
Lu1 O14 2.161259 1_555
Lu1 O19 2.205243 1_555
Lu1 O6 2.226197 1_655
Lu1 O17 2.250903 1_555
Lu1 O9 2.329552 1_655
Lu1 O4 2.372532 1_555
Lu1 O1 2.519705 1_555
Lu2 O12 2.161259 1_555
Lu2 O17 2.205243 1_555
Lu2 O4 2.226197 1_555
Lu2 O18 2.250903 1_655
Lu2 O10 2.329552 1_555
Lu2 O7 2.372532 1_555
Lu2 O2 2.519705 1_555
Lu3 O13 2.161259 1_555
Lu3 O16 2.205243 1_556
Lu3 O5 2.226197 1_555
Lu3 O19 2.250903 1_455
Lu3 O11 2.329552 1_555
Lu3 O6 2.372532 1_555
Lu3 O3 2.519705 1_555
Lu4 O10 2.161259 1_555
Lu4 O23 2.205243 1_555
Lu4 O2 2.226197 1_565
Lu4 O20 2.250903 1_555
Lu4 O12 2.329552 1_565
Lu4 O1 2.372532 1_555
Lu4 O4 2.519705 1_555
Lu5 O11 2.161259 1_555
Lu5 O22 2.205243 1_555
Lu5 O3 2.226197 1_545
Lu5 O21 2.250903 1_555
Lu5 O13 2.329552 1_545
Lu5 O0 2.372532 1_556
Lu5 O5 2.519705 1_555
Lu6 O9 2.161259 1_555
Lu6 O20 2.205243 1_555
Lu6 O1 2.226197 1_555
Lu6 O22 2.250903 1_565
Lu6 O14 2.329552 1_555
Lu6 O3 2.372532 1_555
Lu6 O6 2.519705 1_555
Lu7 O8 2.161259 1_555
Lu7 O21 2.205243 1_554
Lu7 O0 2.226197 1_555
Lu7 O23 2.250903 1_545
Lu7 O15 2.329552 1_555
Lu7 O2 2.372532 1_555
Lu7 O7 2.519705 1_555
O0 Si0 1.676139 1_545
O1 Si1 1.676139 1_565
O2 Si2 1.676139 1_555
O3 Si3 1.676139 1_555
O4 Si4 1.676139 1_655
O5 Si5 1.676139 1_455
O6 Si6 1.676139 1_555
O7 Si7 1.676139 1_555
O8 Si0 1.636045 1_645
O9 Si1 1.636045 1_465
O10 Si2 1.636045 1_555
O11 Si3 1.636045 1_555
O12 Si4 1.636045 1_645
O13 Si5 1.636045 1_465
O14 Si6 1.636045 1_555
O15 Si7 1.636045 1_555
O16 Si0 1.639840 1_555
O17 Si1 1.639840 1_555
O18 Si2 1.639840 1_555
O19 Si3 1.639840 1_555
O20 Si4 1.639840 1_555
O21 Si5 1.639840 1_555
O22 Si6 1.639840 1_555
O23 Si7 1.639840 1_555
O24 Si0 1.657576 1_555
O24 Si4 1.657576 1_555
O25 Si1 1.657576 1_555
O25 Si5 1.657576 1_555
O26 Si6 1.657576 1_555
O26 Si2 1.657576 1_555
O27 Si3 1.657576 1_554
O27 Si7 1.657576 1_555
