# generated using pymatgen
data_SrCa7FeCo7O20
_symmetry_space_group_name_H-M   'P 1'
_cell_length_a   10.65074569
_cell_length_b   11.13260157
_cell_length_c   17.03242278
_cell_angle_alpha   108.70279573
_cell_angle_beta   107.83863259
_cell_angle_gamma   90.99717143
_symmetry_Int_Tables_number   1
_chemical_formula_structural   SrCa7FeCo7O20
_chemical_formula_sum   'Sr4 Ca28 Fe4 Co28 O80'
_cell_volume   1805.89758987
_cell_formula_units_Z   4
loop_
 _symmetry_equiv_pos_site_id
 _symmetry_equiv_pos_as_xyz
  1  'x, y, z'
loop_
 _atom_site_type_symbol
 _atom_site_label
 _atom_site_symmetry_multiplicity
 _atom_site_fract_x
 _atom_site_fract_y
 _atom_site_fract_z
 _atom_site_occupancy
  Sr  Sr0  1  0.30655100  0.56327500  0.60888200  1
  Sr  Sr1  1  0.05699600  0.29422000  0.61009600  1
  Sr  Sr2  1  0.55954000  0.29552900  0.61005900  1
  Sr  Sr3  1  0.44957000  0.19980100  0.89015900  1
  Ca  Ca0  1  0.30477800  0.06574100  0.11032300  1
  Ca  Ca1  1  0.30567800  0.06310200  0.60410200  1
  Ca  Ca2  1  0.30636600  0.56735000  0.11099500  1
  Ca  Ca3  1  0.80312700  0.06649700  0.10949000  1
  Ca  Ca4  1  0.80380800  0.06356600  0.60761000  1
  Ca  Ca5  1  0.80815400  0.56624900  0.11061300  1
  Ca  Ca6  1  0.80367700  0.56781200  0.60749000  1
  Ca  Ca7  1  0.19485100  0.43135400  0.38814900  1
  Ca  Ca8  1  0.19844300  0.43431500  0.89700700  1
  Ca  Ca9  1  0.19731300  0.93155700  0.38897900  1
  Ca  Ca10  1  0.19532900  0.93660500  0.89281100  1
  Ca  Ca11  1  0.69525800  0.43260200  0.38899600  1
  Ca  Ca12  1  0.70136400  0.43305900  0.89661600  1
  Ca  Ca13  1  0.69557800  0.93404800  0.39013400  1
  Ca  Ca14  1  0.69538000  0.93888600  0.89256600  1
  Ca  Ca15  1  0.05361800  0.29562100  0.10938300  1
  Ca  Ca16  1  0.05639900  0.79329100  0.10969100  1
  Ca  Ca17  1  0.05334800  0.79362600  0.60779700  1
  Ca  Ca18  1  0.55811300  0.29129600  0.11032000  1
  Ca  Ca19  1  0.55665500  0.79249000  0.11091300  1
  Ca  Ca20  1  0.55491500  0.79537000  0.60780400  1
  Ca  Ca21  1  0.44582500  0.20543500  0.38867800  1
  Ca  Ca22  1  0.44658500  0.70759800  0.39009300  1
  Ca  Ca23  1  0.44854300  0.71465100  0.89605000  1
  Ca  Ca24  1  0.94304600  0.20442600  0.38808200  1
  Ca  Ca25  1  0.94658300  0.20704300  0.89133500  1
  Ca  Ca26  1  0.94523600  0.70482500  0.38976000  1
  Ca  Ca27  1  0.94459700  0.71110300  0.89294800  1
  Fe  Fe0  1  0.10310600  0.59551700  0.75280700  1
  Fe  Fe1  1  0.61422600  0.59712200  0.75464000  1
  Fe  Fe2  1  0.35964000  0.41222400  0.75484900  1
  Fe  Fe3  1  0.35489300  0.90792400  0.74772200  1
  Co  Co0  1  0.00516900  0.00242800  0.00212600  1
  Co  Co1  1  0.00328500  0.99585000  0.49613200  1
  Co  Co2  1  0.00661300  0.50160300  0.00173300  1
  Co  Co3  1  0.00135500  0.49882800  0.49555700  1
  Co  Co4  1  0.50635200  0.99965400  0.00334000  1
  Co  Co5  1  0.50476400  0.99799000  0.49650500  1
  Co  Co6  1  0.50797500  0.49991800  0.00181900  1
  Co  Co7  1  0.50419500  0.49944500  0.49585300  1
  Co  Co8  1  0.25623800  0.25151900  0.00416500  1
  Co  Co9  1  0.25192500  0.24529900  0.49400100  1
  Co  Co10  1  0.25531300  0.75117800  0.00056700  1
  Co  Co11  1  0.25516400  0.74903600  0.49773500  1
  Co  Co12  1  0.75791300  0.25116900  0.00329500  1
  Co  Co13  1  0.75230700  0.24751000  0.49477700  1
  Co  Co14  1  0.75665900  0.75213000  0.00133400  1
  Co  Co15  1  0.75361800  0.74925900  0.49790000  1
  Co  Co16  1  0.10772500  0.09315600  0.24843000  1
  Co  Co17  1  0.10432000  0.09169500  0.75004300  1
  Co  Co18  1  0.10937100  0.59499500  0.25023200  1
  Co  Co19  1  0.60842100  0.09304700  0.25017400  1
  Co  Co20  1  0.61281100  0.09130600  0.74853900  1
  Co  Co21  1  0.60889500  0.59405200  0.24970900  1
  Co  Co22  1  0.35662600  0.40637500  0.24914500  1
  Co  Co23  1  0.35769600  0.90481600  0.24946100  1
  Co  Co24  1  0.85719000  0.40562800  0.24950300  1
  Co  Co25  1  0.86006700  0.40488800  0.75308300  1
  Co  Co26  1  0.85745600  0.90471000  0.24955900  1
  Co  Co27  1  0.85766300  0.90391200  0.75014900  1
  O  O0  1  0.11996400  0.11146800  0.48541300  1
  O  O1  1  0.12477100  0.12764700  0.99007600  1
  O  O2  1  0.11759100  0.61438300  0.48409600  1
  O  O3  1  0.12684000  0.62588700  0.98931400  1
  O  O4  1  0.62222200  0.11696500  0.48231900  1
  O  O5  1  0.62679500  0.11908900  0.99318800  1
  O  O6  1  0.62011200  0.61691200  0.48667000  1
  O  O7  1  0.62965100  0.62662500  0.99083600  1
  O  O8  1  0.13687600  0.38876100  0.01686900  1
  O  O9  1  0.13267500  0.36855600  0.50288800  1
  O  O10  1  0.13316000  0.88730600  0.01435700  1
  O  O11  1  0.13704800  0.87278100  0.51048900  1
  O  O12  1  0.63776400  0.38686100  0.01740300  1
  O  O13  1  0.63898800  0.37761800  0.50752200  1
  O  O14  1  0.63370900  0.88410200  0.01696600  1
  O  O15  1  0.63815900  0.87429000  0.51042600  1
  O  O16  1  0.36815400  0.11899400  0.48429000  1
  O  O17  1  0.37310500  0.10945100  0.99161500  1
  O  O18  1  0.36876000  0.62025000  0.48185300  1
  O  O19  1  0.37742800  0.61191100  0.98896700  1
  O  O20  1  0.86825100  0.11876200  0.48508200  1
  O  O21  1  0.87633600  0.11415400  0.98842200  1
  O  O22  1  0.86762700  0.62181700  0.48526000  1
  O  O23  1  0.87697500  0.61470800  0.98662700  1
  O  O24  1  0.38328900  0.37769600  0.01367200  1
  O  O25  1  0.38465000  0.38299200  0.50312200  1
  O  O26  1  0.38549700  0.87776000  0.01487900  1
  O  O27  1  0.38463400  0.88264500  0.51015300  1
  O  O28  1  0.88747700  0.38455800  0.01361000  1
  O  O29  1  0.88357300  0.38646800  0.50768000  1
  O  O30  1  0.88528100  0.88158500  0.01592700  1
  O  O31  1  0.88716000  0.88338000  0.50934400  1
  O  O32  1  0.08800800  0.10642700  0.14250000  1
  O  O33  1  0.08550600  0.09034800  0.64025700  1
  O  O34  1  0.08811000  0.60580300  0.14350300  1
  O  O35  1  0.07943800  0.60038300  0.63931700  1
  O  O36  1  0.58783000  0.10410500  0.14396400  1
  O  O37  1  0.59080700  0.09115000  0.63863100  1
  O  O38  1  0.58872500  0.60388500  0.14265000  1
  O  O39  1  0.58710200  0.59984100  0.63987200  1
  O  O40  1  0.44570200  0.39803500  0.35657800  1
  O  O41  1  0.45470700  0.40073300  0.86271200  1
  O  O42  1  0.44535000  0.89709900  0.35719400  1
  O  O43  1  0.44798600  0.89899900  0.85843100  1
  O  O44  1  0.94250600  0.39705300  0.35757300  1
  O  O45  1  0.95067600  0.39615600  0.85889300  1
  O  O46  1  0.94397100  0.89563400  0.35779500  1
  O  O47  1  0.94656300  0.89829500  0.85794000  1
  O  O48  1  0.33593500  0.28874500  0.14117400  1
  O  O49  1  0.33065600  0.29187400  0.64230300  1
  O  O50  1  0.33562200  0.78895300  0.14108900  1
  O  O51  1  0.33532000  0.79097000  0.63647100  1
  O  O52  1  0.83795600  0.28986900  0.14233300  1
  O  O53  1  0.83121800  0.28971900  0.64496800  1
  O  O54  1  0.83801300  0.78882400  0.14165600  1
  O  O55  1  0.83664500  0.79035100  0.64162400  1
  O  O56  1  0.19505900  0.20921500  0.35543900  1
  O  O57  1  0.18765800  0.20884300  0.85920800  1
  O  O58  1  0.19552800  0.71130400  0.35753800  1
  O  O59  1  0.19742800  0.71826300  0.86277200  1
  O  O60  1  0.69586800  0.21137300  0.35619300  1
  O  O61  1  0.69506600  0.20640500  0.85801100  1
  O  O62  1  0.69349000  0.71073500  0.35709400  1
  O  O63  1  0.70324000  0.72139000  0.86452400  1
  O  O64  1  0.42502600  0.06727500  0.24961400  1
  O  O65  1  0.42540600  0.06378900  0.74167500  1
  O  O66  1  0.42529800  0.56813100  0.24960000  1
  O  O67  1  0.43381200  0.57442200  0.75852700  1
  O  O68  1  0.92496000  0.06663700  0.24928100  1
  O  O69  1  0.92130800  0.06840700  0.74967300  1
  O  O70  1  0.92647800  0.56799300  0.25029100  1
  O  O71  1  0.92085400  0.57097400  0.75095900  1
  O  O72  1  0.17483100  0.43294500  0.24929500  1
  O  O73  1  0.18062500  0.44126000  0.75943900  1
  O  O74  1  0.17527800  0.93188700  0.24906900  1
  O  O75  1  0.17420700  0.92992800  0.75076700  1
  O  O76  1  0.67517700  0.43224400  0.24928800  1
  O  O77  1  0.68189100  0.44009500  0.75985800  1
  O  O78  1  0.67570400  0.93170400  0.25005700  1
  O  O79  1  0.67476000  0.92861800  0.75024900  1
loop_
_geom_bond_atom_site_label_1
_geom_bond_atom_site_label_2
_geom_bond_distance
_geom_bond_site_symmetry_2
Ca0 O64 2.319654 1_555
Ca0 O48 2.361669 1_555
Ca0 O10 2.433016 1_545
Ca0 O17 2.524783 1_554
Ca0 O32 2.547220 1_555
Ca0 O26 2.549199 1_545
Ca0 O1 2.625037 1_554
Ca0 O36 2.887757 1_555
Ca1 O65 2.296572 1_555
Ca1 O49 2.405845 1_555
Ca1 O27 2.474928 1_545
Ca1 O11 2.490721 1_545
Ca1 O0 2.564051 1_555
Ca1 O16 2.574144 1_555
Ca1 O33 2.599988 1_555
Ca1 O37 2.901851 1_555
Ca2 O66 2.309158 1_555
Ca2 O50 2.347430 1_555
Ca2 O8 2.416516 1_555
Ca2 O24 2.554318 1_555
Ca2 O34 2.562176 1_555
Ca2 O19 2.598227 1_554
Ca2 O3 2.618720 1_554
Ca2 O38 2.885058 1_555
Ca3 O68 2.336130 1_555
Ca3 O52 2.362819 1_555
Ca3 O14 2.437333 1_545
Ca3 O5 2.509316 1_554
Ca3 O30 2.521109 1_545
Ca3 O36 2.545375 1_555
Ca3 O21 2.610356 1_554
Ca3 O32 2.909920 1_655
Ca4 O69 2.341508 1_555
Ca4 O53 2.379494 1_555
Ca4 O15 2.477332 1_545
Ca4 O37 2.484890 1_555
Ca4 O31 2.536218 1_545
Ca4 O20 2.624760 1_555
Ca4 O4 2.640605 1_555
Ca4 O33 2.870584 1_655
Ca5 O70 2.319720 1_555
Ca5 O54 2.355786 1_555
Ca5 O12 2.424347 1_555
Ca5 O28 2.511231 1_555
Ca5 O38 2.569833 1_555
Ca5 O7 2.603042 1_554
Ca5 O23 2.636887 1_554
Ca5 O34 2.858533 1_655
Ca6 O55 2.349453 1_555
Ca6 O71 2.367474 1_555
Ca6 O13 2.487549 1_555
Ca6 O39 2.536555 1_555
Ca6 O29 2.536710 1_555
Ca6 O6 2.578679 1_555
Ca6 O22 2.610900 1_555
Ca6 O35 2.813017 1_655
Ca7 O72 2.314548 1_555
Ca7 O56 2.354444 1_555
Ca7 O2 2.499260 1_555
Ca7 O18 2.510202 1_555
Ca7 O9 2.529723 1_555
Ca7 O25 2.549476 1_555
Ca7 O44 2.572887 1_455
Ca7 O40 2.889946 1_555
Ca8 O73 2.318716 1_555
Ca8 O57 2.374133 1_555
Ca8 O19 2.459627 1_555
Ca8 O3 2.498535 1_555
Ca8 O45 2.510029 1_455
Ca8 O8 2.515484 1_556
Ca8 O24 2.582905 1_556
Ca8 O41 2.966964 1_555
Ca9 O74 2.323103 1_555
Ca9 O58 2.334401 1_555
Ca9 O0 2.482886 1_565
Ca9 O16 2.487178 1_565
Ca9 O46 2.582812 1_455
Ca9 O27 2.602370 1_555
Ca9 O11 2.605987 1_555
Ca9 O42 2.863140 1_555
Ca10 O59 2.319908 1_555
Ca10 O75 2.336671 1_555
Ca10 O17 2.442141 1_565
Ca10 O47 2.527610 1_455
Ca10 O1 2.528103 1_565
Ca10 O10 2.565410 1_556
Ca10 O26 2.682140 1_556
Ca10 O43 2.933769 1_555
Ca11 O76 2.321674 1_555
Ca11 O60 2.344816 1_555
Ca11 O22 2.510394 1_555
Ca11 O6 2.510399 1_555
Ca11 O13 2.516020 1_555
Ca11 O40 2.539029 1_555
Ca11 O29 2.567210 1_555
Ca11 O44 2.853363 1_555
Ca12 O77 2.301407 1_555
Ca12 O61 2.388869 1_555
Ca12 O23 2.461991 1_555
Ca12 O41 2.503775 1_555
Ca12 O7 2.528399 1_555
Ca12 O12 2.544814 1_556
Ca12 O28 2.549284 1_556
Ca12 O45 2.923441 1_555
Ca13 O78 2.321258 1_555
Ca13 O62 2.364495 1_555
Ca13 O4 2.445178 1_565
Ca13 O20 2.477824 1_565
Ca13 O42 2.546477 1_555
Ca13 O15 2.577222 1_555
Ca13 O31 2.615462 1_555
Ca13 O46 2.875140 1_555
Ca14 O63 2.321141 1_555
Ca14 O79 2.330741 1_555
Ca14 O21 2.466880 1_565
Ca14 O5 2.471528 1_565
Ca14 O43 2.516582 1_555
Ca14 O14 2.638247 1_556
Ca14 O30 2.685768 1_556
Ca14 O47 2.923527 1_555
Ca15 O72 2.322224 1_555
Ca15 O32 2.355988 1_555
Ca15 O28 2.469970 1_455
Ca15 O8 2.493261 1_555
Ca15 O52 2.530380 1_455
Ca15 O21 2.589537 1_454
Ca15 O1 2.599304 1_554
Ca15 O48 2.894388 1_555
Ca16 O74 2.315339 1_555
Ca16 O34 2.340622 1_555
Ca16 O30 2.474695 1_455
Ca16 O10 2.504784 1_555
Ca16 O54 2.549166 1_455
Ca16 O23 2.595979 1_454
Ca16 O3 2.603923 1_554
Ca16 O50 2.860028 1_555
Ca17 O75 2.351837 1_555
Ca17 O35 2.379835 1_555
Ca17 O11 2.476430 1_555
Ca17 O31 2.502192 1_455
Ca17 O55 2.546693 1_455
Ca17 O22 2.589577 1_455
Ca17 O2 2.669011 1_555
Ca17 O51 2.893510 1_555
Ca18 O76 2.315407 1_555
Ca18 O36 2.334301 1_555
Ca18 O12 2.495419 1_555
Ca18 O24 2.510356 1_555
Ca18 O48 2.577940 1_555
Ca18 O5 2.584707 1_554
Ca18 O17 2.619954 1_554
Ca18 O52 2.862283 1_555
Ca19 O78 2.315448 1_555
Ca19 O38 2.336063 1_555
Ca19 O14 2.469044 1_555
Ca19 O26 2.475671 1_555
Ca19 O50 2.561032 1_555
Ca19 O19 2.599767 1_554
Ca19 O7 2.607513 1_554
Ca19 O54 2.883138 1_555
Ca20 O79 2.333398 1_555
Ca20 O39 2.414086 1_555
Ca20 O15 2.473309 1_555
Ca20 O27 2.499829 1_555
Ca20 O51 2.534175 1_555
Ca20 O18 2.628925 1_555
Ca20 O6 2.642541 1_555
Ca20 O55 2.882053 1_555
Ca21 O64 2.314152 1_555
Ca21 O40 2.376495 1_555
Ca21 O16 2.462748 1_555
Ca21 O4 2.505898 1_555
Ca21 O25 2.546232 1_555
Ca21 O56 2.559000 1_555
Ca21 O13 2.612893 1_555
Ca21 O60 2.884954 1_555
Ca22 O66 2.336844 1_555
Ca22 O42 2.349323 1_555
Ca22 O18 2.411555 1_555
Ca22 O6 2.531445 1_555
Ca22 O58 2.563055 1_555
Ca22 O15 2.583504 1_555
Ca22 O27 2.594294 1_555
Ca22 O62 2.854385 1_555
Ca23 O67 2.317222 1_555
Ca23 O43 2.337483 1_555
Ca23 O19 2.500330 1_555
Ca23 O26 2.522428 1_556
Ca23 O7 2.541646 1_555
Ca23 O59 2.562370 1_555
Ca23 O14 2.565150 1_556
Ca23 O63 2.926425 1_555
Ca24 O68 2.316066 1_555
Ca24 O44 2.362610 1_555
Ca24 O20 2.462527 1_555
Ca24 O60 2.527784 1_555
Ca24 O9 2.530210 1_655
Ca24 O0 2.573724 1_655
Ca24 O29 2.616407 1_555
Ca24 O56 2.906003 1_655
Ca25 O69 2.340016 1_555
Ca25 O45 2.344617 1_555
Ca25 O21 2.488244 1_555
Ca25 O1 2.503532 1_655
Ca25 O61 2.561953 1_555
Ca25 O28 2.616513 1_556
Ca25 O8 2.683320 1_656
Ca25 O57 2.785426 1_655
Ca26 O70 2.319762 1_555
Ca26 O46 2.355210 1_555
Ca26 O22 2.438070 1_555
Ca26 O2 2.502003 1_655
Ca26 O62 2.572700 1_555
Ca26 O31 2.588556 1_555
Ca26 O11 2.593374 1_655
Ca26 O58 2.885816 1_655
Ca27 O47 2.345588 1_555
Ca27 O71 2.353368 1_555
Ca27 O23 2.447749 1_555
Ca27 O63 2.477693 1_555
Ca27 O3 2.544082 1_655
Ca27 O30 2.586819 1_556
Ca27 O10 2.621919 1_656
Ca27 O59 2.896320 1_655
Fe0 O59 1.882167 1_555
Fe0 O35 1.889998 1_555
Fe0 O73 1.939099 1_555
Fe0 O71 1.944783 1_455
Fe1 O63 1.876770 1_555
Fe1 O39 1.896784 1_555
Fe1 O77 1.920273 1_555
Fe1 O67 1.957638 1_555
Fe2 O41 1.852650 1_555
Fe2 O49 1.881740 1_555
Fe2 O67 1.932871 1_555
Fe2 O73 1.960219 1_555
Fe3 O51 1.869635 1_555
Fe3 O43 1.877956 1_555
Fe3 O65 1.924095 1_565
Fe3 O75 1.958463 1_555
Co0 O21 1.879821 1_454
Co0 O10 1.897965 1_545
Co0 O30 1.955110 1_445
Co0 O1 1.972296 1_554
Co0 O32 2.175339 1_555
Co0 O47 2.230353 1_444
Co1 O31 1.856176 1_455
Co1 O0 1.862369 1_565
Co1 O11 2.008972 1_555
Co1 O20 2.010975 1_465
Co1 O46 2.138499 1_455
Co1 O33 2.212309 1_565
Co2 O23 1.899668 1_454
Co2 O28 1.902002 1_455
Co2 O8 1.902277 1_555
Co2 O3 1.972506 1_554
Co2 O34 2.194132 1_555
Co2 O45 2.215412 1_454
Co3 O29 1.857604 1_455
Co3 O2 1.865296 1_555
Co3 O22 2.000726 1_455
Co3 O9 2.038342 1_555
Co3 O44 2.136608 1_455
Co3 O35 2.215777 1_555
Co4 O17 1.895078 1_564
Co4 O14 1.899460 1_555
Co4 O5 1.915037 1_564
Co4 O26 1.949918 1_555
Co4 O36 2.178830 1_565
Co4 O43 2.235147 1_554
Co5 O27 1.912184 1_555
Co5 O4 1.926262 1_565
Co5 O16 2.009340 1_565
Co5 O15 2.010545 1_555
Co5 O42 2.153676 1_555
Co5 O37 2.184747 1_565
Co6 O19 1.893285 1_554
Co6 O12 1.901439 1_555
Co6 O24 1.983239 1_555
Co6 O7 1.989552 1_554
Co6 O41 2.152126 1_554
Co6 O38 2.180357 1_555
Co7 O6 1.857985 1_555
Co7 O25 1.859909 1_555
Co7 O13 2.001455 1_555
Co7 O18 2.002187 1_555
Co7 O40 2.154649 1_555
Co7 O39 2.219548 1_555
Co8 O1 1.853266 1_554
Co8 O24 1.866596 1_555
Co8 O8 2.005365 1_555
Co8 O17 2.027599 1_554
Co8 O48 2.119402 1_555
Co8 O57 2.232892 1_554
Co9 O9 1.887900 1_555
Co9 O16 1.890456 1_555
Co9 O0 1.969248 1_555
Co9 O25 2.002371 1_555
Co9 O56 2.146111 1_555
Co9 O49 2.280263 1_555
Co10 O3 1.859037 1_554
Co10 O26 1.863431 1_555
Co10 O10 2.017922 1_555
Co10 O19 2.040972 1_554
Co10 O59 2.139341 1_554
Co10 O50 2.173633 1_555
Co11 O11 1.887707 1_555
Co11 O18 1.898610 1_555
Co11 O27 1.925307 1_555
Co11 O2 1.984875 1_555
Co11 O51 2.138523 1_555
Co11 O58 2.167975 1_555
Co12 O28 1.937288 1_555
Co12 O5 1.939285 1_554
Co12 O21 1.999147 1_554
Co12 O12 2.000032 1_555
Co12 O52 2.148610 1_555
Co12 O61 2.236618 1_554
Co13 O13 1.903026 1_555
Co13 O4 1.904932 1_555
Co13 O20 1.908225 1_555
Co13 O29 1.978502 1_555
Co13 O60 2.146636 1_555
Co13 O53 2.317164 1_555
Co14 O7 1.854674 1_554
Co14 O30 1.873066 1_555
Co14 O14 1.993474 1_555
Co14 O23 2.016059 1_554
Co14 O63 2.130780 1_554
Co14 O54 2.173160 1_555
Co15 O15 1.877512 1_555
Co15 O22 1.886254 1_555
Co15 O6 1.951669 1_555
Co15 O31 1.964680 1_555
Co15 O62 2.176135 1_555
Co15 O55 2.219294 1_555
Co16 O32 1.805857 1_555
Co16 O56 1.807143 1_555
Co16 O74 1.947752 1_545
Co16 O68 1.968904 1_455
Co17 O33 1.813650 1_555
Co17 O57 1.827374 1_555
Co17 O69 1.959726 1_455
Co17 O75 1.962824 1_545
Co18 O34 1.805371 1_555
Co18 O58 1.808990 1_555
Co18 O72 1.942427 1_555
Co18 O70 1.966182 1_455
Co19 O36 1.799020 1_555
Co19 O60 1.806884 1_555
Co19 O78 1.945029 1_545
Co19 O64 1.965983 1_555
Co20 O37 1.813399 1_555
Co20 O61 1.820413 1_555
Co20 O79 1.944240 1_545
Co20 O65 1.975935 1_555
Co21 O62 1.808428 1_555
Co21 O38 1.808873 1_555
Co21 O76 1.944824 1_555
Co21 O66 1.970998 1_555
Co22 O40 1.818086 1_555
Co22 O48 1.828275 1_555
Co22 O66 1.928602 1_555
Co22 O72 1.964447 1_555
Co23 O42 1.816684 1_555
Co23 O50 1.822853 1_555
Co23 O64 1.932861 1_565
Co23 O74 1.969620 1_555
Co24 O52 1.813222 1_555
Co24 O44 1.820416 1_555
Co24 O70 1.934927 1_555
Co24 O76 1.965253 1_555
Co25 O45 1.799652 1_555
Co25 O53 1.804086 1_555
Co25 O71 1.963349 1_555
Co25 O77 1.974659 1_555
Co26 O54 1.822609 1_555
Co26 O46 1.827509 1_555
Co26 O68 1.931062 1_565
Co26 O78 1.966304 1_555
Co27 O47 1.811562 1_555
Co27 O55 1.817442 1_555
Co27 O69 1.944930 1_565
Co27 O79 1.972548 1_555
O0 Sr1 2.692232 1_555
O2 Sr0 2.661984 1_555
O4 Sr2 2.700650 1_555
O5 Sr3 2.547664 1_555
O9 Sr1 2.552745 1_555
O9 Sr0 2.586498 1_555
O12 Sr3 2.711113 1_554
O13 Sr2 2.550163 1_555
O16 Sr2 2.663013 1_555
O17 Sr3 2.570894 1_555
O18 Sr0 2.695608 1_555
O20 Sr1 2.638928 1_655
O24 Sr3 2.670724 1_554
O25 Sr0 2.573410 1_555
O25 Sr2 2.618605 1_555
O29 Sr1 2.598097 1_655
O33 Sr1 2.486657 1_555
O35 Sr0 2.637472 1_555
O37 Sr2 2.482291 1_555
O39 Sr0 2.868183 1_555
O41 Sr3 2.430493 1_555
O49 Sr2 2.660301 1_555
O49 Sr1 2.798075 1_555
O51 Sr0 2.420941 1_555
O53 Sr1 2.651011 1_655
O53 Sr2 2.776251 1_555
O57 Sr3 2.685610 1_555
O61 Sr3 2.835183 1_555
O65 Sr3 2.426271 1_555
O67 Sr0 2.454326 1_555
O73 Sr1 2.467025 1_555
O77 Sr2 2.460623 1_555
