# generated using pymatgen
data_Fe(CO3)2
_symmetry_space_group_name_H-M   'P 1'
_cell_length_a   5.41811100
_cell_length_b   6.37920428
_cell_length_c   16.17630300
_cell_angle_alpha   90.00000000
_cell_angle_beta   90.00000000
_cell_angle_gamma   115.12976059
_symmetry_Int_Tables_number   1
_chemical_formula_structural   Fe(CO3)2
_chemical_formula_sum   'Fe4 C8 O24'
_cell_volume   506.18513846
_cell_formula_units_Z   4
loop_
 _symmetry_equiv_pos_site_id
 _symmetry_equiv_pos_as_xyz
  1  'x, y, z'
loop_
 _atom_site_type_symbol
 _atom_site_label
 _atom_site_symmetry_multiplicity
 _atom_site_fract_x
 _atom_site_fract_y
 _atom_site_fract_z
 _atom_site_occupancy
  Fe  Fe0  1  0.00000000  0.50000000  0.50000000  1
  Fe  Fe1  1  0.50000000  0.50000000  0.00000000  1
  Fe  Fe2  1  0.00000000  0.00000000  0.25000000  1
  Fe  Fe3  1  0.00000000  0.00000000  0.75000000  1
  C  C0  1  0.50000000  0.50000000  0.45120300  1
  C  C1  1  0.00000000  0.50000000  0.04879700  1
  C  C2  1  0.50000000  0.50000000  0.54879700  1
  C  C3  1  0.00000000  0.50000000  0.95120300  1
  C  C4  1  0.50000000  0.00000000  0.20152200  1
  C  C5  1  0.50000000  0.00000000  0.29847800  1
  C  C6  1  0.50000000  0.00000000  0.79847800  1
  C  C7  1  0.50000000  0.00000000  0.70152200  1
  O  O0  1  0.29185500  0.49988900  0.41636100  1
  O  O1  1  0.70814500  0.50011100  0.41636100  1
  O  O2  1  0.79196600  0.50011100  0.08363900  1
  O  O3  1  0.20803400  0.49988900  0.08363900  1
  O  O4  1  0.70814500  0.50011100  0.58363900  1
  O  O5  1  0.29185500  0.49988900  0.58363900  1
  O  O6  1  0.20803400  0.49988900  0.91636100  1
  O  O7  1  0.79196600  0.50011100  0.91636100  1
  O  O8  1  0.28851300  0.99283500  0.16643500  1
  O  O9  1  0.71148700  0.00716500  0.16643500  1
  O  O10  1  0.29567800  0.00716500  0.33356500  1
  O  O11  1  0.70432200  0.99283500  0.33356500  1
  O  O12  1  0.71148700  0.00716500  0.83356500  1
  O  O13  1  0.28851300  0.99283500  0.83356500  1
  O  O14  1  0.70432200  0.99283500  0.66643500  1
  O  O15  1  0.29567800  0.00716500  0.66643500  1
  O  O16  1  0.14997500  0.80136700  0.50000000  1
  O  O17  1  0.85002500  0.19863300  0.50000000  1
  O  O18  1  0.34860800  0.19863300  0.00000000  1
  O  O19  1  0.65139200  0.80136700  0.00000000  1
  O  O20  1  0.15455000  0.30910100  0.25000000  1
  O  O21  1  0.84545000  0.69089900  0.25000000  1
  O  O22  1  0.84545000  0.69089900  0.75000000  1
  O  O23  1  0.15455000  0.30910100  0.75000000  1
loop_
_geom_bond_atom_site_label_1
_geom_bond_atom_site_label_2
_geom_bond_distance
_geom_bond_site_symmetry_2
Fe0 O17 1.740520 1_455
Fe0 O16 1.740520 1_555
Fe0 O5 2.081345 1_555
Fe0 O1 2.081345 1_455
Fe0 O0 2.081345 1_555
Fe0 O4 2.081345 1_455
Fe1 O18 1.740520 1_555
Fe1 O19 1.740520 1_555
Fe1 O2 2.081345 1_555
Fe1 O3 2.081345 1_555
Fe1 O7 2.081345 1_554
Fe1 O6 2.081345 1_554
Fe2 O21 1.785183 1_445
Fe2 O20 1.785183 1_555
Fe2 O9 2.081740 1_455
Fe2 O8 2.081740 1_545
Fe2 O10 2.081740 1_555
Fe2 O11 2.081740 1_445
Fe3 O22 1.785183 1_445
Fe3 O23 1.785183 1_555
Fe3 O13 2.081740 1_545
Fe3 O12 2.081740 1_455
Fe3 O14 2.081740 1_445
Fe3 O15 2.081740 1_555
C0 O0 1.260480 1_555
C0 O1 1.260480 1_555
C1 O2 1.260480 1_455
C1 O3 1.260480 1_555
C2 O4 1.260480 1_555
C2 O5 1.260480 1_555
C3 O7 1.260480 1_455
C3 O6 1.260480 1_555
C4 O8 1.262040 1_545
C4 O9 1.262040 1_555
C5 O10 1.262040 1_555
C5 O11 1.262040 1_545
C6 O13 1.262040 1_545
C6 O12 1.262040 1_555
C7 O15 1.262040 1_555
C7 O14 1.262040 1_545
