# generated using pymatgen
data_MgNi4O9
_symmetry_space_group_name_H-M   'P 1'
_cell_length_a   5.35148800
_cell_length_b   8.13890908
_cell_length_c   8.30078348
_cell_angle_alpha   92.18711539
_cell_angle_beta   90.26318461
_cell_angle_gamma   90.11388190
_symmetry_Int_Tables_number   1
_chemical_formula_structural   MgNi4O9
_chemical_formula_sum   'Mg2 Ni8 O18'
_cell_volume   361.27486777
_cell_formula_units_Z   2
loop_
 _symmetry_equiv_pos_site_id
 _symmetry_equiv_pos_as_xyz
  1  'x, y, z'
loop_
 _atom_site_type_symbol
 _atom_site_label
 _atom_site_symmetry_multiplicity
 _atom_site_fract_x
 _atom_site_fract_y
 _atom_site_fract_z
 _atom_site_occupancy
  Mg  Mg0  1  0.76450300  0.75364800  0.73866600  1
  Mg  Mg1  1  0.23588600  0.25672500  0.23734700  1
  Ni  Ni0  1  0.41108600  0.66584100  0.46546700  1
  Ni  Ni1  1  0.59961800  0.53007200  0.16394500  1
  Ni  Ni2  1  0.40422400  0.03135700  0.66278400  1
  Ni  Ni3  1  0.58390200  0.16302500  0.96850300  1
  Ni  Ni4  1  0.46517500  0.83595800  0.03306600  1
  Ni  Ni5  1  0.44921200  0.46938100  0.84223500  1
  Ni  Ni6  1  0.54579800  0.33668700  0.53108600  1
  Ni  Ni7  1  0.54530500  0.96996300  0.34010400  1
  O  O0  1  0.49467300  0.75338700  0.24155700  1
  O  O1  1  0.51976000  0.25409000  0.74583300  1
  O  O2  1  0.87073300  0.10999600  0.33824700  1
  O  O3  1  0.87499400  0.25329400  0.41989200  1
  O  O4  1  0.89821000  0.23340900  0.09624100  1
  O  O5  1  0.90502800  0.38423200  0.17179700  1
  O  O6  1  0.09449400  0.88914000  0.66386200  1
  O  O7  1  0.09528000  0.74088800  0.58329300  1
  O  O8  1  0.13059100  0.75376400  0.92838900  1
  O  O9  1  0.12325300  0.60841000  0.85131200  1
  O  O10  1  0.62515000  0.64852200  0.95367900  1
  O  O11  1  0.58057200  0.94619000  0.85589500  1
  O  O12  1  0.57003300  0.54781700  0.64421600  1
  O  O13  1  0.58812100  0.86343700  0.53850400  1
  O  O14  1  0.37702200  0.14737500  0.45117000  1
  O  O15  1  0.41266400  0.04216400  0.14031500  1
  O  O16  1  0.42109600  0.44945500  0.35301200  1
  O  O17  1  0.41361400  0.36177300  0.03958100  1
loop_
_geom_bond_atom_site_label_1
_geom_bond_atom_site_label_2
_geom_bond_distance
_geom_bond_site_symmetry_2
Mg0 O11 2.066410 1_555
Mg0 O12 2.095111 1_555
Mg0 O13 2.133603 1_555
Mg0 O10 2.144733 1_555
Mg0 O6 2.185127 1_655
Mg0 O7 2.195237 1_655
Mg0 O9 2.456488 1_655
Mg0 O8 2.507951 1_655
Mg1 O16 2.057877 1_555
Mg1 O17 2.109200 1_555
Mg1 O15 2.121191 1_555
Mg1 O5 2.132965 1_455
Mg1 O14 2.150286 1_555
Mg1 O4 2.153058 1_455
Mg1 O2 2.455258 1_455
Mg1 O3 2.461030 1_455
Ni0 O13 1.940549 1_555
Ni0 O16 1.962452 1_555
Ni0 O12 1.987014 1_555
Ni0 O7 2.039499 1_555
Ni0 O0 2.066335 1_555
Ni1 O17 1.951917 1_555
Ni1 O16 1.973862 1_555
Ni1 O0 1.987943 1_555
Ni1 O5 2.024120 1_555
Ni1 O10 2.030884 1_554
Ni2 O13 1.951315 1_545
Ni2 O11 2.003529 1_545
Ni2 O1 2.009979 1_555
Ni2 O6 2.020031 1_545
Ni2 O14 2.030548 1_555
Ni3 O17 1.932128 1_556
Ni3 O11 1.965294 1_545
Ni3 O15 1.989181 1_556
Ni3 O1 2.045298 1_555
Ni3 O4 2.053058 1_556
Ni4 O10 1.851495 1_554
Ni4 O11 1.859020 1_554
Ni4 O0 1.886358 1_555
Ni4 O15 1.891643 1_565
Ni4 O8 2.084481 1_554
Ni5 O17 1.896972 1_556
Ni5 O12 1.901472 1_555
Ni5 O1 1.936900 1_555
Ni5 O10 1.936913 1_555
Ni5 O9 2.081208 1_555
Ni6 O14 1.881707 1_555
Ni6 O16 1.889332 1_555
Ni6 O12 1.930359 1_555
Ni6 O1 1.934492 1_555
Ni6 O3 2.094760 1_555
Ni7 O13 1.903340 1_555
Ni7 O14 1.912363 1_565
Ni7 O15 1.914342 1_565
Ni7 O0 1.932786 1_555
Ni7 O2 2.079854 1_565
O2 O3 1.326452 1_555
O4 O5 1.357339 1_555
O6 O7 1.357075 1_555
O8 O9 1.323723 1_555
