# generated using pymatgen
data_SmGeIr
_symmetry_space_group_name_H-M   'P 1'
_cell_length_a   4.38055185
_cell_length_b   7.06676424
_cell_length_c   7.54311275
_cell_angle_alpha   90.00070339
_cell_angle_beta   90.00000134
_cell_angle_gamma   90.00000138
_symmetry_Int_Tables_number   1
_chemical_formula_structural   SmGeIr
_chemical_formula_sum   'Sm4 Ge4 Ir4'
_cell_volume   233.50706612
_cell_formula_units_Z   4
loop_
 _symmetry_equiv_pos_site_id
 _symmetry_equiv_pos_as_xyz
  1  'x, y, z'
loop_
 _atom_site_type_symbol
 _atom_site_label
 _atom_site_symmetry_multiplicity
 _atom_site_fract_x
 _atom_site_fract_y
 _atom_site_fract_z
 _atom_site_occupancy
  Sm  Sm0  1  0.25000000  0.49528191  0.18967460  1
  Sm  Sm1  1  0.75000001  0.50471924  0.81032648  1
  Sm  Sm2  1  0.75000001  0.00473602  0.68971430  1
  Sm  Sm3  1  0.25000000  0.99526524  0.31028440  1
  Ge  Ge0  1  0.24999999  0.79955446  0.89400640  1
  Ge  Ge1  1  0.75000001  0.20044530  0.10599654  1
  Ge  Ge2  1  0.75000000  0.70046047  0.39398876  1
  Ge  Ge3  1  0.25000000  0.29953874  0.60600832  1
  Ir  Ir0  1  0.24999999  0.65762230  0.56994498  1
  Ir  Ir1  1  0.74999999  0.34237664  0.43005222  1
  Ir  Ir2  1  0.74999999  0.84239165  0.06993200  1
  Ir  Ir3  1  0.25000000  0.15760703  0.93007001  1
loop_
_geom_bond_atom_site_label_1
_geom_bond_atom_site_label_2
_geom_bond_distance
_geom_bond_site_symmetry_2
Ge0 Ir3 2.544851 1_565
Ge0 Ir2 2.578747 1_556
Ge0 Ir2 2.578747 1_456
Ge0 Ir0 2.642196 1_555
Ge0 Sm2 3.045398 1_465
Ge0 Sm2 3.045398 1_565
Ge0 Sm1 3.088171 1_455
Ge0 Sm1 3.088171 1_555
Ge0 Sm0 3.098004 1_556
Ge1 Ir2 2.544859 1_545
Ge1 Ir3 2.578752 1_654
Ge1 Ir3 2.578752 1_554
Ge1 Ir1 2.642153 1_555
Ge1 Sm3 3.045377 1_645
Ge1 Sm3 3.045377 1_545
Ge1 Sm0 3.088175 1_655
Ge1 Sm0 3.088175 1_555
Ge1 Sm1 3.098021 1_554
Ge2 Ir1 2.545077 1_555
Ge2 Ir0 2.578871 1_655
Ge2 Ir0 2.578871 1_555
Ge2 Ir2 2.642183 1_555
Ge2 Sm0 3.045454 1_555
Ge2 Sm0 3.045455 1_655
Ge2 Sm3 3.088074 1_655
Ge2 Sm3 3.088074 1_555
Ge2 Sm2 3.098292 1_565
Ge3 Ir0 2.545075 1_555
Ge3 Ir1 2.578870 1_555
Ge3 Ir1 2.578870 1_455
Ge3 Ir3 2.642219 1_555
Ge3 Sm1 3.045476 1_555
Ge3 Sm1 3.045476 1_455
Ge3 Sm2 3.088067 1_455
Ge3 Sm2 3.088067 1_555
Ge3 Sm3 3.098273 1_545
Ir0 Sm1 3.041823 1_455
Ir0 Sm1 3.041823 1_555
Ir0 Sm3 3.087009 1_555
Ir0 Sm0 3.089318 1_555
Ir0 Sm2 3.410354 1_465
Ir0 Sm2 3.410354 1_565
Ir1 Sm0 3.041811 1_555
Ir1 Sm0 3.041811 1_655
Ir1 Sm2 3.087003 1_555
Ir1 Sm1 3.089350 1_555
Ir1 Sm3 3.410339 1_545
Ir1 Sm3 3.410339 1_645
Ir2 Sm3 3.041602 1_655
Ir2 Sm3 3.041602 1_555
Ir2 Sm1 3.086869 1_554
Ir2 Sm2 3.088985 1_564
Ir2 Sm0 3.410296 1_555
Ir2 Sm0 3.410296 1_655
Ir3 Sm2 3.041610 1_455
Ir3 Sm2 3.041611 1_555
Ir3 Sm0 3.086878 1_556
Ir3 Sm3 3.088955 1_546
Ir3 Sm1 3.410310 1_455
Ir3 Sm1 3.410310 1_555
