# generated using pymatgen
data_Tb2Co3Ge5
_symmetry_space_group_name_H-M   'P 1'
_cell_length_a   8.09625962
_cell_length_b   8.09625962
_cell_length_c   5.73361276
_cell_angle_alpha   70.28801976
_cell_angle_beta   70.28801976
_cell_angle_gamma   93.46900954
_symmetry_Int_Tables_number   1
_chemical_formula_structural   Tb2Co3Ge5
_chemical_formula_sum   'Tb4 Co6 Ge10'
_cell_volume   326.57424939
_cell_formula_units_Z   2
loop_
 _symmetry_equiv_pos_site_id
 _symmetry_equiv_pos_as_xyz
  1  'x, y, z'
loop_
 _atom_site_type_symbol
 _atom_site_label
 _atom_site_symmetry_multiplicity
 _atom_site_fract_x
 _atom_site_fract_y
 _atom_site_fract_z
 _atom_site_occupancy
  Tb  Tb0  1  0.59286600  0.87148900  0.76715800  1
  Tb  Tb1  1  0.12851100  0.40713400  0.73284200  1
  Tb  Tb2  1  0.40713400  0.12851100  0.23284200  1
  Tb  Tb3  1  0.87148900  0.59286600  0.26715800  1
  Co  Co0  1  0.54217500  0.26075500  0.61727500  1
  Co  Co1  1  0.73924500  0.45782500  0.88272500  1
  Co  Co2  1  0.45782500  0.73924500  0.38272500  1
  Co  Co3  1  0.26075500  0.54217500  0.11727500  1
  Co  Co4  1  0.99782300  0.00217700  0.75000000  1
  Co  Co5  1  0.00217700  0.99782300  0.25000000  1
  Ge  Ge0  1  0.49244500  0.50755500  0.75000000  1
  Ge  Ge1  1  0.50755500  0.49244500  0.25000000  1
  Ge  Ge2  1  0.26157500  0.07732200  0.82808800  1
  Ge  Ge3  1  0.92267800  0.73842500  0.67191200  1
  Ge  Ge4  1  0.73842500  0.92267800  0.17191200  1
  Ge  Ge5  1  0.07732200  0.26157500  0.32808800  1
  Ge  Ge6  1  0.78516900  0.21483100  0.75000000  1
  Ge  Ge7  1  0.21483100  0.78516900  0.25000000  1
  Ge  Ge8  1  0.22584400  0.77415600  0.75000000  1
  Ge  Ge9  1  0.77415600  0.22584400  0.25000000  1
loop_
_geom_bond_atom_site_label_1
_geom_bond_atom_site_label_2
_geom_bond_distance
_geom_bond_site_symmetry_2
Co0 Ge2 2.314318 1_555
Co0 Ge6 2.344224 1_555
Co0 Ge0 2.377032 1_555
Co0 Ge1 2.414295 1_555
Co0 Ge9 2.416528 1_555
Co1 Ge3 2.314318 1_555
Co1 Ge6 2.344224 1_555
Co1 Ge0 2.377032 1_555
Co1 Ge1 2.414295 1_556
Co1 Ge9 2.416528 1_556
Co2 Ge4 2.314318 1_555
Co2 Ge7 2.344224 1_555
Co2 Ge1 2.377032 1_555
Co2 Ge0 2.414295 1_555
Co2 Ge8 2.416528 1_555
Co3 Ge5 2.314318 1_555
Co3 Ge7 2.344224 1_555
Co3 Ge1 2.377032 1_555
Co3 Ge0 2.414295 1_554
Co3 Ge8 2.416528 1_554
Co4 Ge3 2.408742 1_545
Co4 Ge2 2.408742 1_655
Co4 Ge4 2.456777 1_546
Co4 Ge5 2.456777 1_655
Co4 Ge6 2.507437 1_555
Co4 Ge8 2.688632 1_645
Co5 Ge4 2.408742 1_455
Co5 Ge5 2.408742 1_565
Co5 Ge3 2.456777 1_455
Co5 Ge2 2.456777 1_564
Co5 Ge7 2.507437 1_555
Co5 Ge9 2.688632 1_465
Ge0 Tb1 3.051586 1_555
Ge0 Tb0 3.051586 1_555
Ge0 Tb2 3.206468 1_556
Ge0 Tb3 3.206468 1_555
Ge1 Tb2 3.051586 1_555
Ge1 Tb3 3.051586 1_555
Ge1 Tb1 3.206468 1_555
Ge1 Tb0 3.206468 1_554
Ge2 Ge7 2.646540 1_546
Ge2 Ge8 2.655475 1_545
Ge2 Tb1 2.889699 1_555
Ge2 Tb2 3.062821 1_556
Ge2 Tb2 3.079294 1_555
Ge2 Tb0 3.224134 1_545
Ge3 Ge7 2.646540 1_655
Ge3 Ge8 2.655475 1_655
Ge3 Tb0 2.889699 1_555
Ge3 Tb3 3.062821 1_555
Ge3 Tb3 3.079294 1_556
Ge3 Tb1 3.224134 1_655
Ge4 Ge6 2.646540 1_564
Ge4 Ge9 2.655475 1_565
Ge4 Tb3 2.889699 1_555
Ge4 Tb0 3.062821 1_554
Ge4 Tb0 3.079294 1_555
Ge4 Tb2 3.224134 1_565
Ge5 Ge6 2.646540 1_455
Ge5 Ge9 2.655475 1_455
Ge5 Tb2 2.889699 1_555
Ge5 Tb1 3.062821 1_555
Ge5 Tb1 3.079294 1_554
Ge5 Tb3 3.224134 1_455
Ge6 Ge9 2.869746 1_556
Ge6 Ge9 2.869746 1_555
Ge6 Tb0 3.057675 1_545
Ge6 Tb1 3.057675 1_655
Ge6 Tb2 3.200059 1_556
Ge6 Tb3 3.200059 1_555
Ge7 Ge8 2.869746 1_555
Ge7 Ge8 2.869746 1_554
Ge7 Tb3 3.057675 1_455
Ge7 Tb2 3.057675 1_565
Ge7 Tb0 3.200059 1_554
Ge7 Tb1 3.200059 1_555
Ge8 Tb1 3.070283 1_555
Ge8 Tb0 3.070283 1_555
Ge8 Tb3 3.161225 1_456
Ge8 Tb2 3.161225 1_565
Ge9 Tb2 3.070283 1_555
Ge9 Tb3 3.070283 1_555
Ge9 Tb0 3.161225 1_545
Ge9 Tb1 3.161225 1_654
