# generated using pymatgen
data_Mg14VCd
_symmetry_space_group_name_H-M   'P 1'
_cell_length_a   6.32316109
_cell_length_b   6.32316058
_cell_length_c   10.17524469
_cell_angle_alpha   90.00000000
_cell_angle_beta   90.00000000
_cell_angle_gamma   120.00000269
_symmetry_Int_Tables_number   1
_chemical_formula_structural   Mg14VCd
_chemical_formula_sum   'Mg14 V1 Cd1'
_cell_volume   352.32538827
_cell_formula_units_Z   1
loop_
 _symmetry_equiv_pos_site_id
 _symmetry_equiv_pos_as_xyz
  1  'x, y, z'
loop_
 _atom_site_type_symbol
 _atom_site_label
 _atom_site_symmetry_multiplicity
 _atom_site_fract_x
 _atom_site_fract_y
 _atom_site_fract_z
 _atom_site_occupancy
  Mg  Mg0  1  0.16832306  0.83416103  0.12500000  1
  Mg  Mg1  1  0.16563500  0.83281700  0.62500000  1
  Mg  Mg2  1  0.66583897  0.33167694  0.12500000  1
  Mg  Mg3  1  0.66718300  0.33436500  0.62500000  1
  Mg  Mg4  1  0.66583897  0.83416103  0.12500000  1
  Mg  Mg5  1  0.66718300  0.83281700  0.62500000  1
  Mg  Mg6  1  0.33053213  0.16946787  0.37261910  1
  Mg  Mg7  1  0.33053213  0.16946787  0.87738090  1
  Mg  Mg8  1  0.33053213  0.66106526  0.37261910  1
  Mg  Mg9  1  0.33053213  0.66106526  0.87738090  1
  Mg  Mg10  1  0.83893474  0.16946787  0.37261910  1
  Mg  Mg11  1  0.83893474  0.16946787  0.87738090  1
  Mg  Mg12  1  0.83333300  0.66666700  0.37516657  1
  Mg  Mg13  1  0.83333300  0.66666700  0.87483343  1
  V  V0  1  0.16666700  0.33333300  0.12500000  1
  Cd  Cd0  1  0.16666700  0.33333300  0.62500000  1
loop_
_geom_bond_atom_site_label_1
_geom_bond_atom_site_label_2
_geom_bond_distance
_geom_bond_site_symmetry_2
Mg0 Mg8 3.117834 1_555
Mg0 Mg9 3.117834 1_554
Mg0 Mg6 3.117840 1_565
Mg0 Mg7 3.117840 1_564
Mg0 Mg13 3.137621 1_454
Mg0 Mg12 3.137621 1_455
Mg0 Mg2 3.145873 1_565
Mg0 Mg4 3.145873 1_555
Mg0 V0 3.161593 1_555
Mg0 V0 3.161593 1_565
Mg0 Mg2 3.177288 1_455
Mg0 Mg4 3.177288 1_455
Mg1 Mg12 3.126281 1_455
Mg1 Mg13 3.126281 1_455
Mg1 Mg3 3.151792 1_455
Mg1 Mg5 3.151792 1_455
Mg1 Mg9 3.161291 1_555
Mg1 Mg8 3.161291 1_555
Mg1 Mg7 3.161297 1_565
Mg1 Mg6 3.161297 1_565
Mg1 Mg3 3.171369 1_565
Mg1 Mg5 3.171369 1_555
Mg2 Mg6 3.117840 1_555
Mg2 Mg7 3.117840 1_554
Mg2 Mg4 3.145873 1_545
Mg2 V0 3.161594 1_655
Mg2 V0 3.161594 1_555
Mg2 Mg4 3.177288 1_555
Mg3 Mg5 3.151792 1_555
Mg3 Mg7 3.161297 1_555
Mg3 Mg6 3.161297 1_555
Mg3 Mg5 3.171369 1_545
Mg4 Mg8 3.117840 1_555
Mg4 Mg9 3.117840 1_554
Mg4 V0 3.161593 1_555
Mg4 V0 3.161593 1_665
Mg5 Mg9 3.161297 1_555
Mg5 Mg8 3.161297 1_555
Mg6 V0 3.093396 1_555
Mg6 Mg8 3.108449 1_555
Mg6 Mg8 3.214711 1_545
Mg7 V0 3.093396 1_556
Mg7 Mg9 3.108449 1_555
Mg7 Mg9 3.214711 1_545
Mg8 V0 3.093403 1_555
Mg9 V0 3.093403 1_556
Mg10 V0 3.093403 1_655
Mg10 Mg8 3.108449 1_655
Mg10 Mg6 3.108449 1_655
Mg10 Mg2 3.117834 1_555
Mg10 Mg4 3.117840 1_545
Mg10 Mg3 3.161291 1_555
Mg10 Mg5 3.161297 1_545
Mg10 Mg12 3.161835 1_545
Mg10 Mg12 3.161835 1_555
Mg10 Mg8 3.214711 1_545
Mg10 Mg6 3.214712 1_555
Mg11 V0 3.093403 1_656
Mg11 Mg9 3.108449 1_655
Mg11 Mg7 3.108449 1_655
Mg11 Mg2 3.117834 1_556
Mg11 Mg4 3.117840 1_546
Mg11 Mg3 3.161291 1_555
Mg11 Mg5 3.161297 1_545
Mg11 Mg13 3.161835 1_545
Mg11 Mg13 3.161835 1_555
Mg11 Mg9 3.214711 1_545
Mg11 Mg7 3.214712 1_555
Mg12 Mg5 3.126275 1_555
Mg12 Mg3 3.126281 1_555
Mg12 Mg4 3.137615 1_555
Mg12 Mg2 3.137621 1_555
Mg12 Mg6 3.161835 1_665
Mg12 Mg6 3.161835 1_555
Mg12 Mg8 3.161836 1_555
Mg12 Mg8 3.161836 1_655
Mg13 Mg5 3.126275 1_555
Mg13 Mg3 3.126281 1_555
Mg13 Mg4 3.137615 1_556
Mg13 Mg2 3.137621 1_556
Mg13 Mg7 3.161835 1_665
Mg13 Mg7 3.161835 1_555
Mg13 Mg9 3.161836 1_555
Mg13 Mg9 3.161836 1_655
Cd0 Mg7 3.132987 1_555
Cd0 Mg6 3.132987 1_555
Cd0 Mg9 3.132993 1_555
Cd0 Mg8 3.132993 1_555
Cd0 Mg11 3.132994 1_455
Cd0 Mg10 3.132994 1_455
Cd0 Mg5 3.161585 1_445
Cd0 Mg5 3.161585 1_555
Cd0 Mg1 3.161585 1_545
Cd0 Mg1 3.161585 1_555
Cd0 Mg3 3.161586 1_555
Cd0 Mg3 3.161586 1_455
