# generated using pymatgen
data_MgTiAs2O7
_symmetry_space_group_name_H-M   'P 1'
_cell_length_a   8.56644300
_cell_length_b   8.36142200
_cell_length_c   10.89391816
_cell_angle_alpha   55.25699020
_cell_angle_beta   90.00000000
_cell_angle_gamma   90.00000000
_symmetry_Int_Tables_number   1
_chemical_formula_structural   MgTiAs2O7
_chemical_formula_sum   'Mg4 Ti4 As8 O28'
_cell_volume   641.19004894
_cell_formula_units_Z   4
loop_
 _symmetry_equiv_pos_site_id
 _symmetry_equiv_pos_as_xyz
  1  'x, y, z'
loop_
 _atom_site_type_symbol
 _atom_site_label
 _atom_site_symmetry_multiplicity
 _atom_site_fract_x
 _atom_site_fract_y
 _atom_site_fract_z
 _atom_site_occupancy
  Mg  Mg0  1  0.11726900  0.67031700  0.87755500  1
  Mg  Mg1  1  0.61726900  0.32968300  0.62244500  1
  Mg  Mg2  1  0.88273100  0.32968300  0.12244500  1
  Mg  Mg3  1  0.38273100  0.67031700  0.37755500  1
  Ti  Ti0  1  0.97256300  0.15395400  0.71303600  1
  Ti  Ti1  1  0.47256300  0.84604600  0.78696400  1
  Ti  Ti2  1  0.02743700  0.84604600  0.28696400  1
  Ti  Ti3  1  0.52743700  0.15395400  0.21303600  1
  As  As0  1  0.77359500  0.56171800  0.76497200  1
  As  As1  1  0.27359500  0.43828200  0.73502800  1
  As  As2  1  0.22640500  0.43828200  0.23502800  1
  As  As3  1  0.72640500  0.56171800  0.26497200  1
  As  As4  1  0.69620200  0.99058300  0.96552900  1
  As  As5  1  0.19620200  0.00941700  0.53447100  1
  As  As6  1  0.30379800  0.00941700  0.03447100  1
  As  As7  1  0.80379800  0.99058300  0.46552900  1
  O  O0  1  0.67461400  0.25391600  0.08467200  1
  O  O1  1  0.17461400  0.74608400  0.41532800  1
  O  O2  1  0.32538600  0.74608400  0.91532800  1
  O  O3  1  0.82538600  0.25391600  0.58467200  1
  O  O4  1  0.61244200  0.67423700  0.77784500  1
  O  O5  1  0.11244200  0.32576300  0.72215500  1
  O  O6  1  0.38755800  0.32576300  0.22215500  1
  O  O7  1  0.88755800  0.67423700  0.27784500  1
  O  O8  1  0.91136300  0.52941000  0.89191600  1
  O  O9  1  0.41136300  0.47059000  0.60808400  1
  O  O10  1  0.08863700  0.47059000  0.10808400  1
  O  O11  1  0.58863700  0.52941000  0.39191600  1
  O  O12  1  0.84688500  0.71972100  0.58235300  1
  O  O13  1  0.34688500  0.28027900  0.91764700  1
  O  O14  1  0.15311500  0.28027900  0.41764700  1
  O  O15  1  0.65311500  0.71972100  0.08235300  1
  O  O16  1  0.92059300  0.03215900  0.30799400  1
  O  O17  1  0.42059300  0.96784100  0.19200600  1
  O  O18  1  0.07940700  0.96784100  0.69200600  1
  O  O19  1  0.57940700  0.03215900  0.80799400  1
  O  O20  1  0.76733400  0.35958400  0.27114000  1
  O  O21  1  0.26733400  0.64041600  0.22886000  1
  O  O22  1  0.23266600  0.64041600  0.72886000  1
  O  O23  1  0.73266600  0.35958400  0.77114000  1
  O  O24  1  0.61713100  0.97624500  0.39665700  1
  O  O25  1  0.11713100  0.02375500  0.10334300  1
  O  O26  1  0.38286900  0.02375500  0.60334300  1
  O  O27  1  0.88286900  0.97624500  0.89665700  1
loop_
_geom_bond_atom_site_label_1
_geom_bond_atom_site_label_2
_geom_bond_distance
_geom_bond_site_symmetry_2
Mg0 O2 2.011533 1_555
Mg0 O22 2.031086 1_555
Mg0 O8 2.076964 1_455
Mg0 O10 2.091828 1_556
Mg0 O18 2.155994 1_555
Mg1 O3 2.011533 1_555
Mg1 O23 2.031086 1_555
Mg1 O9 2.076964 1_555
Mg1 O11 2.091828 1_555
Mg1 O19 2.155994 1_555
Mg2 O0 2.011533 1_555
Mg2 O20 2.031086 1_555
Mg2 O10 2.076964 1_655
Mg2 O8 2.091828 1_554
Mg2 O16 2.155994 1_555
Mg3 O1 2.011533 1_555
Mg3 O21 2.031086 1_555
Mg3 O11 2.076964 1_555
Mg3 O9 2.091828 1_555
Mg3 O17 2.155994 1_555
As0 O23 1.689537 1_555
As0 O8 1.718272 1_555
As0 O4 1.720753 1_555
As0 O12 1.761163 1_555
As1 O22 1.689537 1_555
As1 O9 1.718272 1_555
As1 O5 1.720753 1_555
As1 O13 1.761163 1_555
As2 O21 1.689537 1_555
As2 O10 1.718272 1_555
As2 O6 1.720753 1_555
As2 O14 1.761163 1_555
As3 O20 1.689537 1_555
As3 O11 1.718272 1_555
As3 O7 1.720753 1_555
As3 O15 1.761163 1_555
As4 O27 1.799127 1_555
As4 O19 1.840417 1_565
As4 O15 1.897352 1_556
As5 O26 1.799127 1_555
As5 O18 1.840417 1_545
As5 O14 1.897352 1_555
As6 O25 1.799127 1_555
As6 O17 1.840417 1_545
As6 O13 1.897352 1_554
As7 O24 1.799127 1_555
As7 O16 1.840417 1_565
As7 O12 1.897352 1_555
O0 Ti3 1.706302 1_555
O1 Ti2 1.706302 1_555
O2 Ti1 1.706302 1_555
O3 Ti0 1.706302 1_555
O4 Ti1 1.916271 1_555
O5 Ti0 1.916271 1_455
O6 Ti3 1.916271 1_555
O7 Ti2 1.916271 1_655
O16 Ti2 1.928271 1_645
O17 Ti3 1.928271 1_565
O18 Ti0 1.928271 1_465
O19 Ti1 1.928271 1_545
O24 Ti3 1.847119 1_565
O25 Ti2 1.847119 1_545
O26 Ti1 1.847119 1_545
O27 Ti0 1.847119 1_565
