# generated using pymatgen
data_Mg2Si4O11
_symmetry_space_group_name_H-M   'P 1'
_cell_length_a   11.27818347
_cell_length_b   11.27818347
_cell_length_c   5.34281427
_cell_angle_alpha   82.96706774
_cell_angle_beta   82.96706774
_cell_angle_gamma   103.95494309
_symmetry_Int_Tables_number   1
_chemical_formula_structural   Mg2Si4O11
_chemical_formula_sum   'Mg4 Si8 O22'
_cell_volume   646.37355817
_cell_formula_units_Z   2
loop_
 _symmetry_equiv_pos_site_id
 _symmetry_equiv_pos_as_xyz
  1  'x, y, z'
loop_
 _atom_site_type_symbol
 _atom_site_label
 _atom_site_symmetry_multiplicity
 _atom_site_fract_x
 _atom_site_fract_y
 _atom_site_fract_z
 _atom_site_occupancy
  Mg  Mg0  1  0.15460700  0.84539300  0.50000000  1
  Mg  Mg1  1  0.84539300  0.15460700  0.50000000  1
  Mg  Mg2  1  0.10287100  0.89712900  0.00000000  1
  Mg  Mg3  1  0.89712900  0.10287100  0.00000000  1
  Si  Si0  1  0.29727200  0.12267900  0.59913500  1
  Si  Si1  1  0.70272800  0.87732100  0.40086500  1
  Si  Si2  1  0.87732100  0.70272800  0.40086500  1
  Si  Si3  1  0.12267900  0.29727200  0.59913500  1
  Si  Si4  1  0.37769600  0.04407600  0.09758800  1
  Si  Si5  1  0.62230400  0.95592400  0.90241200  1
  Si  Si6  1  0.95592400  0.62230400  0.90241200  1
  Si  Si7  1  0.04407600  0.37769600  0.09758800  1
  O  O0  1  0.25989600  0.92215900  0.17011200  1
  O  O1  1  0.74010400  0.07784100  0.82988800  1
  O  O2  1  0.07784100  0.74010400  0.82988800  1
  O  O3  1  0.92215900  0.25989600  0.17011200  1
  O  O4  1  0.39610300  0.11459000  0.34965000  1
  O  O5  1  0.60389700  0.88541000  0.65035000  1
  O  O6  1  0.88541000  0.60389700  0.65035000  1
  O  O7  1  0.11459000  0.39610300  0.34965000  1
  O  O8  1  0.63719400  0.85799400  0.14442100  1
  O  O9  1  0.36280600  0.14200600  0.85557900  1
  O  O10  1  0.14200600  0.36280600  0.85557900  1
  O  O11  1  0.85799400  0.63719400  0.14442100  1
  O  O12  1  0.24125500  0.24125500  0.52921900  1
  O  O13  1  0.75874500  0.75874500  0.47078100  1
  O  O14  1  0.06046900  0.06046900  0.09693400  1
  O  O15  1  0.93953100  0.93953100  0.90306600  1
  O  O16  1  0.50000000  0.00000000  0.00000000  1
  O  O17  1  0.00000000  0.50000000  0.00000000  1
  O  O18  1  0.19163000  0.99229500  0.66380500  1
  O  O19  1  0.80837000  0.00770500  0.33619500  1
  O  O20  1  0.00770500  0.80837000  0.33619500  1
  O  O21  1  0.99229500  0.19163000  0.66380500  1
loop_
_geom_bond_atom_site_label_1
_geom_bond_atom_site_label_2
_geom_bond_distance
_geom_bond_site_symmetry_2
Mg0 O18 1.948366 1_555
Mg0 O20 1.948366 1_555
Mg0 O2 1.970814 1_555
Mg0 O0 1.970814 1_555
Mg1 O21 1.948366 1_555
Mg1 O19 1.948366 1_555
Mg1 O1 1.970814 1_555
Mg1 O3 1.970814 1_555
Mg2 O20 1.987425 1_555
Mg2 O18 1.987425 1_554
Mg2 O2 2.063466 1_554
Mg2 O0 2.063466 1_555
Mg2 O14 2.118589 1_565
Mg2 O15 2.118589 1_454
Mg3 O19 1.987425 1_555
Mg3 O21 1.987425 1_554
Mg3 O1 2.063466 1_554
Mg3 O3 2.063466 1_555
Mg3 O14 2.118589 1_655
Mg3 O15 2.118589 1_544
O0 Si4 1.633477 1_565
O1 Si5 1.633477 1_545
O2 Si6 1.633477 1_455
O3 Si7 1.633477 1_655
O4 Si4 1.655388 1_555
O4 Si0 1.656045 1_555
O5 Si5 1.655388 1_555
O5 Si1 1.656045 1_555
O6 Si6 1.655388 1_555
O6 Si2 1.656045 1_555
O7 Si7 1.655388 1_555
O7 Si3 1.656045 1_555
O8 Si5 1.647074 1_554
O8 Si1 1.647563 1_555
O9 Si4 1.647074 1_556
O9 Si0 1.647563 1_555
O10 Si7 1.647074 1_556
O10 Si3 1.647563 1_555
O11 Si6 1.647074 1_554
O11 Si2 1.647563 1_555
O12 Si0 1.634032 1_555
O12 Si3 1.634032 1_555
O13 Si1 1.634032 1_555
O13 Si2 1.634032 1_555
O16 Si5 1.624709 1_544
O16 Si4 1.624709 1_555
O17 Si6 1.624709 1_454
O17 Si7 1.624709 1_555
O18 Si0 1.622046 1_565
O19 Si1 1.622046 1_545
O20 Si2 1.622046 1_455
O21 Si3 1.622046 1_655
