# generated using pymatgen
data_Mg2TaCrO6
_symmetry_space_group_name_H-M   'P 1'
_cell_length_a   5.18656701
_cell_length_b   10.75252814
_cell_length_c   7.59444200
_cell_angle_alpha   89.99946118
_cell_angle_beta   90.00023634
_cell_angle_gamma   89.61568476
_symmetry_Int_Tables_number   1
_chemical_formula_structural   Mg2TaCrO6
_chemical_formula_sum   'Mg8 Ta4 Cr4 O24'
_cell_volume   423.52268875
_cell_formula_units_Z   4
loop_
 _symmetry_equiv_pos_site_id
 _symmetry_equiv_pos_as_xyz
  1  'x, y, z'
loop_
 _atom_site_type_symbol
 _atom_site_label
 _atom_site_symmetry_multiplicity
 _atom_site_fract_x
 _atom_site_fract_y
 _atom_site_fract_z
 _atom_site_occupancy
  Mg  Mg0  1  0.99905700  0.48094600  0.24991400  1
  Mg  Mg1  1  0.99889900  0.98098100  0.25001100  1
  Mg  Mg2  1  0.00106000  0.01903200  0.74995500  1
  Mg  Mg3  1  0.00106100  0.51901700  0.74995800  1
  Mg  Mg4  1  0.48983100  0.21784200  0.25004700  1
  Mg  Mg5  1  0.48981900  0.71781900  0.24992600  1
  Mg  Mg6  1  0.51009100  0.28213200  0.74989500  1
  Mg  Mg7  1  0.51006200  0.78217700  0.75000200  1
  Ta  Ta0  1  0.99998300  0.25000700  0.00002600  1
  Ta  Ta1  1  0.99999700  0.75004700  0.99993200  1
  Ta  Ta2  1  0.99998000  0.24998500  0.50002700  1
  Ta  Ta3  1  0.99994500  0.74999900  0.49994400  1
  Cr  Cr0  1  0.49998400  0.50007100  0.00017900  1
  Cr  Cr1  1  0.50000300  0.49997600  0.49986700  1
  Cr  Cr2  1  0.49999300  0.99991700  0.99997000  1
  Cr  Cr3  1  0.50006800  0.99985400  0.50016400  1
  O  O0  1  0.12981600  0.21881200  0.75004700  1
  O  O1  1  0.12980500  0.71884000  0.74992500  1
  O  O2  1  0.87021800  0.28121700  0.25008300  1
  O  O3  1  0.87014800  0.78121300  0.24998200  1
  O  O4  1  0.62587200  0.03565100  0.24999400  1
  O  O5  1  0.62592400  0.53569600  0.25000500  1
  O  O6  1  0.37410600  0.46433000  0.75000800  1
  O  O7  1  0.37407300  0.96428700  0.75000300  1
  O  O8  1  0.82500500  0.40649900  0.56652200  1
  O  O9  1  0.82519500  0.90651100  0.56652100  1
  O  O10  1  0.17499900  0.09349000  0.43347800  1
  O  O11  1  0.17481200  0.59349500  0.43344200  1
  O  O12  1  0.82518900  0.40656700  0.93351600  1
  O  O13  1  0.82512700  0.90652200  0.93343800  1
  O  O14  1  0.17483900  0.09346000  0.06652000  1
  O  O15  1  0.17495300  0.59356000  0.06655100  1
  O  O16  1  0.31720300  0.33982700  0.43349100  1
  O  O17  1  0.31720500  0.83979100  0.43334000  1
  O  O18  1  0.68283100  0.16018900  0.93337500  1
  O  O19  1  0.68284900  0.66021800  0.93338100  1
  O  O20  1  0.68284100  0.16015500  0.56663500  1
  O  O21  1  0.68279600  0.66021500  0.56659200  1
  O  O22  1  0.31714100  0.33984200  0.06670200  1
  O  O23  1  0.31722000  0.83981200  0.06663000  1
loop_
_geom_bond_atom_site_label_1
_geom_bond_atom_site_label_2
_geom_bond_distance
_geom_bond_site_symmetry_2
Mg0 O5 2.019057 1_555
Mg0 O15 2.062157 1_655
Mg0 O11 2.062275 1_655
Mg0 O2 2.253428 1_555
Mg0 O22 2.631757 1_655
Mg0 O16 2.633494 1_655
Mg0 O12 2.690034 1_554
Mg0 O8 2.691993 1_555
Mg1 O4 2.018286 1_565
Mg1 O14 2.062060 1_665
Mg1 O10 2.062508 1_665
Mg1 O3 2.253690 1_555
Mg2 O7 2.018446 1_545
Mg2 O9 2.061870 1_445
Mg2 O13 2.062199 1_445
Mg2 O0 2.253821 1_555
Mg2 O20 2.632722 1_455
Mg2 O18 2.633387 1_455
Mg2 O10 2.690942 1_555
Mg2 O14 2.691169 1_556
Mg3 O6 2.018427 1_555
Mg3 O12 2.062062 1_455
Mg3 O8 2.062304 1_455
Mg3 O1 2.254244 1_555
Mg4 O4 2.077750 1_555
Mg4 O2 2.091589 1_555
Mg4 O22 2.108564 1_555
Mg4 O16 2.108847 1_555
Mg4 O10 2.534574 1_555
Mg4 O14 2.535690 1_555
Mg4 O20 2.675667 1_555
Mg4 O18 2.676155 1_554
Mg5 O5 2.077173 1_555
Mg5 O3 2.091372 1_555
Mg5 O23 2.108073 1_555
Mg5 O17 2.108579 1_555
Mg5 O15 2.533929 1_555
Mg5 O11 2.535357 1_555
Mg5 O19 2.675218 1_554
Mg5 O21 2.675931 1_555
Mg6 O6 2.077724 1_555
Mg6 O0 2.090843 1_555
Mg6 O20 2.108137 1_555
Mg6 O18 2.108971 1_555
Mg6 O8 2.534693 1_555
Mg6 O12 2.536742 1_555
Mg6 O16 2.674195 1_555
Mg6 O22 2.677120 1_556
Mg7 O7 2.076841 1_555
Mg7 O1 2.090816 1_555
Mg7 O19 2.108673 1_555
Mg7 O21 2.108754 1_555
Mg7 O13 2.535344 1_555
Mg7 O9 2.535691 1_555
Mg7 O23 2.675505 1_556
Mg7 O17 2.675697 1_555
Cr0 O15 2.020836 1_555
Cr0 O12 2.022217 1_554
Cr0 O19 2.035686 1_554
Cr0 O22 2.035862 1_555
Cr0 O5 2.043640 1_555
Cr0 O6 2.046206 1_554
Cr1 O8 2.021176 1_555
Cr1 O11 2.021776 1_555
Cr1 O16 2.034755 1_555
Cr1 O21 2.036218 1_555
Cr1 O5 2.044055 1_555
Cr1 O6 2.045831 1_555
Cr2 O13 2.021086 1_555
Cr2 O14 2.021989 1_566
Cr2 O23 2.034817 1_556
Cr2 O18 2.036378 1_565
Cr2 O7 2.044611 1_555
Cr2 O4 2.045157 1_566
Cr3 O9 2.020441 1_555
Cr3 O10 2.022365 1_565
Cr3 O17 2.034970 1_555
Cr3 O20 2.036256 1_565
Cr3 O7 2.043704 1_555
Cr3 O4 2.046189 1_565
O0 Ta0 2.041340 1_456
O0 Ta2 2.041585 1_455
O1 Ta3 2.041327 1_455
O1 Ta1 2.041516 1_455
O2 Ta2 2.041025 1_555
O2 Ta0 2.041801 1_555
O3 Ta3 2.041181 1_555
O3 Ta1 2.041818 1_554
O8 Ta2 1.972401 1_555
O9 Ta3 1.972012 1_555
O10 Ta2 1.972436 1_455
O11 Ta3 1.972068 1_455
O12 Ta0 1.972414 1_556
O13 Ta1 1.971785 1_555
O14 Ta0 1.972410 1_455
O15 Ta1 1.972340 1_454
O16 Ta2 1.979108 1_455
O17 Ta3 1.979135 1_455
O18 Ta0 1.978898 1_556
O19 Ta1 1.978745 1_555
O20 Ta2 1.978821 1_555
O21 Ta3 1.978697 1_555
O22 Ta0 1.979063 1_455
O23 Ta1 1.979015 1_454
