# generated using pymatgen
data_K2CrF6
_symmetry_space_group_name_H-M   'P 1'
_cell_length_a   5.73175812
_cell_length_b   5.73072243
_cell_length_c   5.74504542
_cell_angle_alpha   60.11604708
_cell_angle_beta   60.09857462
_cell_angle_gamma   59.98900933
_symmetry_Int_Tables_number   1
_chemical_formula_structural   K2CrF6
_chemical_formula_sum   'K2 Cr1 F6'
_cell_volume   133.64170282
_cell_formula_units_Z   1
loop_
 _symmetry_equiv_pos_site_id
 _symmetry_equiv_pos_as_xyz
  1  'x, y, z'
loop_
 _atom_site_type_symbol
 _atom_site_label
 _atom_site_symmetry_multiplicity
 _atom_site_fract_x
 _atom_site_fract_y
 _atom_site_fract_z
 _atom_site_occupancy
  K  K0  1  0.25001523  0.25011423  0.24976940  1
  K  K1  1  0.74998220  0.74988644  0.75023510  1
  Cr  Cr0  1  0.00000172  -0.00000036  -0.00000440  1
  F  F0  1  0.77467870  0.22487988  0.22579923  1
  F  F1  1  0.22532151  0.77512026  0.77419732  1
  F  F2  1  0.22489603  0.77460190  0.22584770  1
  F  F3  1  0.77510585  0.22539662  0.77415513  1
  F  F4  1  0.22536664  0.22541526  0.77415398  1
  F  F5  1  0.77463211  0.77458577  0.22584653  1
loop_
_geom_bond_atom_site_label_1
_geom_bond_atom_site_label_2
_geom_bond_distance
_geom_bond_site_symmetry_2
Cr0 F1 1.828153 1_544
Cr0 F0 1.828178 1_455
Cr0 F3 1.829040 1_454
Cr0 F2 1.829081 1_545
Cr0 F4 1.829968 1_554
Cr0 F5 1.829981 1_445
F0 K0 2.872437 1_655
F0 K0 2.873207 1_555
F0 K1 2.880096 1_545
F0 K1 2.881842 1_554
F1 K1 2.872427 1_455
F1 K1 2.873213 1_555
F1 K0 2.880072 1_565
F1 K0 2.881861 1_556
F2 K0 2.872110 1_555
F2 K0 2.872419 1_565
F2 K1 2.879245 1_455
F2 K1 2.881725 1_554
F3 K1 2.872115 1_555
F3 K1 2.872415 1_545
F3 K0 2.879228 1_655
F3 K0 2.881743 1_556
F4 K1 2.871652 1_455
F4 K1 2.872481 1_545
F4 K0 2.878640 1_555
F4 K0 2.880359 1_556
F5 K0 2.871649 1_655
F5 K0 2.872485 1_565
F5 K1 2.878658 1_555
F5 K1 2.880342 1_554
