# generated using pymatgen
data_LiIrN2
_symmetry_space_group_name_H-M   'P 1'
_cell_length_a   5.18486200
_cell_length_b   10.46658200
_cell_length_c   15.17987200
_cell_angle_alpha   90.00000000
_cell_angle_beta   90.00000000
_cell_angle_gamma   90.00000000
_symmetry_Int_Tables_number   1
_chemical_formula_structural   LiIrN2
_chemical_formula_sum   'Li16 Ir16 N32'
_cell_volume   823.77800394
_cell_formula_units_Z   16
loop_
 _symmetry_equiv_pos_site_id
 _symmetry_equiv_pos_as_xyz
  1  'x, y, z'
loop_
 _atom_site_type_symbol
 _atom_site_label
 _atom_site_symmetry_multiplicity
 _atom_site_fract_x
 _atom_site_fract_y
 _atom_site_fract_z
 _atom_site_occupancy
  Li  Li0  1  0.33642200  0.98587700  0.43114200  1
  Li  Li1  1  0.83642200  0.51412300  0.56885800  1
  Li  Li2  1  0.66357800  0.48587700  0.06885800  1
  Li  Li3  1  0.16357800  0.01412300  0.93114200  1
  Li  Li4  1  0.66357800  0.01412300  0.56885800  1
  Li  Li5  1  0.16357800  0.48587700  0.43114200  1
  Li  Li6  1  0.33642200  0.51412300  0.93114200  1
  Li  Li7  1  0.83642200  0.98587700  0.06885800  1
  Li  Li8  1  0.21387700  0.29556500  0.30104300  1
  Li  Li9  1  0.71387700  0.20443500  0.69895700  1
  Li  Li10  1  0.78612300  0.79556500  0.19895700  1
  Li  Li11  1  0.28612300  0.70443500  0.80104300  1
  Li  Li12  1  0.78612300  0.70443500  0.69895700  1
  Li  Li13  1  0.28612300  0.79556500  0.30104300  1
  Li  Li14  1  0.21387700  0.20443500  0.80104300  1
  Li  Li15  1  0.71387700  0.29556500  0.19895700  1
  Ir  Ir0  1  0.87529000  0.02727200  0.30224100  1
  Ir  Ir1  1  0.37529000  0.47272800  0.69775900  1
  Ir  Ir2  1  0.12471000  0.52727200  0.19775900  1
  Ir  Ir3  1  0.62471000  0.97272800  0.80224100  1
  Ir  Ir4  1  0.12471000  0.97272800  0.69775900  1
  Ir  Ir5  1  0.62471000  0.52727200  0.30224100  1
  Ir  Ir6  1  0.87529000  0.47272800  0.80224100  1
  Ir  Ir7  1  0.37529000  0.02727200  0.19775900  1
  Ir  Ir8  1  0.71088900  0.26940800  0.43277700  1
  Ir  Ir9  1  0.21088900  0.23059200  0.56722300  1
  Ir  Ir10  1  0.28911100  0.76940800  0.06722300  1
  Ir  Ir11  1  0.78911100  0.73059200  0.93277700  1
  Ir  Ir12  1  0.28911100  0.73059200  0.56722300  1
  Ir  Ir13  1  0.78911100  0.76940800  0.43277700  1
  Ir  Ir14  1  0.71088900  0.23059200  0.93277700  1
  Ir  Ir15  1  0.21088900  0.26940800  0.06722300  1
  N  N0  1  0.95911000  0.33892300  0.51036900  1
  N  N1  1  0.45911000  0.16107700  0.48963100  1
  N  N2  1  0.04089000  0.83892300  0.98963100  1
  N  N3  1  0.54089000  0.66107700  0.01036900  1
  N  N4  1  0.04089000  0.66107700  0.48963100  1
  N  N5  1  0.54089000  0.83892300  0.51036900  1
  N  N6  1  0.95911000  0.16107700  0.01036900  1
  N  N7  1  0.45911000  0.33892300  0.98963100  1
  N  N8  1  0.49390000  0.40277200  0.38294900  1
  N  N9  1  0.99390000  0.09722800  0.61705100  1
  N  N10  1  0.50610000  0.90277200  0.11705100  1
  N  N11  1  0.00610000  0.59722800  0.88294900  1
  N  N12  1  0.50610000  0.59722800  0.61705100  1
  N  N13  1  0.00610000  0.90277200  0.38294900  1
  N  N14  1  0.49390000  0.09722800  0.88294900  1
  N  N15  1  0.99390000  0.40277200  0.11705100  1
  N  N16  1  0.86171800  0.20639300  0.32538800  1
  N  N17  1  0.36171800  0.29360700  0.67461200  1
  N  N18  1  0.13828200  0.70639300  0.17461200  1
  N  N19  1  0.63828200  0.79360700  0.82538800  1
  N  N20  1  0.13828200  0.79360700  0.67461200  1
  N  N21  1  0.63828200  0.70639300  0.32538800  1
  N  N22  1  0.86171800  0.29360700  0.82538800  1
  N  N23  1  0.36171800  0.20639300  0.17461200  1
  N  N24  1  0.49208400  0.48153100  0.19089500  1
  N  N25  1  0.99208400  0.01846900  0.80910500  1
  N  N26  1  0.50791600  0.98153100  0.30910500  1
  N  N27  1  0.00791600  0.51846900  0.69089500  1
  N  N28  1  0.50791600  0.51846900  0.80910500  1
  N  N29  1  0.00791600  0.98153100  0.19089500  1
  N  N30  1  0.49208400  0.01846900  0.69089500  1
  N  N31  1  0.99208400  0.48153100  0.30910500  1
loop_
_geom_bond_atom_site_label_1
_geom_bond_atom_site_label_2
_geom_bond_distance
_geom_bond_site_symmetry_2
Li0 N26 2.055353 1_555
Li0 N13 2.055489 1_555
Li0 N1 2.134375 1_565
Li0 N5 2.221721 1_555
Li1 N27 2.055353 1_655
Li1 N12 2.055489 1_555
Li1 N0 2.134375 1_555
Li1 N4 2.221721 1_655
Li2 N24 2.055353 1_555
Li2 N15 2.055489 1_555
Li2 N3 2.134375 1_555
Li2 N7 2.221721 1_554
Li3 N25 2.055353 1_455
Li3 N14 2.055489 1_555
Li3 N2 2.134375 1_545
Li3 N6 2.221721 1_456
Li4 N30 2.055353 1_555
Li4 N9 2.055489 1_555
Li4 N5 2.134375 1_545
Li4 N1 2.221721 1_555
Li5 N31 2.055353 1_455
Li5 N8 2.055489 1_555
Li5 N4 2.134375 1_555
Li5 N0 2.221721 1_455
Li6 N28 2.055353 1_555
Li6 N11 2.055489 1_555
Li6 N7 2.134375 1_555
Li6 N3 2.221721 1_556
Li7 N29 2.055353 1_655
Li7 N10 2.055489 1_555
Li7 N6 2.134375 1_565
Li7 N2 2.221721 1_654
Li8 N16 2.083642 1_455
Li8 N8 2.216505 1_555
Li8 N31 2.264063 1_455
Li8 N23 2.267604 1_555
Li9 N17 2.083642 1_555
Li9 N9 2.216505 1_555
Li9 N30 2.264063 1_555
Li9 N22 2.267604 1_555
Li10 N18 2.083642 1_655
Li10 N10 2.216505 1_555
Li10 N29 2.264063 1_655
Li10 N21 2.267604 1_555
Li11 N19 2.083642 1_555
Li11 N11 2.216505 1_555
Li11 N28 2.264063 1_555
Li11 N20 2.267604 1_555
Li12 N20 2.083642 1_655
Li12 N12 2.216505 1_555
Li12 N27 2.264063 1_655
Li12 N19 2.267604 1_555
Li13 N21 2.083642 1_555
Li13 N13 2.216505 1_555
Li13 N26 2.264063 1_555
Li13 N18 2.267604 1_555
Li14 N22 2.083642 1_455
Li14 N14 2.216505 1_555
Li14 N25 2.264063 1_455
Li14 N17 2.267604 1_555
Li15 N23 2.083642 1_555
Li15 N15 2.216505 1_555
Li15 N24 2.264063 1_555
Li15 N16 2.267604 1_555
Ir0 N29 1.886505 1_645
Ir0 N16 1.908724 1_555
Ir0 N13 1.912852 1_645
Ir0 N26 1.966789 1_545
Ir1 N28 1.886505 1_555
Ir1 N17 1.908724 1_555
Ir1 N12 1.912852 1_555
Ir1 N27 1.966789 1_555
Ir2 N31 1.886505 1_455
Ir2 N18 1.908724 1_555
Ir2 N15 1.912852 1_455
Ir2 N24 1.966789 1_555
Ir3 N30 1.886505 1_565
Ir3 N19 1.908724 1_555
Ir3 N14 1.912852 1_565
Ir3 N25 1.966789 1_565
Ir4 N25 1.886505 1_465
Ir4 N20 1.908724 1_555
Ir4 N9 1.912852 1_465
Ir4 N30 1.966789 1_565
Ir5 N24 1.886505 1_555
Ir5 N21 1.908724 1_555
Ir5 N8 1.912852 1_555
Ir5 N31 1.966789 1_555
Ir6 N27 1.886505 1_655
Ir6 N22 1.908724 1_555
Ir6 N11 1.912852 1_655
Ir6 N28 1.966789 1_555
Ir7 N26 1.886505 1_545
Ir7 N23 1.908724 1_555
Ir7 N10 1.912852 1_545
Ir7 N29 1.966789 1_545
Ir8 N0 1.890245 1_555
Ir8 N16 1.924570 1_555
Ir8 N1 1.932520 1_555
Ir8 N8 1.945844 1_555
Ir9 N1 1.890245 1_555
Ir9 N17 1.924570 1_555
Ir9 N0 1.932520 1_455
Ir9 N9 1.945844 1_455
Ir10 N2 1.890245 1_554
Ir10 N18 1.924570 1_555
Ir10 N3 1.932520 1_555
Ir10 N10 1.945844 1_555
Ir11 N3 1.890245 1_556
Ir11 N19 1.924570 1_555
Ir11 N2 1.932520 1_655
Ir11 N11 1.945844 1_655
Ir12 N4 1.890245 1_555
Ir12 N20 1.924570 1_555
Ir12 N5 1.932520 1_555
Ir12 N12 1.945844 1_555
Ir13 N5 1.890245 1_555
Ir13 N21 1.924570 1_555
Ir13 N4 1.932520 1_655
Ir13 N13 1.945844 1_655
Ir14 N6 1.890245 1_556
Ir14 N22 1.924570 1_555
Ir14 N7 1.932520 1_555
Ir14 N14 1.945844 1_555
Ir15 N7 1.890245 1_554
Ir15 N23 1.924570 1_555
Ir15 N6 1.932520 1_455
Ir15 N15 1.945844 1_455
