# generated using pymatgen
data_K2Sm2Mg(MoO4)4
_symmetry_space_group_name_H-M   'P 1'
_cell_length_a   7.80606521
_cell_length_b   7.30109769
_cell_length_c   8.43051294
_cell_angle_alpha   117.46667888
_cell_angle_beta   104.27800189
_cell_angle_gamma   101.78781041
_symmetry_Int_Tables_number   1
_chemical_formula_structural   K2Sm2Mg(MoO4)4
_chemical_formula_sum   'K2 Sm2 Mg1 Mo4 O16'
_cell_volume   383.85111324
_cell_formula_units_Z   1
loop_
 _symmetry_equiv_pos_site_id
 _symmetry_equiv_pos_as_xyz
  1  'x, y, z'
loop_
 _atom_site_type_symbol
 _atom_site_label
 _atom_site_symmetry_multiplicity
 _atom_site_fract_x
 _atom_site_fract_y
 _atom_site_fract_z
 _atom_site_occupancy
  K  K0  1  0.53770077  0.20281081  0.37679121  1
  K  K1  1  0.61404452  0.85112717  0.78580072  1
  Sm  Sm0  1  0.03204576  0.76160460  0.20570700  1
  Sm  Sm1  1  0.94229497  0.24825119  0.75035895  1
  Mg  Mg0  1  0.20182382  0.19441410  0.05369958  1
  Mo  Mo0  1  0.96396966  0.31434188  0.28377984  1
  Mo  Mo1  1  0.06523132  0.71836814  0.72250404  1
  Mo  Mo2  1  0.53137618  0.67624246  0.22635428  1
  Mo  Mo3  1  0.42866431  0.28336474  0.74930726  1
  O  O0  1  0.72415442  0.14254488  0.15601245  1
  O  O1  1  0.30298821  0.90551671  0.88137937  1
  O  O2  1  0.46346442  0.47616793  0.28900656  1
  O  O3  1  0.44227231  0.45802942  0.66146636  1
  O  O4  1  0.71900999  0.92257907  0.43781867  1
  O  O5  1  0.24837279  0.03174010  0.53965767  1
  O  O6  1  0.03453052  0.39281677  0.10069795  1
  O  O7  1  0.96244947  0.62163914  0.87578240  1
  O  O8  1  0.99442207  0.63530356  0.43841155  1
  O  O9  1  0.01355177  0.37986653  0.55844533  1
  O  O10  1  0.65901975  0.60645185  0.06088794  1
  O  O11  1  0.29383850  0.34383225  0.91543616  1
  O  O12  1  0.11043792  0.11519778  0.22661392  1
  O  O13  1  0.96585590  0.95560219  0.78566111  1
  O  O14  1  0.34252120  0.77730197  0.18859458  1
  O  O15  1  0.63810247  0.20809876  0.76315811  1
loop_
_geom_bond_atom_site_label_1
_geom_bond_atom_site_label_2
_geom_bond_distance
_geom_bond_site_symmetry_2
K0 O2 2.547602 1_555
K0 O0 2.572698 1_555
K0 O14 2.610926 1_545
K0 O3 2.666561 1_555
K0 O4 2.872091 1_545
K1 O3 2.468414 1_555
K1 O0 2.609734 1_566
K1 O15 2.672277 1_565
K1 O13 2.696356 1_555
K1 O1 2.786865 1_555
Mg0 O12 2.022514 1_555
Mg0 O11 2.080997 1_554
Mg0 O6 2.111719 1_555
Mg0 O13 2.130599 1_444
Mg0 O2 2.204284 1_555
Mg0 O1 2.367042 1_544
Mo0 O0 1.742890 1_555
Mo0 O12 1.989505 1_655
Mo0 O8 2.012180 1_555
Mo0 O6 2.029813 1_655
Mo0 O9 2.049619 1_655
Mo1 O1 1.776238 1_555
Mo1 O13 1.946097 1_455
Mo1 O7 1.983437 1_455
Mo1 O8 2.068750 1_455
Mo1 O9 2.085165 1_555
Mo2 O2 1.796470 1_555
Mo2 O4 1.798946 1_555
Mo2 O14 1.802408 1_555
Mo2 O10 1.853567 1_555
Mo2 O11 2.468740 1_554
Mo3 O3 1.743715 1_555
Mo3 O5 1.789140 1_555
Mo3 O15 1.822242 1_555
Mo3 O11 1.900172 1_555
Mo3 O10 2.432904 1_556
O4 Sm1 2.428244 1_565
O5 Sm0 2.416573 1_545
O6 Sm0 2.421758 1_555
O6 Sm1 2.474005 1_454
O7 Sm0 2.341294 1_656
O7 Sm1 2.378716 1_555
O8 Sm0 2.574426 1_655
O9 Sm1 2.347380 1_455
O10 Sm0 2.622158 1_655
O11 Sm1 2.528280 1_455
O12 Sm0 2.439647 1_545
O13 Sm1 2.325483 1_565
O14 Sm0 2.445807 1_555
O15 Sm1 2.367953 1_555
