# generated using pymatgen
data_Na3SbF6
_symmetry_space_group_name_H-M   'P 1'
_cell_length_a   6.21604016
_cell_length_b   7.23837971
_cell_length_c   7.93201632
_cell_angle_alpha   53.02782367
_cell_angle_beta   141.75045241
_cell_angle_gamma   123.09474560
_symmetry_Int_Tables_number   1
_chemical_formula_structural   Na3SbF6
_chemical_formula_sum   'Na3 Sb1 F6'
_cell_volume   174.55055595
_cell_formula_units_Z   1
loop_
 _symmetry_equiv_pos_site_id
 _symmetry_equiv_pos_as_xyz
  1  'x, y, z'
loop_
 _atom_site_type_symbol
 _atom_site_label
 _atom_site_symmetry_multiplicity
 _atom_site_fract_x
 _atom_site_fract_y
 _atom_site_fract_z
 _atom_site_occupancy
  Na  Na0  1  0.00000000  0.00000000  0.50000000  1
  Na  Na1  1  0.50000000  0.50000000  0.00000000  1
  Na  Na2  1  0.00000000  0.50000000  0.00000000  1
  Sb  Sb0  1  0.00000000  0.00000000  0.00000000  1
  F  F0  1  0.92025700  0.37793800  0.74351900  1
  F  F1  1  0.07974300  0.62206200  0.25648100  1
  F  F2  1  0.80270300  0.86044100  0.70723400  1
  F  F3  1  0.19729700  0.13955900  0.29276600  1
  F  F4  1  0.50549900  0.84866600  0.91593700  1
  F  F5  1  0.49450100  0.15133400  0.08406300  1
loop_
_geom_bond_atom_site_label_1
_geom_bond_atom_site_label_2
_geom_bond_distance
_geom_bond_site_symmetry_2
F0 Sb0 2.251866 1_656
F0 Na1 2.253025 1_656
F0 Na2 2.294581 1_656
F1 Sb0 2.251866 1_565
F1 Na1 2.253025 1_455
F1 Na2 2.294581 1_555
F2 Sb0 2.216504 1_666
F2 Na0 2.245573 1_665
F2 Na2 2.331748 1_656
F3 Sb0 2.216504 1_555
F3 Na0 2.245573 1_555
F3 Na2 2.331748 1_555
F4 Na1 2.175459 1_556
F4 Sb0 2.252850 1_666
F4 Na0 2.255518 1_565
F5 Na1 2.175459 1_555
F5 Sb0 2.252850 1_555
F5 Na0 2.255518 1_655
