# generated using pymatgen
data_YbBi2C
_symmetry_space_group_name_H-M   'P 1'
_cell_length_a   11.38294900
_cell_length_b   11.38294900
_cell_length_c   5.69454000
_cell_angle_alpha   90.00000000
_cell_angle_beta   90.00000000
_cell_angle_gamma   90.00000000
_symmetry_Int_Tables_number   1
_chemical_formula_structural   YbBi2C
_chemical_formula_sum   'Yb8 Bi16 C8'
_cell_volume   737.85024870
_cell_formula_units_Z   8
loop_
 _symmetry_equiv_pos_site_id
 _symmetry_equiv_pos_as_xyz
  1  'x, y, z'
loop_
 _atom_site_type_symbol
 _atom_site_label
 _atom_site_symmetry_multiplicity
 _atom_site_fract_x
 _atom_site_fract_y
 _atom_site_fract_z
 _atom_site_occupancy
  Yb  Yb0  1  0.16400000  0.66400000  0.25000000  1
  Yb  Yb1  1  0.83600000  0.33600000  0.75000000  1
  Yb  Yb2  1  0.83600000  0.33600000  0.25000000  1
  Yb  Yb3  1  0.33600000  0.16400000  0.75000000  1
  Yb  Yb4  1  0.16400000  0.66400000  0.75000000  1
  Yb  Yb5  1  0.66400000  0.83600000  0.25000000  1
  Yb  Yb6  1  0.66400000  0.83600000  0.75000000  1
  Yb  Yb7  1  0.33600000  0.16400000  0.25000000  1
  Bi  Bi0  1  0.10961300  0.39299600  0.00000000  1
  Bi  Bi1  1  0.89038700  0.60700400  0.00000000  1
  Bi  Bi2  1  0.60700400  0.10961300  0.50000000  1
  Bi  Bi3  1  0.39038700  0.89299600  0.00000000  1
  Bi  Bi4  1  0.39299600  0.89038700  0.50000000  1
  Bi  Bi5  1  0.60961300  0.10700400  0.00000000  1
  Bi  Bi6  1  0.89299600  0.60961300  0.50000000  1
  Bi  Bi7  1  0.10700400  0.39038700  0.50000000  1
  Bi  Bi8  1  0.94524300  0.12802300  0.00000000  1
  Bi  Bi9  1  0.05475700  0.87197700  0.00000000  1
  Bi  Bi10  1  0.87197700  0.94524300  0.50000000  1
  Bi  Bi11  1  0.55475700  0.62802300  0.00000000  1
  Bi  Bi12  1  0.12802300  0.05475700  0.50000000  1
  Bi  Bi13  1  0.44524300  0.37197700  0.00000000  1
  Bi  Bi14  1  0.62802300  0.44524300  0.50000000  1
  Bi  Bi15  1  0.37197700  0.55475700  0.50000000  1
  C  C0  1  0.35152000  0.56539300  0.00000000  1
  C  C1  1  0.64848000  0.43460700  0.00000000  1
  C  C2  1  0.43460700  0.35152000  0.50000000  1
  C  C3  1  0.14848000  0.06539300  0.00000000  1
  C  C4  1  0.56539300  0.64848000  0.50000000  1
  C  C5  1  0.85152000  0.93460700  0.00000000  1
  C  C6  1  0.06539300  0.85152000  0.50000000  1
  C  C7  1  0.93460700  0.14848000  0.50000000  1
loop_
_geom_bond_atom_site_label_1
_geom_bond_atom_site_label_2
_geom_bond_distance
_geom_bond_site_symmetry_2
Bi0 Bi7 2.847580 1_554
Bi0 Bi7 2.847580 1_555
Bi0 Yb4 3.453425 1_554
Bi0 Yb0 3.453425 1_555
Bi0 Yb1 3.485385 1_454
Bi0 Yb2 3.485385 1_455
Bi1 Bi6 2.847580 1_555
Bi1 Bi6 2.847580 1_554
Bi1 Yb2 3.453425 1_555
Bi1 Yb1 3.453425 1_554
Bi1 Yb4 3.485385 1_654
Bi1 Yb0 3.485385 1_655
Bi2 Bi5 2.847580 1_556
Bi2 Bi5 2.847580 1_555
Bi2 Yb7 3.453425 1_555
Bi2 Yb3 3.453425 1_555
Bi2 Yb6 3.485385 1_545
Bi2 Yb5 3.485385 1_545
Bi3 Bi4 2.847580 1_555
Bi3 Bi4 2.847580 1_554
Bi3 Yb7 3.453425 1_565
Bi3 Yb3 3.453425 1_564
Bi3 Yb5 3.485385 1_555
Bi3 Yb6 3.485385 1_554
Bi4 Yb5 3.453425 1_555
Bi4 Yb6 3.453425 1_555
Bi4 Yb3 3.485385 1_565
Bi4 Yb7 3.485385 1_565
Bi5 Yb6 3.453425 1_544
Bi5 Yb5 3.453425 1_545
Bi5 Yb7 3.485385 1_555
Bi5 Yb3 3.485385 1_554
Bi6 Yb0 3.453425 1_655
Bi6 Yb4 3.453425 1_655
Bi6 Yb1 3.485385 1_555
Bi6 Yb2 3.485385 1_555
Bi7 Yb1 3.453425 1_455
Bi7 Yb2 3.453425 1_455
Bi7 Yb0 3.485385 1_555
Bi7 Yb4 3.485385 1_555
Bi8 C3 2.420792 1_655
Bi8 C5 2.446507 1_545
Bi8 C7 2.859341 1_555
Bi8 C7 2.859341 1_554
Bi8 Yb1 3.029454 1_554
Bi8 Yb2 3.029454 1_555
Bi9 C5 2.420792 1_455
Bi9 C3 2.446507 1_565
Bi9 C6 2.859341 1_554
Bi9 C6 2.859341 1_555
Bi9 Yb4 3.029454 1_554
Bi9 Yb0 3.029454 1_555
Bi10 C7 2.420792 1_565
Bi10 C6 2.446507 1_655
Bi10 C5 2.859341 1_556
Bi10 C5 2.859341 1_555
Bi10 Yb6 3.029454 1_555
Bi10 Yb5 3.029454 1_555
Bi11 C0 2.420792 1_555
Bi11 C1 2.446507 1_555
Bi11 C4 2.859341 1_554
Bi11 C4 2.859341 1_555
Bi11 Yb6 3.029454 1_554
Bi11 Yb5 3.029454 1_555
Bi12 C6 2.420792 1_545
Bi12 C7 2.446507 1_455
Bi12 C3 2.859341 1_555
Bi12 C3 2.859341 1_556
Bi12 Yb3 3.029454 1_555
Bi12 Yb7 3.029454 1_555
Bi13 C1 2.420792 1_555
Bi13 C0 2.446507 1_555
Bi13 C2 2.859341 1_554
Bi13 C2 2.859341 1_555
Bi13 Yb7 3.029454 1_555
Bi13 Yb3 3.029454 1_554
Bi14 C4 2.420792 1_555
Bi14 C2 2.446507 1_555
Bi14 C1 2.859341 1_555
Bi14 C1 2.859341 1_556
Bi14 Yb1 3.029454 1_555
Bi14 Yb2 3.029454 1_555
Bi15 C2 2.420792 1_555
Bi15 C4 2.446507 1_555
Bi15 C0 2.859341 1_555
Bi15 C0 2.859341 1_556
Bi15 Yb0 3.029454 1_555
Bi15 Yb4 3.029454 1_555
C0 Yb0 2.800505 1_555
C0 Yb4 2.800505 1_554
C1 Yb2 2.800505 1_555
C1 Yb1 2.800505 1_554
C2 Yb3 2.800505 1_555
C2 Yb7 2.800505 1_555
C3 Yb3 2.800505 1_554
C3 Yb7 2.800505 1_555
C4 Yb5 2.800505 1_555
C4 Yb6 2.800505 1_555
C5 Yb5 2.800505 1_555
C5 Yb6 2.800505 1_554
C6 Yb0 2.800505 1_555
C6 Yb4 2.800505 1_555
C7 Yb1 2.800505 1_555
C7 Yb2 2.800505 1_555
