# generated using pymatgen
data_La2ThS5
_symmetry_space_group_name_H-M   'P 1'
_cell_length_a   7.64679064
_cell_length_b   8.37262659
_cell_length_c   12.17391973
_cell_angle_alpha   90.00000000
_cell_angle_beta   90.00000000
_cell_angle_gamma   90.00000000
_symmetry_Int_Tables_number   1
_chemical_formula_structural   La2ThS5
_chemical_formula_sum   'La8 Th4 S20'
_cell_volume   779.41966024
_cell_formula_units_Z   4
loop_
 _symmetry_equiv_pos_site_id
 _symmetry_equiv_pos_as_xyz
  1  'x, y, z'
loop_
 _atom_site_type_symbol
 _atom_site_label
 _atom_site_symmetry_multiplicity
 _atom_site_fract_x
 _atom_site_fract_y
 _atom_site_fract_z
 _atom_site_occupancy
  La  La0  1  0.52226549  0.50099032  0.32318317  1
  La  La1  1  0.97773451  0.99900968  0.82318317  1
  La  La2  1  0.47773451  0.00099032  0.67681683  1
  La  La3  1  0.02226549  0.49900968  0.17681683  1
  La  La4  1  0.47773451  0.49900968  0.67681683  1
  La  La5  1  0.02226549  0.00099032  0.17681683  1
  La  La6  1  0.52226549  0.99900968  0.32318317  1
  La  La7  1  0.97773451  0.50099032  0.82318317  1
  Th  Th0  1  0.07260903  0.75000000  0.49139898  1
  Th  Th1  1  0.42739097  0.75000000  0.99139898  1
  Th  Th2  1  0.92739097  0.25000000  0.50860102  1
  Th  Th3  1  0.57260903  0.25000000  0.00860102  1
  S  S0  1  0.83749054  0.95953497  0.59747978  1
  S  S1  1  0.66250946  0.54046503  0.09747978  1
  S  S2  1  0.16250946  0.45953497  0.40252022  1
  S  S3  1  0.33749054  0.04046503  0.90252022  1
  S  S4  1  0.16250946  0.04046503  0.40252022  1
  S  S5  1  0.33749054  0.45953497  0.90252022  1
  S  S6  1  0.83749054  0.54046503  0.59747978  1
  S  S7  1  0.66250946  0.95953497  0.09747978  1
  S  S8  1  0.83256899  0.75000000  0.31211810  1
  S  S9  1  0.66743101  0.75000000  0.81211810  1
  S  S10  1  0.16743101  0.25000000  0.68788190  1
  S  S11  1  0.33256899  0.25000000  0.18788190  1
  S  S12  1  0.45516153  0.75000000  0.49780751  1
  S  S13  1  0.04483847  0.75000000  0.99780751  1
  S  S14  1  0.54483847  0.25000000  0.50219249  1
  S  S15  1  0.95516153  0.25000000  0.00219249  1
  S  S16  1  0.19575201  0.75000000  0.71542720  1
  S  S17  1  0.30424799  0.75000000  0.21542720  1
  S  S18  1  0.80424799  0.25000000  0.28457280  1
  S  S19  1  0.69575201  0.25000000  0.78457280  1
loop_
_geom_bond_atom_site_label_1
_geom_bond_atom_site_label_2
_geom_bond_distance
_geom_bond_site_symmetry_2
La0 S2 2.936190 1_555
La0 S1 2.968019 1_555
La0 S17 2.974366 1_555
La0 S12 3.021466 1_555
La0 S14 3.032324 1_555
La0 S11 3.038639 1_555
La0 S18 3.047373 1_555
La0 S8 3.161504 1_555
La1 S3 2.936190 1_665
La1 S0 2.968019 1_555
La1 S16 2.974366 1_655
La1 S13 3.021466 1_655
La1 S15 3.032324 1_566
La1 S10 3.038639 1_665
La1 S19 3.047373 1_565
La1 S9 3.161504 1_555
La2 S0 2.936190 1_545
La2 S3 2.968019 1_555
La2 S19 2.974366 1_555
La2 S14 3.021466 1_555
La2 S12 3.032324 1_545
La2 S9 3.038639 1_545
La2 S16 3.047373 1_545
La2 S10 3.161504 1_555
La3 S1 2.936190 1_455
La3 S2 2.968019 1_555
La3 S18 2.974366 1_455
La3 S15 3.021466 1_455
La3 S13 3.032324 1_554
La3 S8 3.038639 1_455
La3 S17 3.047373 1_555
La3 S11 3.161504 1_555
La4 S6 2.936190 1_555
La4 S5 2.968019 1_555
La4 S19 2.974366 1_555
La4 S14 3.021466 1_555
La4 S12 3.032324 1_555
La4 S9 3.038639 1_555
La4 S16 3.047373 1_555
La4 S10 3.161504 1_555
La5 S7 2.936190 1_445
La5 S4 2.968019 1_555
La5 S18 2.974366 1_455
La5 S15 3.021466 1_455
La5 S13 3.032324 1_544
La5 S8 3.038639 1_445
La5 S17 3.047373 1_545
La5 S11 3.161504 1_555
La6 S4 2.936190 1_565
La6 S7 2.968019 1_555
La6 S17 2.974366 1_555
La6 S12 3.021466 1_555
La6 S14 3.032324 1_565
La6 S11 3.038639 1_565
La6 S18 3.047373 1_565
La6 S8 3.161504 1_555
La7 S5 2.936190 1_655
La7 S6 2.968019 1_555
La7 S16 2.974366 1_655
La7 S13 3.021466 1_655
La7 S15 3.032324 1_556
La7 S10 3.038639 1_655
La7 S19 3.047373 1_555
La7 S9 3.161504 1_555
S0 Th2 2.749131 1_565
S0 Th0 2.824533 1_655
S1 Th3 2.749131 1_555
S1 Th1 2.824533 1_554
S2 Th0 2.749131 1_555
S2 Th2 2.824533 1_455
S3 Th1 2.749131 1_545
S3 Th3 2.824533 1_556
S4 Th0 2.749131 1_545
S4 Th2 2.824533 1_455
S5 Th1 2.749131 1_555
S5 Th3 2.824533 1_556
S6 Th2 2.749131 1_555
S6 Th0 2.824533 1_655
S7 Th3 2.749131 1_565
S7 Th1 2.824533 1_554
S8 Th0 2.851793 1_655
S9 Th1 2.851793 1_555
S10 Th2 2.851793 1_455
S11 Th3 2.851793 1_555
S12 Th0 2.926339 1_555
S13 Th1 2.926339 1_555
S14 Th2 2.926339 1_555
S15 Th3 2.926339 1_555
S16 Th0 2.885286 1_555
S17 Th1 2.885286 1_554
S18 Th2 2.885286 1_555
S19 Th3 2.885286 1_556
