# generated using pymatgen
data_KSn4S3ClO12
_symmetry_space_group_name_H-M   'P 1'
_cell_length_a   10.19849770
_cell_length_b   10.19849770
_cell_length_c   8.35333600
_cell_angle_alpha   90.00000000
_cell_angle_beta   90.00000000
_cell_angle_gamma   119.99999804
_symmetry_Int_Tables_number   1
_chemical_formula_structural   KSn4S3ClO12
_chemical_formula_sum   'K2 Sn8 S6 Cl2 O24'
_cell_volume   752.42461594
_cell_formula_units_Z   2
loop_
 _symmetry_equiv_pos_site_id
 _symmetry_equiv_pos_as_xyz
  1  'x, y, z'
loop_
 _atom_site_type_symbol
 _atom_site_label
 _atom_site_symmetry_multiplicity
 _atom_site_fract_x
 _atom_site_fract_y
 _atom_site_fract_z
 _atom_site_occupancy
  K  K0  1  0.33333300  0.66666700  0.97311600  1
  K  K1  1  0.66666700  0.33333300  0.47311600  1
  Sn  Sn0  1  0.33333300  0.66666700  0.45621800  1
  Sn  Sn1  1  0.66666700  0.33333300  0.95621800  1
  Sn  Sn2  1  0.19797000  0.21628000  0.24658300  1
  Sn  Sn3  1  0.78372000  0.98169100  0.24658300  1
  Sn  Sn4  1  0.80203000  0.78372000  0.74658300  1
  Sn  Sn5  1  0.01830900  0.80203000  0.24658300  1
  Sn  Sn6  1  0.21628000  0.01830900  0.74658300  1
  Sn  Sn7  1  0.98169100  0.19797000  0.74658300  1
  S  S0  1  0.04556700  0.40929000  0.25448300  1
  S  S1  1  0.59071000  0.63627700  0.25448300  1
  S  S2  1  0.95443300  0.59071000  0.75448300  1
  S  S3  1  0.36372300  0.95443300  0.25448300  1
  S  S4  1  0.40929000  0.36372300  0.75448300  1
  S  S5  1  0.63627700  0.04556700  0.75448300  1
  Cl  Cl0  1  0.00000000  0.00000000  0.99564100  1
  Cl  Cl1  1  0.00000000  0.00000000  0.49564100  1
  O  O0  1  0.47401500  0.11629000  0.25116100  1
  O  O1  1  0.88371000  0.35772500  0.25116100  1
  O  O2  1  0.52598500  0.88371000  0.75116100  1
  O  O3  1  0.64227500  0.52598500  0.25116100  1
  O  O4  1  0.11629000  0.64227500  0.75116100  1
  O  O5  1  0.35772500  0.47401500  0.75116100  1
  O  O6  1  0.13761600  0.58067700  0.26950600  1
  O  O7  1  0.41932300  0.55693900  0.26950600  1
  O  O8  1  0.86238400  0.41932300  0.76950600  1
  O  O9  1  0.44306100  0.86238400  0.26950600  1
  O  O10  1  0.58067700  0.44306100  0.76950600  1
  O  O11  1  0.55693900  0.13761600  0.76950600  1
  O  O12  1  0.08965600  0.34621700  0.39679200  1
  O  O13  1  0.65378300  0.74343900  0.39679200  1
  O  O14  1  0.91034400  0.65378300  0.89679200  1
  O  O15  1  0.25656100  0.91034400  0.39679200  1
  O  O16  1  0.34621700  0.25656100  0.89679200  1
  O  O17  1  0.74343900  0.08965600  0.89679200  1
  O  O18  1  0.09594600  0.36201800  0.10648300  1
  O  O19  1  0.63798200  0.73392900  0.10648300  1
  O  O20  1  0.90405400  0.63798200  0.60648300  1
  O  O21  1  0.26607100  0.90405400  0.10648300  1
  O  O22  1  0.36201800  0.26607100  0.60648300  1
  O  O23  1  0.73392900  0.09594600  0.60648300  1
loop_
_geom_bond_atom_site_label_1
_geom_bond_atom_site_label_2
_geom_bond_distance
_geom_bond_site_symmetry_2
K0 O4 2.801507 1_555
K0 O2 2.801510 1_555
K0 O5 2.801514 1_555
K0 O6 3.022008 1_556
K0 O9 3.022008 1_556
K0 O7 3.022013 1_556
K0 O21 3.038686 1_556
K0 O19 3.038686 1_556
K0 O18 3.038686 1_556
K1 O1 2.801507 1_555
K1 O0 2.801510 1_555
K1 O3 2.801514 1_555
K1 O8 3.022008 1_555
K1 O11 3.022008 1_555
K1 O10 3.022013 1_555
K1 O23 3.038686 1_555
K1 O22 3.038686 1_555
K1 O20 3.038686 1_555
Cl0 Sn7 2.969267 1_455
Cl0 Sn4 2.969271 1_445
Cl0 Sn6 2.969274 1_555
Cl0 Sn5 2.980315 1_546
Cl0 Sn2 2.980319 1_556
Cl0 Sn3 2.980322 1_446
Cl1 Sn5 2.969267 1_545
Cl1 Sn2 2.969271 1_555
Cl1 Sn3 2.969274 1_445
Cl1 Sn7 2.980315 1_455
Cl1 Sn4 2.980319 1_445
Cl1 Sn6 2.980322 1_555
O0 S3 1.460840 1_545
O1 S0 1.460840 1_655
O2 S5 1.460840 1_565
O3 S1 1.460839 1_555
O4 S2 1.460840 1_455
O5 S4 1.460839 1_555
O6 S0 1.520292 1_555
O6 Sn0 2.331370 1_555
O7 S1 1.520292 1_555
O7 Sn0 2.331377 1_555
O8 S2 1.520292 1_555
O8 Sn1 2.331370 1_555
O9 S3 1.520292 1_555
O9 Sn0 2.331370 1_555
O10 S4 1.520292 1_555
O10 Sn1 2.331377 1_555
O11 S5 1.520292 1_555
O11 Sn1 2.331370 1_555
O12 S0 1.522602 1_555
O12 Sn2 2.452448 1_555
O13 S1 1.522602 1_555
O13 Sn3 2.452455 1_555
O14 S2 1.522602 1_555
O14 Sn4 2.452448 1_555
O15 S3 1.522602 1_555
O15 Sn5 2.452456 1_555
O16 S4 1.522602 1_555
O16 Sn6 2.452455 1_555
O17 S5 1.522602 1_555
O17 Sn7 2.452456 1_555
O18 S0 1.507490 1_555
O18 Sn2 2.491553 1_555
O19 S1 1.507495 1_555
O19 Sn3 2.491553 1_555
O20 S2 1.507490 1_555
O20 Sn4 2.491553 1_555
O21 S3 1.507495 1_555
O21 Sn5 2.491553 1_555
O22 S4 1.507495 1_555
O22 Sn6 2.491553 1_555
O23 S5 1.507495 1_555
O23 Sn7 2.491553 1_555
