# generated using pymatgen
data_CaH24(IN4)2
_symmetry_space_group_name_H-M   'P 1'
_cell_length_a   13.02398800
_cell_length_b   8.18200400
_cell_length_c   17.19217000
_cell_angle_alpha   90.00000000
_cell_angle_beta   90.00000000
_cell_angle_gamma   90.00000000
_symmetry_Int_Tables_number   1
_chemical_formula_structural   CaH24(IN4)2
_chemical_formula_sum   'Ca4 H96 I8 N32'
_cell_volume   1832.03755391
_cell_formula_units_Z   4
loop_
 _symmetry_equiv_pos_site_id
 _symmetry_equiv_pos_as_xyz
  1  'x, y, z'
loop_
 _atom_site_type_symbol
 _atom_site_label
 _atom_site_symmetry_multiplicity
 _atom_site_fract_x
 _atom_site_fract_y
 _atom_site_fract_z
 _atom_site_occupancy
  Ca  Ca0  1  0.73626800  0.25000000  0.63858000  1
  Ca  Ca1  1  0.23626800  0.25000000  0.86142000  1
  Ca  Ca2  1  0.26373200  0.75000000  0.36142000  1
  Ca  Ca3  1  0.76373200  0.75000000  0.13858000  1
  H  H0  1  0.62185000  0.93709600  0.58584000  1
  H  H1  1  0.12185000  0.56290400  0.91416000  1
  H  H2  1  0.37815000  0.43709600  0.41416000  1
  H  H3  1  0.87815000  0.06290400  0.08584000  1
  H  H4  1  0.37815000  0.06290400  0.41416000  1
  H  H5  1  0.87815000  0.43709600  0.08584000  1
  H  H6  1  0.62185000  0.56290400  0.58584000  1
  H  H7  1  0.12185000  0.93709600  0.91416000  1
  H  H8  1  0.59469400  0.94969900  0.67926000  1
  H  H9  1  0.09469400  0.55030100  0.82074000  1
  H  H10  1  0.40530600  0.44969900  0.32074000  1
  H  H11  1  0.90530600  0.05030100  0.17926000  1
  H  H12  1  0.40530600  0.05030100  0.32074000  1
  H  H13  1  0.90530600  0.44969900  0.17926000  1
  H  H14  1  0.59469400  0.55030100  0.67926000  1
  H  H15  1  0.09469400  0.94969900  0.82074000  1
  H  H16  1  0.53313500  0.06353900  0.61569800  1
  H  H17  1  0.03313500  0.43646100  0.88430200  1
  H  H18  1  0.46686500  0.56353900  0.38430200  1
  H  H19  1  0.96686500  0.93646100  0.11569800  1
  H  H20  1  0.46686500  0.93646100  0.38430200  1
  H  H21  1  0.96686500  0.56353900  0.11569800  1
  H  H22  1  0.53313500  0.43646100  0.61569800  1
  H  H23  1  0.03313500  0.06353900  0.88430200  1
  H  H24  1  0.88715300  0.97706100  0.71550800  1
  H  H25  1  0.38715300  0.52293900  0.78449200  1
  H  H26  1  0.11284700  0.47706100  0.28449200  1
  H  H27  1  0.61284700  0.02293900  0.21550800  1
  H  H28  1  0.11284700  0.02293900  0.28449200  1
  H  H29  1  0.61284700  0.47706100  0.21550800  1
  H  H30  1  0.88715300  0.52293900  0.71550800  1
  H  H31  1  0.38715300  0.97706100  0.78449200  1
  H  H32  1  0.84220100  0.09293000  0.78565800  1
  H  H33  1  0.34220100  0.40707000  0.71434200  1
  H  H34  1  0.15779900  0.59293000  0.21434200  1
  H  H35  1  0.65779900  0.90707000  0.28565800  1
  H  H36  1  0.15779900  0.90707000  0.21434200  1
  H  H37  1  0.65779900  0.59293000  0.28565800  1
  H  H38  1  0.84220100  0.40707000  0.78565800  1
  H  H39  1  0.34220100  0.09293000  0.71434200  1
  H  H40  1  0.76953100  0.95369200  0.74689300  1
  H  H41  1  0.26953100  0.54630800  0.75310700  1
  H  H42  1  0.23046900  0.45369200  0.25310700  1
  H  H43  1  0.73046900  0.04630800  0.24689300  1
  H  H44  1  0.23046900  0.04630800  0.25310700  1
  H  H45  1  0.73046900  0.45369200  0.24689300  1
  H  H46  1  0.76953100  0.54630800  0.74689300  1
  H  H47  1  0.26953100  0.95369200  0.75310700  1
  H  H48  1  0.81662200  0.95283400  0.54087800  1
  H  H49  1  0.31662200  0.54716600  0.95912200  1
  H  H50  1  0.18337800  0.45283400  0.45912200  1
  H  H51  1  0.68337800  0.04716600  0.04087800  1
  H  H52  1  0.18337800  0.04716600  0.45912200  1
  H  H53  1  0.68337800  0.45283400  0.04087800  1
  H  H54  1  0.81662200  0.54716600  0.54087800  1
  H  H55  1  0.31662200  0.95283400  0.95912200  1
  H  H56  1  0.88209800  0.10591600  0.50650600  1
  H  H57  1  0.38209800  0.39408400  0.99349400  1
  H  H58  1  0.11790200  0.60591600  0.49349400  1
  H  H59  1  0.61790200  0.89408400  0.00650600  1
  H  H60  1  0.11790200  0.89408400  0.49349400  1
  H  H61  1  0.61790200  0.60591600  0.00650600  1
  H  H62  1  0.88209800  0.39408400  0.50650600  1
  H  H63  1  0.38209800  0.10591600  0.99349400  1
  H  H64  1  0.92177400  0.01102400  0.58497000  1
  H  H65  1  0.42177400  0.48897600  0.91503000  1
  H  H66  1  0.07822600  0.51102400  0.41503000  1
  H  H67  1  0.57822600  0.98897600  0.08497000  1
  H  H68  1  0.07822600  0.98897600  0.41503000  1
  H  H69  1  0.57822600  0.51102400  0.08497000  1
  H  H70  1  0.92177400  0.48897600  0.58497000  1
  H  H71  1  0.42177400  0.01102400  0.91503000  1
  H  H72  1  0.67675800  0.14953400  0.46591700  1
  H  H73  1  0.17675800  0.35046600  0.03408300  1
  H  H74  1  0.32324200  0.64953400  0.53408300  1
  H  H75  1  0.82324200  0.85046600  0.96591700  1
  H  H76  1  0.32324200  0.85046600  0.53408300  1
  H  H77  1  0.82324200  0.64953400  0.96591700  1
  H  H78  1  0.67675800  0.35046600  0.46591700  1
  H  H79  1  0.17675800  0.14953400  0.03408300  1
  H  H80  1  0.57802600  0.25000000  0.50058900  1
  H  H81  1  0.07802600  0.25000000  0.99941100  1
  H  H82  1  0.42197400  0.75000000  0.49941100  1
  H  H83  1  0.92197400  0.75000000  0.00058900  1
  H  H84  1  0.58479500  0.14956700  0.78414600  1
  H  H85  1  0.08479500  0.35043300  0.71585400  1
  H  H86  1  0.41520500  0.64956700  0.21585400  1
  H  H87  1  0.91520500  0.85043300  0.28414600  1
  H  H88  1  0.41520500  0.85043300  0.21585400  1
  H  H89  1  0.91520500  0.64956700  0.28414600  1
  H  H90  1  0.58479500  0.35043300  0.78414600  1
  H  H91  1  0.08479500  0.14956700  0.71585400  1
  H  H92  1  0.68048100  0.25000000  0.82194700  1
  H  H93  1  0.18048100  0.25000000  0.67805300  1
  H  H94  1  0.31951900  0.75000000  0.17805300  1
  H  H95  1  0.81951900  0.75000000  0.32194700  1
  I  I0  1  0.34584700  0.25000000  0.55747800  1
  I  I1  1  0.84584700  0.25000000  0.94252200  1
  I  I2  1  0.65415300  0.75000000  0.44252200  1
  I  I3  1  0.15415300  0.75000000  0.05747800  1
  I  I4  1  0.92398600  0.25000000  0.32959900  1
  I  I5  1  0.42398600  0.25000000  0.17040100  1
  I  I6  1  0.07601400  0.75000000  0.67040100  1
  I  I7  1  0.57601400  0.75000000  0.82959900  1
  N  N0  1  0.60423500  0.01767800  0.62961300  1
  N  N1  1  0.10423500  0.48232200  0.87038700  1
  N  N2  1  0.39576500  0.51767800  0.37038700  1
  N  N3  1  0.89576500  0.98232200  0.12961300  1
  N  N4  1  0.39576500  0.98232200  0.37038700  1
  N  N5  1  0.89576500  0.51767800  0.12961300  1
  N  N6  1  0.60423500  0.48232200  0.62961300  1
  N  N7  1  0.10423500  0.01767800  0.87038700  1
  N  N8  1  0.82337300  0.04063900  0.73340000  1
  N  N9  1  0.32337300  0.45936100  0.76660000  1
  N  N10  1  0.17662700  0.54063900  0.26660000  1
  N  N11  1  0.67662700  0.95936100  0.23340000  1
  N  N12  1  0.17662700  0.95936100  0.26660000  1
  N  N13  1  0.67662700  0.54063900  0.23340000  1
  N  N14  1  0.82337300  0.45936100  0.73340000  1
  N  N15  1  0.32337300  0.04063900  0.76660000  1
  N  N16  1  0.85740600  0.05429200  0.55743200  1
  N  N17  1  0.35740600  0.44570800  0.94256800  1
  N  N18  1  0.14259400  0.55429200  0.44256800  1
  N  N19  1  0.64259400  0.94570800  0.05743200  1
  N  N20  1  0.14259400  0.94570800  0.44256800  1
  N  N21  1  0.64259400  0.55429200  0.05743200  1
  N  N22  1  0.85740600  0.44570800  0.55743200  1
  N  N23  1  0.35740600  0.05429200  0.94256800  1
  N  N24  1  0.65664900  0.25000000  0.49797800  1
  N  N25  1  0.15664900  0.25000000  0.00202200  1
  N  N26  1  0.34335100  0.75000000  0.50202200  1
  N  N27  1  0.84335100  0.75000000  0.99797800  1
  N  N28  1  0.63060900  0.25000000  0.77587500  1
  N  N29  1  0.13060900  0.25000000  0.72412500  1
  N  N30  1  0.36939100  0.75000000  0.22412500  1
  N  N31  1  0.86939100  0.75000000  0.27587500  1
loop_
_geom_bond_atom_site_label_1
_geom_bond_atom_site_label_2
_geom_bond_distance
_geom_bond_site_symmetry_2
Ca0 N6 2.567887 1_555
Ca0 N0 2.567887 1_555
Ca0 N14 2.622738 1_555
Ca0 N8 2.622738 1_555
Ca0 N24 2.630284 1_555
Ca0 N22 2.645672 1_555
Ca0 N16 2.645672 1_555
Ca0 N28 2.732241 1_555
Ca1 N1 2.567887 1_555
Ca1 N7 2.567887 1_555
Ca1 N9 2.622738 1_555
Ca1 N15 2.622738 1_555
Ca1 N25 2.630284 1_556
Ca1 N17 2.645672 1_555
Ca1 N23 2.645672 1_555
Ca1 N29 2.732241 1_555
Ca2 N4 2.567887 1_555
Ca2 N2 2.567887 1_555
Ca2 N12 2.622738 1_555
Ca2 N10 2.622738 1_555
Ca2 N26 2.630284 1_555
Ca2 N20 2.645672 1_555
Ca2 N18 2.645672 1_555
Ca2 N30 2.732241 1_555
Ca3 N3 2.567887 1_555
Ca3 N5 2.567887 1_555
Ca3 N11 2.622738 1_555
Ca3 N13 2.622738 1_555
Ca3 N27 2.630284 1_554
Ca3 N19 2.645672 1_555
Ca3 N21 2.645672 1_555
Ca3 N31 2.732241 1_555
H0 N0 1.026486 1_565
H1 N1 1.026486 1_555
H2 N2 1.026486 1_555
H3 N3 1.026486 1_545
H4 N4 1.026486 1_545
H5 N5 1.026486 1_555
H6 N6 1.026486 1_555
H7 N7 1.026486 1_565
H8 N0 1.026321 1_565
H9 N1 1.026321 1_555
H10 N2 1.026321 1_555
H11 N3 1.026321 1_545
H12 N4 1.026321 1_545
H13 N5 1.026321 1_555
H14 N6 1.026321 1_555
H15 N7 1.026321 1_565
H16 N0 1.027384 1_555
H17 N1 1.027384 1_555
H18 N2 1.027384 1_555
H19 N3 1.027384 1_555
H20 N4 1.027384 1_555
H21 N5 1.027384 1_555
H22 N6 1.027384 1_555
H23 N7 1.027384 1_555
H24 N8 1.027246 1_565
H25 N9 1.027246 1_555
H26 N10 1.027246 1_555
H27 N11 1.027246 1_545
H28 N12 1.027246 1_545
H29 N13 1.027246 1_555
H30 N14 1.027246 1_555
H31 N15 1.027246 1_565
H32 N8 1.024869 1_555
H33 N9 1.024869 1_555
H34 N10 1.024869 1_555
H35 N11 1.024869 1_555
H36 N12 1.024869 1_555
H37 N13 1.024869 1_555
H38 N14 1.024869 1_555
H39 N15 1.024869 1_555
H40 N8 1.025494 1_565
H41 N9 1.025494 1_555
H42 N10 1.025494 1_555
H43 N11 1.025494 1_545
H44 N12 1.025494 1_545
H45 N13 1.025494 1_555
H46 N14 1.025494 1_555
H47 N15 1.025494 1_565
H48 N16 1.025794 1_565
H49 N17 1.025794 1_555
H50 N18 1.025794 1_555
H51 N19 1.025794 1_545
H52 N20 1.025794 1_545
H53 N21 1.025794 1_555
H54 N22 1.025794 1_555
H55 N23 1.025794 1_565
H56 N16 1.023905 1_555
H57 N17 1.023905 1_555
H58 N18 1.023905 1_555
H59 N19 1.023905 1_555
H60 N20 1.023905 1_555
H61 N21 1.023905 1_555
H62 N22 1.023905 1_555
H63 N23 1.023905 1_555
H64 N16 1.025801 1_555
H65 N17 1.025801 1_555
H66 N18 1.025801 1_555
H67 N19 1.025801 1_555
H68 N20 1.025801 1_555
H69 N21 1.025801 1_555
H70 N22 1.025801 1_555
H71 N23 1.025801 1_555
H72 N24 1.023776 1_555
H73 N25 1.023776 1_555
H74 N26 1.023776 1_555
H75 N27 1.023776 1_555
H76 N26 1.023776 1_555
H77 N27 1.023776 1_555
H78 N24 1.023776 1_555
H79 N25 1.023776 1_555
H80 N24 1.024968 1_555
H81 N25 1.024968 1_556
H82 N26 1.024968 1_555
H83 N27 1.024968 1_554
H84 N28 1.025432 1_555
H85 N29 1.025432 1_555
H86 N30 1.025432 1_555
H87 N31 1.025432 1_555
H88 N30 1.025432 1_555
H89 N31 1.025432 1_555
H90 N28 1.025432 1_555
H91 N29 1.025432 1_555
H92 N28 1.024343 1_555
H93 N29 1.024343 1_555
H94 N30 1.024343 1_555
H95 N31 1.024343 1_555
