# generated using pymatgen
data_Mn3Sb(PO4)4
_symmetry_space_group_name_H-M   'P 1'
_cell_length_a   7.95811903
_cell_length_b   10.06502992
_cell_length_c   7.95722534
_cell_angle_alpha   91.25171308
_cell_angle_beta   78.70824215
_cell_angle_gamma   88.75000295
_symmetry_Int_Tables_number   1
_chemical_formula_structural   Mn3Sb(PO4)4
_chemical_formula_sum   'Mn6 Sb2 P8 O32'
_cell_volume   624.65542504
_cell_formula_units_Z   2
loop_
 _symmetry_equiv_pos_site_id
 _symmetry_equiv_pos_as_xyz
  1  'x, y, z'
loop_
 _atom_site_type_symbol
 _atom_site_label
 _atom_site_symmetry_multiplicity
 _atom_site_fract_x
 _atom_site_fract_y
 _atom_site_fract_z
 _atom_site_occupancy
  Mn  Mn0  1  0.41675500  0.70898500  0.33275100  1
  Mn  Mn1  1  0.91758100  0.70913600  0.83329000  1
  Mn  Mn2  1  0.92789600  0.78853000  0.32209800  1
  Mn  Mn3  1  0.59591500  0.21950700  0.15065600  1
  Mn  Mn4  1  0.09926300  0.21955900  0.65407500  1
  Mn  Mn5  1  0.41765500  0.78478800  0.83233100  1
  Sb  Sb0  1  0.59657400  0.28817300  0.65346000  1
  Sb  Sb1  1  0.10572100  0.28330800  0.14427900  1
  P  P0  1  0.17964800  0.60081300  0.07035100  1
  P  P1  1  0.67955000  0.60839600  0.57044200  1
  P  P2  1  0.31232200  0.08473600  0.93768100  1
  P  P3  1  0.83076500  0.10146200  0.41924700  1
  P  P4  1  0.66713000  0.89021000  0.08156900  1
  P  P5  1  0.16843000  0.89016300  0.58284100  1
  P  P6  1  0.83801800  0.41350900  0.93143500  1
  P  P7  1  0.31857300  0.41352800  0.41200400  1
  O  O0  1  0.21570700  0.44557400  0.03431000  1
  O  O1  1  0.71669700  0.45825600  0.53324700  1
  O  O2  1  0.46719300  0.38548000  0.26560000  1
  O  O3  1  0.98441700  0.38534400  0.78276300  1
  O  O4  1  0.51586400  0.86619500  0.23276800  1
  O  O5  1  0.01717500  0.86618400  0.73415300  1
  O  O6  1  0.28524100  0.93627000  0.96475500  1
  O  O7  1  0.82072000  0.95032900  0.42928400  1
  O  O8  1  0.69040600  0.03812700  0.05966000  1
  O  O9  1  0.19036400  0.03805400  0.55957500  1
  O  O10  1  0.45854000  0.10994900  0.79147200  1
  O  O11  1  0.98233100  0.13172100  0.26769400  1
  O  O12  1  0.52581300  0.62411200  0.72416800  1
  O  O13  1  0.02741700  0.62104400  0.22254400  1
  O  O14  1  0.80072700  0.56390400  0.95744200  1
  O  O15  1  0.29253700  0.56396400  0.44924500  1
  O  O16  1  0.14628000  0.66398800  0.90363600  1
  O  O17  1  0.64304100  0.67701400  0.40707700  1
  O  O18  1  0.34629800  0.66403400  0.10364900  1
  O  O19  1  0.84284600  0.67705200  0.60683800  1
  O  O20  1  0.13769700  0.16512800  0.92079900  1
  O  O21  1  0.65858000  0.16916100  0.39609300  1
  O  O22  1  0.32918600  0.16512800  0.11233000  1
  O  O23  1  0.85393700  0.16915100  0.59144100  1
  O  O24  1  0.63696900  0.82165800  0.91140000  1
  O  O25  1  0.14221500  0.81885400  0.41104700  1
  O  O26  1  0.83896400  0.81883100  0.10773000  1
  O  O27  1  0.33863400  0.82161500  0.61303500  1
  O  O28  1  0.67252200  0.33745400  0.92029600  1
  O  O29  1  0.14156600  0.35206400  0.37146900  1
  O  O30  1  0.87854100  0.35206600  0.10848900  1
  O  O31  1  0.32977500  0.33749700  0.57748000  1
loop_
_geom_bond_atom_site_label_1
_geom_bond_atom_site_label_2
_geom_bond_distance
_geom_bond_site_symmetry_2
Mn0 O4 1.903288 1_555
Mn0 O15 1.931387 1_555
Mn0 O17 2.023950 1_555
Mn0 O18 2.053729 1_555
Mn0 O25 2.390796 1_555
Mn0 O27 2.441633 1_555
Mn1 O5 1.900884 1_655
Mn1 O14 1.933941 1_555
Mn1 O19 2.026722 1_555
Mn1 O16 2.050918 1_655
Mn1 O26 2.389311 1_556
Mn1 O24 2.443611 1_555
Mn2 O7 1.923747 1_555
Mn2 O13 1.932426 1_655
Mn2 O25 1.997280 1_655
Mn2 O26 1.997408 1_555
Mn2 O19 2.528694 1_555
Mn2 O17 2.529785 1_555
Mn3 O8 2.022788 1_555
Mn3 O2 2.041627 1_555
Mn3 O21 2.175614 1_555
Mn3 O28 2.197722 1_554
Mn3 O22 2.279290 1_555
Mn3 O30 2.608912 1_555
Mn4 O9 2.024143 1_555
Mn4 O3 2.039738 1_455
Mn4 O23 2.175001 1_455
Mn4 O31 2.198751 1_555
Mn4 O20 2.279453 1_555
Mn4 O29 2.608270 1_555
Mn5 O12 1.919724 1_555
Mn5 O6 1.992551 1_555
Mn5 O27 2.006405 1_555
Mn5 O24 2.006943 1_555
Mn5 O18 2.474936 1_556
Mn5 O16 2.475702 1_555
O0 P0 1.592038 1_555
O0 Sb1 2.006010 1_555
O1 P1 1.544445 1_555
O1 Sb0 2.131729 1_555
O2 P7 1.505721 1_555
O3 P6 1.506135 1_555
O4 P4 1.553472 1_555
O5 P5 1.553912 1_555
O6 P2 1.528322 1_565
O7 P3 1.528007 1_565
O8 P4 1.513910 1_545
O9 P5 1.513664 1_545
O10 P2 1.505849 1_555
O10 Sb0 2.308713 1_555
O11 P3 1.569830 1_555
O11 Sb1 2.002416 1_655
O12 P1 1.554090 1_555
O13 P0 1.542612 1_555
O14 P6 1.537836 1_555
O15 P7 1.538193 1_555
O16 P0 1.549873 1_556
O17 P1 1.558718 1_555
O18 P0 1.549526 1_555
O19 P1 1.558200 1_555
O20 P2 1.622587 1_555
O20 Sb1 2.087841 1_556
O21 P3 1.561887 1_555
O21 Sb0 2.311636 1_555
O22 P2 1.622561 1_554
O22 Sb1 2.087947 1_555
O23 P3 1.561800 1_555
O23 Sb0 2.311876 1_555
O24 P4 1.568719 1_556
O25 P5 1.581994 1_555
O26 P4 1.582598 1_555
O27 P5 1.569182 1_555
O28 P6 1.554080 1_555
O28 Sb0 2.364160 1_555
O29 P7 1.636537 1_555
O29 Sb1 1.996079 1_555
O30 P6 1.636649 1_554
O30 Sb1 1.996068 1_655
O31 P7 1.553819 1_555
O31 Sb0 2.364291 1_555
