# generated using pymatgen
data_TmB2HO5
_symmetry_space_group_name_H-M   'P 1'
_cell_length_a   5.89009801
_cell_length_b   5.89009801
_cell_length_c   11.19239537
_cell_angle_alpha   90.40435105
_cell_angle_beta   90.40435105
_cell_angle_gamma   110.06481678
_symmetry_Int_Tables_number   1
_chemical_formula_structural   TmB2HO5
_chemical_formula_sum   'Tm4 B8 H4 O20'
_cell_volume   364.70510251
_cell_formula_units_Z   4
loop_
 _symmetry_equiv_pos_site_id
 _symmetry_equiv_pos_as_xyz
  1  'x, y, z'
loop_
 _atom_site_type_symbol
 _atom_site_label
 _atom_site_symmetry_multiplicity
 _atom_site_fract_x
 _atom_site_fract_y
 _atom_site_fract_z
 _atom_site_occupancy
  Tm  Tm0  1  0.82443300  0.66793000  0.44761800  1
  Tm  Tm1  1  0.33207000  0.17556700  0.05238200  1
  Tm  Tm2  1  0.17556700  0.33207000  0.55238200  1
  Tm  Tm3  1  0.66793000  0.82443300  0.94761800  1
  B  B0  1  0.36803600  0.11307500  0.77402400  1
  B  B1  1  0.88692500  0.63196400  0.72597600  1
  B  B2  1  0.63196400  0.88692500  0.22597600  1
  B  B3  1  0.11307500  0.36803600  0.27402400  1
  B  B4  1  0.85117900  0.65140600  0.12882500  1
  B  B5  1  0.34859400  0.14882100  0.37117500  1
  B  B6  1  0.14882100  0.34859400  0.87117500  1
  B  B7  1  0.65140600  0.85117900  0.62882500  1
  H  H0  1  0.98902200  0.63654200  0.90877800  1
  H  H1  1  0.36345800  0.01097800  0.59122200  1
  H  H2  1  0.01097800  0.36345800  0.09122200  1
  H  H3  1  0.63654200  0.98902200  0.40877800  1
  O  O0  1  0.65879500  0.48515000  0.07245800  1
  O  O1  1  0.51485000  0.34120500  0.42754200  1
  O  O2  1  0.34120500  0.51485000  0.92754200  1
  O  O3  1  0.48515000  0.65879500  0.57245800  1
  O  O4  1  0.01039100  0.81808900  0.05508800  1
  O  O5  1  0.18191100  0.98960900  0.44491200  1
  O  O6  1  0.98960900  0.18191100  0.94491200  1
  O  O7  1  0.81808900  0.01039100  0.55508800  1
  O  O8  1  0.96509200  0.54786300  0.83026400  1
  O  O9  1  0.45213700  0.03490800  0.66973600  1
  O  O10  1  0.03490800  0.45213700  0.16973600  1
  O  O11  1  0.54786300  0.96509200  0.33026400  1
  O  O12  1  0.78491100  0.75164500  0.24324600  1
  O  O13  1  0.24835500  0.21508900  0.25675400  1
  O  O14  1  0.21508900  0.24835500  0.75675400  1
  O  O15  1  0.75164500  0.78491100  0.74324600  1
  O  O16  1  0.44148000  0.05508200  0.88017100  1
  O  O17  1  0.94491800  0.55852000  0.61982900  1
  O  O18  1  0.55852000  0.94491800  0.11982900  1
  O  O19  1  0.05508200  0.44148000  0.38017100  1
loop_
_geom_bond_atom_site_label_1
_geom_bond_atom_site_label_2
_geom_bond_distance
_geom_bond_site_symmetry_2
B0 O16 1.347264 1_555
B0 O14 1.405741 1_555
B0 O9 1.406010 1_555
B1 O17 1.347264 1_555
B1 O15 1.405741 1_555
B1 O8 1.406010 1_555
B2 O18 1.347264 1_555
B2 O12 1.405741 1_555
B2 O11 1.406010 1_555
B3 O19 1.347264 1_555
B3 O13 1.405741 1_555
B3 O10 1.406010 1_555
B4 O0 1.364111 1_555
B4 O4 1.383848 1_655
B4 O12 1.515095 1_555
B4 O10 1.905394 1_655
B5 O1 1.364111 1_555
B5 O5 1.383848 1_545
B5 O13 1.515095 1_555
B5 O11 1.905394 1_545
B6 O2 1.364111 1_555
B6 O6 1.383848 1_455
B6 O14 1.515095 1_555
B6 O8 1.905394 1_455
B7 O3 1.364111 1_555
B7 O7 1.383848 1_565
B7 O15 1.515095 1_555
B7 O9 1.905394 1_565
H0 O8 1.003079 1_555
H0 Tm3 2.536065 1_555
H1 O9 1.003079 1_555
H1 Tm2 2.536065 1_555
H2 O10 1.003079 1_555
H2 Tm1 2.536065 1_555
H3 O11 1.003079 1_555
H3 Tm0 2.536065 1_555
O0 Tm1 2.158533 1_555
O0 Tm3 2.432193 1_554
O1 Tm0 2.158533 1_555
O1 Tm2 2.432193 1_555
O2 Tm3 2.158533 1_555
O2 Tm1 2.432193 1_556
O3 Tm2 2.158533 1_555
O3 Tm0 2.432193 1_555
O4 Tm1 2.299699 1_565
O4 Tm3 2.352691 1_454
O5 Tm0 2.299699 1_455
O5 Tm2 2.352691 1_565
O6 Tm3 2.299699 1_545
O6 Tm1 2.352691 1_656
O7 Tm2 2.299699 1_655
O7 Tm0 2.352691 1_545
O12 Tm0 2.369968 1_555
O13 Tm1 2.369968 1_555
O14 Tm2 2.369968 1_555
O15 Tm3 2.369968 1_555
O16 Tm1 2.223969 1_556
O16 Tm3 2.331993 1_545
O17 Tm0 2.223969 1_555
O17 Tm2 2.331993 1_655
O18 Tm3 2.223969 1_554
O18 Tm1 2.331993 1_565
O19 Tm2 2.223969 1_555
O19 Tm0 2.331993 1_455
