# generated using pymatgen
data_KCu3SiSe4
_symmetry_space_group_name_H-M   'P 1'
_cell_length_a   6.12763100
_cell_length_b   6.12763100
_cell_length_c   6.12763100
_cell_angle_alpha   90.00000000
_cell_angle_beta   90.00000000
_cell_angle_gamma   90.00000000
_symmetry_Int_Tables_number   1
_chemical_formula_structural   KCu3SiSe4
_chemical_formula_sum   'K1 Cu3 Si1 Se4'
_cell_volume   230.07944117
_cell_formula_units_Z   1
loop_
 _symmetry_equiv_pos_site_id
 _symmetry_equiv_pos_as_xyz
  1  'x, y, z'
loop_
 _atom_site_type_symbol
 _atom_site_label
 _atom_site_symmetry_multiplicity
 _atom_site_fract_x
 _atom_site_fract_y
 _atom_site_fract_z
 _atom_site_occupancy
  K  K0  1  0.50000000  0.50000000  0.50000000  1
  Cu  Cu0  1  0.00000000  0.50000000  0.00000000  1
  Cu  Cu1  1  0.00000000  0.00000000  0.50000000  1
  Cu  Cu2  1  0.50000000  0.00000000  0.00000000  1
  Si  Si0  1  0.00000000  0.00000000  0.00000000  1
  Se  Se0  1  0.21394900  0.21394900  0.21394900  1
  Se  Se1  1  0.78605100  0.78605100  0.21394900  1
  Se  Se2  1  0.21394900  0.78605100  0.78605100  1
  Se  Se3  1  0.78605100  0.21394900  0.78605100  1
loop_
_geom_bond_atom_site_label_1
_geom_bond_atom_site_label_2
_geom_bond_distance
_geom_bond_site_symmetry_2
K0 Se1 3.035965 1_555
K0 Se3 3.035965 1_555
K0 Se2 3.035965 1_555
K0 Se0 3.035965 1_555
Cu0 Se3 2.551432 1_454
Cu0 Se0 2.551432 1_555
Cu0 Se2 2.551432 1_554
Cu0 Se1 2.551432 1_455
Cu1 Se1 2.551432 1_445
Cu1 Se3 2.551432 1_455
Cu1 Se0 2.551432 1_555
Cu1 Se2 2.551432 1_545
Cu2 Se2 2.551432 1_544
Cu2 Se1 2.551432 1_545
Cu2 Se0 2.551432 1_555
Cu2 Se3 2.551432 1_554
Se0 Si0 2.270720 1_555
Se1 Si0 2.270720 1_665
Se2 Si0 2.270720 1_566
Se3 Si0 2.270720 1_656
