# generated using pymatgen
data_ThBRh3
_symmetry_space_group_name_H-M   'P 1'
_cell_length_a   4.25609694
_cell_length_b   4.25609694
_cell_length_c   4.25609694
_cell_angle_alpha   90.00000000
_cell_angle_beta   90.00000000
_cell_angle_gamma   90.00000000
_symmetry_Int_Tables_number   1
_chemical_formula_structural   ThBRh3
_chemical_formula_sum   'Th1 B1 Rh3'
_cell_volume   77.09647711
_cell_formula_units_Z   1
loop_
 _symmetry_equiv_pos_site_id
 _symmetry_equiv_pos_as_xyz
  1  'x, y, z'
loop_
 _atom_site_type_symbol
 _atom_site_label
 _atom_site_symmetry_multiplicity
 _atom_site_fract_x
 _atom_site_fract_y
 _atom_site_fract_z
 _atom_site_occupancy
  Th  Th0  1  0.50000000  0.50000000  0.50000000  1
  B  B0  1  0.00000000  0.00000000  0.00000000  1
  Rh  Rh0  1  0.50000000  -0.00000000  -0.00000000  1
  Rh  Rh1  1  -0.00000000  0.50000000  -0.00000000  1
  Rh  Rh2  1  0.00000000  -0.00000000  0.50000000  1
loop_
_geom_bond_atom_site_label_1
_geom_bond_atom_site_label_2
_geom_bond_distance
_geom_bond_site_symmetry_2
B0 Rh2 2.128048 1_554
B0 Rh1 2.128048 1_545
B0 Rh0 2.128048 1_555
B0 Rh0 2.128048 1_455
B0 Rh2 2.128048 1_555
B0 Rh1 2.128048 1_555
Rh0 Th0 3.009515 1_554
Rh0 Th0 3.009515 1_544
Rh0 Th0 3.009515 1_555
Rh0 Th0 3.009515 1_545
Rh1 Th0 3.009515 1_455
Rh1 Th0 3.009515 1_554
Rh1 Th0 3.009515 1_454
Rh1 Th0 3.009515 1_555
Rh2 Th0 3.009515 1_455
Rh2 Th0 3.009515 1_445
Rh2 Th0 3.009515 1_555
Rh2 Th0 3.009515 1_545
