# generated using pymatgen
data_Eu2Nb5O9
_symmetry_space_group_name_H-M   'P 1'
_cell_length_a   4.17920781
_cell_length_b   4.17920776
_cell_length_c   12.07482643
_cell_angle_alpha   90.00000079
_cell_angle_beta   90.00000023
_cell_angle_gamma   90.00000137
_symmetry_Int_Tables_number   1
_chemical_formula_structural   Eu2Nb5O9
_chemical_formula_sum   'Eu2 Nb5 O9'
_cell_volume   210.89623432
_cell_formula_units_Z   1
loop_
 _symmetry_equiv_pos_site_id
 _symmetry_equiv_pos_as_xyz
  1  'x, y, z'
loop_
 _atom_site_type_symbol
 _atom_site_label
 _atom_site_symmetry_multiplicity
 _atom_site_fract_x
 _atom_site_fract_y
 _atom_site_fract_z
 _atom_site_occupancy
  Eu  Eu0  1  0.50000001  0.50000001  0.17169488  1
  Eu  Eu1  1  0.50000004  0.50000002  0.82836494  1
  Nb  Nb0  1  -0.00000006  0.00000008  0.00003291  1
  Nb  Nb1  1  -0.00000002  0.00000000  0.33581909  1
  Nb  Nb2  1  -0.00000004  -0.00000001  0.66415646  1
  Nb  Nb3  1  -0.00000006  0.50000000  0.49997119  1
  Nb  Nb4  1  0.50000005  -0.00000002  0.49997119  1
  O  O0  1  -0.00000006  0.49999999  0.32042764  1
  O  O1  1  -0.00000005  0.49999997  0.67954552  1
  O  O2  1  0.50000006  -0.00000001  0.32042768  1
  O  O3  1  0.50000006  -0.00000001  0.67954547  1
  O  O4  1  -0.00000001  -0.00000001  0.16202929  1
  O  O5  1  0.00000001  0.00000000  0.83799525  1
  O  O6  1  -0.00000001  0.50000001  0.00002225  1
  O  O7  1  0.50000003  0.00000001  0.00002225  1
  O  O8  1  0.50000005  0.49999998  0.49997399  1
loop_
_geom_bond_atom_site_label_1
_geom_bond_atom_site_label_2
_geom_bond_distance
_geom_bond_site_symmetry_2
Eu0 O0 2.755318 1_655
Eu0 O2 2.755319 1_565
Eu0 O0 2.755319 1_555
Eu0 O2 2.755319 1_555
Eu0 O6 2.943371 1_655
Eu0 O7 2.943371 1_555
Eu0 O7 2.943371 1_565
Eu0 O6 2.943371 1_555
Eu0 O4 2.957450 1_665
Eu0 O4 2.957450 1_655
Eu0 O4 2.957450 1_565
Eu0 O4 2.957450 1_555
Eu1 O1 2.756001 1_655
Eu1 O1 2.756001 1_555
Eu1 O3 2.756001 1_565
Eu1 O3 2.756001 1_555
Eu1 O6 2.943240 1_656
Eu1 O7 2.943240 1_566
Eu1 O7 2.943240 1_556
Eu1 O6 2.943240 1_556
Eu1 O5 2.957433 1_665
Eu1 O5 2.957433 1_655
Eu1 O5 2.957433 1_565
Eu1 O5 2.957433 1_555
Nb0 O4 1.956078 1_555
Nb0 O5 1.956577 1_554
Nb0 O7 2.089604 1_455
Nb0 O6 2.089604 1_555
Nb0 O6 2.089604 1_545
Nb0 O7 2.089604 1_555
Nb1 O2 2.097852 1_455
Nb1 O0 2.097852 1_555
Nb1 O0 2.097852 1_545
Nb1 O2 2.097853 1_555
Nb1 O4 2.098482 1_555
Nb2 O3 2.097849 1_455
Nb2 O1 2.097850 1_555
Nb2 O1 2.097850 1_545
Nb2 O3 2.097850 1_555
Nb2 O5 2.099073 1_555
Nb3 O8 2.089603 1_455
Nb3 O8 2.089604 1_555
Nb3 O0 2.167957 1_555
Nb3 O1 2.168329 1_555
Nb4 O8 2.089604 1_555
Nb4 O8 2.089604 1_545
Nb4 O2 2.167957 1_555
Nb4 O3 2.168328 1_555
