# generated using pymatgen
data_Re7B3
_symmetry_space_group_name_H-M   'P 1'
_cell_length_a   7.52110628
_cell_length_b   7.52110628
_cell_length_c   4.89445154
_cell_angle_alpha   90.00000000
_cell_angle_beta   90.00000000
_cell_angle_gamma   120.00000319
_symmetry_Int_Tables_number   1
_chemical_formula_structural   Re7B3
_chemical_formula_sum   'Re14 B6'
_cell_volume   239.77179930
_cell_formula_units_Z   2
loop_
 _symmetry_equiv_pos_site_id
 _symmetry_equiv_pos_as_xyz
  1  'x, y, z'
loop_
 _atom_site_type_symbol
 _atom_site_label
 _atom_site_symmetry_multiplicity
 _atom_site_fract_x
 _atom_site_fract_y
 _atom_site_fract_z
 _atom_site_occupancy
  Re  Re0  1  0.66666700  0.33333300  0.58400883  1
  Re  Re1  1  0.33333300  0.66666700  0.08400883  1
  Re  Re2  1  0.87718799  0.75437498  0.75225498  1
  Re  Re3  1  0.24562502  0.12281201  0.75225498  1
  Re  Re4  1  0.87718799  0.12281201  0.75225498  1
  Re  Re5  1  0.12281201  0.24562502  0.25225498  1
  Re  Re6  1  0.75437498  0.87718799  0.25225498  1
  Re  Re7  1  0.12281201  0.87718799  0.25225498  1
  Re  Re8  1  0.45411726  0.90823551  0.54986287  1
  Re  Re9  1  0.09176449  0.54588274  0.54986287  1
  Re  Re10  1  0.45411726  0.54588274  0.54986287  1
  Re  Re11  1  0.54588274  0.09176449  0.04986287  1
  Re  Re12  1  0.90823551  0.45411726  0.04986287  1
  Re  Re13  1  0.54588274  0.45411726  0.04986287  1
  B  B0  1  0.18938329  0.37876558  0.84053987  1
  B  B1  1  0.62123442  0.81061671  0.84053987  1
  B  B2  1  0.18938329  0.81061671  0.84053987  1
  B  B3  1  0.81061671  0.62123442  0.34053987  1
  B  B4  1  0.37876558  0.18938329  0.34053987  1
  B  B5  1  0.81061671  0.18938329  0.34053987  1
loop_
_geom_bond_atom_site_label_1
_geom_bond_atom_site_label_2
_geom_bond_distance
_geom_bond_site_symmetry_2
B0 Re5 2.193799 1_556
B0 Re4 2.210379 1_455
B0 Re3 2.210379 1_555
B0 Re1 2.221832 1_556
B0 Re10 2.250718 1_555
B0 Re9 2.250728 1_555
B1 Re6 2.193799 1_556
B1 Re4 2.210379 1_565
B1 Re2 2.210379 1_555
B1 Re1 2.221832 1_556
B1 Re10 2.250718 1_555
B1 Re8 2.250728 1_555
B2 Re7 2.193804 1_556
B2 Re2 2.210379 1_455
B2 Re3 2.210379 1_565
B2 Re1 2.221821 1_556
B2 Re8 2.250717 1_555
B2 Re9 2.250717 1_555
B3 Re2 2.193799 1_555
B3 Re7 2.210379 1_655
B3 Re6 2.210379 1_555
B3 Re0 2.221832 1_555
B3 Re13 2.250718 1_555
B3 Re12 2.250728 1_555
B4 Re3 2.193799 1_555
B4 Re7 2.210379 1_545
B4 Re5 2.210379 1_555
B4 Re0 2.221832 1_555
B4 Re13 2.250718 1_555
B4 Re11 2.250728 1_555
B5 Re4 2.193804 1_555
B5 Re6 2.210379 1_545
B5 Re5 2.210379 1_655
B5 Re0 2.221821 1_555
B5 Re11 2.250717 1_555
B5 Re12 2.250717 1_555
