# generated using pymatgen
data_EuY2O4
_symmetry_space_group_name_H-M   'P 1'
_cell_length_a   3.42187000
_cell_length_b   10.16602500
_cell_length_c   11.99776966
_cell_angle_alpha   89.81631347
_cell_angle_beta   90.00000000
_cell_angle_gamma   90.00000000
_symmetry_Int_Tables_number   1
_chemical_formula_structural   EuY2O4
_chemical_formula_sum   'Eu4 Y8 O16'
_cell_volume   417.36206022
_cell_formula_units_Z   4
loop_
 _symmetry_equiv_pos_site_id
 _symmetry_equiv_pos_as_xyz
  1  'x, y, z'
loop_
 _atom_site_type_symbol
 _atom_site_label
 _atom_site_symmetry_multiplicity
 _atom_site_fract_x
 _atom_site_fract_y
 _atom_site_fract_z
 _atom_site_occupancy
  Eu  Eu0  1  0.75000000  0.24486600  0.14932100  1
  Eu  Eu1  1  0.25000000  0.25375500  0.65246200  1
  Eu  Eu2  1  0.75000000  0.74624500  0.34753800  1
  Eu  Eu3  1  0.25000000  0.75513400  0.85067900  1
  Y  Y0  1  0.75000000  0.07559100  0.38791300  1
  Y  Y1  1  0.75000000  0.07885700  0.89126200  1
  Y  Y2  1  0.25000000  0.42129500  0.39147800  1
  Y  Y3  1  0.25000000  0.42721100  0.88821400  1
  Y  Y4  1  0.75000000  0.57278900  0.11178600  1
  Y  Y5  1  0.75000000  0.57870500  0.60852200  1
  Y  Y6  1  0.25000000  0.92114300  0.10873800  1
  Y  Y7  1  0.25000000  0.92440900  0.61208700  1
  O  O0  1  0.25000000  0.02118800  0.78338900  1
  O  O1  1  0.75000000  0.08023900  0.57767500  1
  O  O2  1  0.25000000  0.12441100  0.02424000  1
  O  O3  1  0.25000000  0.20999400  0.32317600  1
  O  O4  1  0.75000000  0.29165100  0.82728300  1
  O  O5  1  0.75000000  0.37407200  0.52374500  1
  O  O6  1  0.25000000  0.42035000  0.07822400  1
  O  O7  1  0.75000000  0.48445200  0.28590600  1
  O  O8  1  0.25000000  0.51554800  0.71409400  1
  O  O9  1  0.75000000  0.57965000  0.92177600  1
  O  O10  1  0.25000000  0.62592800  0.47625500  1
  O  O11  1  0.25000000  0.70834900  0.17271700  1
  O  O12  1  0.75000000  0.79000600  0.67682400  1
  O  O13  1  0.75000000  0.87558900  0.97576000  1
  O  O14  1  0.25000000  0.91976100  0.42232500  1
  O  O15  1  0.75000000  0.97881200  0.21661100  1
loop_
_geom_bond_atom_site_label_1
_geom_bond_atom_site_label_2
_geom_bond_distance
_geom_bond_site_symmetry_2
Eu0 O2 2.586635 1_555
Eu0 O2 2.586635 1_655
Eu0 O6 2.612992 1_655
Eu0 O6 2.612992 1_555
Eu0 O3 2.720128 1_655
Eu0 O3 2.720128 1_555
Eu0 O15 2.820150 1_545
Eu0 O7 2.939950 1_555
Eu1 O5 2.606950 1_455
Eu1 O5 2.606950 1_555
Eu1 O1 2.618041 1_455
Eu1 O1 2.618041 1_555
Eu1 O4 2.735004 1_555
Eu1 O4 2.735004 1_455
Eu1 O8 2.764492 1_555
Eu1 O0 2.834348 1_555
Eu2 O10 2.606950 1_555
Eu2 O10 2.606950 1_655
Eu2 O14 2.618041 1_555
Eu2 O14 2.618041 1_655
Eu2 O11 2.735004 1_555
Eu2 O11 2.735004 1_655
Eu2 O7 2.764492 1_555
Eu2 O15 2.834348 1_555
Eu3 O13 2.586635 1_455
Eu3 O13 2.586635 1_555
Eu3 O9 2.612992 1_555
Eu3 O9 2.612992 1_455
Eu3 O12 2.720128 1_455
Eu3 O12 2.720128 1_555
Eu3 O0 2.820150 1_565
Eu3 O8 2.939950 1_555
O0 Y1 2.225065 1_555
O0 Y1 2.225065 1_455
O0 Y7 2.281438 1_545
O1 Y0 2.277362 1_555
O1 Y7 2.367100 1_645
O1 Y7 2.367100 1_545
O2 Y6 2.298794 1_545
O2 Y1 2.385776 1_554
O2 Y1 2.385776 1_454
O3 Y2 2.301547 1_555
O3 Y0 2.321778 1_455
O3 Y0 2.321778 1_555
O4 Y1 2.293099 1_555
O4 Y3 2.316754 1_655
O4 Y3 2.316754 1_555
O5 Y5 2.318576 1_555
O5 Y2 2.381420 1_655
O5 Y2 2.381420 1_555
O6 Y3 2.280539 1_554
O6 Y4 2.344143 1_455
O6 Y4 2.344143 1_555
O7 Y2 2.222311 1_555
O7 Y2 2.222311 1_655
O7 Y4 2.271250 1_555
O8 Y5 2.222311 1_455
O8 Y5 2.222311 1_555
O8 Y3 2.271250 1_555
O9 Y4 2.280539 1_556
O9 Y3 2.344143 1_655
O9 Y3 2.344143 1_555
O10 Y2 2.318576 1_555
O10 Y5 2.381420 1_455
O10 Y5 2.381420 1_555
O11 Y6 2.293099 1_555
O11 Y4 2.316754 1_455
O11 Y4 2.316754 1_555
O12 Y5 2.301547 1_555
O12 Y7 2.321778 1_655
O12 Y7 2.321778 1_555
O13 Y1 2.298794 1_565
O13 Y6 2.385776 1_556
O13 Y6 2.385776 1_656
O14 Y7 2.277362 1_555
O14 Y0 2.367100 1_465
O14 Y0 2.367100 1_565
O15 Y6 2.225065 1_655
O15 Y6 2.225065 1_555
O15 Y0 2.281438 1_565
