# generated using pymatgen
data_V10Si6B
_symmetry_space_group_name_H-M   'P 1'
_cell_length_a   7.11397971
_cell_length_b   7.11397971
_cell_length_c   4.82636915
_cell_angle_alpha   90.00000000
_cell_angle_beta   90.00000000
_cell_angle_gamma   120.00000490
_symmetry_Int_Tables_number   1
_chemical_formula_structural   V10Si6B
_chemical_formula_sum   'V10 Si6 B1'
_cell_volume   211.53215340
_cell_formula_units_Z   1
loop_
 _symmetry_equiv_pos_site_id
 _symmetry_equiv_pos_as_xyz
  1  'x, y, z'
loop_
 _atom_site_type_symbol
 _atom_site_label
 _atom_site_symmetry_multiplicity
 _atom_site_fract_x
 _atom_site_fract_y
 _atom_site_fract_z
 _atom_site_occupancy
  V  V0  1  0.00000000  0.75564844  0.24722311  1
  V  V1  1  0.24435156  0.24435156  0.24722311  1
  V  V2  1  0.75564844  0.00000000  0.24722311  1
  V  V3  1  -0.00000000  0.24435156  0.75277689  1
  V  V4  1  0.75564844  0.75564844  0.75277689  1
  V  V5  1  0.24435156  -0.00000000  0.75277689  1
  V  V6  1  0.33333300  0.66666700  0.50000000  1
  V  V7  1  0.66666700  0.33333300  0.50000000  1
  V  V8  1  0.66666700  0.33333300  0.00000000  1
  V  V9  1  0.33333300  0.66666700  0.00000000  1
  Si  Si0  1  -0.00000000  0.39825376  0.24691563  1
  Si  Si1  1  0.60174624  0.60174624  0.24691563  1
  Si  Si2  1  0.39825376  -0.00000000  0.24691563  1
  Si  Si3  1  0.00000000  0.60174624  0.75308437  1
  Si  Si4  1  0.39825376  0.39825376  0.75308437  1
  Si  Si5  1  0.60174624  0.00000000  0.75308437  1
  B  B0  1  0.00000000  0.00000000  0.50000000  1
loop_
_geom_bond_atom_site_label_1
_geom_bond_atom_site_label_2
_geom_bond_distance
_geom_bond_site_symmetry_2
V6 V9 2.413185 1_556
V6 V9 2.413185 1_555
V7 V8 2.413185 1_555
V7 V8 2.413185 1_556
Si0 V2 2.474600 1_455
Si0 V1 2.474600 1_555
Si0 V8 2.482228 1_455
Si0 V9 2.482230 1_555
Si0 V7 2.496659 1_455
Si0 V6 2.496661 1_555
Si0 V0 2.542499 1_555
Si0 V3 2.624203 1_554
Si0 V3 2.675725 1_555
Si1 V0 2.474600 1_655
Si1 V2 2.474600 1_565
Si1 V8 2.482235 1_555
Si1 V9 2.482235 1_555
Si1 V7 2.496665 1_555
Si1 V6 2.496665 1_555
Si1 V1 2.542499 1_555
Si1 V4 2.624203 1_554
Si1 V4 2.675725 1_555
Si2 V0 2.474600 1_545
Si2 V1 2.474600 1_555
Si2 V9 2.482228 1_545
Si2 V8 2.482230 1_555
Si2 V6 2.496659 1_545
Si2 V7 2.496661 1_555
Si2 V2 2.542499 1_555
Si2 V5 2.624203 1_554
Si2 V5 2.675725 1_555
Si3 V5 2.474600 1_565
Si3 V4 2.474600 1_455
Si3 V9 2.482228 1_556
Si3 V8 2.482230 1_456
Si3 V6 2.496659 1_555
Si3 V7 2.496661 1_455
Si3 V3 2.542499 1_555
Si3 V0 2.624203 1_556
Si3 V0 2.675725 1_555
Si4 V5 2.474600 1_555
Si4 V3 2.474600 1_555
Si4 V8 2.482235 1_556
Si4 V9 2.482235 1_556
Si4 V6 2.496665 1_555
Si4 V7 2.496665 1_555
Si4 V4 2.542499 1_555
Si4 V1 2.624203 1_556
Si4 V1 2.675725 1_555
Si5 V3 2.474600 1_655
Si5 V4 2.474600 1_545
Si5 V8 2.482228 1_556
Si5 V9 2.482230 1_546
Si5 V7 2.496659 1_555
Si5 V6 2.496661 1_545
Si5 V5 2.542499 1_555
Si5 V2 2.624203 1_556
Si5 V2 2.675725 1_555
B0 V4 2.123703 1_445
B0 V1 2.123703 1_555
B0 V3 2.123703 1_555
B0 V5 2.123703 1_555
B0 V2 2.123703 1_455
B0 V0 2.123703 1_545
