# generated using pymatgen
data_TmCuSi
_symmetry_space_group_name_H-M   'P 1'
_cell_length_a   3.61147400
_cell_length_b   4.12359796
_cell_length_c   4.12559673
_cell_angle_alpha   119.97625173
_cell_angle_beta   90.00000000
_cell_angle_gamma   90.00000000
_symmetry_Int_Tables_number   1
_chemical_formula_structural   TmCuSi
_chemical_formula_sum   'Tm1 Cu1 Si1'
_cell_volume   53.22088502
_cell_formula_units_Z   1
loop_
 _symmetry_equiv_pos_site_id
 _symmetry_equiv_pos_as_xyz
  1  'x, y, z'
loop_
 _atom_site_type_symbol
 _atom_site_label
 _atom_site_symmetry_multiplicity
 _atom_site_fract_x
 _atom_site_fract_y
 _atom_site_fract_z
 _atom_site_occupancy
  Tm  Tm0  1  0.00000000  0.99989100  0.00003400  1
  Cu  Cu0  1  0.50000000  0.33345400  0.66705100  1
  Si  Si0  1  0.50000000  0.66655500  0.33291500  1
loop_
_geom_bond_atom_site_label_1
_geom_bond_atom_site_label_2
_geom_bond_distance
_geom_bond_site_symmetry_2
Cu0 Si0 2.379616 1_556
Cu0 Si0 2.382164 1_545
Cu0 Si0 2.383092 1_555
Cu0 Tm0 2.987894 1_556
Cu0 Tm0 2.987894 1_656
Cu0 Tm0 2.987983 1_646
Cu0 Tm0 2.987983 1_546
Cu0 Tm0 2.990466 1_645
Cu0 Tm0 2.990466 1_545
Si0 Tm0 2.987047 1_555
Si0 Tm0 2.987047 1_655
Si0 Tm0 2.988540 1_645
Si0 Tm0 2.988540 1_545
Si0 Tm0 2.990756 1_556
Si0 Tm0 2.990756 1_656
