# generated using pymatgen
data_VCoO3
_symmetry_space_group_name_H-M   'P 1'
_cell_length_a   5.06005649
_cell_length_b   5.52611077
_cell_length_c   4.98940519
_cell_angle_alpha   63.35074915
_cell_angle_beta   118.81426230
_cell_angle_gamma   118.43172080
_symmetry_Int_Tables_number   1
_chemical_formula_structural   VCoO3
_chemical_formula_sum   'V2 Co2 O6'
_cell_volume   103.06190016
_cell_formula_units_Z   2
loop_
 _symmetry_equiv_pos_site_id
 _symmetry_equiv_pos_as_xyz
  1  'x, y, z'
loop_
 _atom_site_type_symbol
 _atom_site_label
 _atom_site_symmetry_multiplicity
 _atom_site_fract_x
 _atom_site_fract_y
 _atom_site_fract_z
 _atom_site_occupancy
  V  V0  1  0.34987100  0.05312000  0.64873900  1
  V  V1  1  0.66073800  0.94913000  0.34945900  1
  Co  Co0  1  0.84928800  0.56958800  0.13164000  1
  Co  Co1  1  0.15409700  0.45144600  0.84734300  1
  O  O0  1  0.45450500  0.22541500  0.28664500  1
  O  O1  1  0.53446900  0.74989800  0.72753600  1
  O  O2  1  0.92231600  0.76806400  0.43431900  1
  O  O3  1  0.06730100  0.22882900  0.57946800  1
  O  O4  1  0.74031500  0.24544500  0.94268400  1
  O  O5  1  0.26710100  0.75906500  0.05216700  1
loop_
_geom_bond_atom_site_label_1
_geom_bond_atom_site_label_2
_geom_bond_distance
_geom_bond_site_symmetry_2
Co0 O5 2.012705 1_655
Co0 O2 2.045039 1_555
Co0 O1 2.051563 1_554
Co0 O4 2.115355 1_554
Co0 O0 2.181257 1_555
Co0 O3 2.362862 1_655
Co1 O3 1.971615 1_555
Co1 O1 1.995963 1_555
Co1 O4 2.027490 1_455
Co1 O5 2.081023 1_556
Co1 O0 2.194408 1_556
Co1 O2 2.252408 1_455
O0 V0 1.830232 1_555
O0 V1 2.071456 1_545
O1 V1 1.951337 1_555
O1 V0 2.092910 1_565
O2 V1 1.809206 1_555
O2 V0 2.083749 1_665
O3 V0 1.910827 1_555
O3 V1 2.055681 1_445
O4 V0 1.946675 1_555
O4 V1 2.035011 1_546
O5 V1 1.956592 1_555
O5 V0 2.024358 1_564
