# generated using pymatgen
data_CdH8(NO5)2
_symmetry_space_group_name_H-M   'P 1'
_cell_length_a   13.20108092
_cell_length_b   14.00746093
_cell_length_c   6.26081801
_cell_angle_alpha   69.62916517
_cell_angle_beta   84.05398849
_cell_angle_gamma   26.37672124
_symmetry_Int_Tables_number   1
_chemical_formula_structural   CdH8(NO5)2
_chemical_formula_sum   'Cd2 H16 N4 O20'
_cell_volume   417.55772378
_cell_formula_units_Z   2
loop_
 _symmetry_equiv_pos_site_id
 _symmetry_equiv_pos_as_xyz
  1  'x, y, z'
loop_
 _atom_site_type_symbol
 _atom_site_label
 _atom_site_symmetry_multiplicity
 _atom_site_fract_x
 _atom_site_fract_y
 _atom_site_fract_z
 _atom_site_occupancy
  Cd  Cd0  1  0.25699300  0.24238100  0.24682800  1
  Cd  Cd1  1  0.00573600  0.99516000  0.99812000  1
  H  H0  1  0.49136000  0.62374400  0.99143300  1
  H  H1  1  0.88655000  0.99860900  0.62156200  1
  H  H2  1  0.24897200  0.36682500  0.75366900  1
  H  H3  1  0.63139700  0.75360900  0.35939100  1
  H  H4  1  0.49512900  0.49999700  0.05967100  1
  H  H5  1  0.94624500  0.05902400  0.50057300  1
  H  H6  1  0.19451300  0.30148000  0.75375900  1
  H  H7  1  0.75268200  0.75244700  0.30134700  1
  H  H8  1  0.15002700  0.17905900  0.63706900  1
  H  H9  1  0.03234400  0.63755200  0.17824700  1
  H  H10  1  0.61413700  0.21541000  0.10454400  1
  H  H11  1  0.07276100  0.09855800  0.22219900  1
  H  H12  1  0.43521700  0.96204500  0.77172300  1
  H  H13  1  0.83028800  0.76965800  0.96469400  1
  H  H14  1  0.48006900  0.41741100  0.81936200  1
  H  H15  1  0.28711200  0.81463300  0.42297000  1
  N  N0  1  0.82864600  0.49057400  0.01636900  1
  N  N1  1  0.66678300  0.01305200  0.49471600  1
  N  N2  1  0.23514800  0.58431200  0.42349600  1
  N  N3  1  0.75891900  0.42132700  0.58732400  1
  O  O0  1  0.78244300  0.62076000  0.00524300  1
  O  O1  1  0.59350600  0.00207400  0.62413800  1
  O  O2  1  0.24556500  0.65865400  0.46611100  1
  O  O3  1  0.62772000  0.46888200  0.65968300  1
  O  O4  1  0.06798700  0.24009700  0.15013700  1
  O  O5  1  0.54793100  0.14248200  0.24487000  1
  O  O6  1  0.10661900  0.70095300  0.18564600  1
  O  O7  1  0.00897200  0.18160800  0.70855300  1
  O  O8  1  0.64443800  0.60669600  0.89679900  1
  O  O9  1  0.85099400  0.89761100  0.61112900  1
  O  O10  1  0.35137900  0.39993600  0.61149500  1
  O  O11  1  0.64396300  0.60504800  0.40107300  1
  O  O12  1  0.43445500  0.61214200  0.07918300  1
  O  O13  1  0.87720100  0.07750100  0.61515900  1
  O  O14  1  0.17255000  0.37315600  0.81720300  1
  O  O15  1  0.63901000  0.81524500  0.37134200  1
  O  O16  1  0.24777500  0.15456700  0.63935700  1
  O  O17  1  0.95886900  0.63733300  0.15658700  1
  O  O18  1  0.61165500  0.29110000  0.00651900  1
  O  O19  1  0.09476600  0.00290400  0.29556900  1
loop_
_geom_bond_atom_site_label_1
_geom_bond_atom_site_label_2
_geom_bond_distance
_geom_bond_site_symmetry_2
Cd0 O15 2.311112 1_545
Cd0 O14 2.316324 1_554
Cd0 O16 2.380990 1_555
Cd0 O17 2.384687 1_455
Cd0 O1 2.547639 1_555
Cd0 O0 2.552122 1_455
Cd0 O4 2.657514 1_555
Cd0 O5 2.661134 1_555
Cd1 O12 2.316461 1_556
Cd1 O13 2.317141 1_465
Cd1 O19 2.384046 1_566
Cd1 O18 2.388555 1_466
Cd1 O2 2.528667 1_556
Cd1 O3 2.548321 1_465
Cd1 O7 2.645162 1_565
Cd1 O6 2.693885 1_556
H0 O12 0.981647 1_556
H1 O13 0.981756 1_565
H2 O14 0.982337 1_555
H3 O15 0.981375 1_555
H4 O12 0.991453 1_555
H5 O13 0.991723 1_555
H6 O14 0.990986 1_555
H7 O15 0.992265 1_555
H8 O16 0.995079 1_555
H9 O17 0.996029 1_455
H10 O18 0.995352 1_555
H11 O19 0.996195 1_555
H12 O16 0.997285 1_565
H13 O17 0.997514 1_556
H14 O18 0.996171 1_556
H15 O19 0.997631 1_565
N0 O8 1.249689 1_554
N0 O0 1.276614 1_555
N0 O4 1.278243 1_655
N1 O9 1.249196 1_545
N1 O5 1.277805 1_555
N1 O1 1.278022 1_555
N2 O10 1.251888 1_555
N2 O6 1.276059 1_555
N2 O2 1.277538 1_555
N3 O11 1.251128 1_555
N3 O3 1.276325 1_555
N3 O7 1.277489 1_655
