# generated using pymatgen
data_Y3CuSnSe7
_symmetry_space_group_name_H-M   'P 1'
_cell_length_a   6.53608000
_cell_length_b   10.25667466
_cell_length_c   10.25667466
_cell_angle_alpha   120.00000423
_cell_angle_beta   90.00000000
_cell_angle_gamma   90.00000000
_symmetry_Int_Tables_number   1
_chemical_formula_structural   Y3CuSnSe7
_chemical_formula_sum   'Y6 Cu2 Sn2 Se14'
_cell_volume   595.47170785
_cell_formula_units_Z   2
loop_
 _symmetry_equiv_pos_site_id
 _symmetry_equiv_pos_as_xyz
  1  'x, y, z'
loop_
 _atom_site_type_symbol
 _atom_site_label
 _atom_site_symmetry_multiplicity
 _atom_site_fract_x
 _atom_site_fract_y
 _atom_site_fract_z
 _atom_site_occupancy
  Y  Y0  1  0.89447900  0.84558100  0.20298000  1
  Y  Y1  1  0.89447900  0.35739900  0.15441900  1
  Y  Y2  1  0.39447900  0.15441900  0.79702000  1
  Y  Y3  1  0.89447900  0.79702000  0.64260100  1
  Y  Y4  1  0.39447900  0.64260100  0.84558100  1
  Y  Y5  1  0.39447900  0.20298000  0.35739900  1
  Cu  Cu0  1  0.99805800  0.00000000  0.00000000  1
  Cu  Cu1  1  0.49805800  0.00000000  0.00000000  1
  Sn  Sn0  1  0.32511500  0.66666700  0.33333300  1
  Sn  Sn1  1  0.82511500  0.33333300  0.66666700  1
  Se  Se0  1  0.96919400  0.73539100  0.88193400  1
  Se  Se1  1  0.96919400  0.14654300  0.26460900  1
  Se  Se2  1  0.46919400  0.26460900  0.11806600  1
  Se  Se3  1  0.96919400  0.11806600  0.85345700  1
  Se  Se4  1  0.46919400  0.85345700  0.73539100  1
  Se  Se5  1  0.46919400  0.88193400  0.14654300  1
  Se  Se6  1  0.64250900  0.47812300  0.55620100  1
  Se  Se7  1  0.64250900  0.07807800  0.52187700  1
  Se  Se8  1  0.14250900  0.52187700  0.44379900  1
  Se  Se9  1  0.64250900  0.44379900  0.92192200  1
  Se  Se10  1  0.14250900  0.92192200  0.47812300  1
  Se  Se11  1  0.14250900  0.55620100  0.07807800  1
  Se  Se12  1  0.71728000  0.66666700  0.33333300  1
  Se  Se13  1  0.21728000  0.33333300  0.66666700  1
loop_
_geom_bond_atom_site_label_1
_geom_bond_atom_site_label_2
_geom_bond_distance
_geom_bond_site_symmetry_2
Cu0 Se1 2.362478 1_555
Cu0 Se0 2.362478 1_544
Cu0 Se3 2.362478 1_554
Cu1 Se4 2.362478 1_544
Cu1 Se2 2.362478 1_555
Cu1 Se5 2.362478 1_545
Se0 Y3 2.866281 1_555
Se0 Y4 2.901146 1_655
Se0 Y0 2.938913 1_556
Se1 Y0 2.866281 1_545
Se1 Y5 2.901146 1_655
Se1 Y1 2.938913 1_555
Se2 Y5 2.866281 1_555
Se2 Y1 2.901146 1_555
Se2 Y2 2.938913 1_554
Se3 Y1 2.866281 1_556
Se3 Y2 2.901146 1_655
Se3 Y3 2.938913 1_545
Se4 Y2 2.866281 1_565
Se4 Y3 2.901146 1_555
Se4 Y4 2.938913 1_555
Se5 Y4 2.866281 1_554
Se5 Y0 2.901146 1_555
Se5 Y5 2.938913 1_565
Se6 Sn1 2.568315 1_555
Se6 Y5 2.999250 1_555
Se6 Y4 3.045720 1_555
Se6 Y3 3.361150 1_555
Se7 Sn1 2.568307 1_555
Se7 Y2 2.999250 1_555
Se7 Y5 3.045720 1_555
Se7 Y0 3.361150 1_545
Se8 Sn0 2.568315 1_555
Se8 Y3 2.999250 1_455
Se8 Y1 3.045720 1_455
Se8 Y5 3.361150 1_555
Se9 Sn1 2.568307 1_555
Se9 Y4 2.999250 1_555
Se9 Y2 3.045720 1_555
Se9 Y1 3.361150 1_556
Se10 Sn0 2.568307 1_555
Se10 Y0 2.999250 1_455
Se10 Y3 3.045720 1_455
Se10 Y2 3.361150 1_565
Se11 Sn0 2.568307 1_555
Se11 Y1 2.999250 1_455
Se11 Y0 3.045720 1_455
Se11 Y4 3.361150 1_554
Se12 Sn0 2.563222 1_555
Se12 Y0 2.991630 1_555
Se12 Y1 2.991637 1_555
Se12 Y3 2.991638 1_555
Se13 Sn1 2.563222 1_455
Se13 Y2 2.991630 1_555
Se13 Y4 2.991637 1_555
Se13 Y5 2.991638 1_555
