# generated using pymatgen
data_DyTl(MoO4)2
_symmetry_space_group_name_H-M   'P 1'
_cell_length_a   5.14301200
_cell_length_b   8.15703200
_cell_length_c   18.78305200
_cell_angle_alpha   90.00000000
_cell_angle_beta   90.00000000
_cell_angle_gamma   90.00000000
_symmetry_Int_Tables_number   1
_chemical_formula_structural   DyTl(MoO4)2
_chemical_formula_sum   'Dy4 Tl4 Mo8 O32'
_cell_volume   787.98121542
_cell_formula_units_Z   4
loop_
 _symmetry_equiv_pos_site_id
 _symmetry_equiv_pos_as_xyz
  1  'x, y, z'
loop_
 _atom_site_type_symbol
 _atom_site_label
 _atom_site_symmetry_multiplicity
 _atom_site_fract_x
 _atom_site_fract_y
 _atom_site_fract_z
 _atom_site_occupancy
  Dy  Dy0  1  0.00000000  0.75000000  0.00634100  1
  Dy  Dy1  1  0.00000000  0.25000000  0.99365900  1
  Dy  Dy2  1  0.50000000  0.25000000  0.49365900  1
  Dy  Dy3  1  0.50000000  0.75000000  0.50634100  1
  Tl  Tl0  1  0.00000000  0.75000000  0.76977000  1
  Tl  Tl1  1  0.00000000  0.25000000  0.23023000  1
  Tl  Tl2  1  0.50000000  0.25000000  0.73023000  1
  Tl  Tl3  1  0.50000000  0.75000000  0.26977000  1
  Mo  Mo0  1  0.02222500  0.51601300  0.39998500  1
  Mo  Mo1  1  0.97777500  0.48398700  0.60001500  1
  Mo  Mo2  1  0.47777500  0.01601300  0.10001500  1
  Mo  Mo3  1  0.97777500  0.98398700  0.39998500  1
  Mo  Mo4  1  0.52222500  0.98398700  0.89998500  1
  Mo  Mo5  1  0.02222500  0.01601300  0.60001500  1
  Mo  Mo6  1  0.52222500  0.48398700  0.10001500  1
  Mo  Mo7  1  0.47777500  0.51601300  0.89998500  1
  O  O0  1  0.10041600  0.97527400  0.31282500  1
  O  O1  1  0.89958400  0.02472600  0.68717500  1
  O  O2  1  0.39958400  0.47527400  0.18717500  1
  O  O3  1  0.89958400  0.52472600  0.31282500  1
  O  O4  1  0.60041600  0.52472600  0.81282500  1
  O  O5  1  0.10041600  0.47527400  0.68717500  1
  O  O6  1  0.60041600  0.02472600  0.18717500  1
  O  O7  1  0.39958400  0.97527400  0.81282500  1
  O  O8  1  0.26899400  0.83930400  0.09779400  1
  O  O9  1  0.73100600  0.16069600  0.90220600  1
  O  O10  1  0.23100600  0.33930400  0.40220600  1
  O  O11  1  0.73100600  0.66069600  0.09779400  1
  O  O12  1  0.76899400  0.66069600  0.59779400  1
  O  O13  1  0.26899400  0.33930400  0.90220600  1
  O  O14  1  0.76899400  0.16069600  0.40220600  1
  O  O15  1  0.23100600  0.83930400  0.59779400  1
  O  O16  1  0.24751700  0.50488300  0.03539600  1
  O  O17  1  0.75248300  0.49511700  0.96460400  1
  O  O18  1  0.25248300  0.00488300  0.46460400  1
  O  O19  1  0.75248300  0.99511700  0.03539600  1
  O  O20  1  0.74751700  0.99511700  0.53539600  1
  O  O21  1  0.24751700  0.00488300  0.96460400  1
  O  O22  1  0.74751700  0.49511700  0.46460400  1
  O  O23  1  0.25248300  0.50488300  0.53539600  1
  O  O24  1  0.24260800  0.68962000  0.40952700  1
  O  O25  1  0.75739200  0.31038000  0.59047300  1
  O  O26  1  0.25739200  0.18962000  0.09047300  1
  O  O27  1  0.75739200  0.81038000  0.40952700  1
  O  O28  1  0.74260800  0.81038000  0.90952700  1
  O  O29  1  0.24260800  0.18962000  0.59047300  1
  O  O30  1  0.74260800  0.31038000  0.09047300  1
  O  O31  1  0.25739200  0.68962000  0.90952700  1
loop_
_geom_bond_atom_site_label_1
_geom_bond_atom_site_label_2
_geom_bond_distance
_geom_bond_site_symmetry_2
Dy0 O31 2.302553 1_554
Dy0 O28 2.302553 1_454
Dy0 O11 2.322773 1_455
Dy0 O8 2.322773 1_555
Dy0 O16 2.432289 1_555
Dy0 O19 2.432289 1_455
Dy0 O21 2.560795 1_564
Dy0 O17 2.560795 1_454
Dy1 O30 2.302553 1_456
Dy1 O26 2.302553 1_556
Dy1 O9 2.322773 1_455
Dy1 O13 2.322773 1_555
Dy1 O17 2.432289 1_455
Dy1 O21 2.432289 1_555
Dy1 O16 2.560795 1_556
Dy1 O19 2.560795 1_446
Dy2 O25 2.302553 1_555
Dy2 O29 2.302553 1_555
Dy2 O14 2.322773 1_555
Dy2 O10 2.322773 1_555
Dy2 O18 2.432289 1_555
Dy2 O22 2.432289 1_555
Dy2 O23 2.560795 1_555
Dy2 O20 2.560795 1_545
Dy3 O27 2.302553 1_555
Dy3 O24 2.302553 1_555
Dy3 O12 2.322773 1_555
Dy3 O15 2.322773 1_555
Dy3 O20 2.432289 1_555
Dy3 O23 2.432289 1_555
Dy3 O18 2.560795 1_565
Dy3 O22 2.560795 1_555
Mo0 O3 1.755872 1_455
Mo0 O10 1.797888 1_555
Mo0 O24 1.822685 1_555
Mo0 O22 1.870375 1_455
Mo1 O5 1.755872 1_655
Mo1 O12 1.797888 1_555
Mo1 O25 1.822685 1_555
Mo1 O23 1.870375 1_655
Mo2 O6 1.755872 1_555
Mo2 O8 1.797888 1_545
Mo2 O26 1.822685 1_555
Mo2 O19 1.870375 1_545
Mo3 O0 1.755872 1_655
Mo3 O14 1.797888 1_565
Mo3 O27 1.822685 1_555
Mo3 O18 1.870375 1_665
Mo4 O7 1.755872 1_555
Mo4 O9 1.797888 1_565
Mo4 O28 1.822685 1_555
Mo4 O21 1.870375 1_565
Mo5 O1 1.755872 1_455
Mo5 O15 1.797888 1_545
Mo5 O29 1.822685 1_555
Mo5 O20 1.870375 1_445
Mo6 O2 1.755872 1_555
Mo6 O11 1.797888 1_555
Mo6 O30 1.822685 1_555
Mo6 O16 1.870375 1_555
Mo7 O4 1.755872 1_555
Mo7 O13 1.797888 1_555
Mo7 O31 1.822685 1_555
Mo7 O17 1.870375 1_555
O0 Tl1 2.774051 1_565
O1 Tl0 2.774051 1_645
O2 Tl3 2.774051 1_555
O3 Tl1 2.774051 1_655
O4 Tl2 2.774051 1_555
O5 Tl0 2.774051 1_555
O6 Tl3 2.774051 1_545
O7 Tl2 2.774051 1_565
