# generated using pymatgen
data_Ba(BIr)2
_symmetry_space_group_name_H-M   'P 1'
_cell_length_a   3.94479422
_cell_length_b   3.94479383
_cell_length_c   6.40033990
_cell_angle_alpha   107.94901587
_cell_angle_beta   107.94902682
_cell_angle_gamma   89.99999105
_symmetry_Int_Tables_number   1
_chemical_formula_structural   Ba(BIr)2
_chemical_formula_sum   'Ba1 B2 Ir2'
_cell_volume   89.64183784
_cell_formula_units_Z   1
loop_
 _symmetry_equiv_pos_site_id
 _symmetry_equiv_pos_as_xyz
  1  'x, y, z'
loop_
 _atom_site_type_symbol
 _atom_site_label
 _atom_site_symmetry_multiplicity
 _atom_site_fract_x
 _atom_site_fract_y
 _atom_site_fract_z
 _atom_site_occupancy
  Ba  Ba0  1  0.00000000  -0.00000000  0.00000000  1
  B  B0  1  0.68245673  0.68245673  0.36491146  1
  B  B1  1  0.31754327  0.31754327  0.63508854  1
  Ir  Ir0  1  0.75000000  0.25000000  0.50000000  1
  Ir  Ir1  1  0.25000000  0.75000000  0.50000000  1
loop_
_geom_bond_atom_site_label_1
_geom_bond_atom_site_label_2
_geom_bond_distance
_geom_bond_site_symmetry_2
Ba0 Ir0 3.490883 1_454
Ba0 Ir1 3.490883 1_545
Ba0 Ir0 3.490883 1_555
Ba0 Ir1 3.490883 1_444
Ba0 Ir0 3.490883 1_455
Ba0 Ir1 3.490883 1_544
Ba0 Ir1 3.490883 1_555
Ba0 Ir0 3.490883 1_444
B0 Ir0 2.120354 1_565
B0 Ir1 2.120354 1_655
B0 Ir0 2.120361 1_555
B0 Ir1 2.120361 1_555
B0 Ba0 3.492766 1_665
B0 Ba0 3.492770 1_565
B0 Ba0 3.492771 1_655
B0 Ba0 3.492775 1_555
B1 Ir1 2.120354 1_545
B1 Ir0 2.120354 1_455
B1 Ir1 2.120361 1_555
B1 Ir0 2.120361 1_555
B1 Ba0 3.492766 1_556
B1 Ba0 3.492770 1_656
B1 Ba0 3.492771 1_566
B1 Ba0 3.492775 1_666
