# generated using pymatgen
data_Na(Nb3Te4)2
_symmetry_space_group_name_H-M   'P 1'
_cell_length_a   10.74702554
_cell_length_b   10.74702554
_cell_length_c   3.70617300
_cell_angle_alpha   90.00000000
_cell_angle_beta   90.00000000
_cell_angle_gamma   119.99999717
_symmetry_Int_Tables_number   1
_chemical_formula_structural   Na(Nb3Te4)2
_chemical_formula_sum   'Na1 Nb6 Te8'
_cell_volume   370.70879854
_cell_formula_units_Z   1
loop_
 _symmetry_equiv_pos_site_id
 _symmetry_equiv_pos_as_xyz
  1  'x, y, z'
loop_
 _atom_site_type_symbol
 _atom_site_label
 _atom_site_symmetry_multiplicity
 _atom_site_fract_x
 _atom_site_fract_y
 _atom_site_fract_z
 _atom_site_occupancy
  Na  Na0  1  0.00000000  0.00000000  0.50000000  1
  Nb  Nb0  1  0.51060300  0.89868500  0.25093600  1
  Nb  Nb1  1  0.38808200  0.48939700  0.25093600  1
  Nb  Nb2  1  0.10131500  0.61191800  0.25093600  1
  Nb  Nb3  1  0.48939700  0.10131500  0.74906400  1
  Nb  Nb4  1  0.61191800  0.51060300  0.74906400  1
  Nb  Nb5  1  0.89868500  0.38808200  0.74906400  1
  Te  Te0  1  0.66725500  0.72871700  0.24819600  1
  Te  Te1  1  0.06146200  0.33274500  0.24819600  1
  Te  Te2  1  0.27128300  0.93853800  0.24819600  1
  Te  Te3  1  0.33274500  0.27128300  0.75180400  1
  Te  Te4  1  0.93853800  0.66725500  0.75180400  1
  Te  Te5  1  0.72871700  0.06146200  0.75180400  1
  Te  Te6  1  0.66666700  0.33333300  0.24967300  1
  Te  Te7  1  0.33333300  0.66666700  0.75032700  1
loop_
_geom_bond_atom_site_label_1
_geom_bond_atom_site_label_2
_geom_bond_distance
_geom_bond_site_symmetry_2
Na0 Te2 3.425354 1_545
Na0 Te5 3.425354 1_455
Na0 Te4 3.425354 1_445
Na0 Te1 3.425354 1_555
Na0 Te3 3.425354 1_555
Na0 Te0 3.425354 1_445
Nb0 Te5 2.806483 1_564
Nb0 Te5 2.810729 1_565
Nb0 Te2 2.810729 1_555
Nb0 Te7 2.919280 1_555
Nb0 Te7 2.922144 1_554
Nb0 Te0 3.040776 1_555
Nb1 Te3 2.806483 1_554
Nb1 Te3 2.810728 1_555
Nb1 Te0 2.810729 1_555
Nb1 Te7 2.919285 1_555
Nb1 Te7 2.922150 1_554
Nb1 Te1 3.040776 1_555
Nb2 Te4 2.806483 1_454
Nb2 Te4 2.810728 1_455
Nb2 Te1 2.810729 1_555
Nb2 Te7 2.919277 1_555
Nb2 Te7 2.922141 1_554
Nb2 Te2 3.040776 1_555
Nb3 Te2 2.806483 1_546
Nb3 Te2 2.810729 1_545
Nb3 Te5 2.810729 1_555
Nb3 Te6 2.919280 1_555
Nb3 Te6 2.922144 1_556
Nb3 Te3 3.040776 1_555
Nb4 Te0 2.806483 1_556
Nb4 Te0 2.810728 1_555
Nb4 Te3 2.810729 1_555
Nb4 Te6 2.919285 1_555
Nb4 Te6 2.922150 1_556
Nb4 Te4 3.040776 1_555
Nb5 Te1 2.806483 1_656
Nb5 Te1 2.810728 1_655
Nb5 Te4 2.810729 1_555
Nb5 Te6 2.919277 1_555
Nb5 Te6 2.922141 1_556
Nb5 Te5 3.040776 1_555
