# generated using pymatgen
data_CuHg3As2Cl3
_symmetry_space_group_name_H-M   'P 1'
_cell_length_a   13.47838858
_cell_length_b   13.47838858
_cell_length_c   15.17102552
_cell_angle_alpha   58.13878275
_cell_angle_beta   58.13878275
_cell_angle_gamma   40.14200194
_symmetry_Int_Tables_number   1
_chemical_formula_structural   CuHg3As2Cl3
_chemical_formula_sum   'Cu6 Hg18 As12 Cl18'
_cell_volume   1469.66183805
_cell_formula_units_Z   6
loop_
 _symmetry_equiv_pos_site_id
 _symmetry_equiv_pos_as_xyz
  1  'x, y, z'
loop_
 _atom_site_type_symbol
 _atom_site_label
 _atom_site_symmetry_multiplicity
 _atom_site_fract_x
 _atom_site_fract_y
 _atom_site_fract_z
 _atom_site_occupancy
  Cu  Cu0  1  0.38970800  0.94999200  0.72704400  1
  Cu  Cu1  1  0.61029200  0.05000800  0.27295600  1
  Cu  Cu2  1  0.05000800  0.61029200  0.77295600  1
  Cu  Cu3  1  0.94999200  0.38970800  0.22704400  1
  Cu  Cu4  1  0.66974100  0.33025900  0.75000000  1
  Cu  Cu5  1  0.33025900  0.66974100  0.25000000  1
  Hg  Hg0  1  0.66748000  0.66198600  0.00323200  1
  Hg  Hg1  1  0.33252000  0.33801400  0.99676800  1
  Hg  Hg2  1  0.33801400  0.33252000  0.49676800  1
  Hg  Hg3  1  0.66198600  0.66748000  0.50323200  1
  Hg  Hg4  1  0.00000000  0.00000000  0.50000000  1
  Hg  Hg5  1  0.00000000  0.00000000  0.00000000  1
  Hg  Hg6  1  0.20324800  0.79675200  0.75000000  1
  Hg  Hg7  1  0.79675200  0.20324800  0.25000000  1
  Hg  Hg8  1  0.82667200  0.83399000  0.50252200  1
  Hg  Hg9  1  0.17332800  0.16601000  0.49747800  1
  Hg  Hg10  1  0.16601000  0.17332800  0.99747800  1
  Hg  Hg11  1  0.83399000  0.82667200  0.00252200  1
  Hg  Hg12  1  0.54118400  0.12196600  0.74938900  1
  Hg  Hg13  1  0.45881600  0.87803400  0.25061100  1
  Hg  Hg14  1  0.87803400  0.45881600  0.75061100  1
  Hg  Hg15  1  0.12196600  0.54118400  0.24938900  1
  Hg  Hg16  1  0.50000000  0.50000000  0.50000000  1
  Hg  Hg17  1  0.50000000  0.50000000  0.00000000  1
  As  As0  1  0.54310500  0.25605100  0.55243900  1
  As  As1  1  0.45689500  0.74394900  0.44756100  1
  As  As2  1  0.74394900  0.45689500  0.94756100  1
  As  As3  1  0.25605100  0.54310500  0.05243900  1
  As  As4  1  0.41047000  0.12851800  0.94586000  1
  As  As5  1  0.58953000  0.87148200  0.05414000  1
  As  As6  1  0.87148200  0.58953000  0.55414000  1
  As  As7  1  0.12851800  0.41047000  0.44586000  1
  As  As8  1  0.19989700  0.93301000  0.55253300  1
  As  As9  1  0.80010300  0.06699000  0.44746700  1
  As  As10  1  0.06699000  0.80010300  0.94746700  1
  As  As11  1  0.93301000  0.19989700  0.05253300  1
  Cl  Cl0  1  0.59279400  0.86260800  0.75477900  1
  Cl  Cl1  1  0.40720600  0.13739200  0.24522100  1
  Cl  Cl2  1  0.13739200  0.40720600  0.74522100  1
  Cl  Cl3  1  0.86260800  0.59279400  0.25477900  1
  Cl  Cl4  1  0.49827000  0.65629000  0.75042100  1
  Cl  Cl5  1  0.50173000  0.34371000  0.24957900  1
  Cl  Cl6  1  0.34371000  0.50173000  0.74957900  1
  Cl  Cl7  1  0.65629000  0.49827000  0.25042100  1
  Cl  Cl8  1  0.50000000  0.00000000  0.50000000  1
  Cl  Cl9  1  0.00000000  0.50000000  0.00000000  1
  Cl  Cl10  1  0.67669900  0.21504100  0.91514000  1
  Cl  Cl11  1  0.32330100  0.78495900  0.08486000  1
  Cl  Cl12  1  0.78495900  0.32330100  0.58486000  1
  Cl  Cl13  1  0.21504100  0.67669900  0.41514000  1
  Cl  Cl14  1  0.89504200  0.86261200  0.75417400  1
  Cl  Cl15  1  0.10495800  0.13738800  0.24582600  1
  Cl  Cl16  1  0.13738800  0.10495800  0.74582600  1
  Cl  Cl17  1  0.86261200  0.89504200  0.25417400  1
loop_
_geom_bond_atom_site_label_1
_geom_bond_atom_site_label_2
_geom_bond_distance
_geom_bond_site_symmetry_2
As0 As9 2.448159 1_555
As0 Hg12 2.546286 1_555
As0 Hg16 2.566588 1_555
As0 Hg2 2.570361 1_555
As1 As8 2.448159 1_555
As1 Hg13 2.546286 1_555
As1 Hg16 2.566588 1_555
As1 Hg3 2.570361 1_555
As2 Hg14 2.546286 1_555
As2 Hg17 2.566588 1_556
As2 Hg0 2.570361 1_556
As3 Hg15 2.546286 1_555
As3 Hg17 2.566588 1_555
As3 Hg1 2.570361 1_554
As4 As5 2.432979 1_546
As4 Hg12 2.547970 1_555
As4 Hg10 2.562674 1_555
As4 Hg1 2.565810 1_555
As5 Hg13 2.547970 1_555
As5 Hg11 2.562674 1_555
As5 Hg0 2.565810 1_555
As6 As7 2.432979 1_655
As6 Hg14 2.547970 1_555
As6 Hg8 2.562674 1_555
As6 Hg3 2.565810 1_555
As7 Hg15 2.547970 1_555
As7 Hg9 2.562674 1_555
As7 Hg2 2.565810 1_555
As8 Hg4 2.549019 1_565
As8 Hg9 2.552549 1_565
As8 Hg6 2.560695 1_555
As9 Hg4 2.549019 1_655
As9 Hg8 2.552549 1_545
As9 Hg7 2.560695 1_555
As10 As3 2.448159 1_556
As10 Hg5 2.549019 1_566
As10 Hg11 2.552549 1_456
As10 Hg6 2.560695 1_555
As11 As2 2.448159 1_554
As11 Hg5 2.549019 1_655
As11 Hg10 2.552549 1_654
As11 Hg7 2.560695 1_555
Cl0 Cu0 2.195579 1_555
Cl0 Hg12 2.958233 1_565
Cl1 Cu1 2.195579 1_555
Cl1 Hg13 2.958233 1_545
Cl2 Cu2 2.195579 1_555
Cl2 Hg14 2.958233 1_455
Cl3 Cu3 2.195579 1_555
Cl3 Hg15 2.958233 1_655
Cl4 Hg6 2.810770 1_555
Cl4 Cu0 2.854339 1_555
Cl4 Cu4 3.022984 1_555
Cl5 Hg7 2.810770 1_555
Cl5 Cu1 2.854339 1_555
Cl5 Cu5 3.022984 1_555
Cl6 Hg6 2.810770 1_555
Cl6 Cu2 2.854339 1_555
Cl6 Cu4 3.022984 1_555
Cl7 Hg7 2.810770 1_555
Cl7 Cu3 2.854339 1_555
Cl7 Cu5 3.022984 1_555
Cl8 Cu0 2.864221 1_545
Cl8 Cu1 2.864221 1_555
Cl8 Hg8 3.069111 1_545
Cl8 Hg9 3.069111 1_555
Cl9 Cu3 2.864221 1_455
Cl9 Cu2 2.864221 1_554
Cl9 Hg11 3.069111 1_455
Cl9 Hg10 3.069111 1_554
Cl10 Cu4 2.148276 1_555
Cl11 Cu5 2.148276 1_555
Cl12 Cu4 2.148276 1_555
Cl13 Cu5 2.148276 1_555
Cl14 Cu2 2.180522 1_655
Cl14 Hg12 3.095118 1_565
Cl15 Cu3 2.180522 1_455
Cl15 Hg13 3.095118 1_545
Cl16 Cu0 2.180522 1_545
Cl16 Hg14 3.095118 1_455
Cl17 Cu1 2.180522 1_565
Cl17 Hg15 3.095118 1_655
