# generated using pymatgen
data_NaSbO12
_symmetry_space_group_name_H-M   'P 1'
_cell_length_a   8.96926202
_cell_length_b   8.96926202
_cell_length_c   8.96926202
_cell_angle_alpha   60.00000000
_cell_angle_beta   60.00000000
_cell_angle_gamma   60.00000000
_symmetry_Int_Tables_number   1
_chemical_formula_structural   NaSbO12
_chemical_formula_sum   'Na2 Sb2 O24'
_cell_volume   510.21724895
_cell_formula_units_Z   2
loop_
 _symmetry_equiv_pos_site_id
 _symmetry_equiv_pos_as_xyz
  1  'x, y, z'
loop_
 _atom_site_type_symbol
 _atom_site_label
 _atom_site_symmetry_multiplicity
 _atom_site_fract_x
 _atom_site_fract_y
 _atom_site_fract_z
 _atom_site_occupancy
  Na  Na0  1  0.00000000  0.00000000  0.00000000  1
  Na  Na1  1  0.25000000  0.25000000  0.25000000  1
  Sb  Sb0  1  0.50000000  0.50000000  0.50000000  1
  Sb  Sb1  1  0.75000000  0.75000000  0.75000000  1
  O  O0  1  0.92770300  0.30090800  0.30090800  1
  O  O1  1  0.30090800  0.92770300  0.47048200  1
  O  O2  1  0.30090800  0.47048200  0.92770300  1
  O  O3  1  0.30090800  0.92770300  0.30090800  1
  O  O4  1  0.32229700  0.94909200  0.77951800  1
  O  O5  1  0.32229700  0.94909200  0.94909200  1
  O  O6  1  0.47048200  0.30090800  0.30090800  1
  O  O7  1  0.47048200  0.30090800  0.92770300  1
  O  O8  1  0.94909200  0.32229700  0.94909200  1
  O  O9  1  0.94909200  0.32229700  0.77951800  1
  O  O10  1  0.92770300  0.30090800  0.47048200  1
  O  O11  1  0.94909200  0.77951800  0.94909200  1
  O  O12  1  0.94909200  0.77951800  0.32229700  1
  O  O13  1  0.30090800  0.47048200  0.30090800  1
  O  O14  1  0.77951800  0.94909200  0.32229700  1
  O  O15  1  0.77951800  0.94909200  0.94909200  1
  O  O16  1  0.30090800  0.30090800  0.92770300  1
  O  O17  1  0.47048200  0.92770300  0.30090800  1
  O  O18  1  0.30090800  0.30090800  0.47048200  1
  O  O19  1  0.92770300  0.47048200  0.30090800  1
  O  O20  1  0.77951800  0.32229700  0.94909200  1
  O  O21  1  0.94909200  0.94909200  0.32229700  1
  O  O22  1  0.32229700  0.77951800  0.94909200  1
  O  O23  1  0.94909200  0.94909200  0.77951800  1
loop_
_geom_bond_atom_site_label_1
_geom_bond_atom_site_label_2
_geom_bond_distance
_geom_bond_site_symmetry_2
Na0 O21 2.518355 1_445
Na0 O5 2.518355 1_544
Na0 O8 2.518355 1_454
Na0 O22 2.518357 1_544
Na0 O4 2.518357 1_544
Na0 O20 2.518357 1_454
Na0 O14 2.518357 1_445
Na0 O12 2.518357 1_445
Na0 O9 2.518357 1_454
Na0 O11 2.518363 1_444
Na0 O23 2.518363 1_444
Na0 O15 2.518363 1_444
Na1 O16 2.518355 1_554
Na1 O3 2.518355 1_545
Na1 O0 2.518355 1_455
Na1 O2 2.518357 1_554
Na1 O1 2.518357 1_545
Na1 O10 2.518357 1_455
Na1 O19 2.518357 1_455
Na1 O7 2.518357 1_554
Na1 O17 2.518357 1_545
Na1 O18 2.518363 1_555
Na1 O13 2.518363 1_555
Na1 O6 2.518363 1_555
O0 O10 1.520954 1_555
O0 O19 1.520954 1_555
O1 O3 1.520954 1_555
O1 O17 1.520954 1_555
O2 O7 1.520954 1_555
O4 O5 1.520954 1_555
O8 O9 1.520954 1_555
O10 O19 1.520954 1_555
O11 O23 1.520954 1_555
O11 O15 1.520954 1_555
O12 O14 1.520954 1_555
O12 O21 1.520954 1_555
O13 O6 1.520954 1_555
O13 O18 1.520954 1_555
O14 O21 1.520954 1_555
O15 O23 1.520954 1_555
O16 O2 1.520954 1_555
O16 O7 1.520954 1_555
O17 O3 1.520954 1_555
O18 O6 1.520954 1_555
O20 O9 1.520954 1_555
O20 O8 1.520954 1_555
O22 O5 1.520954 1_555
O22 O4 1.520954 1_555
