# generated using pymatgen
data_V2Cu3H6O11
_symmetry_space_group_name_H-M   'P 1'
_cell_length_a   5.95170800
_cell_length_b   8.97932843
_cell_length_c   10.03918076
_cell_angle_alpha   70.36462028
_cell_angle_beta   72.75705441
_cell_angle_gamma   70.64552103
_symmetry_Int_Tables_number   1
_chemical_formula_structural   V2Cu3H6O11
_chemical_formula_sum   'V4 Cu6 H12 O22'
_cell_volume   466.30841144
_cell_formula_units_Z   2
loop_
 _symmetry_equiv_pos_site_id
 _symmetry_equiv_pos_as_xyz
  1  'x, y, z'
loop_
 _atom_site_type_symbol
 _atom_site_label
 _atom_site_symmetry_multiplicity
 _atom_site_fract_x
 _atom_site_fract_y
 _atom_site_fract_z
 _atom_site_occupancy
  V  V0  1  0.40090700  0.37953600  0.36974800  1
  V  V1  1  0.84980900  0.87953600  0.86974800  1
  V  V2  1  0.64991500  0.12008000  0.13054200  1
  V  V3  1  0.09946200  0.62008000  0.63054200  1
  Cu  Cu0  1  0.75153300  0.49853800  0.50015100  1
  Cu  Cu1  1  0.24977700  0.99853800  0.00015100  1
  Cu  Cu2  1  0.49780400  0.25164100  0.74718300  1
  Cu  Cu3  1  0.50337200  0.75164100  0.24718300  1
  Cu  Cu4  1  0.99581300  0.24865400  0.75464600  1
  Cu  Cu5  1  0.00088700  0.74865400  0.25464600  1
  H  H0  1  0.88211900  0.51981500  0.22121700  1
  H  H1  1  0.37684900  0.01981500  0.72121700  1
  H  H2  1  0.12534000  0.97888800  0.28069100  1
  H  H3  1  0.61508100  0.47888800  0.78069100  1
  H  H4  1  0.57505200  0.64300800  0.92621100  1
  H  H5  1  0.85572900  0.14300800  0.42621100  1
  H  H6  1  0.11011000  0.10391400  0.45427600  1
  H  H7  1  0.33169900  0.60391400  0.95427600  1
  H  H8  1  0.93250300  0.34279600  0.08018200  1
  H  H9  1  0.64452000  0.84279600  0.58018200  1
  H  H10  1  0.38697800  0.87750600  0.55977300  1
  H  H11  1  0.17574400  0.37750600  0.05977300  1
  O  O0  1  0.92565300  0.15459700  0.02169400  1
  O  O1  1  0.89805600  0.65459700  0.52169400  1
  O  O2  1  0.60258200  0.34372800  0.47871400  1
  O  O3  1  0.57497700  0.84372800  0.97871400  1
  O  O4  1  0.17432200  0.41016100  0.73315600  1
  O  O5  1  0.68236100  0.91016100  0.23315600  1
  O  O6  1  0.81697100  0.08999200  0.76783900  1
  O  O7  1  0.32519900  0.58999200  0.26783900  1
  O  O8  1  0.80857400  0.59604500  0.28725600  1
  O  O9  1  0.30812500  0.09604500  0.78725600  1
  O  O10  1  0.19270400  0.90384800  0.21331200  1
  O  O11  1  0.69013600  0.40384800  0.71331200  1
  O  O12  1  0.35377700  0.67568000  0.52750600  1
  O  O13  1  0.44303600  0.17568000  0.02750600  1
  O  O14  1  0.05692800  0.82364200  0.97252300  1
  O  O15  1  0.14690800  0.32364200  0.47252300  1
  O  O16  1  0.55272600  0.25005200  0.24978800  1
  O  O17  1  0.94743400  0.75005200  0.74978800  1
  O  O18  1  0.50629200  0.55989400  0.92054800  1
  O  O19  1  0.01326600  0.05989400  0.42054800  1
  O  O20  1  0.48565300  0.92485500  0.58885600  1
  O  O21  1  0.00063600  0.42485500  0.08885600  1
loop_
_geom_bond_atom_site_label_1
_geom_bond_atom_site_label_2
_geom_bond_distance
_geom_bond_site_symmetry_2
Cu0 O2 1.973715 1_555
Cu0 O1 1.973931 1_555
Cu0 O11 1.988821 1_555
Cu0 O8 1.989740 1_555
Cu0 O15 2.353065 1_655
Cu0 O12 2.371075 1_555
Cu1 O3 1.973724 1_554
Cu1 O0 1.973927 1_465
Cu1 O10 1.988821 1_555
Cu1 O9 1.989740 1_564
Cu1 O14 2.353056 1_554
Cu1 O13 2.371075 1_565
Cu2 O9 1.945960 1_555
Cu2 O11 1.946220 1_555
Cu2 O6 1.990468 1_555
Cu2 O4 1.990519 1_555
Cu2 O2 2.486834 1_555
Cu2 O13 2.608595 1_556
Cu3 O8 1.945960 1_555
Cu3 O10 1.946220 1_555
Cu3 O7 1.990463 1_555
Cu3 O5 1.990519 1_555
Cu3 O3 2.486834 1_554
Cu3 O12 2.608596 1_555
Cu4 O11 1.949998 1_555
Cu4 O9 1.952185 1_655
Cu4 O4 1.988355 1_655
Cu4 O6 1.993734 1_555
Cu4 O0 2.474565 1_556
Cu4 O15 2.625564 1_655
Cu5 O10 1.949998 1_555
Cu5 O8 1.952185 1_455
Cu5 O5 1.988355 1_455
Cu5 O7 1.993738 1_555
Cu5 O1 2.474565 1_455
Cu5 O14 2.625564 1_554
H0 O8 1.016868 1_555
H1 O9 1.016868 1_555
H2 O10 1.019213 1_555
H3 O11 1.019213 1_555
H4 O18 0.986119 1_555
H5 O19 0.986119 1_655
H6 O19 0.979681 1_555
H7 O18 0.979685 1_555
H8 O21 0.988457 1_655
H9 O20 0.988461 1_555
H10 O20 0.980559 1_555
H11 O21 0.980564 1_555
O0 V2 1.740621 1_555
O1 V3 1.740616 1_655
O2 V0 1.739843 1_555
O3 V1 1.739839 1_555
O4 V3 1.795315 1_555
O5 V2 1.795314 1_565
O6 V1 1.797344 1_545
O7 V0 1.797343 1_555
O12 V3 1.683995 1_555
O13 V2 1.683995 1_555
O14 V1 1.682845 1_455
O15 V0 1.682840 1_555
O16 V2 1.791850 1_555
O16 V0 1.793930 1_555
O17 V3 1.791850 1_655
O17 V1 1.793930 1_555
