# generated using pymatgen
data_Mg6BiMo
_symmetry_space_group_name_H-M   'P 1'
_cell_length_a   5.09639100
_cell_length_b   6.29255300
_cell_length_c   10.63511400
_cell_angle_alpha   90.00000000
_cell_angle_beta   90.00000000
_cell_angle_gamma   90.00000000
_symmetry_Int_Tables_number   1
_chemical_formula_structural   Mg6BiMo
_chemical_formula_sum   'Mg12 Bi2 Mo2'
_cell_volume   341.06077282
_cell_formula_units_Z   2
loop_
 _symmetry_equiv_pos_site_id
 _symmetry_equiv_pos_as_xyz
  1  'x, y, z'
loop_
 _atom_site_type_symbol
 _atom_site_label
 _atom_site_symmetry_multiplicity
 _atom_site_fract_x
 _atom_site_fract_y
 _atom_site_fract_z
 _atom_site_occupancy
  Mg  Mg0  1  0.00000000  0.24176000  0.08083000  1
  Mg  Mg1  1  0.00000000  0.75824000  0.08083000  1
  Mg  Mg2  1  0.00000000  0.50000000  0.83437000  1
  Mg  Mg3  1  0.50000000  0.23889500  0.91387100  1
  Mg  Mg4  1  0.50000000  0.76110500  0.91387100  1
  Mg  Mg5  1  0.50000000  0.50000000  0.66657500  1
  Mg  Mg6  1  0.00000000  0.74176000  0.58083000  1
  Mg  Mg7  1  0.00000000  0.25824000  0.58083000  1
  Mg  Mg8  1  0.00000000  0.00000000  0.33437000  1
  Mg  Mg9  1  0.50000000  0.73889500  0.41387100  1
  Mg  Mg10  1  0.50000000  0.26110500  0.41387100  1
  Mg  Mg11  1  0.50000000  0.00000000  0.16657500  1
  Bi  Bi0  1  0.50000000  0.50000000  0.17226900  1
  Bi  Bi1  1  0.50000000  0.00000000  0.67226900  1
  Mo  Mo0  1  0.00000000  0.50000000  0.33738200  1
  Mo  Mo1  1  0.00000000  0.00000000  0.83738200  1
loop_
_geom_bond_atom_site_label_1
_geom_bond_atom_site_label_2
_geom_bond_distance
_geom_bond_site_symmetry_2
Mg0 Mo1 3.002955 1_554
Mg0 Mg2 3.083977 1_554
Mg0 Mg8 3.095971 1_555
Mg0 Mg11 3.104705 1_555
Mg0 Mg11 3.104705 1_455
Mg0 Mo0 3.175702 1_555
Mg1 Mo1 3.002955 1_564
Mg1 Mg2 3.083977 1_554
Mg1 Mg8 3.095971 1_565
Mg1 Mg11 3.104705 1_565
Mg1 Mg11 3.104705 1_465
Mg1 Mo0 3.175702 1_555
Mg2 Mg7 3.095971 1_555
Mg2 Mg6 3.095971 1_555
Mg2 Mg5 3.110918 1_455
Mg2 Mg5 3.110918 1_555
Mg2 Mo1 3.146440 1_565
Mg2 Mo1 3.146440 1_555
Mg2 Mg3 3.147647 1_455
Mg2 Mg4 3.147647 1_455
Mg2 Mg3 3.147647 1_555
Mg2 Mg4 3.147647 1_555
Mg3 Mo1 3.068358 1_655
Mg3 Mo1 3.068358 1_555
Mg3 Mg5 3.101051 1_555
Mg4 Mo1 3.068358 1_565
Mg4 Mo1 3.068358 1_665
Mg4 Mg5 3.101051 1_555
Mg5 Mg9 3.079389 1_555
Mg5 Mg7 3.104705 1_555
Mg5 Mg6 3.104705 1_655
Mg5 Mg7 3.104705 1_655
Mg5 Mg6 3.104705 1_555
Mg6 Mo0 3.002955 1_555
Mg6 Mg8 3.083977 1_565
Mg6 Mo1 3.175702 1_565
Mg7 Mo0 3.002955 1_555
Mg7 Mg8 3.083977 1_555
Mg7 Mo1 3.175702 1_555
Mg8 Mo0 3.146440 1_555
Mg8 Mo0 3.146440 1_545
Mg8 Mg9 3.147647 1_545
Mg8 Mg9 3.147647 1_445
Mg9 Mo0 3.068358 1_655
Mg9 Mo0 3.068358 1_555
Mg10 Mo0 3.068358 1_655
Mg10 Mo0 3.068358 1_555
Mg10 Mg5 3.079389 1_555
Mg10 Mg11 3.101051 1_555
Mg10 Mg8 3.147647 1_555
Mg10 Mg8 3.147647 1_655
Mg11 Mg3 3.079389 1_554
Mg11 Mg4 3.079389 1_544
Mg11 Mg9 3.101051 1_545
Mg11 Mg8 3.110918 1_655
Mg11 Mg8 3.110918 1_555
Bi0 Mg10 2.976901 1_555
Bi0 Mg9 2.976901 1_555
Bi0 Mo0 3.094644 1_555
Bi0 Mo0 3.094644 1_655
Bi0 Mg11 3.146859 1_565
Bi0 Mg11 3.146859 1_555
Bi0 Mg0 3.174835 1_555
Bi0 Mg1 3.174835 1_555
Bi0 Mg1 3.174835 1_655
Bi0 Mg0 3.174835 1_655
Bi0 Mg3 3.201799 1_554
Bi0 Mg4 3.201799 1_554
Bi1 Mg4 2.976901 1_545
Bi1 Mg3 2.976901 1_555
Bi1 Mo1 3.094644 1_655
Bi1 Mo1 3.094644 1_555
Bi1 Mg5 3.146859 1_555
Bi1 Mg5 3.146859 1_545
Bi1 Mg6 3.174835 1_545
Bi1 Mg7 3.174835 1_555
Bi1 Mg7 3.174835 1_655
Bi1 Mg6 3.174835 1_645
Bi1 Mg10 3.201799 1_555
Bi1 Mg9 3.201799 1_545
