# generated using pymatgen
data_BaCuReO5
_symmetry_space_group_name_H-M   'P 1'
_cell_length_a   3.81485100
_cell_length_b   3.81485100
_cell_length_c   8.31824900
_cell_angle_alpha   90.00000000
_cell_angle_beta   90.00000000
_cell_angle_gamma   90.00000000
_symmetry_Int_Tables_number   1
_chemical_formula_structural   BaCuReO5
_chemical_formula_sum   'Ba1 Cu1 Re1 O5'
_cell_volume   121.05621097
_cell_formula_units_Z   1
loop_
 _symmetry_equiv_pos_site_id
 _symmetry_equiv_pos_as_xyz
  1  'x, y, z'
loop_
 _atom_site_type_symbol
 _atom_site_label
 _atom_site_symmetry_multiplicity
 _atom_site_fract_x
 _atom_site_fract_y
 _atom_site_fract_z
 _atom_site_occupancy
  Ba  Ba0  1  0.00000000  0.00000000  0.02935900  1
  Cu  Cu0  1  0.50000000  0.50000000  0.28642200  1
  Re  Re0  1  0.50000000  0.50000000  0.68029900  1
  O  O0  1  0.00000000  0.50000000  0.66734300  1
  O  O1  1  0.50000000  0.00000000  0.66734300  1
  O  O2  1  0.00000000  0.50000000  0.24541200  1
  O  O3  1  0.50000000  0.00000000  0.24541200  1
  O  O4  1  0.50000000  0.50000000  0.90311600  1
loop_
_geom_bond_atom_site_label_1
_geom_bond_atom_site_label_2
_geom_bond_distance
_geom_bond_site_symmetry_2
Ba0 O3 2.620713 1_555
Ba0 O3 2.620713 1_455
Ba0 O2 2.620713 1_555
Ba0 O2 2.620713 1_545
Ba0 O4 2.894702 1_554
Ba0 O4 2.894702 1_454
Ba0 O4 2.894702 1_444
Ba0 O4 2.894702 1_544
Cu0 O2 1.937690 1_555
Cu0 O2 1.937690 1_655
Cu0 O3 1.937690 1_555
Cu0 O3 1.937690 1_565
O0 Re0 1.910468 1_555
O0 Re0 1.910468 1_455
O1 Re0 1.910468 1_555
O1 Re0 1.910468 1_545
O4 Re0 1.853447 1_555
