# generated using pymatgen
data_Hf2InPd2
_symmetry_space_group_name_H-M   'P 1'
_cell_length_a   7.45811118
_cell_length_b   7.45811118
_cell_length_c   6.75551163
_cell_angle_alpha   90.00000000
_cell_angle_beta   90.00000000
_cell_angle_gamma   90.00000000
_symmetry_Int_Tables_number   1
_chemical_formula_structural   Hf2InPd2
_chemical_formula_sum   'Hf8 In4 Pd8'
_cell_volume   375.76467674
_cell_formula_units_Z   4
loop_
 _symmetry_equiv_pos_site_id
 _symmetry_equiv_pos_as_xyz
  1  'x, y, z'
loop_
 _atom_site_type_symbol
 _atom_site_label
 _atom_site_symmetry_multiplicity
 _atom_site_fract_x
 _atom_site_fract_y
 _atom_site_fract_z
 _atom_site_occupancy
  Hf  Hf0  1  0.15286651  0.15286651  0.00000000  1
  Hf  Hf1  1  0.84713349  0.84713349  0.00000000  1
  Hf  Hf2  1  0.65286651  0.34713349  0.50000000  1
  Hf  Hf3  1  0.34713349  0.65286651  0.50000000  1
  Hf  Hf4  1  0.68282722  0.31717278  0.00000000  1
  Hf  Hf5  1  0.31717278  0.68282722  0.00000000  1
  Hf  Hf6  1  0.81717278  0.81717278  0.50000000  1
  Hf  Hf7  1  0.18282722  0.18282722  0.50000000  1
  In  In0  1  0.50000000  -0.00000000  0.25000000  1
  In  In1  1  0.50000000  -0.00000000  0.75000000  1
  In  In2  1  0.00000000  0.50000000  0.25000000  1
  In  In3  1  0.00000000  0.50000000  0.75000000  1
  Pd  Pd0  1  0.37021751  0.37021751  0.22008770  1
  Pd  Pd1  1  0.62978249  0.62978249  0.77991230  1
  Pd  Pd2  1  0.62978249  0.62978249  0.22008770  1
  Pd  Pd3  1  0.87021751  0.12978249  0.72008770  1
  Pd  Pd4  1  0.87021751  0.12978249  0.27991230  1
  Pd  Pd5  1  0.37021751  0.37021751  0.77991230  1
  Pd  Pd6  1  0.12978249  0.87021751  0.27991230  1
  Pd  Pd7  1  0.12978249  0.87021751  0.72008770  1
loop_
_geom_bond_atom_site_label_1
_geom_bond_atom_site_label_2
_geom_bond_distance
_geom_bond_site_symmetry_2
Hf0 Pd5 2.732408 1_554
Hf0 Pd0 2.732408 1_555
Hf0 Pd7 2.837096 1_544
Hf0 Pd3 2.837096 1_454
Hf0 Pd4 2.837096 1_455
Hf0 Pd6 2.837096 1_545
Hf0 In1 3.294669 1_554
Hf0 In2 3.294669 1_555
Hf0 In0 3.294669 1_555
Hf0 In3 3.294669 1_554
Hf1 Pd1 2.732408 1_554
Hf1 Pd2 2.732408 1_555
Hf1 Pd4 2.837096 1_565
Hf1 Pd3 2.837096 1_564
Hf1 Pd6 2.837096 1_655
Hf1 Pd7 2.837096 1_654
Hf1 In3 3.294669 1_654
Hf1 In2 3.294669 1_655
Hf1 In1 3.294669 1_564
Hf1 In0 3.294669 1_565
Hf2 Pd3 2.732408 1_555
Hf2 Pd4 2.732408 1_555
Hf2 Pd1 2.837096 1_555
Hf2 Pd2 2.837096 1_555
Hf2 Pd5 2.837096 1_555
Hf2 Pd0 2.837096 1_555
Hf2 In3 3.294669 1_655
Hf2 In2 3.294669 1_655
Hf2 In0 3.294669 1_555
Hf2 In1 3.294669 1_555
Hf3 Pd6 2.732408 1_555
Hf3 Pd7 2.732408 1_555
Hf3 Pd1 2.837096 1_555
Hf3 Pd2 2.837096 1_555
Hf3 Pd5 2.837096 1_555
Hf3 Pd0 2.837096 1_555
Hf3 In0 3.294669 1_565
Hf3 In1 3.294669 1_565
Hf3 In2 3.294669 1_555
Hf3 In3 3.294669 1_555
Hf4 Pd4 2.735350 1_555
Hf4 Pd3 2.735350 1_554
Hf4 Pd1 2.793365 1_554
Hf4 Pd5 2.793365 1_554
Hf4 Pd2 2.793365 1_555
Hf4 Pd0 2.793365 1_555
Hf4 In2 3.210483 1_655
Hf4 In3 3.210483 1_654
Hf4 In0 3.210483 1_555
Hf4 In1 3.210483 1_554
Hf5 Pd6 2.735350 1_555
Hf5 Pd7 2.735350 1_554
Hf5 Pd1 2.793365 1_554
Hf5 Pd5 2.793365 1_554
Hf5 Pd2 2.793365 1_555
Hf5 Pd0 2.793365 1_555
Hf5 In1 3.210483 1_564
Hf5 In0 3.210483 1_565
Hf5 In3 3.210483 1_554
Hf5 In2 3.210483 1_555
Hf6 Pd2 2.735350 1_555
Hf6 Pd1 2.735350 1_555
Hf6 Pd3 2.793365 1_565
Hf6 Pd6 2.793365 1_655
Hf6 Pd4 2.793365 1_565
Hf6 Pd7 2.793365 1_655
Hf6 In1 3.210483 1_565
Hf6 In2 3.210483 1_655
Hf6 In0 3.210483 1_565
Hf6 In3 3.210483 1_655
Hf7 Pd5 2.735350 1_555
Hf7 Pd0 2.735350 1_555
Hf7 Pd6 2.793365 1_545
Hf7 Pd7 2.793365 1_545
Hf7 Pd3 2.793365 1_455
Hf7 Pd4 2.793365 1_455
Hf7 In1 3.210483 1_555
Hf7 In2 3.210483 1_555
Hf7 In3 3.210483 1_555
Hf7 In0 3.210483 1_555
In0 Pd0 2.932836 1_555
In0 Pd2 2.932836 1_545
In0 Pd4 2.932836 1_555
In0 Pd6 2.932836 1_545
In0 In1 3.377756 1_554
In0 In1 3.377756 1_555
In1 Pd7 2.932836 1_545
In1 Pd5 2.932836 1_555
In1 Pd1 2.932836 1_545
In1 Pd3 2.932836 1_555
In2 Pd0 2.932836 1_555
In2 Pd6 2.932836 1_555
In2 Pd4 2.932836 1_455
In2 Pd2 2.932836 1_455
In2 In3 3.377756 1_555
In2 In3 3.377756 1_554
In3 Pd3 2.932836 1_455
In3 Pd5 2.932836 1_555
In3 Pd1 2.932836 1_455
In3 Pd7 2.932836 1_555
Pd0 Pd2 2.737726 1_555
Pd0 Pd5 2.973610 1_554
Pd1 Pd5 2.737726 1_555
Pd1 Pd2 2.973610 1_556
Pd3 Pd7 2.737726 1_645
Pd3 Pd4 2.973610 1_555
Pd4 Pd6 2.737726 1_645
Pd6 Pd7 2.973610 1_555
