# generated using pymatgen
data_Li2(FeO2)3
_symmetry_space_group_name_H-M   'P 1'
_cell_length_a   5.14909206
_cell_length_b   5.14909206
_cell_length_c   10.29722600
_cell_angle_alpha   90.00000000
_cell_angle_beta   90.00000000
_cell_angle_gamma   118.89375723
_symmetry_Int_Tables_number   1
_chemical_formula_structural   Li2(FeO2)3
_chemical_formula_sum   'Li4 Fe6 O12'
_cell_volume   239.02659742
_cell_formula_units_Z   2
loop_
 _symmetry_equiv_pos_site_id
 _symmetry_equiv_pos_as_xyz
  1  'x, y, z'
loop_
 _atom_site_type_symbol
 _atom_site_label
 _atom_site_symmetry_multiplicity
 _atom_site_fract_x
 _atom_site_fract_y
 _atom_site_fract_z
 _atom_site_occupancy
  Li  Li0  1  0.14465300  0.64465300  0.75000000  1
  Li  Li1  1  0.35534700  0.85534700  0.25000000  1
  Li  Li2  1  0.64465300  0.14465300  0.75000000  1
  Li  Li3  1  0.85534700  0.35534700  0.25000000  1
  Fe  Fe0  1  0.00000000  0.00000000  0.00000000  1
  Fe  Fe1  1  0.50000000  0.50000000  0.50000000  1
  Fe  Fe2  1  0.33475600  0.66524400  0.00000000  1
  Fe  Fe3  1  0.83475600  0.16524400  0.50000000  1
  Fe  Fe4  1  0.16524400  0.83475600  0.50000000  1
  Fe  Fe5  1  0.66524400  0.33475600  0.00000000  1
  O  O0  1  0.16332300  0.16332300  0.59688200  1
  O  O1  1  0.33667700  0.33667700  0.09688200  1
  O  O2  1  0.66332300  0.66332300  0.90311800  1
  O  O3  1  0.97962700  0.33096800  0.89140200  1
  O  O4  1  0.83667700  0.83667700  0.40311800  1
  O  O5  1  0.16903200  0.52037300  0.39140200  1
  O  O6  1  0.47962700  0.83096800  0.60859800  1
  O  O7  1  0.66903200  0.02037300  0.10859800  1
  O  O8  1  0.02037300  0.66903200  0.10859800  1
  O  O9  1  0.33096800  0.97962700  0.89140200  1
  O  O10  1  0.52037300  0.16903200  0.39140200  1
  O  O11  1  0.83096800  0.47962700  0.60859800  1
loop_
_geom_bond_atom_site_label_1
_geom_bond_atom_site_label_2
_geom_bond_distance
_geom_bond_site_symmetry_2
Li0 O11 2.030921 1_455
Li0 O3 2.030921 1_455
Li0 O6 2.101511 1_555
Li0 O9 2.101511 1_555
Li1 O7 2.030921 1_565
Li1 O10 2.030921 1_565
Li1 O5 2.101511 1_555
Li1 O8 2.101511 1_555
Li2 O6 2.030921 1_545
Li2 O9 2.030921 1_545
Li2 O3 2.101511 1_555
Li2 O11 2.101511 1_555
Li3 O8 2.030921 1_655
Li3 O5 2.030921 1_655
Li3 O10 2.101511 1_555
Li3 O7 2.101511 1_555
Fe0 O1 2.025240 1_555
Fe0 O2 2.025240 1_444
Fe0 O9 2.082910 1_544
Fe0 O3 2.082910 1_454
Fe0 O7 2.082910 1_455
Fe0 O8 2.082910 1_545
Fe1 O0 2.025240 1_555
Fe1 O4 2.025240 1_555
Fe1 O10 2.082910 1_555
Fe1 O11 2.082910 1_555
Fe1 O5 2.082910 1_555
Fe1 O6 2.082910 1_555
Fe2 O1 1.968189 1_555
Fe2 O2 1.968189 1_554
Fe2 O8 1.975314 1_555
Fe2 O9 1.975314 1_554
Fe2 O3 2.124917 1_454
Fe2 O7 2.124917 1_565
Fe3 O4 1.968189 1_545
Fe3 O0 1.968189 1_655
Fe3 O11 1.975314 1_555
Fe3 O10 1.975314 1_555
Fe3 O5 2.124917 1_655
Fe3 O6 2.124917 1_545
Fe4 O4 1.968189 1_455
Fe4 O0 1.968189 1_565
Fe4 O6 1.975314 1_555
Fe4 O5 1.975314 1_555
Fe4 O10 2.124917 1_565
Fe4 O11 2.124917 1_455
Fe5 O1 1.968189 1_555
Fe5 O2 1.968189 1_554
Fe5 O7 1.975314 1_555
Fe5 O3 1.975314 1_554
Fe5 O9 2.124917 1_544
Fe5 O8 2.124917 1_655
