# generated using pymatgen
data_KTb(CO3)2
_symmetry_space_group_name_H-M   'P 1'
_cell_length_a   6.44558098
_cell_length_b   6.44558098
_cell_length_c   6.98379480
_cell_angle_alpha   76.20532668
_cell_angle_beta   76.20532668
_cell_angle_gamma   96.39277401
_symmetry_Int_Tables_number   1
_chemical_formula_structural   KTb(CO3)2
_chemical_formula_sum   'K2 Tb2 C4 O12'
_cell_volume   269.26229002
_cell_formula_units_Z   2
loop_
 _symmetry_equiv_pos_site_id
 _symmetry_equiv_pos_as_xyz
  1  'x, y, z'
loop_
 _atom_site_type_symbol
 _atom_site_label
 _atom_site_symmetry_multiplicity
 _atom_site_fract_x
 _atom_site_fract_y
 _atom_site_fract_z
 _atom_site_occupancy
  K  K0  1  0.62015300  0.37984700  0.75000000  1
  K  K1  1  0.37984700  0.62015300  0.25000000  1
  Tb  Tb0  1  0.09617500  0.90382500  0.75000000  1
  Tb  Tb1  1  0.90382500  0.09617500  0.25000000  1
  C  C0  1  0.64547900  0.88959700  0.75804000  1
  C  C1  1  0.35452100  0.11040300  0.24196000  1
  C  C2  1  0.11040300  0.35452100  0.74196000  1
  C  C3  1  0.88959700  0.64547900  0.25804000  1
  O  O0  1  0.44395500  0.89560400  0.77967800  1
  O  O1  1  0.55604500  0.10439600  0.22032200  1
  O  O2  1  0.10439600  0.55604500  0.72032200  1
  O  O3  1  0.89560400  0.44395500  0.27967800  1
  O  O4  1  0.71434600  0.74920900  0.88310600  1
  O  O5  1  0.28565400  0.25079100  0.11689400  1
  O  O6  1  0.25079100  0.28565400  0.61689400  1
  O  O7  1  0.74920900  0.71434600  0.38310600  1
  O  O8  1  0.79647200  0.03323200  0.60864200  1
  O  O9  1  0.20352800  0.96676800  0.39135800  1
  O  O10  1  0.96676800  0.20352800  0.89135800  1
  O  O11  1  0.03323200  0.79647200  0.10864200  1
loop_
_geom_bond_atom_site_label_1
_geom_bond_atom_site_label_2
_geom_bond_distance
_geom_bond_site_symmetry_2
K0 O7 2.802774 1_555
K0 O5 2.802774 1_556
K0 O4 2.811296 1_555
K0 O6 2.811296 1_555
K0 O8 2.887856 1_555
K0 O10 2.887856 1_555
K1 O4 2.802774 1_554
K1 O6 2.802774 1_555
K1 O7 2.811296 1_555
K1 O5 2.811296 1_555
K1 O9 2.887856 1_555
K1 O11 2.887856 1_555
C0 O0 1.277482 1_555
C0 O4 1.294668 1_555
C0 O8 1.321884 1_565
C1 O1 1.277482 1_555
C1 O5 1.294668 1_555
C1 O9 1.321884 1_545
C2 O2 1.277482 1_555
C2 O6 1.294668 1_555
C2 O10 1.321884 1_455
C3 O3 1.277482 1_555
C3 O7 1.294668 1_555
C3 O11 1.321884 1_655
O0 Tb0 2.305107 1_555
O1 Tb1 2.305107 1_555
O2 Tb0 2.305107 1_555
O3 Tb1 2.305107 1_555
O4 Tb0 2.415651 1_655
O5 Tb1 2.415651 1_455
O6 Tb0 2.415651 1_545
O7 Tb1 2.415651 1_565
O8 Tb1 2.354404 1_555
O8 Tb0 2.505513 1_645
O9 Tb0 2.354404 1_555
O9 Tb1 2.505513 1_465
O10 Tb1 2.354404 1_556
O10 Tb0 2.505513 1_645
O11 Tb0 2.354404 1_554
O11 Tb1 2.505513 1_465
