# generated using pymatgen
data_Y3Ga2
_symmetry_space_group_name_H-M   'P 1'
_cell_length_a   11.04941012
_cell_length_b   11.04960706
_cell_length_c   11.04964711
_cell_angle_alpha   96.13525939
_cell_angle_beta   116.52301528
_cell_angle_gamma   116.52289405
_symmetry_Int_Tables_number   1
_chemical_formula_structural   Y3Ga2
_chemical_formula_sum   'Y24 Ga16'
_cell_volume   997.88077792
_cell_formula_units_Z   8
loop_
 _symmetry_equiv_pos_site_id
 _symmetry_equiv_pos_as_xyz
  1  'x, y, z'
loop_
 _atom_site_type_symbol
 _atom_site_label
 _atom_site_symmetry_multiplicity
 _atom_site_fract_x
 _atom_site_fract_y
 _atom_site_fract_z
 _atom_site_occupancy
  Y  Y0  1  0.50000080  0.85351973  0.35351902  1
  Y  Y1  1  0.49999852  0.35351960  0.85351876  1
  Y  Y2  1  0.49999708  0.14647989  0.64647928  1
  Y  Y3  1  0.49999955  0.64648035  0.14647923  1
  Y  Y4  1  0.16269142  0.33134780  0.83134644  1
  Y  Y5  1  0.83730862  0.66865180  0.16865394  1
  Y  Y6  1  0.50000243  0.16865568  0.33134678  1
  Y  Y7  1  0.49999865  0.83134491  0.66865388  1
  Y  Y8  1  0.72974922  0.56831038  0.43363649  1
  Y  Y9  1  0.27025228  0.70388893  0.83856137  1
  Y  Y10  1  0.86532442  0.20389056  0.93363770  1
  Y  Y11  1  0.13467604  0.06831357  0.33856646  1
  Y  Y12  1  0.86532831  0.43363555  0.70388641  1
  Y  Y13  1  0.13467315  0.83856219  0.56831135  1
  Y  Y14  1  0.72974753  0.93363700  0.06831495  1
  Y  Y15  1  0.27025402  0.33856631  0.20389137  1
  Y  Y16  1  0.27025089  0.43169148  0.56636514  1
  Y  Y17  1  0.72974809  0.29610977  0.16143723  1
  Y  Y18  1  0.13467651  0.79611109  0.06636420  1
  Y  Y19  1  0.86532466  0.93168557  0.66143312  1
  Y  Y20  1  0.13467360  0.56636341  0.29611228  1
  Y  Y21  1  0.86532851  0.16144092  0.43169152  1
  Y  Y22  1  0.27025252  0.06636427  0.93168828  1
  Y  Y23  1  0.72974627  0.66143027  0.79610726  1
  Ga  Ga0  1  0.00000119  0.74999968  0.75000109  1
  Ga  Ga1  1  0.00000070  0.25000051  0.25000067  1
  Ga  Ga2  1  0.00000301  0.50000529  0.49999799  1
  Ga  Ga3  1  0.99999335  0.99999439  -0.00000095  1
  Ga  Ga4  1  0.26474668  0.88237656  0.38237736  1
  Ga  Ga5  1  0.73525432  0.11762364  0.61762362  1
  Ga  Ga6  1  0.49999978  0.61763110  0.88236843  1
  Ga  Ga7  1  0.50000090  0.38236886  0.11763202  1
  Ga  Ga8  1  0.14442358  0.12142092  0.62142092  1
  Ga  Ga9  1  0.85557111  0.47698761  0.97698690  1
  Ga  Ga10  1  0.50000492  0.97699805  0.12142024  1
  Ga  Ga11  1  0.50000538  0.62141946  0.47699701  1
  Ga  Ga12  1  0.85557611  0.87858068  0.37858018  1
  Ga  Ga13  1  0.14442880  0.52301140  0.02301130  1
  Ga  Ga14  1  0.49999416  0.02300277  0.87858034  1
  Ga  Ga15  1  0.49999389  0.37857907  0.52300143  1
loop_
_geom_bond_atom_site_label_1
_geom_bond_atom_site_label_2
_geom_bond_distance
_geom_bond_site_symmetry_2
Y0 Y3 3.057529 1_555
Y0 Y6 3.516752 1_565
Y0 Y7 3.516774 1_555
Y1 Y2 3.057528 1_555
Y1 Y4 3.516685 1_555
Y1 Y5 3.516778 1_556
Y2 Y7 3.516760 1_545
Y2 Y6 3.516765 1_555
Y3 Y5 3.516697 1_555
Y3 Y4 3.516765 1_554
Y4 Y9 3.720178 1_555
Y5 Y8 3.720165 1_555
Y6 Y8 3.685314 1_555
Y7 Y9 3.685255 1_555
Y10 Y4 3.685280 1_655
Y10 Y7 3.720228 1_545
Y11 Y5 3.685379 1_445
Y11 Y6 3.720142 1_555
Y12 Y4 3.685207 1_655
Y12 Y6 3.720188 1_555
Y13 Y5 3.685347 1_455
Y13 Y7 3.720114 1_555
Y14 Y7 3.685381 1_554
Y14 Y5 3.720186 1_555
Y15 Y6 3.685291 1_555
Y15 Y4 3.720217 1_554
Y16 Y7 3.685304 1_555
Y16 Y4 3.720159 1_555
Y17 Y6 3.685266 1_555
Y17 Y5 3.720183 1_555
Y18 Y5 3.685276 1_455
Y18 Y6 3.720219 1_565
Y19 Y4 3.685381 1_665
Y19 Y7 3.720147 1_555
Y20 Y5 3.685230 1_455
Y20 Y7 3.720201 1_555
Y21 Y4 3.685325 1_655
Y21 Y6 3.720101 1_555
Y22 Y6 3.685358 1_556
Y22 Y4 3.720175 1_555
Y23 Y7 3.685320 1_555
Y23 Y5 3.720228 1_556
Ga0 Y9 2.998280 1_555
Ga0 Y23 2.998281 1_455
Ga0 Y19 2.998312 1_455
Ga0 Y13 2.998317 1_555
Ga0 Y12 2.998358 1_455
Ga0 Y18 2.998360 1_556
Ga0 Y22 2.998369 1_565
Ga0 Y8 2.998377 1_455
Ga1 Y17 2.998282 1_455
Ga1 Y15 2.998291 1_555
Ga1 Y11 2.998310 1_555
Ga1 Y21 2.998324 1_455
Ga1 Y20 2.998351 1_555
Ga1 Y10 2.998360 1_454
Ga1 Y14 2.998363 1_445
Ga1 Y16 2.998375 1_555
Ga2 Y16 3.193729 1_555
Ga2 Y20 3.193732 1_555
Ga2 Y8 3.193735 1_455
Ga2 Y13 3.193769 1_555
Ga2 Y12 3.193803 1_455
Ga2 Y9 3.193835 1_555
Ga2 Y17 3.193843 1_455
Ga2 Y21 3.193846 1_455
Ga3 Y14 3.193746 1_555
Ga3 Y18 3.193799 1_655
Ga3 Y10 3.193822 1_564
Ga3 Y22 3.193823 1_664
Ga3 Y23 3.193848 1_554
Ga3 Y11 3.193859 1_665
Ga3 Y19 3.193880 1_554
Ga3 Y15 3.193922 1_665
Ga4 Y2 2.901559 1_565
Ga4 Y0 2.901575 1_555
Ga4 Y11 2.957934 1_565
Ga4 Y13 2.957937 1_555
Ga4 Y20 2.958027 1_555
Ga4 Y18 2.958042 1_555
Ga4 Y7 3.380482 1_555
Ga4 Y6 3.380510 1_565
Ga4 Y5 3.513591 1_455
Ga5 Y0 2.901577 1_545
Ga5 Y2 2.901591 1_555
Ga5 Y21 2.957923 1_555
Ga5 Y19 2.957943 1_545
Ga5 Y12 2.958013 1_555
Ga5 Y10 2.958052 1_555
Ga5 Y6 3.380487 1_555
Ga5 Y7 3.380505 1_545
Ga5 Y4 3.513583 1_655
Ga6 Y1 2.901614 1_555
Ga6 Y3 2.901625 1_556
Ga6 Y9 2.957901 1_555
Ga6 Y23 2.957939 1_555
Ga6 Y16 2.957963 1_555
Ga6 Y14 2.957993 1_556
Ga6 Y4 3.380516 1_555
Ga6 Y5 3.380536 1_556
Ga6 Y7 3.513544 1_555
Ga7 Y3 2.901629 1_555
Ga7 Y1 2.901638 1_554
Ga7 Y17 2.957912 1_555
Ga7 Y15 2.957921 1_555
Ga7 Y8 2.957977 1_555
Ga7 Y22 2.957977 1_554
Ga7 Y5 3.380511 1_555
Ga7 Y4 3.380539 1_554
Ga7 Y6 3.513541 1_555
Ga8 Y4 2.969083 1_555
Ga8 Y1 3.030938 1_555
Ga8 Y11 3.061897 1_555
Ga8 Y13 3.061918 1_545
Ga8 Y19 3.121323 1_445
Ga8 Y21 3.121327 1_455
Ga8 Y22 3.316749 1_555
Ga8 Y16 3.316767 1_555
Ga9 Y5 2.969139 1_556
Ga9 Y1 3.030904 1_555
Ga9 Y10 3.061802 1_555
Ga9 Y12 3.061876 1_555
Ga9 Y18 3.121436 1_656
Ga9 Y20 3.121448 1_656
Ga9 Y23 3.316715 1_555
Ga9 Y17 3.316776 1_556
Ga10 Ga14 2.783847 1_564
Ga10 Y6 2.969095 1_565
Ga10 Y0 3.030968 1_555
Ga10 Y14 3.061782 1_555
Ga10 Y9 3.061958 1_554
Ga10 Y17 3.121336 1_565
Ga10 Y22 3.121372 1_564
Ga10 Y18 3.316736 1_555
Ga10 Y21 3.316755 1_565
Ga11 Ga15 2.783840 1_555
Ga11 Y7 2.969111 1_555
Ga11 Y0 3.030976 1_555
Ga11 Y8 3.061815 1_555
Ga11 Y15 3.061904 1_555
Ga11 Y23 3.121346 1_555
Ga11 Y16 3.121392 1_555
Ga11 Y19 3.316708 1_555
Ga11 Y20 3.316765 1_555
Ga12 Ga8 2.783915 1_665
Ga12 Y5 2.969105 1_555
Ga12 Y3 3.030957 1_555
Ga12 Y19 3.061873 1_555
Ga12 Y21 3.061925 1_565
Ga12 Y11 3.121336 1_665
Ga12 Y13 3.121338 1_655
Ga12 Y14 3.316726 1_555
Ga12 Y8 3.316767 1_555
Ga13 Ga9 2.783822 1_454
Ga13 Y4 2.969120 1_554
Ga13 Y3 3.030884 1_555
Ga13 Y18 3.061828 1_555
Ga13 Y20 3.061869 1_555
Ga13 Y10 3.121424 1_454
Ga13 Y12 3.121436 1_454
Ga13 Y15 3.316742 1_555
Ga13 Y9 3.316773 1_554
Ga14 Y7 2.969111 1_545
Ga14 Y2 3.030981 1_555
Ga14 Y22 3.061790 1_555
Ga14 Y17 3.061933 1_556
Ga14 Y9 3.121342 1_545
Ga14 Y14 3.121385 1_546
Ga14 Y13 3.316731 1_545
Ga14 Y10 3.316747 1_555
Ga15 Y6 2.969093 1_555
Ga15 Y2 3.030962 1_555
Ga15 Y16 3.061843 1_555
Ga15 Y23 3.061893 1_555
Ga15 Y15 3.121334 1_555
Ga15 Y8 3.121385 1_555
Ga15 Y11 3.316698 1_555
Ga15 Y12 3.316788 1_555
