# generated using pymatgen
data_Dy2Mo2O7
_symmetry_space_group_name_H-M   'P 1'
_cell_length_a   7.25415964
_cell_length_b   7.25415964
_cell_length_c   7.25415964
_cell_angle_alpha   60.00000000
_cell_angle_beta   60.00000000
_cell_angle_gamma   60.00000000
_symmetry_Int_Tables_number   1
_chemical_formula_structural   Dy2Mo2O7
_chemical_formula_sum   'Dy4 Mo4 O14'
_cell_volume   269.92699976
_cell_formula_units_Z   2
loop_
 _symmetry_equiv_pos_site_id
 _symmetry_equiv_pos_as_xyz
  1  'x, y, z'
loop_
 _atom_site_type_symbol
 _atom_site_label
 _atom_site_symmetry_multiplicity
 _atom_site_fract_x
 _atom_site_fract_y
 _atom_site_fract_z
 _atom_site_occupancy
  Dy  Dy0  1  0.62500000  0.12500000  0.12500000  1
  Dy  Dy1  1  0.12500000  0.62500000  0.12500000  1
  Dy  Dy2  1  0.12500000  0.12500000  0.62500000  1
  Dy  Dy3  1  0.12500000  0.12500000  0.12500000  1
  Mo  Mo0  1  0.12500000  0.62500000  0.62500000  1
  Mo  Mo1  1  0.62500000  0.12500000  0.62500000  1
  Mo  Mo2  1  0.62500000  0.62500000  0.12500000  1
  Mo  Mo3  1  0.62500000  0.62500000  0.62500000  1
  O  O0  1  0.71213537  0.71213537  0.28786463  1
  O  O1  1  0.28786463  0.28786463  0.71213537  1
  O  O2  1  0.71213537  0.28786463  0.71213537  1
  O  O3  1  0.28786463  0.71213537  0.28786463  1
  O  O4  1  0.28786463  0.71213537  0.71213537  1
  O  O5  1  0.71213537  0.28786463  0.28786463  1
  O  O6  1  0.53786463  0.53786463  0.96213537  1
  O  O7  1  0.96213537  0.96213537  0.53786463  1
  O  O8  1  0.53786463  0.96213537  0.53786463  1
  O  O9  1  0.96213537  0.53786463  0.96213537  1
  O  O10  1  0.96213537  0.53786463  0.53786463  1
  O  O11  1  0.53786463  0.96213537  0.96213537  1
  O  O12  1  0.25000000  0.25000000  0.25000000  1
  O  O13  1  0.00000000  -0.00000000  0.00000000  1
loop_
_geom_bond_atom_site_label_1
_geom_bond_atom_site_label_2
_geom_bond_distance
_geom_bond_site_symmetry_2
Dy0 O13 2.221124 1_655
Dy0 O12 2.221124 1_555
Dy0 O11 2.465878 1_544
Dy0 O6 2.465878 1_554
Dy0 O8 2.465878 1_545
Dy0 O2 2.465878 1_554
Dy0 O0 2.465878 1_545
Dy0 O5 2.465878 1_555
Dy1 O12 2.221124 1_555
Dy1 O13 2.221124 1_565
Dy1 O0 2.465878 1_455
Dy1 O10 2.465878 1_455
Dy1 O9 2.465878 1_454
Dy1 O6 2.465878 1_554
Dy1 O4 2.465878 1_554
Dy1 O3 2.465878 1_555
Dy2 O12 2.221124 1_555
Dy2 O13 2.221124 1_556
Dy2 O4 2.465878 1_545
Dy2 O10 2.465878 1_455
Dy2 O8 2.465878 1_545
Dy2 O2 2.465878 1_455
Dy2 O7 2.465878 1_445
Dy2 O1 2.465878 1_555
Dy3 O12 2.221124 1_555
Dy3 O13 2.221124 1_555
Dy3 O11 2.465878 1_544
Dy3 O9 2.465878 1_454
Dy3 O5 2.465878 1_455
Dy3 O1 2.465878 1_554
Dy3 O3 2.465878 1_545
Dy3 O7 2.465878 1_445
Mo0 O1 2.021883 1_555
Mo0 O3 2.021883 1_555
Mo0 O7 2.021883 1_455
Mo0 O4 2.021883 1_555
Mo0 O9 2.021883 1_455
Mo0 O10 2.021883 1_455
Mo1 O1 2.021883 1_555
Mo1 O5 2.021883 1_555
Mo1 O2 2.021883 1_555
Mo1 O11 2.021883 1_545
Mo1 O8 2.021883 1_545
Mo1 O7 2.021883 1_545
Mo2 O5 2.021883 1_555
Mo2 O3 2.021883 1_555
Mo2 O6 2.021883 1_554
Mo2 O0 2.021883 1_555
Mo2 O11 2.021883 1_554
Mo2 O9 2.021883 1_554
Mo3 O4 2.021883 1_555
Mo3 O2 2.021883 1_555
Mo3 O0 2.021883 1_555
Mo3 O6 2.021883 1_555
Mo3 O8 2.021883 1_555
Mo3 O10 2.021883 1_555
