# generated using pymatgen
data_Al2O3
_symmetry_space_group_name_H-M   'P 1'
_cell_length_a   10.23321564
_cell_length_b   10.16520458
_cell_length_c   10.49788258
_cell_angle_alpha   90.85493955
_cell_angle_beta   92.22224913
_cell_angle_gamma   87.56566672
_symmetry_Int_Tables_number   1
_chemical_formula_structural   Al2O3
_chemical_formula_sum   'Al40 O60'
_cell_volume   1090.11602861
_cell_formula_units_Z   20
loop_
 _symmetry_equiv_pos_site_id
 _symmetry_equiv_pos_as_xyz
  1  'x, y, z'
loop_
 _atom_site_type_symbol
 _atom_site_label
 _atom_site_symmetry_multiplicity
 _atom_site_fract_x
 _atom_site_fract_y
 _atom_site_fract_z
 _atom_site_occupancy
  Al  Al0  1  0.96028900  0.33958300  0.62646700  1
  Al  Al1  1  0.56451200  0.53620000  0.39695200  1
  Al  Al2  1  0.21145100  0.21871300  0.20821300  1
  Al  Al3  1  0.32197000  0.55299900  0.94440700  1
  Al  Al4  1  0.47592000  0.64049800  0.65658100  1
  Al  Al5  1  0.06938200  0.49059200  0.16752700  1
  Al  Al6  1  0.18589000  0.99946800  0.89853900  1
  Al  Al7  1  0.28092800  0.67336000  0.30590700  1
  Al  Al8  1  0.96451900  0.93299400  0.77221000  1
  Al  Al9  1  0.80850300  0.71547500  0.29887600  1
  Al  Al10  1  0.08777100  0.51534400  0.82043700  1
  Al  Al11  1  0.44613700  0.94665400  0.62472400  1
  Al  Al12  1  0.09674800  0.74487800  0.05048900  1
  Al  Al13  1  0.23073500  0.48949400  0.55376900  1
  Al  Al14  1  0.78612500  0.00958500  0.21604600  1
  Al  Al15  1  0.67589500  0.26805400  0.70937800  1
  Al  Al16  1  0.28578200  0.77834000  0.80816600  1
  Al  Al17  1  0.47567600  0.99110600  0.99634500  1
  Al  Al18  1  0.44199700  0.32625100  0.51843200  1
  Al  Al19  1  0.69473700  0.23803400  0.97526700  1
  Al  Al20  1  0.44558100  0.42926400  0.17647000  1
  Al  Al21  1  0.05247700  0.89701200  0.37601700  1
  Al  Al22  1  0.19518500  0.13854500  0.50080200  1
  Al  Al23  1  0.54013000  0.80990200  0.39725000  1
  Al  Al24  1  0.87023800  0.52299500  0.98548000  1
  Al  Al25  1  0.01858500  0.63687300  0.52009800  1
  Al  Al26  1  0.76369200  0.83069000  0.57225000  1
  Al  Al27  1  0.38709500  0.16478800  0.75273600  1
  Al  Al28  1  0.98687300  0.07130500  0.02757700  1
  Al  Al29  1  0.66595400  0.23450700  0.40227800  1
  Al  Al30  1  0.91013700  0.07536700  0.50309500  1
  Al  Al31  1  0.50644500  0.17121300  0.20658900  1
  Al  Al32  1  0.14202000  0.28385300  0.91432400  1
  Al  Al33  1  0.33738700  0.94879600  0.29875400  1
  Al  Al34  1  0.66792100  0.97052100  0.81623000  1
  Al  Al35  1  0.79081800  0.55811900  0.70190200  1
  Al  Al36  1  0.97152900  0.36147000  0.36902000  1
  Al  Al37  1  0.58101000  0.53992700  0.89822600  1
  Al  Al38  1  0.77071700  0.78688400  0.00168000  1
  Al  Al39  1  0.75645300  0.42444200  0.21407500  1
  O  O0  1  0.04231600  0.44041300  0.00459700  1
  O  O1  1  0.55705800  0.15246800  0.03407500  1
  O  O2  1  0.41166100  0.02082800  0.16325800  1
  O  O3  1  0.71247900  0.82725000  0.40689300  1
  O  O4  1  0.83192200  0.87151800  0.85755500  1
  O  O5  1  0.09055600  0.99529400  0.51002200  1
  O  O6  1  0.62647900  0.36898600  0.86347500  1
  O  O7  1  0.10982900  0.35113200  0.26866100  1
  O  O8  1  0.19359200  0.84380600  0.29776300  1
  O  O9  1  0.62807500  0.89530800  0.65706100  1
  O  O10  1  0.25638300  0.31412800  0.52137000  1
  O  O11  1  0.26267900  0.15658800  0.86728700  1
  O  O12  1  0.63022000  0.60009900  0.73877000  1
  O  O13  1  0.01465200  0.07934500  0.86070900  1
  O  O14  1  0.75386200  0.16358400  0.54192700  1
  O  O15  1  0.08719200  0.92004400  0.04067800  1
  O  O16  1  0.35281100  0.28913000  0.15810700  1
  O  O17  1  0.18356000  0.66876500  0.91573100  1
  O  O18  1  0.91571600  0.01083300  0.33566800  1
  O  O19  1  0.50207100  0.25390100  0.66760500  1
  O  O20  1  0.31509900  0.07877600  0.62083200  1
  O  O21  1  0.05521400  0.33767600  0.76657900  1
  O  O22  1  0.39713400  0.49748600  0.59446300  1
  O  O23  1  0.79962700  0.38410300  0.66916500  1
  O  O24  1  0.18479300  0.61171400  0.43625800  1
  O  O25  1  0.62078200  0.89032100  0.96404600  1
  O  O26  1  0.18350700  0.62078800  0.16063700  1
  O  O27  1  0.01116800  0.22373400  0.50451300  1
  O  O28  1  0.96221600  0.74770300  0.39093900  1
  O  O29  1  0.11575800  0.18412000  0.06345200  1
  O  O30  1  0.12918300  0.58429800  0.66724000  1
  O  O31  1  0.83038500  0.09742500  0.07856200  1
  O  O32  1  0.44377800  0.94404600  0.45113600  1
  O  O33  1  0.40613100  0.52689700  0.31129000  1
  O  O34  1  0.60600300  0.39425200  0.48213100  1
  O  O35  1  0.98811100  0.46385800  0.50675200  1
  O  O36  1  0.93807200  0.68538900  0.04489000  1
  O  O37  1  0.91848000  0.51600500  0.24538800  1
  O  O38  1  0.71183600  0.62013300  0.98407600  1
  O  O39  1  0.13314000  0.87660600  0.77727200  1
  O  O40  1  0.69128200  0.58269500  0.29311700  1
  O  O41  1  0.79546500  0.37489000  0.05250700  1
  O  O42  1  0.88477600  0.94513400  0.61899600  1
  O  O43  1  0.48028100  0.21723700  0.38545000  1
  O  O44  1  0.24518500  0.41976100  0.88079100  1
  O  O45  1  0.48937100  0.02802000  0.80013300  1
  O  O46  1  0.23001900  0.10246900  0.33137500  1
  O  O47  1  0.78294500  0.83630800  0.17177200  1
  O  O48  1  0.81571200  0.30636300  0.33184200  1
  O  O49  1  0.59717800  0.35042100  0.21173800  1
  O  O50  1  0.42216900  0.77649100  0.27518700  1
  O  O51  1  0.85324200  0.67540700  0.59737800  1
  O  O52  1  0.46231200  0.51947400  0.03791300  1
  O  O53  1  0.72752600  0.14003300  0.82418600  1
  O  O54  1  0.33171000  0.89802800  0.93476000  1
  O  O55  1  0.54399900  0.67359500  0.50120000  1
  O  O56  1  0.37535400  0.79465300  0.66547500  1
  O  O57  1  0.91360200  0.55851500  0.82429500  1
  O  O58  1  0.65717000  0.09697000  0.28132600  1
  O  O59  1  0.41540400  0.63006600  0.83114000  1
loop_
_geom_bond_atom_site_label_1
_geom_bond_atom_site_label_2
_geom_bond_distance
_geom_bond_site_symmetry_2
Al0 O21 1.730867 1_655
Al0 O23 1.759729 1_555
Al0 O27 1.803211 1_655
Al0 O35 1.833589 1_555
Al1 O34 1.737507 1_555
Al1 O55 1.771910 1_555
Al1 O40 1.808757 1_555
Al1 O33 1.828087 1_555
Al2 O16 1.743508 1_555
Al2 O46 1.763958 1_555
Al2 O7 1.789634 1_555
Al2 O29 1.813812 1_555
Al3 O44 1.708950 1_555
Al3 O52 1.732429 1_556
Al3 O59 1.766741 1_555
Al3 O17 1.821398 1_555
Al4 O22 1.794196 1_555
Al4 O12 1.804472 1_555
Al4 O55 1.839476 1_555
Al4 O56 1.841040 1_555
Al4 O59 1.962698 1_555
Al5 O37 1.782450 1_455
Al5 O0 1.792110 1_555
Al5 O26 1.805940 1_555
Al5 O7 1.808093 1_555
Al6 O54 1.808741 1_555
Al6 O11 1.848856 1_565
Al6 O39 1.851583 1_555
Al6 O13 1.929353 1_565
Al6 O15 2.029917 1_556
Al7 O24 1.848077 1_555
Al7 O50 1.861995 1_555
Al7 O26 1.873019 1_555
Al7 O8 1.917023 1_555
Al7 O33 1.922550 1_555
Al8 O42 1.778689 1_555
Al8 O4 1.793714 1_555
Al8 O39 1.794053 1_655
Al8 O13 1.823779 1_665
Al9 O47 1.830868 1_555
Al9 O40 1.842237 1_555
Al9 O28 1.852586 1_555
Al9 O3 1.869631 1_555
Al9 O37 2.348280 1_555
Al10 O57 1.819196 1_455
Al10 O30 1.835502 1_555
Al10 O21 1.923136 1_555
Al10 O44 1.935611 1_555
Al10 O17 2.097878 1_555
Al10 O0 2.162852 1_556
Al11 O56 1.798307 1_555
Al11 O32 1.821342 1_555
Al11 O20 1.856870 1_565
Al11 O9 1.930732 1_555
Al11 O45 2.047713 1_565
Al12 O36 1.755193 1_455
Al12 O15 1.783424 1_555
Al12 O17 1.842695 1_554
Al12 O26 1.893467 1_555
Al13 O22 1.744397 1_555
Al13 O24 1.799309 1_555
Al13 O10 1.819733 1_555
Al13 O30 1.845076 1_555
Al14 O58 1.718281 1_555
Al14 O18 1.790969 1_555
Al14 O31 1.791376 1_555
Al14 O47 1.816278 1_545
Al15 O19 1.826587 1_555
Al15 O23 1.831997 1_555
Al15 O53 1.834206 1_555
Al15 O6 1.973612 1_555
Al15 O14 2.198990 1_555
Al16 O56 1.799539 1_555
Al16 O39 1.838671 1_555
Al16 O54 1.849102 1_555
Al16 O17 1.959114 1_555
Al16 O59 1.976259 1_555
Al17 O25 1.808024 1_555
Al17 O54 1.873474 1_555
Al17 O1 1.900532 1_566
Al17 O2 1.909748 1_566
Al17 O45 2.110257 1_565
Al18 O43 1.813766 1_555
Al18 O19 1.814516 1_555
Al18 O34 1.896253 1_555
Al18 O10 1.910106 1_555
Al18 O22 1.948520 1_555
Al19 O1 1.819410 1_556
Al19 O6 1.881813 1_555
Al19 O53 1.893731 1_555
Al19 O41 1.917984 1_556
Al19 O31 2.215100 1_556
Al20 O49 1.744910 1_555
Al20 O52 1.748826 1_555
Al20 O16 1.749304 1_555
Al20 O33 1.766197 1_555
Al21 O8 1.750739 1_555
Al21 O5 1.754301 1_555
Al21 O18 1.818739 1_465
Al21 O28 1.821724 1_455
Al22 O20 1.817217 1_555
Al22 O5 1.849563 1_545
Al22 O46 1.855709 1_555
Al22 O10 1.922868 1_555
Al22 O27 2.040485 1_555
Al23 O32 1.748603 1_555
Al23 O50 1.765322 1_555
Al23 O55 1.774647 1_555
Al23 O3 1.778755 1_555
Al24 O57 1.811234 1_555
Al24 O38 1.861548 1_555
Al24 O41 1.875741 1_556
Al24 O36 1.904971 1_556
Al24 O0 1.922974 1_656
Al25 O35 1.801629 1_455
Al25 O28 1.835802 1_455
Al25 O51 1.927461 1_455
Al25 O30 1.946854 1_555
Al25 O24 1.950730 1_555
Al26 O9 1.775126 1_555
Al26 O42 1.785433 1_555
Al26 O3 1.793994 1_555
Al26 O51 1.808800 1_555
Al27 O45 1.769883 1_555
Al27 O20 1.778808 1_555
Al27 O19 1.788806 1_555
Al27 O11 1.790189 1_555
Al28 O31 1.716825 1_555
Al28 O13 1.789139 1_654
Al28 O29 1.809296 1_655
Al28 O15 1.816116 1_645
Al29 O14 1.830954 1_555
Al29 O58 1.877186 1_555
Al29 O48 1.904717 1_555
Al29 O34 1.905411 1_555
Al29 O43 1.916645 1_555
Al29 O49 2.403222 1_555
Al30 O42 1.844466 1_545
Al30 O14 1.856229 1_555
Al30 O27 1.863952 1_655
Al30 O18 1.868970 1_555
Al30 O5 1.984997 1_645
Al31 O58 1.840943 1_555
Al31 O2 1.885632 1_555
Al31 O1 1.907475 1_555
Al31 O43 1.954049 1_555
Al31 O16 1.990876 1_555
Al31 O49 2.078559 1_555
Al32 O44 1.820524 1_555
Al32 O11 1.826063 1_555
Al32 O21 1.836096 1_555
Al32 O29 1.911555 1_556
Al32 O0 2.088992 1_556
Al33 O2 1.816404 1_565
Al33 O8 1.853720 1_555
Al33 O32 1.899848 1_555
Al33 O46 1.905803 1_565
Al33 O50 1.938133 1_555
Al34 O53 1.851813 1_565
Al34 O25 1.853235 1_555
Al34 O9 1.865036 1_555
Al34 O45 1.896552 1_565
Al34 O4 1.957206 1_555
Al35 O12 1.737124 1_555
Al35 O57 1.762017 1_555
Al35 O51 1.786522 1_555
Al35 O23 1.796103 1_555
Al36 O48 1.740595 1_555
Al36 O35 1.775873 1_555
Al36 O7 1.795457 1_655
Al36 O27 2.028421 1_655
Al36 O37 2.092988 1_555
Al37 O38 1.801805 1_555
Al37 O6 1.815097 1_555
Al37 O12 1.884654 1_555
Al37 O52 1.959004 1_556
Al37 O59 2.000573 1_555
Al38 O38 1.827350 1_554
Al38 O47 1.848702 1_555
Al38 O25 1.855834 1_554
Al38 O4 1.892019 1_554
Al38 O36 2.001689 1_555
Al39 O48 1.805881 1_555
Al39 O41 1.816551 1_555
Al39 O49 1.823144 1_555
Al39 O40 1.906061 1_555
Al39 O37 1.950184 1_555
