# generated using pymatgen
data_ZrTaB4
_symmetry_space_group_name_H-M   'P 1'
_cell_length_a   3.12613897
_cell_length_b   3.12613897
_cell_length_c   6.85563498
_cell_angle_alpha   90.00000000
_cell_angle_beta   90.00000000
_cell_angle_gamma   120.00001128
_symmetry_Int_Tables_number   1
_chemical_formula_structural   ZrTaB4
_chemical_formula_sum   'Zr1 Ta1 B4'
_cell_volume   58.02228525
_cell_formula_units_Z   1
loop_
 _symmetry_equiv_pos_site_id
 _symmetry_equiv_pos_as_xyz
  1  'x, y, z'
loop_
 _atom_site_type_symbol
 _atom_site_label
 _atom_site_symmetry_multiplicity
 _atom_site_fract_x
 _atom_site_fract_y
 _atom_site_fract_z
 _atom_site_occupancy
  Zr  Zr0  1  -0.00000000  -0.00000000  0.50000000  1
  Ta  Ta0  1  -0.00000000  -0.00000000  0.00000000  1
  B  B0  1  0.66666700  0.33333300  0.75959896  1
  B  B1  1  0.66666700  0.33333300  0.24040104  1
  B  B2  1  0.33333300  0.66666700  0.75959896  1
  B  B3  1  0.33333300  0.66666700  0.24040104  1
loop_
_geom_bond_atom_site_label_1
_geom_bond_atom_site_label_2
_geom_bond_distance
_geom_bond_site_symmetry_2
B0 B2 1.804875 1_545
B0 B2 1.804875 1_655
B0 B2 1.804881 1_555
B0 Ta0 2.444139 1_656
B0 Ta0 2.444141 1_556
B0 Ta0 2.444141 1_666
B0 Zr0 2.534751 1_655
B0 Zr0 2.534753 1_665
B0 Zr0 2.534753 1_555
B1 B3 1.804875 1_545
B1 B3 1.804875 1_655
B1 B3 1.804881 1_555
B1 Ta0 2.444139 1_655
B1 Ta0 2.444141 1_665
B1 Ta0 2.444141 1_555
B1 Zr0 2.534751 1_655
B1 Zr0 2.534753 1_555
B1 Zr0 2.534753 1_665
B2 Ta0 2.444139 1_566
B2 Ta0 2.444141 1_556
B2 Ta0 2.444141 1_666
B2 Zr0 2.534751 1_565
B2 Zr0 2.534753 1_665
B2 Zr0 2.534753 1_555
B3 Ta0 2.444139 1_565
B3 Ta0 2.444141 1_555
B3 Ta0 2.444141 1_665
B3 Zr0 2.534751 1_565
B3 Zr0 2.534753 1_555
B3 Zr0 2.534753 1_665
