# generated using pymatgen
data_Sm23Cd4Rh7
_symmetry_space_group_name_H-M   'P 1'
_cell_length_a   9.89620624
_cell_length_b   9.89620624
_cell_length_c   22.35275697
_cell_angle_alpha   90.00000000
_cell_angle_beta   90.00000000
_cell_angle_gamma   120.00000174
_symmetry_Int_Tables_number   1
_chemical_formula_structural   Sm23Cd4Rh7
_chemical_formula_sum   'Sm46 Cd8 Rh14'
_cell_volume   1895.82914491
_cell_formula_units_Z   2
loop_
 _symmetry_equiv_pos_site_id
 _symmetry_equiv_pos_as_xyz
  1  'x, y, z'
loop_
 _atom_site_type_symbol
 _atom_site_label
 _atom_site_symmetry_multiplicity
 _atom_site_fract_x
 _atom_site_fract_y
 _atom_site_fract_z
 _atom_site_occupancy
  Sm  Sm0  1  0.20779944  0.41559888  0.72106493  1
  Sm  Sm1  1  0.20779944  0.79220056  0.72106493  1
  Sm  Sm2  1  0.79220056  0.58440112  0.22106493  1
  Sm  Sm3  1  0.58440112  0.79220056  0.72106493  1
  Sm  Sm4  1  0.79220056  0.20779944  0.22106493  1
  Sm  Sm5  1  0.41559888  0.20779944  0.22106493  1
  Sm  Sm6  1  0.79233270  0.58466540  0.94667497  1
  Sm  Sm7  1  0.79233270  0.20766730  0.94667497  1
  Sm  Sm8  1  0.20766730  0.41533460  0.44667497  1
  Sm  Sm9  1  0.41533460  0.20766730  0.94667497  1
  Sm  Sm10  1  0.20766730  0.79233270  0.44667497  1
  Sm  Sm11  1  0.58466540  0.79233270  0.44667497  1
  Sm  Sm12  1  0.20991716  0.41983431  0.98966035  1
  Sm  Sm13  1  0.20991716  0.79008284  0.98966035  1
  Sm  Sm14  1  0.79008284  0.58016569  0.48966035  1
  Sm  Sm15  1  0.58016569  0.79008284  0.98966035  1
  Sm  Sm16  1  0.79008284  0.20991716  0.48966035  1
  Sm  Sm17  1  0.41983431  0.20991716  0.48966035  1
  Sm  Sm18  1  0.87290455  0.74580909  0.63589258  1
  Sm  Sm19  1  0.87290455  0.12709545  0.63589258  1
  Sm  Sm20  1  0.12709545  0.25419091  0.13589258  1
  Sm  Sm21  1  0.25419091  0.12709545  0.63589258  1
  Sm  Sm22  1  0.12709545  0.87290455  0.13589258  1
  Sm  Sm23  1  0.74580909  0.87290455  0.13589258  1
  Sm  Sm24  1  0.45857415  0.91714831  0.85667169  1
  Sm  Sm25  1  0.45857415  0.54142585  0.85667169  1
  Sm  Sm26  1  0.54142585  0.08285169  0.35667169  1
  Sm  Sm27  1  0.08285169  0.54142585  0.85667169  1
  Sm  Sm28  1  0.54142585  0.45857415  0.35667169  1
  Sm  Sm29  1  0.91714831  0.45857415  0.35667169  1
  Sm  Sm30  1  -0.00000000  0.00000000  0.99590233  1
  Sm  Sm31  1  -0.00000000  0.00000000  0.49590233  1
  Sm  Sm32  1  0.45986558  0.91973116  0.58478816  1
  Sm  Sm33  1  0.45986558  0.54013442  0.58478816  1
  Sm  Sm34  1  0.54013442  0.08026884  0.08478816  1
  Sm  Sm35  1  0.08026884  0.54013442  0.58478816  1
  Sm  Sm36  1  0.54013442  0.45986558  0.08478816  1
  Sm  Sm37  1  0.91973116  0.45986558  0.08478816  1
  Sm  Sm38  1  0.79898617  0.59797235  0.78291406  1
  Sm  Sm39  1  0.79898617  0.20101383  0.78291406  1
  Sm  Sm40  1  0.20101383  0.40202765  0.28291406  1
  Sm  Sm41  1  0.40202765  0.20101383  0.78291406  1
  Sm  Sm42  1  0.20101383  0.79898617  0.28291406  1
  Sm  Sm43  1  0.59797235  0.79898617  0.28291406  1
  Sm  Sm44  1  0.66666700  0.33333300  0.64441709  1
  Sm  Sm45  1  0.33333300  0.66666700  0.14441709  1
  Cd  Cd0  1  -0.00000000  0.00000000  0.74998802  1
  Cd  Cd1  1  -0.00000000  0.00000000  0.24998802  1
  Cd  Cd2  1  0.10763643  0.21527286  0.86373796  1
  Cd  Cd3  1  0.10763643  0.89236357  0.86373796  1
  Cd  Cd4  1  0.89236357  0.78472714  0.36373796  1
  Cd  Cd5  1  0.78472714  0.89236357  0.86373796  1
  Cd  Cd6  1  0.89236357  0.10763643  0.36373796  1
  Cd  Cd7  1  0.21527286  0.10763643  0.36373796  1
  Rh  Rh0  1  0.52160402  0.04320804  0.71014195  1
  Rh  Rh1  1  0.52160402  0.47839598  0.71014195  1
  Rh  Rh2  1  0.47839598  0.95679196  0.21014195  1
  Rh  Rh3  1  0.95679196  0.47839598  0.71014195  1
  Rh  Rh4  1  0.47839598  0.52160402  0.21014195  1
  Rh  Rh5  1  0.04320804  0.52160402  0.21014195  1
  Rh  Rh6  1  0.66666700  0.33333300  0.86266096  1
  Rh  Rh7  1  0.33333300  0.66666700  0.36266096  1
  Rh  Rh8  1  0.14287335  0.28574671  0.56303722  1
  Rh  Rh9  1  0.14287335  0.85712665  0.56303722  1
  Rh  Rh10  1  0.85712665  0.71425329  0.06303722  1
  Rh  Rh11  1  0.71425329  0.85712665  0.56303722  1
  Rh  Rh12  1  0.85712665  0.14287335  0.06303722  1
  Rh  Rh13  1  0.28574671  0.14287335  0.06303722  1
loop_
_geom_bond_atom_site_label_1
_geom_bond_atom_site_label_2
_geom_bond_distance
_geom_bond_site_symmetry_2
Cd0 Cd2 3.141472 1_555
Cd0 Cd5 3.141472 1_445
Cd0 Cd3 3.141472 1_545
Cd0 Sm19 3.354128 1_455
Cd0 Sm18 3.354128 1_445
Cd0 Sm21 3.354128 1_555
Cd0 Sm38 3.523253 1_445
Cd0 Sm41 3.523253 1_555
Cd0 Sm39 3.523253 1_455
Cd0 Sm0 3.620033 1_555
Cd0 Sm3 3.620033 1_445
Cd0 Sm1 3.620033 1_545
Cd1 Cd7 3.141472 1_555
Cd1 Cd4 3.141472 1_445
Cd1 Cd6 3.141472 1_455
Cd1 Sm22 3.354128 1_545
Cd1 Sm23 3.354128 1_445
Cd1 Sm20 3.354128 1_555
Cd1 Sm40 3.523253 1_555
Cd1 Sm43 3.523253 1_445
Cd1 Sm42 3.523253 1_545
Cd1 Sm2 3.620033 1_445
Cd1 Sm5 3.620033 1_555
Cd1 Sm4 3.620033 1_455
Cd2 Cd5 3.195577 1_445
Cd2 Cd3 3.195577 1_545
Cd2 Sm12 3.316052 1_555
Cd2 Sm25 3.360755 1_555
Cd2 Sm27 3.360755 1_555
Cd2 Sm30 3.483020 1_555
Cd2 Sm41 3.490358 1_555
Cd2 Sm39 3.490358 1_455
Cd2 Sm7 3.597775 1_455
Cd2 Sm9 3.597775 1_555
Cd2 Sm0 3.621908 1_555
Cd3 Cd5 3.195577 1_455
Cd3 Sm13 3.316052 1_555
Cd3 Sm27 3.360755 1_555
Cd3 Sm24 3.360755 1_555
Cd3 Sm30 3.483020 1_565
Cd3 Sm41 3.490358 1_565
Cd3 Sm38 3.490358 1_455
Cd3 Sm9 3.597775 1_565
Cd3 Sm6 3.597775 1_455
Cd3 Sm1 3.621908 1_555
Cd4 Cd7 3.195577 1_665
Cd4 Cd6 3.195577 1_565
Cd4 Sm14 3.316052 1_555
Cd4 Sm28 3.360755 1_555
Cd4 Sm29 3.360755 1_555
Cd4 Sm31 3.483020 1_665
Cd4 Sm43 3.490358 1_555
Cd4 Sm42 3.490358 1_655
Cd4 Sm10 3.597775 1_655
Cd4 Sm11 3.597775 1_555
Cd4 Sm2 3.621908 1_555
Cd5 Sm15 3.316052 1_555
Cd5 Sm25 3.360755 1_555
Cd5 Sm24 3.360755 1_555
Cd5 Sm30 3.483020 1_665
Cd5 Sm38 3.490358 1_555
Cd5 Sm39 3.490358 1_565
Cd5 Sm7 3.597775 1_565
Cd5 Sm6 3.597775 1_555
Cd5 Sm3 3.621908 1_555
Cd6 Cd7 3.195577 1_655
Cd6 Sm16 3.316052 1_555
Cd6 Sm29 3.360755 1_555
Cd6 Sm26 3.360755 1_555
Cd6 Sm31 3.483020 1_655
Cd6 Sm43 3.490358 1_545
Cd6 Sm40 3.490358 1_655
Cd6 Sm8 3.597775 1_655
Cd6 Sm11 3.597775 1_545
Cd6 Sm4 3.621908 1_555
Cd7 Sm17 3.316052 1_555
Cd7 Sm28 3.360755 1_555
Cd7 Sm26 3.360755 1_555
Cd7 Sm31 3.483020 1_555
Cd7 Sm40 3.490358 1_555
Cd7 Sm42 3.490358 1_545
Cd7 Sm10 3.597775 1_545
Cd7 Sm8 3.597775 1_555
Cd7 Sm5 3.621908 1_555
Rh0 Sm1 2.856551 1_545
Rh0 Sm3 2.856551 1_545
Rh0 Sm39 2.886727 1_555
Rh0 Sm41 2.886727 1_555
Rh0 Sm44 2.888064 1_555
Rh0 Sm32 2.995179 1_545
Rh0 Sm24 3.448926 1_545
Rh0 Sm21 3.555833 1_555
Rh0 Sm19 3.555833 1_555
Rh1 Sm0 2.856551 1_555
Rh1 Sm3 2.856551 1_555
Rh1 Sm41 2.886727 1_555
Rh1 Sm38 2.886727 1_555
Rh1 Sm44 2.888072 1_555
Rh1 Sm33 2.995179 1_555
Rh1 Sm25 3.448926 1_555
Rh1 Sm18 3.555832 1_555
Rh1 Sm21 3.555832 1_555
Rh2 Sm4 2.856551 1_565
Rh2 Sm5 2.856551 1_565
Rh2 Sm42 2.886727 1_555
Rh2 Sm43 2.886727 1_555
Rh2 Sm45 2.888064 1_555
Rh2 Sm34 2.995179 1_565
Rh2 Sm26 3.448926 1_565
Rh2 Sm23 3.555833 1_555
Rh2 Sm22 3.555833 1_555
Rh3 Sm1 2.856551 1_655
Rh3 Sm0 2.856551 1_655
Rh3 Sm39 2.886727 1_555
Rh3 Sm38 2.886727 1_555
Rh3 Sm44 2.888064 1_555
Rh3 Sm35 2.995179 1_655
Rh3 Sm27 3.448926 1_655
Rh3 Sm18 3.555833 1_555
Rh3 Sm19 3.555833 1_555
Rh4 Sm2 2.856551 1_555
Rh4 Sm5 2.856551 1_555
Rh4 Sm40 2.886727 1_555
Rh4 Sm43 2.886727 1_555
Rh4 Sm45 2.888072 1_555
Rh4 Sm36 2.995179 1_555
Rh4 Sm28 3.448926 1_555
Rh4 Sm23 3.555832 1_555
Rh4 Sm20 3.555832 1_555
Rh5 Sm4 2.856551 1_455
Rh5 Sm2 2.856551 1_455
Rh5 Sm42 2.886727 1_555
Rh5 Sm40 2.886727 1_555
Rh5 Sm45 2.888064 1_555
Rh5 Sm37 2.995179 1_455
Rh5 Sm29 3.448926 1_455
Rh5 Sm20 3.555833 1_555
Rh5 Sm22 3.555833 1_555
Rh6 Sm7 2.857692 1_555
Rh6 Sm6 2.857698 1_555
Rh6 Sm9 2.857698 1_555
Rh6 Sm39 2.884713 1_555
Rh6 Sm41 2.884720 1_555
Rh6 Sm38 2.884720 1_555
Rh6 Sm24 3.569367 1_545
Rh6 Sm27 3.569367 1_655
Rh6 Sm25 3.569375 1_555
Rh7 Sm10 2.857692 1_555
Rh7 Sm8 2.857698 1_555
Rh7 Sm11 2.857698 1_555
Rh7 Sm42 2.884713 1_555
Rh7 Sm40 2.884720 1_555
Rh7 Sm43 2.884720 1_555
Rh7 Sm26 3.569367 1_565
Rh7 Sm29 3.569367 1_455
Rh7 Sm28 3.569375 1_555
Rh8 Sm8 2.828207 1_555
Rh8 Sm19 2.839063 1_455
Rh8 Sm21 2.839063 1_555
Rh8 Sm31 2.872164 1_555
Rh8 Sm33 2.918491 1_555
Rh8 Sm35 2.918491 1_555
Rh8 Sm16 3.580845 1_455
Rh8 Sm17 3.580845 1_555
Rh9 Sm10 2.828207 1_555
Rh9 Sm18 2.839063 1_455
Rh9 Sm21 2.839063 1_565
Rh9 Sm31 2.872164 1_565
Rh9 Sm35 2.918491 1_555
Rh9 Sm32 2.918491 1_555
Rh9 Sm14 3.580845 1_455
Rh9 Sm17 3.580845 1_565
Rh10 Sm6 2.828207 1_554
Rh10 Sm22 2.839063 1_655
Rh10 Sm23 2.839063 1_555
Rh10 Sm30 2.872164 1_664
Rh10 Sm36 2.918491 1_555
Rh10 Sm37 2.918491 1_555
Rh10 Sm13 3.580845 1_654
Rh10 Sm15 3.580845 1_554
Rh11 Sm11 2.828207 1_555
Rh11 Sm19 2.839063 1_565
Rh11 Sm18 2.839063 1_555
Rh11 Sm31 2.872164 1_665
Rh11 Sm33 2.918491 1_555
Rh11 Sm32 2.918491 1_555
Rh11 Sm16 3.580845 1_565
Rh11 Sm14 3.580845 1_555
Rh12 Sm7 2.828207 1_554
Rh12 Sm23 2.839063 1_545
Rh12 Sm20 2.839063 1_655
Rh12 Sm30 2.872164 1_654
Rh12 Sm37 2.918491 1_555
Rh12 Sm34 2.918491 1_555
Rh12 Sm15 3.580845 1_544
Rh12 Sm12 3.580845 1_654
Rh13 Sm9 2.828207 1_554
Rh13 Sm22 2.839063 1_545
Rh13 Sm20 2.839063 1_555
Rh13 Sm30 2.872164 1_554
Rh13 Sm36 2.918491 1_555
Rh13 Sm34 2.918491 1_555
Rh13 Sm13 3.580845 1_544
Rh13 Sm12 3.580845 1_554
