# generated using pymatgen
data_La9ErO15
_symmetry_space_group_name_H-M   'P 1'
_cell_length_a   6.79007300
_cell_length_b   7.30229191
_cell_length_c   9.97186254
_cell_angle_alpha   108.05814471
_cell_angle_beta   89.99890256
_cell_angle_gamma   117.70419786
_symmetry_Int_Tables_number   1
_chemical_formula_structural   La9ErO15
_chemical_formula_sum   'La9 Er1 O15'
_cell_volume   410.04746971
_cell_formula_units_Z   1
loop_
 _symmetry_equiv_pos_site_id
 _symmetry_equiv_pos_as_xyz
  1  'x, y, z'
loop_
 _atom_site_type_symbol
 _atom_site_label
 _atom_site_symmetry_multiplicity
 _atom_site_fract_x
 _atom_site_fract_y
 _atom_site_fract_z
 _atom_site_occupancy
  La  La0  1  0.23065100  0.24641000  0.54873000  1
  La  La1  1  0.03319400  0.24785900  0.15278000  1
  La  La2  1  0.83079100  0.24726400  0.74761500  1
  La  La3  1  0.43312800  0.24660800  0.95301700  1
  La  La4  1  0.37035700  0.75812000  0.64653600  1
  La  La5  1  0.56958200  0.75243400  0.05061500  1
  La  La6  1  0.17005900  0.75705500  0.25065700  1
  La  La7  1  0.96855900  0.75366100  0.84913000  1
  La  La8  1  0.76598600  0.75655800  0.44758200  1
  Er  Er0  1  0.64029400  0.26658400  0.34695500  1
  O  O0  1  0.99996400  0.99979400  0.00115800  1
  O  O1  1  0.99146300  0.34838600  0.33035600  1
  O  O2  1  0.39996700  0.00040400  0.79974700  1
  O  O3  1  0.59108900  0.64546100  0.87172100  1
  O  O4  1  0.60817600  0.34862300  0.52086800  1
  O  O5  1  0.20829000  0.35270400  0.72949400  1
  O  O6  1  0.19240700  0.64446500  0.07182200  1
  O  O7  1  0.20600400  0.00078000  0.39900400  1
  O  O8  1  0.78862300  0.63780800  0.27252900  1
  O  O9  1  0.39003500  0.64008600  0.47118500  1
  O  O10  1  0.80880700  0.35366200  0.92947000  1
  O  O11  1  0.41772000  0.34906200  0.13946100  1
  O  O12  1  0.79437800  0.00027800  0.59574300  1
  O  O13  1  0.98994500  0.64595900  0.66996700  1
  O  O14  1  0.60013100  0.99997300  0.20406100  1
loop_
_geom_bond_atom_site_label_1
_geom_bond_atom_site_label_2
_geom_bond_distance
_geom_bond_site_symmetry_2
La0 O5 1.765471 1_555
La0 O7 1.880171 1_555
La0 O4 2.356892 1_555
La1 O1 1.772646 1_455
La1 O0 1.881555 1_445
La1 O11 2.376472 1_555
La2 O10 1.774487 1_555
La2 O12 1.870705 1_555
La2 O5 2.333856 1_655
La3 O11 1.799362 1_556
La3 O2 1.881225 1_555
La3 O10 2.330855 1_555
La4 O9 1.729446 1_555
La4 O2 1.870361 1_565
La4 O13 2.355620 1_455
La5 O3 1.748137 1_554
La5 O14 1.894311 1_555
La5 O6 2.334773 1_555
La6 O6 1.756763 1_555
La6 O7 1.838285 1_565
La6 O8 2.352558 1_455
La7 O13 1.751169 1_555
La7 O0 1.878440 1_556
La7 O3 2.339148 1_555
La8 O8 1.734413 1_555
La8 O12 1.854245 1_565
La8 O9 2.323910 1_555
Er0 O4 1.700408 1_555
Er0 O14 1.918739 1_545
Er0 O1 2.192440 1_555
