# generated using pymatgen
data_Na3FeO4
_symmetry_space_group_name_H-M   'P 1'
_cell_length_a   5.52930205
_cell_length_b   14.62248772
_cell_length_c   6.07053093
_cell_angle_alpha   92.88758989
_cell_angle_beta   90.00443748
_cell_angle_gamma   89.98580309
_symmetry_Int_Tables_number   1
_chemical_formula_structural   Na3FeO4
_chemical_formula_sum   'Na12 Fe4 O16'
_cell_volume   490.19227655
_cell_formula_units_Z   4
loop_
 _symmetry_equiv_pos_site_id
 _symmetry_equiv_pos_as_xyz
  1  'x, y, z'
loop_
 _atom_site_type_symbol
 _atom_site_label
 _atom_site_symmetry_multiplicity
 _atom_site_fract_x
 _atom_site_fract_y
 _atom_site_fract_z
 _atom_site_occupancy
  Na  Na0  1  0.48174000  0.99797000  0.14817100  1
  Na  Na1  1  0.48165600  0.49794800  0.14829700  1
  Na  Na2  1  0.98166300  0.25208900  0.85179800  1
  Na  Na3  1  0.98172200  0.75205500  0.85164000  1
  Na  Na4  1  0.99487500  0.12031600  0.32206900  1
  Na  Na5  1  0.99484600  0.62032000  0.32204600  1
  Na  Na6  1  0.49494700  0.12973000  0.67793200  1
  Na  Na7  1  0.49490400  0.62960800  0.67794900  1
  Na  Na8  1  0.48022900  0.37246900  0.67656500  1
  Na  Na9  1  0.48034500  0.87250300  0.67657600  1
  Na  Na10  1  0.98013600  0.37751600  0.32347800  1
  Na  Na11  1  0.98024300  0.87751900  0.32330100  1
  Fe  Fe0  1  0.99821100  0.50037000  0.81976800  1
  Fe  Fe1  1  0.49824600  0.74953800  0.18043700  1
  Fe  Fe2  1  0.99828000  0.00046800  0.81954000  1
  Fe  Fe3  1  0.49824100  0.24960700  0.18036900  1
  O  O0  1  0.90385700  0.99366500  0.09273100  1
  O  O1  1  0.90376100  0.49360300  0.09303100  1
  O  O2  1  0.40386100  0.25635500  0.90711500  1
  O  O3  1  0.40385800  0.75636800  0.90717600  1
  O  O4  1  0.31033100  0.00637800  0.80247000  1
  O  O5  1  0.31014300  0.50631700  0.80257900  1
  O  O6  1  0.81023400  0.24367400  0.19746200  1
  O  O7  1  0.81026200  0.74365300  0.19745300  1
  O  O8  1  0.91715800  0.10081100  0.69043600  1
  O  O9  1  0.91690800  0.60073700  0.69066900  1
  O  O10  1  0.41725000  0.14922700  0.30949800  1
  O  O11  1  0.41701300  0.64920000  0.30963700  1
  O  O12  1  0.39846000  0.35461900  0.29904000  1
  O  O13  1  0.39853400  0.85453000  0.29899700  1
  O  O14  1  0.89846000  0.39542400  0.70098800  1
  O  O15  1  0.89855600  0.89540800  0.70078300  1
loop_
_geom_bond_atom_site_label_1
_geom_bond_atom_site_label_2
_geom_bond_distance
_geom_bond_site_symmetry_2
Na0 O4 2.311513 1_564
Na0 O0 2.358550 1_555
Na0 O13 2.375564 1_555
Na0 O10 2.399904 1_565
Na1 O5 2.311786 1_554
Na1 O1 2.358346 1_555
Na1 O12 2.373872 1_555
Na1 O11 2.399993 1_555
Na2 O6 2.311522 1_556
Na2 O2 2.358856 1_655
Na2 O14 2.373905 1_555
Na2 O8 2.400410 1_555
Na3 O7 2.312397 1_556
Na3 O3 2.358718 1_655
Na3 O15 2.374225 1_555
Na3 O9 2.400335 1_555
Na4 O6 2.237104 1_555
Na4 O8 2.308894 1_555
Na4 O0 2.315560 1_545
Na4 O10 2.375412 1_655
Na5 O7 2.236627 1_555
Na5 O9 2.310833 1_555
Na5 O1 2.315284 1_555
Na5 O11 2.374160 1_655
Na6 O4 2.237272 1_555
Na6 O10 2.309159 1_555
Na6 O2 2.314669 1_555
Na6 O8 2.374308 1_555
Na7 O5 2.237115 1_555
Na7 O11 2.308876 1_555
Na7 O3 2.316290 1_555
Na7 O9 2.373110 1_555
Na8 O5 2.269050 1_555
Na8 O2 2.293408 1_555
Na8 O12 2.337609 1_555
Na8 O14 2.340457 1_555
Na9 O4 2.269005 1_565
Na9 O3 2.293963 1_555
Na9 O13 2.338086 1_555
Na9 O15 2.340172 1_555
Na10 O6 2.268911 1_555
Na10 O1 2.292511 1_555
Na10 O14 2.337518 1_555
Na10 O12 2.340710 1_655
Na11 O7 2.269089 1_555
Na11 O0 2.293671 1_555
Na11 O15 2.337346 1_555
Na11 O13 2.340673 1_655
Fe0 O5 1.730400 1_655
Fe0 O1 1.746715 1_556
Fe0 O14 1.751547 1_555
Fe0 O9 1.756609 1_555
Fe1 O7 1.730691 1_555
Fe1 O3 1.746606 1_554
Fe1 O13 1.751360 1_555
Fe1 O11 1.756663 1_555
Fe2 O4 1.730982 1_655
Fe2 O0 1.746310 1_546
Fe2 O15 1.752875 1_545
Fe2 O8 1.756067 1_555
Fe3 O6 1.730630 1_555
Fe3 O2 1.746427 1_554
Fe3 O12 1.751978 1_555
Fe3 O10 1.756637 1_555
