# generated using pymatgen
data_Eu2NbBiO6
_symmetry_space_group_name_H-M   'P 1'
_cell_length_a   8.52339371
_cell_length_b   8.52339371
_cell_length_c   8.52339371
_cell_angle_alpha   90.00000000
_cell_angle_beta   90.00000000
_cell_angle_gamma   90.00000000
_symmetry_Int_Tables_number   1
_chemical_formula_structural   Eu2NbBiO6
_chemical_formula_sum   'Eu8 Nb4 Bi4 O24'
_cell_volume   619.20955472
_cell_formula_units_Z   4
loop_
 _symmetry_equiv_pos_site_id
 _symmetry_equiv_pos_as_xyz
  1  'x, y, z'
loop_
 _atom_site_type_symbol
 _atom_site_label
 _atom_site_symmetry_multiplicity
 _atom_site_fract_x
 _atom_site_fract_y
 _atom_site_fract_z
 _atom_site_occupancy
  Eu  Eu0  1  0.50000000  0.50000000  0.50000000  1
  Eu  Eu1  1  -0.00000000  0.00000000  -0.00000000  1
  Eu  Eu2  1  -0.00000000  0.00000000  0.50000000  1
  Eu  Eu3  1  -0.00000000  0.50000000  -0.00000000  1
  Eu  Eu4  1  0.50000000  0.00000000  -0.00000000  1
  Eu  Eu5  1  0.50000000  0.50000000  -0.00000000  1
  Eu  Eu6  1  0.50000000  0.00000000  0.50000000  1
  Eu  Eu7  1  -0.00000000  0.50000000  0.50000000  1
  Nb  Nb0  1  0.25000000  0.25000000  0.25000000  1
  Nb  Nb1  1  0.25000000  0.75000000  0.75000000  1
  Nb  Nb2  1  0.75000000  0.25000000  0.75000000  1
  Nb  Nb3  1  0.75000000  0.75000000  0.25000000  1
  Bi  Bi0  1  0.75000000  0.75000000  0.75000000  1
  Bi  Bi1  1  0.75000000  0.25000000  0.25000000  1
  Bi  Bi2  1  0.25000000  0.75000000  0.25000000  1
  Bi  Bi3  1  0.25000000  0.25000000  0.75000000  1
  O  O0  1  0.20990095  0.29845441  0.48046827  1
  O  O1  1  0.20990095  0.70154559  0.51953173  1
  O  O2  1  0.79009905  0.29845441  0.51953173  1
  O  O3  1  0.79009905  0.70154559  0.48046827  1
  O  O4  1  0.29845441  0.48046827  0.20990095  1
  O  O5  1  0.70154559  0.51953173  0.20990095  1
  O  O6  1  0.29845441  0.51953173  0.79009905  1
  O  O7  1  0.70154559  0.48046827  0.79009905  1
  O  O8  1  0.48046827  0.20990095  0.29845441  1
  O  O9  1  0.51953173  0.20990095  0.70154559  1
  O  O10  1  0.51953173  0.79009905  0.29845441  1
  O  O11  1  0.48046827  0.79009905  0.70154559  1
  O  O12  1  0.29009905  0.20154559  0.01953173  1
  O  O13  1  0.29009905  0.79845441  0.98046827  1
  O  O14  1  0.70990095  0.20154559  0.98046827  1
  O  O15  1  0.70990095  0.79845441  0.01953173  1
  O  O16  1  0.20154559  0.01953173  0.29009905  1
  O  O17  1  0.79845441  0.98046827  0.29009905  1
  O  O18  1  0.20154559  0.98046827  0.70990095  1
  O  O19  1  0.79845441  0.01953173  0.70990095  1
  O  O20  1  0.01953173  0.29009905  0.20154559  1
  O  O21  1  0.98046827  0.29009905  0.79845441  1
  O  O22  1  0.98046827  0.70990095  0.20154559  1
  O  O23  1  0.01953173  0.70990095  0.79845441  1
loop_
_geom_bond_atom_site_label_1
_geom_bond_atom_site_label_2
_geom_bond_distance
_geom_bond_site_symmetry_2
Eu0 O6 3.015398 1_555
Eu0 O8 3.015398 1_555
Eu0 O0 3.015398 1_555
Eu0 O10 3.015398 1_555
Eu0 O2 3.015398 1_555
Eu0 O4 3.015398 1_555
Eu0 O3 3.015398 1_555
Eu0 O1 3.015398 1_555
Eu0 O11 3.015398 1_555
Eu0 O5 3.015398 1_555
Eu0 O7 3.015398 1_555
Eu0 O9 3.015398 1_555
Eu1 O17 3.015398 1_445
Eu1 O14 3.015398 1_454
Eu1 O22 3.015398 1_445
Eu1 O23 3.015398 1_544
Eu1 O19 3.015398 1_454
Eu1 O21 3.015398 1_454
Eu1 O15 3.015398 1_445
Eu1 O12 3.015398 1_555
Eu1 O16 3.015398 1_555
Eu1 O18 3.015398 1_544
Eu1 O20 3.015398 1_555
Eu1 O13 3.015398 1_544
Eu2 O19 2.485859 1_455
Eu2 O18 2.485859 1_545
Eu2 O17 2.485859 1_445
Eu2 O16 2.485859 1_555
Eu3 O23 2.485859 1_554
Eu3 O21 2.485859 1_454
Eu3 O20 2.485859 1_555
Eu3 O22 2.485859 1_455
Eu4 O13 2.485859 1_544
Eu4 O14 2.485859 1_554
Eu4 O15 2.485859 1_545
Eu4 O12 2.485859 1_555
Eu5 O6 2.485859 1_554
Eu5 O7 2.485859 1_554
Eu5 O5 2.485859 1_555
Eu5 O4 2.485859 1_555
Eu6 O10 2.485859 1_545
Eu6 O9 2.485859 1_555
Eu6 O8 2.485859 1_555
Eu6 O11 2.485859 1_545
Eu7 O2 2.485859 1_455
Eu7 O0 2.485859 1_555
Eu7 O1 2.485859 1_555
Eu7 O3 2.485859 1_455
Nb0 O12 2.036206 1_555
Nb0 O20 2.036206 1_555
Nb0 O4 2.036206 1_555
Nb0 O8 2.036206 1_555
Nb0 O0 2.036206 1_555
Nb0 O16 2.036206 1_555
Nb1 O11 2.036206 1_555
Nb1 O18 2.036206 1_555
Nb1 O6 2.036206 1_555
Nb1 O13 2.036206 1_555
Nb1 O23 2.036206 1_555
Nb1 O1 2.036206 1_555
Nb2 O21 2.036206 1_555
Nb2 O14 2.036206 1_555
Nb2 O7 2.036206 1_555
Nb2 O19 2.036206 1_555
Nb2 O9 2.036206 1_555
Nb2 O2 2.036206 1_555
Nb3 O15 2.036206 1_555
Nb3 O5 2.036206 1_555
Nb3 O22 2.036206 1_555
Nb3 O10 2.036206 1_555
Nb3 O3 2.036206 1_555
Nb3 O17 2.036206 1_555
Bi0 O7 2.359043 1_555
Bi0 O3 2.359043 1_555
Bi0 O11 2.359043 1_555
Bi0 O23 2.359043 1_655
Bi0 O15 2.359043 1_556
Bi0 O19 2.359043 1_565
Bi1 O5 2.359043 1_555
Bi1 O20 2.359043 1_655
Bi1 O2 2.359043 1_555
Bi1 O14 2.359043 1_554
Bi1 O8 2.359043 1_555
Bi1 O17 2.359043 1_545
Bi2 O22 2.359043 1_455
Bi2 O10 2.359043 1_555
Bi2 O4 2.359043 1_555
Bi2 O1 2.359043 1_555
Bi2 O16 2.359043 1_565
Bi2 O13 2.359043 1_554
Bi3 O9 2.359043 1_555
Bi3 O0 2.359043 1_555
Bi3 O18 2.359043 1_545
Bi3 O6 2.359043 1_555
Bi3 O12 2.359043 1_556
Bi3 O21 2.359043 1_455
