# generated using pymatgen
data_Yb2TiO5
_symmetry_space_group_name_H-M   'P 1'
_cell_length_a   7.40521759
_cell_length_b   7.40521759
_cell_length_c   18.07763683
_cell_angle_alpha   86.47847236
_cell_angle_beta   86.47847236
_cell_angle_gamma   59.17108193
_symmetry_Int_Tables_number   1
_chemical_formula_structural   Yb2TiO5
_chemical_formula_sum   'Yb16 Ti8 O40'
_cell_volume   849.12846137
_cell_formula_units_Z   8
loop_
 _symmetry_equiv_pos_site_id
 _symmetry_equiv_pos_as_xyz
  1  'x, y, z'
loop_
 _atom_site_type_symbol
 _atom_site_label
 _atom_site_symmetry_multiplicity
 _atom_site_fract_x
 _atom_site_fract_y
 _atom_site_fract_z
 _atom_site_occupancy
  Yb  Yb0  1  0.98333800  0.98333800  0.00179800  1
  Yb  Yb1  1  0.14161400  0.14161400  0.16966400  1
  Yb  Yb2  1  0.99438900  0.48316200  0.98920700  1
  Yb  Yb3  1  0.35769900  0.35769900  0.34024600  1
  Yb  Yb4  1  0.65892900  0.14462600  0.16646900  1
  Yb  Yb5  1  0.14462600  0.65892900  0.16646900  1
  Yb  Yb6  1  0.52476600  0.52476600  0.50439200  1
  Yb  Yb7  1  0.31778700  0.87808800  0.34039800  1
  Yb  Yb8  1  0.03777100  0.51571300  0.50441100  1
  Yb  Yb9  1  0.48316200  0.99438900  0.98920700  1
  Yb  Yb10  1  0.51571300  0.03777100  0.50441100  1
  Yb  Yb11  1  0.15782800  0.68628500  0.67381000  1
  Yb  Yb12  1  0.68628500  0.15782800  0.67381000  1
  Yb  Yb13  1  0.30669200  0.82196400  0.83892400  1
  Yb  Yb14  1  0.87808800  0.31778700  0.34039800  1
  Yb  Yb15  1  0.82196400  0.30669200  0.83892400  1
  Ti  Ti0  1  0.49007800  0.49007800  0.97764100  1
  Ti  Ti1  1  0.69886200  0.69886200  0.65576400  1
  Ti  Ti2  1  0.66684500  0.66684500  0.16831400  1
  Ti  Ti3  1  0.84701000  0.84701000  0.82077100  1
  Ti  Ti4  1  0.77571000  0.77571000  0.32658700  1
  Ti  Ti5  1  0.04819400  0.04819400  0.53916600  1
  Ti  Ti6  1  0.20239100  0.20239100  0.66795100  1
  Ti  Ti7  1  0.32410500  0.32410500  0.81601400  1
  O  O0  1  0.29864000  0.29864000  0.23005200  1
  O  O1  1  0.60052800  0.20901400  0.03050200  1
  O  O2  1  0.78199400  0.38666900  0.19668400  1
  O  O3  1  0.20901400  0.60052800  0.03050200  1
  O  O4  1  0.04511100  0.44927900  0.11201800  1
  O  O5  1  0.62859400  0.62859400  0.32611300  1
  O  O6  1  0.98508600  0.54267600  0.37637400  1
  O  O7  1  0.68497800  0.68497800  0.55508600  1
  O  O8  1  0.38666900  0.78199400  0.19668400  1
  O  O9  1  0.69775500  0.69775500  0.06572100  1
  O  O10  1  0.44927900  0.04511100  0.11201800  1
  O  O11  1  0.16220500  0.71627200  0.29485200  1
  O  O12  1  0.14991800  0.74199300  0.54845000  1
  O  O13  1  0.79275400  0.79275400  0.21916200  1
  O  O14  1  0.54267600  0.98508600  0.37637400  1
  O  O15  1  0.96244300  0.96244300  0.87634900  1
  O  O16  1  0.04561100  0.04561100  0.65244800  1
  O  O17  1  0.27846700  0.87814300  0.46463100  1
  O  O18  1  0.47298800  0.67804400  0.71363900  1
  O  O19  1  0.71627200  0.16220500  0.29485200  1
  O  O20  1  0.99015000  0.99015000  0.12192400  1
  O  O21  1  0.74199300  0.14991800  0.54845000  1
  O  O22  1  0.95453800  0.95453800  0.32219600  1
  O  O23  1  0.62249700  0.82587100  0.87511800  1
  O  O24  1  0.49245500  0.00083400  0.64016100  1
  O  O25  1  0.87814300  0.27846700  0.46463100  1
  O  O26  1  0.17035500  0.17035500  0.77410100  1
  O  O27  1  0.19135800  0.19135800  0.55298700  1
  O  O28  1  0.67804400  0.47298800  0.71363900  1
  O  O29  1  0.24605200  0.24605200  0.90665700  1
  O  O30  1  0.62446200  0.14685200  0.80074700  1
  O  O31  1  0.00083400  0.49245500  0.64016100  1
  O  O32  1  0.82587100  0.62249700  0.87511800  1
  O  O33  1  0.37436600  0.37436600  0.45596600  1
  O  O34  1  0.34549200  0.34549200  0.70119800  1
  O  O35  1  0.79444800  0.34530300  0.96893600  1
  O  O36  1  0.14685200  0.62446200  0.80074700  1
  O  O37  1  0.46888600  0.46888600  0.88035500  1
  O  O38  1  0.34530300  0.79444800  0.96893600  1
  O  O39  1  0.81973800  0.81973800  0.71737600  1
loop_
_geom_bond_atom_site_label_1
_geom_bond_atom_site_label_2
_geom_bond_distance
_geom_bond_site_symmetry_2
O0 Yb3 2.181946 1_555
O0 Yb1 2.365115 1_555
O0 Yb4 2.530959 1_555
O0 Yb5 2.530959 1_555
O1 Ti0 2.005239 1_554
O1 Yb9 2.340926 1_544
O1 Yb0 2.483608 1_545
O1 Yb4 2.496240 1_555
O2 Ti2 1.845123 1_555
O2 Yb1 2.370542 1_655
O2 Yb4 2.489399 1_555
O2 Yb14 2.684864 1_555
O3 Ti0 2.005239 1_554
O3 Yb2 2.340926 1_454
O3 Yb0 2.483608 1_455
O3 Yb5 2.496240 1_555
O4 Yb1 2.217764 1_555
O4 Yb2 2.251764 1_454
O4 Yb5 2.317704 1_555
O4 Ti2 2.589102 1_455
O5 Ti4 1.895397 1_555
O5 Yb14 2.098726 1_555
O5 Yb7 2.098726 1_555
O6 Ti4 1.852085 1_555
O6 Yb14 2.317971 1_555
O6 Yb8 2.350277 1_655
O6 Yb3 2.435380 1_655
O7 Ti1 1.841311 1_555
O7 Yb6 2.316196 1_555
O7 Yb8 2.392957 1_655
O7 Yb10 2.392957 1_565
O8 Ti2 1.845123 1_555
O8 Yb1 2.370542 1_565
O8 Yb5 2.489399 1_555
O8 Yb7 2.684864 1_555
O9 Ti2 1.869190 1_555
O9 Yb9 2.362769 1_554
O9 Yb2 2.362769 1_554
O10 Yb1 2.217764 1_555
O10 Yb9 2.251764 1_544
O10 Yb4 2.317704 1_555
O10 Ti2 2.589102 1_545
O11 O22 1.719038 1_455
O11 Yb7 2.256975 1_555
O11 Yb3 2.399617 1_555
O11 Yb5 2.408008 1_555
O12 Ti5 1.988766 1_565
O12 Yb11 2.277284 1_555
O12 Yb8 2.408883 1_555
O12 Yb6 2.497272 1_555
O13 Ti2 1.919696 1_555
O13 Ti4 1.938889 1_555
O13 Yb5 2.417323 1_655
O13 Yb4 2.417323 1_565
O14 Ti4 1.852085 1_555
O14 Yb7 2.317971 1_555
O14 Yb10 2.350277 1_565
O14 Yb3 2.435380 1_565
O15 Ti3 1.852238 1_555
O15 Yb15 2.279259 1_565
O15 Yb13 2.279259 1_655
O15 Yb0 2.302532 1_556
O16 Ti5 2.045790 1_555
O16 Ti6 2.058109 1_555
O16 Yb11 2.359415 1_545
O16 Yb12 2.359415 1_455
O17 Ti5 2.008566 1_565
O17 Yb7 2.246827 1_555
O17 Yb6 2.393559 1_555
O17 Yb10 2.718310 1_565
O18 O28 1.499420 1_555
O18 Ti1 1.986362 1_555
O18 Yb11 2.454374 1_555
O18 Yb13 2.527967 1_555
O19 O22 1.719038 1_545
O19 Yb14 2.256975 1_555
O19 Yb3 2.399617 1_555
O19 Yb4 2.408008 1_555
O20 Yb0 2.179549 1_555
O20 Yb1 2.188186 1_665
O20 Yb5 2.228857 1_655
O20 Yb4 2.228857 1_565
O21 Ti5 1.988766 1_655
O21 Yb12 2.277284 1_555
O21 Yb10 2.408883 1_555
O21 Yb6 2.497272 1_555
O22 Ti4 2.298962 1_555
O22 Yb7 2.487879 1_655
O22 Yb14 2.487879 1_565
O23 O32 1.487120 1_555
O23 Ti3 1.949633 1_555
O23 Yb9 2.368685 1_555
O23 Yb13 2.481465 1_555
O24 Ti6 1.941013 1_555
O24 Ti1 1.971933 1_545
O24 Yb12 2.384601 1_555
O24 Yb10 2.457782 1_555
O25 Ti5 2.008566 1_655
O25 Yb14 2.246827 1_555
O25 Yb6 2.393559 1_555
O25 Yb8 2.718310 1_655
O26 Ti6 1.934097 1_555
O26 Ti7 2.169630 1_555
O26 Yb13 2.480469 1_545
O26 Yb15 2.480469 1_455
O27 Ti5 1.878130 1_555
O27 Ti6 2.093119 1_555
O27 Yb10 2.213030 1_555
O27 Yb8 2.213030 1_555
O28 Ti1 1.986362 1_555
O28 Yb12 2.454374 1_555
O28 Yb15 2.527967 1_555
O29 Ti7 1.860896 1_555
O29 Yb2 2.325818 1_455
O29 Yb9 2.325818 1_545
O30 Ti7 1.929492 1_555
O30 Ti3 2.000285 1_545
O30 Yb12 2.316919 1_555
O30 Yb15 2.452563 1_555
O31 Ti6 1.941013 1_555
O31 Ti1 1.971933 1_455
O31 Yb11 2.384601 1_555
O31 Yb8 2.457782 1_555
O32 Ti3 1.949633 1_555
O32 Yb2 2.368685 1_555
O32 Yb15 2.481465 1_555
O33 Yb3 2.117958 1_555
O33 Yb6 2.181321 1_555
O33 Yb8 2.290369 1_555
O33 Yb10 2.290369 1_555
O34 Ti6 1.978533 1_555
O34 Ti7 2.074423 1_555
O34 Yb11 2.209433 1_555
O34 Yb12 2.209433 1_555
O35 Ti0 1.937723 1_555
O35 Yb2 2.242881 1_555
O35 Yb0 2.357495 1_546
O35 Yb15 2.368805 1_555
O36 Ti7 1.929492 1_555
O36 Ti3 2.000285 1_455
O36 Yb11 2.316919 1_555
O36 Yb13 2.452563 1_555
O37 Ti0 1.798704 1_555
O37 Ti7 2.266356 1_555
O37 Yb13 2.343289 1_555
O37 Yb15 2.343289 1_555
O38 Ti0 1.937723 1_555
O38 Yb9 2.242881 1_555
O38 Yb0 2.357495 1_456
O38 Yb13 2.368805 1_555
O39 Ti3 1.926083 1_555
O39 Ti1 1.977163 1_555
O39 Yb11 2.276511 1_655
O39 Yb12 2.276511 1_565
