# generated using pymatgen
data_ZnFe2(P2O7)2
_symmetry_space_group_name_H-M   'P 1'
_cell_length_a   9.05586100
_cell_length_b   10.29986500
_cell_length_c   12.40989100
_cell_angle_alpha   90.00000000
_cell_angle_beta   90.00000000
_cell_angle_gamma   90.00000000
_symmetry_Int_Tables_number   1
_chemical_formula_structural   ZnFe2(P2O7)2
_chemical_formula_sum   'Zn4 Fe8 P16 O56'
_cell_volume   1157.52198198
_cell_formula_units_Z   4
loop_
 _symmetry_equiv_pos_site_id
 _symmetry_equiv_pos_as_xyz
  1  'x, y, z'
loop_
 _atom_site_type_symbol
 _atom_site_label
 _atom_site_symmetry_multiplicity
 _atom_site_fract_x
 _atom_site_fract_y
 _atom_site_fract_z
 _atom_site_occupancy
  Zn  Zn0  1  0.24562200  0.61817900  0.75000000  1
  Zn  Zn1  1  0.74562200  0.88182100  0.75000000  1
  Zn  Zn2  1  0.75437800  0.38182100  0.25000000  1
  Zn  Zn3  1  0.25437800  0.11817900  0.25000000  1
  Fe  Fe0  1  0.25115500  0.62083900  0.98926600  1
  Fe  Fe1  1  0.75115500  0.87916100  0.51073400  1
  Fe  Fe2  1  0.74884500  0.37916100  0.48926600  1
  Fe  Fe3  1  0.24884500  0.12083900  0.01073400  1
  Fe  Fe4  1  0.74884500  0.37916100  0.01073400  1
  Fe  Fe5  1  0.24884500  0.12083900  0.48926600  1
  Fe  Fe6  1  0.25115500  0.62083900  0.51073400  1
  Fe  Fe7  1  0.75115500  0.87916100  0.98926600  1
  P  P0  1  0.58600700  0.62017500  0.86690900  1
  P  P1  1  0.08600700  0.87982500  0.63309100  1
  P  P2  1  0.41399300  0.37982500  0.36690900  1
  P  P3  1  0.91399300  0.12017500  0.13309100  1
  P  P4  1  0.41399300  0.37982500  0.13309100  1
  P  P5  1  0.91399300  0.12017500  0.36690900  1
  P  P6  1  0.58600700  0.62017500  0.63309100  1
  P  P7  1  0.08600700  0.87982500  0.86690900  1
  P  P8  1  0.57303300  0.13404600  0.87281500  1
  P  P9  1  0.07303300  0.36595400  0.62718500  1
  P  P10  1  0.42696700  0.86595400  0.37281500  1
  P  P11  1  0.92696700  0.63404600  0.12718500  1
  P  P12  1  0.42696700  0.86595400  0.12718500  1
  P  P13  1  0.92696700  0.63404600  0.37281500  1
  P  P14  1  0.57303300  0.13404600  0.62718500  1
  P  P15  1  0.07303300  0.36595400  0.87281500  1
  O  O0  1  0.12952400  0.93701700  0.75000000  1
  O  O1  1  0.62952400  0.56298300  0.75000000  1
  O  O2  1  0.87047600  0.06298300  0.25000000  1
  O  O3  1  0.37047600  0.43701700  0.25000000  1
  O  O4  1  0.04773900  0.31989300  0.75000000  1
  O  O5  1  0.54773900  0.18010700  0.75000000  1
  O  O6  1  0.95226100  0.68010700  0.25000000  1
  O  O7  1  0.45226100  0.81989300  0.25000000  1
  O  O8  1  0.92130200  0.39120500  0.57967900  1
  O  O9  1  0.42130200  0.10879500  0.92032100  1
  O  O10  1  0.07869800  0.60879500  0.07967900  1
  O  O11  1  0.57869800  0.89120500  0.42032100  1
  O  O12  1  0.07869800  0.60879500  0.42032100  1
  O  O13  1  0.57869800  0.89120500  0.07967900  1
  O  O14  1  0.92130200  0.39120500  0.92032100  1
  O  O15  1  0.42130200  0.10879500  0.57967900  1
  O  O16  1  0.15219500  0.25497400  0.92818800  1
  O  O17  1  0.65219500  0.24502600  0.57181200  1
  O  O18  1  0.84780500  0.74502600  0.42818800  1
  O  O19  1  0.34780500  0.75497400  0.07181200  1
  O  O20  1  0.84780500  0.74502600  0.07181200  1
  O  O21  1  0.34780500  0.75497400  0.42818800  1
  O  O22  1  0.15219500  0.25497400  0.57181200  1
  O  O23  1  0.65219500  0.24502600  0.92818800  1
  O  O24  1  0.41635500  0.62840800  0.86845500  1
  O  O25  1  0.91635500  0.87159200  0.63154500  1
  O  O26  1  0.58364500  0.37159200  0.36845500  1
  O  O27  1  0.08364500  0.12840800  0.13154500  1
  O  O28  1  0.58364500  0.37159200  0.13154500  1
  O  O29  1  0.08364500  0.12840800  0.36845500  1
  O  O30  1  0.41635500  0.62840800  0.63154500  1
  O  O31  1  0.91635500  0.87159200  0.86845500  1
  O  O32  1  0.66614800  0.00864900  0.86849100  1
  O  O33  1  0.16614800  0.49135100  0.63150900  1
  O  O34  1  0.33385200  0.99135100  0.36849100  1
  O  O35  1  0.83385200  0.50864900  0.13150900  1
  O  O36  1  0.33385200  0.99135100  0.13150900  1
  O  O37  1  0.83385200  0.50864900  0.36849100  1
  O  O38  1  0.66614800  0.00864900  0.63150900  1
  O  O39  1  0.16614800  0.49135100  0.86849100  1
  O  O40  1  0.15837600  0.74447000  0.87308200  1
  O  O41  1  0.65837600  0.75553000  0.62691800  1
  O  O42  1  0.84162400  0.25553000  0.37308200  1
  O  O43  1  0.34162400  0.24447000  0.12691800  1
  O  O44  1  0.84162400  0.25553000  0.12691800  1
  O  O45  1  0.34162400  0.24447000  0.37308200  1
  O  O46  1  0.15837600  0.74447000  0.62691800  1
  O  O47  1  0.65837600  0.75553000  0.87308200  1
  O  O48  1  0.14787200  0.97222800  0.94886800  1
  O  O49  1  0.64787200  0.52777200  0.55113200  1
  O  O50  1  0.85212800  0.02777200  0.44886800  1
  O  O51  1  0.35212800  0.47222800  0.05113200  1
  O  O52  1  0.85212800  0.02777200  0.05113200  1
  O  O53  1  0.35212800  0.47222800  0.44886800  1
  O  O54  1  0.14787200  0.97222800  0.55113200  1
  O  O55  1  0.64787200  0.52777200  0.94886800  1
loop_
_geom_bond_atom_site_label_1
_geom_bond_atom_site_label_2
_geom_bond_distance
_geom_bond_site_symmetry_2
Fe0 O10 1.927008 1_556
Fe0 O19 1.929811 1_556
Fe0 O51 1.941269 1_556
Fe0 O40 2.099120 1_555
Fe0 O24 2.119418 1_555
Fe0 O39 2.148908 1_555
Fe1 O11 1.927008 1_555
Fe1 O18 1.929811 1_555
Fe1 O50 1.941269 1_565
Fe1 O41 2.099120 1_555
Fe1 O25 2.119418 1_555
Fe1 O38 2.148908 1_565
Fe2 O8 1.927008 1_555
Fe2 O17 1.929811 1_555
Fe2 O49 1.941269 1_555
Fe2 O42 2.099120 1_555
Fe2 O26 2.119418 1_555
Fe2 O37 2.148908 1_555
Fe3 O9 1.927008 1_554
Fe3 O16 1.929811 1_554
Fe3 O48 1.941269 1_544
Fe3 O43 2.099120 1_555
Fe3 O27 2.119418 1_555
Fe3 O36 2.148908 1_545
Fe4 O14 1.927008 1_554
Fe4 O23 1.929811 1_554
Fe4 O55 1.941269 1_554
Fe4 O44 2.099120 1_555
Fe4 O28 2.119418 1_555
Fe4 O35 2.148908 1_555
Fe5 O15 1.927008 1_555
Fe5 O22 1.929811 1_555
Fe5 O54 1.941269 1_545
Fe5 O45 2.099120 1_555
Fe5 O29 2.119418 1_555
Fe5 O34 2.148908 1_545
Fe6 O12 1.927008 1_555
Fe6 O21 1.929811 1_555
Fe6 O53 1.941269 1_555
Fe6 O46 2.099120 1_555
Fe6 O30 2.119418 1_555
Fe6 O33 2.148908 1_555
Fe7 O13 1.927008 1_556
Fe7 O20 1.929811 1_556
Fe7 O52 1.941269 1_566
Fe7 O47 2.099120 1_555
Fe7 O31 2.119418 1_555
Fe7 O32 2.148908 1_565
O0 P7 1.614685 1_555
O0 P1 1.614685 1_555
O1 P0 1.614685 1_555
O1 P6 1.614685 1_555
O2 P5 1.614685 1_555
O2 P3 1.614685 1_555
O3 P2 1.614685 1_555
O3 P4 1.614685 1_555
O4 P15 1.612603 1_555
O4 P9 1.612603 1_555
O5 P8 1.612603 1_555
O5 P14 1.612603 1_555
O6 P11 1.612603 1_555
O6 P13 1.612603 1_555
O7 P12 1.612603 1_555
O7 P10 1.612603 1_555
O8 P9 1.517640 1_655
O9 P8 1.517640 1_555
O10 P11 1.517640 1_455
O11 P10 1.517640 1_555
O12 P13 1.517640 1_455
O13 P12 1.517640 1_555
O14 P15 1.517640 1_655
O15 P14 1.517640 1_555
O16 P15 1.514184 1_555
O17 P14 1.514184 1_555
O18 P13 1.514184 1_555
O19 P12 1.514184 1_555
O20 P11 1.514184 1_555
O21 P10 1.514184 1_555
O22 P9 1.514184 1_555
O23 P8 1.514184 1_555
O24 P0 1.538803 1_555
O24 Zn0 2.136018 1_555
O25 P1 1.538803 1_655
O25 Zn1 2.136018 1_555
O26 P2 1.538803 1_555
O26 Zn2 2.136018 1_555
O27 P3 1.538803 1_455
O27 Zn3 2.136018 1_555
O28 P4 1.538803 1_555
O28 Zn2 2.136018 1_555
O29 P5 1.538803 1_455
O29 Zn3 2.136018 1_555
O30 P6 1.538803 1_555
O30 Zn0 2.136018 1_555
O31 P7 1.538803 1_655
O31 Zn1 2.136018 1_555
O32 P8 1.543401 1_555
O32 Zn1 2.094440 1_545
O33 P9 1.543401 1_555
O33 Zn0 2.094440 1_555
O34 P10 1.543401 1_555
O34 Zn3 2.094440 1_565
O35 P11 1.543401 1_555
O35 Zn2 2.094440 1_555
O36 P12 1.543401 1_555
O36 Zn3 2.094440 1_565
O37 P13 1.543401 1_555
O37 Zn2 2.094440 1_555
O38 P14 1.543401 1_555
O38 Zn1 2.094440 1_545
O39 P15 1.543401 1_555
O39 Zn0 2.094440 1_555
O40 P7 1.542398 1_555
O40 Zn0 2.156229 1_555
O41 P6 1.542398 1_555
O41 Zn1 2.156229 1_555
O42 P5 1.542398 1_555
O42 Zn2 2.156229 1_555
O43 P4 1.542398 1_555
O43 Zn3 2.156229 1_555
O44 P3 1.542398 1_555
O44 Zn2 2.156229 1_555
O45 P2 1.542398 1_555
O45 Zn3 2.156229 1_555
O46 P1 1.542398 1_555
O46 Zn0 2.156229 1_555
O47 P0 1.542398 1_555
O47 Zn1 2.156229 1_555
O48 P7 1.501390 1_555
O49 P6 1.501390 1_555
O50 P5 1.501390 1_555
O51 P4 1.501390 1_555
O52 P3 1.501390 1_555
O53 P2 1.501390 1_555
O54 P1 1.501390 1_555
O55 P0 1.501390 1_555
