# generated using pymatgen
data_Ta3RhS6
_symmetry_space_group_name_H-M   'P 1'
_cell_length_a   5.76051105
_cell_length_b   5.76051105
_cell_length_c   12.07997756
_cell_angle_alpha   90.00000000
_cell_angle_beta   90.00000000
_cell_angle_gamma   120.00000679
_symmetry_Int_Tables_number   1
_chemical_formula_structural   Ta3RhS6
_chemical_formula_sum   'Ta6 Rh2 S12'
_cell_volume   347.15126952
_cell_formula_units_Z   2
loop_
 _symmetry_equiv_pos_site_id
 _symmetry_equiv_pos_as_xyz
  1  'x, y, z'
loop_
 _atom_site_type_symbol
 _atom_site_label
 _atom_site_symmetry_multiplicity
 _atom_site_fract_x
 _atom_site_fract_y
 _atom_site_fract_z
 _atom_site_occupancy
  Ta  Ta0  1  -0.00000000  -0.00000000  0.50000000  1
  Ta  Ta1  1  -0.00000000  -0.00000000  0.00000000  1
  Ta  Ta2  1  0.33333300  0.66666700  0.99641745  1
  Ta  Ta3  1  0.66666700  0.33333300  0.00358255  1
  Ta  Ta4  1  0.66666700  0.33333300  0.49641745  1
  Ta  Ta5  1  0.33333300  0.66666700  0.50358255  1
  Rh  Rh0  1  0.33333300  0.66666700  0.25000000  1
  Rh  Rh1  1  0.66666700  0.33333300  0.75000000  1
  S  S0  1  0.33255175  0.33061594  0.37021971  1
  S  S1  1  0.66938406  0.00193682  0.37021971  1
  S  S2  1  0.99806318  0.66744825  0.37021971  1
  S  S3  1  0.33061594  0.33255175  0.62978029  1
  S  S4  1  0.00193682  0.66938406  0.62978029  1
  S  S5  1  0.66744825  0.99806318  0.62978029  1
  S  S6  1  0.66744825  0.66938406  0.87021971  1
  S  S7  1  0.33061594  0.99806318  0.87021971  1
  S  S8  1  0.00193682  0.33255175  0.87021971  1
  S  S9  1  0.66938406  0.66744825  0.12978029  1
  S  S10  1  0.99806318  0.33061594  0.12978029  1
  S  S11  1  0.33255175  0.00193682  0.12978029  1
loop_
_geom_bond_atom_site_label_1
_geom_bond_atom_site_label_2
_geom_bond_distance
_geom_bond_site_symmetry_2
Rh0 S10 2.418215 1_455
Rh0 S1 2.418215 1_565
Rh0 S0 2.418215 1_555
Rh0 S9 2.418215 1_555
Rh0 S2 2.418215 1_455
Rh0 S11 2.418215 1_565
Rh1 S7 2.418215 1_545
Rh1 S4 2.418215 1_655
Rh1 S3 2.418215 1_555
Rh1 S6 2.418215 1_555
Rh1 S5 2.418215 1_545
Rh1 S8 2.418215 1_655
S0 Ta4 2.449181 1_555
S0 Ta0 2.471106 1_555
S0 Ta5 2.516767 1_555
S1 Ta4 2.449172 1_555
S1 Ta0 2.471108 1_655
S1 Ta5 2.516767 1_545
S2 Ta4 2.449177 1_555
S2 Ta0 2.471104 1_665
S2 Ta5 2.516767 1_655
S3 Ta5 2.449181 1_555
S3 Ta0 2.471106 1_555
S3 Ta4 2.516767 1_555
S4 Ta5 2.449172 1_555
S4 Ta0 2.471108 1_565
S4 Ta4 2.516767 1_455
S5 Ta5 2.449177 1_555
S5 Ta0 2.471104 1_665
S5 Ta4 2.516767 1_565
S6 Ta2 2.449181 1_555
S6 Ta1 2.471106 1_666
S6 Ta3 2.516767 1_556
S7 Ta2 2.449172 1_555
S7 Ta1 2.471108 1_566
S7 Ta3 2.516767 1_566
S8 Ta2 2.449177 1_555
S8 Ta1 2.471104 1_556
S8 Ta3 2.516767 1_456
S9 Ta3 2.449181 1_555
S9 Ta1 2.471106 1_665
S9 Ta2 2.516767 1_554
S10 Ta3 2.449172 1_555
S10 Ta1 2.471108 1_655
S10 Ta2 2.516767 1_654
S11 Ta3 2.449177 1_555
S11 Ta1 2.471104 1_555
S11 Ta2 2.516767 1_544
