# generated using pymatgen
data_LaMgCu2
_symmetry_space_group_name_H-M   'P 1'
_cell_length_a   4.56691232
_cell_length_b   4.56691225
_cell_length_c   9.18449113
_cell_angle_alpha   90.00000000
_cell_angle_beta   90.00000000
_cell_angle_gamma   120.00000054
_symmetry_Int_Tables_number   1
_chemical_formula_structural   LaMgCu2
_chemical_formula_sum   'La2 Mg2 Cu4'
_cell_volume   165.89414890
_cell_formula_units_Z   2
loop_
 _symmetry_equiv_pos_site_id
 _symmetry_equiv_pos_as_xyz
  1  'x, y, z'
loop_
 _atom_site_type_symbol
 _atom_site_label
 _atom_site_symmetry_multiplicity
 _atom_site_fract_x
 _atom_site_fract_y
 _atom_site_fract_z
 _atom_site_occupancy
  La  La0  1  0.66666700  0.33333300  0.75000000  1
  La  La1  1  0.33333300  0.66666700  0.25000000  1
  Mg  Mg0  1  0.00000000  0.00000000  0.50000000  1
  Mg  Mg1  1  0.00000000  0.00000000  -0.00000000  1
  Cu  Cu0  1  0.33333300  0.66666700  0.56343907  1
  Cu  Cu1  1  0.66666700  0.33333300  0.06343907  1
  Cu  Cu2  1  0.66666700  0.33333300  0.43656093  1
  Cu  Cu3  1  0.33333300  0.66666700  0.93656093  1
loop_
_geom_bond_atom_site_label_1
_geom_bond_atom_site_label_2
_geom_bond_distance
_geom_bond_site_symmetry_2
Cu0 Mg0 2.700315 1_565
Cu0 Mg0 2.700319 1_555
Cu0 Mg0 2.700319 1_665
Cu0 La1 2.878778 1_555
Cu0 Cu2 2.882736 1_565
Cu0 Cu2 2.882736 1_455
Cu0 Cu2 2.882743 1_555
Cu0 La0 3.144548 1_565
Cu0 La0 3.144548 1_455
Cu0 La0 3.144555 1_555
Cu1 Mg1 2.700315 1_655
Cu1 Mg1 2.700319 1_665
Cu1 Mg1 2.700319 1_555
Cu1 La0 2.878778 1_554
Cu1 Cu3 2.882736 1_544
Cu1 Cu3 2.882736 1_654
Cu1 Cu3 2.882743 1_554
Cu1 La1 3.144548 1_545
Cu1 La1 3.144548 1_655
Cu1 La1 3.144555 1_555
Cu2 Mg0 2.700315 1_655
Cu2 Mg0 2.700319 1_665
Cu2 Mg0 2.700319 1_555
Cu2 La0 2.878778 1_555
Cu2 La1 3.144548 1_545
Cu2 La1 3.144548 1_655
Cu2 La1 3.144555 1_555
Cu3 Mg1 2.700315 1_566
Cu3 Mg1 2.700319 1_556
Cu3 Mg1 2.700319 1_666
Cu3 La1 2.878778 1_556
Cu3 La0 3.144548 1_565
Cu3 La0 3.144548 1_455
Cu3 La0 3.144555 1_555
