# generated using pymatgen
data_Yb2V2O7
_symmetry_space_group_name_H-M   'P 1'
_cell_length_a   7.08904954
_cell_length_b   7.08904954
_cell_length_c   7.08904954
_cell_angle_alpha   60.00000000
_cell_angle_beta   60.00000000
_cell_angle_gamma   60.00000000
_symmetry_Int_Tables_number   1
_chemical_formula_structural   Yb2V2O7
_chemical_formula_sum   'Yb4 V4 O14'
_cell_volume   251.91210425
_cell_formula_units_Z   2
loop_
 _symmetry_equiv_pos_site_id
 _symmetry_equiv_pos_as_xyz
  1  'x, y, z'
loop_
 _atom_site_type_symbol
 _atom_site_label
 _atom_site_symmetry_multiplicity
 _atom_site_fract_x
 _atom_site_fract_y
 _atom_site_fract_z
 _atom_site_occupancy
  Yb  Yb0  1  0.62500000  0.62500000  0.62500000  1
  Yb  Yb1  1  0.12500000  0.62500000  0.62500000  1
  Yb  Yb2  1  0.62500000  0.62500000  0.12500000  1
  Yb  Yb3  1  0.62500000  0.12500000  0.62500000  1
  V  V0  1  0.12500000  0.12500000  0.12500000  1
  V  V1  1  0.62500000  0.12500000  0.12500000  1
  V  V2  1  0.12500000  0.12500000  0.62500000  1
  V  V3  1  0.12500000  0.62500000  0.12500000  1
  O  O0  1  0.75000000  0.75000000  0.75000000  1
  O  O1  1  0.50000000  0.50000000  0.50000000  1
  O  O2  1  0.80904600  0.19095400  0.19095400  1
  O  O3  1  0.05904600  0.44095400  0.44095400  1
  O  O4  1  0.19095400  0.19095400  0.80904600  1
  O  O5  1  0.80904600  0.19095400  0.80904600  1
  O  O6  1  0.19095400  0.80904600  0.19095400  1
  O  O7  1  0.80904600  0.80904600  0.19095400  1
  O  O8  1  0.19095400  0.80904600  0.80904600  1
  O  O9  1  0.05904600  0.05904600  0.44095400  1
  O  O10  1  0.44095400  0.44095400  0.05904600  1
  O  O11  1  0.05904600  0.44095400  0.05904600  1
  O  O12  1  0.44095400  0.05904600  0.44095400  1
  O  O13  1  0.44095400  0.05904600  0.05904600  1
loop_
_geom_bond_atom_site_label_1
_geom_bond_atom_site_label_2
_geom_bond_distance
_geom_bond_site_symmetry_2
O0 Yb1 2.170569 1_655
O0 Yb0 2.170569 1_555
O0 Yb2 2.170569 1_556
O0 Yb3 2.170569 1_565
O1 Yb3 2.170569 1_555
O1 Yb0 2.170569 1_555
O1 Yb2 2.170569 1_555
O1 Yb1 2.170569 1_555
O2 V0 1.891592 1_655
O2 V1 1.891592 1_555
O2 Yb3 2.558409 1_555
O2 Yb2 2.558409 1_555
O3 V3 1.891592 1_555
O3 V2 1.891592 1_555
O3 Yb1 2.558409 1_555
O3 Yb0 2.558409 1_455
O4 V0 1.891592 1_556
O4 V2 1.891592 1_555
O4 Yb1 2.558409 1_555
O4 Yb3 2.558409 1_555
O5 V1 1.891592 1_556
O5 V2 1.891592 1_655
O5 Yb0 2.558409 1_555
O5 Yb3 2.558409 1_555
O6 V0 1.891592 1_565
O6 V3 1.891592 1_555
O6 Yb1 2.558409 1_555
O6 Yb2 2.558409 1_555
O7 V3 1.891592 1_655
O7 V1 1.891592 1_565
O7 Yb2 2.558409 1_555
O7 Yb0 2.558409 1_555
O8 V3 1.891592 1_556
O8 V2 1.891592 1_565
O8 Yb0 2.558409 1_555
O8 Yb1 2.558409 1_555
O9 V0 1.891592 1_555
O9 V2 1.891592 1_555
O9 Yb3 2.558409 1_455
O9 Yb1 2.558409 1_545
O10 V3 1.891592 1_555
O10 V1 1.891592 1_555
O10 Yb2 2.558409 1_555
O10 Yb0 2.558409 1_554
O11 V3 1.891592 1_555
O11 V0 1.891592 1_555
O11 Yb1 2.558409 1_554
O11 Yb2 2.558409 1_455
O12 V1 1.891592 1_555
O12 V2 1.891592 1_555
O12 Yb3 2.558409 1_555
O12 Yb0 2.558409 1_545
O13 V1 1.891592 1_555
O13 V0 1.891592 1_555
O13 Yb2 2.558409 1_545
O13 Yb3 2.558409 1_554
