# generated using pymatgen
data_Pr3Ni2Sn7
_symmetry_space_group_name_H-M   'P 1'
_cell_length_a   4.64061300
_cell_length_b   5.46305300
_cell_length_c   14.21291015
_cell_angle_alpha   90.00000000
_cell_angle_beta   99.39579040
_cell_angle_gamma   90.00000000
_symmetry_Int_Tables_number   1
_chemical_formula_structural   Pr3Ni2Sn7
_chemical_formula_sum   'Pr3 Ni2 Sn7'
_cell_volume   355.49043057
_cell_formula_units_Z   1
loop_
 _symmetry_equiv_pos_site_id
 _symmetry_equiv_pos_as_xyz
  1  'x, y, z'
loop_
 _atom_site_type_symbol
 _atom_site_label
 _atom_site_symmetry_multiplicity
 _atom_site_fract_x
 _atom_site_fract_y
 _atom_site_fract_z
 _atom_site_occupancy
  Pr  Pr0  1  0.00000000  0.50000000  0.00000000  1
  Pr  Pr1  1  0.18887300  0.00000000  0.37774600  1
  Pr  Pr2  1  0.81112700  0.00000000  0.62225400  1
  Ni  Ni0  1  0.36869700  0.50000000  0.73739500  1
  Ni  Ni1  1  0.63130300  0.50000000  0.26260500  1
  Sn  Sn0  1  0.00000000  0.00000000  0.00000000  1
  Sn  Sn1  1  0.41237500  0.00000000  0.82475000  1
  Sn  Sn2  1  0.58762500  0.00000000  0.17525000  1
  Sn  Sn3  1  0.10896800  0.50000000  0.21793600  1
  Sn  Sn4  1  0.89103200  0.50000000  0.78206400  1
  Sn  Sn5  1  0.28095500  0.50000000  0.56190900  1
  Sn  Sn6  1  0.71904500  0.50000000  0.43809100  1
loop_
_geom_bond_atom_site_label_1
_geom_bond_atom_site_label_2
_geom_bond_distance
_geom_bond_site_symmetry_2
Pr0 Sn0 2.731527 1_555
Pr0 Sn0 2.731527 1_565
Pr0 Sn3 3.055949 1_555
Pr0 Sn4 3.055949 1_454
Pr1 Sn3 3.533106 1_555
Pr1 Sn3 3.533106 1_545
Pr1 Sn2 3.666916 1_455
Pr1 Sn2 3.666916 1_555
Pr1 Sn6 3.682534 1_545
Pr1 Sn6 3.682534 1_555
Pr1 Sn6 3.682537 1_445
Pr1 Sn6 3.682537 1_455
Pr1 Sn5 3.758977 1_545
Pr1 Sn5 3.758977 1_555
Pr1 Pr2 4.139899 1_555
Pr1 Pr2 4.139899 1_455
Pr2 Sn4 3.533106 1_545
Pr2 Sn4 3.533106 1_555
Pr2 Sn1 3.666916 1_655
Pr2 Sn1 3.666916 1_555
Pr2 Sn5 3.682534 1_545
Pr2 Sn5 3.682534 1_555
Pr2 Sn5 3.682537 1_655
Pr2 Sn5 3.682537 1_645
Pr2 Sn6 3.758977 1_545
Pr2 Sn6 3.758977 1_555
Ni0 Sn4 2.403360 1_455
Ni0 Sn4 2.403364 1_555
Ni0 Sn5 2.460705 1_555
Ni0 Sn1 2.993601 1_565
Ni0 Sn1 2.993601 1_555
Ni1 Sn3 2.403360 1_655
Ni1 Sn3 2.403364 1_555
Ni1 Sn6 2.460705 1_555
Ni1 Sn2 2.993601 1_565
Ni1 Sn2 2.993601 1_555
Sn0 Sn1 3.379736 1_454
Sn0 Sn2 3.379736 1_555
Sn0 Sn1 3.379736 1_554
Sn0 Sn2 3.379736 1_455
Sn5 Sn6 2.897966 1_555
Sn5 Sn6 2.897973 1_455
