# generated using pymatgen
data_AlNi2
_symmetry_space_group_name_H-M   'P 1'
_cell_length_a   3.97400285
_cell_length_b   3.97400285
_cell_length_c   4.90425882
_cell_angle_alpha   90.00000000
_cell_angle_beta   90.00000000
_cell_angle_gamma   119.99999415
_symmetry_Int_Tables_number   1
_chemical_formula_structural   AlNi2
_chemical_formula_sum   'Al2 Ni4'
_cell_volume   67.07495458
_cell_formula_units_Z   2
loop_
 _symmetry_equiv_pos_site_id
 _symmetry_equiv_pos_as_xyz
  1  'x, y, z'
loop_
 _atom_site_type_symbol
 _atom_site_label
 _atom_site_symmetry_multiplicity
 _atom_site_fract_x
 _atom_site_fract_y
 _atom_site_fract_z
 _atom_site_occupancy
  Al  Al0  1  0.66666700  0.33333300  0.81012594  1
  Al  Al1  1  0.33333300  0.66666700  0.18987406  1
  Ni  Ni0  1  0.66666700  0.33333300  0.31488996  1
  Ni  Ni1  1  0.33333300  0.66666700  0.68510904  1
  Ni  Ni2  1  0.00000000  0.00000000  0.50000000  1
  Ni  Ni3  1  0.00000000  0.00000000  0.00000000  1
loop_
_geom_bond_atom_site_label_1
_geom_bond_atom_site_label_2
_geom_bond_distance
_geom_bond_site_symmetry_2
Al0 Ni1 2.374896 1_545
Al0 Ni1 2.374896 1_655
Al0 Ni1 2.374903 1_555
Al0 Ni0 2.428765 1_555
Al0 Ni0 2.475493 1_556
Al0 Ni3 2.476154 1_656
Al0 Ni3 2.476158 1_556
Al0 Ni3 2.476158 1_666
Al0 Ni2 2.752721 1_655
Al0 Ni2 2.752724 1_665
Al0 Ni2 2.752724 1_555
Al1 Ni0 2.374895 1_455
Al1 Ni0 2.374895 1_565
Al1 Ni0 2.374902 1_555
Al1 Ni1 2.428761 1_555
Al1 Ni1 2.475498 1_554
Al1 Ni3 2.476154 1_565
Al1 Ni3 2.476158 1_665
Al1 Ni3 2.476158 1_555
Al1 Ni2 2.752721 1_565
Al1 Ni2 2.752724 1_555
Al1 Ni2 2.752724 1_665
Ni0 Ni2 2.467463 1_655
Ni0 Ni2 2.467466 1_555
Ni0 Ni2 2.467466 1_665
Ni0 Ni3 2.765699 1_655
Ni0 Ni3 2.765702 1_665
Ni0 Ni3 2.765702 1_555
Ni1 Ni2 2.467461 1_565
Ni1 Ni2 2.467464 1_665
Ni1 Ni2 2.467464 1_555
Ni1 Ni3 2.765702 1_566
Ni1 Ni3 2.765705 1_666
Ni1 Ni3 2.765705 1_556
Ni2 Ni3 2.452129 1_555
Ni2 Ni3 2.452129 1_556
