# generated using pymatgen
data_Na2CoP2O7
_symmetry_space_group_name_H-M   'P 1'
_cell_length_a   8.02553327
_cell_length_b   11.51303836
_cell_length_c   8.26875622
_cell_angle_alpha   106.24095790
_cell_angle_beta   113.56709402
_cell_angle_gamma   70.81629968
_symmetry_Int_Tables_number   1
_chemical_formula_structural   Na2CoP2O7
_chemical_formula_sum   'Na8 Co4 P8 O28'
_cell_volume   651.62976927
_cell_formula_units_Z   4
loop_
 _symmetry_equiv_pos_site_id
 _symmetry_equiv_pos_as_xyz
  1  'x, y, z'
loop_
 _atom_site_type_symbol
 _atom_site_label
 _atom_site_symmetry_multiplicity
 _atom_site_fract_x
 _atom_site_fract_y
 _atom_site_fract_z
 _atom_site_occupancy
  Na  Na0  1  0.72513600  0.81451200  0.19965000  1
  Na  Na1  1  0.22496600  0.31475000  0.19966500  1
  Na  Na2  1  0.41571300  0.04478600  0.30036200  1
  Na  Na3  1  0.91534800  0.54480400  0.30028400  1
  Na  Na4  1  0.27485800  0.18548400  0.80035000  1
  Na  Na5  1  0.77504500  0.68526100  0.80034400  1
  Na  Na6  1  0.58429100  0.95522200  0.69965200  1
  Na  Na7  1  0.08463000  0.45519700  0.69972400  1
  Co  Co0  1  0.50000100  0.50000000  0.50000000  1
  Co  Co1  1  0.00000100  0.00000000  0.99999800  1
  Co  Co2  1  0.00000000  0.99999900  0.49999800  1
  Co  Co3  1  0.50000000  0.49999900  0.99999900  1
  P  P0  1  0.48840100  0.72321700  0.34460000  1
  P  P1  1  0.98835600  0.22335100  0.34488700  1
  P  P2  1  0.67100400  0.11737200  0.15490100  1
  P  P3  1  0.17097700  0.61740000  0.15511000  1
  P  P4  1  0.51160000  0.27678300  0.65540100  1
  P  P5  1  0.01164500  0.77664900  0.65511300  1
  P  P6  1  0.32899700  0.88262800  0.84509600  1
  P  P7  1  0.82902400  0.38259800  0.84488900  1
  O  O0  1  0.26235600  0.73771500  0.25013900  1
  O  O1  1  0.76212400  0.23786100  0.25005100  1
  O  O2  1  0.73764500  0.26228500  0.74986000  1
  O  O3  1  0.23787700  0.76214000  0.74994700  1
  O  O4  1  0.46073200  0.16622900  0.10331900  1
  O  O5  1  0.96070600  0.66637300  0.10329900  1
  O  O6  1  0.51998100  0.85292200  0.39723400  1
  O  O7  1  0.01988500  0.35307300  0.39719500  1
  O  O8  1  0.53926900  0.83377000  0.89668100  1
  O  O9  1  0.03929500  0.33362600  0.89669900  1
  O  O10  1  0.48002500  0.14707500  0.60276900  1
  O  O11  1  0.98011500  0.64692700  0.60280400  1
  O  O12  1  0.58076500  0.63906700  0.20445200  1
  O  O13  1  0.08099200  0.13890900  0.20500400  1
  O  O14  1  0.75196200  0.02848900  0.29422500  1
  O  O15  1  0.25177500  0.52865200  0.29444200  1
  O  O16  1  0.41923300  0.36093500  0.79554700  1
  O  O17  1  0.91900800  0.86109000  0.79499600  1
  O  O18  1  0.24803800  0.97150800  0.70576800  1
  O  O19  1  0.74822500  0.47134800  0.70555600  1
  O  O20  1  0.44986300  0.34208000  0.49378900  1
  O  O21  1  0.95079300  0.84141000  0.49301600  1
  O  O22  1  0.26269100  0.94503500  0.00755000  1
  O  O23  1  0.76264000  0.44531200  0.00723300  1
  O  O24  1  0.55014000  0.65791700  0.50621000  1
  O  O25  1  0.04920400  0.15858900  0.50698300  1
  O  O26  1  0.73730600  0.05496700  0.99244300  1
  O  O27  1  0.23736000  0.55468200  0.99276600  1
loop_
_geom_bond_atom_site_label_1
_geom_bond_atom_site_label_2
_geom_bond_distance
_geom_bond_site_symmetry_2
Na0 O5 2.333057 1_555
Na0 O8 2.378088 1_554
Na0 O21 2.386526 1_555
Na0 O14 2.421401 1_565
Na0 O6 2.616116 1_555
Na0 O12 2.654017 1_555
Na1 O4 2.335775 1_555
Na1 O9 2.376995 1_554
Na1 O20 2.388848 1_555
Na1 O15 2.420541 1_555
Na1 O7 2.615469 1_555
Na1 O13 2.657745 1_555
Na2 O6 2.336705 1_545
Na2 O10 2.371958 1_555
Na2 O22 2.383933 1_545
Na2 O13 2.425565 1_555
Na2 O4 2.610942 1_555
Na2 O14 2.662991 1_555
Na3 O7 2.335249 1_655
Na3 O11 2.372063 1_555
Na3 O23 2.383505 1_555
Na3 O12 2.424958 1_555
Na3 O5 2.613175 1_555
Na3 O15 2.663878 1_655
Na4 O9 2.333022 1_555
Na4 O4 2.378091 1_556
Na4 O25 2.386519 1_555
Na4 O18 2.421376 1_545
Na4 O10 2.616177 1_555
Na4 O16 2.654105 1_555
Na5 O8 2.335746 1_555
Na5 O5 2.376931 1_556
Na5 O24 2.388945 1_555
Na5 O19 2.420688 1_555
Na5 O11 2.615438 1_555
Na5 O17 2.657588 1_555
Na6 O10 2.336632 1_565
Na6 O6 2.372068 1_555
Na6 O26 2.383775 1_565
Na6 O17 2.425555 1_555
Na6 O8 2.610938 1_555
Na6 O18 2.662987 1_555
Na7 O11 2.335288 1_455
Na7 O7 2.372135 1_555
Na7 O27 2.383472 1_555
Na7 O16 2.425089 1_555
Na7 O9 2.613020 1_555
Na7 O19 2.663672 1_455
Co0 O24 1.970309 1_555
Co0 O20 1.970336 1_555
Co0 O19 2.034820 1_555
Co0 O15 2.034837 1_555
Co1 O22 1.972063 1_546
Co1 O26 1.972093 1_455
Co1 O17 2.034532 1_445
Co1 O13 2.034537 1_556
Co2 O25 1.972214 1_565
Co2 O21 1.972222 1_455
Co2 O18 2.034666 1_555
Co2 O14 2.034678 1_465
Co3 O23 1.972560 1_556
Co3 O27 1.972563 1_555
Co3 O16 2.033052 1_555
Co3 O12 2.033083 1_556
O0 P0 1.633970 1_555
O0 P3 1.634626 1_555
O1 P2 1.635304 1_555
O1 P1 1.635478 1_555
O2 P4 1.633969 1_555
O2 P7 1.634606 1_555
O3 P6 1.635293 1_555
O3 P5 1.635478 1_555
O4 P2 1.510275 1_555
O5 P3 1.510268 1_655
O6 P0 1.510161 1_555
O7 P1 1.510346 1_455
O8 P6 1.510274 1_555
O9 P7 1.510268 1_455
O10 P4 1.510180 1_555
O11 P5 1.510349 1_655
O12 P0 1.554983 1_555
O13 P1 1.555431 1_455
O14 P2 1.555772 1_555
O15 P3 1.554814 1_555
O16 P4 1.554990 1_555
O17 P5 1.555433 1_655
O18 P6 1.555771 1_555
O19 P7 1.554836 1_555
O20 P4 1.544056 1_555
O21 P5 1.545053 1_655
O22 P6 1.544122 1_554
O23 P7 1.544051 1_554
O24 P0 1.544060 1_555
O25 P1 1.545059 1_455
O26 P2 1.544131 1_556
O27 P3 1.544051 1_556
