# generated using pymatgen
data_Tb2Ti2S2O5
_symmetry_space_group_name_H-M   'P 1'
_cell_length_a   3.80500800
_cell_length_b   3.80500800
_cell_length_c   11.83613164
_cell_angle_alpha   99.24967548
_cell_angle_beta   99.24967548
_cell_angle_gamma   90.00000000
_symmetry_Int_Tables_number   1
_chemical_formula_structural   Tb2Ti2S2O5
_chemical_formula_sum   'Tb2 Ti2 S2 O5'
_cell_volume   166.87837037
_cell_formula_units_Z   1
loop_
 _symmetry_equiv_pos_site_id
 _symmetry_equiv_pos_as_xyz
  1  'x, y, z'
loop_
 _atom_site_type_symbol
 _atom_site_label
 _atom_site_symmetry_multiplicity
 _atom_site_fract_x
 _atom_site_fract_y
 _atom_site_fract_z
 _atom_site_occupancy
  Tb  Tb0  1  0.83334600  0.83334600  0.66669200  1
  Tb  Tb1  1  0.16665400  0.16665400  0.33330800  1
  Ti  Ti0  1  0.42127000  0.42127000  0.84254000  1
  Ti  Ti1  1  0.57873000  0.57873000  0.15746000  1
  S  S0  1  0.29494500  0.29494500  0.58989000  1
  S  S1  1  0.70505500  0.70505500  0.41011000  1
  O  O0  1  0.40058300  0.90058300  0.80116600  1
  O  O1  1  0.90058300  0.40058300  0.80116600  1
  O  O2  1  0.59941700  0.09941700  0.19883400  1
  O  O3  1  0.09941700  0.59941700  0.19883400  1
  O  O4  1  0.50000000  0.50000000  0.00000000  1
loop_
_geom_bond_atom_site_label_1
_geom_bond_atom_site_label_2
_geom_bond_distance
_geom_bond_site_symmetry_2
S0 Tb0 2.832436 1_545
S0 Tb0 2.832436 1_455
S0 Tb0 2.832436 1_445
S0 Tb0 2.832436 1_555
S0 Ti0 2.912113 1_555
S0 Tb1 2.957434 1_555
S1 Tb1 2.832436 1_655
S1 Tb1 2.832436 1_665
S1 Tb1 2.832436 1_555
S1 Tb1 2.832436 1_565
S1 Ti1 2.912113 1_555
S1 Tb0 2.957434 1_555
O0 Ti0 1.961363 1_555
O0 Ti0 1.961363 1_565
O0 Tb0 2.453971 1_455
O0 Tb0 2.453971 1_555
O1 Ti0 1.961363 1_555
O1 Ti0 1.961363 1_655
O1 Tb0 2.453971 1_545
O1 Tb0 2.453971 1_555
O2 Ti1 1.961363 1_545
O2 Ti1 1.961363 1_555
O2 Tb1 2.453971 1_555
O2 Tb1 2.453971 1_655
O3 Ti1 1.961363 1_455
O3 Ti1 1.961363 1_555
O3 Tb1 2.453971 1_565
O3 Tb1 2.453971 1_555
O4 Ti1 1.814927 1_555
O4 Ti0 1.814927 1_554
