# generated using pymatgen
data_Dy7Ru2C11
_symmetry_space_group_name_H-M   'P 1'
_cell_length_a   3.44755200
_cell_length_b   8.46989469
_cell_length_c   19.97230000
_cell_angle_alpha   90.00000000
_cell_angle_beta   90.00000000
_cell_angle_gamma   101.74275773
_symmetry_Int_Tables_number   1
_chemical_formula_structural   Dy7Ru2C11
_chemical_formula_sum   'Dy14 Ru4 C22'
_cell_volume   570.99353997
_cell_formula_units_Z   2
loop_
 _symmetry_equiv_pos_site_id
 _symmetry_equiv_pos_as_xyz
  1  'x, y, z'
loop_
 _atom_site_type_symbol
 _atom_site_label
 _atom_site_symmetry_multiplicity
 _atom_site_fract_x
 _atom_site_fract_y
 _atom_site_fract_z
 _atom_site_occupancy
  Dy  Dy0  1  0.89767400  0.79534900  0.25000000  1
  Dy  Dy1  1  0.10232600  0.20465100  0.75000000  1
  Dy  Dy2  1  0.27820200  0.55640300  0.65516900  1
  Dy  Dy3  1  0.72179800  0.44359700  0.34483100  1
  Dy  Dy4  1  0.72179800  0.44359700  0.15516900  1
  Dy  Dy5  1  0.27820200  0.55640300  0.84483100  1
  Dy  Dy6  1  0.33879800  0.67759600  0.01933000  1
  Dy  Dy7  1  0.66120200  0.32240400  0.98067000  1
  Dy  Dy8  1  0.66120200  0.32240400  0.51933000  1
  Dy  Dy9  1  0.33879800  0.67759600  0.48067000  1
  Dy  Dy10  1  0.52262700  0.04525400  0.12711900  1
  Dy  Dy11  1  0.47737300  0.95474600  0.87288100  1
  Dy  Dy12  1  0.47737300  0.95474600  0.62711900  1
  Dy  Dy13  1  0.52262700  0.04525400  0.37288100  1
  Ru  Ru0  1  0.08128600  0.16257100  0.25000000  1
  Ru  Ru1  1  0.91871400  0.83742900  0.75000000  1
  Ru  Ru2  1  0.00000000  0.00000000  0.00000000  1
  Ru  Ru3  1  0.00000000  0.00000000  0.50000000  1
  C  C0  1  0.27873100  0.55746300  0.25000000  1
  C  C1  1  0.72126900  0.44253700  0.75000000  1
  C  C2  1  0.50452900  0.00905700  0.25000000  1
  C  C3  1  0.49547100  0.99094300  0.75000000  1
  C  C4  1  0.07359600  0.14719300  0.57916800  1
  C  C5  1  0.92640400  0.85280700  0.42083200  1
  C  C6  1  0.92640400  0.85280700  0.07916800  1
  C  C7  1  0.07359600  0.14719300  0.92083200  1
  C  C8  1  0.13254400  0.26508800  0.62260000  1
  C  C9  1  0.86745600  0.73491200  0.37740000  1
  C  C10  1  0.86745600  0.73491200  0.12260000  1
  C  C11  1  0.13254400  0.26508800  0.87740000  1
  C  C12  1  0.20584000  0.41168000  0.06323900  1
  C  C13  1  0.79416000  0.58832000  0.93676100  1
  C  C14  1  0.79416000  0.58832000  0.56323900  1
  C  C15  1  0.20584000  0.41168000  0.43676100  1
  C  C16  1  0.19835400  0.39670800  0.25000000  1
  C  C17  1  0.80164600  0.60329200  0.75000000  1
  C  C18  1  0.12709400  0.25418700  0.08398600  1
  C  C19  1  0.87290600  0.74581300  0.91601400  1
  C  C20  1  0.87290600  0.74581300  0.58398600  1
  C  C21  1  0.12709400  0.25418700  0.41601400  1
loop_
_geom_bond_atom_site_label_1
_geom_bond_atom_site_label_2
_geom_bond_distance
_geom_bond_site_symmetry_2
C0 C16 1.333082 1_555
C0 Dy0 2.619724 1_555
C0 Dy0 2.619724 1_455
C0 Dy3 2.729509 1_555
C0 Dy4 2.729509 1_555
C0 Dy4 2.729509 1_455
C0 Dy3 2.729509 1_455
C1 C17 1.333082 1_555
C1 Dy1 2.619724 1_555
C1 Dy1 2.619724 1_655
C1 Dy5 2.729509 1_555
C1 Dy2 2.729509 1_555
C1 Dy5 2.729509 1_655
C1 Dy2 2.729509 1_655
C2 Ru0 2.142900 1_655
C2 Ru0 2.142900 1_555
C2 Dy0 2.472264 1_545
C2 Dy0 2.472269 1_445
C2 Dy13 2.472504 1_555
C2 Dy10 2.472504 1_555
C3 Ru1 2.142900 1_555
C3 Ru1 2.142900 1_455
C3 Dy1 2.472264 1_565
C3 Dy1 2.472269 1_665
C3 Dy11 2.472504 1_555
C3 Dy12 2.472504 1_555
C4 C8 1.307006 1_555
C4 Ru3 1.997497 1_555
C4 Dy12 2.536817 1_445
C4 Dy12 2.536820 1_545
C4 Dy8 2.551619 1_455
C4 Dy8 2.551622 1_555
C5 C9 1.307006 1_555
C5 Ru3 1.997497 1_665
C5 Dy13 2.536817 1_665
C5 Dy13 2.536820 1_565
C5 Dy9 2.551619 1_655
C5 Dy9 2.551622 1_555
C6 Ru2 1.997497 1_665
C6 Dy10 2.536817 1_665
C6 Dy10 2.536820 1_565
C6 Dy6 2.551619 1_655
C6 Dy6 2.551622 1_555
C7 Ru2 1.997497 1_556
C7 Dy11 2.536817 1_445
C7 Dy11 2.536820 1_545
C7 Dy7 2.551619 1_455
C7 Dy7 2.551622 1_555
C8 Dy2 2.501810 1_555
C8 Dy1 2.593360 1_555
C8 Dy8 2.729722 1_455
C8 Dy8 2.729722 1_555
C9 Dy3 2.501810 1_555
C9 Dy0 2.593360 1_555
C9 Dy9 2.729722 1_555
C9 Dy9 2.729722 1_655
C10 C6 1.307006 1_555
C10 Dy4 2.501810 1_555
C10 Dy0 2.593360 1_555
C10 Dy6 2.729722 1_655
C10 Dy6 2.729722 1_555
C11 C7 1.307006 1_555
C11 Dy5 2.501810 1_555
C11 Dy1 2.593360 1_555
C11 Dy7 2.729722 1_455
C11 Dy7 2.729722 1_555
C12 C18 1.370188 1_555
C12 Dy6 2.373125 1_555
C12 Dy7 2.497800 1_454
C12 Dy7 2.497800 1_554
C12 Dy4 2.532300 1_555
C12 Dy4 2.532302 1_455
C13 C19 1.370188 1_555
C13 Dy7 2.373125 1_555
C13 Dy6 2.497800 1_656
C13 Dy6 2.497800 1_556
C13 Dy5 2.532300 1_555
C13 Dy5 2.532302 1_655
C14 C20 1.370188 1_555
C14 Dy8 2.373125 1_555
C14 Dy9 2.497800 1_655
C14 Dy9 2.497800 1_555
C14 Dy2 2.532300 1_555
C14 Dy2 2.532302 1_655
C15 C21 1.370188 1_555
C15 Dy9 2.373125 1_555
C15 Dy8 2.497800 1_455
C15 Dy8 2.497800 1_555
C15 Dy3 2.532300 1_555
C15 Dy3 2.532302 1_455
C16 Ru0 1.941612 1_555
C16 Dy4 2.590328 1_555
C16 Dy3 2.590328 1_555
C16 Dy4 2.590330 1_455
C16 Dy3 2.590330 1_455
C17 Ru1 1.941612 1_555
C17 Dy5 2.590328 1_555
C17 Dy2 2.590328 1_555
C17 Dy5 2.590330 1_655
C17 Dy2 2.590330 1_655
C18 Dy10 2.591416 1_555
C18 Dy10 2.591418 1_455
C18 Ru2 2.693845 1_555
C18 Dy4 2.731247 1_555
C18 Dy4 2.731251 1_455
C18 Dy7 2.747594 1_554
C18 Dy7 2.747596 1_454
C19 Dy11 2.591416 1_555
C19 Dy11 2.591418 1_655
C19 Ru2 2.693845 1_666
C19 Dy5 2.731247 1_555
C19 Dy5 2.731251 1_655
C19 Dy6 2.747594 1_556
C19 Dy6 2.747596 1_656
C20 Dy12 2.591416 1_555
C20 Dy12 2.591418 1_655
C20 Ru3 2.693845 1_665
C20 Dy2 2.731247 1_555
C20 Dy2 2.731251 1_655
C20 Dy9 2.747594 1_555
C20 Dy9 2.747596 1_655
C21 Dy13 2.591416 1_555
C21 Dy13 2.591418 1_455
C21 Ru3 2.693845 1_555
C21 Dy3 2.731247 1_555
C21 Dy3 2.731251 1_455
C21 Dy8 2.747594 1_555
C21 Dy8 2.747596 1_455
