# generated using pymatgen
data_BaU2I2O13
_symmetry_space_group_name_H-M   'P 1'
_cell_length_a   6.99587200
_cell_length_b   8.10172169
_cell_length_c   22.11053085
_cell_angle_alpha   97.28060337
_cell_angle_beta   90.00000000
_cell_angle_gamma   90.00000000
_symmetry_Int_Tables_number   1
_chemical_formula_structural   BaU2I2O13
_chemical_formula_sum   'Ba4 U8 I8 O52'
_cell_volume   1243.09010751
_cell_formula_units_Z   4
loop_
 _symmetry_equiv_pos_site_id
 _symmetry_equiv_pos_as_xyz
  1  'x, y, z'
loop_
 _atom_site_type_symbol
 _atom_site_label
 _atom_site_symmetry_multiplicity
 _atom_site_fract_x
 _atom_site_fract_y
 _atom_site_fract_z
 _atom_site_occupancy
  Ba  Ba0  1  0.62475900  0.13362200  0.63899400  1
  Ba  Ba1  1  0.12475900  0.86637800  0.86100600  1
  Ba  Ba2  1  0.37524100  0.86637800  0.36100600  1
  Ba  Ba3  1  0.87524100  0.13362200  0.13899400  1
  U  U0  1  0.82584600  0.60366900  0.62561800  1
  U  U1  1  0.32584600  0.39633100  0.87438200  1
  U  U2  1  0.17415400  0.39633100  0.37438200  1
  U  U3  1  0.67415400  0.60366900  0.12561800  1
  U  U4  1  0.80460300  0.47498700  0.78132700  1
  U  U5  1  0.30460300  0.52501300  0.71867300  1
  U  U6  1  0.19539700  0.52501300  0.21867300  1
  U  U7  1  0.69539700  0.47498700  0.28132700  1
  I  I0  1  0.82728300  0.83965600  0.47431300  1
  I  I1  1  0.32728300  0.16034400  0.02568700  1
  I  I2  1  0.17271700  0.16034400  0.52568700  1
  I  I3  1  0.67271700  0.83965600  0.97431300  1
  I  I4  1  0.32705900  0.69940600  0.55211100  1
  I  I5  1  0.82705900  0.30059400  0.94788900  1
  I  I6  1  0.67294100  0.30059400  0.44788900  1
  I  I7  1  0.17294100  0.69940600  0.05211100  1
  O  O0  1  0.92178800  0.69577300  0.52576700  1
  O  O1  1  0.42178800  0.30422700  0.97423300  1
  O  O2  1  0.07821200  0.30422700  0.47423300  1
  O  O3  1  0.57821200  0.69577300  0.02576700  1
  O  O4  1  0.57478300  0.78045200  0.46851400  1
  O  O5  1  0.07478300  0.21954800  0.03148600  1
  O  O6  1  0.42521700  0.21954800  0.53148600  1
  O  O7  1  0.92521700  0.78045200  0.96851400  1
  O  O8  1  0.81853400  0.02986300  0.52938300  1
  O  O9  1  0.31853400  0.97013700  0.97061700  1
  O  O10  1  0.18146600  0.97013700  0.47061700  1
  O  O11  1  0.68146600  0.02986300  0.02938300  1
  O  O12  1  0.19055100  0.61123900  0.61273500  1
  O  O13  1  0.69055100  0.38876100  0.88726500  1
  O  O14  1  0.80944900  0.38876100  0.38726500  1
  O  O15  1  0.30944900  0.61123900  0.11273500  1
  O  O16  1  0.54816800  0.59167100  0.56895700  1
  O  O17  1  0.04816800  0.40832900  0.93104300  1
  O  O18  1  0.45183200  0.40832900  0.43104300  1
  O  O19  1  0.95183200  0.59167100  0.06895700  1
  O  O20  1  0.35586200  0.90744000  0.59164900  1
  O  O21  1  0.85586200  0.09256000  0.90835100  1
  O  O22  1  0.64413800  0.09256000  0.40835100  1
  O  O23  1  0.14413800  0.90744000  0.09164900  1
  O  O24  1  0.85373300  0.38032200  0.59434200  1
  O  O25  1  0.35373300  0.61967800  0.90565800  1
  O  O26  1  0.14626700  0.61967800  0.40565800  1
  O  O27  1  0.64626700  0.38032200  0.09434200  1
  O  O28  1  0.78610400  0.82758900  0.65152300  1
  O  O29  1  0.28610400  0.17241100  0.84847700  1
  O  O30  1  0.21389600  0.17241100  0.34847700  1
  O  O31  1  0.71389600  0.82758900  0.15152300  1
  O  O32  1  0.61775200  0.52598200  0.69260100  1
  O  O33  1  0.11775200  0.47401800  0.80739900  1
  O  O34  1  0.38224800  0.47401800  0.30739900  1
  O  O35  1  0.88224800  0.52598200  0.19260100  1
  O  O36  1  0.81967200  0.25383900  0.74569300  1
  O  O37  1  0.31967200  0.74616100  0.75430700  1
  O  O38  1  0.18032800  0.74616100  0.25430700  1
  O  O39  1  0.68032800  0.25383900  0.24569300  1
  O  O40  1  0.79203200  0.69023600  0.82139900  1
  O  O41  1  0.29203200  0.30976400  0.67860100  1
  O  O42  1  0.20796800  0.30976400  0.17860100  1
  O  O43  1  0.70796800  0.69023600  0.32139900  1
  O  O44  1  0.48656500  0.43806300  0.79286800  1
  O  O45  1  0.98656500  0.56193700  0.70713200  1
  O  O46  1  0.51343500  0.56193700  0.20713200  1
  O  O47  1  0.01343500  0.43806300  0.29286800  1
  O  O48  1  0.51435000  0.00606800  0.75271700  1
  O  O49  1  0.01435000  0.99393200  0.74728300  1
  O  O50  1  0.48565000  0.99393200  0.24728300  1
  O  O51  1  0.98565000  0.00606800  0.25271700  1
loop_
_geom_bond_atom_site_label_1
_geom_bond_atom_site_label_2
_geom_bond_distance
_geom_bond_site_symmetry_2
Ba0 O20 2.739774 1_545
Ba0 O28 2.769891 1_545
Ba0 O36 2.791287 1_555
Ba0 O8 2.810984 1_555
Ba0 O41 2.811565 1_555
Ba0 O24 2.834720 1_555
Ba0 O6 2.916022 1_555
Ba0 O48 2.940363 1_555
Ba0 O32 3.249160 1_555
Ba1 O21 2.739774 1_465
Ba1 O29 2.769891 1_565
Ba1 O37 2.791287 1_555
Ba1 O9 2.810984 1_555
Ba1 O40 2.811565 1_455
Ba1 O25 2.834720 1_555
Ba1 O7 2.916022 1_455
Ba1 O49 2.940363 1_555
Ba1 O33 3.249160 1_555
Ba2 O22 2.739774 1_565
Ba2 O30 2.769891 1_565
Ba2 O38 2.791287 1_555
Ba2 O10 2.810984 1_555
Ba2 O43 2.811565 1_555
Ba2 O26 2.834720 1_555
Ba2 O4 2.916022 1_555
Ba2 O50 2.940363 1_555
Ba2 O34 3.249160 1_555
Ba3 O23 2.739774 1_645
Ba3 O31 2.769891 1_545
Ba3 O39 2.791287 1_555
Ba3 O11 2.810984 1_555
Ba3 O42 2.811565 1_655
Ba3 O27 2.834720 1_555
Ba3 O5 2.916022 1_655
Ba3 O51 2.940363 1_555
Ba3 O35 3.249160 1_555
I0 O4 1.830654 1_555
I0 O8 1.839966 1_565
I0 O0 1.851056 1_555
I1 O5 1.830654 1_555
I1 O9 1.839966 1_544
I1 O1 1.851056 1_554
I2 O6 1.830654 1_555
I2 O10 1.839966 1_545
I2 O2 1.851056 1_555
I3 O7 1.830654 1_555
I3 O11 1.839966 1_566
I3 O3 1.851056 1_556
I4 O20 1.808888 1_555
I4 O16 1.837317 1_555
I4 O12 1.860556 1_555
I5 O21 1.808888 1_555
I5 O17 1.837317 1_655
I5 O13 1.860556 1_555
I6 O22 1.808888 1_555
I6 O18 1.837317 1_555
I6 O14 1.860556 1_555
I7 O23 1.808888 1_555
I7 O19 1.837317 1_455
I7 O15 1.860556 1_555
O0 U0 2.509796 1_555
O1 U1 2.509796 1_555
O2 U2 2.509796 1_555
O3 U3 2.509796 1_555
O12 U0 2.568875 1_455
O12 U5 2.650654 1_555
O13 U1 2.568875 1_555
O13 U4 2.650654 1_555
O14 U2 2.568875 1_655
O14 U7 2.650654 1_555
O15 U3 2.568875 1_555
O15 U6 2.650654 1_555
O16 U0 2.306902 1_555
O17 U1 2.306902 1_555
O18 U2 2.306902 1_555
O19 U3 2.306902 1_555
O24 U0 1.863704 1_555
O25 U1 1.863704 1_555
O26 U2 1.863704 1_555
O27 U3 1.863704 1_555
O28 U0 1.852863 1_555
O29 U1 1.852863 1_555
O30 U2 1.852863 1_555
O31 U3 1.852863 1_555
O32 U0 2.223782 1_555
O32 U5 2.265592 1_555
O32 U4 2.435863 1_555
O33 U1 2.223782 1_555
O33 U4 2.265592 1_455
O33 U5 2.435863 1_555
O34 U2 2.223782 1_555
O34 U7 2.265592 1_555
O34 U6 2.435863 1_555
O35 U3 2.223782 1_555
O35 U6 2.265592 1_655
O35 U7 2.435863 1_555
O36 U4 1.866602 1_555
O37 U5 1.866602 1_555
O38 U6 1.866602 1_555
O39 U7 1.866602 1_555
O40 U4 1.855338 1_555
O41 U5 1.855338 1_555
O42 U6 1.855338 1_555
O43 U7 1.855338 1_555
O44 U1 2.186622 1_555
O44 U5 2.258504 1_555
O44 U4 2.263707 1_555
O45 U0 2.186622 1_555
O45 U4 2.258504 1_555
O45 U5 2.263707 1_655
O46 U3 2.186622 1_555
O46 U7 2.258504 1_555
O46 U6 2.263707 1_555
O47 U2 2.186622 1_555
O47 U6 2.258504 1_555
O47 U7 2.263707 1_455
