# generated using pymatgen
data_YZr4O10
_symmetry_space_group_name_H-M   'P 1'
_cell_length_a   6.37982455
_cell_length_b   6.37982455
_cell_length_c   6.37982455
_cell_angle_alpha   99.63651097
_cell_angle_beta   99.63651097
_cell_angle_gamma   131.69812717
_symmetry_Int_Tables_number   1
_chemical_formula_structural   YZr4O10
_chemical_formula_sum   'Y1 Zr4 O10'
_cell_volume   176.91637315
_cell_formula_units_Z   1
loop_
 _symmetry_equiv_pos_site_id
 _symmetry_equiv_pos_as_xyz
  1  'x, y, z'
loop_
 _atom_site_type_symbol
 _atom_site_label
 _atom_site_symmetry_multiplicity
 _atom_site_fract_x
 _atom_site_fract_y
 _atom_site_fract_z
 _atom_site_occupancy
  Y  Y0  1  0.00000000  0.00000000  0.00000000  1
  Zr  Zr0  1  0.39894000  0.20047300  0.59941300  1
  Zr  Zr1  1  0.79952700  0.39894000  0.19846700  1
  Zr  Zr2  1  0.20047300  0.60106000  0.80153300  1
  Zr  Zr3  1  0.60106000  0.79952700  0.40058700  1
  O  O0  1  0.75000000  0.25000000  0.50000000  1
  O  O1  1  0.15606500  0.46508300  0.10514700  1
  O  O2  1  0.53491700  0.64006500  0.69098200  1
  O  O3  1  0.94908200  0.84393500  0.30901800  1
  O  O4  1  0.35993500  0.05091800  0.89485300  1
  O  O5  1  0.84393500  0.53491700  0.89485300  1
  O  O6  1  0.25000000  0.75000000  0.50000000  1
  O  O7  1  0.64006500  0.94908200  0.10514700  1
  O  O8  1  0.05091800  0.15606500  0.69098200  1
  O  O9  1  0.46508300  0.35993500  0.30901800  1
loop_
_geom_bond_atom_site_label_1
_geom_bond_atom_site_label_2
_geom_bond_distance
_geom_bond_site_symmetry_2
O0 Zr1 2.262634 1_555
O0 Zr0 2.262634 1_555
O0 Zr3 2.262634 1_545
O0 Zr2 2.262634 1_655
O1 Zr1 2.228690 1_455
O1 Zr3 2.228951 1_555
O1 Zr2 2.236995 1_554
O1 Y0 2.329141 1_555
O2 Zr3 2.228687 1_555
O2 Zr2 2.228948 1_555
O2 Zr0 2.237001 1_555
O2 Y0 2.329141 1_666
O3 Zr0 2.228690 1_665
O3 Zr1 2.228951 1_555
O3 Zr3 2.236995 1_555
O3 Y0 2.329141 1_665
O4 Zr2 2.228693 1_545
O4 Zr0 2.228951 1_555
O4 Zr1 2.236997 1_556
O4 Y0 2.329135 1_556
O5 Zr2 2.228690 1_655
O5 Zr0 2.228951 1_555
O5 Zr1 2.236995 1_556
O5 Y0 2.329141 1_666
O6 Zr3 2.262634 1_555
O6 Zr1 2.262634 1_455
O6 Zr2 2.262634 1_555
O6 Zr0 2.262634 1_565
O7 Zr1 2.228693 1_565
O7 Zr3 2.228951 1_555
O7 Zr2 2.236997 1_554
O7 Y0 2.329135 1_665
O8 Zr3 2.228690 1_445
O8 Zr2 2.228951 1_555
O8 Zr0 2.236995 1_555
O8 Y0 2.329141 1_556
O9 Zr0 2.228687 1_555
O9 Zr1 2.228948 1_555
O9 Zr3 2.237001 1_555
O9 Y0 2.329141 1_555
