# generated using pymatgen
data_Cu2As9P3S9I2
_symmetry_space_group_name_H-M   'P 1'
_cell_length_a   14.16973600
_cell_length_b   12.45402200
_cell_length_c   16.35090380
_cell_angle_alpha   87.33449412
_cell_angle_beta   90.00000000
_cell_angle_gamma   90.00000000
_symmetry_Int_Tables_number   1
_chemical_formula_structural   Cu2As9P3S9I2
_chemical_formula_sum   'Cu8 As36 P12 S36 I8'
_cell_volume   2882.32542810
_cell_formula_units_Z   4
loop_
 _symmetry_equiv_pos_site_id
 _symmetry_equiv_pos_as_xyz
  1  'x, y, z'
loop_
 _atom_site_type_symbol
 _atom_site_label
 _atom_site_symmetry_multiplicity
 _atom_site_fract_x
 _atom_site_fract_y
 _atom_site_fract_z
 _atom_site_occupancy
  Cu  Cu0  1  0.73740900  0.30453500  0.57929300  1
  Cu  Cu1  1  0.23740900  0.69546500  0.92070700  1
  Cu  Cu2  1  0.26259100  0.69546500  0.42070700  1
  Cu  Cu3  1  0.76259100  0.30453500  0.07929300  1
  Cu  Cu4  1  0.77731100  0.28310000  0.81701500  1
  Cu  Cu5  1  0.27731100  0.71690000  0.68298500  1
  Cu  Cu6  1  0.22268900  0.71690000  0.18298500  1
  Cu  Cu7  1  0.72268900  0.28310000  0.31701500  1
  As  As0  1  0.75551600  0.86292700  0.68453200  1
  As  As1  1  0.25551600  0.13707300  0.81546800  1
  As  As2  1  0.24448400  0.13707300  0.31546800  1
  As  As3  1  0.74448400  0.86292700  0.18453200  1
  As  As4  1  0.79060500  0.96895000  0.80835500  1
  As  As5  1  0.29060500  0.03105000  0.69164500  1
  As  As6  1  0.20939500  0.03105000  0.19164500  1
  As  As7  1  0.70939500  0.96895000  0.30835500  1
  As  As8  1  0.62287600  0.94239100  0.76306100  1
  As  As9  1  0.12287600  0.05760900  0.73693900  1
  As  As10  1  0.37712400  0.05760900  0.23693900  1
  As  As11  1  0.87712400  0.94239100  0.26306100  1
  As  As12  1  0.46044700  0.34213200  0.57473200  1
  As  As13  1  0.96044700  0.65786800  0.92526800  1
  As  As14  1  0.53955300  0.65786800  0.42526800  1
  As  As15  1  0.03955300  0.34213200  0.07473200  1
  As  As16  1  0.99021400  0.35244700  0.55760900  1
  As  As17  1  0.49021400  0.64755300  0.94239100  1
  As  As18  1  0.00978600  0.64755300  0.44239100  1
  As  As19  1  0.50978600  0.35244700  0.05760900  1
  As  As20  1  0.13848600  0.33706600  0.94759500  1
  As  As21  1  0.63848600  0.66293400  0.55240500  1
  As  As22  1  0.86151400  0.66293400  0.05240500  1
  As  As23  1  0.36151400  0.33706600  0.44759500  1
  As  As24  1  0.08038000  0.16484600  0.01617200  1
  As  As25  1  0.58038000  0.83515400  0.48382800  1
  As  As26  1  0.91962000  0.83515400  0.98382800  1
  As  As27  1  0.41962000  0.16484600  0.51617200  1
  As  As28  1  0.40611200  0.33043700  0.93448500  1
  As  As29  1  0.90611200  0.66956300  0.56551500  1
  As  As30  1  0.59388800  0.66956300  0.06551500  1
  As  As31  1  0.09388800  0.33043700  0.43448500  1
  As  As32  1  0.46734300  0.16758300  0.01390400  1
  As  As33  1  0.96734300  0.83241700  0.48609600  1
  As  As34  1  0.53265700  0.83241700  0.98609600  1
  As  As35  1  0.03265700  0.16758300  0.51390400  1
  P  P0  1  0.73205800  0.13611900  0.63673900  1
  P  P1  1  0.23205800  0.86388100  0.86326100  1
  P  P2  1  0.26794200  0.86388100  0.36326100  1
  P  P3  1  0.76794200  0.13611900  0.13673900  1
  P  P4  1  0.90655600  0.29201800  0.89964900  1
  P  P5  1  0.40655600  0.70798200  0.60035100  1
  P  P6  1  0.09344400  0.70798200  0.10035100  1
  P  P7  1  0.59344400  0.29201800  0.39964900  1
  P  P8  1  0.63599100  0.27921000  0.88338200  1
  P  P9  1  0.13599100  0.72079000  0.61661800  1
  P  P10  1  0.36400900  0.72079000  0.11661800  1
  P  P11  1  0.86400900  0.27921000  0.38338200  1
  S  S0  1  0.77520100  0.99369600  0.58363200  1
  S  S1  1  0.27520100  0.00630400  0.91636800  1
  S  S2  1  0.22479900  0.00630400  0.41636800  1
  S  S3  1  0.72479900  0.99369600  0.08363200  1
  S  S4  1  0.82192400  0.13365600  0.74180300  1
  S  S5  1  0.32192400  0.86634400  0.75819700  1
  S  S6  1  0.17807600  0.86634400  0.25819700  1
  S  S7  1  0.67807600  0.13365600  0.24180300  1
  S  S8  1  0.59963500  0.09790800  0.68705400  1
  S  S9  1  0.09963500  0.90209200  0.81294600  1
  S  S10  1  0.40036500  0.90209200  0.31294600  1
  S  S11  1  0.90036500  0.09790800  0.18705400  1
  S  S12  1  0.60401200  0.37288500  0.51171200  1
  S  S13  1  0.10401200  0.62711500  0.98828800  1
  S  S14  1  0.39598800  0.62711500  0.48828800  1
  S  S15  1  0.89598800  0.37288500  0.01171200  1
  S  S16  1  0.84992600  0.37421000  0.48837300  1
  S  S17  1  0.34992600  0.62579000  0.01162700  1
  S  S18  1  0.15007400  0.62579000  0.51162700  1
  S  S19  1  0.65007400  0.37421000  0.98837300  1
  S  S20  1  0.02704500  0.36389800  0.84794000  1
  S  S21  1  0.52704500  0.63610200  0.65206000  1
  S  S22  1  0.97295500  0.63610200  0.15206000  1
  S  S23  1  0.47295500  0.36389800  0.34794000  1
  S  S24  1  0.94947000  0.13752500  0.93938400  1
  S  S25  1  0.44947000  0.86247500  0.56061600  1
  S  S26  1  0.05053000  0.86247500  0.06061600  1
  S  S27  1  0.55053000  0.13752500  0.43938400  1
  S  S28  1  0.51334400  0.34593500  0.83067800  1
  S  S29  1  0.01334400  0.65406500  0.66932200  1
  S  S30  1  0.48665600  0.65406500  0.16932200  1
  S  S31  1  0.98665600  0.34593500  0.33067800  1
  S  S32  1  0.59420000  0.13018700  0.93442100  1
  S  S33  1  0.09420000  0.86981300  0.56557900  1
  S  S34  1  0.40580000  0.86981300  0.06557900  1
  S  S35  1  0.90580000  0.13018700  0.43442100  1
  I  I0  1  0.76712200  0.43457700  0.70051700  1
  I  I1  1  0.26712200  0.56542300  0.79948300  1
  I  I2  1  0.23287800  0.56542300  0.29948300  1
  I  I3  1  0.73287800  0.43457700  0.20051700  1
  I  I4  1  0.77805700  0.71943900  0.37551600  1
  I  I5  1  0.27805700  0.28056100  0.12448400  1
  I  I6  1  0.22194300  0.28056100  0.62448400  1
  I  I7  1  0.72194300  0.71943900  0.87551600  1
loop_
_geom_bond_atom_site_label_1
_geom_bond_atom_site_label_2
_geom_bond_distance
_geom_bond_site_symmetry_2
Cu0 P0 2.259227 1_555
Cu0 S16 2.320547 1_555
Cu0 S12 2.330454 1_555
Cu0 I0 2.650957 1_555
Cu1 P1 2.259227 1_555
Cu1 S17 2.320547 1_556
Cu1 S13 2.330454 1_555
Cu1 I1 2.650957 1_555
Cu2 P2 2.259227 1_555
Cu2 S18 2.320547 1_555
Cu2 S14 2.330454 1_555
Cu2 I2 2.650957 1_555
Cu3 P3 2.259227 1_555
Cu3 S19 2.320547 1_554
Cu3 S15 2.330454 1_555
Cu3 I3 2.650957 1_555
Cu4 P8 2.277039 1_555
Cu4 P4 2.281618 1_555
Cu4 S4 2.364077 1_555
Cu4 I0 2.621818 1_555
Cu5 P9 2.277039 1_555
Cu5 P5 2.281618 1_555
Cu5 S5 2.364077 1_555
Cu5 I1 2.621818 1_555
Cu6 P10 2.277039 1_555
Cu6 P6 2.281618 1_555
Cu6 S6 2.364077 1_555
Cu6 I2 2.621818 1_555
Cu7 P11 2.277039 1_555
Cu7 P7 2.281618 1_555
Cu7 S7 2.364077 1_555
Cu7 I3 2.621818 1_555
As0 S0 2.280810 1_555
As1 S1 2.280810 1_555
As2 S2 2.280810 1_555
As3 S3 2.280810 1_555
As4 S4 2.319723 1_565
As5 S5 2.319723 1_545
As6 S6 2.319723 1_545
As7 S7 2.319723 1_565
As8 S8 2.276032 1_565
As9 S9 2.276032 1_545
As10 S10 2.276032 1_545
As11 S11 2.276032 1_565
As12 S12 2.304357 1_555
As13 S13 2.304357 1_655
As14 S14 2.304357 1_555
As15 S15 2.304357 1_455
As16 S16 2.297397 1_555
As17 S17 2.297397 1_556
As18 S18 2.297397 1_555
As19 S19 2.297397 1_554
As20 S20 2.282466 1_555
As21 S21 2.282466 1_555
As22 S22 2.282466 1_555
As23 S23 2.282466 1_555
As24 S24 2.274379 1_454
As25 S25 2.274379 1_555
As26 S26 2.274379 1_656
As27 S27 2.274379 1_555
As28 S28 2.279576 1_555
As29 S29 2.279576 1_655
As30 S30 2.279576 1_555
As31 S31 2.279576 1_455
As32 S32 2.278887 1_554
As33 S33 2.278887 1_655
As34 S34 2.278887 1_556
As35 S35 2.278887 1_455
P0 S8 2.094696 1_555
P0 S0 2.101702 1_545
P0 S4 2.137447 1_555
P1 S9 2.094696 1_555
P1 S1 2.101702 1_565
P1 S5 2.137447 1_555
P2 S10 2.094696 1_555
P2 S2 2.101702 1_565
P2 S6 2.137447 1_555
P3 S11 2.094696 1_555
P3 S3 2.101702 1_545
P3 S7 2.137447 1_555
P4 S20 2.088227 1_655
P4 S24 2.092274 1_555
P4 S15 2.136771 1_556
P5 S21 2.088227 1_555
P5 S25 2.092274 1_555
P5 S14 2.136771 1_555
P6 S22 2.088227 1_455
P6 S26 2.092274 1_555
P6 S13 2.136771 1_554
P7 S23 2.088227 1_555
P7 S27 2.092274 1_555
P7 S12 2.136771 1_555
P8 S32 2.085078 1_555
P8 S28 2.094465 1_555
P8 S19 2.139062 1_555
P9 S33 2.085078 1_555
P9 S29 2.094465 1_555
P9 S18 2.139062 1_555
P10 S34 2.085078 1_555
P10 S30 2.094465 1_555
P10 S17 2.139062 1_555
P11 S35 2.085078 1_555
P11 S31 2.094465 1_555
P11 S16 2.139062 1_555
