# generated using pymatgen
data_Na5Fe2P2(CO7)2
_symmetry_space_group_name_H-M   'P 1'
_cell_length_a   5.26777702
_cell_length_b   11.08762551
_cell_length_c   11.29212688
_cell_angle_alpha   106.45497124
_cell_angle_beta   89.36513096
_cell_angle_gamma   90.55709917
_symmetry_Int_Tables_number   1
_chemical_formula_structural   Na5Fe2P2(CO7)2
_chemical_formula_sum   'Na10 Fe4 P4 C4 O28'
_cell_volume   632.47403783
_cell_formula_units_Z   2
loop_
 _symmetry_equiv_pos_site_id
 _symmetry_equiv_pos_as_xyz
  1  'x, y, z'
loop_
 _atom_site_type_symbol
 _atom_site_label
 _atom_site_symmetry_multiplicity
 _atom_site_fract_x
 _atom_site_fract_y
 _atom_site_fract_z
 _atom_site_occupancy
  Na  Na0  1  0.77006200  0.06433400  0.15416200  1
  Na  Na1  1  0.76873100  0.57480700  0.66246400  1
  Na  Na2  1  0.24342600  0.10886500  0.37523100  1
  Na  Na3  1  0.25067100  0.62127800  0.88030300  1
  Na  Na4  1  0.74862500  0.87515500  0.61883500  1
  Na  Na5  1  0.74921300  0.38847200  0.12144900  1
  Na  Na6  1  0.74958300  0.63028600  0.36113700  1
  Na  Na7  1  0.74815400  0.12592300  0.85960200  1
  Na  Na8  1  0.24723900  0.91037000  0.83896400  1
  Na  Na9  1  0.24301100  0.42341400  0.35302000  1
  Fe  Fe0  1  0.78406900  0.71064500  0.05911600  1
  Fe  Fe1  1  0.22399100  0.79839600  0.44552800  1
  Fe  Fe2  1  0.78130300  0.20426700  0.55280300  1
  Fe  Fe3  1  0.21956400  0.30324100  0.94737800  1
  P  P0  1  0.70486700  0.92091400  0.34211400  1
  P  P1  1  0.71595900  0.41445800  0.83340500  1
  P  P2  1  0.28122600  0.08616000  0.66636600  1
  P  P3  1  0.28363800  0.57983600  0.16178900  1
  C  C0  1  0.72888600  0.33867600  0.40499400  1
  C  C1  1  0.73090100  0.84295500  0.90110000  1
  C  C2  1  0.27560200  0.65639100  0.59441700  1
  C  C3  1  0.27527400  0.16561600  0.09216000  1
  O  O0  1  0.31057500  0.11162500  0.17485300  1
  O  O1  1  0.29838700  0.59753200  0.67546400  1
  O  O2  1  0.95208900  0.31117400  0.43936900  1
  O  O3  1  0.95360700  0.81515800  0.93350800  1
  O  O4  1  0.53405100  0.29347800  0.45101500  1
  O  O5  1  0.53162700  0.79906900  0.94330600  1
  O  O6  1  0.76716500  0.87949800  0.20341100  1
  O  O7  1  0.76250400  0.36117100  0.69269600  1
  O  O8  1  0.78511900  0.06439700  0.38928800  1
  O  O9  1  0.78803500  0.55399000  0.87171400  1
  O  O10  1  0.12643900  0.15521700  0.59028100  1
  O  O11  1  0.14472700  0.65157000  0.08494800  1
  O  O12  1  0.41520600  0.91335900  0.36721100  1
  O  O13  1  0.42944800  0.39895000  0.86533500  1
  O  O14  1  0.57277300  0.10631800  0.64510200  1
  O  O15  1  0.57694100  0.59459000  0.15021900  1
  O  O16  1  0.84532800  0.84281400  0.41440500  1
  O  O17  1  0.86683400  0.33785100  0.90678100  1
  O  O18  1  0.22050600  0.94443200  0.63293500  1
  O  O19  1  0.21623400  0.43391400  0.11441900  1
  O  O20  1  0.22290200  0.13868900  0.80801900  1
  O  O21  1  0.20284600  0.61771000  0.30005700  1
  O  O22  1  0.47523800  0.69289800  0.54213900  1
  O  O23  1  0.46670500  0.20649300  0.03632000  1
  O  O24  1  0.05132000  0.68315600  0.55831900  1
  O  O25  1  0.04794700  0.18651300  0.05490400  1
  O  O26  1  0.70848500  0.91652600  0.82940900  1
  O  O27  1  0.70381100  0.40846700  0.33229300  1
loop_
_geom_bond_atom_site_label_1
_geom_bond_atom_site_label_2
_geom_bond_distance
_geom_bond_site_symmetry_2
Na0 O6 2.270330 1_545
Na0 O25 2.453466 1_655
Na0 O0 2.476080 1_555
Na0 O8 2.656938 1_555
Na0 O23 2.844848 1_555
Na0 O0 2.890149 1_655
Na1 O24 2.401875 1_655
Na1 O9 2.441630 1_555
Na1 O7 2.486924 1_555
Na1 O1 2.491385 1_555
Na1 O22 2.654167 1_555
Na1 O1 2.800750 1_655
Na2 O0 2.295021 1_555
Na2 O12 2.334752 1_545
Na2 O10 2.409742 1_555
Na2 O8 2.471767 1_455
Na2 O4 2.498347 1_555
Na2 O2 2.652056 1_455
Na2 O8 2.914205 1_555
Na3 O1 2.264105 1_555
Na3 O11 2.302126 1_556
Na3 O5 2.398877 1_555
Na3 O9 2.536569 1_455
Na3 O3 2.596873 1_455
Na3 O13 2.607243 1_555
Na3 O9 2.927960 1_555
Na4 O16 2.285948 1_555
Na4 O26 2.298263 1_555
Na4 O22 2.426365 1_555
Na4 O18 2.587805 1_655
Na4 O24 2.599820 1_655
Na4 O14 2.669216 1_565
Na4 O18 2.883991 1_555
Na5 O27 2.337586 1_555
Na5 O15 2.401068 1_555
Na5 O17 2.403681 1_554
Na5 O23 2.466665 1_555
Na5 O19 2.511332 1_655
Na5 O25 2.672893 1_655
Na5 O19 2.863209 1_555
Na6 O16 2.312915 1_555
Na6 O27 2.397808 1_555
Na6 O22 2.428627 1_555
Na6 O21 2.472188 1_655
Na6 O15 2.482590 1_555
Na6 O24 2.673709 1_655
Na7 O26 2.256983 1_545
Na7 O17 2.337893 1_555
Na7 O23 2.434862 1_556
Na7 O14 2.552460 1_555
Na7 O20 2.573169 1_655
Na7 O25 2.650699 1_656
Na7 O20 2.846955 1_555
Na8 O3 2.284059 1_455
Na8 O26 2.432094 1_555
Na8 O5 2.460540 1_555
Na8 O18 2.466001 1_555
Na8 O20 2.656231 1_565
Na8 O26 2.843497 1_455
Na9 O2 2.337799 1_455
Na9 O21 2.405193 1_555
Na9 O27 2.438798 1_555
Na9 O4 2.575709 1_555
Na9 O19 2.734815 1_555
Na9 O27 2.851953 1_455
Fe0 O11 2.065993 1_655
Fe0 O6 2.107072 1_555
Fe0 O15 2.145316 1_555
Fe0 O3 2.243922 1_554
Fe0 O5 2.286926 1_554
Fe0 O9 2.326569 1_554
Fe1 O12 2.003847 1_555
Fe1 O16 2.116041 1_455
Fe1 O21 2.204464 1_555
Fe1 O24 2.226171 1_555
Fe1 O22 2.257242 1_555
Fe1 O18 2.271345 1_555
Fe2 O10 1.986713 1_655
Fe2 O7 1.993674 1_555
Fe2 O14 2.016208 1_555
Fe2 O8 2.047517 1_555
Fe2 O2 2.160800 1_555
Fe2 O4 2.167548 1_555
Fe3 O13 1.928278 1_555
Fe3 O17 1.985539 1_455
Fe3 O19 2.027049 1_556
Fe3 O20 2.044243 1_555
Fe3 O23 2.126215 1_556
Fe3 O25 2.193126 1_556
C0 O27 1.286266 1_555
C0 O4 1.303959 1_555
C0 O2 1.307772 1_555
C1 O5 1.294686 1_555
C1 O3 1.298334 1_555
C1 O26 1.308748 1_555
C2 O1 1.272871 1_555
C2 O22 1.315907 1_555
C2 O24 1.317615 1_555
C3 O0 1.259992 1_555
C3 O25 1.317755 1_555
C3 O23 1.326213 1_555
O6 P0 1.534858 1_555
O7 P1 1.547953 1_555
O8 P0 1.582784 1_545
O9 P1 1.528991 1_555
O10 P2 1.545839 1_555
O11 P3 1.528831 1_555
O12 P0 1.554667 1_555
O13 P1 1.567003 1_555
O14 P2 1.575393 1_555
O15 P3 1.560046 1_555
O16 P0 1.545971 1_555
O17 P1 1.570379 1_555
O18 P2 1.539815 1_565
O19 P3 1.591426 1_555
O20 P2 1.567488 1_555
O21 P3 1.553242 1_555
