# generated using pymatgen
data_Sr5Mg
_symmetry_space_group_name_H-M   'P 1'
_cell_length_a   21.23601739
_cell_length_b   21.23601739
_cell_length_c   13.29638800
_cell_angle_alpha   90.00000000
_cell_angle_beta   90.00000000
_cell_angle_gamma   156.98154651
_symmetry_Int_Tables_number   1
_chemical_formula_structural   Sr5Mg
_chemical_formula_sum   'Sr40 Mg8'
_cell_volume   2344.69962165
_cell_formula_units_Z   8
loop_
 _symmetry_equiv_pos_site_id
 _symmetry_equiv_pos_as_xyz
  1  'x, y, z'
loop_
 _atom_site_type_symbol
 _atom_site_label
 _atom_site_symmetry_multiplicity
 _atom_site_fract_x
 _atom_site_fract_y
 _atom_site_fract_z
 _atom_site_occupancy
  Sr  Sr0_0  1  0.49956950  0.00043050  0.00000000  1
  Sr  Sr0_1  1  0.49956950  0.00043050  0.50000000  1
  Sr  Sr0_2  1  0.49956950  0.50043050  0.00000000  1
  Sr  Sr0_3  1  0.49956950  0.50043050  0.50000000  1
  Sr  Sr0_4  1  0.99956950  0.00043050  0.00000000  1
  Sr  Sr0_5  1  0.99956950  0.00043050  0.50000000  1
  Sr  Sr0_6  1  0.99956950  0.50043050  0.00000000  1
  Sr  Sr0_7  1  0.99956950  0.50043050  0.50000000  1
  Sr  Sr1_0  1  0.16285250  0.33714750  0.00000000  1
  Sr  Sr1_1  1  0.16285250  0.33714750  0.50000000  1
  Sr  Sr1_2  1  0.16285250  0.83714750  0.00000000  1
  Sr  Sr1_3  1  0.16285250  0.83714750  0.50000000  1
  Sr  Sr1_4  1  0.66285250  0.33714750  0.00000000  1
  Sr  Sr1_5  1  0.66285250  0.33714750  0.50000000  1
  Sr  Sr1_6  1  0.66285250  0.83714750  0.00000000  1
  Sr  Sr1_7  1  0.66285250  0.83714750  0.50000000  1
  Sr  Sr2_0  1  0.33484000  0.16516000  0.00000000  1
  Sr  Sr2_1  1  0.33484000  0.16516000  0.50000000  1
  Sr  Sr2_2  1  0.33484000  0.66516000  0.00000000  1
  Sr  Sr2_3  1  0.33484000  0.66516000  0.50000000  1
  Sr  Sr2_4  1  0.83484000  0.16516000  0.00000000  1
  Sr  Sr2_5  1  0.83484000  0.16516000  0.50000000  1
  Sr  Sr2_6  1  0.83484000  0.66516000  0.00000000  1
  Sr  Sr2_7  1  0.83484000  0.66516000  0.50000000  1
  Sr  Sr3_0  1  0.21594850  0.28405150  0.25000000  1
  Sr  Sr3_1  1  0.21594850  0.28405150  0.75000000  1
  Sr  Sr3_2  1  0.21594850  0.78405150  0.25000000  1
  Sr  Sr3_3  1  0.21594850  0.78405150  0.75000000  1
  Sr  Sr3_4  1  0.71594850  0.28405150  0.25000000  1
  Sr  Sr3_5  1  0.71594850  0.28405150  0.75000000  1
  Sr  Sr3_6  1  0.71594850  0.78405150  0.25000000  1
  Sr  Sr3_7  1  0.71594850  0.78405150  0.75000000  1
  Sr  Sr4_0  1  0.06366150  0.43633800  0.25000000  1
  Sr  Sr4_1  1  0.06366150  0.43633800  0.75000000  1
  Sr  Sr4_2  1  0.06366150  0.93633800  0.25000000  1
  Sr  Sr4_3  1  0.06366150  0.93633800  0.75000000  1
  Sr  Sr4_4  1  0.56366150  0.43633800  0.25000000  1
  Sr  Sr4_5  1  0.56366150  0.43633800  0.75000000  1
  Sr  Sr4_6  1  0.56366150  0.93633800  0.25000000  1
  Sr  Sr4_7  1  0.56366150  0.93633800  0.75000000  1
  Mg  Mg0_0  1  0.38979450  0.11020550  0.25000000  1
  Mg  Mg0_1  1  0.38979450  0.11020550  0.75000000  1
  Mg  Mg0_2  1  0.38979450  0.61020550  0.25000000  1
  Mg  Mg0_3  1  0.38979450  0.61020550  0.75000000  1
  Mg  Mg0_4  1  0.88979450  0.11020550  0.25000000  1
  Mg  Mg0_5  1  0.88979450  0.11020550  0.75000000  1
  Mg  Mg0_6  1  0.88979450  0.61020550  0.25000000  1
  Mg  Mg0_7  1  0.88979450  0.61020550  0.75000000  1
loop_
_geom_bond_atom_site_label_1
_geom_bond_atom_site_label_2
_geom_bond_distance
_geom_bond_site_symmetry_2
Sr0_0 Sr2_2 4.133066 1_545
Sr0_0 Sr2_4 4.133066 1_555
Sr0_0 Sr3_4 4.182800 1_555
Sr0_0 Sr3_5 4.182800 1_554
Sr0_0 Sr3_2 4.182800 1_545
Sr0_0 Sr3_3 4.182800 1_544
Sr0_0 Sr1_4 4.184870 1_555
Sr0_0 Sr1_2 4.184870 1_545
Sr0_0 Sr0_6 4.237132 1_445
Sr0_0 Sr0_6 4.237132 1_555
Sr0_0 Sr4_7 4.261996 1_544
Sr0_0 Sr4_6 4.261996 1_545
Sr0_1 Sr2_3 4.133066 1_545
Sr0_1 Sr2_5 4.133066 1_555
Sr0_1 Sr3_5 4.182800 1_555
Sr0_1 Sr3_3 4.182800 1_545
Sr0_1 Sr3_4 4.182800 1_555
Sr0_1 Sr3_2 4.182800 1_545
Sr0_1 Sr1_5 4.184870 1_555
Sr0_1 Sr1_3 4.184870 1_545
Sr0_1 Sr0_7 4.237132 1_445
Sr0_1 Sr0_7 4.237132 1_555
Sr0_1 Sr4_6 4.261996 1_545
Sr0_1 Sr4_7 4.261996 1_545
Sr0_2 Sr2_6 4.133066 1_555
Sr0_2 Sr2_0 4.133066 1_555
Sr0_2 Sr3_0 4.182800 1_555
Sr0_2 Sr3_1 4.182800 1_554
Sr0_2 Sr3_6 4.182800 1_555
Sr0_2 Sr3_7 4.182800 1_554
Sr0_2 Sr1_0 4.184870 1_555
Sr0_2 Sr1_6 4.184870 1_555
Sr0_2 Sr0_4 4.237132 1_455
Sr0_2 Sr0_4 4.237132 1_565
Sr0_2 Sr4_5 4.261996 1_554
Sr0_2 Sr4_4 4.261996 1_555
Sr0_3 Sr2_7 4.133066 1_555
Sr0_3 Sr2_1 4.133066 1_555
Sr0_3 Sr3_0 4.182800 1_555
Sr0_3 Sr3_1 4.182800 1_555
Sr0_3 Sr3_6 4.182800 1_555
Sr0_3 Sr3_7 4.182800 1_555
Sr0_3 Sr1_1 4.184870 1_555
Sr0_3 Sr1_7 4.184870 1_555
Sr0_3 Sr0_5 4.237132 1_455
Sr0_3 Sr0_5 4.237132 1_565
Sr0_3 Sr4_5 4.261996 1_555
Sr0_3 Sr4_4 4.261996 1_555
Sr0_4 Sr2_6 4.133066 1_545
Sr0_4 Sr2_0 4.133066 1_655
Sr0_4 Sr3_7 4.182800 1_544
Sr0_4 Sr3_0 4.182800 1_655
Sr0_4 Sr3_6 4.182800 1_545
Sr0_4 Sr3_1 4.182800 1_654
Sr0_4 Sr1_0 4.184870 1_655
Sr0_4 Sr1_6 4.184870 1_545
Sr0_4 Sr4_2 4.261996 1_645
Sr0_4 Sr4_3 4.261996 1_644
Sr0_5 Sr2_7 4.133066 1_545
Sr0_5 Sr2_1 4.133066 1_655
Sr0_5 Sr3_7 4.182800 1_545
Sr0_5 Sr3_0 4.182800 1_655
Sr0_5 Sr3_1 4.182800 1_655
Sr0_5 Sr3_6 4.182800 1_545
Sr0_5 Sr1_1 4.184870 1_655
Sr0_5 Sr1_7 4.184870 1_545
Sr0_5 Sr4_2 4.261996 1_645
Sr0_5 Sr4_3 4.261996 1_645
Sr0_6 Sr2_2 4.133066 1_655
Sr0_6 Sr2_4 4.133066 1_555
Sr0_6 Sr3_3 4.182800 1_654
Sr0_6 Sr3_2 4.182800 1_655
Sr0_6 Sr3_4 4.182800 1_555
Sr0_6 Sr3_5 4.182800 1_554
Sr0_6 Sr1_2 4.184870 1_655
Sr0_6 Sr1_4 4.184870 1_555
Sr0_6 Sr4_1 4.261996 1_654
Sr0_6 Sr4_0 4.261996 1_655
Sr0_7 Sr2_3 4.133066 1_655
Sr0_7 Sr2_5 4.133066 1_555
Sr0_7 Sr3_5 4.182800 1_555
Sr0_7 Sr3_2 4.182800 1_655
Sr0_7 Sr3_4 4.182800 1_555
Sr0_7 Sr3_3 4.182800 1_655
Sr0_7 Sr1_3 4.184870 1_655
Sr0_7 Sr1_5 4.184870 1_555
Sr0_7 Sr4_0 4.261996 1_655
Sr0_7 Sr4_1 4.261996 1_655
Sr1_0 Sr2_4 3.876797 1_455
Sr1_0 Sr2_2 3.876797 1_555
Sr1_0 Sr3_0 3.991569 1_555
Sr1_0 Sr3_1 3.991569 1_554
Sr1_0 Sr1_6 4.237132 1_555
Sr1_0 Sr1_6 4.237132 1_445
Sr1_1 Sr2_5 3.876797 1_455
Sr1_1 Sr2_3 3.876797 1_555
Sr1_1 Sr3_0 3.991569 1_555
Sr1_1 Sr3_1 3.991569 1_555
Sr1_1 Sr1_7 4.237132 1_555
Sr1_1 Sr1_7 4.237132 1_445
Sr1_2 Sr2_6 3.876797 1_455
Sr1_2 Sr2_0 3.876797 1_565
Sr1_2 Sr3_2 3.991569 1_555
Sr1_2 Sr3_3 3.991569 1_554
Sr1_2 Sr1_4 4.237132 1_565
Sr1_2 Sr1_4 4.237132 1_455
Sr1_3 Sr2_7 3.876797 1_455
Sr1_3 Sr2_1 3.876797 1_565
Sr1_3 Sr3_2 3.991569 1_555
Sr1_3 Sr3_3 3.991569 1_555
Sr1_3 Sr1_5 4.237132 1_455
Sr1_3 Sr1_5 4.237132 1_565
Sr1_4 Sr2_0 3.876797 1_555
Sr1_4 Sr2_6 3.876797 1_555
Sr1_4 Sr3_4 3.991569 1_555
Sr1_4 Sr3_5 3.991569 1_554
Sr1_5 Sr2_1 3.876797 1_555
Sr1_5 Sr2_7 3.876797 1_555
Sr1_5 Sr3_4 3.991569 1_555
Sr1_5 Sr3_5 3.991569 1_555
Sr1_6 Sr2_2 3.876797 1_555
Sr1_6 Sr2_4 3.876797 1_565
Sr1_6 Sr3_7 3.991569 1_554
Sr1_6 Sr3_6 3.991569 1_555
Sr1_7 Sr2_3 3.876797 1_555
Sr1_7 Sr2_5 3.876797 1_565
Sr1_7 Sr3_7 3.991569 1_555
Sr1_7 Sr3_6 3.991569 1_555
Sr2_0 Sr4_4 4.039158 1_555
Sr2_0 Sr4_5 4.039158 1_554
Sr2_0 Sr4_2 4.039160 1_545
Sr2_0 Sr4_3 4.039160 1_544
Sr2_0 Sr2_6 4.237132 1_445
Sr2_0 Sr2_6 4.237132 1_555
Sr2_1 Sr4_5 4.039158 1_555
Sr2_1 Sr4_4 4.039158 1_555
Sr2_1 Sr4_3 4.039160 1_545
Sr2_1 Sr4_2 4.039160 1_545
Sr2_1 Sr2_7 4.237132 1_445
Sr2_1 Sr2_7 4.237132 1_555
Sr2_2 Sr4_6 4.039158 1_555
Sr2_2 Sr4_7 4.039158 1_554
Sr2_2 Sr4_0 4.039160 1_555
Sr2_2 Sr4_1 4.039160 1_554
Sr2_2 Sr2_4 4.237132 1_455
Sr2_2 Sr2_4 4.237132 1_565
Sr2_3 Sr4_6 4.039158 1_555
Sr2_3 Sr4_7 4.039158 1_555
Sr2_3 Sr4_0 4.039160 1_555
Sr2_3 Sr4_1 4.039160 1_555
Sr2_3 Sr2_5 4.237132 1_455
Sr2_3 Sr2_5 4.237132 1_565
Sr2_4 Sr4_1 4.039158 1_654
Sr2_4 Sr4_0 4.039158 1_655
Sr2_4 Sr4_7 4.039160 1_544
Sr2_4 Sr4_6 4.039160 1_545
Sr2_5 Sr4_1 4.039158 1_655
Sr2_5 Sr4_0 4.039158 1_655
Sr2_5 Sr4_7 4.039160 1_545
Sr2_5 Sr4_6 4.039160 1_545
Sr2_6 Sr4_3 4.039158 1_654
Sr2_6 Sr4_2 4.039158 1_655
Sr2_6 Sr4_4 4.039160 1_555
Sr2_6 Sr4_5 4.039160 1_554
Sr2_7 Sr4_2 4.039158 1_655
Sr2_7 Sr4_3 4.039158 1_655
Sr2_7 Sr4_4 4.039160 1_555
Sr2_7 Sr4_5 4.039160 1_555
Mg0_0 Sr4_4 3.811519 1_555
Mg0_0 Sr4_2 3.811521 1_545
Mg0_0 Sr3_2 3.812255 1_545
Mg0_0 Sr3_4 3.812255 1_555
Mg0_0 Sr2_1 4.034903 1_555
Mg0_0 Sr2_0 4.034903 1_555
Mg0_0 Sr1_4 4.056948 1_555
Mg0_0 Sr1_5 4.056948 1_555
Mg0_0 Sr1_2 4.056948 1_545
Mg0_0 Sr1_3 4.056948 1_545
Mg0_1 Sr4_5 3.811519 1_555
Mg0_1 Sr4_3 3.811521 1_545
Mg0_1 Sr3_3 3.812255 1_545
Mg0_1 Sr3_5 3.812255 1_555
Mg0_1 Sr2_1 4.034903 1_555
Mg0_1 Sr2_0 4.034903 1_556
Mg0_1 Sr1_4 4.056948 1_556
Mg0_1 Sr1_5 4.056948 1_555
Mg0_1 Sr1_2 4.056948 1_546
Mg0_1 Sr1_3 4.056948 1_545
Mg0_2 Sr4_6 3.811519 1_555
Mg0_2 Sr4_0 3.811521 1_555
Mg0_2 Sr3_6 3.812255 1_555
Mg0_2 Sr3_0 3.812255 1_555
Mg0_2 Sr2_2 4.034903 1_555
Mg0_2 Sr2_3 4.034903 1_555
Mg0_2 Sr1_7 4.056948 1_555
Mg0_2 Sr1_6 4.056948 1_555
Mg0_2 Sr1_1 4.056948 1_555
Mg0_2 Sr1_0 4.056948 1_555
Mg0_3 Sr4_7 3.811519 1_555
Mg0_3 Sr4_1 3.811521 1_555
Mg0_3 Sr3_7 3.812255 1_555
Mg0_3 Sr3_1 3.812255 1_555
Mg0_3 Sr2_2 4.034903 1_556
Mg0_3 Sr2_3 4.034903 1_555
Mg0_3 Sr1_7 4.056948 1_555
Mg0_3 Sr1_6 4.056948 1_556
Mg0_3 Sr1_1 4.056948 1_555
Mg0_3 Sr1_0 4.056948 1_556
Mg0_4 Sr4_0 3.811519 1_655
Mg0_4 Sr4_6 3.811521 1_545
Mg0_4 Sr3_6 3.812255 1_545
Mg0_4 Sr3_0 3.812255 1_655
Mg0_4 Sr2_5 4.034903 1_555
Mg0_4 Sr2_4 4.034903 1_555
Mg0_4 Sr1_0 4.056948 1_655
Mg0_4 Sr1_1 4.056948 1_655
Mg0_4 Sr1_6 4.056948 1_545
Mg0_4 Sr1_7 4.056948 1_545
Mg0_5 Sr4_1 3.811519 1_655
Mg0_5 Sr4_7 3.811521 1_545
Mg0_5 Sr3_7 3.812255 1_545
Mg0_5 Sr3_1 3.812255 1_655
Mg0_5 Sr2_5 4.034903 1_555
Mg0_5 Sr2_4 4.034903 1_556
Mg0_5 Sr1_0 4.056948 1_656
Mg0_5 Sr1_1 4.056948 1_655
Mg0_5 Sr1_6 4.056948 1_546
Mg0_5 Sr1_7 4.056948 1_545
Mg0_6 Sr4_2 3.811519 1_655
Mg0_6 Sr4_4 3.811521 1_555
Mg0_6 Sr3_2 3.812255 1_655
Mg0_6 Sr3_4 3.812255 1_555
Mg0_6 Sr2_7 4.034903 1_555
Mg0_6 Sr2_6 4.034903 1_555
Mg0_6 Sr1_2 4.056948 1_655
Mg0_6 Sr1_3 4.056948 1_655
Mg0_6 Sr1_4 4.056948 1_555
Mg0_6 Sr1_5 4.056948 1_555
Mg0_7 Sr4_3 3.811519 1_655
Mg0_7 Sr4_5 3.811521 1_555
Mg0_7 Sr3_3 3.812255 1_655
Mg0_7 Sr3_5 3.812255 1_555
Mg0_7 Sr2_6 4.034903 1_556
Mg0_7 Sr2_7 4.034903 1_555
Mg0_7 Sr1_2 4.056948 1_656
Mg0_7 Sr1_3 4.056948 1_655
Mg0_7 Sr1_4 4.056948 1_556
Mg0_7 Sr1_5 4.056948 1_555
