# generated using pymatgen
data_LiNi2O3
_symmetry_space_group_name_H-M   'P 1'
_cell_length_a   5.04982793
_cell_length_b   5.10611106
_cell_length_c   9.75220036
_cell_angle_alpha   95.33286229
_cell_angle_beta   100.83702468
_cell_angle_gamma   60.36592081
_symmetry_Int_Tables_number   1
_chemical_formula_structural   LiNi2O3
_chemical_formula_sum   'Li4 Ni8 O12'
_cell_volume   214.67157312
_cell_formula_units_Z   4
loop_
 _symmetry_equiv_pos_site_id
 _symmetry_equiv_pos_as_xyz
  1  'x, y, z'
loop_
 _atom_site_type_symbol
 _atom_site_label
 _atom_site_symmetry_multiplicity
 _atom_site_fract_x
 _atom_site_fract_y
 _atom_site_fract_z
 _atom_site_occupancy
  Li  Li0  1  0.90772000  0.67700800  0.75141100  1
  Li  Li1  1  0.41806800  0.65634100  0.25141700  1
  Li  Li2  1  0.25041800  0.99785900  0.74928000  1
  Li  Li3  1  0.08158300  0.33548700  0.24928800  1
  Ni  Ni0  1  0.16660700  0.66681200  0.50027200  1
  Ni  Ni1  1  0.66671400  0.66647600  0.00029600  1
  Ni  Ni2  1  0.49894200  0.00140600  0.50002400  1
  Ni  Ni3  1  0.33361000  0.33189800  0.00001200  1
  Ni  Ni4  1  0.58027900  0.34168100  0.74995000  1
  Ni  Ni5  1  0.75526800  0.99170700  0.25000500  1
  Ni  Ni6  1  0.83351700  0.33483700  0.49957900  1
  Ni  Ni7  1  0.00163300  0.99850700  0.99958600  1
  O  O0  1  0.93143600  0.36260300  0.88434500  1
  O  O1  1  0.19513700  0.36139300  0.61462100  1
  O  O2  1  0.12734200  0.97078200  0.38435500  1
  O  O3  1  0.38982800  0.97185700  0.11461900  1
  O  O4  1  0.63536400  0.01407800  0.87633700  1
  O  O5  1  0.86357600  0.03412700  0.62052100  1
  O  O6  1  0.48270500  0.31933500  0.37634700  1
  O  O7  1  0.73095000  0.29914800  0.12053700  1
  O  O8  1  0.30265700  0.67911100  0.88732600  1
  O  O9  1  0.51520600  0.66782200  0.61627700  1
  O  O10  1  0.81516700  0.65422900  0.38732500  1
  O  O11  1  0.01627600  0.66549900  0.11627200  1
loop_
_geom_bond_atom_site_label_1
_geom_bond_atom_site_label_2
_geom_bond_distance
_geom_bond_site_symmetry_2
Li0 O4 2.058519 1_565
Li0 O0 2.100145 1_555
Li0 O1 2.120995 1_655
Li0 O8 2.181508 1_655
Li0 O9 2.183110 1_555
Li0 O5 2.219876 1_565
Li1 O6 2.058333 1_555
Li1 O2 2.100410 1_555
Li1 O3 2.120471 1_555
Li1 O10 2.181700 1_555
Li1 O11 2.183585 1_555
Li1 O7 2.219874 1_555
Li2 O5 2.047003 1_465
Li2 O9 2.080320 1_555
Li2 O8 2.092869 1_555
Li2 O4 2.134332 1_565
Li2 O1 2.247431 1_565
Li2 O0 2.274502 1_465
Li3 O7 2.047369 1_455
Li3 O11 2.080111 1_555
Li3 O10 2.092706 1_455
Li3 O6 2.134292 1_555
Li3 O3 2.247785 1_545
Li3 O2 2.274258 1_545
Ni0 O9 1.907297 1_555
Ni0 O2 1.914097 1_555
Ni0 O10 1.931716 1_455
Ni0 O1 1.933142 1_555
Ni0 O5 2.159229 1_465
Ni0 O6 2.163936 1_555
Ni1 O11 1.907053 1_655
Ni1 O0 1.914226 1_554
Ni1 O8 1.931846 1_554
Ni1 O3 1.932982 1_555
Ni1 O7 2.159239 1_555
Ni1 O4 2.164644 1_564
Ni2 O5 2.062382 1_555
Ni2 O2 2.068727 1_545
Ni2 O6 2.071704 1_555
Ni2 O9 2.092597 1_545
Ni2 O10 2.097347 1_545
Ni2 O1 2.110802 1_555
Ni3 O7 2.062380 1_555
Ni3 O0 2.068362 1_454
Ni3 O4 2.071722 1_554
Ni3 O11 2.092797 1_555
Ni3 O8 2.097336 1_554
Ni3 O3 2.110932 1_545
Ni4 O0 2.039877 1_555
Ni4 O4 2.046683 1_555
Ni4 O5 2.048125 1_555
Ni4 O9 2.069280 1_555
Ni4 O1 2.097721 1_555
Ni4 O8 2.148801 1_555
Ni5 O2 2.039646 1_655
Ni5 O6 2.046625 1_565
Ni5 O7 2.047701 1_565
Ni5 O11 2.069801 1_655
Ni5 O3 2.098313 1_555
Ni5 O10 2.148365 1_555
Ni6 O5 1.952076 1_555
Ni6 O6 1.977199 1_555
Ni6 O10 2.002736 1_555
Ni6 O1 2.014444 1_655
Ni6 O9 2.096502 1_555
Ni6 O2 2.104953 1_645
Ni7 O7 1.952152 1_466
Ni7 O4 1.976962 1_465
Ni7 O8 2.002827 1_555
Ni7 O3 2.014320 1_556
Ni7 O11 2.096510 1_556
Ni7 O0 2.105199 1_465
