# generated using pymatgen
data_Sb8Cl2O11
_symmetry_space_group_name_H-M   'P 1'
_cell_length_a   4.21523200
_cell_length_b   9.16309455
_cell_length_c   11.47414414
_cell_angle_alpha   82.32102950
_cell_angle_beta   86.84209477
_cell_angle_gamma   79.99249290
_symmetry_Int_Tables_number   1
_chemical_formula_structural   Sb8Cl2O11
_chemical_formula_sum   'Sb8 Cl2 O11'
_cell_volume   432.29632482
_cell_formula_units_Z   1
loop_
 _symmetry_equiv_pos_site_id
 _symmetry_equiv_pos_as_xyz
  1  'x, y, z'
loop_
 _atom_site_type_symbol
 _atom_site_label
 _atom_site_symmetry_multiplicity
 _atom_site_fract_x
 _atom_site_fract_y
 _atom_site_fract_z
 _atom_site_occupancy
  Sb  Sb0  1  0.68282600  0.52380900  0.86209100  1
  Sb  Sb1  1  0.31717400  0.47619100  0.13790900  1
  Sb  Sb2  1  0.27925200  0.05251800  0.68191300  1
  Sb  Sb3  1  0.72074800  0.94748200  0.31808700  1
  Sb  Sb4  1  0.86602500  0.85950900  0.93735200  1
  Sb  Sb5  1  0.13397500  0.14049100  0.06264800  1
  Sb  Sb6  1  0.24011600  0.44697100  0.65083200  1
  Sb  Sb7  1  0.75988400  0.55302900  0.34916800  1
  Cl  Cl0  1  0.92129800  0.18976600  0.51586000  1
  Cl  Cl1  1  0.07870200  0.81023400  0.48414000  1
  O  O0  1  0.73102200  0.48654900  0.69346900  1
  O  O1  1  0.26897800  0.51345100  0.30653100  1
  O  O2  1  0.19887300  0.53729900  0.80579000  1
  O  O3  1  0.80112700  0.46270100  0.19421000  1
  O  O4  1  0.91752400  0.99831100  0.78983400  1
  O  O5  1  0.08247600  0.00168900  0.21016600  1
  O  O6  1  0.58605500  0.74766400  0.85912300  1
  O  O7  1  0.41394500  0.25233600  0.14087700  1
  O  O8  1  0.50000000  0.00000000  0.00000000  1
  O  O9  1  0.28602100  0.24310800  0.74403900  1
  O  O10  1  0.71397900  0.75689200  0.25596100  1
loop_
_geom_bond_atom_site_label_1
_geom_bond_atom_site_label_2
_geom_bond_distance
_geom_bond_site_symmetry_2
Cl0 Sb2 2.550560 1_655
Cl1 Sb3 2.550560 1_455
O0 Sb0 2.002594 1_555
O0 Sb6 2.153421 1_655
O0 Sb6 2.252234 1_555
O1 Sb1 2.002594 1_555
O1 Sb7 2.153421 1_455
O1 Sb7 2.252234 1_555
O2 Sb6 2.045929 1_555
O2 Sb0 2.151816 1_555
O2 Sb0 2.254249 1_455
O3 Sb7 2.045929 1_555
O3 Sb1 2.151816 1_555
O3 Sb1 2.254249 1_655
O4 Sb2 1.998961 1_665
O4 Sb4 2.002481 1_555
O5 Sb3 1.998961 1_445
O5 Sb5 2.002481 1_555
O6 Sb4 2.007896 1_555
O6 Sb0 2.016693 1_555
O7 Sb5 2.007896 1_555
O7 Sb1 2.016693 1_555
O8 Sb5 1.997303 1_555
O8 Sb4 1.997303 1_544
O9 Sb2 1.977651 1_555
O9 Sb6 2.008474 1_555
O10 Sb3 1.977651 1_555
O10 Sb7 2.008474 1_555
