# generated using pymatgen
data_Ce3Sb4Pt7
_symmetry_space_group_name_H-M   'P 1'
_cell_length_a   4.36724200
_cell_length_b   8.54997349
_cell_length_c   8.61185707
_cell_angle_alpha   73.67192394
_cell_angle_beta   75.31172816
_cell_angle_gamma   75.20299745
_symmetry_Int_Tables_number   1
_chemical_formula_structural   Ce3Sb4Pt7
_chemical_formula_sum   'Ce3 Sb4 Pt7'
_cell_volume   292.58079395
_cell_formula_units_Z   1
loop_
 _symmetry_equiv_pos_site_id
 _symmetry_equiv_pos_as_xyz
  1  'x, y, z'
loop_
 _atom_site_type_symbol
 _atom_site_label
 _atom_site_symmetry_multiplicity
 _atom_site_fract_x
 _atom_site_fract_y
 _atom_site_fract_z
 _atom_site_occupancy
  Ce  Ce0  1  0.82875500  0.68427100  0.65821800  1
  Ce  Ce1  1  0.17124500  0.31572900  0.34178200  1
  Ce  Ce2  1  0.50000000  0.00000000  0.00000000  1
  Sb  Sb0  1  0.63547700  0.59511400  0.13393200  1
  Sb  Sb1  1  0.36452300  0.40488600  0.86606800  1
  Sb  Sb2  1  0.82578000  0.03452300  0.31391700  1
  Sb  Sb3  1  0.17422000  0.96547700  0.68608300  1
  Pt  Pt0  1  0.82547000  0.28743500  0.06162400  1
  Pt  Pt1  1  0.17453000  0.71256500  0.93837600  1
  Pt  Pt2  1  0.01085100  0.68418700  0.29411200  1
  Pt  Pt3  1  0.98914900  0.31581300  0.70588800  1
  Pt  Pt4  1  0.62534200  0.14784300  0.60147300  1
  Pt  Pt5  1  0.37465800  0.85215700  0.39852700  1
  Pt  Pt6  1  0.50000000  0.50000000  0.50000000  1
loop_
_geom_bond_atom_site_label_1
_geom_bond_atom_site_label_2
_geom_bond_distance
_geom_bond_site_symmetry_2
Ce0 Pt3 2.979112 1_555
Ce0 Pt2 3.033316 1_655
Ce0 Pt6 3.123254 1_555
Ce0 Pt6 3.123256 1_655
Ce0 Pt5 3.159906 1_555
Ce0 Pt5 3.159909 1_655
Ce0 Sb3 3.236569 1_555
Ce0 Sb3 3.236572 1_655
Ce0 Pt1 3.243801 1_555
Ce0 Pt1 3.243808 1_655
Ce0 Sb1 3.354057 1_555
Ce0 Sb1 3.354059 1_655
Ce0 Sb2 3.573060 1_565
Ce1 Pt2 2.979112 1_555
Ce1 Pt3 3.033316 1_455
Ce1 Pt6 3.123254 1_555
Ce1 Pt6 3.123256 1_455
Ce1 Pt4 3.159906 1_555
Ce1 Pt4 3.159909 1_455
Ce1 Sb2 3.236569 1_555
Ce1 Sb2 3.236572 1_455
Ce1 Pt0 3.243801 1_555
Ce1 Pt0 3.243808 1_455
Ce1 Sb0 3.354057 1_555
Ce1 Sb0 3.354059 1_455
Ce1 Sb3 3.573060 1_545
Ce2 Pt4 3.261578 1_554
Ce2 Pt5 3.261578 1_545
Ce2 Sb0 3.273994 1_545
Ce2 Sb1 3.273994 1_554
Ce2 Pt1 3.352880 1_544
Ce2 Pt0 3.352880 1_555
Ce2 Pt0 3.352882 1_455
Ce2 Pt1 3.352882 1_644
Ce2 Sb3 3.468935 1_644
Ce2 Sb2 3.468935 1_455
Ce2 Sb3 3.468935 1_544
Ce2 Sb2 3.468935 1_555
Ce2 Pt2 3.824503 1_545
Ce2 Pt3 3.824503 1_554
Ce2 Pt2 3.824505 1_645
Ce2 Pt3 3.824505 1_454
Pt0 Sb2 2.599020 1_555
Pt0 Sb0 2.746026 1_555
Pt0 Sb1 2.762755 1_554
Pt0 Sb1 2.762758 1_654
Pt0 Pt3 2.918094 1_554
Pt1 Sb3 2.599020 1_555
Pt1 Sb1 2.746026 1_555
Pt1 Sb0 2.762755 1_556
Pt1 Sb0 2.762758 1_456
Pt1 Pt2 2.918094 1_556
Pt2 Sb0 2.746911 1_555
Pt2 Sb0 2.746914 1_455
Pt2 Pt5 2.830478 1_555
Pt2 Pt5 2.830481 1_455
Pt2 Sb2 2.938585 1_465
Pt2 Pt6 2.969803 1_555
Pt2 Pt6 2.969806 1_455
Pt3 Sb1 2.746911 1_555
Pt3 Sb1 2.746914 1_655
Pt3 Pt4 2.830478 1_555
Pt3 Pt4 2.830481 1_655
Pt3 Sb3 2.938585 1_645
Pt3 Pt6 2.969803 1_555
Pt3 Pt6 2.969806 1_655
Pt4 Sb3 2.654417 1_645
Pt4 Sb3 2.654417 1_545
Pt4 Sb2 2.766599 1_555
Pt4 Pt6 2.837303 1_555
Pt5 Sb2 2.654417 1_465
Pt5 Sb2 2.654417 1_565
Pt5 Sb3 2.766599 1_555
Pt5 Pt6 2.837303 1_555
Pt6 Sb1 2.967858 1_555
Pt6 Sb0 2.967858 1_555
