# generated using pymatgen
data_RbC10
_symmetry_space_group_name_H-M   'P 1'
_cell_length_a   10.16922190
_cell_length_b   10.16922190
_cell_length_c   10.16922190
_cell_angle_alpha   109.47122063
_cell_angle_beta   109.47122063
_cell_angle_gamma   109.47122063
_symmetry_Int_Tables_number   1
_chemical_formula_structural   RbC10
_chemical_formula_sum   'Rb6 C60'
_cell_volume   809.54553376
_cell_formula_units_Z   6
loop_
 _symmetry_equiv_pos_site_id
 _symmetry_equiv_pos_as_xyz
  1  'x, y, z'
loop_
 _atom_site_type_symbol
 _atom_site_label
 _atom_site_symmetry_multiplicity
 _atom_site_fract_x
 _atom_site_fract_y
 _atom_site_fract_z
 _atom_site_occupancy
  Rb  Rb0  1  0.27852700  0.50000000  0.77852700  1
  Rb  Rb1  1  0.50000000  0.77852700  0.27852700  1
  Rb  Rb2  1  0.22147300  0.72147300  0.50000000  1
  Rb  Rb3  1  0.50000000  0.22147300  0.72147300  1
  Rb  Rb4  1  0.77852700  0.27852700  0.50000000  1
  Rb  Rb5  1  0.72147300  0.50000000  0.22147300  1
  C  C0  1  0.35930300  0.06097400  0.29832900  1
  C  C1  1  0.93902600  0.29832900  0.23735600  1
  C  C2  1  0.70167100  0.64069700  0.93902600  1
  C  C3  1  0.06097400  0.70167100  0.76264400  1
  C  C4  1  0.29832900  0.23735600  0.93902600  1
  C  C5  1  0.93902600  0.70167100  0.64069700  1
  C  C6  1  0.70167100  0.76264400  0.06097400  1
  C  C7  1  0.29832900  0.35930300  0.06097400  1
  C  C8  1  0.06097400  0.29832900  0.35930300  1
  C  C9  1  0.23735600  0.93902600  0.29832900  1
  C  C10  1  0.64069700  0.93902600  0.70167100  1
  C  C11  1  0.76264400  0.06097400  0.70167100  1
  C  C12  1  0.38222400  0.22230800  0.35958000  1
  C  C13  1  0.77769200  0.15991600  0.13727300  1
  C  C14  1  0.84008400  0.61777600  0.97735600  1
  C  C15  1  0.02264400  0.64042000  0.86272800  1
  C  C16  1  0.15991600  0.13727200  0.77769200  1
  C  C17  1  0.97735600  0.84008400  0.61777600  1
  C  C18  1  0.64042000  0.86272700  0.02264400  1
  C  C19  1  0.35958000  0.38222400  0.22230800  1
  C  C20  1  0.22230800  0.35958000  0.38222400  1
  C  C21  1  0.13727200  0.77769200  0.15991600  1
  C  C22  1  0.61777600  0.97735600  0.84008400  1
  C  C23  1  0.86272800  0.02264400  0.64042000  1
  C  C24  1  0.61777600  0.77769200  0.64042000  1
  C  C25  1  0.22230800  0.84008400  0.86272800  1
  C  C26  1  0.15991600  0.38222400  0.02264400  1
  C  C27  1  0.97735600  0.35958000  0.13727300  1
  C  C28  1  0.84008400  0.86272700  0.22230800  1
  C  C29  1  0.02264400  0.15991600  0.38222400  1
  C  C30  1  0.35958000  0.13727200  0.97735600  1
  C  C31  1  0.64042000  0.61777600  0.77769200  1
  C  C32  1  0.77769200  0.64042000  0.61777600  1
  C  C33  1  0.86272800  0.22230800  0.84008400  1
  C  C34  1  0.38222400  0.02264400  0.15991600  1
  C  C35  1  0.13727200  0.97735600  0.35958000  1
  C  C36  1  0.28330000  0.25938100  0.41950800  1
  C  C37  1  0.74061900  0.02391900  0.16012700  1
  C  C38  1  0.97608100  0.71670000  0.13620800  1
  C  C39  1  0.86379200  0.58049200  0.83987300  1
  C  C40  1  0.02391900  0.16012700  0.74061900  1
  C  C41  1  0.13620800  0.97608100  0.71670000  1
  C  C42  1  0.58049200  0.83987300  0.86379200  1
  C  C43  1  0.41950800  0.28330000  0.25938100  1
  C  C44  1  0.25938100  0.41950800  0.28330000  1
  C  C45  1  0.16012700  0.74061900  0.02391900  1
  C  C46  1  0.71670000  0.13620800  0.97608100  1
  C  C47  1  0.83987300  0.86379200  0.58049200  1
  C  C48  1  0.71670000  0.74061900  0.58049200  1
  C  C49  1  0.25938100  0.97608100  0.83987300  1
  C  C50  1  0.02391900  0.28330000  0.86379200  1
  C  C51  1  0.13620800  0.41950800  0.16012700  1
  C  C52  1  0.97608100  0.83987300  0.25938100  1
  C  C53  1  0.86379200  0.02391900  0.28330000  1
  C  C54  1  0.41950800  0.16012700  0.13620800  1
  C  C55  1  0.58049200  0.71670000  0.74061900  1
  C  C56  1  0.74061900  0.58049200  0.71670000  1
  C  C57  1  0.83987300  0.25938100  0.97608100  1
  C  C58  1  0.28330000  0.86379200  0.02391900  1
  C  C59  1  0.16012700  0.13620800  0.41950800  1
loop_
_geom_bond_atom_site_label_1
_geom_bond_atom_site_label_2
_geom_bond_distance
_geom_bond_site_symmetry_2
C0 C9 1.431957 1_545
C0 C12 1.449482 1_555
C0 C34 1.449482 1_555
C0 Rb4 3.483370 1_555
C0 Rb3 3.589400 1_555
C0 Rb1 3.589400 1_545
C1 C8 1.431957 1_655
C1 C27 1.449482 1_555
C1 C13 1.449482 1_555
C1 Rb5 3.483371 1_555
C1 Rb4 3.589391 1_555
C1 Rb2 3.589400 1_655
C2 C6 1.431957 1_556
C2 C31 1.449482 1_555
C2 Rb3 3.483370 1_555
C2 Rb0 3.589400 1_555
C2 Rb5 3.589400 1_556
C3 C5 1.431957 1_455
C3 Rb0 3.483371 1_555
C3 Rb2 3.589391 1_555
C3 Rb4 3.589400 1_455
C4 C7 1.431957 1_556
C4 Rb3 3.483371 1_555
C4 Rb0 3.589391 1_555
C4 Rb5 3.589400 1_556
C5 Rb5 3.483370 1_555
C5 Rb4 3.589400 1_555
C5 Rb2 3.589400 1_655
C6 Rb1 3.483371 1_555
C6 Rb5 3.589391 1_555
C6 Rb0 3.589400 1_554
C7 Rb1 3.483370 1_555
C7 Rb5 3.589400 1_555
C7 Rb0 3.589400 1_554
C8 Rb0 3.483370 1_555
C8 Rb2 3.589400 1_555
C8 Rb4 3.589400 1_455
C9 Rb2 3.483371 1_555
C9 Rb1 3.589391 1_555
C9 Rb3 3.589400 1_565
C10 C11 1.431957 1_565
C10 C24 1.449482 1_555
C10 C22 1.449482 1_555
C10 Rb2 3.483370 1_555
C10 Rb1 3.589400 1_555
C10 Rb3 3.589400 1_565
C11 C33 1.449482 1_555
C11 C23 1.449491 1_555
C11 Rb4 3.483371 1_555
C11 Rb3 3.589391 1_555
C11 Rb1 3.589400 1_545
C12 C36 1.426149 1_555
C12 C43 1.445272 1_555
C12 Rb3 3.473806 1_555
C12 Rb4 3.562410 1_555
C13 C37 1.426143 1_555
C13 C46 1.445282 1_554
C13 Rb4 3.473797 1_555
C13 Rb5 3.562410 1_555
C14 C38 1.426149 1_556
C14 C39 1.445272 1_555
C14 C2 1.449482 1_555
C14 Rb5 3.473806 1_556
C14 Rb3 3.562410 1_555
C15 C39 1.426149 1_455
C15 C45 1.445272 1_556
C15 C3 1.449491 1_555
C15 Rb4 3.473806 1_455
C15 Rb0 3.562410 1_555
C16 C40 1.426149 1_555
C16 C41 1.445272 1_545
C16 C4 1.449482 1_555
C16 Rb0 3.473806 1_555
C16 Rb3 3.562410 1_555
C17 C41 1.426149 1_655
C17 C47 1.445272 1_555
C17 C5 1.449482 1_555
C17 Rb2 3.473806 1_655
C17 Rb5 3.562410 1_555
C18 C42 1.426153 1_554
C18 C37 1.445278 1_565
C18 C6 1.449482 1_555
C18 Rb0 3.473802 1_554
C18 Rb1 3.562406 1_555
C19 C43 1.426149 1_555
C19 C44 1.445272 1_555
C19 C7 1.449482 1_555
C19 Rb5 3.473806 1_555
C19 Rb1 3.562410 1_555
C20 C44 1.426149 1_555
C20 C36 1.445272 1_555
C20 C8 1.449482 1_555
C20 Rb2 3.473806 1_555
C20 Rb0 3.562410 1_555
C21 C45 1.426149 1_555
C21 C38 1.445272 1_455
C21 C9 1.449482 1_555
C21 Rb1 3.473806 1_555
C21 Rb2 3.562410 1_555
C22 C46 1.426149 1_565
C22 C42 1.445272 1_555
C22 Rb3 3.473806 1_565
C22 Rb2 3.562410 1_555
C23 C47 1.426149 1_545
C23 C40 1.445272 1_655
C23 Rb1 3.473806 1_545
C23 Rb4 3.562410 1_555
C24 C48 1.426149 1_555
C24 C55 1.445272 1_555
C24 Rb1 3.473806 1_555
C24 Rb2 3.562410 1_555
C25 C49 1.426149 1_555
C25 C58 1.445272 1_556
C25 C3 1.449482 1_555
C25 Rb2 3.473806 1_555
C25 Rb0 3.562410 1_555
C26 C50 1.426149 1_554
C26 C51 1.445272 1_555
C26 C7 1.449482 1_555
C26 Rb0 3.473806 1_554
C26 Rb1 3.562410 1_555
C27 C51 1.426153 1_655
C27 C57 1.445278 1_554
C27 Rb2 3.473802 1_655
C27 Rb5 3.562406 1_555
C28 C52 1.426143 1_555
C28 C53 1.445282 1_565
C28 C6 1.449482 1_555
C28 Rb5 3.473797 1_555
C28 Rb1 3.562410 1_555
C29 C53 1.426149 1_455
C29 C59 1.445272 1_555
C29 C8 1.449482 1_555
C29 Rb4 3.473806 1_455
C29 Rb0 3.562410 1_555
C30 C54 1.426149 1_556
C30 C49 1.445272 1_545
C30 C4 1.449491 1_555
C30 Rb5 3.473806 1_556
C30 Rb3 3.562410 1_555
C31 C55 1.426149 1_555
C31 C56 1.445272 1_555
C31 Rb0 3.473806 1_555
C31 Rb3 3.562410 1_555
C32 C56 1.426149 1_555
C32 C48 1.445272 1_555
C32 C5 1.449482 1_555
C32 Rb4 3.473806 1_555
C32 Rb5 3.562410 1_555
C33 C57 1.426149 1_555
C33 C50 1.445272 1_655
C33 Rb3 3.473806 1_555
C33 Rb4 3.562410 1_555
C34 C58 1.426149 1_545
C34 C54 1.445272 1_555
C34 Rb1 3.473806 1_545
C34 Rb4 3.562410 1_555
C35 C59 1.426149 1_565
C35 C52 1.445272 1_455
C35 C9 1.449491 1_555
C35 Rb3 3.473806 1_565
C35 Rb2 3.562410 1_555
C36 C59 1.446347 1_555
C36 Rb3 3.358348 1_555
C37 C53 1.446347 1_555
C37 Rb4 3.358348 1_555
C38 C52 1.446347 1_555
C38 Rb5 3.358348 1_555
C39 C56 1.446347 1_555
C39 Rb4 3.358348 1_555
C40 C50 1.446347 1_555
C40 Rb0 3.358348 1_555
C41 C49 1.446347 1_555
C41 Rb2 3.358348 1_555
C42 C55 1.446347 1_555
C42 Rb0 3.358348 1_555
C43 C54 1.446347 1_555
C43 Rb5 3.358348 1_555
C44 C51 1.446347 1_555
C44 Rb2 3.358348 1_555
C45 C58 1.446347 1_555
C45 Rb1 3.358348 1_555
C46 C57 1.446347 1_555
C46 Rb3 3.358348 1_555
C47 C48 1.446347 1_555
C47 Rb1 3.358348 1_555
C48 Rb1 3.358348 1_555
C49 Rb2 3.358348 1_555
C50 Rb0 3.358348 1_555
C51 Rb2 3.358348 1_555
C52 Rb5 3.358348 1_555
C53 Rb4 3.358348 1_555
C54 Rb5 3.358348 1_555
C55 Rb0 3.358348 1_555
C56 Rb4 3.358348 1_555
C57 Rb3 3.358348 1_555
C58 Rb1 3.358348 1_555
C59 Rb3 3.358348 1_555
