# generated using pymatgen
data_BaO
_symmetry_space_group_name_H-M   'P 1'
_cell_length_a   13.95845330
_cell_length_b   13.95223703
_cell_length_c   13.63624913
_cell_angle_alpha   93.75773011
_cell_angle_beta   88.73315650
_cell_angle_gamma   93.28295511
_symmetry_Int_Tables_number   1
_chemical_formula_structural   BaO
_chemical_formula_sum   'Ba50 O50'
_cell_volume   2645.17452060
_cell_formula_units_Z   50
loop_
 _symmetry_equiv_pos_site_id
 _symmetry_equiv_pos_as_xyz
  1  'x, y, z'
loop_
 _atom_site_type_symbol
 _atom_site_label
 _atom_site_symmetry_multiplicity
 _atom_site_fract_x
 _atom_site_fract_y
 _atom_site_fract_z
 _atom_site_occupancy
  Ba  Ba0  1  0.50486878  0.26822500  0.77614147  1
  Ba  Ba1  1  0.96778128  0.82869611  0.60181749  1
  Ba  Ba2  1  0.88590931  0.18493344  0.07791150  1
  Ba  Ba3  1  0.12979368  0.83914622  0.02799377  1
  Ba  Ba4  1  0.13916603  0.08816496  0.09964126  1
  Ba  Ba5  1  0.75192702  0.95171543  0.51434960  1
  Ba  Ba6  1  0.74787605  0.60721117  0.45282464  1
  Ba  Ba7  1  0.89111720  0.88040859  0.14929772  1
  Ba  Ba8  1  0.93655462  0.51720649  0.63231205  1
  Ba  Ba9  1  0.93535212  0.99852345  0.84705591  1
  Ba  Ba10  1  0.71704933  0.66214330  0.14827333  1
  Ba  Ba11  1  0.24496481  0.14078144  0.55866305  1
  Ba  Ba12  1  0.43857188  0.89868328  0.74244646  1
  Ba  Ba13  1  0.17456679  0.53871787  0.99250894  1
  Ba  Ba14  1  0.77310383  0.26904137  0.57839132  1
  Ba  Ba15  1  0.44667777  0.17447997  0.24701310  1
  Ba  Ba16  1  0.32212758  0.28658421  0.01219483  1
  Ba  Ba17  1  0.20847082  0.86935542  0.30809130  1
  Ba  Ba18  1  0.08285972  0.35255481  0.16124699  1
  Ba  Ba19  1  0.69112435  0.10926768  0.31069198  1
  Ba  Ba20  1  0.70655513  0.53036432  0.82938683  1
  Ba  Ba21  1  0.68535616  0.00369835  0.03938202  1
  Ba  Ba22  1  0.54074788  0.88334769  0.22841882  1
  Ba  Ba23  1  0.22240276  0.56169659  0.39878071  1
  Ba  Ba24  1  0.92496065  0.69964954  0.89866005  1
  Ba  Ba25  1  0.46504864  0.02860943  0.49909904  1
  Ba  Ba26  1  0.19807160  0.05198943  0.79700682  1
  Ba  Ba27  1  0.98979708  0.38761907  0.40966715  1
  Ba  Ba28  1  0.99129668  0.14353289  0.60690768  1
  Ba  Ba29  1  0.41087274  0.00291254  0.00481630  1
  Ba  Ba30  1  0.34387451  0.70450941  0.14426003  1
  Ba  Ba31  1  0.01042753  0.68524384  0.33733416  1
  Ba  Ba32  1  0.98569223  0.08168166  0.33284573  1
  Ba  Ba33  1  0.45582706  0.51402044  0.95198422  1
  Ba  Ba34  1  0.54851037  0.76059432  0.97371281  1
  Ba  Ba35  1  0.58978986  0.29118291  0.04496946  1
  Ba  Ba36  1  0.72005235  0.76201635  0.68513207  1
  Ba  Ba37  1  0.24409205  0.84705825  0.56875358  1
  Ba  Ba38  1  0.24079853  0.27828823  0.34508330  1
  Ba  Ba39  1  0.26177159  0.73345920  0.83309872  1
  Ba  Ba40  1  0.74760011  0.38229466  0.28317028  1
  Ba  Ba41  1  0.49505568  0.50086434  0.24689272  1
  Ba  Ba42  1  0.77479602  0.27400129  0.85424240  1
  Ba  Ba43  1  0.48390158  0.34947770  0.47435973  1
  Ba  Ba44  1  0.88417503  0.47900580  0.07578392  1
  Ba  Ba45  1  0.47683248  0.59145968  0.67099105  1
  Ba  Ba46  1  0.05625547  0.28800493  0.84527305  1
  Ba  Ba47  1  0.26766807  0.40047587  0.71139405  1
  Ba  Ba48  1  0.52042064  0.78936279  0.48709431  1
  Ba  Ba49  1  0.67185217  0.02685285  0.76945403  1
  O  O0  1  0.54852969  0.92973566  0.89969726  1
  O  O1  1  0.32966012  0.00705680  0.64818224  1
  O  O2  1  0.36414761  0.87815451  0.43499411  1
  O  O3  1  0.60523935  0.65316279  0.56105990  1
  O  O4  1  0.03297528  0.41176313  0.99040912  1
  O  O5  1  0.57935012  0.90920013  0.62242247  1
  O  O6  1  0.06114348  0.99610364  0.68611561  1
  O  O7  1  0.18827986  0.68656096  0.26112595  1
  O  O8  1  0.60647472  0.96023868  0.39480387  1
  O  O9  1  0.38801147  0.18653002  0.43850519  1
  O  O10  1  0.78768189  0.59463438  0.97752968  1
  O  O11  1  0.81580229  0.78266174  0.50835278  1
  O  O12  1  0.07933952  0.94136919  0.19578568  1
  O  O13  1  0.26073968  0.91326199  0.89937239  1
  O  O14  1  0.33940431  0.65522413  0.96379722  1
  O  O15  1  0.28606379  0.42613558  0.89108822  1
  O  O16  1  0.57389884  0.63806721  0.82600838  1
  O  O17  1  0.86727919  0.66272928  0.72006817  1
  O  O18  1  0.36303304  0.73638170  0.66144153  1
  O  O19  1  0.09554027  0.82792398  0.45401041  1
  O  O20  1  0.45138984  0.18701786  0.94459064  1
  O  O21  1  0.79189902  0.10583263  0.91078903  1
  O  O22  1  0.55986911  0.05567177  0.16838302  1
  O  O23  1  0.45181894  0.39600211  0.09214650  1
  O  O24  1  0.04546627  0.55432990  0.49050942  1
  O  O25  1  0.93090527  0.41122608  0.24249557  1
  O  O26  1  0.77423305  0.32506767  0.06876573  1
  O  O27  1  0.02913511  0.18664638  0.19925803  1
  O  O28  1  0.51241205  0.64849149  0.13626697  1
  O  O29  1  0.60913772  0.38131417  0.88463323  1
  O  O30  1  0.09930238  0.18150455  0.45551095  1
  O  O31  1  0.66178191  0.20075068  0.71439382  1
  O  O32  1  0.90820256  0.29265835  0.71287764  1
  O  O33  1  0.06495442  0.13546706  0.93138896  1
  O  O34  1  0.81666864  0.43867239  0.50554746  1
  O  O35  1  0.81406235  0.93319968  0.70118733  1
  O  O36  1  0.37036675  0.44277440  0.39032642  1
  O  O37  1  0.19001476  0.23575359  0.71269629  1
  O  O38  1  0.81441335  0.05747096  0.18567475  1
  O  O39  1  0.38295909  0.87648331  0.13396708  1
  O  O40  1  0.88919895  0.71167906  0.20741212  1
  O  O41  1  0.14783603  0.41947781  0.32023328  1
  O  O42  1  0.43597862  0.39536946  0.65979747  1
  O  O43  1  0.96500375  0.87188075  0.97130724  1
  O  O44  1  0.67943497  0.83625646  0.09962779  1
  O  O45  1  0.84315218  0.12339888  0.47532808  1
  O  O46  1  0.67321208  0.53812391  0.28909801  1
  O  O47  1  0.10493344  0.67453630  0.91727720  1
  O  O48  1  0.59376152  0.27505562  0.30907968  1
  O  O49  1  0.27547174  0.20147666  0.17054531  1
loop_
_geom_bond_atom_site_label_1
_geom_bond_atom_site_label_2
_geom_bond_distance
_geom_bond_site_symmetry_2
Ba0 O29 2.514516 1_555
Ba0 O31 2.538349 1_555
Ba0 O42 2.687056 1_555
Ba0 O20 2.699203 1_555
Ba1 O11 2.528517 1_555
Ba1 O19 2.661417 1_655
Ba1 O6 2.800162 1_655
Ba1 O35 2.921776 1_555
Ba1 O17 3.153970 1_555
Ba2 O38 2.528324 1_555
Ba2 O26 2.580288 1_555
Ba2 O27 2.621279 1_655
Ba2 O21 2.787501 1_554
Ba2 O33 3.241971 1_654
Ba3 O43 2.518394 1_454
Ba3 O47 2.674304 1_554
Ba3 O13 2.714019 1_554
Ba3 O12 2.716869 1_555
Ba4 O27 2.448856 1_555
Ba4 O49 2.567228 1_555
Ba4 O12 2.592047 1_545
Ba4 O33 2.674775 1_554
Ba5 O11 2.564635 1_555
Ba5 O8 2.644434 1_555
Ba5 O45 2.725828 1_565
Ba5 O35 2.742211 1_555
Ba5 O5 2.849643 1_555
Ba6 O3 2.538830 1_555
Ba6 O46 2.589524 1_555
Ba6 O11 2.643413 1_555
Ba6 O34 2.734811 1_555
Ba7 O40 2.531231 1_555
Ba7 O43 2.614242 1_554
Ba7 O38 2.759380 1_565
Ba7 O12 2.788363 1_655
Ba7 O44 3.064987 1_555
Ba8 O24 2.495904 1_655
Ba8 O17 2.518865 1_555
Ba8 O34 2.580431 1_555
Ba8 O32 3.386570 1_555
Ba9 O43 2.582890 1_555
Ba9 O21 2.665019 1_565
Ba9 O35 2.718097 1_555
Ba9 O33 2.766565 1_665
Ba9 O6 2.779787 1_655
Ba10 O40 2.593173 1_555
Ba10 O44 2.643811 1_555
Ba10 O10 2.645301 1_554
Ba10 O46 2.705267 1_555
Ba10 O28 2.859457 1_555
Ba11 O37 2.536991 1_555
Ba11 O30 2.607469 1_555
Ba11 O9 2.631618 1_555
Ba11 O1 2.642685 1_555
Ba12 O5 2.533356 1_555
Ba12 O1 2.618045 1_565
Ba12 O18 2.628671 1_555
Ba12 O0 2.662538 1_555
Ba12 O13 3.247768 1_555
Ba13 O47 2.469399 1_555
Ba13 O4 2.576699 1_555
Ba13 O15 2.588869 1_555
Ba13 O14 2.775763 1_555
Ba14 O31 2.587744 1_555
Ba14 O45 2.617789 1_555
Ba14 O32 2.651489 1_555
Ba14 O34 2.659790 1_555
Ba15 O22 2.527022 1_555
Ba15 O48 2.547881 1_555
Ba15 O49 2.684202 1_555
Ba15 O9 2.716811 1_555
Ba16 O20 2.465931 1_554
Ba16 O23 2.519710 1_555
Ba16 O49 2.584970 1_555
Ba16 O15 2.709642 1_554
Ba17 O19 2.585722 1_555
Ba17 O7 2.589526 1_555
Ba17 O12 2.671119 1_555
Ba17 O2 2.799903 1_555
Ba17 O39 3.365598 1_555
Ba18 O41 2.473696 1_555
Ba18 O27 2.475998 1_555
Ba18 O25 2.524386 1_455
Ba18 O4 2.642745 1_554
Ba19 O38 2.498261 1_555
Ba19 O8 2.646958 1_545
Ba19 O22 2.737098 1_555
Ba19 O48 2.750633 1_555
Ba19 O45 3.112378 1_555
Ba20 O10 2.432015 1_555
Ba20 O16 2.453663 1_555
Ba20 O29 2.564650 1_555
Ba20 O17 3.225577 1_555
Ba21 O44 2.523086 1_545
Ba21 O22 2.555462 1_555
Ba21 O21 2.699382 1_554
Ba21 O38 2.756002 1_555
Ba21 O0 2.831647 1_544
Ba22 O39 2.569842 1_555
Ba22 O22 2.587851 1_565
Ba22 O8 2.607804 1_555
Ba22 O44 2.666020 1_555
Ba22 O28 3.436064 1_555
Ba23 O41 2.387902 1_555
Ba23 O7 2.710830 1_555
Ba23 O36 2.718252 1_555
Ba23 O24 2.743364 1_555
Ba24 O43 2.574268 1_555
Ba24 O47 2.576577 1_655
Ba24 O17 2.592137 1_555
Ba24 O10 2.601758 1_555
Ba25 O2 2.574811 1_545
Ba25 O8 2.596797 1_545
Ba25 O9 2.691293 1_555
Ba25 O1 2.764021 1_555
Ba25 O5 2.989900 1_545
Ba26 O6 2.519959 1_545
Ba26 O13 2.657464 1_545
Ba26 O1 2.772282 1_555
Ba26 O33 2.825703 1_555
Ba26 O37 2.886731 1_555
Ba27 O25 2.488587 1_555
Ba27 O41 2.528042 1_655
Ba27 O24 2.593080 1_655
Ba27 O34 2.827040 1_555
Ba27 O30 3.431985 1_655
Ba28 O30 2.594198 1_655
Ba28 O6 2.629778 1_645
Ba28 O32 2.751480 1_555
Ba28 O45 2.757860 1_555
Ba28 O37 3.309887 1_655
Ba29 O39 2.581304 1_545
Ba29 O0 2.588489 1_544
Ba29 O13 2.760602 1_544
Ba29 O20 2.771645 1_554
Ba29 O22 3.107518 1_555
Ba30 O39 2.442414 1_555
Ba30 O14 2.512475 1_554
Ba30 O28 2.518967 1_555
Ba30 O7 2.675120 1_555
Ba31 O40 2.535328 1_455
Ba31 O7 2.669548 1_555
Ba31 O19 2.702457 1_555
Ba31 O24 2.930161 1_555
Ba32 O27 2.455592 1_655
Ba32 O30 2.609877 1_655
Ba32 O45 2.808180 1_555
Ba32 O12 2.956309 1_645
Ba32 O38 3.144561 1_555
Ba33 O23 2.600912 1_556
Ba33 O14 2.619481 1_555
Ba33 O15 2.725620 1_555
Ba33 O16 2.932651 1_555
Ba33 O29 2.999209 1_555
Ba33 O28 3.123895 1_556
Ba34 O16 2.586757 1_555
Ba34 O0 2.626770 1_555
Ba34 O44 2.661297 1_556
Ba34 O28 2.815757 1_556
Ba34 O14 3.193575 1_555
Ba35 O23 2.531023 1_555
Ba35 O29 2.594221 1_554
Ba35 O26 2.614287 1_555
Ba35 O20 2.693032 1_554
Ba36 O17 2.612482 1_555
Ba36 O35 2.656972 1_555
Ba36 O3 2.691048 1_555
Ba36 O11 2.754042 1_555
Ba36 O5 3.093845 1_555
Ba36 O16 3.271245 1_555
Ba37 O2 2.491726 1_555
Ba37 O19 2.616177 1_555
Ba37 O1 2.649140 1_565
Ba37 O18 2.716727 1_555
Ba38 O41 2.465539 1_555
Ba38 O49 2.592589 1_555
Ba38 O30 2.796673 1_555
Ba38 O9 2.848715 1_555
Ba38 O36 2.882138 1_555
Ba39 O14 2.453159 1_555
Ba39 O47 2.567606 1_555
Ba39 O13 2.610872 1_555
Ba39 O18 2.708927 1_555
Ba40 O46 2.458354 1_555
Ba40 O48 2.577281 1_555
Ba40 O25 2.620229 1_555
Ba40 O26 3.000590 1_555
Ba40 O34 3.236257 1_555
Ba41 O23 2.551091 1_555
Ba41 O46 2.581006 1_555
Ba41 O28 2.628834 1_555
Ba41 O36 2.721642 1_555
Ba42 O21 2.542885 1_555
Ba42 O31 2.619658 1_555
Ba42 O32 2.665119 1_555
Ba42 O29 2.834296 1_555
Ba42 O26 2.965043 1_556
Ba43 O36 2.455826 1_555
Ba43 O9 2.594997 1_555
Ba43 O42 2.648335 1_555
Ba43 O48 2.869171 1_555
Ba44 O4 2.553949 1_654
Ba44 O26 2.565000 1_555
Ba44 O10 2.612258 1_554
Ba44 O25 2.627885 1_555
Ba45 O3 2.464644 1_555
Ba45 O16 2.563697 1_555
Ba45 O18 2.653324 1_555
Ba45 O42 2.757543 1_555
Ba46 O33 2.507315 1_555
Ba46 O4 2.567466 1_555
Ba46 O37 2.668267 1_555
Ba46 O32 2.780306 1_455
Ba47 O42 2.441124 1_555
Ba47 O15 2.469949 1_555
Ba47 O37 2.485217 1_555
Ba48 O5 2.526410 1_555
Ba48 O3 2.567458 1_555
Ba48 O2 2.700198 1_555
Ba48 O8 2.951105 1_555
Ba48 O18 3.292169 1_555
Ba49 O35 2.563252 1_545
Ba49 O31 2.598604 1_555
Ba49 O21 2.718362 1_555
Ba49 O5 2.796770 1_545
Ba49 O0 2.804746 1_545
