# generated using pymatgen
data_Pr4AsBrO8
_symmetry_space_group_name_H-M   'P 1'
_cell_length_a   8.39379590
_cell_length_b   8.39379590
_cell_length_c   13.32863063
_cell_angle_alpha   90.00000000
_cell_angle_beta   90.00000000
_cell_angle_gamma   90.00000000
_symmetry_Int_Tables_number   1
_chemical_formula_structural   Pr4AsBrO8
_chemical_formula_sum   'Pr16 As4 Br4 O32'
_cell_volume   939.07946204
_cell_formula_units_Z   4
loop_
 _symmetry_equiv_pos_site_id
 _symmetry_equiv_pos_as_xyz
  1  'x, y, z'
loop_
 _atom_site_type_symbol
 _atom_site_label
 _atom_site_symmetry_multiplicity
 _atom_site_fract_x
 _atom_site_fract_y
 _atom_site_fract_z
 _atom_site_occupancy
  Pr  Pr0  1  0.01298358  0.24434359  0.16750046  1
  Pr  Pr1  1  0.98701642  0.75565641  0.16750046  1
  Pr  Pr2  1  0.24434359  0.98701642  0.66750046  1
  Pr  Pr3  1  0.75565641  0.01298358  0.66750046  1
  Pr  Pr4  1  0.98701642  0.75565641  0.83249954  1
  Pr  Pr5  1  0.01298358  0.24434359  0.83249954  1
  Pr  Pr6  1  0.75565641  0.01298358  0.33249954  1
  Pr  Pr7  1  0.24434359  0.98701642  0.33249954  1
  Pr  Pr8  1  0.75566089  0.48299835  0.33185384  1
  Pr  Pr9  1  0.24433911  0.51700165  0.33185384  1
  Pr  Pr10  1  0.48299835  0.24433911  0.83185384  1
  Pr  Pr11  1  0.51700165  0.75566089  0.83185384  1
  Pr  Pr12  1  0.24433911  0.51700165  0.66814616  1
  Pr  Pr13  1  0.75566089  0.48299835  0.66814616  1
  Pr  Pr14  1  0.51700165  0.75566089  0.16814616  1
  Pr  Pr15  1  0.48299835  0.24433911  0.16814616  1
  As  As0  1  0.04345390  0.25187665  0.50000000  1
  As  As1  1  0.95654610  0.74812335  0.50000000  1
  As  As2  1  0.25187665  0.95654610  -0.00000000  1
  As  As3  1  0.74812335  0.04345390  0.00000000  1
  Br  Br0  1  0.55722225  0.25271171  0.50000000  1
  Br  Br1  1  0.44277775  0.74728829  0.50000000  1
  Br  Br2  1  0.25271171  0.44277775  -0.00000000  1
  Br  Br3  1  0.74728829  0.55722225  0.00000000  1
  O  O0  1  0.00000000  -0.00000000  0.25000000  1
  O  O1  1  0.00000000  -0.00000000  0.75000000  1
  O  O2  1  0.50000000  0.50000000  0.25000000  1
  O  O3  1  0.50000000  0.50000000  0.75000000  1
  O  O4  1  0.74395097  0.24891769  0.22995586  1
  O  O5  1  0.25604903  0.75108231  0.22995586  1
  O  O6  1  0.24891769  0.25604903  0.72995586  1
  O  O7  1  0.75108231  0.74395097  0.72995586  1
  O  O8  1  0.25604903  0.75108231  0.77004414  1
  O  O9  1  0.74395097  0.24891769  0.77004414  1
  O  O10  1  0.75108231  0.74395097  0.27004414  1
  O  O11  1  0.24891769  0.25604903  0.27004414  1
  O  O12  1  0.00000000  0.50000000  0.23883089  1
  O  O13  1  0.50000000  -0.00000000  0.73883089  1
  O  O14  1  0.00000000  0.50000000  0.76116911  1
  O  O15  1  0.50000000  -0.00000000  0.26116911  1
  O  O16  1  0.16329630  0.08678195  0.50000000  1
  O  O17  1  0.83670370  0.91321805  0.50000000  1
  O  O18  1  0.08678195  0.83670370  0.00000000  1
  O  O19  1  0.91321805  0.16329630  -0.00000000  1
  O  O20  1  0.16348492  0.41675914  0.50000000  1
  O  O21  1  0.83651508  0.58324086  0.50000000  1
  O  O22  1  0.41675914  0.83651508  0.00000000  1
  O  O23  1  0.58324086  0.16348492  -0.00000000  1
  O  O24  1  0.92994759  0.25182384  0.39537467  1
  O  O25  1  0.07005241  0.74817616  0.39537467  1
  O  O26  1  0.25182384  0.07005241  0.89537467  1
  O  O27  1  0.74817616  0.92994759  0.89537467  1
  O  O28  1  0.07005241  0.74817616  0.60462533  1
  O  O29  1  0.92994759  0.25182384  0.60462533  1
  O  O30  1  0.74817616  0.92994759  0.10462533  1
  O  O31  1  0.25182384  0.07005241  0.10462533  1
loop_
_geom_bond_atom_site_label_1
_geom_bond_atom_site_label_2
_geom_bond_distance
_geom_bond_site_symmetry_2
As0 O29 1.688904 1_455
As0 O24 1.688904 1_455
As0 O20 1.711875 1_555
As0 O16 1.712385 1_555
As1 O28 1.688904 1_655
As1 O25 1.688904 1_655
As1 O21 1.711875 1_555
As1 O17 1.712385 1_555
As2 O26 1.688904 1_564
As2 O31 1.688904 1_565
As2 O22 1.711875 1_555
As2 O18 1.712385 1_555
As3 O27 1.688904 1_544
As3 O30 1.688904 1_545
As3 O23 1.711875 1_555
As3 O19 1.712385 1_555
Br0 Pr8 3.396115 1_555
Br0 Pr13 3.396115 1_555
Br0 Pr3 3.436223 1_555
Br0 Pr6 3.436223 1_555
Br1 Pr9 3.396115 1_555
Br1 Pr12 3.396115 1_555
Br1 Pr2 3.436223 1_555
Br1 Pr7 3.436223 1_555
Br2 Pr15 3.396115 1_555
Br2 Pr10 3.396115 1_554
Br2 Pr5 3.436223 1_554
Br2 Pr0 3.436223 1_555
Br3 Pr14 3.396115 1_555
Br3 Pr11 3.396115 1_554
Br3 Pr4 3.436223 1_554
Br3 Pr1 3.436223 1_555
O0 Pr7 2.329697 1_545
O0 Pr0 2.329697 1_555
O0 Pr6 2.329697 1_455
O0 Pr1 2.329697 1_445
O1 Pr4 2.329697 1_445
O1 Pr2 2.329697 1_545
O1 Pr3 2.329697 1_455
O1 Pr5 2.329697 1_555
O2 Pr15 2.411600 1_555
O2 Pr14 2.411600 1_555
O2 Pr9 2.411600 1_555
O2 Pr8 2.411600 1_555
O3 Pr11 2.411600 1_555
O3 Pr10 2.411600 1_555
O3 Pr12 2.411600 1_555
O3 Pr13 2.411600 1_555
O4 Pr15 2.340505 1_555
O4 Pr8 2.390565 1_555
O4 Pr0 2.407058 1_655
O4 Pr6 2.408240 1_555
O5 Pr14 2.340505 1_555
O5 Pr9 2.390565 1_555
O5 Pr1 2.407058 1_455
O5 Pr7 2.408240 1_555
O6 Pr12 2.340505 1_555
O6 Pr10 2.390565 1_555
O6 Pr2 2.407058 1_545
O6 Pr5 2.408240 1_555
O7 Pr13 2.340505 1_555
O7 Pr11 2.390565 1_555
O7 Pr3 2.407058 1_565
O7 Pr4 2.408240 1_555
O8 Pr11 2.340505 1_555
O8 Pr12 2.390565 1_555
O8 Pr4 2.407058 1_455
O8 Pr2 2.408240 1_555
O9 Pr10 2.340505 1_555
O9 Pr13 2.390565 1_555
O9 Pr5 2.407058 1_655
O9 Pr3 2.408240 1_555
O10 Pr8 2.340505 1_555
O10 Pr14 2.390565 1_555
O10 Pr6 2.407058 1_565
O10 Pr1 2.408240 1_555
O11 Pr9 2.340505 1_555
O11 Pr15 2.390565 1_555
O11 Pr7 2.407058 1_545
O11 Pr0 2.408240 1_555
O12 Pr1 2.349635 1_455
O12 Pr0 2.349635 1_555
O12 Pr8 2.400826 1_455
O12 Pr9 2.400826 1_555
O13 Pr3 2.349635 1_555
O13 Pr2 2.349635 1_545
O13 Pr11 2.400826 1_545
O13 Pr10 2.400826 1_555
O14 Pr4 2.349635 1_455
O14 Pr5 2.349635 1_555
O14 Pr13 2.400826 1_455
O14 Pr12 2.400826 1_555
O15 Pr7 2.349635 1_545
O15 Pr6 2.349635 1_555
O15 Pr15 2.400826 1_555
O15 Pr14 2.400826 1_545
O16 Pr2 2.479586 1_545
O16 Pr7 2.479586 1_545
O17 Pr3 2.479586 1_565
O17 Pr6 2.479586 1_565
O18 Pr4 2.479586 1_454
O18 Pr1 2.479586 1_455
O19 Pr5 2.479586 1_654
O19 Pr0 2.479586 1_655
O20 Pr9 2.488246 1_555
O20 Pr12 2.488246 1_555
O21 Pr8 2.488246 1_555
O21 Pr13 2.488246 1_555
O22 Pr14 2.488246 1_555
O22 Pr11 2.488246 1_554
O23 Pr15 2.488246 1_555
O23 Pr10 2.488246 1_554
O24 Pr8 2.573371 1_555
O24 Pr6 2.619485 1_555
O25 Pr9 2.573371 1_555
O25 Pr7 2.619485 1_555
O26 Pr10 2.573371 1_555
O26 Pr5 2.619485 1_555
O27 Pr11 2.573371 1_555
O27 Pr4 2.619485 1_555
O28 Pr12 2.573371 1_555
O28 Pr2 2.619485 1_555
O29 Pr13 2.573371 1_555
O29 Pr3 2.619485 1_555
O30 Pr14 2.573371 1_555
O30 Pr1 2.619485 1_555
O31 Pr15 2.573371 1_555
O31 Pr0 2.619485 1_555
