# generated using pymatgen
data_Na3Mg4ScSi8(O11F)2
_symmetry_space_group_name_H-M   'P 1'
_cell_length_a   5.36100652
_cell_length_b   9.94353228
_cell_length_c   10.38776943
_cell_angle_alpha   61.42855059
_cell_angle_beta   83.75380675
_cell_angle_gamma   76.85355264
_symmetry_Int_Tables_number   1
_chemical_formula_structural   Na3Mg4ScSi8(O11F)2
_chemical_formula_sum   'Na3 Mg4 Sc1 Si8 O22 F2'
_cell_volume   473.56489617
_cell_formula_units_Z   1
loop_
 _symmetry_equiv_pos_site_id
 _symmetry_equiv_pos_as_xyz
  1  'x, y, z'
loop_
 _atom_site_type_symbol
 _atom_site_label
 _atom_site_symmetry_multiplicity
 _atom_site_fract_x
 _atom_site_fract_y
 _atom_site_fract_z
 _atom_site_occupancy
  Na  Na0  1  0.49981900  0.27811700  0.44384000  1
  Na  Na1  1  0.49981900  0.72696800  0.54530600  1
  Na  Na2  1  0.92761600  0.52869600  0.00032100  1
  Mg  Mg0  1  0.00040400  0.99789800  0.00436400  1
  Mg  Mg1  1  0.49993400  0.08686200  0.82685700  1
  Mg  Mg2  1  0.49982300  0.91039600  0.18017200  1
  Mg  Mg3  1  0.00004700  0.81813500  0.36414500  1
  Sc  Sc0  1  0.99992500  0.18312800  0.63463100  1
  Si  Si0  1  0.20792600  0.11807600  0.33588500  1
  Si  Si1  1  0.20688900  0.45995400  0.66066400  1
  Si  Si2  1  0.28562600  0.63415200  0.16892000  1
  Si  Si3  1  0.28680600  0.80115100  0.83291200  1
  Si  Si4  1  0.71411300  0.19639700  0.16954900  1
  Si  Si5  1  0.71254700  0.36565400  0.83326000  1
  Si  Si6  1  0.79146800  0.54668800  0.33669600  1
  Si  Si7  1  0.79200300  0.88140000  0.65927300  1
  O  O0  1  0.06833800  0.52646400  0.24951600  1
  O  O1  1  0.19774900  0.11564800  0.49376000  1
  O  O2  1  0.06816400  0.77839900  0.75049400  1
  O  O3  1  0.20087400  0.60773100  0.50373600  1
  O  O4  1  0.27380100  0.28555400  0.66850900  1
  O  O5  1  0.21609300  0.80216700  0.16719100  1
  O  O6  1  0.29122800  0.65461000  0.00059200  1
  O  O7  1  0.43217600  0.22285700  0.24242300  1
  O  O8  1  0.21431900  0.97050000  0.83199800  1
  O  O9  1  0.27184600  0.95328600  0.33179700  1
  O  O10  1  0.43048800  0.46179700  0.76122600  1
  O  O11  1  0.57166800  0.53649300  0.23828600  1
  O  O12  1  0.70544000  0.34421500  0.00116900  1
  O  O13  1  0.72405700  0.04723600  0.66760300  1
  O  O14  1  0.78450600  0.03034600  0.16689400  1
  O  O15  1  0.57327400  0.77519200  0.76461200  1
  O  O16  1  0.78588300  0.19678200  0.83275000  1
  O  O17  1  0.72613000  0.71551600  0.33213500  1
  O  O18  1  0.79969300  0.39133300  0.49356300  1
  O  O19  1  0.93019200  0.22468400  0.24995600  1
  O  O20  1  0.79581400  0.88905400  0.50321400  1
  O  O21  1  0.93044200  0.47156100  0.75144900  1
  F  F0  1  0.29373200  0.09965600  0.00033900  1
  F  F1  1  0.70932800  0.89724700  0.99999100  1
loop_
_geom_bond_atom_site_label_1
_geom_bond_atom_site_label_2
_geom_bond_distance
_geom_bond_site_symmetry_2
Na0 O18 2.383006 1_555
Na0 O1 2.388987 1_555
Na0 O7 2.483232 1_555
Na0 O11 2.516394 1_555
Na0 O13 2.523285 1_555
Na0 O4 2.535605 1_555
Na1 O20 2.375951 1_555
Na1 O3 2.380195 1_555
Na1 O17 2.445840 1_555
Na1 O9 2.457984 1_555
Na1 O10 2.594002 1_555
Na1 O15 2.626925 1_555
Na2 O12 2.399980 1_555
Na2 O6 2.546020 1_655
Na2 O0 2.762744 1_655
Na2 O2 2.780223 1_654
Na2 O19 2.890264 1_555
Na2 O21 2.898067 1_554
Na2 O15 2.960593 1_554
Na2 O11 2.974456 1_555
Mg0 O14 2.054297 1_465
Mg0 O5 2.058876 1_555
Mg0 O16 2.109729 1_464
Mg0 O8 2.114924 1_554
Mg1 O13 2.076345 1_555
Mg1 O4 2.077175 1_555
Mg1 O16 2.096420 1_555
Mg1 O8 2.101222 1_545
Mg2 O17 2.034763 1_555
Mg2 O9 2.035415 1_555
Mg2 O14 2.096602 1_565
Mg2 O5 2.101922 1_555
Mg3 O3 2.013010 1_555
Mg3 O20 2.015445 1_455
Mg3 O9 2.096276 1_555
Mg3 O17 2.102515 1_455
Mg3 O14 2.292753 1_465
Mg3 O5 2.294315 1_555
O0 Si2 1.643828 1_555
O0 Si6 1.676196 1_455
O1 Si0 1.623674 1_555
O1 Sc0 1.998523 1_455
O2 Si3 1.637782 1_555
O2 Si7 1.681070 1_455
O3 Si1 1.586280 1_555
O4 Si1 1.652520 1_555
O4 Sc0 2.110068 1_455
O5 Si2 1.618599 1_555
O6 Si3 1.650252 1_554
O6 Si2 1.658566 1_555
O7 Si4 1.639341 1_555
O7 Si0 1.679781 1_555
O8 Si3 1.635408 1_555
O8 Sc0 2.292538 1_465
O9 Si0 1.616228 1_565
O10 Si5 1.632409 1_555
O10 Si1 1.682040 1_555
O11 Si2 1.645453 1_555
O11 Si6 1.690970 1_555
O12 Si5 1.650063 1_554
O12 Si4 1.658144 1_555
O13 Si7 1.647954 1_545
O13 Sc0 2.118146 1_555
O14 Si4 1.620886 1_555
O15 Si3 1.638992 1_555
O15 Si7 1.693054 1_555
O16 Si5 1.637685 1_555
O16 Sc0 2.291962 1_555
O17 Si6 1.613437 1_555
O18 Si6 1.618784 1_555
O18 Sc0 2.003821 1_555
O19 Si4 1.643812 1_555
O19 Si0 1.674387 1_655
O20 Si7 1.584196 1_555
O21 Si5 1.638074 1_555
O21 Si1 1.679663 1_655
F0 Mg0 2.041427 1_545
F0 Mg1 2.051235 1_554
F0 Mg2 2.095861 1_545
F1 Mg0 2.051359 1_656
F1 Mg1 2.069458 1_565
F1 Mg2 2.119338 1_556
