# generated using pymatgen
data_Tm4CrS7
_symmetry_space_group_name_H-M   'P 1'
_cell_length_a   3.75702400
_cell_length_b   6.44811253
_cell_length_c   11.26364948
_cell_angle_alpha   104.82076143
_cell_angle_beta   90.00000000
_cell_angle_gamma   73.06255643
_symmetry_Int_Tables_number   1
_chemical_formula_structural   Tm4CrS7
_chemical_formula_sum   'Tm4 Cr1 S7'
_cell_volume   251.52877185
_cell_formula_units_Z   1
loop_
 _symmetry_equiv_pos_site_id
 _symmetry_equiv_pos_as_xyz
  1  'x, y, z'
loop_
 _atom_site_type_symbol
 _atom_site_label
 _atom_site_symmetry_multiplicity
 _atom_site_fract_x
 _atom_site_fract_y
 _atom_site_fract_z
 _atom_site_occupancy
  Tm  Tm0  1  0.69408500  0.61183100  0.20612600  1
  Tm  Tm1  1  0.30658700  0.38682700  0.80285100  1
  Tm  Tm2  1  0.99849000  0.00302000  0.00688600  1
  Tm  Tm3  1  0.11311900  0.77376100  0.56388600  1
  Cr  Cr0  1  0.88494000  0.23011900  0.42422100  1
  S  S0  1  0.74742000  0.50516100  0.63376400  1
  S  S1  1  0.27096300  0.45807300  0.35256100  1
  S  S2  1  0.33667600  0.32664800  0.05199500  1
  S  S3  1  0.65925600  0.68148800  0.94805700  1
  S  S4  1  0.03150900  0.93698300  0.22977800  1
  S  S5  1  0.96401800  0.07196500  0.78484800  1
  S  S6  1  0.49293800  0.01412400  0.49502600  1
loop_
_geom_bond_atom_site_label_1
_geom_bond_atom_site_label_2
_geom_bond_distance
_geom_bond_site_symmetry_2
Cr0 S4 2.438929 1_645
Cr0 S0 2.511483 1_555
Cr0 S6 2.551126 1_555
Cr0 S6 2.551129 1_655
Cr0 S1 2.600850 1_555
Cr0 S1 2.600850 1_655
S0 Tm3 2.755140 1_655
S0 Tm3 2.755145 1_555
S0 Tm1 2.903847 1_655
S0 Tm1 2.903847 1_555
S1 Tm3 2.641765 1_555
S1 Tm0 2.825851 1_455
S1 Tm0 2.825856 1_555
S2 Tm2 2.688798 1_455
S2 Tm2 2.688798 1_555
S2 Tm0 2.829144 1_455
S2 Tm0 2.829147 1_555
S2 Tm1 2.927465 1_554
S3 Tm2 2.683040 1_466
S3 Tm2 2.683040 1_566
S3 Tm1 2.813834 1_555
S3 Tm1 2.813836 1_655
S3 Tm0 3.049924 1_556
S4 Tm2 2.648743 1_465
S4 Tm0 2.708644 1_555
S4 Tm0 2.708644 1_455
S5 Tm2 2.646595 1_556
S5 Tm3 2.670125 1_645
S5 Tm1 2.670477 1_655
S5 Tm1 2.670477 1_555
S6 Tm3 2.635080 1_645
S6 Tm3 2.635083 1_545
