# generated using pymatgen
data_Na2Al2Si3O14
_symmetry_space_group_name_H-M   'P 1'
_cell_length_a   13.03654128
_cell_length_b   9.92072677
_cell_length_c   9.70499943
_cell_angle_alpha   83.24302730
_cell_angle_beta   49.08727384
_cell_angle_gamma   47.66969887
_symmetry_Int_Tables_number   1
_chemical_formula_structural   Na2Al2Si3O14
_chemical_formula_sum   'Na4 Al4 Si6 O28'
_cell_volume   571.83490068
_cell_formula_units_Z   2
loop_
 _symmetry_equiv_pos_site_id
 _symmetry_equiv_pos_as_xyz
  1  'x, y, z'
loop_
 _atom_site_type_symbol
 _atom_site_label
 _atom_site_symmetry_multiplicity
 _atom_site_fract_x
 _atom_site_fract_y
 _atom_site_fract_z
 _atom_site_occupancy
  Na  Na0  1  0.83462700  0.60580400  0.11278500  1
  Na  Na1  1  0.44678400  0.11278500  0.60580400  1
  Na  Na2  1  0.13721500  0.80321600  0.41537300  1
  Na  Na3  1  0.64419600  0.41537300  0.80321600  1
  Al  Al0  1  0.57554200  0.73477500  0.99679200  1
  Al  Al1  1  0.69289100  0.99679200  0.73477500  1
  Al  Al2  1  0.25320800  0.55710900  0.67445800  1
  Al  Al3  1  0.51522500  0.67445800  0.55710900  1
  Si  Si0  1  0.24484900  0.25515100  0.25515100  1
  Si  Si1  1  0.99484900  0.00515100  0.00515100  1
  Si  Si2  1  0.56784800  0.50824800  0.23731400  1
  Si  Si3  1  0.68658900  0.23731400  0.50824800  1
  Si  Si4  1  0.01268600  0.56341100  0.68215200  1
  Si  Si5  1  0.74175200  0.68215200  0.56341100  1
  O  O0  1  0.33882500  0.02448600  0.20415400  1
  O  O1  1  0.43253500  0.20415400  0.02448600  1
  O  O2  1  0.04584600  0.81746500  0.91117500  1
  O  O3  1  0.22551400  0.91117500  0.81746500  1
  O  O4  1  0.52323400  0.60794300  0.11120300  1
  O  O5  1  0.75762000  0.11120300  0.60794300  1
  O  O6  1  0.13879700  0.49238000  0.72676600  1
  O  O7  1  0.64205700  0.72676600  0.49238000  1
  O  O8  1  0.80599800  0.62516900  0.89111600  1
  O  O9  1  0.67771700  0.89111600  0.62516900  1
  O  O10  1  0.35888400  0.57228300  0.44400200  1
  O  O11  1  0.62483100  0.44400200  0.57228300  1
  O  O12  1  0.58732000  0.61077700  0.32518800  1
  O  O13  1  0.47671500  0.32518800  0.61077700  1
  O  O14  1  0.92481200  0.77328500  0.66268000  1
  O  O15  1  0.63922300  0.66268000  0.77328500  1
  O  O16  1  0.80694500  0.23505200  0.05234900  1
  O  O17  1  0.90565300  0.05234900  0.23505200  1
  O  O18  1  0.19765100  0.34434700  0.44305500  1
  O  O19  1  0.01494800  0.44305500  0.34434700  1
  O  O20  1  0.05854900  0.10051600  0.57888400  1
  O  O21  1  0.26205000  0.57888400  0.10051600  1
  O  O22  1  0.67111600  0.98795000  0.19145100  1
  O  O23  1  0.14948400  0.19145100  0.98795000  1
  O  O24  1  0.18470300  0.10363300  0.61765900  1
  O  O25  1  0.09400500  0.61765900  0.10363300  1
  O  O26  1  0.63234100  0.15599500  0.06529700  1
  O  O27  1  0.14636700  0.06529700  0.15599500  1
loop_
_geom_bond_atom_site_label_1
_geom_bond_atom_site_label_2
_geom_bond_distance
_geom_bond_site_symmetry_2
Na0 O8 2.379523 1_554
Na0 O12 2.398085 1_555
Na0 O7 2.486607 1_555
Na0 O6 2.559223 1_654
Na0 O23 2.673471 1_654
Na0 O22 2.676776 1_555
Na1 O9 2.379523 1_545
Na1 O13 2.398085 1_555
Na1 O6 2.486607 1_555
Na1 O7 2.559223 1_545
Na1 O22 2.673468 1_545
Na1 O23 2.676772 1_555
Na2 O10 2.379523 1_555
Na2 O14 2.398085 1_455
Na2 O5 2.486607 1_465
Na2 O4 2.559223 1_555
Na2 O21 2.673476 1_555
Na2 O20 2.676767 1_565
Na3 O11 2.379523 1_555
Na3 O15 2.398085 1_555
Na3 O4 2.486607 1_556
Na3 O5 2.559223 1_555
Na3 O20 2.673467 1_655
Na3 O21 2.676777 1_556
Al0 O8 1.757015 1_555
Al0 O15 1.764258 1_555
Al0 O0 1.764931 1_566
Al0 O4 1.765281 1_556
Al1 O9 1.757015 1_555
Al1 O14 1.764258 1_555
Al1 O1 1.764931 1_566
Al1 O5 1.765281 1_565
Al2 O10 1.757015 1_555
Al2 O13 1.764258 1_555
Al2 O2 1.764931 1_555
Al2 O6 1.765281 1_555
Al3 O11 1.757015 1_555
Al3 O12 1.764258 1_555
Al3 O3 1.764931 1_555
Al3 O7 1.765281 1_555
O0 Si0 1.636762 1_555
O1 Si0 1.636762 1_555
O2 Si1 1.636762 1_466
O3 Si1 1.636762 1_466
O4 Si2 1.639276 1_555
O5 Si3 1.639281 1_555
O6 Si4 1.639273 1_555
O7 Si5 1.639284 1_555
O8 Si4 1.630961 1_655
O9 Si5 1.630953 1_555
O10 Si2 1.630955 1_555
O11 Si3 1.630963 1_555
O12 Si2 1.631499 1_555
O13 Si3 1.631487 1_555
O14 Si4 1.631491 1_655
O15 Si5 1.631492 1_555
O16 Si1 1.632142 1_555
O16 Si2 1.649845 1_555
O17 Si1 1.632137 1_555
O17 Si3 1.649845 1_555
O18 Si0 1.632146 1_555
O18 Si4 1.649845 1_555
O19 Si0 1.632136 1_555
O19 Si5 1.649845 1_455
O20 O24 1.931107 1_555
O21 O25 1.931094 1_555
O22 O26 1.931101 1_565
O23 O27 1.931100 1_556
