# generated using pymatgen
data_BaCaNdBiO6
_symmetry_space_group_name_H-M   'P 1'
_cell_length_a   8.65606972
_cell_length_b   8.68978013
_cell_length_c   8.66944665
_cell_angle_alpha   90.00000000
_cell_angle_beta   90.00000000
_cell_angle_gamma   90.00000000
_symmetry_Int_Tables_number   1
_chemical_formula_structural   BaCaNdBiO6
_chemical_formula_sum   'Ba4 Ca4 Nd4 Bi4 O24'
_cell_volume   652.11007821
_cell_formula_units_Z   4
loop_
 _symmetry_equiv_pos_site_id
 _symmetry_equiv_pos_as_xyz
  1  'x, y, z'
loop_
 _atom_site_type_symbol
 _atom_site_label
 _atom_site_symmetry_multiplicity
 _atom_site_fract_x
 _atom_site_fract_y
 _atom_site_fract_z
 _atom_site_occupancy
  Ba  Ba0  1  0.00000000  -0.00000000  -0.00000000  1
  Ba  Ba1  1  0.50000000  0.50000000  0.50000000  1
  Ba  Ba2  1  0.00000000  0.50000000  0.00000000  1
  Ba  Ba3  1  0.00000000  -0.00000000  0.50000000  1
  Ca  Ca0  1  0.00000000  0.50000000  0.50000000  1
  Ca  Ca1  1  0.50000000  0.00000000  0.50000000  1
  Ca  Ca2  1  0.50000000  0.50000000  -0.00000000  1
  Ca  Ca3  1  0.50000000  0.00000000  -0.00000000  1
  Nd  Nd0  1  0.25513356  0.25073618  0.25176267  1
  Nd  Nd1  1  0.74486644  0.74926382  0.25176267  1
  Nd  Nd2  1  0.74486644  0.25073618  0.74823733  1
  Nd  Nd3  1  0.25513356  0.74926382  0.74823733  1
  Bi  Bi0  1  0.74391295  0.74906743  0.74984452  1
  Bi  Bi1  1  0.25608705  0.25093257  0.74984452  1
  Bi  Bi2  1  0.25608705  0.74906743  0.25015548  1
  Bi  Bi3  1  0.74391295  0.25093257  0.25015548  1
  O  O0  1  0.98744883  0.20974229  0.27733090  1
  O  O1  1  0.01255117  0.79025771  0.27733090  1
  O  O2  1  0.01255117  0.20974229  0.72266910  1
  O  O3  1  0.98744883  0.79025771  0.72266910  1
  O  O4  1  0.30349299  0.98805418  0.19914107  1
  O  O5  1  0.30349299  0.01194582  0.80085893  1
  O  O6  1  0.69650701  0.01194582  0.19914107  1
  O  O7  1  0.69650701  0.98805418  0.80085893  1
  O  O8  1  0.21696512  0.28521807  0.99069707  1
  O  O9  1  0.78303488  0.28521807  0.00930293  1
  O  O10  1  0.21696512  0.71478193  0.00930293  1
  O  O11  1  0.78303488  0.71478193  0.99069707  1
  O  O12  1  0.51044875  0.31599661  0.20514759  1
  O  O13  1  0.48955125  0.68400339  0.20514759  1
  O  O14  1  0.48955125  0.31599661  0.79485241  1
  O  O15  1  0.51044875  0.68400339  0.79485241  1
  O  O16  1  0.20452353  0.51268305  0.31068021  1
  O  O17  1  0.20452353  0.48731695  0.68931979  1
  O  O18  1  0.79547647  0.48731695  0.31068021  1
  O  O19  1  0.79547647  0.51268305  0.68931979  1
  O  O20  1  0.30758221  0.19833068  0.51336004  1
  O  O21  1  0.69241779  0.19833068  0.48663996  1
  O  O22  1  0.30758221  0.80166932  0.48663996  1
  O  O23  1  0.69241779  0.80166932  0.51336004  1
loop_
_geom_bond_atom_site_label_1
_geom_bond_atom_site_label_2
_geom_bond_distance
_geom_bond_site_symmetry_2
Ba0 O0 3.019008 1_455
Ba0 O2 3.019008 1_554
Ba0 O1 3.019008 1_545
Ba0 O3 3.019008 1_444
Ba0 O10 3.110709 1_545
Ba0 O8 3.110709 1_554
Ba0 O11 3.110709 1_444
Ba0 O9 3.110709 1_455
Ba0 O7 3.145283 1_444
Ba0 O6 3.145283 1_455
Ba0 O4 3.145283 1_545
Ba0 O5 3.145283 1_554
Ba1 O12 3.016457 1_555
Ba1 O13 3.016457 1_555
Ba1 O15 3.016457 1_555
Ba1 O14 3.016457 1_555
Ba1 O19 3.040996 1_555
Ba1 O16 3.040996 1_555
Ba1 O17 3.040996 1_555
Ba1 O18 3.040996 1_555
Ba1 O22 3.107978 1_555
Ba1 O20 3.107978 1_555
Ba1 O23 3.107978 1_555
Ba1 O21 3.107978 1_555
Ba2 O9 2.648983 1_455
Ba2 O11 2.648983 1_454
Ba2 O10 2.648983 1_555
Ba2 O8 2.648983 1_554
Ba3 O2 2.657111 1_555
Ba3 O3 2.657111 1_445
Ba3 O0 2.657111 1_455
Ba3 O1 2.657111 1_545
Ba3 O23 3.173697 1_445
Ba3 O21 3.173697 1_455
Ba3 O22 3.173697 1_545
Ba3 O20 3.173697 1_555
Ca0 O19 2.416654 1_455
Ca0 O17 2.416654 1_555
Ca0 O16 2.416654 1_555
Ca0 O18 2.416654 1_455
Ca1 O23 2.399554 1_545
Ca1 O22 2.399554 1_545
Ca1 O20 2.399554 1_555
Ca1 O21 2.399554 1_555
Ca2 O14 2.393311 1_554
Ca2 O15 2.393311 1_554
Ca2 O12 2.393311 1_555
Ca2 O13 2.393311 1_555
Ca3 O4 2.425842 1_545
Ca3 O5 2.425842 1_554
Ca3 O6 2.425842 1_555
Ca3 O7 2.425842 1_544
Nd0 O8 2.306825 1_554
Nd0 O12 2.317139 1_555
Nd0 O0 2.354777 1_455
Nd0 O20 2.357305 1_555
Nd0 O4 2.365128 1_545
Nd0 O16 2.373643 1_555
Nd1 O11 2.306825 1_554
Nd1 O13 2.317139 1_555
Nd1 O1 2.354777 1_655
Nd1 O23 2.357305 1_555
Nd1 O6 2.365128 1_565
Nd1 O18 2.373643 1_555
Nd2 O9 2.306825 1_556
Nd2 O14 2.317139 1_555
Nd2 O2 2.354777 1_655
Nd2 O21 2.357305 1_555
Nd2 O7 2.365128 1_545
Nd2 O19 2.373643 1_555
Nd3 O10 2.306825 1_556
Nd3 O15 2.317139 1_555
Nd3 O3 2.354777 1_455
Nd3 O22 2.357305 1_555
Nd3 O5 2.365128 1_565
Nd3 O17 2.373643 1_555
Bi0 O15 2.134452 1_555
Bi0 O11 2.136219 1_555
Bi0 O23 2.147302 1_555
Bi0 O3 2.151175 1_555
Bi0 O7 2.162601 1_555
Bi0 O19 2.166561 1_555
Bi1 O14 2.134452 1_555
Bi1 O8 2.136219 1_555
Bi1 O20 2.147302 1_555
Bi1 O2 2.151175 1_555
Bi1 O5 2.162601 1_555
Bi1 O17 2.166561 1_555
Bi2 O13 2.134452 1_555
Bi2 O10 2.136219 1_555
Bi2 O22 2.147302 1_555
Bi2 O1 2.151175 1_555
Bi2 O4 2.162601 1_555
Bi2 O16 2.166561 1_555
Bi3 O12 2.134452 1_555
Bi3 O9 2.136219 1_555
Bi3 O21 2.147302 1_555
Bi3 O0 2.151175 1_555
Bi3 O6 2.162601 1_555
Bi3 O18 2.166561 1_555
