# generated using pymatgen
data_NaMgTi3O7F
_symmetry_space_group_name_H-M   'P 1'
_cell_length_a   3.75037800
_cell_length_b   10.81311700
_cell_length_c   8.90496200
_cell_angle_alpha   90.00000000
_cell_angle_beta   90.00000000
_cell_angle_gamma   90.00000000
_symmetry_Int_Tables_number   1
_chemical_formula_structural   NaMgTi3O7F
_chemical_formula_sum   'Na2 Mg2 Ti6 O14 F2'
_cell_volume   361.12538272
_cell_formula_units_Z   2
loop_
 _symmetry_equiv_pos_site_id
 _symmetry_equiv_pos_as_xyz
  1  'x, y, z'
loop_
 _atom_site_type_symbol
 _atom_site_label
 _atom_site_symmetry_multiplicity
 _atom_site_fract_x
 _atom_site_fract_y
 _atom_site_fract_z
 _atom_site_occupancy
  Na  Na0  1  0.75000000  0.36586900  0.32186000  1
  Na  Na1  1  0.75000000  0.86586900  0.17814000  1
  Mg  Mg0  1  0.75000000  0.17086500  0.56617100  1
  Mg  Mg1  1  0.75000000  0.67086500  0.93382900  1
  Ti  Ti0  1  0.25000000  0.09771400  0.28284700  1
  Ti  Ti1  1  0.25000000  0.82333300  0.48589400  1
  Ti  Ti2  1  0.25000000  0.32333300  0.01410600  1
  Ti  Ti3  1  0.25000000  0.59771400  0.21715300  1
  Ti  Ti4  1  0.75000000  0.41293000  0.75401100  1
  Ti  Ti5  1  0.75000000  0.91293000  0.74598900  1
  O  O0  1  0.25000000  0.92956600  0.29869500  1
  O  O1  1  0.25000000  0.86037500  0.69320000  1
  O  O2  1  0.25000000  0.66552000  0.40620900  1
  O  O3  1  0.25000000  0.16552000  0.09379100  1
  O  O4  1  0.25000000  0.36037500  0.80680000  1
  O  O5  1  0.25000000  0.42956600  0.20130500  1
  O  O6  1  0.75000000  0.13575700  0.32114500  1
  O  O7  1  0.75000000  0.07366600  0.74786000  1
  O  O8  1  0.75000000  0.36591300  0.99441900  1
  O  O9  1  0.75000000  0.35049500  0.56861800  1
  O  O10  1  0.75000000  0.63575700  0.17885500  1
  O  O11  1  0.75000000  0.57366600  0.75214000  1
  O  O12  1  0.75000000  0.86591300  0.50558100  1
  O  O13  1  0.75000000  0.85049500  0.93138200  1
  F  F0  1  0.25000000  0.64459700  0.99394000  1
  F  F1  1  0.25000000  0.14459700  0.50606000  1
loop_
_geom_bond_atom_site_label_1
_geom_bond_atom_site_label_2
_geom_bond_distance
_geom_bond_site_symmetry_2
Na0 O9 2.203650 1_555
Na0 O5 2.267865 1_555
Na0 O5 2.267865 1_655
Na0 O6 2.488236 1_555
Na1 O13 2.203650 1_554
Na1 O0 2.267865 1_555
Na1 O0 2.267865 1_655
Na1 O10 2.488236 1_555
Mg0 O7 1.929342 1_555
Mg0 O9 1.942482 1_555
Mg0 O6 2.214726 1_555
Mg1 O11 1.929342 1_555
Mg1 O13 1.942482 1_555
Mg1 O10 2.214726 1_556
O0 Ti0 1.823673 1_565
O0 Ti1 2.024456 1_555
O1 Ti1 1.889005 1_555
O1 Ti5 2.015008 1_555
O1 Ti5 2.015008 1_455
O2 Ti3 1.836265 1_555
O2 Ti1 1.848105 1_555
O3 Ti0 1.836265 1_555
O3 Ti2 1.848105 1_555
O4 Ti2 1.889005 1_556
O4 Ti4 2.015008 1_555
O4 Ti4 2.015008 1_455
O5 Ti3 1.823673 1_555
O5 Ti2 2.024456 1_555
O6 Ti0 1.949837 1_555
O6 Ti0 1.949837 1_655
O7 Ti5 1.738137 1_545
O8 Ti2 1.938829 1_556
O8 Ti2 1.938829 1_656
O8 Ti4 2.200363 1_555
O9 Ti4 1.783623 1_555
O10 Ti3 1.949837 1_655
O10 Ti3 1.949837 1_555
O11 Ti4 1.738137 1_555
O12 Ti1 1.938829 1_555
O12 Ti1 1.938829 1_655
O12 Ti5 2.200363 1_555
O13 Ti5 1.783623 1_555
F0 Mg1 1.970671 1_555
F0 Mg1 1.970671 1_455
F0 Ti3 2.051332 1_556
F1 Mg0 1.970671 1_455
F1 Mg0 1.970671 1_555
F1 Ti0 2.051332 1_555
