# generated using pymatgen
data_Co3SiGe2
_symmetry_space_group_name_H-M   'P 1'
_cell_length_a   4.57377800
_cell_length_b   4.57545535
_cell_length_c   13.68631786
_cell_angle_alpha   90.47915823
_cell_angle_beta   90.23605246
_cell_angle_gamma   90.25509509
_symmetry_Int_Tables_number   1
_chemical_formula_structural   Co3SiGe2
_chemical_formula_sum   'Co12 Si4 Ge8'
_cell_volume   286.39984616
_cell_formula_units_Z   4
loop_
 _symmetry_equiv_pos_site_id
 _symmetry_equiv_pos_as_xyz
  1  'x, y, z'
loop_
 _atom_site_type_symbol
 _atom_site_label
 _atom_site_symmetry_multiplicity
 _atom_site_fract_x
 _atom_site_fract_y
 _atom_site_fract_z
 _atom_site_occupancy
  Co  Co0  1  0.63938900  0.13059900  0.21167500  1
  Co  Co1  1  0.63359200  0.13286800  0.54323500  1
  Co  Co2  1  0.63356700  0.13323800  0.87825200  1
  Co  Co3  1  0.13913600  0.37053200  0.12267900  1
  Co  Co4  1  0.14677200  0.36334000  0.45269100  1
  Co  Co5  1  0.14610500  0.36361200  0.78699700  1
  Co  Co6  1  0.36370000  0.64652300  0.28469600  1
  Co  Co7  1  0.36014800  0.64607700  0.62107000  1
  Co  Co8  1  0.35930600  0.64553800  0.95540000  1
  Co  Co9  1  0.86331200  0.85870900  0.05193100  1
  Co  Co10  1  0.86302500  0.85486200  0.37822500  1
  Co  Co11  1  0.86343600  0.86027900  0.71531400  1
  Si  Si0  1  0.34039100  0.83617100  0.11568400  1
  Si  Si1  1  0.33895200  0.83887700  0.44521200  1
  Si  Si2  1  0.33928600  0.83950500  0.78005500  1
  Si  Si3  1  0.84007400  0.66389500  0.21834600  1
  Ge  Ge0  1  0.84019900  0.66044400  0.55150700  1
  Ge  Ge1  1  0.84023900  0.66099000  0.88638500  1
  Ge  Ge2  1  0.65576100  0.34319100  0.05537200  1
  Ge  Ge3  1  0.65840300  0.34079800  0.38487100  1
  Ge  Ge4  1  0.65660400  0.34063100  0.72011900  1
  Ge  Ge5  1  0.15853700  0.15680400  0.27903100  1
  Ge  Ge6  1  0.16062400  0.15668100  0.61324400  1
  Ge  Ge7  1  0.15944400  0.15583500  0.94800800  1
loop_
_geom_bond_atom_site_label_1
_geom_bond_atom_site_label_2
_geom_bond_distance
_geom_bond_site_symmetry_2
Co0 Si0 2.313039 1_545
Co0 Si3 2.330395 1_545
Co0 Ge2 2.358700 1_555
Co0 Ge5 2.391310 1_555
Co0 Ge5 2.545559 1_655
Co0 Ge3 2.551634 1_555
Co0 Si3 2.603929 1_555
Co1 Si1 2.316049 1_545
Co1 Ge0 2.366329 1_545
Co1 Ge6 2.372138 1_555
Co1 Ge3 2.377237 1_555
Co1 Ge0 2.589777 1_555
Co1 Ge6 2.591810 1_655
Co1 Ge4 2.594989 1_555
Co2 Si2 2.315789 1_545
Co2 Ge1 2.365610 1_545
Co2 Ge4 2.372952 1_555
Co2 Ge7 2.375308 1_555
Co2 Ge7 2.585452 1_655
Co2 Ge1 2.590569 1_555
Co2 Ge2 2.601467 1_556
Co3 Si0 2.319963 1_555
Co3 Si3 2.321365 1_455
Co3 Ge5 2.361668 1_555
Co3 Ge2 2.393933 1_455
Co3 Ge2 2.542892 1_555
Co3 Ge7 2.579139 1_554
Co3 Si0 2.617458 1_545
Co4 Si1 2.346196 1_555
Co4 Ge0 2.375920 1_455
Co4 Ge6 2.400148 1_555
Co4 Ge3 2.416784 1_455
Co4 Ge3 2.523223 1_555
Co4 Ge5 2.551249 1_555
Co4 Si1 2.560638 1_545
Co5 Si2 2.349027 1_555
Co5 Ge1 2.379161 1_455
Co5 Ge7 2.407907 1_555
Co5 Ge4 2.416774 1_455
Co5 Ge4 2.513731 1_555
Co5 Ge6 2.553452 1_555
Co5 Si2 2.560470 1_545
Co6 Si1 2.363102 1_555
Co6 Si3 2.365207 1_555
Co6 Ge3 2.384729 1_555
Co6 Ge5 2.425902 1_555
Co6 Si0 2.479385 1_555
Co6 Ge5 2.521830 1_565
Co6 Si3 2.559630 1_455
Co7 Si2 2.344621 1_555
Co7 Ge4 2.379664 1_555
Co7 Ge0 2.397622 1_555
Co7 Ge6 2.415640 1_555
Co7 Ge6 2.514892 1_565
Co7 Ge0 2.559303 1_455
Co7 Si1 2.571936 1_555
Co8 Si0 2.356017 1_556
Co8 Ge2 2.378534 1_556
Co8 Ge1 2.398467 1_555
Co8 Ge7 2.417317 1_555
Co8 Ge7 2.513869 1_565
Co8 Ge1 2.552972 1_455
Co8 Si2 2.567046 1_555
Co9 Si0 2.349712 1_655
Co9 Ge7 2.395316 1_664
Co9 Ge2 2.415493 1_565
Co9 Ge1 2.434317 1_554
Co9 Si3 2.455287 1_555
Co9 Ge2 2.539541 1_555
Co9 Si0 2.551238 1_555
Co10 Si3 2.351130 1_555
Co10 Si1 2.360163 1_655
Co10 Ge5 2.368203 1_665
Co10 Ge3 2.417320 1_565
Co10 Ge3 2.530043 1_555
Co10 Ge0 2.542273 1_555
Co10 Si1 2.570822 1_555
Co11 Si2 2.349120 1_655
Co11 Ge6 2.381019 1_665
Co11 Ge4 2.397146 1_565
Co11 Ge0 2.415859 1_555
Co11 Ge1 2.522188 1_555
Co11 Ge4 2.556453 1_555
Co11 Si2 2.560917 1_555
Si0 Si3 2.797654 1_555
Si0 Si3 2.803744 1_455
Ge0 Si1 2.831496 1_655
Ge0 Si1 2.836894 1_555
Ge1 Si2 2.832938 1_655
Ge1 Si2 2.836164 1_555
Ge2 Si3 2.785277 1_555
Ge2 Si0 2.803103 1_555
Ge2 Si0 2.855821 1_545
Ge3 Si1 2.831696 1_555
Ge3 Si1 2.846508 1_545
Ge3 Si3 2.851531 1_555
Ge4 Si2 2.827974 1_555
Ge4 Si2 2.836939 1_545
Ge5 Si0 2.795239 1_545
Ge5 Si3 2.797713 1_445
Ge5 Si1 2.832038 1_545
Ge5 Si3 2.871759 1_455
Ge6 Si2 2.834894 1_545
Ge6 Si1 2.835233 1_545
Ge7 Si2 2.832984 1_545
Ge7 Si0 2.853392 1_546
