# generated using pymatgen
data_ZnS
_symmetry_space_group_name_H-M   'P 1'
_cell_length_a   3.87552826
_cell_length_b   3.87552826
_cell_length_c   56.54851128
_cell_angle_alpha   88.03624477
_cell_angle_beta   88.03624477
_cell_angle_gamma   59.99999558
_symmetry_Int_Tables_number   1
_chemical_formula_structural   ZnS
_chemical_formula_sum   'Zn18 S18'
_cell_volume   734.97633971
_cell_formula_units_Z   18
loop_
 _symmetry_equiv_pos_site_id
 _symmetry_equiv_pos_as_xyz
  1  'x, y, z'
loop_
 _atom_site_type_symbol
 _atom_site_label
 _atom_site_symmetry_multiplicity
 _atom_site_fract_x
 _atom_site_fract_y
 _atom_site_fract_z
 _atom_site_occupancy
  Zn  Zn0  1  0.99999300  0.99999300  0.00002200  1
  Zn  Zn1  1  0.94443600  0.94443600  0.16669200  1
  Zn  Zn2  1  0.88888000  0.88888000  0.33336100  1
  Zn  Zn3  1  0.85184300  0.85184300  0.44447000  1
  Zn  Zn4  1  0.79629000  0.79629000  0.61113000  1
  Zn  Zn5  1  0.75924800  0.75924800  0.72225500  1
  Zn  Zn6  1  0.72221100  0.72221100  0.83336700  1
  Zn  Zn7  1  0.64814700  0.64814700  0.05556000  1
  Zn  Zn8  1  0.59258200  0.59258200  0.22225500  1
  Zn  Zn9  1  0.53703300  0.53703300  0.38890200  1
  Zn  Zn10  1  0.48147300  0.48147300  0.55558200  1
  Zn  Zn11  1  0.40740500  0.40740500  0.77778600  1
  Zn  Zn12  1  0.35184700  0.35184700  0.94445900  1
  Zn  Zn13  1  0.29629600  0.29629600  0.11111200  1
  Zn  Zn14  1  0.24073100  0.24073100  0.27780800  1
  Zn  Zn15  1  0.16666400  0.16666400  0.50000700  1
  Zn  Zn16  1  0.11110200  0.11110200  0.66669400  1
  Zn  Zn17  1  0.03703300  0.03703300  0.88890000  1
  S  S0  1  0.98612300  0.98612300  0.04163000  1
  S  S1  1  0.93056700  0.93056700  0.20829900  1
  S  S2  1  0.87502500  0.87502500  0.37492600  1
  S  S3  1  0.83797500  0.83797500  0.48607400  1
  S  S4  1  0.78244000  0.78244000  0.65267900  1
  S  S5  1  0.74539800  0.74539800  0.76380600  1
  S  S6  1  0.70834800  0.70834800  0.87495700  1
  S  S7  1  0.63427400  0.63427400  0.09717800  1
  S  S8  1  0.57871800  0.57871800  0.26384600  1
  S  S9  1  0.52315400  0.52315400  0.43053900  1
  S  S10  1  0.46761000  0.46761000  0.59717000  1
  S  S11  1  0.39352600  0.39352600  0.81942200  1
  S  S12  1  0.33796600  0.33796600  0.98610200  1
  S  S13  1  0.28242300  0.28242300  0.15273000  1
  S  S14  1  0.22686900  0.22686900  0.31939400  1
  S  S15  1  0.15279500  0.15279500  0.54161500  1
  S  S16  1  0.09723000  0.09723000  0.70831000  1
  S  S17  1  0.02317600  0.02317600  0.93047200  1
loop_
_geom_bond_atom_site_label_1
_geom_bond_atom_site_label_2
_geom_bond_distance
_geom_bond_site_symmetry_2
S0 Zn0 2.351028 1_555
S0 Zn7 2.371937 1_555
S0 Zn7 2.371943 1_565
S0 Zn7 2.371943 1_655
S1 Zn1 2.350971 1_555
S1 Zn8 2.372427 1_555
S1 Zn8 2.372430 1_655
S1 Zn8 2.372430 1_565
S2 Zn2 2.348598 1_555
S2 Zn9 2.372805 1_565
S2 Zn9 2.372805 1_655
S2 Zn9 2.372805 1_555
S3 Zn3 2.350802 1_555
S3 Zn15 2.371997 1_655
S3 Zn15 2.371997 1_565
S3 Zn15 2.371998 1_665
S4 Zn4 2.347694 1_555
S4 Zn16 2.373538 1_655
S4 Zn16 2.373538 1_565
S4 Zn16 2.373542 1_665
S5 Zn5 2.347807 1_555
S5 Zn11 2.372878 1_555
S5 Zn11 2.372881 1_565
S5 Zn11 2.372881 1_655
S6 Zn6 2.350011 1_555
S6 Zn17 2.372181 1_665
S6 Zn17 2.372187 1_565
S6 Zn17 2.372187 1_655
S7 Zn7 2.351593 1_555
S7 Zn13 2.372016 1_565
S7 Zn13 2.372016 1_655
S7 Zn13 2.372016 1_555
S8 Zn8 2.350067 1_555
S8 Zn14 2.372540 1_555
S8 Zn14 2.372543 1_565
S8 Zn14 2.372543 1_655
S9 Zn9 2.352666 1_555
S9 Zn3 2.371956 1_555
S9 Zn3 2.371962 1_455
S9 Zn3 2.371962 1_545
S10 Zn10 2.349898 1_555
S10 Zn4 2.372504 1_455
S10 Zn4 2.372504 1_545
S10 Zn4 2.372504 1_555
S11 Zn11 2.352610 1_555
S11 Zn6 2.372223 1_545
S11 Zn6 2.372223 1_455
S11 Zn6 2.372223 1_555
S12 Zn12 2.353005 1_555
S12 Zn0 2.371752 1_446
S12 Zn0 2.371755 1_546
S12 Zn0 2.371755 1_456
S13 Zn13 2.351593 1_555
S13 Zn1 2.372540 1_445
S13 Zn1 2.372543 1_545
S13 Zn1 2.372543 1_455
S14 Zn14 2.349785 1_555
S14 Zn2 2.372636 1_545
S14 Zn2 2.372636 1_455
S14 Zn2 2.372636 1_445
S15 Zn15 2.351028 1_555
S15 Zn10 2.372635 1_455
S15 Zn10 2.372635 1_545
S15 Zn10 2.372638 1_555
S16 Zn16 2.351480 1_555
S16 Zn5 2.372222 1_545
S16 Zn5 2.372222 1_455
S16 Zn5 2.372225 1_445
S17 Zn17 2.348994 1_555
S17 Zn12 2.373012 1_455
S17 Zn12 2.373012 1_545
S17 Zn12 2.373012 1_555
