# generated using pymatgen
data_AlCu3(BiO3)4
_symmetry_space_group_name_H-M   'P 1'
_cell_length_a   7.10661486
_cell_length_b   7.10661486
_cell_length_c   7.10661486
_cell_angle_alpha   109.47122063
_cell_angle_beta   109.47122063
_cell_angle_gamma   109.47122063
_symmetry_Int_Tables_number   1
_chemical_formula_structural   AlCu3(BiO3)4
_chemical_formula_sum   'Al1 Cu3 Bi4 O12'
_cell_volume   276.29081500
_cell_formula_units_Z   1
loop_
 _symmetry_equiv_pos_site_id
 _symmetry_equiv_pos_as_xyz
  1  'x, y, z'
loop_
 _atom_site_type_symbol
 _atom_site_label
 _atom_site_symmetry_multiplicity
 _atom_site_fract_x
 _atom_site_fract_y
 _atom_site_fract_z
 _atom_site_occupancy
  Al  Al0  1  0.00000000  0.00000000  0.00000000  1
  Cu  Cu0  1  0.00000000  0.50000000  0.50000000  1
  Cu  Cu1  1  0.50000000  0.50000000  0.00000000  1
  Cu  Cu2  1  0.50000000  0.00000000  0.50000000  1
  Bi  Bi0  1  0.50000000  0.00000000  0.00000000  1
  Bi  Bi1  1  0.50000000  0.50000000  0.50000000  1
  Bi  Bi2  1  0.00000000  0.50000000  0.00000000  1
  Bi  Bi3  1  0.00000000  0.00000000  0.50000000  1
  O  O0  1  0.32594900  0.84407800  0.17002700  1
  O  O1  1  0.67405100  0.15592200  0.82997300  1
  O  O2  1  0.67405100  0.84407800  0.51812900  1
  O  O3  1  0.82997300  0.67405100  0.15592200  1
  O  O4  1  0.84407800  0.17002700  0.32594900  1
  O  O5  1  0.15592200  0.48187100  0.32594900  1
  O  O6  1  0.48187100  0.32594900  0.15592200  1
  O  O7  1  0.15592200  0.82997300  0.67405100  1
  O  O8  1  0.32594900  0.15592200  0.48187100  1
  O  O9  1  0.17002700  0.32594900  0.84407800  1
  O  O10  1  0.84407800  0.51812900  0.67405100  1
  O  O11  1  0.51812900  0.67405100  0.84407800  1
loop_
_geom_bond_atom_site_label_1
_geom_bond_atom_site_label_2
_geom_bond_distance
_geom_bond_site_symmetry_2
Cu0 O10 1.917565 1_455
Cu0 O7 1.917565 1_555
Cu0 O4 1.917565 1_455
Cu0 O5 1.917565 1_555
Cu1 O3 1.917565 1_555
Cu1 O11 1.917565 1_554
Cu1 O9 1.917565 1_554
Cu1 O6 1.917565 1_555
Cu2 O2 1.917565 1_545
Cu2 O0 1.917565 1_545
Cu2 O1 1.917565 1_555
Cu2 O8 1.917565 1_555
Bi0 O4 2.278834 1_555
Bi0 O1 2.278834 1_554
Bi0 O0 2.278834 1_545
Bi0 O7 2.278834 1_544
Bi0 O11 2.278834 1_544
Bi0 O6 2.278834 1_555
Bi1 O2 2.278834 1_555
Bi1 O6 2.278834 1_555
Bi1 O8 2.278834 1_555
Bi1 O5 2.278834 1_555
Bi1 O10 2.278834 1_555
Bi1 O11 2.278834 1_555
Bi2 O0 2.278834 1_555
Bi2 O5 2.278834 1_555
Bi2 O1 2.278834 1_454
Bi2 O10 2.278834 1_454
Bi2 O9 2.278834 1_554
Bi2 O3 2.278834 1_455
Bi3 O4 2.278834 1_455
Bi3 O2 2.278834 1_445
Bi3 O8 2.278834 1_555
Bi3 O7 2.278834 1_545
Bi3 O9 2.278834 1_555
Bi3 O3 2.278834 1_445
