# generated using pymatgen
data_LaTb3(Mo2O7)2
_symmetry_space_group_name_H-M   'P 1'
_cell_length_a   7.39684662
_cell_length_b   7.39684662
_cell_length_c   7.39684669
_cell_angle_alpha   60.90686544
_cell_angle_beta   60.90686544
_cell_angle_gamma   60.90686114
_symmetry_Int_Tables_number   1
_chemical_formula_structural   LaTb3(Mo2O7)2
_chemical_formula_sum   'La1 Tb3 Mo4 O14'
_cell_volume   292.01976728
_cell_formula_units_Z   1
loop_
 _symmetry_equiv_pos_site_id
 _symmetry_equiv_pos_as_xyz
  1  'x, y, z'
loop_
 _atom_site_type_symbol
 _atom_site_label
 _atom_site_symmetry_multiplicity
 _atom_site_fract_x
 _atom_site_fract_y
 _atom_site_fract_z
 _atom_site_occupancy
  La  La0  1  0.50000000  0.50000000  0.50000000  1
  Tb  Tb0  1  0.00000000  0.50000000  0.50000000  1
  Tb  Tb1  1  0.50000000  0.50000000  0.00000000  1
  Tb  Tb2  1  0.50000000  0.00000000  0.50000000  1
  Mo  Mo0  1  0.00000000  0.00000000  0.00000000  1
  Mo  Mo1  1  0.50000000  0.00000000  0.00000000  1
  Mo  Mo2  1  0.00000000  0.00000000  0.50000000  1
  Mo  Mo3  1  0.00000000  0.50000000  0.00000000  1
  O  O0  1  0.91627000  0.33222900  0.33222900  1
  O  O1  1  0.34722200  0.90881100  0.90881100  1
  O  O2  1  0.33222900  0.33222900  0.91627000  1
  O  O3  1  0.90881100  0.90881100  0.34722200  1
  O  O4  1  0.90881100  0.34722200  0.90881100  1
  O  O5  1  0.33222900  0.91627000  0.33222900  1
  O  O6  1  0.08373000  0.66777100  0.66777100  1
  O  O7  1  0.65277800  0.09118900  0.09118900  1
  O  O8  1  0.66777100  0.66777100  0.08373000  1
  O  O9  1  0.09118900  0.09118900  0.65277800  1
  O  O10  1  0.09118900  0.65277800  0.09118900  1
  O  O11  1  0.66777100  0.08373000  0.66777100  1
  O  O12  1  0.37060100  0.37060100  0.37060100  1
  O  O13  1  0.62939900  0.62939900  0.62939900  1
loop_
_geom_bond_atom_site_label_1
_geom_bond_atom_site_label_2
_geom_bond_distance
_geom_bond_site_symmetry_2
La0 O12 2.328319 1_555
La0 O13 2.328319 1_555
La0 O11 2.574244 1_555
La0 O5 2.574244 1_555
La0 O6 2.574244 1_555
La0 O0 2.574244 1_555
La0 O2 2.574244 1_555
La0 O8 2.574244 1_555
Mo0 O1 2.139961 1_544
Mo0 O4 2.139961 1_454
Mo0 O7 2.139961 1_455
Mo0 O10 2.139961 1_545
Mo0 O3 2.139961 1_445
Mo0 O9 2.139961 1_554
Mo1 O7 2.027795 1_555
Mo1 O1 2.027795 1_544
Mo1 O8 2.065027 1_545
Mo1 O2 2.065027 1_554
Mo1 O5 2.065027 1_545
Mo1 O11 2.065027 1_554
Mo2 O3 2.027795 1_445
Mo2 O9 2.027795 1_555
Mo2 O0 2.065027 1_455
Mo2 O5 2.065027 1_545
Mo2 O11 2.065027 1_455
Mo2 O6 2.065027 1_545
Mo3 O4 2.027795 1_454
Mo3 O10 2.027795 1_555
Mo3 O8 2.065027 1_455
Mo3 O2 2.065027 1_554
Mo3 O0 2.065027 1_455
Mo3 O6 2.065027 1_554
O0 Tb0 2.540880 1_655
O1 Tb1 2.512111 1_556
O1 Tb2 2.512111 1_565
O2 Tb1 2.540880 1_556
O3 Tb0 2.512111 1_655
O3 Tb2 2.512111 1_565
O4 Tb1 2.512111 1_556
O4 Tb0 2.512111 1_655
O5 Tb2 2.540880 1_565
O6 Tb0 2.540880 1_555
O7 Tb1 2.512111 1_555
O7 Tb2 2.512111 1_555
O8 Tb1 2.540880 1_555
O9 Tb2 2.512111 1_555
O9 Tb0 2.512111 1_555
O10 Tb1 2.512111 1_555
O10 Tb0 2.512111 1_555
O11 Tb2 2.540880 1_555
O12 Tb0 2.265981 1_555
O12 Tb2 2.265981 1_555
O12 Tb1 2.265981 1_555
O13 Tb0 2.265981 1_655
O13 Tb2 2.265981 1_565
O13 Tb1 2.265981 1_556
