# generated using pymatgen
data_LiSm2Cr2O8
_symmetry_space_group_name_H-M   'P 1'
_cell_length_a   6.09906709
_cell_length_b   6.20791709
_cell_length_c   6.09906732
_cell_angle_alpha   105.37688805
_cell_angle_beta   105.54455820
_cell_angle_gamma   117.00124523
_symmetry_Int_Tables_number   1
_chemical_formula_structural   LiSm2Cr2O8
_chemical_formula_sum   'Li1 Sm2 Cr2 O8'
_cell_volume   176.95901283
_cell_formula_units_Z   1
loop_
 _symmetry_equiv_pos_site_id
 _symmetry_equiv_pos_as_xyz
  1  'x, y, z'
loop_
 _atom_site_type_symbol
 _atom_site_label
 _atom_site_symmetry_multiplicity
 _atom_site_fract_x
 _atom_site_fract_y
 _atom_site_fract_z
 _atom_site_occupancy
  Li  Li0  1  0.75307200  0.00000000  0.25307200  1
  Sm  Sm0  1  0.35596400  0.60740900  0.72462200  1
  Sm  Sm1  1  0.61721300  0.39259200  0.24855500  1
  Cr  Cr0  1  0.87309500  0.12839400  0.76244000  1
  Cr  Cr1  1  0.13404600  0.87160700  0.24470100  1
  O  O0  1  0.27440300  0.21965600  0.40830900  1
  O  O1  1  0.85744200  0.29378100  0.56398100  1
  O  O2  1  0.23232000  0.30052500  0.92285700  1
  O  O3  1  0.33467600  0.86983200  0.08558300  1
  O  O4  1  0.12233200  0.69947600  0.43179500  1
  O  O5  1  0.68865300  0.78034500  0.55474700  1
  O  O6  1  0.77020000  0.70621900  0.06366100  1
  O  O7  1  0.71575300  0.13016900  0.96484600  1
loop_
_geom_bond_atom_site_label_1
_geom_bond_atom_site_label_2
_geom_bond_distance
_geom_bond_site_symmetry_2
Li0 O6 1.947288 1_545
Li0 O1 1.947288 1_555
Li0 O7 2.121545 1_554
Li0 O3 2.121553 1_545
Li0 O5 2.575014 1_545
Li0 O0 2.575018 1_655
Cr0 O2 1.752170 1_655
Cr0 O7 1.755656 1_555
Cr0 O5 1.765286 1_545
Cr0 O1 1.792899 1_555
Cr1 O4 1.752170 1_555
Cr1 O3 1.755655 1_555
Cr1 O0 1.765286 1_565
Cr1 O6 1.792898 1_455
O0 Sm0 2.387295 1_555
O0 Sm1 2.466151 1_555
O1 Sm0 2.451893 1_655
O1 Sm1 2.480966 1_555
O2 Sm1 2.337438 1_556
O2 Sm0 2.462853 1_555
O3 Sm0 2.441466 1_554
O3 Sm1 2.604321 1_565
O4 Sm0 2.337445 1_555
O4 Sm1 2.462853 1_455
O5 Sm1 2.387295 1_555
O5 Sm0 2.466151 1_555
O6 Sm1 2.451889 1_555
O6 Sm0 2.480962 1_554
O7 Sm1 2.441468 1_556
O7 Sm0 2.604321 1_545
