# generated using pymatgen
data_BaNdInO4
_symmetry_space_group_name_H-M   'P 1'
_cell_length_a   6.12815500
_cell_length_b   8.36845600
_cell_length_c   9.23681558
_cell_angle_alpha   76.60178317
_cell_angle_beta   90.00000000
_cell_angle_gamma   90.00000000
_symmetry_Int_Tables_number   1
_chemical_formula_structural   BaNdInO4
_chemical_formula_sum   'Ba4 Nd4 In4 O16'
_cell_volume   460.80094775
_cell_formula_units_Z   4
loop_
 _symmetry_equiv_pos_site_id
 _symmetry_equiv_pos_as_xyz
  1  'x, y, z'
loop_
 _atom_site_type_symbol
 _atom_site_label
 _atom_site_symmetry_multiplicity
 _atom_site_fract_x
 _atom_site_fract_y
 _atom_site_fract_z
 _atom_site_occupancy
  Ba  Ba0  1  0.75165400  0.46879700  0.14657000  1
  Ba  Ba1  1  0.25165400  0.03120300  0.85343000  1
  Ba  Ba2  1  0.24834600  0.53120300  0.85343000  1
  Ba  Ba3  1  0.74834600  0.96879700  0.14657000  1
  Nd  Nd0  1  0.24599800  0.39323700  0.45273100  1
  Nd  Nd1  1  0.74599800  0.10676300  0.54726900  1
  Nd  Nd2  1  0.75400200  0.60676300  0.54726900  1
  Nd  Nd3  1  0.25400200  0.89323700  0.45273100  1
  In  In0  1  0.75569100  0.29349700  0.83097100  1
  In  In1  1  0.25569100  0.20650300  0.16902900  1
  In  In2  1  0.24430900  0.70650300  0.16902900  1
  In  In3  1  0.74430900  0.79349700  0.83097100  1
  O  O0  1  0.30523600  0.45252700  0.18405600  1
  O  O1  1  0.80523600  0.04747300  0.81594400  1
  O  O2  1  0.69476400  0.54747300  0.81594400  1
  O  O3  1  0.19476400  0.95252700  0.18405600  1
  O  O4  1  0.48887800  0.22848300  0.98774700  1
  O  O5  1  0.98887800  0.27151700  0.01225300  1
  O  O6  1  0.51112200  0.77151700  0.01225300  1
  O  O7  1  0.01112200  0.72848300  0.98774700  1
  O  O8  1  0.04383300  0.16995300  0.38777200  1
  O  O9  1  0.54383300  0.33004700  0.61222800  1
  O  O10  1  0.95616700  0.83004700  0.61222800  1
  O  O11  1  0.45616700  0.66995300  0.38777200  1
  O  O12  1  0.00612900  0.37404900  0.64772400  1
  O  O13  1  0.50612900  0.12595100  0.35227600  1
  O  O14  1  0.99387100  0.62595100  0.35227600  1
  O  O15  1  0.49387100  0.87404900  0.64772400  1
loop_
_geom_bond_atom_site_label_1
_geom_bond_atom_site_label_2
_geom_bond_distance
_geom_bond_site_symmetry_2
Ba0 O5 2.706919 1_555
Ba0 O0 2.756943 1_555
Ba0 O7 2.815251 1_654
Ba0 O6 2.944998 1_555
Ba0 O14 2.949775 1_555
Ba0 O2 2.991605 1_554
Ba0 O4 3.186992 1_554
Ba0 O13 3.402853 1_555
Ba0 O0 3.409575 1_655
Ba0 O8 3.441195 1_655
Ba1 O4 2.706919 1_555
Ba1 O1 2.756943 1_455
Ba1 O6 2.815251 1_546
Ba1 O7 2.944998 1_545
Ba1 O15 2.949775 1_545
Ba1 O3 2.991605 1_546
Ba1 O5 3.186992 1_456
Ba1 O12 3.402853 1_555
Ba1 O1 3.409575 1_555
Ba1 O9 3.441195 1_555
Ba2 O7 2.706919 1_555
Ba2 O2 2.756943 1_555
Ba2 O5 2.815251 1_456
Ba2 O4 2.944998 1_555
Ba2 O12 2.949775 1_555
Ba2 O0 2.991605 1_556
Ba2 O6 3.186992 1_556
Ba2 O15 3.402853 1_555
Ba2 O2 3.409575 1_455
Ba2 O10 3.441195 1_455
Ba3 O6 2.706919 1_555
Ba3 O3 2.756943 1_655
Ba3 O4 2.815251 1_564
Ba3 O5 2.944998 1_565
Ba3 O13 2.949775 1_565
Ba3 O1 2.991605 1_564
Ba3 O7 3.186992 1_654
Ba3 O14 3.402853 1_555
Ba3 O3 3.409575 1_555
Ba3 O11 3.441195 1_555
Nd0 O12 2.301420 1_555
Nd0 O9 2.328158 1_555
Nd0 O8 2.430210 1_555
Nd0 O0 2.442573 1_555
Nd0 O14 2.490658 1_455
Nd0 O11 2.595633 1_555
Nd0 O13 3.060586 1_555
Nd1 O13 2.301420 1_555
Nd1 O8 2.328158 1_655
Nd1 O9 2.430210 1_555
Nd1 O1 2.442573 1_555
Nd1 O15 2.490658 1_545
Nd1 O10 2.595633 1_545
Nd1 O12 3.060586 1_655
Nd2 O14 2.301420 1_555
Nd2 O11 2.328158 1_555
Nd2 O10 2.430210 1_555
Nd2 O2 2.442573 1_555
Nd2 O12 2.490658 1_655
Nd2 O9 2.595633 1_555
Nd2 O15 3.060586 1_555
Nd3 O15 2.301420 1_555
Nd3 O10 2.328158 1_455
Nd3 O11 2.430210 1_555
Nd3 O3 2.442573 1_555
Nd3 O13 2.490658 1_565
Nd3 O8 2.595633 1_565
Nd3 O14 3.060586 1_455
In0 O1 2.117242 1_555
In0 O2 2.130546 1_555
In0 O4 2.168263 1_555
In0 O5 2.176465 1_556
In0 O12 2.268472 1_655
In0 O9 2.361166 1_555
In1 O0 2.117242 1_555
In1 O3 2.130546 1_545
In1 O5 2.168263 1_455
In1 O4 2.176465 1_554
In1 O13 2.268472 1_555
In1 O8 2.361166 1_555
In2 O3 2.117242 1_555
In2 O0 2.130546 1_555
In2 O6 2.168263 1_555
In2 O7 2.176465 1_554
In2 O14 2.268472 1_455
In2 O11 2.361166 1_555
In3 O2 2.117242 1_555
In3 O1 2.130546 1_565
In3 O7 2.168263 1_655
In3 O6 2.176465 1_556
In3 O15 2.268472 1_555
In3 O10 2.361166 1_555
