# generated using pymatgen
data_TbY3Ni8(B2C)4
_symmetry_space_group_name_H-M   'P 1'
_cell_length_a   3.53360700
_cell_length_b   3.53360700
_cell_length_c   20.84650900
_cell_angle_alpha   90.00000000
_cell_angle_beta   90.00000000
_cell_angle_gamma   90.00000000
_symmetry_Int_Tables_number   1
_chemical_formula_structural   TbY3Ni8(B2C)4
_chemical_formula_sum   'Tb1 Y3 Ni8 B8 C4'
_cell_volume   260.29740033
_cell_formula_units_Z   1
loop_
 _symmetry_equiv_pos_site_id
 _symmetry_equiv_pos_as_xyz
  1  'x, y, z'
loop_
 _atom_site_type_symbol
 _atom_site_label
 _atom_site_symmetry_multiplicity
 _atom_site_fract_x
 _atom_site_fract_y
 _atom_site_fract_z
 _atom_site_occupancy
  Tb  Tb0  1  0.50000000  0.50000000  0.00000000  1
  Y  Y0  1  0.00000000  0.00000000  0.25003000  1
  Y  Y1  1  0.50000000  0.50000000  0.50000000  1
  Y  Y2  1  0.00000000  0.00000000  0.74997000  1
  Ni  Ni0  1  0.00000000  0.50000000  0.12501800  1
  Ni  Ni1  1  0.50000000  0.00000000  0.37496900  1
  Ni  Ni2  1  0.00000000  0.50000000  0.62503100  1
  Ni  Ni3  1  0.50000000  0.00000000  0.87498200  1
  Ni  Ni4  1  0.50000000  0.00000000  0.12501800  1
  Ni  Ni5  1  0.00000000  0.50000000  0.37496900  1
  Ni  Ni6  1  0.50000000  0.00000000  0.62503100  1
  Ni  Ni7  1  0.00000000  0.50000000  0.87498200  1
  B  B0  1  0.50000000  0.50000000  0.17856900  1
  B  B1  1  0.00000000  0.00000000  0.42865000  1
  B  B2  1  0.50000000  0.50000000  0.67867000  1
  B  B3  1  0.00000000  0.00000000  0.92860300  1
  B  B4  1  0.00000000  0.00000000  0.07139700  1
  B  B5  1  0.50000000  0.50000000  0.32133000  1
  B  B6  1  0.00000000  0.00000000  0.57135000  1
  B  B7  1  0.50000000  0.50000000  0.82143100  1
  C  C0  1  0.00000000  0.00000000  0.00000000  1
  C  C1  1  0.50000000  0.50000000  0.24994900  1
  C  C2  1  0.00000000  0.00000000  0.50000000  1
  C  C3  1  0.50000000  0.50000000  0.75005100  1
loop_
_geom_bond_atom_site_label_1
_geom_bond_atom_site_label_2
_geom_bond_distance
_geom_bond_site_symmetry_2
B0 C1 1.488024 1_555
B0 Ni0 2.089937 1_555
B0 Ni4 2.089937 1_565
B0 Ni4 2.089937 1_555
B0 Ni0 2.089937 1_655
B1 C2 1.487398 1_555
B1 Ni5 2.091385 1_545
B1 Ni1 2.091385 1_555
B1 Ni5 2.091385 1_555
B1 Ni1 2.091385 1_455
B2 C3 1.488045 1_555
B2 Ni6 2.090917 1_565
B2 Ni6 2.090917 1_555
B2 Ni2 2.090917 1_655
B2 Ni2 2.090917 1_555
B3 C0 1.488378 1_556
B3 Ni7 2.090716 1_555
B3 Ni7 2.090716 1_545
B3 Ni3 2.090716 1_455
B3 Ni3 2.090716 1_555
B4 C0 1.488378 1_555
B4 Ni0 2.090716 1_555
B4 Ni0 2.090716 1_545
B4 Ni4 2.090716 1_455
B4 Ni4 2.090716 1_555
B5 C1 1.488045 1_555
B5 Ni1 2.090917 1_555
B5 Ni5 2.090917 1_555
B5 Ni5 2.090917 1_655
B5 Ni1 2.090917 1_565
B6 C2 1.487398 1_555
B6 Ni2 2.091385 1_545
B6 Ni2 2.091385 1_555
B6 Ni6 2.091385 1_555
B6 Ni6 2.091385 1_455
B7 C3 1.488024 1_555
B7 Ni3 2.089937 1_555
B7 Ni3 2.089937 1_565
B7 Ni7 2.089937 1_555
B7 Ni7 2.089937 1_655
C0 Tb0 2.498637 1_445
C0 Tb0 2.498637 1_455
C0 Tb0 2.498637 1_555
C0 Tb0 2.498637 1_545
C1 Y0 2.498638 1_565
C1 Y0 2.498638 1_555
C1 Y0 2.498638 1_665
C1 Y0 2.498638 1_655
C2 Y1 2.498637 1_455
C2 Y1 2.498637 1_545
C2 Y1 2.498637 1_555
C2 Y1 2.498637 1_445
C3 Y2 2.498638 1_555
C3 Y2 2.498638 1_655
C3 Y2 2.498638 1_565
C3 Y2 2.498638 1_665
