# generated using pymatgen
data_FeCoGe
_symmetry_space_group_name_H-M   'P 1'
_cell_length_a   4.07043242
_cell_length_b   4.07043242
_cell_length_c   5.03948100
_cell_angle_alpha   90.00000000
_cell_angle_beta   90.00000000
_cell_angle_gamma   120.00000681
_symmetry_Int_Tables_number   1
_chemical_formula_structural   FeCoGe
_chemical_formula_sum   'Fe2 Co2 Ge2'
_cell_volume   72.30985842
_cell_formula_units_Z   2
loop_
 _symmetry_equiv_pos_site_id
 _symmetry_equiv_pos_as_xyz
  1  'x, y, z'
loop_
 _atom_site_type_symbol
 _atom_site_label
 _atom_site_symmetry_multiplicity
 _atom_site_fract_x
 _atom_site_fract_y
 _atom_site_fract_z
 _atom_site_occupancy
  Fe  Fe0  1  0.00000000  0.00000000  0.00000000  1
  Fe  Fe1  1  0.00000000  0.00000000  0.50000000  1
  Co  Co0  1  0.33333300  0.66666700  0.75000000  1
  Co  Co1  1  0.66666700  0.33333300  0.25000000  1
  Ge  Ge0  1  0.33333300  0.66666700  0.25000000  1
  Ge  Ge1  1  0.66666700  0.33333300  0.75000000  1
loop_
_geom_bond_atom_site_label_1
_geom_bond_atom_site_label_2
_geom_bond_distance
_geom_bond_site_symmetry_2
Fe0 Fe1 2.519741 1_554
Fe0 Fe1 2.519741 1_555
Fe0 Ge1 2.666471 1_454
Fe0 Ge0 2.666471 1_545
Fe0 Ge0 2.666474 1_445
Fe0 Ge1 2.666474 1_554
Fe0 Ge0 2.666474 1_555
Fe0 Ge1 2.666474 1_444
Fe1 Ge1 2.666471 1_455
Fe1 Ge0 2.666471 1_545
Fe1 Ge0 2.666474 1_445
Fe1 Ge1 2.666474 1_555
Fe1 Ge0 2.666474 1_555
Fe1 Ge1 2.666474 1_445
Co0 Ge1 2.350063 1_455
Co0 Ge1 2.350063 1_565
Co0 Ge1 2.350070 1_555
Co0 Ge0 2.519741 1_555
Co0 Ge0 2.519741 1_556
Co0 Fe0 2.666471 1_566
Co0 Fe1 2.666471 1_565
Co0 Fe1 2.666474 1_665
Co0 Fe0 2.666474 1_556
Co0 Fe1 2.666474 1_555
Co0 Fe0 2.666474 1_666
Co1 Ge0 2.350063 1_545
Co1 Ge0 2.350063 1_655
Co1 Ge0 2.350070 1_555
Co1 Ge1 2.519741 1_555
Co1 Ge1 2.519741 1_554
Co1 Fe0 2.666471 1_655
Co1 Fe1 2.666471 1_655
Co1 Fe1 2.666474 1_665
Co1 Fe1 2.666474 1_555
Co1 Fe0 2.666474 1_555
Co1 Fe0 2.666474 1_665
