# generated using pymatgen
data_TlV(CrS2)4
_symmetry_space_group_name_H-M   'P 1'
_cell_length_a   9.14386317
_cell_length_b   9.14386317
_cell_length_c   8.62899222
_cell_angle_alpha   75.95284216
_cell_angle_beta   75.95284216
_cell_angle_gamma   21.91152945
_symmetry_Int_Tables_number   1
_chemical_formula_structural   TlV(CrS2)4
_chemical_formula_sum   'Tl1 V1 Cr4 S8'
_cell_volume   260.87730460
_cell_formula_units_Z   1
loop_
 _symmetry_equiv_pos_site_id
 _symmetry_equiv_pos_as_xyz
  1  'x, y, z'
loop_
 _atom_site_type_symbol
 _atom_site_label
 _atom_site_symmetry_multiplicity
 _atom_site_fract_x
 _atom_site_fract_y
 _atom_site_fract_z
 _atom_site_occupancy
  Tl  Tl0  1  0.00071200  0.00071200  0.99786600  1
  V  V0  1  0.84411200  0.84411200  0.47452600  1
  Cr  Cr0  1  0.20364600  0.20364600  0.16514500  1
  Cr  Cr1  1  0.79392000  0.79392000  0.83395400  1
  Cr  Cr2  1  0.15862900  0.15862900  0.52509000  1
  Cr  Cr3  1  0.49865500  0.49865500  0.50023200  1
  S  S0  1  0.41498600  0.41498600  0.32183800  1
  S  S1  1  0.58557900  0.58557900  0.66771900  1
  S  S2  1  0.73758000  0.73758000  0.34724900  1
  S  S3  1  0.26233300  0.26233300  0.65722500  1
  S  S4  1  0.07473600  0.07473600  0.34831300  1
  S  S5  1  0.92625500  0.92625500  0.66105300  1
  S  S6  1  0.32811200  0.32811200  0.98831400  1
  S  S7  1  0.67074500  0.67074500  0.01147600  1
loop_
_geom_bond_atom_site_label_1
_geom_bond_atom_site_label_2
_geom_bond_distance
_geom_bond_site_symmetry_2
Cr0 S7 2.348298 1_545
Cr0 S7 2.348298 1_455
Cr0 S6 2.374070 1_554
Cr0 S4 2.458918 1_555
Cr0 S2 2.516695 1_455
Cr0 S2 2.516695 1_545
Cr1 S7 2.358463 1_556
Cr1 S6 2.361203 1_655
Cr1 S6 2.361203 1_565
Cr1 S3 2.468769 1_565
Cr1 S3 2.468769 1_655
Cr1 S5 2.473566 1_555
Cr2 S1 2.335969 1_455
Cr2 S1 2.335969 1_545
Cr2 S4 2.394104 1_555
Cr2 S3 2.411760 1_555
Cr2 S2 2.511710 1_455
Cr2 S2 2.511710 1_545
Cr3 S1 2.374802 1_555
Cr3 S4 2.391433 1_565
Cr3 S4 2.391433 1_655
Cr3 S5 2.396565 1_455
Cr3 S5 2.396565 1_545
Cr3 S0 2.402026 1_555
S0 V0 2.355026 1_455
S0 V0 2.355026 1_545
S2 V0 2.429689 1_555
S3 V0 2.552777 1_545
S3 V0 2.552777 1_455
S5 V0 2.437103 1_555
