# generated using pymatgen
data_NpAg3
_symmetry_space_group_name_H-M   'P 1'
_cell_length_a   6.49413175
_cell_length_b   6.49413175
_cell_length_c   4.86196300
_cell_angle_alpha   90.00000000
_cell_angle_beta   90.00000000
_cell_angle_gamma   119.99999746
_symmetry_Int_Tables_number   1
_chemical_formula_structural   NpAg3
_chemical_formula_sum   'Np2 Ag6'
_cell_volume   177.57608738
_cell_formula_units_Z   2
loop_
 _symmetry_equiv_pos_site_id
 _symmetry_equiv_pos_as_xyz
  1  'x, y, z'
loop_
 _atom_site_type_symbol
 _atom_site_label
 _atom_site_symmetry_multiplicity
 _atom_site_fract_x
 _atom_site_fract_y
 _atom_site_fract_z
 _atom_site_occupancy
  Np  Np0  1  0.66666700  0.33333300  0.25000000  1
  Np  Np1  1  0.33333300  0.66666700  0.75000000  1
  Ag  Ag0  1  0.15275500  0.84724500  0.25000000  1
  Ag  Ag1  1  0.69449100  0.84724500  0.25000000  1
  Ag  Ag2  1  0.15275500  0.30550900  0.25000000  1
  Ag  Ag3  1  0.84724500  0.15275500  0.75000000  1
  Ag  Ag4  1  0.30550900  0.15275500  0.75000000  1
  Ag  Ag5  1  0.84724500  0.69449100  0.75000000  1
loop_
_geom_bond_atom_site_label_1
_geom_bond_atom_site_label_2
_geom_bond_distance
_geom_bond_site_symmetry_2
Ag0 Ag1 2.976027 1_455
Ag0 Ag2 2.976027 1_565
Ag0 Ag4 2.976899 1_564
Ag0 Ag5 2.976899 1_455
Ag0 Ag4 2.976899 1_565
Ag0 Ag5 2.976899 1_454
Ag0 Np1 3.167859 1_554
Ag0 Np1 3.167859 1_555
Ag0 Np0 3.250835 1_455
Ag0 Np0 3.250835 1_565
Ag1 Ag2 2.976027 1_665
Ag1 Ag5 2.976893 1_555
Ag1 Ag5 2.976893 1_554
Ag1 Ag3 2.976899 1_565
Ag1 Ag3 2.976899 1_564
Ag1 Np1 3.167866 1_554
Ag1 Np1 3.167866 1_555
Ag1 Np0 3.250834 1_565
Ag1 Np0 3.250834 1_555
Ag2 Ag4 2.976893 1_555
Ag2 Ag4 2.976893 1_554
Ag2 Ag3 2.976899 1_455
Ag2 Ag3 2.976899 1_454
Ag2 Np1 3.167866 1_554
Ag2 Np1 3.167866 1_555
Ag2 Np0 3.250834 1_455
Ag2 Np0 3.250834 1_555
Ag3 Ag5 2.976027 1_545
Ag3 Ag4 2.976027 1_655
Ag3 Np0 3.167859 1_555
Ag3 Np0 3.167859 1_556
Ag3 Np1 3.250835 1_545
Ag3 Np1 3.250835 1_655
Ag4 Ag5 2.976027 1_445
Ag4 Np0 3.167866 1_555
Ag4 Np0 3.167866 1_556
Ag4 Np1 3.250834 1_545
Ag4 Np1 3.250834 1_555
Ag5 Np0 3.167866 1_555
Ag5 Np0 3.167866 1_556
Ag5 Np1 3.250834 1_655
Ag5 Np1 3.250834 1_555
