# generated using pymatgen
data_Ag2O3
_symmetry_space_group_name_H-M   'P 1'
_cell_length_a   5.74876677
_cell_length_b   5.74876677
_cell_length_c   15.55694700
_cell_angle_alpha   90.00000000
_cell_angle_beta   90.00000000
_cell_angle_gamma   146.53505597
_symmetry_Int_Tables_number   1
_chemical_formula_structural   Ag2O3
_chemical_formula_sum   'Ag8 O12'
_cell_volume   283.50552186
_cell_formula_units_Z   4
loop_
 _symmetry_equiv_pos_site_id
 _symmetry_equiv_pos_as_xyz
  1  'x, y, z'
loop_
 _atom_site_type_symbol
 _atom_site_label
 _atom_site_symmetry_multiplicity
 _atom_site_fract_x
 _atom_site_fract_y
 _atom_site_fract_z
 _atom_site_occupancy
  Ag  Ag0  1  0.63595500  0.36404500  0.04874000  1
  Ag  Ag1  1  0.36404500  0.63595500  0.95126000  1
  Ag  Ag2  1  0.63595500  0.36404500  0.45126000  1
  Ag  Ag3  1  0.36404500  0.63595500  0.54874000  1
  Ag  Ag4  1  0.09411200  0.90588800  0.63300500  1
  Ag  Ag5  1  0.90588800  0.09411200  0.36699500  1
  Ag  Ag6  1  0.90588800  0.09411200  0.13300500  1
  Ag  Ag7  1  0.09411200  0.90588800  0.86699500  1
  O  O0  1  0.00000000  0.00000000  0.50000000  1
  O  O1  1  0.00000000  0.00000000  0.00000000  1
  O  O2  1  0.47531600  0.52468400  0.84627600  1
  O  O3  1  0.52468400  0.47531600  0.15372400  1
  O  O4  1  0.52468400  0.47531600  0.34627600  1
  O  O5  1  0.47531600  0.52468400  0.65372400  1
  O  O6  1  0.71315900  0.28684100  0.92294600  1
  O  O7  1  0.28684100  0.71315900  0.07705400  1
  O  O8  1  0.28684100  0.71315900  0.42294600  1
  O  O9  1  0.71315900  0.28684100  0.57705400  1
  O  O10  1  0.17963100  0.82036900  0.75000000  1
  O  O11  1  0.82036900  0.17963100  0.25000000  1
loop_
_geom_bond_atom_site_label_1
_geom_bond_atom_site_label_2
_geom_bond_distance
_geom_bond_site_symmetry_2
Ag0 O3 2.041689 1_555
Ag0 O6 2.133625 1_554
Ag0 O1 2.356937 1_555
Ag0 O1 2.356937 1_665
Ag0 O7 2.386100 1_655
Ag0 O7 2.386100 1_545
Ag1 O2 2.041689 1_555
Ag1 O7 2.133625 1_556
Ag1 O1 2.356937 1_556
Ag1 O1 2.356937 1_666
Ag1 O6 2.386100 1_565
Ag1 O6 2.386100 1_455
Ag2 O4 2.041689 1_555
Ag2 O9 2.133625 1_555
Ag2 O0 2.356937 1_665
Ag2 O0 2.356937 1_555
Ag2 O8 2.386100 1_655
Ag2 O8 2.386100 1_545
Ag3 O5 2.041689 1_555
Ag3 O8 2.133625 1_555
Ag3 O0 2.356937 1_555
Ag3 O0 2.356937 1_665
Ag3 O9 2.386100 1_565
Ag3 O9 2.386100 1_455
Ag4 O10 2.049236 1_555
Ag4 O5 2.134046 1_455
Ag4 O5 2.134046 1_565
Ag4 O9 2.283668 1_455
Ag4 O9 2.283668 1_565
Ag4 O0 2.314127 1_565
Ag5 O11 2.049236 1_555
Ag5 O4 2.134046 1_545
Ag5 O4 2.134046 1_655
Ag5 O8 2.283668 1_655
Ag5 O8 2.283668 1_545
Ag5 O0 2.314127 1_655
Ag6 O11 2.049236 1_555
Ag6 O3 2.134046 1_545
Ag6 O3 2.134046 1_655
Ag6 O7 2.283668 1_655
Ag6 O7 2.283668 1_545
Ag6 O1 2.314127 1_655
Ag7 O10 2.049236 1_555
Ag7 O2 2.134046 1_455
Ag7 O2 2.134046 1_565
Ag7 O6 2.283668 1_455
Ag7 O6 2.283668 1_565
Ag7 O1 2.314127 1_566
