# generated using pymatgen
data_In2Pt
_symmetry_space_group_name_H-M   'P 1'
_cell_length_a   4.12904994
_cell_length_b   4.13833600
_cell_length_c   5.01364124
_cell_angle_alpha   90.00000000
_cell_angle_beta   90.15131802
_cell_angle_gamma   59.92556107
_symmetry_Int_Tables_number   1
_chemical_formula_structural   In2Pt
_chemical_formula_sum   'In2 Pt1'
_cell_volume   74.13640049
_cell_formula_units_Z   1
loop_
 _symmetry_equiv_pos_site_id
 _symmetry_equiv_pos_as_xyz
  1  'x, y, z'
loop_
 _atom_site_type_symbol
 _atom_site_label
 _atom_site_symmetry_multiplicity
 _atom_site_fract_x
 _atom_site_fract_y
 _atom_site_fract_z
 _atom_site_occupancy
  In  In0  1  0.33357100  0.33321500  0.77289400  1
  In  In1  1  0.66642900  0.66678500  0.22710600  1
  Pt  Pt0  1  0.00000000  0.00000000  0.50000000  1
loop_
_geom_bond_atom_site_label_1
_geom_bond_atom_site_label_2
_geom_bond_distance
_geom_bond_site_symmetry_2
In0 Pt0 2.749960 1_655
In0 Pt0 2.750289 1_565
In0 Pt0 2.750292 1_555
In0 In1 3.296268 1_556
In0 In1 3.296273 1_546
In0 In1 3.301759 1_456
In1 Pt0 2.749960 1_565
In1 Pt0 2.750289 1_655
In1 Pt0 2.750292 1_665
