# generated using pymatgen
data_Mg3Au
_symmetry_space_group_name_H-M   'P 1'
_cell_length_a   7.98189552
_cell_length_b   7.98189511
_cell_length_c   8.43505116
_cell_angle_alpha   90.00000000
_cell_angle_beta   90.00000000
_cell_angle_gamma   119.99999379
_symmetry_Int_Tables_number   1
_chemical_formula_structural   Mg3Au
_chemical_formula_sum   'Mg18 Au6'
_cell_volume   465.40434674
_cell_formula_units_Z   6
loop_
 _symmetry_equiv_pos_site_id
 _symmetry_equiv_pos_as_xyz
  1  'x, y, z'
loop_
 _atom_site_type_symbol
 _atom_site_label
 _atom_site_symmetry_multiplicity
 _atom_site_fract_x
 _atom_site_fract_y
 _atom_site_fract_z
 _atom_site_occupancy
  Mg  Mg0  1  0.94539722  0.63299510  0.57832042  1
  Mg  Mg1  1  0.36700490  0.31240311  0.57832042  1
  Mg  Mg2  1  0.68759689  0.05460278  0.57832042  1
  Mg  Mg3  1  0.31240311  0.36700490  0.92167958  1
  Mg  Mg4  1  0.05460278  0.68759689  0.92167958  1
  Mg  Mg5  1  0.63299510  0.94539722  0.92167958  1
  Mg  Mg6  1  0.00000000  -0.00000000  0.25000000  1
  Mg  Mg7  1  0.00000000  -0.00000000  0.75000000  1
  Mg  Mg8  1  0.33333300  0.66666700  0.18583425  1
  Mg  Mg9  1  0.66666700  0.33333300  0.31416575  1
  Mg  Mg10  1  0.66666700  0.33333300  0.81416575  1
  Mg  Mg11  1  0.33333300  0.66666700  0.68583425  1
  Mg  Mg12  1  0.36700490  0.05460278  0.07832042  1
  Mg  Mg13  1  0.94539722  0.31240311  0.07832042  1
  Mg  Mg14  1  0.68759689  0.63299510  0.07832042  1
  Mg  Mg15  1  0.31240311  0.94539722  0.42167958  1
  Mg  Mg16  1  0.63299510  0.68759689  0.42167958  1
  Mg  Mg17  1  0.05460278  0.36700490  0.42167958  1
  Au  Au0  1  0.66033204  0.66033204  0.75000000  1
  Au  Au1  1  -0.00000000  0.33966796  0.75000000  1
  Au  Au2  1  0.33966796  -0.00000000  0.75000000  1
  Au  Au3  1  0.33966796  0.33966796  0.25000000  1
  Au  Au4  1  0.00000000  0.66033204  0.25000000  1
  Au  Au5  1  0.66033204  0.00000000  0.25000000  1
loop_
_geom_bond_atom_site_label_1
_geom_bond_atom_site_label_2
_geom_bond_distance
_geom_bond_site_symmetry_2
Mg0 Mg17 2.977211 1_655
Mg0 Mg4 2.993013 1_655
Mg0 Mg16 3.039788 1_555
Mg0 Mg15 3.039797 1_655
Mg0 Mg10 3.050725 1_555
Mg0 Mg7 3.097038 1_665
Mg0 Mg11 3.106531 1_655
Mg0 Mg9 3.211546 1_555
Mg1 Mg16 2.977201 1_555
Mg1 Mg3 2.993010 1_555
Mg1 Mg17 3.039788 1_555
Mg1 Mg15 3.039802 1_545
Mg1 Mg10 3.050730 1_555
Mg1 Mg7 3.097041 1_555
Mg1 Mg11 3.106531 1_555
Mg1 Mg9 3.211551 1_555
Mg2 Mg5 2.993013 1_545
Mg2 Mg7 3.097045 1_655
Mg2 Mg9 3.211540 1_555
Mg3 Mg7 3.097041 1_555
Mg3 Mg8 3.211551 1_556
Mg4 Mg7 3.097045 1_565
Mg4 Mg8 3.211540 1_556
Mg5 Mg7 3.097038 1_665
Mg5 Mg8 3.211546 1_556
Mg10 Mg2 3.050718 1_555
Mg10 Mg5 3.106531 1_545
Mg10 Mg3 3.106531 1_555
Mg10 Mg4 3.106531 1_655
Mg10 Mg13 3.211540 1_556
Mg10 Mg12 3.211546 1_556
Mg10 Mg14 3.211551 1_556
Mg11 Mg4 3.050718 1_555
Mg11 Mg5 3.050725 1_555
Mg11 Mg3 3.050730 1_555
Mg11 Mg2 3.106531 1_565
Mg11 Mg15 3.211540 1_555
Mg11 Mg17 3.211546 1_555
Mg11 Mg16 3.211551 1_555
Mg12 Mg5 2.977212 1_544
Mg12 Mg15 2.993013 1_545
Mg12 Mg3 3.039788 1_554
Mg12 Mg4 3.039797 1_544
Mg12 Mg9 3.050725 1_555
Mg12 Mg6 3.097038 1_555
Mg12 Mg8 3.106531 1_545
Mg13 Mg4 2.977198 1_654
Mg13 Mg17 2.993013 1_655
Mg13 Mg5 3.039797 1_544
Mg13 Mg3 3.039802 1_654
Mg13 Mg9 3.050718 1_555
Mg13 Mg6 3.097045 1_655
Mg13 Mg8 3.106531 1_655
Mg14 Mg3 2.977202 1_554
Mg14 Mg16 2.993010 1_555
Mg14 Mg5 3.039788 1_554
Mg14 Mg4 3.039802 1_654
Mg14 Mg9 3.050730 1_555
Mg14 Mg6 3.097041 1_665
Mg14 Mg8 3.106531 1_555
Mg15 Mg2 2.977198 1_565
Mg15 Mg8 3.050718 1_555
Mg15 Mg6 3.097045 1_565
Mg15 Mg9 3.106531 1_565
Mg16 Mg2 3.039802 1_565
Mg16 Mg8 3.050730 1_555
Mg16 Mg6 3.097041 1_665
Mg16 Mg9 3.106531 1_555
Mg17 Mg2 3.039797 1_455
Mg17 Mg8 3.050725 1_555
Mg17 Mg6 3.097038 1_555
Mg17 Mg9 3.106531 1_455
Au0 Mg10 2.690716 1_555
Au0 Mg11 2.690716 1_555
Au0 Mg7 2.711194 1_665
Au0 Mg14 2.795001 1_556
Au0 Mg16 2.795001 1_555
Au0 Mg5 2.796146 1_555
Au0 Mg0 2.796146 1_555
Au0 Mg1 2.964647 1_555
Au0 Mg3 2.964647 1_555
Au0 Mg2 3.370955 1_565
Au0 Mg4 3.370956 1_655
Au1 Mg10 2.690708 1_455
Au1 Mg11 2.690712 1_555
Au1 Mg7 2.711194 1_555
Au1 Mg17 2.795002 1_555
Au1 Mg13 2.795002 1_456
Au1 Mg2 2.796150 1_455
Au1 Mg3 2.796152 1_555
Au1 Mg4 2.964644 1_555
Au1 Mg0 2.964651 1_455
Au1 Mg1 3.370948 1_555
Au1 Mg5 3.370953 1_445
Au2 Mg11 2.690708 1_545
Au2 Mg10 2.690712 1_555
Au2 Mg7 2.711194 1_555
Au2 Mg12 2.795002 1_556
Au2 Mg15 2.795002 1_545
Au2 Mg4 2.796150 1_545
Au2 Mg1 2.796152 1_555
Au2 Mg2 2.964644 1_555
Au2 Mg5 2.964651 1_545
Au2 Mg3 3.370948 1_555
Au2 Mg0 3.370953 1_445
Au3 Mg8 2.690716 1_555
Au3 Mg9 2.690716 1_555
Au3 Mg6 2.711194 1_555
Au3 Mg3 2.795001 1_554
Au3 Mg1 2.795001 1_555
Au3 Mg12 2.796146 1_555
Au3 Mg17 2.796146 1_555
Au3 Mg16 2.964647 1_555
Au3 Mg14 2.964647 1_555
Au3 Mg15 3.370955 1_545
Au3 Mg13 3.370956 1_455
Au4 Mg8 2.690708 1_555
Au4 Mg9 2.690712 1_455
Au4 Mg6 2.711194 1_565
Au4 Mg0 2.795002 1_455
Au4 Mg4 2.795002 1_554
Au4 Mg15 2.796150 1_555
Au4 Mg14 2.796152 1_455
Au4 Mg13 2.964644 1_455
Au4 Mg17 2.964651 1_555
Au4 Mg16 3.370948 1_455
Au4 Mg12 3.370953 1_565
Au5 Mg9 2.690708 1_555
Au5 Mg8 2.690712 1_545
Au5 Mg6 2.711194 1_655
Au5 Mg5 2.795002 1_544
Au5 Mg2 2.795002 1_555
Au5 Mg13 2.796150 1_555
Au5 Mg16 2.796152 1_545
Au5 Mg15 2.964644 1_545
Au5 Mg12 2.964651 1_555
Au5 Mg14 3.370948 1_545
Au5 Mg17 3.370953 1_655
