# generated using pymatgen
data_SmSbTe3
_symmetry_space_group_name_H-M   'P 1'
_cell_length_a   4.40387421
_cell_length_b   4.40387421
_cell_length_c   10.83810396
_cell_angle_alpha   78.27782464
_cell_angle_beta   78.27782464
_cell_angle_gamma   59.99999687
_symmetry_Int_Tables_number   1
_chemical_formula_structural   SmSbTe3
_chemical_formula_sum   'Sm1 Sb1 Te3'
_cell_volume   176.95446120
_cell_formula_units_Z   1
loop_
 _symmetry_equiv_pos_site_id
 _symmetry_equiv_pos_as_xyz
  1  'x, y, z'
loop_
 _atom_site_type_symbol
 _atom_site_label
 _atom_site_symmetry_multiplicity
 _atom_site_fract_x
 _atom_site_fract_y
 _atom_site_fract_z
 _atom_site_occupancy
  Sm  Sm0  1  0.60223500  0.60223500  0.19329500  1
  Sb  Sb0  1  0.39922300  0.39922300  0.80233000  1
  Te  Te0  1  0.21498000  0.21498000  0.35506000  1
  Te  Te1  1  0.78396000  0.78396000  0.64812000  1
  Te  Te2  1  0.99960200  0.99960200  0.00119400  1
loop_
_geom_bond_atom_site_label_1
_geom_bond_atom_site_label_2
_geom_bond_distance
_geom_bond_site_symmetry_2
Sm0 Te0 3.060937 1_565
Sm0 Te0 3.060937 1_655
Sm0 Te0 3.060937 1_555
Sm0 Te2 3.249755 1_455
Sm0 Te2 3.249755 1_545
Sm0 Te2 3.249755 1_555
Sb0 Te1 3.017342 1_545
Sb0 Te1 3.017342 1_455
Sb0 Te1 3.017345 1_555
Sb0 Te2 3.294600 1_446
Sb0 Te2 3.294602 1_546
Sb0 Te2 3.294602 1_456
