# generated using pymatgen
data_TlHgPb2
_symmetry_space_group_name_H-M   'P 1'
_cell_length_a   12.82544001
_cell_length_b   12.82544001
_cell_length_c   12.82544001
_cell_angle_alpha   126.80599855
_cell_angle_beta   118.07719078
_cell_angle_gamma   85.99933224
_symmetry_Int_Tables_number   1
_chemical_formula_structural   TlHgPb2
_chemical_formula_sum   'Tl1 Hg1 Pb2'
_cell_volume   1421.53555434
_cell_formula_units_Z   1
loop_
 _symmetry_equiv_pos_site_id
 _symmetry_equiv_pos_as_xyz
  1  'x, y, z'
loop_
 _atom_site_type_symbol
 _atom_site_label
 _atom_site_symmetry_multiplicity
 _atom_site_fract_x
 _atom_site_fract_y
 _atom_site_fract_z
 _atom_site_occupancy
  Tl  Tl0  1  0.00000000  0.50000000  0.50000000  1
  Hg  Hg0  1  0.00000000  0.00000000  0.00000000  1
  Pb  Pb0  1  0.00000000  0.25309000  0.25309000  1
  Pb  Pb1  1  0.00000000  0.74691000  0.74691000  1
loop_
_geom_bond_atom_site_label_1
_geom_bond_atom_site_label_2
_geom_bond_distance
_geom_bond_site_symmetry_2
Hg0 Pb0 2.906540 1_555
Hg0 Pb1 2.906540 1_544
Pb0 Tl0 2.835567 1_555
Pb1 Tl0 2.835567 1_555
