# generated using pymatgen
data_Pt(I3N2)2
_symmetry_space_group_name_H-M   'P 1'
_cell_length_a   7.95462400
_cell_length_b   8.49238100
_cell_length_c   10.81884700
_cell_angle_alpha   90.00000000
_cell_angle_beta   90.00000000
_cell_angle_gamma   90.00000000
_symmetry_Int_Tables_number   1
_chemical_formula_structural   Pt(I3N2)2
_chemical_formula_sum   'Pt2 I12 N8'
_cell_volume   730.85311991
_cell_formula_units_Z   2
loop_
 _symmetry_equiv_pos_site_id
 _symmetry_equiv_pos_as_xyz
  1  'x, y, z'
loop_
 _atom_site_type_symbol
 _atom_site_label
 _atom_site_symmetry_multiplicity
 _atom_site_fract_x
 _atom_site_fract_y
 _atom_site_fract_z
 _atom_site_occupancy
  Pt  Pt0  1  0.50000000  0.50000000  0.50000000  1
  Pt  Pt1  1  0.00000000  0.00000000  0.00000000  1
  I  I0  1  0.50000000  0.50000000  0.73452500  1
  I  I1  1  0.00000000  0.00000000  0.76547500  1
  I  I2  1  0.50000000  0.50000000  0.26547500  1
  I  I3  1  0.00000000  0.00000000  0.23452500  1
  I  I4  1  0.23791600  0.72447200  0.50000000  1
  I  I5  1  0.76208400  0.27552800  0.50000000  1
  I  I6  1  0.26208400  0.22447200  0.00000000  1
  I  I7  1  0.73791600  0.77552800  0.00000000  1
  I  I8  1  0.26622000  0.26315800  0.50000000  1
  I  I9  1  0.73378000  0.73684200  0.50000000  1
  I  I10  1  0.23378000  0.76315800  0.00000000  1
  I  I11  1  0.76622000  0.23684200  0.00000000  1
  N  N0  1  0.78193200  0.81982300  0.82229600  1
  N  N1  1  0.21806800  0.18017700  0.82229600  1
  N  N2  1  0.71806800  0.31982300  0.67770400  1
  N  N3  1  0.28193200  0.68017700  0.67770400  1
  N  N4  1  0.21806800  0.18017700  0.17770400  1
  N  N5  1  0.78193200  0.81982300  0.17770400  1
  N  N6  1  0.28193200  0.68017700  0.32229600  1
  N  N7  1  0.71806800  0.31982300  0.32229600  1
loop_
_geom_bond_atom_site_label_1
_geom_bond_atom_site_label_2
_geom_bond_distance
_geom_bond_site_symmetry_2
I0 N2 2.393368 1_555
I0 N3 2.393368 1_555
I0 Pt0 2.537290 1_555
I1 N1 2.393368 1_555
I1 N0 2.393368 1_445
I1 Pt1 2.537290 1_556
I2 N7 2.393368 1_555
I2 N6 2.393368 1_555
I2 Pt0 2.537290 1_555
I3 N4 2.393368 1_555
I3 N5 2.393368 1_445
I3 Pt1 2.537290 1_555
I4 N3 1.990051 1_555
I4 N6 1.990051 1_555
I4 Pt0 2.824941 1_555
I5 N2 1.990051 1_555
I5 N7 1.990051 1_555
I5 Pt0 2.824941 1_555
I6 N4 1.990051 1_555
I6 N1 1.990051 1_554
I6 Pt1 2.824941 1_555
I7 N5 1.990051 1_555
I7 N0 1.990051 1_554
I7 Pt1 2.824941 1_665
I8 Pt0 2.739301 1_555
I9 Pt0 2.739301 1_555
I10 Pt1 2.739301 1_565
I11 Pt1 2.739301 1_655
