# generated using pymatgen
data_HfNi2Sb
_symmetry_space_group_name_H-M   'P 1'
_cell_length_a   4.17328126
_cell_length_b   4.17328126
_cell_length_c   8.21959543
_cell_angle_alpha   90.00000000
_cell_angle_beta   90.00000000
_cell_angle_gamma   119.99998834
_symmetry_Int_Tables_number   1
_chemical_formula_structural   HfNi2Sb
_chemical_formula_sum   'Hf2 Ni4 Sb2'
_cell_volume   123.97566200
_cell_formula_units_Z   2
loop_
 _symmetry_equiv_pos_site_id
 _symmetry_equiv_pos_as_xyz
  1  'x, y, z'
loop_
 _atom_site_type_symbol
 _atom_site_label
 _atom_site_symmetry_multiplicity
 _atom_site_fract_x
 _atom_site_fract_y
 _atom_site_fract_z
 _atom_site_occupancy
  Hf  Hf0  1  0.33333300  0.66666700  0.25000000  1
  Hf  Hf1  1  0.66666700  0.33333300  0.75000000  1
  Ni  Ni0  1  0.33333300  0.66666700  0.90343254  1
  Ni  Ni1  1  0.66666700  0.33333300  0.09656746  1
  Ni  Ni2  1  0.66666700  0.33333300  0.40343254  1
  Ni  Ni3  1  0.33333300  0.66666700  0.59656746  1
  Sb  Sb0  1  -0.00000000  -0.00000000  0.50000000  1
  Sb  Sb1  1  -0.00000000  -0.00000000  0.00000000  1
loop_
_geom_bond_atom_site_label_1
_geom_bond_atom_site_label_2
_geom_bond_distance
_geom_bond_site_symmetry_2
Hf0 Ni1 2.719545 1_455
Hf0 Ni2 2.719545 1_455
Hf0 Ni1 2.719545 1_565
Hf0 Ni2 2.719545 1_565
Hf0 Ni1 2.719551 1_555
Hf0 Ni2 2.719551 1_555
Hf0 Ni3 2.848644 1_555
Hf0 Ni0 2.848644 1_554
Hf0 Sb1 3.166705 1_565
Hf0 Sb0 3.166705 1_565
Hf0 Sb0 3.166708 1_555
Hf0 Sb1 3.166708 1_665
Hf0 Sb0 3.166708 1_665
Hf0 Sb1 3.166708 1_555
Hf1 Ni3 2.719545 1_545
Hf1 Ni0 2.719545 1_545
Hf1 Ni0 2.719545 1_655
Hf1 Ni3 2.719545 1_655
Hf1 Ni3 2.719551 1_555
Hf1 Ni0 2.719551 1_555
Hf1 Ni1 2.848644 1_556
Hf1 Ni2 2.848644 1_555
Hf1 Sb0 3.166705 1_655
Hf1 Sb1 3.166705 1_656
Hf1 Sb0 3.166708 1_555
Hf1 Sb1 3.166708 1_666
Hf1 Sb1 3.166708 1_556
Hf1 Sb0 3.166708 1_665
Ni0 Ni3 2.522307 1_555
Ni0 Sb1 2.536818 1_566
Ni0 Sb1 2.536822 1_666
Ni0 Sb1 2.536822 1_556
Ni1 Ni2 2.522307 1_555
Ni1 Sb1 2.536818 1_655
Ni1 Sb1 2.536822 1_555
Ni1 Sb1 2.536822 1_665
Ni2 Sb0 2.536818 1_655
Ni2 Sb0 2.536822 1_665
Ni2 Sb0 2.536822 1_555
Ni3 Sb0 2.536818 1_565
Ni3 Sb0 2.536822 1_665
Ni3 Sb0 2.536822 1_555
