# generated using pymatgen
data_LuIn
_symmetry_space_group_name_H-M   'P 1'
_cell_length_a   3.44155291
_cell_length_b   3.44155291
_cell_length_c   4.16248910
_cell_angle_alpha   90.00000000
_cell_angle_beta   90.00000000
_cell_angle_gamma   90.00000000
_symmetry_Int_Tables_number   1
_chemical_formula_structural   LuIn
_chemical_formula_sum   'Lu1 In1'
_cell_volume   49.30171317
_cell_formula_units_Z   1
loop_
 _symmetry_equiv_pos_site_id
 _symmetry_equiv_pos_as_xyz
  1  'x, y, z'
loop_
 _atom_site_type_symbol
 _atom_site_label
 _atom_site_symmetry_multiplicity
 _atom_site_fract_x
 _atom_site_fract_y
 _atom_site_fract_z
 _atom_site_occupancy
  Lu  Lu0  1  -0.00000000  0.00000000  0.00000000  1
  In  In0  1  0.50000000  0.50000000  0.50000000  1
loop_
_geom_bond_atom_site_label_1
_geom_bond_atom_site_label_2
_geom_bond_distance
_geom_bond_site_symmetry_2
In0 Lu0 3.202143 1_666
In0 Lu0 3.202143 1_556
In0 Lu0 3.202143 1_656
In0 Lu0 3.202143 1_555
In0 Lu0 3.202143 1_655
In0 Lu0 3.202143 1_566
In0 Lu0 3.202143 1_565
In0 Lu0 3.202143 1_665
