# generated using pymatgen
data_Tm2Ge6Pd
_symmetry_space_group_name_H-M   'P 1'
_cell_length_a   4.02909100
_cell_length_b   4.06689300
_cell_length_c   11.11476611
_cell_angle_alpha   90.00000000
_cell_angle_beta   100.44254391
_cell_angle_gamma   90.00000000
_symmetry_Int_Tables_number   1
_chemical_formula_structural   Tm2Ge6Pd
_chemical_formula_sum   'Tm2 Ge6 Pd1'
_cell_volume   179.10873417
_cell_formula_units_Z   1
loop_
 _symmetry_equiv_pos_site_id
 _symmetry_equiv_pos_as_xyz
  1  'x, y, z'
loop_
 _atom_site_type_symbol
 _atom_site_label
 _atom_site_symmetry_multiplicity
 _atom_site_fract_x
 _atom_site_fract_y
 _atom_site_fract_z
 _atom_site_occupancy
  Tm  Tm0  1  0.77703300  0.50000000  0.55406600  1
  Tm  Tm1  1  0.11839500  0.50000000  0.23679000  1
  Ge  Ge0  1  0.49281000  0.50000000  0.98562000  1
  Ge  Ge1  1  0.37822400  0.50000000  0.75644900  1
  Ge  Ge2  1  0.99152400  0.00000000  0.98304800  1
  Ge  Ge3  1  0.87676000  0.00000000  0.75351900  1
  Ge  Ge4  1  0.67011200  0.00000000  0.34022400  1
  Ge  Ge5  1  0.24278000  0.00000000  0.48556000  1
  Pd  Pd0  1  0.55936200  0.00000000  0.11872400  1
loop_
_geom_bond_atom_site_label_1
_geom_bond_atom_site_label_2
_geom_bond_distance
_geom_bond_site_symmetry_2
Ge0 Pd0 2.500337 1_556
Ge0 Pd0 2.500337 1_566
Ge0 Ge1 2.504993 1_555
Ge0 Ge2 2.862532 1_555
Ge0 Ge2 2.862532 1_565
Ge0 Ge2 2.862532 1_455
Ge0 Ge2 2.862532 1_465
Ge0 Tm1 3.405280 1_556
Ge0 Tm1 3.405280 1_656
Ge1 Ge3 2.862570 1_465
Ge1 Ge3 2.862570 1_455
Ge1 Ge3 2.862576 1_565
Ge1 Ge3 2.862576 1_555
Ge1 Tm0 2.992012 1_455
Ge1 Tm0 2.992015 1_555
Ge2 Pd0 2.501554 1_556
Ge2 Pd0 2.501554 1_656
Ge2 Ge3 2.508907 1_555
Ge2 Tm1 3.439128 1_646
Ge2 Tm1 3.439128 1_656
Ge3 Tm0 2.981272 1_555
Ge3 Tm0 2.981272 1_545
Ge4 Pd0 2.421144 1_555
Ge4 Ge5 2.565562 1_555
Ge4 Ge5 2.565562 1_655
Ge4 Tm1 3.077590 1_655
Ge4 Tm1 3.077590 1_645
Ge4 Tm1 3.077590 1_555
Ge4 Tm1 3.077590 1_545
Ge4 Tm0 3.098147 1_545
Ge4 Tm0 3.098147 1_555
Ge5 Tm0 2.958720 1_445
Ge5 Tm0 2.958720 1_455
Ge5 Tm0 2.958720 1_545
Ge5 Tm0 2.958720 1_555
Ge5 Tm1 3.395450 1_555
Ge5 Tm1 3.395450 1_545
Pd0 Tm1 3.139872 1_555
Pd0 Tm1 3.139872 1_545
Pd0 Tm1 3.139872 1_655
Pd0 Tm1 3.139872 1_645
