# generated using pymatgen
data_KGdNb4O12
_symmetry_space_group_name_H-M   'P 1'
_cell_length_a   5.60185288
_cell_length_b   5.60185288
_cell_length_c   7.97247476
_cell_angle_alpha   90.00000000
_cell_angle_beta   90.00000000
_cell_angle_gamma   90.41459261
_symmetry_Int_Tables_number   1
_chemical_formula_structural   KGdNb4O12
_chemical_formula_sum   'K1 Gd1 Nb4 O12'
_cell_volume   250.17573254
_cell_formula_units_Z   1
loop_
 _symmetry_equiv_pos_site_id
 _symmetry_equiv_pos_as_xyz
  1  'x, y, z'
loop_
 _atom_site_type_symbol
 _atom_site_label
 _atom_site_symmetry_multiplicity
 _atom_site_fract_x
 _atom_site_fract_y
 _atom_site_fract_z
 _atom_site_occupancy
  K  K0  1  0.01628170  0.98371830  0.50000000  1
  Gd  Gd0  1  0.47290148  0.52709852  -0.00000000  1
  Nb  Nb0  1  0.50975001  0.99787429  0.25211098  1
  Nb  Nb1  1  0.50975001  0.99787429  0.74788902  1
  Nb  Nb2  1  0.00212571  0.49024999  0.74788902  1
  Nb  Nb3  1  0.00212571  0.49024999  0.25211098  1
  O  O0  1  0.22171406  0.22267052  0.23794390  1
  O  O1  1  0.77732948  0.77828594  0.23794390  1
  O  O2  1  0.77732948  0.77828594  0.76205610  1
  O  O3  1  0.22171406  0.22267052  0.76205610  1
  O  O4  1  0.28588460  0.71411540  0.26583462  1
  O  O5  1  0.70315159  0.29684841  0.19716373  1
  O  O6  1  0.70315159  0.29684841  0.80283627  1
  O  O7  1  0.28588460  0.71411540  0.73416538  1
  O  O8  1  0.47431494  0.94480113  -0.00000000  1
  O  O9  1  0.52830361  0.03501150  0.50000000  1
  O  O10  1  0.05519887  0.52568506  0.00000000  1
  O  O11  1  0.96498850  0.47169639  0.50000000  1
loop_
_geom_bond_atom_site_label_1
_geom_bond_atom_site_label_2
_geom_bond_distance
_geom_bond_site_symmetry_2
K0 O2 2.731070 1_455
K0 O3 2.731070 1_565
K0 O1 2.731070 1_455
K0 O0 2.731070 1_565
K0 O9 2.750708 1_465
K0 O11 2.750708 1_465
K0 O7 2.842553 1_555
K0 O4 2.842553 1_555
K0 O11 2.880558 1_455
K0 O9 2.880558 1_565
Gd0 O10 2.339865 1_555
Gd0 O8 2.339865 1_555
Gd0 O6 2.412924 1_554
Gd0 O5 2.412924 1_555
Gd0 O7 2.588952 1_554
Gd0 O4 2.588952 1_555
Nb0 O1 1.949209 1_555
Nb0 O9 1.989846 1_565
Nb0 O4 2.020530 1_555
Nb0 O5 2.035780 1_565
Nb0 O8 2.041282 1_555
Nb0 O0 2.057044 1_565
Nb1 O2 1.949209 1_555
Nb1 O9 1.989846 1_565
Nb1 O7 2.020530 1_555
Nb1 O6 2.035780 1_565
Nb1 O8 2.041282 1_556
Nb1 O3 2.057044 1_565
Nb2 O3 1.949209 1_555
Nb2 O11 1.989846 1_455
Nb2 O7 2.020530 1_555
Nb2 O6 2.035780 1_455
Nb2 O10 2.041282 1_556
Nb2 O2 2.057044 1_455
Nb3 O0 1.949209 1_555
Nb3 O11 1.989846 1_455
Nb3 O4 2.020530 1_555
Nb3 O5 2.035780 1_455
Nb3 O10 2.041282 1_555
Nb3 O1 2.057044 1_455
