# generated using pymatgen
data_Th2CuSi3
_symmetry_space_group_name_H-M   'P 1'
_cell_length_a   4.13874769
_cell_length_b   4.13874769
_cell_length_c   8.16191462
_cell_angle_alpha   90.00000000
_cell_angle_beta   90.00000000
_cell_angle_gamma   120.00001675
_symmetry_Int_Tables_number   1
_chemical_formula_structural   Th2CuSi3
_chemical_formula_sum   'Th2 Cu1 Si3'
_cell_volume   121.07668119
_cell_formula_units_Z   1
loop_
 _symmetry_equiv_pos_site_id
 _symmetry_equiv_pos_as_xyz
  1  'x, y, z'
loop_
 _atom_site_type_symbol
 _atom_site_label
 _atom_site_symmetry_multiplicity
 _atom_site_fract_x
 _atom_site_fract_y
 _atom_site_fract_z
 _atom_site_occupancy
  Th  Th0  1  0.33333300  0.66666700  0.25504866  1
  Th  Th1  1  0.33333300  0.66666700  0.74495134  1
  Cu  Cu0  1  0.66666700  0.33333300  0.00000000  1
  Si  Si0  1  0.66666700  0.33333300  0.50000000  1
  Si  Si1  1  0.00000000  -0.00000000  0.00000000  1
  Si  Si2  1  0.00000000  -0.00000000  0.50000000  1
loop_
_geom_bond_atom_site_label_1
_geom_bond_atom_site_label_2
_geom_bond_distance
_geom_bond_site_symmetry_2
Cu0 Si1 2.389505 1_655
Cu0 Si1 2.389508 1_555
Cu0 Si1 2.389508 1_665
Cu0 Th0 3.169092 1_545
Cu0 Th1 3.169092 1_654
Cu0 Th0 3.169092 1_655
Cu0 Th1 3.169092 1_544
Cu0 Th0 3.169098 1_555
Cu0 Th1 3.169098 1_554
Si0 Si2 2.389505 1_655
Si0 Si2 2.389508 1_665
Si0 Si2 2.389508 1_555
Si0 Th1 3.115577 1_545
Si0 Th0 3.115577 1_545
Si0 Th1 3.115577 1_655
Si0 Th0 3.115577 1_655
Si0 Th1 3.115583 1_555
Si0 Th0 3.115583 1_555
Si1 Th0 3.169093 1_545
Si1 Th1 3.169093 1_544
Si1 Th0 3.169095 1_445
Si1 Th0 3.169095 1_555
Si1 Th1 3.169095 1_444
Si1 Th1 3.169095 1_554
Si2 Th1 3.115577 1_545
Si2 Th0 3.115577 1_545
Si2 Th1 3.115580 1_555
Si2 Th0 3.115580 1_445
Si2 Th0 3.115580 1_555
Si2 Th1 3.115580 1_445
