# generated using pymatgen
data_MgMn6(OF2)4
_symmetry_space_group_name_H-M   'P 1'
_cell_length_a   5.29500224
_cell_length_b   8.10738061
_cell_length_c   6.00184234
_cell_angle_alpha   95.78372982
_cell_angle_beta   100.01978582
_cell_angle_gamma   83.63962171
_symmetry_Int_Tables_number   1
_chemical_formula_structural   MgMn6(OF2)4
_chemical_formula_sum   'Mg1 Mn6 O4 F8'
_cell_volume   251.28338368
_cell_formula_units_Z   1
loop_
 _symmetry_equiv_pos_site_id
 _symmetry_equiv_pos_as_xyz
  1  'x, y, z'
loop_
 _atom_site_type_symbol
 _atom_site_label
 _atom_site_symmetry_multiplicity
 _atom_site_fract_x
 _atom_site_fract_y
 _atom_site_fract_z
 _atom_site_occupancy
  Mg  Mg0  1  0.50425000  0.18398700  0.17957700  1
  Mn  Mn0  1  0.44001900  0.96605000  0.55050100  1
  Mn  Mn1  1  0.63287400  0.65924400  0.15373500  1
  Mn  Mn2  1  0.53404300  0.35963100  0.76330300  1
  Mn  Mn3  1  0.95711600  0.66445900  0.67216200  1
  Mn  Mn4  1  0.00768800  0.32725500  0.32054900  1
  Mn  Mn5  1  0.99761900  0.97065800  0.99921400  1
  O  O0  1  0.84472600  0.74774900  0.94775400  1
  O  O1  1  0.65882500  0.75060500  0.48463500  1
  O  O2  1  0.67935400  0.39207400  0.13139100  1
  O  O3  1  0.34500800  0.23244800  0.47094000  1
  F  F0  1  0.85706700  0.39944400  0.62710800  1
  F  F1  1  0.86134100  0.09499700  0.30415200  1
  F  F2  1  0.61754200  0.09877000  0.86476300  1
  F  F3  1  0.31226900  0.58202200  0.84642500  1
  F  F4  1  0.38417300  0.94397400  0.17377500  1
  F  F5  1  0.09914900  0.56536100  0.38562700  1
  F  F6  1  0.14748000  0.22801900  0.02057500  1
  F  F7  1  0.13334200  0.90825000  0.68714600  1
loop_
_geom_bond_atom_site_label_1
_geom_bond_atom_site_label_2
_geom_bond_distance
_geom_bond_site_symmetry_2
Mg0 O3 2.055370 1_555
Mg0 O2 2.080291 1_555
Mn0 O1 2.030112 1_555
Mn0 O3 2.242617 1_565
Mn1 O0 2.035008 1_554
Mn1 O1 2.035400 1_555
Mn1 O2 2.145961 1_555
Mn2 O3 2.096892 1_555
Mn2 O2 2.208623 1_556
Mn3 O1 1.882724 1_555
Mn3 O0 1.890614 1_555
Mn4 O2 1.954111 1_455
Mn4 O3 1.967326 1_555
Mn5 O0 2.035055 1_555
F0 Mn2 2.088035 1_555
F0 Mn4 2.134027 1_655
F0 Mn3 2.248421 1_555
F1 Mg0 1.992286 1_555
F1 Mn4 2.101257 1_655
F1 Mn5 2.193861 1_544
F2 Mg0 2.108730 1_556
F2 Mn0 2.190215 1_545
F2 Mn5 2.218297 1_545
F2 Mn2 2.235575 1_555
F3 Mn3 2.062767 1_455
F3 Mn2 2.105267 1_555
F3 Mn1 2.364091 1_556
F4 Mg0 2.108236 1_565
F4 Mn5 2.129607 1_454
F4 Mn0 2.220209 1_555
F4 Mn1 2.530420 1_555
F5 Mn4 2.025572 1_555
F5 Mn3 2.050927 1_455
F5 Mn1 2.685781 1_455
F6 Mg0 1.974525 1_555
F6 Mn4 2.115764 1_555
F6 Mn5 2.297217 1_444
F7 Mn0 2.058780 1_555
F7 Mn5 2.115975 1_455
F7 Mn3 2.264725 1_455
