# generated using pymatgen
data_Na2FeH7(SO6)2
_symmetry_space_group_name_H-M   'P 1'
_cell_length_a   7.18981400
_cell_length_b   7.41650600
_cell_length_c   21.29410318
_cell_angle_alpha   90.00000000
_cell_angle_beta   100.12095720
_cell_angle_gamma   90.00000000
_symmetry_Int_Tables_number   1
_chemical_formula_structural   Na2FeH7(SO6)2
_chemical_formula_sum   'Na8 Fe4 H28 S8 O48'
_cell_volume   1117.80271258
_cell_formula_units_Z   4
loop_
 _symmetry_equiv_pos_site_id
 _symmetry_equiv_pos_as_xyz
  1  'x, y, z'
loop_
 _atom_site_type_symbol
 _atom_site_label
 _atom_site_symmetry_multiplicity
 _atom_site_fract_x
 _atom_site_fract_y
 _atom_site_fract_z
 _atom_site_occupancy
  Na  Na0  1  0.43534600  0.91826000  0.87787800  1
  Na  Na1  1  0.43534600  0.58174000  0.37787800  1
  Na  Na2  1  0.56465400  0.08174000  0.12212200  1
  Na  Na3  1  0.56465400  0.41826000  0.62212200  1
  Na  Na4  1  0.94387700  0.92378800  0.88089100  1
  Na  Na5  1  0.94387700  0.57621200  0.38089100  1
  Na  Na6  1  0.05612300  0.07621200  0.11910900  1
  Na  Na7  1  0.05612300  0.42378800  0.61910900  1
  Fe  Fe0  1  0.00000000  0.50000000  0.00000000  1
  Fe  Fe1  1  0.00000000  0.00000000  0.50000000  1
  Fe  Fe2  1  0.50000000  0.50000000  0.00000000  1
  Fe  Fe3  1  0.50000000  0.00000000  0.50000000  1
  H  H0  1  0.73338900  0.27633500  0.96779600  1
  H  H1  1  0.73338900  0.22366500  0.46779600  1
  H  H2  1  0.26661100  0.72366500  0.03220400  1
  H  H3  1  0.26661100  0.77633500  0.53220400  1
  H  H4  1  0.94118800  0.24658000  0.80529100  1
  H  H5  1  0.94118800  0.25342000  0.30529100  1
  H  H6  1  0.05881200  0.75342000  0.19470900  1
  H  H7  1  0.05881200  0.74658000  0.69470900  1
  H  H8  1  0.84833700  0.09022100  0.76070800  1
  H  H9  1  0.84833700  0.40977900  0.26070800  1
  H  H10  1  0.15166300  0.90977900  0.23929200  1
  H  H11  1  0.15166300  0.59022100  0.73929200  1
  H  H12  1  0.69873000  0.62191400  0.85628300  1
  H  H13  1  0.69873000  0.87808600  0.35628300  1
  H  H14  1  0.30127000  0.37808600  0.14371700  1
  H  H15  1  0.30127000  0.12191400  0.64371700  1
  H  H16  1  0.63630200  0.70198900  0.78775200  1
  H  H17  1  0.63630200  0.79801100  0.28775200  1
  H  H18  1  0.36369800  0.29801100  0.21224800  1
  H  H19  1  0.36369800  0.20198900  0.71224800  1
  H  H20  1  0.37028400  0.25838500  0.81297800  1
  H  H21  1  0.37028400  0.24161500  0.31297800  1
  H  H22  1  0.62971600  0.74161500  0.18702200  1
  H  H23  1  0.62971600  0.75838500  0.68702200  1
  H  H24  1  0.57650600  0.18846400  0.80595100  1
  H  H25  1  0.57650600  0.31153600  0.30595100  1
  H  H26  1  0.42349400  0.81153600  0.19404900  1
  H  H27  1  0.42349400  0.68846400  0.69404900  1
  S  S0  1  0.81805500  0.47328500  0.13033800  1
  S  S1  1  0.81805500  0.02671500  0.63033800  1
  S  S2  1  0.18194500  0.52671500  0.86966200  1
  S  S3  1  0.18194500  0.97328500  0.36966200  1
  S  S4  1  0.74543900  0.87074500  0.99620600  1
  S  S5  1  0.74543900  0.62925500  0.49620600  1
  S  S6  1  0.25456100  0.12925500  0.00379400  1
  S  S7  1  0.25456100  0.37074500  0.50379400  1
  O  O0  1  0.82316700  0.27776100  0.14312100  1
  O  O1  1  0.82316700  0.22223900  0.64312100  1
  O  O2  1  0.17683300  0.72223900  0.85687900  1
  O  O3  1  0.17683300  0.77776100  0.35687900  1
  O  O4  1  0.84872900  0.57826600  0.19071100  1
  O  O5  1  0.84872900  0.92173400  0.69071100  1
  O  O6  1  0.15127100  0.42173400  0.80928900  1
  O  O7  1  0.15127100  0.07826600  0.30928900  1
  O  O8  1  0.37142700  0.47248300  0.90690200  1
  O  O9  1  0.37142700  0.02751700  0.40690200  1
  O  O10  1  0.62857300  0.52751700  0.09309800  1
  O  O11  1  0.62857300  0.97248300  0.59309800  1
  O  O12  1  0.02745200  0.47677200  0.90597900  1
  O  O13  1  0.02745200  0.02322800  0.40597900  1
  O  O14  1  0.97254800  0.52322800  0.09402100  1
  O  O15  1  0.97254800  0.97677200  0.59402100  1
  O  O16  1  0.90912300  0.75817200  0.98229400  1
  O  O17  1  0.90912300  0.74182800  0.48229400  1
  O  O18  1  0.09087700  0.24182800  0.01770600  1
  O  O19  1  0.09087700  0.25817200  0.51770600  1
  O  O20  1  0.56821100  0.75783800  0.98134600  1
  O  O21  1  0.56821100  0.74216200  0.48134600  1
  O  O22  1  0.43178900  0.24216200  0.01865400  1
  O  O23  1  0.43178900  0.25783800  0.51865400  1
  O  O24  1  0.72282600  0.02057600  0.94968300  1
  O  O25  1  0.72282600  0.47942400  0.44968300  1
  O  O26  1  0.27717400  0.97942400  0.05031700  1
  O  O27  1  0.27717400  0.52057600  0.55031700  1
  O  O28  1  0.77894100  0.93026500  0.06272100  1
  O  O29  1  0.77894100  0.56973500  0.56272100  1
  O  O30  1  0.22105900  0.06973500  0.93727900  1
  O  O31  1  0.22105900  0.43026500  0.43727900  1
  O  O32  1  0.73770800  0.40696700  0.97613900  1
  O  O33  1  0.73770800  0.09303300  0.47613900  1
  O  O34  1  0.26229200  0.59303300  0.02386100  1
  O  O35  1  0.26229200  0.90696700  0.52386100  1
  O  O36  1  0.84841100  0.14752400  0.80244900  1
  O  O37  1  0.84841100  0.35247600  0.30244900  1
  O  O38  1  0.15158900  0.85247600  0.19755100  1
  O  O39  1  0.15158900  0.64752400  0.69755100  1
  O  O40  1  0.67059300  0.73540600  0.83351300  1
  O  O41  1  0.67059300  0.76459400  0.33351300  1
  O  O42  1  0.32940700  0.26459400  0.16648700  1
  O  O43  1  0.32940700  0.23540600  0.66648700  1
  O  O44  1  0.44085900  0.15689000  0.79858700  1
  O  O45  1  0.44085900  0.34311000  0.29858700  1
  O  O46  1  0.55914100  0.84311000  0.20141300  1
  O  O47  1  0.55914100  0.65689000  0.70141300  1
loop_
_geom_bond_atom_site_label_1
_geom_bond_atom_site_label_2
_geom_bond_distance
_geom_bond_site_symmetry_2
Na0 O2 2.340081 1_555
Na0 O30 2.433234 1_565
Na0 O44 2.451140 1_565
Na0 O24 2.464791 1_565
Na0 O40 2.480714 1_555
Na0 O20 2.538255 1_555
Na1 O3 2.340081 1_555
Na1 O31 2.433234 1_555
Na1 O45 2.451140 1_555
Na1 O25 2.464791 1_555
Na1 O41 2.480714 1_555
Na1 O21 2.538255 1_555
Na2 O0 2.340081 1_555
Na2 O28 2.433234 1_545
Na2 O46 2.451140 1_545
Na2 O26 2.464791 1_545
Na2 O42 2.480714 1_555
Na2 O22 2.538255 1_555
Na3 O1 2.340081 1_555
Na3 O29 2.433234 1_555
Na3 O47 2.451140 1_555
Na3 O27 2.464791 1_555
Na3 O43 2.480714 1_555
Na3 O23 2.538255 1_555
Na4 O2 2.366886 1_655
Na4 O36 2.368895 1_565
Na4 O30 2.396660 1_665
Na4 O24 2.450563 1_565
Na4 O40 2.476652 1_555
Na4 O16 2.534419 1_555
Na5 O3 2.366886 1_655
Na5 O37 2.368895 1_555
Na5 O31 2.396660 1_655
Na5 O25 2.450563 1_555
Na5 O41 2.476652 1_555
Na5 O17 2.534419 1_555
Na6 O0 2.366886 1_455
Na6 O38 2.368895 1_545
Na6 O28 2.396660 1_445
Na6 O26 2.450563 1_545
Na6 O42 2.476652 1_555
Na6 O18 2.534419 1_555
Na7 O1 2.366886 1_455
Na7 O39 2.368895 1_555
Na7 O29 2.396660 1_455
Na7 O27 2.450563 1_555
Na7 O43 2.476652 1_555
Na7 O19 2.534419 1_555
Fe0 O32 1.988425 1_454
Fe0 O34 1.988425 1_555
Fe0 O16 2.036835 1_454
Fe0 O18 2.036835 1_555
Fe0 O14 2.053264 1_455
Fe0 O12 2.053264 1_554
Fe1 O33 1.988425 1_455
Fe1 O35 1.988425 1_545
Fe1 O17 2.036835 1_445
Fe1 O19 2.036835 1_555
Fe1 O15 2.053264 1_445
Fe1 O13 2.053264 1_555
Fe2 O34 1.990069 1_555
Fe2 O32 1.990069 1_554
Fe2 O22 2.030638 1_555
Fe2 O20 2.030638 1_554
Fe2 O10 2.045038 1_555
Fe2 O8 2.045038 1_554
Fe3 O35 1.990069 1_545
Fe3 O33 1.990069 1_555
Fe3 O21 2.030638 1_545
Fe3 O23 2.030638 1_555
Fe3 O11 2.045038 1_545
Fe3 O9 2.045038 1_555
H0 O32 0.984492 1_555
H1 O33 0.984492 1_555
H2 O34 0.984492 1_555
H3 O35 0.984492 1_555
H4 O36 0.986985 1_555
H5 O37 0.986985 1_555
H6 O38 0.986985 1_555
H7 O39 0.986985 1_555
H8 O36 0.985130 1_555
H9 O37 0.985130 1_555
H10 O38 0.985130 1_555
H11 O39 0.985130 1_555
H12 O40 0.974695 1_555
H13 O41 0.974695 1_555
H14 O42 0.974695 1_555
H15 O43 0.974695 1_555
H16 O40 0.993633 1_555
H17 O41 0.993633 1_555
H18 O42 0.993633 1_555
H19 O43 0.993633 1_555
H20 O44 0.986229 1_555
H21 O45 0.986229 1_555
H22 O46 0.986229 1_555
H23 O47 0.986229 1_555
H24 O44 0.988352 1_555
H25 O45 0.988352 1_555
H26 O46 0.988352 1_555
H27 O47 0.988352 1_555
O0 S0 1.474698 1_555
O1 S1 1.474698 1_555
O2 S2 1.474698 1_555
O3 S3 1.474698 1_555
O4 S0 1.485913 1_555
O5 S1 1.485913 1_565
O6 S2 1.485913 1_555
O7 S3 1.485913 1_545
O8 S2 1.505622 1_555
O9 S3 1.505622 1_545
O10 S0 1.505622 1_555
O11 S1 1.505622 1_565
O12 S2 1.506975 1_555
O13 S3 1.506975 1_545
O14 S0 1.506975 1_555
O15 S1 1.506975 1_565
O16 S4 1.514047 1_555
O17 S5 1.514047 1_555
O18 S6 1.514047 1_555
O19 S7 1.514047 1_555
O20 S4 1.511058 1_555
O21 S5 1.511058 1_555
O22 S6 1.511058 1_555
O23 S7 1.511058 1_555
O24 S4 1.478533 1_545
O25 S5 1.478533 1_555
O26 S6 1.478533 1_565
O27 S7 1.478533 1_555
O28 S4 1.462567 1_554
O29 S5 1.462567 1_555
O30 S6 1.462567 1_556
O31 S7 1.462567 1_555
