# generated using pymatgen
data_Sr2YCu3O7
_symmetry_space_group_name_H-M   'P 1'
_cell_length_a   12.23075530
_cell_length_b   12.23075530
_cell_length_c   12.23075530
_cell_angle_alpha   154.39154942
_cell_angle_beta   154.24815759
_cell_angle_gamma   36.63500533
_symmetry_Int_Tables_number   1
_chemical_formula_structural   Sr2YCu3O7
_chemical_formula_sum   'Sr4 Y2 Cu6 O14'
_cell_volume   343.11569534
_cell_formula_units_Z   2
loop_
 _symmetry_equiv_pos_site_id
 _symmetry_equiv_pos_as_xyz
  1  'x, y, z'
loop_
 _atom_site_type_symbol
 _atom_site_label
 _atom_site_symmetry_multiplicity
 _atom_site_fract_x
 _atom_site_fract_y
 _atom_site_fract_z
 _atom_site_occupancy
  Sr  Sr0  1  0.66681200  0.15418200  0.51478600  1
  Sr  Sr1  1  0.36060400  0.84581800  0.51263000  1
  Sr  Sr2  1  0.16681200  0.65202600  0.51263000  1
  Sr  Sr3  1  0.86060400  0.34797400  0.51478600  1
  Y  Y0  1  0.01132300  0.50000000  0.51132300  1
  Y  Y1  1  0.51132300  0.00000000  0.51132300  1
  Cu  Cu0  1  0.73456900  0.80342200  0.03799000  1
  Cu  Cu1  1  0.23456900  0.19657800  0.93114700  1
  Cu  Cu2  1  0.08610400  0.07439300  0.01219400  1
  Cu  Cu3  1  0.93780000  0.92560700  0.01171100  1
  Cu  Cu4  1  0.58610400  0.57391000  0.01171100  1
  Cu  Cu5  1  0.43780000  0.42609000  0.01219400  1
  O  O0  1  0.89759900  0.13023200  0.52783100  1
  O  O1  1  0.39759900  0.86976800  0.76736700  1
  O  O2  1  0.82051800  0.30851000  0.00383000  1
  O  O3  1  0.69532000  0.69149000  0.51200800  1
  O  O4  1  0.32051800  0.31668800  0.51200800  1
  O  O5  1  0.19532000  0.68331200  0.00383000  1
  O  O6  1  0.32679000  0.81586500  0.01716500  1
  O  O7  1  0.20130000  0.18413500  0.51092500  1
  O  O8  1  0.82679000  0.80962600  0.51092500  1
  O  O9  1  0.70130000  0.19037400  0.01716500  1
  O  O10  1  0.68375000  0.66241300  0.00543100  1
  O  O11  1  0.34301800  0.33758700  0.02133600  1
  O  O12  1  0.18375000  0.17831900  0.02133600  1
  O  O13  1  0.84301800  0.82168100  0.00543100  1
loop_
_geom_bond_atom_site_label_1
_geom_bond_atom_site_label_2
_geom_bond_distance
_geom_bond_site_symmetry_2
Cu0 O1 1.871709 1_554
Cu0 O13 1.885499 1_555
Cu0 O10 1.885522 1_555
Cu0 O0 1.982085 1_565
Cu1 O0 1.871711 1_455
Cu1 O12 1.885499 1_556
Cu1 O11 1.885522 1_556
Cu1 O1 1.982081 1_545
Cu2 O6 1.937328 1_545
Cu2 O2 1.939899 1_455
Cu2 O4 1.939953 1_555
Cu2 O8 1.944953 1_444
Cu2 O12 2.234713 1_555
Cu3 O7 1.937330 1_665
Cu3 O3 1.939901 1_554
Cu3 O5 1.939958 1_655
Cu3 O9 1.944947 1_565
Cu3 O13 2.234690 1_555
Cu4 O8 1.937327 1_555
Cu4 O4 1.939899 1_554
Cu4 O2 1.939953 1_555
Cu4 O6 1.944954 1_555
Cu4 O10 2.234701 1_555
Cu5 O9 1.937336 1_555
Cu5 O5 1.939897 1_555
Cu5 O3 1.939954 1_555
Cu5 O7 1.944956 1_554
Cu5 O11 2.234678 1_555
O0 Sr0 2.454569 1_555
O0 Sr3 2.454569 1_555
O1 Sr2 2.454569 1_555
O1 Sr1 2.454569 1_555
O2 Y1 2.386895 1_554
O2 Y0 2.432814 1_655
O2 Sr0 2.819743 1_554
O2 Sr2 2.870995 1_655
O3 Y1 2.386895 1_565
O3 Y0 2.432814 1_655
O3 Sr1 2.819743 1_555
O3 Sr3 2.870995 1_555
O4 Y0 2.386895 1_555
O4 Y1 2.432814 1_555
O4 Sr2 2.819743 1_555
O4 Sr0 2.870995 1_555
O5 Y0 2.386895 1_554
O5 Y1 2.432814 1_565
O5 Sr3 2.819743 1_454
O5 Sr1 2.870995 1_555
O6 Y1 2.393988 1_565
O6 Y0 2.429764 1_554
O6 Sr0 2.839361 1_565
O6 Sr2 2.857285 1_554
O7 Y1 2.393988 1_555
O7 Y0 2.429764 1_555
O7 Sr1 2.839361 1_545
O7 Sr3 2.857285 1_455
O8 Y0 2.393998 1_655
O8 Y1 2.429767 1_565
O8 Sr2 2.839355 1_655
O8 Sr0 2.857274 1_565
O9 Y0 2.393995 1_655
O9 Y1 2.429771 1_554
O9 Sr3 2.839353 1_555
O9 Sr1 2.857276 1_544
O10 Sr0 2.691644 1_554
O10 Sr2 2.753333 1_554
O10 Sr2 2.756827 1_655
O10 Sr0 2.788507 1_565
O11 Sr1 2.691645 1_555
O11 Sr3 2.753328 1_454
O11 Sr3 2.756828 1_555
O11 Sr1 2.788503 1_544
O12 Sr2 2.691648 1_555
O12 Sr0 2.753332 1_454
O12 Sr0 2.756831 1_555
O12 Sr2 2.788506 1_544
O13 Sr3 2.691644 1_554
O13 Sr1 2.753333 1_554
O13 Sr1 2.756827 1_655
O13 Sr3 2.788507 1_565
