# generated using pymatgen
data_YbGe2Pt
_symmetry_space_group_name_H-M   'P 1'
_cell_length_a   9.50414184
_cell_length_b   9.50414184
_cell_length_c   9.50414184
_cell_angle_alpha   153.37973480
_cell_angle_beta   123.98600718
_cell_angle_gamma   63.06456063
_symmetry_Int_Tables_number   1
_chemical_formula_structural   YbGe2Pt
_chemical_formula_sum   'Yb4 Ge8 Pt4'
_cell_volume   316.42442623
_cell_formula_units_Z   4
loop_
 _symmetry_equiv_pos_site_id
 _symmetry_equiv_pos_as_xyz
  1  'x, y, z'
loop_
 _atom_site_type_symbol
 _atom_site_label
 _atom_site_symmetry_multiplicity
 _atom_site_fract_x
 _atom_site_fract_y
 _atom_site_fract_z
 _atom_site_occupancy
  Yb  Yb0  1  0.25912000  0.00000000  0.25912000  1
  Yb  Yb1  1  0.74088000  0.00000000  0.74088000  1
  Yb  Yb2  1  0.29700500  0.79700500  0.50000000  1
  Yb  Yb3  1  0.70299500  0.20299500  0.50000000  1
  Ge  Ge0  1  0.92275600  0.42275600  0.50000000  1
  Ge  Ge1  1  0.07724400  0.57724400  0.50000000  1
  Ge  Ge2  1  0.42532800  0.42532800  0.00000000  1
  Ge  Ge3  1  0.57467200  0.57467200  0.00000000  1
  Ge  Ge4  1  0.05132100  0.19925300  0.85206800  1
  Ge  Ge5  1  0.94867900  0.80074700  0.14793200  1
  Ge  Ge6  1  0.34718500  0.19925300  0.14793200  1
  Ge  Ge7  1  0.65281500  0.80074700  0.85206800  1
  Pt  Pt0  1  0.10423000  0.35264300  0.75158800  1
  Pt  Pt1  1  0.89577000  0.64735700  0.24841200  1
  Pt  Pt2  1  0.60105500  0.35264300  0.24841200  1
  Pt  Pt3  1  0.39894500  0.64735700  0.75158800  1
loop_
_geom_bond_atom_site_label_1
_geom_bond_atom_site_label_2
_geom_bond_distance
_geom_bond_site_symmetry_2
Ge0 Pt0 2.516606 1_655
Ge0 Pt2 2.516607 1_555
Ge0 Yb1 3.420997 1_554
Ge0 Yb0 3.420997 1_655
Ge0 Yb1 3.420997 1_565
Ge0 Yb0 3.420997 1_666
Ge0 Yb3 3.560486 1_555
Ge1 Pt1 2.516606 1_455
Ge1 Pt3 2.516607 1_555
Ge1 Yb0 3.420997 1_555
Ge1 Yb1 3.420997 1_454
Ge1 Yb1 3.420997 1_465
Ge1 Yb0 3.420997 1_566
Ge1 Yb2 3.560486 1_555
Ge2 Ge3 2.419616 1_555
Ge2 Pt2 2.510617 1_555
Ge2 Pt0 2.510625 1_554
Ge2 Yb2 3.018282 1_544
Ge2 Yb2 3.018282 1_555
Ge2 Yb1 3.297582 1_554
Ge2 Yb0 3.297582 1_554
Ge2 Yb1 3.297582 1_565
Ge2 Yb0 3.297582 1_565
Ge3 Pt3 2.510617 1_554
Ge3 Pt1 2.510625 1_555
Ge3 Yb3 3.018282 1_565
Ge3 Yb3 3.018282 1_554
Ge3 Yb1 3.297582 1_554
Ge3 Yb0 3.297582 1_554
Ge3 Yb1 3.297582 1_565
Ge3 Yb0 3.297582 1_565
Ge4 Pt1 2.520032 1_456
Ge4 Pt1 2.520036 1_445
Ge4 Ge6 2.640852 1_556
Ge4 Pt0 2.642047 1_555
Ge4 Yb2 3.006555 1_556
Ge4 Yb2 3.006555 1_545
Ge4 Yb3 3.143108 1_455
Ge4 Yb1 3.377334 1_455
Ge5 Pt0 2.520032 1_654
Ge5 Pt0 2.520036 1_665
Ge5 Ge7 2.640852 1_554
Ge5 Pt1 2.642047 1_555
Ge5 Yb3 3.006555 1_554
Ge5 Yb3 3.006555 1_565
Ge5 Yb2 3.143108 1_655
Ge5 Yb0 3.377334 1_665
Ge6 Pt3 2.520038 1_555
Ge6 Pt3 2.520038 1_544
Ge6 Pt2 2.642053 1_555
Ge6 Yb2 3.006555 1_544
Ge6 Yb2 3.006555 1_555
Ge6 Yb3 3.143108 1_555
Ge6 Yb0 3.377334 1_555
Ge7 Pt2 2.520038 1_555
Ge7 Pt2 2.520038 1_566
Ge7 Pt3 2.642053 1_555
Ge7 Yb3 3.006555 1_566
Ge7 Yb3 3.006555 1_555
Ge7 Yb2 3.143108 1_555
Ge7 Yb1 3.377334 1_565
Pt0 Yb0 3.239128 1_566
Pt0 Yb0 3.239131 1_555
Pt0 Yb2 3.242930 1_556
Pt0 Yb2 3.242933 1_545
Pt0 Yb3 3.304736 1_455
Pt1 Yb1 3.239128 1_554
Pt1 Yb1 3.239131 1_565
Pt1 Yb3 3.242930 1_554
Pt1 Yb3 3.242933 1_565
Pt1 Yb2 3.304736 1_655
Pt2 Yb1 3.239123 1_554
Pt2 Yb1 3.239123 1_565
Pt2 Yb2 3.242931 1_555
Pt2 Yb2 3.242931 1_544
Pt2 Yb3 3.304745 1_555
Pt3 Yb0 3.239123 1_566
Pt3 Yb0 3.239123 1_555
Pt3 Yb3 3.242931 1_555
Pt3 Yb3 3.242931 1_566
Pt3 Yb2 3.304745 1_555
