# generated using pymatgen
data_Tb6FeBi2
_symmetry_space_group_name_H-M   'P 1'
_cell_length_a   8.36234100
_cell_length_b   4.19870100
_cell_length_c   8.36811310
_cell_angle_alpha   90.00000000
_cell_angle_beta   119.89535767
_cell_angle_gamma   90.00000000
_symmetry_Int_Tables_number   1
_chemical_formula_structural   Tb6FeBi2
_chemical_formula_sum   'Tb6 Fe1 Bi2'
_cell_volume   254.71702258
_cell_formula_units_Z   1
loop_
 _symmetry_equiv_pos_site_id
 _symmetry_equiv_pos_as_xyz
  1  'x, y, z'
loop_
 _atom_site_type_symbol
 _atom_site_label
 _atom_site_symmetry_multiplicity
 _atom_site_fract_x
 _atom_site_fract_y
 _atom_site_fract_z
 _atom_site_occupancy
  Tb  Tb0  1  0.24548300  0.00000000  0.23607100  1
  Tb  Tb1  1  0.02033400  0.00000000  0.77543200  1
  Tb  Tb2  1  0.78872700  0.00000000  0.01110600  1
  Tb  Tb3  1  0.01799400  0.50000000  0.40656400  1
  Tb  Tb4  1  0.62814800  0.50000000  0.61972600  1
  Tb  Tb5  1  0.41584400  0.50000000  0.00948100  1
  Fe  Fe0  1  0.01389600  0.50000000  0.00007700  1
  Bi  Bi0  1  0.68220200  0.00000000  0.34300900  1
  Bi  Bi1  1  0.35340300  0.00000000  0.67416400  1
loop_
_geom_bond_atom_site_label_1
_geom_bond_atom_site_label_2
_geom_bond_distance
_geom_bond_site_symmetry_2
Tb0 Tb2 3.311377 1_455
Tb0 Tb1 3.341986 1_554
Tb0 Tb5 3.567188 1_555
Tb0 Tb5 3.567188 1_545
Tb0 Tb3 3.573114 1_545
Tb0 Tb3 3.573114 1_555
Tb0 Tb4 3.835794 1_555
Tb0 Tb4 3.835794 1_545
Tb1 Tb2 3.383487 1_456
Tb1 Tb4 3.549796 1_445
Tb1 Tb4 3.549796 1_455
Tb1 Tb5 3.567188 1_556
Tb1 Tb5 3.567188 1_546
Tb1 Tb3 3.724962 1_545
Tb1 Tb3 3.724962 1_555
Tb2 Tb4 3.542998 1_554
Tb2 Tb4 3.542998 1_544
Tb2 Tb3 3.565052 1_645
Tb2 Tb3 3.565052 1_655
Tb2 Tb5 3.753426 1_555
Tb2 Tb5 3.753426 1_545
Fe0 Tb1 2.836355 1_554
Fe0 Tb1 2.836355 1_564
Fe0 Tb2 2.852102 1_465
Fe0 Tb2 2.852102 1_455
Fe0 Tb0 2.871463 1_555
Fe0 Tb0 2.871463 1_565
Fe0 Tb4 3.209570 1_454
Fe0 Tb5 3.322704 1_555
Fe0 Tb3 3.384579 1_555
Bi0 Tb0 3.298505 1_555
Bi0 Tb1 3.299971 1_655
Bi0 Tb5 3.310774 1_545
Bi0 Tb5 3.310774 1_555
Bi0 Tb2 3.312666 1_555
Bi0 Tb4 3.319182 1_555
Bi0 Tb4 3.319182 1_545
Bi0 Tb3 3.329618 1_655
Bi0 Tb3 3.329618 1_645
Bi1 Tb1 3.290664 1_555
Bi1 Tb4 3.307061 1_545
Bi1 Tb4 3.307061 1_555
Bi1 Tb0 3.310002 1_555
Bi1 Tb2 3.312142 1_556
Bi1 Tb3 3.320807 1_545
Bi1 Tb3 3.320807 1_555
Bi1 Tb5 3.330597 1_556
Bi1 Tb5 3.330597 1_546
