# generated using pymatgen
data_Ge19(AsBr)4
_symmetry_space_group_name_H-M   'P 1'
_cell_length_a   10.72113130
_cell_length_b   10.72113130
_cell_length_c   10.72113130
_cell_angle_alpha   90.00000000
_cell_angle_beta   90.00000000
_cell_angle_gamma   90.00000000
_symmetry_Int_Tables_number   1
_chemical_formula_structural   Ge19(AsBr)4
_chemical_formula_sum   'Ge38 As8 Br8'
_cell_volume   1232.31531072
_cell_formula_units_Z   2
loop_
 _symmetry_equiv_pos_site_id
 _symmetry_equiv_pos_as_xyz
  1  'x, y, z'
loop_
 _atom_site_type_symbol
 _atom_site_label
 _atom_site_symmetry_multiplicity
 _atom_site_fract_x
 _atom_site_fract_y
 _atom_site_fract_z
 _atom_site_occupancy
  Ge  Ge0  1  0.31799840  0.31799840  0.31799840  1
  Ge  Ge1  1  0.68200160  0.68200160  0.31799840  1
  Ge  Ge2  1  0.68200160  0.31799840  0.68200160  1
  Ge  Ge3  1  0.81799840  0.81799840  0.81799840  1
  Ge  Ge4  1  0.31799840  0.68200160  0.68200160  1
  Ge  Ge5  1  0.18200160  0.18200160  0.81799840  1
  Ge  Ge6  1  0.81799840  0.18200160  0.18200160  1
  Ge  Ge7  1  0.18200160  0.81799840  0.18200160  1
  Ge  Ge8  1  0.99809314  0.11714163  0.30975314  1
  Ge  Ge9  1  0.00190686  0.88285837  0.30975314  1
  Ge  Ge10  1  0.00190686  0.11714163  0.69024686  1
  Ge  Ge11  1  0.30975314  0.99809314  0.11714163  1
  Ge  Ge12  1  0.61714163  0.49809314  0.80975314  1
  Ge  Ge13  1  0.99809314  0.88285837  0.69024686  1
  Ge  Ge14  1  0.30975314  0.00190686  0.88285837  1
  Ge  Ge15  1  0.38285837  0.50190686  0.80975314  1
  Ge  Ge16  1  0.69024686  0.00190686  0.11714163  1
  Ge  Ge17  1  0.61714163  0.50190686  0.19024686  1
  Ge  Ge18  1  0.69024686  0.99809314  0.88285837  1
  Ge  Ge19  1  0.38285837  0.49809314  0.19024686  1
  Ge  Ge20  1  0.11714163  0.30975314  0.99809314  1
  Ge  Ge21  1  0.49809314  0.80975314  0.61714163  1
  Ge  Ge22  1  0.11714163  0.69024686  0.00190686  1
  Ge  Ge23  1  0.50190686  0.19024686  0.61714163  1
  Ge  Ge24  1  0.88285837  0.69024686  0.99809314  1
  Ge  Ge25  1  0.49809314  0.19024686  0.38285837  1
  Ge  Ge26  1  0.88285837  0.30975314  0.00190686  1
  Ge  Ge27  1  0.50190686  0.80975314  0.38285837  1
  Ge  Ge28  1  0.80975314  0.61714163  0.49809314  1
  Ge  Ge29  1  0.80975314  0.38285837  0.50190686  1
  Ge  Ge30  1  0.19024686  0.38285837  0.49809314  1
  Ge  Ge31  1  0.19024686  0.61714163  0.50190686  1
  Ge  Ge32  1  0.25000000  0.50000000  -0.00000000  1
  Ge  Ge33  1  0.75000000  0.50000000  -0.00000000  1
  Ge  Ge34  1  -0.00000000  0.25000000  0.50000000  1
  Ge  Ge35  1  -0.00000000  0.75000000  0.50000000  1
  Ge  Ge36  1  0.50000000  -0.00000000  0.25000000  1
  Ge  Ge37  1  0.50000000  -0.00000000  0.75000000  1
  As  As0  1  0.18443384  0.18443384  0.18443384  1
  As  As1  1  0.81556616  0.81556616  0.18443384  1
  As  As2  1  0.81556616  0.18443384  0.81556616  1
  As  As3  1  0.68443384  0.68443384  0.68443384  1
  As  As4  1  0.18443384  0.81556616  0.81556616  1
  As  As5  1  0.31556616  0.31556616  0.68443384  1
  As  As6  1  0.68443384  0.31556616  0.31556616  1
  As  As7  1  0.31556616  0.68443384  0.31556616  1
  Br  Br0  1  0.25000000  -0.00000000  0.50000000  1
  Br  Br1  1  0.75000000  -0.00000000  0.50000000  1
  Br  Br2  1  0.50000000  0.25000000  -0.00000000  1
  Br  Br3  1  0.50000000  0.75000000  -0.00000000  1
  Br  Br4  1  -0.00000000  0.50000000  0.25000000  1
  Br  Br5  1  -0.00000000  0.50000000  0.75000000  1
  Br  Br6  1  -0.00000000  -0.00000000  -0.00000000  1
  Br  Br7  1  0.50000000  0.50000000  0.50000000  1
loop_
_geom_bond_atom_site_label_1
_geom_bond_atom_site_label_2
_geom_bond_distance
_geom_bond_site_symmetry_2
Ge0 Ge25 2.467291 1_555
Ge0 Ge30 2.467291 1_555
Ge0 Ge19 2.467291 1_555
Ge1 Ge17 2.467291 1_555
Ge1 Ge27 2.467291 1_555
Ge1 Ge28 2.467291 1_555
Ge2 Ge23 2.467291 1_555
Ge2 Ge29 2.467291 1_555
Ge6 Ge8 2.467291 1_555
Ge7 Ge9 2.467291 1_555
Ge8 Ge9 2.512114 1_645
Ge10 Ge5 2.467291 1_555
Ge10 Ge34 2.487877 1_555
Ge10 Ge13 2.512114 1_445
Ge11 Ge7 2.467291 1_555
Ge11 Ge36 2.487877 1_565
Ge11 Ge14 2.512114 1_564
Ge12 Ge2 2.467291 1_555
Ge12 Ge33 2.487877 1_556
Ge12 Ge15 2.512114 1_555
Ge13 Ge3 2.467291 1_555
Ge13 Ge35 2.487877 1_655
Ge14 Ge5 2.467291 1_555
Ge14 Ge37 2.487877 1_555
Ge15 Ge4 2.467291 1_555
Ge15 Ge32 2.487877 1_556
Ge16 Ge6 2.467291 1_555
Ge16 Ge36 2.487877 1_555
Ge16 Ge18 2.512114 1_544
Ge17 Ge33 2.487877 1_555
Ge17 Ge19 2.512114 1_555
Ge18 Ge3 2.467291 1_555
Ge18 Ge37 2.487877 1_565
Ge19 Ge32 2.487877 1_555
Ge20 Ge5 2.467291 1_555
Ge20 Ge32 2.487877 1_556
Ge20 Ge26 2.512114 1_456
Ge21 Ge4 2.467291 1_555
Ge21 Ge37 2.487877 1_565
Ge21 Ge27 2.512114 1_555
Ge22 Ge7 2.467291 1_555
Ge22 Ge32 2.487877 1_555
Ge22 Ge24 2.512114 1_454
Ge23 Ge37 2.487877 1_555
Ge23 Ge25 2.512114 1_555
Ge24 Ge3 2.467291 1_555
Ge24 Ge33 2.487877 1_556
Ge25 Ge36 2.487877 1_555
Ge26 Ge6 2.467291 1_555
Ge26 Ge33 2.487877 1_555
Ge27 Ge36 2.487877 1_565
Ge28 Ge35 2.487877 1_655
Ge28 Ge29 2.512114 1_555
Ge29 Ge34 2.487877 1_655
Ge30 Ge34 2.487877 1_555
Ge30 Ge31 2.512114 1_555
Ge31 Ge4 2.467291 1_555
Ge31 Ge35 2.487877 1_555
Ge34 Ge8 2.487877 1_455
Ge35 Ge9 2.487877 1_555
As0 Ge0 2.480233 1_555
As0 Ge8 2.513323 1_455
As0 Ge20 2.513323 1_554
As0 Ge11 2.513323 1_545
As1 Ge1 2.480233 1_555
As1 Ge9 2.513323 1_655
As1 Ge24 2.513323 1_554
As1 Ge16 2.513323 1_565
As2 Ge2 2.480233 1_555
As2 Ge26 2.513323 1_556
As2 Ge18 2.513323 1_545
As2 Ge10 2.513323 1_655
As3 Ge3 2.480233 1_555
As3 Ge12 2.513323 1_555
As3 Ge21 2.513323 1_555
As3 Ge28 2.513323 1_555
As4 Ge4 2.480233 1_555
As4 Ge13 2.513323 1_455
As4 Ge14 2.513323 1_565
As4 Ge22 2.513323 1_556
As5 Ge5 2.480233 1_555
As5 Ge30 2.513323 1_555
As5 Ge23 2.513323 1_555
As5 Ge15 2.513323 1_555
As6 Ge6 2.480233 1_555
As6 Ge25 2.513323 1_555
As6 Ge17 2.513323 1_555
As6 Ge29 2.513323 1_555
As7 Ge7 2.480233 1_555
As7 Ge19 2.513323 1_555
As7 Ge31 2.513323 1_555
As7 Ge27 2.513323 1_555
