# generated using pymatgen
data_K2Se2N
_symmetry_space_group_name_H-M   'P 1'
_cell_length_a   6.40333340
_cell_length_b   6.40333340
_cell_length_c   9.01609281
_cell_angle_alpha   76.08781544
_cell_angle_beta   76.08781544
_cell_angle_gamma   58.37351363
_symmetry_Int_Tables_number   1
_chemical_formula_structural   K2Se2N
_chemical_formula_sum   'K4 Se4 N2'
_cell_volume   302.60749453
_cell_formula_units_Z   2
loop_
 _symmetry_equiv_pos_site_id
 _symmetry_equiv_pos_as_xyz
  1  'x, y, z'
loop_
 _atom_site_type_symbol
 _atom_site_label
 _atom_site_symmetry_multiplicity
 _atom_site_fract_x
 _atom_site_fract_y
 _atom_site_fract_z
 _atom_site_occupancy
  K  K0  1  0.48602500  0.80208000  0.85900000  1
  K  K1  1  0.19792000  0.51397500  0.64100000  1
  K  K2  1  0.51397500  0.19792000  0.14100000  1
  K  K3  1  0.80208000  0.48602500  0.35900000  1
  Se  Se0  1  0.00268400  0.68605900  0.00019500  1
  Se  Se1  1  0.31394100  0.99731600  0.49980500  1
  Se  Se2  1  0.99731600  0.31394100  0.99980500  1
  Se  Se3  1  0.68605900  0.00268400  0.50019500  1
  N  N0  1  0.68355400  0.31644600  0.75000000  1
  N  N1  1  0.31644600  0.68355400  0.25000000  1
loop_
_geom_bond_atom_site_label_1
_geom_bond_atom_site_label_2
_geom_bond_distance
_geom_bond_site_symmetry_2
K0 N0 2.997083 1_555
K0 Se2 3.385063 1_555
K0 Se2 3.388346 1_465
K0 Se3 3.389807 1_565
K0 Se1 3.404353 1_555
K0 Se0 3.437085 1_556
K0 N1 3.452503 1_556
K0 Se0 3.480001 1_656
K1 N0 2.997083 1_555
K1 Se3 3.385063 1_555
K1 Se3 3.388346 1_465
K1 Se2 3.389807 1_455
K1 Se0 3.404353 1_556
K1 Se1 3.437085 1_555
K1 N1 3.452503 1_555
K1 Se1 3.480001 1_545
K2 N1 2.997083 1_555
K2 Se0 3.385063 1_555
K2 Se0 3.388346 1_645
K2 Se1 3.389807 1_545
K2 Se3 3.404353 1_555
K2 Se2 3.437085 1_554
K2 N0 3.452503 1_554
K2 Se2 3.480001 1_454
K3 N1 2.997083 1_555
K3 Se1 3.385063 1_555
K3 Se1 3.388346 1_645
K3 Se0 3.389807 1_655
K3 Se2 3.404353 1_554
K3 Se3 3.437085 1_555
K3 N0 3.452503 1_555
K3 Se3 3.480001 1_565
Se0 Se2 2.401852 1_454
Se1 Se3 2.401852 1_565
