# generated using pymatgen
data_V2Zn2O5
_symmetry_space_group_name_H-M   'P 1'
_cell_length_a   3.51733700
_cell_length_b   5.67190700
_cell_length_c   10.87453800
_cell_angle_alpha   90.00000000
_cell_angle_beta   90.00000000
_cell_angle_gamma   90.00000000
_symmetry_Int_Tables_number   1
_chemical_formula_structural   V2Zn2O5
_chemical_formula_sum   'V4 Zn4 O10'
_cell_volume   216.94712392
_cell_formula_units_Z   2
loop_
 _symmetry_equiv_pos_site_id
 _symmetry_equiv_pos_as_xyz
  1  'x, y, z'
loop_
 _atom_site_type_symbol
 _atom_site_label
 _atom_site_symmetry_multiplicity
 _atom_site_fract_x
 _atom_site_fract_y
 _atom_site_fract_z
 _atom_site_occupancy
  V  V0  1  0.50000000  0.26079800  0.13704800  1
  V  V1  1  0.50000000  0.73920200  0.86295200  1
  V  V2  1  0.50000000  0.23920200  0.63704800  1
  V  V3  1  0.50000000  0.76079800  0.36295200  1
  Zn  Zn0  1  0.00000000  0.28558000  0.40048200  1
  Zn  Zn1  1  0.00000000  0.71442000  0.59951800  1
  Zn  Zn2  1  0.00000000  0.78558000  0.09951800  1
  Zn  Zn3  1  0.00000000  0.21442000  0.90048200  1
  O  O0  1  0.50000000  0.50000000  0.00000000  1
  O  O1  1  0.50000000  0.13472000  0.80555000  1
  O  O2  1  0.50000000  0.63472000  0.69445000  1
  O  O3  1  0.50000000  0.36528000  0.30555000  1
  O  O4  1  0.00000000  0.33574300  0.58430400  1
  O  O5  1  0.00000000  0.66425700  0.41569600  1
  O  O6  1  0.50000000  0.86528000  0.19445000  1
  O  O7  1  0.00000000  0.16425700  0.08430400  1
  O  O8  1  0.50000000  0.00000000  0.50000000  1
  O  O9  1  0.00000000  0.83574300  0.91569600  1
loop_
_geom_bond_atom_site_label_1
_geom_bond_atom_site_label_2
_geom_bond_distance
_geom_bond_site_symmetry_2
O0 V0 2.015394 1_555
O0 V1 2.015394 1_554
O1 V2 1.925827 1_555
O1 Zn3 2.088778 1_555
O1 Zn3 2.088778 1_655
O1 V1 2.328568 1_545
O2 V1 1.925827 1_555
O2 Zn1 2.088778 1_555
O2 Zn1 2.088778 1_655
O2 V2 2.328568 1_555
O3 V0 1.925827 1_555
O3 Zn0 2.088778 1_555
O3 Zn0 2.088778 1_655
O3 V3 2.328568 1_555
O4 V2 1.929178 1_555
O4 V2 1.929178 1_455
O4 Zn0 2.019126 1_555
O4 Zn1 2.154183 1_555
O5 V3 1.929178 1_555
O5 V3 1.929178 1_455
O5 Zn1 2.019126 1_555
O5 Zn0 2.154183 1_555
O6 V3 1.925827 1_555
O6 Zn2 2.088778 1_555
O6 Zn2 2.088778 1_655
O6 V0 2.328568 1_565
O7 V0 1.929178 1_555
O7 V0 1.929178 1_455
O7 Zn3 2.019126 1_554
O7 Zn2 2.154183 1_545
O8 V2 2.015394 1_555
O8 V3 2.015394 1_545
O9 V1 1.929178 1_555
O9 V1 1.929178 1_455
O9 Zn2 2.019126 1_556
O9 Zn3 2.154183 1_565
