# generated using pymatgen
data_Li4V3CoCu2(PO4)6
_symmetry_space_group_name_H-M   'P 1'
_cell_length_a   8.60370523
_cell_length_b   8.85682734
_cell_length_c   8.86563870
_cell_angle_alpha   59.84062324
_cell_angle_beta   58.82557821
_cell_angle_gamma   59.15760712
_symmetry_Int_Tables_number   1
_chemical_formula_structural   Li4V3CoCu2(PO4)6
_chemical_formula_sum   'Li4 V3 Co1 Cu2 P6 O24'
_cell_volume   469.73359105
_cell_formula_units_Z   1
loop_
 _symmetry_equiv_pos_site_id
 _symmetry_equiv_pos_as_xyz
  1  'x, y, z'
loop_
 _atom_site_type_symbol
 _atom_site_label
 _atom_site_symmetry_multiplicity
 _atom_site_fract_x
 _atom_site_fract_y
 _atom_site_fract_z
 _atom_site_occupancy
  Li  Li0  1  0.24984200  0.85452800  0.64770100  1
  Li  Li1  1  0.72306800  0.15540100  0.34314100  1
  Li  Li2  1  0.72430200  0.77823800  0.15346600  1
  Li  Li3  1  0.72454900  0.34329700  0.78136000  1
  V  V0  1  0.07244100  0.64163400  0.64323000  1
  V  V1  1  0.42677100  0.85630800  0.85954800  1
  V  V2  1  0.93980700  0.35563000  0.35010600  1
  Co  Co0  1  0.55241400  0.15367300  0.14771600  1
  Cu  Cu0  1  0.00149300  0.00241900  0.01213400  1
  Cu  Cu1  1  0.49234000  0.48626500  0.50070900  1
  P  P0  1  0.25288600  0.24940600  0.54957200  1
  P  P1  1  0.25516500  0.94900500  0.24678100  1
  P  P2  1  0.25538000  0.54783500  0.94730700  1
  P  P3  1  0.75137700  0.46035600  0.04051100  1
  P  P4  1  0.76004400  0.04061700  0.74590600  1
  P  P5  1  0.74554400  0.75018300  0.45886200  1
  O  O0  1  0.07356400  0.11324700  0.30139700  1
  O  O1  1  0.07341400  0.50757200  0.10821000  1
  O  O2  1  0.07358700  0.30667700  0.50855700  1
  O  O3  1  0.23432900  0.08195300  0.73686400  1
  O  O4  1  0.44490000  0.19243100  0.39487400  1
  O  O5  1  0.25838500  0.40708900  0.57629700  1
  O  O6  1  0.23827700  0.92972100  0.09079900  1
  O  O7  1  0.26020000  0.76351000  0.41549900  1
  O  O8  1  0.56848000  0.61440100  0.00408500  1
  O  O9  1  0.26782500  0.57696500  0.75209200  1
  O  O10  1  0.77103600  0.26836000  0.05352800  1
  O  O11  1  0.58843100  0.99531400  0.79454100  1
  O  O12  1  0.44564700  0.97132900  0.18902800  1
  O  O13  1  0.23052400  0.74421600  0.92796100  1
  O  O14  1  0.73287600  0.43426900  0.23847900  1
  O  O15  1  0.44532400  0.39610500  0.96954200  1
  O  O16  1  0.74292100  0.23739700  0.58721400  1
  O  O17  1  0.76348100  0.06432300  0.90711100  1
  O  O18  1  0.74280700  0.59294700  0.42545800  1
  O  O19  1  0.54993900  0.80445900  0.61312200  1
  O  O20  1  0.76589800  0.91143200  0.26701800  1
  O  O21  1  0.91413700  0.69116300  0.51244700  1
  O  O22  1  0.93299100  0.50360300  0.88992600  1
  O  O23  1  0.95360600  0.88972400  0.68489900  1
loop_
_geom_bond_atom_site_label_1
_geom_bond_atom_site_label_2
_geom_bond_distance
_geom_bond_site_symmetry_2
Li0 O9 2.096659 1_555
Li0 O13 2.110814 1_555
Li0 O19 2.258364 1_555
Li0 O23 2.262830 1_455
Li0 O3 2.432071 1_565
Li0 O7 2.509903 1_555
Li1 O4 2.062912 1_555
Li1 O10 2.123439 1_555
Li1 O14 2.190493 1_555
Li1 O20 2.377322 1_545
Li2 O12 2.080173 1_555
Li2 O20 2.128937 1_555
Li2 O18 2.164834 1_555
Li2 O17 2.420105 1_564
Li3 O17 2.056745 1_555
Li3 O15 2.063020 1_555
Li3 O16 2.248517 1_555
Li3 O10 2.353833 1_556
Co0 O15 2.006171 1_554
Co0 O4 2.026497 1_555
Co0 O12 2.040739 1_545
Co0 O17 2.164823 1_554
Co0 O10 2.178931 1_555
Co0 O20 2.187674 1_545
Cu0 O6 2.173930 1_545
Cu0 O10 2.222736 1_455
Cu0 O20 2.228776 1_445
Cu0 O3 2.263444 1_554
Cu0 O13 2.289406 1_544
Cu0 O17 2.381338 1_454
Cu1 O5 2.138022 1_555
Cu1 O14 2.239935 1_555
Cu1 O9 2.257101 1_555
Cu1 O16 2.288068 1_555
Cu1 O7 2.293200 1_555
Cu1 O18 2.438769 1_555
O0 P1 1.544594 1_545
O0 V2 2.000807 1_455
O1 P2 1.536980 1_554
O1 V2 1.966106 1_455
O2 P0 1.536983 1_555
O2 V2 2.009088 1_455
O3 P0 1.573550 1_555
O3 V1 2.050810 1_545
O4 P0 1.536153 1_555
O5 P0 1.555838 1_555
O5 V0 2.018662 1_555
O6 P1 1.559947 1_555
O6 V1 2.017953 1_554
O7 P1 1.569468 1_555
O7 V0 2.018058 1_555
O8 P3 1.524450 1_555
O8 V1 1.974659 1_554
O9 P2 1.568813 1_555
O9 V0 2.054837 1_555
O10 P3 1.568966 1_555
O11 P4 1.517068 1_565
O11 V1 1.998842 1_555
O12 P1 1.532606 1_555
O13 P2 1.567542 1_555
O13 V1 2.063454 1_555
O14 P3 1.581187 1_555
O14 V2 2.119973 1_555
O15 P2 1.526751 1_555
O16 P4 1.589368 1_555
O16 V2 2.074930 1_555
O17 P4 1.561782 1_555
O18 P5 1.575714 1_555
O18 V2 2.079121 1_555
O19 P5 1.543358 1_555
O19 V1 2.054052 1_555
O20 P5 1.571762 1_555
O21 P5 1.513070 1_555
O21 V0 1.975627 1_655
O22 P3 1.520126 1_556
O22 V0 1.954004 1_655
O23 P4 1.537436 1_565
O23 V0 2.032482 1_655
