# generated using pymatgen
data_Yb4Cl2O13
_symmetry_space_group_name_H-M   'P 1'
_cell_length_a   7.99378600
_cell_length_b   6.02432100
_cell_length_c   13.08353621
_cell_angle_alpha   87.26913976
_cell_angle_beta   90.00000000
_cell_angle_gamma   90.00000000
_symmetry_Int_Tables_number   1
_chemical_formula_structural   Yb4Cl2O13
_chemical_formula_sum   'Yb8 Cl4 O26'
_cell_volume   629.35006287
_cell_formula_units_Z   2
loop_
 _symmetry_equiv_pos_site_id
 _symmetry_equiv_pos_as_xyz
  1  'x, y, z'
loop_
 _atom_site_type_symbol
 _atom_site_label
 _atom_site_symmetry_multiplicity
 _atom_site_fract_x
 _atom_site_fract_y
 _atom_site_fract_z
 _atom_site_occupancy
  Yb  Yb0  1  0.70495000  0.45356900  0.26202800  1
  Yb  Yb1  1  0.20495000  0.54643100  0.73797200  1
  Yb  Yb2  1  0.17653700  0.41492200  0.27781900  1
  Yb  Yb3  1  0.67653700  0.58507800  0.72218100  1
  Yb  Yb4  1  0.97485600  0.42866200  0.52236000  1
  Yb  Yb5  1  0.47485600  0.57133800  0.47764000  1
  Yb  Yb6  1  0.44023900  0.40893400  0.97402100  1
  Yb  Yb7  1  0.94023900  0.59106600  0.02597900  1
  Cl  Cl0  1  0.87787700  0.98706200  0.37140600  1
  Cl  Cl1  1  0.37787700  0.01293800  0.62859400  1
  Cl  Cl2  1  0.58449100  0.83289600  0.04932900  1
  Cl  Cl3  1  0.08449100  0.16710400  0.95067100  1
  O  O0  1  0.00533700  0.18447100  0.38728600  1
  O  O1  1  0.50533700  0.81552900  0.61271400  1
  O  O2  1  0.30323500  0.30374300  0.13073600  1
  O  O3  1  0.80323500  0.69625700  0.86926400  1
  O  O4  1  0.25637500  0.43257100  0.57623300  1
  O  O5  1  0.75637500  0.56742900  0.42376700  1
  O  O6  1  0.78926200  0.47358100  0.88190900  1
  O  O7  1  0.28926200  0.52641900  0.11809100  1
  O  O8  1  0.93795700  0.41063100  0.70535700  1
  O  O9  1  0.43795700  0.58936900  0.29464300  1
  O  O10  1  0.46378200  0.39681900  0.79868700  1
  O  O11  1  0.96378200  0.60318100  0.20131300  1
  O  O12  1  0.94526700  0.63881800  0.66685200  1
  O  O13  1  0.44526700  0.36118200  0.33314800  1
  O  O14  1  0.45143900  0.62671200  0.82549500  1
  O  O15  1  0.95143900  0.37328800  0.17450500  1
  O  O16  1  0.76676200  0.17439700  0.58889000  1
  O  O17  1  0.26676200  0.82560300  0.41111000  1
  O  O18  1  0.48785400  0.03946700  0.98908600  1
  O  O19  1  0.98785400  0.96053300  0.01091400  1
  O  O20  1  0.66018600  0.33761700  0.57289500  1
  O  O21  1  0.16018600  0.66238300  0.42710500  1
  O  O22  1  0.15535300  0.46208600  0.91885600  1
  O  O23  1  0.65535300  0.53791400  0.08114400  1
  O  O24  1  0.73266000  0.05983700  0.30034400  1
  O  O25  1  0.23266000  0.94016300  0.69965600  1
loop_
_geom_bond_atom_site_label_1
_geom_bond_atom_site_label_2
_geom_bond_distance
_geom_bond_site_symmetry_2
Cl0 O24 1.537962 1_565
Cl0 O0 1.587190 1_665
Cl1 O25 1.537962 1_545
Cl1 O1 1.587190 1_545
Cl2 O18 1.634988 1_564
Cl2 O23 1.892516 1_555
Cl3 O19 1.634988 1_446
Cl3 O22 1.892516 1_555
O0 Yb4 2.365237 1_455
O0 Yb2 2.379511 1_555
O1 Yb5 2.365237 1_555
O1 Yb3 2.379511 1_555
O2 O7 1.348423 1_555
O2 Yb2 2.302251 1_555
O2 Yb6 2.383542 1_554
O3 O6 1.348423 1_555
O3 Yb3 2.302251 1_555
O3 Yb7 2.383542 1_556
O4 Yb1 2.292543 1_555
O4 Yb5 2.304406 1_555
O4 Yb4 2.358657 1_455
O5 Yb0 2.292543 1_555
O5 Yb4 2.304406 1_555
O5 Yb5 2.358657 1_555
O6 Yb3 2.344502 1_555
O6 Yb7 2.374370 1_556
O6 Yb6 3.056718 1_555
O7 Yb2 2.344502 1_555
O7 Yb6 2.374370 1_554
O7 Yb7 3.056718 1_455
O8 Yb1 2.332342 1_655
O8 Yb3 2.354131 1_555
O8 Yb4 2.409656 1_555
O9 Yb0 2.332342 1_555
O9 Yb2 2.354131 1_555
O9 Yb5 2.409656 1_555
O10 O14 1.448146 1_555
O10 Yb3 2.252213 1_555
O10 Yb6 2.306314 1_555
O10 Yb1 2.378259 1_555
O11 O15 1.448146 1_555
O11 Yb2 2.252213 1_655
O11 Yb7 2.306314 1_555
O11 Yb0 2.378259 1_555
O12 O8 1.442547 1_555
O12 Yb3 2.284982 1_555
O12 Yb1 2.331396 1_655
O12 Yb4 2.336825 1_555
O13 O9 1.442547 1_555
O13 Yb2 2.284982 1_555
O13 Yb0 2.331396 1_555
O13 Yb5 2.336825 1_555
O14 Yb3 2.271592 1_555
O14 Yb6 2.294021 1_555
O14 Yb1 2.341016 1_555
O15 Yb2 2.271592 1_655
O15 Yb7 2.294021 1_555
O15 Yb0 2.341016 1_555
O16 O20 1.310289 1_555
O16 Yb4 2.396676 1_555
O17 O21 1.310289 1_555
O17 Yb5 2.396676 1_555
O18 Yb6 2.257444 1_555
O19 Yb7 2.257444 1_555
O20 Yb5 2.358662 1_555
O20 Yb3 2.516333 1_555
O20 Yb4 2.651546 1_555
O21 Yb4 2.358662 1_455
O21 Yb2 2.516333 1_555
O21 Yb5 2.651546 1_555
O22 Yb7 2.372510 1_456
O22 Yb6 2.405746 1_555
O22 Yb1 2.429320 1_555
O23 Yb6 2.372510 1_554
O23 Yb7 2.405746 1_555
O23 Yb0 2.429320 1_555
O24 Yb0 2.411079 1_555
O25 Yb1 2.411079 1_555
