# generated using pymatgen
data_Cs2TlHCl5
_symmetry_space_group_name_H-M   'P 1'
_cell_length_a   7.57118300
_cell_length_b   11.20916500
_cell_length_c   14.66038300
_cell_angle_alpha   90.00000000
_cell_angle_beta   90.00000000
_cell_angle_gamma   90.00000000
_symmetry_Int_Tables_number   1
_chemical_formula_structural   Cs2TlHCl5
_chemical_formula_sum   'Cs8 Tl4 H4 Cl20'
_cell_volume   1244.17743888
_cell_formula_units_Z   4
loop_
 _symmetry_equiv_pos_site_id
 _symmetry_equiv_pos_as_xyz
  1  'x, y, z'
loop_
 _atom_site_type_symbol
 _atom_site_label
 _atom_site_symmetry_multiplicity
 _atom_site_fract_x
 _atom_site_fract_y
 _atom_site_fract_z
 _atom_site_occupancy
  Cs  Cs0  1  0.81588600  0.49743900  0.86282700  1
  Cs  Cs1  1  0.18411400  0.50256100  0.13717300  1
  Cs  Cs2  1  0.31588600  0.50256100  0.63717300  1
  Cs  Cs3  1  0.18411400  0.99743900  0.13717300  1
  Cs  Cs4  1  0.68411400  0.49743900  0.36282700  1
  Cs  Cs5  1  0.81588600  0.00256100  0.86282700  1
  Cs  Cs6  1  0.68411400  0.00256100  0.36282700  1
  Cs  Cs7  1  0.31588600  0.99743900  0.63717300  1
  Tl  Tl0  1  0.78936100  0.75000000  0.62164900  1
  Tl  Tl1  1  0.21063900  0.25000000  0.37835100  1
  Tl  Tl2  1  0.28936100  0.25000000  0.87835100  1
  Tl  Tl3  1  0.71063900  0.75000000  0.12164900  1
  H  H0  1  0.95247200  0.75000000  0.53150400  1
  H  H1  1  0.04752800  0.25000000  0.46849600  1
  H  H2  1  0.45247200  0.25000000  0.96849600  1
  H  H3  1  0.54752800  0.75000000  0.03150400  1
  Cl  Cl0  1  0.81031900  0.51356100  0.60777600  1
  Cl  Cl1  1  0.18968100  0.48643900  0.39222400  1
  Cl  Cl2  1  0.31031900  0.48643900  0.89222400  1
  Cl  Cl3  1  0.18968100  0.01356100  0.39222400  1
  Cl  Cl4  1  0.68968100  0.51356100  0.10777600  1
  Cl  Cl5  1  0.81031900  0.98643900  0.60777600  1
  Cl  Cl6  1  0.68968100  0.98643900  0.10777600  1
  Cl  Cl7  1  0.31031900  0.01356100  0.89222400  1
  Cl  Cl8  1  0.57657800  0.75000000  0.75058300  1
  Cl  Cl9  1  0.42342200  0.25000000  0.24941700  1
  Cl  Cl10  1  0.07657800  0.25000000  0.74941700  1
  Cl  Cl11  1  0.92342200  0.75000000  0.25058300  1
  Cl  Cl12  1  0.53555800  0.75000000  0.49710800  1
  Cl  Cl13  1  0.46444200  0.25000000  0.50289200  1
  Cl  Cl14  1  0.03555800  0.25000000  0.00289200  1
  Cl  Cl15  1  0.96444200  0.75000000  0.99710800  1
  Cl  Cl16  1  0.06969100  0.75000000  0.72934800  1
  Cl  Cl17  1  0.93030900  0.25000000  0.27065200  1
  Cl  Cl18  1  0.56969100  0.25000000  0.77065200  1
  Cl  Cl19  1  0.43030900  0.75000000  0.22934800  1
loop_
_geom_bond_atom_site_label_1
_geom_bond_atom_site_label_2
_geom_bond_distance
_geom_bond_site_symmetry_2
H0 Tl0 1.808758 1_555
H1 Tl1 1.808758 1_555
H2 Tl2 1.808758 1_555
H3 Tl3 1.808758 1_555
Cl0 Tl0 2.662808 1_555
Cl0 Cs4 3.720389 1_555
Cl0 Cs0 3.743747 1_555
Cl0 Cs2 3.770186 1_555
Cl0 Cs2 3.853899 1_655
Cl1 Tl1 2.662808 1_555
Cl1 Cs2 3.720389 1_555
Cl1 Cs1 3.743747 1_555
Cl1 Cs4 3.770186 1_555
Cl1 Cs4 3.853899 1_455
Cl2 Tl2 2.662808 1_555
Cl2 Cs1 3.720389 1_556
Cl2 Cs2 3.743747 1_555
Cl2 Cs0 3.770186 1_455
Cl2 Cs0 3.853899 1_555
Cl3 Tl1 2.662808 1_555
Cl3 Cs7 3.720389 1_545
Cl3 Cs3 3.743747 1_545
Cl3 Cs6 3.770186 1_555
Cl3 Cs6 3.853899 1_455
Cl4 Tl3 2.662808 1_555
Cl4 Cs0 3.720389 1_554
Cl4 Cs4 3.743747 1_555
Cl4 Cs1 3.770186 1_655
Cl4 Cs1 3.853899 1_555
Cl5 Tl0 2.662808 1_555
Cl5 Cs6 3.720389 1_565
Cl5 Cs5 3.743747 1_565
Cl5 Cs7 3.770186 1_555
Cl5 Cs7 3.853899 1_655
Cl6 Tl3 2.662808 1_555
Cl6 Cs5 3.720389 1_564
Cl6 Cs6 3.743747 1_565
Cl6 Cs3 3.770186 1_655
Cl6 Cs3 3.853899 1_555
Cl7 Tl2 2.662808 1_555
Cl7 Cs3 3.720389 1_546
Cl7 Cs7 3.743747 1_545
Cl7 Cs5 3.770186 1_455
Cl7 Cs5 3.853899 1_555
Cl8 Tl0 2.483610 1_555
Cl8 Cs0 3.742343 1_555
Cl8 Cs5 3.742343 1_565
Cl8 Cs2 3.788509 1_555
Cl8 Cs7 3.788509 1_555
Cl9 Tl1 2.483610 1_555
Cl9 Cs3 3.742343 1_545
Cl9 Cs1 3.742343 1_555
Cl9 Cs6 3.788509 1_555
Cl9 Cs4 3.788509 1_555
Cl10 Tl2 2.483610 1_555
Cl10 Cs7 3.742343 1_545
Cl10 Cs2 3.742343 1_555
Cl10 Cs5 3.788509 1_455
Cl10 Cs0 3.788509 1_455
Cl11 Tl3 2.483610 1_555
Cl11 Cs4 3.742343 1_555
Cl11 Cs6 3.742343 1_565
Cl11 Cs3 3.788509 1_655
Cl11 Cs1 3.788509 1_655
Cl12 Tl0 2.650683 1_555
Cl12 Cs4 3.626986 1_555
Cl12 Cs6 3.626986 1_565
Cl12 Cs2 3.830849 1_555
Cl12 Cs7 3.830849 1_555
Cl13 Tl1 2.650683 1_555
Cl13 Cs2 3.626986 1_555
Cl13 Cs7 3.626986 1_545
Cl13 Cs6 3.830849 1_555
Cl13 Cs4 3.830849 1_555
Cl14 Tl2 2.650683 1_554
Cl14 Cs3 3.626986 1_545
Cl14 Cs1 3.626986 1_555
Cl14 Cs5 3.830849 1_454
Cl14 Cs0 3.830849 1_454
Cl15 Tl3 2.650683 1_556
Cl15 Cs0 3.626986 1_555
Cl15 Cs5 3.626986 1_565
Cl15 Cs3 3.830849 1_656
Cl15 Cs1 3.830849 1_656
Cl16 Tl0 2.645309 1_455
Cl16 Cs2 3.604620 1_555
Cl16 Cs7 3.604620 1_555
Cl16 Cs0 3.941622 1_455
Cl16 Cs5 3.941622 1_465
Cl17 Tl1 2.645309 1_655
Cl17 Cs6 3.604620 1_555
Cl17 Cs4 3.604620 1_555
Cl17 Cs1 3.941622 1_655
Cl17 Cs3 3.941622 1_645
Cl18 Tl2 2.645309 1_555
Cl18 Cs5 3.604620 1_555
Cl18 Cs0 3.604620 1_555
Cl18 Cs2 3.941622 1_555
Cl18 Cs7 3.941622 1_545
Cl19 Tl3 2.645309 1_555
Cl19 Cs3 3.604620 1_555
Cl19 Cs1 3.604620 1_555
Cl19 Cs4 3.941622 1_555
Cl19 Cs6 3.941622 1_565
