# generated using pymatgen
data_Cs5Ti6AgSe27
_symmetry_space_group_name_H-M   'P 1'
_cell_length_a   14.11708454
_cell_length_b   14.11708454
_cell_length_c   14.08958000
_cell_angle_alpha   90.00000000
_cell_angle_beta   90.00000000
_cell_angle_gamma   120.00000255
_symmetry_Int_Tables_number   1
_chemical_formula_structural   Cs5Ti6AgSe27
_chemical_formula_sum   'Cs10 Ti12 Ag2 Se54'
_cell_volume   2431.74873756
_cell_formula_units_Z   2
loop_
 _symmetry_equiv_pos_site_id
 _symmetry_equiv_pos_as_xyz
  1  'x, y, z'
loop_
 _atom_site_type_symbol
 _atom_site_label
 _atom_site_symmetry_multiplicity
 _atom_site_fract_x
 _atom_site_fract_y
 _atom_site_fract_z
 _atom_site_occupancy
  Cs  Cs0  1  0.65370700  0.03116500  0.75285500  1
  Cs  Cs1  1  0.33333300  0.66666700  0.44969500  1
  Cs  Cs2  1  0.66666700  0.33333300  0.58343500  1
  Cs  Cs3  1  0.33333300  0.66666700  0.08343500  1
  Cs  Cs4  1  0.66666700  0.33333300  0.94969500  1
  Cs  Cs5  1  0.96883500  0.62254200  0.75285500  1
  Cs  Cs6  1  0.37745800  0.34629300  0.75285500  1
  Cs  Cs7  1  0.03116500  0.65370700  0.25285500  1
  Cs  Cs8  1  0.62254200  0.96883500  0.25285500  1
  Cs  Cs9  1  0.34629300  0.37745800  0.25285500  1
  Ti  Ti0  1  0.01605000  0.33759600  0.39302700  1
  Ti  Ti1  1  0.98566800  0.31154200  0.63375100  1
  Ti  Ti2  1  0.68845800  0.67412700  0.63375100  1
  Ti  Ti3  1  0.32587300  0.01433200  0.63375100  1
  Ti  Ti4  1  0.31154200  0.98566800  0.13375100  1
  Ti  Ti5  1  0.67412700  0.68845800  0.13375100  1
  Ti  Ti6  1  0.01433200  0.32587300  0.13375100  1
  Ti  Ti7  1  0.98395000  0.32154600  0.89302700  1
  Ti  Ti8  1  0.67845400  0.66240400  0.89302700  1
  Ti  Ti9  1  0.33759600  0.01605000  0.89302700  1
  Ti  Ti10  1  0.32154600  0.98395000  0.39302700  1
  Ti  Ti11  1  0.66240400  0.67845400  0.39302700  1
  Ag  Ag0  1  0.00000000  0.00000000  0.50660600  1
  Ag  Ag1  1  0.00000000  0.00000000  0.00660600  1
  Se  Se0  1  0.15500500  0.35068000  0.00927000  1
  Se  Se1  1  0.47815800  0.17863100  0.17585100  1
  Se  Se2  1  0.82136900  0.29952800  0.17585100  1
  Se  Se3  1  0.70047200  0.52184200  0.17585100  1
  Se  Se4  1  0.17863100  0.47815800  0.67585100  1
  Se  Se5  1  0.29952800  0.82136900  0.67585100  1
  Se  Se6  1  0.52184200  0.70047200  0.67585100  1
  Se  Se7  1  0.52541000  0.12504900  0.39850300  1
  Se  Se8  1  0.87495100  0.40036100  0.39850300  1
  Se  Se9  1  0.59963900  0.47459000  0.39850300  1
  Se  Se10  1  0.12504900  0.52541000  0.89850300  1
  Se  Se11  1  0.40036100  0.87495100  0.89850300  1
  Se  Se12  1  0.98728600  0.46131900  0.01994100  1
  Se  Se13  1  0.53868100  0.52596700  0.01994100  1
  Se  Se14  1  0.47403300  0.01271400  0.01994100  1
  Se  Se15  1  0.46131900  0.98728600  0.51994100  1
  Se  Se16  1  0.52596700  0.53868100  0.51994100  1
  Se  Se17  1  0.01271400  0.47403300  0.51994100  1
  Se  Se18  1  0.09511100  0.20166300  0.11770500  1
  Se  Se19  1  0.79833700  0.89344800  0.11770500  1
  Se  Se20  1  0.10655200  0.90488900  0.11770500  1
  Se  Se21  1  0.20166300  0.09511100  0.61770500  1
  Se  Se22  1  0.89344800  0.79833700  0.61770500  1
  Se  Se23  1  0.90488900  0.10655200  0.61770500  1
  Se  Se24  1  0.07475000  0.19071500  0.38808300  1
  Se  Se25  1  0.80928500  0.88403500  0.38808300  1
  Se  Se26  1  0.11596500  0.92525000  0.38808300  1
  Se  Se27  1  0.19071500  0.07475000  0.88808300  1
  Se  Se28  1  0.88403500  0.80928500  0.88808300  1
  Se  Se29  1  0.92525000  0.11596500  0.88808300  1
  Se  Se30  1  0.13433900  0.46199200  0.26032600  1
  Se  Se31  1  0.53800800  0.67234700  0.26032600  1
  Se  Se32  1  0.32765300  0.86566100  0.26032600  1
  Se  Se33  1  0.46199200  0.13433900  0.76032600  1
  Se  Se34  1  0.67234700  0.53800800  0.76032600  1
  Se  Se35  1  0.86566100  0.32765300  0.76032600  1
  Se  Se36  1  0.47459000  0.59963900  0.89850300  1
  Se  Se37  1  0.64932000  0.80432500  0.00927000  1
  Se  Se38  1  0.19567500  0.84499500  0.00927000  1
  Se  Se39  1  0.35068000  0.15500500  0.50927000  1
  Se  Se40  1  0.80432500  0.64932000  0.50927000  1
  Se  Se41  1  0.84499500  0.19567500  0.50927000  1
  Se  Se42  1  0.30956900  0.10913000  0.26465100  1
  Se  Se43  1  0.89087000  0.20043900  0.26465100  1
  Se  Se44  1  0.79956100  0.69043100  0.26465100  1
  Se  Se45  1  0.10913000  0.30956900  0.76465100  1
  Se  Se46  1  0.66967200  0.81854900  0.50908000  1
  Se  Se47  1  0.69043100  0.79956100  0.76465100  1
  Se  Se48  1  0.33032800  0.14887700  0.00908000  1
  Se  Se49  1  0.85112300  0.18145100  0.00908000  1
  Se  Se50  1  0.81854900  0.66967200  0.00908000  1
  Se  Se51  1  0.14887700  0.33032800  0.50908000  1
  Se  Se52  1  0.18145100  0.85112300  0.50908000  1
  Se  Se53  1  0.20043900  0.89087000  0.76465100  1
loop_
_geom_bond_atom_site_label_1
_geom_bond_atom_site_label_2
_geom_bond_distance
_geom_bond_site_symmetry_2
Cs0 Se47 3.561119 1_545
Cs0 Se33 3.660523 1_555
Cs0 Se23 3.682210 1_555
Cs0 Se35 3.736187 1_555
Cs0 Se11 3.738805 1_545
Cs0 Se29 3.894761 1_555
Cs0 Se15 4.104516 1_545
Cs1 Se32 3.904138 1_555
Cs1 Se30 3.904143 1_555
Cs1 Se31 3.904148 1_555
Cs1 Se5 4.024053 1_555
Cs1 Se4 4.024064 1_555
Cs1 Se6 4.024070 1_555
Cs1 Se15 4.068501 1_555
Cs1 Se17 4.068503 1_555
Cs1 Se16 4.068514 1_555
Cs1 Se52 4.202544 1_555
Cs1 Se51 4.202555 1_555
Cs1 Se46 4.202556 1_555
Cs2 Se8 3.680766 1_555
Cs2 Se7 3.680768 1_555
Cs2 Se9 3.680776 1_555
Cs2 Se35 3.786164 1_555
Cs2 Se33 3.786169 1_555
Cs2 Se34 3.786174 1_555
Cs2 Se41 4.012281 1_555
Cs2 Se39 4.012292 1_555
Cs2 Se40 4.012293 1_555
Cs3 Se11 3.680766 1_554
Cs3 Se10 3.680768 1_554
Cs3 Se36 3.680776 1_554
Cs3 Se32 3.786164 1_555
Cs3 Se30 3.786169 1_555
Cs3 Se31 3.786174 1_555
Cs3 Se38 4.012281 1_555
Cs3 Se0 4.012292 1_555
Cs3 Se37 4.012293 1_555
Cs4 Se35 3.904138 1_555
Cs4 Se33 3.904143 1_555
Cs4 Se34 3.904148 1_555
Cs4 Se2 4.024053 1_556
Cs4 Se1 4.024064 1_556
Cs4 Se3 4.024070 1_556
Cs4 Se12 4.068501 1_556
Cs4 Se14 4.068503 1_556
Cs4 Se13 4.068514 1_556
Cs4 Se49 4.202544 1_556
Cs4 Se48 4.202555 1_556
Cs4 Se50 4.202556 1_556
Cs5 Se53 3.561119 1_655
Cs5 Se35 3.660523 1_555
Cs5 Se22 3.682210 1_555
Cs5 Se34 3.736187 1_555
Cs5 Se10 3.738805 1_655
Cs5 Se28 3.894761 1_555
Cs5 Se17 4.104516 1_655
Cs6 Se45 3.561119 1_555
Cs6 Se34 3.660523 1_555
Cs6 Se21 3.682210 1_555
Cs6 Se33 3.736188 1_555
Cs6 Se36 3.738805 1_555
Cs6 Se27 3.894761 1_555
Cs6 Se16 4.104516 1_555
Cs7 Se44 3.561119 1_455
Cs7 Se30 3.660523 1_555
Cs7 Se20 3.682210 1_555
Cs7 Se32 3.736187 1_555
Cs7 Se8 3.738805 1_455
Cs7 Se26 3.894761 1_555
Cs7 Se12 4.104516 1_455
Cs8 Se43 3.561119 1_565
Cs8 Se32 3.660523 1_555
Cs8 Se19 3.682210 1_555
Cs8 Se31 3.736187 1_555
Cs8 Se7 3.738805 1_565
Cs8 Se25 3.894761 1_555
Cs8 Se14 4.104516 1_565
Cs9 Se42 3.561119 1_555
Cs9 Se31 3.660523 1_555
Cs9 Se18 3.682210 1_555
Cs9 Se30 3.736188 1_555
Cs9 Se9 3.738805 1_555
Cs9 Se24 3.894761 1_555
Cs9 Se13 4.104516 1_555
Ag0 Se25 2.882681 1_445
Ag0 Se24 2.882681 1_555
Ag0 Se26 2.882681 1_545
Ag0 Se22 2.921542 1_445
Ag0 Se21 2.921542 1_555
Ag0 Se23 2.921542 1_455
Ag1 Se28 2.882681 1_444
Ag1 Se27 2.882681 1_554
Ag1 Se29 2.882681 1_454
Ag1 Se19 2.921542 1_445
Ag1 Se18 2.921542 1_555
Ag1 Se20 2.921542 1_545
Se0 Se18 2.386602 1_555
Se0 Ti6 2.539106 1_555
Se0 Ti7 2.773025 1_454
Se1 Se42 2.420176 1_555
Se1 Ti4 2.626324 1_545
Se2 Se43 2.420187 1_555
Se2 Ti6 2.626335 1_655
Se3 Se44 2.420177 1_555
Se3 Ti5 2.626307 1_555
Se4 Se45 2.420176 1_555
Se4 Ti1 2.626324 1_455
Se5 Se53 2.420187 1_555
Se5 Ti3 2.626335 1_565
Se6 Ti2 2.626307 1_555
Se7 Ti10 2.554152 1_545
Se8 Ti0 2.554152 1_655
Se9 Ti11 2.554152 1_555
Se10 Se12 2.401843 1_456
Se10 Ti7 2.554152 1_455
Se11 Se14 2.401843 1_566
Se11 Ti9 2.554152 1_565
Se12 Ti7 2.645807 1_554
Se12 Ti6 2.665202 1_655
Se13 Se36 2.401843 1_554
Se13 Ti8 2.645807 1_554
Se13 Ti5 2.665195 1_555
Se14 Ti9 2.645807 1_554
Se14 Ti4 2.665191 1_545
Se15 Se7 2.401843 1_565
Se15 Ti10 2.645807 1_555
Se15 Ti3 2.665202 1_565
Se16 Se9 2.401843 1_555
Se16 Ti11 2.645807 1_555
Se16 Ti2 2.665195 1_555
Se17 Se8 2.401843 1_455
Se17 Ti0 2.645807 1_555
Se17 Ti1 2.665191 1_455
Se18 Ti6 2.534927 1_555
Se19 Se37 2.386602 1_555
Se19 Ti5 2.534938 1_555
Se20 Se38 2.386602 1_555
Se20 Ti4 2.534940 1_555
Se21 Se39 2.386602 1_555
Se21 Ti3 2.534927 1_555
Se22 Se40 2.386602 1_555
Se22 Ti2 2.534938 1_555
Se23 Se41 2.386602 1_555
Se23 Ti1 2.534940 1_555
Se24 Se51 2.413187 1_555
Se24 Ti0 2.590244 1_555
Se25 Se46 2.413187 1_555
Se25 Ti11 2.590244 1_555
Se26 Se52 2.413187 1_555
Se26 Ti10 2.590244 1_555
Se27 Se48 2.413187 1_556
Se27 Ti9 2.590244 1_555
Se28 Se50 2.413187 1_556
Se28 Ti8 2.590244 1_555
Se29 Se49 2.413187 1_556
Se29 Ti7 2.590244 1_555
Se30 Ti0 2.536875 1_555
Se30 Ti6 2.547095 1_555
Se31 Ti11 2.536875 1_555
Se31 Ti5 2.547099 1_555
Se32 Ti10 2.536875 1_555
Se32 Ti4 2.547089 1_555
Se33 Ti9 2.536875 1_555
Se33 Ti3 2.547095 1_555
Se34 Ti8 2.536875 1_555
Se34 Ti2 2.547099 1_555
Se35 Ti7 2.536875 1_555
Se35 Ti1 2.547089 1_555
Se36 Ti8 2.554152 1_555
Se37 Ti5 2.539116 1_555
Se37 Ti8 2.773025 1_554
Se38 Ti4 2.539110 1_555
Se38 Ti9 2.773025 1_564
Se39 Ti3 2.539106 1_555
Se39 Ti10 2.773025 1_545
Se40 Ti2 2.539116 1_555
Se40 Ti11 2.773025 1_555
Se41 Ti1 2.539110 1_555
Se41 Ti0 2.773025 1_655
Se42 Ti4 2.547281 1_545
Se42 Ti10 2.592667 1_545
Se43 Ti6 2.547276 1_655
Se43 Ti0 2.592667 1_655
Se44 Ti5 2.547272 1_555
Se44 Ti11 2.592667 1_555
Se45 Ti1 2.547281 1_455
Se45 Ti7 2.592667 1_455
Se46 Ti11 2.528381 1_555
Se46 Ti2 2.802378 1_555
Se47 Se6 2.420177 1_555
Se47 Ti2 2.547272 1_555
Se47 Ti8 2.592667 1_555
Se48 Ti9 2.528381 1_554
Se48 Ti4 2.802389 1_545
Se49 Ti7 2.528381 1_554
Se49 Ti6 2.802384 1_655
Se50 Ti8 2.528381 1_554
Se50 Ti5 2.802378 1_555
Se51 Ti0 2.528381 1_555
Se51 Ti1 2.802389 1_455
Se52 Ti10 2.528381 1_555
Se52 Ti3 2.802384 1_565
Se53 Ti3 2.547276 1_565
Se53 Ti9 2.592667 1_565
