# generated using pymatgen
data_Na3NbAs2O9
_symmetry_space_group_name_H-M   'P 1'
_cell_length_a   8.46195509
_cell_length_b   9.67605056
_cell_length_c   10.60619974
_cell_angle_alpha   71.25715090
_cell_angle_beta   90.00000000
_cell_angle_gamma   90.00000000
_symmetry_Int_Tables_number   1
_chemical_formula_structural   Na3NbAs2O9
_chemical_formula_sum   'Na12 Nb4 As8 O36'
_cell_volume   822.36568033
_cell_formula_units_Z   4
loop_
 _symmetry_equiv_pos_site_id
 _symmetry_equiv_pos_as_xyz
  1  'x, y, z'
loop_
 _atom_site_type_symbol
 _atom_site_label
 _atom_site_symmetry_multiplicity
 _atom_site_fract_x
 _atom_site_fract_y
 _atom_site_fract_z
 _atom_site_occupancy
  Na  Na0  1  0.44976527  0.83811014  0.49644428  1
  Na  Na1  1  0.94976527  0.16188986  0.00355572  1
  Na  Na2  1  0.55023473  0.16188986  0.50355572  1
  Na  Na3  1  0.05023473  0.83811014  0.99644428  1
  Na  Na4  1  0.76081845  0.79569424  0.64388511  1
  Na  Na5  1  0.26081845  0.20430576  0.85611489  1
  Na  Na6  1  0.23918155  0.20430576  0.35611489  1
  Na  Na7  1  0.73918155  0.79569424  0.14388511  1
  Na  Na8  1  0.54509976  0.46515613  0.76125065  1
  Na  Na9  1  0.04509976  0.53484387  0.73874935  1
  Na  Na10  1  0.45490024  0.53484387  0.23874935  1
  Na  Na11  1  0.95490024  0.46515613  0.26125065  1
  Nb  Nb0  1  0.07899641  0.77987477  0.38597073  1
  Nb  Nb1  1  0.57899641  0.22012523  0.11402927  1
  Nb  Nb2  1  0.92100359  0.22012523  0.61402927  1
  Nb  Nb3  1  0.42100359  0.77987477  0.88597073  1
  As  As0  1  0.23329288  0.42645512  0.02530709  1
  As  As1  1  0.73329288  0.57354488  0.47469291  1
  As  As2  1  0.76670712  0.57354488  0.97469291  1
  As  As3  1  0.26670712  0.42645512  0.52530709  1
  As  As4  1  0.17185764  0.93077499  0.64013909  1
  As  As5  1  0.67185764  0.06922501  0.85986091  1
  As  As6  1  0.82814236  0.06922501  0.35986091  1
  As  As7  1  0.32814236  0.93077499  0.14013909  1
  O  O0  1  0.00986886  0.98742389  0.37278406  1
  O  O1  1  0.50986886  0.01257611  0.12721594  1
  O  O2  1  0.99013114  0.01257611  0.62721594  1
  O  O3  1  0.49013114  0.98742389  0.87278406  1
  O  O4  1  0.99467583  0.78102082  0.23271235  1
  O  O5  1  0.49467583  0.21897918  0.26728765  1
  O  O6  1  0.00532417  0.21897918  0.76728765  1
  O  O7  1  0.50532417  0.78102082  0.73271235  1
  O  O8  1  0.71517192  0.58304373  0.31553472  1
  O  O9  1  0.21517192  0.41695627  0.18446528  1
  O  O10  1  0.28482808  0.41695627  0.68446528  1
  O  O11  1  0.78482808  0.58304373  0.81553472  1
  O  O12  1  0.15301623  0.77844645  0.59514466  1
  O  O13  1  0.65301623  0.22155355  0.90485534  1
  O  O14  1  0.84698377  0.22155355  0.40485534  1
  O  O15  1  0.34698377  0.77844645  0.09514466  1
  O  O16  1  0.28913858  0.88226239  0.30820507  1
  O  O17  1  0.78913858  0.11773761  0.19179493  1
  O  O18  1  0.71086142  0.11773761  0.69179493  1
  O  O19  1  0.21086142  0.88226239  0.80820507  1
  O  O20  1  0.68704549  0.96238457  0.44961747  1
  O  O21  1  0.18704549  0.03761543  0.05038253  1
  O  O22  1  0.31295451  0.03761543  0.55038253  1
  O  O23  1  0.81295451  0.96238457  0.94961747  1
  O  O24  1  0.58226374  0.62474088  0.54857294  1
  O  O25  1  0.08226374  0.37525912  0.95142706  1
  O  O26  1  0.41773626  0.37525912  0.45142706  1
  O  O27  1  0.91773626  0.62474088  0.04857294  1
  O  O28  1  0.89560563  0.67492668  0.49971552  1
  O  O29  1  0.39560563  0.32507332  0.00028448  1
  O  O30  1  0.10439437  0.32507332  0.50028448  1
  O  O31  1  0.60439437  0.67492668  -0.00028448  1
  O  O32  1  0.20670444  0.59762927  0.42897744  1
  O  O33  1  0.70670444  0.40237073  0.07102256  1
  O  O34  1  0.79329556  0.40237073  0.57102256  1
  O  O35  1  0.29329556  0.59762927  0.92897744  1
loop_
_geom_bond_atom_site_label_1
_geom_bond_atom_site_label_2
_geom_bond_distance
_geom_bond_site_symmetry_2
Na0 O24 2.256471 1_555
Na0 O20 2.310913 1_555
Na0 O16 2.338347 1_555
Na0 O7 2.432315 1_555
Na0 O22 2.470578 1_565
Na0 O12 2.710402 1_555
Na1 O25 2.256471 1_654
Na1 O21 2.310913 1_655
Na1 O17 2.338347 1_555
Na1 O6 2.432315 1_654
Na1 O23 2.470578 1_544
Na1 O13 2.710402 1_554
Na2 O26 2.256471 1_555
Na2 O22 2.310913 1_555
Na2 O18 2.338347 1_555
Na2 O5 2.432315 1_555
Na2 O20 2.470578 1_545
Na2 O14 2.710402 1_555
Na3 O27 2.256471 1_456
Na3 O23 2.310913 1_455
Na3 O19 2.338347 1_555
Na3 O4 2.432315 1_456
Na3 O21 2.470578 1_566
Na3 O15 2.710402 1_556
Na4 O20 2.258516 1_555
Na4 O11 2.276430 1_555
Na4 O7 2.344344 1_555
Na4 O28 2.480486 1_555
Na4 O24 2.667516 1_555
Na4 O2 2.821713 1_565
Na5 O21 2.258516 1_556
Na5 O10 2.276430 1_555
Na5 O6 2.344344 1_555
Na5 O29 2.480486 1_556
Na5 O25 2.667516 1_555
Na5 O3 2.821713 1_545
Na6 O22 2.258516 1_555
Na6 O9 2.276430 1_555
Na6 O5 2.344344 1_555
Na6 O30 2.480486 1_555
Na6 O26 2.667516 1_555
Na6 O0 2.821713 1_545
Na7 O23 2.258516 1_554
Na7 O8 2.276430 1_555
Na7 O4 2.344344 1_555
Na7 O31 2.480486 1_555
Na7 O27 2.667516 1_555
Na7 O1 2.821713 1_565
Na8 O24 2.309345 1_555
Na8 O10 2.444474 1_555
Na8 O11 2.483909 1_555
Na8 O13 2.530326 1_555
Na8 O29 2.767051 1_556
Na9 O25 2.309345 1_555
Na9 O11 2.444474 1_455
Na9 O10 2.483909 1_555
Na9 O12 2.530326 1_555
Na9 O28 2.767051 1_455
Na10 O26 2.309345 1_555
Na10 O8 2.444474 1_555
Na10 O9 2.483909 1_555
Na10 O15 2.530326 1_555
Na10 O31 2.767051 1_555
Na11 O27 2.309345 1_555
Na11 O9 2.444474 1_655
Na11 O8 2.483909 1_555
Na11 O14 2.530326 1_555
Na11 O30 2.767051 1_655
Nb0 O4 1.771965 1_455
Nb0 O32 1.992137 1_555
Nb0 O28 2.026707 1_455
Nb0 O0 2.052881 1_555
Nb0 O16 2.073334 1_555
Nb0 O12 2.301027 1_555
Nb1 O5 1.771965 1_555
Nb1 O33 1.992137 1_555
Nb1 O29 2.026707 1_555
Nb1 O1 2.052881 1_555
Nb1 O17 2.073334 1_555
Nb1 O13 2.301027 1_554
Nb2 O6 1.771965 1_655
Nb2 O34 1.992137 1_555
Nb2 O30 2.026707 1_655
Nb2 O2 2.052881 1_555
Nb2 O18 2.073334 1_555
Nb2 O14 2.301027 1_555
Nb3 O7 1.771965 1_555
Nb3 O35 1.992137 1_555
Nb3 O31 2.026707 1_556
Nb3 O3 2.052881 1_555
Nb3 O19 2.073334 1_555
Nb3 O15 2.301027 1_556
As0 O25 1.655943 1_554
As0 O9 1.667876 1_555
As0 O35 1.719726 1_554
As0 O29 1.756847 1_555
As1 O24 1.655943 1_555
As1 O8 1.667876 1_555
As1 O34 1.719726 1_555
As1 O28 1.756847 1_555
As2 O27 1.655943 1_556
As2 O11 1.667876 1_555
As2 O33 1.719726 1_556
As2 O31 1.756847 1_556
As3 O26 1.655943 1_555
As3 O10 1.667876 1_555
As3 O32 1.719726 1_555
As3 O30 1.756847 1_555
As4 O22 1.663749 1_565
As4 O12 1.696374 1_555
As4 O2 1.714721 1_465
As4 O19 1.723080 1_555
As5 O23 1.663749 1_545
As5 O13 1.696374 1_555
As5 O3 1.714721 1_545
As5 O18 1.723080 1_555
As6 O20 1.663749 1_545
As6 O14 1.696374 1_555
As6 O0 1.714721 1_645
As6 O17 1.723080 1_555
As7 O21 1.663749 1_565
As7 O15 1.696374 1_555
As7 O1 1.714721 1_565
As7 O16 1.723080 1_555
