# generated using pymatgen
data_CaVN2
_symmetry_space_group_name_H-M   'P 1'
_cell_length_a   5.54184600
_cell_length_b   10.79741500
_cell_length_c   14.88560200
_cell_angle_alpha   90.00000000
_cell_angle_beta   90.00000000
_cell_angle_gamma   90.00000000
_symmetry_Int_Tables_number   1
_chemical_formula_structural   CaVN2
_chemical_formula_sum   'Ca16 V16 N32'
_cell_volume   890.71886388
_cell_formula_units_Z   16
loop_
 _symmetry_equiv_pos_site_id
 _symmetry_equiv_pos_as_xyz
  1  'x, y, z'
loop_
 _atom_site_type_symbol
 _atom_site_label
 _atom_site_symmetry_multiplicity
 _atom_site_fract_x
 _atom_site_fract_y
 _atom_site_fract_z
 _atom_site_occupancy
  Ca  Ca0  1  0.73198700  0.99893500  0.43410300  1
  Ca  Ca1  1  0.23198700  0.50106500  0.56589700  1
  Ca  Ca2  1  0.26801300  0.49893500  0.06589700  1
  Ca  Ca3  1  0.76801300  0.00106500  0.93410300  1
  Ca  Ca4  1  0.26801300  0.00106500  0.56589700  1
  Ca  Ca5  1  0.76801300  0.49893500  0.43410300  1
  Ca  Ca6  1  0.73198700  0.50106500  0.93410300  1
  Ca  Ca7  1  0.23198700  0.99893500  0.06589700  1
  Ca  Ca8  1  0.88496400  0.28086000  0.30910600  1
  Ca  Ca9  1  0.38496400  0.21914000  0.69089400  1
  Ca  Ca10  1  0.11503600  0.78086000  0.19089400  1
  Ca  Ca11  1  0.61503600  0.71914000  0.80910600  1
  Ca  Ca12  1  0.11503600  0.71914000  0.69089400  1
  Ca  Ca13  1  0.61503600  0.78086000  0.30910600  1
  Ca  Ca14  1  0.88496400  0.21914000  0.80910600  1
  Ca  Ca15  1  0.38496400  0.28086000  0.19089400  1
  V  V0  1  0.71873000  0.01553600  0.18688700  1
  V  V1  1  0.21873000  0.48446400  0.81311300  1
  V  V2  1  0.28127000  0.51553600  0.31311300  1
  V  V3  1  0.78127000  0.98446400  0.68688700  1
  V  V4  1  0.28127000  0.98446400  0.81311300  1
  V  V5  1  0.78127000  0.51553600  0.18688700  1
  V  V6  1  0.71873000  0.48446400  0.68688700  1
  V  V7  1  0.21873000  0.01553600  0.31311300  1
  V  V8  1  0.83734600  0.27152400  0.06094400  1
  V  V9  1  0.33734600  0.22847600  0.93905600  1
  V  V10  1  0.16265400  0.77152400  0.43905600  1
  V  V11  1  0.66265400  0.72847600  0.56094400  1
  V  V12  1  0.16265400  0.72847600  0.93905600  1
  V  V13  1  0.66265400  0.77152400  0.06094400  1
  V  V14  1  0.83734600  0.22847600  0.56094400  1
  V  V15  1  0.33734600  0.27152400  0.43905600  1
  N  N0  1  0.59597200  0.46283900  0.28433200  1
  N  N1  1  0.09597200  0.03716100  0.71566800  1
  N  N2  1  0.40402800  0.96283900  0.21566800  1
  N  N3  1  0.90402800  0.53716100  0.78433200  1
  N  N4  1  0.40402800  0.53716100  0.71566800  1
  N  N5  1  0.90402800  0.96283900  0.28433200  1
  N  N6  1  0.59597200  0.03716100  0.78433200  1
  N  N7  1  0.09597200  0.46283900  0.21566800  1
  N  N8  1  0.67714500  0.27830300  0.45657600  1
  N  N9  1  0.17714500  0.22169700  0.54342400  1
  N  N10  1  0.32285500  0.77830300  0.04342400  1
  N  N11  1  0.82285500  0.72169700  0.95657600  1
  N  N12  1  0.32285500  0.72169700  0.54342400  1
  N  N13  1  0.82285500  0.77830300  0.45657600  1
  N  N14  1  0.67714500  0.22169700  0.95657600  1
  N  N15  1  0.17714500  0.27830300  0.04342400  1
  N  N16  1  0.68969200  0.42936200  0.08427000  1
  N  N17  1  0.18969200  0.07063800  0.91573000  1
  N  N18  1  0.31030800  0.92936200  0.41573000  1
  N  N19  1  0.81030800  0.57063800  0.58427000  1
  N  N20  1  0.31030800  0.57063800  0.91573000  1
  N  N21  1  0.81030800  0.92936200  0.08427000  1
  N  N22  1  0.68969200  0.07063800  0.58427000  1
  N  N23  1  0.18969200  0.42936200  0.41573000  1
  N  N24  1  0.76210600  0.18209000  0.16728700  1
  N  N25  1  0.26210600  0.31791000  0.83271300  1
  N  N26  1  0.23789400  0.68209000  0.33271300  1
  N  N27  1  0.73789400  0.81791000  0.66728700  1
  N  N28  1  0.23789400  0.81791000  0.83271300  1
  N  N29  1  0.73789400  0.68209000  0.16728700  1
  N  N30  1  0.76210600  0.31791000  0.66728700  1
  N  N31  1  0.26210600  0.18209000  0.33271300  1
loop_
_geom_bond_atom_site_label_1
_geom_bond_atom_site_label_2
_geom_bond_distance
_geom_bond_site_symmetry_2
Ca0 N22 2.377187 1_565
Ca0 N5 2.455867 1_555
Ca0 N13 2.457770 1_555
Ca0 N18 2.469842 1_555
Ca1 N23 2.377187 1_555
Ca1 N4 2.455867 1_555
Ca1 N12 2.457770 1_555
Ca1 N19 2.469842 1_455
Ca2 N20 2.377187 1_554
Ca2 N7 2.455867 1_555
Ca2 N15 2.457770 1_555
Ca2 N16 2.469842 1_555
Ca3 N21 2.377187 1_546
Ca3 N6 2.455867 1_555
Ca3 N14 2.457770 1_555
Ca3 N17 2.469842 1_655
Ca4 N18 2.377187 1_545
Ca4 N1 2.455867 1_555
Ca4 N9 2.457770 1_555
Ca4 N22 2.469842 1_555
Ca5 N19 2.377187 1_555
Ca5 N0 2.455867 1_555
Ca5 N8 2.457770 1_555
Ca5 N23 2.469842 1_655
Ca6 N16 2.377187 1_556
Ca6 N3 2.455867 1_555
Ca6 N11 2.457770 1_555
Ca6 N20 2.469842 1_555
Ca7 N17 2.377187 1_564
Ca7 N2 2.455867 1_555
Ca7 N10 2.457770 1_555
Ca7 N21 2.469842 1_455
Ca8 N31 2.372591 1_655
Ca8 N24 2.461197 1_555
Ca8 N8 2.479111 1_555
Ca8 N0 2.561601 1_555
Ca8 N7 2.676346 1_655
Ca8 N23 2.818154 1_655
Ca9 N30 2.372591 1_555
Ca9 N25 2.461197 1_555
Ca9 N9 2.479111 1_555
Ca9 N1 2.561601 1_555
Ca9 N6 2.676346 1_555
Ca9 N22 2.818154 1_555
Ca10 N29 2.372591 1_455
Ca10 N26 2.461197 1_555
Ca10 N10 2.479111 1_555
Ca10 N2 2.561601 1_555
Ca10 N5 2.676346 1_455
Ca10 N21 2.818154 1_455
Ca11 N28 2.372591 1_555
Ca11 N27 2.461197 1_555
Ca11 N11 2.479111 1_555
Ca11 N3 2.561601 1_555
Ca11 N4 2.676346 1_555
Ca11 N20 2.818154 1_555
Ca12 N27 2.372591 1_455
Ca12 N28 2.461197 1_555
Ca12 N12 2.479111 1_555
Ca12 N4 2.561601 1_555
Ca12 N3 2.676346 1_455
Ca12 N19 2.818154 1_455
Ca13 N26 2.372591 1_555
Ca13 N29 2.461197 1_555
Ca13 N13 2.479111 1_555
Ca13 N5 2.561601 1_555
Ca13 N2 2.676346 1_555
Ca13 N18 2.818154 1_555
Ca14 N25 2.372591 1_655
Ca14 N30 2.461197 1_555
Ca14 N14 2.479111 1_555
Ca14 N6 2.561601 1_555
Ca14 N1 2.676346 1_655
Ca14 N17 2.818154 1_655
Ca15 N24 2.372591 1_555
Ca15 N31 2.461197 1_555
Ca15 N15 2.479111 1_555
Ca15 N7 2.561601 1_555
Ca15 N0 2.676346 1_555
Ca15 N16 2.818154 1_555
N0 V5 1.866090 1_555
N0 V2 1.883862 1_555
N1 V4 1.866090 1_545
N1 V3 1.883862 1_445
N2 V7 1.866090 1_565
N2 V0 1.883862 1_565
N3 V6 1.866090 1_555
N3 V1 1.883862 1_655
N4 V1 1.866090 1_555
N4 V6 1.883862 1_555
N5 V0 1.866090 1_565
N5 V7 1.883862 1_665
N6 V3 1.866090 1_545
N6 V4 1.883862 1_545
N7 V2 1.866090 1_555
N7 V5 1.883862 1_455
N8 V14 1.868493 1_555
N8 V15 1.902496 1_555
N9 V15 1.868493 1_555
N9 V14 1.902496 1_455
N10 V12 1.868493 1_554
N10 V13 1.902496 1_555
N11 V13 1.868493 1_556
N11 V12 1.902496 1_655
N12 V10 1.868493 1_555
N12 V11 1.902496 1_555
N13 V11 1.868493 1_555
N13 V10 1.902496 1_655
N14 V8 1.868493 1_556
N14 V9 1.902496 1_555
N15 V9 1.868493 1_554
N15 V8 1.902496 1_455
N16 V5 1.859199 1_555
N16 V8 1.922129 1_555
N17 V4 1.859199 1_545
N17 V9 1.922129 1_555
N18 V7 1.859199 1_565
N18 V10 1.922129 1_555
N19 V6 1.859199 1_555
N19 V11 1.922129 1_555
N20 V1 1.859199 1_555
N20 V12 1.922129 1_555
N21 V0 1.859199 1_565
N21 V13 1.922129 1_555
N22 V3 1.859199 1_545
N22 V14 1.922129 1_555
N23 V2 1.859199 1_555
N23 V15 1.922129 1_555
N24 V0 1.837656 1_555
N24 V8 1.900573 1_555
N25 V1 1.837656 1_555
N25 V9 1.900573 1_555
N26 V2 1.837656 1_555
N26 V10 1.900573 1_555
N27 V3 1.837656 1_555
N27 V11 1.900573 1_555
N28 V4 1.837656 1_555
N28 V12 1.900573 1_555
N29 V5 1.837656 1_555
N29 V13 1.900573 1_555
N30 V6 1.837656 1_555
N30 V14 1.900573 1_555
N31 V7 1.837656 1_555
N31 V15 1.900573 1_555
