# generated using pymatgen
data_Mg(BiO2)2
_symmetry_space_group_name_H-M   'P 1'
_cell_length_a   6.73430524
_cell_length_b   6.73430524
_cell_length_c   6.73430531
_cell_angle_alpha   61.79843391
_cell_angle_beta   61.79843391
_cell_angle_gamma   61.79844239
_symmetry_Int_Tables_number   1
_chemical_formula_structural   Mg(BiO2)2
_chemical_formula_sum   'Mg2 Bi4 O8'
_cell_volume   224.65483561
_cell_formula_units_Z   2
loop_
 _symmetry_equiv_pos_site_id
 _symmetry_equiv_pos_as_xyz
  1  'x, y, z'
loop_
 _atom_site_type_symbol
 _atom_site_label
 _atom_site_symmetry_multiplicity
 _atom_site_fract_x
 _atom_site_fract_y
 _atom_site_fract_z
 _atom_site_occupancy
  Mg  Mg0  1  0.99911600  0.99911600  0.99911600  1
  Mg  Mg1  1  0.37545100  0.37545100  0.37545100  1
  Bi  Bi0  1  0.75846300  0.75846300  0.75846300  1
  Bi  Bi1  1  0.37422600  0.88062700  0.37422600  1
  Bi  Bi2  1  0.88062700  0.37422600  0.37422600  1
  Bi  Bi3  1  0.37422600  0.37422600  0.88062700  1
  O  O0  1  0.59689200  0.59689200  0.16229500  1
  O  O1  1  0.16229500  0.59689200  0.59689200  1
  O  O2  1  0.59689200  0.16229500  0.59689200  1
  O  O3  1  0.62513100  0.62513100  0.62513100  1
  O  O4  1  0.12533800  0.12533800  0.12533800  1
  O  O5  1  0.13156100  0.61821200  0.13156100  1
  O  O6  1  0.61821200  0.13156100  0.13156100  1
  O  O7  1  0.13156100  0.13156100  0.61821200  1
loop_
_geom_bond_atom_site_label_1
_geom_bond_atom_site_label_2
_geom_bond_distance
_geom_bond_site_symmetry_2
Mg0 O4 2.053359 1_666
Mg0 O7 2.144296 1_665
Mg0 O6 2.144296 1_566
Mg0 O5 2.144296 1_656
Mg1 O0 2.136264 1_555
Mg1 O1 2.136264 1_555
Mg1 O2 2.136264 1_555
Mg1 O7 2.354103 1_555
Mg1 O5 2.354103 1_555
Mg1 O6 2.354103 1_555
Bi0 O3 2.169024 1_555
Bi0 O0 2.299808 1_556
Bi0 O2 2.299808 1_565
Bi0 O1 2.299808 1_655
Bi1 O6 2.387948 1_565
Bi1 O7 2.387948 1_565
Bi1 O4 2.401718 1_565
Bi1 O1 2.404818 1_555
Bi1 O0 2.404818 1_555
Bi1 O3 2.423481 1_555
Bi2 O5 2.387948 1_655
Bi2 O7 2.387948 1_655
Bi2 O4 2.401718 1_655
Bi2 O2 2.404818 1_555
Bi2 O0 2.404818 1_555
Bi2 O3 2.423481 1_555
Bi3 O5 2.387948 1_556
Bi3 O6 2.387948 1_556
Bi3 O4 2.401718 1_556
Bi3 O2 2.404818 1_555
Bi3 O1 2.404818 1_555
Bi3 O3 2.423481 1_555
