# generated using pymatgen
data_Li7Mn4CoO12
_symmetry_space_group_name_H-M   'P 1'
_cell_length_a   2.86573600
_cell_length_b   8.68706900
_cell_length_c   9.72740156
_cell_angle_alpha   64.24337837
_cell_angle_beta   90.00000000
_cell_angle_gamma   90.00000000
_symmetry_Int_Tables_number   1
_chemical_formula_structural   Li7Mn4CoO12
_chemical_formula_sum   'Li7 Mn4 Co1 O12'
_cell_volume   218.10287771
_cell_formula_units_Z   1
loop_
 _symmetry_equiv_pos_site_id
 _symmetry_equiv_pos_as_xyz
  1  'x, y, z'
loop_
 _atom_site_type_symbol
 _atom_site_label
 _atom_site_symmetry_multiplicity
 _atom_site_fract_x
 _atom_site_fract_y
 _atom_site_fract_z
 _atom_site_occupancy
  Li  Li0  1  0.50000000  0.82898500  0.83329900  1
  Li  Li1  1  0.50000000  0.50508500  0.50564400  1
  Li  Li2  1  0.50000000  0.16729700  0.15838700  1
  Li  Li3  1  0.00000000  0.47127800  0.99348400  1
  Li  Li4  1  0.00000000  0.19424300  0.66890000  1
  Li  Li5  1  0.00000000  0.83233700  0.33517600  1
  Li  Li6  1  0.50000000  0.33732800  0.83419500  1
  Mn  Mn0  1  0.00000000  0.02180700  0.99376800  1
  Mn  Mn1  1  0.00000000  0.33243100  0.33400700  1
  Mn  Mn2  1  0.50000000  0.67583400  0.16084800  1
  Mn  Mn3  1  0.50000000  0.98647400  0.50748300  1
  Co  Co0  1  0.00000000  0.64660100  0.67148800  1
  O  O0  1  0.50000000  0.07920800  0.84514900  1
  O  O1  1  0.50000000  0.72903900  0.52381300  1
  O  O2  1  0.50000000  0.40515000  0.17921400  1
  O  O3  1  0.00000000  0.76860300  0.00825600  1
  O  O4  1  0.00000000  0.44171800  0.66712500  1
  O  O5  1  0.00000000  0.06386200  0.35637300  1
  O  O6  1  0.50000000  0.59033000  0.81643800  1
  O  O7  1  0.50000000  0.26031600  0.48897400  1
  O  O8  1  0.50000000  0.93631200  0.14591500  1
  O  O9  1  0.00000000  0.22982600  0.99989100  1
  O  O10  1  0.00000000  0.89468500  0.65980000  1
  O  O11  1  0.00000000  0.60125100  0.31237300  1
loop_
_geom_bond_atom_site_label_1
_geom_bond_atom_site_label_2
_geom_bond_distance
_geom_bond_site_symmetry_2
Li0 O10 2.095238 1_655
Li0 O10 2.095238 1_555
Li0 O3 2.109216 1_556
Li0 O3 2.109216 1_656
Li0 O6 2.149566 1_555
Li0 O0 2.226217 1_565
Li1 O4 2.017926 1_555
Li1 O4 2.017926 1_655
Li1 O1 2.028560 1_555
Li1 O7 2.201639 1_555
Li1 O11 2.218223 1_555
Li1 O11 2.218223 1_655
Li2 O9 1.999333 1_654
Li2 O9 1.999333 1_554
Li2 O8 2.062199 1_545
Li2 O2 2.161995 1_555
Li2 O5 2.250682 1_655
Li2 O5 2.250682 1_555
Li3 O9 2.071188 1_555
Li3 O6 2.130893 1_555
Li3 O6 2.130893 1_455
Li3 O2 2.178341 1_556
Li3 O2 2.178341 1_456
Li4 O0 2.121806 1_455
Li4 O0 2.121806 1_555
Li4 O7 2.138392 1_455
Li4 O7 2.138392 1_555
Li4 O4 2.142386 1_555
Li5 O5 2.109066 1_565
Li5 O11 2.113313 1_555
Li5 O1 2.189597 1_555
Li5 O1 2.189597 1_455
Li5 O8 2.193876 1_555
Li5 O8 2.193876 1_455
Li6 O9 2.053029 1_555
Li6 O9 2.053029 1_655
Li6 O4 2.058098 1_655
Li6 O4 2.058098 1_555
Li6 O6 2.128479 1_555
Li6 O0 2.198099 1_555
Mn0 O9 1.833742 1_555
Mn0 O0 1.940418 1_555
Mn0 O0 1.940418 1_455
Mn0 O8 1.959539 1_546
Mn0 O8 1.959539 1_446
Mn0 O3 2.142123 1_546
Mn1 O2 1.972999 1_455
Mn1 O2 1.972999 1_555
Mn1 O7 1.974125 1_555
Mn1 O7 1.974125 1_455
Mn1 O5 2.247095 1_555
Mn1 O11 2.251801 1_555
Mn2 O11 1.953314 1_655
Mn2 O11 1.953314 1_555
Mn2 O3 1.966258 1_555
Mn2 O3 1.966258 1_655
Mn2 O8 2.203555 1_555
Mn2 O2 2.279503 1_555
Mn3 O5 1.951119 1_665
Mn3 O5 1.951119 1_565
Mn3 O10 1.964032 1_555
Mn3 O10 1.964032 1_655
Mn3 O1 2.172045 1_555
Mn3 O7 2.306354 1_565
Co0 O4 1.798682 1_555
Co0 O6 1.918621 1_555
Co0 O6 1.918621 1_455
Co0 O1 1.932722 1_555
Co0 O1 1.932722 1_455
Co0 O10 2.108206 1_555
