# generated using pymatgen
data_Ba(Sn2Ru)3
_symmetry_space_group_name_H-M   'P 1'
_cell_length_a   13.88494315
_cell_length_b   13.88494315
_cell_length_c   4.47893500
_cell_angle_alpha   90.00000000
_cell_angle_beta   90.00000000
_cell_angle_gamma   145.50073376
_symmetry_Int_Tables_number   1
_chemical_formula_structural   Ba(Sn2Ru)3
_chemical_formula_sum   'Ba2 Sn12 Ru6'
_cell_volume   489.08338119
_cell_formula_units_Z   2
loop_
 _symmetry_equiv_pos_site_id
 _symmetry_equiv_pos_as_xyz
  1  'x, y, z'
loop_
 _atom_site_type_symbol
 _atom_site_label
 _atom_site_symmetry_multiplicity
 _atom_site_fract_x
 _atom_site_fract_y
 _atom_site_fract_z
 _atom_site_occupancy
  Ba  Ba0  1  0.41169700  0.58830300  0.25000000  1
  Ba  Ba1  1  0.58830300  0.41169700  0.75000000  1
  Sn  Sn0  1  0.86505300  0.13494700  0.25000000  1
  Sn  Sn1  1  0.13494700  0.86505300  0.75000000  1
  Sn  Sn2  1  0.23931100  0.14745500  0.25000000  1
  Sn  Sn3  1  0.14745500  0.23931100  0.75000000  1
  Sn  Sn4  1  0.76068900  0.85254500  0.75000000  1
  Sn  Sn5  1  0.85254500  0.76068900  0.25000000  1
  Sn  Sn6  1  0.24978700  0.75021300  0.25000000  1
  Sn  Sn7  1  0.75021300  0.24978700  0.75000000  1
  Sn  Sn8  1  0.48631400  0.13292700  0.25000000  1
  Sn  Sn9  1  0.13292700  0.48631400  0.75000000  1
  Sn  Sn10  1  0.51368600  0.86707300  0.75000000  1
  Sn  Sn11  1  0.86707300  0.51368600  0.25000000  1
  Ru  Ru0  1  0.59630900  0.02660900  0.25000000  1
  Ru  Ru1  1  0.02660900  0.59630900  0.75000000  1
  Ru  Ru2  1  0.40369100  0.97339100  0.75000000  1
  Ru  Ru3  1  0.97339100  0.40369100  0.25000000  1
  Ru  Ru4  1  0.96198000  0.03802000  0.25000000  1
  Ru  Ru5  1  0.03802000  0.96198000  0.75000000  1
loop_
_geom_bond_atom_site_label_1
_geom_bond_atom_site_label_2
_geom_bond_distance
_geom_bond_site_symmetry_2
Ba0 Sn3 3.557160 1_555
Ba0 Sn4 3.557160 1_555
Ba0 Sn3 3.557160 1_554
Ba0 Sn4 3.557160 1_554
Ba0 Sn9 3.601141 1_555
Ba0 Sn9 3.601141 1_554
Ba0 Sn10 3.601141 1_555
Ba0 Sn10 3.601141 1_554
Ba1 Sn5 3.557160 1_555
Ba1 Sn2 3.557160 1_555
Ba1 Sn2 3.557160 1_556
Ba1 Sn5 3.557160 1_556
Ba1 Sn8 3.601141 1_555
Ba1 Sn8 3.601141 1_556
Ba1 Sn11 3.601141 1_556
Ba1 Sn11 3.601141 1_555
Ru0 Sn0 2.633416 1_555
Ru0 Sn10 2.655097 1_544
Ru0 Sn10 2.655097 1_545
Ru0 Sn6 2.728160 1_545
Ru0 Sn8 2.868442 1_555
Ru0 Sn7 2.875687 1_555
Ru0 Sn7 2.875687 1_554
Ru1 Sn1 2.633416 1_555
Ru1 Sn11 2.655097 1_455
Ru1 Sn11 2.655097 1_456
Ru1 Sn7 2.728160 1_455
Ru1 Sn9 2.868442 1_555
Ru1 Sn6 2.875687 1_556
Ru1 Sn6 2.875687 1_555
Ru2 Sn1 2.633416 1_555
Ru2 Sn8 2.655097 1_565
Ru2 Sn8 2.655097 1_566
Ru2 Sn7 2.728160 1_565
Ru2 Sn10 2.868442 1_555
Ru2 Sn6 2.875687 1_556
Ru2 Sn6 2.875687 1_555
Ru3 Sn0 2.633416 1_555
Ru3 Sn9 2.655097 1_654
Ru3 Sn9 2.655097 1_655
Ru3 Sn6 2.728160 1_655
Ru3 Sn11 2.868442 1_555
Ru3 Sn7 2.875687 1_555
Ru3 Sn7 2.875687 1_554
Ru4 Sn0 2.570586 1_555
Ru4 Sn5 2.737274 1_545
Ru4 Sn2 2.737274 1_655
Ru4 Sn3 2.755927 1_654
Ru4 Sn3 2.755927 1_655
Ru4 Sn4 2.755927 1_544
Ru4 Sn4 2.755927 1_545
Ru5 Sn1 2.570586 1_555
Ru5 Sn4 2.737274 1_455
Ru5 Sn3 2.737274 1_565
Ru5 Sn2 2.755927 1_565
Ru5 Sn2 2.755927 1_566
Ru5 Sn5 2.755927 1_455
Ru5 Sn5 2.755927 1_456
