# generated using pymatgen
data_Ca2CoC(NO)2
_symmetry_space_group_name_H-M   'P 1'
_cell_length_a   3.65725000
_cell_length_b   3.65725000
_cell_length_c   8.04301200
_cell_angle_alpha   90.00000000
_cell_angle_beta   90.00000000
_cell_angle_gamma   90.00000000
_symmetry_Int_Tables_number   1
_chemical_formula_structural   Ca2CoC(NO)2
_chemical_formula_sum   'Ca2 Co1 C1 N2 O2'
_cell_volume   107.57912654
_cell_formula_units_Z   1
loop_
 _symmetry_equiv_pos_site_id
 _symmetry_equiv_pos_as_xyz
  1  'x, y, z'
loop_
 _atom_site_type_symbol
 _atom_site_label
 _atom_site_symmetry_multiplicity
 _atom_site_fract_x
 _atom_site_fract_y
 _atom_site_fract_z
 _atom_site_occupancy
  Ca  Ca0  1  0.50000000  0.50000000  0.70594900  1
  Ca  Ca1  1  0.50000000  0.50000000  0.29405100  1
  Co  Co0  1  0.00000000  0.00000000  0.50000000  1
  C  C0  1  0.00000000  0.00000000  0.00000000  1
  N  N0  1  0.00000000  0.00000000  0.84503100  1
  N  N1  1  0.00000000  0.00000000  0.15496900  1
  O  O0  1  0.00000000  0.50000000  0.50000000  1
  O  O1  1  0.50000000  0.00000000  0.50000000  1
loop_
_geom_bond_atom_site_label_1
_geom_bond_atom_site_label_2
_geom_bond_distance
_geom_bond_site_symmetry_2
Ca0 O1 2.467326 1_555
Ca0 O0 2.467326 1_555
Ca0 O1 2.467326 1_565
Ca0 O0 2.467326 1_655
Ca0 N0 2.817639 1_565
Ca0 N0 2.817639 1_665
Ca0 N0 2.817639 1_555
Ca0 N0 2.817639 1_655
Ca1 O0 2.467326 1_655
Ca1 O1 2.467326 1_555
Ca1 O0 2.467326 1_555
Ca1 O1 2.467326 1_565
Ca1 N1 2.817639 1_655
Ca1 N1 2.817639 1_565
Ca1 N1 2.817639 1_665
Ca1 N1 2.817639 1_555
Co0 O1 1.828625 1_555
Co0 O0 1.828625 1_545
Co0 O1 1.828625 1_455
Co0 O0 1.828625 1_555
C0 N1 1.246418 1_555
C0 N0 1.246418 1_554
