# generated using pymatgen
data_SiO2
_symmetry_space_group_name_H-M   'P 1'
_cell_length_a   15.48520200
_cell_length_b   15.48520200
_cell_length_c   12.00934700
_cell_angle_alpha   90.00000000
_cell_angle_beta   90.00000000
_cell_angle_gamma   90.00000000
_symmetry_Int_Tables_number   1
_chemical_formula_structural   SiO2
_chemical_formula_sum   'Si48 O96'
_cell_volume   2879.73910274
_cell_formula_units_Z   48
loop_
 _symmetry_equiv_pos_site_id
 _symmetry_equiv_pos_as_xyz
  1  'x, y, z'
loop_
 _atom_site_type_symbol
 _atom_site_label
 _atom_site_symmetry_multiplicity
 _atom_site_fract_x
 _atom_site_fract_y
 _atom_site_fract_z
 _atom_site_occupancy
  Si  Si0  1  0.59210800  0.23344100  0.81310300  1
  Si  Si1  1  0.40789200  0.76655900  0.81310300  1
  Si  Si2  1  0.09210800  0.26655900  0.81310300  1
  Si  Si3  1  0.90789200  0.73344100  0.81310300  1
  Si  Si4  1  0.76655900  0.59210800  0.81310300  1
  Si  Si5  1  0.23344100  0.40789200  0.81310300  1
  Si  Si6  1  0.73344100  0.09210800  0.81310300  1
  Si  Si7  1  0.26655900  0.90789200  0.81310300  1
  Si  Si8  1  0.40789200  0.76655900  0.18689700  1
  Si  Si9  1  0.59210800  0.23344100  0.18689700  1
  Si  Si10  1  0.90789200  0.73344100  0.18689700  1
  Si  Si11  1  0.09210800  0.26655900  0.18689700  1
  Si  Si12  1  0.23344100  0.40789200  0.18689700  1
  Si  Si13  1  0.76655900  0.59210800  0.18689700  1
  Si  Si14  1  0.26655900  0.90789200  0.18689700  1
  Si  Si15  1  0.73344100  0.09210800  0.18689700  1
  Si  Si16  1  0.53104800  0.82130800  0.00000000  1
  Si  Si17  1  0.46895200  0.17869200  0.00000000  1
  Si  Si18  1  0.03104800  0.67869200  0.00000000  1
  Si  Si19  1  0.96895200  0.32130800  0.00000000  1
  Si  Si20  1  0.17869200  0.53104800  0.00000000  1
  Si  Si21  1  0.82130800  0.46895200  0.00000000  1
  Si  Si22  1  0.32130800  0.03104800  0.00000000  1
  Si  Si23  1  0.67869200  0.96895200  0.00000000  1
  Si  Si24  1  0.67111200  0.68225800  0.00000000  1
  Si  Si25  1  0.32888800  0.31774200  0.00000000  1
  Si  Si26  1  0.17111200  0.81774200  0.00000000  1
  Si  Si27  1  0.82888800  0.18225800  0.00000000  1
  Si  Si28  1  0.31774200  0.67111200  0.00000000  1
  Si  Si29  1  0.68225800  0.32888800  0.00000000  1
  Si  Si30  1  0.18225800  0.17111200  0.00000000  1
  Si  Si31  1  0.81774200  0.82888800  0.00000000  1
  Si  Si32  1  0.52760200  0.35946600  0.63015000  1
  Si  Si33  1  0.47239800  0.64053400  0.63015000  1
  Si  Si34  1  0.02760200  0.14053400  0.63015000  1
  Si  Si35  1  0.97239800  0.85946600  0.63015000  1
  Si  Si36  1  0.64053400  0.52760200  0.63015000  1
  Si  Si37  1  0.35946600  0.47239800  0.63015000  1
  Si  Si38  1  0.85946600  0.02760200  0.63015000  1
  Si  Si39  1  0.14053400  0.97239800  0.63015000  1
  Si  Si40  1  0.47239800  0.64053400  0.36985000  1
  Si  Si41  1  0.52760200  0.35946600  0.36985000  1
  Si  Si42  1  0.97239800  0.85946600  0.36985000  1
  Si  Si43  1  0.02760200  0.14053400  0.36985000  1
  Si  Si44  1  0.35946600  0.47239800  0.36985000  1
  Si  Si45  1  0.64053400  0.52760200  0.36985000  1
  Si  Si46  1  0.14053400  0.97239800  0.36985000  1
  Si  Si47  1  0.85946600  0.02760200  0.36985000  1
  O  O0  1  0.62486800  0.31558200  0.88788700  1
  O  O1  1  0.37513200  0.68441800  0.88788700  1
  O  O2  1  0.12486800  0.18441800  0.88788700  1
  O  O3  1  0.87513200  0.81558200  0.88788700  1
  O  O4  1  0.68441800  0.62486800  0.88788700  1
  O  O5  1  0.31558200  0.37513200  0.88788700  1
  O  O6  1  0.81558200  0.12486800  0.88788700  1
  O  O7  1  0.18441800  0.87513200  0.88788700  1
  O  O8  1  0.37513200  0.68441800  0.11211300  1
  O  O9  1  0.62486800  0.31558200  0.11211300  1
  O  O10  1  0.87513200  0.81558200  0.11211300  1
  O  O11  1  0.12486800  0.18441800  0.11211300  1
  O  O12  1  0.31558200  0.37513200  0.11211300  1
  O  O13  1  0.68441800  0.62486800  0.11211300  1
  O  O14  1  0.18441800  0.87513200  0.11211300  1
  O  O15  1  0.81558200  0.12486800  0.11211300  1
  O  O16  1  0.54329400  0.27381400  0.70540100  1
  O  O17  1  0.45670600  0.72618600  0.70540100  1
  O  O18  1  0.04329400  0.22618600  0.70540100  1
  O  O19  1  0.95670600  0.77381400  0.70540100  1
  O  O20  1  0.72618600  0.54329400  0.70540100  1
  O  O21  1  0.27381400  0.45670600  0.70540100  1
  O  O22  1  0.77381400  0.04329400  0.70540100  1
  O  O23  1  0.22618600  0.95670600  0.70540100  1
  O  O24  1  0.45670600  0.72618600  0.29459900  1
  O  O25  1  0.54329400  0.27381400  0.29459900  1
  O  O26  1  0.95670600  0.77381400  0.29459900  1
  O  O27  1  0.04329400  0.22618600  0.29459900  1
  O  O28  1  0.27381400  0.45670600  0.29459900  1
  O  O29  1  0.72618600  0.54329400  0.29459900  1
  O  O30  1  0.22618600  0.95670600  0.29459900  1
  O  O31  1  0.77381400  0.04329400  0.29459900  1
  O  O32  1  0.67234000  0.17234000  0.77261000  1
  O  O33  1  0.32766000  0.82766000  0.77261000  1
  O  O34  1  0.17234000  0.32766000  0.77261000  1
  O  O35  1  0.82766000  0.67234000  0.77261000  1
  O  O36  1  0.32766000  0.82766000  0.22739000  1
  O  O37  1  0.67234000  0.17234000  0.22739000  1
  O  O38  1  0.82766000  0.67234000  0.22739000  1
  O  O39  1  0.17234000  0.32766000  0.22739000  1
  O  O40  1  0.52730800  0.17303700  0.88724500  1
  O  O41  1  0.47269200  0.82696300  0.88724500  1
  O  O42  1  0.02730800  0.32696300  0.88724500  1
  O  O43  1  0.97269200  0.67303700  0.88724500  1
  O  O44  1  0.82696300  0.52730800  0.88724500  1
  O  O45  1  0.17303700  0.47269200  0.88724500  1
  O  O46  1  0.67303700  0.02730800  0.88724500  1
  O  O47  1  0.32696300  0.97269200  0.88724500  1
  O  O48  1  0.47269200  0.82696300  0.11275500  1
  O  O49  1  0.52730800  0.17303700  0.11275500  1
  O  O50  1  0.97269200  0.67303700  0.11275500  1
  O  O51  1  0.02730800  0.32696300  0.11275500  1
  O  O52  1  0.17303700  0.47269200  0.11275500  1
  O  O53  1  0.82696300  0.52730800  0.11275500  1
  O  O54  1  0.32696300  0.97269200  0.11275500  1
  O  O55  1  0.67303700  0.02730800  0.11275500  1
  O  O56  1  0.57674100  0.72623800  0.00000000  1
  O  O57  1  0.42325900  0.27376200  0.00000000  1
  O  O58  1  0.07674100  0.77376200  0.00000000  1
  O  O59  1  0.92325900  0.22623800  0.00000000  1
  O  O60  1  0.27376200  0.57674100  0.00000000  1
  O  O61  1  0.72623800  0.42325900  0.00000000  1
  O  O62  1  0.22623800  0.07674100  0.00000000  1
  O  O63  1  0.77376200  0.92325900  0.00000000  1
  O  O64  1  0.59902200  0.90097800  0.00000000  1
  O  O65  1  0.40097800  0.09902200  0.00000000  1
  O  O66  1  0.09902200  0.59902200  0.00000000  1
  O  O67  1  0.90097800  0.40097800  0.00000000  1
  O  O68  1  0.74290000  0.75710000  0.00000000  1
  O  O69  1  0.25710000  0.24290000  0.00000000  1
  O  O70  1  0.24290000  0.74290000  0.00000000  1
  O  O71  1  0.75710000  0.25710000  0.00000000  1
  O  O72  1  0.60132000  0.43197500  0.65678400  1
  O  O73  1  0.39868000  0.56802500  0.65678400  1
  O  O74  1  0.10132000  0.06802500  0.65678400  1
  O  O75  1  0.89868000  0.93197500  0.65678400  1
  O  O76  1  0.56802500  0.60132000  0.65678400  1
  O  O77  1  0.43197500  0.39868000  0.65678400  1
  O  O78  1  0.93197500  0.10132000  0.65678400  1
  O  O79  1  0.06802500  0.89868000  0.65678400  1
  O  O80  1  0.39868000  0.56802500  0.34321600  1
  O  O81  1  0.60132000  0.43197500  0.34321600  1
  O  O82  1  0.89868000  0.93197500  0.34321600  1
  O  O83  1  0.10132000  0.06802500  0.34321600  1
  O  O84  1  0.43197500  0.39868000  0.34321600  1
  O  O85  1  0.56802500  0.60132000  0.34321600  1
  O  O86  1  0.06802500  0.89868000  0.34321600  1
  O  O87  1  0.93197500  0.10132000  0.34321600  1
  O  O88  1  0.53287900  0.33067700  0.50000000  1
  O  O89  1  0.46712100  0.66932300  0.50000000  1
  O  O90  1  0.03287900  0.16932300  0.50000000  1
  O  O91  1  0.96712100  0.83067700  0.50000000  1
  O  O92  1  0.66932300  0.53287900  0.50000000  1
  O  O93  1  0.33067700  0.46712100  0.50000000  1
  O  O94  1  0.83067700  0.03287900  0.50000000  1
  O  O95  1  0.16932300  0.96712100  0.50000000  1
loop_
_geom_bond_atom_site_label_1
_geom_bond_atom_site_label_2
_geom_bond_distance
_geom_bond_site_symmetry_2
O0 Si29 1.626357 1_556
O0 Si0 1.637636 1_555
O1 Si28 1.626357 1_556
O1 Si1 1.637636 1_555
O2 Si30 1.626357 1_556
O2 Si2 1.637636 1_555
O3 Si31 1.626357 1_556
O3 Si3 1.637636 1_555
O4 Si24 1.626357 1_556
O4 Si4 1.637636 1_555
O5 Si25 1.626357 1_556
O5 Si5 1.637636 1_555
O6 Si27 1.626357 1_556
O6 Si6 1.637636 1_555
O7 Si26 1.626357 1_556
O7 Si7 1.637636 1_555
O8 Si28 1.626357 1_555
O8 Si8 1.637636 1_555
O9 Si29 1.626357 1_555
O9 Si9 1.637636 1_555
O10 Si31 1.626357 1_555
O10 Si10 1.637636 1_555
O11 Si30 1.626357 1_555
O11 Si11 1.637636 1_555
O12 Si25 1.626357 1_555
O12 Si12 1.637636 1_555
O13 Si24 1.626357 1_555
O13 Si13 1.637636 1_555
O14 Si26 1.626357 1_555
O14 Si14 1.637636 1_555
O15 Si27 1.626357 1_555
O15 Si15 1.637636 1_555
O16 Si32 1.623244 1_555
O16 Si0 1.623328 1_555
O17 Si33 1.623244 1_555
O17 Si1 1.623328 1_555
O18 Si34 1.623244 1_555
O18 Si2 1.623328 1_555
O19 Si35 1.623244 1_555
O19 Si3 1.623328 1_555
O20 Si36 1.623244 1_555
O20 Si4 1.623328 1_555
O21 Si37 1.623244 1_555
O21 Si5 1.623328 1_555
O22 Si38 1.623244 1_555
O22 Si6 1.623328 1_555
O23 Si39 1.623244 1_555
O23 Si7 1.623328 1_555
O24 Si40 1.623244 1_555
O24 Si8 1.623328 1_555
O25 Si41 1.623244 1_555
O25 Si9 1.623328 1_555
O26 Si42 1.623244 1_555
O26 Si10 1.623328 1_555
O27 Si43 1.623244 1_555
O27 Si11 1.623328 1_555
O28 Si44 1.623244 1_555
O28 Si12 1.623328 1_555
O29 Si45 1.623244 1_555
O29 Si13 1.623328 1_555
O30 Si46 1.623244 1_555
O30 Si14 1.623328 1_555
O31 Si47 1.623244 1_555
O31 Si15 1.623328 1_555
O32 Si0 1.635629 1_555
O32 Si6 1.635629 1_555
O33 Si7 1.635629 1_555
O33 Si1 1.635629 1_555
O34 Si5 1.635629 1_555
O34 Si2 1.635629 1_555
O35 Si3 1.635629 1_555
O35 Si4 1.635629 1_555
O36 Si14 1.635629 1_555
O36 Si8 1.635629 1_555
O37 Si9 1.635629 1_555
O37 Si15 1.635629 1_555
O38 Si10 1.635629 1_555
O38 Si13 1.635629 1_555
O39 Si12 1.635629 1_555
O39 Si11 1.635629 1_555
O40 Si17 1.630302 1_556
O40 Si0 1.635425 1_555
O41 Si16 1.630302 1_556
O41 Si1 1.635425 1_555
O42 Si19 1.630302 1_456
O42 Si2 1.635425 1_555
O43 Si18 1.630302 1_656
O43 Si3 1.635425 1_555
O44 Si21 1.630302 1_556
O44 Si4 1.635425 1_555
O45 Si20 1.630302 1_556
O45 Si5 1.635425 1_555
O46 Si23 1.630302 1_546
O46 Si6 1.635425 1_555
O47 Si22 1.630302 1_566
O47 Si7 1.635425 1_555
O48 Si16 1.630302 1_555
O48 Si8 1.635425 1_555
O49 Si17 1.630302 1_555
O49 Si9 1.635425 1_555
O50 Si18 1.630302 1_655
O50 Si10 1.635425 1_555
O51 Si19 1.630302 1_455
O51 Si11 1.635425 1_555
O52 Si20 1.630302 1_555
O52 Si12 1.635425 1_555
O53 Si21 1.630302 1_555
O53 Si13 1.635425 1_555
O54 Si22 1.630302 1_565
O54 Si14 1.635425 1_555
O55 Si23 1.630302 1_545
O55 Si15 1.635425 1_555
O56 Si24 1.612256 1_555
O56 Si16 1.633388 1_555
O57 Si25 1.612256 1_555
O57 Si17 1.633388 1_555
O58 Si26 1.612256 1_555
O58 Si18 1.633388 1_555
O59 Si27 1.612256 1_555
O59 Si19 1.633388 1_555
O60 Si28 1.612256 1_555
O60 Si20 1.633388 1_555
O61 Si29 1.612256 1_555
O61 Si21 1.633388 1_555
O62 Si30 1.612256 1_555
O62 Si22 1.633388 1_555
O63 Si31 1.612256 1_555
O63 Si23 1.633388 1_555
O64 Si23 1.621721 1_555
O64 Si16 1.621721 1_555
O65 Si17 1.621721 1_555
O65 Si22 1.621721 1_555
O66 Si20 1.621721 1_555
O66 Si18 1.621721 1_555
O67 Si19 1.621721 1_555
O67 Si21 1.621721 1_555
O68 Si31 1.605901 1_555
O68 Si24 1.605901 1_555
O69 Si25 1.605901 1_555
O69 Si30 1.605901 1_555
O70 Si28 1.605901 1_555
O70 Si26 1.605901 1_555
O71 Si27 1.605901 1_555
O71 Si29 1.605901 1_555
O72 Si36 1.632122 1_555
O72 Si32 1.632830 1_555
O73 Si37 1.632122 1_555
O73 Si33 1.632830 1_555
O74 Si39 1.632122 1_545
O74 Si34 1.632830 1_555
O75 Si38 1.632122 1_565
O75 Si35 1.632830 1_555
O76 Si33 1.632122 1_555
O76 Si36 1.632830 1_555
O77 Si32 1.632122 1_555
O77 Si37 1.632830 1_555
O78 Si34 1.632122 1_655
O78 Si38 1.632830 1_555
O79 Si35 1.632122 1_455
O79 Si39 1.632830 1_555
O80 Si44 1.632122 1_555
O80 Si40 1.632830 1_555
O81 Si45 1.632122 1_555
O81 Si41 1.632830 1_555
O82 Si47 1.632122 1_565
O82 Si42 1.632830 1_555
O83 Si46 1.632122 1_545
O83 Si43 1.632830 1_555
O84 Si41 1.632122 1_555
O84 Si44 1.632830 1_555
O85 Si40 1.632122 1_555
O85 Si45 1.632830 1_555
O86 Si42 1.632122 1_455
O86 Si46 1.632830 1_555
O87 Si43 1.632122 1_655
O87 Si47 1.632830 1_555
O88 Si41 1.627402 1_555
O88 Si32 1.627402 1_555
O89 Si40 1.627402 1_555
O89 Si33 1.627402 1_555
O90 Si43 1.627402 1_555
O90 Si34 1.627402 1_555
O91 Si42 1.627402 1_555
O91 Si35 1.627402 1_555
O92 Si45 1.627402 1_555
O92 Si36 1.627402 1_555
O93 Si44 1.627402 1_555
O93 Si37 1.627402 1_555
O94 Si47 1.627402 1_555
O94 Si38 1.627402 1_555
O95 Si46 1.627402 1_555
O95 Si39 1.627402 1_555
