# generated using pymatgen
data_Sm(MnSn)6
_symmetry_space_group_name_H-M   'P 1'
_cell_length_a   15.17442591
_cell_length_b   15.17442591
_cell_length_c   15.17442591
_cell_angle_alpha   159.14441358
_cell_angle_beta   145.31046208
_cell_angle_gamma   40.82335010
_symmetry_Int_Tables_number   1
_chemical_formula_structural   Sm(MnSn)6
_chemical_formula_sum   'Sm3 Mn18 Sn18'
_cell_volume   706.79908167
_cell_formula_units_Z   3
loop_
 _symmetry_equiv_pos_site_id
 _symmetry_equiv_pos_as_xyz
  1  'x, y, z'
loop_
 _atom_site_type_symbol
 _atom_site_label
 _atom_site_symmetry_multiplicity
 _atom_site_fract_x
 _atom_site_fract_y
 _atom_site_fract_z
 _atom_site_occupancy
  Sm  Sm0  1  0.16853800  0.66853800  0.50000000  1
  Sm  Sm1  1  0.83146200  0.33146200  0.50000000  1
  Sm  Sm2  1  0.00000000  0.00000000  0.00000000  1
  Mn  Mn0  1  0.24903100  0.50000000  0.74903100  1
  Mn  Mn1  1  0.75096900  0.50000000  0.25096900  1
  Mn  Mn2  1  0.50000000  0.00000000  0.00000000  1
  Mn  Mn3  1  0.00000000  0.00000000  0.50000000  1
  Mn  Mn4  1  0.00000000  0.50000000  0.00000000  1
  Mn  Mn5  1  0.50000000  0.50000000  0.50000000  1
  Mn  Mn6  1  0.58336400  0.83332000  0.75004300  1
  Mn  Mn7  1  0.91672300  0.16668000  0.75004300  1
  Mn  Mn8  1  0.08327700  0.83332000  0.24995700  1
  Mn  Mn9  1  0.41663600  0.16668000  0.24995700  1
  Mn  Mn10  1  0.33242000  0.83404100  0.99983700  1
  Mn  Mn11  1  0.16579500  0.16595900  0.49837800  1
  Mn  Mn12  1  0.83420500  0.33258300  0.00016300  1
  Mn  Mn13  1  0.66758000  0.66741700  0.50162200  1
  Mn  Mn14  1  0.66758000  0.16595900  0.00016300  1
  Mn  Mn15  1  0.83420500  0.83404100  0.50162200  1
  Mn  Mn16  1  0.16579500  0.66741700  0.99983700  1
  Mn  Mn17  1  0.33242000  0.33258300  0.49837800  1
  Sn  Sn0  1  0.05587300  0.55587300  0.50000000  1
  Sn  Sn1  1  0.94412700  0.44412700  0.50000000  1
  Sn  Sn2  1  0.55543400  0.55543400  0.00000000  1
  Sn  Sn3  1  0.44456600  0.44456600  0.00000000  1
  Sn  Sn4  1  0.11196700  0.11196700  0.00000000  1
  Sn  Sn5  1  0.88803300  0.88803300  0.00000000  1
  Sn  Sn6  1  0.61013200  0.11013200  0.50000000  1
  Sn  Sn7  1  0.38986800  0.88986800  0.50000000  1
  Sn  Sn8  1  0.22390300  0.22390300  0.00000000  1
  Sn  Sn9  1  0.77609700  0.77609700  0.00000000  1
  Sn  Sn10  1  0.71998700  0.21998700  0.50000000  1
  Sn  Sn11  1  0.28001300  0.78001300  0.50000000  1
  Sn  Sn12  1  0.33383700  0.00000000  0.33383700  1
  Sn  Sn13  1  0.66616300  0.00000000  0.66616300  1
  Sn  Sn14  1  0.49991900  0.66630900  0.83361000  1
  Sn  Sn15  1  0.16730100  0.33369100  0.83361000  1
  Sn  Sn16  1  0.83269900  0.66630900  0.16639000  1
  Sn  Sn17  1  0.50008100  0.33369100  0.16639000  1
loop_
_geom_bond_atom_site_label_1
_geom_bond_atom_site_label_2
_geom_bond_distance
_geom_bond_site_symmetry_2
Sm0 Sn16 3.019044 1_455
Sm0 Sn14 3.019044 1_555
Sm0 Sn8 3.165946 1_555
Sm0 Sn8 3.165946 1_566
Sm0 Sn11 3.170714 1_555
Sm0 Sn4 3.183147 1_555
Sm0 Sn4 3.183147 1_566
Sm0 Sn0 3.204562 1_555
Sm1 Sn17 3.019044 1_555
Sm1 Sn15 3.019044 1_655
Sm1 Sn9 3.165946 1_556
Sm1 Sn9 3.165946 1_545
Sm1 Sn10 3.170714 1_555
Sm1 Sn5 3.183147 1_556
Sm1 Sn5 3.183147 1_545
Sm1 Sn1 3.204562 1_555
Sm2 Sn12 3.020432 1_555
Sm2 Sn13 3.020432 1_454
Sm2 Sn0 3.173158 1_555
Sm2 Sn0 3.173158 1_544
Sm2 Sn1 3.173158 1_444
Sm2 Sn1 3.173158 1_455
Sm2 Sn4 3.184708 1_555
Sm2 Sn5 3.184708 1_445
Mn0 Sn0 2.757214 1_555
Mn0 Sn1 2.757214 1_455
Mn0 Sn2 2.764420 1_556
Mn0 Sn3 2.764420 1_556
Mn0 Sn12 2.851680 1_555
Mn0 Sn12 2.851680 1_566
Mn1 Sn0 2.757214 1_655
Mn1 Sn1 2.757214 1_555
Mn1 Sn2 2.764420 1_555
Mn1 Sn3 2.764420 1_555
Mn1 Sn13 2.851680 1_554
Mn1 Sn13 2.851680 1_565
Mn2 Sn9 2.748279 1_545
Mn2 Sn8 2.748279 1_555
Mn2 Sn11 2.780432 1_544
Mn2 Sn10 2.780432 1_555
Mn2 Sn17 2.850370 1_555
Mn2 Sn14 2.850370 1_544
Mn3 Sn9 2.748279 1_445
Mn3 Sn8 2.748279 1_556
Mn3 Sn11 2.780432 1_545
Mn3 Sn10 2.780432 1_455
Mn3 Sn15 2.850370 1_555
Mn3 Sn16 2.850370 1_445
Mn4 Sn9 2.748279 1_455
Mn4 Sn8 2.748279 1_555
Mn4 Sn11 2.780432 1_555
Mn4 Sn10 2.780432 1_454
Mn4 Sn15 2.850370 1_554
Mn4 Sn16 2.850370 1_455
Mn5 Sn9 2.748279 1_556
Mn5 Sn8 2.748279 1_555
Mn5 Sn11 2.780432 1_555
Mn5 Sn10 2.780432 1_555
Mn5 Sn17 2.850370 1_555
Mn5 Sn14 2.850370 1_555
Mn6 Sn11 2.723414 1_555
Mn6 Sn5 2.745215 1_556
Mn6 Sn7 2.775777 1_555
Mn6 Sn9 2.786323 1_556
Mn6 Sn17 2.848909 1_555
Mn6 Sn17 2.848914 1_566
Mn7 Sn10 2.723402 1_555
Mn7 Sn4 2.745227 1_656
Mn7 Sn6 2.775781 1_555
Mn7 Sn8 2.786319 1_656
Mn7 Sn16 2.848910 1_556
Mn7 Sn16 2.848910 1_545
Mn8 Sn11 2.723402 1_555
Mn8 Sn5 2.745227 1_455
Mn8 Sn7 2.775781 1_555
Mn8 Sn9 2.786319 1_455
Mn8 Sn15 2.848910 1_565
Mn8 Sn15 2.848910 1_554
Mn9 Sn10 2.723414 1_555
Mn9 Sn4 2.745215 1_555
Mn9 Sn6 2.775777 1_555
Mn9 Sn8 2.786323 1_555
Mn9 Sn14 2.848909 1_555
Mn9 Sn14 2.848914 1_544
Mn10 Sn0 2.754221 1_555
Mn10 Sn6 2.758547 1_566
Mn10 Sn4 2.760239 1_566
Mn10 Sn2 2.770992 1_556
Mn10 Sn14 2.838012 1_555
Mn10 Sn12 2.842154 1_566
Mn11 Sn1 2.754214 1_455
Mn11 Sn7 2.758555 1_545
Mn11 Sn5 2.760232 1_445
Mn11 Sn3 2.771000 1_556
Mn11 Sn15 2.838014 1_555
Mn11 Sn12 2.842157 1_555
Mn12 Sn0 2.754223 1_655
Mn12 Sn6 2.758546 1_554
Mn12 Sn4 2.760230 1_655
Mn12 Sn2 2.771002 1_555
Mn12 Sn16 2.838002 1_555
Mn12 Sn13 2.842166 1_554
Mn13 Sn1 2.754223 1_555
Mn13 Sn7 2.758546 1_555
Mn13 Sn5 2.760230 1_556
Mn13 Sn3 2.771002 1_555
Mn13 Sn17 2.838002 1_555
Mn13 Sn13 2.842166 1_565
Mn14 Sn1 2.754221 1_555
Mn14 Sn7 2.758547 1_544
Mn14 Sn5 2.760239 1_545
Mn14 Sn3 2.770992 1_555
Mn14 Sn17 2.838012 1_555
Mn14 Sn13 2.842154 1_554
Mn15 Sn0 2.754214 1_655
Mn15 Sn6 2.758555 1_565
Mn15 Sn4 2.760232 1_666
Mn15 Sn2 2.771000 1_555
Mn15 Sn16 2.838014 1_555
Mn15 Sn13 2.842157 1_565
Mn16 Sn1 2.754223 1_455
Mn16 Sn7 2.758546 1_556
Mn16 Sn5 2.760230 1_456
Mn16 Sn3 2.771002 1_556
Mn16 Sn15 2.838002 1_555
Mn16 Sn12 2.842166 1_566
Mn17 Sn0 2.754223 1_555
Mn17 Sn6 2.758546 1_555
Mn17 Sn4 2.760230 1_555
Mn17 Sn2 2.771002 1_556
Mn17 Sn14 2.838002 1_555
Mn17 Sn12 2.842166 1_555
Sn12 Sn13 3.006761 1_555
Sn14 Sn16 3.010868 1_556
Sn15 Sn17 3.010868 1_556
