# generated using pymatgen
data_Mg3Cd
_symmetry_space_group_name_H-M   'P 1'
_cell_length_a   6.41235998
_cell_length_b   10.05677720
_cell_length_c   10.69885344
_cell_angle_alpha   90.00000000
_cell_angle_beta   90.00000000
_cell_angle_gamma   90.00000000
_symmetry_Int_Tables_number   1
_chemical_formula_structural   Mg3Cd
_chemical_formula_sum   'Mg24 Cd8'
_cell_volume   689.94419041
_cell_formula_units_Z   8
loop_
 _symmetry_equiv_pos_site_id
 _symmetry_equiv_pos_as_xyz
  1  'x, y, z'
loop_
 _atom_site_type_symbol
 _atom_site_label
 _atom_site_symmetry_multiplicity
 _atom_site_fract_x
 _atom_site_fract_y
 _atom_site_fract_z
 _atom_site_occupancy
  Mg  Mg0_0  1  0.00000000  0.00000000  0.33462520  1
  Mg  Mg0_1  1  0.00000000  0.00000000  0.83462521  1
  Mg  Mg0_2  1  0.00000000  0.50000000  0.33462520  1
  Mg  Mg0_3  1  0.00000000  0.50000000  0.83462521  1
  Mg  Mg0_4  1  0.50000000  0.00000000  0.33462520  1
  Mg  Mg0_5  1  0.50000000  0.00000000  0.83462521  1
  Mg  Mg0_6  1  0.50000000  0.50000000  0.33462520  1
  Mg  Mg0_7  1  0.50000000  0.50000000  0.83462521  1
  Mg  Mg1_0  1  0.00000000  0.25000000  0.16521405  1
  Mg  Mg1_1  1  0.00000000  0.25000000  0.66521405  1
  Mg  Mg1_2  1  0.00000000  0.75000000  0.16521405  1
  Mg  Mg1_3  1  0.00000000  0.75000000  0.66521405  1
  Mg  Mg1_4  1  0.50000000  0.25000000  0.16521405  1
  Mg  Mg1_5  1  0.50000000  0.25000000  0.66521405  1
  Mg  Mg1_6  1  0.50000000  0.75000000  0.16521405  1
  Mg  Mg1_7  1  0.50000000  0.75000000  0.66521405  1
  Mg  Mg2_0  1  0.25000000  0.25000000  0.41661855  1
  Mg  Mg2_1  1  0.25000000  0.25000000  0.91661855  1
  Mg  Mg2_2  1  0.25000000  0.75000000  0.41661855  1
  Mg  Mg2_3  1  0.25000000  0.75000000  0.91661855  1
  Mg  Mg2_4  1  0.75000000  0.25000000  0.41661855  1
  Mg  Mg2_5  1  0.75000000  0.25000000  0.91661855  1
  Mg  Mg2_6  1  0.75000000  0.75000000  0.41661855  1
  Mg  Mg2_7  1  0.75000000  0.75000000  0.91661855  1
  Cd  Cd0_0  1  0.25000000  0.00000000  0.08354270  1
  Cd  Cd0_1  1  0.25000000  0.00000000  0.58354270  1
  Cd  Cd0_2  1  0.25000000  0.50000000  0.08354270  1
  Cd  Cd0_3  1  0.25000000  0.50000000  0.58354270  1
  Cd  Cd0_4  1  0.75000000  0.00000000  0.08354270  1
  Cd  Cd0_5  1  0.75000000  0.00000000  0.58354270  1
  Cd  Cd0_6  1  0.75000000  0.50000000  0.08354270  1
  Cd  Cd0_7  1  0.75000000  0.50000000  0.58354270  1
loop_
_geom_bond_atom_site_label_1
_geom_bond_atom_site_label_2
_geom_bond_distance
_geom_bond_site_symmetry_2
Mg0_0 Mg1_2 3.099411 1_545
Mg0_0 Mg1_0 3.099411 1_555
Mg0_0 Mg2_6 3.108152 1_445
Mg0_0 Mg2_2 3.108152 1_545
Mg0_0 Mg2_0 3.108152 1_555
Mg0_0 Mg2_4 3.108152 1_455
Mg0_0 Mg0_4 3.206180 1_555
Mg0_0 Mg0_4 3.206180 1_455
Mg0_1 Mg1_3 3.099411 1_545
Mg0_1 Mg1_1 3.099411 1_555
Mg0_1 Mg2_3 3.108152 1_545
Mg0_1 Mg2_7 3.108152 1_445
Mg0_1 Mg2_1 3.108152 1_555
Mg0_1 Mg2_5 3.108152 1_455
Mg0_1 Mg0_5 3.206180 1_555
Mg0_1 Mg0_5 3.206180 1_455
Mg0_2 Mg1_2 3.099411 1_555
Mg0_2 Mg1_0 3.099411 1_555
Mg0_2 Mg2_2 3.108152 1_555
Mg0_2 Mg2_6 3.108152 1_455
Mg0_2 Mg2_0 3.108152 1_555
Mg0_2 Mg2_4 3.108152 1_455
Mg0_2 Mg0_6 3.206180 1_555
Mg0_2 Mg0_6 3.206180 1_455
Mg0_3 Mg1_3 3.099411 1_555
Mg0_3 Mg1_1 3.099411 1_555
Mg0_3 Mg2_1 3.108152 1_555
Mg0_3 Mg2_5 3.108152 1_455
Mg0_3 Mg2_3 3.108152 1_555
Mg0_3 Mg2_7 3.108152 1_455
Mg0_3 Mg0_7 3.206180 1_555
Mg0_3 Mg0_7 3.206180 1_455
Mg0_4 Mg1_4 3.099411 1_555
Mg0_4 Mg1_6 3.099411 1_545
Mg0_4 Mg2_2 3.108152 1_545
Mg0_4 Mg2_0 3.108152 1_555
Mg0_4 Mg2_6 3.108152 1_545
Mg0_4 Mg2_4 3.108152 1_555
Mg0_5 Mg1_7 3.099411 1_545
Mg0_5 Mg1_5 3.099411 1_555
Mg0_5 Mg2_3 3.108152 1_545
Mg0_5 Mg2_1 3.108152 1_555
Mg0_5 Mg2_5 3.108152 1_555
Mg0_5 Mg2_7 3.108152 1_545
Mg0_6 Mg1_4 3.099411 1_555
Mg0_6 Mg1_6 3.099411 1_555
Mg0_6 Mg2_2 3.108152 1_555
Mg0_6 Mg2_0 3.108152 1_555
Mg0_6 Mg2_6 3.108152 1_555
Mg0_6 Mg2_4 3.108152 1_555
Mg0_7 Mg1_7 3.099411 1_555
Mg0_7 Mg1_5 3.099411 1_555
Mg0_7 Mg2_1 3.108152 1_555
Mg0_7 Mg2_3 3.108152 1_555
Mg0_7 Mg2_5 3.108152 1_555
Mg0_7 Mg2_7 3.108152 1_555
Mg1_0 Mg2_5 3.105452 1_454
Mg1_0 Mg2_1 3.105452 1_554
Mg1_0 Mg2_0 3.131230 1_555
Mg1_0 Mg2_4 3.131230 1_455
Mg1_0 Mg1_4 3.206180 1_555
Mg1_0 Mg1_4 3.206180 1_455
Mg1_1 Mg2_0 3.105452 1_555
Mg1_1 Mg2_4 3.105452 1_455
Mg1_1 Mg2_5 3.131230 1_455
Mg1_1 Mg2_1 3.131230 1_555
Mg1_1 Mg1_5 3.206180 1_555
Mg1_1 Mg1_5 3.206180 1_455
Mg1_2 Mg2_3 3.105452 1_554
Mg1_2 Mg2_7 3.105452 1_454
Mg1_2 Mg2_2 3.131230 1_555
Mg1_2 Mg2_6 3.131230 1_455
Mg1_2 Mg1_6 3.206180 1_555
Mg1_2 Mg1_6 3.206180 1_455
Mg1_3 Mg2_2 3.105452 1_555
Mg1_3 Mg2_6 3.105452 1_455
Mg1_3 Mg2_7 3.131230 1_455
Mg1_3 Mg2_3 3.131230 1_555
Mg1_3 Mg1_7 3.206180 1_555
Mg1_3 Mg1_7 3.206180 1_455
Mg1_4 Mg2_1 3.105452 1_554
Mg1_4 Mg2_5 3.105452 1_554
Mg1_4 Mg2_0 3.131230 1_555
Mg1_4 Mg2_4 3.131230 1_555
Mg1_5 Mg2_0 3.105452 1_555
Mg1_5 Mg2_4 3.105452 1_555
Mg1_5 Mg2_1 3.131230 1_555
Mg1_5 Mg2_5 3.131230 1_555
Mg1_6 Mg2_3 3.105452 1_554
Mg1_6 Mg2_7 3.105452 1_554
Mg1_6 Mg2_2 3.131230 1_555
Mg1_6 Mg2_6 3.131230 1_555
Mg1_7 Mg2_2 3.105452 1_555
Mg1_7 Mg2_6 3.105452 1_555
Mg1_7 Mg2_7 3.131230 1_555
Mg1_7 Mg2_3 3.131230 1_555
Mg2_0 Mg2_4 3.206180 1_455
Mg2_0 Mg2_4 3.206180 1_555
Mg2_1 Mg2_5 3.206180 1_555
Mg2_1 Mg2_5 3.206180 1_455
Mg2_2 Mg2_6 3.206180 1_555
Mg2_2 Mg2_6 3.206180 1_455
Mg2_3 Mg2_7 3.206180 1_555
Mg2_3 Mg2_7 3.206180 1_455
Cd0_0 Mg2_1 3.083926 1_554
Cd0_0 Mg2_3 3.083926 1_544
Cd0_0 Mg1_2 3.107182 1_545
Cd0_0 Mg1_0 3.107182 1_555
Cd0_0 Mg1_6 3.107182 1_545
Cd0_0 Mg1_4 3.107182 1_555
Cd0_0 Mg0_1 3.108403 1_554
Cd0_0 Mg0_5 3.108403 1_554
Cd0_0 Mg0_0 3.128271 1_555
Cd0_0 Mg0_4 3.128271 1_555
Cd0_0 Cd0_4 3.206180 1_455
Cd0_0 Cd0_4 3.206180 1_555
Cd0_1 Mg2_0 3.083926 1_555
Cd0_1 Mg2_2 3.083926 1_545
Cd0_1 Mg1_5 3.107182 1_555
Cd0_1 Mg1_3 3.107182 1_545
Cd0_1 Mg1_1 3.107182 1_555
Cd0_1 Mg1_7 3.107182 1_545
Cd0_1 Mg0_0 3.108403 1_555
Cd0_1 Mg0_4 3.108403 1_555
Cd0_1 Mg0_5 3.128271 1_555
Cd0_1 Mg0_1 3.128271 1_555
Cd0_1 Cd0_5 3.206180 1_455
Cd0_1 Cd0_5 3.206180 1_555
Cd0_2 Mg2_3 3.083926 1_554
Cd0_2 Mg2_1 3.083926 1_554
Cd0_2 Mg1_2 3.107182 1_555
Cd0_2 Mg1_0 3.107182 1_555
Cd0_2 Mg1_6 3.107182 1_555
Cd0_2 Mg1_4 3.107182 1_555
Cd0_2 Mg0_3 3.108403 1_554
Cd0_2 Mg0_7 3.108403 1_554
Cd0_2 Mg0_2 3.128271 1_555
Cd0_2 Mg0_6 3.128271 1_555
Cd0_2 Cd0_6 3.206180 1_555
Cd0_2 Cd0_6 3.206180 1_455
Cd0_3 Mg2_0 3.083926 1_555
Cd0_3 Mg2_2 3.083926 1_555
Cd0_3 Mg1_5 3.107182 1_555
Cd0_3 Mg1_3 3.107182 1_555
Cd0_3 Mg1_7 3.107182 1_555
Cd0_3 Mg1_1 3.107182 1_555
Cd0_3 Mg0_2 3.108403 1_555
Cd0_3 Mg0_6 3.108403 1_555
Cd0_3 Mg0_3 3.128271 1_555
Cd0_3 Mg0_7 3.128271 1_555
Cd0_3 Cd0_7 3.206180 1_455
Cd0_3 Cd0_7 3.206180 1_555
Cd0_4 Mg2_7 3.083926 1_544
Cd0_4 Mg2_5 3.083926 1_554
Cd0_4 Mg1_0 3.107182 1_655
Cd0_4 Mg1_2 3.107182 1_645
Cd0_4 Mg1_6 3.107182 1_545
Cd0_4 Mg1_4 3.107182 1_555
Cd0_4 Mg0_1 3.108403 1_654
Cd0_4 Mg0_5 3.108403 1_554
Cd0_4 Mg0_0 3.128271 1_655
Cd0_4 Mg0_4 3.128271 1_555
Cd0_5 Mg2_6 3.083926 1_545
Cd0_5 Mg2_4 3.083926 1_555
Cd0_5 Mg1_1 3.107182 1_655
Cd0_5 Mg1_5 3.107182 1_555
Cd0_5 Mg1_3 3.107182 1_645
Cd0_5 Mg1_7 3.107182 1_545
Cd0_5 Mg0_4 3.108403 1_555
Cd0_5 Mg0_0 3.108403 1_655
Cd0_5 Mg0_5 3.128271 1_555
Cd0_5 Mg0_1 3.128271 1_655
Cd0_6 Mg2_7 3.083926 1_554
Cd0_6 Mg2_5 3.083926 1_554
Cd0_6 Mg1_0 3.107182 1_655
Cd0_6 Mg1_2 3.107182 1_655
Cd0_6 Mg1_6 3.107182 1_555
Cd0_6 Mg1_4 3.107182 1_555
Cd0_6 Mg0_3 3.108403 1_654
Cd0_6 Mg0_7 3.108403 1_554
Cd0_6 Mg0_2 3.128271 1_655
Cd0_6 Mg0_6 3.128271 1_555
Cd0_7 Mg2_6 3.083926 1_555
Cd0_7 Mg2_4 3.083926 1_555
Cd0_7 Mg1_3 3.107182 1_655
Cd0_7 Mg1_1 3.107182 1_655
Cd0_7 Mg1_5 3.107182 1_555
Cd0_7 Mg1_7 3.107182 1_555
Cd0_7 Mg0_6 3.108403 1_555
Cd0_7 Mg0_2 3.108403 1_655
Cd0_7 Mg0_7 3.128271 1_555
Cd0_7 Mg0_3 3.128271 1_655
