# generated using pymatgen
data_NaCu2(SeO5)2
_symmetry_space_group_name_H-M   'P 1'
_cell_length_a   5.63485292
_cell_length_b   5.63485292
_cell_length_c   8.39373628
_cell_angle_alpha   63.53894136
_cell_angle_beta   63.53894136
_cell_angle_gamma   66.60805793
_symmetry_Int_Tables_number   1
_chemical_formula_structural   NaCu2(SeO5)2
_chemical_formula_sum   'Na1 Cu2 Se2 O10'
_cell_volume   206.94491218
_cell_formula_units_Z   1
loop_
 _symmetry_equiv_pos_site_id
 _symmetry_equiv_pos_as_xyz
  1  'x, y, z'
loop_
 _atom_site_type_symbol
 _atom_site_label
 _atom_site_symmetry_multiplicity
 _atom_site_fract_x
 _atom_site_fract_y
 _atom_site_fract_z
 _atom_site_occupancy
  Na  Na0  1  0.00000000  0.00000000  0.00000000  1
  Cu  Cu0  1  0.50000000  0.00000000  0.50000000  1
  Cu  Cu1  1  0.00000000  0.50000000  0.50000000  1
  Se  Se0  1  0.58417900  0.58417900  0.20857800  1
  Se  Se1  1  0.41582100  0.41582100  0.79142200  1
  O  O0  1  0.28912500  0.28912500  0.02104000  1
  O  O1  1  0.71087500  0.71087500  0.97896000  1
  O  O2  1  0.68942900  0.68942900  0.31651700  1
  O  O3  1  0.31057100  0.31057100  0.68348300  1
  O  O4  1  0.68778700  0.23292700  0.26852900  1
  O  O5  1  0.31221300  0.76707300  0.73147100  1
  O  O6  1  0.76707300  0.31221300  0.73147100  1
  O  O7  1  0.23292700  0.68778700  0.26852900  1
  O  O8  1  0.82025400  0.82025400  0.54635800  1
  O  O9  1  0.17974600  0.17974600  0.45364200  1
loop_
_geom_bond_atom_site_label_1
_geom_bond_atom_site_label_2
_geom_bond_distance
_geom_bond_site_symmetry_2
Na0 O4 2.677158 1_455
Na0 O6 2.677158 1_454
Na0 O7 2.677158 1_545
Na0 O5 2.677158 1_544
Na0 O2 2.707112 1_445
Na0 O3 2.707112 1_554
Na0 O1 2.821346 1_444
Na0 O0 2.821346 1_555
Cu0 O9 1.804724 1_555
Cu0 O8 1.804724 1_545
Cu0 O5 1.901392 1_545
Cu0 O4 1.901392 1_555
Cu0 O3 2.455100 1_555
Cu0 O2 2.455100 1_545
Cu1 O9 1.804724 1_555
Cu1 O8 1.804724 1_455
Cu1 O6 1.901392 1_455
Cu1 O7 1.901392 1_555
Cu1 O3 2.455100 1_555
Cu1 O2 2.455100 1_455
O0 Se1 1.638986 1_554
O1 Se0 1.638986 1_556
O2 Se0 1.661720 1_555
O3 Se1 1.661720 1_555
O4 Se0 1.722845 1_555
O5 Se1 1.722845 1_555
O6 Se1 1.722845 1_555
O7 Se0 1.722845 1_555
