# generated using pymatgen
data_Sr5Ti9O23
_symmetry_space_group_name_H-M   'P 1'
_cell_length_a   8.04211000
_cell_length_b   5.57976200
_cell_length_c   31.93135584
_cell_angle_alpha   89.19547665
_cell_angle_beta   90.00000000
_cell_angle_gamma   90.00000000
_symmetry_Int_Tables_number   1
_chemical_formula_structural   Sr5Ti9O23
_chemical_formula_sum   'Sr10 Ti18 O46'
_cell_volume   1432.71638618
_cell_formula_units_Z   2
loop_
 _symmetry_equiv_pos_site_id
 _symmetry_equiv_pos_as_xyz
  1  'x, y, z'
loop_
 _atom_site_type_symbol
 _atom_site_label
 _atom_site_symmetry_multiplicity
 _atom_site_fract_x
 _atom_site_fract_y
 _atom_site_fract_z
 _atom_site_occupancy
  Sr  Sr0  1  0.00000000  0.00497400  0.82580400  1
  Sr  Sr1  1  0.00000000  0.99502600  0.17419600  1
  Sr  Sr2  1  0.50000000  0.01015100  0.82863200  1
  Sr  Sr3  1  0.50000000  0.98984900  0.17136800  1
  Sr  Sr4  1  0.00000000  0.50209500  0.91394600  1
  Sr  Sr5  1  0.00000000  0.49790500  0.08605400  1
  Sr  Sr6  1  0.50000000  0.50294400  0.91276900  1
  Sr  Sr7  1  0.50000000  0.49705600  0.08723100  1
  Sr  Sr8  1  0.00000000  0.00000000  0.00000000  1
  Sr  Sr9  1  0.50000000  0.00000000  0.00000000  1
  Ti  Ti0  1  0.79904600  0.46253900  0.73104500  1
  Ti  Ti1  1  0.20095400  0.46253900  0.73104500  1
  Ti  Ti2  1  0.20095400  0.53746100  0.26895500  1
  Ti  Ti3  1  0.79904600  0.53746100  0.26895500  1
  Ti  Ti4  1  0.70738300  0.95570000  0.73531600  1
  Ti  Ti5  1  0.29261700  0.95570000  0.73531600  1
  Ti  Ti6  1  0.29261700  0.04430000  0.26468400  1
  Ti  Ti7  1  0.70738300  0.04430000  0.26468400  1
  Ti  Ti8  1  0.75167700  0.50668800  0.82710900  1
  Ti  Ti9  1  0.24832300  0.50668800  0.82710900  1
  Ti  Ti10  1  0.24832300  0.49331200  0.17289100  1
  Ti  Ti11  1  0.75167700  0.49331200  0.17289100  1
  Ti  Ti12  1  0.74936900  0.00227100  0.91323800  1
  Ti  Ti13  1  0.25063100  0.00227100  0.91323800  1
  Ti  Ti14  1  0.25063100  0.99772900  0.08676200  1
  Ti  Ti15  1  0.74936900  0.99772900  0.08676200  1
  Ti  Ti16  1  0.75099300  0.50000000  0.00000000  1
  Ti  Ti17  1  0.24900700  0.50000000  0.00000000  1
  O  O0  1  0.80165000  0.18659200  0.70124400  1
  O  O1  1  0.19835000  0.18659200  0.70124400  1
  O  O2  1  0.19835000  0.81340800  0.29875600  1
  O  O3  1  0.80165000  0.81340800  0.29875600  1
  O  O4  1  0.67014500  0.69064200  0.70485500  1
  O  O5  1  0.32985500  0.69064200  0.70485500  1
  O  O6  1  0.32985500  0.30935800  0.29514500  1
  O  O7  1  0.67014500  0.30935800  0.29514500  1
  O  O8  1  0.00000000  0.59884000  0.72364000  1
  O  O9  1  0.00000000  0.40116000  0.27636000  1
  O  O10  1  0.50000000  0.06305500  0.74840100  1
  O  O11  1  0.50000000  0.93694500  0.25159900  1
  O  O12  1  0.77704600  0.27037200  0.78169000  1
  O  O13  1  0.22295400  0.27037200  0.78169000  1
  O  O14  1  0.22295400  0.72962800  0.21831000  1
  O  O15  1  0.77704600  0.72962800  0.21831000  1
  O  O16  1  0.77130700  0.76208400  0.78222100  1
  O  O17  1  0.22869300  0.76208400  0.78222100  1
  O  O18  1  0.22869300  0.23791600  0.21777900  1
  O  O19  1  0.77130700  0.23791600  0.21777900  1
  O  O20  1  0.00000000  0.51766100  0.83453500  1
  O  O21  1  0.00000000  0.48233900  0.16546500  1
  O  O22  1  0.50000000  0.50358000  0.82617100  1
  O  O23  1  0.50000000  0.49642000  0.17382900  1
  O  O24  1  0.74434800  0.25222600  0.86869100  1
  O  O25  1  0.25565200  0.25222600  0.86869100  1
  O  O26  1  0.25565200  0.74777400  0.13130900  1
  O  O27  1  0.74434800  0.74777400  0.13130900  1
  O  O28  1  0.73724400  0.76039600  0.86983300  1
  O  O29  1  0.26275600  0.76039600  0.86983300  1
  O  O30  1  0.26275600  0.23960400  0.13016700  1
  O  O31  1  0.73724400  0.23960400  0.13016700  1
  O  O32  1  0.00000000  0.00036600  0.91150900  1
  O  O33  1  0.00000000  0.99963400  0.08849100  1
  O  O34  1  0.50000000  0.01141100  0.91561000  1
  O  O35  1  0.50000000  0.98858900  0.08439000  1
  O  O36  1  0.75466000  0.25636500  0.95599500  1
  O  O37  1  0.24534000  0.25636500  0.95599500  1
  O  O38  1  0.24534000  0.74363500  0.04400500  1
  O  O39  1  0.75466000  0.74363500  0.04400500  1
  O  O40  1  0.75164400  0.75540700  0.95697600  1
  O  O41  1  0.24835600  0.75540700  0.95697600  1
  O  O42  1  0.24835600  0.24459300  0.04302400  1
  O  O43  1  0.75164400  0.24459300  0.04302400  1
  O  O44  1  0.00000000  0.50000000  0.00000000  1
  O  O45  1  0.50000000  0.50000000  0.00000000  1
loop_
_geom_bond_atom_site_label_1
_geom_bond_atom_site_label_2
_geom_bond_distance
_geom_bond_site_symmetry_2
O0 Ti0 1.821492 1_555
O0 Ti4 1.838153 1_545
O1 Ti1 1.821492 1_555
O1 Ti5 1.838153 1_545
O2 Ti2 1.821492 1_555
O2 Ti6 1.838153 1_565
O3 Ti3 1.821492 1_555
O3 Ti7 1.838153 1_565
O4 Ti4 1.806509 1_555
O4 Ti0 1.834124 1_555
O5 Ti5 1.806509 1_555
O5 Ti1 1.834124 1_555
O6 Ti6 1.806509 1_555
O6 Ti2 1.834124 1_555
O7 Ti7 1.806509 1_555
O7 Ti3 1.834124 1_555
O8 Ti1 1.800284 1_555
O8 Ti0 1.800284 1_455
O9 Ti2 1.800284 1_555
O9 Ti3 1.800284 1_455
O10 Ti4 1.822627 1_545
O10 Ti5 1.822627 1_545
O10 Sr2 2.574714 1_555
O11 Ti7 1.822627 1_565
O11 Ti6 1.822627 1_565
O11 Sr3 2.574714 1_555
O12 Ti0 1.935856 1_555
O12 Ti8 1.984273 1_555
O12 Ti4 2.379583 1_545
O12 Sr0 2.708042 1_655
O12 Sr2 3.042697 1_555
O13 Ti1 1.935856 1_555
O13 Ti9 1.984273 1_555
O13 Ti5 2.379583 1_545
O13 Sr0 2.708042 1_555
O13 Sr2 3.042697 1_555
O14 Ti2 1.935856 1_555
O14 Ti10 1.984273 1_555
O14 Ti6 2.379583 1_565
O14 Sr1 2.708042 1_555
O14 Sr3 3.042697 1_555
O15 Ti3 1.935856 1_555
O15 Ti11 1.984273 1_555
O15 Ti7 2.379583 1_565
O15 Sr1 2.708042 1_655
O15 Sr3 3.042697 1_555
O16 Ti4 1.905042 1_555
O16 Ti8 2.013150 1_555
O16 Ti0 2.364393 1_555
O16 Sr0 2.684960 1_665
O16 Sr2 2.988363 1_565
O17 Ti5 1.905042 1_555
O17 Ti9 2.013150 1_555
O17 Ti1 2.364393 1_555
O17 Sr0 2.684960 1_565
O17 Sr2 2.988363 1_565
O18 Ti6 1.905042 1_555
O18 Ti10 2.013150 1_555
O18 Ti2 2.364393 1_555
O18 Sr1 2.684960 1_545
O18 Sr3 2.988363 1_545
O19 Ti7 1.905042 1_555
O19 Ti11 2.013150 1_555
O19 Ti3 2.364393 1_555
O19 Sr1 2.684960 1_645
O19 Sr3 2.988363 1_545
O20 Ti9 2.012102 1_555
O20 Ti8 2.012102 1_455
O20 Sr4 2.535969 1_555
O20 Sr0 2.729449 1_565
O20 Sr0 2.878118 1_555
O21 Ti10 2.012102 1_555
O21 Ti11 2.012102 1_455
O21 Sr5 2.535969 1_555
O21 Sr1 2.729449 1_545
O21 Sr1 2.878118 1_555
O22 Ti8 2.024314 1_555
O22 Ti9 2.024314 1_555
O22 Sr2 2.753234 1_555
O22 Sr6 2.765144 1_555
O22 Sr2 2.828741 1_565
O23 Ti11 2.024314 1_555
O23 Ti10 2.024314 1_555
O23 Sr3 2.753234 1_555
O23 Sr7 2.765144 1_555
O23 Sr3 2.828741 1_545
O24 Ti8 1.931177 1_555
O24 Ti12 1.978492 1_555
O24 Sr2 2.714899 1_555
O24 Sr6 2.802647 1_555
O24 Sr0 2.838802 1_655
O24 Sr4 2.883685 1_655
O25 Ti9 1.931177 1_555
O25 Ti13 1.978492 1_555
O25 Sr2 2.714899 1_555
O25 Sr6 2.802647 1_555
O25 Sr0 2.838802 1_555
O25 Sr4 2.883685 1_555
O26 Ti10 1.931177 1_555
O26 Ti14 1.978492 1_555
O26 Sr3 2.714899 1_555
O26 Sr7 2.802647 1_555
O26 Sr1 2.838802 1_555
O26 Sr5 2.883685 1_555
O27 Ti11 1.931177 1_555
O27 Ti15 1.978492 1_555
O27 Sr3 2.714899 1_555
O27 Sr7 2.802647 1_555
O27 Sr1 2.838802 1_655
O27 Sr5 2.883685 1_655
O28 Ti12 1.950490 1_565
O28 Ti8 1.983142 1_555
O28 Sr2 2.694739 1_565
O28 Sr6 2.743753 1_555
O28 Sr0 2.872335 1_665
O28 Sr4 2.910254 1_655
O29 Ti13 1.950490 1_565
O29 Ti9 1.983142 1_555
O29 Sr2 2.694739 1_565
O29 Sr6 2.743753 1_555
O29 Sr0 2.872335 1_565
O29 Sr4 2.910254 1_555
O30 Ti14 1.950490 1_545
O30 Ti10 1.983142 1_555
O30 Sr3 2.694739 1_545
O30 Sr7 2.743753 1_555
O30 Sr1 2.872335 1_545
O30 Sr5 2.910254 1_555
O31 Ti15 1.950490 1_545
O31 Ti11 1.983142 1_555
O31 Sr3 2.694739 1_545
O31 Sr7 2.743753 1_555
O31 Sr1 2.872335 1_645
O31 Sr5 2.910254 1_655
O32 Ti13 2.016390 1_555
O32 Ti12 2.016390 1_455
O32 Sr0 2.736437 1_555
O32 Sr4 2.780230 1_545
O32 Sr4 2.801702 1_555
O32 Sr8 2.825610 1_556
O33 Ti14 2.016390 1_555
O33 Ti15 2.016390 1_455
O33 Sr1 2.736437 1_555
O33 Sr5 2.780230 1_565
O33 Sr5 2.801702 1_555
O33 Sr8 2.825610 1_565
O34 Ti12 2.007558 1_555
O34 Ti13 2.007558 1_555
O34 Sr9 2.694545 1_556
O34 Sr6 2.742864 1_555
O34 Sr2 2.777433 1_555
O34 Sr6 2.839848 1_545
O35 Ti15 2.007558 1_555
O35 Ti14 2.007558 1_555
O35 Sr9 2.694545 1_565
O35 Sr7 2.742864 1_555
O35 Sr3 2.777433 1_555
O35 Sr7 2.839848 1_565
O36 Ti16 1.969001 1_556
O36 Ti12 1.982497 1_555
O36 Sr4 2.742988 1_655
O36 Sr8 2.803053 1_656
O36 Sr6 2.817639 1_555
O36 Sr9 2.856308 1_556
O37 Ti17 1.969001 1_556
O37 Ti13 1.982497 1_555
O37 Sr4 2.742988 1_555
O37 Sr8 2.803053 1_556
O37 Sr6 2.817639 1_555
O37 Sr9 2.856308 1_556
O38 Ti17 1.969001 1_555
O38 Ti14 1.982497 1_555
O38 Sr5 2.742988 1_555
O38 Sr8 2.803053 1_565
O38 Sr7 2.817639 1_555
O38 Sr9 2.856308 1_565
O39 Ti16 1.969001 1_555
O39 Ti15 1.982497 1_555
O39 Sr5 2.742988 1_655
O39 Sr8 2.803053 1_665
O39 Sr7 2.817639 1_555
O39 Sr9 2.856308 1_565
O40 Ti12 1.947868 1_565
O40 Ti16 1.965541 1_556
O40 Sr8 2.791389 1_666
O40 Sr9 2.810370 1_566
O40 Sr4 2.815923 1_655
O40 Sr6 2.851030 1_555
O41 Ti13 1.947868 1_565
O41 Ti17 1.965541 1_556
O41 Sr8 2.791389 1_566
O41 Sr9 2.810370 1_566
O41 Sr4 2.815923 1_555
O41 Sr6 2.851030 1_555
O42 Ti14 1.947868 1_545
O42 Ti17 1.965541 1_555
O42 Sr8 2.791389 1_555
O42 Sr9 2.810370 1_555
O42 Sr5 2.815923 1_555
O42 Sr7 2.851030 1_555
O43 Ti15 1.947868 1_545
O43 Ti16 1.965541 1_555
O43 Sr8 2.791389 1_655
O43 Sr9 2.810370 1_555
O43 Sr5 2.815923 1_655
O43 Sr7 2.851030 1_555
O44 Ti17 2.002542 1_555
O44 Ti16 2.002542 1_455
O44 Sr5 2.747682 1_555
O44 Sr4 2.747682 1_554
O44 Sr8 2.789881 1_555
O44 Sr8 2.789881 1_565
O45 Ti16 2.018513 1_555
O45 Ti17 2.018513 1_555
O45 Sr7 2.785222 1_555
O45 Sr6 2.785222 1_554
O45 Sr9 2.789881 1_555
O45 Sr9 2.789881 1_565
