# generated using pymatgen
data_Nb4CoSe8
_symmetry_space_group_name_H-M   'P 1'
_cell_length_a   6.99588563
_cell_length_b   6.99590560
_cell_length_c   12.60500410
_cell_angle_alpha   90.00010154
_cell_angle_beta   89.99955593
_cell_angle_gamma   119.99988236
_symmetry_Int_Tables_number   1
_chemical_formula_structural   Nb4CoSe8
_chemical_formula_sum   'Nb8 Co2 Se16'
_cell_volume   534.26998792
_cell_formula_units_Z   2
loop_
 _symmetry_equiv_pos_site_id
 _symmetry_equiv_pos_as_xyz
  1  'x, y, z'
loop_
 _atom_site_type_symbol
 _atom_site_label
 _atom_site_symmetry_multiplicity
 _atom_site_fract_x
 _atom_site_fract_y
 _atom_site_fract_z
 _atom_site_occupancy
  Nb  Nb0  1  -0.00000109  0.99999900  0.25010916  1
  Nb  Nb1  1  0.00000177  0.00000504  0.74987861  1
  Nb  Nb2  1  0.51001618  0.02002378  0.25002203  1
  Nb  Nb3  1  0.97997613  0.48998580  0.25002337  1
  Nb  Nb4  1  0.51001167  0.48998671  0.25002229  1
  Nb  Nb5  1  0.48998324  0.97997491  0.74997130  1
  Nb  Nb6  1  0.02002288  0.51001419  0.74997119  1
  Nb  Nb7  1  0.48998924  0.51001690  0.74996837  1
  Co  Co0  1  -0.00000332  0.00000184  0.50002781  1
  Co  Co1  1  -0.00000712  0.00000434  0.99996931  1
  Se  Se0  1  0.33333450  0.66666300  0.88797051  1
  Se  Se1  1  0.66666085  0.33333656  0.11199371  1
  Se  Se2  1  0.66667413  0.33332686  0.38794533  1
  Se  Se3  1  0.33332960  0.66666663  0.61211665  1
  Se  Se4  1  0.16781454  0.83220288  0.38006589  1
  Se  Se5  1  0.16781549  0.33562162  0.38006270  1
  Se  Se6  1  0.66437776  0.83218279  0.38006282  1
  Se  Se7  1  0.83218873  0.16780695  0.61998394  1
  Se  Se8  1  0.83218573  0.66436636  0.61997927  1
  Se  Se9  1  0.33563033  0.16781217  0.61997962  1
  Se  Se10  1  0.83216245  0.16783408  0.87992089  1
  Se  Se11  1  0.83215845  0.66434214  0.87991868  1
  Se  Se12  1  0.33565478  0.16783965  0.87991897  1
  Se  Se13  1  0.16781622  0.83217919  0.12004034  1
  Se  Se14  1  0.16781456  0.33561401  0.12003629  1
  Se  Se15  1  0.66439029  0.83219460  0.12004197  1
loop_
_geom_bond_atom_site_label_1
_geom_bond_atom_site_label_2
_geom_bond_distance
_geom_bond_site_symmetry_2
Nb0 Se4 2.611113 1_555
Nb0 Se6 2.611117 1_455
Nb0 Se5 2.611141 1_565
Nb0 Se15 2.611976 1_455
Nb0 Se14 2.612042 1_565
Nb0 Se13 2.612106 1_555
Nb1 Se7 2.610638 1_455
Nb1 Se9 2.610720 1_555
Nb1 Se8 2.610788 1_445
Nb1 Se12 2.611973 1_555
Nb1 Se11 2.612009 1_445
Nb1 Se10 2.612043 1_455
Nb2 Se2 2.574026 1_555
Nb2 Se1 2.574957 1_555
Nb2 Se15 2.645090 1_545
Nb2 Se13 2.645110 1_545
Nb2 Se4 2.645575 1_545
Nb2 Se6 2.645578 1_545
Nb3 Se2 2.573992 1_555
Nb3 Se1 2.574989 1_555
Nb3 Se13 2.645079 1_655
Nb3 Se14 2.645178 1_655
Nb3 Se5 2.645571 1_655
Nb3 Se4 2.645659 1_655
Nb4 Se2 2.574109 1_555
Nb4 Se1 2.574891 1_555
Nb4 Se15 2.645122 1_555
Nb4 Se14 2.645123 1_555
Nb4 Se5 2.645526 1_555
Nb4 Se6 2.645543 1_555
Nb5 Se3 2.573464 1_555
Nb5 Se0 2.574705 1_555
Nb5 Se10 2.644768 1_565
Nb5 Se12 2.644802 1_565
Nb5 Se9 2.645136 1_565
Nb5 Se7 2.645155 1_565
Nb6 Se3 2.573439 1_555
Nb6 Se0 2.574714 1_555
Nb6 Se10 2.644764 1_455
Nb6 Se11 2.644795 1_455
Nb6 Se8 2.645134 1_455
Nb6 Se7 2.645181 1_455
Nb7 Se3 2.573444 1_555
Nb7 Se0 2.574672 1_555
Nb7 Se11 2.644723 1_555
Nb7 Se12 2.644754 1_555
Nb7 Se8 2.645131 1_555
Nb7 Se9 2.645184 1_555
Co0 Se7 2.533925 1_455
Co0 Se4 2.533986 1_545
Co0 Se8 2.534007 1_445
Co0 Se9 2.534009 1_555
Co0 Se5 2.534034 1_555
Co0 Se6 2.534037 1_445
Co1 Se15 2.534748 1_446
Co1 Se14 2.534757 1_556
Co1 Se10 2.534861 1_455
Co1 Se12 2.534868 1_555
Co1 Se11 2.534889 1_445
Co1 Se13 2.534975 1_546
