# generated using pymatgen
data_Ca2Mn2O5
_symmetry_space_group_name_H-M   'P 1'
_cell_length_a   5.45687794
_cell_length_b   5.61971272
_cell_length_c   8.44792547
_cell_angle_alpha   108.96220734
_cell_angle_beta   71.62927519
_cell_angle_gamma   88.63772084
_symmetry_Int_Tables_number   1
_chemical_formula_structural   Ca2Mn2O5
_chemical_formula_sum   'Ca4 Mn4 O10'
_cell_volume   230.21054214
_cell_formula_units_Z   2
loop_
 _symmetry_equiv_pos_site_id
 _symmetry_equiv_pos_as_xyz
  1  'x, y, z'
loop_
 _atom_site_type_symbol
 _atom_site_label
 _atom_site_symmetry_multiplicity
 _atom_site_fract_x
 _atom_site_fract_y
 _atom_site_fract_z
 _atom_site_occupancy
  Ca  Ca0  1  0.39285700  0.13296500  0.21665300  1
  Ca  Ca1  1  0.61368700  0.87004600  0.78724900  1
  Ca  Ca2  1  0.90085900  0.58245600  0.21279700  1
  Ca  Ca3  1  0.10951000  0.41668100  0.78328800  1
  Mn  Mn0  1  0.20972100  0.80837500  0.50014300  1
  Mn  Mn1  1  0.01283200  0.00689600  0.00233700  1
  Mn  Mn2  1  0.51491500  0.50481600  0.99765900  1
  Mn  Mn3  1  0.71856800  0.17583300  0.50014000  1
  O  O0  1  0.34104800  0.13012600  0.49998300  1
  O  O1  1  0.85167900  0.82266100  0.49993500  1
  O  O2  1  0.27786400  0.24513300  0.97007900  1
  O  O3  1  0.24854700  0.76455000  0.02598400  1
  O  O4  1  0.77399600  0.23938400  0.97393200  1
  O  O5  1  0.74588700  0.77238600  0.02975900  1
  O  O6  1  0.90734600  0.19478200  0.25820000  1
  O  O7  1  0.15423600  0.81555700  0.73451000  1
  O  O8  1  0.38847800  0.58040700  0.26591800  1
  O  O9  1  0.66597100  0.43694700  0.74143300  1
loop_
_geom_bond_atom_site_label_1
_geom_bond_atom_site_label_2
_geom_bond_distance
_geom_bond_site_symmetry_2
Ca0 O0 2.325459 1_555
Ca0 O8 2.409821 1_555
Ca0 O5 2.475493 1_545
Ca0 O3 2.492171 1_545
Ca0 O6 2.560062 1_455
Ca0 O2 2.605493 1_554
Ca0 O4 2.656276 1_554
Ca0 O6 2.951983 1_555
Ca1 O1 2.285921 1_555
Ca1 O9 2.332422 1_555
Ca1 O2 2.470499 1_565
Ca1 O4 2.527662 1_565
Ca1 O5 2.581142 1_556
Ca1 O3 2.586387 1_556
Ca1 O7 2.688884 1_555
Ca1 O7 2.834267 1_655
Ca2 O1 2.285332 1_555
Ca2 O6 2.332960 1_555
Ca2 O5 2.469682 1_555
Ca2 O3 2.528250 1_655
Ca2 O2 2.580658 1_654
Ca2 O4 2.585325 1_554
Ca2 O8 2.689448 1_555
Ca2 O8 2.834848 1_655
Ca3 O0 2.325968 1_555
Ca3 O7 2.411828 1_555
Ca3 O2 2.474626 1_555
Ca3 O4 2.491906 1_455
Ca3 O9 2.559010 1_455
Ca3 O5 2.602063 1_456
Ca3 O3 2.654656 1_556
Ca3 O9 2.953711 1_555
Mn0 O7 1.892878 1_555
Mn0 O8 1.893302 1_555
Mn0 O1 1.954110 1_455
Mn0 O0 1.961009 1_565
Mn1 O4 1.945012 1_454
Mn1 O3 1.950562 1_545
Mn1 O6 1.954979 1_455
Mn1 O5 1.997345 1_445
Mn1 O2 2.009749 1_554
Mn1 O7 2.037122 1_544
Mn2 O3 1.937382 1_556
Mn2 O4 1.946985 1_555
Mn2 O9 1.958107 1_555
Mn2 O2 1.978895 1_555
Mn2 O5 1.990898 1_556
Mn2 O8 2.041357 1_556
Mn3 O9 2.014461 1_555
Mn3 O6 2.017307 1_555
Mn3 O0 2.082444 1_555
Mn3 O1 2.096468 1_545
