# generated using pymatgen
data_Sr2YTlCr2O7
_symmetry_space_group_name_H-M   'P 1'
_cell_length_a   3.88516800
_cell_length_b   3.88516800
_cell_length_c   12.77344800
_cell_angle_alpha   90.00000000
_cell_angle_beta   90.00000000
_cell_angle_gamma   90.00000000
_symmetry_Int_Tables_number   1
_chemical_formula_structural   Sr2YTlCr2O7
_chemical_formula_sum   'Sr2 Y1 Tl1 Cr2 O7'
_cell_volume   192.80919900
_cell_formula_units_Z   1
loop_
 _symmetry_equiv_pos_site_id
 _symmetry_equiv_pos_as_xyz
  1  'x, y, z'
loop_
 _atom_site_type_symbol
 _atom_site_label
 _atom_site_symmetry_multiplicity
 _atom_site_fract_x
 _atom_site_fract_y
 _atom_site_fract_z
 _atom_site_occupancy
  Sr  Sr0  1  0.50000000  0.50000000  0.80862100  1
  Sr  Sr1  1  0.50000000  0.50000000  0.19137900  1
  Y  Y0  1  0.50000000  0.50000000  0.50000000  1
  Tl  Tl0  1  0.00000000  0.00000000  0.00000000  1
  Cr  Cr0  1  0.00000000  0.00000000  0.64400200  1
  Cr  Cr1  1  0.00000000  0.00000000  0.35599800  1
  O  O0  1  0.50000000  0.00000000  0.61106500  1
  O  O1  1  0.00000000  0.50000000  0.61106500  1
  O  O2  1  0.50000000  0.00000000  0.38893500  1
  O  O3  1  0.00000000  0.50000000  0.38893500  1
  O  O4  1  0.00000000  0.00000000  0.79398300  1
  O  O5  1  0.00000000  0.00000000  0.20601700  1
  O  O6  1  0.50000000  0.50000000  0.00000000  1
loop_
_geom_bond_atom_site_label_1
_geom_bond_atom_site_label_2
_geom_bond_distance
_geom_bond_site_symmetry_2
Cr0 O4 1.915775 1_555
Cr0 O1 1.987621 1_545
Cr0 O0 1.987621 1_455
Cr0 O1 1.987621 1_555
Cr0 O0 1.987621 1_555
Cr1 O5 1.915775 1_555
Cr1 O2 1.987621 1_555
Cr1 O3 1.987621 1_555
Cr1 O3 1.987621 1_545
Cr1 O2 1.987621 1_455
O0 Y0 2.405472 1_555
O0 Y0 2.405472 1_545
O1 Y0 2.405472 1_455
O1 Y0 2.405472 1_555
O2 Y0 2.405472 1_555
O2 Y0 2.405472 1_545
O3 Y0 2.405472 1_455
O3 Y0 2.405472 1_555
O4 Tl0 2.631547 1_556
O4 Sr0 2.753584 1_545
O4 Sr0 2.753584 1_455
O4 Sr0 2.753584 1_555
O4 Sr0 2.753584 1_445
O5 Tl0 2.631547 1_555
O5 Sr1 2.753584 1_555
O5 Sr1 2.753584 1_445
O5 Sr1 2.753584 1_545
O5 Sr1 2.753584 1_455
O6 Sr0 2.444570 1_554
O6 Sr1 2.444570 1_555
O6 Tl0 2.747229 1_665
O6 Tl0 2.747229 1_555
O6 Tl0 2.747229 1_655
O6 Tl0 2.747229 1_565
