# generated using pymatgen
data_Ba2VCu2F12
_symmetry_space_group_name_H-M   'P 1'
_cell_length_a   5.41623000
_cell_length_b   7.08821821
_cell_length_c   7.41427298
_cell_angle_alpha   66.58859144
_cell_angle_beta   70.21195331
_cell_angle_gamma   71.68497283
_symmetry_Int_Tables_number   1
_chemical_formula_structural   Ba2VCu2F12
_chemical_formula_sum   'Ba2 V1 Cu2 F12'
_cell_volume   240.40400933
_cell_formula_units_Z   1
loop_
 _symmetry_equiv_pos_site_id
 _symmetry_equiv_pos_as_xyz
  1  'x, y, z'
loop_
 _atom_site_type_symbol
 _atom_site_label
 _atom_site_symmetry_multiplicity
 _atom_site_fract_x
 _atom_site_fract_y
 _atom_site_fract_z
 _atom_site_occupancy
  Ba  Ba0  1  0.22256500  0.79195000  0.28143400  1
  Ba  Ba1  1  0.77743500  0.20805000  0.71856600  1
  V  V0  1  0.00000000  0.50000000  0.00000000  1
  Cu  Cu0  1  0.45010000  0.21616200  0.33326500  1
  Cu  Cu1  1  0.54990000  0.78383800  0.66673500  1
  F  F0  1  0.03213200  0.23290600  0.00400700  1
  F  F1  1  0.96786800  0.76709400  0.99599300  1
  F  F2  1  0.10083300  0.39438900  0.25362100  1
  F  F3  1  0.89916700  0.60561100  0.74637900  1
  F  F4  1  0.63688600  0.50154400  0.14145900  1
  F  F5  1  0.36311400  0.49845600  0.85854100  1
  F  F6  1  0.76668300  0.04934500  0.44054900  1
  F  F7  1  0.23331700  0.95065500  0.55945100  1
  F  F8  1  0.32517000  0.34890800  0.53396000  1
  F  F9  1  0.67483000  0.65109200  0.46604000  1
  F  F10  1  0.53380900  0.08770500  0.13526700  1
  F  F11  1  0.46619100  0.91229500  0.86473300  1
loop_
_geom_bond_atom_site_label_1
_geom_bond_atom_site_label_2
_geom_bond_distance
_geom_bond_site_symmetry_2
Ba0 F7 2.735495 1_555
Ba0 F4 2.750950 1_555
Ba0 F10 2.754955 1_565
Ba0 F6 2.779218 1_465
Ba0 F11 2.804796 1_554
Ba0 F9 2.918511 1_555
Ba0 F8 2.934551 1_555
Ba0 F1 2.972999 1_454
Ba0 F0 3.060310 1_565
Ba0 F9 3.114100 1_455
Ba0 F2 3.184323 1_555
Ba0 F3 3.231641 1_455
Ba1 F6 2.735495 1_555
Ba1 F5 2.750950 1_555
Ba1 F11 2.754955 1_545
Ba1 F7 2.779218 1_645
Ba1 F10 2.804796 1_556
Ba1 F8 2.918511 1_555
Ba1 F9 2.934551 1_555
Ba1 F0 2.972999 1_656
Ba1 F1 3.060310 1_545
Ba1 F8 3.114100 1_655
Ba1 F3 3.184323 1_555
Ba1 F2 3.231641 1_655
Cu0 F10 1.881962 1_555
Cu0 F8 1.894234 1_555
Cu0 F6 1.967951 1_555
Cu0 F2 2.045676 1_555
Cu0 F4 2.272406 1_555
Cu0 F7 2.297896 1_545
Cu1 F11 1.881962 1_555
Cu1 F9 1.894234 1_555
Cu1 F7 1.967951 1_555
Cu1 F3 2.045676 1_555
Cu1 F5 2.272406 1_555
Cu1 F6 2.297896 1_565
F0 V0 1.834989 1_555
F1 V0 1.834989 1_656
F2 V0 1.927276 1_555
F3 V0 1.927276 1_656
F4 V0 1.888661 1_655
F5 V0 1.888661 1_556
