# generated using pymatgen
data_Nb4Cu(CS2)2
_symmetry_space_group_name_H-M   'P 1'
_cell_length_a   3.33527536
_cell_length_b   3.33527536
_cell_length_c   18.33220700
_cell_angle_alpha   90.00000000
_cell_angle_beta   90.00000000
_cell_angle_gamma   119.99998721
_symmetry_Int_Tables_number   1
_chemical_formula_structural   Nb4Cu(CS2)2
_chemical_formula_sum   'Nb4 Cu1 C2 S4'
_cell_volume   176.60737236
_cell_formula_units_Z   1
loop_
 _symmetry_equiv_pos_site_id
 _symmetry_equiv_pos_as_xyz
  1  'x, y, z'
loop_
 _atom_site_type_symbol
 _atom_site_label
 _atom_site_symmetry_multiplicity
 _atom_site_fract_x
 _atom_site_fract_y
 _atom_site_fract_z
 _atom_site_occupancy
  Nb  Nb0  1  0.33333300  0.66666700  0.06120700  1
  Nb  Nb1  1  0.33333300  0.66666700  0.56441200  1
  Nb  Nb2  1  0.66666700  0.33333300  0.43629300  1
  Nb  Nb3  1  0.66666700  0.33333300  0.93490800  1
  Cu  Cu0  1  0.33333300  0.66666700  0.22671900  1
  C  C0  1  0.00000000  0.00000000  0.99977900  1
  C  C1  1  0.00000000  0.00000000  0.49962100  1
  S  S0  1  0.33333300  0.66666700  0.34588900  1
  S  S1  1  0.33333300  0.66666700  0.84721000  1
  S  S2  1  0.66666700  0.33333300  0.15690900  1
  S  S3  1  0.66666700  0.33333300  0.65305300  1
loop_
_geom_bond_atom_site_label_1
_geom_bond_atom_site_label_2
_geom_bond_distance
_geom_bond_site_symmetry_2
Nb0 S2 2.605002 1_565
Nb0 S2 2.605002 1_455
Nb0 S2 2.605006 1_555
Nb1 S3 2.519641 1_455
Nb1 S3 2.519641 1_565
Nb1 S3 2.519645 1_555
Nb2 S0 2.540605 1_545
Nb2 S0 2.540605 1_655
Nb2 S0 2.540609 1_555
Nb3 S1 2.508527 1_545
Nb3 S1 2.508527 1_655
Nb3 S1 2.508531 1_555
Cu0 S0 2.184649 1_555
Cu0 S2 2.312105 1_455
Cu0 S2 2.312105 1_565
Cu0 S2 2.312109 1_555
C0 Nb0 2.230726 1_546
C0 Nb0 2.230729 1_446
C0 Nb0 2.230729 1_556
C0 Nb3 2.263245 1_455
C0 Nb3 2.263248 1_445
C0 Nb3 2.263248 1_555
C1 Nb2 2.248510 1_455
C1 Nb2 2.248513 1_445
C1 Nb2 2.248513 1_555
C1 Nb1 2.262475 1_545
C1 Nb1 2.262477 1_555
C1 Nb1 2.262477 1_445
