# generated using pymatgen
data_VCo2BO5
_symmetry_space_group_name_H-M   'P 1'
_cell_length_a   3.07611200
_cell_length_b   9.42146600
_cell_length_c   12.39998300
_cell_angle_alpha   90.00000000
_cell_angle_beta   90.00000000
_cell_angle_gamma   90.00000000
_symmetry_Int_Tables_number   1
_chemical_formula_structural   VCo2BO5
_chemical_formula_sum   'V4 Co8 B4 O20'
_cell_volume   359.36991661
_cell_formula_units_Z   4
loop_
 _symmetry_equiv_pos_site_id
 _symmetry_equiv_pos_as_xyz
  1  'x, y, z'
loop_
 _atom_site_type_symbol
 _atom_site_label
 _atom_site_symmetry_multiplicity
 _atom_site_fract_x
 _atom_site_fract_y
 _atom_site_fract_z
 _atom_site_occupancy
  V  V0  1  0.00000000  0.24165700  0.38636700  1
  V  V1  1  0.00000000  0.75834300  0.61363300  1
  V  V2  1  0.00000000  0.25834300  0.88636700  1
  V  V3  1  0.00000000  0.74165700  0.11363300  1
  Co  Co0  1  0.50000000  0.00000000  0.50000000  1
  Co  Co1  1  0.50000000  0.50000000  0.00000000  1
  Co  Co2  1  0.50000000  0.00170100  0.21950600  1
  Co  Co3  1  0.50000000  0.99829900  0.78049400  1
  Co  Co4  1  0.50000000  0.49829900  0.71950600  1
  Co  Co5  1  0.50000000  0.50170100  0.28049400  1
  Co  Co6  1  0.00000000  0.00000000  0.00000000  1
  Co  Co7  1  0.00000000  0.50000000  0.50000000  1
  B  B0  1  0.00000000  0.27389900  0.13927800  1
  B  B1  1  0.00000000  0.72610100  0.86072200  1
  B  B2  1  0.00000000  0.22610100  0.63927800  1
  B  B3  1  0.00000000  0.77389900  0.36072200  1
  O  O0  1  0.50000000  0.10974000  0.35769800  1
  O  O1  1  0.50000000  0.89026000  0.64230200  1
  O  O2  1  0.50000000  0.39026000  0.85769800  1
  O  O3  1  0.50000000  0.60974000  0.14230200  1
  O  O4  1  0.00000000  0.12620600  0.13993500  1
  O  O5  1  0.00000000  0.87379400  0.86006500  1
  O  O6  1  0.00000000  0.37379400  0.63993500  1
  O  O7  1  0.00000000  0.62620600  0.36006500  1
  O  O8  1  0.50000000  0.38286400  0.42165900  1
  O  O9  1  0.50000000  0.61713600  0.57834100  1
  O  O10  1  0.50000000  0.11713600  0.92165900  1
  O  O11  1  0.50000000  0.88286400  0.07834100  1
  O  O12  1  0.00000000  0.34737500  0.23624700  1
  O  O13  1  0.00000000  0.65262500  0.76375300  1
  O  O14  1  0.00000000  0.15262500  0.73624700  1
  O  O15  1  0.00000000  0.84737500  0.26375300  1
  O  O16  1  0.00000000  0.34868400  0.04267200  1
  O  O17  1  0.00000000  0.65131600  0.95732800  1
  O  O18  1  0.00000000  0.15131600  0.54267200  1
  O  O19  1  0.00000000  0.84868400  0.45732800  1
loop_
_geom_bond_atom_site_label_1
_geom_bond_atom_site_label_2
_geom_bond_distance
_geom_bond_site_symmetry_2
Co0 O0 2.045136 1_555
Co0 O1 2.045136 1_545
Co0 O18 2.162865 1_555
Co0 O19 2.162865 1_645
Co0 O18 2.162865 1_655
Co0 O19 2.162865 1_545
Co1 O3 2.045136 1_555
Co1 O2 2.045136 1_554
Co1 O16 2.162865 1_655
Co1 O17 2.162865 1_654
Co1 O16 2.162865 1_555
Co1 O17 2.162865 1_554
Co2 O0 1.993099 1_555
Co2 O11 2.077883 1_545
Co2 O4 2.171434 1_555
Co2 O4 2.171434 1_655
Co2 O15 2.186480 1_645
Co2 O15 2.186480 1_545
Co3 O1 1.993099 1_555
Co3 O10 2.077883 1_565
Co3 O5 2.171434 1_555
Co3 O5 2.171434 1_655
Co3 O14 2.186480 1_665
Co3 O14 2.186480 1_565
Co4 O2 1.993099 1_555
Co4 O9 2.077883 1_555
Co4 O6 2.171434 1_555
Co4 O6 2.171434 1_655
Co4 O13 2.186480 1_655
Co4 O13 2.186480 1_555
Co5 O3 1.993099 1_555
Co5 O8 2.077883 1_555
Co5 O7 2.171434 1_655
Co5 O7 2.171434 1_555
Co5 O12 2.186480 1_655
Co5 O12 2.186480 1_555
Co6 O4 2.103502 1_555
Co6 O5 2.103502 1_544
Co6 O11 2.127723 1_545
Co6 O10 2.127723 1_454
Co6 O11 2.127723 1_445
Co6 O10 2.127723 1_554
Co7 O6 2.103502 1_555
Co7 O7 2.103502 1_555
Co7 O9 2.127723 1_555
Co7 O8 2.127723 1_455
Co7 O8 2.127723 1_555
Co7 O9 2.127723 1_455
B0 O12 1.387448 1_555
B0 O16 1.389760 1_555
B0 O4 1.391508 1_555
B1 O13 1.387448 1_555
B1 O17 1.389760 1_555
B1 O5 1.391508 1_555
B2 O14 1.387448 1_555
B2 O18 1.389760 1_555
B2 O6 1.391508 1_555
B3 O15 1.387448 1_555
B3 O19 1.389760 1_555
B3 O7 1.391508 1_555
O0 V0 2.009147 1_655
O0 V0 2.009147 1_555
O1 V1 2.009147 1_555
O1 V1 2.009147 1_655
O2 V2 2.009147 1_655
O2 V2 2.009147 1_555
O3 V3 2.009147 1_655
O3 V3 2.009147 1_555
O8 V0 2.080152 1_655
O8 V0 2.080152 1_555
O9 V1 2.080152 1_655
O9 V1 2.080152 1_555
O10 V2 2.080152 1_555
O10 V2 2.080152 1_655
O11 V3 2.080152 1_655
O11 V3 2.080152 1_555
O12 V0 2.111204 1_555
O13 V1 2.111204 1_555
O14 V2 2.111204 1_555
O15 V3 2.111204 1_555
O16 V2 2.116834 1_554
O17 V3 2.116834 1_556
O18 V0 2.116834 1_555
O19 V1 2.116834 1_555
