# generated using pymatgen
data_Li3MnV4O12
_symmetry_space_group_name_H-M   'P 1'
_cell_length_a   7.78524053
_cell_length_b   10.33025993
_cell_length_c   7.78437667
_cell_angle_alpha   102.00620467
_cell_angle_beta   75.48578378
_cell_angle_gamma   69.09422185
_symmetry_Int_Tables_number   1
_chemical_formula_structural   Li3MnV4O12
_chemical_formula_sum   'Li6 Mn2 V8 O24'
_cell_volume   534.66899602
_cell_formula_units_Z   2
loop_
 _symmetry_equiv_pos_site_id
 _symmetry_equiv_pos_as_xyz
  1  'x, y, z'
loop_
 _atom_site_type_symbol
 _atom_site_label
 _atom_site_symmetry_multiplicity
 _atom_site_fract_x
 _atom_site_fract_y
 _atom_site_fract_z
 _atom_site_occupancy
  Li  Li0  1  0.12534700  0.37970000  0.26476600  1
  Li  Li1  1  0.11491300  0.87029600  0.74494800  1
  Li  Li2  1  0.23876400  0.12500000  0.88627400  1
  Li  Li3  1  0.21870700  0.62501000  0.40625100  1
  Li  Li4  1  0.77685000  0.37193100  0.58740200  1
  Li  Li5  1  0.78446900  0.87813100  0.10125500  1
  Mn  Mn0  1  0.90929700  0.62494400  0.71593800  1
  Mn  Mn1  1  0.90556200  0.12502600  0.21933700  1
  V  V0  1  0.20694800  0.58683000  0.98269300  1
  V  V1  1  0.20572100  0.08826500  0.48570800  1
  V  V2  1  0.60257400  0.16176300  0.95598100  1
  V  V3  1  0.60415600  0.66312000  0.45640600  1
  V  V4  1  0.39133200  0.34455900  0.53715400  1
  V  V5  1  0.39113800  0.84286600  0.04470200  1
  V  V6  1  0.80715800  0.90537900  0.51395600  1
  V  V7  1  0.79814400  0.40711600  0.01587900  1
  O  O0  1  0.01611100  0.69735400  0.92967800  1
  O  O1  1  0.02374000  0.19901500  0.42265000  1
  O  O2  1  0.77633400  0.05101500  0.02721000  1
  O  O3  1  0.76782000  0.55270600  0.53672600  1
  O  O4  1  0.12443200  0.55695200  0.18660200  1
  O  O5  1  0.11228300  0.04871500  0.67788100  1
  O  O6  1  0.37089500  0.20128800  0.08904300  1
  O  O7  1  0.37042100  0.69290200  0.56879500  1
  O  O8  1  0.19434500  0.46486300  0.49304900  1
  O  O9  1  0.21500200  0.96474700  0.98888800  1
  O  O10  1  0.97171900  0.78516600  0.59077000  1
  O  O11  1  0.97581000  0.28523300  0.07026700  1
  O  O12  1  0.34107100  0.42058000  0.79766500  1
  O  O13  1  0.35280400  0.91936100  0.28605600  1
  O  O14  1  0.63327300  0.33066000  0.97782900  1
  O  O15  1  0.62260900  0.82949000  0.48846000  1
  O  O16  1  0.35151400  0.17386300  0.53817600  1
  O  O17  1  0.36804900  0.67444500  0.01064800  1
  O  O18  1  0.63568800  0.07614500  0.72457700  1
  O  O19  1  0.66386600  0.57553100  0.20761500  1
  O  O20  1  0.63672500  0.30189900  0.42020600  1
  O  O21  1  0.62483000  0.80723800  0.91920700  1
  O  O22  1  0.88148300  0.94815700  0.31141100  1
  O  O23  1  0.88809700  0.44273800  0.81794400  1
loop_
_geom_bond_atom_site_label_1
_geom_bond_atom_site_label_2
_geom_bond_distance
_geom_bond_site_symmetry_2
Li0 O6 2.012052 1_555
Li0 O4 2.044365 1_555
Li0 O8 2.094208 1_555
Li0 O11 2.383188 1_455
Li1 O5 2.012164 1_565
Li1 O7 2.044801 1_555
Li1 O10 2.094700 1_455
Li1 O9 2.382963 1_555
Li2 O9 2.026684 1_545
Li2 O11 2.026775 1_456
Li2 O5 2.246060 1_555
Li2 O6 2.246232 1_556
Li3 O8 1.963198 1_555
Li3 O10 1.963245 1_455
Li3 O4 2.110370 1_555
Li3 O7 2.111641 1_555
Li4 O3 1.968408 1_555
Li4 O1 1.972571 1_655
Li4 O20 2.071372 1_555
Li4 O23 2.278348 1_555
Li5 O0 1.968524 1_654
Li5 O2 1.972728 1_565
Li5 O22 2.070485 1_555
Li5 O21 2.278114 1_554
Mn0 O0 2.153840 1_655
Mn0 O3 2.154032 1_555
Mn0 O8 2.219708 1_655
Mn0 O10 2.220953 1_555
Mn0 O23 2.231230 1_555
Mn0 O21 2.232068 1_555
Mn1 O20 2.146105 1_555
Mn1 O22 2.146875 1_545
Mn1 O2 2.158920 1_555
Mn1 O1 2.159621 1_655
Mn1 O11 2.347647 1_555
Mn1 O9 2.348316 1_644
O0 V0 1.724528 1_555
O1 V1 1.727004 1_555
O2 V2 1.726748 1_554
O3 V3 1.724597 1_555
O4 V0 1.691656 1_554
O5 V1 1.689636 1_555
O6 V2 1.689639 1_554
O7 V3 1.691691 1_555
O8 V4 1.759407 1_555
O9 V5 1.717101 1_556
O10 V6 1.760260 1_555
O11 V7 1.717597 1_555
O12 V0 1.746876 1_555
O12 V4 1.898071 1_555
O13 V5 1.782229 1_555
O13 V1 1.823447 1_565
O14 V7 1.782074 1_556
O14 V2 1.823380 1_555
O15 V3 1.747113 1_555
O15 V6 1.897441 1_555
O16 V1 1.742240 1_555
O16 V4 1.897422 1_555
O17 V5 1.784600 1_555
O17 V0 1.817848 1_554
O18 V2 1.742186 1_555
O18 V6 1.897663 1_545
O19 V7 1.785209 1_555
O19 V3 1.817982 1_555
O20 V4 1.741625 1_555
O21 V5 1.697498 1_556
O22 V6 1.741008 1_555
O23 V7 1.696718 1_556
