# generated using pymatgen
data_K2CoH2(SO5)2
_symmetry_space_group_name_H-M   'P 1'
_cell_length_a   5.27281632
_cell_length_b   6.61286319
_cell_length_c   7.40968857
_cell_angle_alpha   107.57907099
_cell_angle_beta   96.30717230
_cell_angle_gamma   104.04707460
_symmetry_Int_Tables_number   1
_chemical_formula_structural   K2CoH2(SO5)2
_chemical_formula_sum   'K2 Co1 H2 S2 O10'
_cell_volume   234.20026846
_cell_formula_units_Z   1
loop_
 _symmetry_equiv_pos_site_id
 _symmetry_equiv_pos_as_xyz
  1  'x, y, z'
loop_
 _atom_site_type_symbol
 _atom_site_label
 _atom_site_symmetry_multiplicity
 _atom_site_fract_x
 _atom_site_fract_y
 _atom_site_fract_z
 _atom_site_occupancy
  K  K0  1  0.29741400  0.67748600  0.27348800  1
  K  K1  1  0.70258600  0.32251400  0.72651200  1
  Co  Co0  1  0.00000000  0.00000000  0.00000000  1
  H  H0  1  0.89775000  0.03888900  0.29841900  1
  H  H1  1  0.10225000  0.96111100  0.70158100  1
  S  S0  1  0.64705900  0.28869900  0.21714600  1
  S  S1  1  0.35294100  0.71130100  0.78285400  1
  O  O0  1  0.02627600  0.96976900  0.23124700  1
  O  O1  1  0.97372400  0.03023100  0.76875300  1
  O  O2  1  0.85498600  0.25381200  0.08659400  1
  O  O3  1  0.14501400  0.74618800  0.91340600  1
  O  O4  1  0.26037900  0.47769800  0.65893400  1
  O  O5  1  0.73962100  0.52230200  0.34106600  1
  O  O6  1  0.38896600  0.24443100  0.08550500  1
  O  O7  1  0.61103400  0.75556900  0.91449500  1
  O  O8  1  0.63230600  0.13526600  0.32842000  1
  O  O9  1  0.36769400  0.86473400  0.67158000  1
loop_
_geom_bond_atom_site_label_1
_geom_bond_atom_site_label_2
_geom_bond_distance
_geom_bond_site_symmetry_2
K0 O0 2.736097 1_555
K0 O9 2.775309 1_555
K0 O5 2.820633 1_555
K0 O3 2.899865 1_554
K0 O6 2.963702 1_555
K0 O8 2.991792 1_565
K0 O2 2.997199 1_455
K0 O5 3.020423 1_455
K1 O1 2.736097 1_555
K1 O8 2.775309 1_555
K1 O4 2.820633 1_555
K1 O2 2.899865 1_556
K1 O7 2.963702 1_555
K1 O9 2.991792 1_545
K1 O3 2.997199 1_655
K1 O4 3.020423 1_655
Co0 O0 1.778576 1_545
Co0 O1 1.778576 1_454
Co0 O3 1.973258 1_544
Co0 O2 1.973258 1_455
Co0 O6 2.169588 1_555
Co0 O7 2.169588 1_444
H0 O0 1.001490 1_645
H0 O8 1.682378 1_555
H1 O1 1.001490 1_465
H1 O9 1.682378 1_555
O2 S0 1.553061 1_555
O3 S1 1.553061 1_555
O4 S1 1.465065 1_555
O5 S0 1.465065 1_555
O6 S0 1.493853 1_555
O7 S1 1.493853 1_555
O8 S0 1.482039 1_555
O9 S1 1.482039 1_555
