# generated using pymatgen
data_CaMg3
_symmetry_space_group_name_H-M   'P 1'
_cell_length_a   12.92418404
_cell_length_b   12.92418404
_cell_length_c   12.92418404
_cell_angle_alpha   149.79122242
_cell_angle_beta   126.32833201
_cell_angle_gamma   62.83146897
_symmetry_Int_Tables_number   1
_chemical_formula_structural   CaMg3
_chemical_formula_sum   'Ca8 Mg24'
_cell_volume   866.88273691
_cell_formula_units_Z   8
loop_
 _symmetry_equiv_pos_site_id
 _symmetry_equiv_pos_as_xyz
  1  'x, y, z'
loop_
 _atom_site_type_symbol
 _atom_site_label
 _atom_site_symmetry_multiplicity
 _atom_site_fract_x
 _atom_site_fract_y
 _atom_site_fract_z
 _atom_site_occupancy
  Ca  Ca0_0  1  0.16854950  0.00000000  0.16854950  1
  Ca  Ca0_1  1  0.16854950  0.00000000  0.66854950  1
  Ca  Ca0_2  1  0.16854950  0.50000000  0.16854950  1
  Ca  Ca0_3  1  0.16854950  0.50000000  0.66854950  1
  Ca  Ca0_4  1  0.66854950  0.00000000  0.16854950  1
  Ca  Ca0_5  1  0.66854950  0.00000000  0.66854950  1
  Ca  Ca0_6  1  0.66854950  0.50000000  0.16854950  1
  Ca  Ca0_7  1  0.66854950  0.50000000  0.66854950  1
  Mg  Mg0_0  1  0.41534900  0.25000000  0.16534900  1
  Mg  Mg0_1  1  0.41534900  0.25000000  0.66534900  1
  Mg  Mg0_2  1  0.41534900  0.75000000  0.16534900  1
  Mg  Mg0_3  1  0.41534900  0.75000000  0.66534900  1
  Mg  Mg0_4  1  0.91534900  0.25000000  0.16534900  1
  Mg  Mg0_5  1  0.91534900  0.25000000  0.66534900  1
  Mg  Mg0_6  1  0.91534900  0.75000000  0.16534900  1
  Mg  Mg0_7  1  0.91534900  0.75000000  0.66534900  1
  Mg  Mg1_0  1  0.12219450  0.12247700  0.49971750  1
  Mg  Mg1_1  1  0.12219450  0.12247700  0.99971750  1
  Mg  Mg1_2  1  0.12219450  0.62247700  0.49971750  1
  Mg  Mg1_3  1  0.12219450  0.62247700  0.99971750  1
  Mg  Mg1_4  1  0.62219450  0.12247700  0.49971750  1
  Mg  Mg1_5  1  0.62219450  0.12247700  0.99971750  1
  Mg  Mg1_6  1  0.62219450  0.62247700  0.49971750  1
  Mg  Mg1_7  1  0.62219450  0.62247700  0.99971750  1
  Mg  Mg2_0  1  0.37724050  0.37752300  0.49971750  1
  Mg  Mg2_1  1  0.37724050  0.37752300  0.99971750  1
  Mg  Mg2_2  1  0.37724050  0.87752300  0.49971750  1
  Mg  Mg2_3  1  0.37724050  0.87752300  0.99971750  1
  Mg  Mg2_4  1  0.87724050  0.37752300  0.49971750  1
  Mg  Mg2_5  1  0.87724050  0.37752300  0.99971750  1
  Mg  Mg2_6  1  0.87724050  0.87752300  0.49971750  1
  Mg  Mg2_7  1  0.87724050  0.87752300  0.99971750  1
loop_
_geom_bond_atom_site_label_1
_geom_bond_atom_site_label_2
_geom_bond_distance
_geom_bond_site_symmetry_2
Ca0_0 Mg0_2 3.336034 1_545
Ca0_0 Mg0_1 3.336034 1_555
Ca0_0 Mg2_7 3.343746 1_444
Ca0_0 Mg1_1 3.343746 1_554
Ca0_0 Ca0_3 3.367764 1_544
Ca0_0 Ca0_3 3.367764 1_555
Ca0_0 Mg0_7 3.400723 1_444
Ca0_0 Mg0_4 3.400723 1_455
Ca0_0 Mg1_3 3.412596 1_544
Ca0_0 Mg1_0 3.412596 1_555
Ca0_0 Mg2_0 3.412596 1_555
Ca0_0 Mg2_3 3.412596 1_544
Ca0_1 Mg0_3 3.336034 1_545
Ca0_1 Mg0_0 3.336034 1_556
Ca0_1 Mg2_6 3.343746 1_445
Ca0_1 Mg1_0 3.343746 1_555
Ca0_1 Ca0_2 3.367764 1_556
Ca0_1 Ca0_2 3.367764 1_545
Ca0_1 Mg0_6 3.400723 1_445
Ca0_1 Mg0_5 3.400723 1_455
Ca0_1 Mg1_1 3.412596 1_555
Ca0_1 Mg1_2 3.412596 1_545
Ca0_1 Mg2_2 3.412596 1_545
Ca0_1 Mg2_1 3.412596 1_555
Ca0_2 Mg0_0 3.336034 1_555
Ca0_2 Mg0_3 3.336034 1_555
Ca0_2 Mg2_5 3.343746 1_454
Ca0_2 Mg1_3 3.343746 1_554
Ca0_2 Mg0_5 3.400723 1_454
Ca0_2 Mg0_6 3.400723 1_455
Ca0_2 Mg1_1 3.412596 1_554
Ca0_2 Mg1_2 3.412596 1_555
Ca0_2 Mg2_1 3.412596 1_554
Ca0_2 Mg2_2 3.412596 1_555
Ca0_3 Mg0_1 3.336034 1_555
Ca0_3 Mg0_2 3.336034 1_556
Ca0_3 Mg2_4 3.343746 1_455
Ca0_3 Mg1_2 3.343746 1_555
Ca0_3 Mg0_7 3.400723 1_455
Ca0_3 Mg0_4 3.400723 1_455
Ca0_3 Mg1_3 3.412596 1_555
Ca0_3 Mg1_0 3.412596 1_555
Ca0_3 Mg2_3 3.412596 1_555
Ca0_3 Mg2_0 3.412596 1_555
Ca0_4 Mg0_5 3.336034 1_555
Ca0_4 Mg0_6 3.336034 1_545
Ca0_4 Mg2_3 3.343746 1_544
Ca0_4 Mg1_5 3.343746 1_554
Ca0_4 Ca0_7 3.367764 1_544
Ca0_4 Ca0_7 3.367764 1_555
Ca0_4 Mg0_0 3.400723 1_555
Ca0_4 Mg0_3 3.400723 1_544
Ca0_4 Mg1_7 3.412596 1_544
Ca0_4 Mg1_4 3.412596 1_555
Ca0_4 Mg2_4 3.412596 1_555
Ca0_4 Mg2_7 3.412596 1_544
Ca0_5 Mg0_7 3.336034 1_545
Ca0_5 Mg0_4 3.336034 1_556
Ca0_5 Mg2_2 3.343746 1_545
Ca0_5 Mg1_4 3.343746 1_555
Ca0_5 Ca0_6 3.367764 1_556
Ca0_5 Ca0_6 3.367764 1_545
Ca0_5 Mg0_2 3.400723 1_545
Ca0_5 Mg0_1 3.400723 1_555
Ca0_5 Mg1_6 3.412596 1_545
Ca0_5 Mg1_5 3.412596 1_555
Ca0_5 Mg2_5 3.412596 1_555
Ca0_5 Mg2_6 3.412596 1_545
Ca0_6 Mg0_7 3.336034 1_555
Ca0_6 Mg0_4 3.336034 1_555
Ca0_6 Mg2_1 3.343746 1_554
Ca0_6 Mg1_7 3.343746 1_554
Ca0_6 Mg0_1 3.400723 1_554
Ca0_6 Mg0_2 3.400723 1_555
Ca0_6 Mg1_6 3.412596 1_555
Ca0_6 Mg1_5 3.412596 1_554
Ca0_6 Mg2_5 3.412596 1_554
Ca0_6 Mg2_6 3.412596 1_555
Ca0_7 Mg0_6 3.336034 1_556
Ca0_7 Mg0_5 3.336034 1_555
Ca0_7 Mg2_0 3.343746 1_555
Ca0_7 Mg1_6 3.343746 1_555
Ca0_7 Mg0_0 3.400723 1_555
Ca0_7 Mg0_3 3.400723 1_555
Ca0_7 Mg1_7 3.412596 1_555
Ca0_7 Mg1_4 3.412596 1_555
Ca0_7 Mg2_4 3.412596 1_555
Ca0_7 Mg2_7 3.412596 1_555
Mg0_0 Mg2_3 3.332280 1_544
Mg0_0 Mg2_0 3.332280 1_555
Mg0_0 Mg1_6 3.332280 1_555
Mg0_0 Mg1_5 3.332280 1_554
Mg0_0 Mg0_3 3.367764 1_555
Mg0_0 Mg0_3 3.367764 1_544
Mg0_0 Mg1_1 3.413024 1_554
Mg0_0 Mg2_1 3.413024 1_554
Mg0_1 Mg2_1 3.332280 1_555
Mg0_1 Mg2_2 3.332280 1_545
Mg0_1 Mg1_4 3.332280 1_555
Mg0_1 Mg1_7 3.332280 1_555
Mg0_1 Mg0_2 3.367764 1_545
Mg0_1 Mg0_2 3.367764 1_556
Mg0_1 Mg1_0 3.413024 1_555
Mg0_1 Mg2_0 3.413024 1_555
Mg0_2 Mg2_1 3.332280 1_554
Mg0_2 Mg2_2 3.332280 1_555
Mg0_2 Mg1_4 3.332280 1_565
Mg0_2 Mg1_7 3.332280 1_554
Mg0_2 Mg1_3 3.413024 1_554
Mg0_2 Mg2_3 3.413024 1_554
Mg0_3 Mg2_3 3.332280 1_555
Mg0_3 Mg1_5 3.332280 1_565
Mg0_3 Mg1_6 3.332280 1_555
Mg0_3 Mg2_0 3.332280 1_555
Mg0_3 Mg1_2 3.413024 1_555
Mg0_3 Mg2_2 3.413024 1_555
Mg0_4 Mg2_7 3.332280 1_544
Mg0_4 Mg2_4 3.332280 1_555
Mg0_4 Mg1_2 3.332280 1_655
Mg0_4 Mg1_1 3.332280 1_654
Mg0_4 Mg0_7 3.367764 1_544
Mg0_4 Mg0_7 3.367764 1_555
Mg0_4 Mg1_5 3.413024 1_554
Mg0_4 Mg2_5 3.413024 1_554
Mg0_5 Mg2_5 3.332280 1_555
Mg0_5 Mg2_6 3.332280 1_545
Mg0_5 Mg1_0 3.332280 1_655
Mg0_5 Mg1_3 3.332280 1_655
Mg0_5 Mg0_6 3.367764 1_545
Mg0_5 Mg0_6 3.367764 1_556
Mg0_5 Mg1_4 3.413024 1_555
Mg0_5 Mg2_4 3.413024 1_555
Mg0_6 Mg2_6 3.332280 1_555
Mg0_6 Mg2_5 3.332280 1_554
Mg0_6 Mg1_0 3.332280 1_665
Mg0_6 Mg1_3 3.332280 1_654
Mg0_6 Mg1_7 3.413024 1_554
Mg0_6 Mg2_7 3.413024 1_554
Mg0_7 Mg2_7 3.332280 1_555
Mg0_7 Mg2_4 3.332280 1_555
Mg0_7 Mg1_1 3.332280 1_665
Mg0_7 Mg1_2 3.332280 1_655
Mg0_7 Mg1_6 3.413024 1_555
Mg0_7 Mg2_6 3.413024 1_555
Mg1_0 Mg1_3 3.367764 1_555
Mg1_0 Mg1_3 3.367764 1_544
Mg1_0 Mg2_2 3.370165 1_545
Mg1_0 Mg2_1 3.370165 1_555
Mg1_0 Mg2_4 3.370165 1_455
Mg1_0 Mg2_7 3.370165 1_444
Mg1_1 Mg1_2 3.367764 1_545
Mg1_1 Mg1_2 3.367764 1_556
Mg1_1 Mg2_6 3.370165 1_445
Mg1_1 Mg2_5 3.370165 1_455
Mg1_1 Mg2_3 3.370165 1_545
Mg1_1 Mg2_0 3.370165 1_556
Mg1_2 Mg2_3 3.370165 1_555
Mg1_2 Mg2_5 3.370165 1_454
Mg1_2 Mg2_6 3.370165 1_455
Mg1_2 Mg2_0 3.370165 1_555
Mg1_3 Mg2_4 3.370165 1_455
Mg1_3 Mg2_7 3.370165 1_455
Mg1_3 Mg2_1 3.370165 1_555
Mg1_3 Mg2_2 3.370165 1_556
Mg1_4 Mg1_7 3.367764 1_555
Mg1_4 Mg1_7 3.367764 1_544
Mg1_4 Mg2_6 3.370165 1_545
Mg1_4 Mg2_5 3.370165 1_555
Mg1_4 Mg2_0 3.370165 1_555
Mg1_4 Mg2_3 3.370165 1_544
Mg1_5 Mg1_6 3.367764 1_545
Mg1_5 Mg1_6 3.367764 1_556
Mg1_5 Mg2_7 3.370165 1_545
Mg1_5 Mg2_1 3.370165 1_555
Mg1_5 Mg2_2 3.370165 1_545
Mg1_5 Mg2_4 3.370165 1_556
Mg1_6 Mg2_7 3.370165 1_555
Mg1_6 Mg2_4 3.370165 1_555
Mg1_6 Mg2_2 3.370165 1_555
Mg1_6 Mg2_1 3.370165 1_554
Mg1_7 Mg2_0 3.370165 1_555
Mg1_7 Mg2_3 3.370165 1_555
Mg1_7 Mg2_5 3.370165 1_555
Mg1_7 Mg2_6 3.370165 1_556
Mg2_0 Mg2_3 3.367764 1_555
Mg2_0 Mg2_3 3.367764 1_544
Mg2_1 Mg2_2 3.367764 1_545
Mg2_1 Mg2_2 3.367764 1_556
Mg2_4 Mg2_7 3.367764 1_555
Mg2_4 Mg2_7 3.367764 1_544
Mg2_5 Mg2_6 3.367764 1_545
Mg2_5 Mg2_6 3.367764 1_556
