# generated using pymatgen
data_SnO2
_symmetry_space_group_name_H-M   'P 1'
_cell_length_a   11.15392133
_cell_length_b   10.98074976
_cell_length_c   10.84414766
_cell_angle_alpha   88.36017154
_cell_angle_beta   87.42018113
_cell_angle_gamma   97.31542757
_symmetry_Int_Tables_number   1
_chemical_formula_structural   SnO2
_chemical_formula_sum   'Sn30 O60'
_cell_volume   1315.23687196
_cell_formula_units_Z   30
loop_
 _symmetry_equiv_pos_site_id
 _symmetry_equiv_pos_as_xyz
  1  'x, y, z'
loop_
 _atom_site_type_symbol
 _atom_site_label
 _atom_site_symmetry_multiplicity
 _atom_site_fract_x
 _atom_site_fract_y
 _atom_site_fract_z
 _atom_site_occupancy
  Sn  Sn0  1  0.96007110  0.17124225  0.17357958  1
  Sn  Sn1  1  0.39180015  0.49169001  0.89114766  1
  Sn  Sn2  1  0.93347804  0.81280785  0.72410515  1
  Sn  Sn3  1  0.43203925  0.83190459  0.72916734  1
  Sn  Sn4  1  0.02324298  0.55663931  0.82950465  1
  Sn  Sn5  1  0.71719825  0.52502157  0.62150667  1
  Sn  Sn6  1  0.41711000  0.26214101  0.71032024  1
  Sn  Sn7  1  0.68241583  0.36584443  0.19849827  1
  Sn  Sn8  1  0.02880596  0.57606943  0.50233196  1
  Sn  Sn9  1  0.54515788  0.06538839  0.20598861  1
  Sn  Sn10  1  0.81398363  0.60998638  0.02771456  1
  Sn  Sn11  1  0.33764873  0.70934047  0.27230091  1
  Sn  Sn12  1  0.24884604  0.71658796  0.99827023  1
  Sn  Sn13  1  0.56259399  0.79456491  0.01746820  1
  Sn  Sn14  1  0.41468581  0.56493255  0.57013994  1
  Sn  Sn15  1  0.21577132  0.22369757  0.97352360  1
  Sn  Sn16  1  0.99076778  0.92664208  0.03554379  1
  Sn  Sn17  1  0.15060674  0.30516152  0.67225845  1
  Sn  Sn18  1  0.88933427  0.81072533  0.29576421  1
  Sn  Sn19  1  0.70973219  0.83825586  0.52952371  1
  Sn  Sn20  1  0.24181555  0.96766334  0.21767151  1
  Sn  Sn21  1  0.27350087  0.40245326  0.22435525  1
  Sn  Sn22  1  0.91179367  0.11487846  0.80801248  1
  Sn  Sn23  1  0.59949959  0.60389952  0.30557030  1
  Sn  Sn24  1  0.21477058  0.00382167  0.76622618  1
  Sn  Sn25  1  0.22666223  0.84262158  0.50969497  1
  Sn  Sn26  1  0.01261603  0.04910000  0.48960634  1
  Sn  Sn27  1  0.62836616  0.19661849  0.50743624  1
  Sn  Sn28  1  0.68794508  0.34443365  0.85940238  1
  Sn  Sn29  1  0.88760732  0.31928095  0.41980784  1
  O  O0  1  0.70996084  0.43268979  0.01796292  1
  O  O1  1  0.19902984  0.57825207  0.88517476  1
  O  O2  1  0.33007780  0.70920444  0.62403385  1
  O  O3  1  0.52693110  0.44108886  0.24163611  1
  O  O4  1  0.86180973  0.30433844  0.22641907  1
  O  O5  1  0.59977482  0.58902754  0.50529831  1
  O  O6  1  0.18962573  0.67562596  0.43475758  1
  O  O7  1  0.90686907  0.08262635  0.00455069  1
  O  O8  1  0.55041301  0.86660962  0.57845360  1
  O  O9  1  0.41251781  0.59415832  0.38583758  1
  O  O10  1  0.32380466  0.12411042  0.86842106  1
  O  O11  1  0.83899580  0.95862331  0.72415352  1
  O  O12  1  0.50484448  0.34107989  0.86418769  1
  O  O13  1  0.03322283  0.67198633  0.66689952  1
  O  O14  1  0.32635826  0.94524667  0.63093817  1
  O  O15  1  0.95307054  0.50758933  0.99862286  1
  O  O16  1  0.27285838  0.84624505  0.85032302  1
  O  O17  1  0.05955706  0.41324827  0.43274848  1
  O  O18  1  0.95304204  0.71420608  0.42252239  1
  O  O19  1  0.05531094  0.44504431  0.68622156  1
  O  O20  1  0.11395917  0.27870540  0.11705341  1
  O  O21  1  0.34361407  0.87284784  0.35490980  1
  O  O22  1  0.08157243  0.91790033  0.61752169  1
  O  O23  1  0.61765579  0.35297720  0.64432489  1
  O  O24  1  0.76115918  0.55909289  0.21781414  1
  O  O25  1  0.79420294  0.49523131  0.78239922  1
  O  O26  1  0.00232413  0.18227682  0.36036208  1
  O  O27  1  0.15501567  0.04184094  0.07117887  1
  O  O28  1  0.85569270  0.48168131  0.51458677  1
  O  O29  1  0.69348052  0.34131056  0.38883743  1
  O  O30  1  0.27894346  0.35428393  0.81072235  1
  O  O31  1  0.80138304  0.18238284  0.53210043  1
  O  O32  1  0.10259783  0.80568060  0.20943927  1
  O  O33  1  0.62823832  0.21173748  0.11567421  1
  O  O34  1  0.24692458  0.16246591  0.64334902  1
  O  O35  1  0.67560455  0.68164935  0.96028978  1
  O  O36  1  0.51313298  0.71273997  0.19309193  1
  O  O37  1  0.54581235  0.88385251  0.85480049  1
  O  O38  1  0.33420730  0.83963958  0.11730706  1
  O  O39  1  0.41710280  0.66244345  0.96159041  1
  O  O40  1  0.04213352  0.95374356  0.84891830  1
  O  O41  1  0.61838591  0.94737945  0.10390487  1
  O  O42  1  0.76813830  0.20183376  0.82316527  1
  O  O43  1  0.94957556  0.98430060  0.21548054  1
  O  O44  1  0.00639176  0.17044467  0.62737213  1
  O  O45  1  0.86506499  0.93155528  0.45236240  1
  O  O46  1  0.33088707  0.37422570  0.03962517  1
  O  O47  1  0.78071977  0.71884692  0.64216244  1
  O  O48  1  0.14982633  0.97619823  0.39299074  1
  O  O49  1  0.48853091  0.56953333  0.73800546  1
  O  O50  1  0.93797160  0.71616769  0.88332456  1
  O  O51  1  0.07786434  0.21622060  0.84456251  1
  O  O52  1  0.24500123  0.59036340  0.16302852  1
  O  O53  1  0.08999827  0.77784494  0.07729335  1
  O  O54  1  0.33633011  0.38731671  0.58019527  1
  O  O55  1  0.70775163  0.77119651  0.35404028  1
  O  O56  1  0.37412742  0.10611031  0.20525559  1
  O  O57  1  0.86019883  0.78570240  0.11166988  1
  O  O58  1  0.49859160  0.13215974  0.63162177  1
  O  O59  1  0.60177129  0.06860055  0.37670667  1
loop_
_geom_bond_atom_site_label_1
_geom_bond_atom_site_label_2
_geom_bond_distance
_geom_bond_site_symmetry_2
O0 Sn28 2.007185 1_554
O0 Sn7 2.066915 1_555
O0 Sn10 2.143640 1_555
O1 Sn12 2.018251 1_555
O1 Sn4 2.064321 1_555
O1 Sn1 2.461764 1_555
O2 Sn14 2.031245 1_555
O2 Sn3 2.054973 1_555
O2 Sn25 2.338660 1_555
O3 Sn23 2.021128 1_555
O3 Sn7 2.055037 1_555
O4 Sn0 2.016142 1_555
O4 Sn29 2.137684 1_555
O4 Sn7 2.222293 1_555
O5 Sn5 2.032177 1_555
O5 Sn14 2.132141 1_555
O5 Sn23 2.167533 1_555
O6 Sn25 2.028844 1_555
O6 Sn8 2.070296 1_555
O6 Sn11 2.347712 1_555
O7 Sn16 2.079905 1_545
O7 Sn22 2.147590 1_554
O7 Sn0 2.170655 1_555
O8 Sn19 1.897840 1_555
O8 Sn3 2.049780 1_555
O9 Sn14 2.016830 1_555
O9 Sn11 2.021221 1_555
O9 Sn23 2.212052 1_555
O10 Sn15 2.056731 1_555
O10 Sn24 2.061038 1_555
O10 Sn6 2.368276 1_555
O11 Sn2 2.025841 1_555
O11 Sn22 2.056995 1_565
O12 Sn28 2.036220 1_555
O12 Sn6 2.122930 1_555
O12 Sn1 2.221696 1_555
O13 Sn8 2.097331 1_555
O13 Sn2 2.108221 1_455
O13 Sn4 2.131792 1_555
O14 Sn25 2.032828 1_555
O14 Sn24 2.051502 1_565
O14 Sn3 2.117520 1_555
O15 Sn4 1.993225 1_655
O15 Sn10 2.047190 1_556
O16 Sn12 2.099095 1_555
O16 Sn24 2.119858 1_565
O16 Sn3 2.185489 1_555
O17 Sn8 2.023287 1_555
O17 Sn29 2.071547 1_455
O18 Sn18 1.927189 1_555
O18 Sn8 2.020179 1_655
O19 Sn17 1.981586 1_555
O19 Sn4 2.052885 1_555
O19 Sn8 2.476113 1_555
O20 Sn0 2.015564 1_455
O20 Sn15 2.036267 1_554
O20 Sn21 2.455238 1_555
O21 Sn11 2.024229 1_555
O21 Sn25 2.071222 1_555
O21 Sn20 2.225437 1_555
O22 Sn2 2.159281 1_455
O22 Sn26 2.203427 1_565
O22 Sn25 2.212495 1_555
O22 Sn24 2.375623 1_565
O23 Sn5 2.068165 1_555
O23 Sn27 2.312540 1_555
O23 Sn6 2.399482 1_555
O23 Sn28 2.496808 1_555
O24 Sn23 2.120673 1_555
O24 Sn10 2.156383 1_555
O24 Sn7 2.210337 1_555
O25 Sn5 2.015599 1_555
O25 Sn28 2.043492 1_555
O25 Sn4 2.634499 1_655
O26 Sn26 2.013950 1_555
O26 Sn0 2.103537 1_455
O26 Sn29 2.188035 1_455
O27 Sn20 2.095142 1_545
O27 Sn16 2.146456 1_445
O27 Sn15 2.244577 1_554
O28 Sn5 2.003662 1_555
O28 Sn8 2.068720 1_655
O28 Sn29 2.144012 1_555
O29 Sn27 2.052076 1_555
O29 Sn7 2.085126 1_555
O29 Sn29 2.248095 1_555
O30 Sn1 2.076585 1_555
O30 Sn17 2.153557 1_555
O30 Sn6 2.212068 1_555
O30 Sn15 2.270520 1_555
O31 Sn27 1.985210 1_555
O31 Sn29 2.022165 1_555
O32 O53 1.482886 1_555
O32 Sn20 2.213857 1_555
O32 Sn18 2.524636 1_455
O33 Sn9 1.961992 1_555
O33 Sn7 1.977589 1_555
O34 Sn17 2.033254 1_555
O34 Sn24 2.145664 1_555
O34 Sn6 2.229165 1_555
O35 Sn13 1.970369 1_556
O35 Sn10 1.978409 1_556
O36 Sn23 2.039527 1_555
O36 Sn11 2.097277 1_555
O36 Sn13 2.102376 1_555
O37 Sn3 1.951320 1_555
O37 Sn13 2.021251 1_556
O38 Sn12 2.069155 1_554
O38 Sn20 2.139704 1_555
O38 Sn11 2.180775 1_555
O39 Sn1 2.036033 1_555
O39 Sn12 2.065012 1_555
O39 Sn13 2.155160 1_556
O40 Sn16 2.080934 1_456
O40 Sn24 2.088311 1_565
O40 Sn2 2.342145 1_455
O40 Sn22 2.471686 1_465
O41 Sn9 1.960105 1_565
O41 Sn13 1.989521 1_555
O42 Sn28 1.940785 1_555
O42 Sn22 1.970036 1_555
O43 Sn0 2.077166 1_565
O43 Sn18 2.090085 1_555
O43 Sn16 2.117417 1_555
O44 Sn26 2.034773 1_555
O44 Sn17 2.125658 1_555
O44 Sn22 2.214597 1_455
O45 Sn26 2.021478 1_665
O45 Sn19 2.029764 1_555
O45 Sn18 2.212807 1_555
O46 Sn1 2.068154 1_554
O46 Sn21 2.118816 1_555
O46 Sn15 2.122443 1_554
O47 Sn19 2.024341 1_555
O47 Sn2 2.120928 1_555
O47 Sn5 2.177057 1_555
O48 Sn26 2.072778 1_565
O48 Sn20 2.129586 1_555
O48 Sn25 2.190677 1_555
O49 Sn14 2.030842 1_555
O49 Sn1 2.043340 1_555
O50 Sn2 2.006547 1_555
O50 Sn4 2.178685 1_655
O50 Sn10 2.239114 1_556
O51 Sn22 2.095950 1_455
O51 Sn15 2.120518 1_555
O51 Sn17 2.158860 1_555
O52 Sn11 2.008452 1_555
O52 Sn21 2.215502 1_555
O52 Sn12 2.225162 1_554
O53 Sn12 2.127392 1_554
O53 Sn16 2.136107 1_455
O54 Sn14 2.030952 1_555
O54 Sn6 2.238563 1_555
O54 Sn17 2.321246 1_555
O55 Sn19 2.060060 1_555
O55 Sn18 2.082077 1_555
O55 Sn23 2.157877 1_555
O56 Sn20 1.976438 1_545
O56 Sn9 2.014343 1_555
O57 Sn18 2.057562 1_555
O57 Sn16 2.107668 1_555
O57 Sn10 2.169570 1_555
O58 Sn27 1.979607 1_555
O58 Sn6 1.980330 1_555
O59 Sn9 1.982567 1_555
O59 Sn27 2.029663 1_555
