# generated using pymatgen
data_CaTa2Bi2O9
_symmetry_space_group_name_H-M   'P 1'
_cell_length_a   3.93784200
_cell_length_b   3.95475735
_cell_length_c   13.05467051
_cell_angle_alpha   94.28859759
_cell_angle_beta   96.40472039
_cell_angle_gamma   90.02396284
_symmetry_Int_Tables_number   1
_chemical_formula_structural   CaTa2Bi2O9
_chemical_formula_sum   'Ca1 Ta2 Bi2 O9'
_cell_volume   201.46069011
_cell_formula_units_Z   1
loop_
 _symmetry_equiv_pos_site_id
 _symmetry_equiv_pos_as_xyz
  1  'x, y, z'
loop_
 _atom_site_type_symbol
 _atom_site_label
 _atom_site_symmetry_multiplicity
 _atom_site_fract_x
 _atom_site_fract_y
 _atom_site_fract_z
 _atom_site_occupancy
  Ca  Ca0  1  0.50000000  0.50000000  0.00000000  1
  Ta  Ta0  1  0.06162500  0.04890300  0.16016400  1
  Ta  Ta1  1  0.93837500  0.95109700  0.83983600  1
  Bi  Bi0  1  0.25609800  0.23635200  0.59903000  1
  Bi  Bi1  1  0.74390200  0.76364800  0.40097000  1
  O  O0  1  0.10743400  0.06742400  0.30815300  1
  O  O1  1  0.89256600  0.93257600  0.69184700  1
  O  O2  1  0.55025200  0.03787900  0.14245500  1
  O  O3  1  0.75549200  0.24717500  0.49767500  1
  O  O4  1  0.24450800  0.75282500  0.50232500  1
  O  O5  1  0.04353900  0.53826900  0.14180300  1
  O  O6  1  0.44974800  0.96212100  0.85754500  1
  O  O7  1  0.95646100  0.46173100  0.85819700  1
  O  O8  1  0.00000000  0.00000000  0.00000000  1
loop_
_geom_bond_atom_site_label_1
_geom_bond_atom_site_label_2
_geom_bond_distance
_geom_bond_site_symmetry_2
Ca0 O5 2.665492 1_655
Ca0 O7 2.665492 1_454
Ca0 O2 2.695219 1_555
Ca0 O6 2.695219 1_554
Ca0 O6 2.710802 1_544
Ca0 O2 2.710802 1_565
Ca0 O7 2.716874 1_554
Ca0 O5 2.716874 1_555
Ca0 O8 2.789878 1_555
Ca0 O8 2.789878 1_665
Ca0 O8 2.791045 1_565
Ca0 O8 2.791045 1_655
Bi0 O4 2.208737 1_545
Bi0 O3 2.250609 1_455
Bi0 O1 2.358817 1_445
Bi0 O4 2.478035 1_555
Bi0 O3 2.491736 1_555
Bi1 O3 2.208737 1_565
Bi1 O4 2.250609 1_655
Bi1 O0 2.358817 1_665
Bi1 O3 2.478035 1_555
Bi1 O4 2.491736 1_555
O0 Ta0 1.916090 1_555
O1 Ta1 1.916090 1_555
O2 Ta0 1.963530 1_555
O2 Ta0 2.001229 1_655
O5 Ta0 1.968170 1_555
O5 Ta0 2.016015 1_565
O6 Ta1 1.963530 1_555
O6 Ta1 2.001229 1_455
O7 Ta1 1.968170 1_555
O7 Ta1 2.016015 1_545
O8 Ta1 2.072290 1_444
O8 Ta0 2.072290 1_555
