# generated using pymatgen
data_Sr(TmS2)2
_symmetry_space_group_name_H-M   'P 1'
_cell_length_a   3.93145205
_cell_length_b   11.95968277
_cell_length_c   14.16220735
_cell_angle_alpha   90.00000000
_cell_angle_beta   90.00000000
_cell_angle_gamma   90.00000000
_symmetry_Int_Tables_number   1
_chemical_formula_structural   Sr(TmS2)2
_chemical_formula_sum   'Sr4 Tm8 S16'
_cell_volume   665.89168512
_cell_formula_units_Z   4
loop_
 _symmetry_equiv_pos_site_id
 _symmetry_equiv_pos_as_xyz
  1  'x, y, z'
loop_
 _atom_site_type_symbol
 _atom_site_label
 _atom_site_symmetry_multiplicity
 _atom_site_fract_x
 _atom_site_fract_y
 _atom_site_fract_z
 _atom_site_occupancy
  Sr  Sr0  1  0.25000000  0.75953325  0.33652534  1
  Sr  Sr1  1  0.25000000  0.25953325  0.16347466  1
  Sr  Sr2  1  0.75000000  0.24046675  0.66347466  1
  Sr  Sr3  1  0.75000000  0.74046675  0.83652534  1
  Tm  Tm0  1  0.25000000  0.43692903  0.38939165  1
  Tm  Tm1  1  0.25000000  0.93692903  0.11060835  1
  Tm  Tm2  1  0.75000000  0.56307097  0.61060835  1
  Tm  Tm3  1  0.75000000  0.06307097  0.88939165  1
  Tm  Tm4  1  0.25000000  0.41756348  0.90022184  1
  Tm  Tm5  1  0.25000000  0.91756348  0.59977816  1
  Tm  Tm6  1  0.75000000  0.58243652  0.09977816  1
  Tm  Tm7  1  0.75000000  0.08243652  0.40022184  1
  S  S0  1  0.25000000  0.20506123  0.83090211  1
  S  S1  1  0.25000000  0.70506123  0.66909789  1
  S  S2  1  0.75000000  0.79493877  0.16909789  1
  S  S3  1  0.75000000  0.29493877  0.33090211  1
  S  S4  1  0.25000000  0.12651016  0.52799601  1
  S  S5  1  0.25000000  0.62651016  0.97200399  1
  S  S6  1  0.75000000  0.87348984  0.47200399  1
  S  S7  1  0.75000000  0.37348984  0.02799601  1
  S  S8  1  0.25000000  0.02636815  0.28413557  1
  S  S9  1  0.25000000  0.52636815  0.21586443  1
  S  S10  1  0.75000000  0.97363185  0.71586443  1
  S  S11  1  0.75000000  0.47363185  0.78413557  1
  S  S12  1  0.25000000  0.41258944  0.57658409  1
  S  S13  1  0.25000000  0.91258944  0.92341591  1
  S  S14  1  0.75000000  0.58741056  0.42341591  1
  S  S15  1  0.75000000  0.08741056  0.07658409  1
loop_
_geom_bond_atom_site_label_1
_geom_bond_atom_site_label_2
_geom_bond_distance
_geom_bond_site_symmetry_2
S0 Tm4 2.724480 1_555
S0 Tm3 2.726531 1_555
S0 Tm3 2.726531 1_455
S0 Sr2 3.108970 1_555
S0 Sr2 3.108970 1_455
S1 Tm5 2.724480 1_555
S1 Tm2 2.726531 1_455
S1 Tm2 2.726531 1_555
S1 Sr3 3.108970 1_455
S1 Sr3 3.108970 1_555
S2 Tm6 2.724480 1_555
S2 Tm1 2.726531 1_555
S2 Tm1 2.726531 1_655
S2 Sr0 3.108970 1_555
S2 Sr0 3.108970 1_655
S3 Tm7 2.724480 1_555
S3 Tm0 2.726531 1_655
S3 Tm0 2.726531 1_555
S3 Sr1 3.108970 1_655
S3 Sr1 3.108970 1_555
S4 Tm5 2.697804 1_545
S4 Tm7 2.723315 1_455
S4 Tm7 2.723315 1_555
S4 Sr2 3.066407 1_455
S4 Sr2 3.066407 1_555
S5 Tm4 2.697804 1_555
S5 Tm6 2.723315 1_456
S5 Tm6 2.723315 1_556
S5 Sr3 3.066407 1_455
S5 Sr3 3.066407 1_555
S6 Tm7 2.697804 1_565
S6 Tm5 2.723315 1_555
S6 Tm5 2.723315 1_655
S6 Sr0 3.066407 1_555
S6 Sr0 3.066407 1_655
S7 Tm6 2.697804 1_555
S7 Tm4 2.723315 1_554
S7 Tm4 2.723315 1_654
S7 Sr1 3.066407 1_655
S7 Sr1 3.066407 1_555
S8 Tm7 2.648885 1_455
S8 Tm7 2.648885 1_555
S8 Tm1 2.680229 1_545
S8 Sr1 3.270514 1_555
S8 Sr0 3.276376 1_545
S9 Tm6 2.648885 1_455
S9 Tm6 2.648885 1_555
S9 Tm0 2.680229 1_555
S9 Sr0 3.270514 1_555
S9 Sr1 3.276376 1_555
S10 Tm5 2.648885 1_555
S10 Tm5 2.648885 1_655
S10 Tm3 2.680229 1_565
S10 Sr3 3.270514 1_555
S10 Sr2 3.276376 1_565
S11 Tm4 2.648885 1_655
S11 Tm4 2.648885 1_555
S11 Tm2 2.680229 1_555
S11 Sr2 3.270514 1_555
S11 Sr3 3.276376 1_555
S12 Tm0 2.666992 1_555
S12 Tm2 2.708363 1_455
S12 Tm2 2.708363 1_555
S12 Sr2 3.100955 1_455
S12 Sr2 3.100955 1_555
S13 Tm1 2.666992 1_556
S13 Tm3 2.708363 1_565
S13 Tm3 2.708363 1_465
S13 Sr3 3.100955 1_455
S13 Sr3 3.100955 1_555
S14 Tm2 2.666992 1_555
S14 Tm0 2.708363 1_655
S14 Tm0 2.708363 1_555
S14 Sr0 3.100955 1_655
S14 Sr0 3.100955 1_555
S15 Tm3 2.666992 1_554
S15 Tm1 2.708363 1_645
S15 Tm1 2.708363 1_545
S15 Sr1 3.100955 1_655
S15 Sr1 3.100955 1_555
