# generated using pymatgen
data_Nd3Pt4
_symmetry_space_group_name_H-M   'P 1'
_cell_length_a   8.12284819
_cell_length_b   8.12284820
_cell_length_c   8.12284850
_cell_angle_alpha   114.51773138
_cell_angle_beta   114.51773130
_cell_angle_gamma   114.51773751
_symmetry_Int_Tables_number   1
_chemical_formula_structural   Nd3Pt4
_chemical_formula_sum   'Nd6 Pt8'
_cell_volume   312.72487233
_cell_formula_units_Z   2
loop_
 _symmetry_equiv_pos_site_id
 _symmetry_equiv_pos_as_xyz
  1  'x, y, z'
loop_
 _atom_site_type_symbol
 _atom_site_label
 _atom_site_symmetry_multiplicity
 _atom_site_fract_x
 _atom_site_fract_y
 _atom_site_fract_z
 _atom_site_occupancy
  Nd  Nd0  1  0.28269134  0.40600556  0.03093645  1
  Nd  Nd1  1  0.40600556  0.03093645  0.28269134  1
  Nd  Nd2  1  0.03093645  0.28269134  0.40600556  1
  Nd  Nd3  1  0.71730866  0.59399444  0.96906355  1
  Nd  Nd4  1  0.59399444  0.96906355  0.71730866  1
  Nd  Nd5  1  0.96906355  0.71730866  0.59399444  1
  Pt  Pt0  1  0.00000000  0.00000000  0.00000000  1
  Pt  Pt1  1  0.50000000  0.50000000  0.50000000  1
  Pt  Pt2  1  0.55553068  0.22174932  0.05725163  1
  Pt  Pt3  1  0.22174932  0.05725163  0.55553068  1
  Pt  Pt4  1  0.05725163  0.55553068  0.22174932  1
  Pt  Pt5  1  0.44446932  0.77825068  0.94274837  1
  Pt  Pt6  1  0.77825068  0.94274837  0.44446932  1
  Pt  Pt7  1  0.94274837  0.44446932  0.77825068  1
loop_
_geom_bond_atom_site_label_1
_geom_bond_atom_site_label_2
_geom_bond_distance
_geom_bond_site_symmetry_2
Nd0 Pt7 2.911989 1_454
Nd0 Pt6 2.924527 1_555
Nd0 Pt0 2.959798 1_555
Nd0 Pt1 3.016807 1_555
Nd0 Pt6 3.125432 1_444
Nd0 Pt2 3.134125 1_555
Nd0 Pt4 3.141656 1_555
Nd0 Pt5 3.265559 1_554
Nd0 Pt3 3.369401 1_554
Nd0 Nd3 3.561315 1_554
Nd1 Pt5 2.911989 1_544
Nd1 Pt7 2.924528 1_555
Nd1 Pt0 2.959799 1_555
Nd1 Pt1 3.016807 1_555
Nd1 Pt7 3.125432 1_444
Nd1 Pt3 3.134125 1_555
Nd1 Pt2 3.141656 1_555
Nd1 Pt6 3.265560 1_545
Nd1 Pt4 3.369401 1_545
Nd1 Nd4 3.561315 1_545
Nd2 Pt6 2.911988 1_445
Nd2 Pt5 2.924528 1_555
Nd2 Pt0 2.959799 1_555
Nd2 Pt1 3.016806 1_555
Nd2 Pt5 3.125432 1_444
Nd2 Pt4 3.134125 1_555
Nd2 Pt3 3.141656 1_555
Nd2 Pt7 3.265560 1_455
Nd2 Pt2 3.369401 1_455
Nd2 Nd5 3.561315 1_455
Nd3 Pt4 2.911989 1_656
Nd3 Pt3 2.924527 1_555
Nd3 Pt0 2.959798 1_666
Nd3 Pt1 3.016807 1_555
Nd3 Pt3 3.125432 1_666
Nd3 Pt5 3.134125 1_555
Nd3 Pt7 3.141656 1_555
Nd3 Pt2 3.265559 1_556
Nd3 Pt6 3.369401 1_556
Nd4 Pt2 2.911989 1_566
Nd4 Pt4 2.924528 1_555
Nd4 Pt0 2.959799 1_666
Nd4 Pt1 3.016807 1_555
Nd4 Pt4 3.125432 1_666
Nd4 Pt6 3.134125 1_555
Nd4 Pt5 3.141656 1_555
Nd4 Pt3 3.265560 1_565
Nd4 Pt7 3.369401 1_565
Nd5 Pt3 2.911988 1_665
Nd5 Pt2 2.924528 1_555
Nd5 Pt0 2.959799 1_666
Nd5 Pt1 3.016806 1_555
Nd5 Pt2 3.125432 1_666
Nd5 Pt7 3.134125 1_555
Nd5 Pt6 3.141656 1_555
Nd5 Pt4 3.265560 1_655
Nd5 Pt5 3.369401 1_655
Pt0 Pt1 2.900866 1_555
Pt0 Pt1 2.900866 1_444
Pt2 Pt5 2.912425 1_544
Pt2 Pt4 3.008076 1_655
Pt2 Pt3 3.008076 1_554
Pt3 Pt6 2.912425 1_445
Pt3 Pt4 3.008076 1_545
Pt4 Pt7 2.912425 1_454
Pt5 Pt7 3.008076 1_455
Pt5 Pt6 3.008076 1_556
Pt6 Pt7 3.008076 1_565
