# generated using pymatgen
data_Mg2Cd
_symmetry_space_group_name_H-M   'P 1'
_cell_length_a   12.25435893
_cell_length_b   12.25435893
_cell_length_c   14.61056730
_cell_angle_alpha   74.54040797
_cell_angle_beta   74.54040797
_cell_angle_gamma   29.44511375
_symmetry_Int_Tables_number   1
_chemical_formula_structural   Mg2Cd
_chemical_formula_sum   'Mg32 Cd16'
_cell_volume   1036.80347668
_cell_formula_units_Z   16
loop_
 _symmetry_equiv_pos_site_id
 _symmetry_equiv_pos_as_xyz
  1  'x, y, z'
loop_
 _atom_site_type_symbol
 _atom_site_label
 _atom_site_symmetry_multiplicity
 _atom_site_fract_x
 _atom_site_fract_y
 _atom_site_fract_z
 _atom_site_occupancy
  Mg  Mg0_0  1  0.15188617  0.15188617  0.07212337  1
  Mg  Mg0_1  1  0.15188617  0.15188617  0.57212337  1
  Mg  Mg0_2  1  0.15188617  0.65188617  0.07212337  1
  Mg  Mg0_3  1  0.15188617  0.65188617  0.57212337  1
  Mg  Mg0_4  1  0.65188617  0.15188617  0.07212337  1
  Mg  Mg0_5  1  0.65188617  0.15188617  0.57212337  1
  Mg  Mg0_6  1  0.65188617  0.65188617  0.07212337  1
  Mg  Mg0_7  1  0.65188617  0.65188617  0.57212337  1
  Mg  Mg1_0  1  0.01342119  0.01342119  0.10073517  1
  Mg  Mg1_1  1  0.01342119  0.01342119  0.60073517  1
  Mg  Mg1_2  1  0.01342119  0.51342119  0.10073517  1
  Mg  Mg1_3  1  0.01342119  0.51342119  0.60073517  1
  Mg  Mg1_4  1  0.51342119  0.01342119  0.10073517  1
  Mg  Mg1_5  1  0.51342119  0.01342119  0.60073517  1
  Mg  Mg1_6  1  0.51342119  0.51342119  0.10073517  1
  Mg  Mg1_7  1  0.51342119  0.51342119  0.60073517  1
  Mg  Mg2_0  1  0.48657882  0.48657882  0.39926484  1
  Mg  Mg2_1  1  0.48657882  0.48657882  0.89926483  1
  Mg  Mg2_2  1  0.48657882  0.98657882  0.39926484  1
  Mg  Mg2_3  1  0.48657882  0.98657881  0.89926483  1
  Mg  Mg2_4  1  0.98657882  0.48657882  0.39926484  1
  Mg  Mg2_5  1  0.98657881  0.48657882  0.89926483  1
  Mg  Mg2_6  1  0.98657882  0.98657882  0.39926484  1
  Mg  Mg2_7  1  0.98657882  0.98657882  0.89926483  1
  Mg  Mg3_0  1  0.34811383  0.34811383  0.42787663  1
  Mg  Mg3_1  1  0.34811383  0.34811383  0.92787663  1
  Mg  Mg3_2  1  0.34811383  0.84811383  0.42787663  1
  Mg  Mg3_3  1  0.34811383  0.84811383  0.92787663  1
  Mg  Mg3_4  1  0.84811383  0.34811383  0.42787663  1
  Mg  Mg3_5  1  0.84811383  0.34811383  0.92787663  1
  Mg  Mg3_6  1  0.84811383  0.84811383  0.42787663  1
  Mg  Mg3_7  1  0.84811383  0.84811383  0.92787663  1
  Cd  Cd0_0  1  0.31902902  0.31902902  0.23645505  1
  Cd  Cd0_1  1  0.31902902  0.31902902  0.73645506  1
  Cd  Cd0_2  1  0.31902902  0.81902902  0.23645505  1
  Cd  Cd0_3  1  0.31902902  0.81902902  0.73645506  1
  Cd  Cd0_4  1  0.81902902  0.31902902  0.23645505  1
  Cd  Cd0_5  1  0.81902902  0.31902902  0.73645506  1
  Cd  Cd0_6  1  0.81902902  0.81902902  0.23645505  1
  Cd  Cd0_7  1  0.81902902  0.81902902  0.73645505  1
  Cd  Cd1_0  1  0.18097099  0.18097099  0.26354494  1
  Cd  Cd1_1  1  0.18097099  0.18097099  0.76354495  1
  Cd  Cd1_2  1  0.18097099  0.68097099  0.26354494  1
  Cd  Cd1_3  1  0.18097099  0.68097099  0.76354495  1
  Cd  Cd1_4  1  0.68097098  0.18097099  0.26354494  1
  Cd  Cd1_5  1  0.68097098  0.18097099  0.76354495  1
  Cd  Cd1_6  1  0.68097098  0.68097098  0.26354494  1
  Cd  Cd1_7  1  0.68097099  0.68097099  0.76354495  1
loop_
_geom_bond_atom_site_label_1
_geom_bond_atom_site_label_2
_geom_bond_distance
_geom_bond_site_symmetry_2
Mg0_0 Mg0_6 3.114307 1_455
Mg0_0 Mg0_6 3.114307 1_545
Mg0_0 Mg3_5 3.157813 1_454
Mg0_0 Mg3_3 3.157813 1_544
Mg0_0 Mg2_3 3.168391 1_544
Mg0_0 Mg2_5 3.168391 1_454
Mg0_0 Mg1_0 3.192359 1_555
Mg0_0 Mg1_4 3.193514 1_555
Mg0_0 Mg1_2 3.193514 1_555
Mg0_1 Mg0_7 3.114307 1_455
Mg0_1 Mg0_7 3.114307 1_545
Mg0_1 Mg3_2 3.157813 1_545
Mg0_1 Mg3_4 3.157813 1_455
Mg0_1 Mg2_4 3.168391 1_455
Mg0_1 Mg2_2 3.168391 1_545
Mg0_1 Mg1_1 3.192359 1_555
Mg0_1 Mg1_5 3.193514 1_555
Mg0_1 Mg1_3 3.193514 1_555
Mg0_2 Mg0_4 3.114307 1_555
Mg0_2 Mg0_4 3.114307 1_465
Mg0_2 Mg3_1 3.157813 1_554
Mg0_2 Mg3_7 3.157813 1_454
Mg0_2 Mg2_1 3.168391 1_554
Mg0_2 Mg2_7 3.168391 1_454
Mg0_2 Mg1_2 3.192359 1_555
Mg0_2 Mg1_0 3.193514 1_565
Mg0_2 Mg1_6 3.193514 1_555
Mg0_3 Mg0_5 3.114307 1_555
Mg0_3 Mg0_5 3.114307 1_465
Mg0_3 Mg3_6 3.157813 1_455
Mg0_3 Mg3_0 3.157813 1_555
Mg0_3 Mg2_6 3.168391 1_455
Mg0_3 Mg2_0 3.168391 1_555
Mg0_3 Mg1_3 3.192359 1_555
Mg0_3 Mg1_7 3.193514 1_555
Mg0_3 Mg1_1 3.193514 1_565
Mg0_4 Mg3_1 3.157813 1_554
Mg0_4 Mg3_7 3.157813 1_544
Mg0_4 Mg2_1 3.168391 1_554
Mg0_4 Mg2_7 3.168391 1_544
Mg0_4 Mg1_4 3.192359 1_555
Mg0_4 Mg1_0 3.193514 1_655
Mg0_4 Mg1_6 3.193514 1_555
Mg0_5 Mg3_6 3.157813 1_545
Mg0_5 Mg3_0 3.157813 1_555
Mg0_5 Mg2_0 3.168391 1_555
Mg0_5 Mg2_6 3.168391 1_545
Mg0_5 Mg1_5 3.192359 1_555
Mg0_5 Mg1_1 3.193514 1_655
Mg0_5 Mg1_7 3.193514 1_555
Mg0_6 Mg3_3 3.157813 1_554
Mg0_6 Mg3_5 3.157813 1_554
Mg0_6 Mg2_3 3.168391 1_554
Mg0_6 Mg2_5 3.168391 1_554
Mg0_6 Mg1_6 3.192359 1_555
Mg0_6 Mg1_2 3.193514 1_655
Mg0_6 Mg1_4 3.193514 1_565
Mg0_7 Mg3_2 3.157813 1_555
Mg0_7 Mg3_4 3.157813 1_555
Mg0_7 Mg2_4 3.168391 1_555
Mg0_7 Mg2_2 3.168391 1_555
Mg0_7 Mg1_7 3.192359 1_555
Mg0_7 Mg1_3 3.193514 1_655
Mg0_7 Mg1_5 3.193514 1_565
Mg1_0 Mg1_6 3.114307 1_545
Mg1_0 Mg1_6 3.114307 1_455
Mg1_0 Mg3_3 3.168391 1_544
Mg1_0 Mg3_5 3.168391 1_454
Mg1_0 Mg2_7 3.178362 1_444
Mg1_1 Mg1_7 3.114307 1_455
Mg1_1 Mg1_7 3.114307 1_545
Mg1_1 Mg3_4 3.168391 1_455
Mg1_1 Mg3_2 3.168391 1_545
Mg1_1 Mg2_6 3.178362 1_445
Mg1_2 Mg1_4 3.114307 1_555
Mg1_2 Mg1_4 3.114307 1_465
Mg1_2 Mg3_7 3.168391 1_454
Mg1_2 Mg3_1 3.168391 1_554
Mg1_2 Mg2_5 3.178362 1_454
Mg1_3 Mg1_5 3.114307 1_555
Mg1_3 Mg1_5 3.114307 1_465
Mg1_3 Mg3_0 3.168391 1_555
Mg1_3 Mg3_6 3.168391 1_455
Mg1_3 Mg2_4 3.178362 1_455
Mg1_4 Mg3_7 3.168391 1_544
Mg1_4 Mg3_1 3.168391 1_554
Mg1_4 Mg2_3 3.178362 1_544
Mg1_5 Mg3_0 3.168391 1_555
Mg1_5 Mg3_6 3.168391 1_545
Mg1_5 Mg2_2 3.178362 1_545
Mg1_6 Mg3_5 3.168391 1_554
Mg1_6 Mg3_3 3.168391 1_554
Mg1_6 Mg2_1 3.178362 1_554
Mg1_7 Mg3_4 3.168391 1_555
Mg1_7 Mg3_2 3.168391 1_555
Mg1_7 Mg2_0 3.178362 1_555
Mg2_0 Mg2_6 3.114307 1_455
Mg2_0 Mg2_6 3.114307 1_545
Mg2_0 Mg3_0 3.192359 1_555
Mg2_0 Mg3_4 3.193514 1_555
Mg2_0 Mg3_2 3.193514 1_555
Mg2_1 Mg2_7 3.114307 1_545
Mg2_1 Mg2_7 3.114307 1_455
Mg2_1 Mg3_1 3.192359 1_555
Mg2_1 Mg3_5 3.193514 1_555
Mg2_1 Mg3_3 3.193514 1_555
Mg2_2 Mg2_4 3.114307 1_465
Mg2_2 Mg2_4 3.114307 1_555
Mg2_2 Mg3_2 3.192359 1_555
Mg2_2 Mg3_0 3.193514 1_565
Mg2_2 Mg3_6 3.193514 1_555
Mg2_3 Mg2_5 3.114307 1_555
Mg2_3 Mg2_5 3.114307 1_465
Mg2_3 Mg3_3 3.192359 1_555
Mg2_3 Mg3_7 3.193514 1_555
Mg2_3 Mg3_1 3.193514 1_565
Mg2_4 Mg3_4 3.192359 1_555
Mg2_4 Mg3_0 3.193514 1_655
Mg2_4 Mg3_6 3.193514 1_555
Mg2_5 Mg3_5 3.192359 1_555
Mg2_5 Mg3_7 3.193514 1_555
Mg2_5 Mg3_1 3.193514 1_655
Mg2_6 Mg3_6 3.192359 1_555
Mg2_6 Mg3_4 3.193514 1_565
Mg2_6 Mg3_2 3.193514 1_655
Mg2_7 Mg3_7 3.192359 1_555
Mg2_7 Mg3_5 3.193514 1_565
Mg2_7 Mg3_3 3.193514 1_655
Mg3_0 Mg3_6 3.114307 1_545
Mg3_0 Mg3_6 3.114307 1_455
Mg3_1 Mg3_7 3.114307 1_545
Mg3_1 Mg3_7 3.114307 1_455
Mg3_2 Mg3_4 3.114307 1_555
Mg3_2 Mg3_4 3.114307 1_465
Mg3_3 Mg3_5 3.114307 1_555
Mg3_3 Mg3_5 3.114307 1_465
Cd0_0 Mg2_4 3.056178 1_455
Cd0_0 Mg2_2 3.056178 1_545
Cd0_0 Mg3_0 3.059431 1_555
Cd0_0 Mg0_4 3.073693 1_555
Cd0_0 Mg0_2 3.073693 1_555
Cd0_0 Mg1_2 3.087883 1_555
Cd0_0 Mg1_4 3.087883 1_555
Cd0_0 Cd0_6 3.114307 1_545
Cd0_0 Cd0_6 3.114307 1_455
Cd0_0 Cd1_0 3.186246 1_555
Cd0_0 Cd1_4 3.193937 1_555
Cd0_0 Cd1_2 3.193937 1_555
Cd0_1 Mg2_3 3.056178 1_545
Cd0_1 Mg2_5 3.056178 1_455
Cd0_1 Mg3_1 3.059431 1_555
Cd0_1 Mg0_5 3.073693 1_555
Cd0_1 Mg0_3 3.073693 1_555
Cd0_1 Mg1_3 3.087883 1_555
Cd0_1 Mg1_5 3.087883 1_555
Cd0_1 Cd0_7 3.114307 1_455
Cd0_1 Cd0_7 3.114307 1_545
Cd0_1 Cd1_1 3.186246 1_555
Cd0_1 Cd1_5 3.193937 1_555
Cd0_1 Cd1_3 3.193937 1_555
Cd0_2 Mg2_0 3.056178 1_555
Cd0_2 Mg2_6 3.056178 1_455
Cd0_2 Mg3_2 3.059431 1_555
Cd0_2 Mg0_6 3.073693 1_555
Cd0_2 Mg0_0 3.073693 1_565
Cd0_2 Mg1_6 3.087883 1_555
Cd0_2 Mg1_0 3.087883 1_565
Cd0_2 Cd0_4 3.114307 1_465
Cd0_2 Cd0_4 3.114307 1_555
Cd0_2 Cd1_2 3.186246 1_555
Cd0_2 Cd1_6 3.193937 1_555
Cd0_2 Cd1_0 3.193937 1_565
Cd0_3 Mg2_7 3.056178 1_455
Cd0_3 Mg2_1 3.056178 1_555
Cd0_3 Mg3_3 3.059431 1_555
Cd0_3 Mg0_1 3.073693 1_565
Cd0_3 Mg0_7 3.073693 1_555
Cd0_3 Mg1_7 3.087883 1_555
Cd0_3 Mg1_1 3.087883 1_565
Cd0_3 Cd0_5 3.114307 1_555
Cd0_3 Cd0_5 3.114307 1_465
Cd0_3 Cd1_3 3.186246 1_555
Cd0_3 Cd1_1 3.193937 1_565
Cd0_3 Cd1_7 3.193937 1_555
Cd0_4 Mg2_0 3.056178 1_555
Cd0_4 Mg2_6 3.056178 1_545
Cd0_4 Mg3_4 3.059431 1_555
Cd0_4 Mg0_6 3.073693 1_555
Cd0_4 Mg0_0 3.073693 1_655
Cd0_4 Mg1_6 3.087883 1_555
Cd0_4 Mg1_0 3.087883 1_655
Cd0_4 Cd1_4 3.186246 1_555
Cd0_4 Cd1_6 3.193937 1_555
Cd0_4 Cd1_0 3.193937 1_655
Cd0_5 Mg2_7 3.056178 1_545
Cd0_5 Mg2_1 3.056178 1_555
Cd0_5 Mg3_5 3.059431 1_555
Cd0_5 Mg0_7 3.073693 1_555
Cd0_5 Mg0_1 3.073693 1_655
Cd0_5 Mg1_7 3.087883 1_555
Cd0_5 Mg1_1 3.087883 1_655
Cd0_5 Cd1_5 3.186246 1_555
Cd0_5 Cd1_1 3.193937 1_655
Cd0_5 Cd1_7 3.193937 1_555
Cd0_6 Mg2_4 3.056178 1_555
Cd0_6 Mg2_2 3.056178 1_555
Cd0_6 Mg3_6 3.059431 1_555
Cd0_6 Mg0_4 3.073693 1_565
Cd0_6 Mg0_2 3.073693 1_655
Cd0_6 Mg1_2 3.087883 1_655
Cd0_6 Mg1_4 3.087883 1_565
Cd0_6 Cd1_6 3.186246 1_555
Cd0_6 Cd1_4 3.193937 1_565
Cd0_6 Cd1_2 3.193937 1_655
Cd0_7 Mg2_3 3.056178 1_555
Cd0_7 Mg2_5 3.056178 1_555
Cd0_7 Mg3_7 3.059431 1_555
Cd0_7 Mg0_5 3.073693 1_565
Cd0_7 Mg0_3 3.073693 1_655
Cd0_7 Mg1_3 3.087883 1_655
Cd0_7 Mg1_5 3.087883 1_565
Cd0_7 Cd1_7 3.186246 1_555
Cd0_7 Cd1_5 3.193937 1_565
Cd0_7 Cd1_3 3.193937 1_655
Cd1_0 Mg1_4 3.056178 1_555
Cd1_0 Mg1_2 3.056178 1_555
Cd1_0 Mg0_0 3.059431 1_555
Cd1_0 Mg3_2 3.073693 1_545
Cd1_0 Mg3_4 3.073693 1_455
Cd1_0 Mg2_2 3.087883 1_545
Cd1_0 Mg2_4 3.087883 1_455
Cd1_0 Cd1_6 3.114307 1_545
Cd1_0 Cd1_6 3.114307 1_455
Cd1_1 Mg1_5 3.056178 1_555
Cd1_1 Mg1_3 3.056178 1_555
Cd1_1 Mg0_1 3.059431 1_555
Cd1_1 Mg3_3 3.073693 1_545
Cd1_1 Mg3_5 3.073693 1_455
Cd1_1 Mg2_3 3.087883 1_545
Cd1_1 Mg2_5 3.087883 1_455
Cd1_1 Cd1_7 3.114307 1_545
Cd1_1 Cd1_7 3.114307 1_455
Cd1_2 Mg1_0 3.056178 1_565
Cd1_2 Mg1_6 3.056178 1_555
Cd1_2 Mg0_2 3.059431 1_555
Cd1_2 Mg3_6 3.073693 1_455
Cd1_2 Mg3_0 3.073693 1_555
Cd1_2 Mg2_6 3.087883 1_455
Cd1_2 Mg2_0 3.087883 1_555
Cd1_2 Cd1_4 3.114307 1_555
Cd1_2 Cd1_4 3.114307 1_465
Cd1_3 Mg1_1 3.056178 1_565
Cd1_3 Mg1_7 3.056178 1_555
Cd1_3 Mg0_3 3.059431 1_555
Cd1_3 Mg3_1 3.073693 1_555
Cd1_3 Mg3_7 3.073693 1_455
Cd1_3 Mg2_1 3.087883 1_555
Cd1_3 Mg2_7 3.087883 1_455
Cd1_3 Cd1_5 3.114307 1_555
Cd1_3 Cd1_5 3.114307 1_465
Cd1_4 Mg1_6 3.056178 1_555
Cd1_4 Mg1_0 3.056178 1_655
Cd1_4 Mg0_4 3.059431 1_555
Cd1_4 Mg3_6 3.073693 1_545
Cd1_4 Mg3_0 3.073693 1_555
Cd1_4 Mg2_0 3.087883 1_555
Cd1_4 Mg2_6 3.087883 1_545
Cd1_5 Mg1_7 3.056178 1_555
Cd1_5 Mg1_1 3.056178 1_655
Cd1_5 Mg0_5 3.059431 1_555
Cd1_5 Mg3_1 3.073693 1_555
Cd1_5 Mg3_7 3.073693 1_545
Cd1_5 Mg2_1 3.087883 1_555
Cd1_5 Mg2_7 3.087883 1_545
Cd1_6 Mg1_4 3.056178 1_565
Cd1_6 Mg1_2 3.056178 1_655
Cd1_6 Mg0_6 3.059431 1_555
Cd1_6 Mg3_2 3.073693 1_555
Cd1_6 Mg3_4 3.073693 1_555
Cd1_6 Mg2_2 3.087883 1_555
Cd1_6 Mg2_4 3.087883 1_555
Cd1_7 Mg1_3 3.056178 1_655
Cd1_7 Mg1_5 3.056178 1_565
Cd1_7 Mg0_7 3.059431 1_555
Cd1_7 Mg3_5 3.073693 1_555
Cd1_7 Mg3_3 3.073693 1_555
Cd1_7 Mg2_3 3.087883 1_555
Cd1_7 Mg2_5 3.087883 1_555
