# generated using pymatgen
data_Pr4CrS7
_symmetry_space_group_name_H-M   'P 1'
_cell_length_a   6.49621300
_cell_length_b   10.24716370
_cell_length_c   10.25205071
_cell_angle_alpha   120.09548075
_cell_angle_beta   90.00000000
_cell_angle_gamma   90.00000000
_symmetry_Int_Tables_number   1
_chemical_formula_structural   Pr4CrS7
_chemical_formula_sum   'Pr8 Cr2 S14'
_cell_volume   590.45479875
_cell_formula_units_Z   2
loop_
 _symmetry_equiv_pos_site_id
 _symmetry_equiv_pos_as_xyz
  1  'x, y, z'
loop_
 _atom_site_type_symbol
 _atom_site_label
 _atom_site_symmetry_multiplicity
 _atom_site_fract_x
 _atom_site_fract_y
 _atom_site_fract_z
 _atom_site_occupancy
  Pr  Pr0  1  0.46435700  0.99995800  0.99995200  1
  Pr  Pr1  1  0.96435700  0.00004200  0.00004800  1
  Pr  Pr2  1  0.26162900  0.25191600  0.39765200  1
  Pr  Pr3  1  0.26103600  0.60217700  0.85444200  1
  Pr  Pr4  1  0.26095400  0.14603000  0.74867800  1
  Pr  Pr5  1  0.76162900  0.74808400  0.60234800  1
  Pr  Pr6  1  0.76103600  0.39782300  0.14555800  1
  Pr  Pr7  1  0.76095400  0.85397000  0.25132200  1
  Cr  Cr0  1  0.84093300  0.33400200  0.66579000  1
  Cr  Cr1  1  0.34093300  0.66599800  0.33421000  1
  S  S0  1  0.70890400  0.15767600  0.25766300  1
  S  S1  1  0.70893100  0.74239000  0.90023400  1
  S  S2  1  0.70862200  0.09938700  0.84260000  1
  S  S3  1  0.20890400  0.84232400  0.74233700  1
  S  S4  1  0.20893100  0.25761000  0.09976600  1
  S  S5  1  0.20862200  0.90061300  0.15740000  1
  S  S6  1  0.99929400  0.10301100  0.51674000  1
  S  S7  1  0.00094000  0.48425900  0.58448700  1
  S  S8  1  0.99897300  0.41378300  0.89781200  1
  S  S9  1  0.49929400  0.89698900  0.48326000  1
  S  S10  1  0.50094000  0.51574100  0.41551300  1
  S  S11  1  0.49897300  0.58621700  0.10218800  1
  S  S12  1  0.47542700  0.33309500  0.66699900  1
  S  S13  1  0.97542700  0.66690500  0.33300100  1
loop_
_geom_bond_atom_site_label_1
_geom_bond_atom_site_label_2
_geom_bond_distance
_geom_bond_site_symmetry_2
Pr0 S2 2.794051 1_565
Pr0 S1 2.798130 1_555
Pr0 S0 2.798912 1_566
Pr0 S5 2.837213 1_556
Pr0 S3 2.839001 1_555
Pr0 S4 2.839292 1_566
Pr1 S5 2.794051 1_645
Pr1 S4 2.798130 1_655
Pr1 S3 2.798912 1_644
Pr1 S2 2.837213 1_554
Pr1 S0 2.839001 1_555
Pr1 S1 2.839292 1_544
Pr2 S7 2.762564 1_555
Pr2 S12 2.818225 1_555
Pr2 S6 2.931100 1_455
Pr2 S10 3.043449 1_555
Pr2 S4 3.102558 1_555
Pr2 S0 3.169357 1_555
Pr2 S5 3.201874 1_545
Pr3 S8 2.771932 1_455
Pr3 S12 2.814500 1_555
Pr3 S7 2.936102 1_555
Pr3 S11 3.046901 1_556
Pr3 S5 3.096638 1_556
Pr3 S1 3.173985 1_555
Pr3 S3 3.213668 1_555
Pr4 S6 2.772460 1_455
Pr4 S12 2.815425 1_555
Pr4 S8 2.924882 1_455
Pr4 S9 3.057763 1_545
Pr4 S3 3.098545 1_545
Pr4 S2 3.174031 1_555
Pr4 S4 3.201513 1_556
Pr5 S10 2.762564 1_555
Pr5 S13 2.818225 1_555
Pr5 S9 2.931100 1_555
Pr5 S7 3.043449 1_655
Pr5 S1 3.102558 1_555
Pr5 S3 3.169357 1_655
Pr5 S2 3.201874 1_565
Pr6 S11 2.771932 1_555
Pr6 S13 2.814500 1_555
Pr6 S10 2.936102 1_555
Pr6 S8 3.046901 1_554
Pr6 S2 3.096638 1_554
Pr6 S4 3.173985 1_655
Pr6 S0 3.213668 1_555
Pr7 S9 2.772460 1_555
Pr7 S13 2.815425 1_555
Pr7 S11 2.924882 1_555
Pr7 S6 3.057763 1_565
Pr7 S0 3.098545 1_565
Pr7 S5 3.174031 1_655
Pr7 S1 3.201513 1_554
Cr0 S6 2.317032 1_555
Cr0 S8 2.330309 1_555
Cr0 S7 2.330875 1_655
Cr0 S12 2.374480 1_555
Cr1 S9 2.317032 1_555
Cr1 S11 2.330309 1_555
Cr1 S10 2.330875 1_555
Cr1 S13 2.374480 1_455
