# generated using pymatgen
data_MgTiO2
_symmetry_space_group_name_H-M   'P 1'
_cell_length_a   2.88568700
_cell_length_b   7.89759890
_cell_length_c   8.40479363
_cell_angle_alpha   86.81628728
_cell_angle_beta   80.36634098
_cell_angle_gamma   79.49236391
_symmetry_Int_Tables_number   1
_chemical_formula_structural   MgTiO2
_chemical_formula_sum   'Mg4 Ti4 O8'
_cell_volume   185.61539061
_cell_formula_units_Z   4
loop_
 _symmetry_equiv_pos_site_id
 _symmetry_equiv_pos_as_xyz
  1  'x, y, z'
loop_
 _atom_site_type_symbol
 _atom_site_label
 _atom_site_symmetry_multiplicity
 _atom_site_fract_x
 _atom_site_fract_y
 _atom_site_fract_z
 _atom_site_occupancy
  Mg  Mg0  1  0.83972100  0.55893700  0.24572400  1
  Mg  Mg1  1  0.16027900  0.44106300  0.75427600  1
  Mg  Mg2  1  0.59441100  0.22579300  0.07502400  1
  Mg  Mg3  1  0.40558900  0.77420700  0.92497600  1
  Ti  Ti0  1  0.05719200  0.79593800  0.59079900  1
  Ti  Ti1  1  0.65048000  0.91182400  0.28045100  1
  Ti  Ti2  1  0.34952000  0.08817600  0.71954900  1
  Ti  Ti3  1  0.94280800  0.20406200  0.40920100  1
  O  O0  1  0.33121700  0.28022300  0.56298500  1
  O  O1  1  0.88264400  0.91938600  0.82442600  1
  O  O2  1  0.11735600  0.08061400  0.17557400  1
  O  O3  1  0.66878300  0.71977700  0.43701500  1
  O  O4  1  0.57685700  0.62742200  0.73223600  1
  O  O5  1  0.29153400  0.74077400  0.16008100  1
  O  O6  1  0.42314300  0.37257800  0.26776400  1
  O  O7  1  0.70846600  0.25922600  0.83991900  1
loop_
_geom_bond_atom_site_label_1
_geom_bond_atom_site_label_2
_geom_bond_distance
_geom_bond_site_symmetry_2
Mg0 O3 2.043190 1_555
Mg0 O6 2.045983 1_555
Mg0 O6 2.050667 1_655
Mg0 O5 2.126159 1_555
Mg0 O5 2.129388 1_655
Mg1 O0 2.043190 1_555
Mg1 O4 2.045983 1_555
Mg1 O4 2.050667 1_455
Mg1 O7 2.126159 1_555
Mg1 O7 2.129388 1_455
Mg2 O7 1.959266 1_554
Mg2 O6 1.985946 1_555
Mg2 O2 1.998549 1_655
Mg2 O2 2.000652 1_555
Mg3 O5 1.959266 1_556
Mg3 O4 1.985946 1_555
Mg3 O1 1.998549 1_455
Mg3 O1 2.000652 1_555
O0 Ti2 1.951184 1_555
O0 Ti3 2.020601 1_555
O0 Ti3 2.026271 1_455
O1 Ti2 2.120402 1_565
O1 Ti2 2.120407 1_665
O1 Ti0 2.182291 1_655
O2 Ti1 2.120402 1_545
O2 Ti1 2.120407 1_445
O2 Ti3 2.182291 1_455
O3 Ti1 1.951184 1_555
O3 Ti0 2.020601 1_555
O3 Ti0 2.026271 1_655
O4 Ti0 2.247492 1_655
O4 Ti0 2.264091 1_555
O5 Ti1 2.210072 1_455
O5 Ti1 2.221301 1_555
O6 Ti3 2.247492 1_455
O6 Ti3 2.264091 1_555
O7 Ti2 2.210072 1_655
O7 Ti2 2.221301 1_555
