# generated using pymatgen
data_Mg(ClO7)2
_symmetry_space_group_name_H-M   'P 1'
_cell_length_a   4.90216700
_cell_length_b   7.45036700
_cell_length_c   12.91138000
_cell_angle_alpha   90.00000000
_cell_angle_beta   90.00000000
_cell_angle_gamma   90.00000000
_symmetry_Int_Tables_number   1
_chemical_formula_structural   Mg(ClO7)2
_chemical_formula_sum   'Mg2 Cl4 O28'
_cell_volume   471.56159896
_cell_formula_units_Z   2
loop_
 _symmetry_equiv_pos_site_id
 _symmetry_equiv_pos_as_xyz
  1  'x, y, z'
loop_
 _atom_site_type_symbol
 _atom_site_label
 _atom_site_symmetry_multiplicity
 _atom_site_fract_x
 _atom_site_fract_y
 _atom_site_fract_z
 _atom_site_occupancy
  Mg  Mg0  1  0.24232000  0.50000000  0.74946400  1
  Mg  Mg1  1  0.74232000  0.00000000  0.25053600  1
  Cl  Cl0  1  0.00375700  0.50000000  0.08498300  1
  Cl  Cl1  1  0.50375700  0.00000000  0.91501700  1
  Cl  Cl2  1  0.50368800  0.50000000  0.41859500  1
  Cl  Cl3  1  0.00368800  0.00000000  0.58140500  1
  O  O0  1  0.29971600  0.50000000  0.08445800  1
  O  O1  1  0.79971600  0.00000000  0.91554200  1
  O  O2  1  0.80182800  0.50000000  0.41667600  1
  O  O3  1  0.30182800  0.00000000  0.58332400  1
  O  O4  1  0.90660300  0.50000000  0.19233500  1
  O  O5  1  0.40660300  0.00000000  0.80766500  1
  O  O6  1  0.40701400  0.50000000  0.31113600  1
  O  O7  1  0.90701400  0.00000000  0.68886400  1
  O  O8  1  0.90468000  0.66036900  0.03272000  1
  O  O9  1  0.90468000  0.33963100  0.03272000  1
  O  O10  1  0.40468000  0.83963100  0.96728000  1
  O  O11  1  0.40468000  0.16036900  0.96728000  1
  O  O12  1  0.40585100  0.65945100  0.47171600  1
  O  O13  1  0.40585100  0.34054900  0.47171600  1
  O  O14  1  0.90585100  0.84054900  0.52828400  1
  O  O15  1  0.90585100  0.15945100  0.52828400  1
  O  O16  1  0.57757600  0.50000000  0.85502200  1
  O  O17  1  0.07757600  0.00000000  0.14497800  1
  O  O18  1  0.91120600  0.50000000  0.64236200  1
  O  O19  1  0.41120600  0.00000000  0.35763800  1
  O  O20  1  0.91144100  0.66119600  0.80306700  1
  O  O21  1  0.91144100  0.33880400  0.80306700  1
  O  O22  1  0.41144100  0.83880400  0.19693300  1
  O  O23  1  0.41144100  0.16119600  0.19693300  1
  O  O24  1  0.57817400  0.65807600  0.69737100  1
  O  O25  1  0.57817400  0.34192400  0.69737100  1
  O  O26  1  0.07817400  0.84192400  0.30262900  1
  O  O27  1  0.07817400  0.15807600  0.30262900  1
loop_
_geom_bond_atom_site_label_1
_geom_bond_atom_site_label_2
_geom_bond_distance
_geom_bond_site_symmetry_2
Mg0 O18 2.132354 1_455
Mg0 O24 2.133094 1_555
Mg0 O25 2.133094 1_555
Mg0 O20 2.133606 1_455
Mg0 O21 2.133606 1_455
Mg0 O16 2.135070 1_555
Mg1 O19 2.132354 1_555
Mg1 O27 2.133094 1_655
Mg1 O26 2.133094 1_645
Mg1 O23 2.133606 1_555
Mg1 O22 2.133606 1_545
Mg1 O17 2.135070 1_655
Cl0 O0 1.450856 1_555
Cl0 O8 1.455610 1_455
Cl0 O9 1.455610 1_455
Cl0 O4 1.465605 1_455
Cl1 O1 1.450856 1_555
Cl1 O11 1.455610 1_555
Cl1 O10 1.455610 1_545
Cl1 O5 1.465605 1_555
Cl2 O12 1.453172 1_555
Cl2 O13 1.453172 1_555
Cl2 O2 1.461742 1_555
Cl2 O6 1.466149 1_555
Cl3 O15 1.453172 1_455
Cl3 O14 1.453172 1_445
Cl3 O3 1.461742 1_555
Cl3 O7 1.466149 1_455
