# generated using pymatgen
data_CsMoAsH2O7
_symmetry_space_group_name_H-M   'P 1'
_cell_length_a   7.78747718
_cell_length_b   9.92379012
_cell_length_c   11.01175018
_cell_angle_alpha   64.37220966
_cell_angle_beta   70.21041483
_cell_angle_gamma   73.76221635
_symmetry_Int_Tables_number   1
_chemical_formula_structural   CsMoAsH2O7
_chemical_formula_sum   'Cs4 Mo4 As4 H8 O28'
_cell_volume   713.01685122
_cell_formula_units_Z   4
loop_
 _symmetry_equiv_pos_site_id
 _symmetry_equiv_pos_as_xyz
  1  'x, y, z'
loop_
 _atom_site_type_symbol
 _atom_site_label
 _atom_site_symmetry_multiplicity
 _atom_site_fract_x
 _atom_site_fract_y
 _atom_site_fract_z
 _atom_site_occupancy
  Cs  Cs0  1  0.67648273  0.69548192  0.33027790  1
  Cs  Cs1  1  0.32351727  0.30451808  0.66972210  1
  Cs  Cs2  1  0.80317396  0.31857570  0.05016255  1
  Cs  Cs3  1  0.19682604  0.68142430  0.94983745  1
  Mo  Mo0  1  0.12605512  0.75755587  0.36720688  1
  Mo  Mo1  1  0.87394488  0.24244413  0.63279312  1
  Mo  Mo2  1  0.86798010  0.68746445  0.69280151  1
  Mo  Mo3  1  0.13201990  0.31253555  0.30719849  1
  As  As0  1  0.20372385  0.95814834  0.55750810  1
  As  As1  1  0.79627615  0.04185166  0.44249190  1
  As  As2  1  0.69311256  0.92306759  0.86584078  1
  As  As3  1  0.30688744  0.07693241  0.13415922  1
  H  H0  1  0.49180949  0.87145467  0.61133897  1
  H  H1  1  0.50819051  0.12854533  0.38866103  1
  H  H2  1  0.67919689  0.00106976  0.03195688  1
  H  H3  1  0.32080311  0.99893024  0.96804312  1
  H  H4  1  0.47210666  0.53726580  0.18097961  1
  H  H5  1  0.52789334  0.46273420  0.81902039  1
  H  H6  1  0.51790821  0.69361945  0.06687954  1
  H  H7  1  0.48209179  0.30638055  0.93312046  1
  O  O0  1  0.08965064  0.84561338  0.54187705  1
  O  O1  1  0.91034936  0.15438662  0.45812295  1
  O  O2  1  0.29942930  0.08978333  0.40426488  1
  O  O3  1  0.70057070  0.91021667  0.59573512  1
  O  O4  1  0.07927414  0.03505728  0.67691507  1
  O  O5  1  0.92072586  0.96494272  0.32308493  1
  O  O6  1  0.38594657  0.82787641  0.61909451  1
  O  O7  1  0.61405343  0.17212359  0.38090549  1
  O  O8  1  0.69178219  0.09944841  0.73910666  1
  O  O9  1  0.30821781  0.90055159  0.26089334  1
  O  O10  1  0.85678765  0.78916224  0.81814656  1
  O  O11  1  0.14321235  0.21083776  0.18185344  1
  O  O12  1  0.48048878  0.87936717  0.92456223  1
  O  O13  1  0.51951122  0.12063283  0.07543777  1
  O  O14  1  0.77095844  0.92336998  0.99528684  1
  O  O15  1  0.22904156  0.07663002  0.00471316  1
  O  O16  1  0.03558670  0.55015554  0.76114382  1
  O  O17  1  0.96441330  0.44984446  0.23885618  1
  O  O18  1  0.67085129  0.60916044  0.77738690  1
  O  O19  1  0.32914871  0.39083956  0.22261310  1
  O  O20  1  0.09882873  0.72406402  0.23648926  1
  O  O21  1  0.90117127  0.27593598  0.76351074  1
  O  O22  1  0.29363438  0.61514429  0.42983678  1
  O  O23  1  0.70636562  0.38485571  0.57016322  1
  O  O24  1  0.92064249  0.67692288  0.51619091  1
  O  O25  1  0.07935751  0.32307712  0.48380909  1
  O  O26  1  0.57036103  0.59867357  0.13056892  1
  O  O27  1  0.42963897  0.40132643  0.86943108  1
loop_
_geom_bond_atom_site_label_1
_geom_bond_atom_site_label_2
_geom_bond_distance
_geom_bond_site_symmetry_2
Cs0 O22 3.014358 1_555
Cs0 O23 3.083095 1_555
Cs0 O17 3.085597 1_555
Cs0 O9 3.134421 1_555
Cs0 O20 3.151649 1_655
Cs0 O26 3.153478 1_555
Cs0 O24 3.155016 1_555
Cs0 O14 3.337592 1_554
Cs0 H2 3.370402 1_565
Cs0 O5 3.651560 1_555
Cs0 O6 3.746975 1_555
Cs1 O23 3.014358 1_555
Cs1 O22 3.083095 1_555
Cs1 O16 3.085597 1_555
Cs1 O8 3.134421 1_555
Cs1 O21 3.151649 1_455
Cs1 O27 3.153478 1_555
Cs1 O25 3.155016 1_555
Cs1 O15 3.337592 1_556
Cs1 H3 3.370402 1_545
Cs1 O4 3.651560 1_555
Cs1 O7 3.746975 1_555
Cs2 O11 3.151799 1_655
Cs2 O26 3.165599 1_555
Cs2 O21 3.173146 1_554
Cs2 O13 3.217660 1_555
Cs2 H7 3.227099 1_554
Cs2 H4 3.239204 1_555
Cs2 O7 3.245302 1_555
Cs2 O16 3.284039 1_654
Cs2 O18 3.367662 1_554
Cs2 O15 3.532207 1_655
Cs2 O17 3.551621 1_555
Cs2 O19 3.563444 1_555
Cs2 O5 3.623344 1_545
Cs3 O10 3.151799 1_455
Cs3 O27 3.165599 1_555
Cs3 O20 3.173146 1_556
Cs3 O12 3.217660 1_555
Cs3 H6 3.227099 1_556
Cs3 H5 3.239204 1_555
Cs3 O6 3.245302 1_555
Cs3 O17 3.284039 1_456
Cs3 O19 3.367662 1_556
Cs3 O14 3.532207 1_455
Cs3 O16 3.551621 1_555
Cs3 O18 3.563444 1_555
Cs3 O4 3.623344 1_565
Mo0 O20 1.699206 1_555
Mo0 O22 1.706130 1_555
Mo0 O24 1.921943 1_455
Mo0 O9 1.990181 1_555
Mo0 O5 2.202079 1_455
Mo0 O0 2.343026 1_555
Mo1 O21 1.699206 1_555
Mo1 O23 1.706130 1_555
Mo1 O25 1.921943 1_655
Mo1 O8 1.990181 1_555
Mo1 O4 2.202079 1_655
Mo1 O1 2.343026 1_555
Mo2 O18 1.703190 1_555
Mo2 O16 1.705915 1_655
Mo2 O24 1.890313 1_555
Mo2 O10 2.001408 1_555
Mo2 O3 2.239775 1_555
Mo2 O0 2.349748 1_655
Mo3 O19 1.703190 1_555
Mo3 O17 1.705915 1_455
Mo3 O25 1.890313 1_555
Mo3 O11 2.001408 1_555
Mo3 O2 2.239775 1_555
Mo3 O1 2.349748 1_455
As0 O4 1.685897 1_565
As0 O0 1.700177 1_555
As0 O2 1.701616 1_565
As0 O6 1.735573 1_555
As1 O5 1.685897 1_545
As1 O1 1.700177 1_555
As1 O3 1.701616 1_545
As1 O7 1.735573 1_555
As2 O12 1.667899 1_555
As2 O10 1.693962 1_555
As2 O8 1.702365 1_565
As2 O14 1.728932 1_555
As3 O13 1.667899 1_555
As3 O11 1.693962 1_555
As3 O9 1.702365 1_545
As3 O15 1.728932 1_555
H0 O6 0.996856 1_555
H0 O3 1.709934 1_555
H1 O7 0.996856 1_555
H1 O2 1.709934 1_555
H2 O14 1.016887 1_544
H2 O13 1.564157 1_555
H3 O15 1.016887 1_566
H3 O12 1.564157 1_555
H4 O26 0.972369 1_555
H5 O27 0.972369 1_555
H6 O26 0.976531 1_555
H7 O27 0.976531 1_555
