# generated using pymatgen
data_Zn3As2
_symmetry_space_group_name_H-M   'P 1'
_cell_length_a   14.64813095
_cell_length_b   14.64813095
_cell_length_c   14.64813095
_cell_angle_alpha   132.01612937
_cell_angle_beta   132.01612937
_cell_angle_gamma   70.20355349
_symmetry_Int_Tables_number   1
_chemical_formula_structural   Zn3As2
_chemical_formula_sum   'Zn48 As32'
_cell_volume   1700.52062036
_cell_formula_units_Z   16
loop_
 _symmetry_equiv_pos_site_id
 _symmetry_equiv_pos_as_xyz
  1  'x, y, z'
loop_
 _atom_site_type_symbol
 _atom_site_label
 _atom_site_symmetry_multiplicity
 _atom_site_fract_x
 _atom_site_fract_y
 _atom_site_fract_z
 _atom_site_occupancy
  Zn  Zn0  1  0.43476700  0.45723500  0.27284900  1
  Zn  Zn1  1  0.93476700  0.66191800  0.97753100  1
  Zn  Zn2  1  0.70723500  0.18476700  0.77284900  1
  Zn  Zn3  1  0.20723500  0.43438700  0.52246900  1
  Zn  Zn4  1  0.31523300  0.79276500  0.22715100  1
  Zn  Zn5  1  0.81523300  0.58808200  0.52246900  1
  Zn  Zn6  1  0.04276500  0.06523300  0.72715100  1
  Zn  Zn7  1  0.54276500  0.81561300  0.97753100  1
  Zn  Zn8  1  0.68438700  0.95723500  0.02246900  1
  Zn  Zn9  1  0.18438700  0.16191800  0.72715100  1
  Zn  Zn10  1  0.91191800  0.68476700  0.47753100  1
  Zn  Zn11  1  0.41191800  0.93438700  0.22715100  1
  Zn  Zn12  1  0.06561300  0.29276500  0.47753100  1
  Zn  Zn13  1  0.56561300  0.08808200  0.77284900  1
  Zn  Zn14  1  0.83808200  0.56523300  0.02246900  1
  Zn  Zn15  1  0.33808200  0.31561300  0.27284900  1
  Zn  Zn16  1  0.69280800  0.42376300  0.50200400  1
  Zn  Zn17  1  0.19280800  0.69080400  0.26904500  1
  Zn  Zn18  1  0.67376300  0.44280800  0.00200400  1
  Zn  Zn19  1  0.17376300  0.17175900  0.23095500  1
  Zn  Zn20  1  0.05719200  0.82623700  0.99799600  1
  Zn  Zn21  1  0.55719200  0.55919600  0.23095500  1
  Zn  Zn22  1  0.07623700  0.80719200  0.49799600  1
  Zn  Zn23  1  0.57623700  0.07824100  0.26904500  1
  Zn  Zn24  1  0.42175900  0.92376300  0.73095500  1
  Zn  Zn25  1  0.92175900  0.19080400  0.49799600  1
  Zn  Zn26  1  0.94080400  0.94280800  0.76904500  1
  Zn  Zn27  1  0.44080400  0.67175900  0.99799600  1
  Zn  Zn28  1  0.32824100  0.32623700  0.76904500  1
  Zn  Zn29  1  0.82824100  0.05919600  0.00200400  1
  Zn  Zn30  1  0.80919600  0.30719200  0.73095500  1
  Zn  Zn31  1  0.30919600  0.57824100  0.50200400  1
  Zn  Zn32  1  0.45927100  0.20012000  0.01557200  1
  Zn  Zn33  1  0.95927100  0.94369900  0.25915100  1
  Zn  Zn34  1  0.45012000  0.20927100  0.51557200  1
  Zn  Zn35  1  0.95012000  0.43454800  0.24084900  1
  Zn  Zn36  1  0.29072900  0.04988000  0.48442800  1
  Zn  Zn37  1  0.79072900  0.30630100  0.24084900  1
  Zn  Zn38  1  0.29988000  0.04072900  0.98442800  1
  Zn  Zn39  1  0.79988000  0.81545200  0.25915100  1
  Zn  Zn40  1  0.68454800  0.70012000  0.74084900  1
  Zn  Zn41  1  0.18454800  0.44369900  0.98442800  1
  Zn  Zn42  1  0.19369900  0.70927100  0.75915100  1
  Zn  Zn43  1  0.69369900  0.93454800  0.48442800  1
  Zn  Zn44  1  0.06545200  0.54988000  0.75915100  1
  Zn  Zn45  1  0.56545200  0.80630100  0.51557200  1
  Zn  Zn46  1  0.55630100  0.54072900  0.74084900  1
  Zn  Zn47  1  0.05630100  0.31545200  0.01557200  1
  As  As0  1  0.00000000  0.00000000  0.00000000  1
  As  As1  1  0.50000000  0.50000000  0.00000000  1
  As  As2  1  0.25000000  0.75000000  0.50000000  1
  As  As3  1  0.75000000  0.25000000  0.50000000  1
  As  As4  1  0.25000000  0.25000000  0.00000000  1
  As  As5  1  0.75000000  0.75000000  0.00000000  1
  As  As6  1  0.50000000  0.00000000  0.50000000  1
  As  As7  1  0.00000000  0.50000000  0.50000000  1
  As  As8  1  0.37500000  0.12500000  0.75000000  1
  As  As9  1  0.87500000  0.12500000  0.25000000  1
  As  As10  1  0.37500000  0.12500000  0.25000000  1
  As  As11  1  0.87500000  0.62500000  0.25000000  1
  As  As12  1  0.87500000  0.62500000  0.75000000  1
  As  As13  1  0.37500000  0.62500000  0.25000000  1
  As  As14  1  0.37500000  0.62500000  0.75000000  1
  As  As15  1  0.87500000  0.12500000  0.75000000  1
  As  As16  1  0.10509700  0.87500000  0.73009700  1
  As  As17  1  0.60509700  0.87500000  0.23009700  1
  As  As18  1  0.12500000  0.85509700  0.23009700  1
  As  As19  1  0.62500000  0.39490300  0.26990300  1
  As  As20  1  0.64490300  0.37500000  0.76990300  1
  As  As21  1  0.14490300  0.37500000  0.26990300  1
  As  As22  1  0.12500000  0.35509700  0.73009700  1
  As  As23  1  0.62500000  0.89490300  0.76990300  1
  As  As24  1  0.50937300  0.50937300  0.51874500  1
  As  As25  1  0.00937300  0.49062700  0.00000000  1
  As  As26  1  0.75937300  0.25937300  0.01874500  1
  As  As27  1  0.25937300  0.24062700  0.50000000  1
  As  As28  1  0.24062700  0.74062700  0.98125500  1
  As  As29  1  0.74062700  0.75937300  0.50000000  1
  As  As30  1  0.99062700  0.99062700  0.48125500  1
  As  As31  1  0.49062700  0.00937300  0.00000000  1
loop_
_geom_bond_atom_site_label_1
_geom_bond_atom_site_label_2
_geom_bond_distance
_geom_bond_site_symmetry_2
As0 Zn29 2.381135 1_455
As0 Zn20 2.381135 1_544
As0 Zn26 2.381135 1_444
As0 Zn19 2.381135 1_555
As1 Zn21 2.381135 1_555
As1 Zn28 2.381135 1_554
As1 Zn27 2.381135 1_554
As1 Zn18 2.381135 1_555
As2 Zn17 2.381135 1_555
As2 Zn31 2.381135 1_555
As2 Zn22 2.381135 1_555
As2 Zn24 2.381135 1_555
As3 Zn25 2.381135 1_555
As3 Zn16 2.381135 1_555
As3 Zn23 2.381135 1_555
As3 Zn30 2.381135 1_555
As4 Zn0 2.712332 1_555
As4 Zn6 2.712332 1_554
As4 Zn15 2.712339 1_555
As4 Zn9 2.712339 1_554
As4 Zn41 2.784364 1_554
As4 Zn47 2.784364 1_555
As4 Zn38 2.784364 1_554
As4 Zn32 2.784364 1_555
As5 Zn8 2.712325 1_555
As5 Zn7 2.712325 1_554
As5 Zn1 2.712339 1_554
As5 Zn14 2.712339 1_555
As5 Zn39 2.784364 1_555
As5 Zn40 2.784364 1_554
As5 Zn33 2.784364 1_555
As5 Zn46 2.784364 1_554
As6 Zn2 2.712332 1_555
As6 Zn4 2.712332 1_545
As6 Zn11 2.712339 1_545
As6 Zn13 2.712339 1_555
As6 Zn34 2.784364 1_555
As6 Zn43 2.784364 1_545
As6 Zn36 2.784364 1_555
As6 Zn45 2.784364 1_545
As7 Zn12 2.712325 1_555
As7 Zn3 2.712325 1_555
As7 Zn5 2.712339 1_455
As7 Zn10 2.712339 1_455
As7 Zn42 2.784364 1_555
As7 Zn37 2.784364 1_455
As7 Zn44 2.784364 1_555
As7 Zn35 2.784364 1_455
As8 Zn13 2.483736 1_555
As8 Zn9 2.483736 1_555
As8 Zn32 2.574701 1_556
As8 Zn36 2.574701 1_555
As8 Zn24 2.650191 1_545
As8 Zn28 2.650191 1_555
As9 Zn12 2.483743 1_655
As9 Zn8 2.483743 1_545
As9 Zn33 2.574701 1_545
As9 Zn37 2.574701 1_555
As9 Zn25 2.650191 1_555
As9 Zn29 2.650191 1_555
As10 Zn15 2.483736 1_555
As10 Zn11 2.483736 1_545
As10 Zn38 2.574701 1_554
As10 Zn34 2.574701 1_555
As10 Zn23 2.650191 1_555
As10 Zn19 2.650191 1_555
As11 Zn10 2.483736 1_555
As11 Zn14 2.483736 1_555
As11 Zn35 2.574701 1_555
As11 Zn39 2.574701 1_555
As11 Zn22 2.650191 1_655
As11 Zn18 2.650191 1_555
As12 Zn1 2.483736 1_555
As12 Zn5 2.483736 1_555
As12 Zn44 2.574701 1_655
As12 Zn40 2.574701 1_555
As12 Zn20 2.650191 1_655
As12 Zn16 2.650191 1_555
As13 Zn4 2.483750 1_555
As13 Zn0 2.483750 1_555
As13 Zn45 2.574701 1_555
As13 Zn41 2.574701 1_554
As13 Zn21 2.650191 1_555
As13 Zn17 2.650191 1_555
As14 Zn7 2.483743 1_555
As14 Zn3 2.483743 1_555
As14 Zn46 2.574701 1_555
As14 Zn42 2.574701 1_555
As14 Zn31 2.650191 1_555
As14 Zn27 2.650191 1_555
As15 Zn6 2.483750 1_655
As15 Zn2 2.483750 1_555
As15 Zn47 2.574701 1_656
As15 Zn43 2.574701 1_545
As15 Zn30 2.650191 1_555
As15 Zn26 2.650191 1_545
As16 Zn42 2.503675 1_555
As16 Zn38 2.503675 1_565
As16 Zn22 2.562027 1_555
As16 Zn26 2.562027 1_455
As16 Zn10 2.642967 1_455
As16 Zn6 2.642967 1_565
As17 Zn43 2.503675 1_555
As17 Zn39 2.503675 1_555
As17 Zn23 2.562027 1_565
As17 Zn27 2.562027 1_554
As17 Zn11 2.642967 1_555
As17 Zn7 2.642974 1_554
As18 Zn33 2.503675 1_455
As18 Zn36 2.503675 1_565
As18 Zn20 2.562027 1_554
As18 Zn17 2.562027 1_555
As18 Zn1 2.642967 1_454
As18 Zn4 2.642967 1_555
As19 Zn32 2.503675 1_555
As19 Zn37 2.503675 1_555
As19 Zn16 2.562027 1_555
As19 Zn21 2.562027 1_555
As19 Zn5 2.642967 1_555
As19 Zn0 2.642967 1_555
As20 Zn46 2.503675 1_555
As20 Zn34 2.503675 1_555
As20 Zn30 2.562027 1_555
As20 Zn18 2.562027 1_556
As20 Zn14 2.642967 1_556
As20 Zn2 2.642967 1_555
As21 Zn35 2.503675 1_455
As21 Zn47 2.503675 1_555
As21 Zn31 2.562027 1_555
As21 Zn19 2.562027 1_555
As21 Zn15 2.642967 1_555
As21 Zn3 2.642974 1_555
As22 Zn44 2.503675 1_555
As22 Zn41 2.503675 1_555
As22 Zn25 2.562027 1_455
As22 Zn28 2.562027 1_555
As22 Zn9 2.642967 1_555
As22 Zn12 2.642974 1_555
As23 Zn45 2.503675 1_555
As23 Zn40 2.503675 1_555
As23 Zn24 2.562027 1_555
As23 Zn29 2.562027 1_566
As23 Zn13 2.642967 1_565
As23 Zn8 2.642974 1_556
As24 Zn0 2.522840 1_555
As24 Zn15 2.522861 1_555
As24 Zn40 2.547094 1_555
As24 Zn46 2.547110 1_555
As24 Zn16 2.653411 1_555
As24 Zn31 2.653424 1_555
As25 Zn14 2.522861 1_455
As25 Zn1 2.522861 1_454
As25 Zn47 2.547096 1_555
As25 Zn41 2.547096 1_554
As25 Zn17 2.653418 1_555
As25 Zn30 2.653418 1_454
As26 Zn2 2.522840 1_554
As26 Zn13 2.522861 1_554
As26 Zn35 2.547094 1_555
As26 Zn37 2.547110 1_555
As26 Zn18 2.653411 1_555
As26 Zn29 2.653424 1_555
As27 Zn12 2.522861 1_555
As27 Zn3 2.522861 1_555
As27 Zn36 2.547096 1_555
As27 Zn34 2.547096 1_555
As27 Zn28 2.653418 1_555
As27 Zn19 2.653418 1_555
As28 Zn4 2.522840 1_556
As28 Zn11 2.522861 1_556
As28 Zn44 2.547094 1_555
As28 Zn42 2.547110 1_555
As28 Zn20 2.653411 1_555
As28 Zn27 2.653424 1_555
As29 Zn5 2.522861 1_555
As29 Zn10 2.522861 1_555
As29 Zn45 2.547096 1_555
As29 Zn43 2.547096 1_555
As29 Zn21 2.653418 1_555
As29 Zn26 2.653418 1_555
As30 Zn6 2.522840 1_665
As30 Zn9 2.522861 1_665
As30 Zn39 2.547094 1_555
As30 Zn33 2.547110 1_555
As30 Zn22 2.653411 1_655
As30 Zn25 2.653424 1_565
As31 Zn8 2.522861 1_545
As31 Zn7 2.522861 1_544
As31 Zn38 2.547096 1_554
As31 Zn32 2.547096 1_555
As31 Zn24 2.653418 1_544
As31 Zn23 2.653418 1_555
