# generated using pymatgen
data_Ba4Fe3Se10
_symmetry_space_group_name_H-M   'P 1'
_cell_length_a   8.80546500
_cell_length_b   8.86873300
_cell_length_c   12.89417870
_cell_angle_alpha   67.37105827
_cell_angle_beta   90.00000000
_cell_angle_gamma   90.00000000
_symmetry_Int_Tables_number   1
_chemical_formula_structural   Ba4Fe3Se10
_chemical_formula_sum   'Ba8 Fe6 Se20'
_cell_volume   929.43020156
_cell_formula_units_Z   2
loop_
 _symmetry_equiv_pos_site_id
 _symmetry_equiv_pos_as_xyz
  1  'x, y, z'
loop_
 _atom_site_type_symbol
 _atom_site_label
 _atom_site_symmetry_multiplicity
 _atom_site_fract_x
 _atom_site_fract_y
 _atom_site_fract_z
 _atom_site_occupancy
  Ba  Ba0  1  0.12217400  0.43959900  0.33390300  1
  Ba  Ba1  1  0.37782600  0.43959900  0.83390300  1
  Ba  Ba2  1  0.87782600  0.56040100  0.66609700  1
  Ba  Ba3  1  0.62217400  0.56040100  0.16609700  1
  Ba  Ba4  1  0.65340200  0.96946900  0.34606900  1
  Ba  Ba5  1  0.84659800  0.96946900  0.84606900  1
  Ba  Ba6  1  0.34659800  0.03053100  0.65393100  1
  Ba  Ba7  1  0.15340200  0.03053100  0.15393100  1
  Fe  Fe0  1  0.50000000  0.50000000  0.50000000  1
  Fe  Fe1  1  0.00000000  0.50000000  0.00000000  1
  Fe  Fe2  1  0.71044300  0.27746900  0.52700600  1
  Fe  Fe3  1  0.78955700  0.27746900  0.02700600  1
  Fe  Fe4  1  0.28955700  0.72253100  0.47299400  1
  Fe  Fe5  1  0.21044300  0.72253100  0.97299400  1
  Se  Se0  1  0.02233900  0.82341300  0.41211700  1
  Se  Se1  1  0.47766100  0.82341300  0.91211700  1
  Se  Se2  1  0.97766100  0.17658700  0.58788300  1
  Se  Se3  1  0.52233900  0.17658700  0.08788300  1
  Se  Se4  1  0.22282900  0.02439600  0.40825400  1
  Se  Se5  1  0.27717100  0.02439600  0.90825400  1
  Se  Se6  1  0.77717100  0.97560400  0.59174600  1
  Se  Se7  1  0.72282900  0.97560400  0.09174600  1
  Se  Se8  1  0.77730100  0.56222900  0.41302000  1
  Se  Se9  1  0.72269900  0.56222900  0.91302000  1
  Se  Se10  1  0.22269900  0.43777100  0.58698000  1
  Se  Se11  1  0.27730100  0.43777100  0.08698000  1
  Se  Se12  1  0.60714400  0.28338200  0.69758200  1
  Se  Se13  1  0.89285600  0.28338200  0.19758200  1
  Se  Se14  1  0.39285600  0.71661800  0.30241800  1
  Se  Se15  1  0.10714400  0.71661800  0.80241800  1
  Se  Se16  1  0.49074100  0.27450100  0.40939200  1
  Se  Se17  1  0.00925900  0.27450100  0.90939200  1
  Se  Se18  1  0.50925900  0.72549900  0.59060800  1
  Se  Se19  1  0.99074100  0.72549900  0.09060800  1
loop_
_geom_bond_atom_site_label_1
_geom_bond_atom_site_label_2
_geom_bond_distance
_geom_bond_site_symmetry_2
Ba0 Se13 3.310666 1_455
Ba0 Se14 3.333793 1_555
Ba0 Se10 3.375157 1_555
Ba0 Se19 3.389518 1_455
Ba0 Se2 3.450600 1_455
Ba0 Se11 3.470284 1_555
Ba0 Se8 3.507028 1_455
Ba0 Se16 3.539388 1_555
Ba0 Se4 3.542255 1_555
Ba1 Se12 3.310666 1_555
Ba1 Se15 3.333793 1_555
Ba1 Se11 3.375157 1_556
Ba1 Se18 3.389518 1_555
Ba1 Se3 3.450600 1_556
Ba1 Se10 3.470284 1_555
Ba1 Se9 3.507028 1_555
Ba1 Se17 3.539388 1_555
Ba1 Se5 3.542255 1_555
Ba2 Se15 3.310666 1_655
Ba2 Se12 3.333793 1_555
Ba2 Se8 3.375157 1_555
Ba2 Se17 3.389518 1_655
Ba2 Se0 3.450600 1_655
Ba2 Se9 3.470284 1_555
Ba2 Se10 3.507028 1_655
Ba2 Se18 3.539388 1_555
Ba2 Se6 3.542255 1_555
Ba3 Se14 3.310666 1_555
Ba3 Se13 3.333793 1_555
Ba3 Se9 3.375157 1_554
Ba3 Se16 3.389518 1_555
Ba3 Se1 3.450600 1_554
Ba3 Se8 3.470284 1_555
Ba3 Se11 3.507028 1_555
Ba3 Se19 3.539388 1_555
Ba3 Se7 3.542255 1_555
Ba4 Se18 3.314333 1_555
Ba4 Se7 3.315586 1_555
Ba4 Se3 3.329134 1_565
Ba4 Se6 3.370212 1_555
Ba4 Se14 3.402970 1_555
Ba4 Se16 3.425825 1_565
Ba4 Se13 3.429353 1_565
Ba4 Se0 3.479665 1_655
Ba4 Se8 3.546914 1_555
Ba4 Se4 3.944043 1_565
Ba5 Se19 3.314333 1_556
Ba5 Se6 3.315586 1_555
Ba5 Se2 3.329134 1_565
Ba5 Se7 3.370212 1_556
Ba5 Se15 3.402970 1_655
Ba5 Se17 3.425825 1_665
Ba5 Se12 3.429353 1_565
Ba5 Se1 3.479665 1_555
Ba5 Se9 3.546914 1_555
Ba5 Se5 3.944043 1_665
Ba6 Se16 3.314333 1_555
Ba6 Se5 3.315586 1_555
Ba6 Se1 3.329134 1_545
Ba6 Se4 3.370212 1_555
Ba6 Se12 3.402970 1_555
Ba6 Se18 3.425825 1_545
Ba6 Se15 3.429353 1_545
Ba6 Se2 3.479665 1_455
Ba6 Se10 3.546914 1_555
Ba6 Se6 3.944043 1_545
Ba7 Se17 3.314333 1_554
Ba7 Se4 3.315586 1_555
Ba7 Se0 3.329134 1_545
Ba7 Se5 3.370212 1_554
Ba7 Se13 3.402970 1_455
Ba7 Se19 3.425825 1_445
Ba7 Se14 3.429353 1_545
Ba7 Se3 3.479665 1_555
Ba7 Se11 3.546914 1_555
Ba7 Se7 3.944043 1_445
Fe0 Se10 2.654869 1_555
Fe0 Se8 2.654869 1_555
Fe0 Se18 2.677529 1_555
Fe0 Se16 2.677529 1_555
Fe0 Se14 2.702787 1_555
Fe0 Se12 2.702787 1_555
Fe1 Se9 2.654869 1_454
Fe1 Se11 2.654869 1_555
Fe1 Se19 2.677529 1_455
Fe1 Se17 2.677529 1_554
Fe1 Se13 2.702787 1_455
Fe1 Se15 2.702787 1_554
Fe2 Se12 2.399249 1_555
Fe2 Se8 2.455279 1_555
Fe2 Se16 2.464525 1_555
Fe2 Se2 2.532334 1_555
Fe2 Se6 2.547455 1_545
Fe3 Se13 2.399249 1_555
Fe3 Se9 2.455279 1_554
Fe3 Se17 2.464525 1_654
Fe3 Se3 2.532334 1_555
Fe3 Se7 2.547455 1_545
Fe4 Se14 2.399249 1_555
Fe4 Se10 2.455279 1_555
Fe4 Se18 2.464525 1_555
Fe4 Se0 2.532334 1_555
Fe4 Se4 2.547455 1_565
Fe5 Se15 2.399249 1_555
Fe5 Se11 2.455279 1_556
Fe5 Se19 2.464525 1_456
Fe5 Se1 2.532334 1_555
Fe5 Se5 2.547455 1_565
Se0 Se4 2.495597 1_565
Se1 Se5 2.495597 1_565
Se2 Se6 2.495597 1_545
Se3 Se7 2.495597 1_545
