# generated using pymatgen
data_BaEu2PtO5
_symmetry_space_group_name_H-M   'P 1'
_cell_length_a   5.97427300
_cell_length_b   6.81615400
_cell_length_c   6.81615400
_cell_angle_alpha   90.00000000
_cell_angle_beta   90.00000000
_cell_angle_gamma   90.00000000
_symmetry_Int_Tables_number   1
_chemical_formula_structural   BaEu2PtO5
_chemical_formula_sum   'Ba2 Eu4 Pt2 O10'
_cell_volume   277.56445684
_cell_formula_units_Z   2
loop_
 _symmetry_equiv_pos_site_id
 _symmetry_equiv_pos_as_xyz
  1  'x, y, z'
loop_
 _atom_site_type_symbol
 _atom_site_label
 _atom_site_symmetry_multiplicity
 _atom_site_fract_x
 _atom_site_fract_y
 _atom_site_fract_z
 _atom_site_occupancy
  Ba  Ba0  1  0.00000000  0.50000000  0.50000000  1
  Ba  Ba1  1  0.00000000  0.00000000  0.00000000  1
  Eu  Eu0  1  0.50000000  0.82201700  0.32201700  1
  Eu  Eu1  1  0.50000000  0.67798300  0.82201700  1
  Eu  Eu2  1  0.50000000  0.17798300  0.67798300  1
  Eu  Eu3  1  0.50000000  0.32201700  0.17798300  1
  Pt  Pt0  1  0.00000000  0.00000000  0.50000000  1
  Pt  Pt1  1  0.00000000  0.50000000  0.00000000  1
  O  O0  1  0.24572800  0.64344100  0.13835000  1
  O  O1  1  0.24572800  0.85655900  0.63835000  1
  O  O2  1  0.24572800  0.35655900  0.86165000  1
  O  O3  1  0.24572800  0.14344100  0.36165000  1
  O  O4  1  0.75427200  0.86165000  0.64344100  1
  O  O5  1  0.75427200  0.63835000  0.14344100  1
  O  O6  1  0.75427200  0.13835000  0.35655900  1
  O  O7  1  0.75427200  0.36165000  0.85655900  1
  O  O8  1  0.50000000  0.50000000  0.50000000  1
  O  O9  1  0.50000000  0.00000000  0.00000000  1
loop_
_geom_bond_atom_site_label_1
_geom_bond_atom_site_label_2
_geom_bond_distance
_geom_bond_site_symmetry_2
Ba0 O8 2.987137 1_455
Ba0 O8 2.987137 1_555
Ba0 O1 2.991837 1_555
Ba0 O3 2.991837 1_555
Ba0 O5 2.991837 1_455
Ba0 O7 2.991837 1_455
Ba0 O6 3.031109 1_455
Ba0 O4 3.031109 1_455
Ba0 O2 3.031109 1_555
Ba0 O0 3.031109 1_555
Ba1 O9 2.987137 1_455
Ba1 O9 2.987137 1_555
Ba1 O4 2.991837 1_444
Ba1 O0 2.991837 1_545
Ba1 O6 2.991837 1_455
Ba1 O2 2.991837 1_554
Ba1 O5 3.031109 1_445
Ba1 O7 3.031109 1_454
Ba1 O1 3.031109 1_544
Ba1 O3 3.031109 1_555
Eu0 O0 2.314406 1_555
Eu0 O5 2.314406 1_555
Eu0 O9 2.507871 1_565
Eu0 O8 2.507871 1_555
Eu0 O1 2.648048 1_555
Eu0 O6 2.648048 1_565
Eu0 O3 2.679655 1_565
Eu0 O4 2.679655 1_555
Eu1 O1 2.314406 1_555
Eu1 O4 2.314406 1_555
Eu1 O9 2.507871 1_566
Eu1 O8 2.507871 1_555
Eu1 O0 2.648048 1_556
Eu1 O7 2.648048 1_555
Eu1 O2 2.679655 1_555
Eu1 O5 2.679655 1_556
Eu2 O2 2.314406 1_555
Eu2 O7 2.314406 1_555
Eu2 O9 2.507871 1_556
Eu2 O8 2.507871 1_555
Eu2 O3 2.648048 1_555
Eu2 O4 2.648048 1_545
Eu2 O6 2.679655 1_555
Eu2 O1 2.679655 1_545
Eu3 O3 2.314406 1_555
Eu3 O6 2.314406 1_555
Eu3 O9 2.507871 1_555
Eu3 O8 2.507871 1_555
Eu3 O2 2.648048 1_554
Eu3 O5 2.648048 1_555
Eu3 O0 2.679655 1_555
Eu3 O7 2.679655 1_554
O0 Pt1 2.000091 1_555
O1 Pt0 2.000091 1_565
O2 Pt1 2.000091 1_556
O3 Pt0 2.000091 1_555
O4 Pt0 2.000091 1_665
O5 Pt1 2.000091 1_655
O6 Pt0 2.000091 1_655
O7 Pt1 2.000091 1_656
