# generated using pymatgen
data_Tm(BRh)4
_symmetry_space_group_name_H-M   'P 1'
_cell_length_a   7.52202000
_cell_length_b   7.52081700
_cell_length_c   11.79260912
_cell_angle_alpha   90.00000000
_cell_angle_beta   108.59819318
_cell_angle_gamma   90.00000000
_symmetry_Int_Tables_number   1
_chemical_formula_structural   Tm(BRh)4
_chemical_formula_sum   'Tm6 B24 Rh24'
_cell_volume   632.28990284
_cell_formula_units_Z   6
loop_
 _symmetry_equiv_pos_site_id
 _symmetry_equiv_pos_as_xyz
  1  'x, y, z'
loop_
 _atom_site_type_symbol
 _atom_site_label
 _atom_site_symmetry_multiplicity
 _atom_site_fract_x
 _atom_site_fract_y
 _atom_site_fract_z
 _atom_site_occupancy
  Tm  Tm0  1  0.91619200  0.25000000  0.83238300  1
  Tm  Tm1  1  0.41619200  0.75000000  0.83238300  1
  Tm  Tm2  1  0.08380800  0.75000000  0.16761700  1
  Tm  Tm3  1  0.58380800  0.25000000  0.16761700  1
  Tm  Tm4  1  0.25000000  0.25000000  0.50000000  1
  Tm  Tm5  1  0.75000000  0.75000000  0.50000000  1
  B  B0  1  0.22551600  0.07572800  0.72112800  1
  B  B1  1  0.99561200  0.57572800  0.72112800  1
  B  B2  1  0.50438800  0.57572800  0.27887200  1
  B  B3  1  0.27448400  0.07572800  0.27887200  1
  B  B4  1  0.77448400  0.92427200  0.27887200  1
  B  B5  1  0.00438800  0.42427200  0.27887200  1
  B  B6  1  0.49561200  0.42427200  0.72112800  1
  B  B7  1  0.72551600  0.92427200  0.72112800  1
  B  B8  1  0.30074500  0.38867700  0.94259500  1
  B  B9  1  0.14185000  0.88867700  0.94259500  1
  B  B10  1  0.35815000  0.88867700  0.05740500  1
  B  B11  1  0.19925500  0.38867700  0.05740500  1
  B  B12  1  0.69925500  0.61132300  0.05740500  1
  B  B13  1  0.85815000  0.11132300  0.05740500  1
  B  B14  1  0.64185000  0.11132300  0.94259500  1
  B  B15  1  0.80074500  0.61132300  0.94259500  1
  B  B16  1  0.83900500  0.08663700  0.39161400  1
  B  B17  1  0.05260800  0.58663700  0.39161400  1
  B  B18  1  0.44739200  0.58663700  0.60838600  1
  B  B19  1  0.66099500  0.08663700  0.60838600  1
  B  B20  1  0.16099500  0.91336300  0.60838600  1
  B  B21  1  0.94739200  0.41336300  0.60838600  1
  B  B22  1  0.55260800  0.41336300  0.39161400  1
  B  B23  1  0.33900500  0.91336300  0.39161400  1
  Rh  Rh0  1  0.34328800  0.09521000  0.91789800  1
  Rh  Rh1  1  0.07461000  0.59521000  0.91789800  1
  Rh  Rh2  1  0.42539000  0.59521000  0.08210200  1
  Rh  Rh3  1  0.15671200  0.09521000  0.08210200  1
  Rh  Rh4  1  0.65671200  0.90479000  0.08210200  1
  Rh  Rh5  1  0.92539000  0.40479000  0.08210200  1
  Rh  Rh6  1  0.57461000  0.40479000  0.91789800  1
  Rh  Rh7  1  0.84328800  0.90479000  0.91789800  1
  Rh  Rh8  1  0.22093900  0.36278600  0.74971300  1
  Rh  Rh9  1  0.02877400  0.86278600  0.74971300  1
  Rh  Rh10  1  0.47122600  0.86278600  0.25028700  1
  Rh  Rh11  1  0.27906100  0.36278600  0.25028700  1
  Rh  Rh12  1  0.77906100  0.63721400  0.25028700  1
  Rh  Rh13  1  0.97122600  0.13721400  0.25028700  1
  Rh  Rh14  1  0.52877400  0.13721400  0.74971300  1
  Rh  Rh15  1  0.72093900  0.63721400  0.74971300  1
  Rh  Rh16  1  0.94349200  0.12392300  0.58442000  1
  Rh  Rh17  1  0.14092700  0.62392300  0.58442000  1
  Rh  Rh18  1  0.35907300  0.62392300  0.41558000  1
  Rh  Rh19  1  0.55650800  0.12392300  0.41558000  1
  Rh  Rh20  1  0.05650800  0.87607700  0.41558000  1
  Rh  Rh21  1  0.85907300  0.37607700  0.41558000  1
  Rh  Rh22  1  0.64092700  0.37607700  0.58442000  1
  Rh  Rh23  1  0.44349200  0.87607700  0.58442000  1
loop_
_geom_bond_atom_site_label_1
_geom_bond_atom_site_label_2
_geom_bond_distance
_geom_bond_site_symmetry_2
B0 B20 1.755768 1_545
B0 Rh8 2.187033 1_555
B0 Rh0 2.208950 1_555
B0 Rh14 2.245098 1_555
B0 Rh16 2.247046 1_455
B0 Rh9 2.277438 1_545
B0 Tm1 2.929058 1_545
B0 Tm4 2.976252 1_555
B0 Tm0 3.286342 1_455
B1 B21 1.755768 1_555
B1 Rh9 2.187033 1_655
B1 Rh1 2.208950 1_655
B1 Rh15 2.245098 1_555
B1 Rh17 2.247041 1_655
B1 Rh8 2.277438 1_655
B1 Tm0 2.929055 1_555
B1 Tm5 2.976252 1_555
B1 Tm1 3.286349 1_655
B2 B22 1.755768 1_555
B2 Rh10 2.187033 1_555
B2 Rh2 2.208950 1_555
B2 Rh12 2.245098 1_555
B2 Rh18 2.247041 1_555
B2 Rh11 2.277438 1_555
B2 Tm3 2.929055 1_555
B2 Tm5 2.976252 1_555
B2 Tm2 3.286349 1_555
B3 Rh11 2.187033 1_555
B3 Rh3 2.208950 1_555
B3 Rh13 2.245098 1_455
B3 Rh19 2.247046 1_555
B3 Rh10 2.277438 1_545
B3 Tm2 2.929058 1_545
B3 Tm4 2.976252 1_555
B3 Tm3 3.286342 1_555
B4 Rh12 2.187033 1_555
B4 Rh4 2.208950 1_555
B4 Rh10 2.245098 1_555
B4 Rh20 2.247046 1_655
B4 Rh13 2.277438 1_565
B4 Tm3 2.929058 1_565
B4 Tm5 2.976252 1_555
B4 Tm2 3.286342 1_655
B5 Rh13 2.187033 1_455
B5 Rh5 2.208950 1_455
B5 Rh11 2.245098 1_555
B5 Rh21 2.247041 1_455
B5 Rh12 2.277438 1_455
B5 Tm2 2.929055 1_555
B5 Tm4 2.976252 1_555
B5 Tm3 3.286349 1_455
B6 Rh14 2.187033 1_555
B6 Rh6 2.208950 1_555
B6 Rh8 2.245098 1_555
B6 Rh22 2.247041 1_555
B6 Rh15 2.277438 1_555
B6 Tm1 2.929055 1_555
B6 Tm4 2.976252 1_555
B6 Tm0 3.286349 1_555
B7 Rh15 2.187033 1_555
B7 Rh7 2.208950 1_555
B7 Rh9 2.245098 1_655
B7 Rh23 2.247046 1_555
B7 Rh14 2.277438 1_565
B7 Tm0 2.929058 1_565
B7 Tm5 2.976252 1_555
B7 Tm1 3.286342 1_555
B8 Rh8 2.168190 1_555
B8 Rh6 2.173907 1_555
B8 Rh2 2.239295 1_556
B8 Rh1 2.252761 1_555
B8 Rh0 2.262304 1_555
B8 Tm0 2.957390 1_455
B8 Tm3 3.009806 1_556
B8 Tm1 3.247724 1_555
B9 Rh9 2.168190 1_555
B9 Rh7 2.173907 1_455
B9 Rh3 2.239295 1_566
B9 Rh0 2.252761 1_565
B9 Rh1 2.262304 1_555
B9 Tm1 2.957397 1_555
B9 Tm2 3.009809 1_556
B9 Tm0 3.247721 1_465
B10 B9 1.753610 1_554
B10 Rh10 2.168190 1_555
B10 Rh4 2.173907 1_555
B10 Rh0 2.239295 1_564
B10 Rh3 2.252761 1_565
B10 Rh2 2.262304 1_555
B10 Tm2 2.957397 1_555
B10 Tm1 3.009809 1_554
B10 Tm3 3.247721 1_565
B11 B8 1.753610 1_554
B11 Rh11 2.168190 1_555
B11 Rh5 2.173907 1_455
B11 Rh1 2.239295 1_554
B11 Rh2 2.252761 1_555
B11 Rh3 2.262304 1_555
B11 Tm3 2.957390 1_555
B11 Tm0 3.009806 1_454
B11 Tm2 3.247724 1_555
B12 B15 1.753610 1_554
B12 Rh12 2.168190 1_555
B12 Rh2 2.173907 1_555
B12 Rh6 2.239295 1_554
B12 Rh5 2.252761 1_555
B12 Rh4 2.262304 1_555
B12 Tm2 2.957390 1_655
B12 Tm1 3.009806 1_554
B12 Tm3 3.247724 1_555
B13 B14 1.753610 1_554
B13 Rh13 2.168190 1_555
B13 Rh3 2.173907 1_655
B13 Rh7 2.239295 1_544
B13 Rh4 2.252761 1_545
B13 Rh5 2.262304 1_555
B13 Tm3 2.957397 1_555
B13 Tm0 3.009809 1_554
B13 Tm2 3.247721 1_645
B14 Rh14 2.168190 1_555
B14 Rh0 2.173907 1_555
B14 Rh4 2.239295 1_546
B14 Rh7 2.252761 1_545
B14 Rh6 2.262304 1_555
B14 Tm0 2.957397 1_555
B14 Tm3 3.009809 1_556
B14 Tm1 3.247721 1_545
B15 Rh15 2.168190 1_555
B15 Rh1 2.173907 1_655
B15 Rh5 2.239295 1_556
B15 Rh6 2.252761 1_555
B15 Rh7 2.262304 1_555
B15 Tm1 2.957390 1_555
B15 Tm2 3.009806 1_656
B15 Tm0 3.247724 1_555
B16 B4 1.755768 1_545
B16 Rh16 2.173970 1_555
B16 Rh21 2.194087 1_555
B16 Rh13 2.229069 1_555
B16 Rh20 2.229209 1_645
B16 Rh19 2.248774 1_555
B16 Tm3 2.989580 1_555
B16 Tm5 3.006272 1_545
B16 Tm4 3.190641 1_655
B17 B5 1.755768 1_555
B17 Rh17 2.173970 1_555
B17 Rh20 2.194086 1_555
B17 Rh12 2.229064 1_455
B17 Rh21 2.229198 1_455
B17 Rh18 2.248789 1_555
B17 Tm2 2.989580 1_555
B17 Tm4 3.006274 1_555
B17 Tm5 3.190634 1_455
B18 B6 1.755768 1_555
B18 Rh18 2.173970 1_555
B18 Rh23 2.194086 1_555
B18 Rh15 2.229064 1_555
B18 Rh22 2.229198 1_555
B18 Rh17 2.248789 1_555
B18 Tm1 2.989580 1_555
B18 Tm4 3.006274 1_555
B18 Tm5 3.190634 1_555
B19 B7 1.755768 1_545
B19 Rh19 2.173970 1_555
B19 Rh22 2.194087 1_555
B19 Rh14 2.229069 1_555
B19 Rh23 2.229209 1_545
B19 Rh16 2.248774 1_555
B19 Tm0 2.989580 1_555
B19 Tm5 3.006272 1_545
B19 Tm4 3.190641 1_555
B20 Rh20 2.173970 1_555
B20 Rh17 2.194087 1_555
B20 Rh9 2.229069 1_555
B20 Rh16 2.229209 1_465
B20 Rh23 2.248774 1_555
B20 Tm1 2.989580 1_555
B20 Tm4 3.006272 1_565
B20 Tm5 3.190641 1_455
B21 Rh21 2.173970 1_555
B21 Rh16 2.194086 1_555
B21 Rh8 2.229064 1_655
B21 Rh17 2.229198 1_655
B21 Rh22 2.248789 1_555
B21 Tm0 2.989580 1_555
B21 Tm5 3.006274 1_555
B21 Tm4 3.190634 1_655
B22 Rh22 2.173970 1_555
B22 Rh19 2.194086 1_555
B22 Rh11 2.229064 1_555
B22 Rh18 2.229198 1_555
B22 Rh21 2.248789 1_555
B22 Tm3 2.989580 1_555
B22 Tm5 3.006274 1_555
B22 Tm4 3.190634 1_555
B23 B3 1.755768 1_565
B23 Rh23 2.173970 1_555
B23 Rh18 2.194087 1_555
B23 Rh10 2.229069 1_555
B23 Rh19 2.229209 1_565
B23 Rh20 2.248774 1_555
B23 Tm2 2.989580 1_555
B23 Tm4 3.006272 1_565
B23 Tm5 3.190641 1_555
Rh0 Tm1 2.900174 1_545
Rh0 Tm3 3.146764 1_556
Rh0 Tm0 3.259854 1_455
Rh1 Tm0 2.900171 1_455
Rh1 Tm2 3.146766 1_556
Rh1 Tm1 3.259861 1_555
Rh2 Tm3 2.900171 1_555
Rh2 Tm1 3.146766 1_554
Rh2 Tm2 3.259861 1_555
Rh3 Tm2 2.900174 1_545
Rh3 Tm0 3.146764 1_454
Rh3 Tm3 3.259854 1_555
Rh4 Tm3 2.900174 1_565
Rh4 Tm1 3.146764 1_554
Rh4 Tm2 3.259854 1_655
Rh5 Tm2 2.900171 1_655
Rh5 Tm0 3.146766 1_554
Rh5 Tm3 3.259861 1_555
Rh6 Tm1 2.900171 1_555
Rh6 Tm3 3.146766 1_556
Rh6 Tm0 3.259861 1_555
Rh7 Tm0 2.900174 1_565
Rh7 Tm2 3.146764 1_656
Rh7 Tm1 3.259854 1_555
Rh8 Tm0 2.889654 1_455
Rh8 Tm4 3.138401 1_555
Rh8 Tm1 3.267246 1_555
Rh9 Tm1 2.889661 1_555
Rh9 Tm5 3.138401 1_455
Rh9 Tm0 3.267243 1_465
Rh10 Tm2 2.889661 1_555
Rh10 Tm5 3.138401 1_555
Rh10 Tm3 3.267243 1_565
Rh11 Tm3 2.889654 1_555
Rh11 Tm4 3.138401 1_555
Rh11 Tm2 3.267246 1_555
Rh12 Tm2 2.889654 1_655
Rh12 Tm5 3.138401 1_555
Rh12 Tm3 3.267246 1_555
Rh13 Tm3 2.889661 1_555
Rh13 Tm4 3.138401 1_655
Rh13 Tm2 3.267243 1_645
Rh14 Tm0 2.889661 1_555
Rh14 Tm4 3.138401 1_555
Rh14 Tm1 3.267243 1_545
Rh15 Tm1 2.889654 1_555
Rh15 Tm5 3.138401 1_555
Rh15 Tm0 3.267246 1_555
Rh16 Tm4 2.944457 1_655
Rh16 Tm0 3.142422 1_555
Rh16 Tm5 3.177059 1_545
Rh17 Tm5 2.944450 1_455
Rh17 Tm1 3.142427 1_555
Rh17 Tm4 3.177061 1_555
Rh18 Tm5 2.944450 1_555
Rh18 Tm2 3.142427 1_555
Rh18 Tm4 3.177061 1_555
Rh19 Tm4 2.944457 1_555
Rh19 Tm3 3.142422 1_555
Rh19 Tm5 3.177059 1_545
Rh20 Tm5 2.944457 1_455
Rh20 Tm2 3.142422 1_555
Rh20 Tm4 3.177059 1_565
Rh21 Tm4 2.944450 1_655
Rh21 Tm3 3.142427 1_555
Rh21 Tm5 3.177061 1_555
Rh22 Tm4 2.944450 1_555
Rh22 Tm0 3.142427 1_555
Rh22 Tm5 3.177061 1_555
Rh23 Tm5 2.944457 1_555
Rh23 Tm1 3.142422 1_555
Rh23 Tm4 3.177059 1_565
