# generated using pymatgen
data_LaGaS3
_symmetry_space_group_name_H-M   'P 1'
_cell_length_a   6.07583879
_cell_length_b   10.45074162
_cell_length_c   22.04748482
_cell_angle_alpha   90.00000000
_cell_angle_beta   90.00000000
_cell_angle_gamma   90.00000000
_symmetry_Int_Tables_number   1
_chemical_formula_structural   LaGaS3
_chemical_formula_sum   'La12 Ga12 S36'
_cell_volume   1399.94961365
_cell_formula_units_Z   12
loop_
 _symmetry_equiv_pos_site_id
 _symmetry_equiv_pos_as_xyz
  1  'x, y, z'
loop_
 _atom_site_type_symbol
 _atom_site_label
 _atom_site_symmetry_multiplicity
 _atom_site_fract_x
 _atom_site_fract_y
 _atom_site_fract_z
 _atom_site_occupancy
  La  La0  1  0.72962537  0.52123530  0.24218630  1
  La  La1  1  0.22962537  0.47876470  0.75781370  1
  La  La2  1  0.22962537  0.97876470  0.74218630  1
  La  La3  1  0.72962537  0.02123530  0.25781370  1
  La  La4  1  0.74126972  0.79837236  0.05849285  1
  La  La5  1  0.24126972  0.20162764  0.94150715  1
  La  La6  1  0.24126972  0.70162764  0.55849285  1
  La  La7  1  0.74126972  0.29837236  0.44150715  1
  La  La8  1  0.23763793  0.74527652  0.91938492  1
  La  La9  1  0.73763793  0.25472348  0.08061508  1
  La  La10  1  0.73763793  0.75472348  0.41938492  1
  La  La11  1  0.23763793  0.24527652  0.58061508  1
  Ga  Ga0  1  0.22190843  0.72915783  0.23161117  1
  Ga  Ga1  1  0.72190843  0.27084217  0.76838883  1
  Ga  Ga2  1  0.72190843  0.77084217  0.73161117  1
  Ga  Ga3  1  0.22190843  0.22915783  0.26838883  1
  Ga  Ga4  1  0.34427723  0.52553523  0.09499834  1
  Ga  Ga5  1  0.84427723  0.47446477  0.90500166  1
  Ga  Ga6  1  0.84427723  0.97446477  0.59499834  1
  Ga  Ga7  1  0.34427723  0.02553523  0.40500166  1
  Ga  Ga8  1  0.18073768  0.52359097  0.37295979  1
  Ga  Ga9  1  0.68073768  0.47640903  0.62704021  1
  Ga  Ga10  1  0.68073768  0.97640903  0.87295979  1
  Ga  Ga11  1  0.18073768  0.02359097  0.12704021  1
  S  S0  1  0.22004198  0.52631778  0.19458251  1
  S  S1  1  0.72004198  0.47368222  0.80541749  1
  S  S2  1  0.72004198  0.97368222  0.69458251  1
  S  S3  1  0.22004198  0.02631778  0.30541749  1
  S  S4  1  0.72180040  0.53133006  0.10847174  1
  S  S5  1  0.22180040  0.46866994  0.89152826  1
  S  S6  1  0.22180040  0.96866994  0.60847174  1
  S  S7  1  0.72180040  0.03133006  0.39152826  1
  S  S8  1  0.76676770  0.67129033  0.94194718  1
  S  S9  1  0.26676770  0.32870967  0.05805282  1
  S  S10  1  0.26676770  0.82870967  0.44194718  1
  S  S11  1  0.76676770  0.17129033  0.55805282  1
  S  S12  1  0.26140253  0.71228092  0.04875777  1
  S  S13  1  0.76140253  0.28771908  0.95124223  1
  S  S14  1  0.76140253  0.78771908  0.54875777  1
  S  S15  1  0.26140253  0.21228092  0.45124223  1
  S  S16  1  0.00982614  0.53434894  0.46353176  1
  S  S17  1  0.50982614  0.46565106  0.53646824  1
  S  S18  1  0.50982614  0.96565106  0.96353176  1
  S  S19  1  0.00982614  0.03434894  0.03646824  1
  S  S20  1  0.01827755  0.68672239  0.31759776  1
  S  S21  1  0.51827755  0.31327761  0.68240224  1
  S  S22  1  0.51827755  0.81327761  0.81759776  1
  S  S23  1  0.01827755  0.18672239  0.18240224  1
  S  S24  1  0.00109244  0.85591932  0.17496725  1
  S  S25  1  0.50109244  0.14408068  0.82503275  1
  S  S26  1  0.50109244  0.64408068  0.67496725  1
  S  S27  1  0.00109244  0.35591932  0.32503275  1
  S  S28  1  0.54407693  0.51239997  0.37037163  1
  S  S29  1  0.04407693  0.48760003  0.62962837  1
  S  S30  1  0.04407693  0.98760003  0.87037163  1
  S  S31  1  0.54407693  0.01239997  0.12962837  1
  S  S32  1  0.55674797  0.77071511  0.26367179  1
  S  S33  1  0.05674797  0.22928489  0.73632821  1
  S  S34  1  0.05674797  0.72928489  0.76367179  1
  S  S35  1  0.55674797  0.27071511  0.23632821  1
loop_
_geom_bond_atom_site_label_1
_geom_bond_atom_site_label_2
_geom_bond_distance
_geom_bond_site_symmetry_2
La0 S35 2.823921 1_555
La0 S32 2.850514 1_555
La0 S4 2.950340 1_555
La0 S20 2.971737 1_655
La0 S27 3.006934 1_655
La0 S28 3.044121 1_555
La0 S0 3.159577 1_655
La0 S0 3.269631 1_555
La1 S34 2.823921 1_555
La1 S33 2.850514 1_555
La1 S5 2.950340 1_555
La1 S21 2.971737 1_555
La1 S26 3.006934 1_555
La1 S29 3.044121 1_555
La1 S1 3.159577 1_555
La1 S1 3.269631 1_455
La2 S33 2.823921 1_565
La2 S34 2.850514 1_555
La2 S6 2.950340 1_555
La2 S22 2.971737 1_555
La2 S25 3.006934 1_565
La2 S30 3.044121 1_555
La2 S2 3.159577 1_555
La2 S2 3.269631 1_455
La3 S32 2.823921 1_545
La3 S35 2.850514 1_555
La3 S7 2.950340 1_555
La3 S23 2.971737 1_655
La3 S24 3.006934 1_645
La3 S31 3.044121 1_555
La3 S3 3.159577 1_655
La3 S3 3.269631 1_555
La4 S8 2.896616 1_554
La4 S31 2.982995 1_565
La4 S19 2.996674 1_665
La4 S4 3.002783 1_555
La4 S12 3.058801 1_555
La4 S18 3.068709 1_554
La4 S24 3.073802 1_655
La4 S12 3.292825 1_655
La5 S9 2.896616 1_556
La5 S30 2.982995 1_545
La5 S18 2.996674 1_545
La5 S5 3.002783 1_555
La5 S13 3.058801 1_455
La5 S19 3.068709 1_556
La5 S25 3.073802 1_555
La5 S13 3.292825 1_555
La6 S10 2.896616 1_555
La6 S29 2.982995 1_555
La6 S17 2.996674 1_555
La6 S6 3.002783 1_555
La6 S14 3.058801 1_455
La6 S16 3.068709 1_555
La6 S26 3.073802 1_555
La6 S14 3.292825 1_555
La7 S11 2.896616 1_555
La7 S28 2.982995 1_555
La7 S16 2.996674 1_655
La7 S7 3.002783 1_555
La7 S15 3.058801 1_555
La7 S17 3.068709 1_555
La7 S27 3.073802 1_655
La7 S15 3.292825 1_655
La8 S12 2.876740 1_556
La8 S22 2.906663 1_555
La8 S5 2.956833 1_555
La8 S30 2.994024 1_555
La8 S18 2.997748 1_555
La8 S8 3.005034 1_455
La8 S8 3.343790 1_555
La8 S34 3.608589 1_555
La9 S13 2.876740 1_554
La9 S23 2.906663 1_655
La9 S4 2.956833 1_555
La9 S31 2.994024 1_555
La9 S19 2.997748 1_655
La9 S9 3.005034 1_555
La9 S9 3.343790 1_655
La9 S35 3.608589 1_555
La10 S14 2.876740 1_555
La10 S20 2.906663 1_655
La10 S7 2.956833 1_565
La10 S28 2.994024 1_555
La10 S16 2.997748 1_655
La10 S10 3.005034 1_555
La10 S10 3.343790 1_655
La10 S32 3.608589 1_555
La11 S15 2.876740 1_555
La11 S21 2.906663 1_555
La11 S6 2.956833 1_545
La11 S29 2.994024 1_555
La11 S17 2.997748 1_555
La11 S11 3.005034 1_455
La11 S11 3.343790 1_555
La11 S33 3.608589 1_555
Ga0 S32 2.197083 1_555
Ga0 S24 2.261551 1_555
Ga0 S0 2.271628 1_555
Ga0 S20 2.306821 1_555
Ga1 S33 2.197083 1_655
Ga1 S25 2.261551 1_555
Ga1 S1 2.271628 1_555
Ga1 S21 2.306821 1_555
Ga2 S34 2.197083 1_655
Ga2 S26 2.261551 1_555
Ga2 S2 2.271628 1_555
Ga2 S22 2.306821 1_555
Ga3 S35 2.197083 1_555
Ga3 S27 2.261551 1_555
Ga3 S3 2.271628 1_555
Ga3 S23 2.306821 1_555
Ga4 S12 2.258709 1_555
Ga4 S9 2.261950 1_555
Ga4 S4 2.313718 1_555
Ga4 S0 2.321726 1_555
Ga5 S13 2.258709 1_555
Ga5 S8 2.261950 1_555
Ga5 S5 2.313718 1_655
Ga5 S1 2.321726 1_555
Ga6 S14 2.258709 1_555
Ga6 S11 2.261950 1_565
Ga6 S6 2.313718 1_655
Ga6 S2 2.321726 1_555
Ga7 S15 2.258709 1_555
Ga7 S10 2.261950 1_545
Ga7 S7 2.313718 1_555
Ga7 S3 2.321726 1_555
Ga8 S28 2.211423 1_555
Ga8 S16 2.253558 1_555
Ga8 S20 2.317471 1_555
Ga8 S27 2.319148 1_555
Ga9 S29 2.211423 1_655
Ga9 S17 2.253558 1_555
Ga9 S21 2.317471 1_555
Ga9 S26 2.319148 1_555
Ga10 S30 2.211423 1_655
Ga10 S18 2.253558 1_555
Ga10 S22 2.317471 1_555
Ga10 S25 2.319148 1_565
Ga11 S31 2.211423 1_555
Ga11 S19 2.253558 1_555
Ga11 S23 2.317471 1_555
Ga11 S24 2.319148 1_545
