# generated using pymatgen
data_Li3V4O8
_symmetry_space_group_name_H-M   'P 1'
_cell_length_a   5.89524703
_cell_length_b   10.68577901
_cell_length_c   5.91334928
_cell_angle_alpha   90.42414872
_cell_angle_beta   60.06928402
_cell_angle_gamma   74.20822728
_symmetry_Int_Tables_number   1
_chemical_formula_structural   Li3V4O8
_chemical_formula_sum   'Li6 V8 O16'
_cell_volume   306.03273359
_cell_formula_units_Z   2
loop_
 _symmetry_equiv_pos_site_id
 _symmetry_equiv_pos_as_xyz
  1  'x, y, z'
loop_
 _atom_site_type_symbol
 _atom_site_label
 _atom_site_symmetry_multiplicity
 _atom_site_fract_x
 _atom_site_fract_y
 _atom_site_fract_z
 _atom_site_occupancy
  Li  Li0  1  0.00000800  0.25001700  0.25001100  1
  Li  Li1  1  0.99992700  0.75005000  0.75000300  1
  Li  Li2  1  0.14557300  0.03414500  0.18162000  1
  Li  Li3  1  0.14035300  0.53398300  0.67953500  1
  Li  Li4  1  0.85435200  0.46591700  0.31849700  1
  Li  Li5  1  0.85947700  0.96603500  0.82060500  1
  V  V0  1  0.49964000  0.75005700  0.75019300  1
  V  V1  1  0.49998200  0.74993200  0.24979800  1
  V  V2  1  0.00004100  0.74991500  0.25011400  1
  V  V3  1  0.50577800  0.99914800  0.50073300  1
  V  V4  1  0.49453100  0.50078300  0.99902400  1
  V  V5  1  0.49987500  0.25008800  0.24996500  1
  V  V6  1  0.50006300  0.25002500  0.74993300  1
  V  V7  1  0.00013500  0.24995800  0.75005900  1
  O  O0  1  0.27463300  0.35088400  0.62688800  1
  O  O1  1  0.24931300  0.85066100  0.12676400  1
  O  O2  1  0.72528900  0.14915700  0.87322400  1
  O  O3  1  0.75061900  0.64940600  0.37339900  1
  O  O4  1  0.25476400  0.13355200  0.38797900  1
  O  O5  1  0.24368000  0.63450100  0.89109200  1
  O  O6  1  0.72698100  0.13238100  0.39170800  1
  O  O7  1  0.72278800  0.63220500  0.88764100  1
  O  O8  1  0.26158300  0.13138200  0.85773400  1
  O  O9  1  0.24846200  0.63155200  0.35794700  1
  O  O10  1  0.27295300  0.36780000  0.10820400  1
  O  O11  1  0.27707700  0.86773600  0.61213000  1
  O  O12  1  0.73869700  0.36850700  0.64221800  1
  O  O13  1  0.75179000  0.86836100  0.14209900  1
  O  O14  1  0.74534800  0.36649100  0.11195600  1
  O  O15  1  0.75629000  0.86537100  0.60892700  1
loop_
_geom_bond_atom_site_label_1
_geom_bond_atom_site_label_2
_geom_bond_distance
_geom_bond_site_symmetry_2
Li0 O6 2.154971 1_455
Li0 O10 2.155880 1_555
Li0 O12 2.164441 1_455
Li0 O8 2.165359 1_554
Li0 O4 2.165742 1_555
Li0 O14 2.165743 1_455
Li1 O15 2.127208 1_555
Li1 O5 2.128724 1_655
Li1 O13 2.163215 1_556
Li1 O9 2.163787 1_655
Li1 O11 2.172540 1_655
Li1 O7 2.173824 1_555
Li2 O1 1.861032 1_545
Li2 O4 2.041718 1_555
Li2 O6 2.060670 1_455
Li2 O8 2.079586 1_554
Li3 O0 1.858421 1_555
Li3 O5 2.046084 1_555
Li3 O7 2.056055 1_455
Li3 O9 2.071497 1_555
Li4 O3 1.861086 1_555
Li4 O14 2.041816 1_555
Li4 O10 2.060486 1_655
Li4 O12 2.079936 1_555
Li5 O2 1.858629 1_565
Li5 O15 2.046948 1_555
Li5 O11 2.056355 1_655
Li5 O13 2.071770 1_556
O0 V6 1.911568 1_555
O0 V7 2.024261 1_555
O0 V5 2.030712 1_555
O1 V2 1.911423 1_555
O1 V1 2.022468 1_555
O1 V0 2.028276 1_554
O2 V6 1.911790 1_555
O2 V7 2.024827 1_655
O2 V5 2.030346 1_556
O3 V2 1.910107 1_655
O3 V1 2.024040 1_555
O3 V0 2.029542 1_555
O4 V7 2.030245 1_555
O4 V5 2.030367 1_555
O4 V3 2.130503 1_545
O5 V2 2.011313 1_556
O5 V0 2.066553 1_555
O5 V4 2.107426 1_555
O6 V6 2.018557 1_555
O6 V5 2.072671 1_555
O6 V3 2.080439 1_545
O7 V1 2.036624 1_556
O7 V0 2.039007 1_555
O7 V4 2.091539 1_555
O8 V6 2.019398 1_555
O8 V7 2.077212 1_555
O8 V3 2.083659 1_545
O9 V2 2.021570 1_555
O9 V1 2.072290 1_555
O9 V4 2.083765 1_554
O10 V6 2.019326 1_554
O10 V5 2.072031 1_555
O10 V4 2.079608 1_554
O11 V1 2.037704 1_555
O11 V0 2.038493 1_555
O11 V3 2.093200 1_555
O12 V6 2.018647 1_555
O12 V7 2.077720 1_655
O12 V4 2.083111 1_555
O13 V2 2.021973 1_655
O13 V1 2.074068 1_555
O13 V3 2.082716 1_555
O14 V7 2.030100 1_654
O14 V5 2.030663 1_555
O14 V4 2.129845 1_554
O15 V2 2.010653 1_655
O15 V0 2.067396 1_555
O15 V3 2.107420 1_555
