# generated using pymatgen
data_KTeIO9
_symmetry_space_group_name_H-M   'P 1'
_cell_length_a   7.03586100
_cell_length_b   8.97176800
_cell_length_c   12.73930800
_cell_angle_alpha   90.00000000
_cell_angle_beta   90.00000000
_cell_angle_gamma   90.00000000
_symmetry_Int_Tables_number   1
_chemical_formula_structural   KTeIO9
_chemical_formula_sum   'K4 Te4 I4 O36'
_cell_volume   804.15751228
_cell_formula_units_Z   4
loop_
 _symmetry_equiv_pos_site_id
 _symmetry_equiv_pos_as_xyz
  1  'x, y, z'
loop_
 _atom_site_type_symbol
 _atom_site_label
 _atom_site_symmetry_multiplicity
 _atom_site_fract_x
 _atom_site_fract_y
 _atom_site_fract_z
 _atom_site_occupancy
  K  K0  1  0.72163900  0.29710500  0.92003700  1
  K  K1  1  0.22163900  0.70289500  0.07996300  1
  K  K2  1  0.22163900  0.20289500  0.42003700  1
  K  K3  1  0.72163900  0.79710500  0.57996300  1
  Te  Te0  1  0.78722300  0.28672800  0.58240000  1
  Te  Te1  1  0.28722300  0.71327200  0.41760000  1
  Te  Te2  1  0.28722300  0.21327200  0.08240000  1
  Te  Te3  1  0.78722300  0.78672800  0.91760000  1
  I  I0  1  0.21770000  0.34589400  0.75269300  1
  I  I1  1  0.71770000  0.65410600  0.24730700  1
  I  I2  1  0.71770000  0.15410600  0.25269300  1
  I  I3  1  0.21770000  0.84589400  0.74730700  1
  O  O0  1  0.71081600  0.10222000  0.51356900  1
  O  O1  1  0.21081600  0.89778000  0.48643100  1
  O  O2  1  0.21081600  0.39778000  0.01356900  1
  O  O3  1  0.71081600  0.60222000  0.98643100  1
  O  O4  1  0.80573800  0.48059600  0.65484000  1
  O  O5  1  0.30573800  0.51940400  0.34516000  1
  O  O6  1  0.30573800  0.01940400  0.15484000  1
  O  O7  1  0.80573800  0.98059600  0.84516000  1
  O  O8  1  0.63668800  0.22509800  0.70285500  1
  O  O9  1  0.13668800  0.77490200  0.29714500  1
  O  O10  1  0.13668800  0.27490200  0.20285500  1
  O  O11  1  0.63668800  0.72509800  0.79714500  1
  O  O12  1  0.89238700  0.38560500  0.46086200  1
  O  O13  1  0.39238700  0.61439500  0.53913800  1
  O  O14  1  0.39238700  0.11439500  0.96086200  1
  O  O15  1  0.89238700  0.88560500  0.03913800  1
  O  O16  1  0.51640600  0.31823900  0.54817400  1
  O  O17  1  0.01640600  0.68176100  0.45182600  1
  O  O18  1  0.01640600  0.18176100  0.04817400  1
  O  O19  1  0.51640600  0.81823900  0.95182600  1
  O  O20  1  0.03880400  0.22685300  0.61872400  1
  O  O21  1  0.53880400  0.77314700  0.38127600  1
  O  O22  1  0.53880400  0.27314700  0.11872400  1
  O  O23  1  0.03880400  0.72685300  0.88127600  1
  O  O24  1  0.20345400  0.16012400  0.81512700  1
  O  O25  1  0.70345400  0.83987600  0.18487300  1
  O  O26  1  0.70345400  0.33987600  0.31512700  1
  O  O27  1  0.20345400  0.66012400  0.68487300  1
  O  O28  1  0.35897300  0.43450500  0.86060000  1
  O  O29  1  0.85897300  0.56549500  0.13940000  1
  O  O30  1  0.85897300  0.06549500  0.36060000  1
  O  O31  1  0.35897300  0.93450500  0.63940000  1
  O  O32  1  0.98407300  0.42370500  0.79164500  1
  O  O33  1  0.48407300  0.57629500  0.20835500  1
  O  O34  1  0.48407300  0.07629500  0.29164500  1
  O  O35  1  0.98407300  0.92370500  0.70835500  1
loop_
_geom_bond_atom_site_label_1
_geom_bond_atom_site_label_2
_geom_bond_distance
_geom_bond_site_symmetry_2
K0 O32 2.715648 1_555
K0 O18 2.834920 1_656
K0 O22 2.847398 1_556
K0 O3 2.866125 1_555
K0 O14 2.885146 1_555
K0 O8 2.903360 1_555
K0 O28 2.933247 1_555
K0 O7 3.053456 1_545
K1 O33 2.715648 1_555
K1 O19 2.834920 1_554
K1 O23 2.847398 1_554
K1 O2 2.866125 1_555
K1 O15 2.885146 1_455
K1 O9 2.903360 1_555
K1 O29 2.933247 1_455
K1 O6 3.053456 1_565
K2 O34 2.715648 1_555
K2 O16 2.834920 1_555
K2 O20 2.847398 1_555
K2 O1 2.866125 1_545
K2 O12 2.885146 1_455
K2 O10 2.903360 1_555
K2 O30 2.933247 1_455
K2 O5 3.053456 1_555
K3 O35 2.715648 1_555
K3 O17 2.834920 1_655
K3 O21 2.847398 1_555
K3 O0 2.866125 1_565
K3 O13 2.885146 1_555
K3 O11 2.903360 1_555
K3 O31 2.933247 1_555
K3 O4 3.053456 1_555
I0 O24 1.849458 1_555
I0 O32 1.853524 1_455
I0 O28 1.873420 1_555
I0 O20 2.374377 1_555
I1 O25 1.849458 1_555
I1 O33 1.853524 1_555
I1 O29 1.873420 1_555
I1 O21 2.374377 1_555
I2 O26 1.849458 1_555
I2 O34 1.853524 1_555
I2 O30 1.873420 1_555
I2 O22 2.374377 1_555
I3 O27 1.849458 1_555
I3 O35 1.853524 1_455
I3 O31 1.873420 1_555
I3 O23 2.374377 1_555
O0 Te0 1.948874 1_555
O1 Te1 1.948874 1_555
O2 Te2 1.948874 1_555
O3 Te3 1.948874 1_555
O4 Te0 1.973295 1_555
O5 Te1 1.973295 1_555
O6 Te2 1.973295 1_555
O7 Te3 1.973295 1_555
O8 Te0 1.944800 1_555
O9 Te1 1.944800 1_555
O10 Te2 1.944800 1_555
O11 Te3 1.944800 1_555
O12 Te0 1.931759 1_555
O13 Te1 1.931759 1_555
O14 Te2 1.931759 1_556
O15 Te3 1.931759 1_554
O16 Te0 1.975019 1_555
O17 Te1 1.975019 1_555
O18 Te2 1.975019 1_555
O19 Te3 1.975019 1_555
O20 Te0 1.906807 1_455
O21 Te1 1.906807 1_555
O22 Te2 1.906807 1_555
O23 Te3 1.906807 1_455
