# generated using pymatgen
data_CrSbPt
_symmetry_space_group_name_H-M   'P 1'
_cell_length_a   6.42185100
_cell_length_b   6.42185100
_cell_length_c   6.42185100
_cell_angle_alpha   90.00000000
_cell_angle_beta   90.00000000
_cell_angle_gamma   90.00000000
_symmetry_Int_Tables_number   1
_chemical_formula_structural   CrSbPt
_chemical_formula_sum   'Cr4 Sb4 Pt4'
_cell_volume   264.83822866
_cell_formula_units_Z   4
loop_
 _symmetry_equiv_pos_site_id
 _symmetry_equiv_pos_as_xyz
  1  'x, y, z'
loop_
 _atom_site_type_symbol
 _atom_site_label
 _atom_site_symmetry_multiplicity
 _atom_site_fract_x
 _atom_site_fract_y
 _atom_site_fract_z
 _atom_site_occupancy
  Cr  Cr0  1  0.99146800  0.49146800  0.00853200  1
  Cr  Cr1  1  0.49146800  0.00853200  0.99146800  1
  Cr  Cr2  1  0.00853200  0.99146800  0.49146800  1
  Cr  Cr3  1  0.50853200  0.50853200  0.50853200  1
  Sb  Sb0  1  0.73746900  0.23746900  0.26253100  1
  Sb  Sb1  1  0.23746900  0.26253100  0.73746900  1
  Sb  Sb2  1  0.26253100  0.73746900  0.23746900  1
  Sb  Sb3  1  0.76253100  0.76253100  0.76253100  1
  Pt  Pt0  1  0.36733900  0.86733900  0.63266100  1
  Pt  Pt1  1  0.86733900  0.63266100  0.36733900  1
  Pt  Pt2  1  0.63266100  0.36733900  0.86733900  1
  Pt  Pt3  1  0.13266100  0.13266100  0.13266100  1
loop_
_geom_bond_atom_site_label_1
_geom_bond_atom_site_label_2
_geom_bond_distance
_geom_bond_site_symmetry_2
Cr0 Pt1 2.601333 1_555
Cr0 Pt3 2.601333 1_655
Cr0 Pt2 2.601333 1_554
Cr0 Sb1 2.772602 1_654
Cr0 Sb2 2.772602 1_655
Cr0 Sb3 2.772602 1_554
Cr0 Sb0 2.825224 1_555
Cr1 Pt2 2.601333 1_555
Cr1 Pt3 2.601333 1_556
Cr1 Pt0 2.601333 1_545
Cr1 Sb2 2.772602 1_546
Cr1 Sb0 2.772602 1_556
Cr1 Sb3 2.772602 1_545
Cr1 Sb1 2.825224 1_555
Cr2 Pt0 2.601333 1_555
Cr2 Pt3 2.601333 1_565
Cr2 Pt1 2.601333 1_455
Cr2 Sb1 2.772602 1_565
Cr2 Sb0 2.772602 1_465
Cr2 Sb3 2.772602 1_455
Cr2 Sb2 2.825224 1_555
Cr3 Pt2 2.601333 1_555
Cr3 Pt0 2.601333 1_555
Cr3 Pt1 2.601333 1_555
Cr3 Sb0 2.772602 1_555
Cr3 Sb2 2.772602 1_555
Cr3 Sb1 2.772602 1_555
Cr3 Sb3 2.825224 1_555
Pt0 Sb1 2.754874 1_565
Pt0 Sb2 2.754874 1_555
Pt0 Sb3 2.754874 1_555
Pt1 Sb0 2.754874 1_555
Pt1 Sb2 2.754874 1_655
Pt1 Sb3 2.754874 1_555
Pt2 Sb0 2.754874 1_556
Pt2 Sb1 2.754874 1_555
Pt2 Sb3 2.754874 1_555
Pt3 Sb2 2.754874 1_545
Pt3 Sb1 2.754874 1_554
Pt3 Sb0 2.754874 1_455
