# generated using pymatgen
data_SrLaGaCuO5
_symmetry_space_group_name_H-M   'P 1'
_cell_length_a   5.37563233
_cell_length_b   5.64861326
_cell_length_c   9.18496571
_cell_angle_alpha   107.81193332
_cell_angle_beta   107.29526463
_cell_angle_gamma   90.10991000
_symmetry_Int_Tables_number   1
_chemical_formula_structural   SrLaGaCuO5
_chemical_formula_sum   'Sr2 La2 Ga2 Cu2 O10'
_cell_volume   252.19920540
_cell_formula_units_Z   2
loop_
 _symmetry_equiv_pos_site_id
 _symmetry_equiv_pos_as_xyz
  1  'x, y, z'
loop_
 _atom_site_type_symbol
 _atom_site_label
 _atom_site_symmetry_multiplicity
 _atom_site_fract_x
 _atom_site_fract_y
 _atom_site_fract_z
 _atom_site_occupancy
  Sr  Sr0  1  0.34476300  0.37016300  0.77670800  1
  Sr  Sr1  1  0.84593100  0.90598300  0.77667800  1
  La  La0  1  0.06663800  0.08358400  0.20861300  1
  La  La1  1  0.56516200  0.62529100  0.20805200  1
  Ga  Ga0  1  0.24041200  0.68664700  0.50028400  1
  Ga  Ga1  1  0.73967700  0.31363500  0.50017100  1
  Cu  Cu0  1  0.45326000  0.99845700  0.99237500  1
  Cu  Cu1  1  0.95217400  0.49382800  0.99222100  1
  O  O0  1  0.21087800  0.74254500  0.99818300  1
  O  O1  1  0.08301400  0.37049200  0.48497000  1
  O  O2  1  0.06627700  0.73417200  0.30773800  1
  O  O3  1  0.28340400  0.90326600  0.70113600  1
  O  O4  1  0.21931000  0.26400300  0.02841300  1
  O  O5  1  0.71124100  0.75573900  0.99906200  1
  O  O6  1  0.58341700  0.61419200  0.48468700  1
  O  O7  1  0.56459100  0.07396900  0.30708600  1
  O  O8  1  0.78040800  0.29651600  0.70083900  1
  O  O9  1  0.72144200  0.26751900  0.03278500  1
loop_
_geom_bond_atom_site_label_1
_geom_bond_atom_site_label_2
_geom_bond_distance
_geom_bond_site_symmetry_2
La0 O2 2.413463 1_545
La0 O4 2.507596 1_555
La0 O9 2.526476 1_455
La0 O5 2.530480 1_444
La0 O1 2.535192 1_555
La0 O7 2.564642 1_555
La0 O0 2.582023 1_544
La1 O7 2.417013 1_565
La1 O9 2.490324 1_555
La1 O0 2.526786 1_554
La1 O6 2.533549 1_555
La1 O4 2.538733 1_555
La1 O5 2.569768 1_554
La1 O2 2.579883 1_655
Ga0 O3 1.821639 1_555
Ga0 O2 1.839317 1_555
Ga0 O1 1.922152 1_555
Ga0 O6 1.926646 1_555
Ga1 O8 1.823069 1_555
Ga1 O7 1.843254 1_555
Ga1 O6 1.921006 1_555
Ga1 O1 1.925476 1_655
Cu0 O5 1.953172 1_555
Cu0 O9 1.963239 1_566
Cu0 O0 1.967595 1_555
Cu0 O4 1.972841 1_566
Cu0 O3 2.438119 1_555
Cu1 O0 1.952167 1_655
Cu1 O4 1.960945 1_656
Cu1 O5 1.966977 1_555
Cu1 O9 1.967597 1_556
Cu1 O8 2.441178 1_555
O0 Sr0 2.709086 1_555
O0 Sr1 2.760998 1_455
O1 Sr0 2.630843 1_555
O3 Sr0 2.507317 1_565
O3 Sr1 2.641205 1_455
O3 Sr1 2.893376 1_555
O4 Sr1 2.798013 1_444
O4 Sr0 2.816544 1_554
O5 Sr1 2.711858 1_555
O5 Sr0 2.768687 1_555
O6 Sr1 2.633851 1_555
O8 Sr1 2.504551 1_545
O8 Sr0 2.634337 1_555
O8 Sr0 2.902271 1_655
O9 Sr0 2.824090 1_554
O9 Sr1 2.855538 1_544
