# generated using pymatgen
data_CeSe2
_symmetry_space_group_name_H-M   'P 1'
_cell_length_a   5.50038000
_cell_length_b   5.50038000
_cell_length_c   13.85790800
_cell_angle_alpha   90.00000000
_cell_angle_beta   90.00000000
_cell_angle_gamma   90.00000000
_symmetry_Int_Tables_number   1
_chemical_formula_structural   CeSe2
_chemical_formula_sum   'Ce4 Se8'
_cell_volume   419.25964506
_cell_formula_units_Z   4
loop_
 _symmetry_equiv_pos_site_id
 _symmetry_equiv_pos_as_xyz
  1  'x, y, z'
loop_
 _atom_site_type_symbol
 _atom_site_label
 _atom_site_symmetry_multiplicity
 _atom_site_fract_x
 _atom_site_fract_y
 _atom_site_fract_z
 _atom_site_occupancy
  Ce  Ce0  1  0.71462500  0.28537500  0.75000000  1
  Ce  Ce1  1  0.28537500  0.71462500  0.25000000  1
  Ce  Ce2  1  0.78537500  0.78537500  0.50000000  1
  Ce  Ce3  1  0.21462500  0.21462500  0.00000000  1
  Se  Se0  1  0.83875100  0.28650500  0.54983500  1
  Se  Se1  1  0.16124900  0.71349500  0.04983500  1
  Se  Se2  1  0.78650500  0.66124900  0.29983500  1
  Se  Se3  1  0.21349500  0.33875100  0.79983500  1
  Se  Se4  1  0.71349500  0.16124900  0.95016500  1
  Se  Se5  1  0.28650500  0.83875100  0.45016500  1
  Se  Se6  1  0.66124900  0.78650500  0.70016500  1
  Se  Se7  1  0.33875100  0.21349500  0.20016500  1
loop_
_geom_bond_atom_site_label_1
_geom_bond_atom_site_label_2
_geom_bond_distance
_geom_bond_site_symmetry_2
Ce0 Se3 2.844737 1_655
Ce0 Se6 2.844737 1_545
Ce0 Se4 2.856662 1_555
Ce0 Se0 2.856662 1_555
Ce0 Se3 2.856730 1_555
Ce0 Se6 2.856730 1_555
Ce1 Se2 2.844737 1_455
Ce1 Se7 2.844737 1_565
Ce1 Se5 2.856662 1_555
Ce1 Se1 2.856662 1_555
Ce1 Se2 2.856730 1_555
Ce1 Se7 2.856730 1_555
Ce2 Se5 2.844737 1_555
Ce2 Se0 2.844737 1_555
Ce2 Se6 2.856662 1_555
Ce2 Se2 2.856662 1_555
Ce2 Se5 2.856730 1_655
Ce2 Se0 2.856730 1_565
Ce3 Se1 2.844737 1_555
Ce3 Se4 2.844737 1_554
Ce3 Se7 2.856662 1_555
Ce3 Se3 2.856662 1_554
Ce3 Se1 2.856730 1_545
Ce3 Se4 2.856730 1_454
