# generated using pymatgen
data_EuAl8SiAu4
_symmetry_space_group_name_H-M   'P 1'
_cell_length_a   4.29482100
_cell_length_b   4.29482100
_cell_length_c   14.47291100
_cell_angle_alpha   90.00000000
_cell_angle_beta   90.00000000
_cell_angle_gamma   90.00000000
_symmetry_Int_Tables_number   1
_chemical_formula_structural   EuAl8SiAu4
_chemical_formula_sum   'Eu1 Al8 Si1 Au4'
_cell_volume   266.95989781
_cell_formula_units_Z   1
loop_
 _symmetry_equiv_pos_site_id
 _symmetry_equiv_pos_as_xyz
  1  'x, y, z'
loop_
 _atom_site_type_symbol
 _atom_site_label
 _atom_site_symmetry_multiplicity
 _atom_site_fract_x
 _atom_site_fract_y
 _atom_site_fract_z
 _atom_site_occupancy
  Eu  Eu0  1  0.00000000  0.00000000  0.00578800  1
  Al  Al0  1  0.50000000  0.00000000  0.81283000  1
  Al  Al1  1  0.00000000  0.50000000  0.81283000  1
  Al  Al2  1  0.50000000  0.00000000  0.18974300  1
  Al  Al3  1  0.00000000  0.50000000  0.18974300  1
  Al  Al4  1  0.50000000  0.00000000  0.60322100  1
  Al  Al5  1  0.00000000  0.50000000  0.60322100  1
  Al  Al6  1  0.50000000  0.00000000  0.39617200  1
  Al  Al7  1  0.00000000  0.50000000  0.39617200  1
  Si  Si0  1  0.50000000  0.50000000  0.08279100  1
  Au  Au0  1  0.50000000  0.50000000  0.49929100  1
  Au  Au1  1  0.00000000  0.00000000  0.70575700  1
  Au  Au2  1  0.00000000  0.00000000  0.29021200  1
  Au  Au3  1  0.50000000  0.50000000  0.91223000  1
loop_
_geom_bond_atom_site_label_1
_geom_bond_atom_site_label_2
_geom_bond_distance
_geom_bond_site_symmetry_2
Eu0 Si0 3.234928 1_545
Eu0 Si0 3.234928 1_445
Eu0 Si0 3.234928 1_555
Eu0 Si0 3.234928 1_455
Al0 Au3 2.584756 1_555
Al0 Au3 2.584756 1_545
Al0 Au1 2.648171 1_655
Al0 Au1 2.648171 1_555
Al0 Eu0 3.522832 1_656
Al0 Eu0 3.522832 1_556
Al1 Au3 2.584756 1_555
Al1 Au3 2.584756 1_455
Al1 Au1 2.648171 1_555
Al1 Au1 2.648171 1_565
Al1 Eu0 3.522832 1_556
Al1 Eu0 3.522832 1_566
Al2 Au2 2.593399 1_655
Al2 Au2 2.593399 1_555
Al2 Si0 2.647147 1_555
Al2 Si0 2.647147 1_545
Al2 Eu0 3.420461 1_555
Al2 Eu0 3.420461 1_655
Al3 Au2 2.593399 1_565
Al3 Au2 2.593399 1_555
Al3 Si0 2.647147 1_555
Al3 Si0 2.647147 1_455
Al3 Eu0 3.420461 1_565
Al3 Eu0 3.420461 1_555
Al4 Au1 2.610289 1_655
Al4 Au1 2.610289 1_555
Al4 Au0 2.621812 1_555
Al4 Au0 2.621812 1_545
Al5 Au1 2.610289 1_565
Al5 Au1 2.610289 1_555
Al5 Au0 2.621812 1_455
Al5 Au0 2.621812 1_555
Al6 Au0 2.615096 1_555
Al6 Au0 2.615096 1_545
Al6 Au2 2.638777 1_555
Al6 Au2 2.638777 1_655
Al7 Au0 2.615096 1_555
Al7 Au0 2.615096 1_455
Al7 Au2 2.638777 1_565
Al7 Au2 2.638777 1_555
Au3 Si0 2.468514 1_556
Au3 Eu0 3.325088 1_656
Au3 Eu0 3.325088 1_556
Au3 Eu0 3.325088 1_566
Au3 Eu0 3.325088 1_666
