# generated using pymatgen
data_Li3V5P7O29
_symmetry_space_group_name_H-M   'P 1'
_cell_length_a   6.36032032
_cell_length_b   10.41595513
_cell_length_c   19.27307592
_cell_angle_alpha   89.28212977
_cell_angle_beta   84.76948590
_cell_angle_gamma   72.67397610
_symmetry_Int_Tables_number   1
_chemical_formula_structural   Li3V5P7O29
_chemical_formula_sum   'Li6 V10 P14 O58'
_cell_volume   1213.66454215
_cell_formula_units_Z   2
loop_
 _symmetry_equiv_pos_site_id
 _symmetry_equiv_pos_as_xyz
  1  'x, y, z'
loop_
 _atom_site_type_symbol
 _atom_site_label
 _atom_site_symmetry_multiplicity
 _atom_site_fract_x
 _atom_site_fract_y
 _atom_site_fract_z
 _atom_site_occupancy
  Li  Li0  1  0.31369600  0.09465300  0.49638200  1
  Li  Li1  1  0.34741300  0.38715000  0.75129100  1
  Li  Li2  1  0.18149000  0.66927100  0.84513700  1
  Li  Li3  1  0.89685000  0.88422900  0.07023100  1
  Li  Li4  1  0.86118800  0.32745500  0.13673400  1
  Li  Li5  1  0.65649200  0.60539400  0.24800100  1
  V  V0  1  0.07849200  0.04298500  0.65268300  1
  V  V1  1  0.32933300  0.31224500  0.01709000  1
  V  V2  1  0.40426700  0.14101600  0.16405500  1
  V  V3  1  0.08720100  0.75349400  0.19984000  1
  V  V4  1  0.20920700  0.36433400  0.39330500  1
  V  V5  1  0.79807000  0.64111500  0.60333600  1
  V  V6  1  0.91445200  0.24511300  0.80585000  1
  V  V7  1  0.60508400  0.85960400  0.83134900  1
  V  V8  1  0.65742000  0.69262400  0.98345300  1
  V  V9  1  0.92479900  0.96038200  0.35013800  1
  P  P0  1  0.14351800  0.43396100  0.22723300  1
  P  P1  1  0.04429800  0.68348600  0.45263800  1
  P  P2  1  0.17298800  0.64351700  0.02693700  1
  P  P3  1  0.38793500  0.04609700  0.33716700  1
  P  P4  1  0.25880100  0.72201800  0.57560000  1
  P  P5  1  0.42473800  0.20222100  0.84880700  1
  P  P6  1  0.08455300  0.91866900  0.80658000  1
  P  P7  1  0.91715800  0.08166500  0.19263600  1
  P  P8  1  0.57560700  0.79568200  0.15332500  1
  P  P9  1  0.75153200  0.28182300  0.42129800  1
  P  P10  1  0.61935500  0.95490500  0.65991800  1
  P  P11  1  0.82207900  0.36274600  0.97517000  1
  P  P12  1  0.96344200  0.31794300  0.54455800  1
  P  P13  1  0.86538900  0.56365300  0.76958700  1
  O  O0  1  0.01230300  0.30097200  0.02212400  1
  O  O1  1  0.08593600  0.15582000  0.16556200  1
  O  O2  1  0.00533000  0.06110600  0.83699200  1
  O  O3  1  0.06667400  0.17307400  0.56867100  1
  O  O4  1  0.17950400  0.49560700  0.04081800  1
  O  O5  1  0.14315200  0.34502300  0.49022300  1
  O  O6  1  0.38686200  0.10219900  0.26260900  1
  O  O7  1  0.30124900  0.33458300  0.17270300  1
  O  O8  1  0.41049400  0.16654700  0.06654900  1
  O  O9  1  0.15406500  0.71840400  0.09673800  1
  O  O10  1  0.01270000  0.81816700  0.28366600  1
  O  O11  1  0.31694800  0.15838000  0.39414300  1
  O  O12  1  0.12844300  0.56844900  0.39943800  1
  O  O13  1  0.20519900  0.56559800  0.22052800  1
  O  O14  1  0.22776200  0.37721500  0.29924000  1
  O  O15  1  0.21881600  0.25788500  0.80725200  1
  O  O16  1  0.10362800  0.65176600  0.61362800  1
  O  O17  1  0.10845200  0.55147000  0.77605700  1
  O  O18  1  0.38826500  0.04579300  0.64618100  1
  O  O19  1  0.25014900  0.69381800  0.49249800  1
  O  O20  1  0.49308300  0.05091800  0.85845900  1
  O  O21  1  0.37768600  0.27417800  0.92094800  1
  O  O22  1  0.11336100  0.91332100  0.72670000  1
  O  O23  1  0.19416400  0.87574700  0.58510400  1
  O  O24  1  0.60936600  0.35559800  0.01877300  1
  O  O25  1  0.69845200  0.16939000  0.16458000  1
  O  O26  1  0.22655500  0.95986700  0.35042300  1
  O  O27  1  0.51378600  0.35451200  0.40678200  1
  O  O28  1  0.39995400  0.75809100  0.20295300  1
  O  O29  1  0.59680000  0.25317600  0.80267700  1
  O  O30  1  0.49648900  0.64361500  0.58842800  1
  O  O31  1  0.77593800  0.04112400  0.64570200  1
  O  O32  1  0.30656500  0.83407700  0.83367700  1
  O  O33  1  0.37644600  0.64887700  0.97848600  1
  O  O34  1  0.82149400  0.12752900  0.41352900  1
  O  O35  1  0.88585700  0.08437700  0.27245600  1
  O  O36  1  0.60119500  0.72686300  0.08128800  1
  O  O37  1  0.53873500  0.94679100  0.13997000  1
  O  O38  1  0.75526500  0.31364000  0.50372300  1
  O  O39  1  0.62108000  0.95478600  0.34934900  1
  O  O40  1  0.90152800  0.44600200  0.22052000  1
  O  O41  1  0.90524700  0.35219400  0.38256400  1
  O  O42  1  0.78815800  0.73305100  0.19055500  1
  O  O43  1  0.78328200  0.61696000  0.69736500  1
  O  O44  1  0.81247800  0.42882100  0.77739700  1
  O  O45  1  0.88717400  0.42787800  0.59899100  1
  O  O46  1  0.68875800  0.83365200  0.60995000  1
  O  O47  1  0.98868100  0.17637100  0.71519100  1
  O  O48  1  0.85541400  0.29169300  0.90438400  1
  O  O49  1  0.58957700  0.83119100  0.93186200  1
  O  O50  1  0.70349800  0.66337000  0.82298600  1
  O  O51  1  0.61634900  0.90202100  0.73694400  1
  O  O52  1  0.87061100  0.65099200  0.50609900  1
  O  O53  1  0.81367400  0.51194700  0.96107000  1
  O  O54  1  0.94924000  0.82368500  0.42310200  1
  O  O55  1  0.98464000  0.94062600  0.15884100  1
  O  O56  1  0.92447900  0.83823300  0.83423200  1
  O  O57  1  0.96232900  0.72103900  0.99151300  1
loop_
_geom_bond_atom_site_label_1
_geom_bond_atom_site_label_2
_geom_bond_distance
_geom_bond_site_symmetry_2
Li0 O3 1.985399 1_555
Li0 O11 2.071645 1_555
Li0 O5 2.514438 1_555
Li1 O17 1.950907 1_555
Li1 O15 2.025780 1_555
Li1 O29 2.092256 1_555
Li2 O17 1.996783 1_555
Li2 O56 2.037999 1_455
Li2 O32 2.097671 1_555
Li3 O55 1.991922 1_555
Li3 O9 2.089961 1_655
Li3 O57 2.211828 1_554
Li3 O37 2.449276 1_555
Li4 O1 2.036150 1_655
Li4 O40 2.124227 1_555
Li4 O25 2.227456 1_555
Li4 O0 2.312862 1_655
Li5 O40 1.948382 1_555
Li5 O42 2.037749 1_555
Li5 O28 2.150289 1_555
O0 P11 1.555031 1_454
O0 V1 2.047971 1_555
O1 P7 1.550117 1_455
O1 V2 1.981771 1_555
O2 P6 1.523564 1_545
O2 V6 1.934507 1_455
O3 P12 1.540117 1_455
O3 V0 2.090440 1_555
O4 P2 1.549347 1_555
O4 V1 1.903503 1_555
O5 P12 1.564948 1_455
O5 V4 1.898390 1_555
O6 P3 1.544264 1_555
O6 V2 1.937181 1_555
O7 P0 1.548852 1_555
O7 V2 1.929707 1_555
O8 V1 1.750726 1_555
O8 V2 1.893149 1_555
O9 P2 1.540633 1_555
O9 V3 2.008613 1_555
O10 V3 1.728004 1_555
O10 V9 1.889919 1_455
O11 P3 1.550731 1_555
O11 V4 2.048740 1_555
O12 P1 1.523889 1_555
O12 V4 2.035359 1_555
O13 P0 1.535348 1_555
O13 V3 1.926834 1_555
O14 P0 1.577602 1_555
O14 V4 1.811889 1_555
O15 P5 1.555732 1_555
O15 V6 1.982163 1_455
O16 P4 1.526928 1_555
O16 V5 2.006962 1_455
O17 P13 1.529557 1_455
O18 P10 1.537056 1_545
O18 V0 1.971720 1_555
O19 P1 1.607900 1_555
O19 P4 1.640736 1_555
O20 P5 1.518747 1_555
O20 V7 1.965734 1_545
O21 P5 1.549554 1_555
O21 V1 1.878060 1_556
O22 P6 1.533452 1_555
O22 V0 1.933712 1_565
O23 P4 1.538847 1_555
O23 V0 2.095434 1_565
O24 P11 1.547026 1_554
O24 V1 1.966525 1_555
O25 P7 1.558845 1_555
O25 V2 1.980253 1_555
O26 P3 1.555980 1_565
O26 V9 1.918183 1_455
O27 P9 1.525776 1_555
O27 V4 1.950330 1_555
O28 P8 1.540343 1_555
O28 V3 2.010326 1_555
O29 P5 1.557725 1_555
O29 V6 2.003501 1_555
O30 P4 1.530110 1_555
O30 V5 1.957827 1_555
O31 P10 1.533042 1_545
O31 V0 1.947063 1_655
O32 P6 1.557205 1_555
O32 V7 1.990613 1_555
O33 P2 1.539834 1_556
O33 V8 1.981861 1_555
O34 P9 1.539868 1_555
O34 V9 2.044756 1_545
O35 P7 1.532624 1_555
O35 V9 1.949240 1_545
O36 P8 1.543422 1_555
O36 V8 1.904845 1_554
O37 P8 1.542580 1_555
O37 V2 1.990032 1_565
O38 P12 1.612699 1_555
O38 P9 1.630566 1_555
O39 P3 1.541582 1_565
O39 V9 1.951341 1_555
O40 P0 1.523918 1_655
O41 P9 1.526583 1_555
O41 V4 2.003911 1_655
O42 P8 1.551738 1_555
O42 V3 1.999810 1_655
O43 P13 1.568112 1_555
O43 V5 1.824256 1_555
O44 P13 1.541179 1_555
O44 V6 1.918905 1_555
O45 P12 1.501193 1_555
O45 V5 2.123114 1_555
O46 P10 1.529146 1_555
O46 V5 1.918662 1_555
O47 V0 1.775302 1_655
O47 V6 1.862297 1_555
O48 P11 1.527415 1_555
O48 V6 1.940969 1_555
O49 V8 1.711526 1_555
O49 V7 1.954027 1_555
O50 P13 1.547508 1_555
O50 V7 1.955352 1_555
O51 P10 1.577409 1_555
O51 V7 1.867020 1_555
O52 P1 1.550158 1_655
O52 V5 1.897719 1_555
O53 P11 1.560265 1_555
O53 V8 1.882449 1_555
O54 P1 1.529095 1_655
O54 V9 1.971503 1_555
O55 P7 1.537541 1_565
O55 V3 2.036466 1_655
O56 P6 1.555789 1_655
O56 V7 1.982518 1_555
O57 P2 1.556252 1_656
O57 V8 2.066552 1_555
