# generated using pymatgen
data_TaCr3(CuS4)2
_symmetry_space_group_name_H-M   'P 1'
_cell_length_a   6.96042800
_cell_length_b   7.11177100
_cell_length_c   9.97344500
_cell_angle_alpha   90.00000000
_cell_angle_beta   90.00000000
_cell_angle_gamma   90.00000000
_symmetry_Int_Tables_number   1
_chemical_formula_structural   TaCr3(CuS4)2
_chemical_formula_sum   'Ta2 Cr6 Cu4 S16'
_cell_volume   493.69520172
_cell_formula_units_Z   2
loop_
 _symmetry_equiv_pos_site_id
 _symmetry_equiv_pos_as_xyz
  1  'x, y, z'
loop_
 _atom_site_type_symbol
 _atom_site_label
 _atom_site_symmetry_multiplicity
 _atom_site_fract_x
 _atom_site_fract_y
 _atom_site_fract_z
 _atom_site_occupancy
  Ta  Ta0  1  0.00000000  0.48587100  0.50000000  1
  Ta  Ta1  1  0.50000000  0.51412900  0.50000000  1
  Cr  Cr0  1  0.25311000  0.75038500  0.25047400  1
  Cr  Cr1  1  0.74689000  0.75038500  0.74952600  1
  Cr  Cr2  1  0.24689000  0.24961500  0.25047400  1
  Cr  Cr3  1  0.75311000  0.24961500  0.74952600  1
  Cr  Cr4  1  0.00000000  0.99780700  0.00000000  1
  Cr  Cr5  1  0.50000000  0.00219300  0.00000000  1
  Cu  Cu0  1  0.75000000  0.00000000  0.36145300  1
  Cu  Cu1  1  0.75000000  0.50000000  0.11142000  1
  Cu  Cu2  1  0.25000000  0.00000000  0.63854700  1
  Cu  Cu3  1  0.25000000  0.50000000  0.88858000  1
  S  S0  1  0.74822400  0.76799500  0.98776400  1
  S  S1  1  0.24615800  0.74780600  0.49629800  1
  S  S2  1  0.74615800  0.25219400  0.50370200  1
  S  S3  1  0.24822400  0.23200500  0.01223600  1
  S  S4  1  0.02074300  0.99741700  0.23929900  1
  S  S5  1  0.98929600  0.50324800  0.74591300  1
  S  S6  1  0.52074300  0.00258300  0.76070100  1
  S  S7  1  0.48929600  0.49675200  0.25408700  1
  S  S8  1  0.25384200  0.25219400  0.49629800  1
  S  S9  1  0.75177600  0.23200500  0.98776400  1
  S  S10  1  0.25177600  0.76799500  0.01223600  1
  S  S11  1  0.75384200  0.74780600  0.50370200  1
  S  S12  1  0.51070400  0.49675200  0.74591300  1
  S  S13  1  0.47925700  0.00258300  0.23929900  1
  S  S14  1  0.01070400  0.50324800  0.25408700  1
  S  S15  1  0.97925700  0.99741700  0.76070100  1
loop_
_geom_bond_atom_site_label_1
_geom_bond_atom_site_label_2
_geom_bond_distance
_geom_bond_site_symmetry_2
Cr0 S10 2.379370 1_555
Cr0 S13 2.388945 1_565
Cr0 S4 2.390562 1_555
Cr0 S14 2.436638 1_555
Cr0 S7 2.440801 1_555
Cr0 S1 2.452258 1_555
Cr1 S0 2.379370 1_555
Cr1 S6 2.388945 1_565
Cr1 S15 2.390562 1_555
Cr1 S5 2.436638 1_555
Cr1 S12 2.440801 1_555
Cr1 S11 2.452258 1_555
Cr2 S3 2.379370 1_555
Cr2 S4 2.388945 1_545
Cr2 S13 2.390562 1_555
Cr2 S7 2.436638 1_555
Cr2 S14 2.440801 1_555
Cr2 S8 2.452258 1_555
Cr3 S9 2.379370 1_555
Cr3 S15 2.388945 1_545
Cr3 S6 2.390562 1_555
Cr3 S12 2.436638 1_555
Cr3 S5 2.440801 1_555
Cr3 S2 2.452258 1_555
Cr4 S4 2.391000 1_555
Cr4 S15 2.391000 1_454
Cr4 S10 2.399418 1_555
Cr4 S0 2.399418 1_454
Cr4 S3 2.402935 1_565
Cr4 S9 2.402935 1_464
Cr5 S13 2.391000 1_555
Cr5 S6 2.391000 1_554
Cr5 S3 2.399418 1_555
Cr5 S9 2.399418 1_554
Cr5 S10 2.402935 1_545
Cr5 S0 2.402935 1_544
Cu0 S4 2.244076 1_645
Cu0 S13 2.244076 1_555
Cu0 S2 2.286978 1_555
Cu0 S11 2.286978 1_545
Cu1 S9 2.270165 1_554
Cu1 S0 2.270165 1_554
Cu1 S14 2.306066 1_655
Cu1 S7 2.306066 1_555
Cu2 S6 2.244076 1_555
Cu2 S15 2.244076 1_445
Cu2 S8 2.286978 1_555
Cu2 S1 2.286978 1_545
Cu3 S10 2.270165 1_556
Cu3 S3 2.270165 1_556
Cu3 S12 2.306066 1_555
Cu3 S5 2.306066 1_455
S1 Ta1 2.425879 1_555
S1 Ta0 2.531223 1_555
S2 Ta0 2.425879 1_655
S2 Ta1 2.531223 1_555
S5 Ta0 2.456841 1_655
S7 Ta1 2.456841 1_555
S8 Ta0 2.425879 1_555
S8 Ta1 2.531223 1_555
S11 Ta1 2.425879 1_555
S11 Ta0 2.531223 1_655
S12 Ta1 2.456841 1_555
S14 Ta0 2.456841 1_555
