# generated using pymatgen
data_SmFe11Mo
_symmetry_space_group_name_H-M   'P 1'
_cell_length_a   4.69509963
_cell_length_b   6.48228948
_cell_length_c   6.48228948
_cell_angle_alpha   97.81469939
_cell_angle_beta   111.29992983
_cell_angle_gamma   68.70007017
_symmetry_Int_Tables_number   1
_chemical_formula_structural   SmFe11Mo
_chemical_formula_sum   'Sm1 Fe11 Mo1'
_cell_volume   171.25427757
_cell_formula_units_Z   1
loop_
 _symmetry_equiv_pos_site_id
 _symmetry_equiv_pos_as_xyz
  1  'x, y, z'
loop_
 _atom_site_type_symbol
 _atom_site_label
 _atom_site_symmetry_multiplicity
 _atom_site_fract_x
 _atom_site_fract_y
 _atom_site_fract_z
 _atom_site_occupancy
  Sm  Sm0  1  0.00631700  0.99367400  0.00632600  1
  Fe  Fe0  1  0.73180500  0.76838500  0.23161500  1
  Fe  Fe1  1  0.27048400  0.22934200  0.77065800  1
  Fe  Fe2  1  0.49814200  0.77651500  0.77302700  1
  Fe  Fe3  1  0.49814200  0.22697300  0.22348500  1
  Fe  Fe4  1  0.50052800  0.99821400  0.50004900  1
  Fe  Fe5  1  0.00146300  0.99812900  0.50008600  1
  Fe  Fe6  1  0.50052800  0.49995100  0.00178600  1
  Fe  Fe7  1  0.00146300  0.49991400  0.00187100  1
  Fe  Fe8  1  0.35922000  0.64047700  0.35952300  1
  Fe  Fe9  1  0.99920100  0.36009600  0.35847700  1
  Fe  Fe10  1  0.99920100  0.64152300  0.63990400  1
  Mo  Mo0  1  0.63350700  0.36680800  0.63319200  1
loop_
_geom_bond_atom_site_label_1
_geom_bond_atom_site_label_2
_geom_bond_distance
_geom_bond_site_symmetry_2
Fe0 Fe7 2.431832 1_655
Fe0 Fe5 2.431832 1_655
Fe0 Fe4 2.432889 1_555
Fe0 Fe6 2.432889 1_555
Fe0 Fe9 2.585540 1_555
Fe0 Fe10 2.585540 1_555
Fe0 Fe8 2.586619 1_655
Fe0 Fe8 2.594126 1_555
Fe0 Fe2 2.770303 1_554
Fe0 Fe3 2.770303 1_565
Fe0 Sm0 3.036454 1_555
Fe0 Sm0 3.039984 1_655
Fe1 Fe5 2.443156 1_545
Fe1 Fe7 2.443156 1_556
Fe1 Fe4 2.444281 1_545
Fe1 Fe6 2.444281 1_556
Fe1 Fe10 2.615105 1_455
Fe1 Fe9 2.615105 1_455
Fe1 Mo0 2.622201 1_455
Fe1 Mo0 2.629817 1_555
Fe1 Fe3 2.734952 1_556
Fe1 Fe2 2.734952 1_545
Fe1 Sm0 3.093419 1_646
Fe1 Sm0 3.097351 1_546
Fe2 Fe5 2.427355 1_555
Fe2 Fe4 2.431930 1_555
Fe2 Fe7 2.469439 1_656
Fe2 Fe6 2.471713 1_556
Fe2 Mo0 2.610873 1_555
Fe2 Fe8 2.625417 1_555
Fe2 Sm0 3.032742 1_556
Fe2 Sm0 3.033326 1_656
Fe3 Fe7 2.427355 1_555
Fe3 Fe6 2.431930 1_555
Fe3 Fe5 2.469439 1_645
Fe3 Fe4 2.471713 1_545
Fe3 Fe9 2.610237 1_455
Fe3 Mo0 2.610873 1_555
Fe3 Fe9 2.611264 1_555
Fe3 Fe8 2.625417 1_555
Fe3 Sm0 3.032742 1_545
Fe3 Sm0 3.033326 1_645
Fe4 Fe5 2.343447 1_555
Fe4 Fe5 2.351653 1_655
Fe4 Fe8 2.598411 1_555
Fe4 Fe9 2.624896 1_465
Fe4 Mo0 2.641047 1_565
Fe4 Sm0 3.202613 1_555
Fe4 Sm0 3.274779 1_656
Fe5 Fe8 2.595172 1_555
Fe5 Fe9 2.628451 1_465
Fe5 Mo0 2.638795 1_465
Fe5 Sm0 3.205181 1_555
Fe5 Sm0 3.277373 1_556
Fe6 Fe7 2.343447 1_555
Fe6 Fe7 2.351653 1_655
Fe6 Fe9 2.597084 1_555
Fe6 Fe8 2.598411 1_555
Fe6 Mo0 2.641047 1_554
Fe6 Sm0 3.202613 1_555
Fe6 Sm0 3.274779 1_645
Fe7 Fe8 2.595172 1_555
Fe7 Fe9 2.599951 1_455
Fe7 Mo0 2.638795 1_454
Fe7 Sm0 3.205181 1_555
Fe7 Sm0 3.277373 1_545
Fe8 Mo0 2.342849 1_555
Fe8 Fe9 2.894122 1_555
Fe8 Fe9 2.894971 1_455
Fe8 Sm0 3.023686 1_555
Fe9 Mo0 2.874453 1_655
Fe9 Mo0 2.875245 1_555
Fe9 Sm0 3.062212 1_645
Fe10 Fe9 2.398135 1_555
Fe10 Fe4 2.597084 1_555
Fe10 Fe5 2.599951 1_655
Fe10 Fe2 2.610237 1_655
Fe10 Fe2 2.611264 1_555
Fe10 Fe6 2.624896 1_656
Fe10 Fe7 2.628451 1_656
Fe10 Mo0 2.874453 1_655
Fe10 Mo0 2.875245 1_555
Fe10 Fe8 2.894122 1_555
Fe10 Fe8 2.894971 1_655
Fe10 Sm0 3.062212 1_656
Mo0 Sm0 3.194365 1_646
