# generated using pymatgen
data_MgMnO2
_symmetry_space_group_name_H-M   'P 1'
_cell_length_a   3.03269700
_cell_length_b   8.36774806
_cell_length_c   8.45068990
_cell_angle_alpha   86.05438471
_cell_angle_beta   79.66131171
_cell_angle_gamma   79.86361344
_symmetry_Int_Tables_number   1
_chemical_formula_structural   MgMnO2
_chemical_formula_sum   'Mg4 Mn4 O8'
_cell_volume   207.52363194
_cell_formula_units_Z   4
loop_
 _symmetry_equiv_pos_site_id
 _symmetry_equiv_pos_as_xyz
  1  'x, y, z'
loop_
 _atom_site_type_symbol
 _atom_site_label
 _atom_site_symmetry_multiplicity
 _atom_site_fract_x
 _atom_site_fract_y
 _atom_site_fract_z
 _atom_site_occupancy
  Mg  Mg0  1  0.15602600  0.90584000  0.23855200  1
  Mg  Mg1  1  0.84397400  0.09416000  0.76144800  1
  Mg  Mg2  1  0.43435400  0.26141200  0.10615000  1
  Mg  Mg3  1  0.56564600  0.73858800  0.89385000  1
  Mn  Mn0  1  0.90142700  0.77955800  0.58473900  1
  Mn  Mn1  1  0.34004700  0.58228200  0.23415900  1
  Mn  Mn2  1  0.65995300  0.41771800  0.76584100  1
  Mn  Mn3  1  0.09857300  0.22044200  0.41526100  1
  O  O0  1  0.67455400  0.26305100  0.57508500  1
  O  O1  1  0.09482800  0.60826300  0.80113700  1
  O  O2  1  0.90517200  0.39173700  0.19886300  1
  O  O3  1  0.32544600  0.73694900  0.42491500  1
  O  O4  1  0.41081700  0.92498600  0.73395200  1
  O  O5  1  0.67511000  0.76158600  0.12483700  1
  O  O6  1  0.58918300  0.07501400  0.26604800  1
  O  O7  1  0.32489000  0.23841400  0.87516300  1
loop_
_geom_bond_atom_site_label_1
_geom_bond_atom_site_label_2
_geom_bond_distance
_geom_bond_site_symmetry_2
Mg0 O5 1.951023 1_555
Mg0 O6 2.014558 1_465
Mg0 O3 2.114258 1_555
Mg0 O6 2.143113 1_565
Mg0 O5 2.406244 1_455
Mg1 O7 1.951023 1_555
Mg1 O4 2.014558 1_645
Mg1 O0 2.114258 1_555
Mg1 O4 2.143113 1_545
Mg1 O7 2.406244 1_655
Mg2 O2 1.851727 1_455
Mg2 O6 2.039367 1_555
Mg2 O7 2.065022 1_554
Mg2 O2 2.215639 1_555
Mg3 O1 1.851727 1_655
Mg3 O4 2.039367 1_555
Mg3 O5 2.065022 1_556
Mg3 O1 2.215639 1_555
Mn0 O3 1.698940 1_655
Mn0 O4 2.045748 1_555
Mn0 O1 2.339028 1_655
Mn0 O3 2.476858 1_555
Mn0 O4 2.651301 1_655
Mn1 O5 2.036192 1_555
Mn1 O2 2.118631 1_555
Mn1 O3 2.125296 1_555
Mn1 O2 2.305934 1_455
Mn1 O5 2.565943 1_455
Mn2 O7 2.036192 1_555
Mn2 O1 2.118631 1_555
Mn2 O0 2.125296 1_555
Mn2 O1 2.305934 1_655
Mn2 O7 2.565943 1_655
Mn3 O0 1.698940 1_455
Mn3 O6 2.045748 1_555
Mn3 O2 2.339028 1_455
Mn3 O0 2.476858 1_555
Mn3 O6 2.651301 1_455
