# generated using pymatgen
data_FeO2
_symmetry_space_group_name_H-M   'P 1'
_cell_length_a   5.86200719
_cell_length_b   5.86200719
_cell_length_c   19.46461181
_cell_angle_alpha   81.08548329
_cell_angle_beta   81.08548329
_cell_angle_gamma   61.21704657
_symmetry_Int_Tables_number   1
_chemical_formula_structural   FeO2
_chemical_formula_sum   'Fe16 O32'
_cell_volume   576.64651996
_cell_formula_units_Z   16
loop_
 _symmetry_equiv_pos_site_id
 _symmetry_equiv_pos_as_xyz
  1  'x, y, z'
loop_
 _atom_site_type_symbol
 _atom_site_label
 _atom_site_symmetry_multiplicity
 _atom_site_fract_x
 _atom_site_fract_y
 _atom_site_fract_z
 _atom_site_occupancy
  Fe  Fe0  1  0.63405300  0.11788900  0.12484100  1
  Fe  Fe1  1  0.24709600  0.24709600  0.25441100  1
  Fe  Fe2  1  0.11788900  0.63405300  0.12484100  1
  Fe  Fe3  1  0.14996700  0.14996700  0.53509200  1
  Fe  Fe4  1  0.87061000  0.37217700  0.37818800  1
  Fe  Fe5  1  0.60359300  0.60359300  0.22096900  1
  Fe  Fe6  1  0.40106300  0.40106300  0.77914800  1
  Fe  Fe7  1  0.37217700  0.87061000  0.37818800  1
  Fe  Fe8  1  0.12262000  0.62498200  0.62418600  1
  Fe  Fe9  1  0.85103200  0.85103200  0.46558300  1
  Fe  Fe10  1  0.62498200  0.12262000  0.62418600  1
  Fe  Fe11  1  0.87419300  0.38322200  0.86989100  1
  Fe  Fe12  1  0.38322200  0.87419300  0.86989100  1
  Fe  Fe13  1  0.09776400  0.09776400  0.71568500  1
  Fe  Fe14  1  0.99725300  0.99725300  0.00238000  1
  Fe  Fe15  1  0.35298600  0.35298600  0.97146300  1
  O  O0  1  0.26106900  0.81571100  0.06292000  1
  O  O1  1  0.92507600  0.92507600  0.17638900  1
  O  O2  1  0.81571100  0.26106900  0.06292000  1
  O  O3  1  0.81560800  0.81560800  0.06623800  1
  O  O4  1  0.43121200  0.43121200  0.18845200  1
  O  O5  1  0.50790600  0.06267700  0.31445100  1
  O  O6  1  0.44019600  0.96892700  0.19049100  1
  O  O7  1  0.17403400  0.17403400  0.43760300  1
  O  O8  1  0.06267700  0.50790600  0.31445100  1
  O  O9  1  0.32612500  0.32612500  0.07105400  1
  O  O10  1  0.07503400  0.07503400  0.31821900  1
  O  O11  1  0.96892700  0.44019600  0.19049100  1
  O  O12  1  0.80565000  0.29240600  0.56760600  1
  O  O13  1  0.69208300  0.69208300  0.42751400  1
  O  O14  1  0.70434000  0.19633500  0.43204100  1
  O  O15  1  0.42988700  0.42988700  0.68224600  1
  O  O16  1  0.29240600  0.80565000  0.56760600  1
  O  O17  1  0.56909900  0.56909900  0.31908100  1
  O  O18  1  0.31383100  0.31383100  0.56881700  1
  O  O19  1  0.19633500  0.70434000  0.43204100  1
  O  O20  1  0.93410100  0.93410100  0.68105000  1
  O  O21  1  0.07230700  0.54224300  0.81647700  1
  O  O22  1  0.95814100  0.44135000  0.68251200  1
  O  O23  1  0.68711600  0.68711600  0.91564700  1
  O  O24  1  0.54224300  0.07230700  0.81647700  1
  O  O25  1  0.82245800  0.82245800  0.56478300  1
  O  O26  1  0.55711100  0.55711100  0.81670900  1
  O  O27  1  0.44135000  0.95814100  0.68251200  1
  O  O28  1  0.18227000  0.18227000  0.93726400  1
  O  O29  1  0.19579600  0.71843400  0.94018600  1
  O  O30  1  0.07752800  0.07752800  0.81624300  1
  O  O31  1  0.71843400  0.19579600  0.94018600  1
loop_
_geom_bond_atom_site_label_1
_geom_bond_atom_site_label_2
_geom_bond_distance
_geom_bond_site_symmetry_2
Fe0 O2 1.854860 1_555
Fe0 O1 1.875310 1_545
Fe0 O6 1.961252 1_545
Fe0 O9 1.977930 1_555
Fe0 O3 2.001963 1_545
Fe0 O4 2.113243 1_555
Fe1 O5 1.855387 1_555
Fe1 O8 1.855387 1_555
Fe1 O10 1.944328 1_555
Fe1 O11 1.975616 1_455
Fe1 O6 1.975616 1_545
Fe1 O4 2.059344 1_555
Fe2 O0 1.854860 1_555
Fe2 O1 1.875310 1_455
Fe2 O11 1.961252 1_455
Fe2 O9 1.977930 1_555
Fe2 O3 2.001963 1_455
Fe2 O4 2.113243 1_555
Fe3 O16 1.821144 1_545
Fe3 O12 1.821144 1_455
Fe3 O7 1.869188 1_555
Fe3 O18 1.885659 1_555
Fe4 O14 1.851292 1_555
Fe4 O8 1.887766 1_655
Fe4 O13 1.972424 1_555
Fe4 O10 2.004782 1_655
Fe4 O17 2.008468 1_555
Fe4 O7 2.020392 1_655
Fe5 O17 1.878508 1_555
Fe5 O11 1.913841 1_555
Fe5 O6 1.913841 1_555
Fe5 O4 1.955138 1_555
Fe6 O21 1.772948 1_555
Fe6 O24 1.772948 1_555
Fe6 O26 1.851599 1_555
Fe6 O15 1.855976 1_555
Fe7 O19 1.851292 1_555
Fe7 O5 1.887766 1_565
Fe7 O13 1.972424 1_555
Fe7 O10 2.004782 1_565
Fe7 O17 2.008468 1_555
Fe7 O7 2.020392 1_565
Fe8 O16 1.907615 1_555
Fe8 O22 1.912786 1_455
Fe8 O18 2.002702 1_555
Fe8 O25 2.006797 1_455
Fe8 O20 2.010972 1_455
Fe8 O15 2.018918 1_555
Fe9 O14 1.830630 1_565
Fe9 O19 1.830630 1_655
Fe9 O13 1.883994 1_555
Fe9 O25 1.900261 1_555
Fe10 O12 1.907615 1_555
Fe10 O27 1.912786 1_545
Fe10 O18 2.002702 1_555
Fe10 O25 2.006797 1_545
Fe10 O20 2.010972 1_545
Fe10 O15 2.018918 1_555
Fe11 O23 1.864688 1_555
Fe11 O21 1.914828 1_655
Fe11 O30 1.964604 1_655
Fe11 O26 2.002566 1_555
Fe11 O31 2.006465 1_555
Fe11 O28 2.139025 1_655
Fe12 O23 1.864688 1_555
Fe12 O24 1.914828 1_565
Fe12 O30 1.964604 1_565
Fe12 O26 2.002566 1_555
Fe12 O29 2.006465 1_555
Fe12 O28 2.139025 1_565
Fe13 O27 1.821182 1_545
Fe13 O22 1.821182 1_455
Fe13 O20 1.892784 1_445
Fe13 O30 1.931033 1_555
Fe14 O0 1.871906 1_655
Fe14 O2 1.871906 1_565
Fe14 O31 1.958616 1_564
Fe14 O29 1.958616 1_654
Fe14 O3 2.020906 1_555
Fe14 O28 2.059060 1_664
Fe15 O9 1.908415 1_556
Fe15 O31 1.917737 1_555
Fe15 O29 1.917737 1_555
Fe15 O28 1.955351 1_555
