# generated using pymatgen
data_Zr6Ga2NiH10
_symmetry_space_group_name_H-M   'P 1'
_cell_length_a   8.03128626
_cell_length_b   8.03128626
_cell_length_c   7.22728800
_cell_angle_alpha   90.00000000
_cell_angle_beta   90.00000000
_cell_angle_gamma   120.00000213
_symmetry_Int_Tables_number   1
_chemical_formula_structural   Zr6Ga2NiH10
_chemical_formula_sum   'Zr12 Ga4 Ni2 H20'
_cell_volume   403.71621700
_cell_formula_units_Z   2
loop_
 _symmetry_equiv_pos_site_id
 _symmetry_equiv_pos_as_xyz
  1  'x, y, z'
loop_
 _atom_site_type_symbol
 _atom_site_label
 _atom_site_symmetry_multiplicity
 _atom_site_fract_x
 _atom_site_fract_y
 _atom_site_fract_z
 _atom_site_occupancy
  Zr  Zr0  1  0.73581100  0.00000000  0.00000000  1
  Zr  Zr1  1  0.00000000  0.73581100  0.00000000  1
  Zr  Zr2  1  0.73581100  0.00000000  0.50000000  1
  Zr  Zr3  1  0.26418900  0.26418900  0.00000000  1
  Zr  Zr4  1  0.00000000  0.73581100  0.50000000  1
  Zr  Zr5  1  0.26418900  0.26418900  0.50000000  1
  Zr  Zr6  1  0.41955700  0.04558800  0.25000000  1
  Zr  Zr7  1  0.95441200  0.37397000  0.25000000  1
  Zr  Zr8  1  0.04558800  0.41955700  0.75000000  1
  Zr  Zr9  1  0.62603000  0.58044300  0.25000000  1
  Zr  Zr10  1  0.37397000  0.95441200  0.75000000  1
  Zr  Zr11  1  0.58044300  0.62603000  0.75000000  1
  Ga  Ga0  1  0.33333300  0.66666700  0.04732300  1
  Ga  Ga1  1  0.33333300  0.66666700  0.45267700  1
  Ga  Ga2  1  0.66666700  0.33333300  0.95267700  1
  Ga  Ga3  1  0.66666700  0.33333300  0.54732300  1
  Ni  Ni0  1  0.00000000  0.00000000  0.25000000  1
  Ni  Ni1  1  0.00000000  0.00000000  0.75000000  1
  H  H0  1  0.27753700  0.00000000  0.00000000  1
  H  H1  1  0.00000000  0.27753700  0.00000000  1
  H  H2  1  0.27753700  0.00000000  0.50000000  1
  H  H3  1  0.72246300  0.72246300  0.00000000  1
  H  H4  1  0.00000000  0.27753700  0.50000000  1
  H  H5  1  0.72246300  0.72246300  0.50000000  1
  H  H6  1  0.40563100  0.29429300  0.25000000  1
  H  H7  1  0.70570700  0.11133900  0.25000000  1
  H  H8  1  0.29429300  0.40563100  0.75000000  1
  H  H9  1  0.88866100  0.59436900  0.25000000  1
  H  H10  1  0.11133900  0.70570700  0.75000000  1
  H  H11  1  0.59436900  0.88866100  0.75000000  1
  H  H12  1  0.12234900  0.24289000  0.25000000  1
  H  H13  1  0.75711000  0.87945900  0.25000000  1
  H  H14  1  0.24289000  0.12234900  0.75000000  1
  H  H15  1  0.12054100  0.87765100  0.25000000  1
  H  H16  1  0.87945900  0.75711000  0.75000000  1
  H  H17  1  0.87765100  0.12054100  0.75000000  1
  H  H18  1  0.00000000  0.00000000  0.00000000  1
  H  H19  1  0.00000000  0.00000000  0.50000000  1
loop_
_geom_bond_atom_site_label_1
_geom_bond_atom_site_label_2
_geom_bond_distance
_geom_bond_site_symmetry_2
Ga0 Ga1 2.929610 1_555
Ga0 Zr1 3.013106 1_555
Ga0 Zr0 3.013111 1_565
Ga0 Zr3 3.013114 1_555
Ga0 Zr10 3.051286 1_554
Ga0 Zr8 3.051291 1_554
Ga0 Zr11 3.051298 1_554
Ga0 Zr7 3.127139 1_455
Ga0 Zr6 3.127140 1_565
Ga0 Zr9 3.127140 1_555
Ga1 Zr4 3.013106 1_555
Ga1 Zr2 3.013111 1_565
Ga1 Zr5 3.013114 1_555
Ga1 Zr10 3.051286 1_555
Ga1 Zr8 3.051291 1_555
Ga1 Zr11 3.051298 1_555
Ga1 Zr7 3.127139 1_455
Ga1 Zr6 3.127140 1_565
Ga1 Zr9 3.127140 1_555
Ga2 Ga3 2.929610 1_555
Ga2 Zr0 3.013106 1_556
Ga2 Zr1 3.013111 1_656
Ga2 Zr3 3.013114 1_556
Ga2 Zr7 3.051286 1_556
Ga2 Zr6 3.051291 1_556
Ga2 Zr9 3.051298 1_556
Ga2 Zr10 3.127139 1_545
Ga2 Zr8 3.127140 1_655
Ga2 Zr11 3.127140 1_555
Ga3 Zr2 3.013106 1_555
Ga3 Zr4 3.013111 1_655
Ga3 Zr5 3.013114 1_555
Ga3 Zr7 3.051286 1_555
Ga3 Zr6 3.051291 1_555
Ga3 Zr9 3.051298 1_555
Ga3 Zr10 3.127139 1_545
Ga3 Zr8 3.127140 1_655
Ga3 Zr11 3.127140 1_555
H0 Zr6 2.069305 1_555
H0 Zr10 2.069309 1_544
H0 Zr1 2.177358 1_545
H0 Zr3 2.177358 1_555
H1 Zr8 2.069305 1_554
H1 Zr7 2.069309 1_455
H1 Zr0 2.177358 1_455
H1 Zr3 2.177358 1_555
H2 Zr6 2.069305 1_555
H2 Zr10 2.069309 1_545
H2 Zr4 2.177358 1_545
H2 Zr5 2.177358 1_555
H3 Zr11 2.069306 1_554
H3 Zr9 2.069306 1_555
H3 Zr0 2.177358 1_565
H3 Zr1 2.177358 1_655
H4 Zr8 2.069305 1_555
H4 Zr7 2.069309 1_455
H4 Zr2 2.177358 1_455
H4 Zr5 2.177358 1_555
H5 Zr11 2.069306 1_555
H5 Zr9 2.069306 1_555
H5 Zr4 2.177358 1_655
H5 Zr2 2.177358 1_565
H6 Zr6 2.055626 1_555
H6 Zr5 2.082984 1_555
H6 Zr3 2.082984 1_555
H6 Zr9 2.084894 1_555
H7 Zr7 2.055626 1_555
H7 Zr0 2.082988 1_555
H7 Zr2 2.082988 1_555
H7 Zr6 2.084894 1_555
H8 Zr8 2.055626 1_555
H8 Zr5 2.082984 1_555
H8 Zr3 2.082984 1_556
H8 Zr11 2.084894 1_555
H9 Zr9 2.055626 1_555
H9 Zr4 2.082985 1_655
H9 Zr1 2.082985 1_655
H9 Zr7 2.084894 1_555
H10 Zr10 2.055626 1_555
H10 Zr1 2.082988 1_556
H10 Zr4 2.082988 1_555
H10 Zr8 2.084894 1_555
H11 Zr11 2.055626 1_555
H11 Zr2 2.082985 1_565
H11 Zr0 2.082985 1_566
H11 Zr10 2.084894 1_555
H12 Ni0 1.689388 1_555
H12 Zr7 2.085012 1_455
H12 Zr5 2.096827 1_555
H12 Zr3 2.096827 1_555
H13 Ni0 1.689388 1_665
H13 Zr9 2.085005 1_555
H13 Zr0 2.096827 1_565
H13 Zr2 2.096827 1_565
H14 Ni1 1.689388 1_555
H14 Zr10 2.085012 1_545
H14 Zr3 2.096827 1_556
H14 Zr5 2.096827 1_555
H15 Ni0 1.689388 1_565
H15 Zr6 2.085005 1_565
H15 Zr1 2.096827 1_555
H15 Zr4 2.096827 1_555
H16 Ni1 1.689388 1_665
H16 Zr11 2.085005 1_555
H16 Zr4 2.096827 1_655
H16 Zr1 2.096827 1_656
H17 Ni1 1.689388 1_655
H17 Zr8 2.085005 1_655
H17 Zr2 2.096827 1_555
H17 Zr0 2.096827 1_556
H18 Ni1 1.806822 1_554
H18 Ni0 1.806822 1_555
H18 Zr3 2.121777 1_555
H18 Zr1 2.121777 1_545
H18 Zr0 2.121777 1_455
H19 Ni0 1.806822 1_555
H19 Ni1 1.806822 1_555
H19 Zr5 2.121777 1_555
H19 Zr4 2.121777 1_545
H19 Zr2 2.121777 1_455
