# generated using pymatgen
data_Y2(SO4)3
_symmetry_space_group_name_H-M   'P 1'
_cell_length_a   9.22350356
_cell_length_b   9.29973242
_cell_length_c   12.79262959
_cell_angle_alpha   90.00000000
_cell_angle_beta   90.00000000
_cell_angle_gamma   90.00000000
_symmetry_Int_Tables_number   1
_chemical_formula_structural   Y2(SO4)3
_chemical_formula_sum   'Y8 S12 O48'
_cell_volume   1097.30206792
_cell_formula_units_Z   4
loop_
 _symmetry_equiv_pos_site_id
 _symmetry_equiv_pos_as_xyz
  1  'x, y, z'
loop_
 _atom_site_type_symbol
 _atom_site_label
 _atom_site_symmetry_multiplicity
 _atom_site_fract_x
 _atom_site_fract_y
 _atom_site_fract_z
 _atom_site_occupancy
  Y  Y0  1  0.75065397  0.46352642  0.11826289  1
  Y  Y1  1  0.75065397  0.03647358  0.88173711  1
  Y  Y2  1  0.74934603  0.96352642  0.38173711  1
  Y  Y3  1  0.74934603  0.53647358  0.61826289  1
  Y  Y4  1  0.24934603  0.53647358  0.88173711  1
  Y  Y5  1  0.24934603  0.96352642  0.11826289  1
  Y  Y6  1  0.25065397  0.03647358  0.61826289  1
  Y  Y7  1  0.25065397  0.46352642  0.38173711  1
  S  S0  1  0.96564639  0.75000000  0.00000000  1
  S  S1  1  0.53435361  0.25000000  0.50000000  1
  S  S2  1  0.03435361  0.25000000  0.00000000  1
  S  S3  1  0.46564639  0.75000000  0.50000000  1
  S  S4  1  0.89362464  0.61224330  0.35452285  1
  S  S5  1  0.89362464  0.88775670  0.64547715  1
  S  S6  1  0.60637536  0.11224330  0.14547715  1
  S  S7  1  0.60637536  0.38775670  0.85452285  1
  S  S8  1  0.10637536  0.38775670  0.64547715  1
  S  S9  1  0.10637536  0.11224330  0.35452285  1
  S  S10  1  0.39362464  0.88775670  0.85452285  1
  S  S11  1  0.39362464  0.61224330  0.14547715  1
  O  O0  1  0.83796087  0.57930414  0.45914794  1
  O  O1  1  0.83796087  0.92069586  0.54085206  1
  O  O2  1  0.66203913  0.07930414  0.04085206  1
  O  O3  1  0.66203913  0.42069586  0.95914794  1
  O  O4  1  0.16203913  0.42069586  0.54085206  1
  O  O5  1  0.16203913  0.07930414  0.45914794  1
  O  O6  1  0.33796087  0.92069586  0.95914794  1
  O  O7  1  0.33796087  0.57930414  0.04085206  1
  O  O8  1  0.64184284  0.26133599  0.17311845  1
  O  O9  1  0.64184284  0.23866401  0.82688155  1
  O  O10  1  0.85815716  0.76133599  0.32688155  1
  O  O11  1  0.85815716  0.73866401  0.67311845  1
  O  O12  1  0.35815716  0.73866401  0.82688155  1
  O  O13  1  0.35815716  0.76133599  0.17311845  1
  O  O14  1  0.14184284  0.23866401  0.67311845  1
  O  O15  1  0.14184284  0.26133599  0.32688155  1
  O  O16  1  0.05687072  0.66915162  0.92673785  1
  O  O17  1  0.94312928  0.33084838  0.07326215  1
  O  O18  1  0.55687072  0.83084838  0.42673785  1
  O  O19  1  0.55687072  0.66915162  0.57326215  1
  O  O20  1  0.05145692  0.59418061  0.35254924  1
  O  O21  1  0.05145692  0.90581939  0.64745076  1
  O  O22  1  0.44854308  0.09418061  0.14745076  1
  O  O23  1  0.44854308  0.40581939  0.85254924  1
  O  O24  1  0.94854308  0.40581939  0.64745076  1
  O  O25  1  0.94854308  0.09418061  0.35254924  1
  O  O26  1  0.55145692  0.90581939  0.85254924  1
  O  O27  1  0.55145692  0.59418061  0.14745076  1
  O  O28  1  0.37364987  0.65131620  0.44045356  1
  O  O29  1  0.37364987  0.84868380  0.55954644  1
  O  O30  1  0.12635013  0.15131620  0.05954644  1
  O  O31  1  0.12635013  0.34868380  0.94045356  1
  O  O32  1  0.62635013  0.34868380  0.55954644  1
  O  O33  1  0.62635013  0.15131620  0.44045356  1
  O  O34  1  0.87364987  0.84868380  0.94045356  1
  O  O35  1  0.87364987  0.65131620  0.05954644  1
  O  O36  1  0.32702964  0.51357217  0.22105982  1
  O  O37  1  0.32702964  0.98642783  0.77894018  1
  O  O38  1  0.17297036  0.01357217  0.27894018  1
  O  O39  1  0.17297036  0.48642783  0.72105982  1
  O  O40  1  0.67297036  0.48642783  0.77894018  1
  O  O41  1  0.67297036  0.01357217  0.22105982  1
  O  O42  1  0.82702964  0.98642783  0.72105982  1
  O  O43  1  0.82702964  0.51357217  0.27894018  1
  O  O44  1  0.44312928  0.33084838  0.42673785  1
  O  O45  1  0.44312928  0.16915162  0.57326215  1
  O  O46  1  0.05687072  0.83084838  0.07326215  1
  O  O47  1  0.94312928  0.16915162  0.92673785  1
loop_
_geom_bond_atom_site_label_1
_geom_bond_atom_site_label_2
_geom_bond_distance
_geom_bond_site_symmetry_2
O0 S4 1.465887 1_555
O0 Y3 2.229339 1_555
O1 S5 1.465887 1_555
O1 Y2 2.229339 1_555
O2 S6 1.465887 1_555
O2 Y1 2.229339 1_554
O3 S7 1.465887 1_555
O3 Y0 2.229339 1_556
O4 S8 1.465887 1_555
O4 Y7 2.229339 1_555
O5 S9 1.465887 1_555
O5 Y6 2.229339 1_555
O6 S10 1.465887 1_555
O6 Y5 2.229339 1_556
O7 S11 1.465887 1_555
O7 Y4 2.229339 1_554
O8 S6 1.467820 1_555
O8 Y0 2.243946 1_555
O9 S7 1.467820 1_555
O9 Y1 2.243946 1_555
O10 S4 1.467820 1_555
O10 Y2 2.243946 1_555
O11 S5 1.467820 1_555
O11 Y3 2.243946 1_555
O12 S10 1.467820 1_555
O12 Y4 2.243946 1_555
O13 S11 1.467820 1_555
O13 Y5 2.243946 1_555
O14 S8 1.467820 1_555
O14 Y6 2.243946 1_555
O15 S9 1.467820 1_555
O15 Y7 2.243946 1_555
O16 S0 1.466849 1_456
O16 Y4 2.237302 1_555
O17 S2 1.466849 1_655
O17 Y0 2.237302 1_555
O18 S3 1.466849 1_555
O18 Y2 2.237302 1_555
O19 S3 1.466849 1_555
O19 Y3 2.237302 1_555
O20 S4 1.465643 1_455
O20 Y7 2.234148 1_555
O21 S5 1.465643 1_455
O21 Y6 2.234148 1_565
O22 S6 1.465643 1_555
O22 Y5 2.234148 1_545
O23 S7 1.465643 1_555
O23 Y4 2.234148 1_555
O24 S8 1.465643 1_655
O24 Y3 2.234148 1_555
O25 S9 1.465643 1_655
O25 Y2 2.234148 1_545
O26 S10 1.465643 1_555
O26 Y1 2.234148 1_565
O27 S11 1.465643 1_555
O27 Y0 2.234148 1_555
O28 S3 1.463731 1_555
O28 Y7 2.213840 1_555
O29 S3 1.463731 1_555
O29 Y6 2.213840 1_565
O30 S2 1.463731 1_555
O30 Y5 2.213840 1_545
O31 S2 1.463731 1_556
O31 Y4 2.213840 1_555
O32 S1 1.463731 1_555
O32 Y3 2.213840 1_555
O33 S1 1.463731 1_555
O33 Y2 2.213840 1_545
O34 S0 1.463731 1_556
O34 Y1 2.213840 1_565
O35 S0 1.463731 1_555
O35 Y0 2.213840 1_555
O36 S11 1.467721 1_555
O36 Y7 2.222134 1_555
O37 S10 1.467721 1_555
O37 Y6 2.222134 1_565
O38 S9 1.467721 1_555
O38 Y5 2.222134 1_545
O39 S8 1.467721 1_555
O39 Y4 2.222134 1_555
O40 S7 1.467721 1_555
O40 Y3 2.222134 1_555
O41 S6 1.467721 1_555
O41 Y2 2.222134 1_545
O42 S5 1.467721 1_555
O42 Y1 2.222134 1_565
O43 S4 1.467721 1_555
O43 Y0 2.222134 1_555
O44 S1 1.466849 1_555
O44 Y7 2.237302 1_555
O45 S1 1.466849 1_555
O45 Y6 2.237302 1_555
O46 S0 1.466849 1_455
O46 Y5 2.237302 1_555
O47 S2 1.466849 1_656
O47 Y1 2.237302 1_555
