# generated using pymatgen
data_Ca4Mn2Al2O11
_symmetry_space_group_name_H-M   'P 1'
_cell_length_a   15.28974006
_cell_length_b   15.28974006
_cell_length_c   5.35587416
_cell_angle_alpha   80.00796452
_cell_angle_beta   80.00796452
_cell_angle_gamma   151.19892236
_symmetry_Int_Tables_number   1
_chemical_formula_structural   Ca4Mn2Al2O11
_chemical_formula_sum   'Ca8 Mn4 Al4 O22'
_cell_volume   432.14975739
_cell_formula_units_Z   2
loop_
 _symmetry_equiv_pos_site_id
 _symmetry_equiv_pos_as_xyz
  1  'x, y, z'
loop_
 _atom_site_type_symbol
 _atom_site_label
 _atom_site_symmetry_multiplicity
 _atom_site_fract_x
 _atom_site_fract_y
 _atom_site_fract_z
 _atom_site_occupancy
  Ca  Ca0  1  0.94937500  0.56392400  0.49185800  1
  Ca  Ca1  1  0.05062500  0.43607600  0.50814200  1
  Ca  Ca2  1  0.43607600  0.05062500  0.50814200  1
  Ca  Ca3  1  0.56392400  0.94937500  0.49185800  1
  Ca  Ca4  1  0.71338900  0.85503600  0.44717100  1
  Ca  Ca5  1  0.28661100  0.14496400  0.55282900  1
  Ca  Ca6  1  0.14496400  0.28661100  0.55282900  1
  Ca  Ca7  1  0.85503600  0.71338900  0.44717100  1
  Mn  Mn0  1  0.38491800  0.13559900  0.99247200  1
  Mn  Mn1  1  0.61508200  0.86440100  0.00752800  1
  Mn  Mn2  1  0.86440100  0.61508200  0.00752800  1
  Mn  Mn3  1  0.13559900  0.38491800  0.99247200  1
  Al  Al0  1  0.50000000  0.00000000  0.00000000  1
  Al  Al1  1  0.00000000  0.50000000  0.00000000  1
  Al  Al2  1  0.32041000  0.32041000  0.01335300  1
  Al  Al3  1  0.67959000  0.67959000  0.98664700  1
  O  O0  1  0.14433900  0.24870000  0.04032200  1
  O  O1  1  0.85566100  0.75130000  0.95967800  1
  O  O2  1  0.75130000  0.85566100  0.95967800  1
  O  O3  1  0.24870000  0.14433900  0.04032200  1
  O  O4  1  0.50642500  0.13636700  0.93268400  1
  O  O5  1  0.49357500  0.86363300  0.06731600  1
  O  O6  1  0.86363300  0.49357500  0.06731600  1
  O  O7  1  0.13636700  0.50642500  0.93268400  1
  O  O8  1  0.75704900  0.24295100  0.00000000  1
  O  O9  1  0.24346500  0.75653500  0.50000000  1
  O  O10  1  0.75653500  0.24346500  0.50000000  1
  O  O11  1  0.24295100  0.75704900  0.00000000  1
  O  O12  1  0.60918100  0.39081900  0.00000000  1
  O  O13  1  0.38777100  0.61222900  0.50000000  1
  O  O14  1  0.61222900  0.38777100  0.50000000  1
  O  O15  1  0.39081900  0.60918100  0.00000000  1
  O  O16  1  0.13001800  0.86998200  0.00000000  1
  O  O17  1  0.87133100  0.12866900  0.50000000  1
  O  O18  1  0.12866900  0.87133100  0.50000000  1
  O  O19  1  0.86998200  0.13001800  0.00000000  1
  O  O20  1  0.65241500  0.65241500  0.67032700  1
  O  O21  1  0.34758500  0.34758500  0.32967300  1
loop_
_geom_bond_atom_site_label_1
_geom_bond_atom_site_label_2
_geom_bond_distance
_geom_bond_site_symmetry_2
Ca0 O4 2.382920 1_555
Ca0 O11 2.403112 1_655
Ca0 O9 2.407931 1_655
Ca0 O16 2.647936 1_655
Ca0 O18 2.671936 1_655
Ca0 O10 2.695320 1_555
Ca0 O6 2.711254 1_556
Ca0 O8 2.726546 1_556
Ca0 O6 2.730852 1_555
Ca1 O5 2.382920 1_555
Ca1 O8 2.403112 1_456
Ca1 O10 2.407931 1_455
Ca1 O19 2.647936 1_456
Ca1 O17 2.671936 1_455
Ca1 O9 2.695320 1_555
Ca1 O7 2.711254 1_554
Ca1 O11 2.726546 1_555
Ca1 O7 2.730852 1_555
Ca2 O6 2.382920 1_555
Ca2 O11 2.403112 1_546
Ca2 O9 2.407931 1_545
Ca2 O16 2.647936 1_546
Ca2 O18 2.671936 1_545
Ca2 O10 2.695320 1_555
Ca2 O4 2.711254 1_554
Ca2 O8 2.726546 1_555
Ca2 O4 2.730852 1_555
Ca3 O7 2.382920 1_555
Ca3 O8 2.403112 1_565
Ca3 O10 2.407931 1_565
Ca3 O19 2.647936 1_565
Ca3 O17 2.671936 1_565
Ca3 O9 2.695320 1_555
Ca3 O5 2.711254 1_556
Ca3 O11 2.726546 1_556
Ca3 O5 2.730852 1_555
Ca4 O20 2.271981 1_555
Ca4 O0 2.313294 1_665
Ca4 O13 2.324351 1_555
Ca4 O15 2.408203 1_556
Ca4 O19 2.453326 1_565
Ca4 O17 2.521220 1_565
Ca4 O2 2.570912 1_554
Ca4 O2 2.902107 1_555
Ca5 O21 2.271981 1_555
Ca5 O1 2.313294 1_445
Ca5 O14 2.324351 1_555
Ca5 O12 2.408203 1_555
Ca5 O16 2.453326 1_546
Ca5 O18 2.521220 1_545
Ca5 O3 2.570912 1_556
Ca5 O3 2.902107 1_555
Ca6 O21 2.271981 1_555
Ca6 O2 2.313294 1_445
Ca6 O13 2.324351 1_555
Ca6 O15 2.408203 1_555
Ca6 O19 2.453326 1_456
Ca6 O17 2.521220 1_455
Ca6 O0 2.570912 1_556
Ca6 O0 2.902107 1_555
Ca7 O20 2.271981 1_555
Ca7 O3 2.313294 1_665
Ca7 O14 2.324351 1_555
Ca7 O12 2.408203 1_556
Ca7 O16 2.453326 1_655
Ca7 O18 2.521220 1_655
Ca7 O1 2.570912 1_554
Ca7 O1 2.902107 1_555
Mn0 O4 1.818833 1_555
Mn0 O12 1.907521 1_556
Mn0 O14 1.925234 1_555
Mn0 O18 1.952771 1_546
Mn0 O16 1.957816 1_546
Mn0 O3 2.176184 1_556
Mn1 O5 1.818833 1_555
Mn1 O15 1.907521 1_555
Mn1 O13 1.925234 1_555
Mn1 O17 1.952771 1_564
Mn1 O19 1.957816 1_565
Mn1 O2 2.176184 1_554
Mn2 O6 1.818833 1_555
Mn2 O12 1.907521 1_555
Mn2 O14 1.925234 1_555
Mn2 O18 1.952771 1_654
Mn2 O16 1.957816 1_655
Mn2 O1 2.176184 1_554
Mn3 O7 1.818833 1_555
Mn3 O15 1.907521 1_556
Mn3 O13 1.925234 1_555
Mn3 O17 1.952771 1_456
Mn3 O19 1.957816 1_456
Mn3 O0 2.176184 1_556
Al0 O8 1.912701 1_555
Al0 O11 1.912701 1_545
Al0 O9 1.928531 1_545
Al0 O10 1.928531 1_554
Al0 O4 1.963364 1_554
Al0 O5 1.963364 1_545
Al1 O8 1.912701 1_455
Al1 O11 1.912701 1_555
Al1 O9 1.928531 1_554
Al1 O10 1.928531 1_455
Al1 O7 1.963364 1_554
Al1 O6 1.963364 1_455
Al2 O0 1.762762 1_555
Al2 O3 1.762762 1_555
Al2 O20 1.810472 1_554
Al2 O21 1.844310 1_555
Al3 O2 1.762762 1_555
Al3 O1 1.762762 1_555
Al3 O21 1.810472 1_556
Al3 O20 1.844310 1_555
