# generated using pymatgen
data_PrMg(SnO3)2
_symmetry_space_group_name_H-M   'P 1'
_cell_length_a   5.58260600
_cell_length_b   5.83320300
_cell_length_c   8.19565400
_cell_angle_alpha   90.00000000
_cell_angle_beta   90.00000000
_cell_angle_gamma   90.00000000
_symmetry_Int_Tables_number   1
_chemical_formula_structural   PrMg(SnO3)2
_chemical_formula_sum   'Pr2 Mg2 Sn4 O12'
_cell_volume   266.88716215
_cell_formula_units_Z   2
loop_
 _symmetry_equiv_pos_site_id
 _symmetry_equiv_pos_as_xyz
  1  'x, y, z'
loop_
 _atom_site_type_symbol
 _atom_site_label
 _atom_site_symmetry_multiplicity
 _atom_site_fract_x
 _atom_site_fract_y
 _atom_site_fract_z
 _atom_site_occupancy
  Pr  Pr0  1  0.01508600  0.69057400  0.00000000  1
  Pr  Pr1  1  0.51508600  0.30942600  0.50000000  1
  Mg  Mg0  1  0.48529200  0.21333300  0.00000000  1
  Mg  Mg1  1  0.98529200  0.78666700  0.50000000  1
  Sn  Sn0  1  0.00047300  0.24329700  0.75117100  1
  Sn  Sn1  1  0.00047300  0.24329700  0.24882900  1
  Sn  Sn2  1  0.50047300  0.75670300  0.25117100  1
  Sn  Sn3  1  0.50047300  0.75670300  0.74882900  1
  O  O0  1  0.11515400  0.17353700  0.50000000  1
  O  O1  1  0.20002000  0.95173000  0.81963200  1
  O  O2  1  0.20002000  0.95173000  0.18036800  1
  O  O3  1  0.31956400  0.43645000  0.17893900  1
  O  O4  1  0.31956400  0.43645000  0.82106100  1
  O  O5  1  0.34825500  0.70004800  0.50000000  1
  O  O6  1  0.61515400  0.82646300  0.00000000  1
  O  O7  1  0.70002000  0.04827000  0.68036800  1
  O  O8  1  0.70002000  0.04827000  0.31963200  1
  O  O9  1  0.81956400  0.56355000  0.67893900  1
  O  O10  1  0.81956400  0.56355000  0.32106100  1
  O  O11  1  0.84825500  0.29995200  0.00000000  1
loop_
_geom_bond_atom_site_label_1
_geom_bond_atom_site_label_2
_geom_bond_distance
_geom_bond_site_symmetry_2
Mg0 O11 2.088325 1_555
Mg0 O3 2.168073 1_555
Mg0 O4 2.168073 1_554
Mg0 O6 2.370282 1_545
Mg0 O2 2.655193 1_545
Mg0 O1 2.655193 1_544
Mg1 O5 2.088325 1_655
Mg1 O9 2.168073 1_555
Mg1 O10 2.168073 1_555
Mg1 O0 2.370282 1_665
Mg1 O7 2.655193 1_565
Mg1 O8 2.655193 1_565
O0 Sn0 2.193840 1_555
O0 Sn1 2.193840 1_555
O0 Pr1 2.369199 1_555
O1 Sn3 2.108151 1_555
O1 Sn0 2.109125 1_565
O1 Pr0 2.360451 1_556
O2 Sn2 2.108151 1_555
O2 Sn1 2.109125 1_565
O2 Pr0 2.360451 1_555
O3 Sn1 2.184214 1_555
O3 Sn2 2.204595 1_555
O3 Pr0 2.690227 1_555
O3 Pr1 2.943502 1_555
O4 Sn0 2.184214 1_555
O4 Sn3 2.204595 1_555
O4 Pr0 2.690227 1_556
O4 Pr1 2.943502 1_555
O5 Sn3 2.233863 1_555
O5 Sn2 2.233863 1_555
O5 Pr1 2.461571 1_555
O6 Sn2 2.193840 1_555
O6 Sn3 2.193840 1_554
O6 Pr0 2.369199 1_655
O7 Sn0 2.108151 1_655
O7 Sn3 2.109125 1_545
O7 Pr1 2.360451 1_555
O8 Sn1 2.108151 1_655
O8 Sn2 2.109125 1_545
O8 Pr1 2.360451 1_555
O9 Sn3 2.184214 1_555
O9 Sn0 2.204595 1_655
O9 Pr1 2.690227 1_555
O9 Pr0 2.943502 1_656
O10 Sn2 2.184214 1_555
O10 Sn1 2.204595 1_655
O10 Pr1 2.690227 1_555
O10 Pr0 2.943502 1_655
O11 Sn1 2.233863 1_655
O11 Sn0 2.233863 1_654
O11 Pr0 2.461571 1_655
