# generated using pymatgen
data_Mg6NbCr
_symmetry_space_group_name_H-M   'P 1'
_cell_length_a   4.82968200
_cell_length_b   6.06616500
_cell_length_c   11.08539000
_cell_angle_alpha   90.00000000
_cell_angle_beta   90.00000000
_cell_angle_gamma   90.00000000
_symmetry_Int_Tables_number   1
_chemical_formula_structural   Mg6NbCr
_chemical_formula_sum   'Mg12 Nb2 Cr2'
_cell_volume   324.77585316
_cell_formula_units_Z   2
loop_
 _symmetry_equiv_pos_site_id
 _symmetry_equiv_pos_as_xyz
  1  'x, y, z'
loop_
 _atom_site_type_symbol
 _atom_site_label
 _atom_site_symmetry_multiplicity
 _atom_site_fract_x
 _atom_site_fract_y
 _atom_site_fract_z
 _atom_site_occupancy
  Mg  Mg0  1  0.00000000  0.25694800  0.07672200  1
  Mg  Mg1  1  0.00000000  0.74305200  0.07672200  1
  Mg  Mg2  1  0.00000000  0.00000000  0.33189600  1
  Mg  Mg3  1  0.50000000  0.73989800  0.42025200  1
  Mg  Mg4  1  0.50000000  0.26010200  0.42025200  1
  Mg  Mg5  1  0.50000000  0.00000000  0.17202900  1
  Mg  Mg6  1  0.00000000  0.75694800  0.57672200  1
  Mg  Mg7  1  0.00000000  0.24305200  0.57672200  1
  Mg  Mg8  1  0.00000000  0.50000000  0.83189600  1
  Mg  Mg9  1  0.50000000  0.23989800  0.92025200  1
  Mg  Mg10  1  0.50000000  0.76010200  0.92025200  1
  Mg  Mg11  1  0.50000000  0.50000000  0.67202900  1
  Nb  Nb0  1  0.00000000  0.50000000  0.30921600  1
  Nb  Nb1  1  0.00000000  0.00000000  0.80921600  1
  Cr  Cr0  1  0.50000000  0.50000000  0.19291100  1
  Cr  Cr1  1  0.50000000  0.00000000  0.69291100  1
loop_
_geom_bond_atom_site_label_1
_geom_bond_atom_site_label_2
_geom_bond_distance
_geom_bond_site_symmetry_2
Mg0 Mg1 2.948787 1_555
Mg0 Nb0 2.969216 1_555
Mg0 Mg9 2.975021 1_454
Mg0 Mg9 2.975021 1_554
Mg0 Mg5 3.062220 1_455
Mg0 Mg5 3.062220 1_555
Mg0 Mg8 3.088622 1_554
Mg0 Mg1 3.117378 1_545
Mg0 Mg2 3.229717 1_555
Mg0 Nb1 3.350098 1_554
Mg1 Nb0 2.969216 1_555
Mg1 Mg10 2.975021 1_554
Mg1 Mg10 2.975021 1_454
Mg1 Mg5 3.062220 1_565
Mg1 Mg5 3.062220 1_465
Mg1 Mg8 3.088622 1_554
Mg1 Mg2 3.229717 1_565
Mg1 Nb1 3.350098 1_564
Mg2 Mg5 2.995348 1_455
Mg2 Mg5 2.995348 1_555
Mg2 Nb0 3.043485 1_555
Mg2 Nb0 3.043485 1_545
Mg2 Mg4 3.046362 1_455
Mg2 Mg4 3.046362 1_555
Mg2 Mg3 3.046362 1_545
Mg2 Mg3 3.046362 1_445
Mg2 Mg6 3.088622 1_545
Mg2 Mg7 3.088622 1_555
Mg3 Mg4 2.910522 1_555
Mg3 Mg6 2.975021 1_655
Mg3 Mg6 2.975021 1_555
Mg3 Nb0 3.076410 1_555
Mg3 Nb0 3.076410 1_655
Mg3 Mg4 3.155643 1_565
Mg3 Mg5 3.171922 1_565
Mg4 Mg7 2.975021 1_555
Mg4 Mg7 2.975021 1_655
Mg4 Nb0 3.076410 1_555
Mg4 Nb0 3.076410 1_655
Mg4 Mg5 3.171922 1_555
Mg5 Mg9 3.147654 1_554
Mg6 Mg7 2.948787 1_565
Mg6 Nb1 2.969216 1_565
Mg6 Mg7 3.117378 1_555
Mg6 Mg8 3.229717 1_555
Mg6 Nb0 3.350098 1_555
Mg7 Nb1 2.969216 1_555
Mg7 Mg8 3.229717 1_555
Mg7 Nb0 3.350098 1_555
Mg8 Nb1 3.043485 1_555
Mg8 Nb1 3.043485 1_565
Mg8 Mg9 3.046362 1_455
Mg8 Mg9 3.046362 1_555
Mg9 Nb1 3.076410 1_555
Mg9 Nb1 3.076410 1_655
Mg10 Mg9 2.910522 1_565
Mg10 Mg8 3.046362 1_555
Mg10 Mg8 3.046362 1_655
Mg10 Nb1 3.076410 1_665
Mg10 Nb1 3.076410 1_565
Mg10 Mg5 3.147654 1_566
Mg10 Mg9 3.155643 1_555
Mg10 Mg11 3.171922 1_555
Mg11 Mg8 2.995348 1_655
Mg11 Mg8 2.995348 1_555
Mg11 Mg7 3.062220 1_655
Mg11 Mg6 3.062220 1_555
Mg11 Mg7 3.062220 1_555
Mg11 Mg6 3.062220 1_655
Mg11 Mg3 3.147654 1_555
Mg11 Mg4 3.147654 1_555
Mg11 Mg9 3.171922 1_555
Cr0 Nb0 2.737465 1_555
Cr0 Nb0 2.737465 1_655
Cr0 Mg3 2.910156 1_555
Cr0 Mg4 2.910156 1_555
Cr0 Mg5 3.041903 1_555
Cr0 Mg5 3.041903 1_565
Cr0 Mg1 3.108736 1_655
Cr0 Mg1 3.108736 1_555
Cr0 Mg0 3.108736 1_655
Cr0 Mg0 3.108736 1_555
Cr0 Mg10 3.409577 1_554
Cr0 Mg9 3.409577 1_554
Cr1 Nb1 2.737465 1_555
Cr1 Nb1 2.737465 1_655
Cr1 Mg9 2.910156 1_555
Cr1 Mg10 2.910156 1_545
Cr1 Mg11 3.041903 1_545
Cr1 Mg11 3.041903 1_555
Cr1 Mg7 3.108736 1_555
Cr1 Mg7 3.108736 1_655
Cr1 Mg6 3.108736 1_645
Cr1 Mg6 3.108736 1_545
Cr1 Mg3 3.409577 1_545
Cr1 Mg4 3.409577 1_555
