# generated using pymatgen
data_Ta3SiNi8
_symmetry_space_group_name_H-M   'P 1'
_cell_length_a   4.76706354
_cell_length_b   4.76706354
_cell_length_c   7.67721700
_cell_angle_alpha   90.00000000
_cell_angle_beta   90.00000000
_cell_angle_gamma   119.99999368
_symmetry_Int_Tables_number   1
_chemical_formula_structural   Ta3SiNi8
_chemical_formula_sum   'Ta3 Si1 Ni8'
_cell_volume   151.09022149
_cell_formula_units_Z   1
loop_
 _symmetry_equiv_pos_site_id
 _symmetry_equiv_pos_as_xyz
  1  'x, y, z'
loop_
 _atom_site_type_symbol
 _atom_site_label
 _atom_site_symmetry_multiplicity
 _atom_site_fract_x
 _atom_site_fract_y
 _atom_site_fract_z
 _atom_site_occupancy
  Ta  Ta0  1  0.66666700  0.33333300  0.44805300  1
  Ta  Ta1  1  0.66666700  0.33333300  0.06551100  1
  Ta  Ta2  1  0.00000000  0.00000000  0.91597800  1
  Si  Si0  1  0.00000000  0.00000000  0.53709200  1
  Ni  Ni0  1  0.33333300  0.66666700  0.50490200  1
  Ni  Ni1  1  0.33333300  0.66666700  0.00602900  1
  Ni  Ni2  1  0.50271200  0.00542400  0.75454200  1
  Ni  Ni3  1  0.50271200  0.49728800  0.75454200  1
  Ni  Ni4  1  0.99457600  0.49728800  0.75454200  1
  Ni  Ni5  1  0.16285800  0.32571700  0.25291600  1
  Ni  Ni6  1  0.16285800  0.83714200  0.25291600  1
  Ni  Ni7  1  0.67428300  0.83714200  0.25291600  1
loop_
_geom_bond_atom_site_label_1
_geom_bond_atom_site_label_2
_geom_bond_distance
_geom_bond_site_symmetry_2
Si0 Ta0 2.835881 1_455
Si0 Ta0 2.835885 1_445
Si0 Ta0 2.835885 1_555
Si0 Ta2 2.908790 1_555
Ni0 Ni4 2.372551 1_455
Ni0 Ni2 2.372551 1_565
Ni0 Ni3 2.372553 1_555
Ni0 Ni6 2.392439 1_555
Ni0 Ni7 2.392439 1_555
Ni0 Ni5 2.392439 1_555
Ni0 Si0 2.763335 1_565
Ni0 Si0 2.763340 1_665
Ni0 Si0 2.763340 1_555
Ni0 Ta0 2.786653 1_455
Ni0 Ta0 2.786653 1_565
Ni0 Ta0 2.786660 1_555
Ni1 Ni6 2.360897 1_555
Ni1 Ni5 2.360897 1_555
Ni1 Ni7 2.360897 1_555
Ni1 Ni4 2.384020 1_454
Ni1 Ni2 2.384020 1_564
Ni1 Ni3 2.384022 1_554
Ni1 Ta1 2.789890 1_455
Ni1 Ta1 2.789890 1_565
Ni1 Ta1 2.789898 1_555
Ni1 Ta2 2.837764 1_564
Ni1 Ta2 2.837768 1_664
Ni1 Ta2 2.837768 1_554
Ni2 Ni3 2.344747 1_555
Ni2 Ni4 2.344747 1_555
Ni2 Ni3 2.422317 1_545
Ni2 Ni4 2.422317 1_445
Ni2 Ta2 2.686594 1_655
Ni2 Ta2 2.686594 1_555
Ni2 Ta0 2.714615 1_555
Ni2 Ta1 2.744481 1_556
Ni2 Si0 2.910096 1_655
Ni2 Si0 2.910096 1_555
Ni3 Ni4 2.344747 1_555
Ni3 Ni4 2.422317 1_455
Ni3 Ta2 2.686594 1_665
Ni3 Ta2 2.686594 1_555
Ni3 Ta0 2.714617 1_555
Ni3 Ta1 2.744483 1_556
Ni3 Si0 2.910096 1_555
Ni3 Si0 2.910096 1_665
Ni4 Ta2 2.686594 1_655
Ni4 Ta2 2.686594 1_665
Ni4 Ta0 2.714615 1_555
Ni4 Ta1 2.744481 1_556
Ni4 Si0 2.910096 1_655
Ni4 Si0 2.910096 1_665
Ni5 Ni6 2.329068 1_545
Ni5 Ni7 2.329068 1_445
Ni5 Ni6 2.437995 1_555
Ni5 Ni7 2.437996 1_555
Ni5 Si0 2.562796 1_555
Ni5 Ta1 2.784275 1_455
Ni5 Ta1 2.784283 1_555
Ni5 Ta0 2.815408 1_455
Ni5 Ta0 2.815416 1_555
Ni5 Ta2 2.915381 1_554
Ni6 Ni7 2.329068 1_455
Ni6 Ni7 2.437995 1_555
Ni6 Si0 2.562793 1_565
Ni6 Ta1 2.784279 1_455
Ni6 Ta1 2.784279 1_565
Ni6 Ta0 2.815412 1_565
Ni6 Ta0 2.815412 1_455
Ni6 Ta2 2.915379 1_564
Ni7 Si0 2.562796 1_665
Ni7 Ta1 2.784275 1_565
Ni7 Ta1 2.784283 1_555
Ni7 Ta0 2.815408 1_565
Ni7 Ta0 2.815416 1_555
Ni7 Ta2 2.915381 1_664
