# generated using pymatgen
data_YIn7Cu5
_symmetry_space_group_name_H-M   'P 1'
_cell_length_a   7.24703011
_cell_length_b   7.24703011
_cell_length_c   7.24703011
_cell_angle_alpha   134.32922190
_cell_angle_beta   98.90919240
_cell_angle_gamma   98.41551458
_symmetry_Int_Tables_number   1
_chemical_formula_structural   YIn7Cu5
_chemical_formula_sum   'Y1 In7 Cu5'
_cell_volume   250.92196648
_cell_formula_units_Z   1
loop_
 _symmetry_equiv_pos_site_id
 _symmetry_equiv_pos_as_xyz
  1  'x, y, z'
loop_
 _atom_site_type_symbol
 _atom_site_label
 _atom_site_symmetry_multiplicity
 _atom_site_fract_x
 _atom_site_fract_y
 _atom_site_fract_z
 _atom_site_occupancy
  Y  Y0  1  0.00109000  0.00109000  0.00000000  1
  In  In0  1  0.65784600  0.65784600  0.00000000  1
  In  In1  1  0.33417200  0.33417200  0.00000000  1
  In  In2  1  0.32871000  0.98842600  0.34028400  1
  In  In3  1  0.64814200  0.98842600  0.65971600  1
  In  In4  1  0.77471600  0.27471600  0.50000000  1
  In  In5  1  0.81080700  0.51181400  0.29899300  1
  In  In6  1  0.21282200  0.51181400  0.70100700  1
  Cu  Cu0  1  0.49587900  0.49911200  0.49154300  1
  Cu  Cu1  1  0.49587900  0.00433600  0.99676700  1
  Cu  Cu2  1  0.00756900  0.49911200  0.00323300  1
  Cu  Cu3  1  0.00756900  0.00433600  0.50845700  1
  Cu  Cu4  1  0.22480000  0.72480000  0.50000000  1
loop_
_geom_bond_atom_site_label_1
_geom_bond_atom_site_label_2
_geom_bond_distance
_geom_bond_site_symmetry_2
In0 In4 3.022361 1_565
In0 In4 3.022361 1_554
In0 In1 3.064944 1_555
In0 In6 3.138157 1_554
In0 In5 3.138163 1_555
In0 Y0 3.250257 1_665
In1 Y0 3.154031 1_555
In1 In6 3.281077 1_554
In1 In5 3.281078 1_555
In2 In3 3.009647 1_555
In2 In4 3.100601 1_565
In2 In6 3.111426 1_565
In2 In6 3.111431 1_554
In2 Y0 3.208353 1_565
In3 In4 3.100601 1_565
In3 In5 3.111430 1_555
In3 In5 3.111430 1_566
In3 Y0 3.208353 1_666
In4 In5 2.937235 1_555
In4 In6 2.937241 1_655
In4 Y0 3.536229 1_655
In4 Y0 3.536229 1_666
In5 Y0 3.392193 1_666
In5 Y0 3.392193 1_655
In6 Y0 3.392193 1_555
In6 Y0 3.392198 1_566
Cu0 In6 2.710198 1_555
Cu0 Cu4 2.715851 1_555
Cu0 In3 2.770519 1_555
Cu0 Cu1 2.783078 1_554
Cu0 In4 2.791859 1_555
Cu0 In1 2.799594 1_555
Cu0 Cu1 2.841848 1_565
Cu0 In5 2.875583 1_555
Cu0 In0 2.935976 1_556
Cu0 In2 2.995479 1_545
Cu0 Y0 3.586198 1_555
Cu0 Y0 3.661349 1_666
Cu1 In6 2.710201 1_545
Cu1 Cu4 2.715851 1_545
Cu1 In3 2.770519 1_545
Cu1 In4 2.791859 1_556
Cu1 In1 2.799594 1_556
Cu1 In5 2.875583 1_556
Cu1 In0 2.935976 1_546
Cu1 In2 2.995479 1_546
Cu1 Y0 3.586198 1_556
Cu1 Y0 3.661349 1_656
Cu2 In5 2.710204 1_455
Cu2 Cu4 2.715851 1_555
Cu2 In2 2.770519 1_555
Cu2 Cu3 2.783078 1_554
Cu2 In4 2.791859 1_454
Cu2 In1 2.799594 1_555
Cu2 Cu3 2.841848 1_565
Cu2 In6 2.875588 1_554
Cu2 In0 2.935976 1_455
Cu2 In3 2.995479 1_444
Cu2 Y0 3.586198 1_555
Cu2 Y0 3.661349 1_565
Cu3 In5 2.710204 1_445
Cu3 Cu4 2.715851 1_545
Cu3 In2 2.770519 1_545
Cu3 In4 2.791859 1_455
Cu3 In1 2.799594 1_556
Cu3 In6 2.875585 1_555
Cu3 In0 2.935976 1_445
Cu3 In3 2.995479 1_445
Cu3 Y0 3.586198 1_556
Cu3 Y0 3.661349 1_555
Cu4 In6 2.766631 1_555
Cu4 In5 2.766632 1_455
Cu4 In2 2.914822 1_555
Cu4 In3 2.914822 1_555
Cu4 In1 2.997092 1_566
Cu4 In1 2.997092 1_555
Cu4 Y0 3.520995 1_566
Cu4 Y0 3.520995 1_555
