# generated using pymatgen
data_NaNiO2
_symmetry_space_group_name_H-M   'P 1'
_cell_length_a   3.00469485
_cell_length_b   4.99699569
_cell_length_c   10.46182295
_cell_angle_alpha   89.99960728
_cell_angle_beta   90.00077766
_cell_angle_gamma   85.92648955
_symmetry_Int_Tables_number   1
_chemical_formula_structural   NaNiO2
_chemical_formula_sum   'Na4 Ni4 O8'
_cell_volume   156.68166593
_cell_formula_units_Z   4
loop_
 _symmetry_equiv_pos_site_id
 _symmetry_equiv_pos_as_xyz
  1  'x, y, z'
loop_
 _atom_site_type_symbol
 _atom_site_label
 _atom_site_symmetry_multiplicity
 _atom_site_fract_x
 _atom_site_fract_y
 _atom_site_fract_z
 _atom_site_occupancy
  Na  Na0  1  0.47636660  0.15600517  0.25000035  1
  Na  Na1  1  0.97636597  0.65600290  0.24999981  1
  Na  Na2  1  0.02363242  0.34399546  0.75000050  1
  Na  Na3  1  0.52363309  0.84399747  0.75000023  1
  Ni  Ni0  1  0.50001800  0.49995745  0.50000173  1
  Ni  Ni1  1  -0.00001314  0.00003697  0.00000229  1
  Ni  Ni2  1  -0.00001240  0.00003941  0.49999646  1
  Ni  Ni3  1  0.50001238  0.49996315  -0.00000299  1
  O  O0  1  0.96296342  0.32051991  0.40217657  1
  O  O1  1  0.46297066  0.82053153  0.40216708  1
  O  O2  1  0.53703813  0.17947829  0.59782394  1
  O  O3  1  0.03702629  0.67946814  0.59783321  1
  O  O4  1  0.53703053  0.17948177  0.90217563  1
  O  O5  1  0.03702321  0.67947233  0.90216629  1
  O  O6  1  0.96296690  0.32051974  0.09782589  1
  O  O7  1  0.46297594  0.82053030  0.09783400  1
loop_
_geom_bond_atom_site_label_1
_geom_bond_atom_site_label_2
_geom_bond_distance
_geom_bond_site_symmetry_2
Na0 O1 2.314224 1_545
Na0 O7 2.314240 1_545
Na0 O6 2.325884 1_455
Na0 O0 2.325940 1_455
Na0 O0 2.349210 1_555
Na0 O6 2.349224 1_555
Na1 O6 2.314326 1_555
Na1 O0 2.314331 1_555
Na1 O7 2.325824 1_555
Na1 O1 2.325882 1_555
Na1 O1 2.349190 1_655
Na1 O7 2.349206 1_655
Na2 O3 2.314224 1_555
Na2 O5 2.314243 1_555
Na2 O4 2.325885 1_555
Na2 O2 2.325951 1_555
Na2 O2 2.349213 1_455
Na2 O4 2.349230 1_455
Na3 O2 2.314321 1_565
Na3 O4 2.314340 1_565
Na3 O5 2.325822 1_655
Na3 O3 2.325878 1_655
Na3 O3 2.349193 1_555
Na3 O5 2.349203 1_555
Ni0 O2 1.897096 1_555
Ni0 O1 1.897564 1_555
Ni0 O0 1.899775 1_555
Ni0 O3 1.900062 1_555
Ni0 O0 2.158912 1_455
Ni0 O3 2.159006 1_655
Ni1 O6 1.897132 1_455
Ni1 O5 1.897546 1_544
Ni1 O4 1.899795 1_454
Ni1 O7 1.900022 1_545
Ni1 O4 2.158926 1_554
Ni1 O7 2.159019 1_445
Ni2 O0 1.897088 1_455
Ni2 O3 1.897564 1_545
Ni2 O2 1.899800 1_455
Ni2 O1 1.900026 1_545
Ni2 O2 2.158917 1_555
Ni2 O1 2.159010 1_445
Ni3 O4 1.897114 1_554
Ni3 O7 1.897562 1_555
Ni3 O6 1.899801 1_555
Ni3 O5 1.900022 1_554
Ni3 O6 2.158938 1_455
Ni3 O5 2.159020 1_654
