# generated using pymatgen
data_NdAgH10C20(N3O4)2
_symmetry_space_group_name_H-M   'P 1'
_cell_length_a   11.37050286
_cell_length_b   11.37050286
_cell_length_c   9.21115329
_cell_angle_alpha   73.96406741
_cell_angle_beta   73.96406741
_cell_angle_gamma   100.08207250
_symmetry_Int_Tables_number   1
_chemical_formula_structural   NdAgH10C20(N3O4)2
_chemical_formula_sum   'Nd2 Ag2 H20 C40 N12 O16'
_cell_volume   1058.50390583
_cell_formula_units_Z   2
loop_
 _symmetry_equiv_pos_site_id
 _symmetry_equiv_pos_as_xyz
  1  'x, y, z'
loop_
 _atom_site_type_symbol
 _atom_site_label
 _atom_site_symmetry_multiplicity
 _atom_site_fract_x
 _atom_site_fract_y
 _atom_site_fract_z
 _atom_site_occupancy
  Nd  Nd0  1  0.40636900  0.59363100  0.25000000  1
  Nd  Nd1  1  0.59363100  0.40636900  0.75000000  1
  Ag  Ag0  1  0.85969800  0.14030200  0.75000000  1
  Ag  Ag1  1  0.14030200  0.85969800  0.25000000  1
  H  H0  1  0.07049500  0.43601400  0.62442100  1
  H  H1  1  0.56398600  0.92950500  0.87557900  1
  H  H2  1  0.92950500  0.56398600  0.37557900  1
  H  H3  1  0.43601400  0.07049500  0.12442100  1
  H  H4  1  0.84276500  0.31996500  0.12396800  1
  H  H5  1  0.68003500  0.15723500  0.37603200  1
  H  H6  1  0.15723500  0.68003500  0.87603200  1
  H  H7  1  0.31996500  0.84276500  0.62396800  1
  H  H8  1  0.24635900  0.34780900  0.98440300  1
  H  H9  1  0.65219100  0.75364100  0.51559700  1
  H  H10  1  0.75364100  0.65219100  0.01559700  1
  H  H11  1  0.34780900  0.24635900  0.48440300  1
  H  H12  1  0.88130800  0.33299900  0.37472200  1
  H  H13  1  0.66700100  0.11869200  0.12527800  1
  H  H14  1  0.11869200  0.66700100  0.62527800  1
  H  H15  1  0.33299900  0.88130800  0.87472200  1
  H  H16  1  0.17379900  0.16474200  0.21716900  1
  H  H17  1  0.83525800  0.82620100  0.28283100  1
  H  H18  1  0.82620100  0.83525800  0.78283100  1
  H  H19  1  0.16474200  0.17379900  0.71716900  1
  C  C0  1  0.06324000  0.40764400  0.75049300  1
  C  C1  1  0.59235600  0.93676000  0.74950700  1
  C  C2  1  0.93676000  0.59235600  0.24950700  1
  C  C3  1  0.40764400  0.06324000  0.25049300  1
  C  C4  1  0.94528900  0.38236400  0.87051400  1
  C  C5  1  0.61763600  0.05471100  0.62948600  1
  C  C6  1  0.05471100  0.61763600  0.12948600  1
  C  C7  1  0.38236400  0.94528900  0.37051400  1
  C  C8  1  0.93532800  0.34051400  0.03271200  1
  C  C9  1  0.65948600  0.06467200  0.46728800  1
  C  C10  1  0.06467200  0.65948600  0.96728800  1
  C  C11  1  0.34051400  0.93532800  0.53271200  1
  C  C12  1  0.04258200  0.32453600  0.07296300  1
  C  C13  1  0.67546400  0.95741800  0.42703700  1
  C  C14  1  0.95741800  0.67546400  0.92703700  1
  C  C15  1  0.32453600  0.04258200  0.57296300  1
  C  C16  1  0.16127600  0.35562900  0.95408100  1
  C  C17  1  0.64437100  0.83872400  0.54591900  1
  C  C18  1  0.83872400  0.64437100  0.04591900  1
  C  C19  1  0.35562900  0.16127600  0.45408100  1
  C  C20  1  0.17168600  0.39613700  0.79202700  1
  C  C21  1  0.60386300  0.82831400  0.70797300  1
  C  C22  1  0.82831400  0.60386300  0.20797300  1
  C  C23  1  0.39613700  0.17168600  0.29202700  1
  C  C24  1  0.94980900  0.27758600  0.37242900  1
  C  C25  1  0.72241400  0.05019100  0.12757100  1
  C  C26  1  0.05019100  0.72241400  0.62757100  1
  C  C27  1  0.27758600  0.94980900  0.87242900  1
  C  C28  1  0.10096400  0.19221600  0.29424500  1
  C  C29  1  0.80778400  0.89903600  0.20575500  1
  C  C30  1  0.89903600  0.80778400  0.70575500  1
  C  C31  1  0.19221600  0.10096400  0.79424500  1
  C  C32  1  0.82677100  0.39379000  0.82857500  1
  C  C33  1  0.60621000  0.17322900  0.67142500  1
  C  C34  1  0.17322900  0.60621000  0.17142500  1
  C  C35  1  0.39379000  0.82677100  0.32857500  1
  C  C36  1  0.29959300  0.41965100  0.66452600  1
  C  C37  1  0.58034900  0.70040700  0.83547400  1
  C  C38  1  0.70040700  0.58034900  0.33547400  1
  C  C39  1  0.41965100  0.29959300  0.16452600  1
  N  N0  1  0.03178500  0.27031500  0.23767000  1
  N  N1  1  0.72968500  0.96821500  0.26233000  1
  N  N2  1  0.96821500  0.72968500  0.76233000  1
  N  N3  1  0.27031500  0.03178500  0.73767000  1
  N  N4  1  0.96861100  0.20832900  0.50045200  1
  N  N5  1  0.79167100  0.03138900  0.99954800  1
  N  N6  1  0.03138900  0.79167100  0.49954800  1
  N  N7  1  0.20832900  0.96861100  0.00045200  1
  N  N8  1  0.06492500  0.15418600  0.45152100  1
  N  N9  1  0.84581400  0.93507500  0.04847900  1
  N  N10  1  0.93507500  0.84581400  0.54847900  1
  N  N11  1  0.15418600  0.06492500  0.95152100  1
  O  O0  1  0.83194400  0.41472300  0.68274300  1
  O  O1  1  0.58527700  0.16805600  0.81725700  1
  O  O2  1  0.16805600  0.58527700  0.31725700  1
  O  O3  1  0.41472300  0.83194400  0.18274300  1
  O  O4  1  0.72428100  0.38049200  0.93982400  1
  O  O5  1  0.61950800  0.27571900  0.56017600  1
  O  O6  1  0.27571900  0.61950800  0.06017600  1
  O  O7  1  0.38049200  0.72428100  0.43982400  1
  O  O8  1  0.30220000  0.44204900  0.52078700  1
  O  O9  1  0.55795100  0.69780000  0.97921300  1
  O  O10  1  0.69780000  0.55795100  0.47921300  1
  O  O11  1  0.44204900  0.30220000  0.02078700  1
  O  O12  1  0.39397100  0.40999100  0.71026700  1
  O  O13  1  0.59000900  0.60602900  0.78973300  1
  O  O14  1  0.60602900  0.59000900  0.28973300  1
  O  O15  1  0.40999100  0.39397100  0.21026700  1
loop_
_geom_bond_atom_site_label_1
_geom_bond_atom_site_label_2
_geom_bond_distance
_geom_bond_site_symmetry_2
Nd0 O14 2.402719 1_555
Nd0 O15 2.402719 1_555
Nd0 O9 2.423395 1_554
Nd0 O8 2.423395 1_555
Nd0 O7 2.579644 1_555
Nd0 O6 2.579644 1_555
Nd0 O3 2.585617 1_555
Nd0 O2 2.585617 1_555
Nd1 O13 2.402719 1_555
Nd1 O12 2.402719 1_555
Nd1 O10 2.423395 1_555
Nd1 O11 2.423395 1_556
Nd1 O4 2.579644 1_555
Nd1 O5 2.579644 1_555
Nd1 O0 2.585617 1_555
Nd1 O1 2.585617 1_555
Ag0 N5 2.127258 1_555
Ag0 N4 2.127258 1_555
Ag1 N6 2.127258 1_555
Ag1 N7 2.127258 1_555
C0 H0 1.090965 1_555
C0 C20 1.404794 1_555
C0 C4 1.404934 1_455
C1 H1 1.090965 1_555
C1 C21 1.404794 1_555
C1 C5 1.404934 1_565
C2 H2 1.090965 1_555
C2 C22 1.404794 1_555
C2 C6 1.404934 1_655
C3 H3 1.090965 1_555
C3 C7 1.404934 1_545
C4 C8 1.402232 1_556
C5 C9 1.402232 1_555
C8 H4 1.088809 1_555
C9 H5 1.088809 1_555
C10 H6 1.088809 1_555
C10 C14 1.395668 1_455
C10 C6 1.402232 1_556
C11 H7 1.088809 1_555
C11 C15 1.395668 1_565
C11 C7 1.402232 1_555
C12 C8 1.395668 1_455
C12 C16 1.395747 1_554
C12 N0 1.432035 1_555
C13 C9 1.395668 1_565
C13 C17 1.395747 1_555
C13 N1 1.432035 1_555
C14 C18 1.395747 1_556
C14 N2 1.432035 1_555
C15 C19 1.395747 1_555
C15 N3 1.432035 1_555
C16 H8 1.089738 1_555
C16 C20 1.399204 1_555
C17 H9 1.089738 1_555
C17 C21 1.399204 1_555
C18 H10 1.089738 1_555
C18 C22 1.399204 1_555
C19 H11 1.089738 1_555
C19 C23 1.399204 1_555
C20 C36 1.520746 1_555
C21 C37 1.520746 1_555
C22 C38 1.520746 1_555
C23 C3 1.404794 1_555
C23 C39 1.520746 1_555
C24 H12 1.083603 1_555
C24 N4 1.319705 1_555
C24 N0 1.364149 1_655
C25 H13 1.083603 1_555
C25 N5 1.319705 1_554
C25 N1 1.364149 1_545
C26 H14 1.083603 1_555
C26 N6 1.319705 1_555
C26 N2 1.364149 1_455
C27 H15 1.083603 1_555
C27 N7 1.319705 1_556
C27 N3 1.364149 1_565
C28 H16 1.084330 1_555
C28 N8 1.310536 1_555
C28 N0 1.376320 1_555
C29 H17 1.084330 1_555
C29 N9 1.310536 1_555
C29 N1 1.376320 1_555
C30 H18 1.084330 1_555
C30 N10 1.310536 1_555
C30 N2 1.376320 1_555
C31 H19 1.084330 1_555
C31 N11 1.310536 1_555
C31 N3 1.376320 1_555
C32 O4 1.274342 1_555
C32 O0 1.280359 1_555
C32 C4 1.517679 1_555
C33 O5 1.274342 1_555
C33 O1 1.280359 1_555
C33 C5 1.517679 1_555
C34 O6 1.274342 1_555
C34 O2 1.280359 1_555
C34 C6 1.517679 1_555
C35 O7 1.274342 1_555
C35 O3 1.280359 1_555
C35 C7 1.517679 1_555
C36 O12 1.267548 1_555
C36 O8 1.268109 1_555
C37 O13 1.267548 1_555
C37 O9 1.268109 1_555
C38 O14 1.267548 1_555
C38 O10 1.268109 1_555
C39 O15 1.267548 1_555
C39 O11 1.268109 1_555
N4 N8 1.377724 1_655
N5 N9 1.377724 1_546
N10 N6 1.377724 1_655
N11 N7 1.377724 1_546
