# generated using pymatgen
data_Sr3Sc(BO3)3
_symmetry_space_group_name_H-M   'P 1'
_cell_length_a   7.64373575
_cell_length_b   7.64373575
_cell_length_c   7.64373641
_cell_angle_alpha   104.96056537
_cell_angle_beta   104.96056539
_cell_angle_gamma   104.96056600
_symmetry_Int_Tables_number   1
_chemical_formula_structural   Sr3Sc(BO3)3
_chemical_formula_sum   'Sr6 Sc2 B6 O18'
_cell_volume   390.78257441
_cell_formula_units_Z   2
loop_
 _symmetry_equiv_pos_site_id
 _symmetry_equiv_pos_as_xyz
  1  'x, y, z'
loop_
 _atom_site_type_symbol
 _atom_site_label
 _atom_site_symmetry_multiplicity
 _atom_site_fract_x
 _atom_site_fract_y
 _atom_site_fract_z
 _atom_site_occupancy
  Sr  Sr0  1  0.16221015  0.26034456  0.65095712  1
  Sr  Sr1  1  0.65095712  0.16221015  0.26034456  1
  Sr  Sr2  1  0.26034456  0.65095712  0.16221015  1
  Sr  Sr3  1  0.83778985  0.73965544  0.34904288  1
  Sr  Sr4  1  0.34904288  0.83778985  0.73965544  1
  Sr  Sr5  1  0.73965544  0.34904288  0.83778985  1
  Sc  Sc0  1  0.00000000  -0.00000000  -0.00000000  1
  Sc  Sc1  1  0.50000000  0.50000000  0.50000000  1
  B  B0  1  0.29078424  0.04022099  0.36979053  1
  B  B1  1  0.36979053  0.29078424  0.04022099  1
  B  B2  1  0.04022099  0.36979053  0.29078424  1
  B  B3  1  0.63020947  0.70921576  0.95977901  1
  B  B4  1  0.95977901  0.63020947  0.70921576  1
  B  B5  1  0.70921576  0.95977901  0.63020947  1
  O  O0  1  0.17335303  0.26131546  0.98487675  1
  O  O1  1  0.98487675  0.17335303  0.26131546  1
  O  O2  1  0.44433432  0.19158421  0.92110320  1
  O  O3  1  0.19158421  0.92110320  0.44433432  1
  O  O4  1  0.92110320  0.44433432  0.19158421  1
  O  O5  1  0.07889680  0.55566568  0.80841579  1
  O  O6  1  0.55566568  0.80841679  0.07889680  1
  O  O7  1  0.80841679  0.07889680  0.55566568  1
  O  O8  1  0.49196311  0.43347704  0.21507642  1
  O  O9  1  0.43347704  0.21507642  0.49196311  1
  O  O10  1  0.21507642  0.49196311  0.43347704  1
  O  O11  1  0.50803689  0.56652296  0.78492358  1
  O  O12  1  0.56652296  0.78492358  0.50803689  1
  O  O13  1  0.78492358  0.50803689  0.56652296  1
  O  O14  1  0.73868454  0.01512325  0.82664697  1
  O  O15  1  0.01512325  0.82664697  0.73868454  1
  O  O16  1  0.82664697  0.73868454  0.01512325  1
  O  O17  1  0.26131546  0.98487675  0.17335303  1
loop_
_geom_bond_atom_site_label_1
_geom_bond_atom_site_label_2
_geom_bond_distance
_geom_bond_site_symmetry_2
B0 O3 1.364959 1_545
B0 O9 1.387481 1_555
B0 O17 1.390133 1_545
B1 O2 1.364959 1_554
B1 O8 1.387481 1_555
B1 O0 1.390132 1_554
B2 O4 1.364959 1_455
B2 O10 1.387481 1_555
B2 O1 1.390132 1_455
B3 O6 1.364963 1_556
B3 O11 1.387481 1_555
B3 O16 1.390132 1_556
B4 O5 1.364959 1_655
B4 O13 1.387481 1_555
B4 O15 1.390132 1_655
B5 O7 1.364963 1_565
B5 O12 1.387481 1_555
B5 O14 1.390133 1_565
O0 Sc0 2.142580 1_556
O0 Sr0 2.529758 1_555
O0 Sr2 2.752751 1_556
O1 Sc0 2.142580 1_655
O1 Sr1 2.529757 1_555
O1 Sr0 2.752752 1_655
O2 Sr4 2.508449 1_545
O2 Sr5 2.585534 1_555
O2 Sr1 2.763700 1_556
O2 Sr0 2.834961 1_555
O3 Sr3 2.508449 1_455
O3 Sr4 2.585534 1_555
O3 Sr0 2.763699 1_565
O3 Sr2 2.834961 1_555
O4 Sr5 2.508449 1_554
O4 Sr3 2.585534 1_555
O4 Sr2 2.763699 1_655
O4 Sr1 2.834961 1_555
O5 Sr2 2.508449 1_556
O5 Sr0 2.585534 1_555
O5 Sr5 2.763699 1_455
O5 Sr4 2.834961 1_555
O6 Sr1 2.508442 1_565
O6 Sr2 2.585536 1_555
O6 Sr4 2.763696 1_554
O6 Sr3 2.834966 1_555
O7 Sr0 2.508442 1_655
O7 Sr1 2.585536 1_555
O7 Sr3 2.763696 1_545
O7 Sr5 2.834966 1_555
O8 Sc1 2.085311 1_555
O8 Sr1 2.711172 1_555
O8 Sr2 2.749210 1_555
O8 Sr3 2.772067 1_555
O9 Sc1 2.085310 1_555
O9 Sr0 2.711172 1_555
O9 Sr1 2.749210 1_555
O9 Sr5 2.772067 1_555
O10 Sc1 2.085310 1_555
O10 Sr2 2.711172 1_555
O10 Sr0 2.749210 1_555
O10 Sr4 2.772067 1_555
O11 Sc1 2.085311 1_555
O11 Sr4 2.711172 1_555
O11 Sr5 2.749210 1_555
O11 Sr0 2.772067 1_555
O12 Sc1 2.085310 1_555
O12 Sr3 2.711172 1_555
O12 Sr4 2.749210 1_555
O12 Sr2 2.772067 1_555
O13 Sc1 2.085310 1_555
O13 Sr5 2.711172 1_555
O13 Sr3 2.749210 1_555
O13 Sr1 2.772067 1_555
O14 Sc0 2.142580 1_656
O14 Sr5 2.529757 1_555
O14 Sr4 2.752751 1_545
O15 Sc0 2.142580 1_566
O15 Sr4 2.529757 1_555
O15 Sr3 2.752752 1_455
O16 Sc0 2.142580 1_665
O16 Sr3 2.529758 1_555
O16 Sr5 2.752751 1_554
O17 Sc0 2.142580 1_565
O17 Sr2 2.529757 1_555
O17 Sr1 2.752751 1_565
