# generated using pymatgen
data_Li2Mn2FeO6
_symmetry_space_group_name_H-M   'P 1'
_cell_length_a   5.12201359
_cell_length_b   5.12201997
_cell_length_c   10.27312306
_cell_angle_alpha   90.00608316
_cell_angle_beta   90.00600448
_cell_angle_gamma   118.80250439
_symmetry_Int_Tables_number   1
_chemical_formula_structural   Li2Mn2FeO6
_chemical_formula_sum   'Li4 Mn4 Fe2 O12'
_cell_volume   236.17295357
_cell_formula_units_Z   2
loop_
 _symmetry_equiv_pos_site_id
 _symmetry_equiv_pos_as_xyz
  1  'x, y, z'
loop_
 _atom_site_type_symbol
 _atom_site_label
 _atom_site_symmetry_multiplicity
 _atom_site_fract_x
 _atom_site_fract_y
 _atom_site_fract_z
 _atom_site_occupancy
  Li  Li0  1  0.12797900  0.62959700  0.75017600  1
  Li  Li1  1  0.37040300  0.87201900  0.24982200  1
  Li  Li2  1  0.63930600  0.14012100  0.74988400  1
  Li  Li3  1  0.85987700  0.36069400  0.25011700  1
  Mn  Mn0  1  0.66711600  0.33289100  0.00000100  1
  Mn  Mn1  1  0.83315700  0.16683500  0.50000000  1
  Mn  Mn2  1  0.15929900  0.84069100  0.50000000  1
  Mn  Mn3  1  0.34042400  0.65958000  0.00000000  1
  Fe  Fe0  1  0.50111200  0.49888200  0.50000000  1
  Fe  Fe1  1  0.99838800  0.00162000  0.00000000  1
  O  O0  1  0.15502300  0.16405000  0.59665500  1
  O  O1  1  0.34465900  0.33452300  0.09597900  1
  O  O2  1  0.66548400  0.65534800  0.90402100  1
  O  O3  1  0.83594400  0.84497000  0.40334400  1
  O  O4  1  0.00367900  0.65233500  0.10191800  1
  O  O5  1  0.95985600  0.31543000  0.88935100  1
  O  O6  1  0.15258200  0.50308700  0.39858000  1
  O  O7  1  0.49690600  0.84741300  0.60142000  1
  O  O8  1  0.34767100  0.99632700  0.89808200  1
  O  O9  1  0.54038800  0.18382800  0.38933300  1
  O  O10  1  0.81616800  0.45960800  0.61066700  1
  O  O11  1  0.68457700  0.04015100  0.11064900  1
loop_
_geom_bond_atom_site_label_1
_geom_bond_atom_site_label_2
_geom_bond_distance
_geom_bond_site_symmetry_2
Li0 O10 2.005539 1_455
Li0 O5 2.010148 1_455
Li0 O8 2.250703 1_555
Li0 O7 2.262822 1_555
Li1 O9 2.005547 1_565
Li1 O11 2.010155 1_565
Li1 O4 2.250666 1_555
Li1 O6 2.262856 1_555
Li2 O8 2.008045 1_545
Li2 O7 2.012844 1_545
Li2 O10 2.028865 1_555
Li2 O5 2.033086 1_555
Li3 O4 2.008072 1_655
Li3 O6 2.012827 1_655
Li3 O9 2.028863 1_555
Li3 O11 2.033070 1_555
Mn0 O11 1.917787 1_555
Mn0 O5 1.917796 1_554
Mn0 O1 1.927116 1_555
Mn0 O2 1.927129 1_554
Mn0 O4 2.006612 1_655
Mn0 O8 2.006628 1_544
Mn1 O9 1.916830 1_555
Mn1 O10 1.916838 1_555
Mn1 O0 1.930378 1_655
Mn1 O3 1.930384 1_545
Mn1 O7 2.003532 1_545
Mn1 O6 2.003540 1_655
Mn2 O3 1.940149 1_455
Mn2 O0 1.940156 1_565
Mn2 O6 2.004796 1_555
Mn2 O7 2.004798 1_555
Mn2 O10 2.210581 1_455
Mn2 O9 2.210607 1_565
Mn3 O1 1.944189 1_555
Mn3 O2 1.944193 1_554
Mn3 O4 2.002825 1_555
Mn3 O8 2.002833 1_554
Mn3 O5 2.210704 1_454
Mn3 O11 2.210718 1_565
Fe0 O0 2.034914 1_555
Fe0 O3 2.034917 1_555
Fe0 O9 2.061442 1_555
Fe0 O10 2.061445 1_555
Fe0 O6 2.075942 1_555
Fe0 O7 2.075949 1_555
Fe1 O1 2.027446 1_655
Fe1 O2 2.027450 1_544
Fe1 O11 2.054415 1_555
Fe1 O5 2.054416 1_554
Fe1 O8 2.084403 1_644
Fe1 O4 2.084411 1_645
