# generated using pymatgen
data_Nb3NiSe6
_symmetry_space_group_name_H-M   'P 1'
_cell_length_a   6.06476299
_cell_length_b   6.06474713
_cell_length_c   12.59405114
_cell_angle_alpha   90.00028120
_cell_angle_beta   89.99997264
_cell_angle_gamma   119.99961878
_symmetry_Int_Tables_number   1
_chemical_formula_structural   Nb3NiSe6
_chemical_formula_sum   'Nb6 Ni2 Se12'
_cell_volume   401.16615324
_cell_formula_units_Z   2
loop_
 _symmetry_equiv_pos_site_id
 _symmetry_equiv_pos_as_xyz
  1  'x, y, z'
loop_
 _atom_site_type_symbol
 _atom_site_label
 _atom_site_symmetry_multiplicity
 _atom_site_fract_x
 _atom_site_fract_y
 _atom_site_fract_z
 _atom_site_occupancy
  Nb  Nb0  1  -0.00000050  0.00000150  0.50003411  1
  Nb  Nb1  1  0.00000116  -0.00000011  0.99997517  1
  Nb  Nb2  1  0.33333250  0.66666629  -0.00096374  1
  Nb  Nb3  1  0.66666697  0.33333123  0.00093019  1
  Nb  Nb4  1  0.66666715  0.33333475  0.49907210  1
  Nb  Nb5  1  0.33333168  0.66666800  0.50096411  1
  Ni  Ni0  1  0.33333411  0.66666712  0.25000938  1
  Ni  Ni1  1  0.66666650  0.33333364  0.75000410  1
  Se  Se0  1  0.33294474  0.33115025  0.36796221  1
  Se  Se1  1  0.66884593  0.00179293  0.36796206  1
  Se  Se2  1  0.99820856  0.66705479  0.36796210  1
  Se  Se3  1  0.33111373  0.33299394  0.63208280  1
  Se  Se4  1  0.00187640  0.66888956  0.63208357  1
  Se  Se5  1  0.66700832  0.99812417  0.63208324  1
  Se  Se6  1  0.66703644  0.66887882  0.86789359  1
  Se  Se7  1  0.33111775  0.99815274  0.86789233  1
  Se  Se8  1  0.00184543  0.33296027  0.86789240  1
  Se  Se9  1  0.66884100  0.66702178  0.13205333  1
  Se  Se10  1  0.99818385  0.33116312  0.13205466  1
  Se  Se11  1  0.33297629  0.00181422  0.13205428  1
loop_
_geom_bond_atom_site_label_1
_geom_bond_atom_site_label_2
_geom_bond_distance
_geom_bond_site_symmetry_2
Nb0 Se4 2.611747 1_545
Nb0 Se5 2.611751 1_445
Nb0 Se3 2.611753 1_555
Nb0 Se2 2.611917 1_445
Nb0 Se1 2.611920 1_455
Nb0 Se0 2.611920 1_555
Nb1 Se8 2.611957 1_555
Nb1 Se7 2.611963 1_545
Nb1 Se6 2.611968 1_445
Nb1 Se11 2.612064 1_556
Nb1 Se9 2.612074 1_446
Nb1 Se10 2.612074 1_456
Nb2 Se7 2.607056 1_554
Nb2 Se6 2.607062 1_554
Nb2 Se8 2.607068 1_554
Nb2 Se11 2.634803 1_565
Nb2 Se9 2.634829 1_555
Nb2 Se10 2.634829 1_455
Nb3 Se9 2.606923 1_555
Nb3 Se10 2.606932 1_555
Nb3 Se11 2.606955 1_555
Nb3 Se6 2.635137 1_554
Nb3 Se8 2.635149 1_654
Nb3 Se7 2.635151 1_544
Nb4 Se1 2.606948 1_555
Nb4 Se0 2.606953 1_555
Nb4 Se2 2.606968 1_555
Nb4 Se5 2.635019 1_545
Nb4 Se3 2.635021 1_555
Nb4 Se4 2.635025 1_655
Nb5 Se3 2.606720 1_555
Nb5 Se4 2.606728 1_555
Nb5 Se5 2.606729 1_555
Nb5 Se2 2.634642 1_455
Nb5 Se0 2.634666 1_555
Nb5 Se1 2.634669 1_565
Ni0 Se1 2.518408 1_565
Ni0 Se2 2.518408 1_455
Ni0 Se0 2.518425 1_555
Ni0 Se11 2.518461 1_565
Ni0 Se10 2.518464 1_455
Ni0 Se9 2.518483 1_555
Ni1 Se6 2.518129 1_555
Ni1 Se8 2.518157 1_655
Ni1 Se7 2.518165 1_545
Ni1 Se5 2.518461 1_545
Ni1 Se3 2.518487 1_555
Ni1 Se4 2.518493 1_655
