# generated using pymatgen
data_Mg6CoSi
_symmetry_space_group_name_H-M   'P 1'
_cell_length_a   4.71734200
_cell_length_b   6.01789100
_cell_length_c   10.33000300
_cell_angle_alpha   90.00000000
_cell_angle_beta   90.00000000
_cell_angle_gamma   90.00000000
_symmetry_Int_Tables_number   1
_chemical_formula_structural   Mg6CoSi
_chemical_formula_sum   'Mg12 Co2 Si2'
_cell_volume   293.25277331
_cell_formula_units_Z   2
loop_
 _symmetry_equiv_pos_site_id
 _symmetry_equiv_pos_as_xyz
  1  'x, y, z'
loop_
 _atom_site_type_symbol
 _atom_site_label
 _atom_site_symmetry_multiplicity
 _atom_site_fract_x
 _atom_site_fract_y
 _atom_site_fract_z
 _atom_site_occupancy
  Mg  Mg0  1  0.50000000  0.24885400  0.58383300  1
  Mg  Mg1  1  0.50000000  0.75114600  0.58383300  1
  Mg  Mg2  1  0.00000000  0.25824900  0.41165800  1
  Mg  Mg3  1  0.00000000  0.74175100  0.41165800  1
  Mg  Mg4  1  0.00000000  0.00000000  0.67498800  1
  Mg  Mg5  1  0.00000000  0.00000000  0.16958100  1
  Mg  Mg6  1  0.50000000  0.74885400  0.08383300  1
  Mg  Mg7  1  0.50000000  0.25114600  0.08383300  1
  Mg  Mg8  1  0.00000000  0.75824900  0.91165800  1
  Mg  Mg9  1  0.00000000  0.24175100  0.91165800  1
  Mg  Mg10  1  0.00000000  0.50000000  0.17498800  1
  Mg  Mg11  1  0.00000000  0.50000000  0.66958100  1
  Co  Co0  1  0.50000000  0.00000000  0.83331100  1
  Co  Co1  1  0.50000000  0.50000000  0.33331100  1
  Si  Si0  1  0.50000000  0.00000000  0.33114100  1
  Si  Si1  1  0.50000000  0.50000000  0.83114100  1
loop_
_geom_bond_atom_site_label_1
_geom_bond_atom_site_label_2
_geom_bond_distance
_geom_bond_site_symmetry_2
Mg0 Mg11 2.938055 1_555
Mg0 Mg11 2.938055 1_655
Mg0 Mg4 2.948344 1_555
Mg0 Mg4 2.948344 1_655
Mg0 Mg2 2.954629 1_655
Mg0 Mg2 2.954629 1_555
Mg0 Si1 2.968281 1_555
Mg0 Mg1 2.995152 1_545
Mg0 Si0 3.009393 1_555
Mg0 Mg1 3.022739 1_555
Mg1 Mg11 2.938055 1_555
Mg1 Mg11 2.938055 1_655
Mg1 Mg4 2.948344 1_665
Mg1 Mg4 2.948344 1_565
Mg1 Mg3 2.954629 1_555
Mg1 Mg3 2.954629 1_655
Mg1 Si1 2.968281 1_555
Mg1 Si0 3.009393 1_565
Mg2 Si0 2.944553 1_555
Mg2 Si0 2.944553 1_455
Mg3 Si0 2.944553 1_565
Mg3 Si0 2.944553 1_465
Mg5 Si0 2.889396 1_555
Mg5 Si0 2.889396 1_455
Mg5 Mg6 2.938055 1_445
Mg5 Mg7 2.938055 1_455
Mg5 Mg6 2.938055 1_545
Mg5 Mg7 2.938055 1_555
Mg6 Mg8 2.954629 1_554
Mg6 Mg8 2.954629 1_654
Mg6 Si0 2.968281 1_565
Mg6 Mg7 2.995152 1_555
Mg6 Si1 3.009393 1_554
Mg6 Mg7 3.022739 1_565
Mg7 Mg9 2.954629 1_654
Mg7 Mg9 2.954629 1_554
Mg7 Si0 2.968281 1_555
Mg7 Si1 3.009393 1_554
Mg8 Si1 2.944553 1_455
Mg8 Si1 2.944553 1_555
Mg9 Si1 2.944553 1_455
Mg9 Si1 2.944553 1_555
Mg10 Mg6 2.948344 1_455
Mg10 Mg6 2.948344 1_555
Mg10 Mg7 2.948344 1_455
Mg10 Mg7 2.948344 1_555
Mg11 Si1 2.889396 1_555
Mg11 Si1 2.889396 1_455
Co0 Mg4 2.870212 1_555
Co0 Mg4 2.870212 1_655
Co0 Mg9 2.887017 1_655
Co0 Mg8 2.887017 1_545
Co0 Mg8 2.887017 1_645
Co0 Mg9 2.887017 1_555
Co0 Mg0 2.980641 1_555
Co0 Mg1 2.980641 1_545
Co0 Mg6 2.996903 1_546
Co0 Mg7 2.996903 1_556
Co0 Si1 3.009029 1_555
Co0 Si1 3.009029 1_545
Co1 Mg10 2.870212 1_655
Co1 Mg10 2.870212 1_555
Co1 Mg2 2.887017 1_555
Co1 Mg2 2.887017 1_655
Co1 Mg3 2.887017 1_555
Co1 Mg3 2.887017 1_655
Co1 Mg6 2.980641 1_555
Co1 Mg7 2.980641 1_555
Co1 Mg1 2.996903 1_555
Co1 Mg0 2.996903 1_555
Co1 Si0 3.009029 1_555
Co1 Si0 3.009029 1_565
