# generated using pymatgen
data_Hf9B2Mo3
_symmetry_space_group_name_H-M   'P 1'
_cell_length_a   8.39368883
_cell_length_b   8.39368883
_cell_length_c   8.45937700
_cell_angle_alpha   90.00000000
_cell_angle_beta   90.00000000
_cell_angle_gamma   120.00000656
_symmetry_Int_Tables_number   1
_chemical_formula_structural   Hf9B2Mo3
_chemical_formula_sum   'Hf18 B4 Mo6'
_cell_volume   516.14855214
_cell_formula_units_Z   2
loop_
 _symmetry_equiv_pos_site_id
 _symmetry_equiv_pos_as_xyz
  1  'x, y, z'
loop_
 _atom_site_type_symbol
 _atom_site_label
 _atom_site_symmetry_multiplicity
 _atom_site_fract_x
 _atom_site_fract_y
 _atom_site_fract_z
 _atom_site_occupancy
  Hf  Hf0  1  0.20078900  0.79921100  0.94502600  1
  Hf  Hf1  1  0.20078900  0.40157800  0.94502600  1
  Hf  Hf2  1  0.59842200  0.79921100  0.94502600  1
  Hf  Hf3  1  0.79921100  0.20078900  0.05497400  1
  Hf  Hf4  1  0.79921100  0.59842200  0.05497400  1
  Hf  Hf5  1  0.40157800  0.20078900  0.05497400  1
  Hf  Hf6  1  0.79921100  0.20078900  0.44502600  1
  Hf  Hf7  1  0.79921100  0.59842200  0.44502600  1
  Hf  Hf8  1  0.40157800  0.20078900  0.44502600  1
  Hf  Hf9  1  0.20078900  0.79921100  0.55497400  1
  Hf  Hf10  1  0.20078900  0.40157800  0.55497400  1
  Hf  Hf11  1  0.59842200  0.79921100  0.55497400  1
  Hf  Hf12  1  0.54062800  0.45937200  0.75000000  1
  Hf  Hf13  1  0.54062800  0.08125500  0.75000000  1
  Hf  Hf14  1  0.91874500  0.45937200  0.75000000  1
  Hf  Hf15  1  0.45937200  0.54062800  0.25000000  1
  Hf  Hf16  1  0.45937200  0.91874500  0.25000000  1
  Hf  Hf17  1  0.08125500  0.54062800  0.25000000  1
  B  B0  1  0.00000000  0.00000000  0.00000000  1
  B  B1  1  0.00000000  0.00000000  0.50000000  1
  B  B2  1  0.33333300  0.66666700  0.75000000  1
  B  B3  1  0.66666700  0.33333300  0.25000000  1
  Mo  Mo0  1  0.89177300  0.10822700  0.75000000  1
  Mo  Mo1  1  0.89177300  0.78354600  0.75000000  1
  Mo  Mo2  1  0.21645400  0.10822700  0.75000000  1
  Mo  Mo3  1  0.10822700  0.89177300  0.25000000  1
  Mo  Mo4  1  0.10822700  0.21645400  0.25000000  1
  Mo  Mo5  1  0.78354600  0.89177300  0.25000000  1
loop_
_geom_bond_atom_site_label_1
_geom_bond_atom_site_label_2
_geom_bond_distance
_geom_bond_site_symmetry_2
Hf0 Mo3 2.909764 1_556
Hf0 Mo2 3.020892 1_565
Hf0 Mo1 3.020892 1_455
Hf1 Mo4 2.909764 1_556
Hf1 Mo0 3.020892 1_455
Hf1 Mo2 3.020892 1_555
Hf2 Mo5 2.909764 1_556
Hf2 Mo0 3.020892 1_565
Hf2 Mo1 3.020892 1_555
Hf3 Mo0 2.909764 1_554
Hf3 Mo4 3.020892 1_655
Hf3 Mo5 3.020892 1_545
Hf4 Mo1 2.909764 1_554
Hf4 Mo3 3.020892 1_655
Hf4 Mo5 3.020892 1_555
Hf5 Mo2 2.909764 1_554
Hf5 Mo3 3.020892 1_545
Hf5 Mo4 3.020892 1_555
Hf6 Mo0 2.909764 1_555
Hf6 Mo4 3.020892 1_655
Hf6 Mo5 3.020892 1_545
Hf7 Mo1 2.909764 1_555
Hf7 Mo3 3.020892 1_655
Hf7 Mo5 3.020892 1_555
Hf8 Mo2 2.909764 1_555
Hf8 Mo3 3.020892 1_545
Hf8 Mo4 3.020892 1_555
Hf9 Mo3 2.909764 1_555
Hf9 Mo2 3.020892 1_565
Hf9 Mo1 3.020892 1_455
Hf10 Mo4 2.909764 1_555
Hf10 Mo0 3.020892 1_455
Hf10 Mo2 3.020892 1_555
Hf11 Mo5 2.909764 1_555
Hf11 Mo0 3.020892 1_565
Hf11 Mo1 3.020892 1_555
Hf12 Mo1 2.840981 1_555
Hf12 Mo2 2.840981 1_555
Hf13 Mo0 2.840978 1_555
Hf13 Mo2 2.840986 1_555
Hf14 Mo0 2.840978 1_555
Hf14 Mo1 2.840986 1_555
Hf15 Mo5 2.840981 1_555
Hf15 Mo4 2.840981 1_555
Hf16 Mo3 2.840978 1_555
Hf16 Mo5 2.840986 1_555
Hf17 Mo3 2.840978 1_555
Hf17 Mo4 2.840986 1_555
B0 Mo4 2.635957 1_555
B0 Mo2 2.635957 1_554
B0 Mo1 2.635957 1_444
B0 Mo5 2.635957 1_445
B0 Mo0 2.635957 1_454
B0 Mo3 2.635957 1_545
B0 Hf4 2.955941 1_445
B0 Hf5 2.955941 1_555
B0 Hf2 2.955941 1_444
B0 Hf1 2.955941 1_554
B0 Hf3 2.955941 1_455
B0 Hf0 2.955941 1_544
B1 Mo4 2.635957 1_555
B1 Mo2 2.635957 1_555
B1 Mo1 2.635957 1_445
B1 Mo5 2.635957 1_445
B1 Mo3 2.635957 1_545
B1 Mo0 2.635957 1_455
B1 Hf10 2.955941 1_555
B1 Hf8 2.955941 1_555
B1 Hf7 2.955941 1_445
B1 Hf11 2.955941 1_445
B1 Hf6 2.955941 1_455
B1 Hf9 2.955941 1_545
B2 Hf0 2.536735 1_555
B2 Hf9 2.536735 1_555
B2 Hf2 2.536740 1_555
B2 Hf1 2.536740 1_555
B2 Hf11 2.536740 1_555
B2 Hf10 2.536740 1_555
B2 Hf13 3.013701 1_565
B2 Hf14 3.013701 1_455
B2 Hf12 3.013716 1_555
B3 Hf6 2.536735 1_555
B3 Hf3 2.536735 1_555
B3 Hf7 2.536740 1_555
B3 Hf8 2.536740 1_555
B3 Hf4 2.536740 1_555
B3 Hf5 2.536740 1_555
B3 Hf17 3.013701 1_655
B3 Hf16 3.013701 1_545
B3 Hf15 3.013716 1_555
Mo0 Mo1 2.725271 1_545
Mo0 Mo2 2.725271 1_655
Mo1 Mo2 2.725271 1_665
Mo3 Mo5 2.725271 1_455
Mo3 Mo4 2.725271 1_565
Mo4 Mo5 2.725271 1_445
