# generated using pymatgen
data_Sr2CoWO6
_symmetry_space_group_name_H-M   'P 1'
_cell_length_a   5.67187276
_cell_length_b   9.84037627
_cell_length_c   5.67142283
_cell_angle_alpha   73.90117736
_cell_angle_beta   119.89018847
_cell_angle_gamma   106.09637542
_symmetry_Int_Tables_number   1
_chemical_formula_structural   Sr2CoWO6
_chemical_formula_sum   'Sr4 Co2 W2 O12'
_cell_volume   259.97292162
_cell_formula_units_Z   2
loop_
 _symmetry_equiv_pos_site_id
 _symmetry_equiv_pos_as_xyz
  1  'x, y, z'
loop_
 _atom_site_type_symbol
 _atom_site_label
 _atom_site_symmetry_multiplicity
 _atom_site_fract_x
 _atom_site_fract_y
 _atom_site_fract_z
 _atom_site_occupancy
  Sr  Sr0  1  0.87832900  0.12727900  0.12167500  1
  Sr  Sr1  1  0.37680200  0.62697200  0.62316800  1
  Sr  Sr2  1  0.12167300  0.87272200  0.87832300  1
  Sr  Sr3  1  0.62319700  0.37302800  0.37683300  1
  Co  Co0  1  0.50000000  0.00000000  0.50000100  1
  Co  Co1  1  0.00000000  0.49999900  0.00000000  1
  W  W0  1  0.74982000  0.75019900  0.25014700  1
  W  W1  1  0.25018000  0.24980000  0.74985300  1
  O  O0  1  0.83970900  0.59910800  0.16030500  1
  O  O1  1  0.33991900  0.09926900  0.66010200  1
  O  O2  1  0.16029100  0.40089400  0.83969500  1
  O  O3  1  0.66008000  0.90073000  0.33989900  1
  O  O4  1  0.62729700  0.35297800  0.85687400  1
  O  O5  1  0.12678300  0.85343700  0.35534300  1
  O  O6  1  0.37270300  0.64702200  0.14312500  1
  O  O7  1  0.87321600  0.14656400  0.64465700  1
  O  O8  1  0.35533900  0.14652300  0.12685500  1
  O  O9  1  0.85691700  0.64700700  0.62739100  1
  O  O10  1  0.64466100  0.85347800  0.87314600  1
  O  O11  1  0.14308300  0.35299300  0.37260800  1
loop_
_geom_bond_atom_site_label_1
_geom_bond_atom_site_label_2
_geom_bond_distance
_geom_bond_site_symmetry_2
Co0 O1 2.099640 1_555
Co0 O3 2.099647 1_545
Co0 O10 2.112775 1_545
Co0 O8 2.112784 1_555
Co0 O5 2.113414 1_545
Co0 O7 2.113415 1_555
Co1 O2 2.100327 1_554
Co1 O0 2.100355 1_455
Co1 O11 2.112645 1_555
Co1 O9 2.112659 1_454
Co1 O4 2.113254 1_454
Co1 O6 2.113264 1_555
O0 W0 1.956910 1_555
O0 Sr3 2.537403 1_555
O0 Sr1 2.865671 1_655
O0 Sr1 2.865842 1_554
O0 Sr2 3.184022 1_654
O1 W1 1.951106 1_555
O1 Sr2 2.549589 1_545
O1 Sr0 2.867089 1_556
O1 Sr0 2.867106 1_455
O1 Sr3 3.192487 1_555
O2 W1 1.956937 1_555
O2 Sr1 2.537386 1_555
O2 Sr3 2.865673 1_455
O2 Sr3 2.865844 1_556
O2 Sr0 3.184015 1_456
O3 W0 1.951113 1_555
O3 Sr0 2.549618 1_565
O3 Sr2 2.867085 1_554
O3 Sr2 2.867102 1_655
O3 Sr1 3.192481 1_555
O4 W1 1.953968 1_555
O4 Sr0 2.643454 1_556
O4 Sr3 2.663288 1_555
O4 Sr3 3.021438 1_556
O4 Sr1 3.051270 1_555
O5 W0 1.954416 1_455
O5 Sr2 2.645017 1_554
O5 Sr1 2.648132 1_555
O5 Sr2 3.038938 1_555
O5 Sr0 3.044240 1_465
O6 W0 1.953965 1_555
O6 Sr2 2.643457 1_554
O6 Sr1 2.663302 1_555
O6 Sr1 3.021423 1_554
O6 Sr3 3.051267 1_555
O7 W1 1.954414 1_655
O7 Sr0 2.644998 1_556
O7 Sr3 2.648123 1_555
O7 Sr0 3.038958 1_555
O7 Sr2 3.044249 1_645
O8 W1 1.954530 1_554
O8 Sr0 2.645078 1_455
O8 Sr3 2.648416 1_555
O8 Sr0 3.039289 1_555
O8 Sr2 3.044138 1_544
O9 W0 1.954346 1_555
O9 Sr2 2.643344 1_655
O9 Sr1 2.663627 1_555
O9 Sr1 3.021551 1_655
O9 Sr3 3.051351 1_555
O10 W0 1.954531 1_556
O10 Sr2 2.645098 1_655
O10 Sr1 2.648425 1_555
O10 Sr2 3.039269 1_555
O10 Sr0 3.044129 1_566
O11 W1 1.954353 1_555
O11 Sr0 2.643338 1_455
O11 Sr3 2.663616 1_555
O11 Sr3 3.021562 1_455
O11 Sr1 3.051357 1_555
