# generated using pymatgen
data_Li9Mn2Co5O16
_symmetry_space_group_name_H-M   'P 1'
_cell_length_a   5.62653051
_cell_length_b   6.33703345
_cell_length_c   8.48179255
_cell_angle_alpha   82.37557925
_cell_angle_beta   109.31341267
_cell_angle_gamma   116.45714599
_symmetry_Int_Tables_number   1
_chemical_formula_structural   Li9Mn2Co5O16
_chemical_formula_sum   'Li9 Mn2 Co5 O16'
_cell_volume   255.47393578
_cell_formula_units_Z   1
loop_
 _symmetry_equiv_pos_site_id
 _symmetry_equiv_pos_as_xyz
  1  'x, y, z'
loop_
 _atom_site_type_symbol
 _atom_site_label
 _atom_site_symmetry_multiplicity
 _atom_site_fract_x
 _atom_site_fract_y
 _atom_site_fract_z
 _atom_site_occupancy
  Li  Li0  1  0.74334305  0.74126549  0.25305071  1
  Li  Li1  1  0.26173047  0.00241719  0.49496474  1
  Li  Li2  1  0.25862181  0.75335676  0.25626107  1
  Li  Li3  1  0.73281665  0.00319469  0.49329651  1
  Li  Li4  1  0.74382386  0.25343690  0.74316756  1
  Li  Li5  1  0.25108685  0.25037684  0.74688310  1
  Li  Li6  1  0.26507647  0.50366271  0.00741284  1
  Li  Li7  1  0.73915364  0.49267069  0.00617384  1
  Li  Li8  1  0.50482327  0.25134044  0.25468801  1
  Mn  Mn0  1  0.00861808  0.00243059  0.00229490  1
  Mn  Mn1  1  0.00022139  0.25417973  0.25285056  1
  Co  Co0  1  0.99574080  0.49792402  0.49903957  1
  Co  Co1  1  0.49850508  0.74941066  0.74887586  1
  Co  Co2  1  0.50145546  0.00155629  0.00088099  1
  Co  Co3  1  0.50035279  0.49801109  0.49895967  1
  Co  Co4  1  0.99943212  0.74937863  0.74899162  1
  O  O0  1  0.11027185  0.00923963  0.23495416  1
  O  O1  1  0.63568882  0.27135602  0.50214817  1
  O  O2  1  0.64003894  0.01244356  0.23924134  1
  O  O3  1  0.12661325  0.26513178  0.48881288  1
  O  O4  1  0.13026749  0.52230513  0.73927523  1
  O  O5  1  0.62986677  0.52153665  0.73983782  1
  O  O6  1  0.63176874  0.76969009  0.98919412  1
  O  O7  1  0.13104707  0.77189550  0.99046691  1
  O  O8  1  0.36009059  0.48750301  0.25933847  1
  O  O9  1  0.86968974  0.72644372  0.51218623  1
  O  O10  1  0.88723670  0.48829622  0.25877719  1
  O  O11  1  0.37064956  0.73048839  0.51165725  1
  O  O12  1  0.36967888  0.97822601  0.76090841  1
  O  O13  1  0.87002841  0.98103988  0.76072021  1
  O  O14  1  0.87432739  0.23338486  0.00922995  1
  O  O15  1  0.35793400  0.22640782  0.99545914  1
loop_
_geom_bond_atom_site_label_1
_geom_bond_atom_site_label_2
_geom_bond_distance
_geom_bond_site_symmetry_2
Li0 O2 2.023924 1_565
Li0 O0 2.045995 1_665
Li0 O8 2.049934 1_555
Li0 O9 2.077565 1_555
Li0 O10 2.082669 1_555
Li0 O6 2.121213 1_554
Li1 O1 2.020625 1_555
Li1 O11 2.045477 1_545
Li1 O0 2.087118 1_555
Li1 O3 2.104958 1_555
Li1 O12 2.136693 1_545
Li1 O9 2.157184 1_445
Li2 O8 2.000112 1_555
Li2 O10 2.020090 1_455
Li2 O11 2.050784 1_555
Li2 O2 2.079530 1_565
Li2 O0 2.094578 1_565
Li2 O7 2.132104 1_554
Li3 O1 2.020043 1_555
Li3 O11 2.040532 1_545
Li3 O2 2.041806 1_555
Li3 O3 2.104256 1_655
Li3 O13 2.148108 1_545
Li3 O9 2.177568 1_545
Li4 O1 1.933746 1_555
Li4 O5 2.060176 1_555
Li4 O4 2.088856 1_655
Li4 O12 2.089096 1_545
Li4 O13 2.111923 1_545
Li4 O14 2.135160 1_556
Li5 O15 1.996918 1_555
Li5 O3 2.068941 1_555
Li5 O5 2.071755 1_555
Li5 O12 2.086192 1_545
Li5 O13 2.091973 1_445
Li5 O4 2.102631 1_555
Li6 O8 2.024159 1_555
Li6 O6 2.040879 1_554
Li6 O15 2.066511 1_554
Li6 O14 2.104162 1_455
Li6 O7 2.117629 1_554
Li6 O4 2.151545 1_554
Li7 O10 2.027169 1_555
Li7 O15 2.035416 1_554
Li7 O6 2.070746 1_554
Li7 O14 2.090000 1_555
Li7 O5 2.141594 1_554
Li7 O7 2.160073 1_654
Li8 O1 1.982121 1_555
Li8 O10 1.992776 1_555
Li8 O8 2.006812 1_555
Li8 O2 2.008162 1_555
Li8 O0 2.024237 1_555
Li8 O15 2.077553 1_554
Mn0 O15 1.857059 1_554
Mn0 O0 1.864723 1_555
Mn0 O7 1.897406 1_544
Mn0 O13 1.935826 1_444
Mn0 O14 1.937530 1_455
Mn0 O6 1.945403 1_444
Mn1 O10 1.867903 1_455
Mn1 O3 1.888784 1_555
Mn1 O8 1.889258 1_555
Mn1 O2 1.895503 1_455
Mn1 O0 1.948555 1_555
Mn1 O14 1.951865 1_455
Co0 O1 1.897285 1_555
Co0 O9 1.903385 1_555
Co0 O10 1.925136 1_555
Co0 O4 1.925582 1_655
Co0 O11 1.937925 1_655
Co0 O3 1.941686 1_655
Co1 O11 1.899979 1_555
Co1 O4 1.906081 1_555
Co1 O5 1.911887 1_555
Co1 O12 1.913917 1_555
Co1 O13 1.923671 1_555
Co1 O6 1.925150 1_555
Co2 O2 1.909566 1_555
Co2 O15 1.915167 1_554
Co2 O7 1.918088 1_544
Co2 O12 1.923114 1_544
Co2 O14 1.935911 1_555
Co2 O6 1.937290 1_544
Co3 O1 1.895844 1_555
Co3 O9 1.906550 1_555
Co3 O8 1.919918 1_555
Co3 O5 1.930448 1_555
Co3 O3 1.938053 1_555
Co3 O11 1.940781 1_555
Co4 O9 1.897706 1_555
Co4 O4 1.906526 1_655
Co4 O12 1.913303 1_655
Co4 O5 1.913699 1_555
Co4 O13 1.932425 1_555
Co4 O7 1.934883 1_655
