# generated using pymatgen
data_MgAl2H4Pb2(O2F3)2
_symmetry_space_group_name_H-M   'P 1'
_cell_length_a   6.43945191
_cell_length_b   7.85536862
_cell_length_c   5.44461643
_cell_angle_alpha   88.70036110
_cell_angle_beta   108.87043753
_cell_angle_gamma   99.92766703
_symmetry_Int_Tables_number   1
_chemical_formula_structural   MgAl2H4Pb2(O2F3)2
_chemical_formula_sum   'Mg1 Al2 H4 Pb2 O4 F6'
_cell_volume   256.54516777
_cell_formula_units_Z   1
loop_
 _symmetry_equiv_pos_site_id
 _symmetry_equiv_pos_as_xyz
  1  'x, y, z'
loop_
 _atom_site_type_symbol
 _atom_site_label
 _atom_site_symmetry_multiplicity
 _atom_site_fract_x
 _atom_site_fract_y
 _atom_site_fract_z
 _atom_site_occupancy
  Mg  Mg0  1  0.02947000  0.59415000  0.51699200  1
  Al  Al0  1  0.19566400  0.64460700  0.10594800  1
  Al  Al1  1  0.82443500  0.34499200  0.86282600  1
  H  H0  1  0.25724500  0.37568000  0.90102500  1
  H  H1  1  0.77710700  0.61073500  0.03532200  1
  H  H2  1  0.17911500  0.88207700  0.79946700  1
  H  H3  1  0.82475700  0.18701500  0.25807000  1
  Pb  Pb0  1  0.63848000  0.90813600  0.85003100  1
  Pb  Pb1  1  0.33827900  0.13331100  0.42194700  1
  O  O0  1  0.13661300  0.44074500  0.88341000  1
  O  O1  1  0.88897300  0.53611100  0.10366500  1
  O  O2  1  0.09998000  0.76475200  0.80761300  1
  O  O3  1  0.87396700  0.16944500  0.10939200  1
  F  F0  1  0.15058500  0.80907700  0.31410800  1
  F  F1  1  0.78588000  0.16949200  0.61311400  1
  F  F2  1  0.26735000  0.52138400  0.40690100  1
  F  F3  1  0.76066700  0.48436900  0.58082400  1
  F  F4  1  0.48464600  0.73486700  0.16548700  1
  F  F5  1  0.52845300  0.31868500  0.82635800  1
loop_
_geom_bond_atom_site_label_1
_geom_bond_atom_site_label_2
_geom_bond_distance
_geom_bond_site_symmetry_2
Mg0 O2 1.981797 1_555
Mg0 O1 2.162876 1_455
Mg0 O0 2.279361 1_555
Al0 F4 1.798879 1_555
Al0 O2 1.841837 1_554
Al0 F2 1.851434 1_555
Al0 F0 1.856474 1_555
Al0 O0 1.938347 1_554
Al0 O1 2.007753 1_455
Al1 F5 1.826493 1_555
Al1 F3 1.842741 1_555
Al1 F1 1.886626 1_555
Al1 O3 1.896375 1_556
Al1 O1 1.915137 1_556
Al1 O0 1.989012 1_655
H0 O0 0.979970 1_555
H1 O1 0.981490 1_555
H2 O2 0.980752 1_555
H3 O3 0.980217 1_555
O3 Pb0 2.485984 1_544
F0 Mg0 2.167389 1_555
F0 Pb1 2.615338 1_565
F1 Pb0 2.603798 1_545
F1 Pb1 2.694842 1_555
F2 Mg0 1.985916 1_555
F3 Mg0 1.929111 1_655
F4 Pb0 2.512652 1_554
F5 Pb1 2.500939 1_555
