# generated using pymatgen
data_Li2Ca(MnN)2
_symmetry_space_group_name_H-M   'P 1'
_cell_length_a   7.04841100
_cell_length_b   7.04841100
_cell_length_c   3.74428700
_cell_angle_alpha   90.00000000
_cell_angle_beta   90.00000000
_cell_angle_gamma   90.00000000
_symmetry_Int_Tables_number   1
_chemical_formula_structural   Li2Ca(MnN)2
_chemical_formula_sum   'Li4 Ca2 Mn4 N4'
_cell_volume   186.01654370
_cell_formula_units_Z   2
loop_
 _symmetry_equiv_pos_site_id
 _symmetry_equiv_pos_as_xyz
  1  'x, y, z'
loop_
 _atom_site_type_symbol
 _atom_site_label
 _atom_site_symmetry_multiplicity
 _atom_site_fract_x
 _atom_site_fract_y
 _atom_site_fract_z
 _atom_site_occupancy
  Li  Li0  1  0.11583600  0.61583600  0.00000000  1
  Li  Li1  1  0.88416400  0.38416400  0.00000000  1
  Li  Li2  1  0.61583600  0.88416400  0.00000000  1
  Li  Li3  1  0.38416400  0.11583600  0.00000000  1
  Ca  Ca0  1  0.00000000  0.00000000  0.00000000  1
  Ca  Ca1  1  0.50000000  0.50000000  0.00000000  1
  Mn  Mn0  1  0.67505700  0.17505700  0.50000000  1
  Mn  Mn1  1  0.32494300  0.82494300  0.50000000  1
  Mn  Mn2  1  0.17505700  0.32494300  0.50000000  1
  Mn  Mn3  1  0.82494300  0.67505700  0.50000000  1
  N  N0  1  0.67646700  0.17646700  0.00000000  1
  N  N1  1  0.32353300  0.82353300  0.00000000  1
  N  N2  1  0.17646700  0.32353300  0.00000000  1
  N  N3  1  0.82353300  0.67646700  0.00000000  1
loop_
_geom_bond_atom_site_label_1
_geom_bond_atom_site_label_2
_geom_bond_distance
_geom_bond_site_symmetry_2
Li0 N1 2.070315 1_555
Li0 N3 2.104127 1_455
Li0 N2 2.104127 1_555
Li1 N0 2.070315 1_555
Li1 N2 2.104127 1_655
Li1 N3 2.104127 1_555
Li2 N3 2.070315 1_555
Li2 N0 2.104127 1_565
Li2 N1 2.104127 1_555
Li3 N2 2.070315 1_555
Li3 N0 2.104127 1_555
Li3 N1 2.104127 1_545
Ca0 N0 2.597549 1_455
Ca0 N3 2.597549 1_445
Ca0 N1 2.597549 1_545
Ca0 N2 2.597549 1_555
Ca1 N1 2.597549 1_555
Ca1 N2 2.597549 1_555
Ca1 N3 2.597549 1_555
Ca1 N0 2.597549 1_555
Mn0 N0 1.872196 1_556
Mn0 N0 1.872196 1_555
Mn1 N1 1.872196 1_556
Mn1 N1 1.872196 1_555
Mn2 N2 1.872196 1_555
Mn2 N2 1.872196 1_556
Mn3 N3 1.872196 1_556
Mn3 N3 1.872196 1_555
