# generated using pymatgen
data_Na5Cu3As4HO16
_symmetry_space_group_name_H-M   'P 1'
_cell_length_a   5.39283445
_cell_length_b   8.65793010
_cell_length_c   9.47408485
_cell_angle_alpha   63.70410851
_cell_angle_beta   89.38138310
_cell_angle_gamma   74.23789199
_symmetry_Int_Tables_number   1
_chemical_formula_structural   Na5Cu3As4HO16
_chemical_formula_sum   'Na5 Cu3 As4 H1 O16'
_cell_volume   378.57629757
_cell_formula_units_Z   1
loop_
 _symmetry_equiv_pos_site_id
 _symmetry_equiv_pos_as_xyz
  1  'x, y, z'
loop_
 _atom_site_type_symbol
 _atom_site_label
 _atom_site_symmetry_multiplicity
 _atom_site_fract_x
 _atom_site_fract_y
 _atom_site_fract_z
 _atom_site_occupancy
  Na  Na0  1  0.34041900  0.35663200  0.63683600  1
  Na  Na1  1  0.65958100  0.64336800  0.36316400  1
  Na  Na2  1  0.70295800  0.54821200  0.73591200  1
  Na  Na3  1  0.29704200  0.45178800  0.26408800  1
  Na  Na4  1  0.00000000  0.00000000  0.00000000  1
  Cu  Cu0  1  0.83265800  0.25301600  0.20632600  1
  Cu  Cu1  1  0.16734200  0.74698400  0.79367400  1
  Cu  Cu2  1  0.50000000  0.00000000  0.50000000  1
  As  As0  1  0.26016100  0.31087700  0.97910400  1
  As  As1  1  0.73983900  0.68912300  0.02089600  1
  As  As2  1  0.93516100  0.17583100  0.57400900  1
  As  As3  1  0.06483900  0.82416900  0.42599100  1
  H  H0  1  0.50000000  0.00000000  0.00000000  1
  O  O0  1  0.93093700  0.33125200  0.98947600  1
  O  O1  1  0.06906300  0.66874800  0.01052400  1
  O  O2  1  0.77122600  0.80025500  0.49772000  1
  O  O3  1  0.22877400  0.19974500  0.50228000  1
  O  O4  1  0.27668600  0.50280200  0.80946400  1
  O  O5  1  0.72331400  0.49719800  0.19053600  1
  O  O6  1  0.57485000  0.74231100  0.84793300  1
  O  O7  1  0.42515000  0.25768900  0.15206700  1
  O  O8  1  0.97542400  0.99114700  0.75527400  1
  O  O9  1  0.02457600  0.00885300  0.24472600  1
  O  O10  1  0.78576500  0.36426700  0.59435900  1
  O  O11  1  0.21423500  0.63573300  0.40564100  1
  O  O12  1  0.73791200  0.16127900  0.43419000  1
  O  O13  1  0.26208800  0.83872100  0.56581000  1
  O  O14  1  0.36961600  0.15067300  0.90933600  1
  O  O15  1  0.63038400  0.84932700  0.09066400  1
loop_
_geom_bond_atom_site_label_1
_geom_bond_atom_site_label_2
_geom_bond_distance
_geom_bond_site_symmetry_2
Na0 O11 2.355671 1_555
Na0 O14 2.376343 1_555
Na0 O3 2.414066 1_555
Na0 O10 2.444624 1_555
Na0 O4 2.445388 1_555
Na1 O10 2.355671 1_555
Na1 O15 2.376343 1_555
Na1 O2 2.414066 1_555
Na1 O11 2.444624 1_555
Na1 O5 2.445388 1_555
Na2 O6 2.315455 1_555
Na2 O0 2.371066 1_555
Na2 O10 2.455051 1_555
Na2 O2 2.458725 1_555
Na2 O4 2.477578 1_555
Na3 O7 2.315455 1_555
Na3 O1 2.371066 1_555
Na3 O11 2.455051 1_555
Na3 O3 2.458725 1_555
Na3 O5 2.477578 1_555
Na4 O9 2.359820 1_555
Na4 O8 2.359820 1_444
Na4 O14 2.606846 1_554
Na4 O15 2.606846 1_445
Na4 O0 2.746081 1_454
Na4 O1 2.746081 1_545
Cu0 O9 1.952020 1_655
Cu0 O5 1.970779 1_555
Cu0 O0 1.974602 1_554
Cu0 O12 2.056649 1_555
Cu0 O7 2.247910 1_555
Cu1 O8 1.952020 1_455
Cu1 O4 1.970779 1_555
Cu1 O1 1.974602 1_556
Cu1 O13 2.056649 1_555
Cu1 O6 2.247910 1_555
Cu2 O3 1.946483 1_555
Cu2 O2 1.946483 1_545
Cu2 O12 2.041893 1_555
Cu2 O13 2.041893 1_545
As0 O7 1.682037 1_556
As0 O0 1.741963 1_455
As0 O4 1.750228 1_555
As0 O14 1.751648 1_555
As1 O6 1.682037 1_554
As1 O1 1.741963 1_655
As1 O5 1.750228 1_555
As1 O15 1.751648 1_555
As2 O10 1.705632 1_555
As2 O8 1.714509 1_545
As2 O3 1.744152 1_655
As2 O12 1.775731 1_555
As3 O11 1.705632 1_555
As3 O9 1.714509 1_565
As3 O2 1.744152 1_455
As3 O13 1.775731 1_555
H0 O14 1.206600 1_554
H0 O15 1.206600 1_545
