# generated using pymatgen
data_Ca3(AlAs2)2
_symmetry_space_group_name_H-M   'P 1'
_cell_length_a   8.23920954
_cell_length_b   8.23920954
_cell_length_c   6.63528127
_cell_angle_alpha   89.36362436
_cell_angle_beta   89.36362436
_cell_angle_gamma   75.72525860
_symmetry_Int_Tables_number   1
_chemical_formula_structural   Ca3(AlAs2)2
_chemical_formula_sum   'Ca6 Al4 As8'
_cell_volume   436.48270187
_cell_formula_units_Z   2
loop_
 _symmetry_equiv_pos_site_id
 _symmetry_equiv_pos_as_xyz
  1  'x, y, z'
loop_
 _atom_site_type_symbol
 _atom_site_label
 _atom_site_symmetry_multiplicity
 _atom_site_fract_x
 _atom_site_fract_y
 _atom_site_fract_z
 _atom_site_occupancy
  Ca  Ca0  1  0.59930607  0.40069393  0.75000000  1
  Ca  Ca1  1  0.40069393  0.59930607  0.25000000  1
  Ca  Ca2  1  0.00636109  0.75075949  0.97300681  1
  Ca  Ca3  1  0.24924051  0.99363891  0.52699319  1
  Ca  Ca4  1  0.99363891  0.24924051  0.02699319  1
  Ca  Ca5  1  0.75075949  0.00636109  0.47300681  1
  Al  Al0  1  0.17193797  0.42038980  0.58902066  1
  Al  Al1  1  0.57961020  0.82806203  0.91097934  1
  Al  Al2  1  0.82806203  0.57961020  0.41097934  1
  Al  Al3  1  0.42038980  0.17193797  0.08902066  1
  As  As0  1  0.56707017  0.74257473  0.56198033  1
  As  As1  1  0.25742527  0.43292983  0.93801967  1
  As  As2  1  0.43292983  0.25742527  0.43801967  1
  As  As3  1  0.74257473  0.56707017  0.06198033  1
  As  As4  1  0.94118932  0.28237120  0.52399207  1
  As  As5  1  0.71762880  0.05881068  0.97600793  1
  As  As6  1  0.05881068  0.71762880  0.47600793  1
  As  As7  1  0.28237120  0.94118932  0.02399207  1
loop_
_geom_bond_atom_site_label_1
_geom_bond_atom_site_label_2
_geom_bond_distance
_geom_bond_site_symmetry_2
Al0 As1 2.438588 1_555
Al0 As2 2.447236 1_555
Al0 As4 2.487792 1_455
Al0 As6 2.505553 1_555
Al1 As0 2.438588 1_555
Al1 As3 2.447236 1_556
Al1 As5 2.487792 1_565
Al1 As7 2.505553 1_556
Al2 As3 2.438588 1_555
Al2 As0 2.447236 1_555
Al2 As6 2.487792 1_655
Al2 As4 2.505553 1_555
Al3 As2 2.438588 1_555
Al3 As1 2.447236 1_554
Al3 As7 2.487792 1_545
Al3 As5 2.505553 1_554
As0 Ca1 2.910844 1_555
As0 Ca3 2.919215 1_555
As0 Ca5 2.989392 1_565
As0 Ca0 3.020237 1_555
As1 Ca1 2.910844 1_556
As1 Ca2 2.919215 1_555
As1 Ca4 2.989392 1_456
As1 Ca0 3.020237 1_555
As2 Ca0 2.910844 1_555
As2 Ca5 2.919215 1_555
As2 Ca3 2.989392 1_545
As2 Ca1 3.020237 1_555
As3 Ca0 2.910844 1_554
As3 Ca4 2.919215 1_555
As3 Ca2 2.989392 1_654
As3 Ca1 3.020237 1_555
As4 Ca3 3.020616 1_645
As4 Ca5 3.088070 1_555
As4 Ca0 3.117424 1_555
As4 Ca4 3.326625 1_555
As4 Ca4 3.369593 1_556
As5 Ca2 3.020616 1_645
As5 Ca4 3.088070 1_556
As5 Ca0 3.117424 1_555
As5 Ca5 3.326625 1_556
As5 Ca5 3.369593 1_555
As6 Ca5 3.020616 1_465
As6 Ca3 3.088070 1_555
As6 Ca1 3.117424 1_555
As6 Ca2 3.326625 1_555
As6 Ca2 3.369593 1_554
As7 Ca4 3.020616 1_465
As7 Ca2 3.088070 1_554
As7 Ca1 3.117424 1_555
As7 Ca3 3.326625 1_554
As7 Ca3 3.369593 1_555
