# generated using pymatgen
data_NbIr3
_symmetry_space_group_name_H-M   'P 1'
_cell_length_a   3.91340971
_cell_length_b   3.91340971
_cell_length_c   3.91340971
_cell_angle_alpha   90.00000000
_cell_angle_beta   90.00000000
_cell_angle_gamma   90.00000000
_symmetry_Int_Tables_number   1
_chemical_formula_structural   NbIr3
_chemical_formula_sum   'Nb1 Ir3'
_cell_volume   59.93299138
_cell_formula_units_Z   1
loop_
 _symmetry_equiv_pos_site_id
 _symmetry_equiv_pos_as_xyz
  1  'x, y, z'
loop_
 _atom_site_type_symbol
 _atom_site_label
 _atom_site_symmetry_multiplicity
 _atom_site_fract_x
 _atom_site_fract_y
 _atom_site_fract_z
 _atom_site_occupancy
  Nb  Nb0  1  -0.00000000  -0.00000000  -0.00000000  1
  Ir  Ir0  1  0.50000000  0.50000000  -0.00000000  1
  Ir  Ir1  1  0.50000000  -0.00000000  0.50000000  1
  Ir  Ir2  1  -0.00000000  0.50000000  0.50000000  1
loop_
_geom_bond_atom_site_label_1
_geom_bond_atom_site_label_2
_geom_bond_distance
_geom_bond_site_symmetry_2
Ir0 Ir2 2.767199 1_655
Ir0 Ir2 2.767199 1_654
Ir0 Ir2 2.767199 1_555
Ir0 Nb0 2.767199 1_665
Ir0 Ir1 2.767199 1_565
Ir0 Ir1 2.767199 1_564
Ir0 Ir2 2.767199 1_554
Ir0 Nb0 2.767199 1_555
Ir0 Nb0 2.767199 1_565
Ir0 Ir1 2.767199 1_555
Ir0 Nb0 2.767199 1_655
Ir0 Ir1 2.767199 1_554
Ir1 Ir2 2.767199 1_655
Ir1 Ir2 2.767199 1_555
Ir1 Nb0 2.767199 1_556
Ir1 Nb0 2.767199 1_555
Ir1 Nb0 2.767199 1_655
Ir1 Nb0 2.767199 1_656
Ir1 Ir2 2.767199 1_545
Ir1 Ir2 2.767199 1_645
Ir2 Nb0 2.767199 1_556
Ir2 Nb0 2.767199 1_555
Ir2 Nb0 2.767199 1_566
Ir2 Nb0 2.767199 1_565
