# generated using pymatgen
data_V2GaFe
_symmetry_space_group_name_H-M   'P 1'
_cell_length_a   5.20875454
_cell_length_b   5.20875454
_cell_length_c   16.11208138
_cell_angle_alpha   90.00000000
_cell_angle_beta   90.00000000
_cell_angle_gamma   105.69217654
_symmetry_Int_Tables_number   1
_chemical_formula_structural   V2GaFe
_chemical_formula_sum   'V16 Ga8 Fe8'
_cell_volume   420.84613528
_cell_formula_units_Z   8
loop_
 _symmetry_equiv_pos_site_id
 _symmetry_equiv_pos_as_xyz
  1  'x, y, z'
loop_
 _atom_site_type_symbol
 _atom_site_label
 _atom_site_symmetry_multiplicity
 _atom_site_fract_x
 _atom_site_fract_y
 _atom_site_fract_z
 _atom_site_occupancy
  V  V0_0  1  0.00000000  0.00000000  0.25264100  1
  V  V0_1  1  0.00000000  0.00000000  0.75264100  1
  V  V0_2  1  0.00000000  0.50000000  0.25264100  1
  V  V0_3  1  0.00000000  0.50000000  0.75264100  1
  V  V0_4  1  0.50000000  0.00000000  0.25264100  1
  V  V0_5  1  0.50000000  0.00000000  0.75264100  1
  V  V0_6  1  0.50000000  0.50000000  0.25264100  1
  V  V0_7  1  0.50000000  0.50000000  0.75264100  1
  V  V1_0  1  0.25000000  0.25000000  0.37912800  1
  V  V1_1  1  0.25000000  0.25000000  0.87912800  1
  V  V1_2  1  0.25000000  0.75000000  0.37912800  1
  V  V1_3  1  0.25000000  0.75000000  0.87912800  1
  V  V1_4  1  0.75000000  0.25000000  0.37912800  1
  V  V1_5  1  0.75000000  0.25000000  0.87912800  1
  V  V1_6  1  0.75000000  0.75000000  0.37912800  1
  V  V1_7  1  0.75000000  0.75000000  0.87912800  1
  Ga  Ga0_0  1  0.25000000  0.25000000  0.11993350  1
  Ga  Ga0_1  1  0.25000000  0.25000000  0.61993350  1
  Ga  Ga0_2  1  0.25000000  0.75000000  0.11993350  1
  Ga  Ga0_3  1  0.25000000  0.75000000  0.61993350  1
  Ga  Ga0_4  1  0.75000000  0.25000000  0.11993350  1
  Ga  Ga0_5  1  0.75000000  0.25000000  0.61993350  1
  Ga  Ga0_6  1  0.75000000  0.75000000  0.11993350  1
  Ga  Ga0_7  1  0.75000000  0.75000000  0.61993350  1
  Fe  Fe0_0  1  0.00000000  0.00000000  0.49829750  1
  Fe  Fe0_1  1  0.00000000  0.00000000  0.99829750  1
  Fe  Fe0_2  1  0.00000000  0.50000000  0.49829750  1
  Fe  Fe0_3  1  0.00000000  0.50000000  0.99829750  1
  Fe  Fe0_4  1  0.50000000  0.00000000  0.49829750  1
  Fe  Fe0_5  1  0.50000000  0.00000000  0.99829750  1
  Fe  Fe0_6  1  0.50000000  0.50000000  0.49829750  1
  Fe  Fe0_7  1  0.50000000  0.50000000  0.99829750  1
loop_
_geom_bond_atom_site_label_1
_geom_bond_atom_site_label_2
_geom_bond_distance
_geom_bond_site_symmetry_2
Ga0_0 Ga0_4 2.604377 1_455
Ga0_0 Ga0_2 2.604377 1_545
Ga0_0 Ga0_2 2.604377 1_555
Ga0_0 Ga0_4 2.604377 1_555
Ga0_0 V0_6 2.654430 1_555
Ga0_0 V0_0 2.654430 1_555
Ga0_0 V0_4 2.980022 1_555
Ga0_0 V0_2 2.980022 1_555
Ga0_1 Ga0_5 2.604377 1_555
Ga0_1 Ga0_3 2.604377 1_555
Ga0_1 Ga0_5 2.604377 1_455
Ga0_1 Ga0_3 2.604377 1_545
Ga0_1 V0_1 2.654430 1_555
Ga0_1 V0_7 2.654430 1_555
Ga0_1 V0_5 2.980022 1_555
Ga0_1 V0_3 2.980022 1_555
Ga0_2 Ga0_6 2.604377 1_555
Ga0_2 Ga0_6 2.604377 1_455
Ga0_2 V0_4 2.654430 1_565
Ga0_2 V0_2 2.654430 1_555
Ga0_2 V0_0 2.980022 1_565
Ga0_2 V0_6 2.980022 1_555
Ga0_3 Ga0_7 2.604377 1_555
Ga0_3 Ga0_7 2.604377 1_455
Ga0_3 V0_5 2.654430 1_565
Ga0_3 V0_3 2.654430 1_555
Ga0_3 V0_7 2.980022 1_555
Ga0_3 V0_1 2.980022 1_565
Ga0_4 Ga0_6 2.604377 1_545
Ga0_4 Ga0_6 2.604377 1_555
Ga0_4 V0_4 2.654430 1_555
Ga0_4 V0_2 2.654430 1_655
Ga0_4 V0_6 2.980022 1_555
Ga0_4 V0_0 2.980022 1_655
Ga0_5 Ga0_7 2.604377 1_555
Ga0_5 Ga0_7 2.604377 1_545
Ga0_5 V0_5 2.654430 1_555
Ga0_5 V0_3 2.654430 1_655
Ga0_5 V0_7 2.980022 1_555
Ga0_5 V0_1 2.980022 1_655
Ga0_6 V0_0 2.654430 1_665
Ga0_6 V0_6 2.654430 1_555
Ga0_6 V0_4 2.980022 1_565
Ga0_6 V0_2 2.980022 1_655
Ga0_7 V0_1 2.654430 1_665
Ga0_7 V0_7 2.654430 1_555
Ga0_7 V0_5 2.980022 1_565
Ga0_7 V0_3 2.980022 1_655
Fe0_0 V1_6 2.482094 1_445
Fe0_0 V1_0 2.482094 1_555
Fe0_0 Ga0_1 2.512962 1_555
Fe0_0 Ga0_7 2.512962 1_445
Fe0_0 Fe0_2 2.604377 1_555
Fe0_0 Fe0_4 2.604377 1_555
Fe0_0 Fe0_4 2.604377 1_455
Fe0_0 Fe0_2 2.604377 1_545
Fe0_0 V1_2 2.827600 1_545
Fe0_0 V1_4 2.827600 1_455
Fe0_0 Ga0_5 2.854734 1_455
Fe0_0 Ga0_3 2.854734 1_545
Fe0_1 V1_1 2.482094 1_555
Fe0_1 V1_7 2.482094 1_445
Fe0_1 Ga0_0 2.512962 1_556
Fe0_1 Ga0_6 2.512962 1_446
Fe0_1 Fe0_5 2.604377 1_555
Fe0_1 Fe0_5 2.604377 1_455
Fe0_1 Fe0_3 2.604377 1_545
Fe0_1 Fe0_3 2.604377 1_555
Fe0_1 V1_5 2.827600 1_455
Fe0_1 V1_3 2.827600 1_545
Fe0_1 Ga0_2 2.854734 1_546
Fe0_1 Ga0_4 2.854734 1_456
Fe0_2 V1_4 2.482094 1_455
Fe0_2 V1_2 2.482094 1_555
Fe0_2 Ga0_3 2.512962 1_555
Fe0_2 Ga0_5 2.512962 1_455
Fe0_2 Fe0_6 2.604377 1_555
Fe0_2 Fe0_6 2.604377 1_455
Fe0_2 V1_0 2.827600 1_555
Fe0_2 V1_6 2.827600 1_455
Fe0_2 Ga0_1 2.854734 1_555
Fe0_2 Ga0_7 2.854734 1_455
Fe0_3 V1_5 2.482094 1_455
Fe0_3 V1_3 2.482094 1_555
Fe0_3 Ga0_2 2.512962 1_556
Fe0_3 Ga0_4 2.512962 1_456
Fe0_3 Fe0_7 2.604377 1_555
Fe0_3 Fe0_7 2.604377 1_455
Fe0_3 V1_1 2.827600 1_555
Fe0_3 V1_7 2.827600 1_455
Fe0_3 Ga0_6 2.854734 1_456
Fe0_3 Ga0_0 2.854734 1_556
Fe0_4 V1_4 2.482094 1_555
Fe0_4 V1_2 2.482094 1_545
Fe0_4 Ga0_5 2.512962 1_555
Fe0_4 Ga0_3 2.512962 1_545
Fe0_4 Fe0_6 2.604377 1_545
Fe0_4 Fe0_6 2.604377 1_555
Fe0_4 V1_0 2.827600 1_555
Fe0_4 V1_6 2.827600 1_545
Fe0_4 Ga0_1 2.854734 1_555
Fe0_4 Ga0_7 2.854734 1_545
Fe0_5 V1_5 2.482094 1_555
Fe0_5 V1_3 2.482094 1_545
Fe0_5 Ga0_4 2.512962 1_556
Fe0_5 Ga0_2 2.512962 1_546
Fe0_5 Fe0_7 2.604377 1_555
Fe0_5 Fe0_7 2.604377 1_545
Fe0_5 V1_1 2.827600 1_555
Fe0_5 V1_7 2.827600 1_545
Fe0_5 Ga0_0 2.854734 1_556
Fe0_5 Ga0_6 2.854734 1_546
Fe0_6 V1_6 2.482094 1_555
Fe0_6 V1_0 2.482094 1_555
Fe0_6 Ga0_1 2.512962 1_555
Fe0_6 Ga0_7 2.512962 1_555
Fe0_6 V1_2 2.827600 1_555
Fe0_6 V1_4 2.827600 1_555
Fe0_6 Ga0_5 2.854734 1_555
Fe0_6 Ga0_3 2.854734 1_555
Fe0_7 V1_1 2.482094 1_555
Fe0_7 V1_7 2.482094 1_555
Fe0_7 Ga0_0 2.512962 1_556
Fe0_7 Ga0_6 2.512962 1_556
Fe0_7 V1_5 2.827600 1_555
Fe0_7 V1_3 2.827600 1_555
Fe0_7 Ga0_4 2.854734 1_556
Fe0_7 Ga0_2 2.854734 1_556
