# generated using pymatgen
data_MgZn2
_symmetry_space_group_name_H-M   'P 1'
_cell_length_a   15.49702960
_cell_length_b   15.49702960
_cell_length_c   9.23292600
_cell_angle_alpha   90.00000000
_cell_angle_beta   90.00000000
_cell_angle_gamma   157.89524418
_symmetry_Int_Tables_number   1
_chemical_formula_structural   MgZn2
_chemical_formula_sum   'Mg16 Zn32'
_cell_volume   834.39529514
_cell_formula_units_Z   16
loop_
 _symmetry_equiv_pos_site_id
 _symmetry_equiv_pos_as_xyz
  1  'x, y, z'
loop_
 _atom_site_type_symbol
 _atom_site_label
 _atom_site_symmetry_multiplicity
 _atom_site_fract_x
 _atom_site_fract_y
 _atom_site_fract_z
 _atom_site_occupancy
  Mg  Mg0_0  1  0.05238700  0.44761300  0.25000000  1
  Mg  Mg0_1  1  0.05238700  0.44761300  0.75000000  1
  Mg  Mg0_2  1  0.05238700  0.94761300  0.25000000  1
  Mg  Mg0_3  1  0.05238700  0.94761300  0.75000000  1
  Mg  Mg0_4  1  0.55238700  0.44761300  0.25000000  1
  Mg  Mg0_5  1  0.55238700  0.44761300  0.75000000  1
  Mg  Mg0_6  1  0.55238700  0.94761300  0.25000000  1
  Mg  Mg0_7  1  0.55238700  0.94761300  0.75000000  1
  Mg  Mg1_0  1  0.39206800  0.10793200  0.25000000  1
  Mg  Mg1_1  1  0.39206800  0.10793200  0.75000000  1
  Mg  Mg1_2  1  0.39206800  0.60793200  0.25000000  1
  Mg  Mg1_3  1  0.39206800  0.60793200  0.75000000  1
  Mg  Mg1_4  1  0.89206800  0.10793200  0.25000000  1
  Mg  Mg1_5  1  0.89206800  0.10793200  0.75000000  1
  Mg  Mg1_6  1  0.89206800  0.60793200  0.25000000  1
  Mg  Mg1_7  1  0.89206800  0.60793200  0.75000000  1
  Zn  Zn0_0  1  0.49696300  0.00303700  0.00000000  1
  Zn  Zn0_1  1  0.49696300  0.00303700  0.50000000  1
  Zn  Zn0_2  1  0.49696300  0.50303700  0.00000000  1
  Zn  Zn0_3  1  0.49696300  0.50303700  0.50000000  1
  Zn  Zn0_4  1  0.99696300  0.00303700  0.00000000  1
  Zn  Zn0_5  1  0.99696300  0.00303700  0.50000000  1
  Zn  Zn0_6  1  0.99696300  0.50303700  0.00000000  1
  Zn  Zn0_7  1  0.99696300  0.50303700  0.50000000  1
  Zn  Zn1_0  1  0.16969550  0.33030450  0.00000000  1
  Zn  Zn1_1  1  0.16969550  0.33030450  0.50000000  1
  Zn  Zn1_2  1  0.16969550  0.83030450  0.00000000  1
  Zn  Zn1_3  1  0.16969550  0.83030450  0.50000000  1
  Zn  Zn1_4  1  0.66969550  0.33030450  0.00000000  1
  Zn  Zn1_5  1  0.66969550  0.33030450  0.50000000  1
  Zn  Zn1_6  1  0.66969550  0.83030450  0.00000000  1
  Zn  Zn1_7  1  0.66969550  0.83030450  0.50000000  1
  Zn  Zn2_0  1  0.33381750  0.16618250  0.00000000  1
  Zn  Zn2_1  1  0.33381750  0.16618250  0.50000000  1
  Zn  Zn2_2  1  0.33381750  0.66618250  0.00000000  1
  Zn  Zn2_3  1  0.33381750  0.66618250  0.50000000  1
  Zn  Zn2_4  1  0.83381750  0.16618250  0.00000000  1
  Zn  Zn2_5  1  0.83381750  0.16618250  0.50000000  1
  Zn  Zn2_6  1  0.83381750  0.66618250  0.00000000  1
  Zn  Zn2_7  1  0.83381750  0.66618250  0.50000000  1
  Zn  Zn3_0  1  0.22173500  0.27826500  0.25000000  1
  Zn  Zn3_1  1  0.22173500  0.27826500  0.75000000  1
  Zn  Zn3_2  1  0.22173500  0.77826500  0.25000000  1
  Zn  Zn3_3  1  0.22173500  0.77826500  0.75000000  1
  Zn  Zn3_4  1  0.72173500  0.27826500  0.25000000  1
  Zn  Zn3_5  1  0.72173500  0.27826500  0.75000000  1
  Zn  Zn3_6  1  0.72173500  0.77826500  0.25000000  1
  Zn  Zn3_7  1  0.72173500  0.77826500  0.75000000  1
loop_
_geom_bond_atom_site_label_1
_geom_bond_atom_site_label_2
_geom_bond_distance
_geom_bond_site_symmetry_2
Mg0_0 Zn0_6 2.858386 1_455
Mg0_0 Zn0_7 2.858386 1_455
Mg0_0 Zn3_2 2.868021 1_555
Mg0_0 Zn3_4 2.868021 1_455
Mg0_0 Zn2_5 2.906642 1_455
Mg0_0 Zn2_4 2.906642 1_455
Mg0_0 Zn2_2 2.906642 1_555
Mg0_0 Zn2_3 2.906642 1_555
Mg0_1 Zn0_6 2.858386 1_456
Mg0_1 Zn0_7 2.858386 1_455
Mg0_1 Zn3_5 2.868021 1_455
Mg0_1 Zn3_3 2.868021 1_555
Mg0_1 Zn2_4 2.906642 1_456
Mg0_1 Zn2_2 2.906642 1_556
Mg0_1 Zn2_3 2.906642 1_555
Mg0_1 Zn2_5 2.906642 1_455
Mg0_2 Zn0_4 2.858386 1_465
Mg0_2 Zn0_5 2.858386 1_465
Mg0_2 Zn3_6 2.868021 1_455
Mg0_2 Zn3_0 2.868021 1_565
Mg0_2 Zn2_1 2.906642 1_565
Mg0_2 Zn2_0 2.906642 1_565
Mg0_2 Zn2_6 2.906642 1_455
Mg0_2 Zn2_7 2.906642 1_455
Mg0_3 Zn0_4 2.858386 1_466
Mg0_3 Zn0_5 2.858386 1_465
Mg0_3 Zn3_7 2.868021 1_455
Mg0_3 Zn3_1 2.868021 1_565
Mg0_3 Zn2_0 2.906642 1_566
Mg0_3 Zn2_6 2.906642 1_456
Mg0_3 Zn2_1 2.906642 1_565
Mg0_3 Zn2_7 2.906642 1_455
Mg0_4 Zn0_2 2.858386 1_555
Mg0_4 Zn0_3 2.858386 1_555
Mg0_4 Zn3_6 2.868021 1_555
Mg0_4 Zn3_0 2.868021 1_555
Mg0_4 Zn2_0 2.906642 1_555
Mg0_4 Zn2_1 2.906642 1_555
Mg0_4 Zn2_7 2.906642 1_555
Mg0_4 Zn2_6 2.906642 1_555
Mg0_5 Zn0_2 2.858386 1_556
Mg0_5 Zn0_3 2.858386 1_555
Mg0_5 Zn3_7 2.868021 1_555
Mg0_5 Zn3_1 2.868021 1_555
Mg0_5 Zn2_0 2.906642 1_556
Mg0_5 Zn2_6 2.906642 1_556
Mg0_5 Zn2_1 2.906642 1_555
Mg0_5 Zn2_7 2.906642 1_555
Mg0_6 Zn0_1 2.858386 1_565
Mg0_6 Zn0_0 2.858386 1_565
Mg0_6 Zn3_2 2.868021 1_555
Mg0_6 Zn3_4 2.868021 1_565
Mg0_6 Zn2_4 2.906642 1_565
Mg0_6 Zn2_5 2.906642 1_565
Mg0_6 Zn2_3 2.906642 1_555
Mg0_6 Zn2_2 2.906642 1_555
Mg0_7 Zn0_0 2.858386 1_566
Mg0_7 Zn0_1 2.858386 1_565
Mg0_7 Zn3_3 2.868021 1_555
Mg0_7 Zn3_5 2.868021 1_565
Mg0_7 Zn2_4 2.906642 1_566
Mg0_7 Zn2_2 2.906642 1_556
Mg0_7 Zn2_5 2.906642 1_565
Mg0_7 Zn2_3 2.906642 1_555
Mg1_0 Zn3_2 2.842433 1_545
Mg1_0 Zn3_4 2.842433 1_555
Mg1_0 Zn1_4 2.870670 1_555
Mg1_0 Zn1_5 2.870670 1_555
Mg1_0 Zn1_2 2.870670 1_545
Mg1_0 Zn1_3 2.870670 1_545
Mg1_0 Zn2_0 2.909928 1_555
Mg1_0 Zn2_1 2.909928 1_555
Mg1_1 Zn3_3 2.842433 1_545
Mg1_1 Zn3_5 2.842433 1_555
Mg1_1 Zn1_4 2.870670 1_556
Mg1_1 Zn1_2 2.870670 1_546
Mg1_1 Zn1_5 2.870670 1_555
Mg1_1 Zn1_3 2.870670 1_545
Mg1_1 Zn2_0 2.909928 1_556
Mg1_1 Zn2_1 2.909928 1_555
Mg1_2 Zn3_0 2.842433 1_555
Mg1_2 Zn3_6 2.842433 1_555
Mg1_2 Zn1_0 2.870670 1_555
Mg1_2 Zn1_1 2.870670 1_555
Mg1_2 Zn1_7 2.870670 1_555
Mg1_2 Zn1_6 2.870670 1_555
Mg1_2 Zn2_2 2.909928 1_555
Mg1_2 Zn2_3 2.909928 1_555
Mg1_3 Zn3_1 2.842433 1_555
Mg1_3 Zn3_7 2.842433 1_555
Mg1_3 Zn1_0 2.870670 1_556
Mg1_3 Zn1_6 2.870670 1_556
Mg1_3 Zn1_1 2.870670 1_555
Mg1_3 Zn1_7 2.870670 1_555
Mg1_3 Zn2_2 2.909928 1_556
Mg1_3 Zn2_3 2.909928 1_555
Mg1_4 Zn3_0 2.842433 1_655
Mg1_4 Zn3_6 2.842433 1_545
Mg1_4 Zn1_6 2.870670 1_545
Mg1_4 Zn1_7 2.870670 1_545
Mg1_4 Zn1_0 2.870670 1_655
Mg1_4 Zn1_1 2.870670 1_655
Mg1_4 Zn2_5 2.909928 1_555
Mg1_4 Zn2_4 2.909928 1_555
Mg1_5 Zn3_1 2.842433 1_655
Mg1_5 Zn3_7 2.842433 1_545
Mg1_5 Zn1_6 2.870670 1_546
Mg1_5 Zn1_0 2.870670 1_656
Mg1_5 Zn1_7 2.870670 1_545
Mg1_5 Zn1_1 2.870670 1_655
Mg1_5 Zn2_4 2.909928 1_556
Mg1_5 Zn2_5 2.909928 1_555
Mg1_6 Zn3_2 2.842433 1_655
Mg1_6 Zn3_4 2.842433 1_555
Mg1_6 Zn1_2 2.870670 1_655
Mg1_6 Zn1_3 2.870670 1_655
Mg1_6 Zn1_4 2.870670 1_555
Mg1_6 Zn1_5 2.870670 1_555
Mg1_6 Zn2_7 2.909928 1_555
Mg1_6 Zn2_6 2.909928 1_555
Mg1_7 Zn3_3 2.842433 1_655
Mg1_7 Zn3_5 2.842433 1_555
Mg1_7 Zn1_2 2.870670 1_656
Mg1_7 Zn1_4 2.870670 1_556
Mg1_7 Zn1_3 2.870670 1_655
Mg1_7 Zn1_5 2.870670 1_555
Mg1_7 Zn2_6 2.909928 1_556
Mg1_7 Zn2_7 2.909928 1_555
Zn0_0 Zn1_2 2.780464 1_545
Zn0_0 Zn1_4 2.780464 1_555
Zn0_0 Zn3_3 2.850156 1_544
Zn0_0 Zn3_5 2.850156 1_554
Zn0_0 Zn3_2 2.850156 1_545
Zn0_0 Zn3_4 2.850156 1_555
Zn0_0 Zn0_6 2.970878 1_445
Zn0_0 Zn0_6 2.970878 1_555
Zn0_0 Zn2_4 3.030994 1_555
Zn0_0 Zn2_2 3.030994 1_545
Zn0_1 Zn1_3 2.780464 1_545
Zn0_1 Zn1_5 2.780464 1_555
Zn0_1 Zn3_2 2.850156 1_545
Zn0_1 Zn3_3 2.850156 1_545
Zn0_1 Zn3_4 2.850156 1_555
Zn0_1 Zn3_5 2.850156 1_555
Zn0_1 Zn0_7 2.970878 1_445
Zn0_1 Zn0_7 2.970878 1_555
Zn0_1 Zn2_3 3.030994 1_545
Zn0_1 Zn2_5 3.030994 1_555
Zn0_2 Zn1_0 2.780464 1_555
Zn0_2 Zn1_6 2.780464 1_555
Zn0_2 Zn3_1 2.850156 1_554
Zn0_2 Zn3_7 2.850156 1_554
Zn0_2 Zn3_0 2.850156 1_555
Zn0_2 Zn3_6 2.850156 1_555
Zn0_2 Zn0_4 2.970878 1_565
Zn0_2 Zn0_4 2.970878 1_455
Zn0_2 Zn2_0 3.030994 1_555
Zn0_2 Zn2_6 3.030994 1_555
Zn0_3 Zn1_1 2.780464 1_555
Zn0_3 Zn1_7 2.780464 1_555
Zn0_3 Zn3_0 2.850156 1_555
Zn0_3 Zn3_6 2.850156 1_555
Zn0_3 Zn3_7 2.850156 1_555
Zn0_3 Zn3_1 2.850156 1_555
Zn0_3 Zn0_5 2.970878 1_455
Zn0_3 Zn0_5 2.970878 1_565
Zn0_3 Zn2_1 3.030994 1_555
Zn0_3 Zn2_7 3.030994 1_555
Zn0_4 Zn1_6 2.780464 1_545
Zn0_4 Zn1_0 2.780464 1_655
Zn0_4 Zn3_7 2.850156 1_544
Zn0_4 Zn3_1 2.850156 1_654
Zn0_4 Zn3_6 2.850156 1_545
Zn0_4 Zn3_0 2.850156 1_655
Zn0_4 Zn2_0 3.030994 1_655
Zn0_4 Zn2_6 3.030994 1_545
Zn0_5 Zn1_7 2.780464 1_545
Zn0_5 Zn1_1 2.780464 1_655
Zn0_5 Zn3_6 2.850156 1_545
Zn0_5 Zn3_0 2.850156 1_655
Zn0_5 Zn3_7 2.850156 1_545
Zn0_5 Zn3_1 2.850156 1_655
Zn0_5 Zn2_1 3.030994 1_655
Zn0_5 Zn2_7 3.030994 1_545
Zn0_6 Zn1_2 2.780464 1_655
Zn0_6 Zn1_4 2.780464 1_555
Zn0_6 Zn3_5 2.850156 1_554
Zn0_6 Zn3_3 2.850156 1_654
Zn0_6 Zn3_2 2.850156 1_655
Zn0_6 Zn3_4 2.850156 1_555
Zn0_6 Zn2_2 3.030994 1_655
Zn0_6 Zn2_4 3.030994 1_555
Zn0_7 Zn1_3 2.780464 1_655
Zn0_7 Zn1_5 2.780464 1_555
Zn0_7 Zn3_2 2.850156 1_655
Zn0_7 Zn3_4 2.850156 1_555
Zn0_7 Zn3_5 2.850156 1_555
Zn0_7 Zn3_3 2.850156 1_655
Zn0_7 Zn2_5 3.030994 1_555
Zn0_7 Zn2_3 3.030994 1_655
Zn1_0 Zn3_1 2.798896 1_554
Zn1_0 Zn3_0 2.798896 1_555
Zn1_0 Zn1_6 2.970878 1_445
Zn1_0 Zn1_6 2.970878 1_555
Zn1_0 Zn2_2 3.005137 1_555
Zn1_0 Zn2_4 3.005137 1_455
Zn1_1 Zn3_0 2.798896 1_555
Zn1_1 Zn3_1 2.798896 1_555
Zn1_1 Zn1_7 2.970878 1_445
Zn1_1 Zn1_7 2.970878 1_555
Zn1_1 Zn2_3 3.005137 1_555
Zn1_1 Zn2_5 3.005137 1_455
Zn1_2 Zn3_3 2.798896 1_554
Zn1_2 Zn3_2 2.798896 1_555
Zn1_2 Zn1_4 2.970878 1_455
Zn1_2 Zn1_4 2.970878 1_565
Zn1_2 Zn2_6 3.005137 1_455
Zn1_2 Zn2_0 3.005137 1_565
Zn1_3 Zn3_2 2.798896 1_555
Zn1_3 Zn3_3 2.798896 1_555
Zn1_3 Zn1_5 2.970878 1_455
Zn1_3 Zn1_5 2.970878 1_565
Zn1_3 Zn2_7 3.005137 1_455
Zn1_3 Zn2_1 3.005137 1_565
Zn1_4 Zn3_5 2.798896 1_554
Zn1_4 Zn3_4 2.798896 1_555
Zn1_4 Zn2_6 3.005137 1_555
Zn1_4 Zn2_0 3.005137 1_555
Zn1_5 Zn3_4 2.798896 1_555
Zn1_5 Zn3_5 2.798896 1_555
Zn1_5 Zn2_7 3.005137 1_555
Zn1_5 Zn2_1 3.005137 1_555
Zn1_6 Zn3_7 2.798896 1_554
Zn1_6 Zn3_6 2.798896 1_555
Zn1_6 Zn2_4 3.005137 1_565
Zn1_6 Zn2_2 3.005137 1_555
Zn1_7 Zn3_6 2.798896 1_555
Zn1_7 Zn3_7 2.798896 1_555
Zn1_7 Zn2_5 3.005137 1_565
Zn1_7 Zn2_3 3.005137 1_555
Zn2_0 Zn2_6 2.970878 1_445
Zn2_0 Zn2_6 2.970878 1_555
Zn2_1 Zn2_7 2.970878 1_445
Zn2_1 Zn2_7 2.970878 1_555
Zn2_2 Zn2_4 2.970878 1_565
Zn2_2 Zn2_4 2.970878 1_455
Zn2_3 Zn2_5 2.970878 1_565
Zn2_3 Zn2_5 2.970878 1_455
Zn3_0 Zn3_6 2.970878 1_555
Zn3_0 Zn3_6 2.970878 1_445
Zn3_1 Zn3_7 2.970878 1_555
Zn3_1 Zn3_7 2.970878 1_445
Zn3_2 Zn3_4 2.970878 1_455
Zn3_2 Zn3_4 2.970878 1_565
Zn3_3 Zn3_5 2.970878 1_455
Zn3_3 Zn3_5 2.970878 1_565
