# generated using pymatgen
data_Nb6Cr7
_symmetry_space_group_name_H-M   'P 1'
_cell_length_a   4.91691594
_cell_length_b   4.91691478
_cell_length_c   9.67173019
_cell_angle_alpha   75.27440116
_cell_angle_beta   75.27439790
_cell_angle_gamma   59.99999801
_symmetry_Int_Tables_number   1
_chemical_formula_structural   Nb6Cr7
_chemical_formula_sum   'Nb6 Cr7'
_cell_volume   193.57875124
_cell_formula_units_Z   1
loop_
 _symmetry_equiv_pos_site_id
 _symmetry_equiv_pos_as_xyz
  1  'x, y, z'
loop_
 _atom_site_type_symbol
 _atom_site_label
 _atom_site_symmetry_multiplicity
 _atom_site_fract_x
 _atom_site_fract_y
 _atom_site_fract_z
 _atom_site_occupancy
  Nb  Nb0  1  0.83261700  0.83261700  0.50214800  1
  Nb  Nb1  1  0.16738300  0.16738300  0.49785200  1
  Nb  Nb2  1  0.64939600  0.64939600  0.05181300  1
  Nb  Nb3  1  0.35060400  0.35060400  0.94818700  1
  Nb  Nb4  1  0.54742700  0.54742700  0.35771900  1
  Nb  Nb5  1  0.45257300  0.45257300  0.64228100  1
  Cr  Cr0  1  0.00000000  0.00000000  0.00000000  1
  Cr  Cr1  1  0.90510800  0.40992600  0.77985800  1
  Cr  Cr2  1  0.40992600  0.90510800  0.77985800  1
  Cr  Cr3  1  0.90510800  0.90510800  0.77985800  1
  Cr  Cr4  1  0.09489200  0.59007400  0.22014200  1
  Cr  Cr5  1  0.59007400  0.09489200  0.22014200  1
  Cr  Cr6  1  0.09489200  0.09489200  0.22014200  1
loop_
_geom_bond_atom_site_label_1
_geom_bond_atom_site_label_2
_geom_bond_distance
_geom_bond_site_symmetry_2
Nb0 Nb1 2.839057 1_655
Nb0 Nb1 2.839058 1_565
Nb0 Nb1 2.839066 1_665
Nb0 Nb5 3.120470 1_555
Nb0 Nb5 3.120474 1_565
Nb0 Nb5 3.120474 1_655
Nb0 Nb4 3.137170 1_555
Nb0 Nb4 3.137174 1_565
Nb0 Nb4 3.137174 1_655
Nb1 Nb4 3.120470 1_555
Nb1 Nb4 3.120474 1_545
Nb1 Nb4 3.120474 1_455
Nb1 Nb5 3.137170 1_555
Nb1 Nb5 3.137174 1_545
Nb1 Nb5 3.137174 1_455
Nb2 Nb4 2.828327 1_555
Nb2 Nb3 2.996101 1_564
Nb2 Nb3 2.996101 1_654
Nb2 Nb3 2.996109 1_554
Nb3 Nb5 2.828327 1_555
Nb4 Nb5 2.630986 1_555
Cr0 Cr4 2.489264 1_545
Cr0 Cr1 2.489264 1_454
Cr0 Cr5 2.489265 1_455
Cr0 Cr2 2.489265 1_544
Cr0 Cr6 2.489265 1_555
Cr0 Cr3 2.489265 1_444
Cr0 Nb3 2.878916 1_554
Cr0 Nb2 2.878916 1_445
Cr0 Nb2 2.878920 1_455
Cr0 Nb3 2.878920 1_544
Cr0 Nb2 2.878921 1_545
Cr0 Nb3 2.878921 1_454
Cr1 Cr3 2.434768 1_555
Cr1 Cr2 2.434768 1_555
Cr1 Cr3 2.482147 1_545
Cr1 Cr2 2.482147 1_645
Cr1 Nb5 2.768066 1_655
Cr1 Nb5 2.768066 1_555
Cr1 Nb2 2.880689 1_556
Cr1 Nb3 2.909698 1_655
Cr1 Nb3 2.909702 1_555
Cr1 Nb0 2.927246 1_555
Cr1 Nb1 2.975227 1_655
Cr2 Cr3 2.434768 1_555
Cr2 Cr3 2.482148 1_455
Cr2 Nb5 2.768065 1_565
Cr2 Nb5 2.768065 1_555
Cr2 Nb2 2.880689 1_556
Cr2 Nb3 2.909697 1_565
Cr2 Nb3 2.909701 1_555
Cr2 Nb0 2.927246 1_555
Cr2 Nb1 2.975227 1_565
Cr3 Nb5 2.768066 1_655
Cr3 Nb5 2.768066 1_565
Cr3 Nb2 2.880687 1_556
Cr3 Nb3 2.909699 1_565
Cr3 Nb3 2.909700 1_655
Cr3 Nb0 2.927249 1_555
Cr3 Nb1 2.975229 1_665
Cr4 Cr6 2.434768 1_555
Cr4 Cr5 2.434768 1_555
Cr4 Cr6 2.482147 1_565
Cr4 Cr5 2.482147 1_465
Cr4 Nb4 2.768066 1_455
Cr4 Nb4 2.768066 1_555
Cr4 Nb3 2.880689 1_554
Cr4 Nb2 2.909698 1_455
Cr4 Nb2 2.909702 1_555
Cr4 Nb1 2.927246 1_555
Cr4 Nb0 2.975227 1_455
Cr5 Cr6 2.434768 1_555
Cr5 Cr6 2.482148 1_655
Cr5 Nb4 2.768065 1_545
Cr5 Nb4 2.768065 1_555
Cr5 Nb3 2.880689 1_554
Cr5 Nb2 2.909697 1_545
Cr5 Nb2 2.909701 1_555
Cr5 Nb1 2.927246 1_555
Cr5 Nb0 2.975227 1_545
Cr6 Nb4 2.768066 1_455
Cr6 Nb4 2.768066 1_545
Cr6 Nb3 2.880687 1_554
Cr6 Nb2 2.909699 1_545
Cr6 Nb2 2.909700 1_455
Cr6 Nb1 2.927249 1_555
Cr6 Nb0 2.975229 1_445
