# generated using pymatgen
data_La6S3(OF4)2
_symmetry_space_group_name_H-M   'P 1'
_cell_length_a   3.97113800
_cell_length_b   13.80195500
_cell_length_c   13.90137573
_cell_angle_alpha   60.25209381
_cell_angle_beta   90.00000000
_cell_angle_gamma   90.00000000
_symmetry_Int_Tables_number   1
_chemical_formula_structural   La6S3(OF4)2
_chemical_formula_sum   'La12 S6 O4 F16'
_cell_volume   661.51794087
_cell_formula_units_Z   2
loop_
 _symmetry_equiv_pos_site_id
 _symmetry_equiv_pos_as_xyz
  1  'x, y, z'
loop_
 _atom_site_type_symbol
 _atom_site_label
 _atom_site_symmetry_multiplicity
 _atom_site_fract_x
 _atom_site_fract_y
 _atom_site_fract_z
 _atom_site_occupancy
  La  La0  1  0.00000000  0.72015900  0.22648100  1
  La  La1  1  0.00000000  0.22542500  0.05481500  1
  La  La2  1  0.00000000  0.04957100  0.71272700  1
  La  La3  1  0.50000000  0.28901900  0.76185400  1
  La  La4  1  0.50000000  0.76203500  0.94720700  1
  La  La5  1  0.50000000  0.94537700  0.29306300  1
  La  La6  1  0.00000000  0.47343400  0.13826500  1
  La  La7  1  0.00000000  0.12994500  0.39682500  1
  La  La8  1  0.00000000  0.38615400  0.47619900  1
  La  La9  1  0.50000000  0.53743700  0.86121300  1
  La  La10  1  0.50000000  0.87344600  0.60162800  1
  La  La11  1  0.50000000  0.60455000  0.53673400  1
  S  S0  1  0.00000000  0.80318700  0.47004600  1
  S  S1  1  0.00000000  0.47363600  0.72150900  1
  S  S2  1  0.00000000  0.71715000  0.81121500  1
  S  S3  1  0.50000000  0.19201900  0.53133400  1
  S  S4  1  0.50000000  0.53375300  0.28040400  1
  S  S5  1  0.50000000  0.28263600  0.18267400  1
  O  O0  1  0.00000000  0.97942900  0.58700200  1
  O  O1  1  0.50000000  0.41790800  0.56474900  1
  O  O2  1  0.50000000  0.56305800  0.02055900  1
  O  O3  1  0.50000000  0.02050100  0.41178800  1
  F  F0  1  0.00000000  0.90455000  0.20080300  1
  F  F1  1  0.00000000  0.20318000  0.89315900  1
  F  F2  1  0.00000000  0.89084600  0.90500700  1
  F  F3  1  0.50000000  0.09678100  0.79729200  1
  F  F4  1  0.50000000  0.80054200  0.10474900  1
  F  F5  1  0.50000000  0.10350800  0.09560900  1
  F  F6  1  0.00000000  0.68132900  0.07248300  1
  F  F7  1  0.00000000  0.07040600  0.24681000  1
  F  F8  1  0.00000000  0.24801700  0.68117600  1
  F  F9  1  0.50000000  0.32269800  0.92851100  1
  F  F10  1  0.50000000  0.92588200  0.75414000  1
  F  F11  1  0.50000000  0.74691500  0.32178200  1
  F  F12  1  0.00000000  0.33350100  0.33328800  1
  F  F13  1  0.50000000  0.66932300  0.66690700  1
  F  F14  1  0.00000000  0.58847500  0.43420200  1
  F  F15  1  0.00000000  0.43421900  0.97579300  1
loop_
_geom_bond_atom_site_label_1
_geom_bond_atom_site_label_2
_geom_bond_distance
_geom_bond_site_symmetry_2
La0 S4 3.034746 1_555
La0 S4 3.034746 1_455
La1 S5 3.019599 1_455
La1 S5 3.019599 1_555
La2 O0 2.381370 1_545
La2 S3 3.040821 1_455
La2 S3 3.040821 1_555
La3 O1 2.415620 1_555
La3 S1 3.054757 1_655
La3 S1 3.054757 1_555
La4 O2 2.408899 1_556
La4 S2 3.010379 1_555
La4 S2 3.010379 1_655
La5 O3 2.344620 1_565
La5 S0 3.009234 1_655
La5 S0 3.009234 1_555
La6 O2 2.478187 1_455
La6 O2 2.478187 1_555
La6 S5 3.105642 1_455
La6 S5 3.105642 1_555
La6 S4 3.189406 1_455
La6 S4 3.189406 1_555
La7 O0 2.419653 1_545
La7 O3 2.440426 1_455
La7 O3 2.440426 1_555
La7 S3 3.124521 1_455
La7 S3 3.124521 1_555
La7 S5 3.319685 1_455
La7 S5 3.319685 1_555
La8 O1 2.487010 1_455
La8 O1 2.487010 1_555
La8 S3 3.109880 1_455
La8 S3 3.109880 1_555
La8 S4 3.162013 1_455
La8 S4 3.162013 1_555
La9 O2 2.410224 1_556
La9 S2 2.977765 1_555
La9 S2 2.977765 1_655
La9 S1 3.191657 1_555
La9 S1 3.191657 1_655
La10 O3 2.401779 1_565
La10 O0 2.414205 1_655
La10 O0 2.414205 1_555
La10 S0 3.160526 1_655
La10 S0 3.160526 1_555
La10 S2 3.293569 1_555
La10 S2 3.293569 1_655
La11 O1 2.406658 1_555
La11 S1 3.033042 1_555
La11 S1 3.033042 1_655
La11 S0 3.129851 1_655
La11 S0 3.129851 1_555
F0 La0 2.388034 1_555
F0 La5 2.573345 1_555
F0 La5 2.573345 1_455
F1 La1 2.414342 1_556
F1 La3 2.555751 1_555
F1 La3 2.555751 1_455
F2 La2 2.476474 1_565
F2 La4 2.532265 1_555
F2 La4 2.532265 1_455
F3 La3 2.446500 1_555
F3 La2 2.551306 1_655
F3 La2 2.551306 1_555
F4 La0 2.484736 1_655
F4 La0 2.484736 1_555
F4 La4 2.496768 1_554
F5 La1 2.479631 1_555
F5 La1 2.479631 1_655
F5 La5 2.520460 1_545
F6 La0 2.451272 1_555
F6 La4 2.508196 1_454
F6 La4 2.508196 1_554
F6 La6 2.542746 1_555
F7 La1 2.456493 1_555
F7 La5 2.496531 1_545
F7 La5 2.496531 1_445
F7 La7 2.593233 1_555
F8 La3 2.480004 1_555
F8 La3 2.480004 1_455
F8 La8 2.522536 1_555
F8 La2 2.549910 1_555
F9 La1 2.547254 1_656
F9 La1 2.547254 1_556
F9 La3 2.579177 1_555
F9 La9 2.628278 1_555
F10 La2 2.492583 1_565
F10 La2 2.492583 1_665
F10 La4 2.508824 1_555
F10 La10 2.557611 1_555
F11 La0 2.513860 1_655
F11 La0 2.513860 1_555
F11 La5 2.564602 1_555
F11 La11 2.638785 1_555
F12 La6 2.425696 1_555
F12 La8 2.430565 1_555
F12 La7 2.492132 1_555
F13 La11 2.383114 1_555
F13 La9 2.393783 1_555
F13 La10 2.494706 1_555
F14 La11 2.517362 1_455
F14 La11 2.517362 1_555
F14 La0 2.536415 1_555
F14 La8 2.553558 1_555
F15 La9 2.501448 1_455
F15 La9 2.501448 1_555
F15 La1 2.523846 1_556
F15 La6 2.570460 1_556
