# generated using pymatgen
data_Er3Pt
_symmetry_space_group_name_H-M   'P 1'
_cell_length_a   6.39339734
_cell_length_b   6.96291519
_cell_length_c   9.50402683
_cell_angle_alpha   89.99745888
_cell_angle_beta   90.00670116
_cell_angle_gamma   90.00005385
_symmetry_Int_Tables_number   1
_chemical_formula_structural   Er3Pt
_chemical_formula_sum   'Er12 Pt4'
_cell_volume   423.08775073
_cell_formula_units_Z   4
loop_
 _symmetry_equiv_pos_site_id
 _symmetry_equiv_pos_as_xyz
  1  'x, y, z'
loop_
 _atom_site_type_symbol
 _atom_site_label
 _atom_site_symmetry_multiplicity
 _atom_site_fract_x
 _atom_site_fract_y
 _atom_site_fract_z
 _atom_site_occupancy
  Er  Er0  1  0.31861201  0.67635374  0.06198712  1
  Er  Er1  1  0.18137562  0.17641022  0.43806670  1
  Er  Er2  1  0.68140120  0.32358128  0.56192621  1
  Er  Er3  1  0.81859787  0.82363418  0.93800216  1
  Er  Er4  1  0.68138080  0.32361575  0.93799820  1
  Er  Er5  1  0.81860718  0.82362919  0.56194897  1
  Er  Er6  1  0.31859850  0.67638654  0.43808888  1
  Er  Er7  1  0.18137620  0.17639883  0.06198305  1
  Er  Er8  1  0.86820244  0.52713372  0.24998393  1
  Er  Er9  1  0.63185225  0.02722443  0.24998982  1
  Er  Er10  1  0.13182949  0.47279418  0.75001546  1
  Er  Er11  1  0.36818136  0.97283592  0.75001007  1
  Pt  Pt0  1  0.04919150  0.88635328  0.25001344  1
  Pt  Pt1  1  0.45080815  0.38637037  0.25006495  1
  Pt  Pt2  1  0.95075411  0.11363560  0.74998740  1
  Pt  Pt3  1  0.54922933  0.61364177  0.74993265  1
loop_
_geom_bond_atom_site_label_1
_geom_bond_atom_site_label_2
_geom_bond_distance
_geom_bond_site_symmetry_2
Er0 Pt1 2.825897 1_555
Er0 Pt0 2.880878 1_555
Er1 Pt0 2.826204 1_545
Er1 Pt1 2.880557 1_555
Er2 Pt3 2.826043 1_555
Er2 Pt2 2.880304 1_555
Er3 Pt2 2.825655 1_565
Er3 Pt3 2.880657 1_555
Er4 Pt3 2.825950 1_555
Er4 Pt2 2.880537 1_555
Er5 Pt2 2.825793 1_565
Er5 Pt3 2.880338 1_555
Er6 Pt1 2.826000 1_555
Er6 Pt0 2.880669 1_555
Er7 Pt0 2.826023 1_545
Er7 Pt1 2.880898 1_555
Er8 Pt0 2.755909 1_655
Er8 Pt1 2.842867 1_555
Er9 Pt1 2.755594 1_555
Er9 Pt0 2.842797 1_645
Er10 Pt2 2.755755 1_455
Er10 Pt3 2.843102 1_555
Er11 Pt3 2.755909 1_555
Er11 Pt2 2.843153 1_465
