# generated using pymatgen
data_RbAg3S2
_symmetry_space_group_name_H-M   'P 1'
_cell_length_a   8.39688428
_cell_length_b   8.39688428
_cell_length_c   8.97511837
_cell_angle_alpha   66.15225315
_cell_angle_beta   66.15225315
_cell_angle_gamma   29.98282636
_symmetry_Int_Tables_number   1
_chemical_formula_structural   RbAg3S2
_chemical_formula_sum   'Rb2 Ag6 S4'
_cell_volume   287.20948222
_cell_formula_units_Z   2
loop_
 _symmetry_equiv_pos_site_id
 _symmetry_equiv_pos_as_xyz
  1  'x, y, z'
loop_
 _atom_site_type_symbol
 _atom_site_label
 _atom_site_symmetry_multiplicity
 _atom_site_fract_x
 _atom_site_fract_y
 _atom_site_fract_z
 _atom_site_occupancy
  Rb  Rb0  1  0.13453600  0.13453600  0.95548700  1
  Rb  Rb1  1  0.86546400  0.86546400  0.04451300  1
  Ag  Ag0  1  0.59838600  0.59838600  0.34637200  1
  Ag  Ag1  1  0.40161400  0.40161400  0.65362800  1
  Ag  Ag2  1  0.68737500  0.68737500  0.58320100  1
  Ag  Ag3  1  0.31262500  0.31262500  0.41679900  1
  Ag  Ag4  1  0.05728900  0.05728900  0.60021500  1
  Ag  Ag5  1  0.94271100  0.94271100  0.39978500  1
  S  S0  1  0.19683300  0.19683300  0.30302500  1
  S  S1  1  0.80316700  0.80316700  0.69697500  1
  S  S2  1  0.51745100  0.51745100  0.77471300  1
  S  S3  1  0.48254900  0.48254900  0.22528700  1
loop_
_geom_bond_atom_site_label_1
_geom_bond_atom_site_label_2
_geom_bond_distance
_geom_bond_site_symmetry_2
Rb0 S3 3.415059 1_546
Rb0 S3 3.415059 1_456
Rb0 S1 3.503035 1_545
Rb0 S1 3.503035 1_455
Rb0 S0 3.659158 1_556
Rb0 S2 3.679341 1_455
Rb0 S2 3.679341 1_545
Rb1 S2 3.415059 1_654
Rb1 S2 3.415059 1_564
Rb1 S0 3.503035 1_655
Rb1 S0 3.503035 1_565
Rb1 S1 3.659158 1_554
Rb1 S3 3.679341 1_655
Rb1 S3 3.679341 1_565
Ag0 S3 2.534098 1_555
Ag0 S0 2.626704 1_565
Ag0 S0 2.626704 1_655
Ag1 S2 2.534098 1_555
Ag1 S1 2.626704 1_545
Ag1 S1 2.626704 1_455
Ag2 S1 2.485308 1_555
Ag2 S2 2.566451 1_555
Ag3 S0 2.485308 1_555
Ag3 S3 2.566451 1_555
Ag4 S2 2.596347 1_455
Ag4 S2 2.596347 1_545
Ag4 S0 2.680388 1_555
Ag5 S3 2.596347 1_565
Ag5 S3 2.596347 1_655
Ag5 S1 2.680388 1_555
