# generated using pymatgen
data_In3GaN4
_symmetry_space_group_name_H-M   'P 1'
_cell_length_a   6.97146989
_cell_length_b   6.97146989
_cell_length_c   5.66810000
_cell_angle_alpha   90.00000000
_cell_angle_beta   90.00000000
_cell_angle_gamma   119.99999900
_symmetry_Int_Tables_number   1
_chemical_formula_structural   In3GaN4
_chemical_formula_sum   'In6 Ga2 N8'
_cell_volume   238.57056128
_cell_formula_units_Z   2
loop_
 _symmetry_equiv_pos_site_id
 _symmetry_equiv_pos_as_xyz
  1  'x, y, z'
loop_
 _atom_site_type_symbol
 _atom_site_label
 _atom_site_symmetry_multiplicity
 _atom_site_fract_x
 _atom_site_fract_y
 _atom_site_fract_z
 _atom_site_occupancy
  In  In0  1  0.33921900  0.16961000  0.99908000  1
  In  In1  1  0.83039000  0.66078100  0.99908000  1
  In  In2  1  0.83039000  0.16961000  0.99908000  1
  In  In3  1  0.16961000  0.83039000  0.49908000  1
  In  In4  1  0.16961000  0.33921900  0.49908000  1
  In  In5  1  0.66078100  0.83039000  0.49908000  1
  Ga  Ga0  1  0.33333300  0.66666700  0.99938400  1
  Ga  Ga1  1  0.66666700  0.33333300  0.49938400  1
  N  N0  1  0.35392000  0.17696000  0.38576900  1
  N  N1  1  0.82304000  0.64608000  0.38576900  1
  N  N2  1  0.82304000  0.17696000  0.38576900  1
  N  N3  1  0.33333300  0.66666700  0.34606900  1
  N  N4  1  0.66666700  0.33333300  0.84606900  1
  N  N5  1  0.17696000  0.82304000  0.88576900  1
  N  N6  1  0.17696000  0.35392000  0.88576900  1
  N  N7  1  0.64608000  0.82304000  0.88576900  1
loop_
_geom_bond_atom_site_label_1
_geom_bond_atom_site_label_2
_geom_bond_distance
_geom_bond_site_symmetry_2
In0 N4 2.158828 1_555
In0 N6 2.190101 1_555
In0 N5 2.190107 1_545
In0 N0 2.193588 1_556
In1 N4 2.158828 1_555
In1 N7 2.190101 1_555
In1 N5 2.190107 1_655
In1 N1 2.193588 1_556
In2 N4 2.158817 1_555
In2 N6 2.190106 1_655
In2 N7 2.190106 1_545
In2 N2 2.193588 1_556
In3 N3 2.158817 1_555
In3 N1 2.190106 1_455
In3 N0 2.190106 1_565
In3 N5 2.193588 1_555
In4 N3 2.158828 1_555
In4 N0 2.190101 1_555
In4 N2 2.190107 1_455
In4 N6 2.193588 1_555
In5 N3 2.158828 1_555
In5 N1 2.190101 1_555
In5 N2 2.190107 1_565
In5 N7 2.193588 1_555
Ga0 N3 1.965045 1_556
Ga0 N5 1.994991 1_555
Ga0 N6 1.994997 1_555
Ga0 N7 1.994997 1_555
Ga1 N4 1.965045 1_555
Ga1 N2 1.994991 1_555
Ga1 N0 1.994997 1_555
Ga1 N1 1.994997 1_555
