# generated using pymatgen
data_MnSnPd2
_symmetry_space_group_name_H-M   'P 1'
_cell_length_a   6.68663000
_cell_length_b   6.68663000
_cell_length_c   12.13777800
_cell_angle_alpha   90.00000000
_cell_angle_beta   90.00000000
_cell_angle_gamma   90.00000000
_symmetry_Int_Tables_number   1
_chemical_formula_structural   MnSnPd2
_chemical_formula_sum   'Mn8 Sn8 Pd16'
_cell_volume   542.69244410
_cell_formula_units_Z   8
loop_
 _symmetry_equiv_pos_site_id
 _symmetry_equiv_pos_as_xyz
  1  'x, y, z'
loop_
 _atom_site_type_symbol
 _atom_site_label
 _atom_site_symmetry_multiplicity
 _atom_site_fract_x
 _atom_site_fract_y
 _atom_site_fract_z
 _atom_site_occupancy
  Mn  Mn0_0  1  0.00000000  0.00000000  0.00000000  1
  Mn  Mn0_1  1  0.00000000  0.00000000  0.50000000  1
  Mn  Mn0_2  1  0.00000000  0.50000000  0.00000000  1
  Mn  Mn0_3  1  0.00000000  0.50000000  0.50000000  1
  Mn  Mn0_4  1  0.50000000  0.00000000  0.00000000  1
  Mn  Mn0_5  1  0.50000000  0.00000000  0.50000000  1
  Mn  Mn0_6  1  0.50000000  0.50000000  0.00000000  1
  Mn  Mn0_7  1  0.50000000  0.50000000  0.50000000  1
  Sn  Sn0_0  1  0.00000000  0.00000000  0.25000000  1
  Sn  Sn0_1  1  0.00000000  0.00000000  0.75000000  1
  Sn  Sn0_2  1  0.00000000  0.50000000  0.25000000  1
  Sn  Sn0_3  1  0.00000000  0.50000000  0.75000000  1
  Sn  Sn0_4  1  0.50000000  0.00000000  0.25000000  1
  Sn  Sn0_5  1  0.50000000  0.00000000  0.75000000  1
  Sn  Sn0_6  1  0.50000000  0.50000000  0.25000000  1
  Sn  Sn0_7  1  0.50000000  0.50000000  0.75000000  1
  Pd  Pd0_0  1  0.25000000  0.25000000  0.11821800  1
  Pd  Pd0_1  1  0.25000000  0.25000000  0.61821800  1
  Pd  Pd0_2  1  0.25000000  0.75000000  0.11821800  1
  Pd  Pd0_3  1  0.25000000  0.75000000  0.61821800  1
  Pd  Pd0_4  1  0.75000000  0.25000000  0.11821800  1
  Pd  Pd0_5  1  0.75000000  0.25000000  0.61821800  1
  Pd  Pd0_6  1  0.75000000  0.75000000  0.11821800  1
  Pd  Pd0_7  1  0.75000000  0.75000000  0.61821800  1
  Pd  Pd1_0  1  0.25000000  0.25000000  0.38178200  1
  Pd  Pd1_1  1  0.25000000  0.25000000  0.88178200  1
  Pd  Pd1_2  1  0.25000000  0.75000000  0.38178200  1
  Pd  Pd1_3  1  0.25000000  0.75000000  0.88178200  1
  Pd  Pd1_4  1  0.75000000  0.25000000  0.38178200  1
  Pd  Pd1_5  1  0.75000000  0.25000000  0.88178200  1
  Pd  Pd1_6  1  0.75000000  0.75000000  0.38178200  1
  Pd  Pd1_7  1  0.75000000  0.75000000  0.88178200  1
loop_
_geom_bond_atom_site_label_1
_geom_bond_atom_site_label_2
_geom_bond_distance
_geom_bond_site_symmetry_2
Mn0_0 Pd0_0 2.765470 1_555
Mn0_0 Pd0_2 2.765470 1_545
Mn0_0 Pd0_4 2.765470 1_455
Mn0_0 Pd0_6 2.765470 1_445
Mn0_0 Pd1_1 2.765470 1_554
Mn0_0 Pd1_3 2.765470 1_544
Mn0_0 Pd1_5 2.765470 1_454
Mn0_0 Pd1_7 2.765470 1_444
Mn0_0 Sn0_0 3.034444 1_555
Mn0_0 Sn0_1 3.034445 1_554
Mn0_1 Pd0_1 2.765470 1_555
Mn0_1 Pd0_5 2.765470 1_455
Mn0_1 Pd0_3 2.765470 1_545
Mn0_1 Pd0_7 2.765470 1_445
Mn0_1 Pd1_0 2.765470 1_555
Mn0_1 Pd1_2 2.765470 1_545
Mn0_1 Pd1_4 2.765470 1_455
Mn0_1 Pd1_6 2.765470 1_445
Mn0_1 Sn0_0 3.034444 1_555
Mn0_1 Sn0_1 3.034445 1_555
Mn0_2 Pd0_2 2.765470 1_555
Mn0_2 Pd0_6 2.765470 1_455
Mn0_2 Pd0_0 2.765470 1_555
Mn0_2 Pd0_4 2.765470 1_455
Mn0_2 Pd1_3 2.765470 1_554
Mn0_2 Pd1_1 2.765470 1_554
Mn0_2 Pd1_7 2.765470 1_454
Mn0_2 Pd1_5 2.765470 1_454
Mn0_2 Sn0_2 3.034444 1_555
Mn0_2 Sn0_3 3.034445 1_554
Mn0_3 Pd0_3 2.765470 1_555
Mn0_3 Pd0_1 2.765470 1_555
Mn0_3 Pd0_7 2.765470 1_455
Mn0_3 Pd0_5 2.765470 1_455
Mn0_3 Pd1_2 2.765470 1_555
Mn0_3 Pd1_0 2.765470 1_555
Mn0_3 Pd1_6 2.765470 1_455
Mn0_3 Pd1_4 2.765470 1_455
Mn0_3 Sn0_2 3.034444 1_555
Mn0_3 Sn0_3 3.034445 1_555
Mn0_4 Pd0_4 2.765470 1_555
Mn0_4 Pd0_6 2.765470 1_545
Mn0_4 Pd0_0 2.765470 1_555
Mn0_4 Pd0_2 2.765470 1_545
Mn0_4 Pd1_5 2.765470 1_554
Mn0_4 Pd1_7 2.765470 1_544
Mn0_4 Pd1_1 2.765470 1_554
Mn0_4 Pd1_3 2.765470 1_544
Mn0_4 Sn0_4 3.034444 1_555
Mn0_4 Sn0_5 3.034445 1_554
Mn0_5 Pd0_5 2.765470 1_555
Mn0_5 Pd0_7 2.765470 1_545
Mn0_5 Pd0_1 2.765470 1_555
Mn0_5 Pd0_3 2.765470 1_545
Mn0_5 Pd1_4 2.765470 1_555
Mn0_5 Pd1_0 2.765470 1_555
Mn0_5 Pd1_6 2.765470 1_545
Mn0_5 Pd1_2 2.765470 1_545
Mn0_5 Sn0_4 3.034444 1_555
Mn0_5 Sn0_5 3.034445 1_555
Mn0_6 Pd0_6 2.765470 1_555
Mn0_6 Pd0_2 2.765470 1_555
Mn0_6 Pd0_4 2.765470 1_555
Mn0_6 Pd0_0 2.765470 1_555
Mn0_6 Pd1_7 2.765470 1_554
Mn0_6 Pd1_5 2.765470 1_554
Mn0_6 Pd1_3 2.765470 1_554
Mn0_6 Pd1_1 2.765470 1_554
Mn0_6 Sn0_6 3.034444 1_555
Mn0_6 Sn0_7 3.034445 1_554
Mn0_7 Pd0_7 2.765470 1_555
Mn0_7 Pd0_3 2.765470 1_555
Mn0_7 Pd0_5 2.765470 1_555
Mn0_7 Pd0_1 2.765470 1_555
Mn0_7 Pd1_6 2.765470 1_555
Mn0_7 Pd1_2 2.765470 1_555
Mn0_7 Pd1_4 2.765470 1_555
Mn0_7 Pd1_0 2.765470 1_555
Mn0_7 Sn0_6 3.034444 1_555
Mn0_7 Sn0_7 3.034445 1_555
Sn0_0 Sn0_4 3.343315 1_555
Sn0_0 Sn0_2 3.343315 1_545
Sn0_0 Sn0_2 3.343315 1_555
Sn0_0 Sn0_4 3.343315 1_455
Sn0_1 Sn0_5 3.343315 1_555
Sn0_1 Sn0_5 3.343315 1_455
Sn0_1 Sn0_3 3.343315 1_545
Sn0_1 Sn0_3 3.343315 1_555
Sn0_2 Sn0_6 3.343315 1_455
Sn0_2 Sn0_6 3.343315 1_555
Sn0_3 Sn0_7 3.343315 1_455
Sn0_3 Sn0_7 3.343315 1_555
Sn0_4 Sn0_6 3.343315 1_555
Sn0_4 Sn0_6 3.343315 1_545
Sn0_5 Sn0_7 3.343315 1_555
Sn0_5 Sn0_7 3.343315 1_545
Pd0_0 Sn0_0 2.854366 1_555
Pd0_0 Sn0_2 2.854366 1_555
Pd0_0 Sn0_6 2.854366 1_555
Pd0_0 Sn0_4 2.854366 1_555
Pd0_0 Pd1_1 2.869808 1_554
Pd0_1 Sn0_1 2.854366 1_555
Pd0_1 Sn0_5 2.854366 1_555
Pd0_1 Sn0_3 2.854366 1_555
Pd0_1 Sn0_7 2.854366 1_555
Pd0_1 Pd1_0 2.869808 1_555
Pd0_2 Sn0_2 2.854366 1_555
Pd0_2 Sn0_6 2.854366 1_555
Pd0_2 Sn0_4 2.854366 1_565
Pd0_2 Sn0_0 2.854366 1_565
Pd0_2 Pd1_3 2.869808 1_554
Pd0_3 Sn0_3 2.854366 1_555
Pd0_3 Sn0_7 2.854366 1_555
Pd0_3 Sn0_1 2.854366 1_565
Pd0_3 Sn0_5 2.854366 1_565
Pd0_3 Pd1_2 2.869808 1_555
Pd0_4 Sn0_6 2.854366 1_555
Pd0_4 Sn0_4 2.854366 1_555
Pd0_4 Sn0_0 2.854366 1_655
Pd0_4 Sn0_2 2.854366 1_655
Pd0_4 Pd1_5 2.869808 1_554
Pd0_5 Sn0_5 2.854366 1_555
Pd0_5 Sn0_7 2.854366 1_555
Pd0_5 Sn0_1 2.854366 1_655
Pd0_5 Sn0_3 2.854366 1_655
Pd0_5 Pd1_4 2.869808 1_555
Pd0_6 Sn0_6 2.854366 1_555
Pd0_6 Sn0_4 2.854366 1_565
Pd0_6 Sn0_2 2.854366 1_655
Pd0_6 Sn0_0 2.854366 1_665
Pd0_6 Pd1_7 2.869808 1_554
Pd0_7 Sn0_7 2.854366 1_555
Pd0_7 Sn0_3 2.854366 1_655
Pd0_7 Sn0_5 2.854366 1_565
Pd0_7 Sn0_1 2.854366 1_665
Pd0_7 Pd1_6 2.869808 1_555
Pd1_0 Sn0_2 2.854366 1_555
Pd1_0 Sn0_6 2.854366 1_555
Pd1_0 Sn0_0 2.854366 1_555
Pd1_0 Sn0_4 2.854366 1_555
Pd1_1 Sn0_1 2.854366 1_555
Pd1_1 Sn0_5 2.854366 1_555
Pd1_1 Sn0_7 2.854366 1_555
Pd1_1 Sn0_3 2.854366 1_555
Pd1_2 Sn0_2 2.854366 1_555
Pd1_2 Sn0_6 2.854366 1_555
Pd1_2 Sn0_0 2.854366 1_565
Pd1_2 Sn0_4 2.854366 1_565
Pd1_3 Sn0_7 2.854366 1_555
Pd1_3 Sn0_3 2.854366 1_555
Pd1_3 Sn0_1 2.854366 1_565
Pd1_3 Sn0_5 2.854366 1_565
Pd1_4 Sn0_4 2.854366 1_555
Pd1_4 Sn0_6 2.854366 1_555
Pd1_4 Sn0_2 2.854366 1_655
Pd1_4 Sn0_0 2.854366 1_655
Pd1_5 Sn0_5 2.854366 1_555
Pd1_5 Sn0_7 2.854366 1_555
Pd1_5 Sn0_1 2.854366 1_655
Pd1_5 Sn0_3 2.854366 1_655
Pd1_6 Sn0_6 2.854366 1_555
Pd1_6 Sn0_4 2.854366 1_565
Pd1_6 Sn0_2 2.854366 1_655
Pd1_6 Sn0_0 2.854366 1_665
Pd1_7 Sn0_7 2.854366 1_555
Pd1_7 Sn0_5 2.854366 1_565
Pd1_7 Sn0_3 2.854366 1_655
Pd1_7 Sn0_1 2.854366 1_665
