# generated using pymatgen
data_Li2Ca3N6
_symmetry_space_group_name_H-M   'P 1'
_cell_length_a   4.86886300
_cell_length_b   8.06415800
_cell_length_c   14.21357400
_cell_angle_alpha   90.00000000
_cell_angle_beta   90.00000000
_cell_angle_gamma   90.00000000
_symmetry_Int_Tables_number   1
_chemical_formula_structural   Li2Ca3N6
_chemical_formula_sum   'Li8 Ca12 N24'
_cell_volume   558.07154305
_cell_formula_units_Z   4
loop_
 _symmetry_equiv_pos_site_id
 _symmetry_equiv_pos_as_xyz
  1  'x, y, z'
loop_
 _atom_site_type_symbol
 _atom_site_label
 _atom_site_symmetry_multiplicity
 _atom_site_fract_x
 _atom_site_fract_y
 _atom_site_fract_z
 _atom_site_occupancy
  Li  Li0  1  0.50000000  0.00000000  0.66102400  1
  Li  Li1  1  0.00000000  0.00000000  0.66102400  1
  Li  Li2  1  0.50000000  0.00000000  0.33897600  1
  Li  Li3  1  0.00000000  0.00000000  0.33897600  1
  Li  Li4  1  0.50000000  0.50000000  0.16280800  1
  Li  Li5  1  0.00000000  0.50000000  0.16280800  1
  Li  Li6  1  0.50000000  0.50000000  0.83719200  1
  Li  Li7  1  0.00000000  0.50000000  0.83719200  1
  Ca  Ca0  1  0.25000000  0.68222800  0.00000000  1
  Ca  Ca1  1  0.75000000  0.31777200  0.00000000  1
  Ca  Ca2  1  0.25000000  0.18190400  0.50000000  1
  Ca  Ca3  1  0.75000000  0.81809600  0.50000000  1
  Ca  Ca4  1  0.25000000  0.15885600  0.83828300  1
  Ca  Ca5  1  0.75000000  0.84114400  0.83828300  1
  Ca  Ca6  1  0.75000000  0.84114400  0.16171700  1
  Ca  Ca7  1  0.25000000  0.15885600  0.16171700  1
  Ca  Ca8  1  0.25000000  0.66066600  0.33655100  1
  Ca  Ca9  1  0.75000000  0.33933400  0.33655100  1
  Ca  Ca10  1  0.75000000  0.33933400  0.66344900  1
  Ca  Ca11  1  0.25000000  0.66066600  0.66344900  1
  N  N0  1  0.25000000  0.71192700  0.82719100  1
  N  N1  1  0.75000000  0.28807300  0.82719100  1
  N  N2  1  0.75000000  0.28807300  0.17280900  1
  N  N3  1  0.25000000  0.71192700  0.17280900  1
  N  N4  1  0.25000000  0.86648200  0.19996300  1
  N  N5  1  0.75000000  0.13351800  0.19996300  1
  N  N6  1  0.75000000  0.13351800  0.80003700  1
  N  N7  1  0.25000000  0.86648200  0.80003700  1
  N  N8  1  0.25000000  0.21551500  0.32553400  1
  N  N9  1  0.75000000  0.78448500  0.32553400  1
  N  N10  1  0.75000000  0.78448500  0.67446600  1
  N  N11  1  0.25000000  0.21551500  0.67446600  1
  N  N12  1  0.25000000  0.36805400  0.70610300  1
  N  N13  1  0.75000000  0.63194600  0.70610300  1
  N  N14  1  0.75000000  0.63194600  0.29389700  1
  N  N15  1  0.25000000  0.36805400  0.29389700  1
  N  N16  1  0.25000000  0.38769400  0.95386800  1
  N  N17  1  0.75000000  0.61230600  0.95386800  1
  N  N18  1  0.75000000  0.61230600  0.04613200  1
  N  N19  1  0.25000000  0.38769400  0.04613200  1
  N  N20  1  0.25000000  0.88865600  0.45367000  1
  N  N21  1  0.75000000  0.11134400  0.45367000  1
  N  N22  1  0.75000000  0.11134400  0.54633000  1
  N  N23  1  0.25000000  0.88865600  0.54633000  1
loop_
_geom_bond_atom_site_label_1
_geom_bond_atom_site_label_2
_geom_bond_distance
_geom_bond_site_symmetry_2
Li0 N11 2.130394 1_555
Li0 N10 2.130394 1_545
Li0 N23 2.223830 1_545
Li0 N22 2.223830 1_555
Li0 N6 2.558317 1_555
Li0 N7 2.558317 1_545
Li1 N11 2.130394 1_555
Li1 N10 2.130394 1_445
Li1 N23 2.223830 1_545
Li1 N22 2.223830 1_455
Li1 N6 2.558317 1_455
Li1 N7 2.558317 1_545
Li2 N8 2.130394 1_555
Li2 N9 2.130394 1_545
Li2 N20 2.223830 1_545
Li2 N21 2.223830 1_555
Li2 N4 2.558317 1_545
Li2 N5 2.558317 1_555
Li3 N8 2.130394 1_555
Li3 N9 2.130394 1_445
Li3 N20 2.223830 1_545
Li3 N21 2.223830 1_455
Li3 N4 2.558317 1_545
Li3 N5 2.558317 1_455
Li4 N3 2.102985 1_555
Li4 N2 2.102985 1_555
Li4 N19 2.247678 1_555
Li4 N18 2.247678 1_555
Li4 N15 2.466872 1_555
Li4 N14 2.466872 1_555
Li5 N3 2.102985 1_555
Li5 N2 2.102985 1_455
Li5 N19 2.247678 1_555
Li5 N18 2.247678 1_455
Li5 N15 2.466872 1_555
Li5 N14 2.466872 1_455
Li6 N0 2.102985 1_555
Li6 N1 2.102985 1_555
Li6 N17 2.247678 1_555
Li6 N16 2.247678 1_555
Li6 N13 2.466872 1_555
Li6 N12 2.466872 1_555
Li7 N0 2.102985 1_555
Li7 N1 2.102985 1_455
Li7 N17 2.247678 1_455
Li7 N16 2.247678 1_555
Li7 N12 2.466872 1_555
Li7 N13 2.466872 1_455
Ca0 N19 2.464015 1_555
Ca0 N16 2.464015 1_554
Ca0 N0 2.467882 1_554
Ca0 N3 2.467882 1_555
Ca0 N18 2.583474 1_455
Ca0 N18 2.583474 1_555
Ca0 N17 2.583474 1_454
Ca0 N17 2.583474 1_554
Ca1 N18 2.464015 1_555
Ca1 N17 2.464015 1_554
Ca1 N2 2.467882 1_555
Ca1 N1 2.467882 1_554
Ca1 N19 2.583474 1_655
Ca1 N19 2.583474 1_555
Ca1 N16 2.583474 1_654
Ca1 N16 2.583474 1_554
Ca2 N20 2.454773 1_545
Ca2 N23 2.454773 1_545
Ca2 N11 2.494554 1_555
Ca2 N8 2.494554 1_555
Ca2 N21 2.585318 1_455
Ca2 N21 2.585318 1_555
Ca2 N22 2.585318 1_455
Ca2 N22 2.585318 1_555
Ca3 N21 2.454773 1_565
Ca3 N22 2.454773 1_565
Ca3 N10 2.494554 1_555
Ca3 N9 2.494554 1_555
Ca3 N20 2.585318 1_555
Ca3 N23 2.585318 1_655
Ca3 N20 2.585318 1_655
Ca3 N23 2.585318 1_555
Ca4 N11 2.372831 1_555
Ca4 N7 2.419607 1_545
Ca4 N16 2.470727 1_555
Ca4 N6 2.502743 1_555
Ca4 N6 2.502743 1_455
Ca4 N12 2.525013 1_555
Ca4 N1 2.652759 1_555
Ca4 N1 2.652759 1_455
Ca5 N10 2.372831 1_555
Ca5 N6 2.419607 1_565
Ca5 N17 2.470727 1_555
Ca5 N7 2.502743 1_655
Ca5 N7 2.502743 1_555
Ca5 N13 2.525013 1_555
Ca5 N0 2.652759 1_555
Ca5 N0 2.652759 1_655
Ca6 N9 2.372831 1_555
Ca6 N5 2.419607 1_565
Ca6 N18 2.470727 1_555
Ca6 N4 2.502743 1_655
Ca6 N4 2.502743 1_555
Ca6 N14 2.525013 1_555
Ca6 N3 2.652759 1_555
Ca6 N3 2.652759 1_655
Ca7 N8 2.372831 1_555
Ca7 N4 2.419607 1_545
Ca7 N19 2.470727 1_555
Ca7 N5 2.502743 1_555
Ca7 N5 2.502743 1_455
Ca7 N15 2.525013 1_555
Ca7 N2 2.652759 1_555
Ca7 N2 2.652759 1_455
Ca8 N3 2.363785 1_555
Ca8 N15 2.436308 1_555
Ca8 N20 2.480205 1_555
Ca8 N14 2.519455 1_555
Ca8 N14 2.519455 1_455
Ca8 N4 2.554165 1_555
Ca8 N9 2.635901 1_555
Ca8 N9 2.635901 1_455
Ca9 N2 2.363785 1_555
Ca9 N14 2.436308 1_555
Ca9 N21 2.480205 1_555
Ca9 N15 2.519455 1_555
Ca9 N15 2.519455 1_655
Ca9 N5 2.554165 1_555
Ca9 N8 2.635901 1_655
Ca9 N8 2.635901 1_555
Ca10 N1 2.363785 1_555
Ca10 N13 2.436308 1_555
Ca10 N22 2.480205 1_555
Ca10 N12 2.519455 1_655
Ca10 N12 2.519455 1_555
Ca10 N6 2.554165 1_555
Ca10 N11 2.635901 1_655
Ca10 N11 2.635901 1_555
Ca11 N0 2.363785 1_555
Ca11 N12 2.436308 1_555
Ca11 N23 2.480205 1_555
Ca11 N13 2.519455 1_555
Ca11 N13 2.519455 1_455
Ca11 N7 2.554165 1_555
Ca11 N10 2.635901 1_555
Ca11 N10 2.635901 1_455
N0 N7 1.304747 1_555
N1 N6 1.304747 1_555
N2 N5 1.304747 1_555
N3 N4 1.304747 1_555
N10 N13 1.309714 1_555
N11 N12 1.309714 1_555
N14 N9 1.309714 1_555
N15 N8 1.309714 1_555
N16 N19 1.311401 1_556
N17 N18 1.311401 1_556
N20 N23 1.317030 1_555
N21 N22 1.317030 1_555
