# generated using pymatgen
data_B2O3
_symmetry_space_group_name_H-M   'P 1'
_cell_length_a   10.74550606
_cell_length_b   11.44276653
_cell_length_c   11.38393376
_cell_angle_alpha   85.88941329
_cell_angle_beta   88.28857511
_cell_angle_gamma   87.68463435
_symmetry_Int_Tables_number   1
_chemical_formula_structural   B2O3
_chemical_formula_sum   'B40 O60'
_cell_volume   1394.49785345
_cell_formula_units_Z   20
loop_
 _symmetry_equiv_pos_site_id
 _symmetry_equiv_pos_as_xyz
  1  'x, y, z'
loop_
 _atom_site_type_symbol
 _atom_site_label
 _atom_site_symmetry_multiplicity
 _atom_site_fract_x
 _atom_site_fract_y
 _atom_site_fract_z
 _atom_site_occupancy
  B  B0  1  0.71948328  0.52988666  0.66189063  1
  B  B1  1  0.69381207  0.63211541  0.15944721  1
  B  B2  1  0.77877527  0.43311882  0.22966155  1
  B  B3  1  0.21054098  0.62591829  0.36372175  1
  B  B4  1  0.56067279  0.19460524  0.56855658  1
  B  B5  1  0.72303483  0.72088083  0.56763870  1
  B  B6  1  0.49468933  0.76482839  0.54279113  1
  B  B7  1  0.82797513  0.81287488  0.38213721  1
  B  B8  1  0.23580212  0.45000085  0.24867229  1
  B  B9  1  0.45148328  0.35922729  0.22048621  1
  B  B10  1  0.33060981  0.76752755  0.04076706  1
  B  B11  1  0.81385839  0.23371565  0.29679901  1
  B  B12  1  0.79372577  0.00570703  0.80076590  1
  B  B13  1  0.38870383  0.84746273  0.37658591  1
  B  B14  1  0.80481164  0.62693131  0.97308803  1
  B  B15  1  0.82393768  0.03273306  0.41359286  1
  B  B16  1  0.49286940  0.08105843  0.16721310  1
  B  B17  1  0.33229255  0.99447529  0.75151116  1
  B  B18  1  0.21017019  0.25157598  0.19844701  1
  B  B19  1  0.56737339  0.03389907  0.74701270  1
  B  B20  1  0.56924911  0.42040284  0.55332760  1
  B  B21  1  0.92861575  0.31088921  0.12517628  1
  B  B22  1  0.40166423  0.56710588  0.50952100  1
  B  B23  1  0.13568820  0.33545835  0.73718402  1
  B  B24  1  0.90228967  0.33704708  0.58820217  1
  B  B25  1  0.04639210  0.99142028  0.51713513  1
  B  B26  1  0.00225042  0.58410717  0.87457036  1
  B  B27  1  0.30281339  0.43738614  0.93679132  1
  B  B28  1  0.69270972  0.46070086  0.87858082  1
  B  B29  1  0.18234021  0.53314556  0.77937843  1
  B  B30  1  0.53247186  0.37330888  0.01244294  1
  B  B31  1  0.97604981  0.85171988  0.21806820  1
  B  B32  1  0.90209027  0.91502709  0.99763394  1
  B  B33  1  0.92042431  0.10893511  0.61464396  1
  B  B34  1  0.28508864  0.84094459  0.90220827  1
  B  B35  1  0.15983276  0.85266517  0.35140170  1
  B  B36  1  0.49066430  0.17788094  0.35994562  1
  B  B37  1  0.07868682  0.36582555  0.95103552  1
  B  B38  1  0.47800840  0.74020145  0.20610755  1
  B  B39  1  0.17066744  0.13724741  0.65095618  1
  O  O0  1  0.49779110  0.08908399  0.28268407  1
  O  O1  1  0.90634940  0.66231434  0.90451986  1
  O  O2  1  0.06903919  0.06907852  0.61008374  1
  O  O3  1  0.75503594  0.64448919  0.66151108  1
  O  O4  1  0.45554384  0.65287028  0.56743964  1
  O  O5  1  0.58370755  0.69445725  0.15742335  1
  O  O6  1  0.80543769  0.73244200  0.47203126  1
  O  O7  1  0.86090285  0.06075314  0.71394733  1
  O  O8  1  0.58423703  0.12761557  0.67053265  1
  O  O9  1  0.01531626  0.29070461  0.04244235  1
  O  O10  1  0.65703806  0.50237291  0.56357313  1
  O  O11  1  0.41433689  0.85182197  0.49451428  1
  O  O12  1  0.60387086  0.30453659  0.56552726  1
  O  O13  1  0.91489914  0.02924285  0.50773005  1
  O  O14  1  0.40306245  0.79524916  0.93738461  1
  O  O15  1  0.50887362  0.06231434  0.06318686  1
  O  O16  1  0.20933356  0.79964189  0.99864743  1
  O  O17  1  0.86600954  0.95716126  0.89833527  1
  O  O18  1  0.11148013  0.91591809  0.46365938  1
  O  O19  1  0.75855647  0.34155214  0.31536011  1
  O  O20  1  0.78627272  0.93061151  0.38236439  1
  O  O21  1  0.35930039  0.44640198  0.21197005  1
  O  O22  1  0.54025481  0.34345457  0.13318800  1
  O  O23  1  0.16729094  0.34768571  0.24769332  1
  O  O24  1  0.20480373  0.38720762  0.99578896  1
  O  O25  1  0.71635132  0.45270088  0.76111357  1
  O  O26  1  0.61491404  0.79076297  0.56640907  1
  O  O27  1  0.16433233  0.44838145  0.70102278  1
  O  O28  1  0.90739169  0.44350683  0.59243613  1
  O  O29  1  0.25177342  0.91774201  0.81034769  1
  O  O30  1  0.25942668  0.15786680  0.17205980  1
  O  O31  1  0.36483698  0.73506212  0.15091746  1
  O  O32  1  0.78117964  0.13938051  0.37337688  1
  O  O33  1  0.42396135  0.40690210  0.96238565  1
  O  O34  1  0.07894155  0.89621964  0.25258435  1
  O  O35  1  0.28174388  0.08454908  0.67842840  1
  O  O36  1  0.89685824  0.21556064  0.20608278  1
  O  O37  1  0.63972584  0.36743693  0.94329776  1
  O  O38  1  0.09489908  0.62321872  0.79538907  1
  O  O39  1  0.44791152  0.45272096  0.52809815  1
  O  O40  1  0.71335731  0.55763079  0.93876536  1
  O  O41  1  0.45667318  0.98221257  0.77150654  1
  O  O42  1  0.94075133  0.88302924  0.09730660  1
  O  O43  1  0.00232251  0.47302433  0.92480786  1
  O  O44  1  0.28323353  0.89060563  0.32639158  1
  O  O45  1  0.70632715  0.53405342  0.23703707  1
  O  O46  1  0.45854258  0.29088884  0.32521808  1
  O  O47  1  0.67104882  0.98678666  0.80903465  1
  O  O48  1  0.30873557  0.58570838  0.43238122  1
  O  O49  1  0.78802804  0.67030299  0.08221163  1
  O  O50  1  0.51267238  0.14277997  0.47540391  1
  O  O51  1  0.17420042  0.54867342  0.28255785  1
  O  O52  1  0.48365461  0.79073983  0.31123356  1
  O  O53  1  0.28819546  0.52305391  0.84477928  1
  O  O54  1  0.89572714  0.22501634  0.57736089  1
  O  O55  1  0.86527457  0.41823900  0.14032038  1
  O  O56  1  0.89304635  0.78356432  0.28275542  1
  O  O57  1  0.14407516  0.25239989  0.65022983  1
  O  O58  1  0.09585200  0.29613336  0.84523878  1
  O  O59  1  0.14828203  0.72886776  0.37642653  1
loop_
_geom_bond_atom_site_label_1
_geom_bond_atom_site_label_2
_geom_bond_distance
_geom_bond_site_symmetry_2
B0 O3 1.380299 1_555
B0 O25 1.383543 1_555
B0 O10 1.383659 1_555
B1 O5 1.356572 1_555
B1 O45 1.382095 1_555
B1 O49 1.384363 1_555
B2 O55 1.372186 1_555
B2 O45 1.372737 1_555
B2 O19 1.398569 1_555
B3 O59 1.345808 1_555
B3 O48 1.376388 1_555
B3 O51 1.397853 1_555
B4 O12 1.356105 1_555
B4 O8 1.368821 1_555
B4 O50 1.374700 1_555
B5 O3 1.374074 1_555
B5 O26 1.383379 1_555
B5 O6 1.384698 1_555
B6 O4 1.371813 1_555
B6 O26 1.375668 1_555
B6 O11 1.385253 1_555
B7 O6 1.349503 1_555
B7 O56 1.367321 1_555
B7 O20 1.402676 1_555
B8 O51 1.359636 1_555
B8 O21 1.379226 1_555
B8 O23 1.408828 1_555
B9 O22 1.373063 1_555
B9 O21 1.377560 1_555
B9 O46 1.380464 1_555
B10 O31 1.339917 1_555
B10 O14 1.415466 1_554
B10 O16 1.427088 1_554
B11 O36 1.365963 1_555
B11 O19 1.375149 1_555
B11 O32 1.387777 1_555
B12 O7 1.341456 1_555
B12 O47 1.343942 1_545
B12 O17 1.440069 1_545
B13 O44 1.344506 1_555
B13 O11 1.383268 1_555
B13 O52 1.409310 1_555
B14 O40 1.370243 1_555
B14 O49 1.374701 1_556
B14 O1 1.379559 1_555
B15 O20 1.327429 1_545
B15 O32 1.340558 1_555
B15 O13 1.469242 1_555
B16 O15 1.224436 1_555
B16 O0 1.327038 1_555
B17 O41 1.362447 1_555
B17 O35 1.381434 1_565
B17 O29 1.382257 1_555
B18 O30 1.229232 1_555
B18 O23 1.329693 1_555
B19 O8 1.346578 1_555
B19 O41 1.362321 1_545
B19 O47 1.405034 1_545
B20 O12 1.361012 1_555
B20 O10 1.370041 1_555
B20 O39 1.373831 1_555
B21 O9 1.330319 1_655
B21 O55 1.399176 1_555
B21 O36 1.421942 1_555
B22 O48 1.349816 1_555
B22 O4 1.376415 1_555
B22 O39 1.385240 1_555
B23 O58 1.342981 1_555
B23 O27 1.371921 1_555
B23 O57 1.419122 1_555
B24 O28 1.226090 1_555
B24 O54 1.301570 1_555
B25 O18 1.267802 1_555
B25 O2 1.461557 1_565
B25 O13 1.465677 1_465
B26 O43 1.355907 1_555
B26 O1 1.388266 1_455
B26 O38 1.388706 1_555
B27 O24 1.356924 1_555
B27 O33 1.368443 1_555
B27 O53 1.390311 1_555
B28 O25 1.362536 1_555
B28 O40 1.373591 1_555
B28 O37 1.384613 1_555
B29 O53 1.374454 1_555
B29 O38 1.384498 1_555
B29 O27 1.386862 1_555
B30 O33 1.343174 1_554
B30 O37 1.378224 1_554
B30 O22 1.396543 1_555
B31 O34 1.317651 1_655
B31 O56 1.371369 1_555
B31 O42 1.453167 1_555
B32 O42 1.245159 1_556
B32 O17 1.262352 1_555
B33 O7 1.373660 1_555
B33 O54 1.382876 1_555
B33 O13 1.576143 1_555
B33 O2 1.643324 1_655
B34 O29 1.363510 1_555
B34 O14 1.409802 1_555
B34 O16 1.412308 1_555
B35 O44 1.426209 1_555
B35 O59 1.434404 1_555
B35 O34 1.487420 1_555
B35 O18 1.577815 1_555
B36 O46 1.358820 1_555
B36 O50 1.371140 1_555
B36 O0 1.389133 1_555
B37 O43 1.465591 1_555
B37 O9 1.470412 1_556
B37 O58 1.494343 1_555
B37 O24 1.497286 1_555
B38 O5 1.351711 1_555
B38 O52 1.369929 1_555
B38 O31 1.390600 1_555
B39 O57 1.336455 1_555
B39 O35 1.350242 1_555
B39 O2 1.472663 1_555
