# generated using pymatgen
data_Na3SmV2O8
_symmetry_space_group_name_H-M   'P 1'
_cell_length_a   14.96922265
_cell_length_b   14.96922265
_cell_length_c   14.35106633
_cell_angle_alpha   88.67717158
_cell_angle_beta   88.67717158
_cell_angle_gamma   21.70842375
_symmetry_Int_Tables_number   1
_chemical_formula_structural   Na3SmV2O8
_chemical_formula_sum   'Na18 Sm6 V12 O48'
_cell_volume   1189.12481273
_cell_formula_units_Z   6
loop_
 _symmetry_equiv_pos_site_id
 _symmetry_equiv_pos_as_xyz
  1  'x, y, z'
loop_
 _atom_site_type_symbol
 _atom_site_label
 _atom_site_symmetry_multiplicity
 _atom_site_fract_x
 _atom_site_fract_y
 _atom_site_fract_z
 _atom_site_occupancy
  Na  Na0  1  0.29189900  0.28750800  0.41728600  1
  Na  Na1  1  0.28750800  0.29189900  0.91728600  1
  Na  Na2  1  0.17911100  0.14573600  0.32761300  1
  Na  Na3  1  0.14573600  0.17911100  0.82761300  1
  Na  Na4  1  0.33369000  0.44530100  0.07534300  1
  Na  Na5  1  0.44530100  0.33369000  0.57534400  1
  Na  Na6  1  0.54377800  0.44992400  0.23518800  1
  Na  Na7  1  0.44992400  0.54377800  0.73518800  1
  Na  Na8  1  0.05314400  0.06881000  0.00860700  1
  Na  Na9  1  0.06881000  0.05314400  0.50860700  1
  Na  Na10  1  0.60752100  0.58871000  0.39092700  1
  Na  Na11  1  0.58871000  0.60752100  0.89092700  1
  Na  Na12  1  0.93344700  0.94945100  0.15405400  1
  Na  Na13  1  0.94945100  0.93344700  0.65405400  1
  Na  Na14  1  0.71560900  0.72772500  0.47424400  1
  Na  Na15  1  0.72772500  0.71560900  0.97424400  1
  Na  Na16  1  0.80723300  0.83443400  0.29498400  1
  Na  Na17  1  0.83443400  0.80723300  0.79498400  1
  Sm  Sm0  1  0.57880400  0.66069600  0.63522700  1
  Sm  Sm1  1  0.66069600  0.57880400  0.13522700  1
  Sm  Sm2  1  0.04227500  0.84257200  0.40065400  1
  Sm  Sm3  1  0.84257200  0.04227500  0.90065400  1
  Sm  Sm4  1  0.22861800  0.30532800  0.16958000  1
  Sm  Sm5  1  0.30532800  0.22861800  0.66958000  1
  V  V0  1  0.70054800  0.72816300  0.25226600  1
  V  V1  1  0.72816300  0.70054800  0.75226600  1
  V  V2  1  0.08543400  0.02397200  0.25795500  1
  V  V3  1  0.02397200  0.08543400  0.75795500  1
  V  V4  1  0.18079600  0.16564300  0.04913000  1
  V  V5  1  0.16564300  0.18079600  0.54913000  1
  V  V6  1  0.80018500  0.86383100  0.04824900  1
  V  V7  1  0.86383100  0.80018500  0.54824900  1
  V  V8  1  0.42960800  0.34124500  0.30785700  1
  V  V9  1  0.34124500  0.42960800  0.80785700  1
  V  V10  1  0.45133300  0.54922600  0.00220100  1
  V  V11  1  0.54922600  0.45133300  0.50220100  1
  O  O0  1  0.92907600  0.21362300  0.16157500  1
  O  O1  1  0.21362300  0.92907600  0.66157500  1
  O  O2  1  0.42035300  0.87494900  0.01805700  1
  O  O3  1  0.87494900  0.42035300  0.51805700  1
  O  O4  1  0.40924900  0.58397200  0.39372800  1
  O  O5  1  0.58397200  0.40924900  0.89372800  1
  O  O6  1  0.45972800  0.01744400  0.28943200  1
  O  O7  1  0.01744400  0.45972800  0.78943200  1
  O  O8  1  0.31448900  0.46620800  0.41856300  1
  O  O9  1  0.46620800  0.31448900  0.91856300  1
  O  O10  1  0.01684600  0.15000100  0.35382100  1
  O  O11  1  0.15000100  0.01684600  0.85382100  1
  O  O12  1  0.13261100  0.21068100  0.16787700  1
  O  O13  1  0.21068100  0.13261100  0.66787700  1
  O  O14  1  0.58463300  0.34672200  0.07526900  1
  O  O15  1  0.34672200  0.58463300  0.57526900  1
  O  O16  1  0.87285100  0.90750800  0.52636900  1
  O  O17  1  0.90750800  0.87285100  0.02636900  1
  O  O18  1  0.35452400  0.30305300  0.27612900  1
  O  O19  1  0.30305300  0.35452400  0.77612900  1
  O  O20  1  0.66703200  0.96609800  0.64258700  1
  O  O21  1  0.96609800  0.66703200  0.14258700  1
  O  O22  1  0.74762700  0.05458700  0.30371500  1
  O  O23  1  0.05458700  0.74762700  0.80371500  1
  O  O24  1  0.49164500  0.14938200  0.07755000  1
  O  O25  1  0.14938200  0.49164500  0.57755000  1
  O  O26  1  0.72989900  0.70385400  0.13315400  1
  O  O27  1  0.70385400  0.72989900  0.63315400  1
  O  O28  1  0.96298700  0.52595700  0.30141000  1
  O  O29  1  0.52595700  0.96298700  0.80141000  1
  O  O30  1  0.23279500  0.22934500  0.01918000  1
  O  O31  1  0.22934500  0.23279500  0.51918000  1
  O  O32  1  0.52005100  0.59405800  0.03458100  1
  O  O33  1  0.59405800  0.52005100  0.53458100  1
  O  O34  1  0.39721400  0.74009400  0.23523200  1
  O  O35  1  0.74009400  0.39721400  0.73523200  1
  O  O36  1  0.74916600  0.85307000  0.45332100  1
  O  O37  1  0.85307000  0.74916600  0.95332100  1
  O  O38  1  0.37089900  0.91791600  0.49651600  1
  O  O39  1  0.91791600  0.37089900  0.99651600  1
  O  O40  1  0.98287200  0.00922400  0.27542200  1
  O  O41  1  0.00922400  0.98287200  0.77542200  1
  O  O42  1  0.28532700  0.55597700  0.23999700  1
  O  O43  1  0.55597700  0.28532700  0.73999700  1
  O  O44  1  0.83449500  0.13350600  0.49881100  1
  O  O45  1  0.13350600  0.83449500  0.99881100  1
  O  O46  1  0.66037100  0.65286300  0.78314000  1
  O  O47  1  0.65286300  0.66037100  0.28314000  1
loop_
_geom_bond_atom_site_label_1
_geom_bond_atom_site_label_2
_geom_bond_distance
_geom_bond_site_symmetry_2
Na0 O31 2.234368 1_555
Na0 O18 2.309226 1_555
Na0 O36 2.589671 1_545
Na0 O25 2.676431 1_555
Na0 O28 2.682515 1_455
Na0 O6 2.697952 1_555
Na1 O30 2.234368 1_556
Na1 O19 2.309226 1_555
Na1 O37 2.589671 1_455
Na1 O24 2.676431 1_556
Na1 O29 2.682515 1_545
Na1 O7 2.697952 1_555
Na2 O12 2.323362 1_555
Na2 O10 2.390870 1_555
Na2 O6 2.566331 1_555
Na2 O38 2.737659 1_545
Na2 O47 2.784094 1_545
Na2 O28 2.957114 1_455
Na2 O47 3.008422 1_455
Na3 O13 2.323362 1_555
Na3 O11 2.390870 1_555
Na3 O7 2.566331 1_555
Na3 O39 2.737659 1_455
Na3 O46 2.784094 1_455
Na3 O29 2.957114 1_545
Na3 O46 3.008422 1_545
Na4 O9 2.368817 1_554
Na4 O24 2.397652 1_555
Na4 O14 2.447053 1_555
Na4 O17 2.507033 1_455
Na4 O42 2.593367 1_555
Na4 O21 2.862156 1_455
Na5 O8 2.368831 1_555
Na5 O25 2.397652 1_555
Na5 O15 2.447052 1_555
Na5 O16 2.507037 1_545
Na5 O43 2.593353 1_555
Na5 O20 2.862151 1_545
Na6 O4 2.397725 1_555
Na6 O34 2.443945 1_555
Na6 O42 2.464328 1_555
Na6 O14 2.524082 1_555
Na6 O40 2.546332 1_555
Na7 O5 2.397725 1_555
Na7 O35 2.443945 1_555
Na7 O43 2.464328 1_555
Na7 O15 2.524082 1_555
Na7 O41 2.546332 1_555
Na8 O11 2.340303 1_554
Na8 O0 2.349064 1_455
Na8 O45 2.438072 1_544
Na8 O32 2.682557 1_545
Na8 O39 2.747254 1_454
Na9 O10 2.340303 1_555
Na9 O1 2.349064 1_545
Na9 O44 2.438072 1_455
Na9 O33 2.682557 1_455
Na9 O38 2.747254 1_545
Na10 O47 2.287349 1_555
Na10 O33 2.369586 1_555
Na10 O10 2.489066 1_655
Na10 O38 2.605720 1_555
Na10 O34 2.621713 1_555
Na10 O3 2.661561 1_555
Na11 O46 2.287349 1_555
Na11 O32 2.369586 1_556
Na11 O11 2.489066 1_565
Na11 O39 2.605720 1_555
Na11 O35 2.621713 1_555
Na11 O2 2.661561 1_556
Na12 O40 2.396504 1_565
Na12 O17 2.404260 1_555
Na12 O14 2.484165 1_565
Na12 O42 2.504814 1_655
Na12 O22 2.563771 1_565
Na12 O45 2.680739 1_654
Na13 O41 2.396504 1_655
Na13 O16 2.404260 1_555
Na13 O15 2.484165 1_655
Na13 O43 2.504814 1_565
Na13 O23 2.563771 1_655
Na13 O44 2.680739 1_565
Na14 O27 2.281904 1_555
Na14 O36 2.362503 1_555
Na14 O3 2.607298 1_555
Na14 O38 2.738962 1_555
Na14 O28 2.850707 1_555
Na14 O31 2.882631 1_565
Na14 O31 2.930017 1_655
Na15 O26 2.281904 1_556
Na15 O37 2.362503 1_555
Na15 O2 2.607298 1_556
Na15 O39 2.738962 1_555
Na15 O29 2.850707 1_555
Na15 O30 2.882631 1_656
Na15 O30 2.930017 1_566
Na16 O36 2.341844 1_555
Na16 O21 2.378600 1_555
Na16 O22 2.494467 1_565
Na16 O28 2.598526 1_555
Na16 O18 2.621044 1_565
Na16 O6 2.846049 1_565
Na17 O37 2.341844 1_555
Na17 O20 2.378600 1_555
Na17 O23 2.494467 1_655
Na17 O29 2.598526 1_555
Na17 O19 2.621044 1_655
Na17 O7 2.846049 1_655
O0 V2 1.752761 1_655
O0 Sm1 2.309208 1_555
O1 V3 1.752761 1_565
O1 Sm0 2.309208 1_555
O2 V4 1.736071 1_565
O2 Sm1 2.392207 1_555
O3 V5 1.736071 1_655
O3 Sm0 2.392207 1_555
O4 V11 1.741666 1_555
O4 Sm2 2.377076 1_555
O5 V10 1.741666 1_556
O5 Sm3 2.377076 1_555
O6 V0 1.744365 1_545
O6 Sm4 2.393296 1_555
O7 V1 1.744365 1_455
O7 Sm5 2.393296 1_555
O8 V8 1.736053 1_555
O8 Sm2 2.394680 1_555
O9 V9 1.736053 1_555
O9 Sm3 2.394680 1_555
O10 V2 1.720892 1_555
O11 V3 1.720892 1_555
O12 V4 1.723834 1_555
O12 Sm4 2.803567 1_555
O12 Sm1 2.861591 1_455
O13 V5 1.723834 1_555
O13 Sm5 2.803567 1_555
O13 Sm0 2.861591 1_545
O14 V10 1.726423 1_555
O15 V11 1.726423 1_555
O16 V7 1.753746 1_555
O16 Sm2 2.433259 1_655
O17 V6 1.753746 1_555
O17 Sm3 2.433259 1_564
O18 V8 1.739848 1_555
O18 Sm4 2.429573 1_555
O19 V9 1.739848 1_555
O19 Sm5 2.429573 1_555
O20 V7 1.748017 1_555
O20 Sm5 2.312119 1_565
O21 V6 1.748017 1_555
O21 Sm4 2.312119 1_655
O22 V8 1.766392 1_555
O22 Sm2 2.351684 1_645
O23 V9 1.766392 1_555
O23 Sm3 2.351684 1_465
O24 V6 1.757514 1_545
O24 Sm4 2.349392 1_555
O25 V7 1.757514 1_455
O25 Sm5 2.349392 1_555
O26 V0 1.715929 1_555
O26 Sm1 2.859586 1_555
O26 Sm4 2.979270 1_655
O27 V1 1.715929 1_555
O27 Sm0 2.859586 1_555
O27 Sm5 2.979270 1_565
O28 V0 1.739653 1_555
O28 Sm4 2.415983 1_655
O29 V1 1.739653 1_555
O29 Sm5 2.415983 1_565
O30 V4 1.744922 1_555
O30 Sm4 2.435419 1_555
O31 V5 1.744922 1_555
O31 Sm5 2.435419 1_555
O32 V10 1.744607 1_555
O32 Sm1 2.408888 1_555
O33 V11 1.744607 1_555
O33 Sm0 2.408888 1_555
O34 V2 1.757163 1_565
O34 Sm1 2.376801 1_555
O35 V3 1.757163 1_655
O35 Sm0 2.376801 1_555
O36 V7 1.721067 1_555
O37 V6 1.721067 1_556
O38 V5 1.749069 1_565
O38 Sm0 2.477804 1_555
O39 V4 1.749069 1_656
O39 Sm1 2.477804 1_556
O40 V2 1.754454 1_655
O40 Sm2 2.447207 1_645
O41 V3 1.754454 1_565
O41 Sm3 2.447207 1_465
O42 V8 1.731441 1_555
O42 Sm2 2.832669 1_555
O43 V9 1.731441 1_555
O43 Sm3 2.832669 1_555
O44 V11 1.767122 1_555
O44 Sm2 2.352877 1_645
O45 V10 1.767122 1_556
O45 Sm3 2.352877 1_465
O46 V1 1.745356 1_555
O46 Sm0 2.419219 1_555
O47 V0 1.745356 1_555
O47 Sm1 2.419219 1_555
