# generated using pymatgen
data_CaCuO3
_symmetry_space_group_name_H-M   'P 1'
_cell_length_a   3.80363600
_cell_length_b   3.80363600
_cell_length_c   3.80363600
_cell_angle_alpha   90.00000000
_cell_angle_beta   90.00000000
_cell_angle_gamma   90.00000000
_symmetry_Int_Tables_number   1
_chemical_formula_structural   CaCuO3
_chemical_formula_sum   'Ca1 Cu1 O3'
_cell_volume   55.02966228
_cell_formula_units_Z   1
loop_
 _symmetry_equiv_pos_site_id
 _symmetry_equiv_pos_as_xyz
  1  'x, y, z'
loop_
 _atom_site_type_symbol
 _atom_site_label
 _atom_site_symmetry_multiplicity
 _atom_site_fract_x
 _atom_site_fract_y
 _atom_site_fract_z
 _atom_site_occupancy
  Ca  Ca0  1  0.50000000  0.50000000  0.50000000  1
  Cu  Cu0  1  0.00000000  0.00000000  0.00000000  1
  O  O0  1  0.50000000  0.00000000  0.00000000  1
  O  O1  1  0.00000000  0.50000000  0.00000000  1
  O  O2  1  0.00000000  0.00000000  0.50000000  1
loop_
_geom_bond_atom_site_label_1
_geom_bond_atom_site_label_2
_geom_bond_distance
_geom_bond_site_symmetry_2
Ca0 O2 2.689577 1_565
Ca0 O1 2.689577 1_555
Ca0 O0 2.689577 1_555
Ca0 O1 2.689577 1_556
Ca0 O0 2.689577 1_565
Ca0 O2 2.689577 1_555
Ca0 O1 2.689577 1_656
Ca0 O1 2.689577 1_655
Ca0 O0 2.689577 1_556
Ca0 O2 2.689577 1_655
Ca0 O2 2.689577 1_665
Ca0 O0 2.689577 1_566
Cu0 O2 1.901818 1_555
Cu0 O2 1.901818 1_554
Cu0 O1 1.901818 1_545
Cu0 O0 1.901818 1_455
Cu0 O1 1.901818 1_555
Cu0 O0 1.901818 1_555
