# generated using pymatgen
data_CeMg14Mo
_symmetry_space_group_name_H-M   'P 1'
_cell_length_a   6.50397325
_cell_length_b   6.50397270
_cell_length_c   10.27432507
_cell_angle_alpha   90.00000000
_cell_angle_beta   90.00000000
_cell_angle_gamma   120.00000274
_symmetry_Int_Tables_number   1
_chemical_formula_structural   CeMg14Mo
_chemical_formula_sum   'Ce1 Mg14 Mo1'
_cell_volume   376.39286148
_cell_formula_units_Z   1
loop_
 _symmetry_equiv_pos_site_id
 _symmetry_equiv_pos_as_xyz
  1  'x, y, z'
loop_
 _atom_site_type_symbol
 _atom_site_label
 _atom_site_symmetry_multiplicity
 _atom_site_fract_x
 _atom_site_fract_y
 _atom_site_fract_z
 _atom_site_occupancy
  Ce  Ce0  1  0.16666700  0.33333300  0.12500000  1
  Mg  Mg0  1  0.18325978  0.84162939  0.12500000  1
  Mg  Mg1  1  0.15928169  0.82964034  0.62500000  1
  Mg  Mg2  1  0.65837061  0.31674022  0.12500000  1
  Mg  Mg3  1  0.67035966  0.34071831  0.62500000  1
  Mg  Mg4  1  0.65837061  0.84162939  0.12500000  1
  Mg  Mg5  1  0.67035966  0.82964034  0.62500000  1
  Mg  Mg6  1  0.32964181  0.17035819  0.39366969  1
  Mg  Mg7  1  0.32964181  0.17035819  0.85633031  1
  Mg  Mg8  1  0.32964181  0.65928462  0.39366969  1
  Mg  Mg9  1  0.32964181  0.65928462  0.85633031  1
  Mg  Mg10  1  0.84071538  0.17035819  0.39366969  1
  Mg  Mg11  1  0.84071538  0.17035819  0.85633031  1
  Mg  Mg12  1  0.83333300  0.66666700  0.35958508  1
  Mg  Mg13  1  0.83333300  0.66666700  0.89041492  1
  Mo  Mo0  1  0.16666700  0.33333300  0.62500000  1
loop_
_geom_bond_atom_site_label_1
_geom_bond_atom_site_label_2
_geom_bond_distance
_geom_bond_site_symmetry_2
Ce0 Mg0 3.253329 1_555
Ce0 Mg4 3.253329 1_555
Ce0 Mg0 3.253329 1_545
Ce0 Mg4 3.253329 1_445
Ce0 Mg2 3.253329 1_555
Ce0 Mg2 3.253329 1_455
Ce0 Mg7 3.315193 1_554
Ce0 Mg6 3.315193 1_555
Ce0 Mg9 3.315199 1_554
Ce0 Mg8 3.315199 1_555
Ce0 Mg11 3.315199 1_454
Ce0 Mg10 3.315199 1_455
Mg0 Mg2 3.090108 1_565
Mg0 Mg4 3.090108 1_555
Mg0 Mg13 3.113506 1_454
Mg0 Mg12 3.113506 1_455
Mg0 Mg9 3.325938 1_554
Mg0 Mg8 3.325938 1_555
Mg0 Mg7 3.325944 1_564
Mg0 Mg6 3.325944 1_565
Mg0 Mg2 3.413865 1_455
Mg0 Mg4 3.413865 1_455
Mg1 Mg8 3.054835 1_555
Mg1 Mg9 3.054835 1_555
Mg1 Mg6 3.054842 1_565
Mg1 Mg7 3.054842 1_565
Mg1 Mg3 3.179936 1_455
Mg1 Mg5 3.179936 1_455
Mg1 Mo0 3.252252 1_555
Mg1 Mo0 3.252252 1_565
Mg1 Mg13 3.287398 1_455
Mg1 Mg12 3.287398 1_455
Mg1 Mg3 3.324037 1_565
Mg1 Mg5 3.324037 1_555
Mg2 Mg4 3.090108 1_545
Mg2 Mg7 3.325945 1_554
Mg2 Mg6 3.325945 1_555
Mg2 Mg4 3.413865 1_555
Mg3 Mg6 3.054842 1_555
Mg3 Mg7 3.054842 1_555
Mg3 Mg5 3.179936 1_555
Mg3 Mo0 3.252253 1_655
Mg3 Mo0 3.252253 1_555
Mg3 Mg5 3.324037 1_545
Mg4 Mg9 3.325944 1_554
Mg4 Mg8 3.325944 1_555
Mg5 Mg8 3.054842 1_555
Mg5 Mg9 3.054842 1_555
Mg5 Mo0 3.252252 1_665
Mg5 Mo0 3.252252 1_555
Mg6 Mo0 3.003281 1_555
Mg6 Mg8 3.179964 1_555
Mg6 Mg8 3.324009 1_545
Mg7 Mo0 3.003281 1_555
Mg7 Mg9 3.179964 1_555
Mg7 Mg9 3.324009 1_545
Mg8 Mo0 3.003288 1_555
Mg9 Mo0 3.003288 1_555
Mg10 Mo0 3.003288 1_655
Mg10 Mg3 3.054835 1_555
Mg10 Mg5 3.054842 1_545
Mg10 Mg8 3.179964 1_655
Mg10 Mg6 3.179964 1_655
Mg10 Mg12 3.271052 1_545
Mg10 Mg12 3.271052 1_555
Mg10 Mg8 3.324009 1_545
Mg10 Mg6 3.324009 1_555
Mg10 Mg2 3.325938 1_555
Mg10 Mg4 3.325944 1_545
Mg11 Mo0 3.003288 1_655
Mg11 Mg3 3.054835 1_555
Mg11 Mg5 3.054842 1_545
Mg11 Mg9 3.179964 1_655
Mg11 Mg7 3.179964 1_655
Mg11 Mg13 3.271052 1_545
Mg11 Mg13 3.271052 1_555
Mg11 Mg9 3.324009 1_545
Mg11 Mg7 3.324009 1_555
Mg11 Mg2 3.325938 1_556
Mg11 Mg4 3.325944 1_546
Mg12 Mg4 3.113499 1_555
Mg12 Mg2 3.113506 1_555
Mg12 Mg6 3.271052 1_665
Mg12 Mg6 3.271052 1_555
Mg12 Mg8 3.271052 1_655
Mg12 Mg8 3.271052 1_555
Mg12 Mg5 3.287391 1_555
Mg12 Mg3 3.287398 1_555
Mg13 Mg4 3.113499 1_556
Mg13 Mg2 3.113506 1_556
Mg13 Mg7 3.271052 1_665
Mg13 Mg7 3.271052 1_555
Mg13 Mg9 3.271052 1_655
Mg13 Mg9 3.271052 1_555
Mg13 Mg5 3.287391 1_555
Mg13 Mg3 3.287398 1_555
