# generated using pymatgen
data_SrMn7O12
_symmetry_space_group_name_H-M   'P 1'
_cell_length_a   6.54329846
_cell_length_b   6.54319333
_cell_length_c   10.61992997
_cell_angle_alpha   90.52333512
_cell_angle_beta   89.47567396
_cell_angle_gamma   110.07734645
_symmetry_Int_Tables_number   1
_chemical_formula_structural   SrMn7O12
_chemical_formula_sum   'Sr2 Mn14 O24'
_cell_volume   427.02479400
_cell_formula_units_Z   2
loop_
 _symmetry_equiv_pos_site_id
 _symmetry_equiv_pos_as_xyz
  1  'x, y, z'
loop_
 _atom_site_type_symbol
 _atom_site_label
 _atom_site_symmetry_multiplicity
 _atom_site_fract_x
 _atom_site_fract_y
 _atom_site_fract_z
 _atom_site_occupancy
  Sr  Sr0  1  0.00012400  0.99995300  0.99996600  1
  Sr  Sr1  1  0.49982700  0.49995800  0.49999600  1
  Mn  Mn0  1  0.74962700  0.74963700  0.25019400  1
  Mn  Mn1  1  0.25041800  0.25026300  0.74979500  1
  Mn  Mn2  1  0.49998700  0.99988900  0.99999600  1
  Mn  Mn3  1  0.99999800  0.50004200  0.50000500  1
  Mn  Mn4  1  0.00007200  0.49996700  0.99999200  1
  Mn  Mn5  1  0.49992700  0.99998400  0.50001700  1
  Mn  Mn6  1  0.25026500  0.25037200  0.25019400  1
  Mn  Mn7  1  0.74958800  0.74963900  0.74980700  1
  Mn  Mn8  1  0.75027900  0.24962600  0.25004100  1
  Mn  Mn9  1  0.24971700  0.75031100  0.75005900  1
  Mn  Mn10  1  0.00023000  0.00015400  0.49997500  1
  Mn  Mn11  1  0.25002800  0.74975800  0.24989400  1
  Mn  Mn12  1  0.74986200  0.25017100  0.75009200  1
  Mn  Mn13  1  0.50013100  0.50000600  0.99996500  1
  O  O0  1  0.83982000  0.52020700  0.34714600  1
  O  O1  1  0.33990200  0.02029000  0.84722900  1
  O  O2  1  0.66003300  0.97954200  0.15291700  1
  O  O3  1  0.16001000  0.47977600  0.65296900  1
  O  O4  1  0.47982300  0.16011200  0.34709800  1
  O  O5  1  0.97955700  0.65993200  0.84709100  1
  O  O6  1  0.02032900  0.33989200  0.15279300  1
  O  O7  1  0.52023600  0.83982900  0.65284700  1
  O  O8  1  0.77726500  0.60116000  0.09148300  1
  O  O9  1  0.27806800  0.09978100  0.58921400  1
  O  O10  1  0.72210400  0.90039000  0.41078900  1
  O  O11  1  0.22304000  0.39894600  0.90859600  1
  O  O12  1  0.09962600  0.27812100  0.41070900  1
  O  O13  1  0.60119200  0.77715600  0.90861800  1
  O  O14  1  0.39887000  0.22282000  0.09141700  1
  O  O15  1  0.90033300  0.72208900  0.58916500  1
  O  O16  1  0.25365700  0.74630000  0.43385100  1
  O  O17  1  0.75287100  0.24714700  0.93471800  1
  O  O18  1  0.24698300  0.75302200  0.06532200  1
  O  O19  1  0.74625000  0.25388700  0.56615500  1
  O  O20  1  0.43390300  0.56609200  0.25438700  1
  O  O21  1  0.93339900  0.06649300  0.75332700  1
  O  O22  1  0.06650700  0.93341200  0.24669100  1
  O  O23  1  0.56614000  0.43387500  0.74548200  1
loop_
_geom_bond_atom_site_label_1
_geom_bond_atom_site_label_2
_geom_bond_distance
_geom_bond_site_symmetry_2
Mn0 O8 1.975497 1_555
Mn0 O10 1.999950 1_555
Mn0 O20 2.002003 1_555
Mn0 O22 2.008501 1_655
Mn0 O0 2.075972 1_555
Mn0 O2 2.078181 1_555
Mn1 O11 1.976573 1_555
Mn1 O9 1.999118 1_555
Mn1 O23 2.002124 1_555
Mn1 O21 2.009249 1_455
Mn1 O3 2.076501 1_555
Mn1 O1 2.079008 1_555
Mn2 O1 1.969315 1_565
Mn2 O2 1.970437 1_556
Mn2 O18 1.998646 1_556
Mn2 O17 1.999389 1_565
Mn2 O13 2.032055 1_555
Mn2 O14 2.033011 1_566
Mn3 O0 1.970070 1_555
Mn3 O3 1.970555 1_655
Mn3 O19 2.001924 1_555
Mn3 O16 2.001971 1_655
Mn3 O12 2.011524 1_655
Mn3 O15 2.011679 1_555
Mn4 O6 1.969313 1_556
Mn4 O5 1.970224 1_455
Mn4 O17 1.998967 1_455
Mn4 O18 1.999014 1_556
Mn4 O11 2.032737 1_555
Mn4 O8 2.032979 1_456
Mn5 O7 1.969951 1_555
Mn5 O4 1.970290 1_565
Mn5 O16 2.002166 1_555
Mn5 O19 2.003031 1_565
Mn5 O9 2.011338 1_565
Mn5 O10 2.012460 1_555
Mn6 O14 1.976376 1_555
Mn6 O12 1.999213 1_555
Mn6 O20 2.002110 1_555
Mn6 O22 2.008885 1_545
Mn6 O4 2.076664 1_555
Mn6 O6 2.078779 1_555
Mn7 O13 1.975920 1_555
Mn7 O15 2.000386 1_555
Mn7 O23 2.002068 1_555
Mn7 O21 2.008399 1_565
Mn7 O7 2.075606 1_555
Mn7 O5 2.078983 1_555
Mn8 O2 1.948588 1_545
Mn8 O6 1.949102 1_655
Mn8 O4 1.950185 1_555
Mn8 O0 1.951103 1_555
Mn9 O1 1.948298 1_565
Mn9 O5 1.948472 1_455
Mn9 O3 1.950773 1_555
Mn9 O7 1.951376 1_555
Mn10 O9 1.958246 1_555
Mn10 O12 1.959019 1_555
Mn10 O15 1.959181 1_445
Mn10 O10 1.959523 1_445
Mn11 O16 1.954404 1_555
Mn11 O18 1.960811 1_555
Mn11 O22 1.969629 1_555
Mn11 O20 1.972028 1_555
Mn12 O19 1.954232 1_555
Mn12 O17 1.961343 1_555
Mn12 O21 1.969853 1_555
Mn12 O23 1.971456 1_555
Mn13 O11 1.965560 1_555
Mn13 O13 1.965712 1_555
Mn13 O14 1.966480 1_556
Mn13 O8 1.966588 1_556
O0 Sr1 2.708720 1_555
O1 Sr0 2.706754 1_545
O2 Sr0 2.709626 1_654
O3 Sr1 2.708673 1_555
O4 Sr1 2.708614 1_555
O5 Sr0 2.708546 1_655
O6 Sr0 2.708353 1_544
O7 Sr1 2.707845 1_555
O8 Sr0 2.699594 1_654
O9 Sr1 2.696478 1_555
O10 Sr1 2.698438 1_555
O11 Sr0 2.700130 1_545
O12 Sr1 2.697018 1_555
O13 Sr0 2.699626 1_655
O14 Sr0 2.699162 1_544
O15 Sr1 2.698537 1_555
O16 Sr1 2.740452 1_555
O17 Sr0 2.747963 1_645
O18 Sr0 2.744856 1_554
O19 Sr1 2.740399 1_555
O20 Sr1 2.710385 1_555
O21 Sr0 2.722706 1_645
O22 Sr0 2.723088 1_554
O23 Sr1 2.709618 1_555
