# generated using pymatgen
data_Sr3Fe2O4F3
_symmetry_space_group_name_H-M   'P 1'
_cell_length_a   10.94090765
_cell_length_b   10.94090765
_cell_length_c   10.94090765
_cell_angle_alpha   158.76041070
_cell_angle_beta   158.76041070
_cell_angle_gamma   30.21450627
_symmetry_Int_Tables_number   1
_chemical_formula_structural   Sr3Fe2O4F3
_chemical_formula_sum   'Sr3 Fe2 O4 F3'
_cell_volume   171.77228012
_cell_formula_units_Z   1
loop_
 _symmetry_equiv_pos_site_id
 _symmetry_equiv_pos_as_xyz
  1  'x, y, z'
loop_
 _atom_site_type_symbol
 _atom_site_label
 _atom_site_symmetry_multiplicity
 _atom_site_fract_x
 _atom_site_fract_y
 _atom_site_fract_z
 _atom_site_occupancy
  Sr  Sr0  1  0.50000000  0.50000000  0.00000000  1
  Sr  Sr1  1  0.67197900  0.67197900  0.00000000  1
  Sr  Sr2  1  0.32802100  0.32802100  0.00000000  1
  Fe  Fe0  1  0.90136100  0.90136100  0.00000000  1
  Fe  Fe1  1  0.09863900  0.09863900  0.00000000  1
  O  O0  1  0.89998300  0.39998300  0.50000000  1
  O  O1  1  0.60001700  0.10001700  0.50000000  1
  O  O2  1  0.10001700  0.60001700  0.50000000  1
  O  O3  1  0.39998300  0.89998300  0.50000000  1
  F  F0  1  0.00000000  0.00000000  0.00000000  1
  F  F1  1  0.79117000  0.79117000  0.00000000  1
  F  F2  1  0.20883000  0.20883000  0.00000000  1
loop_
_geom_bond_atom_site_label_1
_geom_bond_atom_site_label_2
_geom_bond_distance
_geom_bond_site_symmetry_2
Fe0 O0 2.016520 1_565
Fe0 O3 2.016520 1_554
Fe0 O0 2.016520 1_554
Fe0 O3 2.016520 1_655
Fe1 O2 2.016520 1_555
Fe1 O1 2.016520 1_555
Fe1 O2 2.016520 1_544
Fe1 O1 2.016520 1_454
O0 Sr2 2.525199 1_656
O0 Sr2 2.525199 1_555
O0 Sr0 2.920603 1_555
O0 Sr0 2.920603 1_656
O1 Sr1 2.525199 1_556
O1 Sr1 2.525199 1_545
O1 Sr0 2.920603 1_556
O1 Sr0 2.920603 1_545
O2 Sr1 2.525199 1_455
O2 Sr1 2.525199 1_556
O2 Sr0 2.920603 1_455
O2 Sr0 2.920603 1_556
O3 Sr2 2.525199 1_566
O3 Sr2 2.525199 1_555
O3 Sr0 2.920603 1_555
O3 Sr0 2.920603 1_566
F0 Fe1 2.083805 1_555
F0 Fe0 2.083805 1_445
F0 Sr0 2.851493 1_444
F0 Sr0 2.851493 1_545
F0 Sr0 2.851493 1_455
F0 Sr0 2.851493 1_556
F1 Fe0 2.327848 1_555
F1 Sr1 2.517978 1_555
F1 Sr2 2.955854 1_554
F1 Sr2 2.955854 1_565
F1 Sr2 2.955854 1_666
F1 Sr2 2.955854 1_655
F2 Fe1 2.327848 1_555
F2 Sr2 2.517978 1_555
F2 Sr1 2.955854 1_556
F2 Sr1 2.955854 1_444
F2 Sr1 2.955854 1_455
F2 Sr1 2.955854 1_545
