# generated using pymatgen
data_Li3Co2(GeO4)3
_symmetry_space_group_name_H-M   'P 1'
_cell_length_a   10.27259935
_cell_length_b   10.27259935
_cell_length_c   10.27259935
_cell_angle_alpha   109.47122063
_cell_angle_beta   109.47122063
_cell_angle_gamma   109.47122063
_symmetry_Int_Tables_number   1
_chemical_formula_structural   Li3Co2(GeO4)3
_chemical_formula_sum   'Li12 Co8 Ge12 O48'
_cell_volume   834.48620129
_cell_formula_units_Z   4
loop_
 _symmetry_equiv_pos_site_id
 _symmetry_equiv_pos_as_xyz
  1  'x, y, z'
loop_
 _atom_site_type_symbol
 _atom_site_label
 _atom_site_symmetry_multiplicity
 _atom_site_fract_x
 _atom_site_fract_y
 _atom_site_fract_z
 _atom_site_occupancy
  Li  Li0  1  0.75000000  0.62500000  0.87500000  1
  Li  Li1  1  0.25000000  0.87500000  0.62500000  1
  Li  Li2  1  0.62500000  0.25000000  0.87500000  1
  Li  Li3  1  0.87500000  0.75000000  0.62500000  1
  Li  Li4  1  0.87500000  0.62500000  0.25000000  1
  Li  Li5  1  0.62500000  0.87500000  0.75000000  1
  Li  Li6  1  0.25000000  0.37500000  0.12500000  1
  Li  Li7  1  0.75000000  0.12500000  0.37500000  1
  Li  Li8  1  0.37500000  0.75000000  0.12500000  1
  Li  Li9  1  0.12500000  0.25000000  0.37500000  1
  Li  Li10  1  0.12500000  0.37500000  0.75000000  1
  Li  Li11  1  0.37500000  0.12500000  0.25000000  1
  Co  Co0  1  0.50000000  0.00000000  0.50000000  1
  Co  Co1  1  0.00000000  0.50000000  0.00000000  1
  Co  Co2  1  0.50000000  0.50000000  0.50000000  1
  Co  Co3  1  0.00000000  0.00000000  0.50000000  1
  Co  Co4  1  0.00000000  0.00000000  0.00000000  1
  Co  Co5  1  0.00000000  0.50000000  0.50000000  1
  Co  Co6  1  0.50000000  0.50000000  0.00000000  1
  Co  Co7  1  0.50000000  0.00000000  0.00000000  1
  Ge  Ge0  1  0.37500000  0.62500000  0.75000000  1
  Ge  Ge1  1  0.62500000  0.37500000  0.25000000  1
  Ge  Ge2  1  0.62500000  0.75000000  0.37500000  1
  Ge  Ge3  1  0.25000000  0.12500000  0.87500000  1
  Ge  Ge4  1  0.87500000  0.25000000  0.12500000  1
  Ge  Ge5  1  0.75000000  0.37500000  0.62500000  1
  Ge  Ge6  1  0.25000000  0.62500000  0.37500000  1
  Ge  Ge7  1  0.75000000  0.87500000  0.12500000  1
  Ge  Ge8  1  0.12500000  0.75000000  0.87500000  1
  Ge  Ge9  1  0.37500000  0.25000000  0.62500000  1
  Ge  Ge10  1  0.87500000  0.12500000  0.75000000  1
  Ge  Ge11  1  0.12500000  0.87500000  0.25000000  1
  O  O0  1  0.52177200  0.40362600  0.82443600  1
  O  O1  1  0.82443600  0.52177200  0.40362600  1
  O  O2  1  0.80266400  0.88185500  0.97822800  1
  O  O3  1  0.42080900  0.09637400  0.61814500  1
  O  O4  1  0.88185500  0.40362600  0.07919100  1
  O  O5  1  0.67556400  0.07919100  0.69733600  1
  O  O6  1  0.82443600  0.80266400  0.42080900  1
  O  O7  1  0.40362600  0.82443600  0.52177200  1
  O  O8  1  0.61814500  0.69733600  0.52177200  1
  O  O9  1  0.42080900  0.82443600  0.80266400  1
  O  O10  1  0.40362600  0.07919100  0.88185500  1
  O  O11  1  0.09637400  0.97822800  0.67556400  1
  O  O12  1  0.97822800  0.67556400  0.09637400  1
  O  O13  1  0.80266400  0.42080900  0.82443600  1
  O  O14  1  0.52177200  0.61814500  0.69733600  1
  O  O15  1  0.69733600  0.52177200  0.61814500  1
  O  O16  1  0.07919100  0.88185500  0.40362600  1
  O  O17  1  0.97822800  0.80266400  0.88185500  1
  O  O18  1  0.07919100  0.69733600  0.67556400  1
  O  O19  1  0.38185500  0.30266400  0.47822800  1
  O  O20  1  0.61814500  0.42080900  0.09637400  1
  O  O21  1  0.09637400  0.61814500  0.42080900  1
  O  O22  1  0.69733600  0.67556400  0.07919100  1
  O  O23  1  0.67556400  0.09637400  0.97822800  1
  O  O24  1  0.47822800  0.59637400  0.17556400  1
  O  O25  1  0.17556400  0.47822800  0.59637400  1
  O  O26  1  0.19733600  0.11814500  0.02177200  1
  O  O27  1  0.57919100  0.90362600  0.38185500  1
  O  O28  1  0.11814500  0.59637400  0.92080900  1
  O  O29  1  0.32443600  0.92080900  0.30266400  1
  O  O30  1  0.17556400  0.19733600  0.57919100  1
  O  O31  1  0.59637400  0.17556400  0.47822800  1
  O  O32  1  0.32443600  0.90362600  0.02177200  1
  O  O33  1  0.30266400  0.32443600  0.92080900  1
  O  O34  1  0.90362600  0.38185500  0.57919100  1
  O  O35  1  0.11814500  0.02177200  0.19733600  1
  O  O36  1  0.38185500  0.57919100  0.90362600  1
  O  O37  1  0.92080900  0.30266400  0.32443600  1
  O  O38  1  0.02177200  0.19733600  0.11814500  1
  O  O39  1  0.92080900  0.11814500  0.59637400  1
  O  O40  1  0.30266400  0.47822800  0.38185500  1
  O  O41  1  0.47822800  0.38185500  0.30266400  1
  O  O42  1  0.19733600  0.57919100  0.17556400  1
  O  O43  1  0.02177200  0.32443600  0.90362600  1
  O  O44  1  0.90362600  0.02177200  0.32443600  1
  O  O45  1  0.59637400  0.92080900  0.11814500  1
  O  O46  1  0.57919100  0.17556400  0.19733600  1
  O  O47  1  0.88185500  0.97822800  0.80266400  1
loop_
_geom_bond_atom_site_label_1
_geom_bond_atom_site_label_2
_geom_bond_distance
_geom_bond_site_symmetry_2
Li0 O13 2.275916 1_555
Li0 O2 2.275916 1_555
Li0 O22 2.275916 1_556
Li0 O15 2.275916 1_555
Li0 O14 2.405031 1_555
Li0 O17 2.405031 1_555
Li0 O0 2.405037 1_555
Li0 O12 2.405037 1_556
Li1 O11 2.275906 1_555
Li1 O7 2.275906 1_555
Li1 O10 2.275916 1_565
Li1 O21 2.275916 1_555
Li1 O18 2.405031 1_555
Li1 O9 2.405031 1_555
Li1 O16 2.405039 1_555
Li1 O3 2.405039 1_565
Li2 O23 2.275906 1_555
Li2 O0 2.275906 1_555
Li2 O4 2.275916 1_556
Li2 O3 2.275916 1_555
Li2 O5 2.405031 1_555
Li2 O13 2.405031 1_555
Li2 O10 2.405039 1_555
Li2 O20 2.405039 1_556
Li3 O6 2.275916 1_555
Li3 O17 2.275916 1_555
Li3 O18 2.275916 1_655
Li3 O8 2.275916 1_555
Li3 O15 2.405031 1_555
Li3 O47 2.405031 1_555
Li3 O1 2.405037 1_555
Li3 O11 2.405037 1_655
Li4 O12 2.275906 1_555
Li4 O1 2.275906 1_555
Li4 O16 2.275916 1_655
Li4 O20 2.275916 1_555
Li4 O22 2.405031 1_555
Li4 O6 2.405031 1_555
Li4 O4 2.405039 1_555
Li4 O21 2.405039 1_655
Li5 O47 2.275916 1_555
Li5 O9 2.275916 1_555
Li5 O5 2.275916 1_565
Li5 O14 2.275916 1_555
Li5 O8 2.405031 1_555
Li5 O2 2.405031 1_555
Li5 O7 2.405037 1_555
Li5 O23 2.405037 1_565
Li6 O26 2.275916 1_555
Li6 O33 2.275916 1_554
Li6 O40 2.275916 1_555
Li6 O42 2.275916 1_555
Li6 O41 2.405031 1_555
Li6 O38 2.405031 1_555
Li6 O24 2.405037 1_555
Li6 O43 2.405037 1_554
Li7 O44 2.275906 1_555
Li7 O31 2.275906 1_555
Li7 O45 2.275916 1_545
Li7 O34 2.275916 1_555
Li7 O37 2.405031 1_555
Li7 O46 2.405031 1_555
Li7 O39 2.405039 1_555
Li7 O27 2.405039 1_545
Li8 O32 2.275906 1_555
Li8 O24 2.275906 1_555
Li8 O28 2.275916 1_554
Li8 O27 2.275916 1_555
Li8 O29 2.405031 1_555
Li8 O42 2.405031 1_555
Li8 O45 2.405039 1_555
Li8 O36 2.405039 1_554
Li9 O38 2.275916 1_555
Li9 O19 2.275916 1_555
Li9 O37 2.275916 1_455
Li9 O30 2.275916 1_555
Li9 O40 2.405031 1_555
Li9 O35 2.405031 1_555
Li9 O25 2.405037 1_555
Li9 O44 2.405037 1_455
Li10 O43 2.275906 1_555
Li10 O25 2.275906 1_555
Li10 O39 2.275916 1_455
Li10 O36 2.275916 1_555
Li10 O33 2.405031 1_555
Li10 O30 2.405031 1_555
Li10 O28 2.405039 1_555
Li10 O34 2.405039 1_455
Li11 O35 2.275916 1_555
Li11 O41 2.275916 1_555
Li11 O29 2.275916 1_545
Li11 O46 2.275916 1_555
Li11 O19 2.405031 1_555
Li11 O26 2.405031 1_555
Li11 O31 2.405037 1_555
Li11 O32 2.405037 1_545
Co0 O5 1.873217 1_555
Co0 O29 1.873217 1_545
Co0 O31 1.873219 1_555
Co0 O7 1.873219 1_545
Co0 O3 1.873221 1_555
Co0 O27 1.873221 1_545
Co1 O42 1.873217 1_555
Co1 O13 1.873217 1_454
Co1 O12 1.873219 1_455
Co1 O43 1.873219 1_554
Co1 O28 1.873221 1_554
Co1 O4 1.873221 1_455
Co2 O15 1.873217 1_555
Co2 O14 1.873217 1_555
Co2 O8 1.873217 1_555
Co2 O40 1.873217 1_555
Co2 O41 1.873217 1_555
Co2 O19 1.873217 1_555
Co3 O30 1.873217 1_555
Co3 O6 1.873217 1_445
Co3 O11 1.873219 1_545
Co3 O44 1.873219 1_455
Co3 O39 1.873221 1_455
Co3 O16 1.873221 1_545
Co4 O35 1.873217 1_555
Co4 O38 1.873217 1_555
Co4 O26 1.873217 1_555
Co4 O2 1.873217 1_444
Co4 O47 1.873217 1_444
Co4 O17 1.873217 1_444
Co5 O18 1.873217 1_555
Co5 O37 1.873217 1_455
Co5 O25 1.873219 1_555
Co5 O1 1.873219 1_455
Co5 O21 1.873221 1_555
Co5 O34 1.873221 1_455
Co6 O22 1.873217 1_555
Co6 O33 1.873217 1_554
Co6 O24 1.873219 1_555
Co6 O0 1.873219 1_554
Co6 O20 1.873221 1_555
Co6 O36 1.873221 1_554
Co7 O46 1.873217 1_555
Co7 O9 1.873217 1_544
Co7 O23 1.873219 1_554
Co7 O32 1.873219 1_545
Co7 O45 1.873221 1_545
Co7 O10 1.873221 1_554
Ge0 O36 1.777644 1_555
Ge0 O25 1.777652 1_555
Ge0 O14 1.777654 1_555
Ge0 O9 1.777654 1_555
Ge1 O20 1.777644 1_555
Ge1 O1 1.777652 1_555
Ge1 O46 1.777654 1_555
Ge1 O41 1.777654 1_555
Ge2 O27 1.777644 1_555
Ge2 O24 1.777652 1_555
Ge2 O8 1.777654 1_555
Ge2 O6 1.777654 1_555
Ge3 O10 1.777644 1_555
Ge3 O11 1.777652 1_545
Ge3 O33 1.777654 1_555
Ge3 O26 1.777654 1_556
Ge4 O4 1.777644 1_555
Ge4 O23 1.777652 1_554
Ge4 O37 1.777654 1_555
Ge4 O38 1.777654 1_655
Ge5 O34 1.777644 1_555
Ge5 O31 1.777652 1_555
Ge5 O15 1.777654 1_555
Ge5 O13 1.777654 1_555
Ge6 O21 1.777644 1_555
Ge6 O7 1.777652 1_555
Ge6 O42 1.777654 1_555
Ge6 O40 1.777654 1_555
Ge7 O45 1.777644 1_555
Ge7 O44 1.777652 1_565
Ge7 O2 1.777654 1_554
Ge7 O22 1.777654 1_555
Ge8 O28 1.777644 1_555
Ge8 O32 1.777652 1_556
Ge8 O17 1.777654 1_455
Ge8 O18 1.777654 1_555
Ge9 O3 1.777644 1_555
Ge9 O0 1.777652 1_555
Ge9 O30 1.777654 1_555
Ge9 O19 1.777654 1_555
Ge10 O39 1.777644 1_555
Ge10 O43 1.777652 1_655
Ge10 O47 1.777654 1_545
Ge10 O5 1.777654 1_555
Ge11 O16 1.777644 1_555
Ge11 O12 1.777652 1_455
Ge11 O29 1.777654 1_555
Ge11 O35 1.777654 1_565
