# generated using pymatgen
data_CsB5O8
_symmetry_space_group_name_H-M   'P 1'
_cell_length_a   8.13346100
_cell_length_b   8.44862500
_cell_length_c   9.70831500
_cell_angle_alpha   90.00000000
_cell_angle_beta   90.00000000
_cell_angle_gamma   90.00000000
_symmetry_Int_Tables_number   1
_chemical_formula_structural   CsB5O8
_chemical_formula_sum   'Cs4 B20 O32'
_cell_volume   667.12202904
_cell_formula_units_Z   4
loop_
 _symmetry_equiv_pos_site_id
 _symmetry_equiv_pos_as_xyz
  1  'x, y, z'
loop_
 _atom_site_type_symbol
 _atom_site_label
 _atom_site_symmetry_multiplicity
 _atom_site_fract_x
 _atom_site_fract_y
 _atom_site_fract_z
 _atom_site_occupancy
  Cs  Cs0  1  0.53925500  0.21002100  0.25000000  1
  Cs  Cs1  1  0.03925500  0.28997900  0.25000000  1
  Cs  Cs2  1  0.46074500  0.78997900  0.75000000  1
  Cs  Cs3  1  0.96074500  0.71002100  0.75000000  1
  B  B0  1  0.08725900  0.11832300  0.75000000  1
  B  B1  1  0.58725900  0.38167700  0.75000000  1
  B  B2  1  0.91274100  0.88167700  0.25000000  1
  B  B3  1  0.41274100  0.61832300  0.25000000  1
  B  B4  1  0.27311300  0.34815300  0.63725400  1
  B  B5  1  0.77311300  0.15184700  0.86274600  1
  B  B6  1  0.72688700  0.65184700  0.13725400  1
  B  B7  1  0.22688700  0.84815300  0.36274600  1
  B  B8  1  0.72688700  0.65184700  0.36274600  1
  B  B9  1  0.22688700  0.84815300  0.13725400  1
  B  B10  1  0.27311300  0.34815300  0.86274600  1
  B  B11  1  0.77311300  0.15184700  0.63725400  1
  B  B12  1  0.24452500  0.08478700  0.52879100  1
  B  B13  1  0.74452500  0.41521300  0.97120900  1
  B  B14  1  0.75547500  0.91521300  0.02879100  1
  B  B15  1  0.25547500  0.58478700  0.47120900  1
  B  B16  1  0.75547500  0.91521300  0.47120900  1
  B  B17  1  0.25547500  0.58478700  0.02879100  1
  B  B18  1  0.24452500  0.08478700  0.97120900  1
  B  B19  1  0.74452500  0.41521300  0.52879100  1
  O  O0  1  0.34663000  0.78695000  0.25000000  1
  O  O1  1  0.84663000  0.71305000  0.25000000  1
  O  O2  1  0.65337000  0.21305000  0.75000000  1
  O  O3  1  0.15337000  0.28695000  0.75000000  1
  O  O4  1  0.31508300  0.23347200  0.53584900  1
  O  O5  1  0.81508300  0.26652800  0.96415100  1
  O  O6  1  0.68491700  0.76652800  0.03584900  1
  O  O7  1  0.18491700  0.73347200  0.46415100  1
  O  O8  1  0.68491700  0.76652800  0.46415100  1
  O  O9  1  0.18491700  0.73347200  0.03584900  1
  O  O10  1  0.31508300  0.23347200  0.96415100  1
  O  O11  1  0.81508300  0.26652800  0.53584900  1
  O  O12  1  0.13813500  0.03210900  0.62772700  1
  O  O13  1  0.63813500  0.46789100  0.87227300  1
  O  O14  1  0.86186500  0.96789100  0.12772700  1
  O  O15  1  0.36186500  0.53210900  0.37227300  1
  O  O16  1  0.86186500  0.96789100  0.37227300  1
  O  O17  1  0.36186500  0.53210900  0.12772700  1
  O  O18  1  0.13813500  0.03210900  0.87227300  1
  O  O19  1  0.63813500  0.46789100  0.62772700  1
  O  O20  1  0.09690100  0.87718500  0.25000000  1
  O  O21  1  0.59690100  0.62281500  0.25000000  1
  O  O22  1  0.90309900  0.12281500  0.75000000  1
  O  O23  1  0.40309900  0.37718500  0.75000000  1
  O  O24  1  0.28695300  0.99596200  0.41577600  1
  O  O25  1  0.78695300  0.50403800  0.08422400  1
  O  O26  1  0.71304700  0.00403800  0.91577600  1
  O  O27  1  0.21304700  0.49596200  0.58422400  1
  O  O28  1  0.71304700  0.00403800  0.58422400  1
  O  O29  1  0.21304700  0.49596200  0.91577600  1
  O  O30  1  0.28695300  0.99596200  0.08422400  1
  O  O31  1  0.78695300  0.50403800  0.41577600  1
loop_
_geom_bond_atom_site_label_1
_geom_bond_atom_site_label_2
_geom_bond_distance
_geom_bond_site_symmetry_2
Cs0 O30 3.173632 1_545
Cs0 O24 3.173632 1_545
Cs0 O17 3.300865 1_555
Cs0 O15 3.300865 1_555
Cs0 O10 3.326395 1_554
Cs0 O4 3.326395 1_555
Cs1 O31 3.173632 1_455
Cs1 O25 3.173632 1_455
Cs1 O14 3.300865 1_445
Cs1 O16 3.300865 1_445
Cs1 O11 3.326395 1_455
Cs1 O5 3.326395 1_454
Cs2 O28 3.173632 1_565
Cs2 O26 3.173632 1_565
Cs2 O19 3.300865 1_555
Cs2 O13 3.300865 1_555
Cs2 O8 3.326395 1_555
Cs2 O6 3.326395 1_556
Cs3 O29 3.173632 1_655
Cs3 O27 3.173632 1_655
Cs3 O18 3.300865 1_665
Cs3 O12 3.300865 1_665
Cs3 O9 3.326395 1_656
Cs3 O7 3.326395 1_655
B0 O18 1.452895 1_555
B0 O12 1.452895 1_555
B0 O22 1.498339 1_455
B0 O3 1.522763 1_555
B1 O13 1.452895 1_555
B1 O19 1.452895 1_555
B1 O23 1.498339 1_555
B1 O2 1.522763 1_555
B2 O14 1.452895 1_555
B2 O16 1.452895 1_555
B2 O20 1.498339 1_655
B2 O1 1.522763 1_555
B3 O17 1.452895 1_555
B3 O15 1.452895 1_555
B3 O21 1.498339 1_555
B3 O0 1.522763 1_555
B4 O4 1.422840 1_555
B4 O27 1.436380 1_555
B4 O23 1.541429 1_555
B4 O3 1.553703 1_555
B5 O5 1.422840 1_555
B5 O26 1.436380 1_555
B5 O22 1.541429 1_555
B5 O2 1.553703 1_555
B6 O6 1.422840 1_555
B6 O25 1.436380 1_555
B6 O21 1.541429 1_555
B6 O1 1.553703 1_555
B7 O7 1.422840 1_555
B7 O24 1.436380 1_555
B7 O20 1.541429 1_555
B7 O0 1.553703 1_555
B8 O8 1.422840 1_555
B8 O31 1.436380 1_555
B8 O21 1.541429 1_555
B8 O1 1.553703 1_555
B9 O9 1.422840 1_555
B9 O30 1.436380 1_555
B9 O20 1.541429 1_555
B9 O0 1.553703 1_555
B10 O10 1.422840 1_555
B10 O29 1.436380 1_555
B10 O23 1.541429 1_555
B10 O3 1.553703 1_555
B11 O11 1.422840 1_555
B11 O28 1.436380 1_555
B11 O22 1.541429 1_555
B11 O2 1.553703 1_555
B12 O12 1.367266 1_555
B12 O24 1.373344 1_545
B12 O4 1.382762 1_555
B13 O13 1.367266 1_555
B13 O25 1.373344 1_556
B13 O5 1.382762 1_555
B14 O14 1.367266 1_555
B14 O26 1.373344 1_564
B14 O6 1.382762 1_555
B15 O15 1.367266 1_555
B15 O27 1.373344 1_555
B15 O7 1.382762 1_555
B16 O16 1.367266 1_555
B16 O28 1.373344 1_565
B16 O8 1.382762 1_555
B17 O17 1.367266 1_555
B17 O29 1.373344 1_554
B17 O9 1.382762 1_555
B18 O18 1.367266 1_555
B18 O30 1.373344 1_546
B18 O10 1.382762 1_555
B19 O19 1.367266 1_555
B19 O31 1.373344 1_555
B19 O11 1.382762 1_555
