# generated using pymatgen
data_MgMn2(P2O7)2
_symmetry_space_group_name_H-M   'P 1'
_cell_length_a   5.06187997
_cell_length_b   6.95690219
_cell_length_c   8.90781305
_cell_angle_alpha   112.69996113
_cell_angle_beta   94.94759707
_cell_angle_gamma   106.27177773
_symmetry_Int_Tables_number   1
_chemical_formula_structural   MgMn2(P2O7)2
_chemical_formula_sum   'Mg1 Mn2 P4 O14'
_cell_volume   271.02397800
_cell_formula_units_Z   1
loop_
 _symmetry_equiv_pos_site_id
 _symmetry_equiv_pos_as_xyz
  1  'x, y, z'
loop_
 _atom_site_type_symbol
 _atom_site_label
 _atom_site_symmetry_multiplicity
 _atom_site_fract_x
 _atom_site_fract_y
 _atom_site_fract_z
 _atom_site_occupancy
  Mg  Mg0  1  0.36067100  0.23455300  0.75338400  1
  Mn  Mn0  1  0.10284700  0.60916100  0.34924800  1
  Mn  Mn1  1  0.90420400  0.40167900  0.62629200  1
  P  P0  1  0.23399700  0.13254500  0.37610000  1
  P  P1  1  0.58698700  0.68778500  0.87313400  1
  P  P2  1  0.43047000  0.31628300  0.13442600  1
  P  P3  1  0.75813800  0.84417400  0.61224000  1
  O  O0  1  0.07398200  0.89686000  0.33644500  1
  O  O1  1  0.06319900  0.29566600  0.42570100  1
  O  O2  1  0.28134600  0.52113800  0.77528100  1
  O  O3  1  0.22117700  0.44410600  0.15969300  1
  O  O4  1  0.39792500  0.18042800  0.95040000  1
  O  O5  1  0.48065300  0.76843400  0.49208100  1
  O  O6  1  0.68674900  0.85082200  0.78548100  1
  O  O7  1  0.34021300  0.14197300  0.21658800  1
  O  O8  1  0.49333300  0.22227600  0.52636800  1
  O  O9  1  0.62615400  0.81842400  0.05310600  1
  O  O10  1  0.75879700  0.52080900  0.82644500  1
  O  O11  1  0.72643700  0.46735400  0.22872400  1
  O  O12  1  0.93322500  0.68593100  0.56248300  1
  O  O13  1  0.93949600  0.08460200  0.65860200  1
loop_
_geom_bond_atom_site_label_1
_geom_bond_atom_site_label_2
_geom_bond_distance
_geom_bond_site_symmetry_2
Mg0 O4 1.936503 1_555
Mg0 O13 2.027232 1_455
Mg0 O2 2.082372 1_555
Mg0 O8 2.163483 1_555
Mg0 O10 2.230513 1_555
Mn0 O11 1.879508 1_455
Mn0 O3 1.895211 1_555
Mn0 O5 1.951566 1_555
Mn0 O0 2.092251 1_555
Mn0 O12 2.094205 1_455
Mn0 O1 2.487026 1_555
Mn1 O10 1.958359 1_555
Mn1 O2 1.979677 1_655
Mn1 O1 1.986953 1_655
Mn1 O8 2.011001 1_555
Mn1 O12 2.230326 1_555
Mn1 O13 2.383819 1_555
O0 P0 1.492865 1_565
O1 P0 1.568183 1_555
O2 P1 1.574719 1_555
O3 P2 1.542199 1_555
O4 P2 1.509303 1_556
O5 P3 1.512226 1_555
O6 P3 1.601453 1_555
O6 P1 1.606764 1_555
O7 P0 1.579962 1_555
O7 P2 1.627000 1_555
O8 P0 1.580332 1_555
O9 P1 1.468017 1_554
O10 P1 1.591967 1_555
O11 P2 1.507920 1_555
O12 P3 1.559416 1_555
O13 P3 1.533621 1_545
