# generated using pymatgen
data_ZnH8(NO2)6
_symmetry_space_group_name_H-M   'P 1'
_cell_length_a   7.80736400
_cell_length_b   12.46021577
_cell_length_c   13.24948946
_cell_angle_alpha   101.31537245
_cell_angle_beta   94.50701000
_cell_angle_gamma   107.11560315
_symmetry_Int_Tables_number   1
_chemical_formula_structural   ZnH8(NO2)6
_chemical_formula_sum   'Zn4 H32 N24 O48'
_cell_volume   1195.05296670
_cell_formula_units_Z   4
loop_
 _symmetry_equiv_pos_site_id
 _symmetry_equiv_pos_as_xyz
  1  'x, y, z'
loop_
 _atom_site_type_symbol
 _atom_site_label
 _atom_site_symmetry_multiplicity
 _atom_site_fract_x
 _atom_site_fract_y
 _atom_site_fract_z
 _atom_site_occupancy
  Zn  Zn0  1  0.90288000  0.20605600  0.25724800  1
  Zn  Zn1  1  0.09712000  0.79394400  0.74275200  1
  Zn  Zn2  1  0.44552800  0.66180600  0.24075100  1
  Zn  Zn3  1  0.55447200  0.33819400  0.75924900  1
  H  H0  1  0.83930100  0.50982600  0.41274700  1
  H  H1  1  0.16069900  0.49017400  0.58725300  1
  H  H2  1  0.69002400  0.58306600  0.42564200  1
  H  H3  1  0.30997600  0.41693400  0.57435800  1
  H  H4  1  0.61368300  0.43938300  0.40958500  1
  H  H5  1  0.38631700  0.56061700  0.59041500  1
  H  H6  1  0.68705700  0.49622700  0.30927300  1
  H  H7  1  0.31294300  0.50377300  0.69072700  1
  H  H8  1  0.89509100  0.58150200  0.12464800  1
  H  H9  1  0.10490900  0.41849800  0.87535200  1
  H  H10  1  0.82561400  0.64907400  0.03945200  1
  H  H11  1  0.17438600  0.35092600  0.96054800  1
  H  H12  1  0.91555300  0.72517000  0.16155700  1
  H  H13  1  0.08444700  0.27483000  0.83844300  1
  H  H14  1  0.04820300  0.68143900  0.08091500  1
  H  H15  1  0.95179700  0.31856100  0.91908500  1
  H  H16  1  0.23183000  0.99289200  0.03132400  1
  H  H17  1  0.76817000  0.00710800  0.96867600  1
  H  H18  1  0.17122400  0.10441400  0.09120600  1
  H  H19  1  0.82877600  0.89558600  0.90879400  1
  H  H20  1  0.30512400  0.11910600  0.99487300  1
  H  H21  1  0.69487600  0.88089400  0.00512700  1
  H  H22  1  0.38866300  0.10444600  0.11248800  1
  H  H23  1  0.61133700  0.89555400  0.88751200  1
  H  H24  1  0.21160000  0.96661700  0.41598300  1
  H  H25  1  0.78840000  0.03338300  0.58401700  1
  H  H26  1  0.19202400  0.82409500  0.38157400  1
  H  H27  1  0.80797600  0.17590500  0.61842600  1
  H  H28  1  0.04538400  0.86961900  0.45321200  1
  H  H29  1  0.95461600  0.13038100  0.54678800  1
  H  H30  1  0.26394100  0.89752000  0.50561300  1
  H  H31  1  0.73605900  0.10248000  0.49438700  1
  N  N0  1  0.70840600  0.50683300  0.38894300  1
  N  N1  1  0.29159400  0.49316700  0.61105700  1
  N  N2  1  0.92051200  0.65937300  0.10254600  1
  N  N3  1  0.07948800  0.34062700  0.89745400  1
  N  N4  1  0.27346700  0.08116400  0.05702800  1
  N  N5  1  0.72653300  0.91883600  0.94297200  1
  N  N6  1  0.17931200  0.88962500  0.43841000  1
  N  N7  1  0.82068800  0.11037500  0.56159000  1
  N  N8  1  0.26452000  0.30144700  0.36143700  1
  N  N9  1  0.73548000  0.69855300  0.63856300  1
  N  N10  1  0.90279000  0.34942100  0.13638600  1
  N  N11  1  0.09721000  0.65057900  0.86361400  1
  N  N12  1  0.56718000  0.12040000  0.29651000  1
  N  N13  1  0.43282000  0.87960000  0.70349000  1
  N  N14  1  0.97144600  0.98779000  0.21885100  1
  N  N15  1  0.02855400  0.01221000  0.78114900  1
  N  N16  1  0.68641500  0.82384000  0.40256500  1
  N  N17  1  0.31358500  0.17616000  0.59743500  1
  N  N18  1  0.19930500  0.59714800  0.36811900  1
  N  N19  1  0.80069500  0.40285200  0.63188100  1
  N  N20  1  0.43088200  0.46505700  0.11610900  1
  N  N21  1  0.56911800  0.53494300  0.88389100  1
  N  N22  1  0.45080700  0.81530200  0.11283200  1
  N  N23  1  0.54919300  0.18469800  0.88716800  1
  O  O0  1  0.29188900  0.28355500  0.26905700  1
  O  O1  1  0.70811100  0.71644500  0.73094300  1
  O  O2  1  0.09989100  0.27828900  0.38325100  1
  O  O3  1  0.90010900  0.72171100  0.61674900  1
  O  O4  1  0.39149700  0.34233700  0.43712800  1
  O  O5  1  0.60850300  0.65766300  0.56287200  1
  O  O6  1  0.87659800  0.36553900  0.23288900  1
  O  O7  1  0.12340200  0.63446100  0.76711100  1
  O  O8  1  0.94195200  0.25891100  0.09942200  1
  O  O9  1  0.05804800  0.74108900  0.90057800  1
  O  O10  1  0.88961900  0.41915700  0.08331300  1
  O  O11  1  0.11038100  0.58084300  0.91668700  1
  O  O12  1  0.59444500  0.12876000  0.20327700  1
  O  O13  1  0.40555500  0.87124000  0.79672300  1
  O  O14  1  0.71045800  0.16340600  0.36579900  1
  O  O15  1  0.28954200  0.83659400  0.63420100  1
  O  O16  1  0.41644200  0.07445500  0.31804900  1
  O  O17  1  0.58355800  0.92554500  0.68195100  1
  O  O18  1  0.94421000  0.99805600  0.31066200  1
  O  O19  1  0.05579000  0.00194400  0.68933800  1
  O  O20  1  0.95277100  0.06713900  0.16919000  1
  O  O21  1  0.04722900  0.93286100  0.83081000  1
  O  O22  1  0.01719900  0.90720700  0.16894900  1
  O  O23  1  0.98280100  0.09279300  0.83105100  1
  O  O24  1  0.54646700  0.85321600  0.39556900  1
  O  O25  1  0.45353300  0.14678400  0.60443100  1
  O  O26  1  0.69531400  0.73611900  0.33307800  1
  O  O27  1  0.30468600  0.26388100  0.66692200  1
  O  O28  1  0.81756400  0.87452000  0.47325200  1
  O  O29  1  0.18243600  0.12548000  0.52674800  1
  O  O30  1  0.34712800  0.57320600  0.35331900  1
  O  O31  1  0.65287200  0.42679400  0.64668100  1
  O  O32  1  0.15190000  0.65827000  0.31193400  1
  O  O33  1  0.84810000  0.34173000  0.68806600  1
  O  O34  1  0.11065700  0.56099200  0.43518700  1
  O  O35  1  0.88934300  0.43900800  0.56481300  1
  O  O36  1  0.29698100  0.50423600  0.11458100  1
  O  O37  1  0.70301900  0.49576400  0.88541900  1
  O  O38  1  0.57544500  0.52975200  0.17931200  1
  O  O39  1  0.42455500  0.47024800  0.82068800  1
  O  O40  1  0.42325600  0.37157400  0.05927200  1
  O  O41  1  0.57674400  0.62842600  0.94072800  1
  O  O42  1  0.61183300  0.81317800  0.12377700  1
  O  O43  1  0.38816700  0.18682200  0.87622300  1
  O  O44  1  0.33495700  0.75399300  0.16220200  1
  O  O45  1  0.66504300  0.24600700  0.83779800  1
  O  O46  1  0.39856400  0.87220200  0.05744400  1
  O  O47  1  0.60143600  0.12779800  0.94255600  1
loop_
_geom_bond_atom_site_label_1
_geom_bond_atom_site_label_2
_geom_bond_distance
_geom_bond_site_symmetry_2
H0 N0 1.033213 1_555
H1 N1 1.033213 1_555
H2 N0 1.034050 1_555
H3 N1 1.034050 1_555
H4 N0 1.041253 1_555
H5 N1 1.041253 1_555
H6 N0 1.031577 1_555
H7 N1 1.031577 1_555
H8 N2 1.036289 1_555
H9 N3 1.036289 1_555
H10 N2 1.033846 1_555
H11 N3 1.033846 1_555
H12 N2 1.028035 1_555
H13 N3 1.028035 1_555
H14 N2 1.032518 1_455
H15 N3 1.032518 1_655
H16 N4 1.027895 1_565
H17 N5 1.027895 1_545
H18 N4 1.033265 1_555
H19 N5 1.033265 1_555
H20 N4 1.038641 1_556
H21 N5 1.038641 1_554
H22 N4 1.044942 1_555
H23 N5 1.044942 1_555
H24 N6 1.026383 1_555
H25 N7 1.026383 1_555
H26 N6 1.030431 1_555
H27 N7 1.030431 1_555
H28 N6 1.044953 1_555
H29 N7 1.044953 1_555
H30 N6 1.036325 1_555
H31 N7 1.036325 1_555
N8 O0 1.247225 1_555
N8 O4 1.262560 1_555
N8 O2 1.300635 1_555
N9 O1 1.247225 1_555
N9 O5 1.262560 1_555
N9 O3 1.300635 1_555
N10 O10 1.241405 1_555
N10 O8 1.270814 1_555
N10 O6 1.296728 1_555
N11 O11 1.241405 1_555
N11 O9 1.270814 1_555
N11 O7 1.296728 1_555
N12 O16 1.230662 1_555
N12 O12 1.288749 1_555
N12 O14 1.293832 1_555
N13 O17 1.230662 1_555
N13 O13 1.288749 1_555
N13 O15 1.293832 1_555
N14 O18 1.239729 1_555
N14 O22 1.249259 1_655
N14 O20 1.325443 1_565
N15 O19 1.239729 1_555
N15 O23 1.249259 1_455
N15 O21 1.325443 1_545
N16 O28 1.249388 1_555
N16 O24 1.252677 1_555
N16 O26 1.306526 1_555
N17 O29 1.249388 1_555
N17 O25 1.252677 1_555
N17 O27 1.306526 1_555
N18 O34 1.241709 1_555
N18 O32 1.271322 1_555
N18 O30 1.294094 1_555
N19 O35 1.241709 1_555
N19 O33 1.271322 1_555
N19 O31 1.294094 1_555
N20 O40 1.239096 1_555
N20 O36 1.277718 1_555
N20 O38 1.294592 1_555
N21 O41 1.239096 1_555
N21 O37 1.277718 1_555
N21 O39 1.294592 1_555
N22 O46 1.238922 1_555
N22 O42 1.262811 1_555
N22 O44 1.308408 1_555
N23 O47 1.238922 1_555
N23 O43 1.262811 1_555
N23 O45 1.308408 1_555
O2 Zn0 2.038385 1_455
O3 Zn1 2.038385 1_655
O6 Zn0 2.139271 1_555
O7 Zn1 2.139271 1_555
O8 Zn0 2.328514 1_555
O9 Zn1 2.328514 1_555
O12 Zn0 2.309051 1_555
O13 Zn1 2.309051 1_555
O14 Zn0 2.185747 1_555
O15 Zn1 2.185747 1_555
O20 Zn0 2.045699 1_555
O21 Zn1 2.045699 1_555
O26 Zn2 2.067531 1_555
O27 Zn3 2.067531 1_555
O30 Zn2 2.088168 1_555
O31 Zn3 2.088168 1_555
O36 Zn2 2.249762 1_555
O37 Zn3 2.249762 1_555
O38 Zn2 2.232799 1_555
O39 Zn3 2.232799 1_555
O44 Zn2 2.014792 1_555
O45 Zn3 2.014792 1_555
