# generated using pymatgen
data_Li3BiN2
_symmetry_space_group_name_H-M   'P 1'
_cell_length_a   9.33182300
_cell_length_b   10.77546077
_cell_length_c   10.77546022
_cell_angle_alpha   90.00000055
_cell_angle_beta   125.26439060
_cell_angle_gamma   54.73561146
_symmetry_Int_Tables_number   1
_chemical_formula_structural   Li3BiN2
_chemical_formula_sum   'Li24 Bi8 N16'
_cell_volume   625.57235745
_cell_formula_units_Z   8
loop_
 _symmetry_equiv_pos_site_id
 _symmetry_equiv_pos_as_xyz
  1  'x, y, z'
loop_
 _atom_site_type_symbol
 _atom_site_label
 _atom_site_symmetry_multiplicity
 _atom_site_fract_x
 _atom_site_fract_y
 _atom_site_fract_z
 _atom_site_occupancy
  Li  Li0  1  0.21873000  0.04557400  0.01029500  1
  Li  Li1  1  0.78127000  0.76430400  0.48970500  1
  Li  Li2  1  0.78127000  0.45442600  0.79156500  1
  Li  Li3  1  0.21873000  0.73569600  0.70843500  1
  Li  Li4  1  0.19814000  0.79156500  0.25400900  1
  Li  Li5  1  0.80186000  0.70843500  0.05586900  1
  Li  Li6  1  0.19814000  0.01029500  0.44413100  1
  Li  Li7  1  0.80186000  0.48970500  0.24599100  1
  Li  Li8  1  0.69012200  0.05586900  0.73569600  1
  Li  Li9  1  0.69012200  0.25400900  0.45442600  1
  Li  Li10  1  0.30987800  0.24599100  0.76430400  1
  Li  Li11  1  0.30987800  0.44413100  0.04557400  1
  Li  Li12  1  0.78127000  0.95442600  0.98970500  1
  Li  Li13  1  0.21873000  0.23569600  0.51029500  1
  Li  Li14  1  0.21873000  0.54557400  0.20843500  1
  Li  Li15  1  0.78127000  0.26430400  0.29156500  1
  Li  Li16  1  0.80186000  0.20843500  0.74599100  1
  Li  Li17  1  0.19814000  0.29156500  0.94413100  1
  Li  Li18  1  0.80186000  0.98970500  0.55586900  1
  Li  Li19  1  0.19814000  0.51029500  0.75400900  1
  Li  Li20  1  0.30987800  0.94413100  0.26430400  1
  Li  Li21  1  0.30987800  0.74599100  0.54557400  1
  Li  Li22  1  0.69012200  0.75400900  0.23569600  1
  Li  Li23  1  0.69012200  0.55586900  0.95442600  1
  Bi  Bi0  1  0.26162200  0.00000000  0.76162200  1
  Bi  Bi1  1  0.73837800  0.76162200  0.73837800  1
  Bi  Bi2  1  0.73837800  0.50000000  0.50000000  1
  Bi  Bi3  1  0.26162200  0.73837800  0.00000000  1
  Bi  Bi4  1  0.73837800  0.00000000  0.23837800  1
  Bi  Bi5  1  0.26162200  0.23837800  0.26162200  1
  Bi  Bi6  1  0.26162200  0.50000000  0.50000000  1
  Bi  Bi7  1  0.73837800  0.26162200  0.00000000  1
  N  N0  1  0.00000000  0.00000000  0.50000000  1
  N  N1  1  0.00000000  0.50000000  0.00000000  1
  N  N2  1  0.00000000  0.50000000  0.50000000  1
  N  N3  1  0.00000000  0.00000000  0.00000000  1
  N  N4  1  0.50000000  0.01881400  0.75000000  1
  N  N5  1  0.50000000  0.48118600  0.25000000  1
  N  N6  1  0.00000000  0.25000000  0.76881400  1
  N  N7  1  0.00000000  0.75000000  0.73118600  1
  N  N8  1  0.46237200  0.76881400  0.48118600  1
  N  N9  1  0.53762800  0.73118600  0.01881400  1
  N  N10  1  0.50000000  0.98118600  0.25000000  1
  N  N11  1  0.50000000  0.51881400  0.75000000  1
  N  N12  1  0.00000000  0.75000000  0.23118600  1
  N  N13  1  0.00000000  0.25000000  0.26881400  1
  N  N14  1  0.53762800  0.23118600  0.51881400  1
  N  N15  1  0.46237200  0.26881400  0.98118600  1
loop_
_geom_bond_atom_site_label_1
_geom_bond_atom_site_label_2
_geom_bond_distance
_geom_bond_site_symmetry_2
Li0 N10 2.027582 1_545
Li0 N6 2.112978 1_554
Li0 N3 2.305588 1_555
Li1 N10 2.027582 1_555
Li1 N7 2.112978 1_655
Li1 N2 2.305588 1_655
Li2 N11 2.027582 1_555
Li2 N6 2.112978 1_655
Li2 N1 2.305588 1_656
Li3 N11 2.027582 1_555
Li3 N7 2.112978 1_555
Li3 N0 2.305588 1_565
Li4 N12 2.027582 1_555
Li4 N8 2.112978 1_555
Li4 N3 2.305587 1_565
Li5 N12 2.027582 1_655
Li5 N9 2.112978 1_555
Li5 N1 2.305588 1_655
Li6 N13 2.027582 1_555
Li6 N8 2.112978 1_545
Li6 N0 2.305588 1_555
Li7 N13 2.027582 1_655
Li7 N9 2.112978 1_555
Li7 N2 2.305587 1_655
Li8 N14 2.027582 1_555
Li8 N4 2.112978 1_555
Li8 N3 2.305588 1_656
Li9 N14 2.027582 1_555
Li9 N5 2.112978 1_555
Li9 N0 2.305588 1_655
Li10 N15 2.027582 1_555
Li10 N4 2.112978 1_555
Li10 N2 2.305588 1_555
Li11 N15 2.027582 1_554
Li11 N5 2.112978 1_555
Li11 N1 2.305588 1_555
Li12 N4 2.027582 1_565
Li12 N12 2.112978 1_656
Li12 N3 2.305588 1_666
Li13 N4 2.027582 1_555
Li13 N13 2.112978 1_555
Li13 N2 2.305588 1_555
Li14 N5 2.027582 1_555
Li14 N12 2.112978 1_555
Li14 N1 2.305588 1_555
Li15 N5 2.027582 1_555
Li15 N13 2.112978 1_655
Li15 N0 2.305588 1_655
Li16 N6 2.027582 1_655
Li16 N14 2.112978 1_555
Li16 N3 2.305587 1_656
Li17 N6 2.027582 1_555
Li17 N15 2.112978 1_555
Li17 N1 2.305588 1_556
Li18 N7 2.027582 1_655
Li18 N14 2.112978 1_565
Li18 N0 2.305588 1_665
Li19 N7 2.027582 1_555
Li19 N15 2.112978 1_555
Li19 N2 2.305587 1_555
Li20 N8 2.027582 1_555
Li20 N10 2.112978 1_555
Li20 N3 2.305588 1_565
Li21 N8 2.027582 1_555
Li21 N11 2.112978 1_555
Li21 N0 2.305588 1_565
Li22 N9 2.027582 1_555
Li22 N10 2.112978 1_555
Li22 N2 2.305588 1_655
Li23 N9 2.027582 1_556
Li23 N11 2.112978 1_555
Li23 N1 2.305588 1_656
Bi0 N9 2.418181 1_546
Bi0 N4 2.418182 1_555
Bi0 N6 2.418182 1_555
Bi0 N0 2.441410 1_555
Bi1 N8 2.418181 1_555
Bi1 N4 2.418182 1_565
Bi1 N7 2.418182 1_655
Bi1 N1 2.441410 1_656
Bi2 N5 2.418181 1_555
Bi2 N6 2.418181 1_655
Bi2 N8 2.418182 1_555
Bi2 N2 2.441410 1_655
Bi3 N7 2.418181 1_554
Bi3 N5 2.418181 1_555
Bi3 N9 2.418182 1_555
Bi3 N3 2.441410 1_565
Bi4 N15 2.418181 1_554
Bi4 N10 2.418182 1_545
Bi4 N12 2.418182 1_645
Bi4 N0 2.441410 1_655
Bi5 N14 2.418181 1_555
Bi5 N10 2.418182 1_545
Bi5 N13 2.418182 1_555
Bi5 N1 2.441410 1_555
Bi6 N11 2.418181 1_555
Bi6 N12 2.418181 1_555
Bi6 N14 2.418182 1_555
Bi6 N2 2.441410 1_555
Bi7 N13 2.418181 1_655
Bi7 N11 2.418181 1_554
Bi7 N15 2.418182 1_554
Bi7 N3 2.441410 1_655
