# generated using pymatgen
data_Mg3Si4
_symmetry_space_group_name_H-M   'P 1'
_cell_length_a   6.88043200
_cell_length_b   8.10879566
_cell_length_c   10.48358635
_cell_angle_alpha   82.15363021
_cell_angle_beta   75.66539277
_cell_angle_gamma   65.96475126
_symmetry_Int_Tables_number   1
_chemical_formula_structural   Mg3Si4
_chemical_formula_sum   'Mg12 Si16'
_cell_volume   517.13465453
_cell_formula_units_Z   4
loop_
 _symmetry_equiv_pos_site_id
 _symmetry_equiv_pos_as_xyz
  1  'x, y, z'
loop_
 _atom_site_type_symbol
 _atom_site_label
 _atom_site_symmetry_multiplicity
 _atom_site_fract_x
 _atom_site_fract_y
 _atom_site_fract_z
 _atom_site_occupancy
  Mg  Mg0  1  0.52620100  0.40826700  0.43904900  1
  Mg  Mg1  1  0.86198400  0.60081800  0.40466200  1
  Mg  Mg2  1  0.77350100  0.23508400  0.91195100  1
  Mg  Mg3  1  0.18881500  0.99055000  0.10181100  1
  Mg  Mg4  1  0.71721100  0.65899300  0.76491600  1
  Mg  Mg5  1  0.29911600  0.54677200  0.81254600  1
  Mg  Mg6  1  0.37822500  0.11219900  0.35550900  1
  Mg  Mg7  1  0.12150700  0.82160500  0.36562100  1
  Mg  Mg8  1  0.40173000  0.80084400  0.56270000  1
  Mg  Mg9  1  0.94869000  0.92207600  0.72392800  1
  Mg  Mg10  1  0.85075300  0.54171600  0.04837500  1
  Mg  Mg11  1  0.34113300  0.27602300  0.05087000  1
  Si  Si0  1  0.41703100  0.59440500  0.04464500  1
  Si  Si1  1  0.80784800  0.90697200  0.21227800  1
  Si  Si2  1  0.95604500  0.15274200  0.48806000  1
  Si  Si3  1  0.67119400  0.99464100  0.52666100  1
  Si  Si4  1  0.54200400  0.15860900  0.72457300  1
  Si  Si5  1  0.15735400  0.26167800  0.81729800  1
  Si  Si6  1  0.53849600  0.76680900  0.24161500  1
  Si  Si7  1  0.30402700  0.46086800  0.25233900  1
  Si  Si8  1  0.71134300  0.38462400  0.64336500  1
  Si  Si9  1  0.12435300  0.32769700  0.59209800  1
  Si  Si10  1  0.01271100  0.81746400  0.98819900  1
  Si  Si11  1  0.59485000  0.94501700  0.93294200  1
  Si  Si12  1  0.10827700  0.62720200  0.59167000  1
  Si  Si13  1  0.27589800  0.93073900  0.83156100  1
  Si  Si14  1  0.98484700  0.29550000  0.25424600  1
  Si  Si15  1  0.69531100  0.24307200  0.18267500  1
loop_
_geom_bond_atom_site_label_1
_geom_bond_atom_site_label_2
_geom_bond_distance
_geom_bond_site_symmetry_2
Mg0 Si7 2.659442 1_555
Mg0 Si8 2.699539 1_555
Mg0 Si12 2.884298 1_555
Mg0 Si15 2.921789 1_555
Mg0 Si2 2.962098 1_555
Mg0 Si9 3.103936 1_555
Mg0 Si14 3.107046 1_555
Mg0 Si3 3.158352 1_545
Mg1 Si14 2.834012 1_555
Mg1 Si7 2.892495 1_655
Mg1 Si6 2.915932 1_555
Mg1 Si1 2.936186 1_555
Mg1 Si12 2.969177 1_655
Mg1 Si9 3.055549 1_655
Mg1 Si8 3.067224 1_555
Mg1 Si3 3.228930 1_555
Mg2 Si5 2.667255 1_655
Mg2 Si15 2.759440 1_556
Mg2 Si8 2.970406 1_555
Mg2 Si11 3.028462 1_545
Mg2 Si4 3.076837 1_555
Mg2 Si0 3.167975 1_556
Mg2 Si10 3.191816 1_645
Mg3 Si10 2.722680 1_554
Mg3 Si14 2.789174 1_465
Mg3 Si13 2.814083 1_554
Mg3 Si11 2.822130 1_554
Mg3 Si1 2.898432 1_455
Mg3 Mg7 2.930576 1_555
Mg3 Si6 2.948329 1_555
Mg3 Si0 3.015664 1_555
Mg3 Si15 3.134635 1_465
Mg4 Si8 2.729085 1_555
Mg4 Si12 2.783523 1_655
Mg4 Si11 2.825149 1_555
Mg4 Si13 2.912574 1_555
Mg4 Si0 3.256166 1_556
Mg5 Si10 2.806330 1_555
Mg5 Si12 2.811932 1_555
Mg5 Si8 2.833202 1_555
Mg5 Si5 2.842434 1_555
Mg5 Si0 2.866599 1_556
Mg5 Si4 3.048759 1_555
Mg5 Si13 3.083461 1_555
Mg6 Si7 2.772495 1_555
Mg6 Si2 2.797305 1_455
Mg6 Si3 2.819591 1_545
Mg6 Si6 2.868946 1_545
Mg6 Si1 2.870404 1_545
Mg6 Si14 2.894276 1_455
Mg6 Si15 2.927898 1_555
Mg6 Si9 2.967861 1_555
Mg7 Si12 2.664453 1_555
Mg7 Si6 2.718709 1_555
Mg7 Si2 2.807295 1_465
Mg7 Si1 2.813910 1_455
Mg7 Si7 2.959992 1_555
Mg7 Si3 2.988989 1_455
Mg8 Si3 2.813191 1_555
Mg8 Si12 2.836708 1_555
Mg8 Si13 2.943305 1_555
Mg9 Si12 2.618780 1_655
Mg9 Si4 2.670367 1_565
Mg9 Si13 2.784789 1_655
Mg9 Si11 2.804280 1_555
Mg9 Si10 2.871857 1_655
Mg9 Si2 2.892721 1_565
Mg9 Si3 2.996048 1_555
Mg10 Si6 2.776944 1_555
Mg10 Si14 2.793638 1_555
Mg10 Si10 2.817058 1_654
Mg10 Si0 2.846772 1_555
Mg10 Si15 3.069811 1_555
Mg10 Si11 3.247061 1_554
Mg10 Si5 3.247222 1_654
Mg11 Si7 2.656778 1_555
Mg11 Si14 2.787237 1_455
Mg11 Si11 2.792952 1_544
Mg11 Si0 2.824441 1_555
Mg11 Mg3 2.846675 1_545
Mg11 Si15 2.992552 1_555
Mg11 Si5 3.056011 1_554
Si0 Si7 2.392029 1_555
Si0 Si10 2.790115 1_554
Si1 Si10 2.454517 1_654
Si1 Si6 2.481741 1_555
Si1 Si15 2.508491 1_565
Si2 Si8 2.433253 1_555
Si2 Si9 2.632387 1_655
Si2 Si3 2.675984 1_545
Si3 Si4 2.395844 1_565
Si4 Si5 2.407038 1_555
Si4 Si8 2.502678 1_555
Si5 Si9 2.394442 1_555
Si8 Si9 2.611524 1_655
Si10 Si13 2.507998 1_555
Si10 Si11 2.812492 1_455
Si11 Si4 2.598285 1_565
Si11 Si13 2.711916 1_555
Si12 Si9 2.385145 1_555
Si13 Si5 2.461046 1_565
Si14 Si15 2.495885 1_555
Si14 Si2 2.561118 1_555
Si15 Si7 2.530968 1_555
