# generated using pymatgen
data_Zn3Co2(CN)12
_symmetry_space_group_name_H-M   'P 1'
_cell_length_a   7.27034122
_cell_length_b   7.27034122
_cell_length_c   10.24344099
_cell_angle_alpha   90.00000000
_cell_angle_beta   90.00000000
_cell_angle_gamma   90.00000000
_symmetry_Int_Tables_number   1
_chemical_formula_structural   Zn3Co2(CN)12
_chemical_formula_sum   'Zn3 Co2 C12 N12'
_cell_volume   541.44638467
_cell_formula_units_Z   1
loop_
 _symmetry_equiv_pos_site_id
 _symmetry_equiv_pos_as_xyz
  1  'x, y, z'
loop_
 _atom_site_type_symbol
 _atom_site_label
 _atom_site_symmetry_multiplicity
 _atom_site_fract_x
 _atom_site_fract_y
 _atom_site_fract_z
 _atom_site_occupancy
  Zn  Zn0  1  0.50000000  0.00000000  0.24722927  1
  Zn  Zn1  1  -0.00000000  0.50000000  0.75277073  1
  Zn  Zn2  1  0.50000000  0.50000000  -0.00000000  1
  Co  Co0  1  0.50000000  0.00000000  0.74483500  1
  Co  Co1  1  -0.00000000  0.50000000  0.25516500  1
  C  C0  1  0.50000000  0.00000000  0.92598877  1
  C  C1  1  -0.00000000  0.50000000  0.43789826  1
  C  C2  1  0.18282441  0.31993707  0.24871063  1
  C  C3  1  0.68006293  0.81717559  0.75128937  1
  C  C4  1  0.81717559  0.31993707  0.24871063  1
  C  C5  1  0.31993707  0.81717559  0.75128937  1
  C  C6  1  0.50000000  0.00000000  0.56210174  1
  C  C7  1  -0.00000000  0.50000000  0.07401123  1
  C  C8  1  0.81717559  0.68006293  0.24871063  1
  C  C9  1  0.31993707  0.18282441  0.75128937  1
  C  C10  1  0.18282441  0.68006293  0.24871063  1
  C  C11  1  0.68006293  0.18282441  0.75128937  1
  N  N0  1  0.50000000  0.00000000  0.03940156  1
  N  N1  1  -0.00000000  0.50000000  0.55123095  1
  N  N2  1  0.29953208  0.21183932  0.23720497  1
  N  N3  1  0.78816068  0.70046792  0.76279503  1
  N  N4  1  0.70046792  0.21183932  0.23720497  1
  N  N5  1  0.21183932  0.70046792  0.76279503  1
  N  N6  1  0.50000000  0.00000000  0.44876905  1
  N  N7  1  -0.00000000  0.50000000  0.96059844  1
  N  N8  1  0.70046792  0.78816068  0.23720497  1
  N  N9  1  0.21183932  0.29953208  0.76279503  1
  N  N10  1  0.29953208  0.78816068  0.23720497  1
  N  N11  1  0.78816068  0.29953208  0.76279503  1
loop_
_geom_bond_atom_site_label_1
_geom_bond_atom_site_label_2
_geom_bond_distance
_geom_bond_site_symmetry_2
C0 N0 1.161737 1_556
C0 Co0 1.855638 1_555
C1 N1 1.160917 1_555
C1 Co1 1.871817 1_555
C2 N2 1.162541 1_555
C2 Co1 1.866795 1_555
C3 N3 1.162541 1_555
C3 Co0 1.866795 1_565
C4 N4 1.162541 1_555
C4 Co1 1.866795 1_655
C5 N5 1.162541 1_555
C5 Co0 1.866795 1_565
C6 N6 1.160917 1_555
C6 Co0 1.871817 1_555
C7 N7 1.161737 1_554
C7 Co1 1.855638 1_555
C8 N8 1.162541 1_555
C8 Co1 1.866795 1_655
C9 N9 1.162541 1_555
C9 Co0 1.866795 1_555
C10 N10 1.162541 1_555
C10 Co1 1.866795 1_555
C11 N11 1.162541 1_555
C11 Co0 1.866795 1_555
N0 Zn0 2.128871 1_555
N1 Zn1 2.064461 1_555
N2 Zn0 2.122924 1_555
N3 Zn1 2.122924 1_655
N4 Zn0 2.122924 1_555
N5 Zn1 2.122924 1_555
N6 Zn0 2.064461 1_555
N7 Zn1 2.128871 1_555
N8 Zn0 2.122924 1_565
N9 Zn1 2.122924 1_555
N10 Zn0 2.122924 1_565
N11 Zn1 2.122924 1_655
