# generated using pymatgen
data_Li3MnCoO5
_symmetry_space_group_name_H-M   'P 1'
_cell_length_a   5.02413000
_cell_length_b   5.13540562
_cell_length_c   7.74106291
_cell_angle_alpha   71.10016576
_cell_angle_beta   71.18386946
_cell_angle_gamma   80.52418907
_symmetry_Int_Tables_number   1
_chemical_formula_structural   Li3MnCoO5
_chemical_formula_sum   'Li6 Mn2 Co2 O10'
_cell_volume   178.45646764
_cell_formula_units_Z   2
loop_
 _symmetry_equiv_pos_site_id
 _symmetry_equiv_pos_as_xyz
  1  'x, y, z'
loop_
 _atom_site_type_symbol
 _atom_site_label
 _atom_site_symmetry_multiplicity
 _atom_site_fract_x
 _atom_site_fract_y
 _atom_site_fract_z
 _atom_site_occupancy
  Li  Li0  1  0.30056500  0.50582400  0.89415800  1
  Li  Li1  1  0.48699300  0.50039400  0.50471400  1
  Li  Li2  1  0.90612600  0.50079300  0.69132500  1
  Li  Li3  1  0.09623800  0.49097600  0.30769700  1
  Li  Li4  1  0.70477200  0.49982600  0.10218300  1
  Li  Li5  1  0.19851100  0.99688800  0.60089400  1
  Mn  Mn0  1  0.00224200  0.00137300  0.99644000  1
  Mn  Mn1  1  0.60316900  0.00269600  0.79446300  1
  Co  Co0  1  0.39954700  0.00757000  0.21245100  1
  Co  Co1  1  0.80716800  0.99011300  0.40859800  1
  O  O0  1  0.04801500  0.22349400  0.14645000  1
  O  O1  1  0.25612800  0.22513800  0.76832500  1
  O  O2  1  0.66653500  0.22130900  0.94672400  1
  O  O3  1  0.82207900  0.23328700  0.56332400  1
  O  O4  1  0.46144400  0.22979400  0.33991600  1
  O  O5  1  0.56252100  0.77237400  0.65685000  1
  O  O6  1  0.76146700  0.77155100  0.23373900  1
  O  O7  1  0.14148400  0.76161900  0.43836400  1
  O  O8  1  0.34469600  0.78461900  0.03659700  1
  O  O9  1  0.93030200  0.78036100  0.85679000  1
loop_
_geom_bond_atom_site_label_1
_geom_bond_atom_site_label_2
_geom_bond_distance
_geom_bond_site_symmetry_2
Li0 O1 2.057246 1_555
Li0 O5 2.094054 1_555
Li0 O8 2.144695 1_556
Li0 O0 2.167757 1_556
Li0 O9 2.179740 1_455
Li0 O2 2.212249 1_555
Li1 O3 2.061751 1_555
Li1 O7 2.106827 1_555
Li1 O1 2.156850 1_555
Li1 O4 2.210846 1_555
Li1 O5 2.238351 1_555
Li1 O6 2.261594 1_555
Li2 O5 2.063935 1_555
Li2 O7 2.086989 1_655
Li2 O3 2.095241 1_555
Li2 O2 2.147823 1_555
Li2 O1 2.182029 1_655
Li2 O9 2.250714 1_555
Li3 O7 2.041967 1_555
Li3 O4 2.120384 1_555
Li3 O6 2.126397 1_455
Li3 O3 2.170193 1_455
Li3 O0 2.217890 1_555
Li3 O8 2.261889 1_555
Li4 O4 2.063477 1_555
Li4 O6 2.074617 1_555
Li4 O9 2.084232 1_554
Li4 O0 2.089377 1_655
Li4 O2 2.210327 1_554
Li4 O8 2.215797 1_555
Li5 O9 2.078644 1_455
Li5 O5 2.086812 1_555
Li5 O7 2.110941 1_555
Li5 O1 2.115549 1_565
Li5 O4 2.119050 1_565
Li5 O3 2.122567 1_465
Mn0 O9 1.941508 1_445
Mn0 O2 1.943814 1_455
Mn0 O1 1.944441 1_555
Mn0 O8 1.945805 1_546
Mn0 O0 1.954294 1_556
Mn0 O6 1.965406 1_446
Mn1 O3 1.897408 1_555
Mn1 O5 1.900434 1_545
Mn1 O9 1.942804 1_545
Mn1 O1 1.951398 1_555
Mn1 O2 1.991971 1_555
Mn1 O8 2.000674 1_546
Co0 O4 1.848500 1_555
Co0 O7 1.995067 1_545
Co0 O6 2.034894 1_545
Co0 O0 2.044527 1_555
Co0 O2 2.116035 1_554
Co0 O8 2.143726 1_545
Co1 O7 1.917485 1_655
Co1 O5 1.997731 1_555
Co1 O3 2.014290 1_565
Co1 O4 2.069431 1_565
Co1 O0 2.082455 1_665
Co1 O6 2.101024 1_555
