# generated using pymatgen
data_Li24(I2N)5
_symmetry_space_group_name_H-M   'P 1'
_cell_length_a   9.40781200
_cell_length_b   9.40781200
_cell_length_c   11.57727904
_cell_angle_alpha   66.02707092
_cell_angle_beta   66.02707092
_cell_angle_gamma   90.00000000
_symmetry_Int_Tables_number   1
_chemical_formula_structural   Li24(I2N)5
_chemical_formula_sum   'Li24 I10 N5'
_cell_volume   838.62322087
_cell_formula_units_Z   1
loop_
 _symmetry_equiv_pos_site_id
 _symmetry_equiv_pos_as_xyz
  1  'x, y, z'
loop_
 _atom_site_type_symbol
 _atom_site_label
 _atom_site_symmetry_multiplicity
 _atom_site_fract_x
 _atom_site_fract_y
 _atom_site_fract_z
 _atom_site_occupancy
  Li  Li0  1  0.64667600  0.92958800  0.04256200  1
  Li  Li1  1  0.98070300  0.70882900  0.51330900  1
  Li  Li2  1  0.24401300  0.54117100  0.98669100  1
  Li  Li3  1  0.43923800  0.32041200  0.45743800  1
  Li  Li4  1  0.57720900  0.07720900  0.80753400  1
  Li  Li5  1  0.95126900  0.75984100  0.28889000  1
  Li  Li6  1  0.11525800  0.61525800  0.80753400  1
  Li  Li7  1  0.25984100  0.45126900  0.28889000  1
  Li  Li8  1  0.42958800  0.14667600  0.04256200  1
  Li  Li9  1  0.82041200  0.93923800  0.45743800  1
  Li  Li10  1  0.04117100  0.74401300  0.98669100  1
  Li  Li11  1  0.20882900  0.48070300  0.51330900  1
  Li  Li12  1  0.26929700  0.97213800  0.98669100  1
  Li  Li13  1  0.60332400  0.72215000  0.45743800  1
  Li  Li14  1  0.81076200  0.52785000  0.04256200  1
  Li  Li15  1  0.00598700  0.27786200  0.51330900  1
  Li  Li16  1  0.29873100  0.79873100  0.21111000  1
  Li  Li17  1  0.67279100  0.63474200  0.69246600  1
  Li  Li18  1  0.99015900  0.49015900  0.21111000  1
  Li  Li19  1  0.13474200  0.17279100  0.69246600  1
  Li  Li20  1  0.47213800  0.76929700  0.98669100  1
  Li  Li21  1  0.77786200  0.50598700  0.51330900  1
  Li  Li22  1  0.02785000  0.31076200  0.04256200  1
  Li  Li23  1  0.22215000  0.10332400  0.45743800  1
  I  I0  1  0.62500000  0.62500000  0.25000000  1
  I  I1  1  0.88545500  0.38545500  0.72909000  1
  I  I2  1  0.12500000  0.12500000  0.25000000  1
  I  I3  1  0.36454500  0.86454500  0.77091000  1
  I  I4  1  0.37500000  0.37500000  0.75000000  1
  I  I5  1  0.87500000  0.87500000  0.75000000  1
  I  I6  1  0.95980300  0.02231100  0.01788600  1
  I  I7  1  0.29019700  0.79019700  0.48211400  1
  I  I8  1  0.52231100  0.45980300  0.01788600  1
  I  I9  1  0.72768900  0.22768900  0.48211400  1
  N  N0  1  0.45950000  0.95950000  0.01442100  1
  N  N1  1  0.79050000  0.72392100  0.48557900  1
  N  N2  1  0.02607900  0.52607900  0.01442100  1
  N  N3  1  0.22392100  0.29050000  0.48557900  1
  N  N4  1  0.12500000  0.62500000  0.25000000  1
loop_
_geom_bond_atom_site_label_1
_geom_bond_atom_site_label_2
_geom_bond_distance
_geom_bond_site_symmetry_2
Li0 N0 1.917773 1_555
Li1 N1 1.937764 1_555
Li2 N2 1.937773 1_556
Li3 N3 1.917773 1_555
Li4 N0 1.969468 1_546
Li5 N1 2.040360 1_555
Li5 N4 2.085534 1_655
Li6 N2 1.969467 1_556
Li7 N3 2.040360 1_555
Li7 N4 2.085534 1_555
Li8 N0 1.917773 1_545
Li9 N1 1.917773 1_555
Li10 N2 1.937773 1_556
Li11 N3 1.937764 1_555
Li12 N0 1.937764 1_556
Li13 N1 1.917773 1_555
Li14 N2 1.917773 1_655
Li15 N3 1.937773 1_555
Li16 N0 2.040360 1_555
Li16 N4 2.085534 1_555
Li17 N1 1.969467 1_555
Li18 N2 2.040360 1_655
Li18 N4 2.085534 1_655
Li19 N3 1.969467 1_555
Li20 N0 1.937764 1_556
Li21 N1 1.937773 1_555
Li22 N2 1.917773 1_555
Li23 N3 1.917773 1_555
I0 Li0 2.833749 1_555
I0 Li14 2.833749 1_555
I0 Li13 2.833749 1_555
I0 Li3 2.833749 1_555
I1 Li21 2.881680 1_555
I1 Li15 2.881680 1_655
I1 Li11 2.881681 1_655
I1 Li1 2.881681 1_555
I1 Li19 3.092581 1_655
I1 Li17 3.092581 1_555
I2 Li9 2.833749 1_445
I2 Li23 2.833749 1_555
I2 Li8 2.833749 1_555
I2 Li22 2.833749 1_555
I3 Li10 2.881680 1_555
I3 Li2 2.881680 1_555
I3 Li12 2.881681 1_555
I3 Li20 2.881681 1_555
I3 Li6 3.092574 1_555
I3 Li4 3.092587 1_565
I4 Li17 3.380026 1_555
I4 Li4 3.380032 1_555
I4 Li6 3.380033 1_555
I4 Li19 3.380039 1_555
I4 Li13 3.442578 1_555
I4 Li3 3.442578 1_555
I4 Li8 3.442578 1_556
I4 Li22 3.442578 1_556
I4 Li2 3.494060 1_555
I4 Li21 3.494060 1_555
I4 Li11 3.494060 1_555
I4 Li12 3.494060 1_545
I5 Li19 3.380026 1_665
I5 Li4 3.380032 1_565
I5 Li6 3.380033 1_655
I5 Li17 3.380039 1_555
I5 Li14 3.442578 1_556
I5 Li9 3.442578 1_555
I5 Li0 3.442578 1_556
I5 Li23 3.442578 1_665
I5 Li15 3.494060 1_665
I5 Li10 3.494060 1_655
I5 Li1 3.494060 1_555
I5 Li20 3.494060 1_555
I6 Li10 2.848679 1_644
I6 Li12 2.848689 1_644
I6 Li0 2.938393 1_545
I6 Li22 2.938393 1_655
I6 Li5 3.073653 1_545
I6 Li19 3.087718 1_654
I7 Li1 2.848689 1_455
I7 Li11 2.848689 1_555
I7 Li23 2.938393 1_565
I7 Li13 2.938393 1_555
I7 Li16 3.073653 1_555
I7 Li6 3.087718 1_555
I8 Li2 2.848679 1_554
I8 Li20 2.848689 1_554
I8 Li8 2.938393 1_555
I8 Li14 2.938393 1_555
I8 Li7 3.073653 1_555
I8 Li17 3.087718 1_554
I9 Li15 2.848679 1_655
I9 Li21 2.848679 1_555
I9 Li9 2.938393 1_545
I9 Li3 2.938393 1_555
I9 Li18 3.073653 1_555
I9 Li4 3.087719 1_555
