# generated using pymatgen
data_Mg6MoW
_symmetry_space_group_name_H-M   'P 1'
_cell_length_a   4.90482700
_cell_length_b   5.71727700
_cell_length_c   10.85178800
_cell_angle_alpha   90.00000000
_cell_angle_beta   90.00000000
_cell_angle_gamma   90.00000000
_symmetry_Int_Tables_number   1
_chemical_formula_structural   Mg6MoW
_chemical_formula_sum   'Mg12 Mo2 W2'
_cell_volume   304.30860192
_cell_formula_units_Z   2
loop_
 _symmetry_equiv_pos_site_id
 _symmetry_equiv_pos_as_xyz
  1  'x, y, z'
loop_
 _atom_site_type_symbol
 _atom_site_label
 _atom_site_symmetry_multiplicity
 _atom_site_fract_x
 _atom_site_fract_y
 _atom_site_fract_z
 _atom_site_occupancy
  Mg  Mg0  1  0.50000000  0.25005000  0.42314200  1
  Mg  Mg1  1  0.50000000  0.74995000  0.42314200  1
  Mg  Mg2  1  0.00000000  0.74970700  0.08658300  1
  Mg  Mg3  1  0.00000000  0.25029300  0.08658300  1
  Mg  Mg4  1  0.00000000  0.00000000  0.31685700  1
  Mg  Mg5  1  0.00000000  0.50000000  0.31684400  1
  Mg  Mg6  1  0.50000000  0.75005000  0.92314200  1
  Mg  Mg7  1  0.50000000  0.24995000  0.92314200  1
  Mg  Mg8  1  0.00000000  0.24970700  0.58658300  1
  Mg  Mg9  1  0.00000000  0.75029300  0.58658300  1
  Mg  Mg10  1  0.00000000  0.50000000  0.81685700  1
  Mg  Mg11  1  0.00000000  0.00000000  0.81684400  1
  Mo  Mo0  1  0.50000000  0.00000000  0.17375500  1
  Mo  Mo1  1  0.50000000  0.50000000  0.67375500  1
  W  W0  1  0.50000000  0.50000000  0.17308900  1
  W  W1  1  0.50000000  0.00000000  0.67308900  1
loop_
_geom_bond_atom_site_label_1
_geom_bond_atom_site_label_2
_geom_bond_distance
_geom_bond_site_symmetry_2
Mg0 Mg1 2.858067 1_555
Mg0 Mg1 2.859210 1_545
Mg0 Mg8 3.026564 1_655
Mg0 Mg8 3.026564 1_555
Mg0 Mo0 3.060687 1_555
Mg0 Mg5 3.063835 1_555
Mg0 Mg5 3.063835 1_655
Mg0 Mg4 3.064049 1_655
Mg0 Mg4 3.064049 1_555
Mg0 W1 3.066061 1_555
Mg0 W0 3.066812 1_555
Mg0 Mo1 3.072191 1_555
Mg1 Mg9 3.026564 1_655
Mg1 Mg9 3.026564 1_555
Mg1 Mo0 3.060687 1_565
Mg1 Mg5 3.063835 1_555
Mg1 Mg5 3.063835 1_655
Mg1 Mg4 3.064049 1_565
Mg1 Mg4 3.064049 1_665
Mg1 W1 3.066061 1_565
Mg1 W0 3.066812 1_555
Mg1 Mo1 3.072191 1_555
Mg2 W0 2.988936 1_455
Mg2 W0 2.988936 1_555
Mg2 Mo0 2.992815 1_565
Mg2 Mo0 2.992815 1_465
Mg2 Mg6 3.026564 1_454
Mg2 Mg6 3.026564 1_554
Mg3 W0 2.988936 1_455
Mg3 W0 2.988936 1_555
Mg3 Mo0 2.992815 1_555
Mg3 Mo0 2.992815 1_455
Mg3 Mg7 3.026564 1_454
Mg3 Mg7 3.026564 1_554
Mg4 Mo0 2.902735 1_455
Mg4 Mo0 2.902735 1_555
Mg5 W0 2.906532 1_455
Mg5 W0 2.906532 1_555
Mg6 Mg7 2.858067 1_565
Mg6 Mg7 2.859210 1_555
Mg6 Mo1 3.060687 1_555
Mg6 W0 3.066061 1_556
Mg6 W1 3.066812 1_565
Mg6 Mo0 3.072191 1_566
Mg7 Mo1 3.060687 1_555
Mg7 W0 3.066061 1_556
Mg7 W1 3.066812 1_555
Mg7 Mo0 3.072191 1_556
Mg8 W1 2.988936 1_455
Mg8 W1 2.988936 1_555
Mg8 Mo1 2.992815 1_555
Mg8 Mo1 2.992815 1_455
Mg9 W1 2.988936 1_565
Mg9 W1 2.988936 1_465
Mg9 Mo1 2.992815 1_555
Mg9 Mo1 2.992815 1_455
Mg10 Mo1 2.902735 1_455
Mg10 Mo1 2.902735 1_555
Mg10 Mg6 3.064049 1_555
Mg10 Mg7 3.064049 1_455
Mg10 Mg7 3.064049 1_555
Mg10 Mg6 3.064049 1_455
Mg11 W1 2.906532 1_555
Mg11 W1 2.906532 1_455
Mg11 Mg7 3.063835 1_455
Mg11 Mg6 3.063835 1_545
Mg11 Mg7 3.063835 1_555
Mg11 Mg6 3.063835 1_445
Mo0 W0 2.858648 1_555
Mo0 W0 2.858648 1_545
Mo1 W1 2.858648 1_565
Mo1 W1 2.858648 1_555
