# generated using pymatgen
data_SnO2
_symmetry_space_group_name_H-M   'P 1'
_cell_length_a   10.99152488
_cell_length_b   10.70613185
_cell_length_c   10.50752532
_cell_angle_alpha   91.66163128
_cell_angle_beta   89.64943614
_cell_angle_gamma   85.96854256
_symmetry_Int_Tables_number   1
_chemical_formula_structural   SnO2
_chemical_formula_sum   'Sn30 O60'
_cell_volume   1232.87157399
_cell_formula_units_Z   30
loop_
 _symmetry_equiv_pos_site_id
 _symmetry_equiv_pos_as_xyz
  1  'x, y, z'
loop_
 _atom_site_type_symbol
 _atom_site_label
 _atom_site_symmetry_multiplicity
 _atom_site_fract_x
 _atom_site_fract_y
 _atom_site_fract_z
 _atom_site_occupancy
  Sn  Sn0  1  0.83901200  0.13208700  0.16630000  1
  Sn  Sn1  1  0.40461700  0.53059300  0.85826400  1
  Sn  Sn2  1  0.94201000  0.87526400  0.69245900  1
  Sn  Sn3  1  0.50677400  0.79704200  0.76734700  1
  Sn  Sn4  1  0.08582600  0.58775100  0.89041500  1
  Sn  Sn5  1  0.82939000  0.58761300  0.74023800  1
  Sn  Sn6  1  0.41806000  0.26033500  0.69804400  1
  Sn  Sn7  1  0.58387000  0.29304000  0.05375200  1
  Sn  Sn8  1  0.08496000  0.59664200  0.49962000  1
  Sn  Sn9  1  0.43157800  0.02488900  0.28809000  1
  Sn  Sn10  1  0.74768900  0.54249800  0.02361000  1
  Sn  Sn11  1  0.18596200  0.57109300  0.18002400  1
  Sn  Sn12  1  0.33970700  0.81536500  0.02457700  1
  Sn  Sn13  1  0.66288800  0.86962500  0.04567700  1
  Sn  Sn14  1  0.42855100  0.55692500  0.50164900  1
  Sn  Sn15  1  0.24175300  0.28849500  0.96429400  1
  Sn  Sn16  1  0.01281100  0.87225100  0.99797100  1
  Sn  Sn17  1  0.13158100  0.34176300  0.65967700  1
  Sn  Sn18  1  0.89665200  0.70074500  0.23159600  1
  Sn  Sn19  1  0.69627700  0.87677600  0.49015200  1
  Sn  Sn20  1  0.12741500  0.06784900  0.21955900  1
  Sn  Sn21  1  0.30099400  0.32389700  0.35479200  1
  Sn  Sn22  1  0.96111600  0.13998000  0.85826300  1
  Sn  Sn23  1  0.50991000  0.60997200  0.22721100  1
  Sn  Sn24  1  0.23801200  0.03076400  0.75560800  1
  Sn  Sn25  1  0.21739800  0.85521600  0.47198200  1
  Sn  Sn26  1  0.95877900  0.10444600  0.49206900  1
  Sn  Sn27  1  0.60712000  0.23335200  0.41453200  1
  Sn  Sn28  1  0.68792200  0.28935700  0.77075600  1
  Sn  Sn29  1  0.83074600  0.39118500  0.47633400  1
  O  O0  1  0.73021200  0.36411500  0.94932900  1
  O  O1  1  0.25451800  0.65211100  0.89322400  1
  O  O2  1  0.43992100  0.63045800  0.68481100  1
  O  O3  1  0.40262600  0.38067000  0.00446800  1
  O  O4  1  0.69514300  0.25746300  0.21223100  1
  O  O5  1  0.54057600  0.66513200  0.40636900  1
  O  O6  1  0.26278000  0.66333900  0.47512800  1
  O  O7  1  0.93323800  0.20870200  0.03284700  1
  O  O8  1  0.55412400  0.86004900  0.59774500  1
  O  O9  1  0.39201400  0.48789200  0.31385900  1
  O  O10  1  0.34475000  0.15832100  0.84866400  1
  O  O11  1  0.88636200  0.96507700  0.86623100  1
  O  O12  1  0.58528900  0.18704800  0.89130100  1
  O  O13  1  0.06573800  0.78078900  0.56571900  1
  O  O14  1  0.30678500  0.91838100  0.61815300  1
  O  O15  1  0.91328100  0.53286400  0.90299700  1
  O  O16  1  0.35644300  0.89818900  0.85352600  1
  O  O17  1  0.19628200  0.43298400  0.50953800  1
  O  O18  1  0.06919400  0.67410400  0.31536400  1
  O  O19  1  0.04364300  0.52958700  0.69370900  1
  O  O20  1  0.22837600  0.18003400  0.11296300  1
  O  O21  1  0.34113400  0.87820700  0.33428300  1
  O  O22  1  0.04623400  0.03656600  0.66147700  1
  O  O23  1  0.77229300  0.43132900  0.65981600  1
  O  O24  1  0.85080200  0.53170700  0.18072300  1
  O  O25  1  0.68668500  0.61910200  0.85808400  1
  O  O26  1  0.97392100  0.17449000  0.30016200  1
  O  O27  1  0.18605200  0.89851500  0.10402100  1
  O  O28  1  0.91176400  0.54931200  0.45623400  1
  O  O29  1  0.65171900  0.41549800  0.42469700  1
  O  O30  1  0.28161400  0.40301200  0.77589900  1
  O  O31  1  0.79235600  0.20521300  0.45258600  1
  O  O32  1  0.06370200  0.68466700  0.07302800  1
  O  O33  1  0.46643800  0.21932300  0.27534300  1
  O  O34  1  0.25772100  0.18840300  0.62289500  1
  O  O35  1  0.59141800  0.47741700  0.11451100  1
  O  O36  1  0.64112600  0.70447900  0.13466300  1
  O  O37  1  0.63196800  0.88610100  0.86257700  1
  O  O38  1  0.47114200  0.92332100  0.11819500  1
  O  O39  1  0.47611800  0.69180700  0.93562000  1
  O  O40  1  0.11494000  0.02129900  0.89978200  1
  O  O41  1  0.69633500  0.03577000  0.11424000  1
  O  O42  1  0.84343100  0.19345200  0.72685500  1
  O  O43  1  0.97033300  0.97869000  0.15591500  1
  O  O44  1  0.99738400  0.28664800  0.53975200  1
  O  O45  1  0.83981400  0.97244700  0.55428600  1
  O  O46  1  0.15545300  0.45777300  0.01621800  1
  O  O47  1  0.81685800  0.74670400  0.64510000  1
  O  O48  1  0.08766400  0.97712600  0.39418600  1
  O  O49  1  0.52380600  0.40483800  0.76004200  1
  O  O50  1  0.02782100  0.76468600  0.83204400  1
  O  O51  1  0.09010900  0.27233000  0.83257100  1
  O  O52  1  0.16137200  0.41156500  0.26387500  1
  O  O53  1  0.33965900  0.66716300  0.15244700  1
  O  O54  1  0.42272700  0.35411900  0.51323600  1
  O  O55  1  0.78422700  0.81834500  0.33450700  1
  O  O56  1  0.26468500  0.13368000  0.35079500  1
  O  O57  1  0.84658500  0.78830300  0.06224900  1
  O  O58  1  0.58560600  0.19674600  0.61958000  1
  O  O59  1  0.59051900  0.02967100  0.39437300  1
loop_
_geom_bond_atom_site_label_1
_geom_bond_atom_site_label_2
_geom_bond_distance
_geom_bond_site_symmetry_2
O0 Sn10 2.064068 1_556
O0 Sn28 2.086451 1_555
O0 Sn7 2.137569 1_556
O1 Sn4 2.023063 1_555
O1 Sn1 2.052431 1_555
O1 Sn12 2.437746 1_556
O2 Sn14 2.065987 1_555
O2 Sn3 2.138974 1_555
O2 Sn1 2.185891 1_555
O3 Sn15 2.123451 1_554
O3 Sn7 2.212466 1_555
O3 Sn1 2.254857 1_554
O4 Sn0 2.046934 1_555
O4 Sn7 2.100029 1_555
O4 Sn27 2.358602 1_555
O5 Sn23 1.994361 1_555
O5 Sn14 2.028127 1_555
O6 Sn25 2.080855 1_555
O6 Sn14 2.104359 1_555
O6 Sn8 2.144058 1_555
O7 Sn0 1.969817 1_555
O7 Sn22 1.970674 1_554
O8 Sn19 1.944477 1_555
O8 Sn3 2.002374 1_555
O9 Sn23 2.123477 1_555
O9 Sn21 2.134026 1_555
O9 Sn14 2.137269 1_555
O10 Sn24 2.087907 1_555
O10 Sn15 2.088836 1_555
O10 Sn6 2.134311 1_555
O11 Sn22 2.100740 1_565
O11 Sn2 2.105820 1_555
O11 Sn16 2.178227 1_655
O12 Sn7 2.021507 1_556
O12 Sn28 2.076877 1_555
O13 Sn8 2.067382 1_555
O13 Sn2 2.086226 1_455
O13 Sn25 2.143838 1_555
O14 Sn25 1.957869 1_555
O14 Sn24 1.965474 1_565
O15 Sn4 2.029226 1_655
O15 Sn5 2.029784 1_555
O15 Sn10 2.206216 1_556
O16 Sn12 2.040050 1_556
O16 Sn3 2.096707 1_555
O16 Sn24 2.146856 1_565
O17 Sn17 2.030176 1_555
O17 Sn8 2.070932 1_555
O17 Sn21 2.238414 1_555
O18 Sn18 2.100413 1_455
O18 Sn8 2.131478 1_555
O18 Sn11 2.138589 1_555
O19 Sn17 2.187808 1_555
O19 Sn4 2.202833 1_555
O19 Sn8 2.236106 1_555
O19 Sn5 2.435861 1_455
O20 Sn15 1.984108 1_554
O20 Sn20 2.044207 1_555
O21 Sn9 1.986911 1_565
O21 Sn25 2.011818 1_555
O22 Sn26 2.149072 1_455
O22 Sn2 2.169515 1_445
O22 Sn24 2.331564 1_555
O22 Sn22 2.464661 1_455
O23 Sn5 1.994912 1_555
O23 Sn29 2.052420 1_555
O23 Sn28 2.194746 1_555
O24 Sn18 1.972391 1_555
O24 Sn10 2.009673 1_555
O25 Sn5 1.996239 1_555
O25 Sn10 2.041311 1_556
O26 Sn0 2.113410 1_555
O26 Sn20 2.126693 1_655
O26 Sn26 2.181130 1_555
O27 Sn12 2.017411 1_555
O27 Sn20 2.207799 1_565
O27 Sn16 2.242716 1_554
O28 Sn29 1.983440 1_555
O28 Sn8 2.054624 1_655
O29 Sn27 2.043893 1_555
O29 Sn29 2.045370 1_555
O30 Sn1 2.155919 1_555
O30 Sn17 2.184283 1_555
O30 Sn6 2.200497 1_555
O30 Sn15 2.412357 1_555
O31 Sn29 2.072480 1_555
O31 Sn27 2.080083 1_555
O31 Sn26 2.107100 1_555
O32 Sn11 2.101511 1_555
O32 Sn4 2.158917 1_554
O32 Sn16 2.215275 1_554
O32 Sn18 2.465480 1_455
O33 Sn27 2.144813 1_555
O33 Sn9 2.150734 1_555
O33 Sn21 2.213189 1_555
O34 Sn17 2.098581 1_555
O34 Sn6 2.120174 1_555
O34 Sn24 2.241442 1_555
O35 Sn23 1.982355 1_555
O35 Sn7 2.064364 1_555
O35 Sn10 2.129537 1_555
O36 Sn13 2.051871 1_555
O36 Sn23 2.072347 1_555
O36 Sn10 2.306790 1_555
O37 Sn13 1.966563 1_556
O37 Sn3 1.987452 1_555
O38 Sn9 2.090415 1_565
O38 Sn12 2.139349 1_555
O38 Sn13 2.266624 1_555
O39 Sn1 2.091533 1_555
O39 Sn12 2.122246 1_556
O39 Sn3 2.161206 1_555
O40 Sn24 2.034271 1_555
O40 Sn22 2.098228 1_455
O40 Sn16 2.281250 1_545
O41 Sn13 1.959353 1_545
O41 Sn0 2.006765 1_555
O42 Sn22 1.967506 1_555
O42 Sn28 1.976057 1_555
O43 Sn16 2.019126 1_654
O43 Sn0 2.108753 1_565
O43 Sn20 2.132667 1_665
O44 Sn17 2.052751 1_655
O44 Sn26 2.073292 1_555
O44 Sn29 2.195758 1_555
O45 Sn19 2.047573 1_555
O45 Sn2 2.096530 1_555
O45 Sn26 2.106490 1_565
O46 Sn15 2.043657 1_554
O46 Sn4 2.058838 1_554
O46 Sn11 2.118970 1_555
O47 Sn5 1.996698 1_555
O47 Sn2 2.066214 1_555
O47 Sn19 2.499000 1_555
O48 Sn25 2.054159 1_555
O48 Sn26 2.133566 1_465
O48 Sn20 2.157401 1_565
O49 Sn1 2.061303 1_555
O49 Sn6 2.091033 1_555
O49 Sn28 2.119485 1_555
O50 Sn16 2.060696 1_555
O50 Sn4 2.067207 1_555
O50 Sn2 2.098322 1_455
O51 Sn17 2.043663 1_555
O51 Sn22 2.095440 1_455
O51 Sn15 2.186036 1_555
O52 Sn11 1.978790 1_555
O52 Sn21 2.004033 1_555
O53 Sn11 2.061897 1_555
O53 Sn23 2.092524 1_555
O53 Sn12 2.108677 1_555
O54 Sn21 2.173397 1_555
O54 Sn14 2.183599 1_555
O54 Sn6 2.213764 1_555
O54 Sn27 2.526493 1_555
O55 Sn19 1.958781 1_555
O55 Sn18 1.991839 1_555
O56 Sn21 2.101867 1_555
O56 Sn20 2.189383 1_555
O56 Sn9 2.189989 1_555
O57 Sn18 2.093821 1_555
O57 Sn13 2.151991 1_555
O57 Sn16 2.202985 1_654
O58 Sn6 2.075389 1_555
O58 Sn28 2.204183 1_555
O58 Sn27 2.215254 1_555
O59 Sn9 2.082056 1_555
O59 Sn27 2.205214 1_555
O59 Sn19 2.210408 1_545
