# generated using pymatgen
data_NaAlCr2O10
_symmetry_space_group_name_H-M   'P 1'
_cell_length_a   7.62065286
_cell_length_b   7.62065286
_cell_length_c   10.91577453
_cell_angle_alpha   70.97746075
_cell_angle_beta   70.97746075
_cell_angle_gamma   41.74356531
_symmetry_Int_Tables_number   1
_chemical_formula_structural   NaAlCr2O10
_chemical_formula_sum   'Na2 Al2 Cr4 O20'
_cell_volume   395.55517099
_cell_formula_units_Z   2
loop_
 _symmetry_equiv_pos_site_id
 _symmetry_equiv_pos_as_xyz
  1  'x, y, z'
loop_
 _atom_site_type_symbol
 _atom_site_label
 _atom_site_symmetry_multiplicity
 _atom_site_fract_x
 _atom_site_fract_y
 _atom_site_fract_z
 _atom_site_occupancy
  Na  Na0  1  0.78435200  0.21564800  0.25000000  1
  Na  Na1  1  0.21564800  0.78435200  0.75000000  1
  Al  Al0  1  0.00000000  0.50000000  0.00000000  1
  Al  Al1  1  0.50000000  0.00000000  0.50000000  1
  Cr  Cr0  1  0.36030500  0.83973000  0.03858200  1
  Cr  Cr1  1  0.16027000  0.63969500  0.46141800  1
  Cr  Cr2  1  0.63969500  0.16027000  0.96141800  1
  Cr  Cr3  1  0.83973000  0.36030500  0.53858200  1
  O  O0  1  0.14896200  0.17787500  0.56983800  1
  O  O1  1  0.82212500  0.85103800  0.93016200  1
  O  O2  1  0.85103800  0.82212500  0.43016200  1
  O  O3  1  0.17787500  0.14896200  0.06983800  1
  O  O4  1  0.67929500  0.60285200  0.07910400  1
  O  O5  1  0.39714800  0.32070500  0.42089600  1
  O  O6  1  0.32070500  0.39714800  0.92089600  1
  O  O7  1  0.60285200  0.67929500  0.57910400  1
  O  O8  1  0.84793200  0.37491000  0.38528900  1
  O  O9  1  0.62509000  0.15206800  0.11471100  1
  O  O10  1  0.15206800  0.62509000  0.61471100  1
  O  O11  1  0.37491000  0.84793200  0.88528900  1
  O  O12  1  0.21051700  0.75514800  0.12596000  1
  O  O13  1  0.24485200  0.78948300  0.37404000  1
  O  O14  1  0.78948300  0.24485200  0.87404000  1
  O  O15  1  0.75514800  0.21051700  0.62596000  1
  O  O16  1  0.01235200  0.54783100  0.15748600  1
  O  O17  1  0.45216900  0.98764800  0.34251400  1
  O  O18  1  0.98764800  0.45216900  0.84251400  1
  O  O19  1  0.54783100  0.01235200  0.65748600  1
loop_
_geom_bond_atom_site_label_1
_geom_bond_atom_site_label_2
_geom_bond_distance
_geom_bond_site_symmetry_2
Na0 O8 2.530028 1_555
Na0 O9 2.530028 1_555
Na0 O4 2.586085 1_555
Na0 O5 2.586085 1_555
Na0 O3 2.766209 1_655
Na0 O2 2.766209 1_545
Na0 O13 2.814141 1_645
Na0 O12 2.814141 1_645
Na1 O11 2.530028 1_555
Na1 O10 2.530028 1_555
Na1 O7 2.586085 1_555
Na1 O6 2.586085 1_555
Na1 O0 2.766209 1_565
Na1 O1 2.766209 1_455
Na1 O15 2.814141 1_465
Na1 O14 2.814141 1_465
Al0 O1 1.872942 1_454
Al0 O3 1.872942 1_555
Al0 O6 1.881469 1_554
Al0 O4 1.881469 1_455
Al0 O16 1.913668 1_555
Al0 O18 1.913668 1_454
Al1 O0 1.872942 1_555
Al1 O2 1.872942 1_545
Al1 O5 1.881469 1_555
Al1 O7 1.881469 1_545
Al1 O19 1.913668 1_555
Al1 O17 1.913668 1_545
Cr0 O12 1.617294 1_555
Cr0 O11 1.623904 1_554
Cr0 O3 1.711289 1_565
Cr0 O4 1.730806 1_555
Cr1 O13 1.617294 1_555
Cr1 O10 1.623904 1_555
Cr1 O2 1.711289 1_455
Cr1 O5 1.730806 1_555
Cr2 O14 1.617294 1_555
Cr2 O9 1.623904 1_556
Cr2 O1 1.711289 1_545
Cr2 O6 1.730806 1_555
Cr3 O15 1.617294 1_555
Cr3 O8 1.623904 1_555
Cr3 O0 1.711289 1_655
Cr3 O7 1.730806 1_555
