# generated using pymatgen
data_La4Ni3WO12
_symmetry_space_group_name_H-M   'P 1'
_cell_length_a   5.56482300
_cell_length_b   5.56482300
_cell_length_c   8.08362100
_cell_angle_alpha   90.00000000
_cell_angle_beta   90.00000000
_cell_angle_gamma   90.00000000
_symmetry_Int_Tables_number   1
_chemical_formula_structural   La4Ni3WO12
_chemical_formula_sum   'La4 Ni3 W1 O12'
_cell_volume   250.32755300
_cell_formula_units_Z   1
loop_
 _symmetry_equiv_pos_site_id
 _symmetry_equiv_pos_as_xyz
  1  'x, y, z'
loop_
 _atom_site_type_symbol
 _atom_site_label
 _atom_site_symmetry_multiplicity
 _atom_site_fract_x
 _atom_site_fract_y
 _atom_site_fract_z
 _atom_site_occupancy
  La  La0  1  0.50000000  0.00000000  0.71875000  1
  La  La1  1  0.00000000  0.50000000  0.28125000  1
  La  La2  1  0.50000000  0.00000000  0.28125000  1
  La  La3  1  0.00000000  0.50000000  0.71875000  1
  Ni  Ni0  1  0.00000000  0.00000000  0.00000000  1
  Ni  Ni1  1  0.50000000  0.50000000  0.50000000  1
  Ni  Ni2  1  0.00000000  0.00000000  0.50000000  1
  W  W0  1  0.50000000  0.50000000  0.00000000  1
  O  O0  1  0.00000000  0.00000000  0.75167300  1
  O  O1  1  0.50000000  0.50000000  0.24343900  1
  O  O2  1  0.74788400  0.74788400  0.50000000  1
  O  O3  1  0.25683300  0.25683300  0.00000000  1
  O  O4  1  0.74788400  0.25211600  0.50000000  1
  O  O5  1  0.25683300  0.74316700  0.00000000  1
  O  O6  1  0.00000000  0.00000000  0.24832700  1
  O  O7  1  0.50000000  0.50000000  0.75656100  1
  O  O8  1  0.25211600  0.25211600  0.50000000  1
  O  O9  1  0.74316700  0.74316700  0.00000000  1
  O  O10  1  0.25211600  0.74788400  0.50000000  1
  O  O11  1  0.74316700  0.25683300  0.00000000  1
loop_
_geom_bond_atom_site_label_1
_geom_bond_atom_site_label_2
_geom_bond_distance
_geom_bond_site_symmetry_2
La0 O4 2.645381 1_555
La0 O8 2.645381 1_555
La0 O10 2.645381 1_545
La0 O2 2.645381 1_545
La0 O0 2.795110 1_555
La0 O0 2.795110 1_655
La0 O7 2.799149 1_555
La0 O7 2.799149 1_545
La0 O11 3.007106 1_556
La0 O9 3.007106 1_546
La0 O3 3.007106 1_556
La0 O5 3.007106 1_546
La1 O8 2.645381 1_555
La1 O10 2.645381 1_555
La1 O4 2.645381 1_455
La1 O2 2.645381 1_455
La1 O6 2.795110 1_555
La1 O6 2.795110 1_565
La1 O1 2.799149 1_555
La1 O1 2.799149 1_455
La1 O5 3.007106 1_555
La1 O9 3.007106 1_455
La1 O3 3.007106 1_555
La1 O11 3.007106 1_455
La2 O8 2.645381 1_555
La2 O10 2.645381 1_545
La2 O2 2.645381 1_545
La2 O4 2.645381 1_555
La2 O6 2.795110 1_555
La2 O6 2.795110 1_655
La2 O1 2.799149 1_555
La2 O1 2.799149 1_545
La2 O11 3.007106 1_555
La2 O9 3.007106 1_545
La2 O3 3.007106 1_555
La2 O5 3.007106 1_545
La3 O10 2.645381 1_555
La3 O4 2.645381 1_455
La3 O2 2.645381 1_455
La3 O8 2.645381 1_555
La3 O0 2.795110 1_565
La3 O0 2.795110 1_555
La3 O7 2.799149 1_455
La3 O7 2.799149 1_555
La3 O5 3.007106 1_556
La3 O9 3.007106 1_456
La3 O3 3.007106 1_556
La3 O11 3.007106 1_456
Ni0 O6 2.007381 1_555
Ni0 O0 2.007381 1_554
Ni0 O3 2.021237 1_555
Ni0 O5 2.021237 1_545
Ni0 O11 2.021237 1_455
Ni0 O9 2.021237 1_445
Ni1 O4 1.950809 1_555
Ni1 O8 1.950809 1_555
Ni1 O2 1.950809 1_555
Ni1 O10 1.950809 1_555
Ni1 O7 2.073942 1_555
Ni1 O1 2.073942 1_555
Ni2 O8 1.984115 1_555
Ni2 O10 1.984115 1_545
Ni2 O4 1.984115 1_455
Ni2 O2 1.984115 1_445
Ni2 O0 2.034429 1_555
Ni2 O6 2.034429 1_555
O1 W0 1.967869 1_555
O3 W0 1.913687 1_555
O5 W0 1.913687 1_555
O7 W0 1.967869 1_556
O9 W0 1.913687 1_555
O11 W0 1.913687 1_555
