# generated using pymatgen
data_Li2MnCoO4
_symmetry_space_group_name_H-M   'P 1'
_cell_length_a   6.07135213
_cell_length_b   6.07135213
_cell_length_c   5.43157921
_cell_angle_alpha   67.94305599
_cell_angle_beta   67.94305599
_cell_angle_gamma   55.56913805
_symmetry_Int_Tables_number   1
_chemical_formula_structural   Li2MnCoO4
_chemical_formula_sum   'Li4 Mn2 Co2 O8'
_cell_volume   149.52434529
_cell_formula_units_Z   2
loop_
 _symmetry_equiv_pos_site_id
 _symmetry_equiv_pos_as_xyz
  1  'x, y, z'
loop_
 _atom_site_type_symbol
 _atom_site_label
 _atom_site_symmetry_multiplicity
 _atom_site_fract_x
 _atom_site_fract_y
 _atom_site_fract_z
 _atom_site_occupancy
  Li  Li0  1  0.37316200  0.12324400  0.75443600  1
  Li  Li1  1  0.87675600  0.62683800  0.74556400  1
  Li  Li2  1  0.62683800  0.87675600  0.24556400  1
  Li  Li3  1  0.12324400  0.37316200  0.25443600  1
  Mn  Mn0  1  0.37275000  0.62725000  0.75000000  1
  Mn  Mn1  1  0.62725000  0.37275000  0.25000000  1
  Co  Co0  1  0.87511300  0.12488700  0.75000000  1
  Co  Co1  1  0.12488700  0.87511300  0.25000000  1
  O  O0  1  0.23471300  0.99578800  0.52448800  1
  O  O1  1  0.74350800  0.48685100  0.52504500  1
  O  O2  1  0.48685100  0.74350800  0.02504500  1
  O  O3  1  0.99578800  0.23471300  0.02448800  1
  O  O4  1  0.51314900  0.25649200  0.97495500  1
  O  O5  1  0.00421200  0.76528700  0.97551200  1
  O  O6  1  0.76528700  0.00421200  0.47551200  1
  O  O7  1  0.25649200  0.51314900  0.47495500  1
loop_
_geom_bond_atom_site_label_1
_geom_bond_atom_site_label_2
_geom_bond_distance
_geom_bond_site_symmetry_2
Li0 O3 2.080155 1_456
Li0 O2 2.090345 1_546
Li0 O7 2.149994 1_555
Li0 O6 2.157119 1_555
Li0 O4 2.254179 1_555
Li0 O0 2.261699 1_545
Li1 O6 2.080155 1_565
Li1 O7 2.090345 1_655
Li1 O2 2.149994 1_556
Li1 O3 2.157119 1_556
Li1 O1 2.254179 1_555
Li1 O5 2.261699 1_655
Li2 O5 2.080155 1_654
Li2 O4 2.090345 1_564
Li2 O1 2.149994 1_555
Li2 O0 2.157119 1_555
Li2 O2 2.254179 1_555
Li2 O6 2.261699 1_565
Li3 O0 2.080155 1_545
Li3 O1 2.090345 1_455
Li3 O4 2.149994 1_554
Li3 O5 2.157119 1_554
Li3 O7 2.254179 1_555
Li3 O3 2.261699 1_455
Mn0 O5 1.949682 1_555
Mn0 O0 1.949682 1_555
Mn0 O1 1.957880 1_555
Mn0 O4 1.957880 1_555
Mn0 O2 2.309140 1_556
Mn0 O7 2.309140 1_555
Mn1 O3 1.949682 1_555
Mn1 O6 1.949682 1_555
Mn1 O2 1.957880 1_555
Mn1 O7 1.957880 1_555
Mn1 O1 2.309140 1_555
Mn1 O4 2.309140 1_554
Co0 O5 1.912788 1_645
Co0 O0 1.912788 1_645
Co0 O1 1.921393 1_555
Co0 O4 1.921393 1_555
Co0 O6 2.307310 1_555
Co0 O3 2.307310 1_556
Co1 O6 1.912788 1_465
Co1 O3 1.912788 1_465
Co1 O2 1.921393 1_555
Co1 O7 1.921393 1_555
Co1 O0 2.307310 1_555
Co1 O5 2.307310 1_554
