# generated using pymatgen
data_HoSiPt
_symmetry_space_group_name_H-M   'P 1'
_cell_length_a   4.26986068
_cell_length_b   6.95688551
_cell_length_c   7.41075126
_cell_angle_alpha   90.00008071
_cell_angle_beta   90.00000000
_cell_angle_gamma   90.00000000
_symmetry_Int_Tables_number   1
_chemical_formula_structural   HoSiPt
_chemical_formula_sum   'Ho4 Si4 Pt4'
_cell_volume   220.13586146
_cell_formula_units_Z   4
loop_
 _symmetry_equiv_pos_site_id
 _symmetry_equiv_pos_as_xyz
  1  'x, y, z'
loop_
 _atom_site_type_symbol
 _atom_site_label
 _atom_site_symmetry_multiplicity
 _atom_site_fract_x
 _atom_site_fract_y
 _atom_site_fract_z
 _atom_site_occupancy
  Ho  Ho0  1  0.25000000  0.49655600  0.70156610  1
  Ho  Ho1  1  0.25000000  0.99655415  0.79843881  1
  Ho  Ho2  1  0.75000000  0.50344886  0.29842728  1
  Ho  Ho3  1  0.75000000  0.00344295  0.20156278  1
  Si  Si0  1  0.25000000  0.81309879  0.41263972  1
  Si  Si1  1  0.25000000  0.31310185  0.08735702  1
  Si  Si2  1  0.75000000  0.18690398  0.58735239  1
  Si  Si3  1  0.75000000  0.68690005  0.91265056  1
  Pt  Pt0  1  0.25000000  0.20018995  0.41511483  1
  Pt  Pt1  1  0.25000000  0.70018934  0.08487615  1
  Pt  Pt2  1  0.75000000  0.79980618  0.58487464  1
  Pt  Pt3  1  0.75000000  0.29980892  0.91513873  1
loop_
_geom_bond_atom_site_label_1
_geom_bond_atom_site_label_2
_geom_bond_distance
_geom_bond_site_symmetry_2
Ho0 Pt0 2.959274 1_555
Ho0 Si3 2.959468 1_455
Ho0 Si3 2.959468 1_555
Ho0 Pt3 2.989389 1_455
Ho0 Pt3 2.989389 1_555
Ho0 Si0 3.071491 1_555
Ho0 Pt2 3.123539 1_455
Ho0 Pt2 3.123539 1_555
Ho0 Si1 3.130936 1_556
Ho0 Si2 3.148804 1_555
Ho0 Si2 3.148804 1_455
Ho0 Pt1 3.174270 1_556
Ho1 Pt1 2.959198 1_556
Ho1 Si2 2.959495 1_465
Ho1 Si2 2.959495 1_565
Ho1 Pt2 2.989357 1_455
Ho1 Pt2 2.989357 1_555
Ho1 Si1 3.071469 1_566
Ho1 Pt3 3.123577 1_565
Ho1 Pt3 3.123577 1_465
Ho1 Si0 3.130991 1_555
Ho1 Si3 3.148812 1_455
Ho1 Si3 3.148812 1_555
Ho1 Pt0 3.174374 1_565
Ho2 Pt2 2.959211 1_555
Ho2 Si1 2.959421 1_655
Ho2 Si1 2.959421 1_555
Ho2 Pt1 2.989284 1_555
Ho2 Pt1 2.989284 1_655
Ho2 Si2 3.071495 1_555
Ho2 Pt0 3.123572 1_655
Ho2 Pt0 3.123572 1_555
Ho2 Si3 3.130831 1_554
Ho2 Si0 3.148792 1_655
Ho2 Si0 3.148792 1_555
Ho2 Pt3 3.174148 1_554
Ho3 Pt3 2.959133 1_554
Ho3 Si0 2.959441 1_645
Ho3 Si0 2.959441 1_545
Ho3 Pt0 2.989306 1_655
Ho3 Pt0 2.989306 1_555
Ho3 Si3 3.071414 1_544
Ho3 Pt1 3.123544 1_545
Ho3 Pt1 3.123544 1_645
Ho3 Si2 3.130943 1_555
Ho3 Si1 3.148823 1_655
Ho3 Si1 3.148823 1_555
Ho3 Pt2 3.174297 1_545
Pt0 Si2 2.489115 1_455
Pt0 Si2 2.489115 1_555
Pt0 Si1 2.552792 1_555
Pt0 Si0 2.693011 1_545
Pt1 Si3 2.489070 1_554
Pt1 Si3 2.489070 1_454
Pt1 Si0 2.552825 1_555
Pt1 Si1 2.692986 1_555
Pt2 Si0 2.489107 1_655
Pt2 Si0 2.489107 1_555
Pt2 Si3 2.552908 1_555
Pt2 Si2 2.693058 1_565
Pt3 Si1 2.489043 1_656
Pt3 Si1 2.489043 1_556
Pt3 Si2 2.552976 1_555
Pt3 Si3 2.693012 1_555
