# generated using pymatgen
data_Ba2V2O7
_symmetry_space_group_name_H-M   'P 1'
_cell_length_a   7.36338542
_cell_length_b   7.36468262
_cell_length_c   13.63877895
_cell_angle_alpha   80.69613862
_cell_angle_beta   87.53891391
_cell_angle_gamma   89.63615060
_symmetry_Int_Tables_number   1
_chemical_formula_structural   Ba2V2O7
_chemical_formula_sum   'Ba8 V8 O28'
_cell_volume   729.21413413
_cell_formula_units_Z   4
loop_
 _symmetry_equiv_pos_site_id
 _symmetry_equiv_pos_as_xyz
  1  'x, y, z'
loop_
 _atom_site_type_symbol
 _atom_site_label
 _atom_site_symmetry_multiplicity
 _atom_site_fract_x
 _atom_site_fract_y
 _atom_site_fract_z
 _atom_site_occupancy
  Ba  Ba0  1  0.58614151  0.33041232  0.15794874  1
  Ba  Ba1  1  0.41385849  0.66958768  0.84205126  1
  Ba  Ba2  1  0.17065564  0.71608526  0.14205313  1
  Ba  Ba3  1  0.82934436  0.28391474  0.85794687  1
  Ba  Ba4  1  0.27056411  0.25776884  0.65559143  1
  Ba  Ba5  1  0.72943589  0.74223116  0.34440857  1
  Ba  Ba6  1  0.86081957  0.86890956  0.64183691  1
  Ba  Ba7  1  0.13918043  0.13109044  0.35816309  1
  V  V0  1  0.34184778  0.19061349  0.91636858  1
  V  V1  1  0.65815222  0.80938651  0.08363142  1
  V  V2  1  0.06649105  0.19727226  0.10569758  1
  V  V3  1  0.93350895  0.80272774  0.89430242  1
  V  V4  1  0.32887239  0.80331447  0.58608331  1
  V  V5  1  0.67112761  0.19668553  0.41391669  1
  V  V6  1  0.27056329  0.59968654  0.39660914  1
  V  V7  1  0.72943671  0.40031346  0.60339086  1
  O  O0  1  0.79894704  0.66750825  0.83636987  1
  O  O1  1  0.20105296  0.33249175  0.16363013  1
  O  O2  1  0.79825245  0.92375213  0.97789198  1
  O  O3  1  0.20174755  0.07624787  0.02210802  1
  O  O4  1  0.55530559  0.95160815  0.15331563  1
  O  O5  1  0.44469441  0.04839185  0.84668437  1
  O  O6  1  0.18576272  0.98296181  0.55187260  1
  O  O7  1  0.81423728  0.01703819  0.44812740  1
  O  O8  1  0.40646354  0.55694682  0.29886881  1
  O  O9  1  0.59353646  0.44305318  0.70113119  1
  O  O10  1  0.81408911  0.59681585  0.53849068  1
  O  O11  1  0.18591089  0.40318415  0.46150932  1
  O  O12  1  0.20495826  0.64584212  0.66392352  1
  O  O13  1  0.79504174  0.35415788  0.33607648  1
  O  O14  1  0.79238520  0.66269876  0.15799426  1
  O  O15  1  0.20761480  0.33730124  0.84200574  1
  O  O16  1  0.97794124  0.03283934  0.19599920  1
  O  O17  1  0.02205876  0.96716066  0.80400080  1
  O  O18  1  0.50748931  0.11868220  0.34800823  1
  O  O19  1  0.49251069  0.88131780  0.65199177  1
  O  O20  1  0.89632492  0.25778793  0.65337528  1
  O  O21  1  0.10367508  0.74221207  0.34662472  1
  O  O22  1  0.58934384  0.28564708  0.52500305  1
  O  O23  1  0.41065616  0.71435292  0.47499695  1
  O  O24  1  0.50383579  0.32388709  0.95485089  1
  O  O25  1  0.49616421  0.67611291  0.04514911  1
  O  O26  1  0.89731819  0.31829375  0.04727564  1
  O  O27  1  0.10268181  0.68170625  0.95272436  1
loop_
_geom_bond_atom_site_label_1
_geom_bond_atom_site_label_2
_geom_bond_distance
_geom_bond_site_symmetry_2
Ba0 O26 2.698229 1_555
Ba0 O4 2.811522 1_545
Ba0 O1 2.833298 1_555
Ba0 O18 2.839345 1_555
Ba0 O25 2.843837 1_555
Ba0 O24 2.868820 1_554
Ba0 O14 2.888388 1_555
Ba0 O13 2.959833 1_555
Ba0 O8 3.003035 1_555
Ba1 O27 2.698229 1_555
Ba1 O5 2.811522 1_565
Ba1 O0 2.833298 1_555
Ba1 O19 2.839345 1_555
Ba1 O24 2.843837 1_555
Ba1 O25 2.868820 1_556
Ba1 O15 2.888388 1_555
Ba1 O12 2.959833 1_555
Ba1 O9 3.003035 1_555
Ba2 O27 2.703045 1_554
Ba2 O25 2.724533 1_555
Ba2 O1 2.801141 1_555
Ba2 O14 2.809679 1_455
Ba2 O21 2.849416 1_555
Ba2 O3 2.887347 1_565
Ba2 O16 2.901754 1_465
Ba2 O8 2.906102 1_555
Ba2 O4 3.352647 1_555
Ba3 O26 2.703045 1_556
Ba3 O24 2.724533 1_555
Ba3 O0 2.801141 1_555
Ba3 O15 2.809679 1_655
Ba3 O20 2.849416 1_555
Ba3 O2 2.887347 1_545
Ba3 O17 2.901754 1_645
Ba3 O9 2.906102 1_555
Ba3 O5 3.352647 1_555
Ba4 O15 2.720094 1_555
Ba4 O6 2.739462 1_545
Ba4 O20 2.757130 1_455
Ba4 O11 2.785481 1_555
Ba4 O22 2.872803 1_555
Ba4 O9 2.888876 1_555
Ba4 O12 2.915034 1_555
Ba4 O5 3.126794 1_555
Ba4 O19 3.215476 1_545
Ba4 O17 3.218215 1_545
Ba5 O14 2.720094 1_555
Ba5 O7 2.739462 1_565
Ba5 O21 2.757130 1_655
Ba5 O10 2.785481 1_555
Ba5 O23 2.872803 1_555
Ba5 O8 2.888876 1_555
Ba5 O13 2.915034 1_555
Ba5 O4 3.126794 1_555
Ba5 O18 3.215476 1_565
Ba5 O16 3.218215 1_565
Ba6 O10 2.661649 1_555
Ba6 O19 2.711303 1_555
Ba6 O6 2.715905 1_655
Ba6 O7 2.725595 1_565
Ba6 O17 2.752956 1_655
Ba6 O0 2.842420 1_555
Ba6 O20 2.907609 1_565
Ba6 O12 3.010575 1_655
Ba7 O11 2.661649 1_555
Ba7 O18 2.711303 1_555
Ba7 O7 2.715905 1_455
Ba7 O6 2.725595 1_545
Ba7 O16 2.752956 1_455
Ba7 O1 2.842420 1_555
Ba7 O21 2.907609 1_545
Ba7 O13 3.010575 1_455
O0 V3 1.712295 1_555
O1 V2 1.712295 1_555
O2 V3 1.818198 1_555
O2 V1 1.828650 1_556
O3 V2 1.818198 1_555
O3 V0 1.828650 1_554
O4 V1 1.680431 1_555
O5 V0 1.680431 1_555
O6 V4 1.703968 1_555
O7 V5 1.703968 1_555
O8 V6 1.701354 1_555
O9 V7 1.701354 1_555
O10 V7 1.678168 1_555
O11 V6 1.678168 1_555
O12 V4 1.684263 1_555
O13 V5 1.684263 1_555
O14 V1 1.700269 1_555
O15 V0 1.700269 1_555
O16 V2 1.693313 1_655
O17 V3 1.693313 1_455
O18 V5 1.690769 1_555
O19 V4 1.690769 1_555
O20 V7 1.703179 1_555
O21 V6 1.703179 1_555
O22 V7 1.821530 1_555
O22 V5 1.823450 1_555
O23 V6 1.821530 1_555
O23 V4 1.823450 1_555
O24 V0 1.701991 1_555
O25 V1 1.701991 1_555
O26 V2 1.680038 1_655
O27 V3 1.680038 1_455
