# generated using pymatgen
data_Mn3Fe3Si2
_symmetry_space_group_name_H-M   'P 1'
_cell_length_a   3.97152039
_cell_length_b   3.97152039
_cell_length_c   6.88181212
_cell_angle_alpha   73.22871158
_cell_angle_beta   90.00000000
_cell_angle_gamma   120.00000000
_symmetry_Int_Tables_number   1
_chemical_formula_structural   Mn3Fe3Si2
_chemical_formula_sum   'Mn3 Fe3 Si2'
_cell_volume   88.63268757
_cell_formula_units_Z   1
loop_
 _symmetry_equiv_pos_site_id
 _symmetry_equiv_pos_as_xyz
  1  'x, y, z'
loop_
 _atom_site_type_symbol
 _atom_site_label
 _atom_site_symmetry_multiplicity
 _atom_site_fract_x
 _atom_site_fract_y
 _atom_site_fract_z
 _atom_site_occupancy
  Mn  Mn0  1  0.12485800  0.24971600  0.62542700  1
  Mn  Mn1  1  0.87496700  0.74993400  0.37509900  1
  Mn  Mn2  1  0.37490400  0.74980900  0.87528700  1
  Fe  Fe0  1  0.25006600  0.50013100  0.24980300  1
  Fe  Fe1  1  0.75004600  0.50009100  0.74986300  1
  Fe  Fe2  1  0.62518300  0.25036700  0.12445000  1
  Si  Si0  1  0.99978300  0.99956500  0.00065200  1
  Si  Si1  1  0.50019400  0.00038700  0.49941900  1
loop_
_geom_bond_atom_site_label_1
_geom_bond_atom_site_label_2
_geom_bond_distance
_geom_bond_site_symmetry_2
Mn0 Si1 2.434365 1_565
Mn0 Si1 2.434368 1_455
Mn0 Si1 2.434372 1_555
Mn0 Si0 2.434678 1_446
Mn1 Si0 2.429629 1_555
Mn1 Si1 2.430709 1_565
Mn1 Si1 2.430713 1_555
Mn1 Si1 2.430713 1_665
Mn2 Si0 2.432966 1_456
Mn2 Si0 2.432972 1_446
Mn2 Si0 2.432972 1_556
Mn2 Si1 2.438850 1_565
Fe0 Mn2 2.430077 1_554
Fe0 Mn1 2.432819 1_445
Fe0 Mn1 2.432820 1_555
Fe0 Mn1 2.432823 1_455
Fe0 Fe2 2.432940 1_555
Fe0 Fe2 2.432946 1_565
Fe0 Fe2 2.432946 1_455
Fe0 Mn0 2.437267 1_555
Fe1 Fe2 2.430538 1_556
Fe1 Mn0 2.430958 1_655
Fe1 Mn0 2.430962 1_555
Fe1 Mn0 2.430965 1_665
Fe1 Mn1 2.431686 1_555
Fe1 Mn2 2.433096 1_545
Fe1 Mn2 2.433096 1_655
Fe1 Mn2 2.433103 1_555
Fe2 Si0 2.429587 1_555
Fe2 Si0 2.429588 1_445
Fe2 Si0 2.429594 1_545
Fe2 Si1 2.433017 1_555
Fe2 Mn2 2.805606 1_654
Fe2 Mn2 2.805606 1_554
Fe2 Mn2 2.805606 1_544
Fe2 Mn1 2.811172 1_445
Fe2 Mn1 2.811172 1_555
Fe2 Mn1 2.811175 1_545
