# generated using pymatgen
data_Li4CrTe(WO6)2
_symmetry_space_group_name_H-M   'P 1'
_cell_length_a   5.18456961
_cell_length_b   15.15470599
_cell_length_c   5.49498322
_cell_angle_alpha   85.49252906
_cell_angle_beta   89.97789200
_cell_angle_gamma   89.82239045
_symmetry_Int_Tables_number   1
_chemical_formula_structural   Li4CrTe(WO6)2
_chemical_formula_sum   'Li8 Cr2 Te2 W4 O24'
_cell_volume   430.40686635
_cell_formula_units_Z   2
loop_
 _symmetry_equiv_pos_site_id
 _symmetry_equiv_pos_as_xyz
  1  'x, y, z'
loop_
 _atom_site_type_symbol
 _atom_site_label
 _atom_site_symmetry_multiplicity
 _atom_site_fract_x
 _atom_site_fract_y
 _atom_site_fract_z
 _atom_site_occupancy
  Li  Li0  1  0.00820300  0.63488200  0.59841500  1
  Li  Li1  1  0.00414000  0.13173500  0.56965300  1
  Li  Li2  1  0.49331800  0.89741000  0.03463900  1
  Li  Li3  1  0.49811400  0.40567100  0.06588500  1
  Li  Li4  1  0.99616400  0.40416800  0.58151700  1
  Li  Li5  1  0.99226500  0.90204300  0.60124100  1
  Li  Li6  1  0.50564600  0.09897500  0.93177400  1
  Li  Li7  1  0.50367800  0.61691300  0.00277400  1
  Cr  Cr0  1  0.00536800  0.99966300  0.01049800  1
  Cr  Cr1  1  0.00006900  0.50015300  0.00176000  1
  Te  Te0  1  0.50458500  0.75335600  0.51845100  1
  Te  Te1  1  0.49650400  0.25192300  0.50218700  1
  W  W0  1  0.99494500  0.25004100  0.00744700  1
  W  W1  1  0.99185400  0.75005000  0.01498600  1
  W  W2  1  0.49788500  0.00036200  0.49710000  1
  W  W3  1  0.51162300  0.50269500  0.49775100  1
  O  O0  1  0.31191000  0.71244200  0.81890700  1
  O  O1  1  0.29978100  0.21446000  0.80002400  1
  O  O2  1  0.12450300  0.87105900  0.99035400  1
  O  O3  1  0.11601800  0.36682800  0.98918500  1
  O  O4  1  0.32305700  0.03001400  0.19695000  1
  O  O5  1  0.31922300  0.52037000  0.19306700  1
  O  O6  1  0.13935000  0.70887900  0.30602600  1
  O  O7  1  0.19005500  0.21575900  0.31008600  1
  O  O8  1  0.80305300  0.97341700  0.32119800  1
  O  O9  1  0.79548900  0.46388000  0.30338900  1
  O  O10  1  0.36228500  0.88420900  0.51037700  1
  O  O11  1  0.36721000  0.36933200  0.48783300  1
  O  O12  1  0.62645600  0.13240800  0.51012500  1
  O  O13  1  0.63855900  0.61794500  0.49355900  1
  O  O14  1  0.20845200  0.03298200  0.69791600  1
  O  O15  1  0.20309100  0.52119200  0.68293500  1
  O  O16  1  0.80666600  0.28182200  0.68978800  1
  O  O17  1  0.83467200  0.78220600  0.66807200  1
  O  O18  1  0.69650300  0.97872000  0.80054100  1
  O  O19  1  0.69617900  0.46443200  0.79146600  1
  O  O20  1  0.88809700  0.13065400  0.99760100  1
  O  O21  1  0.87894500  0.62786100  0.96253600  1
  O  O22  1  0.68599100  0.28213000  0.19168900  1
  O  O23  1  0.68010400  0.78816200  0.13510100  1
loop_
_geom_bond_atom_site_label_1
_geom_bond_atom_site_label_2
_geom_bond_distance
_geom_bond_site_symmetry_2
Li0 O6 2.005481 1_555
Li0 O15 2.017162 1_555
Li0 O13 2.024297 1_455
Li0 O21 2.104690 1_455
Li0 O0 2.359164 1_555
Li0 O17 2.462169 1_455
Li1 O14 1.919241 1_555
Li1 O12 1.985250 1_455
Li1 O7 2.075086 1_555
Li1 O1 2.405494 1_555
Li1 O20 2.425904 1_455
Li2 O23 1.957154 1_555
Li2 O2 1.973668 1_554
Li2 O18 2.010147 1_554
Li2 O4 2.425529 1_565
Li3 O19 1.978572 1_554
Li3 O3 2.120234 1_554
Li3 O5 2.133190 1_555
Li3 O22 2.172027 1_555
Li3 O9 2.247081 1_555
Li3 O11 2.437250 1_555
Li4 O9 2.003766 1_555
Li4 O11 2.068828 1_655
Li4 O16 2.143458 1_555
Li4 O19 2.177013 1_555
Li4 O15 2.185019 1_655
Li4 O3 2.350355 1_655
Li5 O17 2.001193 1_555
Li5 O10 2.004953 1_655
Li5 O8 2.057491 1_555
Li5 O18 2.255799 1_555
Li5 O2 2.259120 1_655
Li5 O14 2.378240 1_665
Li6 O4 1.969086 1_556
Li6 O20 2.080082 1_555
Li6 O1 2.125125 1_555
Li6 O18 2.239471 1_545
Li6 O14 2.288836 1_555
Li6 O12 2.415291 1_555
Li7 O21 1.964095 1_554
Li7 O0 1.966501 1_554
Li7 O5 1.978886 1_555
Cr0 O4 2.013507 1_565
Cr0 O18 2.014491 1_454
Cr0 O8 2.016865 1_455
Cr0 O14 2.044361 1_564
Cr0 O2 2.053919 1_554
Cr0 O20 2.070233 1_464
Cr1 O5 1.998003 1_555
Cr1 O9 2.008322 1_455
Cr1 O21 2.028176 1_454
Cr1 O15 2.047372 1_554
Cr1 O19 2.053220 1_454
Cr1 O3 2.112571 1_554
O0 Te0 1.987409 1_555
O0 W1 2.080495 1_456
O1 Te1 1.974163 1_555
O1 W0 2.043917 1_456
O2 W1 1.955262 1_456
O3 W0 1.874957 1_456
O4 W2 1.904179 1_555
O5 W3 1.949097 1_555
O6 W1 1.836531 1_455
O6 Te0 2.352828 1_555
O7 W0 1.980144 1_455
O7 Te1 2.009121 1_555
O8 W2 1.913404 1_565
O9 W3 1.935150 1_555
O10 W2 1.893555 1_565
O10 Te0 2.110885 1_555
O11 Te1 1.895273 1_555
O11 W3 2.162182 1_555
O12 Te1 1.927790 1_555
O12 W2 2.117723 1_555
O13 W3 1.866807 1_555
O13 Te0 2.178888 1_555
O14 W2 1.947734 1_555
O15 W3 1.927067 1_555
O16 Te1 1.983192 1_555
O16 W0 2.024344 1_556
O17 Te0 1.964201 1_555
O17 W1 2.094809 1_556
O18 W2 1.965060 1_565
O19 W3 1.925437 1_555
O20 W0 1.898657 1_556
O21 W1 1.986306 1_556
O22 W0 1.974462 1_555
O22 Te1 1.991098 1_555
O23 W1 1.853357 1_555
O23 Te0 2.317437 1_555
