# generated using pymatgen
data_FeNiSe4
_symmetry_space_group_name_H-M   'P 1'
_cell_length_a   5.87560700
_cell_length_b   5.84635600
_cell_length_c   5.85243541
_cell_angle_alpha   89.75522781
_cell_angle_beta   90.00000000
_cell_angle_gamma   90.00000000
_symmetry_Int_Tables_number   1
_chemical_formula_structural   FeNiSe4
_chemical_formula_sum   'Fe2 Ni2 Se8'
_cell_volume   201.03453171
_cell_formula_units_Z   2
loop_
 _symmetry_equiv_pos_site_id
 _symmetry_equiv_pos_as_xyz
  1  'x, y, z'
loop_
 _atom_site_type_symbol
 _atom_site_label
 _atom_site_symmetry_multiplicity
 _atom_site_fract_x
 _atom_site_fract_y
 _atom_site_fract_z
 _atom_site_occupancy
  Fe  Fe0  1  0.50000000  0.00000000  0.50000000  1
  Fe  Fe1  1  0.00000000  0.50000000  0.50000000  1
  Ni  Ni0  1  0.50000000  0.50000000  0.00000000  1
  Ni  Ni1  1  0.00000000  0.00000000  0.00000000  1
  Se  Se0  1  0.12023000  0.61723200  0.13048000  1
  Se  Se1  1  0.62023000  0.88276800  0.86952000  1
  Se  Se2  1  0.87140700  0.12942600  0.38285500  1
  Se  Se3  1  0.37140700  0.37057400  0.61714500  1
  Se  Se4  1  0.87977000  0.38276800  0.86952000  1
  Se  Se5  1  0.37977000  0.11723200  0.13048000  1
  Se  Se6  1  0.12859300  0.87057400  0.61714500  1
  Se  Se7  1  0.62859300  0.62942600  0.38285500  1
loop_
_geom_bond_atom_site_label_1
_geom_bond_atom_site_label_2
_geom_bond_distance
_geom_bond_site_symmetry_2
Fe0 Se1 2.373377 1_545
Fe0 Se5 2.373377 1_555
Fe0 Se7 2.397362 1_545
Fe0 Se3 2.397362 1_555
Fe0 Se2 2.408386 1_555
Fe0 Se6 2.408386 1_545
Fe1 Se4 2.373377 1_455
Fe1 Se0 2.373377 1_555
Fe1 Se2 2.397362 1_455
Fe1 Se6 2.397362 1_555
Fe1 Se3 2.408386 1_555
Fe1 Se7 2.408386 1_455
Ni0 Se0 2.456908 1_555
Ni0 Se4 2.456908 1_554
Ni0 Se1 2.464812 1_554
Ni0 Se5 2.464812 1_555
Ni0 Se3 2.485629 1_554
Ni0 Se7 2.485629 1_555
Ni1 Se5 2.456908 1_555
Ni1 Se1 2.456908 1_444
Ni1 Se4 2.464812 1_454
Ni1 Se0 2.464812 1_545
Ni1 Se6 2.485629 1_544
Ni1 Se2 2.485629 1_455
