# generated using pymatgen
data_Al2O3
_symmetry_space_group_name_H-M   'P 1'
_cell_length_a   10.34532106
_cell_length_b   10.36452554
_cell_length_c   10.09534562
_cell_angle_alpha   91.55687022
_cell_angle_beta   94.66861017
_cell_angle_gamma   87.87624207
_symmetry_Int_Tables_number   1
_chemical_formula_structural   Al2O3
_chemical_formula_sum   'Al40 O60'
_cell_volume   1077.81721324
_cell_formula_units_Z   20
loop_
 _symmetry_equiv_pos_site_id
 _symmetry_equiv_pos_as_xyz
  1  'x, y, z'
loop_
 _atom_site_type_symbol
 _atom_site_label
 _atom_site_symmetry_multiplicity
 _atom_site_fract_x
 _atom_site_fract_y
 _atom_site_fract_z
 _atom_site_occupancy
  Al  Al0  1  0.77469900  0.42165300  0.58587300  1
  Al  Al1  1  0.73793000  0.92773500  0.37984600  1
  Al  Al2  1  0.54753000  0.36793700  0.73456300  1
  Al  Al3  1  0.18592700  0.67916200  0.41884900  1
  Al  Al4  1  0.81009100  0.34631700  0.27074900  1
  Al  Al5  1  0.27282800  0.00638600  0.53084500  1
  Al  Al6  1  0.13586600  0.80276700  0.78312600  1
  Al  Al7  1  0.08388900  0.19717500  0.43641400  1
  Al  Al8  1  0.58977900  0.19784500  0.09656900  1
  Al  Al9  1  0.78379900  0.40938500  0.92573200  1
  Al  Al10  1  0.46645800  0.58784600  0.63006200  1
  Al  Al11  1  0.07475600  0.50635800  0.90223400  1
  Al  Al12  1  0.64435100  0.17535000  0.39433700  1
  Al  Al13  1  0.94340500  0.71605300  0.55780200  1
  Al  Al14  1  0.24068700  0.04491700  0.80534900  1
  Al  Al15  1  0.67565300  0.79068100  0.67994700  1
  Al  Al16  1  0.29892500  0.21140200  0.04381200  1
  Al  Al17  1  0.71054700  0.91343200  0.93578500  1
  Al  Al18  1  0.30310400  0.27740600  0.35010100  1
  Al  Al19  1  0.49018900  0.95317500  0.16773500  1
  Al  Al20  1  0.55247000  0.08353500  0.80002100  1
  Al  Al21  1  0.36075200  0.71275100  0.99067400  1
  Al  Al22  1  0.90212200  0.69227800  0.93143400  1
  Al  Al23  1  0.03478000  0.92020300  0.35938900  1
  Al  Al24  1  0.23862600  0.85023600  0.21418600  1
  Al  Al25  1  0.50769700  0.41502000  0.29691100  1
  Al  Al26  1  0.03028200  0.29917300  0.13610500  1
  Al  Al27  1  0.46378700  0.46235800  0.99578100  1
  Al  Al28  1  0.01368800  0.06277700  0.91156800  1
  Al  Al29  1  0.89750100  0.00041000  0.60501200  1
  Al  Al30  1  0.93982800  0.63338100  0.25252200  1
  Al  Al31  1  0.71166600  0.62371900  0.41014800  1
  Al  Al32  1  0.45565000  0.78894000  0.44992000  1
  Al  Al33  1  0.27793400  0.32048900  0.75580300  1
  Al  Al34  1  0.39654700  0.85057400  0.72824800  1
  Al  Al35  1  0.59121500  0.71353800  0.18426300  1
  Al  Al36  1  0.21676900  0.52082100  0.17650900  1
  Al  Al37  1  0.97195600  0.28606100  0.71688700  1
  Al  Al38  1  0.93162600  0.00594600  0.13444200  1
  Al  Al39  1  0.05460400  0.45509700  0.46314100  1
  O  O0  1  0.08948700  0.94223600  0.19520000  1
  O  O1  1  0.21117200  0.25290200  0.18390500  1
  O  O2  1  0.64331900  0.10882200  0.95777000  1
  O  O3  1  0.02915800  0.04374600  0.49269800  1
  O  O4  1  0.52822900  0.36154000  0.12828600  1
  O  O5  1  0.95419000  0.34860900  0.55389200  1
  O  O6  1  0.30272500  0.74319500  0.82527100  1
  O  O7  1  0.21435700  0.86636900  0.40445000  1
  O  O8  1  0.60954600  0.42154900  0.89734800  1
  O  O9  1  0.99788500  0.84012200  0.66920200  1
  O  O10  1  0.24782000  0.16365800  0.67440100  1
  O  O11  1  0.18425000  0.33823000  0.46915600  1
  O  O12  1  0.97779400  0.27340000  0.30363000  1
  O  O13  1  0.43789400  0.11438900  0.11207500  1
  O  O14  1  0.51756500  0.63339600  0.03806600  1
  O  O15  1  0.65412900  0.95004400  0.75975400  1
  O  O16  1  0.46117500  0.80933000  0.27797200  1
  O  O17  1  0.84456800  0.36819000  0.09161100  1
  O  O18  1  0.90961800  0.70100700  0.10257600  1
  O  O19  1  0.22999100  0.91453000  0.67069300  1
  O  O20  1  0.24358000  0.11847000  0.40048400  1
  O  O21  1  0.89732900  0.52273200  0.89084500  1
  O  O22  1  0.29864900  0.55388400  0.01987900  1
  O  O23  1  0.95610800  0.11529500  0.74393800  1
  O  O24  1  0.82325400  0.59132600  0.56405800  1
  O  O25  1  0.17846300  0.16045200  0.92260100  1
  O  O26  1  0.06576500  0.67684800  0.87359600  1
  O  O27  1  0.09579700  0.43866800  0.06226500  1
  O  O28  1  0.35282400  0.66140200  0.50320200  1
  O  O29  1  0.11023100  0.38169700  0.78156700  1
  O  O30  1  0.59013100  0.01287900  0.31866500  1
  O  O31  1  0.38625000  0.45049700  0.70951900  1
  O  O32  1  0.72606300  0.75956400  0.30302800  1
  O  O33  1  0.08376900  0.52695300  0.30573500  1
  O  O34  1  0.87159700  0.96939500  0.28456400  1
  O  O35  1  0.87928300  0.95026300  0.97282900  1
  O  O36  1  0.97696500  0.15063200  0.05903400  1
  O  O37  1  0.71694500  0.34565000  0.42761600  1
  O  O38  1  0.33656100  0.44479600  0.28997300  1
  O  O39  1  0.99317300  0.75425000  0.38609400  1
  O  O40  1  0.70993800  0.20516900  0.23039900  1
  O  O41  1  0.76273000  0.08074600  0.49994300  1
  O  O42  1  0.21819000  0.68644000  0.23725400  1
  O  O43  1  0.60191500  0.71309700  0.51942200  1
  O  O44  1  0.60612300  0.47474300  0.62110100  1
  O  O45  1  0.53042700  0.20927200  0.69550400  1
  O  O46  1  0.80928800  0.33990200  0.75135200  1
  O  O47  1  0.61320700  0.86767800  0.07398200  1
  O  O48  1  0.58201900  0.56583700  0.29788300  1
  O  O49  1  0.79737500  0.85110300  0.54617200  1
  O  O50  1  0.52011800  0.72426400  0.73465600  1
  O  O51  1  0.76546200  0.75777700  0.84163500  1
  O  O52  1  0.09265100  0.60546900  0.55205200  1
  O  O53  1  0.36596400  0.31793200  0.92404000  1
  O  O54  1  0.48204900  0.26416500  0.38008000  1
  O  O55  1  0.83945800  0.52062000  0.32167300  1
  O  O56  1  0.41203100  0.99705600  0.83272100  1
  O  O57  1  0.12924500  0.93971700  0.88744600  1
  O  O58  1  0.33571100  0.86689000  0.07849100  1
  O  O59  1  0.43252800  0.92314200  0.55958000  1
loop_
_geom_bond_atom_site_label_1
_geom_bond_atom_site_label_2
_geom_bond_distance
_geom_bond_site_symmetry_2
Al0 O37 1.827877 1_555
Al0 O44 1.868129 1_555
Al0 O24 1.870281 1_555
Al0 O46 1.895761 1_555
Al0 O5 2.026217 1_555
Al1 O30 1.809434 1_565
Al1 O34 1.818588 1_555
Al1 O32 1.892481 1_555
Al1 O49 1.922667 1_555
Al1 O41 1.981380 1_565
Al2 O45 1.692957 1_555
Al2 O44 1.771033 1_555
Al2 O8 1.796168 1_555
Al2 O31 1.848587 1_555
Al3 O28 1.867038 1_555
Al3 O42 1.893921 1_555
Al3 O52 1.909062 1_555
Al3 O7 1.984194 1_555
Al3 O39 2.117330 1_455
Al3 O33 2.176903 1_555
Al4 O40 1.841438 1_555
Al4 O12 1.874585 1_555
Al4 O17 1.892726 1_555
Al4 O55 1.893428 1_555
Al4 O37 1.919895 1_555
Al5 O20 1.779116 1_555
Al5 O19 1.817183 1_545
Al5 O59 1.840672 1_545
Al5 O7 1.984664 1_545
Al5 O10 2.173874 1_555
Al6 O57 1.746962 1_555
Al6 O9 1.796178 1_455
Al6 O26 1.818270 1_555
Al6 O6 1.832423 1_555
Al6 O19 1.978212 1_555
Al7 O3 1.827690 1_555
Al7 O11 1.831661 1_555
Al7 O12 1.838359 1_455
Al7 O20 1.872932 1_555
Al7 O5 2.381636 1_455
Al8 O40 1.761933 1_555
Al8 O2 1.771940 1_554
Al8 O4 1.819369 1_555
Al8 O13 1.841144 1_555
Al9 O21 1.753771 1_555
Al9 O17 1.797058 1_556
Al9 O8 1.802435 1_555
Al9 O46 1.918297 1_555
Al10 O50 1.817659 1_555
Al10 O28 1.828915 1_555
Al10 O44 1.833039 1_555
Al10 O31 1.901692 1_555
Al10 O43 2.316247 1_555
Al11 O27 1.772759 1_556
Al11 O26 1.796078 1_555
Al11 O29 1.800040 1_555
Al11 O21 1.831623 1_455
Al12 O41 1.831157 1_555
Al12 O40 1.876460 1_555
Al12 O54 1.881662 1_555
Al12 O30 1.914215 1_555
Al12 O37 1.953801 1_555
Al13 O9 1.762943 1_555
Al13 O24 1.832080 1_555
Al13 O52 1.892294 1_655
Al13 O39 1.903774 1_555
Al13 O49 2.019568 1_555
Al14 O25 1.799816 1_555
Al14 O56 1.824038 1_545
Al14 O10 1.838114 1_555
Al14 O57 1.871568 1_545
Al14 O19 1.890307 1_545
Al15 O15 1.832081 1_555
Al15 O51 1.844944 1_555
Al15 O50 1.901421 1_555
Al15 O43 1.904772 1_555
Al15 O49 2.045240 1_555
Al16 O25 1.759177 1_554
Al16 O1 1.776623 1_555
Al16 O13 1.822658 1_555
Al16 O53 1.851468 1_554
Al17 O35 1.807805 1_555
Al17 O47 1.866933 1_556
Al17 O15 1.869252 1_555
Al17 O51 1.940493 1_555
Al17 O2 2.128478 1_565
Al18 O54 1.851960 1_555
Al18 O11 1.869708 1_555
Al18 O1 1.875914 1_555
Al18 O20 1.877018 1_555
Al18 O38 1.906342 1_555
Al19 O13 1.826168 1_565
Al19 O47 1.835110 1_555
Al19 O30 1.874380 1_565
Al19 O16 1.931072 1_555
Al19 O58 1.998312 1_555
Al20 O45 1.696225 1_555
Al20 O15 1.765437 1_545
Al20 O56 1.792737 1_545
Al20 O2 1.800031 1_555
Al21 O6 1.760563 1_555
Al21 O14 1.825735 1_556
Al21 O58 1.826219 1_556
Al21 O22 1.829359 1_556
Al22 O18 1.723221 1_556
Al22 O51 1.742174 1_555
Al22 O21 1.795094 1_555
Al22 O26 1.835300 1_655
Al23 O0 1.817353 1_555
Al23 O39 1.820825 1_455
Al23 O3 1.835139 1_565
Al23 O34 1.852041 1_455
Al23 O7 1.941394 1_555
Al24 O42 1.742729 1_555
Al24 O58 1.778996 1_555
Al24 O0 1.783040 1_555
Al24 O7 1.959167 1_555
Al24 O16 2.365657 1_555
Al25 O48 1.766840 1_555
Al25 O38 1.781897 1_555
Al25 O4 1.802538 1_555
Al25 O54 1.832586 1_555
Al26 O36 1.791044 1_455
Al26 O27 1.821766 1_555
Al26 O12 1.846953 1_455
Al26 O1 1.940083 1_555
Al26 O17 2.044470 1_455
Al27 O4 1.790218 1_556
Al27 O8 1.901057 1_555
Al27 O14 1.904635 1_556
Al27 O53 1.929634 1_555
Al27 O22 1.952619 1_556
Al28 O57 1.741481 1_545
Al28 O36 1.783966 1_456
Al28 O23 1.837627 1_455
Al28 O35 1.993774 1_445
Al28 O25 2.008474 1_555
Al29 O41 1.866423 1_555
Al29 O23 1.891244 1_555
Al29 O3 1.914916 1_655
Al29 O49 1.946598 1_545
Al29 O9 2.019764 1_545
Al30 O18 1.686659 1_555
Al30 O55 1.784295 1_555
Al30 O33 1.871648 1_655
Al30 O39 1.878985 1_555
Al31 O48 1.794035 1_555
Al31 O32 1.816181 1_555
Al31 O43 1.853285 1_555
Al31 O24 1.888714 1_555
Al31 O55 1.929533 1_555
Al32 O16 1.760162 1_555
Al32 O59 1.775466 1_555
Al32 O43 1.780128 1_555
Al32 O28 1.845070 1_555
Al33 O10 1.826974 1_555
Al33 O29 1.860925 1_555
Al33 O53 1.861060 1_555
Al33 O31 1.876438 1_555
Al34 O50 1.794269 1_555
Al34 O56 1.829352 1_555
Al34 O6 1.853148 1_555
Al34 O19 1.875978 1_555
Al34 O59 1.948635 1_555
Al35 O14 1.801676 1_555
Al35 O32 1.832272 1_555
Al35 O16 1.935893 1_555
Al35 O48 1.947360 1_555
Al35 O47 2.002090 1_555
Al36 O38 1.792869 1_555
Al36 O42 1.807227 1_555
Al36 O27 1.847182 1_555
Al36 O22 1.898490 1_555
Al36 O33 1.969863 1_555
Al37 O5 1.778086 1_555
Al37 O46 1.810972 1_555
Al37 O23 1.813586 1_555
Al37 O29 1.836596 1_655
Al38 O34 1.740076 1_545
Al38 O35 1.765334 1_544
Al38 O36 1.794612 1_555
Al38 O0 1.805093 1_645
Al39 O11 1.772030 1_555
Al39 O52 1.817020 1_555
Al39 O33 1.824785 1_555
Al39 O5 1.852427 1_455
