# generated using pymatgen
data_Ho2TeS2
_symmetry_space_group_name_H-M   'P 1'
_cell_length_a   7.48062402
_cell_length_b   7.48062402
_cell_length_c   7.48062402
_cell_angle_alpha   147.72569991
_cell_angle_beta   138.28431491
_cell_angle_gamma   53.70396011
_symmetry_Int_Tables_number   1
_chemical_formula_structural   Ho2TeS2
_chemical_formula_sum   'Ho2 Te1 S2'
_cell_volume   147.83697694
_cell_formula_units_Z   1
loop_
 _symmetry_equiv_pos_site_id
 _symmetry_equiv_pos_as_xyz
  1  'x, y, z'
loop_
 _atom_site_type_symbol
 _atom_site_label
 _atom_site_symmetry_multiplicity
 _atom_site_fract_x
 _atom_site_fract_y
 _atom_site_fract_z
 _atom_site_occupancy
  Ho  Ho0  1  0.83274807  0.33274807  0.50000000  1
  Ho  Ho1  1  0.16725193  0.66725193  0.50000000  1
  Te  Te0  1  -0.00000000  -0.00000000  -0.00000000  1
  S  S0  1  0.70215567  0.70215567  0.00000000  1
  S  S1  1  0.29784433  0.29784433  -0.00000000  1
loop_
_geom_bond_atom_site_label_1
_geom_bond_atom_site_label_2
_geom_bond_distance
_geom_bond_site_symmetry_2
Ho0 S1 2.703921 1_555
Ho0 S1 2.703921 1_656
Ho0 S0 2.713198 1_556
Ho0 S0 2.713198 1_545
Ho0 Te0 3.050716 1_666
Ho0 Te0 3.050716 1_655
Ho1 S0 2.703921 1_455
Ho1 S0 2.703921 1_556
Ho1 S1 2.713198 1_566
Ho1 S1 2.713198 1_555
Ho1 Te0 3.050716 1_555
Ho1 Te0 3.050716 1_566
