# generated using pymatgen
data_RbVOF3
_symmetry_space_group_name_H-M   'P 1'
_cell_length_a   3.86043281
_cell_length_b   6.70289200
_cell_length_c   14.71757953
_cell_angle_alpha   90.00000000
_cell_angle_beta   90.00000000
_cell_angle_gamma   90.00000000
_symmetry_Int_Tables_number   1
_chemical_formula_structural   RbVOF3
_chemical_formula_sum   'Rb4 V4 O4 F12'
_cell_volume   380.83303277
_cell_formula_units_Z   4
loop_
 _symmetry_equiv_pos_site_id
 _symmetry_equiv_pos_as_xyz
  1  'x, y, z'
loop_
 _atom_site_type_symbol
 _atom_site_label
 _atom_site_symmetry_multiplicity
 _atom_site_fract_x
 _atom_site_fract_y
 _atom_site_fract_z
 _atom_site_occupancy
  Rb  Rb0  1  0.00000000  0.69464932  0.83188256  1
  Rb  Rb1  1  -0.00000000  0.30535068  0.16811744  1
  Rb  Rb2  1  0.00000000  0.19464932  0.66811744  1
  Rb  Rb3  1  0.00000000  0.80535068  0.33188256  1
  V  V0  1  0.50000000  0.65969850  0.58718538  1
  V  V1  1  0.50000000  0.34030150  0.41281462  1
  V  V2  1  0.50000000  0.15969850  0.91281462  1
  V  V3  1  0.50000000  0.84030150  0.08718538  1
  O  O0  1  0.50000000  0.89616198  0.60765806  1
  O  O1  1  0.50000000  0.10383802  0.39234194  1
  O  O2  1  0.50000000  0.39616198  0.89234194  1
  O  O3  1  0.50000000  0.60383802  0.10765806  1
  F  F0  1  0.50000000  0.65373479  0.45503117  1
  F  F1  1  0.50000000  0.34626521  0.54496883  1
  F  F2  1  0.50000000  0.15373479  0.04496883  1
  F  F3  1  0.50000000  0.84626521  0.95503117  1
  F  F4  1  0.50000000  0.53772963  0.70282140  1
  F  F5  1  0.50000000  0.46227037  0.29717860  1
  F  F6  1  0.50000000  0.03772963  0.79717860  1
  F  F7  1  0.50000000  0.96227037  0.20282140  1
  F  F8  1  0.00000000  0.61171166  0.58596677  1
  F  F9  1  -0.00000000  0.38828834  0.41403323  1
  F  F10  1  0.00000000  0.11171166  0.91403323  1
  F  F11  1  -0.00000000  0.88828834  0.08596677  1
loop_
_geom_bond_atom_site_label_1
_geom_bond_atom_site_label_2
_geom_bond_distance
_geom_bond_site_symmetry_2
O0 V0 1.613375 1_555
O0 Rb2 2.918976 1_565
O0 Rb2 2.918976 1_665
O1 V1 1.613375 1_555
O1 Rb3 2.918976 1_645
O1 Rb3 2.918976 1_545
O2 V2 1.613375 1_555
O2 Rb0 2.918976 1_555
O2 Rb0 2.918976 1_655
O3 V3 1.613375 1_555
O3 Rb1 2.918976 1_655
O3 Rb1 2.918976 1_555
F0 V0 1.945401 1_555
F0 V1 2.190860 1_555
F0 Rb3 2.836107 1_655
F0 Rb3 2.836107 1_555
F1 V1 1.945401 1_555
F1 V0 2.190860 1_555
F1 Rb2 2.836107 1_555
F1 Rb2 2.836107 1_655
F2 V2 1.945401 1_554
F2 V3 2.190860 1_545
F2 Rb1 2.836107 1_655
F2 Rb1 2.836107 1_555
F3 V3 1.945401 1_556
F3 V2 2.190860 1_565
F3 Rb0 2.836107 1_655
F3 Rb0 2.836107 1_555
F4 V0 1.888063 1_555
F4 Rb0 2.905173 1_655
F4 Rb0 2.905173 1_555
F4 Rb2 3.045473 1_655
F4 Rb2 3.045473 1_555
F5 V1 1.888063 1_555
F5 Rb1 2.905173 1_555
F5 Rb1 2.905173 1_655
F5 Rb3 3.045473 1_555
F5 Rb3 3.045473 1_655
F6 V2 1.888063 1_555
F6 Rb2 2.905173 1_555
F6 Rb2 2.905173 1_655
F6 Rb0 3.045473 1_545
F6 Rb0 3.045473 1_645
F7 V3 1.888063 1_555
F7 Rb3 2.905173 1_655
F7 Rb3 2.905173 1_555
F7 Rb1 3.045473 1_565
F7 Rb1 3.045473 1_665
F8 V0 1.956915 1_555
F8 V0 1.956915 1_455
F8 Rb2 3.045780 1_555
F9 V1 1.956915 1_555
F9 V1 1.956915 1_455
F9 Rb3 3.045780 1_555
F10 V2 1.956915 1_555
F10 V2 1.956915 1_455
F10 Rb0 3.045780 1_545
F11 V3 1.956915 1_555
F11 V3 1.956915 1_455
F11 Rb1 3.045780 1_565
