# generated using pymatgen
data_Sm2In8Co
_symmetry_space_group_name_H-M   'P 1'
_cell_length_a   4.65270900
_cell_length_b   4.65270900
_cell_length_c   12.15787300
_cell_angle_alpha   90.00000000
_cell_angle_beta   90.00000000
_cell_angle_gamma   90.00000000
_symmetry_Int_Tables_number   1
_chemical_formula_structural   Sm2In8Co
_chemical_formula_sum   'Sm2 In8 Co1'
_cell_volume   263.18999997
_cell_formula_units_Z   1
loop_
 _symmetry_equiv_pos_site_id
 _symmetry_equiv_pos_as_xyz
  1  'x, y, z'
loop_
 _atom_site_type_symbol
 _atom_site_label
 _atom_site_symmetry_multiplicity
 _atom_site_fract_x
 _atom_site_fract_y
 _atom_site_fract_z
 _atom_site_occupancy
  Sm  Sm0  1  0.00000000  0.00000000  0.69409400  1
  Sm  Sm1  1  0.00000000  0.00000000  0.30590600  1
  In  In0  1  0.50000000  0.00000000  0.88235200  1
  In  In1  1  0.00000000  0.50000000  0.88235200  1
  In  In2  1  0.50000000  0.00000000  0.11764800  1
  In  In3  1  0.00000000  0.50000000  0.11764800  1
  In  In4  1  0.50000000  0.00000000  0.50000000  1
  In  In5  1  0.00000000  0.50000000  0.50000000  1
  In  In6  1  0.50000000  0.50000000  0.69846100  1
  In  In7  1  0.50000000  0.50000000  0.30153900  1
  Co  Co0  1  0.00000000  0.00000000  0.00000000  1
loop_
_geom_bond_atom_site_label_1
_geom_bond_atom_site_label_2
_geom_bond_distance
_geom_bond_site_symmetry_2
In0 In2 2.860699 1_556
In0 In6 3.226513 1_555
In0 In6 3.226513 1_545
In0 Sm0 3.263527 1_655
In0 Sm0 3.263527 1_555
In0 In1 3.289962 1_645
In0 In1 3.289962 1_555
In0 In1 3.289962 1_545
In0 In1 3.289962 1_655
In1 In3 2.860699 1_556
In1 In6 3.226513 1_455
In1 In6 3.226513 1_555
In1 Sm0 3.263527 1_555
In1 Sm0 3.263527 1_565
In2 In7 3.226513 1_545
In2 In7 3.226513 1_555
In2 Sm1 3.263527 1_655
In2 Sm1 3.263527 1_555
In2 In3 3.289962 1_645
In2 In3 3.289962 1_545
In2 In3 3.289962 1_655
In2 In3 3.289962 1_555
In3 In7 3.226513 1_455
In3 In7 3.226513 1_555
In3 Sm1 3.263527 1_565
In3 Sm1 3.263527 1_555
In4 In5 3.289962 1_555
In4 In5 3.289962 1_645
In4 In5 3.289962 1_545
In4 In5 3.289962 1_655
In4 Sm0 3.313675 1_655
In4 Sm1 3.313675 1_655
In4 Sm1 3.313675 1_555
In4 Sm0 3.313675 1_555
In4 In6 3.351692 1_555
In4 In6 3.351692 1_545
In4 In7 3.351692 1_545
In4 In7 3.351692 1_555
In5 Sm1 3.313675 1_565
In5 Sm1 3.313675 1_555
In5 Sm0 3.313675 1_555
In5 Sm0 3.313675 1_565
In5 In6 3.351692 1_455
In5 In6 3.351692 1_555
In5 In7 3.351692 1_455
In5 In7 3.351692 1_555
In6 Sm0 3.290390 1_655
In6 Sm0 3.290390 1_565
In6 Sm0 3.290390 1_555
In6 Sm0 3.290390 1_665
In7 Sm1 3.290390 1_565
In7 Sm1 3.290390 1_665
In7 Sm1 3.290390 1_555
In7 Sm1 3.290390 1_655
Co0 In3 2.730902 1_545
Co0 In2 2.730902 1_455
Co0 In2 2.730902 1_555
Co0 In3 2.730902 1_555
Co0 In1 2.730902 1_554
Co0 In0 2.730902 1_454
Co0 In0 2.730902 1_554
Co0 In1 2.730902 1_544
