# generated using pymatgen
data_Sm5Ir2
_symmetry_space_group_name_H-M   'P 1'
_cell_length_a   6.64323795
_cell_length_b   7.22195387
_cell_length_c   8.79410506
_cell_angle_alpha   96.05759868
_cell_angle_beta   112.19189321
_cell_angle_gamma   90.00000000
_symmetry_Int_Tables_number   1
_chemical_formula_structural   Sm5Ir2
_chemical_formula_sum   'Sm10 Ir4'
_cell_volume   388.11681033
_cell_formula_units_Z   2
loop_
 _symmetry_equiv_pos_site_id
 _symmetry_equiv_pos_as_xyz
  1  'x, y, z'
loop_
 _atom_site_type_symbol
 _atom_site_label
 _atom_site_symmetry_multiplicity
 _atom_site_fract_x
 _atom_site_fract_y
 _atom_site_fract_z
 _atom_site_occupancy
  Sm  Sm0  1  0.97704034  0.91752358  0.18476443  1
  Sm  Sm1  1  0.79227590  0.58247642  0.81523557  1
  Sm  Sm2  1  0.02295966  0.08247642  0.81523557  1
  Sm  Sm3  1  0.20772410  0.41752358  0.18476443  1
  Sm  Sm4  1  0.65178306  0.81805718  0.43668059  1
  Sm  Sm5  1  0.21510246  0.68194282  0.56331941  1
  Sm  Sm6  1  0.34821694  0.18194282  0.56331941  1
  Sm  Sm7  1  0.78489754  0.31805718  0.43668059  1
  Sm  Sm8  1  0.43294316  0.75000000  -0.00000000  1
  Sm  Sm9  1  0.56705684  0.25000000  0.00000000  1
  Ir  Ir0  1  0.82544338  0.57250873  0.22193429  1
  Ir  Ir1  1  0.60350808  0.92749127  0.77806571  1
  Ir  Ir2  1  0.17455662  0.42749127  0.77806571  1
  Ir  Ir3  1  0.39649192  0.07250873  0.22193429  1
loop_
_geom_bond_atom_site_label_1
_geom_bond_atom_site_label_2
_geom_bond_distance
_geom_bond_site_symmetry_2
Ir0 Sm0 2.783908 1_555
Ir0 Sm7 2.851774 1_555
Ir0 Sm3 2.891197 1_655
Ir0 Sm9 2.947939 1_555
Ir0 Sm8 2.989122 1_555
Ir0 Sm4 2.996854 1_555
Ir0 Sm5 3.157065 1_655
Ir0 Sm1 3.507774 1_554
Ir1 Sm1 2.783910 1_555
Ir1 Sm6 2.851771 1_565
Ir1 Sm2 2.891203 1_665
Ir1 Sm9 2.947937 1_566
Ir1 Sm8 2.989118 1_556
Ir1 Sm5 2.996850 1_555
Ir1 Sm4 3.157068 1_555
Ir1 Sm0 3.507776 1_556
Ir2 Sm2 2.783908 1_555
Ir2 Sm5 2.851774 1_555
Ir2 Sm1 2.891197 1_455
Ir2 Sm8 2.947939 1_556
Ir2 Sm9 2.989122 1_556
Ir2 Sm6 2.996854 1_555
Ir2 Sm7 3.157065 1_455
Ir2 Sm3 3.507774 1_556
Ir3 Sm3 2.783910 1_555
Ir3 Sm4 2.851771 1_545
Ir3 Sm0 2.891203 1_445
Ir3 Sm8 2.947937 1_545
Ir3 Sm9 2.989118 1_555
Ir3 Sm7 2.996850 1_555
Ir3 Sm6 3.157068 1_555
Ir3 Sm2 3.507776 1_554
