# generated using pymatgen
data_KGaTe2
_symmetry_space_group_name_H-M   'P 1'
_cell_length_a   8.40193713
_cell_length_b   8.40193713
_cell_length_c   16.64965775
_cell_angle_alpha   82.78783661
_cell_angle_beta   82.78783661
_cell_angle_gamma   90.06843633
_symmetry_Int_Tables_number   1
_chemical_formula_structural   KGaTe2
_chemical_formula_sum   'K8 Ga8 Te16'
_cell_volume   1156.64521972
_cell_formula_units_Z   8
loop_
 _symmetry_equiv_pos_site_id
 _symmetry_equiv_pos_as_xyz
  1  'x, y, z'
loop_
 _atom_site_type_symbol
 _atom_site_label
 _atom_site_symmetry_multiplicity
 _atom_site_fract_x
 _atom_site_fract_y
 _atom_site_fract_z
 _atom_site_occupancy
  K  K0  1  0.34550037  0.22030724  0.61758431  1
  K  K1  1  0.77969276  0.65449963  0.88241569  1
  K  K2  1  0.65449963  0.77969276  0.38241569  1
  K  K3  1  0.22030724  0.34550037  0.11758431  1
  K  K4  1  0.77878439  0.15149622  0.89234917  1
  K  K5  1  0.84850378  0.22121561  0.60765083  1
  K  K6  1  0.22121561  0.84850378  0.10765083  1
  K  K7  1  0.15149622  0.77878439  0.39234917  1
  Ga  Ga0  1  0.58185871  0.70942565  0.66329973  1
  Ga  Ga1  1  0.29057435  0.41814129  0.83670027  1
  Ga  Ga2  1  0.41814129  0.29057435  0.33670027  1
  Ga  Ga3  1  0.70942565  0.58185871  0.16329973  1
  Ga  Ga4  1  0.29084933  0.91303419  0.83741326  1
  Ga  Ga5  1  0.08696581  0.70915067  0.66258674  1
  Ga  Ga6  1  0.70915067  0.08696581  0.16258674  1
  Ga  Ga7  1  0.91303419  0.29084933  0.33741326  1
  Te  Te0  1  0.35983740  0.73375352  0.56438152  1
  Te  Te1  1  0.26624648  0.64016260  0.93561848  1
  Te  Te2  1  0.64016260  0.26624648  0.43561848  1
  Te  Te3  1  0.73375352  0.35983740  0.06438152  1
  Te  Te4  1  0.57322089  0.94851112  0.75016739  1
  Te  Te5  1  0.05148888  0.42677911  0.74983261  1
  Te  Te6  1  0.42677911  0.05148888  0.24983261  1
  Te  Te7  1  0.94851112  0.57322089  0.25016739  1
  Te  Te8  1  0.26662861  0.14255288  0.93341547  1
  Te  Te9  1  0.85744712  0.73337139  0.56658453  1
  Te  Te10  1  0.73337139  0.85744712  0.06658453  1
  Te  Te11  1  0.14255288  0.26662861  0.43341547  1
  Te  Te12  1  0.05232994  0.94767006  0.75000000  1
  Te  Te13  1  0.94767006  0.05232994  0.25000000  1
  Te  Te14  1  0.57299207  0.42700793  0.75000000  1
  Te  Te15  1  0.42700793  0.57299207  0.25000000  1
loop_
_geom_bond_atom_site_label_1
_geom_bond_atom_site_label_2
_geom_bond_distance
_geom_bond_site_symmetry_2
K0 Te2 3.643886 1_555
K0 Te11 3.671005 1_555
K0 Te12 3.678328 1_545
K0 Te14 3.679882 1_555
K0 Te4 3.681529 1_545
K0 Te5 3.682871 1_555
K1 Te3 3.643886 1_556
K1 Te10 3.671005 1_556
K1 Te12 3.678328 1_655
K1 Te14 3.679882 1_555
K1 Te5 3.681529 1_655
K1 Te4 3.682871 1_555
K2 Te0 3.643886 1_555
K2 Te9 3.671005 1_555
K2 Te13 3.678328 1_565
K2 Te15 3.679882 1_555
K2 Te6 3.681529 1_565
K2 Te7 3.682871 1_555
K3 Te1 3.643886 1_554
K3 Te8 3.671005 1_554
K3 Te13 3.678328 1_455
K3 Te15 3.679882 1_555
K3 Te7 3.681529 1_455
K3 Te6 3.682871 1_555
K4 Te3 3.521332 1_556
K4 Te10 3.547561 1_546
K4 Te5 3.670694 1_655
K4 Te12 3.673286 1_645
K4 Te4 3.678164 1_545
K4 Te14 3.691375 1_555
K5 Te2 3.521332 1_555
K5 Te11 3.547561 1_655
K5 Te4 3.670694 1_545
K5 Te12 3.673286 1_645
K5 Te5 3.678164 1_655
K5 Te14 3.691375 1_555
K6 Te1 3.521332 1_554
K6 Te8 3.547561 1_564
K6 Te7 3.670694 1_455
K6 Te13 3.673286 1_465
K6 Te6 3.678164 1_565
K6 Te15 3.691375 1_555
K7 Te0 3.521332 1_555
K7 Te9 3.547561 1_455
K7 Te6 3.670694 1_565
K7 Te13 3.673286 1_465
K7 Te7 3.678164 1_455
K7 Te15 3.691375 1_555
Ga0 Te14 2.613867 1_555
Ga0 Te4 2.614534 1_555
Ga0 Te0 2.630927 1_555
Ga0 Te9 2.641258 1_555
Ga1 Te14 2.613867 1_555
Ga1 Te5 2.614534 1_555
Ga1 Te1 2.630927 1_555
Ga1 Te8 2.641258 1_555
Ga2 Te15 2.613867 1_555
Ga2 Te6 2.614534 1_555
Ga2 Te2 2.630927 1_555
Ga2 Te11 2.641258 1_555
Ga3 Te15 2.613867 1_555
Ga3 Te7 2.614534 1_555
Ga3 Te3 2.630927 1_555
Ga3 Te10 2.641258 1_555
Ga4 Te12 2.616559 1_555
Ga4 Te4 2.617597 1_555
Ga4 Te1 2.635380 1_555
Ga4 Te8 2.647310 1_565
Ga5 Te12 2.616559 1_555
Ga5 Te5 2.617597 1_555
Ga5 Te0 2.635380 1_555
Ga5 Te9 2.647310 1_455
Ga6 Te13 2.616559 1_555
Ga6 Te6 2.617597 1_555
Ga6 Te3 2.635380 1_555
Ga6 Te10 2.647310 1_545
Ga7 Te13 2.616559 1_555
Ga7 Te7 2.617597 1_555
Ga7 Te2 2.635380 1_555
Ga7 Te11 2.647310 1_655
