# generated using pymatgen
data_Li7Co(O2F)2
_symmetry_space_group_name_H-M   'P 1'
_cell_length_a   5.34668400
_cell_length_b   5.71678971
_cell_length_c   10.24509343
_cell_angle_alpha   105.47730580
_cell_angle_beta   86.06915246
_cell_angle_gamma   114.78460657
_symmetry_Int_Tables_number   1
_chemical_formula_structural   Li7Co(O2F)2
_chemical_formula_sum   'Li14 Co2 O8 F4'
_cell_volume   273.65998229
_cell_formula_units_Z   2
loop_
 _symmetry_equiv_pos_site_id
 _symmetry_equiv_pos_as_xyz
  1  'x, y, z'
loop_
 _atom_site_type_symbol
 _atom_site_label
 _atom_site_symmetry_multiplicity
 _atom_site_fract_x
 _atom_site_fract_y
 _atom_site_fract_z
 _atom_site_occupancy
  Li  Li0  1  0.05337500  0.96684500  0.76825600  1
  Li  Li1  1  0.47053000  0.36733200  0.25821500  1
  Li  Li2  1  0.53562100  0.05649600  0.61193700  1
  Li  Li3  1  0.96761200  0.41816300  0.87809000  1
  Li  Li4  1  0.04284800  0.77680500  0.55678400  1
  Li  Li5  1  0.51665100  0.28818700  0.04260100  1
  Li  Li6  1  0.94862400  0.64259600  0.32205600  1
  Li  Li7  1  0.48629100  0.76406300  0.93713500  1
  Li  Li8  1  0.97212900  0.21884100  0.46912400  1
  Li  Li9  1  0.98295100  0.50345600  0.10323300  1
  Li  Li10  1  0.49023200  0.96586800  0.38624000  1
  Li  Li11  1  0.48616500  0.56314800  0.72197800  1
  Li  Li12  1  0.99084900  0.09369000  0.25433400  1
  Li  Li13  1  0.52071300  0.84899500  0.17213700  1
  Co  Co0  1  0.00523600  0.94992500  0.05162600  1
  Co  Co1  1  0.50555000  0.50375100  0.49221700  1
  O  O0  1  0.25610400  0.18187000  0.59584100  1
  O  O1  1  0.28249100  0.02463100  0.20476800  1
  O  O2  1  0.16421500  0.81970900  0.96363300  1
  O  O3  1  0.66468200  0.31572200  0.43464600  1
  O  O4  1  0.69025100  0.62387700  0.11809100  1
  O  O5  1  0.34547400  0.69408300  0.54058200  1
  O  O6  1  0.82742700  0.17098900  0.05580300  1
  O  O7  1  0.77444300  0.83269800  0.39310900  1
  F  F0  1  0.86382900  0.60827300  0.72128200  1
  F  F1  1  0.32065900  0.41560900  0.88825400  1
  F  F2  1  0.14652000  0.43646400  0.27720800  1
  F  F3  1  0.68853000  0.94791400  0.78082200  1
loop_
_geom_bond_atom_site_label_1
_geom_bond_atom_site_label_2
_geom_bond_distance
_geom_bond_site_symmetry_2
Li0 O0 2.363347 1_565
Li1 O1 1.732165 1_555
Li1 O4 2.244971 1_555
Li2 O5 1.840670 1_545
Li2 O0 1.941481 1_555
Li3 O2 2.042562 1_655
Li3 O6 2.484227 1_556
Li4 O5 1.852588 1_555
Li4 O0 2.043729 1_565
Li5 O4 1.719114 1_555
Li5 O6 2.059307 1_555
Li6 O7 1.706362 1_555
Li7 O2 1.867999 1_555
Li7 O6 2.335313 1_566
Li8 O7 1.958522 1_545
Li8 O3 2.020151 1_555
Li8 O0 2.172815 1_655
Li9 O6 1.666560 1_555
Li9 O4 1.939311 1_555
Li10 O3 1.756722 1_565
Li10 O7 1.976581 1_555
Li11 O0 2.097798 1_555
Li12 O1 1.773635 1_655
Li12 O6 2.478482 1_555
Li13 O4 1.820291 1_555
Li13 O1 1.891280 1_565
Li13 O6 2.422865 1_565
Co0 O2 1.468557 1_554
Co0 O6 1.864310 1_465
Co0 Li12 2.028417 1_465
Co0 O1 2.066873 1_565
Co0 O4 2.159293 1_455
Co1 O3 1.608373 1_555
Co1 O5 1.611483 1_555
Co1 O0 2.254504 1_555
F0 Li0 1.805347 1_655
F0 Li11 1.925160 1_555
F0 Li4 2.134690 1_655
F0 Li3 2.372692 1_555
F1 Li7 1.747163 1_555
F1 Li3 1.903963 1_455
F1 Li11 2.081064 1_555
F1 Li5 2.368801 1_556
F1 Li0 2.370461 1_545
F2 Li12 1.732566 1_455
F2 Li6 1.846369 1_455
F2 Li1 1.918844 1_555
F2 Li9 2.224249 1_455
F3 Li0 1.905141 1_655
F3 Li11 1.938757 1_555
F3 Li7 2.132271 1_555
F3 Li2 2.289129 1_565
F3 Li3 2.420224 1_565
