# generated using pymatgen
data_Li9Mn2Co5O16
_symmetry_space_group_name_H-M   'P 1'
_cell_length_a   2.89528000
_cell_length_b   9.75591177
_cell_length_c   10.14883252
_cell_angle_alpha   84.81359645
_cell_angle_beta   88.78761719
_cell_angle_gamma   82.54578124
_symmetry_Int_Tables_number   1
_chemical_formula_structural   Li9Mn2Co5O16
_chemical_formula_sum   'Li9 Mn2 Co5 O16'
_cell_volume   283.06561631
_cell_formula_units_Z   1
loop_
 _symmetry_equiv_pos_site_id
 _symmetry_equiv_pos_as_xyz
  1  'x, y, z'
loop_
 _atom_site_type_symbol
 _atom_site_label
 _atom_site_symmetry_multiplicity
 _atom_site_fract_x
 _atom_site_fract_y
 _atom_site_fract_z
 _atom_site_occupancy
  Li  Li0  1  0.87579800  0.24213900  0.55353500  1
  Li  Li1  1  0.12420200  0.75786100  0.44646500  1
  Li  Li2  1  0.38447900  0.24528600  0.31863200  1
  Li  Li3  1  0.62239400  0.75030200  0.18712400  1
  Li  Li4  1  0.87447000  0.25146200  0.06019500  1
  Li  Li5  1  0.12553000  0.74853800  0.93980500  1
  Li  Li6  1  0.37760600  0.24969800  0.81287600  1
  Li  Li7  1  0.61552100  0.75471400  0.68136800  1
  Li  Li8  1  0.50000000  0.00000000  0.50000000  1
  Mn  Mn0  1  0.00194800  0.99781900  0.74574400  1
  Mn  Mn1  1  0.99805200  0.00218100  0.25425600  1
  Co  Co0  1  0.24948200  0.49909800  0.62528100  1
  Co  Co1  1  0.75051800  0.50090200  0.37471900  1
  Co  Co2  1  0.24996900  0.50029500  0.12511400  1
  Co  Co3  1  0.50000000  0.00000000  0.00000000  1
  Co  Co4  1  0.75003100  0.49970500  0.87488600  1
  O  O0  1  0.45614500  0.11136900  0.67014400  1
  O  O1  1  0.67475400  0.61711300  0.53495800  1
  O  O2  1  0.94122700  0.11645500  0.38853200  1
  O  O3  1  0.17481500  0.61769100  0.28532000  1
  O  O4  1  0.45507300  0.10623100  0.15435700  1
  O  O5  1  0.67397300  0.61843800  0.03476600  1
  O  O6  1  0.95651900  0.10593100  0.91074000  1
  O  O7  1  0.17552700  0.61481900  0.78676400  1
  O  O8  1  0.32524600  0.38288700  0.46504200  1
  O  O9  1  0.54385500  0.88863100  0.32985600  1
  O  O10  1  0.82447300  0.38518100  0.21323600  1
  O  O11  1  0.04348100  0.89406900  0.08926000  1
  O  O12  1  0.32602700  0.38156200  0.96523400  1
  O  O13  1  0.54492700  0.89376900  0.84564300  1
  O  O14  1  0.82518500  0.38230900  0.71468000  1
  O  O15  1  0.05877300  0.88354500  0.61146800  1
loop_
_geom_bond_atom_site_label_1
_geom_bond_atom_site_label_2
_geom_bond_distance
_geom_bond_site_symmetry_2
Li0 O8 2.121936 1_555
Li0 O0 2.138411 1_555
Li0 O8 2.139297 1_655
Li0 O2 2.154329 1_555
Li0 O14 2.215475 1_555
Li0 O0 2.259741 1_655
Li1 O1 2.121936 1_555
Li1 O9 2.138411 1_555
Li1 O1 2.139297 1_455
Li1 O15 2.154329 1_555
Li1 O3 2.215475 1_555
Li1 O9 2.259741 1_455
Li2 O2 1.987136 1_455
Li2 O2 2.010678 1_555
Li2 O8 2.080742 1_555
Li2 O10 2.181557 1_555
Li2 O10 2.207030 1_455
Li2 O4 2.232545 1_555
Li3 O9 2.056970 1_555
Li3 O5 2.090020 1_555
Li3 O3 2.119777 1_555
Li3 O3 2.126618 1_655
Li3 O11 2.140242 1_655
Li3 O11 2.229722 1_555
Li4 O12 2.093291 1_554
Li4 O12 2.098839 1_654
Li4 O10 2.107845 1_555
Li4 O4 2.132532 1_555
Li4 O6 2.158581 1_554
Li4 O4 2.225245 1_655
Li5 O5 2.093291 1_556
Li5 O5 2.098839 1_456
Li5 O7 2.107845 1_555
Li5 O13 2.132532 1_555
Li5 O11 2.158581 1_556
Li5 O13 2.225245 1_455
Li6 O0 2.056970 1_555
Li6 O12 2.090020 1_555
Li6 O14 2.119777 1_555
Li6 O14 2.126618 1_455
Li6 O6 2.140242 1_455
Li6 O6 2.229722 1_555
Li7 O15 1.987136 1_655
Li7 O15 2.010678 1_555
Li7 O1 2.080742 1_555
Li7 O7 2.181557 1_555
Li7 O7 2.207030 1_655
Li7 O13 2.232545 1_555
Li8 O2 2.070159 1_555
Li8 O15 2.070159 1_545
Li8 O0 2.114816 1_555
Li8 O9 2.114816 1_545
Li8 O2 2.134482 1_455
Li8 O15 2.134482 1_645
Mn0 O15 1.828829 1_555
Mn0 O0 1.930487 1_565
Mn0 O0 1.938165 1_465
Mn0 O13 1.978608 1_455
Mn0 O13 1.999271 1_555
Mn0 O6 2.051282 1_465
Mn1 O2 1.828829 1_555
Mn1 O9 1.930487 1_545
Mn1 O9 1.938165 1_645
Mn1 O4 1.978608 1_655
Mn1 O4 1.999271 1_555
Mn1 O11 2.051282 1_645
Co0 O14 1.938969 1_455
Co0 O1 1.952228 1_555
Co0 O8 2.057148 1_555
Co0 O7 2.064756 1_555
Co0 O14 2.069784 1_555
Co0 O1 2.076394 1_455
Co1 O3 1.938969 1_655
Co1 O8 1.952228 1_555
Co1 O1 2.057148 1_555
Co1 O10 2.064756 1_555
Co1 O3 2.069784 1_555
Co1 O8 2.076394 1_655
Co2 O10 1.926001 1_455
Co2 O5 1.950559 1_555
Co2 O10 2.055352 1_555
Co2 O3 2.063895 1_555
Co2 O12 2.069198 1_554
Co2 O5 2.079724 1_455
Co3 O6 1.941695 1_554
Co3 O11 1.941695 1_545
Co3 O4 1.948072 1_555
Co3 O13 1.948072 1_544
Co3 O6 1.958003 1_454
Co3 O11 1.958003 1_645
Co4 O7 1.926001 1_655
Co4 O12 1.950559 1_555
Co4 O7 2.055352 1_555
Co4 O14 2.063895 1_555
Co4 O5 2.069198 1_556
Co4 O12 2.079724 1_655
