# generated using pymatgen
data_LiSc(SiO3)2
_symmetry_space_group_name_H-M   'P 1'
_cell_length_a   9.04772400
_cell_length_b   5.40788600
_cell_length_c   9.49825022
_cell_angle_alpha   78.13104351
_cell_angle_beta   90.00000000
_cell_angle_gamma   90.00000000
_symmetry_Int_Tables_number   1
_chemical_formula_structural   LiSc(SiO3)2
_chemical_formula_sum   'Li4 Sc4 Si8 O24'
_cell_volume   454.80456627
_cell_formula_units_Z   4
loop_
 _symmetry_equiv_pos_site_id
 _symmetry_equiv_pos_as_xyz
  1  'x, y, z'
loop_
 _atom_site_type_symbol
 _atom_site_label
 _atom_site_symmetry_multiplicity
 _atom_site_fract_x
 _atom_site_fract_y
 _atom_site_fract_z
 _atom_site_occupancy
  Li  Li0  1  0.50436100  0.50291200  0.74992100  1
  Li  Li1  1  0.99563900  0.00291200  0.74992100  1
  Li  Li2  1  0.49563900  0.49708800  0.25007900  1
  Li  Li3  1  0.00436100  0.99708800  0.25007900  1
  Sc  Sc0  1  0.35584300  0.00313000  0.75004900  1
  Sc  Sc1  1  0.14415700  0.50313000  0.75004900  1
  Sc  Sc2  1  0.85584300  0.49687000  0.24995100  1
  Sc  Sc3  1  0.64415700  0.99687000  0.24995100  1
  Si  Si0  1  0.16350800  0.73156800  0.04884300  1
  Si  Si1  1  0.83649200  0.26843200  0.95115700  1
  Si  Si2  1  0.66350800  0.76843200  0.95115700  1
  Si  Si3  1  0.83649000  0.72556400  0.54879100  1
  Si  Si4  1  0.33649000  0.77443600  0.45120900  1
  Si  Si5  1  0.33649200  0.23156800  0.04884300  1
  Si  Si6  1  0.16351000  0.27443600  0.45120900  1
  Si  Si7  1  0.66351000  0.22556400  0.54879100  1
  O  O0  1  0.49792300  0.77202600  0.37773800  1
  O  O1  1  0.24880500  0.45996800  0.10491000  1
  O  O2  1  0.25119500  0.95996800  0.10491000  1
  O  O3  1  0.00207700  0.27202600  0.37773800  1
  O  O4  1  0.74880500  0.04003200  0.89509000  1
  O  O5  1  0.23841100  0.55563500  0.39658000  1
  O  O6  1  0.75119500  0.54003200  0.89509000  1
  O  O7  1  0.16664600  0.78994600  0.87102300  1
  O  O8  1  0.16608000  0.21597000  0.62916000  1
  O  O9  1  0.66608000  0.28403000  0.37084000  1
  O  O10  1  0.26158900  0.05563500  0.39658000  1
  O  O11  1  0.50061700  0.78010800  0.87946500  1
  O  O12  1  0.66664600  0.71005400  0.12897700  1
  O  O13  1  0.73841100  0.94436500  0.60342000  1
  O  O14  1  0.99938300  0.28010800  0.87946500  1
  O  O15  1  0.33392000  0.71597000  0.62916000  1
  O  O16  1  0.50207700  0.22797400  0.62226200  1
  O  O17  1  0.99792300  0.72797400  0.62226200  1
  O  O18  1  0.33335400  0.28994600  0.87102300  1
  O  O19  1  0.49938300  0.21989200  0.12053500  1
  O  O20  1  0.76158900  0.44436500  0.60342000  1
  O  O21  1  0.83335400  0.21005400  0.12897700  1
  O  O22  1  0.83392000  0.78403000  0.37084000  1
  O  O23  1  0.00061700  0.71989200  0.12053500  1
loop_
_geom_bond_atom_site_label_1
_geom_bond_atom_site_label_2
_geom_bond_distance
_geom_bond_site_symmetry_2
Li0 O16 2.103079 1_555
Li0 O15 2.116046 1_555
Li0 O18 2.120959 1_555
Li0 O11 2.126263 1_555
Li1 O17 2.103079 1_545
Li1 O8 2.116046 1_655
Li1 O7 2.120959 1_645
Li1 O14 2.126263 1_555
Li2 O0 2.103079 1_555
Li2 O9 2.116046 1_555
Li2 O12 2.120959 1_555
Li2 O19 2.126263 1_555
Li3 O3 2.103079 1_565
Li3 O22 2.116046 1_455
Li3 O21 2.120959 1_465
Li3 O23 2.126263 1_555
O0 Si4 1.619956 1_555
O0 Sc3 2.023649 1_555
O1 Si5 1.645972 1_555
O1 Si0 1.647652 1_555
O2 Si0 1.645972 1_555
O2 Si5 1.647652 1_565
O3 Si6 1.619956 1_555
O3 Sc2 2.023649 1_455
O4 Si1 1.645972 1_555
O4 Si2 1.647652 1_545
O5 Si4 1.646006 1_555
O5 Si6 1.648156 1_555
O6 Si2 1.645972 1_555
O6 Si1 1.647652 1_555
O7 Si0 1.653417 1_556
O7 Sc1 2.121469 1_555
O7 Sc0 2.243829 1_565
O8 Si6 1.654550 1_555
O8 Sc1 2.121994 1_555
O8 Sc0 2.246653 1_555
O9 Si7 1.654550 1_555
O9 Sc3 2.121994 1_545
O9 Sc2 2.246653 1_555
O10 Si6 1.646006 1_555
O10 Si4 1.648156 1_545
O11 Si2 1.619277 1_555
O11 Sc0 2.017809 1_565
O12 Si2 1.653417 1_554
O12 Sc3 2.121469 1_555
O12 Sc2 2.243829 1_555
O13 Si3 1.646006 1_555
O13 Si7 1.648156 1_565
O14 Si1 1.619277 1_555
O14 Sc1 2.017809 1_655
O15 Si4 1.654550 1_555
O15 Sc0 2.121994 1_565
O15 Sc1 2.246653 1_555
O16 Si7 1.619956 1_555
O16 Sc0 2.023649 1_555
O17 Si3 1.619956 1_555
O17 Sc1 2.023649 1_655
O18 Si5 1.653417 1_556
O18 Sc0 2.121469 1_555
O18 Sc1 2.243829 1_555
O19 Si5 1.619277 1_555
O19 Sc3 2.017809 1_545
O20 Si7 1.646006 1_555
O20 Si3 1.648156 1_555
O21 Si1 1.653417 1_554
O21 Sc2 2.121469 1_555
O21 Sc3 2.243829 1_545
O22 Si3 1.654550 1_555
O22 Sc2 2.121994 1_555
O22 Sc3 2.246653 1_555
O23 Si0 1.619277 1_555
O23 Sc2 2.017809 1_455
