# generated using pymatgen
data_V3O8
_symmetry_space_group_name_H-M   'P 1'
_cell_length_a   9.84050931
_cell_length_b   9.84050931
_cell_length_c   10.43667102
_cell_angle_alpha   78.33554517
_cell_angle_beta   78.33554517
_cell_angle_gamma   16.78928357
_symmetry_Int_Tables_number   1
_chemical_formula_structural   V3O8
_chemical_formula_sum   'V6 O16'
_cell_volume   285.76512928
_cell_formula_units_Z   2
loop_
 _symmetry_equiv_pos_site_id
 _symmetry_equiv_pos_as_xyz
  1  'x, y, z'
loop_
 _atom_site_type_symbol
 _atom_site_label
 _atom_site_symmetry_multiplicity
 _atom_site_fract_x
 _atom_site_fract_y
 _atom_site_fract_z
 _atom_site_occupancy
  V  V0  1  0.83091600  0.82237700  0.66831400  1
  V  V1  1  0.82237700  0.83091600  0.16831400  1
  V  V2  1  0.16573200  0.18437400  0.82755900  1
  V  V3  1  0.18437400  0.16573200  0.32755900  1
  V  V4  1  0.08486300  0.91647300  0.74905800  1
  V  V5  1  0.91647300  0.08486300  0.24905800  1
  O  O0  1  0.50052100  0.55112400  0.62742600  1
  O  O1  1  0.55112400  0.50052100  0.12742600  1
  O  O2  1  0.44467600  0.50560300  0.87138200  1
  O  O3  1  0.50560300  0.44467600  0.37138200  1
  O  O4  1  0.90222900  0.90849600  0.71277300  1
  O  O5  1  0.90849600  0.90222900  0.21277300  1
  O  O6  1  0.08472100  0.10673500  0.78491400  1
  O  O7  1  0.10673500  0.08472100  0.28491400  1
  O  O8  1  0.33163300  0.33463000  0.55902000  1
  O  O9  1  0.33463000  0.33163300  0.05902000  1
  O  O10  1  0.65949400  0.67855000  0.93670400  1
  O  O11  1  0.67855000  0.65949400  0.43670400  1
  O  O12  1  0.69581900  0.73572500  0.69666500  1
  O  O13  1  0.73572500  0.69581900  0.19666500  1
  O  O14  1  0.29251200  0.27841000  0.79868100  1
  O  O15  1  0.27841000  0.29251200  0.29868100  1
loop_
_geom_bond_atom_site_label_1
_geom_bond_atom_site_label_2
_geom_bond_distance
_geom_bond_site_symmetry_2
O0 V4 1.690004 1_555
O0 V4 2.159633 1_645
O1 V5 1.690004 1_555
O1 V5 2.159633 1_465
O2 V4 1.686233 1_555
O2 V4 2.176353 1_645
O3 V5 1.686233 1_555
O3 V5 2.176353 1_465
O4 V0 1.689770 1_555
O4 V4 1.984161 1_655
O5 V1 1.689770 1_555
O5 V5 1.984161 1_565
O6 V2 1.692474 1_555
O6 V4 1.980793 1_545
O7 V3 1.692474 1_555
O7 V5 1.980793 1_455
O8 V0 1.809621 1_455
O8 V0 1.835746 1_545
O9 V1 1.809621 1_545
O9 V1 1.835746 1_455
O10 V2 1.821774 1_565
O10 V2 1.822712 1_655
O11 V3 1.821774 1_655
O11 V3 1.822712 1_565
O12 V2 2.007267 1_565
O12 V2 2.050528 1_655
O12 V0 2.119313 1_555
O13 V3 2.007267 1_655
O13 V3 2.050528 1_565
O13 V1 2.119313 1_555
O14 V0 2.022196 1_545
O14 V0 2.033520 1_455
O14 V2 2.109330 1_555
O15 V1 2.022196 1_455
O15 V1 2.033520 1_545
O15 V3 2.109330 1_555
