# generated using pymatgen
data_Rb6CuAgO4
_symmetry_space_group_name_H-M   'P 1'
_cell_length_a   9.14497800
_cell_length_b   9.14497800
_cell_length_c   14.38569200
_cell_angle_alpha   90.00000000
_cell_angle_beta   90.00000000
_cell_angle_gamma   90.00000000
_symmetry_Int_Tables_number   1
_chemical_formula_structural   Rb6CuAgO4
_chemical_formula_sum   'Rb24 Cu4 Ag4 O16'
_cell_volume   1203.08437879
_cell_formula_units_Z   4
loop_
 _symmetry_equiv_pos_site_id
 _symmetry_equiv_pos_as_xyz
  1  'x, y, z'
loop_
 _atom_site_type_symbol
 _atom_site_label
 _atom_site_symmetry_multiplicity
 _atom_site_fract_x
 _atom_site_fract_y
 _atom_site_fract_z
 _atom_site_occupancy
  Rb  Rb0  1  0.03399900  0.06167700  0.74804700  1
  Rb  Rb1  1  0.96600100  0.93832300  0.24804700  1
  Rb  Rb2  1  0.06167700  0.96600100  0.49804700  1
  Rb  Rb3  1  0.93832300  0.03399900  0.99804700  1
  Rb  Rb4  1  0.43996900  0.46392500  0.75148000  1
  Rb  Rb5  1  0.56003100  0.53607500  0.25148000  1
  Rb  Rb6  1  0.46392500  0.56003100  0.50148000  1
  Rb  Rb7  1  0.53607500  0.43996900  0.00148000  1
  Rb  Rb8  1  0.44738900  0.05508000  0.74987900  1
  Rb  Rb9  1  0.55261100  0.94492000  0.24987900  1
  Rb  Rb10  1  0.05508000  0.55261100  0.49987900  1
  Rb  Rb11  1  0.94492000  0.44738900  0.99987900  1
  Rb  Rb12  1  0.02639800  0.47231900  0.74989200  1
  Rb  Rb13  1  0.97360200  0.52768100  0.24989200  1
  Rb  Rb14  1  0.47231900  0.97360200  0.49989200  1
  Rb  Rb15  1  0.52768100  0.02639800  0.99989200  1
  Rb  Rb16  1  0.34188700  0.26360400  0.35873400  1
  Rb  Rb17  1  0.65811300  0.73639600  0.85873400  1
  Rb  Rb18  1  0.26360400  0.65811300  0.10873400  1
  Rb  Rb19  1  0.73639600  0.34188700  0.60873400  1
  Rb  Rb20  1  0.23644000  0.15360300  0.14127200  1
  Rb  Rb21  1  0.76356000  0.84639700  0.64127200  1
  Rb  Rb22  1  0.15360300  0.76356000  0.89127200  1
  Rb  Rb23  1  0.84639700  0.23644000  0.39127200  1
  Cu  Cu0  1  0.76266700  0.73853200  0.08435000  1
  Cu  Cu1  1  0.23733300  0.26146800  0.58435000  1
  Cu  Cu2  1  0.73853200  0.23733300  0.83435000  1
  Cu  Cu3  1  0.26146800  0.76266700  0.33435000  1
  Ag  Ag0  1  0.76067600  0.73719500  0.41546000  1
  Ag  Ag1  1  0.23932400  0.26280500  0.91546000  1
  Ag  Ag2  1  0.73719500  0.23932400  0.16546000  1
  Ag  Ag3  1  0.26280500  0.76067600  0.66546000  1
  O  O0  1  0.73551900  0.43634600  0.83097800  1
  O  O1  1  0.26448100  0.56365400  0.33097800  1
  O  O2  1  0.43634600  0.26448100  0.58097800  1
  O  O3  1  0.56365400  0.73551900  0.08097800  1
  O  O4  1  0.03997000  0.76310000  0.66927800  1
  O  O5  1  0.96003000  0.23690000  0.16927800  1
  O  O6  1  0.76310000  0.96003000  0.41927800  1
  O  O7  1  0.23690000  0.03997000  0.91927800  1
  O  O8  1  0.48634400  0.75974100  0.66653100  1
  O  O9  1  0.51365600  0.24025900  0.16653100  1
  O  O10  1  0.75974100  0.51365600  0.41653100  1
  O  O11  1  0.24025900  0.48634400  0.91653100  1
  O  O12  1  0.73833100  0.03730900  0.83410000  1
  O  O13  1  0.26166900  0.96269100  0.33410000  1
  O  O14  1  0.03730900  0.26166900  0.58410000  1
  O  O15  1  0.96269100  0.73833100  0.08410000  1
loop_
_geom_bond_atom_site_label_1
_geom_bond_atom_site_label_2
_geom_bond_distance
_geom_bond_site_symmetry_2
Cu0 O3 1.820824 1_555
Cu0 O15 1.829220 1_555
Cu0 Rb17 3.383606 1_554
Cu1 O2 1.820824 1_555
Cu1 O14 1.829220 1_555
Cu1 Rb16 3.383606 1_555
Cu2 O0 1.820824 1_555
Cu2 O12 1.829220 1_555
Cu2 Rb19 3.383606 1_555
Cu3 O1 1.820824 1_555
Cu3 O13 1.829220 1_555
Cu3 Rb18 3.383606 1_555
Ag0 O6 2.038682 1_555
Ag0 O10 2.044335 1_555
Ag1 O7 2.038682 1_555
Ag1 O11 2.044335 1_555
Ag2 O5 2.038682 1_555
Ag2 O9 2.044335 1_555
Ag3 O4 2.038682 1_555
Ag3 O8 2.044335 1_555
O0 Rb17 2.861780 1_555
O0 Rb12 2.923171 1_655
O0 Rb4 2.945611 1_555
O0 Rb7 3.056783 1_556
O0 Rb11 3.095323 1_555
O0 Rb19 3.311785 1_555
O1 Rb16 2.861780 1_555
O1 Rb13 2.923171 1_455
O1 Rb5 2.945611 1_555
O1 Rb6 3.056783 1_555
O1 Rb10 3.095323 1_555
O1 Rb18 3.311785 1_555
O2 Rb19 2.861780 1_555
O2 Rb14 2.923171 1_545
O2 Rb6 2.945611 1_555
O2 Rb4 3.056783 1_555
O2 Rb8 3.095323 1_555
O2 Rb16 3.311785 1_555
O3 Rb18 2.861780 1_555
O3 Rb15 2.923171 1_564
O3 Rb7 2.945611 1_555
O3 Rb5 3.056783 1_555
O3 Rb9 3.095323 1_555
O3 Rb17 3.311785 1_554
O4 Rb21 2.670612 1_455
O4 Rb12 2.903713 1_555
O4 Rb0 2.956776 1_565
O4 Rb2 3.090325 1_555
O4 Rb10 3.108535 1_555
O4 Rb22 3.358359 1_555
O5 Rb20 2.670612 1_655
O5 Rb13 2.903713 1_555
O5 Rb1 2.956776 1_545
O5 Rb3 3.090325 1_554
O5 Rb11 3.108535 1_554
O5 Rb23 3.358359 1_555
O6 Rb23 2.670612 1_565
O6 Rb14 2.903713 1_555
O6 Rb2 2.956776 1_655
O6 Rb1 3.090325 1_555
O6 Rb9 3.108535 1_555
O6 Rb21 3.358359 1_555
O7 Rb22 2.670612 1_545
O7 Rb15 2.903713 1_555
O7 Rb3 2.956776 1_455
O7 Rb0 3.090325 1_555
O7 Rb8 3.108535 1_555
O7 Rb20 3.358359 1_556
O8 Rb21 2.680848 1_555
O8 Rb8 2.976449 1_565
O8 Rb4 2.998590 1_555
O8 Rb6 3.002534 1_555
O8 Rb14 3.096462 1_555
O8 Rb17 3.187184 1_555
O9 Rb20 2.680848 1_555
O9 Rb9 2.976449 1_545
O9 Rb5 2.998590 1_555
O9 Rb7 3.002534 1_555
O9 Rb15 3.096462 1_554
O9 Rb16 3.187184 1_555
O10 Rb23 2.680848 1_555
O10 Rb10 2.976449 1_655
O10 Rb6 2.998590 1_555
O10 Rb5 3.002534 1_555
O10 Rb13 3.096462 1_555
O10 Rb19 3.187184 1_555
O11 Rb22 2.680848 1_555
O11 Rb11 2.976449 1_455
O11 Rb7 2.998590 1_556
O11 Rb4 3.002534 1_555
O11 Rb12 3.096462 1_555
O11 Rb18 3.187184 1_556
O12 Rb17 2.869909 1_545
O12 Rb8 2.928043 1_555
O12 Rb0 2.982128 1_655
O12 Rb3 2.984687 1_555
O12 Rb15 3.067460 1_555
O12 Rb21 3.285761 1_545
O13 Rb16 2.869909 1_565
O13 Rb9 2.928043 1_555
O13 Rb1 2.982128 1_455
O13 Rb2 2.984687 1_555
O13 Rb14 3.067460 1_555
O13 Rb20 3.285761 1_565
O14 Rb19 2.869909 1_455
O14 Rb10 2.928043 1_555
O14 Rb2 2.982128 1_545
O14 Rb0 2.984687 1_555
O14 Rb12 3.067460 1_555
O14 Rb23 3.285761 1_455
O15 Rb18 2.869909 1_655
O15 Rb11 2.928043 1_554
O15 Rb3 2.982128 1_564
O15 Rb1 2.984687 1_555
O15 Rb13 3.067460 1_555
O15 Rb22 3.285761 1_654
