# generated using pymatgen
data_SrLiMg6
_symmetry_space_group_name_H-M   'P 1'
_cell_length_a   5.32257800
_cell_length_b   6.60189700
_cell_length_c   11.95582100
_cell_angle_alpha   90.00000000
_cell_angle_beta   90.00000000
_cell_angle_gamma   90.00000000
_symmetry_Int_Tables_number   1
_chemical_formula_structural   SrLiMg6
_chemical_formula_sum   'Sr2 Li2 Mg12'
_cell_volume   420.11692995
_cell_formula_units_Z   2
loop_
 _symmetry_equiv_pos_site_id
 _symmetry_equiv_pos_as_xyz
  1  'x, y, z'
loop_
 _atom_site_type_symbol
 _atom_site_label
 _atom_site_symmetry_multiplicity
 _atom_site_fract_x
 _atom_site_fract_y
 _atom_site_fract_z
 _atom_site_occupancy
  Sr  Sr0  1  0.50000000  0.50000000  0.17076900  1
  Sr  Sr1  1  0.50000000  0.00000000  0.67076900  1
  Li  Li0  1  0.50000000  0.00000000  0.16348800  1
  Li  Li1  1  0.50000000  0.50000000  0.66348800  1
  Mg  Mg0  1  0.50000000  0.25609200  0.42160000  1
  Mg  Mg1  1  0.50000000  0.74390800  0.42160000  1
  Mg  Mg2  1  0.00000000  0.76420100  0.07629900  1
  Mg  Mg3  1  0.00000000  0.23579900  0.07629900  1
  Mg  Mg4  1  0.00000000  0.00000000  0.32820700  1
  Mg  Mg5  1  0.00000000  0.50000000  0.34173300  1
  Mg  Mg6  1  0.50000000  0.75609200  0.92160000  1
  Mg  Mg7  1  0.50000000  0.24390800  0.92160000  1
  Mg  Mg8  1  0.00000000  0.26420100  0.57629900  1
  Mg  Mg9  1  0.00000000  0.73579900  0.57629900  1
  Mg  Mg10  1  0.00000000  0.50000000  0.82820700  1
  Mg  Mg11  1  0.00000000  0.00000000  0.84173300  1
loop_
_geom_bond_atom_site_label_1
_geom_bond_atom_site_label_2
_geom_bond_distance
_geom_bond_site_symmetry_2
Li0 Mg3 3.254607 1_555
Li0 Mg3 3.254607 1_655
Li0 Mg2 3.254607 1_545
Li0 Mg2 3.254607 1_645
Li0 Sr0 3.302096 1_555
Li0 Sr0 3.302096 1_545
Li0 Mg7 3.310047 1_554
Li0 Mg6 3.310047 1_544
Li0 Mg4 3.310710 1_555
Li0 Mg4 3.310710 1_655
Li1 Mg9 3.254607 1_555
Li1 Mg9 3.254607 1_655
Li1 Mg8 3.254607 1_655
Li1 Mg8 3.254607 1_555
Li1 Sr1 3.302096 1_565
Li1 Sr1 3.302096 1_555
Li1 Mg1 3.310047 1_555
Li1 Mg0 3.310047 1_555
Li1 Mg10 3.310710 1_655
Li1 Mg10 3.310710 1_555
Mg0 Mg1 3.220511 1_555
Mg0 Mg8 3.241323 1_555
Mg0 Mg8 3.241323 1_655
Mg0 Mg5 3.253793 1_555
Mg0 Mg5 3.253793 1_655
Mg0 Mg4 3.344798 1_555
Mg0 Mg4 3.344798 1_655
Mg0 Mg1 3.381386 1_545
Mg0 Sr0 3.403861 1_555
Mg0 Sr1 3.425347 1_555
Mg1 Mg9 3.241323 1_655
Mg1 Mg9 3.241323 1_555
Mg1 Mg5 3.253793 1_555
Mg1 Mg5 3.253793 1_655
Mg1 Mg4 3.344798 1_665
Mg1 Mg4 3.344798 1_565
Mg1 Sr0 3.403861 1_555
Mg1 Sr1 3.425347 1_565
Mg2 Mg3 3.113441 1_565
Mg2 Mg6 3.241323 1_454
Mg2 Mg6 3.241323 1_554
Mg2 Sr0 3.376460 1_455
Mg2 Sr0 3.376460 1_555
Mg2 Mg4 3.390298 1_565
Mg2 Mg3 3.488456 1_555
Mg3 Mg7 3.241323 1_554
Mg3 Mg7 3.241323 1_454
Mg3 Sr0 3.376460 1_555
Mg3 Sr0 3.376460 1_455
Mg3 Mg4 3.390298 1_555
Mg4 Mg5 3.304907 1_545
Mg4 Mg5 3.304907 1_555
Mg4 Mg8 3.440979 1_555
Mg4 Mg9 3.440979 1_545
Mg5 Mg9 3.207523 1_555
Mg5 Mg8 3.207523 1_555
Mg5 Sr0 3.355660 1_455
Mg5 Sr0 3.355660 1_555
Mg6 Mg7 3.220511 1_565
Mg6 Mg7 3.381386 1_555
Mg6 Sr1 3.403861 1_565
Mg6 Sr0 3.425347 1_556
Mg7 Sr1 3.403861 1_555
Mg7 Sr0 3.425347 1_556
Mg8 Mg9 3.113441 1_555
Mg8 Sr1 3.376460 1_555
Mg8 Sr1 3.376460 1_455
Mg8 Mg9 3.488456 1_545
Mg9 Sr1 3.376460 1_565
Mg9 Sr1 3.376460 1_465
Mg10 Mg11 3.304907 1_565
Mg10 Mg11 3.304907 1_555
Mg10 Mg6 3.344798 1_455
Mg10 Mg6 3.344798 1_555
Mg10 Mg7 3.344798 1_455
Mg10 Mg7 3.344798 1_555
Mg10 Mg9 3.390298 1_555
Mg10 Mg8 3.390298 1_555
Mg10 Mg2 3.440979 1_556
Mg10 Mg3 3.440979 1_556
Mg11 Mg3 3.207523 1_556
Mg11 Mg2 3.207523 1_546
Mg11 Mg7 3.253793 1_555
Mg11 Mg7 3.253793 1_455
Mg11 Mg6 3.253793 1_545
Mg11 Mg6 3.253793 1_445
Mg11 Sr1 3.355660 1_455
Mg11 Sr1 3.355660 1_555
