# generated using pymatgen
data_K2CoH2(SO5)2
_symmetry_space_group_name_H-M   'P 1'
_cell_length_a   4.85591300
_cell_length_b   7.61409184
_cell_length_c   8.31470791
_cell_angle_alpha   106.31354439
_cell_angle_beta   95.96138936
_cell_angle_gamma   107.69987641
_symmetry_Int_Tables_number   1
_chemical_formula_structural   K2CoH2(SO5)2
_chemical_formula_sum   'K2 Co1 H2 S2 O10'
_cell_volume   274.99104090
_cell_formula_units_Z   1
loop_
 _symmetry_equiv_pos_site_id
 _symmetry_equiv_pos_as_xyz
  1  'x, y, z'
loop_
 _atom_site_type_symbol
 _atom_site_label
 _atom_site_symmetry_multiplicity
 _atom_site_fract_x
 _atom_site_fract_y
 _atom_site_fract_z
 _atom_site_occupancy
  K  K0  1  0.27912800  0.67219400  0.24933800  1
  K  K1  1  0.72087200  0.32780600  0.75066200  1
  Co  Co0  1  0.00000000  0.00000000  0.00000000  1
  H  H0  1  0.47697000  0.01908500  0.46575700  1
  H  H1  1  0.52303000  0.98091500  0.53424300  1
  S  S0  1  0.61018400  0.31749500  0.18274300  1
  S  S1  1  0.38981600  0.68250500  0.81725700  1
  O  O0  1  0.24783800  0.00685900  0.19932800  1
  O  O1  1  0.75216200  0.99314100  0.80067200  1
  O  O2  1  0.86298700  0.25428900  0.15007800  1
  O  O3  1  0.13701300  0.74571100  0.84992200  1
  O  O4  1  0.29362700  0.47766600  0.70922300  1
  O  O5  1  0.70637300  0.52233400  0.29077700  1
  O  O6  1  0.39067300  0.26777600  0.02484700  1
  O  O7  1  0.60932700  0.73222400  0.97515300  1
  O  O8  1  0.43202800  0.21110300  0.30408600  1
  O  O9  1  0.56797200  0.78889700  0.69591400  1
loop_
_geom_bond_atom_site_label_1
_geom_bond_atom_site_label_2
_geom_bond_distance
_geom_bond_site_symmetry_2
K0 O5 2.690127 1_555
K0 O0 2.739839 1_565
K0 O5 2.765188 1_455
K0 O7 2.979305 1_554
K0 O2 3.026205 1_455
K1 O4 2.690127 1_555
K1 O1 2.739839 1_545
K1 O4 2.765188 1_655
K1 O6 2.979305 1_556
K1 O3 3.026205 1_655
Co0 O1 1.922696 1_444
Co0 O0 1.922696 1_555
Co0 O7 2.264642 1_444
Co0 O6 2.264642 1_555
Co0 O3 2.312362 1_544
Co0 O2 2.312362 1_455
H0 H1 0.751531 1_545
H0 K0 2.562255 1_545
H0 K1 2.671328 1_555
H1 K1 2.562255 1_565
H1 K0 2.671328 1_555
O0 O8 1.486113 1_555
O1 O9 1.486113 1_555
O2 S0 1.472212 1_555
O3 S1 1.472212 1_555
O4 S1 1.463018 1_555
O5 S0 1.463018 1_555
O6 S0 1.479139 1_555
O7 S1 1.479139 1_555
O8 S0 1.623857 1_555
O9 S1 1.623857 1_555
