# generated using pymatgen
data_KPtN
_symmetry_space_group_name_H-M   'P 1'
_cell_length_a   10.48163120
_cell_length_b   3.68538356
_cell_length_c   5.21672588
_cell_angle_alpha   45.01228417
_cell_angle_beta   119.88235237
_cell_angle_gamma   110.62275237
_symmetry_Int_Tables_number   1
_chemical_formula_structural   KPtN
_chemical_formula_sum   'K2 Pt2 N2'
_cell_volume   123.57537750
_cell_formula_units_Z   2
loop_
 _symmetry_equiv_pos_site_id
 _symmetry_equiv_pos_as_xyz
  1  'x, y, z'
loop_
 _atom_site_type_symbol
 _atom_site_label
 _atom_site_symmetry_multiplicity
 _atom_site_fract_x
 _atom_site_fract_y
 _atom_site_fract_z
 _atom_site_occupancy
  K  K0  1  0.46537416  0.50077730  0.14088580  1
  K  K1  1  0.96609376  0.49929320  0.64230913  1
  Pt  Pt0  1  0.21560799  0.50123186  0.39052657  1
  Pt  Pt1  1  0.71565987  0.49879887  0.89182664  1
  N  N0  1  0.21558379  0.00132104  0.89047305  1
  N  N1  1  0.71567942  0.99857873  0.89197781  1
loop_
_geom_bond_atom_site_label_1
_geom_bond_atom_site_label_2
_geom_bond_distance
_geom_bond_site_symmetry_2
K0 N0 2.923449 1_554
K0 N0 2.924272 1_564
K0 N1 2.927612 1_554
K0 N1 2.930029 1_545
K1 N0 2.920713 1_655
K1 N0 2.922782 1_665
K1 N1 2.928775 1_554
K1 N1 2.930394 1_545
N0 Pt0 1.844679 1_555
N0 Pt0 1.844895 1_546
N1 Pt1 1.842366 1_555
N1 Pt1 1.843018 1_565
