# generated using pymatgen
data_Sc(P2Ru3)2
_symmetry_space_group_name_H-M   'P 1'
_cell_length_a   6.89209121
_cell_length_b   6.89209121
_cell_length_c   3.65292127
_cell_angle_alpha   90.00000000
_cell_angle_beta   90.00000000
_cell_angle_gamma   120.00000415
_symmetry_Int_Tables_number   1
_chemical_formula_structural   Sc(P2Ru3)2
_chemical_formula_sum   'Sc1 P4 Ru6'
_cell_volume   150.27023255
_cell_formula_units_Z   1
loop_
 _symmetry_equiv_pos_site_id
 _symmetry_equiv_pos_as_xyz
  1  'x, y, z'
loop_
 _atom_site_type_symbol
 _atom_site_label
 _atom_site_symmetry_multiplicity
 _atom_site_fract_x
 _atom_site_fract_y
 _atom_site_fract_z
 _atom_site_occupancy
  Sc  Sc0  1  0.00000000  0.00000000  0.00000000  1
  P  P0  1  0.18588535  0.37177170  0.50000000  1
  P  P1  1  0.62822830  0.81411465  0.50000000  1
  P  P2  1  0.18588535  0.81411465  0.50000000  1
  P  P3  1  0.66666700  0.33333300  0.00000000  1
  Ru  Ru0  1  0.80337247  0.60674393  0.50000000  1
  Ru  Ru1  1  0.39325607  0.19662753  0.50000000  1
  Ru  Ru2  1  0.80337247  0.19662753  0.50000000  1
  Ru  Ru3  1  0.46421623  0.92843146  0.00000000  1
  Ru  Ru4  1  0.07156854  0.53578377  -0.00000000  1
  Ru  Ru5  1  0.46421623  0.53578377  0.00000000  1
loop_
_geom_bond_atom_site_label_1
_geom_bond_atom_site_label_2
_geom_bond_distance
_geom_bond_site_symmetry_2
P0 Ru2 2.285814 1_455
P0 Ru1 2.285826 1_555
P0 Ru4 2.474894 1_555
P0 Ru4 2.474894 1_556
P0 Ru5 2.474901 1_556
P0 Ru5 2.474901 1_555
P0 Sc0 2.874010 1_555
P0 Sc0 2.874010 1_556
P1 Ru2 2.285814 1_565
P1 Ru0 2.285826 1_555
P1 Ru3 2.474894 1_555
P1 Ru3 2.474894 1_556
P1 Ru5 2.474901 1_555
P1 Ru5 2.474901 1_556
P1 Sc0 2.874010 1_665
P1 Sc0 2.874010 1_666
P2 Ru1 2.285814 1_565
P2 Ru0 2.285814 1_455
P2 Ru3 2.474902 1_555
P2 Ru3 2.474902 1_556
P2 Ru4 2.474902 1_556
P2 Ru4 2.474902 1_555
P2 Sc0 2.874006 1_565
P2 Sc0 2.874006 1_566
P3 Ru4 2.416746 1_655
P3 Ru3 2.416746 1_545
P3 Ru5 2.416746 1_555
P3 Ru0 2.449307 1_555
P3 Ru1 2.449307 1_555
P3 Ru0 2.449307 1_554
P3 Ru1 2.449307 1_554
P3 Ru2 2.449307 1_554
P3 Ru2 2.449307 1_555
Ru0 Sc0 2.974136 1_666
Ru0 Sc0 2.974136 1_665
Ru1 Sc0 2.974136 1_556
Ru1 Sc0 2.974136 1_555
Ru2 Sc0 2.974131 1_655
Ru2 Sc0 2.974131 1_656
