# generated using pymatgen
data_Zn3As2
_symmetry_space_group_name_H-M   'P 1'
_cell_length_a   14.65623289
_cell_length_b   14.65623289
_cell_length_c   14.65623289
_cell_angle_alpha   131.95157088
_cell_angle_beta   131.95157088
_cell_angle_gamma   70.30552617
_symmetry_Int_Tables_number   1
_chemical_formula_structural   Zn3As2
_chemical_formula_sum   'Zn48 As32'
_cell_volume   1706.58967240
_cell_formula_units_Z   16
loop_
 _symmetry_equiv_pos_site_id
 _symmetry_equiv_pos_as_xyz
  1  'x, y, z'
loop_
 _atom_site_type_symbol
 _atom_site_label
 _atom_site_symmetry_multiplicity
 _atom_site_fract_x
 _atom_site_fract_y
 _atom_site_fract_z
 _atom_site_occupancy
  Zn  Zn0  1  0.95956600  0.68648900  0.02382400  1
  Zn  Zn1  1  0.16266500  0.18648900  0.72692300  1
  Zn  Zn2  1  0.43648900  0.91266500  0.22692300  1
  Zn  Zn3  1  0.93648900  0.70956600  0.52382400  1
  Zn  Zn4  1  0.66266500  0.93574200  0.97617600  1
  Zn  Zn5  1  0.45956600  0.43574200  0.27307700  1
  Zn  Zn6  1  0.68574200  0.20956600  0.77307700  1
  Zn  Zn7  1  0.18574200  0.41266500  0.47617600  1
  Zn  Zn8  1  0.18712200  0.44233600  0.02983000  1
  Zn  Zn9  1  0.91250600  0.94233600  0.25521500  1
  Zn  Zn10  1  0.19233600  0.66250600  0.75521500  1
  Zn  Zn11  1  0.69233600  0.93712200  0.52983000  1
  Zn  Zn12  1  0.41250600  0.15729200  0.97017000  1
  Zn  Zn13  1  0.68712200  0.65729200  0.74478500  1
  Zn  Zn14  1  0.90729200  0.43712200  0.24478500  1
  Zn  Zn15  1  0.40729200  0.16250600  0.47017000  1
  Zn  Zn16  1  0.93153100  0.43059700  0.72898500  1
  Zn  Zn17  1  0.20161300  0.93059700  0.49906600  1
  Zn  Zn18  1  0.18059700  0.95161300  0.99906600  1
  Zn  Zn19  1  0.68059700  0.68153100  0.22898500  1
  Zn  Zn20  1  0.70161300  0.20254700  0.27101500  1
  Zn  Zn21  1  0.43153100  0.70254700  0.50093400  1
  Zn  Zn22  1  0.95254700  0.18153100  0.00093400  1
  Zn  Zn23  1  0.45254700  0.45161300  0.77101500  1
  Zn  Zn24  1  0.31709800  0.82083800  0.28828900  1
  Zn  Zn25  1  0.03254900  0.32083800  0.50374000  1
  Zn  Zn26  1  0.57083800  0.78254900  0.00374000  1
  Zn  Zn27  1  0.07083800  0.06709800  0.78828900  1
  Zn  Zn28  1  0.53254900  0.02881000  0.71171100  1
  Zn  Zn29  1  0.81709800  0.52881000  0.49626000  1
  Zn  Zn30  1  0.77881000  0.56709800  0.99626000  1
  Zn  Zn31  1  0.27881000  0.28254900  0.21171100  1
  Zn  Zn32  1  0.05482700  0.79099800  0.97503900  1
  Zn  Zn33  1  0.31596000  0.29099800  0.73617100  1
  Zn  Zn34  1  0.54099800  0.06596000  0.23617100  1
  Zn  Zn35  1  0.04099800  0.80482700  0.47503900  1
  Zn  Zn36  1  0.81596000  0.07978900  0.02496100  1
  Zn  Zn37  1  0.55482700  0.57978900  0.26382900  1
  Zn  Zn38  1  0.82978900  0.30482700  0.76382900  1
  Zn  Zn39  1  0.32978900  0.56596000  0.52496100  1
  Zn  Zn40  1  0.30639200  0.55848700  0.98194800  1
  Zn  Zn41  1  0.07654000  0.05848700  0.25209500  1
  Zn  Zn42  1  0.30848700  0.82654000  0.75209500  1
  Zn  Zn43  1  0.80848700  0.05639200  0.48194800  1
  Zn  Zn44  1  0.57654000  0.32444400  0.01805200  1
  Zn  Zn45  1  0.80639200  0.82444400  0.74790500  1
  Zn  Zn46  1  0.07444400  0.55639200  0.24790500  1
  Zn  Zn47  1  0.57444400  0.32654000  0.51805200  1
  As  As0  1  0.24795300  0.74795300  0.50000000  1
  As  As1  1  0.74795300  0.24795300  0.50000000  1
  As  As2  1  0.49795300  0.49795300  0.00000000  1
  As  As3  1  0.99795300  0.99795300  0.00000000  1
  As  As4  1  0.49817500  0.99817500  0.50000000  1
  As  As5  1  0.99817500  0.49817500  0.50000000  1
  As  As6  1  0.74817500  0.74817500  0.00000000  1
  As  As7  1  0.24817500  0.24817500  0.00000000  1
  As  As8  1  0.36647400  0.62016900  0.24555200  1
  As  As9  1  0.87461700  0.12016900  0.25369500  1
  As  As10  1  0.37016900  0.62461700  0.75369500  1
  As  As11  1  0.87016900  0.11647400  0.74555200  1
  As  As12  1  0.37461700  0.12092300  0.75444800  1
  As  As13  1  0.86647400  0.62092300  0.74630500  1
  As  As14  1  0.87092300  0.61647400  0.24630500  1
  As  As15  1  0.37092300  0.12461700  0.25444800  1
  As  As16  1  0.12121500  0.87923700  0.25294900  1
  As  As17  1  0.12628700  0.37923700  0.75802100  1
  As  As18  1  0.62923700  0.87628700  0.25802100  1
  As  As19  1  0.12923700  0.87121600  0.75294900  1
  As  As20  1  0.62628700  0.86826600  0.74705100  1
  As  As21  1  0.62121600  0.36826600  0.24197900  1
  As  As22  1  0.61826600  0.37121600  0.74197900  1
  As  As23  1  0.11826600  0.37628700  0.24705100  1
  As  As24  1  0.99171100  0.49638700  0.99588900  1
  As  As25  1  0.00049800  0.99638700  0.50467600  1
  As  As26  1  0.24638700  0.75049800  0.00467600  1
  As  As27  1  0.74638700  0.74171100  0.49588900  1
  As  As28  1  0.50049800  0.99582200  0.00411100  1
  As  As29  1  0.49171100  0.49582200  0.49532400  1
  As  As30  1  0.74582200  0.24171100  0.99532400  1
  As  As31  1  0.24582200  0.25049800  0.50411100  1
loop_
_geom_bond_atom_site_label_1
_geom_bond_atom_site_label_2
_geom_bond_distance
_geom_bond_site_symmetry_2
As0 Zn42 2.526129 1_555
As0 Zn46 2.526135 1_555
As0 Zn17 2.537378 1_555
As0 Zn21 2.537378 1_555
As0 Zn39 2.692353 1_555
As0 Zn35 2.692366 1_555
As1 Zn43 2.526135 1_555
As1 Zn47 2.526136 1_555
As1 Zn16 2.537377 1_555
As1 Zn20 2.537392 1_555
As1 Zn34 2.692360 1_555
As1 Zn38 2.692360 1_555
As2 Zn40 2.526135 1_554
As2 Zn44 2.526136 1_555
As2 Zn19 2.537377 1_555
As2 Zn23 2.537392 1_554
As2 Zn33 2.692360 1_554
As2 Zn37 2.692360 1_555
As3 Zn41 2.526129 1_665
As3 Zn45 2.526135 1_554
As3 Zn18 2.537378 1_654
As3 Zn22 2.537378 1_565
As3 Zn36 2.692353 1_565
As3 Zn32 2.692366 1_654
As4 Zn11 2.496610 1_555
As4 Zn15 2.496610 1_565
As4 Zn28 2.506603 1_565
As4 Zn24 2.506611 1_555
As4 Zn6 2.761500 1_565
As4 Zn2 2.761500 1_555
As5 Zn10 2.496612 1_655
As5 Zn14 2.496624 1_555
As5 Zn29 2.506609 1_555
As5 Zn25 2.506611 1_655
As5 Zn3 2.761500 1_555
As5 Zn7 2.761500 1_655
As6 Zn9 2.496612 1_555
As6 Zn13 2.496624 1_554
As6 Zn30 2.506609 1_554
As6 Zn26 2.506611 1_555
As6 Zn0 2.761500 1_555
As6 Zn4 2.761500 1_554
As7 Zn12 2.496610 1_554
As7 Zn8 2.496610 1_555
As7 Zn31 2.506603 1_555
As7 Zn27 2.506611 1_554
As7 Zn5 2.761500 1_555
As7 Zn1 2.761500 1_554
As8 Zn37 2.482889 1_555
As8 Zn8 2.487472 1_555
As8 Zn24 2.504863 1_555
As8 Zn21 2.517695 1_555
As8 Zn5 2.750786 1_555
As8 Zn40 2.799493 1_554
As9 Zn36 2.482903 1_555
As9 Zn9 2.487480 1_545
As9 Zn25 2.504863 1_655
As9 Zn20 2.517689 1_555
As9 Zn4 2.750786 1_544
As9 Zn41 2.799507 1_655
As10 Zn39 2.482903 1_555
As10 Zn10 2.487480 1_555
As10 Zn26 2.504863 1_556
As10 Zn23 2.517689 1_555
As10 Zn7 2.750786 1_555
As10 Zn42 2.799507 1_555
As11 Zn38 2.482889 1_555
As11 Zn11 2.487472 1_545
As11 Zn27 2.504863 1_655
As11 Zn22 2.517695 1_556
As11 Zn6 2.750786 1_555
As11 Zn43 2.799493 1_555
As12 Zn33 2.482875 1_555
As12 Zn12 2.487480 1_555
As12 Zn28 2.504863 1_555
As12 Zn17 2.517702 1_545
As12 Zn1 2.750785 1_555
As12 Zn44 2.799493 1_556
As13 Zn32 2.482881 1_655
As13 Zn13 2.487466 1_555
As13 Zn29 2.504863 1_555
As13 Zn16 2.517714 1_555
As13 Zn0 2.750793 1_556
As13 Zn45 2.799479 1_555
As14 Zn35 2.482881 1_655
As14 Zn14 2.487466 1_555
As14 Zn30 2.504863 1_554
As14 Zn19 2.517714 1_555
As14 Zn3 2.750793 1_555
As14 Zn46 2.799479 1_655
As15 Zn34 2.482875 1_555
As15 Zn15 2.487480 1_555
As15 Zn31 2.504863 1_555
As15 Zn18 2.517702 1_544
As15 Zn2 2.750785 1_545
As15 Zn47 2.799493 1_555
As16 Zn0 2.461834 1_455
As16 Zn24 2.488246 1_555
As16 Zn41 2.490842 1_565
As16 Zn17 2.500260 1_555
As16 Zn32 2.777792 1_554
As16 Zn9 2.898489 1_455
As17 Zn1 2.461839 1_555
As17 Zn25 2.488238 1_555
As17 Zn40 2.490847 1_555
As17 Zn16 2.500258 1_455
As17 Zn33 2.777812 1_555
As17 Zn8 2.898488 1_556
As18 Zn2 2.461839 1_555
As18 Zn26 2.488238 1_555
As18 Zn43 2.490847 1_565
As18 Zn19 2.500258 1_555
As18 Zn34 2.777812 1_565
As18 Zn11 2.898488 1_555
As19 Zn3 2.461840 1_455
As19 Zn27 2.488233 1_565
As19 Zn42 2.490840 1_555
As19 Zn18 2.500266 1_555
As19 Zn35 2.777785 1_555
As19 Zn10 2.898503 1_555
As20 Zn4 2.461825 1_555
As20 Zn28 2.488258 1_565
As20 Zn45 2.490854 1_555
As20 Zn21 2.500253 1_555
As20 Zn36 2.777811 1_566
As20 Zn13 2.898474 1_555
As21 Zn5 2.461839 1_555
As21 Zn29 2.488243 1_555
As21 Zn44 2.490854 1_555
As21 Zn20 2.500245 1_555
As21 Zn37 2.777812 1_555
As21 Zn12 2.898488 1_554
As22 Zn6 2.461839 1_555
As22 Zn30 2.488243 1_555
As22 Zn47 2.490854 1_555
As22 Zn23 2.500245 1_555
As22 Zn38 2.777812 1_555
As22 Zn15 2.898488 1_555
As23 Zn7 2.461825 1_555
As23 Zn31 2.488258 1_555
As23 Zn46 2.490854 1_555
As23 Zn22 2.500253 1_455
As23 Zn39 2.777811 1_555
As23 Zn14 2.898474 1_455
As24 Zn0 2.449570 1_556
As24 Zn38 2.452408 1_555
As24 Zn8 2.484011 1_656
As24 Zn46 2.504818 1_656
As24 Zn16 2.815509 1_555
As24 Zn30 2.940419 1_555
As25 Zn1 2.449570 1_565
As25 Zn35 2.452414 1_555
As25 Zn9 2.483998 1_455
As25 Zn43 2.504818 1_465
As25 Zn17 2.815523 1_555
As25 Zn27 2.940433 1_565
As26 Zn2 2.449570 1_555
As26 Zn32 2.452414 1_554
As26 Zn10 2.483998 1_554
As26 Zn40 2.504818 1_554
As26 Zn18 2.815523 1_554
As26 Zn24 2.940433 1_555
As27 Zn3 2.449570 1_555
As27 Zn37 2.452408 1_555
As27 Zn11 2.484011 1_555
As27 Zn45 2.504818 1_555
As27 Zn19 2.815509 1_555
As27 Zn29 2.940419 1_555
As28 Zn4 2.449570 1_554
As28 Zn34 2.452408 1_565
As28 Zn12 2.484011 1_564
As28 Zn42 2.504812 1_554
As28 Zn20 2.815524 1_565
As28 Zn26 2.940433 1_555
As29 Zn5 2.449570 1_555
As29 Zn39 2.452400 1_555
As29 Zn13 2.484010 1_555
As29 Zn47 2.504804 1_555
As29 Zn21 2.815523 1_555
As29 Zn31 2.940426 1_555
As30 Zn6 2.449570 1_555
As30 Zn36 2.452400 1_556
As30 Zn14 2.484010 1_556
As30 Zn44 2.504804 1_556
As30 Zn22 2.815523 1_556
As30 Zn28 2.940426 1_555
As31 Zn7 2.449570 1_555
As31 Zn33 2.452408 1_555
As31 Zn15 2.484011 1_555
As31 Zn41 2.504812 1_555
As31 Zn23 2.815524 1_555
As31 Zn25 2.940433 1_555
