# generated using pymatgen
data_TbZr3
_symmetry_space_group_name_H-M   'P 1'
_cell_length_a   6.64267447
_cell_length_b   6.64267447
_cell_length_c   21.12134006
_cell_angle_alpha   90.00000000
_cell_angle_beta   90.00000000
_cell_angle_gamma   120.00000951
_symmetry_Int_Tables_number   1
_chemical_formula_structural   TbZr3
_chemical_formula_sum   'Tb8 Zr24'
_cell_volume   807.11979660
_cell_formula_units_Z   8
loop_
 _symmetry_equiv_pos_site_id
 _symmetry_equiv_pos_as_xyz
  1  'x, y, z'
loop_
 _atom_site_type_symbol
 _atom_site_label
 _atom_site_symmetry_multiplicity
 _atom_site_fract_x
 _atom_site_fract_y
 _atom_site_fract_z
 _atom_site_occupancy
  Tb  Tb0_0  1  0.16666651  0.33333349  0.00000000  1
  Tb  Tb0_1  1  0.16666651  0.33333349  0.50000000  1
  Tb  Tb0_2  1  0.16666651  0.83333349  0.00000000  1
  Tb  Tb0_3  1  0.16666651  0.83333349  0.50000000  1
  Tb  Tb0_4  1  0.66666651  0.33333349  0.00000000  1
  Tb  Tb0_5  1  0.66666651  0.33333349  0.50000000  1
  Tb  Tb0_6  1  0.66666651  0.83333349  0.00000000  1
  Tb  Tb0_7  1  0.66666651  0.83333349  0.50000000  1
  Zr  Zr0_0  1  0.16666652  0.33333348  0.25000000  1
  Zr  Zr0_1  1  0.16666652  0.33333348  0.75000000  1
  Zr  Zr0_2  1  0.16666652  0.83333348  0.25000000  1
  Zr  Zr0_3  1  0.16666652  0.83333348  0.75000000  1
  Zr  Zr0_4  1  0.66666651  0.33333348  0.25000000  1
  Zr  Zr0_5  1  0.66666651  0.33333348  0.75000000  1
  Zr  Zr0_6  1  0.66666652  0.83333348  0.25000000  1
  Zr  Zr0_7  1  0.66666652  0.83333348  0.75000000  1
  Zr  Zr1_0  1  0.49999999  0.00000001  0.13101677  1
  Zr  Zr1_1  1  0.49999999  0.00000001  0.63101677  1
  Zr  Zr1_2  1  0.49999999  0.50000001  0.13101677  1
  Zr  Zr1_3  1  0.49999999  0.50000001  0.63101677  1
  Zr  Zr1_4  1  0.99999998  0.00000001  0.13101677  1
  Zr  Zr1_5  1  0.99999998  0.00000001  0.63101677  1
  Zr  Zr1_6  1  0.99999999  0.50000001  0.13101677  1
  Zr  Zr1_7  1  0.99999999  0.50000001  0.63101677  1
  Zr  Zr2_0  1  0.49999999  0.00000001  0.36898324  1
  Zr  Zr2_1  1  0.49999999  0.00000001  0.86898323  1
  Zr  Zr2_2  1  0.49999999  0.50000001  0.36898324  1
  Zr  Zr2_3  1  0.49999999  0.50000001  0.86898323  1
  Zr  Zr2_4  1  0.99999998  0.00000001  0.36898324  1
  Zr  Zr2_5  1  0.99999998  0.00000001  0.86898323  1
  Zr  Zr2_6  1  0.99999999  0.50000001  0.36898324  1
  Zr  Zr2_7  1  0.99999999  0.50000001  0.86898323  1
loop_
_geom_bond_atom_site_label_1
_geom_bond_atom_site_label_2
_geom_bond_distance
_geom_bond_site_symmetry_2
Tb0_0 Tb0_6 3.321337 1_555
Tb0_0 Tb0_6 3.321337 1_445
Tb0_0 Tb0_2 3.321337 1_555
Tb0_0 Tb0_4 3.321337 1_455
Tb0_0 Tb0_2 3.321337 1_545
Tb0_0 Tb0_4 3.321337 1_555
Tb0_0 Zr1_6 3.366713 1_455
Tb0_0 Zr2_7 3.366713 1_454
Tb0_0 Zr1_2 3.366715 1_555
Tb0_0 Zr1_4 3.366715 1_455
Tb0_0 Zr2_3 3.366715 1_554
Tb0_0 Zr2_5 3.366715 1_454
Tb0_1 Tb0_7 3.321337 1_555
Tb0_1 Tb0_7 3.321337 1_445
Tb0_1 Tb0_3 3.321337 1_555
Tb0_1 Tb0_5 3.321337 1_455
Tb0_1 Tb0_3 3.321337 1_545
Tb0_1 Tb0_5 3.321337 1_555
Tb0_1 Zr2_6 3.366713 1_455
Tb0_1 Zr1_7 3.366713 1_455
Tb0_1 Zr2_2 3.366715 1_555
Tb0_1 Zr2_4 3.366715 1_455
Tb0_1 Zr1_5 3.366715 1_455
Tb0_1 Zr1_3 3.366715 1_555
Tb0_2 Tb0_4 3.321337 1_565
Tb0_2 Tb0_4 3.321337 1_455
Tb0_2 Tb0_6 3.321337 1_555
Tb0_2 Tb0_6 3.321337 1_455
Tb0_2 Zr1_4 3.366713 1_465
Tb0_2 Zr2_5 3.366713 1_464
Tb0_2 Zr1_0 3.366715 1_565
Tb0_2 Zr1_6 3.366715 1_455
Tb0_2 Zr2_7 3.366715 1_454
Tb0_2 Zr2_1 3.366715 1_564
Tb0_3 Tb0_5 3.321337 1_565
Tb0_3 Tb0_5 3.321337 1_455
Tb0_3 Tb0_7 3.321337 1_555
Tb0_3 Tb0_7 3.321337 1_455
Tb0_3 Zr2_4 3.366713 1_465
Tb0_3 Zr1_5 3.366713 1_465
Tb0_3 Zr2_0 3.366715 1_565
Tb0_3 Zr2_6 3.366715 1_455
Tb0_3 Zr1_7 3.366715 1_455
Tb0_3 Zr1_1 3.366715 1_565
Tb0_4 Tb0_6 3.321337 1_555
Tb0_4 Tb0_6 3.321337 1_545
Tb0_4 Zr1_2 3.366713 1_555
Tb0_4 Zr2_3 3.366713 1_554
Tb0_4 Zr1_0 3.366715 1_555
Tb0_4 Zr2_1 3.366715 1_554
Tb0_4 Zr1_6 3.366715 1_555
Tb0_4 Zr2_7 3.366715 1_554
Tb0_5 Tb0_7 3.321337 1_555
Tb0_5 Tb0_7 3.321337 1_545
Tb0_5 Zr2_2 3.366713 1_555
Tb0_5 Zr1_3 3.366713 1_555
Tb0_5 Zr2_0 3.366715 1_555
Tb0_5 Zr2_6 3.366715 1_555
Tb0_5 Zr1_1 3.366715 1_555
Tb0_5 Zr1_7 3.366715 1_555
Tb0_6 Zr1_0 3.366713 1_565
Tb0_6 Zr2_1 3.366713 1_564
Tb0_6 Zr1_4 3.366715 1_565
Tb0_6 Zr1_2 3.366715 1_555
Tb0_6 Zr2_3 3.366715 1_554
Tb0_6 Zr2_5 3.366715 1_564
Tb0_7 Zr2_0 3.366713 1_565
Tb0_7 Zr1_1 3.366713 1_565
Tb0_7 Zr2_2 3.366715 1_555
Tb0_7 Zr2_4 3.366715 1_565
Tb0_7 Zr1_3 3.366715 1_555
Tb0_7 Zr1_5 3.366715 1_565
Zr0_0 Zr1_6 3.161121 1_455
Zr0_0 Zr2_6 3.161121 1_455
Zr0_0 Zr1_2 3.161122 1_555
Zr0_0 Zr1_4 3.161122 1_455
Zr0_0 Zr2_2 3.161122 1_555
Zr0_0 Zr2_4 3.161122 1_455
Zr0_0 Zr0_6 3.321337 1_555
Zr0_0 Zr0_6 3.321337 1_445
Zr0_0 Zr0_2 3.321337 1_555
Zr0_0 Zr0_4 3.321337 1_455
Zr0_0 Zr0_4 3.321337 1_555
Zr0_0 Zr0_2 3.321337 1_545
Zr0_1 Zr1_7 3.161121 1_455
Zr0_1 Zr2_7 3.161121 1_455
Zr0_1 Zr2_5 3.161122 1_455
Zr0_1 Zr1_3 3.161122 1_555
Zr0_1 Zr2_3 3.161122 1_555
Zr0_1 Zr1_5 3.161122 1_455
Zr0_1 Zr0_7 3.321337 1_555
Zr0_1 Zr0_7 3.321337 1_445
Zr0_1 Zr0_3 3.321337 1_555
Zr0_1 Zr0_5 3.321337 1_555
Zr0_1 Zr0_5 3.321337 1_455
Zr0_1 Zr0_3 3.321337 1_545
Zr0_2 Zr1_4 3.161121 1_465
Zr0_2 Zr2_4 3.161121 1_465
Zr0_2 Zr1_0 3.161122 1_565
Zr0_2 Zr1_6 3.161122 1_455
Zr0_2 Zr2_6 3.161122 1_455
Zr0_2 Zr2_0 3.161122 1_565
Zr0_2 Zr0_4 3.321337 1_565
Zr0_2 Zr0_4 3.321337 1_455
Zr0_2 Zr0_6 3.321337 1_455
Zr0_2 Zr0_6 3.321337 1_555
Zr0_3 Zr2_5 3.161121 1_465
Zr0_3 Zr1_5 3.161121 1_465
Zr0_3 Zr1_7 3.161122 1_455
Zr0_3 Zr2_1 3.161122 1_565
Zr0_3 Zr2_7 3.161122 1_455
Zr0_3 Zr1_1 3.161122 1_565
Zr0_3 Zr0_5 3.321337 1_565
Zr0_3 Zr0_5 3.321337 1_455
Zr0_3 Zr0_7 3.321337 1_455
Zr0_3 Zr0_7 3.321337 1_555
Zr0_4 Zr1_2 3.161121 1_555
Zr0_4 Zr2_2 3.161121 1_555
Zr0_4 Zr1_0 3.161122 1_555
Zr0_4 Zr2_0 3.161122 1_555
Zr0_4 Zr1_6 3.161122 1_555
Zr0_4 Zr2_6 3.161122 1_555
Zr0_4 Zr0_6 3.321337 1_555
Zr0_4 Zr0_6 3.321337 1_545
Zr0_5 Zr2_3 3.161121 1_555
Zr0_5 Zr1_3 3.161121 1_555
Zr0_5 Zr2_1 3.161122 1_555
Zr0_5 Zr1_1 3.161122 1_555
Zr0_5 Zr2_7 3.161122 1_555
Zr0_5 Zr1_7 3.161122 1_555
Zr0_5 Zr0_7 3.321337 1_555
Zr0_5 Zr0_7 3.321337 1_545
Zr0_6 Zr1_0 3.161121 1_565
Zr0_6 Zr2_0 3.161121 1_565
Zr0_6 Zr1_4 3.161122 1_565
Zr0_6 Zr1_2 3.161122 1_555
Zr0_6 Zr2_4 3.161122 1_565
Zr0_6 Zr2_2 3.161122 1_555
Zr0_7 Zr2_1 3.161121 1_565
Zr0_7 Zr1_1 3.161121 1_565
Zr0_7 Zr2_5 3.161122 1_565
Zr0_7 Zr1_5 3.161122 1_565
Zr0_7 Zr1_3 3.161122 1_555
Zr0_7 Zr2_3 3.161122 1_555
Zr1_0 Zr1_6 3.321337 1_555
Zr1_0 Zr1_6 3.321337 1_445
Zr1_0 Zr1_4 3.321337 1_555
Zr1_0 Zr1_2 3.321337 1_555
Zr1_0 Zr1_2 3.321337 1_545
Zr1_0 Zr1_4 3.321337 1_455
Zr1_1 Zr1_7 3.321337 1_555
Zr1_1 Zr1_7 3.321337 1_445
Zr1_1 Zr1_5 3.321337 1_555
Zr1_1 Zr1_3 3.321337 1_555
Zr1_1 Zr1_3 3.321337 1_545
Zr1_1 Zr1_5 3.321337 1_455
Zr1_2 Zr1_4 3.321337 1_565
Zr1_2 Zr1_4 3.321337 1_455
Zr1_2 Zr1_6 3.321337 1_455
Zr1_2 Zr1_6 3.321337 1_555
Zr1_3 Zr1_5 3.321337 1_565
Zr1_3 Zr1_5 3.321337 1_455
Zr1_3 Zr1_7 3.321337 1_455
Zr1_3 Zr1_7 3.321337 1_555
Zr1_4 Zr1_6 3.321337 1_555
Zr1_4 Zr1_6 3.321337 1_545
Zr1_5 Zr1_7 3.321337 1_555
Zr1_5 Zr1_7 3.321337 1_545
Zr2_0 Zr2_6 3.321337 1_555
Zr2_0 Zr2_6 3.321337 1_445
Zr2_0 Zr2_4 3.321337 1_555
Zr2_0 Zr2_2 3.321337 1_555
Zr2_0 Zr2_2 3.321337 1_545
Zr2_0 Zr2_4 3.321337 1_455
Zr2_1 Zr2_7 3.321337 1_555
Zr2_1 Zr2_7 3.321337 1_445
Zr2_1 Zr2_5 3.321337 1_555
Zr2_1 Zr2_3 3.321337 1_555
Zr2_1 Zr2_3 3.321337 1_545
Zr2_1 Zr2_5 3.321337 1_455
Zr2_2 Zr2_4 3.321337 1_565
Zr2_2 Zr2_4 3.321337 1_455
Zr2_2 Zr2_6 3.321337 1_455
Zr2_2 Zr2_6 3.321337 1_555
Zr2_3 Zr2_5 3.321337 1_565
Zr2_3 Zr2_5 3.321337 1_455
Zr2_3 Zr2_7 3.321337 1_455
Zr2_3 Zr2_7 3.321337 1_555
Zr2_4 Zr2_6 3.321337 1_555
Zr2_4 Zr2_6 3.321337 1_545
Zr2_5 Zr2_7 3.321337 1_555
Zr2_5 Zr2_7 3.321337 1_545
