# generated using pymatgen
data_V3(CuS2)4
_symmetry_space_group_name_H-M   'P 1'
_cell_length_a   7.28715881
_cell_length_b   7.28715881
_cell_length_c   7.28715885
_cell_angle_alpha   60.63080650
_cell_angle_beta   60.63080650
_cell_angle_gamma   60.63080230
_symmetry_Int_Tables_number   1
_chemical_formula_structural   V3(CuS2)4
_chemical_formula_sum   'V3 Cu4 S8'
_cell_volume   277.52499863
_cell_formula_units_Z   1
loop_
 _symmetry_equiv_pos_site_id
 _symmetry_equiv_pos_as_xyz
  1  'x, y, z'
loop_
 _atom_site_type_symbol
 _atom_site_label
 _atom_site_symmetry_multiplicity
 _atom_site_fract_x
 _atom_site_fract_y
 _atom_site_fract_z
 _atom_site_occupancy
  V  V0  1  0.60185400  0.08500200  0.60185400  1
  V  V1  1  0.60185400  0.60185400  0.08500200  1
  V  V2  1  0.08500200  0.60185400  0.60185400  1
  Cu  Cu0  1  0.22381600  0.22381600  0.22381600  1
  Cu  Cu1  1  0.85058500  0.31344400  0.85058500  1
  Cu  Cu2  1  0.85058500  0.85058500  0.31344400  1
  Cu  Cu3  1  0.31344400  0.85058500  0.85058500  1
  S  S0  1  0.46518100  0.99008100  0.46518100  1
  S  S1  1  0.46518100  0.46518100  0.99008100  1
  S  S2  1  0.99008100  0.46518100  0.46518100  1
  S  S3  1  0.47085000  0.47085000  0.47085000  1
  S  S4  1  0.94573700  0.94573700  0.94573700  1
  S  S5  1  0.98058600  0.44834900  0.98058600  1
  S  S6  1  0.44834900  0.98058600  0.98058600  1
  S  S7  1  0.98058600  0.98058600  0.44834900  1
loop_
_geom_bond_atom_site_label_1
_geom_bond_atom_site_label_2
_geom_bond_distance
_geom_bond_site_symmetry_2
Cu0 S0 2.499148 1_545
Cu0 S2 2.499148 1_455
Cu0 S1 2.499148 1_554
Cu0 S6 2.520440 1_544
Cu0 S5 2.520440 1_454
Cu0 S7 2.520440 1_445
Cu1 S4 2.228959 1_545
Cu1 S1 2.323748 1_555
Cu1 S2 2.323748 1_555
Cu1 S5 2.338502 1_555
Cu2 S4 2.228959 1_554
Cu2 S2 2.323748 1_555
Cu2 S0 2.323748 1_555
Cu2 S7 2.338502 1_555
Cu3 S4 2.228959 1_455
Cu3 S1 2.323748 1_555
Cu3 S0 2.323748 1_555
Cu3 S6 2.338502 1_555
S0 V0 2.187861 1_565
S1 V1 2.187861 1_556
S2 V2 2.187861 1_655
S3 V0 2.314464 1_555
S3 V2 2.314464 1_555
S3 V1 2.314464 1_555
S5 V1 2.279051 1_556
S5 V2 2.279051 1_655
S6 V1 2.279051 1_556
S6 V0 2.279051 1_565
S7 V2 2.279051 1_655
S7 V0 2.279051 1_565
