# generated using pymatgen
data_MgAlH5
_symmetry_space_group_name_H-M   'P 1'
_cell_length_a   6.88532884
_cell_length_b   6.88532884
_cell_length_c   4.27319100
_cell_angle_alpha   90.00000000
_cell_angle_beta   90.00000000
_cell_angle_gamma   141.78474442
_symmetry_Int_Tables_number   1
_chemical_formula_structural   MgAlH5
_chemical_formula_sum   'Mg2 Al2 H10'
_cell_volume   125.32103179
_cell_formula_units_Z   2
loop_
 _symmetry_equiv_pos_site_id
 _symmetry_equiv_pos_as_xyz
  1  'x, y, z'
loop_
 _atom_site_type_symbol
 _atom_site_label
 _atom_site_symmetry_multiplicity
 _atom_site_fract_x
 _atom_site_fract_y
 _atom_site_fract_z
 _atom_site_occupancy
  Mg  Mg0  1  0.67926100  0.32073900  0.75000000  1
  Mg  Mg1  1  0.32073900  0.67926100  0.25000000  1
  Al  Al0  1  0.09091700  0.90908300  0.25000000  1
  Al  Al1  1  0.90908300  0.09091700  0.75000000  1
  H  H0  1  0.21702700  0.40121000  0.52960300  1
  H  H1  1  0.59879000  0.78297300  0.97039700  1
  H  H2  1  0.78297300  0.59879000  0.02960300  1
  H  H3  1  0.40121000  0.21702700  0.47039700  1
  H  H4  1  0.96080100  0.35017000  0.97051800  1
  H  H5  1  0.64983000  0.03919900  0.52948200  1
  H  H6  1  0.03919900  0.64983000  0.47051800  1
  H  H7  1  0.35017000  0.96080100  0.02948200  1
  H  H8  1  0.16442400  0.16442400  0.00000000  1
  H  H9  1  0.83557600  0.83557600  0.50000000  1
loop_
_geom_bond_atom_site_label_1
_geom_bond_atom_site_label_2
_geom_bond_distance
_geom_bond_site_symmetry_2
Al0 H3 1.681919 1_565
Al0 H2 1.681919 1_455
Al0 H8 1.757873 1_565
Al0 H9 1.757873 1_455
Al0 H6 1.789496 1_555
Al0 H7 1.789496 1_555
Al1 H1 1.681919 1_545
Al1 H0 1.681919 1_655
Al1 H8 1.757873 1_656
Al1 H9 1.757873 1_545
Al1 H5 1.789496 1_555
Al1 H4 1.789496 1_555
H0 Mg1 1.858607 1_555
H1 Mg1 1.858607 1_556
H2 Mg0 1.858607 1_554
H3 Mg0 1.858607 1_555
H4 Mg1 1.969348 1_656
H4 Mg0 2.017304 1_555
H5 Mg1 1.969348 1_545
H5 Mg0 2.017304 1_555
H6 Mg0 1.969348 1_455
H6 Mg1 2.017304 1_555
H7 Mg0 1.969348 1_564
H7 Mg1 2.017304 1_555
