# generated using pymatgen
data_SrMg2
_symmetry_space_group_name_H-M   'P 1'
_cell_length_a   13.08369759
_cell_length_b   13.08369759
_cell_length_c   17.98529745
_cell_angle_alpha   70.76765042
_cell_angle_beta   70.76765042
_cell_angle_gamma   31.73658943
_symmetry_Int_Tables_number   1
_chemical_formula_structural   SrMg2
_chemical_formula_sum   'Sr16 Mg32'
_cell_volume   1521.56379117
_cell_formula_units_Z   16
loop_
 _symmetry_equiv_pos_site_id
 _symmetry_equiv_pos_as_xyz
  1  'x, y, z'
loop_
 _atom_site_type_symbol
 _atom_site_label
 _atom_site_symmetry_multiplicity
 _atom_site_fract_x
 _atom_site_fract_y
 _atom_site_fract_z
 _atom_site_occupancy
  Sr  Sr0_0  1  0.42244650  0.42244650  0.31267100  1
  Sr  Sr0_1  1  0.42244650  0.42244650  0.81267100  1
  Sr  Sr0_2  1  0.42244650  0.92244650  0.31267100  1
  Sr  Sr0_3  1  0.42244650  0.92244650  0.81267100  1
  Sr  Sr0_4  1  0.92244650  0.42244650  0.31267100  1
  Sr  Sr0_5  1  0.92244650  0.42244650  0.81267100  1
  Sr  Sr0_6  1  0.92244650  0.92244650  0.31267100  1
  Sr  Sr0_7  1  0.92244650  0.92244650  0.81267100  1
  Sr  Sr1_0  1  0.07755350  0.07755350  0.18732900  1
  Sr  Sr1_1  1  0.07755350  0.07755350  0.68732900  1
  Sr  Sr1_2  1  0.07755350  0.57755350  0.18732900  1
  Sr  Sr1_3  1  0.07755350  0.57755350  0.68732900  1
  Sr  Sr1_4  1  0.57755350  0.07755350  0.18732900  1
  Sr  Sr1_5  1  0.57755350  0.07755350  0.68732900  1
  Sr  Sr1_6  1  0.57755350  0.57755350  0.18732900  1
  Sr  Sr1_7  1  0.57755350  0.57755350  0.68732900  1
  Mg  Mg0_0  1  0.07250950  0.07250950  0.48896550  1
  Mg  Mg0_1  1  0.07250950  0.07250950  0.98896550  1
  Mg  Mg0_2  1  0.07250950  0.57250950  0.48896550  1
  Mg  Mg0_3  1  0.07250950  0.57250950  0.98896550  1
  Mg  Mg0_4  1  0.57250950  0.07250950  0.48896550  1
  Mg  Mg0_5  1  0.57250950  0.07250950  0.98896550  1
  Mg  Mg0_6  1  0.57250950  0.57250950  0.48896550  1
  Mg  Mg0_7  1  0.57250950  0.57250950  0.98896550  1
  Mg  Mg1_0  1  0.27090200  0.27090200  0.38372650  1
  Mg  Mg1_1  1  0.27090200  0.27090200  0.88372650  1
  Mg  Mg1_2  1  0.27090200  0.77090200  0.38372650  1
  Mg  Mg1_3  1  0.27090200  0.77090200  0.88372650  1
  Mg  Mg1_4  1  0.77090200  0.27090200  0.38372650  1
  Mg  Mg1_5  1  0.77090200  0.27090200  0.88372650  1
  Mg  Mg1_6  1  0.77090200  0.77090200  0.38372650  1
  Mg  Mg1_7  1  0.77090200  0.77090200  0.88372650  1
  Mg  Mg2_0  1  0.22909800  0.22909800  0.11627350  1
  Mg  Mg2_1  1  0.22909800  0.22909800  0.61627350  1
  Mg  Mg2_2  1  0.22909800  0.72909800  0.11627350  1
  Mg  Mg2_3  1  0.22909800  0.72909800  0.61627350  1
  Mg  Mg2_4  1  0.72909800  0.22909800  0.11627350  1
  Mg  Mg2_5  1  0.72909800  0.22909800  0.61627350  1
  Mg  Mg2_6  1  0.72909800  0.72909800  0.11627350  1
  Mg  Mg2_7  1  0.72909800  0.72909800  0.61627350  1
  Mg  Mg3_0  1  0.42749050  0.42749050  0.01103450  1
  Mg  Mg3_1  1  0.42749050  0.42749050  0.51103450  1
  Mg  Mg3_2  1  0.42749050  0.92749050  0.01103450  1
  Mg  Mg3_3  1  0.42749050  0.92749050  0.51103450  1
  Mg  Mg3_4  1  0.92749050  0.42749050  0.01103450  1
  Mg  Mg3_5  1  0.92749050  0.42749050  0.51103450  1
  Mg  Mg3_6  1  0.92749050  0.92749050  0.01103450  1
  Mg  Mg3_7  1  0.92749050  0.92749050  0.51103450  1
loop_
_geom_bond_atom_site_label_1
_geom_bond_atom_site_label_2
_geom_bond_distance
_geom_bond_site_symmetry_2
Sr0_0 Sr0_6 3.577436 1_455
Sr0_0 Sr0_6 3.577436 1_545
Sr0_0 Sr1_6 3.780998 1_555
Sr0_0 Sr1_4 4.204049 1_555
Sr0_0 Sr1_2 4.204049 1_555
Sr0_1 Sr0_7 3.577436 1_545
Sr0_1 Sr0_7 3.577436 1_455
Sr0_1 Sr1_7 3.780998 1_555
Sr0_1 Sr1_5 4.204049 1_555
Sr0_1 Sr1_3 4.204049 1_555
Sr0_2 Sr0_4 3.577436 1_465
Sr0_2 Sr0_4 3.577436 1_555
Sr0_2 Sr1_4 3.780998 1_565
Sr0_2 Sr1_0 4.204049 1_565
Sr0_2 Sr1_6 4.204049 1_555
Sr0_3 Sr0_5 3.577436 1_465
Sr0_3 Sr0_5 3.577436 1_555
Sr0_3 Sr1_5 3.780998 1_565
Sr0_3 Sr1_1 4.204049 1_565
Sr0_3 Sr1_7 4.204049 1_555
Sr0_4 Sr1_2 3.780998 1_655
Sr0_4 Sr1_0 4.204049 1_655
Sr0_4 Sr1_6 4.204049 1_555
Sr0_5 Sr1_3 3.780998 1_655
Sr0_5 Sr1_1 4.204049 1_655
Sr0_5 Sr1_7 4.204049 1_555
Sr0_6 Sr1_0 3.780998 1_665
Sr0_6 Sr1_4 4.204049 1_565
Sr0_6 Sr1_2 4.204049 1_655
Sr0_7 Sr1_1 3.780998 1_665
Sr0_7 Sr1_5 4.204049 1_565
Sr0_7 Sr1_3 4.204049 1_655
Sr1_0 Sr1_6 3.577436 1_545
Sr1_0 Sr1_6 3.577436 1_455
Sr1_1 Sr1_7 3.577436 1_545
Sr1_1 Sr1_7 3.577436 1_455
Sr1_2 Sr1_4 3.577436 1_555
Sr1_2 Sr1_4 3.577436 1_465
Sr1_3 Sr1_5 3.577436 1_555
Sr1_3 Sr1_5 3.577436 1_465
Mg0_0 Mg1_4 3.186421 1_455
Mg0_0 Mg1_2 3.186421 1_545
Mg0_0 Mg2_3 3.206724 1_545
Mg0_0 Mg2_5 3.206724 1_455
Mg0_0 Mg3_5 3.325303 1_455
Mg0_0 Mg3_3 3.325303 1_545
Mg0_0 Sr1_1 3.613073 1_555
Mg0_0 Sr0_2 3.757362 1_545
Mg0_0 Sr0_4 3.757362 1_455
Mg0_1 Mg1_5 3.186421 1_455
Mg0_1 Mg1_3 3.186421 1_545
Mg0_1 Mg2_4 3.206724 1_456
Mg0_1 Mg2_2 3.206724 1_546
Mg0_1 Mg3_2 3.325303 1_546
Mg0_1 Mg3_4 3.325303 1_456
Mg0_1 Sr1_0 3.613073 1_556
Mg0_1 Sr0_3 3.757362 1_545
Mg0_1 Sr0_5 3.757362 1_455
Mg0_2 Mg1_6 3.186421 1_455
Mg0_2 Mg1_0 3.186421 1_555
Mg0_2 Mg2_7 3.206724 1_455
Mg0_2 Mg2_1 3.206724 1_555
Mg0_2 Mg3_1 3.325303 1_555
Mg0_2 Mg3_7 3.325303 1_455
Mg0_2 Sr1_3 3.613073 1_555
Mg0_2 Sr0_6 3.757362 1_455
Mg0_2 Sr0_0 3.757362 1_555
Mg0_3 Mg1_7 3.186421 1_455
Mg0_3 Mg1_1 3.186421 1_555
Mg0_3 Mg2_6 3.206724 1_456
Mg0_3 Mg2_0 3.206724 1_556
Mg0_3 Mg3_0 3.325303 1_556
Mg0_3 Mg3_6 3.325303 1_456
Mg0_3 Sr1_2 3.613073 1_556
Mg0_3 Sr0_7 3.757362 1_455
Mg0_3 Sr0_1 3.757362 1_555
Mg0_4 Mg1_6 3.186421 1_545
Mg0_4 Mg1_0 3.186421 1_555
Mg0_4 Mg2_1 3.206724 1_555
Mg0_4 Mg2_7 3.206724 1_545
Mg0_4 Mg3_1 3.325303 1_555
Mg0_4 Mg3_7 3.325303 1_545
Mg0_4 Sr1_5 3.613073 1_555
Mg0_4 Sr0_6 3.757362 1_545
Mg0_4 Sr0_0 3.757362 1_555
Mg0_5 Mg1_7 3.186421 1_545
Mg0_5 Mg1_1 3.186421 1_555
Mg0_5 Mg2_0 3.206724 1_556
Mg0_5 Mg2_6 3.206724 1_546
Mg0_5 Mg3_0 3.325303 1_556
Mg0_5 Mg3_6 3.325303 1_546
Mg0_5 Sr1_4 3.613073 1_556
Mg0_5 Sr0_7 3.757362 1_545
Mg0_5 Sr0_1 3.757362 1_555
Mg0_6 Mg1_2 3.186421 1_555
Mg0_6 Mg1_4 3.186421 1_555
Mg0_6 Mg2_3 3.206724 1_555
Mg0_6 Mg2_5 3.206724 1_555
Mg0_6 Mg3_5 3.325303 1_555
Mg0_6 Mg3_3 3.325303 1_555
Mg0_6 Sr1_7 3.613073 1_555
Mg0_6 Sr0_2 3.757362 1_555
Mg0_6 Sr0_4 3.757362 1_555
Mg0_7 Mg1_3 3.186421 1_555
Mg0_7 Mg1_5 3.186421 1_555
Mg0_7 Mg2_2 3.206724 1_556
Mg0_7 Mg2_4 3.206724 1_556
Mg0_7 Mg3_4 3.325303 1_556
Mg0_7 Mg3_2 3.325303 1_556
Mg0_7 Sr1_6 3.613073 1_556
Mg0_7 Sr0_5 3.757362 1_555
Mg0_7 Sr0_3 3.757362 1_555
Mg1_0 Mg3_5 3.206724 1_455
Mg1_0 Mg3_3 3.206724 1_545
Mg1_0 Sr0_0 3.583888 1_555
Mg1_0 Sr0_2 3.625320 1_545
Mg1_0 Sr0_4 3.625320 1_455
Mg1_0 Sr1_4 3.776245 1_555
Mg1_0 Sr1_2 3.776245 1_555
Mg1_1 Mg3_2 3.206724 1_546
Mg1_1 Mg3_4 3.206724 1_456
Mg1_1 Sr0_1 3.583888 1_555
Mg1_1 Sr0_5 3.625320 1_455
Mg1_1 Sr0_3 3.625320 1_545
Mg1_1 Sr1_5 3.776245 1_555
Mg1_1 Sr1_3 3.776245 1_555
Mg1_2 Mg3_7 3.206724 1_455
Mg1_2 Mg3_1 3.206724 1_555
Mg1_2 Sr0_2 3.583888 1_555
Mg1_2 Sr0_0 3.625320 1_555
Mg1_2 Sr0_6 3.625320 1_455
Mg1_2 Sr1_6 3.776245 1_555
Mg1_2 Sr1_0 3.776245 1_565
Mg1_3 Mg3_6 3.206724 1_456
Mg1_3 Mg3_0 3.206724 1_556
Mg1_3 Sr0_3 3.583888 1_555
Mg1_3 Sr0_7 3.625320 1_455
Mg1_3 Sr0_1 3.625320 1_555
Mg1_3 Sr1_1 3.776245 1_565
Mg1_3 Sr1_7 3.776245 1_555
Mg1_4 Mg3_7 3.206724 1_545
Mg1_4 Mg3_1 3.206724 1_555
Mg1_4 Sr0_4 3.583888 1_555
Mg1_4 Sr0_0 3.625320 1_555
Mg1_4 Sr0_6 3.625320 1_545
Mg1_4 Sr1_0 3.776245 1_655
Mg1_4 Sr1_6 3.776245 1_555
Mg1_5 Mg3_6 3.206724 1_546
Mg1_5 Mg3_0 3.206724 1_556
Mg1_5 Sr0_5 3.583888 1_555
Mg1_5 Sr0_1 3.625320 1_555
Mg1_5 Sr0_7 3.625320 1_545
Mg1_5 Sr1_1 3.776245 1_655
Mg1_5 Sr1_7 3.776245 1_555
Mg1_6 Mg3_5 3.206724 1_555
Mg1_6 Mg3_3 3.206724 1_555
Mg1_6 Sr0_6 3.583888 1_555
Mg1_6 Sr0_4 3.625320 1_555
Mg1_6 Sr0_2 3.625320 1_555
Mg1_6 Sr1_4 3.776245 1_565
Mg1_6 Sr1_2 3.776245 1_655
Mg1_7 Mg3_4 3.206724 1_556
Mg1_7 Mg3_2 3.206724 1_556
Mg1_7 Sr0_7 3.583888 1_555
Mg1_7 Sr0_3 3.625320 1_555
Mg1_7 Sr0_5 3.625320 1_555
Mg1_7 Sr1_5 3.776245 1_565
Mg1_7 Sr1_3 3.776245 1_655
Mg2_0 Mg3_4 3.186421 1_455
Mg2_0 Mg3_2 3.186421 1_545
Mg2_0 Sr1_0 3.583888 1_555
Mg2_0 Sr1_4 3.625320 1_555
Mg2_0 Sr1_2 3.625320 1_555
Mg2_0 Sr0_2 3.776245 1_545
Mg2_0 Sr0_4 3.776245 1_455
Mg2_1 Mg3_5 3.186421 1_455
Mg2_1 Mg3_3 3.186421 1_545
Mg2_1 Sr1_1 3.583888 1_555
Mg2_1 Sr1_3 3.625320 1_555
Mg2_1 Sr1_5 3.625320 1_555
Mg2_1 Sr0_3 3.776245 1_545
Mg2_1 Sr0_5 3.776245 1_455
Mg2_2 Mg3_6 3.186421 1_455
Mg2_2 Mg3_0 3.186421 1_555
Mg2_2 Sr1_2 3.583888 1_555
Mg2_2 Sr1_6 3.625320 1_555
Mg2_2 Sr1_0 3.625320 1_565
Mg2_2 Sr0_6 3.776245 1_455
Mg2_2 Sr0_0 3.776245 1_555
Mg2_3 Mg3_7 3.186421 1_455
Mg2_3 Mg3_1 3.186421 1_555
Mg2_3 Sr1_3 3.583888 1_555
Mg2_3 Sr1_7 3.625320 1_555
Mg2_3 Sr1_1 3.625320 1_565
Mg2_3 Sr0_1 3.776245 1_555
Mg2_3 Sr0_7 3.776245 1_455
Mg2_4 Mg3_6 3.186421 1_545
Mg2_4 Mg3_0 3.186421 1_555
Mg2_4 Sr1_4 3.583888 1_555
Mg2_4 Sr1_6 3.625320 1_555
Mg2_4 Sr1_0 3.625320 1_655
Mg2_4 Sr0_0 3.776245 1_555
Mg2_4 Sr0_6 3.776245 1_545
Mg2_5 Mg3_7 3.186421 1_545
Mg2_5 Mg3_1 3.186421 1_555
Mg2_5 Sr1_5 3.583888 1_555
Mg2_5 Sr1_7 3.625320 1_555
Mg2_5 Sr1_1 3.625320 1_655
Mg2_5 Sr0_1 3.776245 1_555
Mg2_5 Sr0_7 3.776245 1_545
Mg2_6 Mg3_2 3.186421 1_555
Mg2_6 Mg3_4 3.186421 1_555
Mg2_6 Sr1_6 3.583888 1_555
Mg2_6 Sr1_4 3.625320 1_565
Mg2_6 Sr1_2 3.625320 1_655
Mg2_6 Sr0_2 3.776245 1_555
Mg2_6 Sr0_4 3.776245 1_555
Mg2_7 Mg3_5 3.186421 1_555
Mg2_7 Mg3_3 3.186421 1_555
Mg2_7 Sr1_7 3.583888 1_555
Mg2_7 Sr1_3 3.625320 1_655
Mg2_7 Sr1_5 3.625320 1_565
Mg2_7 Sr0_3 3.776245 1_555
Mg2_7 Sr0_5 3.776245 1_555
Mg3_0 Sr0_1 3.613073 1_554
Mg3_0 Sr1_4 3.757362 1_555
Mg3_0 Sr1_2 3.757362 1_555
Mg3_1 Sr0_0 3.613073 1_555
Mg3_1 Sr1_3 3.757362 1_555
Mg3_1 Sr1_5 3.757362 1_555
Mg3_2 Sr0_3 3.613073 1_554
Mg3_2 Sr1_0 3.757362 1_565
Mg3_2 Sr1_6 3.757362 1_555
Mg3_3 Sr0_2 3.613073 1_555
Mg3_3 Sr1_1 3.757362 1_565
Mg3_3 Sr1_7 3.757362 1_555
Mg3_4 Sr0_5 3.613073 1_554
Mg3_4 Sr1_0 3.757362 1_655
Mg3_4 Sr1_6 3.757362 1_555
Mg3_5 Sr0_4 3.613073 1_555
Mg3_5 Sr1_1 3.757362 1_655
Mg3_5 Sr1_7 3.757362 1_555
Mg3_6 Sr0_7 3.613073 1_554
Mg3_6 Sr1_4 3.757362 1_565
Mg3_6 Sr1_2 3.757362 1_655
Mg3_7 Sr0_6 3.613073 1_555
Mg3_7 Sr1_5 3.757362 1_565
Mg3_7 Sr1_3 3.757362 1_655
