# generated using pymatgen
data_Yb6Al43V4
_symmetry_space_group_name_H-M   'P 1'
_cell_length_a   11.00813340
_cell_length_b   11.00813340
_cell_length_c   17.73695200
_cell_angle_alpha   90.00000000
_cell_angle_beta   90.00000000
_cell_angle_gamma   119.99999640
_symmetry_Int_Tables_number   1
_chemical_formula_structural   Yb6Al43V4
_chemical_formula_sum   'Yb12 Al86 V8'
_cell_volume   1861.38841205
_cell_formula_units_Z   2
loop_
 _symmetry_equiv_pos_site_id
 _symmetry_equiv_pos_as_xyz
  1  'x, y, z'
loop_
 _atom_site_type_symbol
 _atom_site_label
 _atom_site_symmetry_multiplicity
 _atom_site_fract_x
 _atom_site_fract_y
 _atom_site_fract_z
 _atom_site_occupancy
  Yb  Yb0  1  0.53097300  0.00000000  0.59426200  1
  Yb  Yb1  1  0.46902700  0.00000000  0.40573800  1
  Yb  Yb2  1  0.00000000  0.53097300  0.59426200  1
  Yb  Yb3  1  0.46902700  0.00000000  0.09426200  1
  Yb  Yb4  1  0.00000000  0.53097300  0.90573800  1
  Yb  Yb5  1  0.00000000  0.46902700  0.40573800  1
  Yb  Yb6  1  0.53097300  0.00000000  0.90573800  1
  Yb  Yb7  1  0.00000000  0.46902700  0.09426200  1
  Yb  Yb8  1  0.46902700  0.46902700  0.59426200  1
  Yb  Yb9  1  0.53097300  0.53097300  0.40573800  1
  Yb  Yb10  1  0.53097300  0.53097300  0.09426200  1
  Yb  Yb11  1  0.46902700  0.46902700  0.90573800  1
  Al  Al0  1  0.15662300  0.00000000  0.11516200  1
  Al  Al1  1  0.84337700  0.00000000  0.88483800  1
  Al  Al2  1  0.00000000  0.15662300  0.11516200  1
  Al  Al3  1  0.84337700  0.00000000  0.61516200  1
  Al  Al4  1  0.00000000  0.15662300  0.38483800  1
  Al  Al5  1  0.00000000  0.84337700  0.88483800  1
  Al  Al6  1  0.15662300  0.00000000  0.38483800  1
  Al  Al7  1  0.00000000  0.84337700  0.61516200  1
  Al  Al8  1  0.84337700  0.84337700  0.11516200  1
  Al  Al9  1  0.15662300  0.15662300  0.88483800  1
  Al  Al10  1  0.15662300  0.15662300  0.61516200  1
  Al  Al11  1  0.84337700  0.84337700  0.38483800  1
  Al  Al12  1  0.15795000  0.39166100  0.66544900  1
  Al  Al13  1  0.84205000  0.60833900  0.33455100  1
  Al  Al14  1  0.60833900  0.76628900  0.66544900  1
  Al  Al15  1  0.84205000  0.60833900  0.16544900  1
  Al  Al16  1  0.39166100  0.15795000  0.83455100  1
  Al  Al17  1  0.39166100  0.23371100  0.33455100  1
  Al  Al18  1  0.15795000  0.39166100  0.83455100  1
  Al  Al19  1  0.60833900  0.84205000  0.16544900  1
  Al  Al20  1  0.23371100  0.84205000  0.66544900  1
  Al  Al21  1  0.39166100  0.23371100  0.16544900  1
  Al  Al22  1  0.76628900  0.60833900  0.83455100  1
  Al  Al23  1  0.76628900  0.15795000  0.33455100  1
  Al  Al24  1  0.60833900  0.76628900  0.83455100  1
  Al  Al25  1  0.23371100  0.39166100  0.16544900  1
  Al  Al26  1  0.60833900  0.84205000  0.33455100  1
  Al  Al27  1  0.39166100  0.15795000  0.66544900  1
  Al  Al28  1  0.76628900  0.15795000  0.16544900  1
  Al  Al29  1  0.23371100  0.39166100  0.33455100  1
  Al  Al30  1  0.23371100  0.84205000  0.83455100  1
  Al  Al31  1  0.76628900  0.60833900  0.66544900  1
  Al  Al32  1  0.84205000  0.23371100  0.83455100  1
  Al  Al33  1  0.15795000  0.76628900  0.16544900  1
  Al  Al34  1  0.15795000  0.76628900  0.33455100  1
  Al  Al35  1  0.84205000  0.23371100  0.66544900  1
  Al  Al36  1  0.24689300  0.49378700  0.50000000  1
  Al  Al37  1  0.75310700  0.50621300  0.50000000  1
  Al  Al38  1  0.50621300  0.75310700  0.50000000  1
  Al  Al39  1  0.75310700  0.50621300  0.00000000  1
  Al  Al40  1  0.49378700  0.24689300  0.00000000  1
  Al  Al41  1  0.49378700  0.24689300  0.50000000  1
  Al  Al42  1  0.24689300  0.49378700  0.00000000  1
  Al  Al43  1  0.50621300  0.75310700  0.00000000  1
  Al  Al44  1  0.24689300  0.75310700  0.50000000  1
  Al  Al45  1  0.75310700  0.24689300  0.50000000  1
  Al  Al46  1  0.75310700  0.24689300  0.00000000  1
  Al  Al47  1  0.24689300  0.75310700  0.00000000  1
  Al  Al48  1  0.33333300  0.66666700  0.62671000  1
  Al  Al49  1  0.66666700  0.33333300  0.37329000  1
  Al  Al50  1  0.66666700  0.33333300  0.12671000  1
  Al  Al51  1  0.66666700  0.33333300  0.87329000  1
  Al  Al52  1  0.33333300  0.66666700  0.87329000  1
  Al  Al53  1  0.33333300  0.66666700  0.12671000  1
  Al  Al54  1  0.33333300  0.66666700  0.37329000  1
  Al  Al55  1  0.66666700  0.33333300  0.62671000  1
  Al  Al56  1  0.14617700  0.00000000  0.75000000  1
  Al  Al57  1  0.85382300  0.00000000  0.25000000  1
  Al  Al58  1  0.00000000  0.14617700  0.75000000  1
  Al  Al59  1  0.00000000  0.85382300  0.25000000  1
  Al  Al60  1  0.85382300  0.85382300  0.75000000  1
  Al  Al61  1  0.14617700  0.14617700  0.25000000  1
  Al  Al62  1  0.14550200  0.59902200  0.75000000  1
  Al  Al63  1  0.85449800  0.40097800  0.25000000  1
  Al  Al64  1  0.40097800  0.54648000  0.75000000  1
  Al  Al65  1  0.59902200  0.14550200  0.75000000  1
  Al  Al66  1  0.59902200  0.45352000  0.25000000  1
  Al  Al67  1  0.40097800  0.85449800  0.25000000  1
  Al  Al68  1  0.45352000  0.85449800  0.75000000  1
  Al  Al69  1  0.54648000  0.40097800  0.75000000  1
  Al  Al70  1  0.54648000  0.14550200  0.25000000  1
  Al  Al71  1  0.45352000  0.59902200  0.25000000  1
  Al  Al72  1  0.85449800  0.45352000  0.75000000  1
  Al  Al73  1  0.14550200  0.54648000  0.25000000  1
  Al  Al74  1  0.25058300  0.00000000  0.53117600  1
  Al  Al75  1  0.74941700  0.00000000  0.46882400  1
  Al  Al76  1  0.00000000  0.25058300  0.53117600  1
  Al  Al77  1  0.74941700  0.00000000  0.03117600  1
  Al  Al78  1  0.00000000  0.25058300  0.96882400  1
  Al  Al79  1  0.00000000  0.74941700  0.46882400  1
  Al  Al80  1  0.25058300  0.00000000  0.96882400  1
  Al  Al81  1  0.00000000  0.74941700  0.03117600  1
  Al  Al82  1  0.74941700  0.74941700  0.53117600  1
  Al  Al83  1  0.25058300  0.25058300  0.46882400  1
  Al  Al84  1  0.25058300  0.25058300  0.03117600  1
  Al  Al85  1  0.74941700  0.74941700  0.96882400  1
  V  V0  1  0.73366200  0.00000000  0.75000000  1
  V  V1  1  0.26633800  0.00000000  0.25000000  1
  V  V2  1  0.00000000  0.73366200  0.75000000  1
  V  V3  1  0.00000000  0.26633800  0.25000000  1
  V  V4  1  0.26633800  0.26633800  0.75000000  1
  V  V5  1  0.73366200  0.73366200  0.25000000  1
  V  V6  1  0.00000000  0.00000000  0.50000000  1
  V  V7  1  0.00000000  0.00000000  0.00000000  1
loop_
_geom_bond_atom_site_label_1
_geom_bond_atom_site_label_2
_geom_bond_distance
_geom_bond_site_symmetry_2
Yb0 Yb1 3.412664 1_555
Yb2 Yb5 3.412664 1_555
Yb3 Yb6 3.412664 1_554
Yb4 Yb7 3.412664 1_556
Yb8 Yb9 3.412664 1_555
Yb10 Yb11 3.412664 1_554
Al0 V7 2.672999 1_555
Al0 V1 2.679272 1_555
Al0 Al33 2.729880 1_545
Al0 Al21 2.729880 1_555
Al0 Al80 2.794086 1_554
Al0 Al84 2.836339 1_555
Al0 Al81 2.836339 1_545
Al0 Al61 2.916745 1_555
Al0 Al59 2.916745 1_545
Al0 Al2 2.986275 1_555
Al0 Al8 2.986275 1_445
Al0 Yb3 3.458907 1_555
Al1 V7 2.672999 1_656
Al1 V0 2.679272 1_555
Al1 Al32 2.729880 1_555
Al1 Al24 2.729880 1_545
Al1 Al77 2.794086 1_556
Al1 Al85 2.836339 1_545
Al1 Al78 2.836339 1_655
Al1 Al60 2.916745 1_545
Al1 Al58 2.916745 1_655
Al1 Al5 2.986275 1_645
Al1 Al9 2.986275 1_655
Al1 Yb6 3.458907 1_555
Al2 V7 2.672999 1_555
Al2 V3 2.679272 1_555
Al2 Al28 2.729880 1_455
Al2 Al25 2.729880 1_555
Al2 Al78 2.794086 1_554
Al2 Al84 2.836339 1_555
Al2 Al77 2.836339 1_455
Al2 Al61 2.916745 1_555
Al2 Al57 2.916745 1_455
Al2 Al8 2.986275 1_445
Al2 Yb7 3.458907 1_555
Al3 V6 2.672999 1_655
Al3 V0 2.679272 1_555
Al3 Al35 2.729880 1_555
Al3 Al75 2.794086 1_555
Al3 Al82 2.836339 1_545
Al3 Al76 2.836339 1_655
Al3 Al60 2.916745 1_545
Al3 Al58 2.916745 1_655
Al3 Al7 2.986275 1_645
Al3 Yb0 3.458907 1_555
Al4 V6 2.672999 1_555
Al4 V3 2.679272 1_555
Al4 Al76 2.794086 1_555
Al4 Al83 2.836339 1_555
Al4 Al75 2.836339 1_455
Al4 Al61 2.916745 1_555
Al4 Al57 2.916745 1_455
Al4 Al6 2.986275 1_555
Al4 Yb5 3.458907 1_555
Al5 V7 2.672999 1_566
Al5 V2 2.679272 1_555
Al5 Al81 2.794086 1_556
Al5 Al85 2.836339 1_455
Al5 Al80 2.836339 1_565
Al5 Al60 2.916745 1_455
Al5 Al56 2.916745 1_565
Al5 Al9 2.986275 1_565
Al5 Yb4 3.458907 1_555
Al6 V6 2.672999 1_555
Al6 V1 2.679272 1_555
Al6 Al74 2.794086 1_555
Al6 Al83 2.836339 1_555
Al6 Al79 2.836339 1_545
Al6 Al61 2.916745 1_555
Al6 Yb1 3.458907 1_555
Al7 V6 2.672999 1_565
Al7 V2 2.679272 1_555
Al7 Al79 2.794086 1_555
Al7 Al82 2.836339 1_455
Al7 Al74 2.836339 1_565
Al7 Yb2 3.458907 1_555
Al8 V7 2.672999 1_665
Al8 V5 2.679272 1_555
Al8 Al85 2.794086 1_554
Al8 Al81 2.836339 1_655
Al8 Yb10 3.458907 1_555
Al9 V7 2.672999 1_556
Al9 V4 2.679272 1_555
Al9 Yb11 3.458907 1_555
Al10 V6 2.672999 1_555
Al10 V4 2.679272 1_555
Al10 Al27 2.729880 1_555
Al10 Al12 2.729880 1_555
Al10 Al83 2.794086 1_555
Al10 Al74 2.836339 1_555
Al10 Al76 2.836339 1_555
Al10 Al58 2.916745 1_555
Al10 Al56 2.916745 1_555
Al10 Al3 2.986275 1_455
Al10 Al7 2.986275 1_545
Al10 Yb8 3.458907 1_555
Al11 V6 2.672999 1_665
Al11 V5 2.679272 1_555
Al11 Al26 2.729880 1_555
Al11 Al13 2.729880 1_555
Al11 Al82 2.794086 1_555
Al11 Al79 2.836339 1_655
Al11 Al75 2.836339 1_565
Al11 Al57 2.916745 1_565
Al11 Al59 2.916745 1_655
Al11 Al4 2.986275 1_665
Al11 Al6 2.986275 1_665
Al11 Yb9 3.458907 1_555
Al12 V4 2.687358 1_555
Al12 Al48 2.742157 1_555
Al12 Al64 2.784117 1_555
Al12 Al62 2.791259 1_555
Al12 Al58 2.806448 1_555
Al12 Al76 2.899439 1_555
Al12 Al18 2.999354 1_555
Al12 Al35 3.011577 1_455
Al12 Yb2 3.104149 1_555
Al12 Al36 3.119844 1_555
Al12 Yb8 3.336098 1_555
Al13 V5 2.687358 1_555
Al13 Al49 2.742157 1_555
Al13 Al66 2.784117 1_555
Al13 Al63 2.791259 1_555
Al13 Al59 2.806448 1_655
Al13 Al79 2.899439 1_655
Al13 Al15 2.999354 1_555
Al13 Al34 3.011577 1_655
Al13 Yb5 3.104149 1_655
Al13 Al37 3.119844 1_555
Al13 Yb9 3.336098 1_555
Al14 V0 2.687358 1_565
Al14 Al3 2.729880 1_565
Al14 Al48 2.742158 1_555
Al14 Al68 2.784117 1_555
Al14 Al64 2.791259 1_555
Al14 Al60 2.806448 1_555
Al14 Al82 2.899439 1_555
Al14 Al24 2.999354 1_555
Al14 Al31 3.011577 1_555
Al14 Yb8 3.104150 1_555
Al14 Al38 3.119845 1_555
Al14 Yb0 3.336098 1_565
Al15 V5 2.687358 1_555
Al15 Al8 2.729880 1_555
Al15 Al50 2.742157 1_555
Al15 Al66 2.784117 1_555
Al15 Al63 2.791259 1_555
Al15 Al59 2.806448 1_655
Al15 Al81 2.899439 1_655
Al15 Al33 3.011577 1_655
Al15 Yb7 3.104149 1_655
Al15 Al39 3.119844 1_555
Al15 Yb10 3.336098 1_555
Al16 V4 2.687358 1_555
Al16 Al9 2.729880 1_555
Al16 Al51 2.742157 1_555
Al16 Al69 2.784117 1_555
Al16 Al65 2.791259 1_555
Al16 Al56 2.806448 1_555
Al16 Al80 2.899439 1_555
Al16 Al27 2.999354 1_555
Al16 Al30 3.011577 1_545
Al16 Yb6 3.104149 1_555
Al16 Al40 3.119844 1_556
Al16 Yb11 3.336098 1_555
Al17 V1 2.687358 1_555
Al17 Al6 2.729880 1_555
Al17 Al49 2.742158 1_555
Al17 Al70 2.784117 1_555
Al17 Al66 2.791259 1_555
Al17 Al61 2.806448 1_555
Al17 Al83 2.899439 1_555
Al17 Al21 2.999354 1_555
Al17 Al29 3.011577 1_555
Al17 Yb9 3.104150 1_555
Al17 Al41 3.119845 1_555
Al17 Yb1 3.336098 1_555
Al18 V4 2.687358 1_555
Al18 Al9 2.729880 1_555
Al18 Al52 2.742157 1_555
Al18 Al64 2.784117 1_555
Al18 Al62 2.791259 1_555
Al18 Al58 2.806448 1_555
Al18 Al78 2.899439 1_555
Al18 Al32 3.011577 1_455
Al18 Yb4 3.104149 1_555
Al18 Al42 3.119844 1_556
Al18 Yb11 3.336098 1_555
Al19 V5 2.687358 1_555
Al19 Al8 2.729880 1_555
Al19 Al53 2.742157 1_555
Al19 Al71 2.784117 1_555
Al19 Al67 2.791259 1_555
Al19 Al57 2.806448 1_565
Al19 Al77 2.899439 1_565
Al19 Al26 2.999354 1_555
Al19 Al28 3.011577 1_565
Al19 Yb3 3.104149 1_565
Al19 Al43 3.119844 1_555
Al19 Yb10 3.336098 1_555
Al20 V2 2.687358 1_555
Al20 Al7 2.729880 1_555
Al20 Al48 2.742148 1_555
Al20 Al62 2.784117 1_555
Al20 Al68 2.791259 1_555
Al20 Al56 2.806447 1_565
Al20 Al74 2.899439 1_565
Al20 Al30 2.999354 1_555
Al20 Al27 3.011577 1_565
Al20 Yb0 3.104150 1_565
Al20 Al44 3.119841 1_555
Al20 Yb2 3.336098 1_555
Al21 V1 2.687358 1_555
Al21 Al50 2.742158 1_555
Al21 Al70 2.784117 1_555
Al21 Al66 2.791259 1_555
Al21 Al61 2.806448 1_555
Al21 Al84 2.899439 1_555
Al21 Al25 3.011577 1_555
Al21 Yb10 3.104150 1_555
Al21 Al40 3.119845 1_555
Al21 Yb3 3.336098 1_555
Al22 V2 2.687358 1_655
Al22 Al5 2.729880 1_655
Al22 Al51 2.742158 1_555
Al22 Al72 2.784117 1_555
Al22 Al69 2.791259 1_555
Al22 Al60 2.806448 1_555
Al22 Al85 2.899439 1_555
Al22 Al31 2.999354 1_555
Al22 Al24 3.011577 1_555
Al22 Yb11 3.104150 1_555
Al22 Al39 3.119845 1_556
Al22 Yb4 3.336098 1_655
Al23 V3 2.687358 1_655
Al23 Al4 2.729880 1_655
Al23 Al49 2.742148 1_555
Al23 Al63 2.784117 1_555
Al23 Al70 2.791259 1_555
Al23 Al57 2.806447 1_555
Al23 Al75 2.899439 1_555
Al23 Al28 2.999354 1_555
Al23 Al26 3.011577 1_545
Al23 Yb1 3.104150 1_555
Al23 Al45 3.119841 1_555
Al23 Yb5 3.336098 1_655
Al24 V0 2.687358 1_565
Al24 Al52 2.742158 1_555
Al24 Al68 2.784117 1_555
Al24 Al64 2.791259 1_555
Al24 Al60 2.806448 1_555
Al24 Al85 2.899439 1_555
Al24 Yb11 3.104150 1_555
Al24 Al43 3.119845 1_556
Al24 Yb6 3.336098 1_565
Al25 V3 2.687358 1_555
Al25 Al53 2.742158 1_555
Al25 Al73 2.784117 1_555
Al25 Al71 2.791259 1_555
Al25 Al61 2.806448 1_555
Al25 Al84 2.899439 1_555
Al25 Al29 2.999354 1_555
Al25 Yb10 3.104150 1_555
Al25 Al42 3.119845 1_555
Al25 Yb7 3.336098 1_555
Al26 V5 2.687358 1_555
Al26 Al54 2.742157 1_555
Al26 Al71 2.784117 1_555
Al26 Al67 2.791259 1_555
Al26 Al57 2.806448 1_565
Al26 Al75 2.899439 1_565
Al26 Yb1 3.104149 1_565
Al26 Al38 3.119844 1_555
Al26 Yb9 3.336098 1_555
Al27 V4 2.687358 1_555
Al27 Al55 2.742157 1_555
Al27 Al69 2.784117 1_555
Al27 Al65 2.791259 1_555
Al27 Al56 2.806448 1_555
Al27 Al74 2.899439 1_555
Al27 Yb0 3.104149 1_555
Al27 Al41 3.119844 1_555
Al27 Yb8 3.336098 1_555
Al28 V3 2.687358 1_655
Al28 Al50 2.742148 1_555
Al28 Al63 2.784117 1_555
Al28 Al70 2.791259 1_555
Al28 Al57 2.806447 1_555
Al28 Al77 2.899439 1_555
Al28 Yb3 3.104150 1_555
Al28 Al46 3.119841 1_555
Al28 Yb7 3.336098 1_655
Al29 V3 2.687358 1_555
Al29 Al4 2.729880 1_555
Al29 Al54 2.742158 1_555
Al29 Al73 2.784117 1_555
Al29 Al71 2.791259 1_555
Al29 Al61 2.806448 1_555
Al29 Al83 2.899439 1_555
Al29 Yb9 3.104150 1_555
Al29 Al36 3.119845 1_555
Al29 Yb5 3.336098 1_555
Al30 V2 2.687358 1_555
Al30 Al5 2.729880 1_555
Al30 Al52 2.742148 1_555
Al30 Al62 2.784117 1_555
Al30 Al68 2.791259 1_555
Al30 Al56 2.806447 1_565
Al30 Al80 2.899439 1_565
Al30 Yb6 3.104150 1_565
Al30 Al47 3.119841 1_556
Al30 Yb4 3.336098 1_555
Al31 V2 2.687358 1_655
Al31 Al7 2.729880 1_655
Al31 Al55 2.742158 1_555
Al31 Al72 2.784117 1_555
Al31 Al69 2.791259 1_555
Al31 Al60 2.806448 1_555
Al31 Al82 2.899439 1_555
Al31 Yb8 3.104150 1_555
Al31 Al37 3.119845 1_555
Al31 Yb2 3.336098 1_655
Al32 V0 2.687358 1_555
Al32 Al51 2.742148 1_555
Al32 Al65 2.784117 1_555
Al32 Al72 2.791259 1_555
Al32 Al58 2.806447 1_655
Al32 Al78 2.899439 1_655
Al32 Al35 2.999354 1_555
Al32 Yb4 3.104150 1_655
Al32 Al46 3.119841 1_556
Al32 Yb6 3.336098 1_555
Al33 V1 2.687358 1_565
Al33 Al53 2.742148 1_555
Al33 Al67 2.784117 1_555
Al33 Al73 2.791259 1_555
Al33 Al59 2.806447 1_555
Al33 Al81 2.899439 1_555
Al33 Al34 2.999354 1_555
Al33 Yb7 3.104150 1_555
Al33 Al47 3.119841 1_555
Al33 Yb3 3.336098 1_565
Al34 V1 2.687358 1_565
Al34 Al6 2.729880 1_565
Al34 Al54 2.742148 1_555
Al34 Al67 2.784117 1_555
Al34 Al73 2.791259 1_555
Al34 Al59 2.806447 1_555
Al34 Al79 2.899439 1_555
Al34 Yb5 3.104150 1_555
Al34 Al44 3.119841 1_555
Al34 Yb1 3.336098 1_565
Al35 V0 2.687358 1_555
Al35 Al55 2.742148 1_555
Al35 Al65 2.784117 1_555
Al35 Al72 2.791259 1_555
Al35 Al58 2.806447 1_655
Al35 Al76 2.899439 1_655
Al35 Yb2 3.104150 1_655
Al35 Al45 3.119841 1_555
Al35 Yb0 3.336098 1_555
Al36 Al76 2.753845 1_555
Al36 Al83 2.753850 1_555
Al36 Al54 2.786993 1_555
Al36 Al48 2.786993 1_555
Al36 Al44 2.854629 1_555
Al36 Al38 2.854629 1_555
Al36 Yb5 3.084710 1_555
Al36 Yb8 3.084720 1_555
Al36 Yb2 3.385562 1_555
Al36 Yb9 3.385572 1_555
Al37 Al79 2.753845 1_655
Al37 Al82 2.753850 1_555
Al37 Al55 2.786993 1_555
Al37 Al49 2.786993 1_555
Al37 Al45 2.854629 1_555
Al37 Al41 2.854629 1_555
Al37 Yb2 3.084710 1_655
Al37 Yb9 3.084720 1_555
Al37 Yb5 3.385562 1_655
Al37 Yb8 3.385572 1_555
Al38 Al75 2.753845 1_565
Al38 Al82 2.753850 1_555
Al38 Al48 2.786993 1_555
Al38 Al54 2.786993 1_555
Al38 Al44 2.854629 1_555
Al38 Yb0 3.084710 1_565
Al38 Yb9 3.084720 1_555
Al38 Yb1 3.385562 1_565
Al38 Yb8 3.385572 1_555
Al39 Al81 2.753845 1_655
Al39 Al85 2.753850 1_554
Al39 Al51 2.786993 1_554
Al39 Al50 2.786993 1_555
Al39 Al46 2.854629 1_555
Al39 Al40 2.854629 1_555
Al39 Yb4 3.084710 1_654
Al39 Yb10 3.084720 1_555
Al39 Yb7 3.385562 1_655
Al39 Yb11 3.385572 1_554
Al40 Al80 2.753845 1_554
Al40 Al84 2.753850 1_555
Al40 Al51 2.786993 1_554
Al40 Al50 2.786993 1_555
Al40 Al46 2.854629 1_555
Al40 Yb3 3.084710 1_555
Al40 Yb11 3.084720 1_554
Al40 Yb6 3.385562 1_554
Al40 Yb10 3.385572 1_555
Al41 Al74 2.753845 1_555
Al41 Al83 2.753850 1_555
Al41 Al49 2.786993 1_555
Al41 Al55 2.786993 1_555
Al41 Al45 2.854629 1_555
Al41 Yb1 3.084710 1_555
Al41 Yb8 3.084720 1_555
Al41 Yb0 3.385562 1_555
Al41 Yb9 3.385572 1_555
Al42 Al78 2.753845 1_554
Al42 Al84 2.753850 1_555
Al42 Al52 2.786993 1_554
Al42 Al53 2.786993 1_555
Al42 Al47 2.854629 1_555
Al42 Al43 2.854629 1_555
Al42 Yb7 3.084710 1_555
Al42 Yb11 3.084720 1_554
Al42 Yb4 3.385562 1_554
Al42 Yb10 3.385572 1_555
Al43 Al77 2.753845 1_565
Al43 Al85 2.753850 1_554
Al43 Al52 2.786993 1_554
Al43 Al53 2.786993 1_555
Al43 Al47 2.854629 1_555
Al43 Yb6 3.084710 1_564
Al43 Yb10 3.084720 1_555
Al43 Yb3 3.385562 1_565
Al43 Yb11 3.385572 1_554
Al44 Al79 2.753839 1_555
Al44 Al74 2.753839 1_565
Al44 Al48 2.786993 1_555
Al44 Al54 2.786993 1_555
Al44 Yb2 3.084714 1_555
Al44 Yb1 3.084714 1_565
Al44 Yb0 3.385568 1_565
Al44 Yb5 3.385568 1_555
Al45 Al76 2.753839 1_655
Al45 Al75 2.753839 1_555
Al45 Al49 2.786993 1_555
Al45 Al55 2.786993 1_555
Al45 Yb0 3.084714 1_555
Al45 Yb5 3.084714 1_655
Al45 Yb2 3.385568 1_655
Al45 Yb1 3.385568 1_555
Al46 Al78 2.753839 1_654
Al46 Al77 2.753839 1_555
Al46 Al51 2.786993 1_554
Al46 Al50 2.786993 1_555
Al46 Yb6 3.084714 1_554
Al46 Yb7 3.084714 1_655
Al46 Yb4 3.385568 1_654
Al46 Yb3 3.385568 1_555
Al47 Al80 2.753839 1_564
Al47 Al81 2.753839 1_555
Al47 Al52 2.786993 1_554
Al47 Al53 2.786993 1_555
Al47 Yb4 3.084714 1_554
Al47 Yb3 3.084714 1_565
Al47 Yb7 3.385568 1_555
Al47 Yb6 3.385568 1_564
Al48 Al62 2.841147 1_555
Al48 Al68 2.841148 1_555
Al48 Al64 2.841154 1_555
Al48 Yb2 3.247416 1_555
Al48 Yb0 3.247417 1_565
Al48 Yb8 3.247426 1_555
Al49 Al63 2.841147 1_555
Al49 Al70 2.841148 1_555
Al49 Al66 2.841154 1_555
Al49 Yb5 3.247416 1_655
Al49 Yb1 3.247417 1_555
Al49 Yb9 3.247426 1_555
Al50 Al63 2.841147 1_555
Al50 Al70 2.841148 1_555
Al50 Al66 2.841154 1_555
Al50 Yb7 3.247416 1_655
Al50 Yb3 3.247417 1_555
Al50 Yb10 3.247426 1_555
Al51 Al65 2.841147 1_555
Al51 Al72 2.841148 1_555
Al51 Al69 2.841154 1_555
Al51 Yb6 3.247416 1_555
Al51 Yb4 3.247417 1_655
Al51 Yb11 3.247426 1_555
Al52 Al62 2.841147 1_555
Al52 Al68 2.841148 1_555
Al52 Al64 2.841154 1_555
Al52 Yb4 3.247416 1_555
Al52 Yb6 3.247417 1_565
Al52 Yb11 3.247426 1_555
Al53 Al67 2.841147 1_555
Al53 Al73 2.841148 1_555
Al53 Al71 2.841154 1_555
Al53 Yb3 3.247416 1_565
Al53 Yb7 3.247417 1_555
Al53 Yb10 3.247426 1_555
Al54 Al67 2.841147 1_555
Al54 Al73 2.841148 1_555
Al54 Al71 2.841154 1_555
Al54 Yb1 3.247416 1_565
Al54 Yb5 3.247417 1_555
Al54 Yb9 3.247426 1_555
Al55 Al65 2.841147 1_555
Al55 Al72 2.841148 1_555
Al55 Al69 2.841154 1_555
Al55 Yb0 3.247416 1_555
Al55 Yb2 3.247417 1_655
Al55 Yb8 3.247426 1_555
Al56 V4 2.543121 1_555
Al56 V2 2.543121 1_545
Al56 Al58 2.787105 1_555
Al56 Al60 2.787105 1_445
Al56 Al9 2.916745 1_555
Al56 Al7 2.916745 1_545
Al57 V5 2.543121 1_545
Al57 V3 2.543121 1_655
Al57 Al59 2.787105 1_645
Al57 Al61 2.787105 1_655
Al57 Al8 2.916745 1_545
Al58 V4 2.543121 1_555
Al58 V0 2.543121 1_455
Al58 Al60 2.787105 1_445
Al58 Al9 2.916745 1_555
Al59 V5 2.543121 1_455
Al59 V1 2.543121 1_565
Al59 Al61 2.787105 1_565
Al59 Al8 2.916745 1_455
Al59 Al6 2.916745 1_565
Al60 V2 2.543121 1_655
Al60 V0 2.543121 1_565
Al60 Al7 2.916745 1_655
Al61 V1 2.543121 1_555
Al61 V3 2.543121 1_555
Al62 V2 2.671353 1_555
Al62 Al72 2.774235 1_455
Al62 Yb4 3.091468 1_555
Al62 Yb2 3.091468 1_555
Al63 V3 2.671353 1_655
Al63 Al73 2.774235 1_655
Al63 Yb7 3.091468 1_655
Al63 Yb5 3.091468 1_655
Al64 V4 2.671353 1_555
Al64 Al69 2.774235 1_555
Al64 Yb8 3.091468 1_555
Al64 Yb11 3.091468 1_555
Al65 V0 2.671353 1_555
Al65 Al68 2.774235 1_545
Al65 Yb6 3.091468 1_555
Al65 Yb0 3.091468 1_555
Al66 V5 2.671353 1_555
Al66 Al71 2.774235 1_555
Al66 Yb10 3.091468 1_555
Al66 Yb9 3.091468 1_555
Al67 V1 2.671353 1_565
Al67 Al70 2.774235 1_565
Al67 Yb3 3.091468 1_565
Al67 Yb1 3.091468 1_565
Al68 V0 2.671353 1_565
Al68 Yb0 3.091468 1_565
Al68 Yb6 3.091468 1_565
Al69 V4 2.671353 1_555
Al69 Yb8 3.091468 1_555
Al69 Yb11 3.091468 1_555
Al70 V1 2.671353 1_555
Al70 Yb3 3.091468 1_555
Al70 Yb1 3.091468 1_555
Al71 V5 2.671353 1_555
Al71 Yb10 3.091468 1_555
Al71 Yb9 3.091468 1_555
Al72 V2 2.671353 1_655
Al72 Yb2 3.091468 1_655
Al72 Yb4 3.091468 1_655
Al73 V3 2.671353 1_555
Al73 Yb5 3.091468 1_555
Al73 Yb7 3.091468 1_555
Al74 V6 2.813330 1_555
Al74 Al83 2.971892 1_555
Al74 Al79 2.971892 1_545
Al74 Yb1 3.276052 1_555
Al74 Yb0 3.283135 1_555
Al75 V6 2.813330 1_655
Al75 Al82 2.971892 1_545
Al75 Al76 2.971892 1_655
Al75 Yb0 3.276052 1_555
Al75 Yb1 3.283135 1_555
Al76 V6 2.813330 1_555
Al76 Al83 2.971892 1_555
Al76 Yb5 3.276052 1_555
Al76 Yb2 3.283135 1_555
Al77 V7 2.813330 1_655
Al77 Al8 2.836339 1_545
Al77 Al85 2.971892 1_544
Al77 Al78 2.971892 1_654
Al77 Yb6 3.276052 1_554
Al77 Yb3 3.283135 1_555
Al78 V7 2.813330 1_556
Al78 Al9 2.836339 1_555
Al78 Al84 2.971892 1_556
Al78 Yb7 3.276052 1_556
Al78 Yb4 3.283135 1_555
Al79 V6 2.813330 1_565
Al79 Al82 2.971892 1_455
Al79 Yb2 3.276052 1_555
Al79 Yb5 3.283135 1_555
Al80 V7 2.813330 1_556
Al80 Al9 2.836339 1_555
Al80 Al84 2.971892 1_556
Al80 Al81 2.971892 1_546
Al80 Yb3 3.276052 1_556
Al80 Yb6 3.283135 1_555
Al81 V7 2.813330 1_565
Al81 Al85 2.971892 1_454
Al81 Yb4 3.276052 1_554
Al81 Yb7 3.283135 1_555
Al82 V6 2.813330 1_665
Al82 Yb9 3.276052 1_555
Al82 Yb8 3.283135 1_555
Al83 V6 2.813330 1_555
Al83 Yb8 3.276052 1_555
Al83 Yb9 3.283135 1_555
Al84 Al9 2.794086 1_554
Al84 V7 2.813330 1_555
Al84 Yb11 3.276052 1_554
Al84 Yb10 3.283135 1_555
Al85 V7 2.813330 1_666
Al85 Yb10 3.276052 1_556
Al85 Yb11 3.283135 1_555
V0 Yb6 3.550884 1_555
V0 Yb0 3.550884 1_555
V1 Yb3 3.550884 1_555
V1 Yb1 3.550884 1_555
V2 Yb2 3.550884 1_555
V2 Yb4 3.550884 1_555
V3 Yb7 3.550884 1_555
V3 Yb5 3.550884 1_555
V4 Yb11 3.550884 1_555
V4 Yb8 3.550884 1_555
V5 Yb10 3.550884 1_555
V5 Yb9 3.550884 1_555
