# generated using pymatgen
data_K(IO3)2
_symmetry_space_group_name_H-M   'P 1'
_cell_length_a   21.05021998
_cell_length_b   20.61412499
_cell_length_c   7.14977107
_cell_angle_alpha   83.58207700
_cell_angle_beta   76.69180255
_cell_angle_gamma   19.72612046
_symmetry_Int_Tables_number   1
_chemical_formula_structural   K(IO3)2
_chemical_formula_sum   'K6 I12 O36'
_cell_volume   965.68498354
_cell_formula_units_Z   6
loop_
 _symmetry_equiv_pos_site_id
 _symmetry_equiv_pos_as_xyz
  1  'x, y, z'
loop_
 _atom_site_type_symbol
 _atom_site_label
 _atom_site_symmetry_multiplicity
 _atom_site_fract_x
 _atom_site_fract_y
 _atom_site_fract_z
 _atom_site_occupancy
  K  K0  1  0.38562000  0.91527800  0.58282900  1
  K  K1  1  0.58282900  0.11627300  0.38562000  1
  K  K2  1  0.13372700  0.66717100  0.33472200  1
  K  K3  1  0.33472200  0.86438000  0.13372700  1
  K  K4  1  0.47994900  0.02005100  0.47994900  1
  K  K5  1  0.22994900  0.77005100  0.22994900  1
  I  I0  1  0.93137300  0.46726400  0.55112100  1
  I  I1  1  0.55112100  0.05024200  0.93137300  1
  I  I2  1  0.19975800  0.69887900  0.78273600  1
  I  I3  1  0.78273600  0.31862700  0.19975800  1
  I  I4  1  0.41375800  0.98688000  0.03247100  1
  I  I5  1  0.03247100  0.56689100  0.41375800  1
  I  I6  1  0.68310900  0.21752900  0.26312000  1
  I  I7  1  0.26312000  0.83624200  0.68310900  1
  I  I8  1  0.91548900  0.40304300  0.05380200  1
  I  I9  1  0.05380200  0.62766700  0.91548900  1
  I  I10  1  0.62233300  0.19619800  0.84695700  1
  I  I11  1  0.84695700  0.33451100  0.62233300  1
  O  O0  1  0.82669800  0.50582500  0.44762000  1
  O  O1  1  0.44762000  0.21985700  0.82669800  1
  O  O2  1  0.03014300  0.80238000  0.74417500  1
  O  O3  1  0.74417500  0.42330200  0.03014300  1
  O  O4  1  0.20444700  0.19277200  0.42864900  1
  O  O5  1  0.42864900  0.17413200  0.20444700  1
  O  O6  1  0.07586800  0.82135100  0.05722800  1
  O  O7  1  0.05722800  0.04555300  0.07586800  1
  O  O8  1  0.91332100  0.55558200  0.36310700  1
  O  O9  1  0.36310700  0.16799000  0.91332100  1
  O  O10  1  0.08201000  0.88689300  0.69441800  1
  O  O11  1  0.69441800  0.33667900  0.08201000  1
  O  O12  1  0.57813800  0.89665100  0.05741500  1
  O  O13  1  0.05741500  0.46779600  0.57813800  1
  O  O14  1  0.78220400  0.19258500  0.35334900  1
  O  O15  1  0.35334900  0.67186200  0.78220400  1
  O  O16  1  0.54701900  0.85414400  0.75828300  1
  O  O17  1  0.75828300  0.84055500  0.54701900  1
  O  O18  1  0.40944500  0.49171700  0.39585600  1
  O  O19  1  0.39585600  0.70298100  0.40944500  1
  O  O20  1  0.52246200  0.81376900  0.13835700  1
  O  O21  1  0.13835700  0.52541300  0.52246200  1
  O  O22  1  0.72458700  0.11164300  0.43623100  1
  O  O23  1  0.43623100  0.72753800  0.72458700  1
  O  O24  1  0.97788700  0.43006900  0.00804200  1
  O  O25  1  0.00804200  0.58400300  0.97788700  1
  O  O26  1  0.66599700  0.24195800  0.81993100  1
  O  O27  1  0.81993100  0.27211300  0.66599700  1
  O  O28  1  0.91807200  0.38966600  0.79553000  1
  O  O29  1  0.79553000  0.89673200  0.91807200  1
  O  O30  1  0.35326800  0.45447000  0.86033400  1
  O  O31  1  0.86033400  0.33192800  0.35326800  1
  O  O32  1  0.17359800  0.12610100  0.00816500  1
  O  O33  1  0.00816500  0.69213600  0.17359800  1
  O  O34  1  0.55786400  0.24183500  0.12389900  1
  O  O35  1  0.12389900  0.07640200  0.55786400  1
loop_
_geom_bond_atom_site_label_1
_geom_bond_atom_site_label_2
_geom_bond_distance
_geom_bond_site_symmetry_2
K0 O35 2.699334 1_565
K0 O4 2.817151 1_565
K0 O32 2.871295 1_566
K0 O16 2.872762 1_555
K0 O0 2.921827 1_555
K0 O20 2.949511 1_555
K0 O23 2.999641 1_555
K0 O28 3.169665 1_465
K1 O34 2.699334 1_555
K1 O5 2.817151 1_555
K1 O33 2.871295 1_645
K1 O17 2.872747 1_545
K1 O1 2.921827 1_555
K1 O21 2.949510 1_555
K1 O22 2.999622 1_555
K1 O29 3.169665 1_544
K2 O33 2.699334 1_555
K2 O6 2.817151 1_555
K2 O34 2.871295 1_555
K2 O18 2.872744 1_555
K2 O2 2.921827 1_555
K2 O22 2.949510 1_465
K2 O21 2.999625 1_555
K2 O30 3.169665 1_554
K3 O32 2.699334 1_565
K3 O7 2.817151 1_565
K3 O35 2.871295 1_565
K3 O19 2.872757 1_555
K3 O3 2.921827 1_555
K3 O23 2.949518 1_554
K3 O20 2.999643 1_555
K3 O31 3.169665 1_465
K4 O5 2.873660 1_555
K4 O4 2.873660 1_555
K4 O16 2.886463 1_545
K4 O17 2.886477 1_545
K4 O13 2.968909 1_555
K4 O12 2.968909 1_545
K4 O9 3.071363 1_555
K4 O8 3.071363 1_545
K5 O7 2.873660 1_565
K5 O6 2.873660 1_555
K5 O19 2.886458 1_555
K5 O18 2.886473 1_555
K5 O14 2.968909 1_465
K5 O15 2.968909 1_554
K5 O10 3.071363 1_555
K5 O11 3.071363 1_555
I0 O0 1.832023 1_555
I0 O4 1.839211 1_655
I0 O8 1.910914 1_555
I0 O28 2.384078 1_555
I0 O16 2.627559 1_555
I1 O1 1.832023 1_555
I1 O5 1.839211 1_556
I1 O9 1.910914 1_555
I1 O29 2.384078 1_545
I1 O17 2.627555 1_545
I2 O2 1.832023 1_555
I2 O6 1.839211 1_556
I2 O10 1.910914 1_555
I2 O30 2.384078 1_555
I2 O18 2.627561 1_555
I3 O3 1.832023 1_555
I3 O7 1.839211 1_655
I3 O11 1.910914 1_555
I3 O31 2.384078 1_555
I3 O19 2.627557 1_555
I4 O20 1.834181 1_555
I4 O16 1.848292 1_554
I4 O12 1.886240 1_555
I4 O32 2.608143 1_565
I4 O4 2.680757 1_565
I5 O21 1.834196 1_555
I5 O17 1.848295 1_455
I5 O13 1.886240 1_555
I5 O33 2.608143 1_555
I5 O5 2.680757 1_555
I6 O22 1.834191 1_555
I6 O18 1.848294 1_555
I6 O14 1.886240 1_555
I6 O34 2.608143 1_555
I6 O6 2.680757 1_645
I7 O23 1.834177 1_555
I7 O19 1.848298 1_555
I7 O15 1.886240 1_555
I7 O35 2.608143 1_565
I7 O7 2.680757 1_566
I8 O24 1.811558 1_555
I8 O32 1.850189 1_655
I8 O28 1.878367 1_554
I9 O25 1.811558 1_555
I9 O33 1.850182 1_556
I9 O29 1.878362 1_455
I10 O26 1.811558 1_555
I10 O34 1.850189 1_556
I10 O30 1.878360 1_555
I11 O27 1.811558 1_555
I11 O35 1.850190 1_655
I11 O31 1.878360 1_555
