# generated using pymatgen
data_Mg14CuW
_symmetry_space_group_name_H-M   'P 1'
_cell_length_a   6.21763889
_cell_length_b   6.21763842
_cell_length_c   9.81440691
_cell_angle_alpha   90.00000000
_cell_angle_beta   90.00000000
_cell_angle_gamma   120.00000258
_symmetry_Int_Tables_number   1
_chemical_formula_structural   Mg14CuW
_chemical_formula_sum   'Mg14 Cu1 W1'
_cell_volume   328.58341433
_cell_formula_units_Z   1
loop_
 _symmetry_equiv_pos_site_id
 _symmetry_equiv_pos_as_xyz
  1  'x, y, z'
loop_
 _atom_site_type_symbol
 _atom_site_label
 _atom_site_symmetry_multiplicity
 _atom_site_fract_x
 _atom_site_fract_y
 _atom_site_fract_z
 _atom_site_occupancy
  Mg  Mg0  1  0.16567766  0.83283833  0.12500000  1
  Mg  Mg1  1  0.16962542  0.83481221  0.62500000  1
  Mg  Mg2  1  0.66716167  0.33432234  0.12500000  1
  Mg  Mg3  1  0.66518779  0.33037458  0.62500000  1
  Mg  Mg4  1  0.66716167  0.83283833  0.12500000  1
  Mg  Mg5  1  0.66518779  0.83481221  0.62500000  1
  Mg  Mg6  1  0.32460180  0.17539820  0.37640749  1
  Mg  Mg7  1  0.32460180  0.17539820  0.87359251  1
  Mg  Mg8  1  0.32460180  0.64920461  0.37640749  1
  Mg  Mg9  1  0.32460180  0.64920461  0.87359251  1
  Mg  Mg10  1  0.85079539  0.17539820  0.37640749  1
  Mg  Mg11  1  0.85079539  0.17539820  0.87359251  1
  Mg  Mg12  1  0.83333300  0.66666700  0.37666406  1
  Mg  Mg13  1  0.83333300  0.66666700  0.87333594  1
  Cu  Cu0  1  0.16666700  0.33333300  0.12500000  1
  W  W0  1  0.16666700  0.33333300  0.62500000  1
loop_
_geom_bond_atom_site_label_1
_geom_bond_atom_site_label_2
_geom_bond_distance
_geom_bond_site_symmetry_2
Mg0 Mg13 3.050094 1_454
Mg0 Mg12 3.050094 1_455
Mg0 Mg8 3.081623 1_555
Mg0 Mg9 3.081623 1_554
Mg0 Mg7 3.081629 1_564
Mg0 Mg6 3.081629 1_565
Mg0 Mg2 3.099592 1_455
Mg0 Mg4 3.099592 1_455
Mg0 Mg2 3.118046 1_565
Mg0 Mg4 3.118046 1_555
Mg1 Mg12 3.036334 1_455
Mg1 Mg13 3.036334 1_455
Mg1 W0 3.108860 1_555
Mg1 W0 3.108860 1_565
Mg2 Mg7 3.081629 1_554
Mg2 Mg6 3.081629 1_555
Mg2 Mg4 3.099592 1_555
Mg2 Mg4 3.118046 1_545
Mg3 W0 3.108860 1_655
Mg3 W0 3.108860 1_555
Mg4 Mg8 3.081629 1_555
Mg4 Mg9 3.081629 1_554
Mg5 W0 3.108860 1_555
Mg5 W0 3.108860 1_665
Mg6 W0 2.974127 1_555
Mg7 W0 2.974127 1_555
Mg8 W0 2.974133 1_555
Mg9 W0 2.974133 1_555
Mg10 W0 2.974133 1_655
Mg10 Mg2 3.081623 1_555
Mg10 Mg4 3.081629 1_545
Mg10 Mg12 3.110242 1_555
Mg10 Mg12 3.110242 1_545
Mg11 W0 2.974133 1_655
Mg11 Mg2 3.081623 1_556
Mg11 Mg4 3.081629 1_546
Mg11 Mg13 3.110242 1_555
Mg11 Mg13 3.110242 1_545
Mg12 Mg5 3.036327 1_555
Mg12 Mg3 3.036334 1_555
Mg12 Mg4 3.050088 1_555
Mg12 Mg2 3.050094 1_555
Mg12 Mg6 3.110242 1_665
Mg12 Mg6 3.110242 1_555
Mg12 Mg8 3.110242 1_655
Mg12 Mg8 3.110242 1_555
Mg13 Mg5 3.036327 1_555
Mg13 Mg3 3.036334 1_555
Mg13 Mg4 3.050088 1_556
Mg13 Mg2 3.050094 1_556
Mg13 Mg7 3.110242 1_665
Mg13 Mg7 3.110242 1_555
Mg13 Mg9 3.110242 1_655
Mg13 Mg9 3.110242 1_555
Cu0 Mg6 2.996832 1_555
Cu0 Mg7 2.996832 1_554
Cu0 Mg9 2.996838 1_554
Cu0 Mg8 2.996838 1_555
Cu0 Mg11 2.996838 1_454
Cu0 Mg10 2.996838 1_455
Cu0 Mg4 3.108824 1_445
Cu0 Mg4 3.108824 1_555
Cu0 Mg0 3.108824 1_545
Cu0 Mg0 3.108824 1_555
Cu0 Mg2 3.108824 1_555
Cu0 Mg2 3.108824 1_455
