# generated using pymatgen
data_Ba2LiEu(CuO2)4
_symmetry_space_group_name_H-M   'P 1'
_cell_length_a   4.04877169
_cell_length_b   4.00363273
_cell_length_c   13.82325967
_cell_angle_alpha   98.32657272
_cell_angle_beta   90.29155960
_cell_angle_gamma   87.98625647
_symmetry_Int_Tables_number   1
_chemical_formula_structural   Ba2LiEu(CuO2)4
_chemical_formula_sum   'Ba2 Li1 Eu1 Cu4 O8'
_cell_volume   221.57327634
_cell_formula_units_Z   1
loop_
 _symmetry_equiv_pos_site_id
 _symmetry_equiv_pos_as_xyz
  1  'x, y, z'
loop_
 _atom_site_type_symbol
 _atom_site_label
 _atom_site_symmetry_multiplicity
 _atom_site_fract_x
 _atom_site_fract_y
 _atom_site_fract_z
 _atom_site_occupancy
  Ba  Ba0  1  0.48696000  0.35068800  0.72419600  1
  Ba  Ba1  1  0.48696000  0.62649300  0.27580400  1
  Li  Li0  1  0.16831100  0.16565400  0.00000000  1
  Eu  Eu0  1  0.57645600  0.57156100  0.00000000  1
  Cu  Cu0  1  0.98475000  0.05489700  0.14238000  1
  Cu  Cu1  1  0.98475000  0.91251600  0.85762000  1
  Cu  Cu2  1  0.99635500  0.20976400  0.42803300  1
  Cu  Cu3  1  0.99635500  0.78173100  0.57196700  1
  O  O0  1  0.99424400  0.14227400  0.29363500  1
  O  O1  1  0.99424400  0.84863800  0.70636500  1
  O  O2  1  0.01303400  0.43059800  0.88923100  1
  O  O3  1  0.01303400  0.54136600  0.11076900  1
  O  O4  1  0.99790400  0.27868900  0.56539400  1
  O  O5  1  0.99790400  0.71329500  0.43460600  1
  O  O6  1  0.48770300  0.06692700  0.11201600  1
  O  O7  1  0.48770300  0.95490900  0.88798400  1
loop_
_geom_bond_atom_site_label_1
_geom_bond_atom_site_label_2
_geom_bond_distance
_geom_bond_site_symmetry_2
Ba0 O1 2.805825 1_455
Ba0 O1 2.809072 1_545
Ba0 O1 2.865983 1_445
Ba0 O4 2.938560 1_455
Ba0 O7 2.945430 1_545
Ba0 O1 2.947690 1_555
Ba0 O2 2.962881 1_555
Ba0 O4 3.000394 1_555
Ba0 O7 3.064664 1_555
Ba0 O2 3.103310 1_655
Ba1 O0 2.805825 1_465
Ba1 O0 2.809072 1_555
Ba1 O0 2.865983 1_455
Ba1 O5 2.938560 1_455
Ba1 O6 2.945427 1_555
Ba1 O0 2.947690 1_565
Ba1 O3 2.962881 1_555
Ba1 O5 3.000394 1_555
Ba1 O6 3.064667 1_565
Ba1 O3 3.103310 1_655
Li0 O3 2.068498 1_555
Li0 O2 2.068501 1_554
Li0 O6 2.084958 1_555
Li0 O7 2.084960 1_544
Eu0 O2 2.344062 1_654
Eu0 O3 2.344062 1_655
Eu0 O7 2.350787 1_554
Eu0 O6 2.350792 1_565
Eu0 O6 2.751618 1_555
Eu0 O7 2.751625 1_544
Cu0 O3 2.038359 1_645
Cu0 O6 2.053975 1_555
Cu0 O3 2.063987 1_655
Cu0 O0 2.069719 1_555
Cu0 O6 2.084857 1_655
Cu0 Li0 2.216625 1_655
Cu1 O2 2.038351 1_655
Cu1 O7 2.053975 1_555
Cu1 O2 2.063995 1_665
Cu1 O1 2.069719 1_555
Cu1 O7 2.084856 1_655
Cu1 Li0 2.216627 1_666
Cu2 O0 1.838255 1_555
Cu2 O4 1.878772 1_555
Cu2 O5 2.002646 1_545
Cu2 O5 2.005042 1_555
Cu3 O1 1.838255 1_555
Cu3 O5 1.878772 1_555
Cu3 O4 2.002646 1_555
Cu3 O4 2.005042 1_565
