# generated using pymatgen
data_LiYb8Ge13
_symmetry_space_group_name_H-M   'P 1'
_cell_length_a   11.07736812
_cell_length_b   11.56213635
_cell_length_c   15.88665343
_cell_angle_alpha   106.37849323
_cell_angle_beta   90.00000000
_cell_angle_gamma   90.00000000
_symmetry_Int_Tables_number   1
_chemical_formula_structural   LiYb8Ge13
_chemical_formula_sum   'Li4 Yb32 Ge52'
_cell_volume   1952.16181358
_cell_formula_units_Z   4
loop_
 _symmetry_equiv_pos_site_id
 _symmetry_equiv_pos_as_xyz
  1  'x, y, z'
loop_
 _atom_site_type_symbol
 _atom_site_label
 _atom_site_symmetry_multiplicity
 _atom_site_fract_x
 _atom_site_fract_y
 _atom_site_fract_z
 _atom_site_occupancy
  Li  Li0  1  0.08091445  0.11903108  0.62960387  1
  Li  Li1  1  0.58091445  0.88096892  0.87039613  1
  Li  Li2  1  0.91908555  0.88096892  0.37039613  1
  Li  Li3  1  0.41908555  0.11903108  0.12960387  1
  Yb  Yb0  1  0.85397918  0.38045182  0.19764475  1
  Yb  Yb1  1  0.35397918  0.61954818  0.30235525  1
  Yb  Yb2  1  0.14602082  0.61954818  0.80235525  1
  Yb  Yb3  1  0.64602082  0.38045182  0.69764475  1
  Yb  Yb4  1  0.98262029  0.37074282  0.56776532  1
  Yb  Yb5  1  0.48262029  0.62925718  0.93223468  1
  Yb  Yb6  1  0.01737971  0.62925718  0.43223468  1
  Yb  Yb7  1  0.51737971  0.37074282  0.06776532  1
  Yb  Yb8  1  0.81046654  0.11756282  0.31822247  1
  Yb  Yb9  1  0.31046654  0.88243718  0.18177753  1
  Yb  Yb10  1  0.18953346  0.88243718  0.68177753  1
  Yb  Yb11  1  0.68953346  0.11756282  0.81822247  1
  Yb  Yb12  1  0.22909758  0.40362833  0.92984763  1
  Yb  Yb13  1  0.72909758  0.59637167  0.57015237  1
  Yb  Yb14  1  0.77090242  0.59637167  0.07015237  1
  Yb  Yb15  1  0.27090242  0.40362833  0.42984763  1
  Yb  Yb16  1  0.93735846  0.35705823  0.82659770  1
  Yb  Yb17  1  0.43735846  0.64294177  0.67340230  1
  Yb  Yb18  1  0.06264154  0.64294177  0.17340230  1
  Yb  Yb19  1  0.56264154  0.35705823  0.32659770  1
  Yb  Yb20  1  0.01245425  0.14490683  0.95784398  1
  Yb  Yb21  1  0.51245425  0.85509317  0.54215602  1
  Yb  Yb22  1  0.98754575  0.85509317  0.04215602  1
  Yb  Yb23  1  0.48754575  0.14490683  0.45784398  1
  Yb  Yb24  1  0.10953207  0.16522686  0.19682652  1
  Yb  Yb25  1  0.60953207  0.83477314  0.30317348  1
  Yb  Yb26  1  0.89046793  0.83477314  0.80317348  1
  Yb  Yb27  1  0.39046793  0.16522686  0.69682652  1
  Yb  Yb28  1  0.14371222  0.09570276  0.40001075  1
  Yb  Yb29  1  0.64371222  0.90429724  0.09998925  1
  Yb  Yb30  1  0.85628778  0.90429724  0.59998925  1
  Yb  Yb31  1  0.35628778  0.09570276  0.90001075  1
  Ge  Ge0  1  0.81561642  0.42477061  0.39589433  1
  Ge  Ge1  1  0.31561642  0.57522939  0.10410567  1
  Ge  Ge2  1  0.18438358  0.57522939  0.60410567  1
  Ge  Ge3  1  0.68438358  0.42477061  0.89589433  1
  Ge  Ge4  1  0.15933523  0.16635744  0.79710220  1
  Ge  Ge5  1  0.65933523  0.83364256  0.70289780  1
  Ge  Ge6  1  0.84066477  0.83364256  0.20289780  1
  Ge  Ge7  1  0.34066477  0.16635744  0.29710220  1
  Ge  Ge8  1  0.95663927  0.06668900  0.76077889  1
  Ge  Ge9  1  0.45663927  0.93331100  0.73922111  1
  Ge  Ge10  1  0.04336073  0.93331100  0.23922111  1
  Ge  Ge11  1  0.54336073  0.06668900  0.26077889  1
  Ge  Ge12  1  0.25036089  0.25631627  0.06072194  1
  Ge  Ge13  1  0.75036089  0.74368373  0.43927806  1
  Ge  Ge14  1  0.74963911  0.74368373  0.93927806  1
  Ge  Ge15  1  0.24963911  0.25631627  0.56072194  1
  Ge  Ge16  1  0.91967304  0.09631832  0.49903050  1
  Ge  Ge17  1  0.41967304  0.90368168  0.00096950  1
  Ge  Ge18  1  0.08032696  0.90368168  0.50096950  1
  Ge  Ge19  1  0.58032696  0.09631832  0.99903050  1
  Ge  Ge20  1  0.21284704  0.01050794  0.03846542  1
  Ge  Ge21  1  0.71284704  0.98949206  0.46153458  1
  Ge  Ge22  1  0.78715296  0.98949206  0.96153458  1
  Ge  Ge23  1  0.28715296  0.01050794  0.53846542  1
  Ge  Ge24  1  0.01812726  0.32744202  0.36275736  1
  Ge  Ge25  1  0.51812726  0.67255798  0.13724264  1
  Ge  Ge26  1  0.98187274  0.67255798  0.63724264  1
  Ge  Ge27  1  0.48187274  0.32744202  0.86275736  1
  Ge  Ge28  1  0.84659568  0.18830599  0.66211080  1
  Ge  Ge29  1  0.34659568  0.81169401  0.83788920  1
  Ge  Ge30  1  0.15340432  0.81169401  0.33788920  1
  Ge  Ge31  1  0.65340432  0.18830599  0.16211080  1
  Ge  Ge32  1  0.99215501  0.41395178  0.03671359  1
  Ge  Ge33  1  0.49215501  0.58604822  0.46328641  1
  Ge  Ge34  1  0.00784499  0.58604822  0.96328641  1
  Ge  Ge35  1  0.50784499  0.41395178  0.53671359  1
  Ge  Ge36  1  0.12266132  0.44913584  0.27100124  1
  Ge  Ge37  1  0.62266132  0.55086416  0.22899876  1
  Ge  Ge38  1  0.87733868  0.55086416  0.72899876  1
  Ge  Ge39  1  0.37733868  0.44913584  0.77100124  1
  Ge  Ge40  1  0.78305419  0.30669504  0.99298253  1
  Ge  Ge41  1  0.28305419  0.69330496  0.50701747  1
  Ge  Ge42  1  0.21694581  0.69330496  0.00701747  1
  Ge  Ge43  1  0.71694581  0.30669504  0.49298253  1
  Ge  Ge44  1  0.86359137  0.09605049  0.11874205  1
  Ge  Ge45  1  0.36359137  0.90394951  0.38125795  1
  Ge  Ge46  1  0.13640863  0.90394951  0.88125795  1
  Ge  Ge47  1  0.63640863  0.09605049  0.61874205  1
  Ge  Ge48  1  0.32736947  0.34460561  0.21970423  1
  Ge  Ge49  1  0.82736947  0.65539439  0.28029577  1
  Ge  Ge50  1  0.67263053  0.65539439  0.78029577  1
  Ge  Ge51  1  0.17263053  0.34460561  0.71970423  1
loop_
_geom_bond_atom_site_label_1
_geom_bond_atom_site_label_2
_geom_bond_distance
_geom_bond_site_symmetry_2
Li0 Yb10 3.300998 1_545
Li1 Yb11 3.300998 1_565
Li2 Yb8 3.300998 1_565
Li3 Yb9 3.300998 1_545
Ge0 Ge24 2.498346 1_655
Ge0 Ge43 2.573910 1_555
Ge0 Yb19 3.031779 1_555
Ge0 Yb13 3.069420 1_555
Ge0 Yb0 3.074490 1_555
Ge0 Yb6 3.185700 1_655
Ge0 Yb8 3.416227 1_555
Ge0 Yb4 3.497126 1_555
Ge1 Ge25 2.498346 1_555
Ge1 Ge42 2.573910 1_555
Ge1 Yb18 3.031779 1_555
Ge1 Yb12 3.069420 1_554
Ge1 Yb1 3.074490 1_555
Ge1 Yb7 3.185700 1_555
Ge1 Yb9 3.416227 1_555
Ge1 Yb5 3.497126 1_554
Ge2 Ge26 2.498346 1_455
Ge2 Ge41 2.573910 1_555
Ge2 Yb17 3.031779 1_555
Ge2 Yb15 3.069420 1_555
Ge2 Yb2 3.074490 1_555
Ge2 Yb4 3.185700 1_455
Ge2 Yb10 3.416227 1_555
Ge2 Yb6 3.497126 1_555
Ge3 Ge40 2.573910 1_555
Ge3 Yb16 3.031779 1_555
Ge3 Yb14 3.069420 1_556
Ge3 Yb3 3.074490 1_555
Ge3 Yb5 3.185700 1_555
Ge3 Yb11 3.416227 1_555
Ge3 Yb7 3.497126 1_556
Ge4 Ge8 2.515450 1_455
Ge4 Ge51 2.685175 1_555
Ge4 Li0 2.704392 1_555
Ge4 Yb31 2.975442 1_555
Ge4 Yb27 3.013564 1_555
Ge4 Yb12 3.050873 1_555
Ge4 Yb20 3.096308 1_555
Ge4 Yb16 3.247275 1_455
Ge4 Yb10 3.294387 1_545
Ge5 Ge9 2.515450 1_555
Ge5 Ge50 2.685175 1_555
Ge5 Li1 2.704392 1_555
Ge5 Yb30 2.975442 1_555
Ge5 Yb26 3.013564 1_555
Ge5 Yb13 3.050873 1_555
Ge5 Yb21 3.096308 1_555
Ge5 Yb17 3.247275 1_555
Ge5 Yb11 3.294387 1_565
Ge6 Li2 2.704392 1_555
Ge6 Yb29 2.975442 1_555
Ge6 Yb25 3.013564 1_555
Ge6 Yb14 3.050873 1_555
Ge6 Yb22 3.096308 1_555
Ge6 Yb18 3.247275 1_655
Ge6 Yb8 3.294387 1_565
Ge7 Li3 2.704392 1_555
Ge7 Yb28 2.975442 1_555
Ge7 Yb24 3.013564 1_555
Ge7 Yb15 3.050873 1_555
Ge7 Yb23 3.096308 1_555
Ge7 Yb19 3.247275 1_555
Ge7 Yb9 3.294387 1_545
Ge8 Li0 2.704703 1_655
Ge8 Yb30 2.929376 1_545
Ge8 Yb26 3.033075 1_545
Ge8 Yb20 3.066711 1_655
Ge8 Yb11 3.103344 1_555
Ge8 Yb16 3.229639 1_555
Ge8 Yb10 3.355791 1_645
Ge9 Li1 2.704703 1_555
Ge9 Yb31 2.929376 1_565
Ge9 Yb27 3.033075 1_565
Ge9 Yb21 3.066711 1_555
Ge9 Yb10 3.103344 1_555
Ge9 Yb17 3.229639 1_555
Ge9 Yb11 3.355791 1_565
Ge10 Ge6 2.515450 1_455
Ge10 Ge30 2.676442 1_555
Ge10 Li2 2.704703 1_455
Ge10 Yb28 2.929376 1_565
Ge10 Yb24 3.033075 1_565
Ge10 Yb22 3.066711 1_455
Ge10 Yb9 3.103344 1_555
Ge10 Yb18 3.229639 1_555
Ge10 Yb8 3.355791 1_465
Ge11 Ge7 2.515450 1_555
Ge11 Ge31 2.676442 1_555
Ge11 Li3 2.704703 1_555
Ge11 Yb29 2.929376 1_545
Ge11 Yb25 3.033075 1_545
Ge11 Yb23 3.066711 1_555
Ge11 Yb8 3.103344 1_555
Ge11 Yb19 3.229639 1_555
Ge11 Yb9 3.355791 1_545
Ge12 Ge48 2.587442 1_555
Ge12 Ge20 2.794340 1_555
Ge12 Li3 2.861802 1_555
Ge12 Yb31 2.944511 1_554
Ge12 Yb12 3.045745 1_554
Ge12 Yb24 3.082603 1_555
Ge12 Yb20 3.176226 1_554
Ge12 Yb7 3.229299 1_555
Ge13 Ge49 2.587442 1_555
Ge13 Ge21 2.794340 1_555
Ge13 Li2 2.861802 1_555
Ge13 Yb30 2.944511 1_555
Ge13 Yb13 3.045745 1_555
Ge13 Yb25 3.082603 1_555
Ge13 Yb21 3.176226 1_555
Ge13 Yb6 3.229299 1_655
Ge14 Ge50 2.587442 1_555
Ge14 Ge22 2.794340 1_555
Ge14 Li1 2.861802 1_555
Ge14 Yb29 2.944511 1_556
Ge14 Yb14 3.045745 1_556
Ge14 Yb26 3.082603 1_555
Ge14 Yb22 3.176226 1_556
Ge14 Yb5 3.229299 1_555
Ge15 Ge51 2.587442 1_555
Ge15 Ge23 2.794340 1_555
Ge15 Li0 2.861802 1_555
Ge15 Yb28 2.944511 1_555
Ge15 Yb15 3.045745 1_555
Ge15 Yb27 3.082603 1_555
Ge15 Yb23 3.176226 1_555
Ge15 Yb4 3.229299 1_455
Ge16 Ge21 2.591246 1_545
Ge16 Ge28 2.635286 1_555
Ge16 Li0 2.693517 1_655
Ge16 Li2 2.739747 1_545
Ge16 Ge18 2.857888 1_645
Ge16 Yb28 2.937263 1_655
Ge16 Yb4 3.129238 1_555
Ge16 Yb30 3.162735 1_545
Ge16 Yb8 3.189443 1_555
Ge17 Ge20 2.591246 1_565
Ge17 Ge29 2.635286 1_554
Ge17 Li1 2.693517 1_554
Ge17 Li3 2.739747 1_565
Ge17 Ge19 2.857888 1_564
Ge17 Yb29 2.937263 1_555
Ge17 Yb5 3.129238 1_554
Ge17 Yb31 3.162735 1_564
Ge17 Yb9 3.189443 1_555
Ge18 Ge23 2.591246 1_565
Ge18 Ge30 2.635286 1_555
Ge18 Li2 2.693517 1_455
Ge18 Li0 2.739747 1_565
Ge18 Yb30 2.937263 1_455
Ge18 Yb6 3.129238 1_555
Ge18 Yb28 3.162735 1_565
Ge18 Yb10 3.189443 1_555
Ge19 Ge22 2.591246 1_545
Ge19 Ge31 2.635286 1_556
Ge19 Li3 2.693517 1_556
Ge19 Li1 2.739747 1_545
Ge19 Yb31 2.937263 1_555
Ge19 Yb7 3.129238 1_556
Ge19 Yb29 3.162735 1_546
Ge19 Yb11 3.189443 1_555
Ge20 Ge46 2.595587 1_544
Ge20 Li3 2.804553 1_555
Ge20 Yb24 2.881171 1_555
Ge20 Yb22 3.085538 1_445
Ge20 Yb31 3.091135 1_554
Ge20 Yb20 3.178877 1_554
Ge20 Yb9 3.232173 1_545
Ge21 Ge47 2.595587 1_565
Ge21 Li2 2.804553 1_555
Ge21 Yb25 2.881171 1_555
Ge21 Yb23 3.085538 1_565
Ge21 Yb30 3.091135 1_555
Ge21 Yb21 3.178877 1_555
Ge21 Yb8 3.232173 1_565
Ge22 Ge44 2.595587 1_566
Ge22 Li1 2.804553 1_555
Ge22 Yb26 2.881171 1_555
Ge22 Yb20 3.085538 1_665
Ge22 Yb29 3.091135 1_556
Ge22 Yb22 3.178877 1_556
Ge22 Yb11 3.232173 1_565
Ge23 Ge45 2.595587 1_545
Ge23 Li0 2.804553 1_555
Ge23 Yb27 2.881171 1_555
Ge23 Yb21 3.085538 1_545
Ge23 Yb28 3.091135 1_555
Ge23 Yb23 3.178877 1_555
Ge23 Yb10 3.232173 1_545
Ge24 Ge36 2.569481 1_555
Ge24 Yb24 2.950179 1_555
Ge24 Yb15 3.036929 1_555
Ge24 Yb4 3.176966 1_455
Ge24 Yb28 3.218550 1_555
Ge24 Yb8 3.272994 1_455
Ge24 Yb6 3.350170 1_555
Ge24 Yb0 3.386627 1_455
Ge25 Ge37 2.569481 1_555
Ge25 Yb25 2.950179 1_555
Ge25 Yb14 3.036929 1_555
Ge25 Yb5 3.176966 1_554
Ge25 Yb29 3.218550 1_555
Ge25 Yb9 3.272994 1_555
Ge25 Yb7 3.350170 1_555
Ge25 Yb1 3.386627 1_555
Ge26 Ge38 2.569481 1_555
Ge26 Yb26 2.950179 1_555
Ge26 Yb13 3.036929 1_555
Ge26 Yb6 3.176966 1_655
Ge26 Yb30 3.218550 1_555
Ge26 Yb10 3.272994 1_655
Ge26 Yb4 3.350170 1_555
Ge26 Yb2 3.386627 1_655
Ge27 Ge3 2.498346 1_555
Ge27 Ge39 2.569481 1_555
Ge27 Yb27 2.950179 1_555
Ge27 Yb12 3.036929 1_555
Ge27 Yb7 3.176966 1_556
Ge27 Yb31 3.218550 1_555
Ge27 Yb11 3.272994 1_555
Ge27 Yb5 3.350170 1_555
Ge27 Yb3 3.386627 1_555
Ge28 Ge47 2.572759 1_555
Ge28 Ge8 2.676442 1_555
Ge28 Li0 2.722552 1_655
Ge28 Yb16 2.961570 1_555
Ge28 Yb3 3.079537 1_555
Ge28 Yb30 3.152911 1_545
Ge28 Yb4 3.278619 1_555
Ge28 Yb11 3.315261 1_555
Ge29 Ge46 2.572759 1_555
Ge29 Ge9 2.676442 1_555
Ge29 Li1 2.722552 1_555
Ge29 Yb17 2.961570 1_555
Ge29 Yb2 3.079537 1_555
Ge29 Yb31 3.152911 1_565
Ge29 Yb5 3.278619 1_555
Ge29 Yb10 3.315261 1_555
Ge30 Ge45 2.572759 1_555
Ge30 Li2 2.722552 1_455
Ge30 Yb18 2.961570 1_555
Ge30 Yb1 3.079537 1_555
Ge30 Yb28 3.152911 1_565
Ge30 Yb6 3.278619 1_555
Ge30 Yb9 3.315261 1_555
Ge31 Ge44 2.572759 1_555
Ge31 Li3 2.722552 1_555
Ge31 Yb19 2.961570 1_555
Ge31 Yb0 3.079537 1_555
Ge31 Yb29 3.152911 1_545
Ge31 Yb7 3.278619 1_555
Ge31 Yb8 3.315261 1_555
Ge32 Ge34 2.580562 1_654
Ge32 Ge40 2.626757 1_554
Ge32 Yb18 3.015396 1_655
Ge32 Yb20 3.016461 1_654
Ge32 Yb0 3.096419 1_555
Ge32 Yb12 3.109878 1_654
Ge32 Yb14 3.178958 1_555
Ge32 Yb16 3.271898 1_554
Ge33 Ge35 2.580562 1_555
Ge33 Ge41 2.626757 1_555
Ge33 Yb19 3.015396 1_555
Ge33 Yb21 3.016461 1_555
Ge33 Yb1 3.096419 1_555
Ge33 Yb13 3.109878 1_555
Ge33 Yb15 3.178958 1_555
Ge33 Yb17 3.271898 1_555
Ge34 Ge42 2.626757 1_556
Ge34 Yb16 3.015396 1_455
Ge34 Yb22 3.016461 1_456
Ge34 Yb2 3.096419 1_555
Ge34 Yb14 3.109878 1_456
Ge34 Yb12 3.178958 1_555
Ge34 Yb18 3.271898 1_556
Ge35 Ge43 2.626757 1_555
Ge35 Yb17 3.015396 1_555
Ge35 Yb23 3.016461 1_555
Ge35 Yb3 3.096419 1_555
Ge35 Yb15 3.109878 1_555
Ge35 Yb13 3.178958 1_555
Ge35 Yb19 3.271898 1_555
Ge36 Ge48 2.590655 1_555
Ge36 Yb6 3.041370 1_555
Ge36 Yb18 3.134778 1_555
Ge36 Yb24 3.162858 1_555
Ge36 Yb15 3.176551 1_555
Ge36 Yb1 3.184757 1_555
Ge36 Yb0 3.213278 1_455
Ge37 Ge49 2.590655 1_555
Ge37 Yb7 3.041370 1_555
Ge37 Yb19 3.134778 1_555
Ge37 Yb25 3.162858 1_555
Ge37 Yb14 3.176551 1_555
Ge37 Yb0 3.184757 1_555
Ge37 Yb1 3.213278 1_555
Ge38 Ge50 2.590655 1_555
Ge38 Yb4 3.041370 1_555
Ge38 Yb16 3.134778 1_555
Ge38 Yb26 3.162858 1_555
Ge38 Yb13 3.176551 1_555
Ge38 Yb3 3.184757 1_555
Ge38 Yb2 3.213278 1_655
Ge39 Ge51 2.590655 1_555
Ge39 Yb5 3.041370 1_555
Ge39 Yb17 3.134778 1_555
Ge39 Yb27 3.162858 1_555
Ge39 Yb12 3.176551 1_555
Ge39 Yb2 3.184757 1_555
Ge39 Yb3 3.213278 1_555
Ge40 Yb20 3.111167 1_655
Ge40 Yb7 3.181945 1_556
Ge40 Yb11 3.184238 1_555
Ge40 Yb0 3.217510 1_556
Ge40 Yb14 3.228484 1_556
Ge40 Yb16 3.334039 1_555
Ge41 Yb21 3.111167 1_555
Ge41 Yb6 3.181945 1_555
Ge41 Yb10 3.184238 1_555
Ge41 Yb1 3.217510 1_555
Ge41 Yb15 3.228484 1_555
Ge41 Yb17 3.334039 1_555
Ge42 Yb22 3.111167 1_455
Ge42 Yb5 3.181945 1_554
Ge42 Yb9 3.184238 1_555
Ge42 Yb2 3.217510 1_554
Ge42 Yb12 3.228484 1_554
Ge42 Yb18 3.334039 1_555
Ge43 Yb23 3.111167 1_555
Ge43 Yb4 3.181945 1_555
Ge43 Yb8 3.184238 1_555
Ge43 Yb3 3.217510 1_555
Ge43 Yb13 3.228484 1_555
Ge43 Yb19 3.334039 1_555
Ge44 Yb24 3.006864 1_655
Ge44 Yb22 3.035746 1_545
Ge44 Yb8 3.163335 1_555
Ge44 Yb0 3.173460 1_555
Ge44 Yb20 3.222802 1_654
Ge44 Yb29 3.250267 1_545
Ge45 Yb25 3.006864 1_555
Ge45 Yb23 3.035746 1_565
Ge45 Yb9 3.163335 1_555
Ge45 Yb1 3.173460 1_555
Ge45 Yb21 3.222802 1_555
Ge45 Yb28 3.250267 1_565
Ge46 Yb26 3.006864 1_455
Ge46 Yb20 3.035746 1_565
Ge46 Yb10 3.163335 1_555
Ge46 Yb2 3.173460 1_555
Ge46 Yb22 3.222802 1_456
Ge46 Yb31 3.250267 1_565
Ge47 Yb27 3.006864 1_555
Ge47 Yb21 3.035746 1_545
Ge47 Yb11 3.163335 1_555
Ge47 Yb3 3.173460 1_555
Ge47 Yb23 3.222802 1_555
Ge47 Yb30 3.250267 1_545
Ge48 Ge7 2.685175 1_555
Ge48 Li3 2.788903 1_555
Ge48 Yb19 3.091748 1_555
Ge48 Yb1 3.092331 1_555
Ge48 Yb24 3.135498 1_555
Ge48 Yb15 3.273763 1_555
Ge48 Yb7 3.280150 1_555
Ge49 Ge6 2.685175 1_555
Ge49 Li2 2.788903 1_555
Ge49 Yb18 3.091748 1_655
Ge49 Yb0 3.092331 1_555
Ge49 Yb25 3.135498 1_555
Ge49 Yb14 3.273763 1_555
Ge49 Yb6 3.280150 1_655
Ge50 Li1 2.788903 1_555
Ge50 Yb17 3.091748 1_555
Ge50 Yb3 3.092331 1_555
Ge50 Yb26 3.135498 1_555
Ge50 Yb13 3.273763 1_555
Ge50 Yb5 3.280150 1_555
Ge51 Li0 2.788903 1_555
Ge51 Yb16 3.091748 1_455
Ge51 Yb2 3.092331 1_555
Ge51 Yb27 3.135498 1_555
Ge51 Yb12 3.273763 1_555
Ge51 Yb4 3.280150 1_455
