# generated using pymatgen
data_U2(AlSn)3
_symmetry_space_group_name_H-M   'P 1'
_cell_length_a   4.43185533
_cell_length_b   4.47587495
_cell_length_c   8.96537752
_cell_angle_alpha   90.00000000
_cell_angle_beta   90.00000000
_cell_angle_gamma   90.00000000
_symmetry_Int_Tables_number   1
_chemical_formula_structural   U2(AlSn)3
_chemical_formula_sum   'U2 Al3 Sn3'
_cell_volume   177.84108587
_cell_formula_units_Z   1
loop_
 _symmetry_equiv_pos_site_id
 _symmetry_equiv_pos_as_xyz
  1  'x, y, z'
loop_
 _atom_site_type_symbol
 _atom_site_label
 _atom_site_symmetry_multiplicity
 _atom_site_fract_x
 _atom_site_fract_y
 _atom_site_fract_z
 _atom_site_occupancy
  U  U0  1  -0.00000000  -0.00000000  0.75263758  1
  U  U1  1  0.00000000  -0.00000000  0.24736242  1
  Al  Al0  1  0.50000000  0.50000000  0.76549821  1
  Al  Al1  1  0.50000000  0.50000000  0.23450179  1
  Al  Al2  1  0.50000000  0.00000000  -0.00000000  1
  Sn  Sn0  1  0.50000000  -0.00000000  0.50000000  1
  Sn  Sn1  1  -0.00000000  0.50000000  0.00000000  1
  Sn  Sn2  1  -0.00000000  0.50000000  0.50000000  1
loop_
_geom_bond_atom_site_label_1
_geom_bond_atom_site_label_2
_geom_bond_distance
_geom_bond_site_symmetry_2
Al0 Sn1 3.054572 1_656
Al0 Sn1 3.054572 1_556
Al0 Al2 3.070576 1_556
Al0 Al2 3.070576 1_566
Al0 U0 3.151507 1_655
Al0 U0 3.151507 1_565
Al0 U0 3.151507 1_665
Al0 U0 3.151507 1_555
Al0 Sn2 3.252095 1_555
Al0 Sn2 3.252095 1_655
Al0 Sn0 3.267132 1_555
Al0 Sn0 3.267132 1_565
Al1 Sn1 3.054572 1_655
Al1 Sn1 3.054572 1_555
Al1 Al2 3.070576 1_565
Al1 Al2 3.070576 1_555
Al1 U1 3.151507 1_555
Al1 U1 3.151507 1_565
Al1 U1 3.151507 1_655
Al1 U1 3.151507 1_665
Al1 Sn2 3.252095 1_555
Al1 Sn2 3.252095 1_655
Al1 Sn0 3.267132 1_555
Al1 Sn0 3.267132 1_565
Al2 U1 3.135047 1_555
Al2 U0 3.135047 1_654
Al2 U0 3.135047 1_554
Al2 U1 3.135047 1_655
Al2 Sn1 3.149397 1_555
Al2 Sn1 3.149397 1_545
Al2 Sn1 3.149397 1_655
Al2 Sn1 3.149397 1_645
Sn0 Sn2 3.149397 1_645
Sn0 Sn2 3.149397 1_555
Sn0 Sn2 3.149397 1_655
Sn0 Sn2 3.149397 1_545
Sn0 U0 3.168678 1_555
Sn0 U1 3.168678 1_555
Sn0 U0 3.168678 1_655
Sn0 U1 3.168678 1_655
Sn1 U0 3.150642 1_564
Sn1 U1 3.150642 1_555
Sn1 U0 3.150642 1_554
Sn1 U1 3.150642 1_565
Sn2 U0 3.184109 1_565
Sn2 U0 3.184109 1_555
Sn2 U1 3.184109 1_565
Sn2 U1 3.184109 1_555
