# generated using pymatgen
data_BiH14C4S8N5O
_symmetry_space_group_name_H-M   'P 1'
_cell_length_a   13.85859300
_cell_length_b   8.53839300
_cell_length_c   17.06414943
_cell_angle_alpha   84.19508186
_cell_angle_beta   90.00000000
_cell_angle_gamma   90.00000000
_symmetry_Int_Tables_number   1
_chemical_formula_structural   BiH14C4S8N5O
_chemical_formula_sum   'Bi4 H56 C16 S32 N20 O4'
_cell_volume   2008.84832904
_cell_formula_units_Z   4
loop_
 _symmetry_equiv_pos_site_id
 _symmetry_equiv_pos_as_xyz
  1  'x, y, z'
loop_
 _atom_site_type_symbol
 _atom_site_label
 _atom_site_symmetry_multiplicity
 _atom_site_fract_x
 _atom_site_fract_y
 _atom_site_fract_z
 _atom_site_occupancy
  Bi  Bi0  1  0.74165000  0.68478900  0.35315200  1
  Bi  Bi1  1  0.24165000  0.31521100  0.14684800  1
  Bi  Bi2  1  0.25835000  0.31521100  0.64684800  1
  Bi  Bi3  1  0.75835000  0.68478900  0.85315200  1
  H  H0  1  0.45365800  0.04540300  0.42441500  1
  H  H1  1  0.95365800  0.95459700  0.07558500  1
  H  H2  1  0.54634200  0.95459700  0.57558500  1
  H  H3  1  0.04634200  0.04540300  0.92441500  1
  H  H4  1  0.43600500  0.03656200  0.32265200  1
  H  H5  1  0.93600500  0.96343800  0.17734800  1
  H  H6  1  0.56399500  0.96343800  0.67734800  1
  H  H7  1  0.06399500  0.03656200  0.82265200  1
  H  H8  1  0.96153700  0.14702000  0.44151500  1
  H  H9  1  0.46153700  0.85298000  0.05848500  1
  H  H10  1  0.03846300  0.85298000  0.55848500  1
  H  H11  1  0.53846300  0.14702000  0.94151500  1
  H  H12  1  0.90631600  0.23909000  0.35643600  1
  H  H13  1  0.40631600  0.76091000  0.14356400  1
  H  H14  1  0.09368400  0.76091000  0.64356400  1
  H  H15  1  0.59368400  0.23909000  0.85643600  1
  H  H16  1  0.96071400  0.44144800  0.14720300  1
  H  H17  1  0.46071400  0.55855200  0.35279700  1
  H  H18  1  0.03928600  0.55855200  0.85279700  1
  H  H19  1  0.53928600  0.44144800  0.64720300  1
  H  H20  1  0.85774100  0.49356200  0.08885000  1
  H  H21  1  0.35774100  0.50643800  0.41115000  1
  H  H22  1  0.14225900  0.50643800  0.91115000  1
  H  H23  1  0.64225900  0.49356200  0.58885000  1
  H  H24  1  0.72589400  0.13645900  0.52668400  1
  H  H25  1  0.22589400  0.86354100  0.97331600  1
  H  H26  1  0.27410600  0.86354100  0.47331600  1
  H  H27  1  0.77410600  0.13645900  0.02668400  1
  H  H28  1  0.64767800  0.10848800  0.44993300  1
  H  H29  1  0.14767800  0.89151200  0.05006700  1
  H  H30  1  0.35232200  0.89151200  0.55006700  1
  H  H31  1  0.85232200  0.10848800  0.94993300  1
  H  H32  1  0.65152800  0.32881200  0.14247700  1
  H  H33  1  0.15152800  0.67118800  0.35752300  1
  H  H34  1  0.34847200  0.67118800  0.85752300  1
  H  H35  1  0.84847200  0.32881200  0.64247700  1
  H  H36  1  0.63953400  0.13069300  0.15280300  1
  H  H37  1  0.13953400  0.86930700  0.34719700  1
  H  H38  1  0.36046600  0.86930700  0.84719700  1
  H  H39  1  0.86046600  0.13069300  0.65280300  1
  H  H40  1  0.66229400  0.23141700  0.23307900  1
  H  H41  1  0.16229400  0.76858300  0.26692100  1
  H  H42  1  0.33770600  0.76858300  0.76692100  1
  H  H43  1  0.83770600  0.23141700  0.73307900  1
  H  H44  1  0.55370800  0.25140400  0.18955400  1
  H  H45  1  0.05370800  0.74859600  0.31044600  1
  H  H46  1  0.44629200  0.74859600  0.81044600  1
  H  H47  1  0.94629200  0.25140400  0.68955400  1
  H  H48  1  0.72331500  0.90318800  0.12603500  1
  H  H49  1  0.22331500  0.09681200  0.37396500  1
  H  H50  1  0.27668500  0.09681200  0.87396500  1
  H  H51  1  0.77668500  0.90318800  0.62603500  1
  H  H52  1  0.65638100  0.94738600  0.05351500  1
  H  H53  1  0.15638100  0.05261400  0.44648500  1
  H  H54  1  0.34361900  0.05261400  0.94648500  1
  H  H55  1  0.84361900  0.94738600  0.55351500  1
  C  C0  1  0.54026800  0.88828900  0.37188800  1
  C  C1  1  0.04026800  0.11171100  0.12811200  1
  C  C2  1  0.45973200  0.11171100  0.62811200  1
  C  C3  1  0.95973200  0.88828900  0.87188800  1
  C  C4  1  0.88073000  0.00163200  0.37870900  1
  C  C5  1  0.38073000  0.99836800  0.12129100  1
  C  C6  1  0.11927000  0.99836800  0.62129100  1
  C  C7  1  0.61927000  0.00163200  0.87870900  1
  C  C8  1  0.85263700  0.55184800  0.20204800  1
  C  C9  1  0.35263700  0.44815200  0.29795200  1
  C  C10  1  0.14736300  0.44815200  0.79795200  1
  C  C11  1  0.64736300  0.55184800  0.70204800  1
  C  C12  1  0.70366000  0.33134500  0.44620900  1
  C  C13  1  0.20366000  0.66865500  0.05379100  1
  C  C14  1  0.29634000  0.66865500  0.55379100  1
  C  C15  1  0.79634000  0.33134500  0.94620900  1
  S  S0  1  0.59905400  0.81882700  0.45701300  1
  S  S1  1  0.09905400  0.18117300  0.04298700  1
  S  S2  1  0.40094600  0.18117300  0.54298700  1
  S  S3  1  0.90094600  0.81882700  0.95701300  1
  S  S4  1  0.56745500  0.81815100  0.28391400  1
  S  S5  1  0.06745500  0.18184900  0.21608600  1
  S  S6  1  0.43254500  0.18184900  0.71608600  1
  S  S7  1  0.93254500  0.81815100  0.78391400  1
  S  S8  1  0.90120400  0.83679500  0.44365800  1
  S  S9  1  0.40120400  0.16320500  0.05634200  1
  S  S10  1  0.09879600  0.16320500  0.55634200  1
  S  S11  1  0.59879600  0.83679500  0.94365800  1
  S  S12  1  0.81213500  0.99324300  0.29539600  1
  S  S13  1  0.31213500  0.00675700  0.20460400  1
  S  S14  1  0.18786500  0.00675700  0.70460400  1
  S  S15  1  0.68786500  0.99324300  0.79539600  1
  S  S16  1  0.91056400  0.54362300  0.29148800  1
  S  S17  1  0.41056400  0.45637700  0.20851200  1
  S  S18  1  0.08943600  0.45637700  0.70851200  1
  S  S19  1  0.58943600  0.54362300  0.79148800  1
  S  S20  1  0.73926800  0.63386200  0.18958200  1
  S  S21  1  0.23926800  0.36613800  0.31041800  1
  S  S22  1  0.26073200  0.36613800  0.81041800  1
  S  S23  1  0.76073200  0.63386200  0.68958200  1
  S  S24  1  0.64714900  0.39230800  0.35855700  1
  S  S25  1  0.14714900  0.60769200  0.14144300  1
  S  S26  1  0.35285100  0.60769200  0.64144300  1
  S  S27  1  0.85285100  0.39230800  0.85855700  1
  S  S28  1  0.77731900  0.45446700  0.49272300  1
  S  S29  1  0.27731900  0.54553300  0.00727700  1
  S  S30  1  0.22268100  0.54553300  0.50727700  1
  S  S31  1  0.72268100  0.45446700  0.99272300  1
  N  N0  1  0.47230900  0.99939300  0.37335100  1
  N  N1  1  0.97230900  0.00060700  0.12664900  1
  N  N2  1  0.52769100  0.00060700  0.62664900  1
  N  N3  1  0.02769100  0.99939300  0.87335100  1
  N  N4  1  0.91858400  0.13944200  0.39358800  1
  N  N5  1  0.41858400  0.86055800  0.10641200  1
  N  N6  1  0.08141600  0.86055800  0.60641200  1
  N  N7  1  0.58141600  0.13944200  0.89358800  1
  N  N8  1  0.89401600  0.49171700  0.14132200  1
  N  N9  1  0.39401600  0.50828300  0.35867800  1
  N  N10  1  0.10598400  0.50828300  0.85867800  1
  N  N11  1  0.60598400  0.49171700  0.64132200  1
  N  N12  1  0.68821300  0.18453700  0.47853600  1
  N  N13  1  0.18821300  0.81546300  0.02146400  1
  N  N14  1  0.31178700  0.81546300  0.52146400  1
  N  N15  1  0.81178700  0.18453700  0.97853600  1
  N  N16  1  0.62629500  0.23473100  0.17974400  1
  N  N17  1  0.12629500  0.76526900  0.32025600  1
  N  N18  1  0.37370500  0.76526900  0.82025600  1
  N  N19  1  0.87370500  0.23473100  0.67974400  1
  O  O0  1  0.69280500  0.99423300  0.09557500  1
  O  O1  1  0.19280500  0.00576700  0.40442500  1
  O  O2  1  0.30719500  0.00576700  0.90442500  1
  O  O3  1  0.80719500  0.99423300  0.59557500  1
loop_
_geom_bond_atom_site_label_1
_geom_bond_atom_site_label_2
_geom_bond_distance
_geom_bond_site_symmetry_2
Bi0 S24 2.813129 1_555
Bi0 S20 2.868168 1_555
Bi0 S4 2.871980 1_555
Bi0 S16 2.880357 1_555
Bi0 S12 2.887357 1_555
Bi0 S0 2.960818 1_555
Bi0 S28 2.972651 1_555
Bi0 S8 3.060156 1_555
Bi1 S25 2.813129 1_555
Bi1 S21 2.868168 1_555
Bi1 S5 2.871980 1_555
Bi1 S17 2.880357 1_555
Bi1 S13 2.887357 1_555
Bi1 S1 2.960818 1_555
Bi1 S29 2.972651 1_555
Bi1 S9 3.060156 1_555
Bi2 S26 2.813129 1_555
Bi2 S22 2.868168 1_555
Bi2 S6 2.871980 1_555
Bi2 S18 2.880357 1_555
Bi2 S14 2.887357 1_555
Bi2 S2 2.960818 1_555
Bi2 S30 2.972651 1_555
Bi2 S10 3.060156 1_555
Bi3 S27 2.813129 1_555
Bi3 S23 2.868168 1_555
Bi3 S7 2.871980 1_555
Bi3 S19 2.880357 1_555
Bi3 S15 2.887357 1_555
Bi3 S3 2.960818 1_555
Bi3 S31 2.972651 1_555
Bi3 S11 3.060156 1_555
H0 N0 1.024530 1_545
H1 N1 1.024530 1_565
H2 N2 1.024530 1_565
H3 N3 1.024530 1_545
H4 N0 1.023118 1_545
H5 N1 1.023118 1_565
H6 N2 1.023118 1_565
H7 N3 1.023118 1_545
H8 N4 1.018865 1_555
H9 N5 1.018865 1_555
H10 N6 1.018865 1_555
H11 N7 1.018865 1_555
H12 N4 1.022559 1_555
H13 N5 1.022559 1_555
H14 N6 1.022559 1_555
H15 N7 1.022559 1_555
H16 N8 1.019799 1_555
H17 N9 1.019799 1_555
H18 N10 1.019799 1_555
H19 N11 1.019799 1_555
H20 N8 1.025595 1_555
H21 N9 1.025595 1_555
H22 N10 1.025595 1_555
H23 N11 1.025595 1_555
H24 N12 1.023731 1_555
H25 N13 1.023731 1_556
H26 N14 1.023731 1_555
H27 N15 1.023731 1_554
H28 N12 1.019582 1_555
H29 N13 1.019582 1_555
H30 N14 1.019582 1_555
H31 N15 1.019582 1_555
H32 N16 1.033755 1_555
H33 N17 1.033755 1_555
H34 N18 1.033755 1_555
H35 N19 1.033755 1_555
H36 N16 1.056753 1_555
H37 N17 1.056753 1_555
H38 N18 1.056753 1_555
H39 N19 1.056753 1_555
H40 N16 1.035761 1_555
H41 N17 1.035761 1_555
H42 N18 1.035761 1_555
H43 N19 1.035761 1_555
H44 N16 1.032014 1_555
H45 N17 1.032014 1_555
H46 N18 1.032014 1_555
H47 N19 1.032014 1_555
H48 O0 0.985661 1_555
H49 O1 0.985661 1_555
H50 O2 0.985661 1_555
H51 O3 0.985661 1_555
H52 O0 0.993981 1_555
H53 O1 0.993981 1_555
H54 O2 0.993981 1_555
H55 O3 0.993981 1_555
C0 N0 1.338793 1_555
C0 S4 1.713494 1_555
C0 S0 1.717910 1_555
C1 N1 1.338793 1_455
C1 S5 1.713494 1_555
C1 S1 1.717910 1_555
C2 N2 1.338793 1_555
C2 S6 1.713494 1_555
C2 S2 1.717910 1_555
C3 N3 1.338793 1_655
C3 S7 1.713494 1_555
C3 S3 1.717910 1_555
C4 N4 1.335916 1_555
C4 S12 1.717719 1_545
C4 S8 1.724586 1_545
C5 N5 1.335916 1_555
C5 S13 1.717719 1_565
C5 S9 1.724586 1_565
C6 N6 1.335916 1_555
C6 S14 1.717719 1_565
C6 S10 1.724586 1_565
C7 N7 1.335916 1_555
C7 S15 1.717719 1_545
C7 S11 1.724586 1_545
C8 N8 1.331864 1_555
C8 S16 1.719610 1_555
C8 S20 1.724517 1_555
C9 N9 1.331864 1_555
C9 S17 1.719610 1_555
C9 S21 1.724517 1_555
C10 N10 1.331864 1_555
C10 S18 1.719610 1_555
C10 S22 1.724517 1_555
C11 N11 1.331864 1_555
C11 S19 1.719610 1_555
C11 S23 1.724517 1_555
C12 N12 1.334738 1_555
C12 S28 1.716389 1_555
C12 S24 1.721610 1_555
C13 N13 1.334738 1_555
C13 S29 1.716389 1_555
C13 S25 1.721610 1_555
C14 N14 1.334738 1_555
C14 S30 1.716389 1_555
C14 S26 1.721610 1_555
C15 N15 1.334738 1_555
C15 S31 1.716389 1_555
C15 S27 1.721610 1_555
