# generated using pymatgen
data_Gd(CO3)2
_symmetry_space_group_name_H-M   'P 1'
_cell_length_a   8.50597077
_cell_length_b   8.50597077
_cell_length_c   4.87390600
_cell_angle_alpha   90.00000000
_cell_angle_beta   90.00000000
_cell_angle_gamma   125.27341453
_symmetry_Int_Tables_number   1
_chemical_formula_structural   Gd(CO3)2
_chemical_formula_sum   'Gd2 C4 O12'
_cell_volume   287.89287159
_cell_formula_units_Z   2
loop_
 _symmetry_equiv_pos_site_id
 _symmetry_equiv_pos_as_xyz
  1  'x, y, z'
loop_
 _atom_site_type_symbol
 _atom_site_label
 _atom_site_symmetry_multiplicity
 _atom_site_fract_x
 _atom_site_fract_y
 _atom_site_fract_z
 _atom_site_occupancy
  Gd  Gd0  1  0.21133600  0.79610100  0.50000000  1
  Gd  Gd1  1  0.79610100  0.21133600  0.50000000  1
  C  C0  1  0.10969000  0.10969000  0.50000000  1
  C  C1  1  0.89759200  0.89759200  0.50000000  1
  C  C2  1  0.58460800  0.03237600  0.00000000  1
  C  C3  1  0.03237600  0.58460800  0.00000000  1
  O  O0  1  0.10008400  0.25119200  0.50000000  1
  O  O1  1  0.25119200  0.10008400  0.50000000  1
  O  O2  1  0.75641200  0.90733400  0.50000000  1
  O  O3  1  0.90733400  0.75641200  0.50000000  1
  O  O4  1  0.49848100  0.99208500  0.76594000  1
  O  O5  1  0.99208500  0.49848100  0.23406000  1
  O  O6  1  0.49848100  0.99208500  0.23406000  1
  O  O7  1  0.99208500  0.49848100  0.76594000  1
  O  O8  1  0.77111700  0.12976600  0.00000000  1
  O  O9  1  0.12976600  0.77111700  0.00000000  1
  O  O10  1  0.63826300  0.37569600  0.50000000  1
  O  O11  1  0.37569600  0.63826300  0.50000000  1
loop_
_geom_bond_atom_site_label_1
_geom_bond_atom_site_label_2
_geom_bond_distance
_geom_bond_site_symmetry_2
Gd0 O4 2.392075 1_555
Gd0 O6 2.392075 1_555
Gd0 O1 2.405870 1_565
Gd0 O3 2.406713 1_455
Gd0 O11 2.434094 1_555
Gd0 O5 2.472653 1_455
Gd0 O7 2.472653 1_455
Gd0 O9 2.508985 1_555
Gd0 O9 2.508985 1_556
Gd1 O7 2.392075 1_555
Gd1 O5 2.392075 1_555
Gd1 O0 2.405870 1_655
Gd1 O2 2.406713 1_545
Gd1 O10 2.434094 1_555
Gd1 O6 2.472653 1_545
Gd1 O4 2.472653 1_545
Gd1 O8 2.508985 1_556
Gd1 O8 2.508985 1_555
C0 O1 1.252574 1_555
C0 O0 1.252574 1_555
C1 O3 1.250557 1_555
C1 O2 1.250557 1_555
C2 O4 1.290568 1_544
C2 O6 1.290568 1_545
C2 O8 1.298147 1_555
C3 O7 1.290568 1_454
C3 O5 1.290568 1_455
C3 O9 1.298147 1_555
