# generated using pymatgen
data_Ce2(TlSn)3
_symmetry_space_group_name_H-M   'P 1'
_cell_length_a   4.72415128
_cell_length_b   4.76939908
_cell_length_c   9.71074801
_cell_angle_alpha   90.00000000
_cell_angle_beta   90.00000000
_cell_angle_gamma   90.00000000
_symmetry_Int_Tables_number   1
_chemical_formula_structural   Ce2(TlSn)3
_chemical_formula_sum   'Ce2 Tl3 Sn3'
_cell_volume   218.79638617
_cell_formula_units_Z   1
loop_
 _symmetry_equiv_pos_site_id
 _symmetry_equiv_pos_as_xyz
  1  'x, y, z'
loop_
 _atom_site_type_symbol
 _atom_site_label
 _atom_site_symmetry_multiplicity
 _atom_site_fract_x
 _atom_site_fract_y
 _atom_site_fract_z
 _atom_site_occupancy
  Ce  Ce0  1  -0.00000000  -0.00000000  0.75713611  1
  Ce  Ce1  1  -0.00000000  -0.00000000  0.24286389  1
  Tl  Tl0  1  0.50000000  -0.00000000  0.50000000  1
  Tl  Tl1  1  -0.00000000  0.50000000  -0.00000000  1
  Tl  Tl2  1  -0.00000000  0.50000000  0.50000000  1
  Sn  Sn0  1  0.50000000  0.50000000  0.75174804  1
  Sn  Sn1  1  0.50000000  0.50000000  0.24825196  1
  Sn  Sn2  1  0.50000000  -0.00000000  -0.00000000  1
loop_
_geom_bond_atom_site_label_1
_geom_bond_atom_site_label_2
_geom_bond_distance
_geom_bond_site_symmetry_2
Ce0 Sn2 3.337874 1_456
Ce0 Sn2 3.337874 1_556
Ce0 Tl1 3.353922 1_556
Ce0 Tl1 3.353922 1_546
Ce0 Sn0 3.356923 1_445
Ce0 Sn0 3.356923 1_555
Ce0 Sn0 3.356923 1_545
Ce0 Sn0 3.356923 1_455
Ce0 Tl0 3.437198 1_455
Ce0 Tl0 3.437198 1_555
Ce0 Tl2 3.452785 1_545
Ce0 Tl2 3.452785 1_555
Ce1 Sn2 3.337874 1_455
Ce1 Sn2 3.337874 1_555
Ce1 Tl1 3.353922 1_555
Ce1 Tl1 3.353922 1_545
Ce1 Sn1 3.356923 1_455
Ce1 Sn1 3.356923 1_445
Ce1 Sn1 3.356923 1_555
Ce1 Sn1 3.356923 1_545
Ce1 Tl0 3.437198 1_455
Ce1 Tl0 3.437198 1_555
Ce1 Tl2 3.452785 1_545
Ce1 Tl2 3.452785 1_555
Tl0 Tl2 3.356515 1_655
Tl0 Tl2 3.356515 1_645
Tl0 Tl2 3.356515 1_545
Tl0 Tl2 3.356515 1_555
Sn0 Tl1 3.375046 1_556
Sn0 Tl1 3.375046 1_656
Sn0 Sn2 3.390918 1_566
Sn0 Sn2 3.390918 1_556
Sn0 Tl2 3.399378 1_655
Sn0 Tl2 3.399378 1_555
Sn0 Tl0 3.415137 1_565
Sn0 Tl0 3.415137 1_555
Sn1 Tl1 3.375046 1_555
Sn1 Tl1 3.375046 1_655
Sn1 Sn2 3.390918 1_565
Sn1 Sn2 3.390918 1_555
Sn1 Tl2 3.399378 1_555
Sn1 Tl2 3.399378 1_655
Sn1 Tl0 3.415137 1_565
Sn1 Tl0 3.415137 1_555
Sn2 Tl1 3.356515 1_645
Sn2 Tl1 3.356515 1_555
Sn2 Tl1 3.356515 1_545
Sn2 Tl1 3.356515 1_655
