# generated using pymatgen
data_Na2SeO9
_symmetry_space_group_name_H-M   'P 1'
_cell_length_a   7.88003900
_cell_length_b   7.88003900
_cell_length_c   12.03877700
_cell_angle_alpha   90.00000000
_cell_angle_beta   90.00000000
_cell_angle_gamma   90.00000000
_symmetry_Int_Tables_number   1
_chemical_formula_structural   Na2SeO9
_chemical_formula_sum   'Na8 Se4 O36'
_cell_volume   747.54803408
_cell_formula_units_Z   4
loop_
 _symmetry_equiv_pos_site_id
 _symmetry_equiv_pos_as_xyz
  1  'x, y, z'
loop_
 _atom_site_type_symbol
 _atom_site_label
 _atom_site_symmetry_multiplicity
 _atom_site_fract_x
 _atom_site_fract_y
 _atom_site_fract_z
 _atom_site_occupancy
  Na  Na0  1  0.50000000  0.68494900  0.00000000  1
  Na  Na1  1  0.50000000  0.31505100  0.50000000  1
  Na  Na2  1  0.31505100  0.50000000  0.25000000  1
  Na  Na3  1  0.68494900  0.50000000  0.75000000  1
  Na  Na4  1  0.00000000  0.24828900  0.00000000  1
  Na  Na5  1  0.00000000  0.75171100  0.50000000  1
  Na  Na6  1  0.75171100  0.00000000  0.25000000  1
  Na  Na7  1  0.24828900  0.00000000  0.75000000  1
  Se  Se0  1  0.50000000  0.30702100  0.00000000  1
  Se  Se1  1  0.50000000  0.69297900  0.50000000  1
  Se  Se2  1  0.69297900  0.50000000  0.25000000  1
  Se  Se3  1  0.30702100  0.50000000  0.75000000  1
  O  O0  1  0.14262300  0.21572500  0.26238900  1
  O  O1  1  0.85737700  0.78427500  0.76238900  1
  O  O2  1  0.78427500  0.14262300  0.51238900  1
  O  O3  1  0.85737700  0.21572500  0.73761100  1
  O  O4  1  0.21572500  0.85737700  0.01238900  1
  O  O5  1  0.14262300  0.78427500  0.23761100  1
  O  O6  1  0.21572500  0.14262300  0.48761100  1
  O  O7  1  0.78427500  0.85737700  0.98761100  1
  O  O8  1  0.98902200  0.56504900  0.05140800  1
  O  O9  1  0.01097800  0.43495100  0.55140800  1
  O  O10  1  0.43495100  0.98902200  0.30140800  1
  O  O11  1  0.01097800  0.56504900  0.94859200  1
  O  O12  1  0.56504900  0.01097800  0.80140800  1
  O  O13  1  0.98902200  0.43495100  0.44859200  1
  O  O14  1  0.56504900  0.98902200  0.69859200  1
  O  O15  1  0.43495100  0.01097800  0.19859200  1
  O  O16  1  0.00939200  0.18815600  0.20611900  1
  O  O17  1  0.99060800  0.81184400  0.70611900  1
  O  O18  1  0.81184400  0.00939200  0.45611900  1
  O  O19  1  0.99060800  0.18815600  0.79388100  1
  O  O20  1  0.18815600  0.99060800  0.95611900  1
  O  O21  1  0.00939200  0.81184400  0.29388100  1
  O  O22  1  0.18815600  0.00939200  0.54388100  1
  O  O23  1  0.81184400  0.99060800  0.04388100  1
  O  O24  1  0.56747000  0.35414800  0.31552900  1
  O  O25  1  0.43253000  0.64585200  0.81552900  1
  O  O26  1  0.64585200  0.56747000  0.56552900  1
  O  O27  1  0.43253000  0.35414800  0.68447100  1
  O  O28  1  0.35414800  0.43253000  0.06552900  1
  O  O29  1  0.56747000  0.64585200  0.18447100  1
  O  O30  1  0.35414800  0.56747000  0.43447100  1
  O  O31  1  0.64585200  0.43253000  0.93447100  1
  O  O32  1  0.67883500  0.67883500  0.37500000  1
  O  O33  1  0.32116500  0.32116500  0.87500000  1
  O  O34  1  0.32116500  0.67883500  0.62500000  1
  O  O35  1  0.67883500  0.32116500  0.12500000  1
loop_
_geom_bond_atom_site_label_1
_geom_bond_atom_site_label_2
_geom_bond_distance
_geom_bond_site_symmetry_2
Na0 O29 2.304249 1_555
Na0 O25 2.304249 1_554
Na0 O31 2.428927 1_554
Na0 O28 2.428927 1_555
Na0 O7 2.624206 1_554
Na0 O4 2.624206 1_555
Na1 O24 2.304249 1_555
Na1 O27 2.304249 1_555
Na1 O26 2.428927 1_555
Na1 O30 2.428927 1_555
Na1 O6 2.624206 1_555
Na1 O2 2.624206 1_555
Na2 O28 2.304249 1_555
Na2 O30 2.304249 1_555
Na2 O24 2.428927 1_555
Na2 O29 2.428927 1_555
Na2 O0 2.624206 1_555
Na2 O5 2.624206 1_555
Na3 O31 2.304249 1_555
Na3 O26 2.304249 1_555
Na3 O27 2.428927 1_555
Na3 O25 2.428927 1_555
Na3 O3 2.624206 1_555
Na3 O1 2.624206 1_555
Na4 O16 2.527343 1_555
Na4 O19 2.527343 1_454
Na4 O23 2.569140 1_445
Na4 O20 2.569140 1_544
Na4 O8 2.573117 1_455
Na4 O11 2.573117 1_554
Na5 O21 2.527343 1_555
Na5 O17 2.527343 1_455
Na5 O18 2.569140 1_465
Na5 O22 2.569140 1_565
Na5 O9 2.573117 1_555
Na5 O13 2.573117 1_455
Na6 O23 2.527343 1_545
Na6 O18 2.527343 1_555
Na6 O21 2.569140 1_645
Na6 O16 2.569140 1_655
Na6 O15 2.573117 1_555
Na6 O10 2.573117 1_545
Na7 O20 2.527343 1_545
Na7 O22 2.527343 1_555
Na7 O19 2.569140 1_455
Na7 O17 2.569140 1_445
Na7 O12 2.573117 1_555
Na7 O14 2.573117 1_545
O0 O16 1.268193 1_555
O1 O17 1.268193 1_555
O10 O15 1.249812 1_565
O11 O8 1.249812 1_456
O12 O14 1.249812 1_545
O13 O9 1.249812 1_655
O18 O2 1.268193 1_555
O19 O3 1.268193 1_555
O20 O4 1.268193 1_556
O21 O5 1.268193 1_555
O22 O6 1.268193 1_555
O23 O7 1.268193 1_554
O24 Se2 1.709220 1_555
O25 Se3 1.709220 1_555
O26 Se1 1.709220 1_555
O27 Se3 1.709220 1_555
O28 Se0 1.709220 1_555
O29 Se2 1.709220 1_555
O30 Se1 1.709220 1_555
O31 Se0 1.709220 1_556
O32 Se2 2.064681 1_555
O32 Se1 2.064681 1_555
O33 Se3 2.064681 1_555
O33 Se0 2.064681 1_556
O34 Se3 2.064681 1_555
O34 Se1 2.064681 1_555
O35 Se0 2.064681 1_555
O35 Se2 2.064681 1_555
