# generated using pymatgen
data_SmTi4SnO12
_symmetry_space_group_name_H-M   'P 1'
_cell_length_a   5.35528908
_cell_length_b   5.35528908
_cell_length_c   7.78921869
_cell_angle_alpha   90.00000000
_cell_angle_beta   90.00000000
_cell_angle_gamma   89.89867493
_symmetry_Int_Tables_number   1
_chemical_formula_structural   SmTi4SnO12
_chemical_formula_sum   'Sm1 Ti4 Sn1 O12'
_cell_volume   223.38759661
_cell_formula_units_Z   1
loop_
 _symmetry_equiv_pos_site_id
 _symmetry_equiv_pos_as_xyz
  1  'x, y, z'
loop_
 _atom_site_type_symbol
 _atom_site_label
 _atom_site_symmetry_multiplicity
 _atom_site_fract_x
 _atom_site_fract_y
 _atom_site_fract_z
 _atom_site_occupancy
  Sm  Sm0  1  0.52340327  0.47659673  0.50000000  1
  Ti  Ti0  1  0.50127480  0.99792397  0.25340807  1
  Ti  Ti1  1  0.50127480  0.99792397  0.74659193  1
  Ti  Ti2  1  0.00207603  0.49872520  0.74659193  1
  Ti  Ti3  1  0.00207603  0.49872520  0.25340807  1
  Sn  Sn0  1  0.97913041  0.02086959  -0.00000000  1
  O  O0  1  0.29945042  0.30365724  0.26354983  1
  O  O1  1  0.69634276  0.70054958  0.26354983  1
  O  O2  1  0.69634276  0.70054958  0.73645017  1
  O  O3  1  0.29945042  0.30365724  0.73645017  1
  O  O4  1  0.17306222  0.82693778  0.18080877  1
  O  O5  1  0.77990311  0.22009689  0.29404657  1
  O  O6  1  0.77990311  0.22009689  0.70595343  1
  O  O7  1  0.17306222  0.82693778  0.81919123  1
  O  O8  1  0.60266723  0.00699180  -0.00000000  1
  O  O9  1  0.45146234  0.94999013  0.50000000  1
  O  O10  1  0.99300820  0.39733277  0.00000000  1
  O  O11  1  0.05000987  0.54853766  0.50000000  1
loop_
_geom_bond_atom_site_label_1
_geom_bond_atom_site_label_2
_geom_bond_distance
_geom_bond_site_symmetry_2
O0 Ti3 1.904673 1_555
O0 Ti0 1.961859 1_545
O0 Sm0 2.385823 1_555
O1 Ti0 1.904673 1_555
O1 Ti3 1.961859 1_655
O1 Sm0 2.385823 1_555
O2 Ti1 1.904673 1_555
O2 Ti2 1.961859 1_655
O2 Sm0 2.385823 1_555
O3 Ti2 1.904673 1_555
O3 Ti1 1.961859 1_545
O3 Sm0 2.385823 1_555
O4 Sn0 2.033932 1_465
O4 Ti3 2.062367 1_555
O4 Ti0 2.062367 1_555
O5 Ti3 1.936122 1_655
O5 Ti0 1.936122 1_545
O5 Sm0 2.518047 1_555
O6 Ti2 1.936122 1_655
O6 Ti1 1.936122 1_545
O6 Sm0 2.518047 1_555
O7 Sn0 2.033932 1_466
O7 Ti2 2.062367 1_555
O7 Ti1 2.062367 1_555
O8 Sn0 2.017570 1_555
O8 Ti1 2.047773 1_544
O8 Ti0 2.047773 1_545
O9 Ti0 1.956173 1_555
O9 Ti1 1.956173 1_555
O9 Sm0 2.563592 1_555
O9 Sm0 2.847000 1_565
O10 Sn0 2.017570 1_555
O10 Ti3 2.047773 1_655
O10 Ti2 2.047773 1_654
O11 Ti2 1.956173 1_555
O11 Ti3 1.956173 1_555
O11 Sm0 2.563592 1_555
O11 Sm0 2.847000 1_455
