# generated using pymatgen
data_Al3(MoS2)8
_symmetry_space_group_name_H-M   'P 1'
_cell_length_a   7.04262700
_cell_length_b   7.04262700
_cell_length_c   9.94816400
_cell_angle_alpha   90.00000000
_cell_angle_beta   90.00000000
_cell_angle_gamma   90.00000000
_symmetry_Int_Tables_number   1
_chemical_formula_structural   Al3(MoS2)8
_chemical_formula_sum   'Al3 Mo8 S16'
_cell_volume   493.41495784
_cell_formula_units_Z   1
loop_
 _symmetry_equiv_pos_site_id
 _symmetry_equiv_pos_as_xyz
  1  'x, y, z'
loop_
 _atom_site_type_symbol
 _atom_site_label
 _atom_site_symmetry_multiplicity
 _atom_site_fract_x
 _atom_site_fract_y
 _atom_site_fract_z
 _atom_site_occupancy
  Al  Al0  1  0.50000000  0.50000000  0.00000000  1
  Al  Al1  1  0.50000000  0.00000000  0.74690900  1
  Al  Al2  1  0.00000000  0.50000000  0.25309100  1
  Mo  Mo0  1  0.50000000  0.79988900  0.35686200  1
  Mo  Mo1  1  0.00000000  0.29015000  0.84816200  1
  Mo  Mo2  1  0.29015000  0.00000000  0.15183800  1
  Mo  Mo3  1  0.79988900  0.50000000  0.64313800  1
  Mo  Mo4  1  0.70985000  0.00000000  0.15183800  1
  Mo  Mo5  1  0.20011100  0.50000000  0.64313800  1
  Mo  Mo6  1  0.50000000  0.20011100  0.35686200  1
  Mo  Mo7  1  0.00000000  0.70985000  0.84816200  1
  S  S0  1  0.50000000  0.25042800  0.12766600  1
  S  S1  1  0.00000000  0.76596300  0.61470400  1
  S  S2  1  0.76596300  0.00000000  0.38529600  1
  S  S3  1  0.25042800  0.50000000  0.87233400  1
  S  S4  1  0.23403700  0.00000000  0.38529600  1
  S  S5  1  0.74957200  0.50000000  0.87233400  1
  S  S6  1  0.50000000  0.74957200  0.12766600  1
  S  S7  1  0.00000000  0.23403700  0.61470400  1
  S  S8  1  0.50000000  0.26938800  0.61511900  1
  S  S9  1  0.00000000  0.76837700  0.11620700  1
  S  S10  1  0.26938800  0.50000000  0.38488100  1
  S  S11  1  0.76837700  0.00000000  0.88379300  1
  S  S12  1  0.73061200  0.50000000  0.38488100  1
  S  S13  1  0.23162300  0.00000000  0.88379300  1
  S  S14  1  0.50000000  0.73061200  0.61511900  1
  S  S15  1  0.00000000  0.23162300  0.11620700  1
loop_
_geom_bond_atom_site_label_1
_geom_bond_atom_site_label_2
_geom_bond_distance
_geom_bond_site_symmetry_2
Al0 S6 2.168482 1_555
Al0 S0 2.168482 1_555
Al0 S3 2.168482 1_554
Al0 S5 2.168482 1_554
Al1 S8 2.306136 1_555
Al1 S14 2.306136 1_545
Al1 S13 2.329538 1_555
Al1 S11 2.329538 1_555
Al2 S10 2.306136 1_555
Al2 S12 2.306136 1_455
Al2 S15 2.329538 1_555
Al2 S9 2.329538 1_555
Mo0 S6 2.307452 1_555
Mo0 S2 2.361055 1_565
Mo0 S4 2.361055 1_565
Mo0 S14 2.615098 1_555
Mo0 S12 2.678808 1_555
Mo0 S10 2.678808 1_555
Mo1 S5 2.313554 1_455
Mo1 S3 2.313554 1_555
Mo1 S7 2.355860 1_555
Mo1 S11 2.638584 1_455
Mo1 S13 2.638584 1_555
Mo1 S15 2.698224 1_556
Mo2 S0 2.313554 1_555
Mo2 S6 2.313554 1_545
Mo2 S4 2.355860 1_555
Mo2 S15 2.638584 1_555
Mo2 S9 2.638584 1_545
Mo2 S13 2.698224 1_554
Mo3 S5 2.307452 1_555
Mo3 S7 2.361055 1_655
Mo3 S1 2.361055 1_655
Mo3 S12 2.615098 1_555
Mo3 S14 2.678808 1_555
Mo3 S8 2.678808 1_555
Mo4 S0 2.313554 1_555
Mo4 S6 2.313554 1_545
Mo4 S2 2.355860 1_555
Mo4 S15 2.638584 1_655
Mo4 S9 2.638584 1_645
Mo4 S11 2.698224 1_554
Mo5 S3 2.307452 1_555
Mo5 S1 2.361055 1_555
Mo5 S7 2.361055 1_555
Mo5 S10 2.615098 1_555
Mo5 S14 2.678808 1_555
Mo5 S8 2.678808 1_555
Mo6 S0 2.307452 1_555
Mo6 S2 2.361055 1_555
Mo6 S4 2.361055 1_555
Mo6 S8 2.615098 1_555
Mo6 S12 2.678808 1_555
Mo6 S10 2.678808 1_555
Mo7 S3 2.313554 1_555
Mo7 S5 2.313554 1_455
Mo7 S1 2.355860 1_555
Mo7 S13 2.638584 1_565
Mo7 S11 2.638584 1_465
Mo7 S9 2.698224 1_556
