# generated using pymatgen
data_Ca4MgCo(AsO5)4
_symmetry_space_group_name_H-M   'P 1'
_cell_length_a   5.54309526
_cell_length_b   6.16386625
_cell_length_c   12.56496729
_cell_angle_alpha   87.36137338
_cell_angle_beta   92.35144783
_cell_angle_gamma   109.55824602
_symmetry_Int_Tables_number   1
_chemical_formula_structural   Ca4MgCo(AsO5)4
_chemical_formula_sum   'Ca4 Mg1 Co1 As4 O20'
_cell_volume   403.95712800
_cell_formula_units_Z   1
loop_
 _symmetry_equiv_pos_site_id
 _symmetry_equiv_pos_as_xyz
  1  'x, y, z'
loop_
 _atom_site_type_symbol
 _atom_site_label
 _atom_site_symmetry_multiplicity
 _atom_site_fract_x
 _atom_site_fract_y
 _atom_site_fract_z
 _atom_site_occupancy
  Ca  Ca0  1  0.24748400  0.43462500  0.62567400  1
  Ca  Ca1  1  0.75251600  0.56537500  0.37432600  1
  Ca  Ca2  1  0.76155100  0.43788000  0.87442000  1
  Ca  Ca3  1  0.23844900  0.56212000  0.12558000  1
  Mg  Mg0  1  0.50000000  0.00000000  0.50000000  1
  Co  Co0  1  0.00000000  0.00000000  0.00000000  1
  As  As0  1  0.93701000  0.78122400  0.61825400  1
  As  As1  1  0.06299000  0.21877600  0.38174600  1
  As  As2  1  0.44422700  0.79335200  0.87424200  1
  As  As3  1  0.55577300  0.20664800  0.12575800  1
  O  O0  1  0.64233300  0.72998300  0.55320200  1
  O  O1  1  0.35766700  0.27001700  0.44679800  1
  O  O2  1  0.15990400  0.72224800  0.94145100  1
  O  O3  1  0.84009600  0.27775200  0.05854900  1
  O  O4  1  0.93602400  0.56630800  0.70933100  1
  O  O5  1  0.06397600  0.43369200  0.29066900  1
  O  O6  1  0.44892500  0.58870800  0.78870700  1
  O  O7  1  0.55107500  0.41129200  0.21129300  1
  O  O8  1  0.46485000  0.15488300  0.64644100  1
  O  O9  1  0.53515000  0.84511700  0.35355900  1
  O  O10  1  0.98643500  0.14348900  0.88161900  1
  O  O11  1  0.01356500  0.85651100  0.11838100  1
  O  O12  1  0.04175300  0.04800100  0.67329500  1
  O  O13  1  0.95824700  0.95199900  0.32670500  1
  O  O14  1  0.52658100  0.06922500  0.82159900  1
  O  O15  1  0.47341900  0.93077500  0.17840100  1
  O  O16  1  0.14179900  0.75378900  0.52286300  1
  O  O17  1  0.85820100  0.24621100  0.47713700  1
  O  O18  1  0.66431400  0.76216900  0.97430700  1
  O  O19  1  0.33568600  0.23783100  0.02569300  1
loop_
_geom_bond_atom_site_label_1
_geom_bond_atom_site_label_2
_geom_bond_distance
_geom_bond_site_symmetry_2
Ca0 O12 2.332986 1_555
Ca0 O6 2.372046 1_555
Ca0 O8 2.411799 1_555
Ca0 O4 2.431062 1_455
Ca0 O0 2.505402 1_555
Ca0 O16 2.521451 1_555
Ca0 O1 2.681709 1_555
Ca0 O17 2.771200 1_455
Ca1 O13 2.332986 1_555
Ca1 O7 2.372046 1_555
Ca1 O9 2.411799 1_555
Ca1 O5 2.431062 1_655
Ca1 O1 2.505402 1_555
Ca1 O17 2.521451 1_555
Ca1 O0 2.681709 1_555
Ca1 O16 2.771200 1_655
Ca2 O4 2.316398 1_555
Ca2 O14 2.320945 1_555
Ca2 O6 2.420851 1_555
Ca2 O2 2.459558 1_655
Ca2 O10 2.518909 1_555
Ca2 O3 2.551701 1_556
Ca2 O18 2.620890 1_555
Ca2 O19 2.984843 1_556
Ca3 O5 2.316398 1_555
Ca3 O15 2.320945 1_555
Ca3 O7 2.420851 1_555
Ca3 O3 2.459558 1_455
Ca3 O11 2.518909 1_555
Ca3 O2 2.551701 1_554
Ca3 O19 2.620890 1_555
Ca3 O18 2.984843 1_554
Mg0 O17 2.077795 1_555
Mg0 O16 2.077795 1_545
Mg0 O0 2.138420 1_545
Mg0 O1 2.138420 1_555
Mg0 O8 2.156563 1_555
Mg0 O9 2.156563 1_545
Co0 O11 1.707231 1_545
Co0 O10 1.707231 1_454
Co0 O19 1.970677 1_555
Co0 O18 1.970677 1_444
Co0 O3 2.333098 1_455
Co0 O2 2.333098 1_544
As0 O4 1.708972 1_555
As0 O12 1.718113 1_665
As0 O0 1.733415 1_555
As0 O16 1.735695 1_655
As1 O5 1.708972 1_555
As1 O13 1.718113 1_445
As1 O1 1.733415 1_555
As1 O17 1.735695 1_455
As2 O6 1.701761 1_555
As2 O14 1.714328 1_565
As2 O2 1.732561 1_555
As2 O18 1.764928 1_555
As3 O7 1.701761 1_555
As3 O15 1.714328 1_545
As3 O3 1.732561 1_555
As3 O19 1.764928 1_555
