# generated using pymatgen
data_HfMg14Co
_symmetry_space_group_name_H-M   'P 1'
_cell_length_a   6.29518021
_cell_length_b   6.29517972
_cell_length_c   10.01763236
_cell_angle_alpha   90.00000000
_cell_angle_beta   90.00000000
_cell_angle_gamma   120.00000265
_symmetry_Int_Tables_number   1
_chemical_formula_structural   HfMg14Co
_chemical_formula_sum   'Hf1 Mg14 Co1'
_cell_volume   343.80485832
_cell_formula_units_Z   1
loop_
 _symmetry_equiv_pos_site_id
 _symmetry_equiv_pos_as_xyz
  1  'x, y, z'
loop_
 _atom_site_type_symbol
 _atom_site_label
 _atom_site_symmetry_multiplicity
 _atom_site_fract_x
 _atom_site_fract_y
 _atom_site_fract_z
 _atom_site_occupancy
  Hf  Hf0  1  0.16666700  0.33333300  0.62500000  1
  Mg  Mg0  1  0.16243315  0.83121607  0.12500000  1
  Mg  Mg1  1  0.17578844  0.83789372  0.62500000  1
  Mg  Mg2  1  0.66878393  0.33756685  0.12500000  1
  Mg  Mg3  1  0.66210628  0.32421156  0.62500000  1
  Mg  Mg4  1  0.66878393  0.83121607  0.12500000  1
  Mg  Mg5  1  0.66210628  0.83789372  0.62500000  1
  Mg  Mg6  1  0.32615716  0.17384284  0.36343332  1
  Mg  Mg7  1  0.32615716  0.17384284  0.88656668  1
  Mg  Mg8  1  0.32615716  0.65231532  0.36343332  1
  Mg  Mg9  1  0.32615716  0.65231532  0.88656668  1
  Mg  Mg10  1  0.84768468  0.17384284  0.36343332  1
  Mg  Mg11  1  0.84768468  0.17384284  0.88656668  1
  Mg  Mg12  1  0.83333300  0.66666700  0.38213832  1
  Mg  Mg13  1  0.83333300  0.66666700  0.86786168  1
  Co  Co0  1  0.16666700  0.33333300  0.12500000  1
loop_
_geom_bond_atom_site_label_1
_geom_bond_atom_site_label_2
_geom_bond_distance
_geom_bond_site_symmetry_2
Hf0 Mg6 3.144841 1_555
Hf0 Mg7 3.144841 1_555
Hf0 Mg8 3.144847 1_555
Hf0 Mg9 3.144847 1_555
Hf0 Mg10 3.144847 1_455
Hf0 Mg11 3.144847 1_455
Hf0 Mg5 3.147983 1_555
Hf0 Mg1 3.147983 1_555
Hf0 Mg5 3.147983 1_445
Hf0 Mg1 3.147983 1_545
Hf0 Mg3 3.147983 1_455
Hf0 Mg3 3.147983 1_555
Mg0 Mg9 3.032574 1_554
Mg0 Mg8 3.032574 1_555
Mg0 Mg7 3.032581 1_564
Mg0 Mg6 3.032581 1_565
Mg0 Mg2 3.107611 1_455
Mg0 Mg4 3.107611 1_455
Mg0 Mg13 3.139179 1_454
Mg0 Mg12 3.139179 1_455
Mg0 Mg2 3.187569 1_565
Mg0 Mg4 3.187569 1_555
Mg1 Mg3 3.061458 1_565
Mg1 Mg5 3.061458 1_555
Mg1 Mg13 3.066702 1_455
Mg1 Mg12 3.066702 1_455
Mg1 Mg8 3.198840 1_555
Mg1 Mg9 3.198840 1_555
Mg1 Mg6 3.198847 1_565
Mg1 Mg7 3.198847 1_565
Mg1 Mg3 3.233722 1_455
Mg1 Mg5 3.233722 1_455
Mg2 Mg7 3.032581 1_554
Mg2 Mg6 3.032581 1_555
Mg2 Mg4 3.107611 1_555
Mg2 Mg4 3.187569 1_545
Mg3 Mg5 3.061458 1_545
Mg3 Mg6 3.198847 1_555
Mg3 Mg7 3.198847 1_555
Mg3 Mg5 3.233722 1_555
Mg4 Mg9 3.032581 1_554
Mg4 Mg8 3.032581 1_555
Mg5 Mg8 3.198846 1_555
Mg5 Mg9 3.198846 1_555
Mg10 Mg2 3.032574 1_555
Mg10 Mg4 3.032581 1_545
Mg10 Mg12 3.154133 1_545
Mg10 Mg12 3.154133 1_555
Mg10 Mg3 3.198840 1_555
Mg10 Mg5 3.198846 1_545
Mg11 Mg2 3.032574 1_556
Mg11 Mg4 3.032581 1_546
Mg11 Mg13 3.154133 1_545
Mg11 Mg13 3.154133 1_555
Mg11 Mg3 3.198840 1_555
Mg11 Mg5 3.198846 1_545
Mg12 Mg5 3.066696 1_555
Mg12 Mg3 3.066702 1_555
Mg12 Mg4 3.139173 1_555
Mg12 Mg2 3.139179 1_555
Mg12 Mg6 3.154133 1_665
Mg12 Mg6 3.154133 1_555
Mg12 Mg8 3.154133 1_555
Mg12 Mg8 3.154133 1_655
Mg13 Mg5 3.066696 1_555
Mg13 Mg3 3.066702 1_555
Mg13 Mg4 3.139173 1_556
Mg13 Mg2 3.139179 1_556
Mg13 Mg7 3.154133 1_665
Mg13 Mg7 3.154133 1_555
Mg13 Mg9 3.154133 1_555
Mg13 Mg9 3.154133 1_655
Co0 Mg7 2.954535 1_554
Co0 Mg6 2.954535 1_555
Co0 Mg9 2.954541 1_554
Co0 Mg8 2.954541 1_555
Co0 Mg11 2.954541 1_454
Co0 Mg10 2.954541 1_455
Co0 Mg0 3.147674 1_555
Co0 Mg4 3.147674 1_445
Co0 Mg4 3.147674 1_555
Co0 Mg0 3.147675 1_545
Co0 Mg2 3.147675 1_455
Co0 Mg2 3.147675 1_555
