# generated using pymatgen
data_Mg2TaTiO6
_symmetry_space_group_name_H-M   'P 1'
_cell_length_a   7.63376400
_cell_length_b   5.21403400
_cell_length_c   5.40524451
_cell_angle_alpha   89.88703536
_cell_angle_beta   90.00000000
_cell_angle_gamma   90.00000000
_symmetry_Int_Tables_number   1
_chemical_formula_structural   Mg2TaTiO6
_chemical_formula_sum   'Mg4 Ta2 Ti2 O12'
_cell_volume   215.14293460
_cell_formula_units_Z   2
loop_
 _symmetry_equiv_pos_site_id
 _symmetry_equiv_pos_as_xyz
  1  'x, y, z'
loop_
 _atom_site_type_symbol
 _atom_site_label
 _atom_site_symmetry_multiplicity
 _atom_site_fract_x
 _atom_site_fract_y
 _atom_site_fract_z
 _atom_site_occupancy
  Mg  Mg0  1  0.25000000  0.99459200  0.95775500  1
  Mg  Mg1  1  0.25000000  0.51356300  0.43488800  1
  Mg  Mg2  1  0.75000000  0.48643700  0.56511200  1
  Mg  Mg3  1  0.75000000  0.00540800  0.04224500  1
  Ta  Ta0  1  0.00000000  0.00000000  0.50000000  1
  Ta  Ta1  1  0.50000000  0.00000000  0.50000000  1
  Ti  Ti0  1  0.00000000  0.50000000  0.00000000  1
  Ti  Ti1  1  0.50000000  0.50000000  0.00000000  1
  O  O0  1  0.56837000  0.17635900  0.81084700  1
  O  O1  1  0.43129300  0.68304400  0.68364300  1
  O  O2  1  0.43163000  0.82364100  0.18915300  1
  O  O3  1  0.93129300  0.31695600  0.31635700  1
  O  O4  1  0.75000000  0.86660600  0.43985600  1
  O  O5  1  0.56870700  0.31695600  0.31635700  1
  O  O6  1  0.06870700  0.68304400  0.68364300  1
  O  O7  1  0.93163000  0.17635900  0.81084700  1
  O  O8  1  0.25000000  0.37418600  0.06391400  1
  O  O9  1  0.06837000  0.82364100  0.18915300  1
  O  O10  1  0.75000000  0.62581400  0.93608600  1
  O  O11  1  0.25000000  0.13339400  0.56014400  1
loop_
_geom_bond_atom_site_label_1
_geom_bond_atom_site_label_2
_geom_bond_distance
_geom_bond_site_symmetry_2
Mg0 O8 2.061805 1_566
Mg0 O2 2.068078 1_556
Mg0 O9 2.068078 1_556
Mg0 O11 2.266413 1_565
Mg0 O6 2.599772 1_555
Mg0 O1 2.599772 1_555
Mg0 O0 2.726252 1_565
Mg0 O7 2.726252 1_465
Mg1 O11 2.093386 1_555
Mg1 O6 2.123390 1_555
Mg1 O1 2.123390 1_555
Mg1 O8 2.134177 1_555
Mg1 O2 2.508415 1_555
Mg1 O9 2.508415 1_555
Mg1 O5 2.717186 1_555
Mg1 O3 2.717186 1_455
Mg2 O4 2.093386 1_555
Mg2 O5 2.123390 1_555
Mg2 O3 2.123390 1_555
Mg2 O10 2.134177 1_555
Mg2 O0 2.508415 1_555
Mg2 O7 2.508415 1_555
Mg2 O1 2.717186 1_555
Mg2 O6 2.717186 1_655
Mg3 O10 2.061805 1_544
Mg3 O0 2.068078 1_554
Mg3 O7 2.068078 1_554
Mg3 O4 2.266413 1_545
Mg3 O5 2.599772 1_555
Mg3 O3 2.599772 1_555
Mg3 O2 2.726252 1_545
Mg3 O9 2.726252 1_645
O0 Ta1 1.986740 1_555
O0 Ti1 2.042576 1_556
O1 Ta1 1.996272 1_565
O1 Ti1 2.025731 1_556
O2 Ta1 1.986740 1_565
O2 Ti1 2.042576 1_555
O3 Ta0 1.996272 1_655
O3 Ti0 2.025731 1_655
O4 Ta0 2.057298 1_665
O4 Ta1 2.057298 1_565
O5 Ta1 1.996272 1_555
O5 Ti1 2.025731 1_555
O6 Ta0 1.996272 1_565
O6 Ti0 2.025731 1_556
O7 Ta0 1.986740 1_655
O7 Ti0 2.042576 1_656
O8 Ti1 2.047178 1_555
O8 Ti0 2.047178 1_555
O9 Ta0 1.986740 1_565
O9 Ti0 2.042576 1_555
O10 Ti0 2.047178 1_656
O10 Ti1 2.047178 1_556
O11 Ta1 2.057298 1_555
O11 Ta0 2.057298 1_555
