# generated using pymatgen
data_ErI3O11
_symmetry_space_group_name_H-M   'P 1'
_cell_length_a   6.99446800
_cell_length_b   7.52518743
_cell_length_c   10.66869918
_cell_angle_alpha   94.00117820
_cell_angle_beta   105.85841679
_cell_angle_gamma   110.87312899
_symmetry_Int_Tables_number   1
_chemical_formula_structural   ErI3O11
_chemical_formula_sum   'Er2 I6 O22'
_cell_volume   495.91725821
_cell_formula_units_Z   2
loop_
 _symmetry_equiv_pos_site_id
 _symmetry_equiv_pos_as_xyz
  1  'x, y, z'
loop_
 _atom_site_type_symbol
 _atom_site_label
 _atom_site_symmetry_multiplicity
 _atom_site_fract_x
 _atom_site_fract_y
 _atom_site_fract_z
 _atom_site_occupancy
  Er  Er0  1  0.10152100  0.92529600  0.29010400  1
  Er  Er1  1  0.89847900  0.07470400  0.70989600  1
  I  I0  1  0.72374600  0.14071300  0.33954300  1
  I  I1  1  0.27625400  0.85928700  0.66045700  1
  I  I2  1  0.32028600  0.35713000  0.57602700  1
  I  I3  1  0.67971400  0.64287000  0.42397300  1
  I  I4  1  0.26405600  0.22748200  0.04318100  1
  I  I5  1  0.73594400  0.77251800  0.95681900  1
  O  O0  1  0.73821400  0.27819300  0.11112500  1
  O  O1  1  0.26178600  0.72180700  0.88887500  1
  O  O2  1  0.70699400  0.03298700  0.48773500  1
  O  O3  1  0.29300600  0.96701300  0.51226500  1
  O  O4  1  0.06561300  0.12501900  0.13051500  1
  O  O5  1  0.93438700  0.87498100  0.86948500  1
  O  O6  1  0.62091900  0.39834100  0.46401500  1
  O  O7  1  0.37908100  0.60165900  0.53598500  1
  O  O8  1  0.42970500  0.04458500  0.24939600  1
  O  O9  1  0.57029500  0.95541500  0.75060400  1
  O  O10  1  0.09141400  0.29632000  0.90835900  1
  O  O11  1  0.90858600  0.70368000  0.09164100  1
  O  O12  1  0.13994400  0.22176600  0.40771400  1
  O  O13  1  0.86005600  0.77823400  0.59228600  1
  O  O14  1  0.23644900  0.05985600  0.74544000  1
  O  O15  1  0.76355100  0.94014400  0.25456000  1
  O  O16  1  0.09806900  0.34589300  0.63978100  1
  O  O17  1  0.90193100  0.65410700  0.36021900  1
  O  O18  1  0.44389400  0.45862900  0.15111700  1
  O  O19  1  0.55610600  0.54137100  0.84888300  1
  O  O20  1  0.22292400  0.66785300  0.27902100  1
  O  O21  1  0.77707600  0.33214700  0.72097900  1
loop_
_geom_bond_atom_site_label_1
_geom_bond_atom_site_label_2
_geom_bond_distance
_geom_bond_site_symmetry_2
Er0 O3 2.317695 1_555
Er0 O8 2.322608 1_565
Er0 O17 2.329529 1_455
Er0 O11 2.329672 1_455
Er0 O15 2.334228 1_455
Er0 O4 2.369222 1_565
Er0 O12 2.371019 1_565
Er0 O20 2.383982 1_555
Er1 O2 2.317695 1_555
Er1 O9 2.322608 1_545
Er1 O16 2.329529 1_655
Er1 O10 2.329672 1_655
Er1 O14 2.334228 1_655
Er1 O5 2.369222 1_545
Er1 O13 2.371019 1_545
Er1 O21 2.383982 1_555
I0 O2 1.839273 1_555
I0 O15 1.850411 1_545
I0 O8 1.854675 1_555
I0 O12 2.625090 1_655
I0 O0 2.726016 1_555
I1 O3 1.839273 1_555
I1 O14 1.850411 1_565
I1 O9 1.854675 1_555
I1 O13 2.625090 1_455
I1 O1 2.726016 1_555
I2 O16 1.837864 1_555
I2 O7 1.845033 1_555
I2 O12 1.855914 1_555
I3 O17 1.837864 1_555
I3 O6 1.845033 1_555
I3 O13 1.855914 1_555
I4 O18 1.817572 1_555
I4 O10 1.842797 1_554
I4 O4 1.853005 1_555
I5 O19 1.817572 1_555
I5 O11 1.842797 1_556
I5 O5 1.853005 1_555
