# generated using pymatgen
data_CaLaMg14
_symmetry_space_group_name_H-M   'P 1'
_cell_length_a   6.71934916
_cell_length_b   6.71934855
_cell_length_c   10.43424996
_cell_angle_alpha   90.00000000
_cell_angle_beta   90.00000000
_cell_angle_gamma   120.00000298
_symmetry_Int_Tables_number   1
_chemical_formula_structural   CaLaMg14
_chemical_formula_sum   'Ca1 La1 Mg14'
_cell_volume   407.98691446
_cell_formula_units_Z   1
loop_
 _symmetry_equiv_pos_site_id
 _symmetry_equiv_pos_as_xyz
  1  'x, y, z'
loop_
 _atom_site_type_symbol
 _atom_site_label
 _atom_site_symmetry_multiplicity
 _atom_site_fract_x
 _atom_site_fract_y
 _atom_site_fract_z
 _atom_site_occupancy
  Ca  Ca0  1  0.16666700  0.33333300  0.12500000  1
  La  La0  1  0.16666700  0.33333300  0.62500000  1
  Mg  Mg0  1  0.17120195  0.83560048  0.12500000  1
  Mg  Mg1  1  0.17361359  0.83680630  0.62500000  1
  Mg  Mg2  1  0.66439952  0.32879805  0.12500000  1
  Mg  Mg3  1  0.66319370  0.32638641  0.62500000  1
  Mg  Mg4  1  0.66439952  0.83560048  0.12500000  1
  Mg  Mg5  1  0.66319370  0.83680630  0.62500000  1
  Mg  Mg6  1  0.33820299  0.16179701  0.37413411  1
  Mg  Mg7  1  0.33820299  0.16179701  0.87586589  1
  Mg  Mg8  1  0.33820299  0.67640698  0.37413411  1
  Mg  Mg9  1  0.33820299  0.67640698  0.87586589  1
  Mg  Mg10  1  0.82359302  0.16179701  0.37413411  1
  Mg  Mg11  1  0.82359302  0.16179701  0.87586589  1
  Mg  Mg12  1  0.83333300  0.66666700  0.37649073  1
  Mg  Mg13  1  0.83333300  0.66666700  0.87350927  1
loop_
_geom_bond_atom_site_label_1
_geom_bond_atom_site_label_2
_geom_bond_distance
_geom_bond_site_symmetry_2
Ca0 Mg7 3.277663 1_554
Ca0 Mg6 3.277663 1_555
Ca0 Mg8 3.277670 1_555
Ca0 Mg9 3.277670 1_554
Ca0 Mg11 3.277670 1_454
Ca0 Mg10 3.277670 1_455
Ca0 Mg0 3.359778 1_545
Ca0 Mg4 3.359778 1_555
Ca0 Mg4 3.359778 1_445
Ca0 Mg0 3.359778 1_555
Ca0 Mg2 3.359778 1_555
Ca0 Mg2 3.359778 1_455
La0 Mg6 3.292013 1_555
La0 Mg7 3.292013 1_555
La0 Mg9 3.292020 1_555
La0 Mg8 3.292020 1_555
La0 Mg10 3.292020 1_455
La0 Mg11 3.292020 1_455
La0 Mg1 3.359917 1_545
La0 Mg5 3.359917 1_555
La0 Mg5 3.359917 1_445
La0 Mg1 3.359917 1_555
La0 Mg3 3.359918 1_555
La0 Mg3 3.359918 1_455
Mg0 Mg9 3.218893 1_554
Mg0 Mg8 3.218893 1_555
Mg0 Mg7 3.218900 1_564
Mg0 Mg6 3.218900 1_565
Mg0 Mg13 3.278955 1_454
Mg0 Mg12 3.278955 1_455
Mg0 Mg2 3.313966 1_565
Mg0 Mg4 3.313967 1_555
Mg0 Mg2 3.405382 1_455
Mg0 Mg4 3.405382 1_455
Mg1 Mg8 3.229313 1_555
Mg1 Mg9 3.229313 1_555
Mg1 Mg6 3.229320 1_565
Mg1 Mg7 3.229320 1_565
Mg1 Mg12 3.262611 1_455
Mg1 Mg13 3.262611 1_455
Mg1 Mg3 3.289659 1_565
Mg1 Mg5 3.289660 1_555
Mg1 Mg3 3.429689 1_455
Mg1 Mg5 3.429689 1_455
Mg2 Mg7 3.218900 1_554
Mg2 Mg6 3.218900 1_555
Mg2 Mg4 3.313966 1_545
Mg2 Mg4 3.405382 1_555
Mg3 Mg6 3.229320 1_555
Mg3 Mg7 3.229320 1_555
Mg3 Mg5 3.289659 1_545
Mg3 Mg5 3.429689 1_555
Mg4 Mg9 3.218900 1_554
Mg4 Mg8 3.218900 1_555
Mg5 Mg8 3.229320 1_555
Mg5 Mg9 3.229320 1_555
Mg6 Mg8 3.261505 1_545
Mg6 Mg8 3.457844 1_555
Mg7 Mg9 3.261505 1_545
Mg7 Mg9 3.457844 1_555
Mg10 Mg2 3.218893 1_555
Mg10 Mg4 3.218900 1_545
Mg10 Mg3 3.229313 1_555
Mg10 Mg5 3.229320 1_545
Mg10 Mg8 3.261505 1_545
Mg10 Mg6 3.261505 1_555
Mg10 Mg12 3.360242 1_555
Mg10 Mg12 3.360242 1_545
Mg10 Mg8 3.457844 1_655
Mg10 Mg6 3.457844 1_655
Mg11 Mg2 3.218893 1_556
Mg11 Mg4 3.218900 1_546
Mg11 Mg3 3.229313 1_555
Mg11 Mg5 3.229320 1_545
Mg11 Mg9 3.261505 1_545
Mg11 Mg7 3.261505 1_555
Mg11 Mg13 3.360242 1_555
Mg11 Mg13 3.360242 1_545
Mg11 Mg9 3.457844 1_655
Mg11 Mg7 3.457844 1_655
Mg12 Mg5 3.262604 1_555
Mg12 Mg3 3.262610 1_555
Mg12 Mg4 3.278949 1_555
Mg12 Mg2 3.278955 1_555
Mg12 Mg6 3.360242 1_555
Mg12 Mg6 3.360242 1_665
Mg12 Mg8 3.360243 1_555
Mg12 Mg8 3.360243 1_655
Mg13 Mg5 3.262604 1_555
Mg13 Mg3 3.262610 1_555
Mg13 Mg4 3.278949 1_556
Mg13 Mg2 3.278955 1_556
Mg13 Mg7 3.360242 1_555
Mg13 Mg7 3.360242 1_665
Mg13 Mg9 3.360243 1_555
Mg13 Mg9 3.360243 1_655
