# generated using pymatgen
data_Rb3Cr
_symmetry_space_group_name_H-M   'P 1'
_cell_length_a   8.89535886
_cell_length_b   8.89535886
_cell_length_c   6.97431600
_cell_angle_alpha   90.00000000
_cell_angle_beta   90.00000000
_cell_angle_gamma   120.00000642
_symmetry_Int_Tables_number   1
_chemical_formula_structural   Rb3Cr
_chemical_formula_sum   'Rb6 Cr2'
_cell_volume   477.92436452
_cell_formula_units_Z   2
loop_
 _symmetry_equiv_pos_site_id
 _symmetry_equiv_pos_as_xyz
  1  'x, y, z'
loop_
 _atom_site_type_symbol
 _atom_site_label
 _atom_site_symmetry_multiplicity
 _atom_site_fract_x
 _atom_site_fract_y
 _atom_site_fract_z
 _atom_site_occupancy
  Rb  Rb0  1  0.17686900  0.35373700  0.25000000  1
  Rb  Rb1  1  0.64626300  0.82313100  0.25000000  1
  Rb  Rb2  1  0.17686900  0.82313100  0.25000000  1
  Rb  Rb3  1  0.82313100  0.64626300  0.75000000  1
  Rb  Rb4  1  0.35373700  0.17686900  0.75000000  1
  Rb  Rb5  1  0.82313100  0.17686900  0.75000000  1
  Cr  Cr0  1  0.33333300  0.66666700  0.75000000  1
  Cr  Cr1  1  0.66666700  0.33333300  0.25000000  1
loop_
_geom_bond_atom_site_label_1
_geom_bond_atom_site_label_2
_geom_bond_distance
_geom_bond_site_symmetry_2
Rb0 Rb1 4.175428 1_555
Rb0 Rb2 4.175428 1_555
Rb0 Rb4 4.425622 1_555
Rb0 Rb4 4.425622 1_554
Rb0 Rb5 4.425631 1_455
Rb0 Rb5 4.425631 1_454
Rb0 Rb1 4.719930 1_445
Rb0 Rb2 4.719931 1_545
Rb1 Rb2 4.175428 1_555
Rb1 Rb3 4.425622 1_554
Rb1 Rb3 4.425622 1_555
Rb1 Rb5 4.425631 1_564
Rb1 Rb5 4.425631 1_565
Rb1 Rb2 4.719931 1_655
Rb2 Rb4 4.425631 1_564
Rb2 Rb3 4.425631 1_454
Rb2 Rb4 4.425631 1_565
Rb2 Rb3 4.425631 1_455
Rb3 Rb4 4.175428 1_555
Rb3 Rb5 4.175428 1_555
Rb3 Rb4 4.719930 1_665
Rb3 Rb5 4.719931 1_565
Rb4 Rb5 4.175428 1_555
Rb4 Rb5 4.719931 1_455
Cr0 Rb2 4.239295 1_555
Cr0 Rb2 4.239295 1_556
Cr0 Rb1 4.239304 1_555
Cr0 Rb1 4.239304 1_556
Cr0 Rb0 4.239304 1_555
Cr0 Rb0 4.239304 1_556
Cr1 Rb5 4.239295 1_555
Cr1 Rb5 4.239295 1_554
Cr1 Rb3 4.239304 1_554
Cr1 Rb3 4.239304 1_555
Cr1 Rb4 4.239304 1_555
Cr1 Rb4 4.239304 1_554
