# generated using pymatgen
data_Ta3Os2
_symmetry_space_group_name_H-M   'P 1'
_cell_length_a   5.06308876
_cell_length_b   9.87670308
_cell_length_c   9.87670308
_cell_angle_alpha   90.03480245
_cell_angle_beta   90.00000000
_cell_angle_gamma   90.00000000
_symmetry_Int_Tables_number   1
_chemical_formula_structural   Ta3Os2
_chemical_formula_sum   'Ta18 Os12'
_cell_volume   493.90048918
_cell_formula_units_Z   6
loop_
 _symmetry_equiv_pos_site_id
 _symmetry_equiv_pos_as_xyz
  1  'x, y, z'
loop_
 _atom_site_type_symbol
 _atom_site_label
 _atom_site_symmetry_multiplicity
 _atom_site_fract_x
 _atom_site_fract_y
 _atom_site_fract_z
 _atom_site_occupancy
  Ta  Ta0  1  0.50306863  0.10265353  0.89734647  1
  Ta  Ta1  1  0.50306863  0.89734647  0.10265353  1
  Ta  Ta2  1  0.99507064  0.39891946  0.39891946  1
  Ta  Ta3  1  0.99507064  0.60108054  0.60108054  1
  Ta  Ta4  1  0.50116593  0.37042991  0.96191240  1
  Ta  Ta5  1  0.50116593  0.62957009  0.03808760  1
  Ta  Ta6  1  0.00280930  0.13020142  0.46541633  1
  Ta  Ta7  1  0.00280930  0.86979858  0.53458367  1
  Ta  Ta8  1  0.50116593  0.96191240  0.37042991  1
  Ta  Ta9  1  0.50116593  0.03808760  0.62957009  1
  Ta  Ta10  1  0.00280930  0.46541633  0.13020142  1
  Ta  Ta11  1  0.00280930  0.53458367  0.86979858  1
  Ta  Ta12  1  0.74976278  0.18115633  0.18115633  1
  Ta  Ta13  1  0.74976278  0.81884367  0.81884367  1
  Ta  Ta14  1  0.75041147  0.68130845  0.31869155  1
  Ta  Ta15  1  0.75041147  0.31869155  0.68130845  1
  Ta  Ta16  1  0.25040349  0.81829754  0.81829754  1
  Ta  Ta17  1  0.25040349  0.18170246  0.18170246  1
  Os  Os0  1  0.47931862  0.50000000  0.50000000  1
  Os  Os1  1  0.00165325  -0.00000000  0.00000000  1
  Os  Os2  1  0.50038652  0.43452085  0.24260276  1
  Os  Os3  1  0.50038652  0.56547915  0.75739724  1
  Os  Os4  1  0.00124222  0.06973132  0.74068509  1
  Os  Os5  1  0.00124222  0.93026868  0.25931491  1
  Os  Os6  1  0.50038652  0.24260276  0.43452085  1
  Os  Os7  1  0.50038652  0.75739724  0.56547915  1
  Os  Os8  1  0.00124222  0.74068509  0.06973132  1
  Os  Os9  1  0.00124222  0.25931491  0.93026868  1
  Os  Os10  1  0.24959313  0.31853613  0.68146387  1
  Os  Os11  1  0.24959313  0.68146387  0.31853613  1
loop_
_geom_bond_atom_site_label_1
_geom_bond_atom_site_label_2
_geom_bond_distance
_geom_bond_site_symmetry_2
Ta0 Ta4 2.720183 1_555
Ta0 Ta9 2.720183 1_555
Ta0 Ta1 2.868552 1_546
Ta0 Ta13 3.164809 1_545
Ta0 Ta12 3.164809 1_556
Ta0 Ta17 3.182937 1_556
Ta0 Ta16 3.182937 1_545
Ta0 Ta15 3.267959 1_555
Ta1 Ta5 2.720183 1_555
Ta1 Ta8 2.720183 1_555
Ta1 Ta13 3.164809 1_554
Ta1 Ta12 3.164809 1_565
Ta1 Ta17 3.182937 1_565
Ta1 Ta16 3.182937 1_554
Ta1 Ta14 3.267959 1_555
Ta2 Ta6 2.734771 1_655
Ta2 Ta3 2.822881 1_555
Ta3 Ta7 2.734771 1_655
Ta4 Ta5 2.667301 1_556
Ta6 Ta7 2.661504 1_545
Ta6 Ta9 3.134447 1_555
Ta6 Ta9 3.147859 1_455
Ta6 Ta8 3.163480 1_545
Ta6 Ta8 3.176769 1_445
Ta7 Ta8 3.134447 1_555
Ta7 Ta8 3.147859 1_455
Ta7 Ta9 3.163480 1_565
Ta7 Ta9 3.176769 1_465
Ta8 Ta9 2.667301 1_565
Ta10 Ta11 2.661504 1_554
Ta10 Ta2 2.734771 1_455
Ta10 Ta14 3.104953 1_455
Ta10 Ta17 3.111920 1_555
Ta10 Ta12 3.127108 1_455
Ta10 Ta5 3.134447 1_555
Ta10 Ta5 3.147859 1_455
Ta10 Ta4 3.163480 1_554
Ta10 Ta4 3.176769 1_454
Ta11 Ta3 2.734771 1_455
Ta11 Ta15 3.104953 1_455
Ta11 Ta16 3.111920 1_555
Ta11 Ta13 3.127108 1_455
Ta11 Ta4 3.134447 1_555
Ta11 Ta4 3.147859 1_455
Ta11 Ta5 3.163480 1_556
Ta11 Ta5 3.176769 1_456
Ta12 Ta17 2.528312 1_555
Ta12 Ta17 2.534800 1_655
Ta12 Ta4 3.126148 1_554
Ta12 Ta8 3.126148 1_545
Ta12 Ta6 3.127108 1_655
Ta12 Ta2 3.284617 1_555
Ta13 Ta16 2.528312 1_555
Ta13 Ta16 2.534800 1_655
Ta13 Ta9 3.126148 1_565
Ta13 Ta5 3.126148 1_556
Ta13 Ta7 3.127108 1_655
Ta13 Ta3 3.284617 1_555
Ta14 Ta8 3.087526 1_555
Ta14 Ta5 3.087526 1_555
Ta14 Ta7 3.104953 1_655
Ta14 Ta3 3.153401 1_555
Ta14 Ta2 3.153401 1_555
Ta15 Ta9 3.087526 1_555
Ta15 Ta4 3.087526 1_555
Ta15 Ta6 3.104953 1_655
Ta15 Ta3 3.153401 1_555
Ta15 Ta2 3.153401 1_555
Ta16 Ta7 3.111920 1_555
Ta16 Ta5 3.131098 1_556
Ta16 Ta9 3.131098 1_565
Ta16 Ta3 3.297127 1_455
Ta17 Ta6 3.111920 1_555
Ta17 Ta4 3.131098 1_554
Ta17 Ta8 3.131098 1_545
Ta17 Ta2 3.297127 1_455
Os0 Os2 2.624993 1_555
Os0 Os3 2.624993 1_555
Os0 Os7 2.624993 1_555
Os0 Os6 2.624993 1_555
Os0 Os10 2.789476 1_555
Os0 Os11 2.789476 1_555
Os0 Ta3 2.829035 1_455
Os0 Ta2 2.829035 1_455
Os0 Ta14 2.881191 1_555
Os0 Ta15 2.881191 1_555
Os0 Ta3 2.968340 1_555
Os0 Ta2 2.968340 1_555
Os1 Os4 2.652565 1_554
Os1 Os5 2.652565 1_545
Os1 Os9 2.652565 1_554
Os1 Os8 2.652565 1_545
Os1 Ta16 2.832599 1_544
Os1 Ta17 2.832599 1_555
Os1 Ta13 2.832893 1_444
Os1 Ta12 2.832893 1_455
Os1 Ta0 2.903383 1_454
Os1 Ta1 2.903383 1_445
Os1 Ta0 2.915853 1_554
Os1 Ta1 2.915853 1_545
Os2 Os6 2.681481 1_555
Os2 Ta10 2.769969 1_555
Os2 Ta5 2.792144 1_555
Os2 Ta10 2.792301 1_655
Os2 Ta4 2.843273 1_554
Os2 Ta14 2.847137 1_555
Os2 Ta17 2.863041 1_555
Os2 Ta12 2.867525 1_555
Os2 Ta2 2.963288 1_555
Os2 Ta2 3.008923 1_455
Os3 Os7 2.681481 1_555
Os3 Ta11 2.769969 1_555
Os3 Ta4 2.792144 1_555
Os3 Ta11 2.792301 1_655
Os3 Ta5 2.843273 1_556
Os3 Ta15 2.847137 1_555
Os3 Ta16 2.863041 1_555
Os3 Ta13 2.867525 1_555
Os3 Ta3 2.963288 1_555
Os3 Ta3 3.008923 1_455
Os4 Os9 2.647255 1_555
Os4 Ta9 2.776404 1_555
Os4 Ta9 2.777108 1_455
Os4 Ta6 2.783941 1_555
Os4 Ta15 2.829264 1_455
Os4 Ta7 2.835173 1_545
Os4 Ta16 2.889347 1_545
Os4 Ta13 2.891302 1_445
Os4 Ta0 2.976782 1_455
Os4 Ta0 2.992469 1_555
Os5 Os8 2.647255 1_555
Os5 Ta8 2.776404 1_555
Os5 Ta8 2.777108 1_455
Os5 Ta7 2.783941 1_555
Os5 Ta14 2.829264 1_455
Os5 Ta6 2.835173 1_565
Os5 Ta17 2.889347 1_565
Os5 Ta12 2.891302 1_465
Os5 Ta1 2.976782 1_455
Os5 Ta1 2.992469 1_555
Os6 Ta6 2.769969 1_555
Os6 Ta9 2.792144 1_555
Os6 Ta6 2.792301 1_655
Os6 Ta8 2.843273 1_545
Os6 Ta15 2.847137 1_555
Os6 Ta17 2.863041 1_555
Os6 Ta12 2.867525 1_555
Os6 Ta2 2.963288 1_555
Os6 Ta2 3.008923 1_455
Os7 Ta7 2.769969 1_555
Os7 Ta8 2.792144 1_555
Os7 Ta7 2.792301 1_655
Os7 Ta9 2.843273 1_565
Os7 Ta14 2.847137 1_555
Os7 Ta16 2.863041 1_555
Os7 Ta13 2.867525 1_555
Os7 Ta3 2.963288 1_555
Os7 Ta3 3.008923 1_455
Os8 Ta5 2.776404 1_555
Os8 Ta5 2.777108 1_455
Os8 Ta10 2.783941 1_555
Os8 Ta14 2.829264 1_455
Os8 Ta11 2.835173 1_554
Os8 Ta16 2.889347 1_554
Os8 Ta13 2.891302 1_454
Os8 Ta1 2.976782 1_455
Os8 Ta1 2.992469 1_555
Os9 Ta4 2.776404 1_555
Os9 Ta4 2.777108 1_455
Os9 Ta11 2.783941 1_555
Os9 Ta15 2.829264 1_455
Os9 Ta10 2.835173 1_556
Os9 Ta17 2.889347 1_556
Os9 Ta12 2.891302 1_456
Os9 Ta0 2.976782 1_455
Os9 Ta0 2.992469 1_555
Os10 Ta15 2.527402 1_455
Os10 Ta15 2.535689 1_555
Os10 Os4 2.821994 1_555
Os10 Os9 2.821994 1_555
Os10 Os3 2.849778 1_555
Os10 Os6 2.849778 1_555
Os10 Ta4 3.091239 1_555
Os10 Ta9 3.091239 1_555
Os10 Ta6 3.093498 1_555
Os10 Ta11 3.093498 1_555
Os10 Ta2 3.175085 1_455
Os10 Ta3 3.175085 1_455
Os10 Ta0 3.277985 1_555
Os11 Ta14 2.527402 1_455
Os11 Ta14 2.535689 1_555
Os11 Os8 2.821994 1_555
Os11 Os5 2.821994 1_555
Os11 Os2 2.849778 1_555
Os11 Os7 2.849778 1_555
Os11 Ta5 3.091239 1_555
Os11 Ta8 3.091239 1_555
Os11 Ta10 3.093498 1_555
Os11 Ta7 3.093498 1_555
Os11 Ta3 3.175085 1_455
Os11 Ta2 3.175085 1_455
Os11 Ta1 3.277985 1_555
