# generated using pymatgen
data_MnB4
_symmetry_space_group_name_H-M   'P 1'
_cell_length_a   2.94809997
_cell_length_b   3.82580282
_cell_length_c   3.82580289
_cell_angle_alpha   88.53614235
_cell_angle_beta   67.34336987
_cell_angle_gamma   67.34337180
_symmetry_Int_Tables_number   1
_chemical_formula_structural   MnB4
_chemical_formula_sum   'Mn1 B4'
_cell_volume   36.36345757
_cell_formula_units_Z   1
loop_
 _symmetry_equiv_pos_site_id
 _symmetry_equiv_pos_as_xyz
  1  'x, y, z'
loop_
 _atom_site_type_symbol
 _atom_site_label
 _atom_site_symmetry_multiplicity
 _atom_site_fract_x
 _atom_site_fract_y
 _atom_site_fract_z
 _atom_site_occupancy
  Mn  Mn0  1  0.00000000  -0.00000000  -0.00000000  1
  B  B0  1  0.79687300  0.86265017  0.54374547  1
  B  B1  1  0.20312700  0.45625453  0.13734983  1
  B  B2  1  0.20312700  0.13734983  0.45625453  1
  B  B3  1  0.79687300  0.54374547  0.86265017  1
loop_
_geom_bond_atom_site_label_1
_geom_bond_atom_site_label_2
_geom_bond_distance
_geom_bond_site_symmetry_2
B0 B3 1.703253 1_555
B0 B2 1.814897 1_665
B0 B2 1.815673 1_565
B0 B1 1.877085 1_655
B0 Mn0 2.046720 1_665
B0 Mn0 2.185462 1_666
B0 Mn0 2.186001 1_566
B1 B2 1.703253 1_555
B1 B3 1.814897 1_454
B1 B3 1.815673 1_554
B1 Mn0 2.046720 1_565
B1 Mn0 2.185462 1_555
B1 Mn0 2.186001 1_655
B2 B3 1.877085 1_455
B2 Mn0 2.046720 1_556
B2 Mn0 2.185462 1_555
B2 Mn0 2.186001 1_655
B3 Mn0 2.046720 1_656
B3 Mn0 2.185462 1_666
B3 Mn0 2.186001 1_566
