# generated using pymatgen
data_SmZnSi
_symmetry_space_group_name_H-M   'P 1'
_cell_length_a   4.12409021
_cell_length_b   4.12409021
_cell_length_c   4.18590607
_cell_angle_alpha   90.00000000
_cell_angle_beta   90.00000000
_cell_angle_gamma   119.99998445
_symmetry_Int_Tables_number   1
_chemical_formula_structural   SmZnSi
_chemical_formula_sum   'Sm1 Zn1 Si1'
_cell_volume   61.65616262
_cell_formula_units_Z   1
loop_
 _symmetry_equiv_pos_site_id
 _symmetry_equiv_pos_as_xyz
  1  'x, y, z'
loop_
 _atom_site_type_symbol
 _atom_site_label
 _atom_site_symmetry_multiplicity
 _atom_site_fract_x
 _atom_site_fract_y
 _atom_site_fract_z
 _atom_site_occupancy
  Sm  Sm0  1  0.33333300  0.66666700  0.00000000  1
  Zn  Zn0  1  0.66666700  0.33333300  0.50000000  1
  Si  Si0  1  0.00000000  0.00000000  0.50000000  1
loop_
_geom_bond_atom_site_label_1
_geom_bond_atom_site_label_2
_geom_bond_distance
_geom_bond_site_symmetry_2
Sm0 Zn0 3.170145 1_454
Sm0 Zn0 3.170145 1_455
Sm0 Zn0 3.170145 1_565
Sm0 Zn0 3.170145 1_564
Sm0 Zn0 3.170149 1_554
Sm0 Zn0 3.170149 1_555
Si0 Zn0 2.381042 1_455
Si0 Zn0 2.381046 1_445
Si0 Zn0 2.381046 1_555
Si0 Sm0 3.170144 1_546
Si0 Sm0 3.170144 1_545
Si0 Sm0 3.170147 1_556
Si0 Sm0 3.170147 1_555
Si0 Sm0 3.170147 1_446
Si0 Sm0 3.170147 1_445
