# generated using pymatgen
data_Ta2Co3Si
_symmetry_space_group_name_H-M   'P 1'
_cell_length_a   4.80557325
_cell_length_b   4.80556899
_cell_length_c   7.50138894
_cell_angle_alpha   90.00000000
_cell_angle_beta   90.00000000
_cell_angle_gamma   119.99996822
_symmetry_Int_Tables_number   1
_chemical_formula_structural   Ta2Co3Si
_chemical_formula_sum   'Ta4 Co6 Si2'
_cell_volume   150.02459839
_cell_formula_units_Z   2
loop_
 _symmetry_equiv_pos_site_id
 _symmetry_equiv_pos_as_xyz
  1  'x, y, z'
loop_
 _atom_site_type_symbol
 _atom_site_label
 _atom_site_symmetry_multiplicity
 _atom_site_fract_x
 _atom_site_fract_y
 _atom_site_fract_z
 _atom_site_occupancy
  Ta  Ta0  1  0.33333300  0.66666700  0.44049266  1
  Ta  Ta1  1  0.66666700  0.33333300  0.55952094  1
  Ta  Ta2  1  0.66666700  0.33333300  0.94047906  1
  Ta  Ta3  1  0.33333300  0.66666700  0.05950734  1
  Co  Co0  1  0.83089549  0.16910451  0.25000000  1
  Co  Co1  1  0.83089549  0.66179198  0.25000000  1
  Co  Co2  1  0.33820802  0.16910451  0.25000000  1
  Co  Co3  1  0.16910496  0.83089504  0.75000000  1
  Co  Co4  1  0.16910496  0.33820892  0.75000000  1
  Co  Co5  1  0.66179208  0.83089504  0.75000000  1
  Si  Si0  1  0.00000000  0.99999900  0.49999555  1
  Si  Si1  1  0.00000000  0.99999900  0.00000445  1
loop_
_geom_bond_atom_site_label_1
_geom_bond_atom_site_label_2
_geom_bond_distance
_geom_bond_site_symmetry_2
Ta0 Ta3 2.857919 1_555
Ta0 Ta1 2.914627 1_565
Ta0 Ta1 2.914629 1_455
Ta0 Ta1 2.914635 1_555
Ta1 Ta2 2.857715 1_555
Ta2 Ta3 2.914627 1_546
Ta2 Ta3 2.914629 1_656
Ta2 Ta3 2.914635 1_556
Co0 Si0 2.344778 1_645
Co0 Si1 2.344778 1_645
Co0 Co1 2.367644 1_555
Co0 Co2 2.367646 1_555
Co0 Co1 2.437925 1_545
Co0 Co2 2.437928 1_655
Co0 Ta2 2.694344 1_554
Co0 Ta1 2.694344 1_555
Co0 Ta0 2.795661 1_545
Co0 Ta3 2.795661 1_545
Co0 Ta0 2.795661 1_655
Co0 Ta3 2.795661 1_655
Co1 Si0 2.344770 1_655
Co1 Si1 2.344770 1_655
Co1 Co2 2.367646 1_555
Co1 Co2 2.437928 1_665
Co1 Ta1 2.694349 1_555
Co1 Ta2 2.694349 1_554
Co1 Ta0 2.795661 1_555
Co1 Ta3 2.795661 1_555
Co1 Ta3 2.795661 1_655
Co1 Ta0 2.795661 1_655
Co2 Si0 2.344774 1_545
Co2 Si1 2.344774 1_545
Co2 Ta1 2.694349 1_555
Co2 Ta2 2.694349 1_554
Co2 Ta0 2.795659 1_555
Co2 Ta3 2.795659 1_555
Co2 Ta3 2.795659 1_545
Co2 Ta0 2.795659 1_545
Co3 Si0 2.344828 1_555
Co3 Si1 2.344828 1_556
Co3 Co4 2.367637 1_555
Co3 Co5 2.367644 1_555
Co3 Co5 2.437929 1_455
Co3 Co4 2.437932 1_565
Co3 Ta3 2.694255 1_556
Co3 Ta0 2.694255 1_555
Co3 Ta1 2.795609 1_565
Co3 Ta2 2.795609 1_565
Co3 Ta1 2.795609 1_455
Co3 Ta2 2.795609 1_455
Co4 Si0 2.344831 1_545
Co4 Si1 2.344831 1_546
Co4 Co5 2.367642 1_555
Co4 Co5 2.437932 1_445
Co4 Ta3 2.694259 1_556
Co4 Ta0 2.694259 1_555
Co4 Ta1 2.795609 1_555
Co4 Ta2 2.795609 1_555
Co4 Ta1 2.795609 1_455
Co4 Ta2 2.795609 1_455
Co5 Si0 2.344827 1_655
Co5 Si1 2.344827 1_656
Co5 Ta3 2.694262 1_556
Co5 Ta0 2.694262 1_555
Co5 Ta1 2.795605 1_555
Co5 Ta2 2.795605 1_555
Co5 Ta1 2.795609 1_565
Co5 Ta2 2.795609 1_565
Si0 Ta0 2.810165 1_555
Si0 Ta0 2.810176 1_455
Si0 Ta0 2.810178 1_565
Si0 Ta1 2.810196 1_455
Si0 Ta1 2.810200 1_465
Si0 Ta1 2.810203 1_565
Si1 Ta3 2.810165 1_555
Si1 Ta3 2.810176 1_455
Si1 Ta3 2.810178 1_565
Si1 Ta2 2.810196 1_454
Si1 Ta2 2.810200 1_464
Si1 Ta2 2.810203 1_564
