# generated using pymatgen
data_SrCa7Ti2Mn6O20
_symmetry_space_group_name_H-M   'P 1'
_cell_length_a   7.89692618
_cell_length_b   7.76906946
_cell_length_c   7.96294411
_cell_angle_alpha   90.10333487
_cell_angle_beta   90.68358543
_cell_angle_gamma   90.47571739
_symmetry_Int_Tables_number   1
_chemical_formula_structural   SrCa7Ti2Mn6O20
_chemical_formula_sum   'Sr1 Ca7 Ti2 Mn6 O20'
_cell_volume   488.48820691
_cell_formula_units_Z   1
loop_
 _symmetry_equiv_pos_site_id
 _symmetry_equiv_pos_as_xyz
  1  'x, y, z'
loop_
 _atom_site_type_symbol
 _atom_site_label
 _atom_site_symmetry_multiplicity
 _atom_site_fract_x
 _atom_site_fract_y
 _atom_site_fract_z
 _atom_site_occupancy
  Sr  Sr0  1  0.23898400  0.23880800  0.28214500  1
  Ca  Ca0  1  0.23059200  0.29337200  0.73796300  1
  Ca  Ca1  1  0.23666500  0.71894200  0.25217500  1
  Ca  Ca2  1  0.21768200  0.72583400  0.70476400  1
  Ca  Ca3  1  0.74769300  0.28554700  0.26785000  1
  Ca  Ca4  1  0.74946600  0.29239600  0.70242900  1
  Ca  Ca5  1  0.73345500  0.75100300  0.27536500  1
  Ca  Ca6  1  0.74526100  0.73109800  0.69705000  1
  Ti  Ti0  1  0.97696200  0.01456300  0.99018100  1
  Ti  Ti1  1  0.54863100  0.00768000  0.00650900  1
  Mn  Mn0  1  0.99535400  0.99466400  0.52567200  1
  Mn  Mn1  1  0.98788200  0.49977000  0.99139500  1
  Mn  Mn2  1  0.99320600  0.50178400  0.48199400  1
  Mn  Mn3  1  0.49784800  0.00124500  0.52509100  1
  Mn  Mn4  1  0.49367800  0.52198900  0.99149800  1
  Mn  Mn5  1  0.49130000  0.50143700  0.49778200  1
  O  O0  1  0.98347700  0.88570600  0.80021700  1
  O  O1  1  0.02923300  0.47460900  0.23126700  1
  O  O2  1  0.95813700  0.52334300  0.74076300  1
  O  O3  1  0.76810100  0.01199400  0.10509700  1
  O  O4  1  0.57705800  0.00250800  0.78355900  1
  O  O5  1  0.53361800  0.49553200  0.74764300  1
  O  O6  1  0.13180200  0.96822100  0.14980700  1
  O  O7  1  0.24666900  0.03117000  0.57499800  1
  O  O8  1  0.23668100  0.54388700  0.96277800  1
  O  O9  1  0.25058900  0.47812700  0.51459100  1
  O  O10  1  0.74822700  0.96204900  0.48669700  1
  O  O11  1  0.74217100  0.51911400  0.05560500  1
  O  O12  1  0.73222000  0.52413500  0.45887000  1
  O  O13  1  0.00508800  0.23276000  0.92163400  1
  O  O14  1  0.96407400  0.24728700  0.49958300  1
  O  O15  1  0.02496600  0.75076600  0.45953900  1
  O  O16  1  0.46893200  0.21926700  0.06837600  1
  O  O17  1  0.52174500  0.25193900  0.45713500  1
  O  O18  1  0.48108000  0.79782700  0.08844800  1
  O  O19  1  0.46147300  0.74962600  0.46353200  1
loop_
_geom_bond_atom_site_label_1
_geom_bond_atom_site_label_2
_geom_bond_distance
_geom_bond_site_symmetry_2
Ca0 O9 2.293720 1_555
Ca0 O13 2.362784 1_555
Ca0 O7 2.418351 1_555
Ca0 O8 2.641756 1_555
Ca0 O2 2.808324 1_455
Ca0 O14 2.837382 1_455
Ca0 O5 2.851629 1_555
Ca1 O6 2.262102 1_555
Ca1 O15 2.377764 1_555
Ca1 O18 2.417444 1_555
Ca1 O19 2.441576 1_555
Ca1 O1 2.501008 1_555
Ca1 O8 2.673732 1_554
Ca1 O9 2.809069 1_555
Ca2 O0 2.368411 1_455
Ca2 O9 2.464031 1_555
Ca2 O15 2.470228 1_555
Ca2 O8 2.499696 1_555
Ca2 O2 2.592300 1_455
Ca2 O7 2.598622 1_565
Ca2 O19 2.741185 1_555
Ca3 O17 2.362538 1_555
Ca3 O12 2.400521 1_555
Ca3 O11 2.482279 1_555
Ca3 O3 2.494595 1_555
Ca3 O14 2.519600 1_555
Ca3 O1 2.673607 1_655
Ca3 O16 2.743890 1_555
Ca4 O5 2.362832 1_555
Ca4 O14 2.382677 1_555
Ca4 O2 2.442305 1_555
Ca4 O12 2.651753 1_555
Ca4 O17 2.655651 1_555
Ca4 O13 2.696428 1_655
Ca4 O4 2.705285 1_555
Ca5 O12 2.291562 1_555
Ca5 O10 2.348635 1_555
Ca5 O3 2.456439 1_565
Ca5 O18 2.502580 1_555
Ca5 O11 2.511215 1_555
Ca5 O19 2.633403 1_555
Ca5 O15 2.714726 1_655
Ca6 O0 2.361891 1_555
Ca6 O2 2.363359 1_555
Ca6 O10 2.456984 1_555
Ca6 O12 2.484897 1_555
Ca6 O5 2.504586 1_555
Ca6 O4 2.597728 1_565
Ca6 O19 2.899592 1_555
Ca6 O15 2.928186 1_655
Mn0 O15 1.982220 1_655
Mn0 O10 1.986480 1_555
Mn0 O14 1.991093 1_565
Mn0 O7 2.035944 1_665
Mn0 O0 2.348409 1_555
Mn1 O1 1.944428 1_656
Mn1 O8 2.007341 1_655
Mn1 O2 2.015603 1_555
Mn1 O11 2.019221 1_556
Mn1 O13 2.152344 1_655
Mn2 O15 1.957263 1_655
Mn2 O14 1.994015 1_555
Mn2 O1 2.030925 1_655
Mn2 O9 2.055757 1_655
Mn2 O12 2.075748 1_555
Mn2 O2 2.088973 1_555
Mn3 O10 2.029705 1_545
Mn3 O17 2.030257 1_555
Mn3 O19 2.031768 1_545
Mn3 O7 2.042683 1_555
Mn3 O4 2.143950 1_555
Mn4 O5 1.981560 1_555
Mn4 O11 2.022053 1_556
Mn4 O8 2.048135 1_555
Mn4 O18 2.279861 1_556
Mn4 O16 2.438165 1_556
Mn5 O9 1.914285 1_555
Mn5 O12 1.937888 1_555
Mn5 O19 1.963597 1_555
Mn5 O17 1.981708 1_555
Mn5 O5 2.014231 1_555
O0 Ti0 1.813911 1_565
O1 Sr0 2.510153 1_555
O3 Ti1 1.894115 1_555
O3 Ti0 1.895698 1_554
O4 Ti1 1.792550 1_556
O6 Ti0 1.792294 1_464
O6 Sr0 2.487441 1_565
O7 Sr0 2.838285 1_555
O9 Sr0 2.621466 1_555
O13 Ti0 1.794689 1_455
O14 Sr0 2.794083 1_655
O16 Ti1 1.833756 1_555
O16 Sr0 2.509077 1_555
O17 Sr0 2.619077 1_555
O18 Ti1 1.834685 1_565
