# generated using pymatgen
data_TmGaNi
_symmetry_space_group_name_H-M   'P 1'
_cell_length_a   4.23170027
_cell_length_b   6.71751450
_cell_length_c   7.19107209
_cell_angle_alpha   90.00000000
_cell_angle_beta   90.00000000
_cell_angle_gamma   90.00000000
_symmetry_Int_Tables_number   1
_chemical_formula_structural   TmGaNi
_chemical_formula_sum   'Tm4 Ga4 Ni4'
_cell_volume   204.41706774
_cell_formula_units_Z   4
loop_
 _symmetry_equiv_pos_site_id
 _symmetry_equiv_pos_as_xyz
  1  'x, y, z'
loop_
 _atom_site_type_symbol
 _atom_site_label
 _atom_site_symmetry_multiplicity
 _atom_site_fract_x
 _atom_site_fract_y
 _atom_site_fract_z
 _atom_site_occupancy
  Tm  Tm0  1  0.75000000  0.48277472  0.69706704  1
  Tm  Tm1  1  0.75000000  0.98277472  0.80293296  1
  Tm  Tm2  1  0.25000000  0.51722528  0.30293296  1
  Tm  Tm3  1  0.25000000  0.01722528  0.19706704  1
  Ga  Ga0  1  0.75000000  0.32193624  0.07893809  1
  Ga  Ga1  1  0.75000000  0.82193624  0.42106191  1
  Ga  Ga2  1  0.25000000  0.67806376  0.92106191  1
  Ga  Ga3  1  0.25000000  0.17806376  0.57893809  1
  Ni  Ni0  1  0.75000000  0.71063764  0.09345898  1
  Ni  Ni1  1  0.75000000  0.21063764  0.40654102  1
  Ni  Ni2  1  0.25000000  0.28936236  0.90654102  1
  Ni  Ni3  1  0.25000000  0.78936236  0.59345898  1
loop_
_geom_bond_atom_site_label_1
_geom_bond_atom_site_label_2
_geom_bond_distance
_geom_bond_site_symmetry_2
Tm0 Tm1 3.443953 1_555
Tm0 Tm1 3.443953 1_545
Tm0 Tm2 3.544479 1_655
Tm0 Tm2 3.544479 1_555
Tm1 Tm3 3.544479 1_566
Tm1 Tm3 3.544479 1_666
Tm2 Tm3 3.443953 1_565
Tm2 Tm3 3.443953 1_555
Ga0 Ni2 2.462033 1_554
Ga0 Ni2 2.462033 1_654
Ga0 Ni1 2.471609 1_555
Ga0 Ni0 2.613194 1_555
Ga0 Tm0 2.950965 1_554
Ga0 Tm2 2.965189 1_555
Ga0 Tm2 2.965189 1_655
Ga0 Tm1 3.021602 1_544
Ga0 Tm3 3.064022 1_655
Ga0 Tm3 3.064022 1_555
Ga1 Ni3 2.462033 1_555
Ga1 Ni3 2.462033 1_655
Ga1 Ni0 2.471609 1_555
Ga1 Ni1 2.613194 1_565
Ga1 Tm1 2.950965 1_555
Ga1 Tm3 2.965189 1_565
Ga1 Tm3 2.965189 1_665
Ga1 Tm0 3.021602 1_555
Ga1 Tm2 3.064022 1_655
Ga1 Tm2 3.064022 1_555
Ga2 Ni0 2.462033 1_456
Ga2 Ni0 2.462033 1_556
Ga2 Ni3 2.471609 1_555
Ga2 Ni2 2.613194 1_555
Ga2 Tm2 2.950965 1_556
Ga2 Tm0 2.965189 1_455
Ga2 Tm0 2.965189 1_555
Ga2 Tm3 3.021602 1_566
Ga2 Tm1 3.064022 1_455
Ga2 Tm1 3.064022 1_555
Ga3 Ni1 2.462033 1_455
Ga3 Ni1 2.462033 1_555
Ga3 Ni2 2.471609 1_555
Ga3 Ni3 2.613194 1_545
Ga3 Tm3 2.950965 1_555
Ga3 Tm1 2.965189 1_445
Ga3 Tm1 2.965189 1_545
Ga3 Tm2 3.021602 1_555
Ga3 Tm0 3.064022 1_555
Ga3 Tm0 3.064022 1_455
Ni0 Tm1 2.776081 1_554
Ni0 Tm2 2.904125 1_655
Ni0 Tm2 2.904125 1_555
Ni0 Tm3 3.045241 1_565
Ni0 Tm3 3.045241 1_665
Ni0 Tm0 3.235462 1_554
Ni1 Tm0 2.776081 1_555
Ni1 Tm3 2.904125 1_555
Ni1 Tm3 2.904125 1_655
Ni1 Tm2 3.045241 1_655
Ni1 Tm2 3.045241 1_555
Ni1 Tm1 3.235462 1_545
Ni2 Tm3 2.776081 1_556
Ni2 Tm0 2.904125 1_555
Ni2 Tm0 2.904125 1_455
Ni2 Tm1 3.045241 1_545
Ni2 Tm1 3.045241 1_445
Ni2 Tm2 3.235462 1_556
Ni3 Tm2 2.776081 1_555
Ni3 Tm1 2.904125 1_555
Ni3 Tm1 2.904125 1_455
Ni3 Tm0 3.045241 1_455
Ni3 Tm0 3.045241 1_555
Ni3 Tm3 3.235462 1_565
