# generated using pymatgen
data_NaGa11O18
_symmetry_space_group_name_H-M   'P 1'
_cell_length_a   9.08101700
_cell_length_b   8.71310900
_cell_length_c   9.54703869
_cell_angle_alpha   64.11991665
_cell_angle_beta   90.00000000
_cell_angle_gamma   90.00000000
_symmetry_Int_Tables_number   1
_chemical_formula_structural   NaGa11O18
_chemical_formula_sum   'Na2 Ga22 O36'
_cell_volume   679.63956701
_cell_formula_units_Z   2
loop_
 _symmetry_equiv_pos_site_id
 _symmetry_equiv_pos_as_xyz
  1  'x, y, z'
loop_
 _atom_site_type_symbol
 _atom_site_label
 _atom_site_symmetry_multiplicity
 _atom_site_fract_x
 _atom_site_fract_y
 _atom_site_fract_z
 _atom_site_occupancy
  Na  Na0  1  0.25000000  0.98099800  0.05925400  1
  Na  Na1  1  0.75000000  0.01900200  0.94074600  1
  Ga  Ga0  1  0.92343800  0.32225300  0.04839200  1
  Ga  Ga1  1  0.42343800  0.67774700  0.95160800  1
  Ga  Ga2  1  0.07656200  0.67774700  0.95160800  1
  Ga  Ga3  1  0.57656200  0.32225300  0.04839200  1
  Ga  Ga4  1  0.25000000  0.32989700  0.04436700  1
  Ga  Ga5  1  0.75000000  0.67010300  0.95563300  1
  Ga  Ga6  1  0.41443200  0.98673900  0.35930600  1
  Ga  Ga7  1  0.91443200  0.01326100  0.64069400  1
  Ga  Ga8  1  0.58556800  0.01326100  0.64069400  1
  Ga  Ga9  1  0.08556800  0.98673900  0.35930600  1
  Ga  Ga10  1  0.75000000  0.99731800  0.36295200  1
  Ga  Ga11  1  0.25000000  0.00268200  0.63704800  1
  Ga  Ga12  1  0.92198300  0.71090000  0.25745600  1
  Ga  Ga13  1  0.42198300  0.28910000  0.74254400  1
  Ga  Ga14  1  0.07801700  0.28910000  0.74254400  1
  Ga  Ga15  1  0.57801700  0.71090000  0.25745600  1
  Ga  Ga16  1  0.42406300  0.36945800  0.34663100  1
  Ga  Ga17  1  0.92406300  0.63054200  0.65336900  1
  Ga  Ga18  1  0.57593700  0.63054200  0.65336900  1
  Ga  Ga19  1  0.07593700  0.36945800  0.34663100  1
  Ga  Ga20  1  0.75000000  0.35010700  0.53952500  1
  Ga  Ga21  1  0.25000000  0.64989300  0.46047500  1
  O  O0  1  0.41525400  0.13568600  0.47744400  1
  O  O1  1  0.91525400  0.86431400  0.52255600  1
  O  O2  1  0.58474600  0.86431400  0.52255600  1
  O  O3  1  0.08474600  0.13568600  0.47744400  1
  O  O4  1  0.25000000  0.86109700  0.50945300  1
  O  O5  1  0.75000000  0.13890300  0.49054700  1
  O  O6  1  0.91709100  0.10705600  0.23347300  1
  O  O7  1  0.41709100  0.89294400  0.76652700  1
  O  O8  1  0.08290900  0.89294400  0.76652700  1
  O  O9  1  0.58290900  0.10705600  0.23347300  1
  O  O10  1  0.25000000  0.11337900  0.22589200  1
  O  O11  1  0.75000000  0.88662100  0.77410800  1
  O  O12  1  0.42082800  0.42037000  0.13307300  1
  O  O13  1  0.92082800  0.57963000  0.86692700  1
  O  O14  1  0.57917200  0.57963000  0.86692700  1
  O  O15  1  0.07917200  0.42037000  0.13307300  1
  O  O16  1  0.75000000  0.42316000  0.11255600  1
  O  O17  1  0.25000000  0.57684000  0.88744400  1
  O  O18  1  0.40669500  0.79250300  0.30554200  1
  O  O19  1  0.90669500  0.20749700  0.69445800  1
  O  O20  1  0.59330500  0.20749700  0.69445800  1
  O  O21  1  0.09330500  0.79250300  0.30554200  1
  O  O22  1  0.25000000  0.47272700  0.37609800  1
  O  O23  1  0.75000000  0.52727300  0.62390200  1
  O  O24  1  0.91563300  0.74557200  0.04990700  1
  O  O25  1  0.41563300  0.25442800  0.95009300  1
  O  O26  1  0.08436700  0.25442800  0.95009300  1
  O  O27  1  0.58436700  0.74557200  0.04990700  1
  O  O28  1  0.90824500  0.47261300  0.37991800  1
  O  O29  1  0.40824500  0.52738700  0.62008200  1
  O  O30  1  0.09175500  0.52738700  0.62008200  1
  O  O31  1  0.59175500  0.47261300  0.37991800  1
  O  O32  1  0.75000000  0.81516200  0.28192200  1
  O  O33  1  0.25000000  0.18483800  0.71807800  1
  O  O34  1  0.25000000  0.72950700  0.04301900  1
  O  O35  1  0.75000000  0.27049300  0.95698100  1
loop_
_geom_bond_atom_site_label_1
_geom_bond_atom_site_label_2
_geom_bond_distance
_geom_bond_site_symmetry_2
Na0 O34 2.263223 1_555
Na0 O10 2.337380 1_565
Na0 O26 2.618573 1_564
Na0 O25 2.618573 1_564
Na0 O21 2.622913 1_555
Na0 O18 2.622913 1_555
Na0 O33 2.951897 1_564
Na1 O35 2.263223 1_555
Na1 O11 2.337380 1_545
Na1 O24 2.618573 1_546
Na1 O27 2.618573 1_546
Na1 O19 2.622913 1_555
Na1 O20 2.622913 1_555
Na1 O32 2.951897 1_546
Ga0 O6 1.936229 1_555
Ga0 O35 1.946586 1_554
Ga0 O26 1.962090 1_654
Ga0 O15 1.996958 1_655
Ga0 O16 2.024610 1_555
Ga0 O13 2.153922 1_554
Ga1 O7 1.936229 1_555
Ga1 O34 1.946586 1_556
Ga1 O27 1.962090 1_556
Ga1 O14 1.996958 1_555
Ga1 O17 2.024610 1_555
Ga1 O12 2.153922 1_556
Ga2 O8 1.936229 1_555
Ga2 O34 1.946586 1_556
Ga2 O24 1.962090 1_456
Ga2 O13 1.996958 1_455
Ga2 O17 2.024610 1_555
Ga2 O15 2.153922 1_556
Ga3 O9 1.936229 1_555
Ga3 O35 1.946586 1_554
Ga3 O25 1.962090 1_554
Ga3 O12 1.996958 1_555
Ga3 O16 2.024610 1_555
Ga3 O14 2.153922 1_554
Ga4 O10 1.925692 1_555
Ga4 O25 2.005366 1_554
Ga4 O26 2.005366 1_554
Ga4 O17 2.014940 1_554
Ga4 O12 2.080367 1_555
Ga4 O15 2.080367 1_555
Ga5 O11 1.925692 1_555
Ga5 O24 2.005366 1_556
Ga5 O27 2.005366 1_556
Ga5 O16 2.014940 1_556
Ga5 O13 2.080367 1_555
Ga5 O14 2.080367 1_555
Ga6 O9 1.945123 1_565
Ga6 O10 1.960265 1_565
Ga6 O18 1.972552 1_555
Ga6 O4 2.028052 1_555
Ga6 O0 2.057721 1_565
Ga6 O2 2.123124 1_555
Ga7 O8 1.945123 1_645
Ga7 O11 1.960265 1_545
Ga7 O19 1.972552 1_555
Ga7 O5 2.028052 1_555
Ga7 O1 2.057721 1_545
Ga7 O3 2.123124 1_655
Ga8 O7 1.945123 1_545
Ga8 O11 1.960265 1_545
Ga8 O20 1.972552 1_555
Ga8 O5 2.028052 1_555
Ga8 O2 2.057721 1_545
Ga8 O0 2.123124 1_555
Ga9 O6 1.945123 1_465
Ga9 O10 1.960265 1_565
Ga9 O21 1.972552 1_555
Ga9 O4 2.028052 1_555
Ga9 O3 2.057721 1_565
Ga9 O1 2.123124 1_455
Ga10 O9 1.926873 1_565
Ga10 O6 1.926873 1_565
Ga10 O32 2.046786 1_555
Ga10 O5 2.077900 1_565
Ga10 O1 2.091719 1_555
Ga10 O2 2.091719 1_555
Ga11 O7 1.926873 1_545
Ga11 O8 1.926873 1_545
Ga11 O33 2.046786 1_555
Ga11 O4 2.077900 1_545
Ga11 O0 2.091719 1_555
Ga11 O3 2.091719 1_555
Ga12 O21 1.849782 1_655
Ga12 O24 1.870368 1_555
Ga12 O32 1.871959 1_555
Ga12 O28 1.890526 1_555
Ga13 O20 1.849782 1_555
Ga13 O25 1.870368 1_555
Ga13 O33 1.871959 1_555
Ga13 O29 1.890526 1_555
Ga14 O19 1.849782 1_455
Ga14 O26 1.870368 1_555
Ga14 O33 1.871959 1_555
Ga14 O30 1.890526 1_555
Ga15 O18 1.849782 1_555
Ga15 O27 1.870368 1_555
Ga15 O32 1.871959 1_555
Ga15 O31 1.890526 1_555
Ga16 O31 1.864711 1_555
Ga16 O0 1.869300 1_555
Ga16 O12 1.888118 1_555
Ga16 O22 1.899543 1_555
Ga17 O30 1.864711 1_655
Ga17 O1 1.869300 1_555
Ga17 O13 1.888118 1_555
Ga17 O23 1.899543 1_555
Ga18 O29 1.864711 1_555
Ga18 O2 1.869300 1_555
Ga18 O14 1.888118 1_555
Ga18 O23 1.899543 1_555
Ga19 O28 1.864711 1_455
Ga19 O3 1.869300 1_555
Ga19 O15 1.888118 1_555
Ga19 O22 1.899543 1_555
Ga20 O28 2.026426 1_555
Ga20 O31 2.026426 1_555
Ga20 O23 2.029130 1_555
Ga20 O19 2.037688 1_555
Ga20 O20 2.037688 1_555
Ga20 O5 2.087182 1_555
Ga21 O29 2.026426 1_555
Ga21 O30 2.026426 1_555
Ga21 O22 2.029130 1_555
Ga21 O18 2.037688 1_555
Ga21 O21 2.037688 1_555
Ga21 O4 2.087182 1_555
