# generated using pymatgen
data_BaH(NO2)2
_symmetry_space_group_name_H-M   'P 1'
_cell_length_a   7.07261676
_cell_length_b   7.07261676
_cell_length_c   17.72254900
_cell_angle_alpha   90.00000000
_cell_angle_beta   90.00000000
_cell_angle_gamma   120.00000707
_symmetry_Int_Tables_number   1
_chemical_formula_structural   BaH(NO2)2
_chemical_formula_sum   'Ba6 H6 N12 O24'
_cell_volume   767.74507242
_cell_formula_units_Z   6
loop_
 _symmetry_equiv_pos_site_id
 _symmetry_equiv_pos_as_xyz
  1  'x, y, z'
loop_
 _atom_site_type_symbol
 _atom_site_label
 _atom_site_symmetry_multiplicity
 _atom_site_fract_x
 _atom_site_fract_y
 _atom_site_fract_z
 _atom_site_occupancy
  Ba  Ba0  1  0.56266800  0.15311200  0.99879500  1
  Ba  Ba1  1  0.59044400  0.43733200  0.66546200  1
  Ba  Ba2  1  0.43733200  0.84688800  0.49879500  1
  Ba  Ba3  1  0.84688800  0.40955600  0.33212800  1
  Ba  Ba4  1  0.40955600  0.56266800  0.16546200  1
  Ba  Ba5  1  0.15311200  0.59044400  0.83212800  1
  H  H0  1  0.92573400  0.14616800  0.91505200  1
  H  H1  1  0.22043400  0.07426600  0.58171900  1
  H  H2  1  0.07426600  0.85383200  0.41505200  1
  H  H3  1  0.85383200  0.77956600  0.24838600  1
  H  H4  1  0.77956600  0.92573400  0.08171900  1
  H  H5  1  0.14616800  0.22043400  0.74838600  1
  N  N0  1  0.75559800  0.78739200  0.81271600  1
  N  N1  1  0.03179400  0.24440200  0.47938300  1
  N  N2  1  0.24440200  0.21260800  0.31271600  1
  N  N3  1  0.21260800  0.96820600  0.14605000  1
  N  N4  1  0.96820600  0.75559800  0.97938300  1
  N  N5  1  0.78739200  0.03179400  0.64605000  1
  N  N6  1  0.43763800  0.55129800  0.99131400  1
  N  N7  1  0.11365900  0.56236200  0.65798100  1
  N  N8  1  0.56236200  0.44870200  0.49131400  1
  N  N9  1  0.44870200  0.88634100  0.32464700  1
  N  N10  1  0.88634100  0.43763800  0.15798100  1
  N  N11  1  0.55129800  0.11365900  0.82464700  1
  O  O0  1  0.41686000  0.70967900  0.96680500  1
  O  O1  1  0.29281900  0.58314000  0.63347100  1
  O  O2  1  0.58314000  0.29032100  0.46680500  1
  O  O3  1  0.29032100  0.70718100  0.30013800  1
  O  O4  1  0.70718100  0.41686000  0.13347100  1
  O  O5  1  0.70967900  0.29281900  0.80013800  1
  O  O6  1  0.37444100  0.39230000  0.94625800  1
  O  O7  1  0.01786000  0.62555900  0.61292500  1
  O  O8  1  0.62555900  0.60770000  0.44625800  1
  O  O9  1  0.60770000  0.98214000  0.27959100  1
  O  O10  1  0.98214000  0.37444100  0.11292500  1
  O  O11  1  0.39230000  0.01786000  0.77959100  1
  O  O12  1  0.75634400  0.86314200  0.61069600  1
  O  O13  1  0.10679800  0.24365600  0.27736300  1
  O  O14  1  0.24365600  0.13685800  0.11069600  1
  O  O15  1  0.13685800  0.89320200  0.94402900  1
  O  O16  1  0.89320200  0.75634400  0.77736300  1
  O  O17  1  0.86314200  0.10679800  0.44402900  1
  O  O18  1  0.55825600  0.66592200  0.79012400  1
  O  O19  1  0.10766600  0.44174400  0.45679000  1
  O  O20  1  0.44174400  0.33407800  0.29012400  1
  O  O21  1  0.33407800  0.89233400  0.12345700  1
  O  O22  1  0.89233400  0.55825600  0.95679000  1
  O  O23  1  0.66592200  0.10766600  0.62345700  1
loop_
_geom_bond_atom_site_label_1
_geom_bond_atom_site_label_2
_geom_bond_distance
_geom_bond_site_symmetry_2
Ba0 O22 2.742297 1_555
Ba0 O6 2.784428 1_555
Ba0 O15 2.802647 1_545
Ba0 O21 2.813330 1_546
Ba0 O0 2.826061 1_545
Ba0 O4 2.883500 1_556
Ba0 O14 2.962680 1_556
Ba0 H0 2.987462 1_555
Ba0 H4 3.092929 1_546
Ba0 N11 3.096356 1_555
Ba0 O10 3.270964 1_556
Ba1 O23 2.742297 1_555
Ba1 O7 2.784434 1_655
Ba1 O12 2.802647 1_555
Ba1 O18 2.813330 1_555
Ba1 O1 2.826064 1_555
Ba1 O5 2.883500 1_555
Ba1 O16 2.962679 1_555
Ba1 H1 2.987461 1_555
Ba1 H5 3.092928 1_555
Ba1 N8 3.096356 1_555
Ba1 O11 3.270953 1_555
Ba2 O19 2.742297 1_555
Ba2 O8 2.784428 1_555
Ba2 O17 2.802647 1_565
Ba2 O23 2.813330 1_565
Ba2 O2 2.826061 1_565
Ba2 O1 2.883500 1_555
Ba2 O12 2.962680 1_555
Ba2 H2 2.987462 1_555
Ba2 H1 3.092929 1_565
Ba2 N9 3.096356 1_555
Ba2 O7 3.270964 1_555
Ba3 O20 2.742292 1_555
Ba3 O9 2.784434 1_545
Ba3 O13 2.802641 1_655
Ba3 O19 2.813330 1_655
Ba3 O3 2.826060 1_655
Ba3 O2 2.883514 1_555
Ba3 O17 2.962680 1_555
Ba3 H3 2.987453 1_555
Ba3 H2 3.092928 1_655
Ba3 N10 3.096339 1_555
Ba3 O8 3.270969 1_555
Ba4 O21 2.742297 1_555
Ba4 O10 2.784434 1_455
Ba4 O14 2.802647 1_555
Ba4 O20 2.813330 1_555
Ba4 O4 2.826064 1_555
Ba4 O3 2.883500 1_555
Ba4 O13 2.962679 1_555
Ba4 H4 2.987461 1_555
Ba4 H3 3.092928 1_555
Ba4 N6 3.096356 1_554
Ba4 O9 3.270953 1_555
Ba5 O18 2.742292 1_555
Ba5 O11 2.784434 1_565
Ba5 O16 2.802641 1_455
Ba5 O22 2.813330 1_455
Ba5 O5 2.826060 1_455
Ba5 O0 2.883514 1_555
Ba5 O15 2.962680 1_555
Ba5 H5 2.987453 1_555
Ba5 H0 3.092928 1_455
Ba5 N7 3.096339 1_555
Ba5 O6 3.270969 1_555
N0 O16 1.265562 1_555
N0 O18 1.283490 1_555
N1 O17 1.265571 1_455
N1 O19 1.283495 1_555
N2 O13 1.265562 1_555
N2 O20 1.283490 1_555
N3 O14 1.265571 1_565
N3 O21 1.283495 1_555
N4 O15 1.265571 1_655
N4 O22 1.283495 1_555
N5 O12 1.265571 1_545
N5 O23 1.283495 1_555
N6 O6 1.264649 1_555
N6 O0 1.276580 1_555
N7 O7 1.264639 1_555
N7 O1 1.276593 1_555
N8 O8 1.264649 1_555
N8 O2 1.276580 1_555
N9 O9 1.264647 1_555
N9 O3 1.276584 1_555
N10 O10 1.264639 1_555
N10 O4 1.276593 1_555
N11 O11 1.264647 1_555
N11 O5 1.276584 1_555
