# generated using pymatgen
data_Lu2S3
_symmetry_space_group_name_H-M   'P 1'
_cell_length_a   6.70782039
_cell_length_b   6.70782039
_cell_length_c   18.35412128
_cell_angle_alpha   90.00000000
_cell_angle_beta   90.00000000
_cell_angle_gamma   119.99999891
_symmetry_Int_Tables_number   1
_chemical_formula_structural   Lu2S3
_chemical_formula_sum   'Lu12 S18'
_cell_volume   715.19930573
_cell_formula_units_Z   6
loop_
 _symmetry_equiv_pos_site_id
 _symmetry_equiv_pos_as_xyz
  1  'x, y, z'
loop_
 _atom_site_type_symbol
 _atom_site_label
 _atom_site_symmetry_multiplicity
 _atom_site_fract_x
 _atom_site_fract_y
 _atom_site_fract_z
 _atom_site_occupancy
  Lu  Lu0  1  -0.00000000  -0.00000000  0.45547374  1
  Lu  Lu1  1  -0.00000000  -0.00000000  0.95547374  1
  Lu  Lu2  1  -0.00000000  -0.00000000  0.15665026  1
  Lu  Lu3  1  -0.00000000  -0.00000000  0.65665026  1
  Lu  Lu4  1  0.66666700  0.33333300  0.49012714  1
  Lu  Lu5  1  0.33333300  0.66666700  0.49012714  1
  Lu  Lu6  1  0.33333300  0.66666700  0.99012714  1
  Lu  Lu7  1  0.66666700  0.33333300  0.99012714  1
  Lu  Lu8  1  0.66666700  0.33333300  0.29202134  1
  Lu  Lu9  1  0.33333300  0.66666700  0.29202134  1
  Lu  Lu10  1  0.33333300  0.66666700  0.79202134  1
  Lu  Lu11  1  0.66666700  0.33333300  0.79202134  1
  S  S0  1  0.63371778  0.00000000  0.39460392  1
  S  S1  1  0.36628222  0.36628222  0.39460392  1
  S  S2  1  0.00000000  0.63371778  0.39460392  1
  S  S3  1  0.36628222  -0.00000000  0.89460392  1
  S  S4  1  0.63371778  0.63371778  0.89460392  1
  S  S5  1  -0.00000000  0.36628222  0.89460392  1
  S  S6  1  0.69696002  -0.00000000  0.05217740  1
  S  S7  1  0.30303998  0.30303998  0.05217740  1
  S  S8  1  -0.00000000  0.69696002  0.05217740  1
  S  S9  1  0.30303998  0.00000000  0.55217740  1
  S  S10  1  0.69696002  0.69696002  0.55217740  1
  S  S11  1  0.00000000  0.30303998  0.55217740  1
  S  S12  1  0.33522600  0.00000000  0.22541403  1
  S  S13  1  0.66477400  0.66477400  0.22541403  1
  S  S14  1  0.00000000  0.33522600  0.22541403  1
  S  S15  1  0.66477400  -0.00000000  0.72541403  1
  S  S16  1  0.33522600  0.33522600  0.72541403  1
  S  S17  1  -0.00000000  0.66477400  0.72541403  1
loop_
_geom_bond_atom_site_label_1
_geom_bond_atom_site_label_2
_geom_bond_distance
_geom_bond_site_symmetry_2
Lu0 S11 2.698579 1_555
Lu0 S9 2.698579 1_555
Lu0 S10 2.698579 1_445
Lu0 S2 2.699035 1_545
Lu0 S0 2.699035 1_455
Lu0 S1 2.699035 1_555
Lu1 S6 2.698579 1_456
Lu1 S8 2.698579 1_546
Lu1 S7 2.698579 1_556
Lu1 S5 2.699035 1_555
Lu1 S3 2.699035 1_555
Lu1 S4 2.699035 1_445
Lu2 S12 2.578615 1_555
Lu2 S14 2.578615 1_555
Lu2 S13 2.578615 1_445
Lu2 S6 2.794433 1_455
Lu2 S8 2.794433 1_545
Lu2 S7 2.794433 1_555
Lu3 S15 2.578615 1_455
Lu3 S17 2.578615 1_545
Lu3 S16 2.578615 1_555
Lu3 S9 2.794433 1_555
Lu3 S11 2.794433 1_555
Lu3 S10 2.794433 1_445
Lu4 S11 2.606165 1_655
Lu4 S9 2.606168 1_555
Lu4 S10 2.606171 1_555
Lu4 S0 2.761875 1_555
Lu4 S2 2.761877 1_655
Lu4 S1 2.761880 1_555
Lu5 S9 2.606165 1_565
Lu5 S11 2.606168 1_555
Lu5 S10 2.606171 1_555
Lu5 S2 2.761875 1_555
Lu5 S0 2.761877 1_565
Lu5 S1 2.761880 1_555
Lu6 S8 2.606165 1_556
Lu6 S6 2.606168 1_566
Lu6 S7 2.606171 1_556
Lu6 S3 2.761875 1_565
Lu6 S5 2.761877 1_555
Lu6 S4 2.761880 1_555
Lu7 S6 2.606165 1_556
Lu7 S8 2.606168 1_656
Lu7 S7 2.606171 1_556
Lu7 S5 2.761875 1_655
Lu7 S3 2.761877 1_555
Lu7 S4 2.761880 1_555
Lu8 S14 2.542782 1_655
Lu8 S12 2.542785 1_555
Lu8 S13 2.542788 1_555
Lu8 S0 2.845887 1_555
Lu8 S2 2.845889 1_655
Lu8 S1 2.845892 1_555
Lu9 S12 2.542782 1_565
Lu9 S14 2.542785 1_555
Lu9 S13 2.542788 1_555
Lu9 S2 2.845887 1_555
Lu9 S0 2.845889 1_565
Lu9 S1 2.845892 1_555
Lu10 S17 2.542782 1_555
Lu10 S15 2.542785 1_565
Lu10 S16 2.542788 1_555
Lu10 S3 2.845887 1_565
Lu10 S5 2.845889 1_555
Lu10 S4 2.845892 1_555
Lu11 S15 2.542782 1_555
Lu11 S17 2.542785 1_655
Lu11 S16 2.542788 1_555
Lu11 S5 2.845887 1_655
Lu11 S3 2.845889 1_555
Lu11 S4 2.845892 1_555
