# generated using pymatgen
data_Li10Zn(PS4)4
_symmetry_space_group_name_H-M   'P 1'
_cell_length_a   6.17888700
_cell_length_b   7.89918096
_cell_length_c   13.00067592
_cell_angle_alpha   89.94091851
_cell_angle_beta   89.84089328
_cell_angle_gamma   89.82237164
_symmetry_Int_Tables_number   1
_chemical_formula_structural   Li10Zn(PS4)4
_chemical_formula_sum   'Li10 Zn1 P4 S16'
_cell_volume   634.53306802
_cell_formula_units_Z   1
loop_
 _symmetry_equiv_pos_site_id
 _symmetry_equiv_pos_as_xyz
  1  'x, y, z'
loop_
 _atom_site_type_symbol
 _atom_site_label
 _atom_site_symmetry_multiplicity
 _atom_site_fract_x
 _atom_site_fract_y
 _atom_site_fract_z
 _atom_site_occupancy
  Li  Li0  1  0.99990400  0.74943900  0.84178600  1
  Li  Li1  1  0.49866400  0.75416800  0.65392400  1
  Li  Li2  1  0.49473300  0.74073200  0.15997900  1
  Li  Li3  1  0.49117600  0.25080800  0.64922000  1
  Li  Li4  1  0.49907900  0.25367000  0.16091100  1
  Li  Li5  1  0.99358700  0.23750500  0.83874500  1
  Li  Li6  1  0.00183100  0.24110800  0.34922100  1
  Li  Li7  1  0.48648600  0.99937700  0.92442000  1
  Li  Li8  1  0.98533900  0.50020500  0.57349300  1
  Li  Li9  1  0.99365000  0.48957900  0.07534600  1
  Zn  Zn0  1  0.00186400  0.76890700  0.34999500  1
  P  P0  1  0.00588200  0.99605400  0.58878000  1
  P  P1  1  0.00412600  0.00039700  0.09417800  1
  P  P2  1  0.50075500  0.49699900  0.90891900  1
  P  P3  1  0.48378300  0.50932000  0.40709000  1
  S  S0  1  0.88972400  0.99193800  0.94630800  1
  S  S1  1  0.86713400  0.99830600  0.44215700  1
  S  S2  1  0.33168300  0.99961100  0.58471700  1
  S  S3  1  0.33615400  0.99815400  0.09733100  1
  S  S4  1  0.89173700  0.78172200  0.66279000  1
  S  S5  1  0.89411800  0.78151600  0.16995200  1
  S  S6  1  0.39315900  0.71387500  0.83706000  1
  S  S7  1  0.38437600  0.73452400  0.34070300  1
  S  S8  1  0.83478000  0.49414400  0.90487700  1
  S  S9  1  0.82781900  0.51096600  0.39706600  1
  S  S10  1  0.38900000  0.50710600  0.55835300  1
  S  S11  1  0.39331000  0.49639400  0.05937900  1
  S  S12  1  0.38974800  0.28323900  0.83526600  1
  S  S13  1  0.38928800  0.29412200  0.33824500  1
  S  S14  1  0.88509100  0.21308500  0.65811500  1
  S  S15  1  0.89250000  0.21303000  0.16734400  1
loop_
_geom_bond_atom_site_label_1
_geom_bond_atom_site_label_2
_geom_bond_distance
_geom_bond_site_symmetry_2
Li0 S8 2.405246 1_555
Li0 S4 2.435843 1_555
Li0 S0 2.443648 1_555
Li0 S6 2.445808 1_655
Li1 S2 2.371106 1_555
Li1 S10 2.414433 1_555
Li1 S4 2.442210 1_555
Li1 S6 2.487173 1_555
Li2 S3 2.397273 1_555
Li2 S11 2.417783 1_555
Li2 S7 2.445149 1_555
Li2 S5 2.493432 1_555
Li3 S2 2.373143 1_545
Li3 S10 2.425736 1_555
Li3 S14 2.454242 1_555
Li3 S12 2.510076 1_555
Li4 S3 2.406479 1_545
Li4 S11 2.416069 1_555
Li4 S13 2.422593 1_555
Li4 S15 2.452668 1_555
Li5 S8 2.407968 1_555
Li5 S14 2.451872 1_555
Li5 S0 2.475325 1_545
Li5 S12 2.475739 1_655
Li6 S1 2.414648 1_445
Li6 S13 2.435449 1_555
Li6 S9 2.464089 1_455
Li6 S15 2.471317 1_455
Li7 S3 2.429950 1_556
Li7 S0 2.509044 1_555
Li7 S12 2.592045 1_565
Li7 S6 2.593355 1_555
Li8 S9 2.495384 1_555
Li8 S10 2.502143 1_655
Li8 S4 2.573118 1_555
Li8 S14 2.595700 1_555
Li9 S8 2.426564 1_554
Li9 S11 2.478335 1_655
Li9 S15 2.567515 1_555
Li9 S5 2.683610 1_555
P0 S2 2.013916 1_555
P0 S4 2.071209 1_455
P0 S14 2.073678 1_465
P0 S1 2.092318 1_455
P1 S15 2.047957 1_455
P1 S0 2.051318 1_444
P1 S3 2.052108 1_545
P1 S5 2.102833 1_445
P2 S6 2.059780 1_555
P2 S12 2.062191 1_555
P2 S11 2.063932 1_556
P2 S8 2.064480 1_555
P3 S13 2.010921 1_555
P3 S10 2.050390 1_555
P3 S7 2.068757 1_555
P3 S9 2.129468 1_555
S1 Zn0 2.324176 1_655
S5 Zn0 2.437148 1_655
S7 Zn0 2.380963 1_555
S9 Zn0 2.385339 1_655
