# generated using pymatgen
data_Mg14MnCu
_symmetry_space_group_name_H-M   'P 1'
_cell_length_a   6.25944036
_cell_length_b   6.25943987
_cell_length_c   9.94114868
_cell_angle_alpha   90.00000000
_cell_angle_beta   90.00000000
_cell_angle_gamma   120.00000259
_symmetry_Int_Tables_number   1
_chemical_formula_structural   Mg14MnCu
_chemical_formula_sum   'Mg14 Mn1 Cu1'
_cell_volume   337.31695188
_cell_formula_units_Z   1
loop_
 _symmetry_equiv_pos_site_id
 _symmetry_equiv_pos_as_xyz
  1  'x, y, z'
loop_
 _atom_site_type_symbol
 _atom_site_label
 _atom_site_symmetry_multiplicity
 _atom_site_fract_x
 _atom_site_fract_y
 _atom_site_fract_z
 _atom_site_occupancy
  Mg  Mg0  1  0.16839511  0.83419705  0.12500000  1
  Mg  Mg1  1  0.16552965  0.83276432  0.62500000  1
  Mg  Mg2  1  0.66580295  0.33160489  0.12500000  1
  Mg  Mg3  1  0.66723568  0.33447035  0.62500000  1
  Mg  Mg4  1  0.66580295  0.83419705  0.12500000  1
  Mg  Mg5  1  0.66723568  0.83276432  0.62500000  1
  Mg  Mg6  1  0.32791560  0.17208440  0.37678155  1
  Mg  Mg7  1  0.32791560  0.17208440  0.87321845  1
  Mg  Mg8  1  0.32791560  0.65583221  0.37678155  1
  Mg  Mg9  1  0.32791560  0.65583221  0.87321845  1
  Mg  Mg10  1  0.84416779  0.17208440  0.37678155  1
  Mg  Mg11  1  0.84416779  0.17208440  0.87321845  1
  Mg  Mg12  1  0.83333300  0.66666700  0.37457500  1
  Mg  Mg13  1  0.83333300  0.66666700  0.87542500  1
  Mn  Mn0  1  0.16666700  0.33333300  0.12500000  1
  Cu  Cu0  1  0.16666700  0.33333300  0.62500000  1
loop_
_geom_bond_atom_site_label_1
_geom_bond_atom_site_label_2
_geom_bond_distance
_geom_bond_site_symmetry_2
Mg0 Mg12 3.074845 1_455
Mg0 Mg13 3.074845 1_454
Mg0 Mg8 3.102146 1_555
Mg0 Mg9 3.102146 1_554
Mg0 Mg6 3.102152 1_565
Mg0 Mg7 3.102152 1_564
Mg0 Mg2 3.113494 1_565
Mg0 Mg4 3.113495 1_555
Mg0 Mn0 3.129734 1_555
Mg0 Mn0 3.129734 1_565
Mg0 Mg2 3.145945 1_455
Mg0 Mg4 3.145946 1_455
Mg1 Mg13 3.072538 1_455
Mg1 Mg12 3.072538 1_455
Mg1 Mg9 3.078043 1_555
Mg1 Mg8 3.078043 1_555
Mg1 Mg6 3.078050 1_565
Mg1 Mg7 3.078050 1_565
Mg1 Mg3 3.119041 1_455
Mg1 Mg5 3.119041 1_455
Mg1 Mg3 3.140399 1_565
Mg1 Mg5 3.140399 1_555
Mg2 Mg7 3.102153 1_554
Mg2 Mg6 3.102153 1_555
Mg2 Mg4 3.113494 1_545
Mg2 Mn0 3.129734 1_655
Mg2 Mn0 3.129734 1_555
Mg2 Mg4 3.145945 1_555
Mg3 Mg7 3.078050 1_555
Mg3 Mg6 3.078050 1_555
Mg3 Mg5 3.119041 1_555
Mg3 Mg5 3.140399 1_545
Mg4 Mg8 3.102152 1_555
Mg4 Mg9 3.102152 1_554
Mg4 Mn0 3.129734 1_555
Mg4 Mn0 3.129734 1_665
Mg5 Mg9 3.078050 1_555
Mg5 Mg8 3.078050 1_555
Mg6 Mg8 3.027990 1_555
Mg6 Mn0 3.053066 1_555
Mg6 Mg8 3.231450 1_545
Mg7 Mg9 3.027990 1_555
Mg7 Mn0 3.053066 1_556
Mg7 Mg9 3.231450 1_545
Mg8 Mn0 3.053073 1_555
Mg9 Mn0 3.053073 1_556
Mg10 Mg8 3.027990 1_655
Mg10 Mg6 3.027991 1_655
Mg10 Mn0 3.053073 1_655
Mg10 Mg3 3.078043 1_555
Mg10 Mg5 3.078050 1_545
Mg10 Mg2 3.102146 1_555
Mg10 Mg4 3.102152 1_545
Mg10 Mg12 3.130348 1_555
Mg10 Mg12 3.130348 1_545
Mg10 Mg8 3.231450 1_545
Mg10 Mg6 3.231450 1_555
Mg11 Mg9 3.027990 1_655
Mg11 Mg7 3.027991 1_655
Mg11 Mn0 3.053073 1_656
Mg11 Mg3 3.078043 1_555
Mg11 Mg5 3.078050 1_545
Mg11 Mg2 3.102146 1_556
Mg11 Mg4 3.102152 1_546
Mg11 Mg13 3.130348 1_555
Mg11 Mg13 3.130348 1_545
Mg11 Mg9 3.231450 1_545
Mg11 Mg7 3.231450 1_555
Mg12 Mg5 3.072532 1_555
Mg12 Mg3 3.072538 1_555
Mg12 Mg4 3.074839 1_555
Mg12 Mg2 3.074845 1_555
Mg12 Mg6 3.130348 1_665
Mg12 Mg6 3.130348 1_555
Mg12 Mg8 3.130348 1_655
Mg12 Mg8 3.130348 1_555
Mg13 Mg5 3.072532 1_555
Mg13 Mg3 3.072538 1_555
Mg13 Mg4 3.074839 1_556
Mg13 Mg2 3.074845 1_556
Mg13 Mg7 3.130348 1_665
Mg13 Mg7 3.130348 1_555
Mg13 Mg9 3.130348 1_655
Mg13 Mg9 3.130348 1_555
Cu0 Mg7 3.024095 1_555
Cu0 Mg6 3.024095 1_555
Cu0 Mg9 3.024101 1_555
Cu0 Mg8 3.024101 1_555
Cu0 Mg11 3.024101 1_455
Cu0 Mg10 3.024101 1_455
Cu0 Mg1 3.129726 1_555
Cu0 Mg5 3.129726 1_445
Cu0 Mg5 3.129726 1_555
Cu0 Mg1 3.129726 1_545
Cu0 Mg3 3.129726 1_455
Cu0 Mg3 3.129726 1_555
