# generated using pymatgen
data_Tm3Sc2Al3O12
_symmetry_space_group_name_H-M   'P 1'
_cell_length_a   10.69022451
_cell_length_b   10.69022451
_cell_length_c   10.69022451
_cell_angle_alpha   109.47122063
_cell_angle_beta   109.47122063
_cell_angle_gamma   109.47122063
_symmetry_Int_Tables_number   1
_chemical_formula_structural   Tm3Sc2Al3O12
_chemical_formula_sum   'Tm12 Sc8 Al12 O48'
_cell_volume   940.45623029
_cell_formula_units_Z   4
loop_
 _symmetry_equiv_pos_site_id
 _symmetry_equiv_pos_as_xyz
  1  'x, y, z'
loop_
 _atom_site_type_symbol
 _atom_site_label
 _atom_site_symmetry_multiplicity
 _atom_site_fract_x
 _atom_site_fract_y
 _atom_site_fract_z
 _atom_site_occupancy
  Tm  Tm0  1  0.25000000  0.37500000  0.12500000  1
  Tm  Tm1  1  0.75000000  0.62500000  0.87500000  1
  Tm  Tm2  1  0.75000000  0.12500000  0.37500000  1
  Tm  Tm3  1  0.12500000  0.25000000  0.37500000  1
  Tm  Tm4  1  0.37500000  0.75000000  0.12500000  1
  Tm  Tm5  1  0.25000000  0.87500000  0.62500000  1
  Tm  Tm6  1  0.87500000  0.75000000  0.62500000  1
  Tm  Tm7  1  0.62500000  0.25000000  0.87500000  1
  Tm  Tm8  1  0.37500000  0.12500000  0.25000000  1
  Tm  Tm9  1  0.62500000  0.87500000  0.75000000  1
  Tm  Tm10  1  0.12500000  0.37500000  0.75000000  1
  Tm  Tm11  1  0.87500000  0.62500000  0.25000000  1
  Sc  Sc0  1  0.00000000  0.00000000  0.00000000  1
  Sc  Sc1  1  0.50000000  0.00000000  0.50000000  1
  Sc  Sc2  1  0.00000000  0.50000000  0.50000000  1
  Sc  Sc3  1  0.50000000  0.00000000  0.00000000  1
  Sc  Sc4  1  0.50000000  0.50000000  0.00000000  1
  Sc  Sc5  1  0.50000000  0.50000000  0.50000000  1
  Sc  Sc6  1  0.00000000  0.00000000  0.50000000  1
  Sc  Sc7  1  0.00000000  0.50000000  0.00000000  1
  Al  Al0  1  0.25000000  0.62500000  0.37500000  1
  Al  Al1  1  0.75000000  0.37500000  0.62500000  1
  Al  Al2  1  0.75000000  0.87500000  0.12500000  1
  Al  Al3  1  0.37500000  0.25000000  0.62500000  1
  Al  Al4  1  0.62500000  0.75000000  0.37500000  1
  Al  Al5  1  0.25000000  0.12500000  0.87500000  1
  Al  Al6  1  0.12500000  0.75000000  0.87500000  1
  Al  Al7  1  0.87500000  0.25000000  0.12500000  1
  Al  Al8  1  0.62500000  0.37500000  0.25000000  1
  Al  Al9  1  0.37500000  0.62500000  0.75000000  1
  Al  Al10  1  0.87500000  0.12500000  0.75000000  1
  Al  Al11  1  0.12500000  0.87500000  0.25000000  1
  O  O0  1  0.47198400  0.37273200  0.28440500  1
  O  O1  1  0.52801600  0.62726800  0.71559500  1
  O  O2  1  0.58832800  0.18758000  0.21559500  1
  O  O3  1  0.91167200  0.12726800  0.59925200  1
  O  O4  1  0.28440500  0.47198400  0.37273200  1
  O  O5  1  0.31242000  0.91167200  0.28440500  1
  O  O6  1  0.41167200  0.81242000  0.78440500  1
  O  O7  1  0.08832800  0.87273200  0.40074800  1
  O  O8  1  0.71559500  0.52801600  0.62726800  1
  O  O9  1  0.68758000  0.08832800  0.71559500  1
  O  O10  1  0.02801600  0.31242000  0.90074800  1
  O  O11  1  0.21559500  0.58832800  0.18758000  1
  O  O12  1  0.12726800  0.02801600  0.21559500  1
  O  O13  1  0.97198400  0.68758000  0.09925200  1
  O  O14  1  0.78440500  0.41167200  0.81242000  1
  O  O15  1  0.87273200  0.97198400  0.78440500  1
  O  O16  1  0.59925200  0.91167200  0.12726800  1
  O  O17  1  0.18758000  0.47198400  0.59925200  1
  O  O18  1  0.40074800  0.08832800  0.87273200  1
  O  O19  1  0.81242000  0.52801600  0.40074800  1
  O  O20  1  0.90074800  0.02801600  0.31242000  1
  O  O21  1  0.37273200  0.58832800  0.90074800  1
  O  O22  1  0.09925200  0.97198400  0.68758000  1
  O  O23  1  0.62726800  0.41167200  0.09925200  1
  O  O24  1  0.37273200  0.28440500  0.47198400  1
  O  O25  1  0.58832800  0.90074800  0.37273200  1
  O  O26  1  0.62726800  0.71559500  0.52801600  1
  O  O27  1  0.41167200  0.09925200  0.62726800  1
  O  O28  1  0.12726800  0.59925200  0.91167200  1
  O  O29  1  0.02801600  0.21559500  0.12726800  1
  O  O30  1  0.87273200  0.40074800  0.08832800  1
  O  O31  1  0.97198400  0.78440500  0.87273200  1
  O  O32  1  0.31242000  0.90074800  0.02801600  1
  O  O33  1  0.91167200  0.28440500  0.31242000  1
  O  O34  1  0.68758000  0.09925200  0.97198400  1
  O  O35  1  0.08832800  0.71559500  0.68758000  1
  O  O36  1  0.18758000  0.21559500  0.58832800  1
  O  O37  1  0.47198400  0.59925200  0.18758000  1
  O  O38  1  0.81242000  0.78440500  0.41167200  1
  O  O39  1  0.52801600  0.40074800  0.81242000  1
  O  O40  1  0.28440500  0.31242000  0.91167200  1
  O  O41  1  0.71559500  0.68758000  0.08832800  1
  O  O42  1  0.21559500  0.12726800  0.02801600  1
  O  O43  1  0.78440500  0.87273200  0.97198400  1
  O  O44  1  0.90074800  0.37273200  0.58832800  1
  O  O45  1  0.09925200  0.62726800  0.41167200  1
  O  O46  1  0.59925200  0.18758000  0.47198400  1
  O  O47  1  0.40074800  0.81242000  0.52801600  1
loop_
_geom_bond_atom_site_label_1
_geom_bond_atom_site_label_2
_geom_bond_distance
_geom_bond_site_symmetry_2
Al0 O11 1.786670 1_555
Al0 O45 1.786672 1_555
Al0 O47 1.786672 1_555
Al0 O4 1.786678 1_555
Al1 O14 1.786670 1_555
Al1 O46 1.786672 1_555
Al1 O44 1.786672 1_555
Al1 O8 1.786678 1_555
Al2 O41 1.786670 1_555
Al2 O20 1.786672 1_565
Al2 O16 1.786672 1_555
Al2 O43 1.786678 1_554
Al3 O36 1.786670 1_555
Al3 O27 1.786672 1_555
Al3 O39 1.786672 1_555
Al3 O24 1.786678 1_555
Al4 O38 1.786670 1_555
Al4 O37 1.786672 1_555
Al4 O25 1.786672 1_555
Al4 O26 1.786678 1_555
Al5 O40 1.786670 1_555
Al5 O22 1.786672 1_545
Al5 O18 1.786672 1_555
Al5 O42 1.786678 1_556
Al6 O35 1.786670 1_555
Al6 O32 1.786672 1_556
Al6 O28 1.786672 1_555
Al6 O31 1.786678 1_455
Al7 O33 1.786670 1_555
Al7 O30 1.786672 1_555
Al7 O34 1.786672 1_554
Al7 O29 1.786678 1_655
Al8 O2 1.786670 1_555
Al8 O23 1.786672 1_555
Al8 O19 1.786672 1_555
Al8 O0 1.786678 1_555
Al9 O6 1.786670 1_555
Al9 O17 1.786672 1_555
Al9 O21 1.786672 1_555
Al9 O1 1.786678 1_555
Al10 O9 1.786670 1_555
Al10 O3 1.786672 1_555
Al10 O10 1.786672 1_655
Al10 O15 1.786678 1_545
Al11 O5 1.786670 1_555
Al11 O7 1.786672 1_555
Al11 O13 1.786672 1_455
Al11 O12 1.786678 1_565
O0 Sc5 2.104841 1_555
O0 Tm8 2.343007 1_555
O0 Tm0 2.430197 1_555
O1 Sc5 2.104841 1_555
O1 Tm9 2.343007 1_555
O1 Tm1 2.430197 1_555
O2 Sc3 2.104843 1_555
O2 Tm8 2.343017 1_555
O2 Tm2 2.430199 1_555
O3 Sc6 2.104850 1_655
O3 Tm10 2.343011 1_655
O3 Tm2 2.430193 1_555
O4 Sc5 2.104841 1_555
O4 Tm0 2.343007 1_555
O4 Tm3 2.430197 1_555
O5 Sc1 2.104843 1_565
O5 Tm8 2.343017 1_565
O5 Tm4 2.430199 1_555
O6 Sc3 2.104843 1_566
O6 Tm9 2.343017 1_555
O6 Tm5 2.430199 1_555
O7 Sc6 2.104850 1_565
O7 Tm11 2.343011 1_455
O7 Tm5 2.430193 1_555
O8 Sc5 2.104841 1_555
O8 Tm1 2.343007 1_555
O8 Tm6 2.430197 1_555
O9 Sc1 2.104843 1_555
O9 Tm9 2.343017 1_545
O9 Tm7 2.430199 1_555
O10 Sc7 2.104850 1_556
O10 Tm10 2.343011 1_555
O10 Tm0 2.430193 1_556
O11 Sc7 2.104843 1_555
O11 Tm0 2.343017 1_555
O11 Tm4 2.430199 1_555
O12 Sc0 2.104841 1_555
O12 Tm8 2.343007 1_555
O12 Tm3 2.430197 1_555
O13 Sc7 2.104850 1_655
O13 Tm11 2.343011 1_555
O13 Tm1 2.430193 1_554
O14 Sc7 2.104843 1_656
O14 Tm1 2.343017 1_555
O14 Tm7 2.430199 1_555
O15 Sc0 2.104841 1_666
O15 Tm9 2.343007 1_555
O15 Tm6 2.430197 1_555
O16 Sc3 2.104850 1_565
O16 Tm2 2.343011 1_565
O16 Tm4 2.430193 1_555
O17 Sc2 2.104850 1_555
O17 Tm10 2.343011 1_555
O17 Tm3 2.430193 1_555
O18 Sc3 2.104850 1_556
O18 Tm5 2.343011 1_545
O18 Tm7 2.430193 1_555
O19 Sc2 2.104850 1_655
O19 Tm11 2.343011 1_555
O19 Tm6 2.430193 1_555
O20 Sc6 2.104850 1_655
O20 Tm2 2.343011 1_555
O20 Tm3 2.430193 1_655
O21 Sc4 2.104850 1_556
O21 Tm10 2.343011 1_555
O21 Tm4 2.430193 1_556
O22 Sc6 2.104850 1_565
O22 Tm5 2.343011 1_555
O22 Tm6 2.430193 1_455
O23 Sc4 2.104850 1_555
O23 Tm11 2.343011 1_555
O23 Tm7 2.430193 1_554
O24 Sc5 2.104841 1_555
O24 Tm3 2.343007 1_555
O24 Tm8 2.430197 1_555
O25 Sc1 2.104850 1_565
O25 Tm4 2.343011 1_555
O25 Tm2 2.430193 1_565
O26 Sc5 2.104841 1_555
O26 Tm6 2.343007 1_555
O26 Tm9 2.430197 1_555
O27 Sc1 2.104850 1_555
O27 Tm7 2.343011 1_555
O27 Tm5 2.430193 1_545
O28 Sc7 2.104850 1_556
O28 Tm4 2.343011 1_556
O28 Tm10 2.430193 1_555
O29 Sc0 2.104841 1_555
O29 Tm3 2.343007 1_555
O29 Tm0 2.430197 1_555
O30 Sc7 2.104850 1_655
O30 Tm7 2.343011 1_554
O30 Tm11 2.430193 1_555
O31 Sc0 2.104841 1_666
O31 Tm6 2.343007 1_555
O31 Tm1 2.430197 1_555
O32 Sc3 2.104850 1_565
O32 Tm4 2.343011 1_555
O32 Tm8 2.430193 1_565
O33 Sc2 2.104843 1_655
O33 Tm3 2.343017 1_655
O33 Tm2 2.430199 1_555
O34 Sc3 2.104850 1_556
O34 Tm7 2.343011 1_555
O34 Tm9 2.430193 1_545
O35 Sc2 2.104843 1_555
O35 Tm6 2.343017 1_455
O35 Tm5 2.430199 1_555
O36 Sc6 2.104843 1_555
O36 Tm3 2.343017 1_555
O36 Tm10 2.430199 1_555
O37 Sc4 2.104850 1_555
O37 Tm4 2.343011 1_555
O37 Tm0 2.430193 1_555
O38 Sc6 2.104843 1_665
O38 Tm6 2.343017 1_555
O38 Tm11 2.430199 1_555
O39 Sc4 2.104850 1_556
O39 Tm7 2.343011 1_555
O39 Tm1 2.430193 1_555
O40 Sc4 2.104843 1_556
O40 Tm0 2.343017 1_556
O40 Tm10 2.430199 1_555
O41 Sc4 2.104843 1_555
O41 Tm1 2.343017 1_554
O41 Tm11 2.430199 1_555
O42 Sc0 2.104841 1_555
O42 Tm0 2.343007 1_555
O42 Tm8 2.430197 1_555
O43 Sc0 2.104841 1_666
O43 Tm1 2.343007 1_555
O43 Tm9 2.430197 1_555
O44 Sc2 2.104850 1_655
O44 Tm2 2.343011 1_555
O44 Tm10 2.430193 1_655
O45 Sc2 2.104850 1_555
O45 Tm5 2.343011 1_555
O45 Tm11 2.430193 1_455
O46 Sc1 2.104850 1_555
O46 Tm2 2.343011 1_555
O46 Tm8 2.430193 1_555
O47 Sc1 2.104850 1_565
O47 Tm5 2.343011 1_555
O47 Tm9 2.430193 1_555
