# generated using pymatgen
data_SiPt3
_symmetry_space_group_name_H-M   'P 1'
_cell_length_a   5.50269700
_cell_length_b   5.50269700
_cell_length_c   3.98930400
_cell_angle_alpha   90.00000000
_cell_angle_beta   90.00000000
_cell_angle_gamma   90.00000000
_symmetry_Int_Tables_number   1
_chemical_formula_structural   SiPt3
_chemical_formula_sum   'Si2 Pt6'
_cell_volume   120.79482570
_cell_formula_units_Z   2
loop_
 _symmetry_equiv_pos_site_id
 _symmetry_equiv_pos_as_xyz
  1  'x, y, z'
loop_
 _atom_site_type_symbol
 _atom_site_label
 _atom_site_symmetry_multiplicity
 _atom_site_fract_x
 _atom_site_fract_y
 _atom_site_fract_z
 _atom_site_occupancy
  Si  Si0  1  0.00000000  0.50000000  0.50000000  1
  Si  Si1  1  0.50000000  0.00000000  0.50000000  1
  Pt  Pt0  1  0.81655500  0.31655500  0.00000000  1
  Pt  Pt1  1  0.18344500  0.68344500  0.00000000  1
  Pt  Pt2  1  0.31655500  0.18344500  0.00000000  1
  Pt  Pt3  1  0.68344500  0.81655500  0.00000000  1
  Pt  Pt4  1  0.50000000  0.50000000  0.50000000  1
  Pt  Pt5  1  0.00000000  0.00000000  0.50000000  1
loop_
_geom_bond_atom_site_label_1
_geom_bond_atom_site_label_2
_geom_bond_distance
_geom_bond_site_symmetry_2
Pt0 Si0 2.452873 1_654
Pt0 Si0 2.452873 1_655
Pt0 Pt5 2.834051 1_654
Pt0 Pt5 2.834051 1_655
Pt0 Pt4 2.834051 1_555
Pt0 Pt4 2.834051 1_554
Pt1 Si0 2.452873 1_555
Pt1 Si0 2.452873 1_554
Pt1 Pt4 2.834051 1_555
Pt1 Pt5 2.834051 1_565
Pt1 Pt5 2.834051 1_564
Pt1 Pt4 2.834051 1_554
Pt2 Si1 2.452873 1_555
Pt2 Si1 2.452873 1_554
Pt2 Pt5 2.834051 1_554
Pt2 Pt5 2.834051 1_555
Pt2 Pt4 2.834051 1_555
Pt2 Pt4 2.834051 1_554
Pt3 Si1 2.452873 1_565
Pt3 Si1 2.452873 1_564
Pt3 Pt4 2.834051 1_554
Pt3 Pt4 2.834051 1_555
Pt3 Pt5 2.834051 1_664
Pt3 Pt5 2.834051 1_665
Pt4 Si1 2.751349 1_555
Pt4 Si1 2.751349 1_565
Pt4 Si0 2.751349 1_555
Pt4 Si0 2.751349 1_655
Pt5 Si1 2.751349 1_555
Pt5 Si1 2.751349 1_455
Pt5 Si0 2.751349 1_555
Pt5 Si0 2.751349 1_545
