# generated using pymatgen
data_Nd2Co7
_symmetry_space_group_name_H-M   'P 1'
_cell_length_a   5.05557800
_cell_length_b   5.05557802
_cell_length_c   24.48007000
_cell_angle_alpha   90.00000000
_cell_angle_beta   90.00000000
_cell_angle_gamma   119.99999988
_symmetry_Int_Tables_number   1
_chemical_formula_structural   Nd2Co7
_chemical_formula_sum   'Nd8 Co28'
_cell_volume   541.85728885
_cell_formula_units_Z   4
loop_
 _symmetry_equiv_pos_site_id
 _symmetry_equiv_pos_as_xyz
  1  'x, y, z'
loop_
 _atom_site_type_symbol
 _atom_site_label
 _atom_site_symmetry_multiplicity
 _atom_site_fract_x
 _atom_site_fract_y
 _atom_site_fract_z
 _atom_site_occupancy
  Nd  Nd0  1  0.33333300  0.66666700  0.47225400  1
  Nd  Nd1  1  0.66666700  0.33333300  0.52774600  1
  Nd  Nd2  1  0.66666700  0.33333300  0.97225400  1
  Nd  Nd3  1  0.33333300  0.66666700  0.02774600  1
  Nd  Nd4  1  0.33333300  0.66666700  0.32679600  1
  Nd  Nd5  1  0.66666700  0.33333300  0.67320400  1
  Nd  Nd6  1  0.66666700  0.33333300  0.82679600  1
  Nd  Nd7  1  0.33333300  0.66666700  0.17320400  1
  Co  Co0  1  0.00000000  0.00000000  0.50000000  1
  Co  Co1  1  0.00000000  0.00000000  0.00000000  1
  Co  Co2  1  0.83348700  0.16651300  0.25000000  1
  Co  Co3  1  0.83348700  0.66697400  0.25000000  1
  Co  Co4  1  0.33302600  0.16651300  0.25000000  1
  Co  Co5  1  0.16651300  0.83348700  0.75000000  1
  Co  Co6  1  0.16651300  0.33302600  0.75000000  1
  Co  Co7  1  0.66697400  0.83348700  0.75000000  1
  Co  Co8  1  0.83433600  0.16566400  0.41135500  1
  Co  Co9  1  0.83433600  0.66867200  0.41135500  1
  Co  Co10  1  0.33132800  0.16566400  0.41135500  1
  Co  Co11  1  0.16566400  0.83433600  0.58864500  1
  Co  Co12  1  0.16566400  0.33132800  0.58864500  1
  Co  Co13  1  0.66867200  0.83433600  0.58864500  1
  Co  Co14  1  0.16566400  0.83433600  0.91135500  1
  Co  Co15  1  0.16566400  0.33132800  0.91135500  1
  Co  Co16  1  0.66867200  0.83433600  0.91135500  1
  Co  Co17  1  0.83433600  0.16566400  0.08864500  1
  Co  Co18  1  0.83433600  0.66867200  0.08864500  1
  Co  Co19  1  0.33132800  0.16566400  0.08864500  1
  Co  Co20  1  0.00000000  0.00000000  0.33171800  1
  Co  Co21  1  0.00000000  0.00000000  0.66828200  1
  Co  Co22  1  0.00000000  0.00000000  0.83171800  1
  Co  Co23  1  0.00000000  0.00000000  0.16828200  1
  Co  Co24  1  0.33333300  0.66666700  0.66834100  1
  Co  Co25  1  0.66666700  0.33333300  0.33165900  1
  Co  Co26  1  0.66666700  0.33333300  0.16834100  1
  Co  Co27  1  0.33333300  0.66666700  0.83165900  1
loop_
_geom_bond_atom_site_label_1
_geom_bond_atom_site_label_2
_geom_bond_distance
_geom_bond_site_symmetry_2
Co0 Co8 2.610251 1_455
Co0 Co11 2.610251 1_545
Co0 Co13 2.610251 1_445
Co0 Co10 2.610251 1_555
Co0 Co12 2.610251 1_555
Co0 Co9 2.610251 1_445
Co0 Nd0 2.996824 1_545
Co0 Nd1 2.996824 1_455
Co0 Nd0 2.996828 1_445
Co0 Nd1 2.996828 1_555
Co0 Nd0 2.996828 1_555
Co0 Nd1 2.996828 1_445
Co1 Co16 2.610251 1_444
Co1 Co14 2.610251 1_544
Co1 Co17 2.610251 1_455
Co1 Co19 2.610251 1_555
Co1 Co15 2.610251 1_554
Co1 Co18 2.610251 1_445
Co1 Nd3 2.996824 1_545
Co1 Nd2 2.996824 1_454
Co1 Nd3 2.996828 1_445
Co1 Nd2 2.996828 1_554
Co1 Nd3 2.996828 1_555
Co1 Nd2 2.996828 1_444
Co2 Co20 2.475445 1_655
Co2 Co23 2.475445 1_655
Co2 Co25 2.475863 1_555
Co2 Co26 2.475863 1_555
Co2 Co4 2.525458 1_655
Co2 Co3 2.525458 1_545
Co2 Co4 2.530120 1_555
Co2 Co3 2.530120 1_555
Co2 Nd4 3.150240 1_545
Co2 Nd7 3.150240 1_545
Co2 Nd4 3.150240 1_655
Co2 Nd7 3.150240 1_655
Co3 Co4 2.525458 1_665
Co3 Co4 2.530120 1_555
Co3 Nd4 3.150238 1_655
Co3 Nd7 3.150238 1_655
Co3 Nd4 3.150242 1_555
Co3 Nd7 3.150242 1_555
Co4 Nd7 3.150238 1_545
Co4 Nd4 3.150238 1_545
Co4 Nd4 3.150242 1_555
Co4 Nd7 3.150242 1_555
Co5 Co7 2.525458 1_455
Co5 Co6 2.525458 1_565
Co5 Co7 2.530120 1_555
Co5 Co6 2.530120 1_555
Co5 Nd6 3.150240 1_565
Co5 Nd5 3.150240 1_565
Co5 Nd5 3.150240 1_455
Co5 Nd6 3.150240 1_455
Co6 Co7 2.525458 1_445
Co6 Co7 2.530120 1_555
Co6 Nd6 3.150238 1_455
Co6 Nd5 3.150238 1_455
Co6 Nd6 3.150242 1_555
Co6 Nd5 3.150242 1_555
Co7 Nd5 3.150238 1_565
Co7 Nd6 3.150238 1_565
Co7 Nd6 3.150242 1_555
Co7 Nd5 3.150242 1_555
Co8 Co9 2.512582 1_545
Co8 Co9 2.542996 1_555
Co8 Nd0 2.934674 1_545
Co8 Nd0 2.934674 1_655
Co8 Nd1 3.205290 1_555
Co8 Nd4 3.267222 1_545
Co8 Nd4 3.267222 1_655
Co9 Nd0 2.934672 1_655
Co9 Nd0 2.934677 1_555
Co9 Nd1 3.205292 1_555
Co9 Nd4 3.267220 1_655
Co9 Nd4 3.267224 1_555
Co10 Co20 2.430017 1_555
Co10 Co25 2.441695 1_555
Co10 Co8 2.512582 1_455
Co10 Co9 2.512582 1_445
Co10 Co8 2.542996 1_555
Co10 Co9 2.542996 1_555
Co10 Nd0 2.934672 1_545
Co10 Nd0 2.934677 1_555
Co10 Nd1 3.205292 1_555
Co10 Nd4 3.267220 1_545
Co10 Nd4 3.267224 1_555
Co11 Co21 2.430017 1_565
Co11 Co24 2.441692 1_555
Co11 Co13 2.512582 1_455
Co11 Co12 2.512582 1_565
Co11 Co13 2.542996 1_555
Co11 Co12 2.542996 1_555
Co11 Nd1 2.934674 1_565
Co11 Nd1 2.934674 1_455
Co11 Nd0 3.205290 1_555
Co11 Nd5 3.267222 1_565
Co11 Nd5 3.267222 1_455
Co12 Co21 2.430017 1_555
Co12 Co24 2.441695 1_555
Co12 Co13 2.512582 1_445
Co12 Co13 2.542996 1_555
Co12 Nd1 2.934672 1_455
Co12 Nd1 2.934677 1_555
Co12 Nd0 3.205292 1_555
Co12 Nd5 3.267220 1_455
Co12 Nd5 3.267224 1_555
Co13 Co21 2.430017 1_665
Co13 Co24 2.441695 1_555
Co13 Nd1 2.934672 1_565
Co13 Nd1 2.934677 1_555
Co13 Nd0 3.205292 1_555
Co13 Nd5 3.267220 1_565
Co13 Nd5 3.267224 1_555
Co14 Co22 2.430017 1_565
Co14 Co27 2.441692 1_555
Co14 Co16 2.512582 1_455
Co14 Co15 2.512582 1_565
Co14 Co16 2.542996 1_555
Co14 Co15 2.542996 1_555
Co14 Nd2 2.934674 1_565
Co14 Nd2 2.934674 1_455
Co14 Nd3 3.205290 1_556
Co14 Nd6 3.267222 1_565
Co14 Nd6 3.267222 1_455
Co15 Co22 2.430017 1_555
Co15 Co27 2.441695 1_555
Co15 Co16 2.512582 1_445
Co15 Co16 2.542996 1_555
Co15 Nd2 2.934672 1_455
Co15 Nd2 2.934677 1_555
Co15 Nd3 3.205292 1_556
Co15 Nd6 3.267220 1_455
Co15 Nd6 3.267224 1_555
Co16 Co22 2.430017 1_665
Co16 Co27 2.441695 1_555
Co16 Nd2 2.934672 1_565
Co16 Nd2 2.934677 1_555
Co16 Nd3 3.205292 1_556
Co16 Nd6 3.267220 1_565
Co16 Nd6 3.267224 1_555
Co17 Co23 2.430017 1_655
Co17 Co26 2.441692 1_555
Co17 Co19 2.512582 1_655
Co17 Co18 2.512582 1_545
Co17 Co19 2.542996 1_555
Co17 Co18 2.542996 1_555
Co17 Nd3 2.934674 1_545
Co17 Nd3 2.934674 1_655
Co17 Nd2 3.205290 1_554
Co17 Nd7 3.267222 1_545
Co17 Nd7 3.267222 1_655
Co18 Co23 2.430017 1_665
Co18 Co26 2.441695 1_555
Co18 Co19 2.512582 1_665
Co18 Co19 2.542996 1_555
Co18 Nd3 2.934672 1_655
Co18 Nd3 2.934677 1_555
Co18 Nd2 3.205292 1_554
Co18 Nd7 3.267220 1_655
Co18 Nd7 3.267224 1_555
Co19 Co23 2.430017 1_555
Co19 Co26 2.441695 1_555
Co19 Nd3 2.934672 1_545
Co19 Nd3 2.934677 1_555
Co19 Nd2 3.205292 1_554
Co19 Nd7 3.267220 1_545
Co19 Nd7 3.267224 1_555
Co20 Co8 2.430017 1_455
Co20 Co9 2.430017 1_445
Co20 Co4 2.475445 1_555
Co20 Co3 2.475445 1_445
Co20 Nd4 2.921322 1_545
Co20 Nd4 2.921327 1_445
Co20 Nd4 2.921327 1_555
Co21 Co7 2.475445 1_445
Co21 Co5 2.475445 1_545
Co21 Co6 2.475445 1_555
Co21 Nd5 2.921322 1_455
Co21 Nd5 2.921327 1_555
Co21 Nd5 2.921327 1_445
Co22 Co7 2.475445 1_445
Co22 Co5 2.475445 1_545
Co22 Co6 2.475445 1_555
Co22 Nd6 2.921322 1_455
Co22 Nd6 2.921327 1_555
Co22 Nd6 2.921327 1_445
Co23 Co4 2.475445 1_555
Co23 Co3 2.475445 1_445
Co23 Nd7 2.921322 1_545
Co23 Nd7 2.921327 1_445
Co23 Nd7 2.921327 1_555
Co24 Co5 2.475863 1_555
Co24 Co7 2.475866 1_555
Co24 Co6 2.475866 1_555
Co24 Nd5 2.921263 1_455
Co24 Nd5 2.921263 1_565
Co24 Nd5 2.921272 1_555
Co25 Co8 2.441692 1_555
Co25 Co9 2.441695 1_555
Co25 Co4 2.475866 1_555
Co25 Co3 2.475866 1_555
Co25 Nd4 2.921263 1_655
Co25 Nd4 2.921263 1_545
Co25 Nd4 2.921272 1_555
Co26 Co4 2.475866 1_555
Co26 Co3 2.475866 1_555
Co26 Nd7 2.921263 1_655
Co26 Nd7 2.921263 1_545
Co26 Nd7 2.921272 1_555
Co27 Co5 2.475863 1_555
Co27 Co7 2.475866 1_555
Co27 Co6 2.475866 1_555
Co27 Nd6 2.921263 1_455
Co27 Nd6 2.921263 1_565
Co27 Nd6 2.921272 1_555
