# generated using pymatgen
data_Ho2Co17
_symmetry_space_group_name_H-M   'P 1'
_cell_length_a   8.27971120
_cell_length_b   8.27971120
_cell_length_c   8.08197800
_cell_angle_alpha   90.00000000
_cell_angle_beta   90.00000000
_cell_angle_gamma   119.99999358
_symmetry_Int_Tables_number   1
_chemical_formula_structural   Ho2Co17
_chemical_formula_sum   'Ho4 Co34'
_cell_volume   479.82039139
_cell_formula_units_Z   2
loop_
 _symmetry_equiv_pos_site_id
 _symmetry_equiv_pos_as_xyz
  1  'x, y, z'
loop_
 _atom_site_type_symbol
 _atom_site_label
 _atom_site_symmetry_multiplicity
 _atom_site_fract_x
 _atom_site_fract_y
 _atom_site_fract_z
 _atom_site_occupancy
  Ho  Ho0  1  0.00000000  0.00000000  0.25000000  1
  Ho  Ho1  1  0.00000000  0.00000000  0.75000000  1
  Ho  Ho2  1  0.33333300  0.66666700  0.75000000  1
  Ho  Ho3  1  0.66666700  0.33333300  0.25000000  1
  Co  Co0  1  0.33333300  0.66666700  0.10645000  1
  Co  Co1  1  0.66666700  0.33333300  0.60645000  1
  Co  Co2  1  0.66666700  0.33333300  0.89355000  1
  Co  Co3  1  0.33333300  0.66666700  0.39355000  1
  Co  Co4  1  0.50000000  0.00000000  0.00000000  1
  Co  Co5  1  0.50000000  0.50000000  0.50000000  1
  Co  Co6  1  0.00000000  0.50000000  0.50000000  1
  Co  Co7  1  0.00000000  0.50000000  0.00000000  1
  Co  Co8  1  0.50000000  0.50000000  0.00000000  1
  Co  Co9  1  0.50000000  0.00000000  0.50000000  1
  Co  Co10  1  0.32833400  0.95392800  0.25000000  1
  Co  Co11  1  0.37440700  0.32833400  0.75000000  1
  Co  Co12  1  0.95392800  0.62559300  0.75000000  1
  Co  Co13  1  0.04607200  0.37440700  0.25000000  1
  Co  Co14  1  0.62559300  0.67166600  0.25000000  1
  Co  Co15  1  0.37440700  0.04607200  0.75000000  1
  Co  Co16  1  0.67166600  0.62559300  0.75000000  1
  Co  Co17  1  0.67166600  0.04607200  0.75000000  1
  Co  Co18  1  0.95392800  0.32833400  0.75000000  1
  Co  Co19  1  0.04607200  0.67166600  0.25000000  1
  Co  Co20  1  0.62559300  0.95392800  0.25000000  1
  Co  Co21  1  0.32833400  0.37440700  0.25000000  1
  Co  Co22  1  0.16656700  0.33313400  0.97803900  1
  Co  Co23  1  0.83343300  0.16656700  0.47803900  1
  Co  Co24  1  0.33313400  0.16656700  0.47803900  1
  Co  Co25  1  0.66686600  0.83343300  0.97803900  1
  Co  Co26  1  0.16656700  0.83343300  0.97803900  1
  Co  Co27  1  0.83343300  0.66686600  0.02196100  1
  Co  Co28  1  0.83343300  0.16656700  0.02196100  1
  Co  Co29  1  0.83343300  0.66686600  0.47803900  1
  Co  Co30  1  0.33313400  0.16656700  0.02196100  1
  Co  Co31  1  0.66686600  0.83343300  0.52196100  1
  Co  Co32  1  0.16656700  0.33313400  0.52196100  1
  Co  Co33  1  0.16656700  0.83343300  0.52196100  1
loop_
_geom_bond_atom_site_label_1
_geom_bond_atom_site_label_2
_geom_bond_distance
_geom_bond_site_symmetry_2
Co0 Co3 2.320336 1_555
Co0 Co7 2.540266 1_555
Co0 Co4 2.540266 1_565
Co0 Co8 2.540273 1_555
Co0 Co26 2.607043 1_554
Co0 Co25 2.607050 1_554
Co0 Co22 2.607050 1_554
Co0 Co10 2.665167 1_555
Co0 Co19 2.665167 1_555
Co0 Co14 2.665167 1_555
Co0 Co21 2.665167 1_555
Co0 Co20 2.665167 1_555
Co0 Co13 2.665167 1_555
Co0 Ho2 2.880821 1_554
Co1 Co2 2.320336 1_555
Co1 Co6 2.540266 1_655
Co1 Co9 2.540266 1_555
Co1 Co5 2.540273 1_555
Co1 Co23 2.607043 1_555
Co1 Co29 2.607050 1_555
Co1 Co24 2.607050 1_555
Co1 Co17 2.665167 1_555
Co1 Co18 2.665167 1_555
Co1 Co16 2.665167 1_555
Co1 Co11 2.665167 1_555
Co1 Co12 2.665167 1_555
Co1 Co15 2.665167 1_555
Co1 Ho3 2.880821 1_555
Co2 Co4 2.540266 1_556
Co2 Co7 2.540266 1_656
Co2 Co8 2.540273 1_556
Co2 Co28 2.607043 1_556
Co2 Co27 2.607050 1_556
Co2 Co30 2.607050 1_556
Co2 Ho3 2.880821 1_556
Co3 Co6 2.540266 1_555
Co3 Co9 2.540266 1_565
Co3 Co5 2.540273 1_555
Co3 Co33 2.607043 1_555
Co3 Co31 2.607050 1_555
Co3 Co32 2.607050 1_555
Co3 Ho2 2.880821 1_555
Co4 Ho3 3.129727 1_555
Co4 Ho2 3.129727 1_544
Co5 Ho2 3.129732 1_555
Co5 Ho3 3.129732 1_555
Co6 Ho2 3.129727 1_555
Co6 Ho3 3.129727 1_455
Co7 Ho3 3.129727 1_455
Co7 Ho2 3.129727 1_554
Co8 Ho2 3.129732 1_554
Co8 Ho3 3.129732 1_555
Co9 Ho3 3.129727 1_555
Co9 Ho2 3.129727 1_545
Co10 Co19 2.337048 1_555
Co10 Co4 2.388712 1_565
Co10 Co9 2.388712 1_565
Co10 Co20 2.461219 1_555
Co10 Co33 2.506822 1_555
Co10 Co26 2.506822 1_554
Co10 Co30 2.535341 1_565
Co10 Co24 2.535341 1_565
Co10 Co3 2.665167 1_555
Co10 Ho0 2.927939 1_565
Co10 Ho3 2.985891 1_565
Co11 Co15 2.337048 1_555
Co11 Co5 2.388710 1_555
Co11 Co8 2.388710 1_556
Co11 Co16 2.461219 1_555
Co11 Co30 2.506821 1_556
Co11 Co24 2.506821 1_555
Co11 Co32 2.535347 1_555
Co11 Co22 2.535347 1_555
Co11 Co2 2.665167 1_555
Co11 Ho1 2.927944 1_555
Co11 Ho2 2.985901 1_555
Co12 Co16 2.337048 1_555
Co12 Co7 2.388707 1_656
Co12 Co6 2.388707 1_655
Co12 Co18 2.461219 1_555
Co12 Co27 2.506825 1_556
Co12 Co29 2.506825 1_555
Co12 Co26 2.535344 1_655
Co12 Co33 2.535344 1_655
Co12 Co2 2.665167 1_555
Co12 Ho1 2.927947 1_665
Co12 Ho2 2.985884 1_655
Co13 Co21 2.337048 1_555
Co13 Co7 2.388707 1_555
Co13 Co6 2.388707 1_555
Co13 Co19 2.461219 1_555
Co13 Co22 2.506825 1_554
Co13 Co32 2.506825 1_555
Co13 Co28 2.535344 1_455
Co13 Co23 2.535344 1_455
Co13 Co3 2.665167 1_555
Co13 Ho0 2.927947 1_555
Co13 Ho3 2.985884 1_455
Co14 Co20 2.337048 1_555
Co14 Co8 2.388710 1_555
Co14 Co5 2.388710 1_555
Co14 Co21 2.461219 1_555
Co14 Co31 2.506821 1_555
Co14 Co25 2.506821 1_554
Co14 Co29 2.535347 1_555
Co14 Co27 2.535347 1_555
Co14 Co3 2.665167 1_555
Co14 Ho0 2.927944 1_665
Co14 Ho3 2.985901 1_555
Co15 Co4 2.388707 1_556
Co15 Co9 2.388707 1_555
Co15 Co17 2.461219 1_555
Co15 Co30 2.506825 1_556
Co15 Co24 2.506825 1_555
Co15 Co26 2.535344 1_545
Co15 Co33 2.535344 1_545
Co15 Co2 2.665167 1_555
Co15 Ho1 2.927947 1_555
Co15 Ho2 2.985884 1_545
Co16 Co8 2.388710 1_556
Co16 Co5 2.388710 1_555
Co16 Co27 2.506821 1_556
Co16 Co29 2.506821 1_555
Co16 Co31 2.535347 1_555
Co16 Co25 2.535347 1_555
Co16 Co2 2.665167 1_555
Co16 Ho1 2.927944 1_665
Co16 Ho2 2.985901 1_555
Co17 Co18 2.337048 1_555
Co17 Co4 2.388712 1_556
Co17 Co9 2.388712 1_555
Co17 Co28 2.506822 1_556
Co17 Co23 2.506822 1_555
Co17 Co31 2.535341 1_545
Co17 Co25 2.535341 1_545
Co17 Co2 2.665167 1_555
Co17 Ho1 2.927939 1_655
Co17 Ho2 2.985891 1_545
Co18 Co6 2.388712 1_655
Co18 Co7 2.388712 1_656
Co18 Co28 2.506822 1_556
Co18 Co23 2.506822 1_555
Co18 Co32 2.535341 1_655
Co18 Co22 2.535341 1_655
Co18 Co2 2.665167 1_555
Co18 Ho1 2.927939 1_655
Co18 Ho2 2.985891 1_655
Co19 Co7 2.388712 1_555
Co19 Co6 2.388712 1_555
Co19 Co33 2.506822 1_555
Co19 Co26 2.506822 1_554
Co19 Co29 2.535341 1_455
Co19 Co27 2.535341 1_455
Co19 Co3 2.665167 1_555
Co19 Ho0 2.927939 1_565
Co19 Ho3 2.985891 1_455
Co20 Co4 2.388707 1_565
Co20 Co9 2.388707 1_565
Co20 Co31 2.506825 1_555
Co20 Co25 2.506825 1_554
Co20 Co23 2.535344 1_565
Co20 Co28 2.535344 1_565
Co20 Co3 2.665167 1_555
Co20 Ho0 2.927947 1_665
Co20 Ho3 2.985884 1_565
Co21 Co8 2.388710 1_555
Co21 Co5 2.388710 1_555
Co21 Co22 2.506821 1_554
Co21 Co32 2.506821 1_555
Co21 Co24 2.535347 1_555
Co21 Co30 2.535347 1_555
Co21 Co3 2.665167 1_555
Co21 Ho0 2.927944 1_555
Co21 Ho3 2.985901 1_555
Co22 Co7 2.397441 1_556
Co22 Co8 2.397441 1_556
Co22 Co30 2.414949 1_556
Co22 Co28 2.414949 1_456
Co22 Ho1 3.017059 1_555
Co22 Ho2 3.019324 1_555
Co22 Ho0 3.246090 1_556
Co23 Co9 2.397441 1_555
Co23 Co6 2.397441 1_655
Co23 Co32 2.414949 1_655
Co23 Co31 2.414949 1_545
Co23 Ho0 3.017059 1_655
Co23 Ho3 3.019319 1_555
Co23 Ho1 3.246090 1_655
Co24 Co9 2.397441 1_555
Co24 Co5 2.397441 1_555
Co24 Co32 2.414949 1_555
Co24 Co33 2.414949 1_545
Co24 Ho0 3.017059 1_555
Co24 Ho3 3.019324 1_555
Co24 Ho1 3.246090 1_555
Co25 Co4 2.397441 1_566
Co25 Co8 2.397441 1_556
Co25 Co27 2.414949 1_556
Co25 Co28 2.414949 1_566
Co25 Ho1 3.017059 1_665
Co25 Ho2 3.019324 1_555
Co25 Ho0 3.246090 1_666
Co26 Co4 2.397441 1_566
Co26 Co7 2.397441 1_556
Co26 Co30 2.414949 1_566
Co26 Co27 2.414949 1_456
Co26 Ho1 3.017059 1_565
Co26 Ho2 3.019319 1_555
Co26 Ho0 3.246090 1_566
Co27 Co7 2.397441 1_655
Co27 Co8 2.397441 1_555
Co27 Ho0 3.017059 1_665
Co27 Ho3 3.019324 1_555
Co27 Ho1 3.246090 1_664
Co28 Co4 2.397441 1_555
Co28 Co7 2.397441 1_655
Co28 Ho0 3.017059 1_655
Co28 Ho3 3.019319 1_555
Co28 Ho1 3.246090 1_654
Co29 Co6 2.397441 1_655
Co29 Co5 2.397441 1_555
Co29 Co31 2.414949 1_555
Co29 Co33 2.414949 1_655
Co29 Ho0 3.017059 1_665
Co29 Ho3 3.019324 1_555
Co29 Ho1 3.246090 1_665
Co30 Co4 2.397441 1_555
Co30 Co8 2.397441 1_555
Co30 Ho0 3.017059 1_555
Co30 Ho3 3.019324 1_555
Co30 Ho1 3.246090 1_554
Co31 Co9 2.397441 1_565
Co31 Co5 2.397441 1_555
Co31 Ho1 3.017059 1_665
Co31 Ho2 3.019324 1_555
Co31 Ho0 3.246090 1_665
Co32 Co6 2.397441 1_555
Co32 Co5 2.397441 1_555
Co32 Ho1 3.017059 1_555
Co32 Ho2 3.019324 1_555
Co32 Ho0 3.246090 1_555
Co33 Co6 2.397441 1_555
Co33 Co9 2.397441 1_565
Co33 Ho1 3.017059 1_565
Co33 Ho2 3.019319 1_555
Co33 Ho0 3.246090 1_565
