# generated using pymatgen
data_Ga2CuAgS4
_symmetry_space_group_name_H-M   'P 1'
_cell_length_a   6.60456276
_cell_length_b   6.60456276
_cell_length_c   6.60456276
_cell_angle_alpha   130.14516130
_cell_angle_beta   130.14516130
_cell_angle_gamma   73.17480708
_symmetry_Int_Tables_number   1
_chemical_formula_structural   Ga2CuAgS4
_chemical_formula_sum   'Ga2 Cu1 Ag1 S4'
_cell_volume   164.36635259
_cell_formula_units_Z   1
loop_
 _symmetry_equiv_pos_site_id
 _symmetry_equiv_pos_as_xyz
  1  'x, y, z'
loop_
 _atom_site_type_symbol
 _atom_site_label
 _atom_site_symmetry_multiplicity
 _atom_site_fract_x
 _atom_site_fract_y
 _atom_site_fract_z
 _atom_site_occupancy
  Ga  Ga0  1  0.75000000  0.25000000  0.50000000  1
  Ga  Ga1  1  0.50000000  0.50000000  0.00000000  1
  Cu  Cu0  1  0.00000000  0.00000000  0.00000000  1
  Ag  Ag0  1  0.25000000  0.75000000  0.50000000  1
  S  S0  1  0.64939300  0.61389600  0.49754100  1
  S  S1  1  0.11635500  0.15185200  0.50245900  1
  S  S2  1  0.84814800  0.35060700  0.96450300  1
  S  S3  1  0.38610400  0.88364500  0.03549700  1
loop_
_geom_bond_atom_site_label_1
_geom_bond_atom_site_label_2
_geom_bond_distance
_geom_bond_site_symmetry_2
Ga0 S2 2.308660 1_555
Ga0 S3 2.308660 1_545
Ga0 S1 2.308660 1_655
Ga0 S0 2.308660 1_555
Ga1 S0 2.323580 1_555
Ga1 S2 2.323580 1_554
Ga1 S3 2.323580 1_555
Ga1 S1 2.323580 1_554
Cu0 S1 2.339923 1_555
Cu0 S3 2.339923 1_545
Cu0 S2 2.339923 1_454
Cu0 S0 2.339923 1_444
Ag0 S1 2.535767 1_565
Ag0 S3 2.535767 1_556
Ag0 S2 2.535767 1_454
Ag0 S0 2.535767 1_555
