# generated using pymatgen
data_LaEu2NbO6
_symmetry_space_group_name_H-M   'P 1'
_cell_length_a   8.59372715
_cell_length_b   8.59372715
_cell_length_c   8.59372715
_cell_angle_alpha   90.00000000
_cell_angle_beta   90.00000000
_cell_angle_gamma   90.00000000
_symmetry_Int_Tables_number   1
_chemical_formula_structural   LaEu2NbO6
_chemical_formula_sum   'La4 Eu8 Nb4 O24'
_cell_volume   634.66519499
_cell_formula_units_Z   4
loop_
 _symmetry_equiv_pos_site_id
 _symmetry_equiv_pos_as_xyz
  1  'x, y, z'
loop_
 _atom_site_type_symbol
 _atom_site_label
 _atom_site_symmetry_multiplicity
 _atom_site_fract_x
 _atom_site_fract_y
 _atom_site_fract_z
 _atom_site_occupancy
  La  La0  1  0.75000000  0.75000000  0.75000000  1
  La  La1  1  0.75000000  0.25000000  0.25000000  1
  La  La2  1  0.25000000  0.75000000  0.25000000  1
  La  La3  1  0.25000000  0.25000000  0.75000000  1
  Eu  Eu0  1  0.50000000  0.50000000  0.50000000  1
  Eu  Eu1  1  0.00000000  0.00000000  -0.00000000  1
  Eu  Eu2  1  0.00000000  0.00000000  0.50000000  1
  Eu  Eu3  1  0.00000000  0.50000000  -0.00000000  1
  Eu  Eu4  1  0.50000000  0.00000000  -0.00000000  1
  Eu  Eu5  1  0.50000000  0.50000000  -0.00000000  1
  Eu  Eu6  1  0.50000000  0.00000000  0.50000000  1
  Eu  Eu7  1  0.00000000  0.50000000  0.50000000  1
  Nb  Nb0  1  0.25000000  0.25000000  0.25000000  1
  Nb  Nb1  1  0.25000000  0.75000000  0.75000000  1
  Nb  Nb2  1  0.75000000  0.25000000  0.75000000  1
  Nb  Nb3  1  0.75000000  0.75000000  0.25000000  1
  O  O0  1  0.20737571  0.30234273  0.47837798  1
  O  O1  1  0.20737571  0.69765727  0.52162202  1
  O  O2  1  0.79262429  0.30234273  0.52162202  1
  O  O3  1  0.79262429  0.69765727  0.47837798  1
  O  O4  1  0.30234273  0.47837798  0.20737571  1
  O  O5  1  0.69765727  0.52162202  0.20737571  1
  O  O6  1  0.30234273  0.52162202  0.79262429  1
  O  O7  1  0.69765727  0.47837798  0.79262429  1
  O  O8  1  0.47837798  0.20737571  0.30234273  1
  O  O9  1  0.52162202  0.20737571  0.69765727  1
  O  O10  1  0.52162202  0.79262429  0.30234273  1
  O  O11  1  0.47837798  0.79262429  0.69765727  1
  O  O12  1  0.29262429  0.19765727  0.02162202  1
  O  O13  1  0.29262429  0.80234273  0.97837798  1
  O  O14  1  0.70737571  0.19765727  0.97837798  1
  O  O15  1  0.70737571  0.80234273  0.02162202  1
  O  O16  1  0.19765727  0.02162202  0.29262429  1
  O  O17  1  0.80234273  0.97837798  0.29262429  1
  O  O18  1  0.19765727  0.97837798  0.70737571  1
  O  O19  1  0.80234273  0.02162202  0.70737571  1
  O  O20  1  0.02162202  0.29262429  0.19765727  1
  O  O21  1  0.97837798  0.29262429  0.80234273  1
  O  O22  1  0.97837798  0.70737571  0.19765727  1
  O  O23  1  0.02162202  0.70737571  0.80234273  1
loop_
_geom_bond_atom_site_label_1
_geom_bond_atom_site_label_2
_geom_bond_distance
_geom_bond_site_symmetry_2
La0 O19 2.405248 1_565
La0 O23 2.405248 1_655
La0 O11 2.405248 1_555
La0 O15 2.405248 1_556
La0 O3 2.405248 1_555
La0 O7 2.405248 1_555
La1 O20 2.405248 1_655
La1 O8 2.405248 1_555
La1 O17 2.405248 1_545
La1 O2 2.405248 1_555
La1 O14 2.405248 1_554
La1 O5 2.405248 1_555
La2 O16 2.405248 1_565
La2 O13 2.405248 1_554
La2 O10 2.405248 1_555
La2 O4 2.405248 1_555
La2 O1 2.405248 1_555
La2 O22 2.405248 1_455
La3 O12 2.405248 1_556
La3 O0 2.405248 1_555
La3 O9 2.405248 1_555
La3 O18 2.405248 1_545
La3 O21 2.405248 1_455
La3 O6 2.405248 1_555
Eu0 O3 3.040345 1_555
Eu0 O11 3.040345 1_555
Eu0 O4 3.040345 1_555
Eu0 O1 3.040345 1_555
Eu0 O2 3.040345 1_555
Eu0 O6 3.040345 1_555
Eu0 O8 3.040345 1_555
Eu0 O7 3.040345 1_555
Eu0 O5 3.040345 1_555
Eu0 O9 3.040345 1_555
Eu0 O10 3.040345 1_555
Eu0 O0 3.040345 1_555
Eu1 O22 3.040345 1_445
Eu1 O20 3.040345 1_555
Eu1 O13 3.040345 1_544
Eu1 O17 3.040345 1_445
Eu1 O14 3.040345 1_454
Eu1 O23 3.040345 1_544
Eu1 O19 3.040345 1_454
Eu1 O15 3.040345 1_445
Eu1 O12 3.040345 1_555
Eu1 O16 3.040345 1_555
Eu1 O21 3.040345 1_454
Eu1 O18 3.040345 1_544
Eu2 O18 2.468967 1_545
Eu2 O17 2.468967 1_445
Eu2 O16 2.468967 1_555
Eu2 O19 2.468967 1_455
Eu3 O22 2.468967 1_455
Eu3 O20 2.468967 1_555
Eu3 O21 2.468967 1_454
Eu3 O23 2.468967 1_554
Eu4 O12 2.468967 1_555
Eu4 O13 2.468967 1_544
Eu4 O14 2.468967 1_554
Eu4 O15 2.468967 1_545
Eu5 O4 2.468967 1_555
Eu5 O7 2.468967 1_554
Eu5 O6 2.468967 1_554
Eu5 O5 2.468967 1_555
Eu6 O9 2.468967 1_555
Eu6 O10 2.468967 1_545
Eu6 O11 2.468967 1_545
Eu6 O8 2.468967 1_555
Eu7 O0 2.468967 1_555
Eu7 O2 2.468967 1_455
Eu7 O1 2.468967 1_555
Eu7 O3 2.468967 1_455
Nb0 O12 2.046554 1_555
Nb0 O16 2.046554 1_555
Nb0 O20 2.046554 1_555
Nb0 O8 2.046554 1_555
Nb0 O0 2.046554 1_555
Nb0 O4 2.046554 1_555
Nb1 O6 2.046554 1_555
Nb1 O18 2.046554 1_555
Nb1 O13 2.046554 1_555
Nb1 O1 2.046554 1_555
Nb1 O23 2.046554 1_555
Nb1 O11 2.046554 1_555
Nb2 O19 2.046554 1_555
Nb2 O9 2.046554 1_555
Nb2 O2 2.046554 1_555
Nb2 O21 2.046554 1_555
Nb2 O14 2.046554 1_555
Nb2 O7 2.046554 1_555
Nb3 O10 2.046554 1_555
Nb3 O22 2.046554 1_555
Nb3 O17 2.046554 1_555
Nb3 O15 2.046554 1_555
Nb3 O5 2.046554 1_555
Nb3 O3 2.046554 1_555
