# generated using pymatgen
data_Mg6VCu
_symmetry_space_group_name_H-M   'P 1'
_cell_length_a   4.89890100
_cell_length_b   6.16462200
_cell_length_c   10.51637700
_cell_angle_alpha   90.00000000
_cell_angle_beta   90.00000000
_cell_angle_gamma   90.00000000
_symmetry_Int_Tables_number   1
_chemical_formula_structural   Mg6VCu
_chemical_formula_sum   'Mg12 V2 Cu2'
_cell_volume   317.59324856
_cell_formula_units_Z   2
loop_
 _symmetry_equiv_pos_site_id
 _symmetry_equiv_pos_as_xyz
  1  'x, y, z'
loop_
 _atom_site_type_symbol
 _atom_site_label
 _atom_site_symmetry_multiplicity
 _atom_site_fract_x
 _atom_site_fract_y
 _atom_site_fract_z
 _atom_site_occupancy
  Mg  Mg0  1  0.00000000  0.25891000  0.09187300  1
  Mg  Mg1  1  0.00000000  0.74109000  0.09187300  1
  Mg  Mg2  1  0.00000000  0.50000000  0.83638500  1
  Mg  Mg3  1  0.50000000  0.23926100  0.91308100  1
  Mg  Mg4  1  0.50000000  0.76073900  0.91308100  1
  Mg  Mg5  1  0.50000000  0.50000000  0.66437400  1
  Mg  Mg6  1  0.00000000  0.75891000  0.59187300  1
  Mg  Mg7  1  0.00000000  0.24109000  0.59187300  1
  Mg  Mg8  1  0.00000000  0.00000000  0.33638500  1
  Mg  Mg9  1  0.50000000  0.73926100  0.41308100  1
  Mg  Mg10  1  0.50000000  0.26073900  0.41308100  1
  Mg  Mg11  1  0.50000000  0.00000000  0.16437400  1
  V  V0  1  0.50000000  0.50000000  0.16725300  1
  V  V1  1  0.50000000  0.00000000  0.66725300  1
  Cu  Cu0  1  0.00000000  0.50000000  0.32207900  1
  Cu  Cu1  1  0.00000000  0.00000000  0.82207900  1
loop_
_geom_bond_atom_site_label_1
_geom_bond_atom_site_label_2
_geom_bond_distance
_geom_bond_site_symmetry_2
Mg0 Mg1 2.972457 1_555
Mg0 V0 2.972725 1_555
Mg0 V0 2.972725 1_455
Mg0 Mg11 3.021359 1_455
Mg0 Mg11 3.021359 1_555
Mg0 Mg8 3.026463 1_555
Mg0 Mg2 3.070475 1_554
Mg0 Mg3 3.090275 1_554
Mg0 Mg3 3.090275 1_454
Mg0 Mg1 3.192165 1_545
Mg1 V0 2.972725 1_455
Mg1 V0 2.972725 1_555
Mg1 Mg11 3.021359 1_565
Mg1 Mg11 3.021359 1_465
Mg1 Mg8 3.026463 1_565
Mg1 Mg2 3.070475 1_554
Mg1 Mg4 3.090275 1_554
Mg1 Mg4 3.090275 1_454
Mg2 Mg7 3.026463 1_555
Mg2 Mg6 3.026463 1_555
Mg2 Mg4 3.038742 1_455
Mg2 Mg4 3.038742 1_555
Mg2 Mg3 3.038742 1_455
Mg2 Mg3 3.038742 1_555
Mg2 Mg5 3.045003 1_555
Mg2 Mg5 3.045003 1_455
Mg3 Mg4 2.949907 1_545
Mg3 V1 2.976382 1_555
Mg3 Mg5 3.069922 1_555
Mg3 V0 3.119032 1_556
Mg3 Mg4 3.214715 1_555
Mg4 V1 2.976382 1_565
Mg4 Mg5 3.069922 1_555
Mg4 V0 3.119032 1_556
Mg5 Mg6 3.021359 1_655
Mg5 Mg7 3.021359 1_555
Mg5 Mg7 3.021359 1_655
Mg5 Mg6 3.021359 1_555
Mg5 Mg9 3.026435 1_555
Mg5 V1 3.082460 1_565
Mg5 V1 3.082460 1_555
Mg6 Mg7 2.972457 1_565
Mg6 V1 2.972725 1_565
Mg6 V1 2.972725 1_465
Mg6 Mg8 3.070475 1_565
Mg6 Mg9 3.090275 1_555
Mg6 Mg9 3.090275 1_455
Mg6 Mg7 3.192165 1_555
Mg7 V1 2.972725 1_555
Mg7 V1 2.972725 1_455
Mg7 Mg8 3.070475 1_555
Mg8 Mg9 3.038742 1_545
Mg8 Mg9 3.038742 1_445
Mg9 V0 2.976382 1_555
Mg9 V1 3.119032 1_565
Mg10 Mg9 2.949907 1_555
Mg10 V0 2.976382 1_555
Mg10 Mg5 3.026435 1_555
Mg10 Mg8 3.038742 1_555
Mg10 Mg8 3.038742 1_655
Mg10 Mg11 3.069922 1_555
Mg10 Mg7 3.090275 1_555
Mg10 Mg7 3.090275 1_655
Mg10 V1 3.119032 1_555
Mg10 Mg9 3.214715 1_545
Mg11 Mg3 3.026435 1_554
Mg11 Mg4 3.026435 1_544
Mg11 Mg8 3.045003 1_555
Mg11 Mg8 3.045003 1_655
Mg11 Mg9 3.069922 1_545
Mg11 V0 3.082460 1_545
Mg11 V0 3.082460 1_555
Cu0 Mg0 2.840738 1_555
Cu0 Mg1 2.840738 1_555
Cu0 V0 2.941236 1_455
Cu0 V0 2.941236 1_555
Cu0 Mg10 3.015156 1_455
Cu0 Mg10 3.015156 1_555
Cu0 Mg9 3.015156 1_555
Cu0 Mg9 3.015156 1_455
Cu0 Mg8 3.085980 1_565
Cu0 Mg8 3.085980 1_555
Cu0 Mg7 3.255380 1_555
Cu0 Mg6 3.255380 1_555
Cu1 Mg6 2.840738 1_545
Cu1 Mg7 2.840738 1_555
Cu1 V1 2.941236 1_455
Cu1 V1 2.941236 1_555
Cu1 Mg3 3.015156 1_455
Cu1 Mg3 3.015156 1_555
Cu1 Mg4 3.015156 1_545
Cu1 Mg4 3.015156 1_445
Cu1 Mg2 3.085980 1_545
Cu1 Mg2 3.085980 1_555
Cu1 Mg1 3.255380 1_546
Cu1 Mg0 3.255380 1_556
