# generated using pymatgen
data_SmCrB4
_symmetry_space_group_name_H-M   'P 1'
_cell_length_a   3.51073778
_cell_length_b   5.98319516
_cell_length_c   11.56682122
_cell_angle_alpha   90.00000000
_cell_angle_beta   90.00000000
_cell_angle_gamma   90.00000000
_symmetry_Int_Tables_number   1
_chemical_formula_structural   SmCrB4
_chemical_formula_sum   'Sm4 Cr4 B16'
_cell_volume   242.96604529
_cell_formula_units_Z   4
loop_
 _symmetry_equiv_pos_site_id
 _symmetry_equiv_pos_as_xyz
  1  'x, y, z'
loop_
 _atom_site_type_symbol
 _atom_site_label
 _atom_site_symmetry_multiplicity
 _atom_site_fract_x
 _atom_site_fract_y
 _atom_site_fract_z
 _atom_site_occupancy
  Sm  Sm0  1  -0.00000000  0.62398460  0.34926407  1
  Sm  Sm1  1  0.00000000  0.37601540  0.65073593  1
  Sm  Sm2  1  -0.00000000  0.12398460  0.15073593  1
  Sm  Sm3  1  -0.00000000  0.87601540  0.84926407  1
  Cr  Cr0  1  -0.00000000  0.61911426  0.07769808  1
  Cr  Cr1  1  0.00000000  0.38088574  0.92230192  1
  Cr  Cr2  1  -0.00000000  0.11911426  0.42230192  1
  Cr  Cr3  1  0.00000000  0.88088574  0.57769808  1
  B  B0  1  0.50000000  0.77658350  0.18216150  1
  B  B1  1  0.50000000  0.22341650  0.81783850  1
  B  B2  1  0.50000000  0.27658350  0.31783850  1
  B  B3  1  0.50000000  0.72341650  0.68216150  1
  B  B4  1  0.50000000  0.85983071  0.03277750  1
  B  B5  1  0.50000000  0.14016929  0.96722250  1
  B  B6  1  0.50000000  0.35983071  0.46722250  1
  B  B7  1  0.50000000  0.64016929  0.53277750  1
  B  B8  1  0.50000000  0.88799105  0.45397343  1
  B  B9  1  0.50000000  0.11200895  0.54602657  1
  B  B10  1  0.50000000  0.38799105  0.04602657  1
  B  B11  1  0.50000000  0.61200895  0.95397343  1
  B  B12  1  0.50000000  0.97563817  0.31035367  1
  B  B13  1  0.50000000  0.02436183  0.68964633  1
  B  B14  1  0.50000000  0.47563817  0.18964633  1
  B  B15  1  0.50000000  0.52436183  0.81035367  1
loop_
_geom_bond_atom_site_label_1
_geom_bond_atom_site_label_2
_geom_bond_distance
_geom_bond_site_symmetry_2
Cr0 Cr1 2.294006 1_554
Cr2 Cr3 2.294006 1_545
B0 B4 1.798255 1_555
B0 B14 1.802695 1_555
B0 B12 1.901858 1_555
B0 Cr0 2.330025 1_555
B0 Cr0 2.330025 1_655
B0 Sm2 2.744794 1_565
B0 Sm2 2.744794 1_665
B0 Sm0 2.766014 1_555
B0 Sm0 2.766014 1_655
B1 B5 1.798255 1_555
B1 B15 1.802695 1_555
B1 B13 1.901858 1_555
B1 Cr1 2.330025 1_655
B1 Cr1 2.330025 1_555
B1 Sm3 2.744794 1_645
B1 Sm3 2.744794 1_545
B1 Sm1 2.766014 1_655
B1 Sm1 2.766014 1_555
B2 B6 1.798255 1_555
B2 Cr2 2.330025 1_555
B2 Cr2 2.330025 1_655
B2 Sm0 2.744794 1_555
B2 Sm0 2.744794 1_655
B2 Sm2 2.766014 1_555
B2 Sm2 2.766014 1_655
B3 B7 1.798255 1_555
B3 Cr3 2.330025 1_655
B3 Cr3 2.330025 1_555
B3 Sm1 2.744794 1_655
B3 Sm1 2.744794 1_555
B3 Sm3 2.766014 1_655
B3 Sm3 2.766014 1_555
B4 B5 1.840752 1_564
B4 Cr0 2.329296 1_555
B4 Cr0 2.329296 1_655
B4 Sm2 2.727792 1_665
B4 Sm2 2.727792 1_565
B4 Sm3 2.756159 1_654
B4 Sm3 2.756159 1_554
B5 Cr1 2.329296 1_655
B5 Cr1 2.329296 1_555
B5 Sm3 2.727792 1_645
B5 Sm3 2.727792 1_545
B5 Sm2 2.756159 1_656
B5 Sm2 2.756159 1_556
B6 B9 1.740532 1_555
B6 B7 1.840752 1_555
B6 Cr2 2.329296 1_655
B6 Cr2 2.329296 1_555
B6 Sm0 2.727792 1_555
B6 Sm0 2.727792 1_655
B6 Sm1 2.756159 1_655
B6 Sm1 2.756159 1_555
B7 B8 1.740532 1_555
B7 Cr3 2.329296 1_555
B7 Cr3 2.329296 1_655
B7 Sm1 2.727792 1_655
B7 Sm1 2.727792 1_555
B7 Sm0 2.756159 1_555
B7 Sm0 2.756159 1_655
B8 B9 1.711794 1_565
B8 Cr2 2.264467 1_565
B8 Cr2 2.264467 1_665
B8 Cr3 2.265210 1_655
B8 Cr3 2.265210 1_555
B8 Sm0 2.653933 1_555
B8 Sm0 2.653933 1_655
B9 Cr3 2.264467 1_645
B9 Cr3 2.264467 1_545
B9 Cr2 2.265210 1_655
B9 Cr2 2.265210 1_555
B9 Sm1 2.653933 1_655
B9 Sm1 2.653933 1_555
B10 B11 1.711794 1_554
B10 B5 1.740532 1_554
B10 B14 1.742031 1_555
B10 Cr0 2.264467 1_655
B10 Cr0 2.264467 1_555
B10 Cr1 2.265210 1_654
B10 Cr1 2.265210 1_554
B10 Sm2 2.653933 1_555
B10 Sm2 2.653933 1_655
B11 B4 1.740532 1_556
B11 B15 1.742031 1_555
B11 Cr1 2.264467 1_655
B11 Cr1 2.264467 1_555
B11 Cr0 2.265210 1_656
B11 Cr0 2.265210 1_556
B11 Sm3 2.653933 1_655
B11 Sm3 2.653933 1_555
B12 B8 1.742031 1_555
B12 B2 1.802695 1_565
B12 Cr2 2.344137 1_565
B12 Cr2 2.344137 1_665
B12 Sm2 2.697747 1_565
B12 Sm2 2.697747 1_665
B12 Sm0 2.776824 1_555
B12 Sm0 2.776824 1_655
B13 B9 1.742031 1_555
B13 B3 1.802695 1_545
B13 Cr3 2.344137 1_545
B13 Cr3 2.344137 1_645
B13 Sm3 2.697747 1_545
B13 Sm3 2.697747 1_645
B13 Sm1 2.776824 1_655
B13 Sm1 2.776824 1_555
B14 B2 1.901858 1_555
B14 Cr0 2.344137 1_655
B14 Cr0 2.344137 1_555
B14 Sm0 2.697747 1_555
B14 Sm0 2.697747 1_655
B14 Sm2 2.776824 1_555
B14 Sm2 2.776824 1_655
B15 B3 1.901858 1_555
B15 Cr1 2.344137 1_655
B15 Cr1 2.344137 1_555
B15 Sm1 2.697747 1_555
B15 Sm1 2.697747 1_655
B15 Sm3 2.776824 1_555
B15 Sm3 2.776824 1_655
