# generated using pymatgen
data_Ce2Mg
_symmetry_space_group_name_H-M   'P 1'
_cell_length_a   17.51436585
_cell_length_b   17.51436585
_cell_length_c   11.45102000
_cell_angle_alpha   90.00000000
_cell_angle_beta   90.00000000
_cell_angle_gamma   158.69882413
_symmetry_Int_Tables_number   1
_chemical_formula_structural   Ce2Mg
_chemical_formula_sum   'Ce32 Mg16'
_cell_volume   1276.03610208
_cell_formula_units_Z   16
loop_
 _symmetry_equiv_pos_site_id
 _symmetry_equiv_pos_as_xyz
  1  'x, y, z'
loop_
 _atom_site_type_symbol
 _atom_site_label
 _atom_site_symmetry_multiplicity
 _atom_site_fract_x
 _atom_site_fract_y
 _atom_site_fract_z
 _atom_site_occupancy
  Ce  Ce0_0  1  0.00126250  0.49873750  0.00000000  1
  Ce  Ce0_1  1  0.00126250  0.49873750  0.50000000  1
  Ce  Ce0_2  1  0.00126250  0.99873750  0.00000000  1
  Ce  Ce0_3  1  0.00126250  0.99873750  0.50000000  1
  Ce  Ce0_4  1  0.50126250  0.49873750  0.00000000  1
  Ce  Ce0_5  1  0.50126250  0.49873750  0.50000000  1
  Ce  Ce0_6  1  0.50126250  0.99873750  0.00000000  1
  Ce  Ce0_7  1  0.50126250  0.99873750  0.50000000  1
  Ce  Ce1_0  1  0.16153750  0.33846250  0.00000000  1
  Ce  Ce1_1  1  0.16153750  0.33846250  0.50000000  1
  Ce  Ce1_2  1  0.16153750  0.83846250  0.00000000  1
  Ce  Ce1_3  1  0.16153750  0.83846250  0.50000000  1
  Ce  Ce1_4  1  0.66153750  0.33846250  0.00000000  1
  Ce  Ce1_5  1  0.66153750  0.33846250  0.50000000  1
  Ce  Ce1_6  1  0.66153750  0.83846250  0.00000000  1
  Ce  Ce1_7  1  0.66153750  0.83846250  0.50000000  1
  Ce  Ce2_0  1  0.33240000  0.16760000  0.00000000  1
  Ce  Ce2_1  1  0.33240000  0.16760000  0.50000000  1
  Ce  Ce2_2  1  0.33240000  0.66760000  0.00000000  1
  Ce  Ce2_3  1  0.33240000  0.66760000  0.50000000  1
  Ce  Ce2_4  1  0.83240000  0.16760000  0.00000000  1
  Ce  Ce2_5  1  0.83240000  0.16760000  0.50000000  1
  Ce  Ce2_6  1  0.83240000  0.66760000  0.00000000  1
  Ce  Ce2_7  1  0.83240000  0.66760000  0.50000000  1
  Ce  Ce3_0  1  0.22580450  0.27419550  0.25000000  1
  Ce  Ce3_1  1  0.22580450  0.27419550  0.75000000  1
  Ce  Ce3_2  1  0.22580450  0.77419550  0.25000000  1
  Ce  Ce3_3  1  0.22580450  0.77419550  0.75000000  1
  Ce  Ce3_4  1  0.72580450  0.27419550  0.25000000  1
  Ce  Ce3_5  1  0.72580450  0.27419550  0.75000000  1
  Ce  Ce3_6  1  0.72580450  0.77419550  0.25000000  1
  Ce  Ce3_7  1  0.72580450  0.77419550  0.75000000  1
  Mg  Mg0_0  1  0.05929700  0.44070300  0.25000000  1
  Mg  Mg0_1  1  0.05929700  0.44070300  0.75000000  1
  Mg  Mg0_2  1  0.05929700  0.94070300  0.25000000  1
  Mg  Mg0_3  1  0.05929700  0.94070300  0.75000000  1
  Mg  Mg0_4  1  0.55929700  0.44070300  0.25000000  1
  Mg  Mg0_5  1  0.55929700  0.44070300  0.75000000  1
  Mg  Mg0_6  1  0.55929700  0.94070300  0.25000000  1
  Mg  Mg0_7  1  0.55929700  0.94070300  0.75000000  1
  Mg  Mg1_0  1  0.38636500  0.11363500  0.25000000  1
  Mg  Mg1_1  1  0.38636500  0.11363500  0.75000000  1
  Mg  Mg1_2  1  0.38636500  0.61363500  0.25000000  1
  Mg  Mg1_3  1  0.38636500  0.61363500  0.75000000  1
  Mg  Mg1_4  1  0.88636500  0.11363500  0.25000000  1
  Mg  Mg1_5  1  0.88636500  0.11363500  0.75000000  1
  Mg  Mg1_6  1  0.88636500  0.61363500  0.25000000  1
  Mg  Mg1_7  1  0.88636500  0.61363500  0.75000000  1
loop_
_geom_bond_atom_site_label_1
_geom_bond_atom_site_label_2
_geom_bond_distance
_geom_bond_site_symmetry_2
Ce0_0 Ce2_2 3.228217 1_555
Ce0_0 Ce2_4 3.228217 1_455
Ce0_0 Ce0_6 3.236990 1_555
Ce0_0 Ce0_6 3.236990 1_445
Ce0_0 Ce3_5 3.403376 1_454
Ce0_0 Ce3_4 3.403376 1_455
Ce0_0 Ce3_3 3.403376 1_554
Ce0_0 Ce3_2 3.403376 1_555
Ce0_0 Ce1_2 3.487156 1_555
Ce0_0 Ce1_4 3.487156 1_455
Ce0_0 Mg0_1 3.490958 1_554
Ce0_0 Mg0_0 3.490958 1_555
Ce0_1 Ce2_3 3.228217 1_555
Ce0_1 Ce2_5 3.228217 1_455
Ce0_1 Ce0_7 3.236990 1_555
Ce0_1 Ce0_7 3.236990 1_445
Ce0_1 Ce3_5 3.403376 1_455
Ce0_1 Ce3_4 3.403376 1_455
Ce0_1 Ce3_2 3.403376 1_555
Ce0_1 Ce3_3 3.403376 1_555
Ce0_1 Ce1_3 3.487156 1_555
Ce0_1 Ce1_5 3.487156 1_455
Ce0_1 Mg0_0 3.490958 1_555
Ce0_1 Mg0_1 3.490958 1_555
Ce0_2 Ce2_0 3.228217 1_565
Ce0_2 Ce2_6 3.228217 1_455
Ce0_2 Ce0_4 3.236990 1_455
Ce0_2 Ce0_4 3.236990 1_565
Ce0_2 Ce3_1 3.403376 1_564
Ce0_2 Ce3_0 3.403376 1_565
Ce0_2 Ce3_7 3.403376 1_454
Ce0_2 Ce3_6 3.403376 1_455
Ce0_2 Ce1_0 3.487156 1_565
Ce0_2 Ce1_6 3.487156 1_455
Ce0_2 Mg0_2 3.490958 1_555
Ce0_2 Mg0_3 3.490958 1_554
Ce0_3 Ce2_1 3.228217 1_565
Ce0_3 Ce2_7 3.228217 1_455
Ce0_3 Ce0_5 3.236990 1_455
Ce0_3 Ce0_5 3.236990 1_565
Ce0_3 Ce3_0 3.403376 1_565
Ce0_3 Ce3_1 3.403376 1_565
Ce0_3 Ce3_7 3.403376 1_455
Ce0_3 Ce3_6 3.403376 1_455
Ce0_3 Ce1_1 3.487156 1_565
Ce0_3 Ce1_7 3.487156 1_455
Ce0_3 Mg0_3 3.490958 1_555
Ce0_3 Mg0_2 3.490958 1_555
Ce0_4 Ce2_6 3.228217 1_555
Ce0_4 Ce2_0 3.228217 1_555
Ce0_4 Ce3_7 3.403376 1_554
Ce0_4 Ce3_6 3.403376 1_555
Ce0_4 Ce3_1 3.403376 1_554
Ce0_4 Ce3_0 3.403376 1_555
Ce0_4 Ce1_6 3.487156 1_555
Ce0_4 Ce1_0 3.487156 1_555
Ce0_4 Mg0_5 3.490958 1_554
Ce0_4 Mg0_4 3.490958 1_555
Ce0_5 Ce2_7 3.228217 1_555
Ce0_5 Ce2_1 3.228217 1_555
Ce0_5 Ce3_6 3.403376 1_555
Ce0_5 Ce3_7 3.403376 1_555
Ce0_5 Ce3_1 3.403376 1_555
Ce0_5 Ce3_0 3.403376 1_555
Ce0_5 Ce1_7 3.487156 1_555
Ce0_5 Ce1_1 3.487156 1_555
Ce0_5 Mg0_4 3.490958 1_555
Ce0_5 Mg0_5 3.490958 1_555
Ce0_6 Ce2_2 3.228217 1_555
Ce0_6 Ce2_4 3.228217 1_565
Ce0_6 Ce3_2 3.403376 1_555
Ce0_6 Ce3_3 3.403376 1_554
Ce0_6 Ce3_5 3.403376 1_564
Ce0_6 Ce3_4 3.403376 1_565
Ce0_6 Ce1_4 3.487156 1_565
Ce0_6 Ce1_2 3.487156 1_555
Ce0_6 Mg0_7 3.490958 1_554
Ce0_6 Mg0_6 3.490958 1_555
Ce0_7 Ce2_3 3.228217 1_555
Ce0_7 Ce2_5 3.228217 1_565
Ce0_7 Ce3_3 3.403376 1_555
Ce0_7 Ce3_2 3.403376 1_555
Ce0_7 Ce3_4 3.403376 1_565
Ce0_7 Ce3_5 3.403376 1_565
Ce0_7 Ce1_5 3.487156 1_565
Ce0_7 Ce1_3 3.487156 1_555
Ce0_7 Mg0_6 3.490958 1_555
Ce0_7 Mg0_7 3.490958 1_555
Ce1_0 Ce2_4 3.168833 1_455
Ce1_0 Ce2_2 3.168833 1_555
Ce1_0 Ce1_6 3.236990 1_555
Ce1_0 Ce1_6 3.236990 1_445
Ce1_0 Mg1_3 3.400858 1_554
Ce1_0 Mg1_2 3.400858 1_555
Ce1_0 Mg1_4 3.400858 1_455
Ce1_0 Mg1_5 3.400858 1_454
Ce1_0 Ce3_1 3.618027 1_554
Ce1_0 Ce3_0 3.618027 1_555
Ce1_1 Ce2_5 3.168833 1_455
Ce1_1 Ce2_3 3.168833 1_555
Ce1_1 Ce1_7 3.236990 1_555
Ce1_1 Ce1_7 3.236990 1_445
Ce1_1 Mg1_5 3.400858 1_455
Ce1_1 Mg1_2 3.400858 1_555
Ce1_1 Mg1_4 3.400858 1_455
Ce1_1 Mg1_3 3.400858 1_555
Ce1_1 Ce3_1 3.618027 1_555
Ce1_1 Ce3_0 3.618027 1_555
Ce1_2 Ce2_0 3.168833 1_565
Ce1_2 Ce2_6 3.168833 1_455
Ce1_2 Ce1_4 3.236990 1_565
Ce1_2 Ce1_4 3.236990 1_455
Ce1_2 Mg1_1 3.400858 1_564
Ce1_2 Mg1_0 3.400858 1_565
Ce1_2 Mg1_7 3.400858 1_454
Ce1_2 Mg1_6 3.400858 1_455
Ce1_2 Ce3_3 3.618027 1_554
Ce1_2 Ce3_2 3.618027 1_555
Ce1_3 Ce2_1 3.168833 1_565
Ce1_3 Ce2_7 3.168833 1_455
Ce1_3 Ce1_5 3.236990 1_565
Ce1_3 Ce1_5 3.236990 1_455
Ce1_3 Mg1_1 3.400858 1_565
Ce1_3 Mg1_0 3.400858 1_565
Ce1_3 Mg1_7 3.400858 1_455
Ce1_3 Mg1_6 3.400858 1_455
Ce1_3 Ce3_3 3.618027 1_555
Ce1_3 Ce3_2 3.618027 1_555
Ce1_4 Ce2_6 3.168833 1_555
Ce1_4 Ce2_0 3.168833 1_555
Ce1_4 Mg1_1 3.400858 1_554
Ce1_4 Mg1_6 3.400858 1_555
Ce1_4 Mg1_7 3.400858 1_554
Ce1_4 Mg1_0 3.400858 1_555
Ce1_4 Ce3_4 3.618027 1_555
Ce1_4 Ce3_5 3.618027 1_554
Ce1_5 Ce2_7 3.168833 1_555
Ce1_5 Ce2_1 3.168833 1_555
Ce1_5 Mg1_6 3.400858 1_555
Ce1_5 Mg1_0 3.400858 1_555
Ce1_5 Mg1_1 3.400858 1_555
Ce1_5 Mg1_7 3.400858 1_555
Ce1_5 Ce3_5 3.618027 1_555
Ce1_5 Ce3_4 3.618027 1_555
Ce1_6 Ce2_2 3.168833 1_555
Ce1_6 Ce2_4 3.168833 1_565
Ce1_6 Mg1_2 3.400858 1_555
Ce1_6 Mg1_3 3.400858 1_554
Ce1_6 Mg1_4 3.400858 1_565
Ce1_6 Mg1_5 3.400858 1_564
Ce1_6 Ce3_7 3.618027 1_554
Ce1_6 Ce3_6 3.618027 1_555
Ce1_7 Ce2_3 3.168833 1_555
Ce1_7 Ce2_5 3.168833 1_565
Ce1_7 Mg1_2 3.400858 1_555
Ce1_7 Mg1_3 3.400858 1_555
Ce1_7 Mg1_4 3.400858 1_565
Ce1_7 Mg1_5 3.400858 1_565
Ce1_7 Ce3_7 3.618027 1_555
Ce1_7 Ce3_6 3.618027 1_555
Ce2_0 Ce2_6 3.236990 1_555
Ce2_0 Ce2_6 3.236990 1_445
Ce2_0 Mg0_5 3.383406 1_554
Ce2_0 Mg0_4 3.383406 1_555
Ce2_0 Mg0_2 3.383406 1_545
Ce2_0 Mg0_3 3.383406 1_544
Ce2_0 Mg1_1 3.412717 1_554
Ce2_0 Mg1_0 3.412717 1_555
Ce2_1 Ce2_7 3.236990 1_555
Ce2_1 Ce2_7 3.236990 1_445
Ce2_1 Mg0_4 3.383406 1_555
Ce2_1 Mg0_5 3.383406 1_555
Ce2_1 Mg0_3 3.383406 1_545
Ce2_1 Mg0_2 3.383406 1_545
Ce2_1 Mg1_0 3.412717 1_555
Ce2_1 Mg1_1 3.412717 1_555
Ce2_2 Ce2_4 3.236990 1_455
Ce2_2 Ce2_4 3.236990 1_565
Ce2_2 Mg0_7 3.383406 1_554
Ce2_2 Mg0_6 3.383406 1_555
Ce2_2 Mg0_0 3.383406 1_555
Ce2_2 Mg0_1 3.383406 1_554
Ce2_2 Mg1_2 3.412717 1_555
Ce2_2 Mg1_3 3.412717 1_554
Ce2_3 Ce2_5 3.236990 1_455
Ce2_3 Ce2_5 3.236990 1_565
Ce2_3 Mg0_7 3.383406 1_555
Ce2_3 Mg0_6 3.383406 1_555
Ce2_3 Mg0_0 3.383406 1_555
Ce2_3 Mg0_1 3.383406 1_555
Ce2_3 Mg1_3 3.412717 1_555
Ce2_3 Mg1_2 3.412717 1_555
Ce2_4 Mg0_0 3.383406 1_655
Ce2_4 Mg0_1 3.383406 1_654
Ce2_4 Mg0_6 3.383406 1_545
Ce2_4 Mg0_7 3.383406 1_544
Ce2_4 Mg1_5 3.412717 1_554
Ce2_4 Mg1_4 3.412717 1_555
Ce2_5 Mg0_0 3.383406 1_655
Ce2_5 Mg0_1 3.383406 1_655
Ce2_5 Mg0_6 3.383406 1_545
Ce2_5 Mg0_7 3.383406 1_545
Ce2_5 Mg1_4 3.412717 1_555
Ce2_5 Mg1_5 3.412717 1_555
Ce2_6 Mg0_2 3.383406 1_655
Ce2_6 Mg0_3 3.383406 1_654
Ce2_6 Mg0_5 3.383406 1_554
Ce2_6 Mg0_4 3.383406 1_555
Ce2_6 Mg1_7 3.412717 1_554
Ce2_6 Mg1_6 3.412717 1_555
Ce2_7 Mg0_2 3.383406 1_655
Ce2_7 Mg0_3 3.383406 1_655
Ce2_7 Mg0_4 3.383406 1_555
Ce2_7 Mg0_5 3.383406 1_555
Ce2_7 Mg1_6 3.412717 1_555
Ce2_7 Mg1_7 3.412717 1_555
Ce3_0 Ce3_6 3.236990 1_555
Ce3_0 Ce3_6 3.236990 1_445
Ce3_0 Mg0_4 3.298614 1_555
Ce3_0 Mg0_2 3.298614 1_545
Ce3_0 Mg1_4 3.478454 1_455
Ce3_0 Mg1_2 3.478454 1_555
Ce3_1 Ce3_7 3.236990 1_555
Ce3_1 Ce3_7 3.236990 1_445
Ce3_1 Mg0_5 3.298614 1_555
Ce3_1 Mg0_3 3.298614 1_545
Ce3_1 Mg1_5 3.478454 1_455
Ce3_1 Mg1_3 3.478454 1_555
Ce3_2 Ce3_4 3.236990 1_455
Ce3_2 Ce3_4 3.236990 1_565
Ce3_2 Mg0_6 3.298614 1_555
Ce3_2 Mg0_0 3.298614 1_555
Ce3_2 Mg1_0 3.478454 1_565
Ce3_2 Mg1_6 3.478454 1_455
Ce3_3 Ce3_5 3.236990 1_455
Ce3_3 Ce3_5 3.236990 1_565
Ce3_3 Mg0_7 3.298614 1_555
Ce3_3 Mg0_1 3.298614 1_555
Ce3_3 Mg1_1 3.478454 1_565
Ce3_3 Mg1_7 3.478454 1_455
Ce3_4 Mg0_0 3.298614 1_655
Ce3_4 Mg0_6 3.298614 1_545
Ce3_4 Mg1_0 3.478454 1_555
Ce3_4 Mg1_6 3.478454 1_555
Ce3_5 Mg0_1 3.298614 1_655
Ce3_5 Mg0_7 3.298614 1_545
Ce3_5 Mg1_1 3.478454 1_555
Ce3_5 Mg1_7 3.478454 1_555
Ce3_6 Mg0_2 3.298614 1_655
Ce3_6 Mg0_4 3.298614 1_555
Ce3_6 Mg1_4 3.478454 1_565
Ce3_6 Mg1_2 3.478454 1_555
Ce3_7 Mg0_3 3.298614 1_655
Ce3_7 Mg0_5 3.298614 1_555
Ce3_7 Mg1_5 3.478454 1_565
Ce3_7 Mg1_3 3.478454 1_555
Mg0_0 Mg1_4 3.107796 1_455
Mg0_0 Mg1_2 3.107796 1_555
Mg0_0 Mg0_6 3.236990 1_445
Mg0_0 Mg0_6 3.236990 1_555
Mg0_1 Mg1_5 3.107796 1_455
Mg0_1 Mg1_3 3.107796 1_555
Mg0_1 Mg0_7 3.236990 1_445
Mg0_1 Mg0_7 3.236990 1_555
Mg0_2 Mg1_6 3.107796 1_455
Mg0_2 Mg1_0 3.107796 1_565
Mg0_2 Mg0_4 3.236990 1_455
Mg0_2 Mg0_4 3.236990 1_565
Mg0_3 Mg1_7 3.107796 1_455
Mg0_3 Mg1_1 3.107796 1_565
Mg0_3 Mg0_5 3.236990 1_455
Mg0_3 Mg0_5 3.236990 1_565
Mg0_4 Mg1_0 3.107796 1_555
Mg0_4 Mg1_6 3.107796 1_555
Mg0_5 Mg1_1 3.107796 1_555
Mg0_5 Mg1_7 3.107796 1_555
Mg0_6 Mg1_2 3.107796 1_555
Mg0_6 Mg1_4 3.107796 1_565
Mg0_7 Mg1_3 3.107796 1_555
Mg0_7 Mg1_5 3.107796 1_565
Mg1_0 Mg1_6 3.236990 1_555
Mg1_0 Mg1_6 3.236990 1_445
Mg1_1 Mg1_7 3.236990 1_555
Mg1_1 Mg1_7 3.236990 1_445
Mg1_2 Mg1_4 3.236990 1_565
Mg1_2 Mg1_4 3.236990 1_455
Mg1_3 Mg1_5 3.236990 1_565
Mg1_3 Mg1_5 3.236990 1_455
