# generated using pymatgen
data_LiMg14Mo
_symmetry_space_group_name_H-M   'P 1'
_cell_length_a   6.31985131
_cell_length_b   6.31985081
_cell_length_c   9.90481972
_cell_angle_alpha   90.00000000
_cell_angle_beta   90.00000000
_cell_angle_gamma   120.00000268
_symmetry_Int_Tables_number   1
_chemical_formula_structural   LiMg14Mo
_chemical_formula_sum   'Li1 Mg14 Mo1'
_cell_volume   342.60277935
_cell_formula_units_Z   1
loop_
 _symmetry_equiv_pos_site_id
 _symmetry_equiv_pos_as_xyz
  1  'x, y, z'
loop_
 _atom_site_type_symbol
 _atom_site_label
 _atom_site_symmetry_multiplicity
 _atom_site_fract_x
 _atom_site_fract_y
 _atom_site_fract_z
 _atom_site_occupancy
  Li  Li0  1  0.16666700  0.33333300  0.12500000  1
  Mg  Mg0  1  0.16846519  0.83423210  0.12500000  1
  Mg  Mg1  1  0.16809832  0.83404866  0.62500000  1
  Mg  Mg2  1  0.66576790  0.33153481  0.12500000  1
  Mg  Mg3  1  0.66595134  0.33190168  0.62500000  1
  Mg  Mg4  1  0.66576790  0.83423210  0.12500000  1
  Mg  Mg5  1  0.66595134  0.83404866  0.62500000  1
  Mg  Mg6  1  0.32756910  0.17243090  0.38083518  1
  Mg  Mg7  1  0.32756910  0.17243090  0.86916482  1
  Mg  Mg8  1  0.32756910  0.65513919  0.38083518  1
  Mg  Mg9  1  0.32756910  0.65513919  0.86916482  1
  Mg  Mg10  1  0.84486081  0.17243090  0.38083518  1
  Mg  Mg11  1  0.84486081  0.17243090  0.86916482  1
  Mg  Mg12  1  0.83333300  0.66666700  0.37499813  1
  Mg  Mg13  1  0.83333300  0.66666700  0.87500187  1
  Mo  Mo0  1  0.16666700  0.33333300  0.62500000  1
loop_
_geom_bond_atom_site_label_1
_geom_bond_atom_site_label_2
_geom_bond_distance
_geom_bond_site_symmetry_2
Li0 Mg7 3.085981 1_554
Li0 Mg6 3.085981 1_555
Li0 Mg9 3.085988 1_554
Li0 Mg8 3.085988 1_555
Li0 Mg11 3.085988 1_454
Li0 Mg10 3.085988 1_455
Li0 Mg0 3.159941 1_545
Li0 Mg4 3.159941 1_555
Li0 Mg4 3.159941 1_445
Li0 Mg0 3.159941 1_555
Li0 Mg2 3.159941 1_555
Li0 Mg2 3.159941 1_455
Mg0 Mg13 3.081541 1_454
Mg0 Mg12 3.081541 1_455
Mg0 Mg8 3.138688 1_555
Mg0 Mg9 3.138688 1_554
Mg0 Mg7 3.138694 1_564
Mg0 Mg6 3.138694 1_565
Mg0 Mg2 3.142879 1_565
Mg0 Mg4 3.142879 1_555
Mg0 Mg2 3.176972 1_455
Mg0 Mg4 3.176972 1_455
Mg1 Mg8 3.046703 1_555
Mg1 Mg9 3.046703 1_555
Mg1 Mg6 3.046710 1_565
Mg1 Mg7 3.046710 1_565
Mg1 Mg12 3.080376 1_455
Mg1 Mg13 3.080376 1_455
Mg1 Mg3 3.146357 1_565
Mg1 Mg5 3.146357 1_555
Mg1 Mo0 3.159935 1_555
Mg1 Mo0 3.159935 1_565
Mg1 Mg3 3.173494 1_455
Mg1 Mg5 3.173494 1_455
Mg2 Mg7 3.138695 1_554
Mg2 Mg6 3.138695 1_555
Mg2 Mg4 3.142879 1_545
Mg2 Mg4 3.176972 1_555
Mg3 Mg6 3.046710 1_555
Mg3 Mg7 3.046710 1_555
Mg3 Mg5 3.146357 1_545
Mg3 Mo0 3.159935 1_655
Mg3 Mo0 3.159935 1_555
Mg3 Mg5 3.173494 1_555
Mg4 Mg9 3.138694 1_554
Mg4 Mg8 3.138694 1_555
Mg5 Mg8 3.046710 1_555
Mg5 Mg9 3.046710 1_555
Mg5 Mo0 3.159935 1_555
Mg5 Mo0 3.159935 1_665
Mg6 Mo0 2.991792 1_555
Mg6 Mg8 3.050644 1_555
Mg6 Mg8 3.269206 1_545
Mg7 Mo0 2.991792 1_555
Mg7 Mg9 3.050644 1_555
Mg7 Mg9 3.269206 1_545
Mg8 Mo0 2.991798 1_555
Mg9 Mo0 2.991798 1_555
Mg10 Mo0 2.991798 1_655
Mg10 Mg3 3.046703 1_555
Mg10 Mg5 3.046710 1_545
Mg10 Mg8 3.050644 1_655
Mg10 Mg6 3.050645 1_655
Mg10 Mg2 3.138688 1_555
Mg10 Mg4 3.138694 1_545
Mg10 Mg12 3.161084 1_545
Mg10 Mg12 3.161084 1_555
Mg10 Mg8 3.269206 1_545
Mg10 Mg6 3.269207 1_555
Mg11 Mo0 2.991798 1_655
Mg11 Mg3 3.046703 1_555
Mg11 Mg5 3.046710 1_545
Mg11 Mg9 3.050644 1_655
Mg11 Mg7 3.050645 1_655
Mg11 Mg2 3.138688 1_556
Mg11 Mg4 3.138694 1_546
Mg11 Mg13 3.161084 1_545
Mg11 Mg13 3.161084 1_555
Mg11 Mg9 3.269206 1_545
Mg11 Mg7 3.269207 1_555
Mg12 Mg5 3.080370 1_555
Mg12 Mg3 3.080376 1_555
Mg12 Mg4 3.081535 1_555
Mg12 Mg2 3.081541 1_555
Mg12 Mg6 3.161084 1_665
Mg12 Mg6 3.161084 1_555
Mg12 Mg8 3.161084 1_555
Mg12 Mg8 3.161084 1_655
Mg13 Mg5 3.080370 1_555
Mg13 Mg3 3.080376 1_555
Mg13 Mg4 3.081535 1_556
Mg13 Mg2 3.081541 1_556
Mg13 Mg7 3.161084 1_665
Mg13 Mg7 3.161084 1_555
Mg13 Mg9 3.161084 1_555
Mg13 Mg9 3.161084 1_655
