# generated using pymatgen
data_BaNaTiF6
_symmetry_space_group_name_H-M   'P 1'
_cell_length_a   5.80470200
_cell_length_b   9.99312500
_cell_length_c   19.41601100
_cell_angle_alpha   90.00000000
_cell_angle_beta   90.00000000
_cell_angle_gamma   90.00000000
_symmetry_Int_Tables_number   1
_chemical_formula_structural   BaNaTiF6
_chemical_formula_sum   'Ba8 Na8 Ti8 F48'
_cell_volume   1126.26673775
_cell_formula_units_Z   8
loop_
 _symmetry_equiv_pos_site_id
 _symmetry_equiv_pos_as_xyz
  1  'x, y, z'
loop_
 _atom_site_type_symbol
 _atom_site_label
 _atom_site_symmetry_multiplicity
 _atom_site_fract_x
 _atom_site_fract_y
 _atom_site_fract_z
 _atom_site_occupancy
  Ba  Ba0  1  0.75686400  0.36438800  0.11290000  1
  Ba  Ba1  1  0.24313600  0.86438800  0.88710000  1
  Ba  Ba2  1  0.74313600  0.36438800  0.61290000  1
  Ba  Ba3  1  0.25686400  0.86438800  0.38710000  1
  Ba  Ba4  1  0.25905000  0.00390900  0.13571900  1
  Ba  Ba5  1  0.74095000  0.50390900  0.86428100  1
  Ba  Ba6  1  0.24095000  0.00390900  0.63571900  1
  Ba  Ba7  1  0.75905000  0.50390900  0.36428100  1
  Na  Na0  1  0.26243500  0.64226300  0.06321600  1
  Na  Na1  1  0.73756500  0.14226300  0.93678400  1
  Na  Na2  1  0.23756500  0.64226300  0.56321600  1
  Na  Na3  1  0.76243500  0.14226300  0.43678400  1
  Na  Na4  1  0.26340200  0.22477400  0.31225100  1
  Na  Na5  1  0.73659800  0.72477400  0.68774900  1
  Na  Na6  1  0.23659800  0.22477400  0.81225100  1
  Na  Na7  1  0.76340200  0.72477400  0.18774900  1
  Ti  Ti0  1  0.26533700  0.26386100  0.49301600  1
  Ti  Ti1  1  0.73466300  0.76386100  0.50698400  1
  Ti  Ti2  1  0.23466300  0.26386100  0.99301600  1
  Ti  Ti3  1  0.76533700  0.76386100  0.00698400  1
  Ti  Ti4  1  0.25332300  0.60337600  0.24388200  1
  Ti  Ti5  1  0.74667700  0.10337600  0.75611800  1
  Ti  Ti6  1  0.24667700  0.60337600  0.74388200  1
  Ti  Ti7  1  0.75332300  0.10337600  0.25611800  1
  F  F0  1  0.02171300  0.17329200  0.06008200  1
  F  F1  1  0.97828700  0.67329200  0.93991800  1
  F  F2  1  0.47828700  0.17329200  0.56008200  1
  F  F3  1  0.52171300  0.67329200  0.43991800  1
  F  F4  1  0.34661200  0.11770200  0.43009800  1
  F  F5  1  0.65338800  0.61770200  0.56990200  1
  F  F6  1  0.15338800  0.11770200  0.93009800  1
  F  F7  1  0.84661200  0.61770200  0.06990200  1
  F  F8  1  0.49903200  0.16114100  0.03472200  1
  F  F9  1  0.50096800  0.66114100  0.96527800  1
  F  F10  1  0.00096800  0.16114100  0.53472200  1
  F  F11  1  0.99903200  0.66114100  0.46527800  1
  F  F12  1  0.48064600  0.54696100  0.17281200  1
  F  F13  1  0.51935400  0.04696100  0.82718800  1
  F  F14  1  0.01935400  0.54696100  0.67281200  1
  F  F15  1  0.98064600  0.04696100  0.32718800  1
  F  F16  1  0.53049700  0.19307800  0.19022300  1
  F  F17  1  0.46950300  0.69307800  0.80977700  1
  F  F18  1  0.96950300  0.19307800  0.69022300  1
  F  F19  1  0.03049700  0.69307800  0.30977700  1
  F  F20  1  0.30389000  0.45997000  0.30853300  1
  F  F21  1  0.69611000  0.95997000  0.69146700  1
  F  F22  1  0.19611000  0.45997000  0.80853300  1
  F  F23  1  0.80389000  0.95997000  0.19146700  1
  F  F24  1  0.04593500  0.32631100  0.42061300  1
  F  F25  1  0.95406500  0.82631100  0.57938700  1
  F  F26  1  0.45406500  0.32631100  0.92061300  1
  F  F27  1  0.54593500  0.82631100  0.07938700  1
  F  F28  1  0.01650000  0.20016000  0.21101400  1
  F  F29  1  0.98350000  0.70016000  0.78898600  1
  F  F30  1  0.48350000  0.20016000  0.71101400  1
  F  F31  1  0.51650000  0.70016000  0.28898600  1
  F  F32  1  0.55843400  0.35583900  0.46304600  1
  F  F33  1  0.44156600  0.85583900  0.53695400  1
  F  F34  1  0.94156600  0.35583900  0.96304600  1
  F  F35  1  0.05843400  0.85583900  0.03695400  1
  F  F36  1  0.18396400  0.74935700  0.18003600  1
  F  F37  1  0.81603600  0.24935700  0.81996400  1
  F  F38  1  0.31603600  0.74935700  0.68003600  1
  F  F39  1  0.68396400  0.24935700  0.31996400  1
  F  F40  1  0.30602200  0.40859600  0.05482000  1
  F  F41  1  0.69397800  0.90859600  0.94518000  1
  F  F42  1  0.19397800  0.40859600  0.55482000  1
  F  F43  1  0.80602200  0.90859600  0.44518000  1
  F  F44  1  0.46610000  0.01062400  0.29001500  1
  F  F45  1  0.53390000  0.51062400  0.70998500  1
  F  F46  1  0.03390000  0.01062400  0.79001500  1
  F  F47  1  0.96610000  0.51062400  0.20998500  1
loop_
_geom_bond_atom_site_label_1
_geom_bond_atom_site_label_2
_geom_bond_distance
_geom_bond_site_symmetry_2
Ba0 F16 2.628910 1_555
Ba0 F0 2.657430 1_655
Ba0 F47 2.676553 1_555
Ba0 F12 2.693072 1_555
Ba0 F7 2.715944 1_555
Ba0 F40 2.883668 1_555
Ba0 F28 2.931504 1_655
Ba0 F8 2.944353 1_555
Ba0 F34 3.101993 1_554
Ba1 F17 2.628910 1_555
Ba1 F1 2.657430 1_455
Ba1 F46 2.676553 1_565
Ba1 F13 2.693072 1_565
Ba1 F6 2.715944 1_565
Ba1 F41 2.883668 1_555
Ba1 F29 2.931504 1_455
Ba1 F9 2.944353 1_555
Ba1 F35 3.101993 1_556
Ba2 F18 2.628910 1_555
Ba2 F2 2.657430 1_555
Ba2 F45 2.676553 1_555
Ba2 F14 2.693072 1_655
Ba2 F5 2.715944 1_555
Ba2 F42 2.883668 1_655
Ba2 F30 2.931504 1_555
Ba2 F10 2.944353 1_655
Ba2 F32 3.101993 1_555
Ba3 F19 2.628910 1_555
Ba3 F3 2.657430 1_555
Ba3 F44 2.676553 1_565
Ba3 F15 2.693072 1_465
Ba3 F4 2.715944 1_565
Ba3 F43 2.883668 1_455
Ba3 F31 2.931504 1_555
Ba3 F11 2.944353 1_455
Ba3 F33 3.101993 1_555
Ba4 F0 2.630549 1_555
Ba4 F27 2.668184 1_545
Ba4 F16 2.678843 1_555
Ba4 F35 2.687533 1_545
Ba4 F36 2.720500 1_545
Ba4 F28 2.822349 1_555
Ba4 F8 2.873094 1_555
Ba4 F23 2.888758 1_445
Ba5 F1 2.630549 1_555
Ba5 F26 2.668184 1_555
Ba5 F17 2.678843 1_555
Ba5 F34 2.687533 1_555
Ba5 F37 2.720500 1_555
Ba5 F29 2.822349 1_555
Ba5 F9 2.873094 1_555
Ba5 F22 2.888758 1_655
Ba6 F2 2.630549 1_555
Ba6 F25 2.668184 1_445
Ba6 F18 2.678843 1_455
Ba6 F33 2.687533 1_545
Ba6 F38 2.720500 1_545
Ba6 F30 2.822349 1_555
Ba6 F10 2.873094 1_555
Ba6 F21 2.888758 1_545
Ba7 F3 2.630549 1_555
Ba7 F24 2.668184 1_655
Ba7 F19 2.678843 1_655
Ba7 F32 2.687533 1_555
Ba7 F39 2.720500 1_555
Ba7 F31 2.822349 1_555
Ba7 F11 2.873094 1_555
Ba7 F20 2.888758 1_555
F0 Ti2 2.010653 1_554
F1 Ti3 2.010653 1_556
F2 Ti0 2.010653 1_555
F3 Ti1 2.010653 1_555
F4 Ti0 1.961691 1_555
F4 Na3 2.429646 1_555
F4 Na4 2.571702 1_555
F5 Ti1 1.961691 1_555
F5 Na2 2.429646 1_555
F5 Na5 2.571702 1_555
F6 Ti2 1.961691 1_555
F6 Na1 2.429646 1_455
F6 Na6 2.571702 1_555
F7 Ti3 1.961691 1_555
F7 Na0 2.429646 1_655
F7 Na7 2.571702 1_555
F8 Ti2 2.016024 1_554
F8 Na1 2.359808 1_554
F9 Ti3 2.016024 1_556
F9 Na0 2.359808 1_556
F10 Ti0 2.016024 1_555
F10 Na3 2.359808 1_455
F11 Ti1 2.016024 1_555
F11 Na2 2.359808 1_655
F12 Ti4 1.990762 1_555
F12 Na7 2.436272 1_555
F12 Na0 2.653193 1_555
F13 Ti5 1.990762 1_555
F13 Na6 2.436272 1_555
F13 Na1 2.653193 1_555
F14 Ti6 1.990762 1_555
F14 Na5 2.436272 1_455
F14 Na2 2.653193 1_555
F15 Ti7 1.990762 1_555
F15 Na4 2.436272 1_655
F15 Na3 2.653193 1_555
F16 Ti7 2.028160 1_555
F16 Na4 2.849150 1_555
F17 Ti6 2.028160 1_555
F17 Na5 2.849150 1_555
F18 Ti5 2.028160 1_555
F18 Na6 2.849150 1_655
F19 Ti4 2.028160 1_555
F19 Na7 2.849150 1_455
F20 Ti4 1.927576 1_555
F20 Na4 2.363167 1_555
F21 Ti5 1.927576 1_565
F21 Na5 2.363167 1_555
F22 Ti6 1.927576 1_555
F22 Na6 2.363167 1_555
F23 Ti7 1.927576 1_565
F23 Na7 2.363167 1_555
F24 Ti0 1.996907 1_555
F24 Na3 2.487850 1_455
F24 Na4 2.655123 1_555
F25 Ti1 1.996907 1_555
F25 Na2 2.487850 1_655
F25 Na5 2.655123 1_555
F26 Ti2 1.996907 1_555
F26 Na1 2.487850 1_555
F26 Na6 2.655123 1_555
F27 Ti3 1.996907 1_555
F27 Na0 2.487850 1_555
F27 Na7 2.655123 1_555
F28 Ti7 2.009006 1_455
F28 Na4 2.445036 1_555
F29 Ti6 2.009006 1_655
F29 Na5 2.445036 1_555
F30 Ti5 2.009006 1_555
F30 Na6 2.445036 1_555
F31 Ti4 2.009006 1_555
F31 Na7 2.445036 1_555
F32 Ti0 2.019405 1_555
F32 Na3 2.493481 1_555
F33 Ti1 2.019405 1_555
F33 Na2 2.493481 1_555
F34 Ti2 2.019405 1_655
F34 Na1 2.493481 1_555
F35 Ti3 2.019405 1_455
F35 Na0 2.493481 1_555
F36 Ti4 1.956247 1_555
F36 Na7 2.458132 1_455
F36 Na0 2.549010 1_555
F37 Ti5 1.956247 1_555
F37 Na6 2.458132 1_655
F37 Na1 2.549010 1_555
F38 Ti6 1.956247 1_555
F38 Na5 2.458132 1_555
F38 Na2 2.549010 1_555
F39 Ti7 1.956247 1_555
F39 Na4 2.458132 1_555
F39 Na3 2.549010 1_555
F40 Ti2 1.924445 1_554
F40 Na0 2.354381 1_555
F41 Ti3 1.924445 1_556
F41 Na1 2.354381 1_565
F42 Ti0 1.924445 1_555
F42 Na2 2.354381 1_555
F43 Ti1 1.924445 1_555
F43 Na3 2.354381 1_565
F44 Ti7 2.017912 1_555
F44 Na4 2.480021 1_555
F45 Ti6 2.017912 1_555
F45 Na5 2.480021 1_555
F46 Ti5 2.017912 1_455
F46 Na6 2.480021 1_555
F47 Ti4 2.017912 1_655
F47 Na7 2.480021 1_555
