# generated using pymatgen
data_HfZr(CoSb)2
_symmetry_space_group_name_H-M   'P 1'
_cell_length_a   7.89518658
_cell_length_b   7.89518658
_cell_length_c   7.89518640
_cell_angle_alpha   33.76857017
_cell_angle_beta   33.76857017
_cell_angle_gamma   33.76856982
_symmetry_Int_Tables_number   1
_chemical_formula_structural   HfZr(CoSb)2
_chemical_formula_sum   'Hf1 Zr1 Co2 Sb2'
_cell_volume   135.48166918
_cell_formula_units_Z   1
loop_
 _symmetry_equiv_pos_site_id
 _symmetry_equiv_pos_as_xyz
  1  'x, y, z'
loop_
 _atom_site_type_symbol
 _atom_site_label
 _atom_site_symmetry_multiplicity
 _atom_site_fract_x
 _atom_site_fract_y
 _atom_site_fract_z
 _atom_site_occupancy
  Hf  Hf0  1  0.62569600  0.62569600  0.62569600  1
  Zr  Zr0  1  0.12449600  0.12449600  0.12449600  1
  Co  Co0  1  0.74959200  0.74959200  0.74959200  1
  Co  Co1  1  0.25105800  0.25105800  0.25105800  1
  Sb  Sb0  1  0.99822700  0.99822700  0.99822700  1
  Sb  Sb1  1  0.50093000  0.50093000  0.50093000  1
loop_
_geom_bond_atom_site_label_1
_geom_bond_atom_site_label_2
_geom_bond_distance
_geom_bond_site_symmetry_2
Hf0 Sb1 2.784008 1_555
Hf0 Sb0 2.788538 1_545
Hf0 Sb0 2.788538 1_455
Hf0 Sb0 2.788538 1_554
Co0 Hf0 2.764595 1_555
Co0 Zr0 2.805597 1_566
Co0 Zr0 2.805597 1_656
Co0 Zr0 2.805597 1_665
Co1 Hf0 2.803640 1_455
Co1 Hf0 2.803640 1_545
Co1 Hf0 2.803640 1_554
Co1 Zr0 2.824084 1_555
Sb0 Zr0 2.817546 1_666
Sb1 Zr0 2.817069 1_655
Sb1 Zr0 2.817069 1_565
Sb1 Zr0 2.817069 1_556
