# generated using pymatgen
data_Ag6Ge(S2Br)2
_symmetry_space_group_name_H-M   'P 1'
_cell_length_a   6.60796100
_cell_length_b   7.83209700
_cell_length_c   23.40944700
_cell_angle_alpha   90.00000000
_cell_angle_beta   90.00000000
_cell_angle_gamma   90.00000000
_symmetry_Int_Tables_number   1
_chemical_formula_structural   Ag6Ge(S2Br)2
_chemical_formula_sum   'Ag24 Ge4 S16 Br8'
_cell_volume   1211.53700351
_cell_formula_units_Z   4
loop_
 _symmetry_equiv_pos_site_id
 _symmetry_equiv_pos_as_xyz
  1  'x, y, z'
loop_
 _atom_site_type_symbol
 _atom_site_label
 _atom_site_symmetry_multiplicity
 _atom_site_fract_x
 _atom_site_fract_y
 _atom_site_fract_z
 _atom_site_occupancy
  Ag  Ag0  1  0.46908700  0.25000000  0.64397500  1
  Ag  Ag1  1  0.53091300  0.75000000  0.35602500  1
  Ag  Ag2  1  0.03091300  0.75000000  0.14397500  1
  Ag  Ag3  1  0.96908700  0.25000000  0.85602500  1
  Ag  Ag4  1  0.09553400  0.04354600  0.28077700  1
  Ag  Ag5  1  0.90446600  0.95645400  0.71922300  1
  Ag  Ag6  1  0.40446600  0.95645400  0.78077700  1
  Ag  Ag7  1  0.90446600  0.54354600  0.71922300  1
  Ag  Ag8  1  0.59553400  0.04354600  0.21922300  1
  Ag  Ag9  1  0.09553400  0.45645400  0.28077700  1
  Ag  Ag10  1  0.59553400  0.45645400  0.21922300  1
  Ag  Ag11  1  0.40446600  0.54354600  0.78077700  1
  Ag  Ag12  1  0.00193200  0.06467100  0.42789500  1
  Ag  Ag13  1  0.99806800  0.93532900  0.57210500  1
  Ag  Ag14  1  0.49806800  0.93532900  0.92789500  1
  Ag  Ag15  1  0.99806800  0.56467100  0.57210500  1
  Ag  Ag16  1  0.50193200  0.06467100  0.07210500  1
  Ag  Ag17  1  0.00193200  0.43532900  0.42789500  1
  Ag  Ag18  1  0.50193200  0.43532900  0.07210500  1
  Ag  Ag19  1  0.49806800  0.56467100  0.92789500  1
  Ag  Ag20  1  0.00000000  0.00000000  0.00000000  1
  Ag  Ag21  1  0.50000000  0.00000000  0.50000000  1
  Ag  Ag22  1  0.00000000  0.50000000  0.00000000  1
  Ag  Ag23  1  0.50000000  0.50000000  0.50000000  1
  Ge  Ge0  1  0.00368500  0.25000000  0.13089600  1
  Ge  Ge1  1  0.99631500  0.75000000  0.86910400  1
  Ge  Ge2  1  0.49631500  0.75000000  0.63089600  1
  Ge  Ge3  1  0.50368500  0.25000000  0.36910400  1
  S  S0  1  0.18775300  0.25000000  0.04755200  1
  S  S1  1  0.81224700  0.75000000  0.95244800  1
  S  S2  1  0.31224700  0.75000000  0.54755200  1
  S  S3  1  0.68775300  0.25000000  0.45244800  1
  S  S4  1  0.31344300  0.01185300  0.37237500  1
  S  S5  1  0.68655700  0.98814700  0.62762500  1
  S  S6  1  0.18655700  0.98814700  0.87237500  1
  S  S7  1  0.68655700  0.51185300  0.62762500  1
  S  S8  1  0.81344300  0.01185300  0.12762500  1
  S  S9  1  0.31344300  0.48814700  0.37237500  1
  S  S10  1  0.81344300  0.48814700  0.12762500  1
  S  S11  1  0.18655700  0.51185300  0.87237500  1
  S  S12  1  0.21552400  0.25000000  0.20511000  1
  S  S13  1  0.78447600  0.75000000  0.79489000  1
  S  S14  1  0.28447600  0.75000000  0.70511000  1
  S  S15  1  0.71552400  0.25000000  0.29489000  1
  Br  Br0  1  0.16955900  0.25000000  0.54093700  1
  Br  Br1  1  0.83044100  0.75000000  0.45906300  1
  Br  Br2  1  0.33044100  0.75000000  0.04093700  1
  Br  Br3  1  0.66955900  0.25000000  0.95906300  1
  Br  Br4  1  0.13361500  0.25000000  0.70863900  1
  Br  Br5  1  0.86638500  0.75000000  0.29136100  1
  Br  Br6  1  0.36638500  0.75000000  0.20863900  1
  Br  Br7  1  0.63361500  0.25000000  0.79136100  1
loop_
_geom_bond_atom_site_label_1
_geom_bond_atom_site_label_2
_geom_bond_distance
_geom_bond_site_symmetry_2
Ag0 S5 2.533294 1_545
Ag0 S7 2.533294 1_555
Ag0 Br4 2.684320 1_555
Ag0 Br0 3.120185 1_555
Ag1 S4 2.533294 1_565
Ag1 S9 2.533294 1_555
Ag1 Br5 2.684320 1_555
Ag1 Br1 3.120185 1_555
Ag2 S8 2.533294 1_465
Ag2 S10 2.533294 1_455
Ag2 Br6 2.684320 1_555
Ag2 Br2 3.120185 1_555
Ag3 S11 2.533294 1_655
Ag3 S6 2.533294 1_645
Ag3 Br7 2.684320 1_555
Ag3 Br3 3.120185 1_555
Ag4 S12 2.526033 1_555
Ag4 S4 2.594777 1_555
Ag4 Br5 2.764052 1_445
Ag4 S15 3.004882 1_455
Ag5 S13 2.526033 1_555
Ag5 S5 2.594777 1_555
Ag5 Br4 2.764052 1_665
Ag5 S14 3.004882 1_655
Ag6 S14 2.526033 1_555
Ag6 S6 2.594777 1_555
Ag6 Br7 2.764052 1_565
Ag6 S13 3.004882 1_555
Ag7 S13 2.526033 1_555
Ag7 S7 2.594777 1_555
Ag7 Br4 2.764052 1_655
Ag7 S14 3.004882 1_655
Ag8 S15 2.526033 1_555
Ag8 S8 2.594777 1_555
Ag8 Br6 2.764052 1_545
Ag8 S12 3.004882 1_555
Ag9 S12 2.526033 1_555
Ag9 S9 2.594777 1_555
Ag9 Br5 2.764052 1_455
Ag9 S15 3.004882 1_455
Ag10 S15 2.526033 1_555
Ag10 S10 2.594777 1_555
Ag10 Br6 2.764052 1_555
Ag10 S12 3.004882 1_555
Ag11 S14 2.526033 1_555
Ag11 S11 2.594777 1_555
Ag11 Br7 2.764052 1_555
Ag11 S13 3.004882 1_555
Ag12 S4 2.469323 1_555
Ag12 S3 2.597571 1_455
Ag12 Br1 2.808992 1_445
Ag12 Br0 3.215039 1_555
Ag13 S5 2.469323 1_555
Ag13 S2 2.597571 1_655
Ag13 Br0 2.808992 1_665
Ag13 Br1 3.215039 1_555
Ag14 S6 2.469323 1_555
Ag14 S1 2.597571 1_555
Ag14 Br3 2.808992 1_565
Ag14 Br2 3.215039 1_556
Ag15 S7 2.469323 1_555
Ag15 S2 2.597571 1_655
Ag15 Br0 2.808992 1_655
Ag15 Br1 3.215039 1_555
Ag16 S8 2.469323 1_555
Ag16 S0 2.597571 1_555
Ag16 Br2 2.808992 1_545
Ag16 Br3 3.215039 1_554
Ag17 S9 2.469323 1_555
Ag17 S3 2.597571 1_455
Ag17 Br1 2.808992 1_455
Ag17 Br0 3.215039 1_555
Ag18 S10 2.469323 1_555
Ag18 S0 2.597571 1_555
Ag18 Br2 2.808992 1_555
Ag18 Br3 3.215039 1_554
Ag19 S11 2.469323 1_555
Ag19 S1 2.597571 1_555
Ag19 Br3 2.808992 1_555
Ag19 Br2 3.215039 1_556
Ag20 S0 2.571429 1_555
Ag20 S1 2.571429 1_444
Ag20 Br3 3.085462 1_454
Ag20 Br2 3.085462 1_545
Ag21 S2 2.571429 1_545
Ag21 S3 2.571429 1_555
Ag21 Br0 3.085462 1_555
Ag21 Br1 3.085462 1_545
Ag22 S0 2.571429 1_555
Ag22 S1 2.571429 1_454
Ag22 Br2 3.085462 1_555
Ag22 Br3 3.085462 1_454
Ag23 S2 2.571429 1_555
Ag23 S3 2.571429 1_555
Ag23 Br1 3.085462 1_555
Ag23 Br0 3.085462 1_555
Ge0 S12 2.231087 1_555
Ge0 S10 2.250584 1_455
Ge0 S8 2.250584 1_455
Ge0 S0 2.299123 1_555
Ge1 S13 2.231087 1_555
Ge1 S6 2.250584 1_655
Ge1 S11 2.250584 1_655
Ge1 S1 2.299123 1_555
Ge2 S14 2.231087 1_555
Ge2 S5 2.250584 1_555
Ge2 S7 2.250584 1_555
Ge2 S2 2.299123 1_555
Ge3 S15 2.231087 1_555
Ge3 S9 2.250584 1_555
Ge3 S4 2.250584 1_555
Ge3 S3 2.299123 1_555
