# generated using pymatgen
data_Sr4VN4
_symmetry_space_group_name_H-M   'P 1'
_cell_length_a   12.44991188
_cell_length_b   4.47633893
_cell_length_c   13.76925388
_cell_angle_alpha   90.00000000
_cell_angle_beta   90.00000000
_cell_angle_gamma   90.00000000
_symmetry_Int_Tables_number   1
_chemical_formula_structural   Sr4VN4
_chemical_formula_sum   'Sr16 V4 N16'
_cell_volume   767.36086604
_cell_formula_units_Z   4
loop_
 _symmetry_equiv_pos_site_id
 _symmetry_equiv_pos_as_xyz
  1  'x, y, z'
loop_
 _atom_site_type_symbol
 _atom_site_label
 _atom_site_symmetry_multiplicity
 _atom_site_fract_x
 _atom_site_fract_y
 _atom_site_fract_z
 _atom_site_occupancy
  Sr  Sr0  1  0.55798896  0.25000000  0.91666057  1
  Sr  Sr1  1  0.05798896  0.25000000  0.58333943  1
  Sr  Sr2  1  0.44201104  0.75000000  0.08333943  1
  Sr  Sr3  1  0.94201104  0.75000000  0.41666057  1
  Sr  Sr4  1  0.63403644  0.25000000  0.50942467  1
  Sr  Sr5  1  0.13403644  0.25000000  0.99057533  1
  Sr  Sr6  1  0.36596356  0.75000000  0.49057533  1
  Sr  Sr7  1  0.86596356  0.75000000  0.00942467  1
  Sr  Sr8  1  0.81710523  0.25000000  0.81215980  1
  Sr  Sr9  1  0.31710523  0.25000000  0.68784020  1
  Sr  Sr10  1  0.18289477  0.75000000  0.18784020  1
  Sr  Sr11  1  0.68289477  0.75000000  0.31215980  1
  Sr  Sr12  1  0.94314010  0.25000000  0.21109991  1
  Sr  Sr13  1  0.44314010  0.25000000  0.28890009  1
  Sr  Sr14  1  0.05685990  0.75000000  0.78890009  1
  Sr  Sr15  1  0.55685990  0.75000000  0.71109991  1
  V  V0  1  0.67457730  0.25000000  0.11901396  1
  V  V1  1  0.17457730  0.25000000  0.38098604  1
  V  V2  1  0.32542270  0.75000000  0.88098604  1
  V  V3  1  0.82542270  0.75000000  0.61901396  1
  N  N0  1  0.52996698  0.25000000  0.10565454  1
  N  N1  1  0.02996698  0.25000000  0.39434546  1
  N  N2  1  0.47003302  0.75000000  0.89434546  1
  N  N3  1  0.97003302  0.75000000  0.60565454  1
  N  N4  1  0.74765966  0.25000000  0.00589407  1
  N  N5  1  0.24765966  0.25000000  0.49410593  1
  N  N6  1  0.25234034  0.75000000  0.99410593  1
  N  N7  1  0.75234034  0.75000000  0.50589407  1
  N  N8  1  0.73618972  0.25000000  0.23696918  1
  N  N9  1  0.23618972  0.25000000  0.26303082  1
  N  N10  1  0.26381028  0.75000000  0.76303082  1
  N  N11  1  0.76381028  0.75000000  0.73696918  1
  N  N12  1  0.00291992  0.25000000  0.86080389  1
  N  N13  1  0.50291992  0.25000000  0.63919611  1
  N  N14  1  0.99708008  0.75000000  0.13919611  1
  N  N15  1  0.49708008  0.75000000  0.36080389  1
loop_
_geom_bond_atom_site_label_1
_geom_bond_atom_site_label_2
_geom_bond_distance
_geom_bond_site_symmetry_2
N0 V0 1.809759 1_555
N0 Sr2 2.510564 1_545
N0 Sr2 2.510564 1_555
N0 Sr0 2.625587 1_554
N0 Sr13 2.744967 1_555
N1 V1 1.809759 1_555
N1 Sr3 2.510564 1_455
N1 Sr3 2.510564 1_445
N1 Sr1 2.625587 1_555
N1 Sr12 2.744967 1_455
N2 V2 1.809759 1_555
N2 Sr0 2.510564 1_555
N2 Sr0 2.510564 1_565
N2 Sr2 2.625587 1_556
N2 Sr15 2.744967 1_555
N3 V3 1.809759 1_555
N3 Sr1 2.510564 1_655
N3 Sr1 2.510564 1_665
N3 Sr3 2.625587 1_555
N3 Sr14 2.744967 1_655
N4 V0 1.803859 1_555
N4 Sr0 2.661913 1_554
N4 Sr7 2.679761 1_545
N4 Sr7 2.679761 1_555
N4 Sr8 2.804190 1_554
N5 V1 1.803859 1_555
N5 Sr1 2.661913 1_555
N5 Sr6 2.679761 1_555
N5 Sr6 2.679761 1_545
N5 Sr9 2.804190 1_555
N6 V2 1.803859 1_555
N6 Sr2 2.661913 1_556
N6 Sr5 2.679761 1_565
N6 Sr5 2.679761 1_555
N6 Sr10 2.804190 1_556
N7 V3 1.803859 1_555
N7 Sr3 2.661913 1_555
N7 Sr4 2.679761 1_565
N7 Sr4 2.679761 1_555
N7 Sr11 2.804190 1_555
N8 V0 1.796184 1_555
N8 Sr11 2.553731 1_555
N8 Sr11 2.553731 1_545
N8 Sr12 2.601020 1_555
N9 V1 1.796184 1_555
N9 Sr10 2.553731 1_545
N9 Sr10 2.553731 1_555
N9 Sr13 2.601020 1_555
N10 V2 1.796184 1_555
N10 Sr9 2.553731 1_555
N10 Sr9 2.553731 1_565
N10 Sr14 2.601020 1_555
N11 V3 1.796184 1_555
N11 Sr8 2.553731 1_565
N11 Sr8 2.553731 1_555
N11 Sr15 2.601020 1_555
N12 Sr8 2.408388 1_455
N12 Sr5 2.420237 1_555
N12 Sr14 2.537834 1_555
N12 Sr14 2.537834 1_545
N13 Sr9 2.408388 1_555
N13 Sr4 2.420237 1_555
N13 Sr15 2.537834 1_545
N13 Sr15 2.537834 1_555
N14 Sr10 2.408388 1_655
N14 Sr7 2.420237 1_555
N14 Sr12 2.537834 1_565
N14 Sr12 2.537834 1_555
N15 Sr11 2.408388 1_555
N15 Sr6 2.420237 1_555
N15 Sr13 2.537834 1_555
N15 Sr13 2.537834 1_565
