# generated using pymatgen
data_Li4Zn(PS4)2
_symmetry_space_group_name_H-M   'P 1'
_cell_length_a   6.37771100
_cell_length_b   8.01188035
_cell_length_c   18.41846429
_cell_angle_alpha   89.91432011
_cell_angle_beta   89.92984257
_cell_angle_gamma   89.80935175
_symmetry_Int_Tables_number   1
_chemical_formula_structural   Li4Zn(PS4)2
_chemical_formula_sum   'Li12 Zn3 P6 S24'
_cell_volume   941.12973334
_cell_formula_units_Z   3
loop_
 _symmetry_equiv_pos_site_id
 _symmetry_equiv_pos_as_xyz
  1  'x, y, z'
loop_
 _atom_site_type_symbol
 _atom_site_label
 _atom_site_symmetry_multiplicity
 _atom_site_fract_x
 _atom_site_fract_y
 _atom_site_fract_z
 _atom_site_occupancy
  Li  Li0  1  0.68936700  0.24222700  0.66763200  1
  Li  Li1  1  0.69000100  0.25286300  0.33873800  1
  Li  Li2  1  0.68992500  0.24879600  0.99659800  1
  Li  Li3  1  0.30240800  0.26741600  0.50058500  1
  Li  Li4  1  0.31107500  0.25559000  0.16912200  1
  Li  Li5  1  0.69280700  0.76536600  0.99732400  1
  Li  Li6  1  0.30371000  0.74378700  0.83597300  1
  Li  Li7  1  0.30289100  0.73668400  0.50209400  1
  Li  Li8  1  0.30918600  0.74061600  0.16540100  1
  Li  Li9  1  0.85675100  0.00956600  0.50649700  1
  Li  Li10  1  0.85189100  0.00990300  0.17225600  1
  Li  Li11  1  0.14300000  0.50162000  0.00769900  1
  Zn  Zn0  1  0.29983200  0.24700600  0.83149900  1
  Zn  Zn1  1  0.69487100  0.74804300  0.66818700  1
  Zn  Zn2  1  0.69018400  0.74621200  0.33506700  1
  P  P0  1  0.18963800  0.99196700  0.66673400  1
  P  P1  1  0.19704600  0.99446200  0.33342700  1
  P  P2  1  0.17999500  0.00811400  0.99957700  1
  P  P3  1  0.79942500  0.49996500  0.83050900  1
  P  P4  1  0.82752400  0.50397600  0.50331400  1
  P  P5  1  0.82562400  0.49811000  0.16862900  1
  S  S0  1  0.31273500  0.21451500  0.70328300  1
  S  S1  1  0.31733400  0.20933100  0.37046500  1
  S  S2  1  0.32812200  0.21888500  0.03631500  1
  S  S3  1  0.66254700  0.27904900  0.86405000  1
  S  S4  1  0.67016600  0.29142600  0.53519700  1
  S  S5  1  0.67416100  0.28945100  0.20682900  1
  S  S6  1  0.33415000  0.77774700  0.70355000  1
  S  S7  1  0.33120200  0.77431300  0.36989400  1
  S  S8  1  0.32588200  0.79171000  0.03363100  1
  S  S9  1  0.67680000  0.71490200  0.86695400  1
  S  S10  1  0.67240200  0.72189300  0.53855900  1
  S  S11  1  0.67572700  0.71763800  0.20631100  1
  S  S12  1  0.17123900  0.00406400  0.88692700  1
  S  S13  1  0.21457500  0.00167500  0.55528300  1
  S  S14  1  0.20458000  0.99471400  0.22172700  1
  S  S15  1  0.81998100  0.49810700  0.71847500  1
  S  S16  1  0.83026500  0.50763600  0.39030300  1
  S  S17  1  0.78843700  0.50713500  0.05704600  1
  S  S18  1  0.88320500  0.98723900  0.70420400  1
  S  S19  1  0.88126800  0.98918600  0.36963600  1
  S  S20  1  0.87761700  0.00777600  0.03863600  1
  S  S21  1  0.11047800  0.48737600  0.87086200  1
  S  S22  1  0.11528500  0.50232900  0.54750800  1
  S  S23  1  0.12335000  0.49961400  0.20431600  1
loop_
_geom_bond_atom_site_label_1
_geom_bond_atom_site_label_2
_geom_bond_distance
_geom_bond_site_symmetry_2
Li0 S15 2.406803 1_555
Li0 S4 2.473427 1_555
Li0 S18 2.477242 1_545
Li0 S0 2.499912 1_555
Li1 S16 2.426693 1_555
Li1 S5 2.448914 1_555
Li1 S1 2.472575 1_555
Li1 S19 2.501141 1_545
Li2 S20 2.396599 1_556
Li2 S2 2.432287 1_556
Li2 S17 2.436300 1_556
Li2 S3 2.459334 1_555
Li3 S22 2.387644 1_555
Li3 S13 2.421136 1_555
Li3 S4 2.439590 1_555
Li3 S1 2.443738 1_555
Li4 S23 2.379560 1_555
Li4 S14 2.402167 1_545
Li4 S5 2.434520 1_555
Li4 S2 2.466374 1_555
Li5 S20 2.400429 1_566
Li5 S17 2.418430 1_556
Li5 S9 2.437930 1_555
Li5 S8 2.441577 1_556
Li6 S12 2.436239 1_565
Li6 S9 2.457695 1_555
Li6 S6 2.461257 1_555
Li6 S21 2.482527 1_555
Li7 S22 2.380029 1_555
Li7 S13 2.404444 1_565
Li7 S10 2.453698 1_555
Li7 S7 2.459557 1_555
Li8 S23 2.378184 1_555
Li8 S14 2.379378 1_555
Li8 S8 2.462912 1_555
Li8 S11 2.463228 1_555
Li9 S13 2.454236 1_655
Li9 S19 2.530906 1_545
Li9 S4 2.603697 1_555
Li9 S10 2.656206 1_545
Li10 S14 2.430533 1_645
Li10 S20 2.466418 1_555
Li10 S5 2.586932 1_555
Li10 S11 2.673982 1_545
Li11 S17 2.436380 1_455
Li11 S21 2.531875 1_554
Li11 S2 2.604458 1_555
Li11 S8 2.648210 1_555
P0 S6 2.059730 1_555
P0 S13 2.060087 1_565
P0 S0 2.064679 1_565
P0 S18 2.072267 1_455
P1 S1 2.007753 1_565
P1 S14 2.057843 1_555
P1 S7 2.069309 1_555
P1 S19 2.121252 1_455
P2 S2 2.053669 1_556
P2 S20 2.057479 1_456
P2 S8 2.062186 1_546
P2 S12 2.075965 1_555
P3 S9 2.005214 1_555
P3 S15 2.067567 1_555
P3 S3 2.069334 1_555
P3 S21 2.121349 1_655
P4 S22 2.008576 1_655
P4 S4 2.063715 1_555
P4 S16 2.081705 1_555
P4 S10 2.106833 1_555
P5 S23 2.010199 1_655
P5 S5 2.056327 1_555
P5 S17 2.070243 1_555
P5 S11 2.116592 1_555
S0 Zn0 2.377527 1_555
S3 Zn0 2.405095 1_555
S6 Zn1 2.401388 1_555
S7 Zn2 2.386902 1_555
S10 Zn1 2.401531 1_555
S11 Zn2 2.384778 1_555
S12 Zn0 2.346494 1_555
S15 Zn1 2.343082 1_555
S16 Zn2 2.339196 1_555
S18 Zn1 2.361463 1_555
S19 Zn2 2.387787 1_555
S21 Zn0 2.383141 1_555
