# generated using pymatgen
data_TlCo(NCl)6
_symmetry_space_group_name_H-M   'P 1'
_cell_length_a   10.65123900
_cell_length_b   10.89581898
_cell_length_c   11.01753782
_cell_angle_alpha   89.90340937
_cell_angle_beta   89.89876865
_cell_angle_gamma   89.95104326
_symmetry_Int_Tables_number   1
_chemical_formula_structural   TlCo(NCl)6
_chemical_formula_sum   'Tl4 Co4 N24 Cl24'
_cell_volume   1278.62475035
_cell_formula_units_Z   4
loop_
 _symmetry_equiv_pos_site_id
 _symmetry_equiv_pos_as_xyz
  1  'x, y, z'
loop_
 _atom_site_type_symbol
 _atom_site_label
 _atom_site_symmetry_multiplicity
 _atom_site_fract_x
 _atom_site_fract_y
 _atom_site_fract_z
 _atom_site_occupancy
  Tl  Tl0  1  0.04303700  0.47990400  0.47009400  1
  Tl  Tl1  1  0.52875400  0.46435300  0.05356000  1
  Tl  Tl2  1  0.49525000  0.00179400  0.52893700  1
  Tl  Tl3  1  0.99557200  0.94594400  0.02926500  1
  Co  Co0  1  0.50897800  0.00379300  0.01305000  1
  Co  Co1  1  0.98757100  0.00030800  0.50114200  1
  Co  Co2  1  0.01463700  0.51281900  0.99937900  1
  Co  Co3  1  0.51386200  0.51145300  0.49921800  1
  N  N0  1  0.64385000  0.45157300  0.58016200  1
  N  N1  1  0.84461200  0.53997400  0.06925600  1
  N  N2  1  0.15612200  0.04988400  0.42643500  1
  N  N3  1  0.35076100  0.95458700  0.91898200  1
  N  N4  1  0.55496500  0.66394400  0.44805400  1
  N  N5  1  0.08165200  0.85354400  0.53903700  1
  N  N6  1  0.43155600  0.15583800  0.04559400  1
  N  N7  1  0.91174600  0.35952400  0.94460000  1
  N  N8  1  0.44900800  0.58910300  0.65632400  1
  N  N9  1  0.53492900  0.07864100  0.84897600  1
  N  N10  1  0.04311300  0.43007900  0.14565500  1
  N  N11  1  0.96397100  0.92690900  0.34729500  1
  N  N12  1  0.34223500  0.54267400  0.42910100  1
  N  N13  1  0.14405300  0.44798900  0.91929000  1
  N  N14  1  0.84335000  0.96448200  0.56600500  1
  N  N15  1  0.66450900  0.04829000  0.05286200  1
  N  N16  1  0.41009800  0.36346600  0.54833900  1
  N  N17  1  0.93149200  0.16397300  0.44913200  1
  N  N18  1  0.58299100  0.84415000  0.95143900  1
  N  N19  1  0.05421100  0.66477200  0.04662700  1
  N  N20  1  0.54493300  0.43536000  0.34935000  1
  N  N21  1  0.44168600  0.92218300  0.13898200  1
  N  N22  1  0.95099200  0.58721700  0.84037500  1
  N  N23  1  0.05324000  0.08255000  0.64899700  1
  Cl  Cl0  1  0.32395900  0.54893900  0.73254100  1
  Cl  Cl1  1  0.18245000  0.44653500  0.21787000  1
  Cl  Cl2  1  0.82254100  0.93845200  0.27818000  1
  Cl  Cl3  1  0.66812100  0.05426200  0.77077500  1
  Cl  Cl4  1  0.72768600  0.32707400  0.55027000  1
  Cl  Cl5  1  0.22357000  0.18573900  0.45214900  1
  Cl  Cl6  1  0.26564600  0.82936200  0.95152200  1
  Cl  Cl7  1  0.76871700  0.67315800  0.04679400  1
  Cl  Cl8  1  0.55216500  0.71620800  0.30690300  1
  Cl  Cl9  1  0.44746300  0.22023500  0.18462200  1
  Cl  Cl10  1  0.95242300  0.26299400  0.83535800  1
  Cl  Cl11  1  0.04485700  0.76768800  0.66016400  1
  Cl  Cl12  1  0.69081800  0.44455600  0.28744200  1
  Cl  Cl13  1  0.82304100  0.54911600  0.76848500  1
  Cl  Cl14  1  0.17720500  0.04275500  0.72727000  1
  Cl  Cl15  1  0.32009800  0.95856300  0.22538600  1
  Cl  Cl16  1  0.26925600  0.67741900  0.45115100  1
  Cl  Cl17  1  0.77052000  0.82812200  0.55541900  1
  Cl  Cl18  1  0.72230800  0.18992000  0.05263800  1
  Cl  Cl19  1  0.22722100  0.32412700  0.95162100  1
  Cl  Cl20  1  0.45012500  0.26691700  0.66045600  1
  Cl  Cl21  1  0.54966100  0.77211600  0.82533600  1
  Cl  Cl22  1  0.05785900  0.71448100  0.19122500  1
  Cl  Cl23  1  0.94455800  0.22019500  0.31090800  1
loop_
_geom_bond_atom_site_label_1
_geom_bond_atom_site_label_2
_geom_bond_distance
_geom_bond_site_symmetry_2
Co0 N15 1.782255 1_555
Co0 N21 1.795236 1_545
Co0 N6 1.884601 1_555
Co0 N9 2.000722 1_554
Co0 N18 2.026731 1_544
Co0 N3 2.052091 1_544
Co1 N14 1.737521 1_545
Co1 N11 1.892689 1_545
Co1 N5 1.931873 1_645
Co1 N17 1.964971 1_555
Co1 N23 1.988939 1_655
Co1 N2 2.046268 1_655
Co2 N13 1.781518 1_555
Co2 N19 1.787375 1_556
Co2 N10 1.870388 1_556
Co2 N1 1.988670 1_456
Co2 N22 2.045495 1_455
Co2 N7 2.089010 1_455
Co3 N0 1.771661 1_555
Co3 N4 1.807559 1_555
Co3 N20 1.877638 1_555
Co3 N12 2.014268 1_555
Co3 N16 2.027891 1_555
Co3 N8 2.046654 1_555
Cl0 N8 1.632936 1_555
Cl1 N10 1.694956 1_555
Cl1 Tl0 3.169748 1_555
Cl2 N11 1.693614 1_555
Cl3 N9 1.679669 1_555
Cl4 N0 1.656615 1_555
Cl5 N2 1.670767 1_555
Cl6 N3 1.676723 1_555
Cl7 N1 1.678702 1_555
Cl8 N4 1.655528 1_555
Cl9 N6 1.694704 1_555
Cl9 Tl1 3.145827 1_555
Cl10 N7 1.656559 1_555
Cl11 N5 1.674580 1_555
Cl12 N20 1.698830 1_555
Cl12 Tl1 3.111167 1_555
Cl13 N22 1.631840 1_555
Cl14 N23 1.636120 1_555
Cl15 N21 1.654261 1_555
Cl16 N12 1.678484 1_555
Cl16 Tl0 3.238265 1_555
Cl17 N14 1.680981 1_555
Cl18 N15 1.661927 1_555
Cl19 N13 1.652396 1_555
Cl20 N16 1.676601 1_555
Cl21 N18 1.636528 1_555
Cl22 N19 1.684054 1_555
Cl23 N17 1.646228 1_555
