# generated using pymatgen
data_Ce(Sb3Os)4
_symmetry_space_group_name_H-M   'P 1'
_cell_length_a   8.10389726
_cell_length_b   8.11122002
_cell_length_c   8.10391377
_cell_angle_alpha   109.48948929
_cell_angle_beta   109.45296928
_cell_angle_gamma   109.48954834
_symmetry_Int_Tables_number   1
_chemical_formula_structural   Ce(Sb3Os)4
_chemical_formula_sum   'Ce1 Sb12 Os4'
_cell_volume   409.97240036
_cell_formula_units_Z   1
loop_
 _symmetry_equiv_pos_site_id
 _symmetry_equiv_pos_as_xyz
  1  'x, y, z'
loop_
 _atom_site_type_symbol
 _atom_site_label
 _atom_site_symmetry_multiplicity
 _atom_site_fract_x
 _atom_site_fract_y
 _atom_site_fract_z
 _atom_site_occupancy
  Ce  Ce0  1  -0.00000000  -0.00000000  0.00000000  1
  Sb  Sb0  1  0.33950155  0.18227365  0.84299109  1
  Sb  Sb1  1  0.66049845  0.81772635  0.15700891  1
  Sb  Sb2  1  0.65988824  0.50325509  0.84298150  1
  Sb  Sb3  1  0.34011176  0.49674491  0.15701850  1
  Sb  Sb4  1  0.18309226  0.84336585  0.34011276  1
  Sb  Sb5  1  0.81690774  0.15663415  0.65988724  1
  Sb  Sb6  1  0.50348953  0.84277309  0.66049945  1
  Sb  Sb7  1  0.49651047  0.15722691  0.33950055  1
  Sb  Sb8  1  0.84297950  0.33972541  0.18309226  1
  Sb  Sb9  1  0.15702050  0.66027459  0.81690774  1
  Sb  Sb10  1  0.84299209  0.66071844  0.50349053  1
  Sb  Sb11  1  0.15700791  0.33928156  0.49650947  1
  Os  Os0  1  -0.00000000  -0.00000000  0.50000000  1
  Os  Os1  1  0.50000000  -0.00000000  0.00000000  1
  Os  Os2  1  -0.00000000  0.50000000  0.00000000  1
  Os  Os3  1  0.50000000  0.50000000  0.50000000  1
loop_
_geom_bond_atom_site_label_1
_geom_bond_atom_site_label_2
_geom_bond_distance
_geom_bond_site_symmetry_2
Ce0 Sb7 3.499582 1_555
Ce0 Sb6 3.499582 1_444
Ce0 Sb11 3.499584 1_555
Ce0 Sb10 3.499584 1_444
Ce0 Sb0 3.499586 1_554
Ce0 Sb1 3.499586 1_445
Ce0 Sb2 3.504717 1_444
Ce0 Sb3 3.504717 1_555
Ce0 Sb9 3.504726 1_544
Ce0 Sb8 3.504726 1_455
Ce0 Sb4 3.504732 1_545
Ce0 Sb5 3.504732 1_454
Sb0 Sb3 2.938432 1_556
Sb0 Sb2 3.001554 1_555
Sb1 Sb2 2.938432 1_554
Sb1 Sb3 3.001554 1_555
Sb4 Sb7 2.938441 1_565
Sb4 Sb6 3.001551 1_555
Sb5 Sb6 2.938441 1_545
Sb5 Sb7 3.001551 1_555
Sb10 Sb9 2.938433 1_655
Sb10 Sb8 3.001563 1_555
Sb11 Sb8 2.938433 1_455
Sb11 Sb9 3.001563 1_555
Os0 Sb0 2.632756 1_555
Os0 Sb1 2.632756 1_445
Os0 Sb11 2.632984 1_555
Os0 Sb10 2.632984 1_445
Os0 Sb4 2.633349 1_545
Os0 Sb5 2.633349 1_455
Os1 Sb6 2.632753 1_544
Os1 Sb7 2.632753 1_555
Os1 Sb1 2.632989 1_545
Os1 Sb0 2.632989 1_554
Os1 Sb8 2.633340 1_555
Os1 Sb9 2.633340 1_544
Os2 Sb3 2.636592 1_555
Os2 Sb2 2.636592 1_454
Os2 Sb5 2.636596 1_454
Os2 Sb4 2.636596 1_555
Os2 Sb9 2.636601 1_554
Os2 Sb8 2.636601 1_455
Os3 Sb10 2.632759 1_555
Os3 Sb11 2.632759 1_555
Os3 Sb6 2.632998 1_555
Os3 Sb7 2.632998 1_555
Os3 Sb2 2.633357 1_555
Os3 Sb3 2.633357 1_555
