# generated using pymatgen
data_Nd4B4O11F2
_symmetry_space_group_name_H-M   'P 1'
_cell_length_a   7.38037315
_cell_length_b   7.38037315
_cell_length_c   14.04956683
_cell_angle_alpha   88.97295660
_cell_angle_beta   88.97295660
_cell_angle_gamma   37.47384500
_symmetry_Int_Tables_number   1
_chemical_formula_structural   Nd4B4O11F2
_chemical_formula_sum   'Nd8 B8 O22 F4'
_cell_volume   465.51149373
_cell_formula_units_Z   2
loop_
 _symmetry_equiv_pos_site_id
 _symmetry_equiv_pos_as_xyz
  1  'x, y, z'
loop_
 _atom_site_type_symbol
 _atom_site_label
 _atom_site_symmetry_multiplicity
 _atom_site_fract_x
 _atom_site_fract_y
 _atom_site_fract_z
 _atom_site_occupancy
  Nd  Nd0  1  0.46548400  0.41785800  0.37059500  1
  Nd  Nd1  1  0.58214200  0.53451600  0.12940500  1
  Nd  Nd2  1  0.53451600  0.58214200  0.62940500  1
  Nd  Nd3  1  0.41785800  0.46548400  0.87059500  1
  Nd  Nd4  1  0.74187300  0.69978500  0.37141800  1
  Nd  Nd5  1  0.30021500  0.25812700  0.12858200  1
  Nd  Nd6  1  0.25812700  0.30021500  0.62858200  1
  Nd  Nd7  1  0.69978500  0.74187300  0.87141800  1
  B  B0  1  0.07293900  0.11227200  0.28514400  1
  B  B1  1  0.88772800  0.92706100  0.21485600  1
  B  B2  1  0.92706100  0.88772800  0.71485600  1
  B  B3  1  0.11227200  0.07293900  0.78514400  1
  B  B4  1  0.85806100  0.95308000  0.52668200  1
  B  B5  1  0.04692000  0.14193900  0.97331800  1
  B  B6  1  0.14193900  0.04692000  0.47331800  1
  B  B7  1  0.95308000  0.85806100  0.02668200  1
  O  O0  1  0.96172000  0.21338400  0.39293100  1
  O  O1  1  0.78661600  0.03828000  0.10706900  1
  O  O2  1  0.03828000  0.78661600  0.60706900  1
  O  O3  1  0.21338400  0.96172000  0.89293100  1
  O  O4  1  0.64679400  0.01062600  0.25737600  1
  O  O5  1  0.98937400  0.35320600  0.24262400  1
  O  O6  1  0.35320600  0.98937400  0.74262400  1
  O  O7  1  0.01062600  0.64679400  0.75737600  1
  O  O8  1  0.58595800  0.25419200  0.53640400  1
  O  O9  1  0.74580800  0.41404200  0.96359600  1
  O  O10  1  0.41404200  0.74580800  0.46359600  1
  O  O11  1  0.25419200  0.58595800  0.03640400  1
  O  O12  1  0.85583700  0.14416300  0.25000000  1
  O  O13  1  0.14416300  0.85583700  0.75000000  1
  O  O14  1  0.94548400  0.82847700  0.43771200  1
  O  O15  1  0.17152300  0.05451600  0.06228800  1
  O  O16  1  0.05451600  0.17152300  0.56228800  1
  O  O17  1  0.82847700  0.94548400  0.93771200  1
  O  O18  1  0.37802300  0.82138100  0.27476400  1
  O  O19  1  0.17861900  0.62197700  0.22523600  1
  O  O20  1  0.62197700  0.17861900  0.72523600  1
  O  O21  1  0.82138100  0.37802300  0.77476400  1
  F  F0  1  0.29256100  0.24655300  0.42437700  1
  F  F1  1  0.75344700  0.70743900  0.07562300  1
  F  F2  1  0.70743900  0.75344700  0.57562300  1
  F  F3  1  0.24655300  0.29256100  0.92437700  1
loop_
_geom_bond_atom_site_label_1
_geom_bond_atom_site_label_2
_geom_bond_distance
_geom_bond_site_symmetry_2
Nd0 O19 2.429975 1_555
Nd0 O8 2.438249 1_555
Nd0 O12 2.441633 1_555
Nd0 O14 2.512755 1_455
Nd0 O10 2.519270 1_555
Nd0 O0 2.653417 1_555
Nd0 O4 2.658095 1_555
Nd0 O14 2.806019 1_545
Nd0 O18 2.816892 1_555
Nd1 O18 2.429975 1_555
Nd1 O9 2.438249 1_554
Nd1 O12 2.441633 1_555
Nd1 O15 2.512755 1_565
Nd1 O11 2.519270 1_555
Nd1 O1 2.653417 1_555
Nd1 O5 2.658095 1_555
Nd1 O15 2.806019 1_655
Nd1 O19 2.816892 1_555
Nd2 O21 2.429975 1_555
Nd2 O10 2.438249 1_555
Nd2 O13 2.441633 1_555
Nd2 O16 2.512755 1_655
Nd2 O8 2.519270 1_555
Nd2 O2 2.653417 1_555
Nd2 O6 2.658095 1_555
Nd2 O16 2.806019 1_565
Nd2 O20 2.816892 1_555
Nd3 O20 2.429975 1_555
Nd3 O11 2.438249 1_556
Nd3 O13 2.441633 1_555
Nd3 O17 2.512755 1_545
Nd3 O9 2.519270 1_555
Nd3 O3 2.653417 1_555
Nd3 O7 2.658095 1_555
Nd3 O17 2.806019 1_455
Nd3 O21 2.816892 1_555
Nd4 O4 2.382414 1_565
Nd4 O5 2.405178 1_555
Nd4 O18 2.474346 1_555
Nd4 O10 2.499118 1_555
Nd4 O0 2.518778 1_555
Nd4 O14 2.524908 1_555
Nd5 O5 2.382414 1_455
Nd5 O4 2.405178 1_555
Nd5 O19 2.474346 1_555
Nd5 O11 2.499118 1_555
Nd5 O1 2.518778 1_555
Nd5 O15 2.524908 1_555
Nd6 O6 2.382414 1_545
Nd6 O7 2.405178 1_555
Nd6 O20 2.474346 1_555
Nd6 O8 2.499118 1_555
Nd6 O2 2.518778 1_555
Nd6 O16 2.524908 1_555
Nd7 O7 2.382414 1_655
Nd7 O6 2.405178 1_555
Nd7 O21 2.474346 1_555
Nd7 O9 2.499118 1_555
Nd7 O3 2.518778 1_555
Nd7 O17 2.524908 1_555
B0 O18 1.423680 1_545
B0 O5 1.460680 1_455
B0 O12 1.513980 1_455
B0 O0 1.596128 1_455
B1 O19 1.423680 1_655
B1 O4 1.460680 1_565
B1 O12 1.513980 1_565
B1 O1 1.596128 1_565
B2 O20 1.423680 1_565
B2 O7 1.460680 1_655
B2 O13 1.513980 1_655
B2 O2 1.596128 1_655
B3 O21 1.423680 1_455
B3 O6 1.460680 1_545
B3 O13 1.513980 1_545
B3 O3 1.596128 1_545
B4 O14 1.376577 1_555
B4 O8 1.381142 1_565
B4 O2 1.401577 1_655
B5 O15 1.376577 1_556
B5 O9 1.381142 1_455
B5 O3 1.401577 1_545
B6 O16 1.376577 1_555
B6 O10 1.381142 1_545
B6 O0 1.401577 1_455
B7 O17 1.376577 1_554
B7 O11 1.381142 1_655
B7 O1 1.401577 1_565
F0 Nd0 2.508080 1_555
F0 Nd4 2.571618 1_545
F0 Nd4 2.588697 1_455
F0 Nd6 2.882254 1_555
F1 Nd1 2.508080 1_555
F1 Nd5 2.571618 1_655
F1 Nd5 2.588697 1_565
F1 Nd7 2.882254 1_554
F2 Nd2 2.508080 1_555
F2 Nd6 2.571618 1_565
F2 Nd6 2.588697 1_655
F2 Nd4 2.882254 1_555
F3 Nd3 2.508080 1_555
F3 Nd7 2.571618 1_455
F3 Nd7 2.588697 1_545
F3 Nd5 2.882254 1_556
