# generated using pymatgen
data_Dy(ClO2)3
_symmetry_space_group_name_H-M   'P 1'
_cell_length_a   6.52528100
_cell_length_b   7.83826500
_cell_length_c   7.85808444
_cell_angle_alpha   90.00000000
_cell_angle_beta   113.28113920
_cell_angle_gamma   90.00000000
_symmetry_Int_Tables_number   1
_chemical_formula_structural   Dy(ClO2)3
_chemical_formula_sum   'Dy2 Cl6 O12'
_cell_volume   369.19108096
_cell_formula_units_Z   2
loop_
 _symmetry_equiv_pos_site_id
 _symmetry_equiv_pos_as_xyz
  1  'x, y, z'
loop_
 _atom_site_type_symbol
 _atom_site_label
 _atom_site_symmetry_multiplicity
 _atom_site_fract_x
 _atom_site_fract_y
 _atom_site_fract_z
 _atom_site_occupancy
  Dy  Dy0  1  0.00000000  0.78104600  0.25000000  1
  Dy  Dy1  1  0.00000000  0.21895400  0.75000000  1
  Cl  Cl0  1  0.18964300  0.17689900  0.15040000  1
  Cl  Cl1  1  0.81035700  0.82310100  0.84960000  1
  Cl  Cl2  1  0.81035700  0.17689900  0.34960000  1
  Cl  Cl3  1  0.18964300  0.82310100  0.65040000  1
  Cl  Cl4  1  0.50000000  0.54779300  0.25000000  1
  Cl  Cl5  1  0.50000000  0.45220700  0.75000000  1
  O  O0  1  0.20941500  0.02440100  0.70801600  1
  O  O1  1  0.79058500  0.97559900  0.29198400  1
  O  O2  1  0.79058500  0.02440100  0.79198400  1
  O  O3  1  0.20941500  0.97559900  0.20801600  1
  O  O4  1  0.93575700  0.52061300  0.04254700  1
  O  O5  1  0.06424300  0.47938700  0.95745300  1
  O  O6  1  0.06424300  0.52061300  0.45745300  1
  O  O7  1  0.93575700  0.47938700  0.54254700  1
  O  O8  1  0.62922700  0.65478000  0.16218000  1
  O  O9  1  0.37077300  0.34522000  0.83782000  1
  O  O10  1  0.37077300  0.65478000  0.33782000  1
  O  O11  1  0.62922700  0.34522000  0.66218000  1
loop_
_geom_bond_atom_site_label_1
_geom_bond_atom_site_label_2
_geom_bond_distance
_geom_bond_site_symmetry_2
Dy0 O3 2.158242 1_555
Dy0 O1 2.158242 1_455
Dy0 O10 2.447331 1_555
Dy0 O8 2.447331 1_455
Dy0 O6 2.541674 1_555
Dy0 O4 2.541674 1_455
Dy1 O2 2.158242 1_455
Dy1 O0 2.158242 1_555
Dy1 O9 2.447331 1_555
Dy1 O11 2.447331 1_455
Dy1 O5 2.541674 1_555
Dy1 O7 2.541674 1_455
Cl0 O3 1.632496 1_545
Cl0 Dy1 2.908932 1_554
Cl1 O2 1.632496 1_565
Cl1 Dy0 2.908932 1_656
Cl2 O1 1.632496 1_545
Cl2 Dy1 2.908932 1_655
Cl3 O0 1.632496 1_565
Cl3 Dy0 2.908932 1_555
Cl4 O10 1.533143 1_555
Cl4 O8 1.533143 1_555
Cl5 O9 1.533143 1_555
Cl5 O11 1.533143 1_555
O4 O5 1.302934 1_654
O6 O7 1.302934 1_455
