# generated using pymatgen
data_LiFe8(O3F)4
_symmetry_space_group_name_H-M   'P 1'
_cell_length_a   5.97038401
_cell_length_b   6.45620737
_cell_length_c   7.82509819
_cell_angle_alpha   88.61794839
_cell_angle_beta   112.43191802
_cell_angle_gamma   89.99915105
_symmetry_Int_Tables_number   1
_chemical_formula_structural   LiFe8(O3F)4
_chemical_formula_sum   'Li1 Fe8 O12 F4'
_cell_volume   278.70855990
_cell_formula_units_Z   1
loop_
 _symmetry_equiv_pos_site_id
 _symmetry_equiv_pos_as_xyz
  1  'x, y, z'
loop_
 _atom_site_type_symbol
 _atom_site_label
 _atom_site_symmetry_multiplicity
 _atom_site_fract_x
 _atom_site_fract_y
 _atom_site_fract_z
 _atom_site_occupancy
  Li  Li0  1  0.91764400  0.25002000  0.25000100  1
  Fe  Fe0  1  0.50583700  0.99796800  0.99522300  1
  Fe  Fe1  1  0.00040000  0.99488300  0.99124500  1
  Fe  Fe2  1  0.72736600  0.50672400  0.94334500  1
  Fe  Fe3  1  0.26107200  0.49609100  0.00846000  1
  Fe  Fe4  1  0.50251300  0.00389200  0.49151200  1
  Fe  Fe5  1  0.03402800  0.99329200  0.55672200  1
  Fe  Fe6  1  0.76049300  0.50201700  0.50479800  1
  Fe  Fe7  1  0.25922500  0.50511000  0.50878600  1
  O  O0  1  0.83498900  0.98313700  0.15424700  1
  O  O1  1  0.52242200  0.30699200  0.01557400  1
  O  O2  1  0.00752200  0.30592600  0.01856400  1
  O  O3  1  0.49309400  0.69314700  0.98121100  1
  O  O4  1  0.75681500  0.19300400  0.48447700  1
  O  O5  1  0.23893900  0.19408800  0.48140800  1
  O  O6  1  0.00098200  0.69181900  0.98107900  1
  O  O7  1  0.16939100  0.01653600  0.82435800  1
  O  O8  1  0.93063900  0.51686700  0.34575600  1
  O  O9  1  0.59500800  0.48342000  0.67564700  1
  O  O10  1  0.76183800  0.80680500  0.51875800  1
  O  O11  1  0.26986500  0.80818600  0.51889000  1
  F  F0  1  0.35396300  0.98678100  0.19661300  1
  F  F1  1  0.65059800  0.01893800  0.78955600  1
  F  F2  1  0.40719300  0.51326500  0.30329900  1
  F  F3  1  0.11108100  0.48109200  0.71047100  1
loop_
_geom_bond_atom_site_label_1
_geom_bond_atom_site_label_2
_geom_bond_distance
_geom_bond_site_symmetry_2
Li0 O8 1.885066 1_555
Li0 O0 1.885199 1_545
Li0 O5 2.099182 1_655
Li0 O2 2.099556 1_655
Li0 O1 2.394207 1_555
Li0 O4 2.394988 1_555
Fe0 O0 1.883480 1_556
Fe0 O7 1.944108 1_565
Fe0 O3 1.973533 1_555
Fe0 O1 2.004739 1_566
Fe1 O0 1.888020 1_456
Fe1 O7 1.933814 1_565
Fe1 O6 1.960233 1_555
Fe1 O2 2.023359 1_566
Fe2 O9 1.946029 1_555
Fe2 O3 1.956068 1_555
Fe2 O6 1.957760 1_655
Fe2 O1 1.993026 1_556
Fe2 O2 2.009125 1_656
Fe3 O6 1.946026 1_554
Fe3 O3 1.948173 1_554
Fe3 O1 1.964358 1_555
Fe3 O2 1.972786 1_555
Fe4 O11 1.945709 1_545
Fe4 O10 1.948492 1_545
Fe4 O4 1.964565 1_555
Fe4 O5 1.972497 1_555
Fe5 O7 1.945542 1_565
Fe5 O10 1.956432 1_455
Fe5 O11 1.957949 1_555
Fe5 O4 1.993003 1_465
Fe5 O5 2.009493 1_565
Fe6 O8 1.883883 1_555
Fe6 O9 1.943765 1_555
Fe6 O10 1.973280 1_555
Fe6 O4 2.004654 1_555
Fe7 O8 1.888696 1_455
Fe7 O9 1.933131 1_555
Fe7 O11 1.960275 1_555
Fe7 O5 2.023284 1_555
F0 Fe0 2.096638 1_554
F0 Fe1 2.109087 1_554
F0 Fe4 2.138751 1_565
F1 Fe1 2.085494 1_645
F1 Fe0 2.099138 1_545
F1 Fe4 2.160479 1_555
F2 Fe6 2.096893 1_555
F2 Fe7 2.109205 1_555
F2 Fe3 2.138354 1_555
F3 Fe7 2.085803 1_555
F3 Fe6 2.099595 1_455
F3 Fe3 2.160060 1_556
