# generated using pymatgen
data_WS2(NO)2
_symmetry_space_group_name_H-M   'P 1'
_cell_length_a   7.18101680
_cell_length_b   7.18101680
_cell_length_c   9.95978522
_cell_angle_alpha   67.72819495
_cell_angle_beta   67.72819495
_cell_angle_gamma   66.82184058
_symmetry_Int_Tables_number   1
_chemical_formula_structural   WS2(NO)2
_chemical_formula_sum   'W2 S4 N4 O4'
_cell_volume   420.67099852
_cell_formula_units_Z   2
loop_
 _symmetry_equiv_pos_site_id
 _symmetry_equiv_pos_as_xyz
  1  'x, y, z'
loop_
 _atom_site_type_symbol
 _atom_site_label
 _atom_site_symmetry_multiplicity
 _atom_site_fract_x
 _atom_site_fract_y
 _atom_site_fract_z
 _atom_site_occupancy
  W  W0  1  0.41883000  0.58117000  0.75000000  1
  W  W1  1  0.58117000  0.41883000  0.25000000  1
  S  S0  1  0.24980200  0.77017500  0.56253300  1
  S  S1  1  0.22982500  0.75019800  0.93746700  1
  S  S2  1  0.75019800  0.22982500  0.43746700  1
  S  S3  1  0.77017500  0.24980200  0.06253300  1
  N  N0  1  0.13195500  0.26695800  0.66286100  1
  N  N1  1  0.73304200  0.86804500  0.83713900  1
  N  N2  1  0.86804500  0.73304200  0.33713900  1
  N  N3  1  0.26695800  0.13195500  0.16286100  1
  O  O0  1  0.68063400  0.59200800  0.68354800  1
  O  O1  1  0.40799200  0.31936600  0.81645200  1
  O  O2  1  0.31936600  0.40799200  0.31645200  1
  O  O3  1  0.59200800  0.68063400  0.18354800  1
loop_
_geom_bond_atom_site_label_1
_geom_bond_atom_site_label_2
_geom_bond_distance
_geom_bond_site_symmetry_2
S0 W0 2.302552 1_555
S1 W0 2.302552 1_555
S2 W1 2.302552 1_555
S3 W1 2.302552 1_555
O0 W0 1.763954 1_555
O1 W0 1.763954 1_555
O2 W1 1.763954 1_555
O3 W1 1.763954 1_555
