# generated using pymatgen
data_C16Cl
_symmetry_space_group_name_H-M   'P 1'
_cell_length_a   13.36259147
_cell_length_b   14.79277538
_cell_length_c   16.98288309
_cell_angle_alpha   90.00000000
_cell_angle_beta   90.00000000
_cell_angle_gamma   90.00000000
_symmetry_Int_Tables_number   1
_chemical_formula_structural   C16Cl
_chemical_formula_sum   'C256 Cl16'
_cell_volume   3357.00334346
_cell_formula_units_Z   16
loop_
 _symmetry_equiv_pos_site_id
 _symmetry_equiv_pos_as_xyz
  1  'x, y, z'
loop_
 _atom_site_type_symbol
 _atom_site_label
 _atom_site_symmetry_multiplicity
 _atom_site_fract_x
 _atom_site_fract_y
 _atom_site_fract_z
 _atom_site_occupancy
  C  C0  1  0.41914917  0.98374857  0.15952842  1
  C  C1  1  0.08085083  0.51625143  0.65952842  1
  C  C2  1  0.58085083  0.48374857  0.84047158  1
  C  C3  1  0.91914917  0.01625143  0.34047158  1
  C  C4  1  0.58085083  0.01625143  0.84047158  1
  C  C5  1  0.91914917  0.48374857  0.34047158  1
  C  C6  1  0.41914917  0.51625143  0.15952842  1
  C  C7  1  0.08085083  0.98374857  0.65952842  1
  C  C8  1  0.82251698  0.75000000  0.11754292  1
  C  C9  1  0.67748302  0.75000000  0.61754292  1
  C  C10  1  0.17748302  0.25000000  0.88245708  1
  C  C11  1  0.32251698  0.25000000  0.38245708  1
  C  C12  1  0.58061993  0.95620650  0.22246866  1
  C  C13  1  0.91938007  0.54379350  0.72246866  1
  C  C14  1  0.41938007  0.45620650  0.77753134  1
  C  C15  1  0.08061993  0.04379350  0.27753134  1
  C  C16  1  0.41938007  0.04379350  0.77753134  1
  C  C17  1  0.08061993  0.45620650  0.27753134  1
  C  C18  1  0.58061993  0.54379350  0.22246866  1
  C  C19  1  0.91938007  0.95620650  0.72246866  1
  C  C20  1  0.55687467  0.75000000  0.38042578  1
  C  C21  1  0.94312533  0.75000000  0.88042578  1
  C  C22  1  0.44312533  0.25000000  0.61957422  1
  C  C23  1  0.05687467  0.25000000  0.11957422  1
  C  C24  1  0.64450804  0.75000000  0.33389369  1
  C  C25  1  0.85549196  0.75000000  0.83389369  1
  C  C26  1  0.35549196  0.25000000  0.66610631  1
  C  C27  1  0.14450804  0.25000000  0.16610631  1
  C  C28  1  0.25451432  0.75000000  0.04952445  1
  C  C29  1  0.24548568  0.75000000  0.54952445  1
  C  C30  1  0.74548568  0.25000000  0.95047555  1
  C  C31  1  0.75451432  0.25000000  0.45047555  1
  C  C32  1  0.31557453  0.95457389  0.16430844  1
  C  C33  1  0.18442547  0.54542611  0.66430844  1
  C  C34  1  0.68442547  0.45457389  0.83569156  1
  C  C35  1  0.81557453  0.04542611  0.33569156  1
  C  C36  1  0.68442547  0.04542611  0.83569156  1
  C  C37  1  0.81557453  0.45457389  0.33569156  1
  C  C38  1  0.31557453  0.54542611  0.16430844  1
  C  C39  1  0.18442547  0.95457389  0.66430844  1
  C  C40  1  0.38171804  0.90465853  0.04424871  1
  C  C41  1  0.11828196  0.59534147  0.54424871  1
  C  C42  1  0.61828196  0.40465853  0.95575129  1
  C  C43  1  0.88171804  0.09534147  0.45575129  1
  C  C44  1  0.61828196  0.09534147  0.95575129  1
  C  C45  1  0.88171804  0.40465853  0.45575129  1
  C  C46  1  0.38171804  0.59534147  0.04424871  1
  C  C47  1  0.11828196  0.90465853  0.54424871  1
  C  C48  1  0.47778283  0.98526135  0.22733913  1
  C  C49  1  0.02221717  0.51473865  0.72733913  1
  C  C50  1  0.52221717  0.48526135  0.77266087  1
  C  C51  1  0.97778283  0.01473865  0.27266087  1
  C  C52  1  0.52221717  0.01473865  0.77266087  1
  C  C53  1  0.97778283  0.48526135  0.27266087  1
  C  C54  1  0.47778283  0.51473865  0.22733913  1
  C  C55  1  0.02221717  0.98526135  0.72733913  1
  C  C56  1  0.46126958  0.95122688  0.08599985  1
  C  C57  1  0.03873042  0.54877312  0.58599985  1
  C  C58  1  0.53873042  0.45122688  0.91400015  1
  C  C59  1  0.96126958  0.04877312  0.41400015  1
  C  C60  1  0.53873042  0.04877312  0.91400015  1
  C  C61  1  0.96126958  0.45122688  0.41400015  1
  C  C62  1  0.46126958  0.54877312  0.08599985  1
  C  C63  1  0.03873042  0.95122688  0.58599985  1
  C  C64  1  0.58558957  0.84752357  0.02695131  1
  C  C65  1  0.91441043  0.65247643  0.52695131  1
  C  C66  1  0.41441043  0.34752357  0.97304869  1
  C  C67  1  0.08558957  0.15247643  0.47304869  1
  C  C68  1  0.41441043  0.15247643  0.97304869  1
  C  C69  1  0.08558957  0.34752357  0.47304869  1
  C  C70  1  0.58558957  0.65247643  0.02695131  1
  C  C71  1  0.91441043  0.84752357  0.52695131  1
  C  C72  1  0.40380005  0.82880108  0.99888826  1
  C  C73  1  0.09619995  0.67119892  0.49888826  1
  C  C74  1  0.59619995  0.32880108  0.00111174  1
  C  C75  1  0.90380005  0.17119892  0.50111174  1
  C  C76  1  0.59619995  0.17119892  0.00111174  1
  C  C77  1  0.90380005  0.32880108  0.50111174  1
  C  C78  1  0.40380005  0.67119892  0.99888826  1
  C  C79  1  0.09619995  0.82880108  0.49888826  1
  C  C80  1  0.76157763  0.83499530  0.08558640  1
  C  C81  1  0.73842237  0.66500470  0.58558640  1
  C  C82  1  0.23842237  0.33499530  0.91441360  1
  C  C83  1  0.26157763  0.16500470  0.41441360  1
  C  C84  1  0.23842237  0.16500470  0.91441360  1
  C  C85  1  0.26157763  0.33499530  0.41441360  1
  C  C86  1  0.76157763  0.66500470  0.08558640  1
  C  C87  1  0.73842237  0.83499530  0.58558640  1
  C  C88  1  0.50638897  0.79926794  0.99189144  1
  C  C89  1  0.99361103  0.70073206  0.49189144  1
  C  C90  1  0.49361103  0.29926794  0.00810856  1
  C  C91  1  0.00638897  0.20073206  0.50810856  1
  C  C92  1  0.49361103  0.20073206  0.00810856  1
  C  C93  1  0.00638897  0.29926794  0.50810856  1
  C  C94  1  0.50638897  0.70073206  0.99189144  1
  C  C95  1  0.99361103  0.79926794  0.49189144  1
  C  C96  1  0.27622445  0.92552662  0.23635069  1
  C  C97  1  0.22377555  0.57447338  0.73635069  1
  C  C98  1  0.72377555  0.42552662  0.76364931  1
  C  C99  1  0.77622445  0.07447338  0.26364931  1
  C  C100  1  0.72377555  0.07447338  0.76364931  1
  C  C101  1  0.77622445  0.42552662  0.26364931  1
  C  C102  1  0.27622445  0.57447338  0.23635069  1
  C  C103  1  0.22377555  0.92552662  0.73635069  1
  C  C104  1  0.31366439  0.84643134  0.35265216  1
  C  C105  1  0.18633561  0.65356866  0.85265216  1
  C  C106  1  0.68633561  0.34643134  0.64734784  1
  C  C107  1  0.81366439  0.15356866  0.14734784  1
  C  C108  1  0.68633561  0.15356866  0.64734784  1
  C  C109  1  0.81366439  0.34643134  0.14734784  1
  C  C110  1  0.31366439  0.65356866  0.35265216  1
  C  C111  1  0.18633561  0.84643134  0.85265216  1
  C  C112  1  0.33798877  0.92600026  0.30654149  1
  C  C113  1  0.16201123  0.57399974  0.80654149  1
  C  C114  1  0.66201123  0.42600026  0.69345851  1
  C  C115  1  0.83798877  0.07399974  0.19345851  1
  C  C116  1  0.66201123  0.07399974  0.69345851  1
  C  C117  1  0.83798877  0.42600026  0.19345851  1
  C  C118  1  0.33798877  0.57399974  0.30654149  1
  C  C119  1  0.16201123  0.92600026  0.80654149  1
  C  C120  1  0.62509055  0.93121499  0.15048889  1
  C  C121  1  0.87490945  0.56878501  0.65048889  1
  C  C122  1  0.37490945  0.43121499  0.84951111  1
  C  C123  1  0.12509055  0.06878501  0.34951111  1
  C  C124  1  0.37490945  0.06878501  0.84951111  1
  C  C125  1  0.12509055  0.43121499  0.34951111  1
  C  C126  1  0.62509055  0.56878501  0.15048889  1
  C  C127  1  0.87490945  0.93121499  0.65048889  1
  C  C128  1  0.33968071  0.75000000  0.00198661  1
  C  C129  1  0.16031929  0.75000000  0.50198661  1
  C  C130  1  0.66031929  0.25000000  0.99801339  1
  C  C131  1  0.83968071  0.25000000  0.49801339  1
  C  C132  1  0.80205352  0.75000000  0.21002720  1
  C  C133  1  0.69794648  0.75000000  0.71002720  1
  C  C134  1  0.19794648  0.25000000  0.78997280  1
  C  C135  1  0.30205352  0.25000000  0.28997280  1
  C  C136  1  0.49256513  0.82895724  0.38579422  1
  C  C137  1  0.00743487  0.67104276  0.88579422  1
  C  C138  1  0.50743487  0.32895724  0.61420578  1
  C  C139  1  0.99256513  0.17104276  0.11420578  1
  C  C140  1  0.50743487  0.17104276  0.61420578  1
  C  C141  1  0.99256513  0.32895724  0.11420578  1
  C  C142  1  0.49256513  0.67104276  0.38579422  1
  C  C143  1  0.00743487  0.82895724  0.88579422  1
  C  C144  1  0.43697407  0.95574484  0.30205456  1
  C  C145  1  0.06302593  0.54425516  0.80205456  1
  C  C146  1  0.56302593  0.45574484  0.69794544  1
  C  C147  1  0.93697407  0.04425516  0.19794544  1
  C  C148  1  0.56302593  0.04425516  0.69794544  1
  C  C149  1  0.93697407  0.45574484  0.19794544  1
  C  C150  1  0.43697407  0.54425516  0.30205456  1
  C  C151  1  0.06302593  0.95574484  0.80205456  1
  C  C152  1  0.38945409  0.79898546  0.39188751  1
  C  C153  1  0.11054591  0.70101454  0.89188751  1
  C  C154  1  0.61054591  0.29898546  0.60811249  1
  C  C155  1  0.88945409  0.20101454  0.10811249  1
  C  C156  1  0.61054591  0.20101454  0.60811249  1
  C  C157  1  0.88945409  0.29898546  0.10811249  1
  C  C158  1  0.38945409  0.70101454  0.39188751  1
  C  C159  1  0.11054591  0.79898546  0.89188751  1
  C  C160  1  0.67566864  0.79682173  0.03914250  1
  C  C161  1  0.82433136  0.70317827  0.53914250  1
  C  C162  1  0.32433136  0.29682173  0.96085750  1
  C  C163  1  0.17566864  0.20317827  0.46085750  1
  C  C164  1  0.32433136  0.20317827  0.96085750  1
  C  C165  1  0.17566864  0.29682173  0.46085750  1
  C  C166  1  0.67566864  0.70317827  0.03914250  1
  C  C167  1  0.82433136  0.79682173  0.53914250  1
  C  C168  1  0.67151800  0.83407559  0.29299179  1
  C  C169  1  0.82848200  0.66592441  0.79299179  1
  C  C170  1  0.32848200  0.33407559  0.70700821  1
  C  C171  1  0.17151800  0.16592441  0.20700821  1
  C  C172  1  0.32848200  0.16592441  0.70700821  1
  C  C173  1  0.17151800  0.33407559  0.20700821  1
  C  C174  1  0.67151800  0.66592441  0.29299179  1
  C  C175  1  0.82848200  0.83407559  0.79299179  1
  C  C176  1  0.71366734  0.87704748  0.15691192  1
  C  C177  1  0.78633266  0.62295252  0.65691192  1
  C  C178  1  0.28633266  0.37704748  0.84308808  1
  C  C179  1  0.21366734  0.12295252  0.34308808  1
  C  C180  1  0.28633266  0.12295252  0.84308808  1
  C  C181  1  0.21366734  0.37704748  0.34308808  1
  C  C182  1  0.71366734  0.62295252  0.15691192  1
  C  C183  1  0.78633266  0.87704748  0.65691192  1
  C  C184  1  0.73586946  0.83027298  0.22544273  1
  C  C185  1  0.76413054  0.66972702  0.72544273  1
  C  C186  1  0.26413054  0.33027298  0.77455727  1
  C  C187  1  0.23586946  0.16972702  0.27455727  1
  C  C188  1  0.26413054  0.16972702  0.77455727  1
  C  C189  1  0.23586946  0.33027298  0.27455727  1
  C  C190  1  0.73586946  0.66972702  0.22544273  1
  C  C191  1  0.76413054  0.83027298  0.72544273  1
  C  C192  1  0.51511960  0.90639977  0.34267051  1
  C  C193  1  0.98488040  0.59360023  0.84267051  1
  C  C194  1  0.48488040  0.40639977  0.65732949  1
  C  C195  1  0.01511960  0.09360023  0.15732949  1
  C  C196  1  0.48488040  0.09360023  0.65732949  1
  C  C197  1  0.01511960  0.40639977  0.15732949  1
  C  C198  1  0.51511960  0.59360023  0.34267051  1
  C  C199  1  0.98488040  0.90639977  0.84267051  1
  C  C200  1  0.29225296  0.90571604  0.09278774  1
  C  C201  1  0.20774704  0.59428396  0.59278774  1
  C  C202  1  0.70774704  0.40571604  0.90721226  1
  C  C203  1  0.79225296  0.09428396  0.40721226  1
  C  C204  1  0.70774704  0.09428396  0.90721226  1
  C  C205  1  0.79225296  0.40571604  0.40721226  1
  C  C206  1  0.29225296  0.59428396  0.09278774  1
  C  C207  1  0.20774704  0.90571604  0.59278774  1
  C  C208  1  0.60395441  0.90710246  0.29440260  1
  C  C209  1  0.89604559  0.59289754  0.79440260  1
  C  C210  1  0.39604559  0.40710246  0.70559740  1
  C  C211  1  0.10395441  0.09289754  0.20559740  1
  C  C212  1  0.39604559  0.09289754  0.70559740  1
  C  C213  1  0.10395441  0.40710246  0.20559740  1
  C  C214  1  0.60395441  0.59289754  0.29440260  1
  C  C215  1  0.89604559  0.90710246  0.79440260  1
  C  C216  1  0.23009298  0.82951720  0.09574638  1
  C  C217  1  0.26990702  0.67048280  0.59574638  1
  C  C218  1  0.76990702  0.32951720  0.90425362  1
  C  C219  1  0.73009298  0.17048280  0.40425362  1
  C  C220  1  0.76990702  0.17048280  0.90425362  1
  C  C221  1  0.73009298  0.32951720  0.40425362  1
  C  C222  1  0.23009298  0.67048280  0.09574638  1
  C  C223  1  0.26990702  0.82951720  0.59574638  1
  C  C224  1  0.21258977  0.84630740  0.23956240  1
  C  C225  1  0.28741023  0.65369260  0.73956240  1
  C  C226  1  0.78741023  0.34630740  0.76043760  1
  C  C227  1  0.71258977  0.15369260  0.26043760  1
  C  C228  1  0.78741023  0.15369260  0.76043760  1
  C  C229  1  0.71258977  0.34630740  0.26043760  1
  C  C230  1  0.21258977  0.65369260  0.23956240  1
  C  C231  1  0.28741023  0.84630740  0.73956240  1
  C  C232  1  0.23581577  0.79731749  0.31141058  1
  C  C233  1  0.26418423  0.70268251  0.81141058  1
  C  C234  1  0.76418423  0.29731749  0.68858942  1
  C  C235  1  0.73581577  0.20268251  0.18858942  1
  C  C236  1  0.76418423  0.20268251  0.68858942  1
  C  C237  1  0.73581577  0.29731749  0.18858942  1
  C  C238  1  0.23581577  0.70268251  0.31141058  1
  C  C239  1  0.26418423  0.79731749  0.81141058  1
  C  C240  1  0.19012749  0.79912691  0.17053408  1
  C  C241  1  0.30987251  0.70087309  0.67053408  1
  C  C242  1  0.80987251  0.29912691  0.82946592  1
  C  C243  1  0.69012749  0.20087309  0.32946592  1
  C  C244  1  0.80987251  0.20087309  0.82946592  1
  C  C245  1  0.69012749  0.29912691  0.32946592  1
  C  C246  1  0.19012749  0.70087309  0.17053408  1
  C  C247  1  0.30987251  0.79912691  0.67053408  1
  C  C248  1  0.56207815  0.92317971  0.08012853  1
  C  C249  1  0.93792185  0.57682029  0.58012853  1
  C  C250  1  0.43792185  0.42317971  0.91987147  1
  C  C251  1  0.06207815  0.07682029  0.41987147  1
  C  C252  1  0.43792185  0.07682029  0.91987147  1
  C  C253  1  0.06207815  0.42317971  0.41987147  1
  C  C254  1  0.56207815  0.57682029  0.08012853  1
  C  C255  1  0.93792185  0.92317971  0.58012853  1
  Cl  Cl0  1  0.94958075  0.75000000  0.09224274  1
  Cl  Cl1  1  0.55041925  0.75000000  0.59224274  1
  Cl  Cl2  1  0.05041925  0.25000000  0.90775726  1
  Cl  Cl3  1  0.44958075  0.25000000  0.40775726  1
  Cl  Cl4  1  0.91184327  0.75000000  0.27257454  1
  Cl  Cl5  1  0.58815673  0.75000000  0.77257454  1
  Cl  Cl6  1  0.08815673  0.25000000  0.72742546  1
  Cl  Cl7  1  0.41184327  0.25000000  0.22742546  1
  Cl  Cl8  1  0.83164688  0.91593986  0.02767446  1
  Cl  Cl9  1  0.66835312  0.58406014  0.52767446  1
  Cl  Cl10  1  0.16835312  0.41593986  0.97232554  1
  Cl  Cl11  1  0.33164688  0.08406014  0.47232554  1
  Cl  Cl12  1  0.16835312  0.08406014  0.97232554  1
  Cl  Cl13  1  0.33164688  0.41593986  0.47232554  1
  Cl  Cl14  1  0.83164688  0.58406014  0.02767446  1
  Cl  Cl15  1  0.66835312  0.91593986  0.52767446  1
loop_
_geom_bond_atom_site_label_1
_geom_bond_atom_site_label_2
_geom_bond_distance
_geom_bond_site_symmetry_2
C0 C48 1.393055 1_555
C0 C56 1.451740 1_555
C0 C32 1.452024 1_555
C1 C49 1.393055 1_555
C1 C57 1.451740 1_555
C1 C33 1.452024 1_555
C2 C50 1.393055 1_555
C2 C58 1.451740 1_555
C2 C34 1.452024 1_555
C3 C51 1.393055 1_555
C3 C59 1.451740 1_555
C3 C35 1.452024 1_555
C4 C52 1.393055 1_555
C4 C60 1.451740 1_555
C5 C53 1.393055 1_555
C5 C61 1.451740 1_555
C6 C62 1.451740 1_555
C8 C86 1.593261 1_555
C8 C80 1.593261 1_555
C8 Cl0 1.751424 1_555
C9 Cl1 1.751424 1_555
C10 C82 1.593261 1_555
C10 C84 1.593261 1_555
C10 C134 1.594275 1_555
C10 Cl2 1.751424 1_555
C11 C83 1.593261 1_555
C11 C85 1.593261 1_555
C11 C135 1.594275 1_555
C11 Cl3 1.751424 1_555
C12 C120 1.408587 1_555
C12 C48 1.442191 1_555
C12 C208 1.455087 1_555
C13 C49 1.442191 1_655
C13 C209 1.455087 1_555
C14 C50 1.442191 1_555
C14 C210 1.455087 1_555
C15 C51 1.442191 1_455
C15 C211 1.455087 1_555
C16 C52 1.442191 1_555
C16 C212 1.455087 1_555
C17 C53 1.442191 1_455
C17 C213 1.455087 1_555
C18 C54 1.442191 1_555
C18 C214 1.455087 1_555
C19 C55 1.442191 1_655
C19 C215 1.455087 1_555
C20 C24 1.412712 1_555
C21 C25 1.412712 1_555
C22 C26 1.412712 1_555
C23 C27 1.412712 1_555
C32 C96 1.399298 1_555
C33 C97 1.399298 1_555
C34 C98 1.399298 1_555
C35 C99 1.399298 1_555
C36 C4 1.452024 1_555
C37 C5 1.452024 1_555
C38 C6 1.452024 1_555
C39 C7 1.452024 1_555
C40 C72 1.392735 1_554
C40 C56 1.451657 1_555
C41 C73 1.392735 1_555
C41 C57 1.451657 1_555
C42 C74 1.392735 1_556
C42 C58 1.451657 1_555
C43 C75 1.392735 1_555
C43 C59 1.451657 1_555
C44 C76 1.392735 1_556
C44 C60 1.451657 1_555
C45 C77 1.392735 1_555
C45 C61 1.451657 1_555
C46 C78 1.392735 1_554
C46 C62 1.451657 1_555
C47 C79 1.392735 1_555
C47 C63 1.451657 1_555
C54 C6 1.393055 1_555
C55 C7 1.393055 1_555
C63 C7 1.451740 1_555
C64 C88 1.408593 1_554
C65 C89 1.408593 1_555
C66 C90 1.408593 1_556
C67 C91 1.408593 1_555
C68 C92 1.408593 1_556
C69 C93 1.408593 1_555
C70 C94 1.408593 1_554
C71 C95 1.408593 1_555
C72 C88 1.443683 1_555
C73 C89 1.443683 1_455
C74 C90 1.443683 1_555
C75 C91 1.443683 1_655
C76 C92 1.443683 1_555
C77 C93 1.443683 1_655
C78 C94 1.443683 1_555
C79 C95 1.443683 1_455
C80 Cl8 1.810447 1_555
C81 C9 1.593261 1_555
C81 Cl9 1.810447 1_555
C82 Cl10 1.810447 1_555
C83 Cl11 1.810447 1_555
C84 Cl12 1.810447 1_555
C85 Cl13 1.810447 1_555
C86 Cl14 1.810447 1_555
C87 C9 1.593261 1_555
C87 Cl15 1.810447 1_555
C88 C94 1.457619 1_555
C89 C95 1.457619 1_555
C90 C92 1.457619 1_555
C91 C93 1.457619 1_555
C100 C36 1.399298 1_555
C100 C228 1.448900 1_555
C100 C116 1.449892 1_555
C101 C37 1.399298 1_555
C101 C229 1.448900 1_555
C101 C117 1.449892 1_555
C102 C38 1.399298 1_555
C102 C230 1.448900 1_555
C102 C118 1.449892 1_555
C103 C39 1.399298 1_555
C103 C231 1.448900 1_555
C103 C119 1.449892 1_555
C104 C152 1.400804 1_555
C104 C232 1.449326 1_555
C104 C112 1.450627 1_555
C105 C153 1.400804 1_555
C105 C233 1.449326 1_555
C105 C113 1.450627 1_555
C106 C154 1.400804 1_555
C106 C234 1.449326 1_555
C106 C114 1.450627 1_555
C107 C155 1.400804 1_555
C107 C235 1.449326 1_555
C107 C115 1.450627 1_555
C108 C156 1.400804 1_555
C108 C236 1.449326 1_555
C108 C116 1.450627 1_555
C109 C157 1.400804 1_555
C109 C237 1.449326 1_555
C109 C117 1.450627 1_555
C110 C158 1.400804 1_555
C110 C238 1.449326 1_555
C110 C118 1.450627 1_555
C111 C159 1.400804 1_555
C111 C239 1.449326 1_555
C111 C119 1.450627 1_555
C112 C144 1.396047 1_555
C112 C96 1.449892 1_555
C113 C145 1.396047 1_555
C113 C97 1.449892 1_555
C114 C146 1.396047 1_555
C114 C98 1.449892 1_555
C115 C147 1.396047 1_555
C115 C99 1.449892 1_555
C116 C148 1.396047 1_555
C117 C149 1.396047 1_555
C118 C150 1.396047 1_555
C119 C151 1.396047 1_555
C120 C176 1.433495 1_555
C120 C248 1.466610 1_555
C121 C13 1.408587 1_555
C121 C177 1.433495 1_555
C121 C249 1.466610 1_555
C122 C14 1.408587 1_555
C122 C178 1.433495 1_555
C122 C250 1.466610 1_555
C123 C15 1.408587 1_555
C123 C179 1.433495 1_555
C123 C251 1.466610 1_555
C124 C16 1.408587 1_555
C124 C180 1.433495 1_555
C124 C252 1.466610 1_555
C125 C17 1.408587 1_555
C125 C181 1.433495 1_555
C125 C253 1.466610 1_555
C126 C18 1.408587 1_555
C126 C182 1.433495 1_555
C126 C254 1.466610 1_555
C127 C19 1.408587 1_555
C127 C183 1.433495 1_555
C127 C255 1.466610 1_555
C128 C28 1.395322 1_555
C128 C72 1.447654 1_554
C128 C78 1.447654 1_554
C129 C29 1.395322 1_555
C129 C73 1.447654 1_555
C129 C79 1.447654 1_555
C130 C30 1.395322 1_555
C130 C76 1.447654 1_556
C130 C74 1.447654 1_556
C131 C31 1.395322 1_555
C131 C75 1.447654 1_555
C131 C77 1.447654 1_555
C132 C190 1.503578 1_555
C132 C184 1.503578 1_555
C132 C8 1.594275 1_555
C132 Cl4 1.811257 1_555
C133 C185 1.503578 1_555
C133 C191 1.503578 1_555
C133 C9 1.594275 1_555
C133 Cl5 1.811257 1_555
C134 C188 1.503578 1_555
C134 C186 1.503578 1_555
C134 Cl6 1.811257 1_555
C135 C189 1.503578 1_555
C135 C187 1.503578 1_555
C135 Cl7 1.811257 1_555
C136 C192 1.392684 1_555
C136 C152 1.451103 1_555
C136 C20 1.452927 1_555
C137 C193 1.392684 1_455
C137 C153 1.451103 1_555
C137 C21 1.452927 1_455
C138 C194 1.392684 1_555
C138 C154 1.451103 1_555
C138 C22 1.452927 1_555
C139 C195 1.392684 1_655
C139 C155 1.451103 1_555
C139 C23 1.452927 1_655
C140 C196 1.392684 1_555
C140 C156 1.451103 1_555
C140 C22 1.452927 1_555
C141 C197 1.392684 1_655
C141 C157 1.451103 1_555
C141 C23 1.452927 1_655
C142 C198 1.392684 1_555
C142 C158 1.451103 1_555
C142 C20 1.452927 1_555
C143 C199 1.392684 1_455
C143 C159 1.451103 1_555
C143 C21 1.452927 1_455
C144 C48 1.448474 1_555
C144 C192 1.448802 1_555
C145 C49 1.448474 1_555
C145 C193 1.448802 1_455
C146 C50 1.448474 1_555
C146 C194 1.448802 1_555
C147 C51 1.448474 1_555
C147 C195 1.448802 1_655
C148 C52 1.448474 1_555
C148 C196 1.448802 1_555
C149 C53 1.448474 1_555
C149 C197 1.448802 1_655
C150 C54 1.448474 1_555
C150 C198 1.448802 1_555
C151 C55 1.448474 1_555
C151 C199 1.448802 1_455
C152 C158 1.449262 1_555
C153 C159 1.449262 1_555
C154 C156 1.449262 1_555
C155 C157 1.449262 1_555
C160 C166 1.385247 1_555
C160 C64 1.433271 1_555
C160 C80 1.502942 1_555
C161 C167 1.385247 1_555
C161 C65 1.433271 1_555
C161 C81 1.502942 1_555
C162 C164 1.385247 1_555
C162 C66 1.433271 1_555
C162 C82 1.502942 1_555
C163 C165 1.385247 1_555
C163 C67 1.433271 1_555
C163 C83 1.502942 1_555
C164 C68 1.433271 1_555
C164 C84 1.502942 1_555
C165 C69 1.433271 1_555
C165 C85 1.502942 1_555
C166 C70 1.433271 1_555
C166 C86 1.502942 1_555
C167 C71 1.433271 1_555
C167 C87 1.502942 1_555
C168 C208 1.408066 1_555
C168 C184 1.434787 1_555
C168 C24 1.469557 1_555
C169 C209 1.408066 1_555
C169 C185 1.434787 1_555
C169 C25 1.469557 1_555
C170 C210 1.408066 1_555
C170 C186 1.434787 1_555
C170 C26 1.469557 1_555
C171 C211 1.408066 1_555
C171 C187 1.434787 1_555
C171 C27 1.469557 1_555
C172 C212 1.408066 1_555
C172 C188 1.434787 1_555
C172 C26 1.469557 1_555
C173 C213 1.408066 1_555
C173 C189 1.434787 1_555
C173 C27 1.469557 1_555
C174 C214 1.408066 1_555
C174 C190 1.434787 1_555
C174 C24 1.469557 1_555
C175 C215 1.408066 1_555
C175 C191 1.434787 1_555
C175 C25 1.469557 1_555
C176 C184 1.386119 1_555
C176 C80 1.504696 1_555
C177 C185 1.386119 1_555
C177 C81 1.504696 1_555
C178 C186 1.386119 1_555
C178 C82 1.504696 1_555
C179 C187 1.386119 1_555
C179 C83 1.504696 1_555
C180 C188 1.386119 1_555
C180 C84 1.504696 1_555
C181 C189 1.386119 1_555
C181 C85 1.504696 1_555
C182 C190 1.386119 1_555
C182 C86 1.504696 1_555
C183 C191 1.386119 1_555
C183 C87 1.504696 1_555
C192 C208 1.442630 1_555
C193 C209 1.442630 1_555
C194 C210 1.442630 1_555
C195 C211 1.442630 1_555
C196 C212 1.442630 1_555
C197 C213 1.442630 1_555
C198 C214 1.442630 1_555
C199 C215 1.442630 1_555
C200 C216 1.401076 1_555
C200 C32 1.447341 1_555
C200 C40 1.452224 1_555
C201 C217 1.401076 1_555
C201 C33 1.447341 1_555
C201 C41 1.452224 1_555
C202 C218 1.401076 1_555
C202 C34 1.447341 1_555
C202 C42 1.452224 1_555
C203 C219 1.401076 1_555
C203 C35 1.447341 1_555
C203 C43 1.452224 1_555
C204 C220 1.401076 1_555
C204 C36 1.447341 1_555
C204 C44 1.452224 1_555
C205 C221 1.401076 1_555
C205 C37 1.447341 1_555
C205 C45 1.452224 1_555
C206 C222 1.401076 1_555
C206 C38 1.447341 1_555
C206 C46 1.452224 1_555
C207 C223 1.401076 1_555
C207 C39 1.447341 1_555
C207 C47 1.452224 1_555
C216 C240 1.449305 1_555
C216 C28 1.451318 1_555
C217 C241 1.449305 1_555
C217 C29 1.451318 1_555
C218 C242 1.449305 1_555
C218 C30 1.451318 1_555
C219 C243 1.449305 1_555
C219 C31 1.451318 1_555
C220 C244 1.449305 1_555
C220 C30 1.451318 1_555
C221 C245 1.449305 1_555
C221 C31 1.451318 1_555
C222 C246 1.449305 1_555
C222 C28 1.451318 1_555
C223 C247 1.449305 1_555
C223 C29 1.451318 1_555
C224 C240 1.396956 1_555
C224 C96 1.448900 1_555
C224 C232 1.452711 1_555
C225 C241 1.396956 1_555
C225 C97 1.448900 1_555
C225 C233 1.452711 1_555
C226 C242 1.396956 1_555
C226 C98 1.448900 1_555
C226 C234 1.452711 1_555
C227 C243 1.396956 1_555
C227 C99 1.448900 1_555
C227 C235 1.452711 1_555
C228 C244 1.396956 1_555
C228 C236 1.452711 1_555
C229 C245 1.396956 1_555
C229 C237 1.452711 1_555
C230 C246 1.396956 1_555
C230 C238 1.452711 1_555
C231 C247 1.396956 1_555
C231 C239 1.452711 1_555
C232 C238 1.399914 1_555
C233 C239 1.399914 1_555
C234 C236 1.399914 1_555
C235 C237 1.399914 1_555
C240 C246 1.453447 1_555
C241 C247 1.453447 1_555
C242 C244 1.453447 1_555
C243 C245 1.453447 1_555
C248 C56 1.413033 1_555
C248 C64 1.472015 1_555
C249 C57 1.413033 1_655
C249 C65 1.472015 1_555
C250 C58 1.413033 1_555
C250 C66 1.472015 1_555
C251 C59 1.413033 1_455
C251 C67 1.472015 1_555
C252 C60 1.413033 1_555
C252 C68 1.472015 1_555
C253 C61 1.413033 1_455
C253 C69 1.472015 1_555
C254 C62 1.413033 1_555
C254 C70 1.472015 1_555
C255 C63 1.413033 1_655
C255 C71 1.472015 1_555
