# generated using pymatgen
data_NaC2S2N(O2F3)2
_symmetry_space_group_name_H-M   'P 1'
_cell_length_a   7.76644192
_cell_length_b   10.78171556
_cell_length_c   22.56398392
_cell_angle_alpha   90.00000000
_cell_angle_beta   90.94012690
_cell_angle_gamma   90.00000000
_symmetry_Int_Tables_number   1
_chemical_formula_structural   NaC2S2N(O2F3)2
_chemical_formula_sum   'Na8 C16 S16 N8 O32 F48'
_cell_volume   1889.15366433
_cell_formula_units_Z   8
loop_
 _symmetry_equiv_pos_site_id
 _symmetry_equiv_pos_as_xyz
  1  'x, y, z'
loop_
 _atom_site_type_symbol
 _atom_site_label
 _atom_site_symmetry_multiplicity
 _atom_site_fract_x
 _atom_site_fract_y
 _atom_site_fract_z
 _atom_site_occupancy
  Na  Na0  1  0.67109845  0.18767538  0.24370658  1
  Na  Na1  1  0.17109845  0.31232462  0.74370658  1
  Na  Na2  1  0.32890155  0.81232462  0.75629342  1
  Na  Na3  1  0.82890155  0.68767538  0.25629342  1
  Na  Na4  1  0.17183556  0.09884427  0.24309747  1
  Na  Na5  1  0.67183556  0.40115573  0.74309747  1
  Na  Na6  1  0.82816444  0.90115573  0.75690253  1
  Na  Na7  1  0.32816444  0.59884427  0.25690253  1
  C  C0  1  0.90188079  0.47520639  0.09056060  1
  C  C1  1  0.40188079  0.02479361  0.59056060  1
  C  C2  1  0.09811921  0.52479361  0.90943940  1
  C  C3  1  0.59811921  0.97520639  0.40943940  1
  C  C4  1  0.09332914  0.31364910  0.41280381  1
  C  C5  1  0.59332914  0.18635090  0.91280381  1
  C  C6  1  0.90667086  0.68635090  0.58719619  1
  C  C7  1  0.40667086  0.81364910  0.08719619  1
  C  C8  1  0.62981751  0.49288891  0.41531037  1
  C  C9  1  0.12981751  0.00711109  0.91531037  1
  C  C10  1  0.37018249  0.50711109  0.58468963  1
  C  C11  1  0.87018249  0.99288891  0.08468963  1
  C  C12  1  0.36617420  0.29750256  0.08407313  1
  C  C13  1  0.86617420  0.20249744  0.58407313  1
  C  C14  1  0.63382580  0.70249744  0.91592687  1
  C  C15  1  0.13382580  0.79750256  0.41592687  1
  S  S0  1  0.04544057  0.36841233  0.33487585  1
  S  S1  1  0.54544057  0.13158767  0.83487585  1
  S  S2  1  0.95455943  0.63158767  0.66512415  1
  S  S3  1  0.45455943  0.86841233  0.16512415  1
  S  S4  1  0.95413078  0.41783923  0.16764445  1
  S  S5  1  0.45413078  0.08216077  0.66764445  1
  S  S6  1  0.04586922  0.58216077  0.83235555  1
  S  S7  1  0.54586922  0.91783923  0.33235555  1
  S  S8  1  0.30470902  0.34098025  0.16184467  1
  S  S9  1  0.80470902  0.15901975  0.66184467  1
  S  S10  1  0.69529098  0.65901975  0.83815533  1
  S  S11  1  0.19529098  0.84098025  0.33815533  1
  S  S12  1  0.69475281  0.44658196  0.33829467  1
  S  S13  1  0.19475281  0.05341804  0.83829467  1
  S  S14  1  0.30524719  0.55341804  0.66170533  1
  S  S15  1  0.80524719  0.94658196  0.16170533  1
  N  N0  1  0.10300211  0.31773812  0.16148268  1
  N  N1  1  0.60300211  0.18226188  0.66148268  1
  N  N2  1  0.89699789  0.68226188  0.83851732  1
  N  N3  1  0.39699789  0.81773812  0.33851732  1
  N  N4  1  0.89648191  0.46881373  0.33977788  1
  N  N5  1  0.39648191  0.03118627  0.83977788  1
  N  N6  1  0.10351809  0.53118627  0.66022212  1
  N  N7  1  0.60351809  0.96881373  0.16022212  1
  O  O0  1  0.36268899  0.46733582  0.17088233  1
  O  O1  1  0.86268899  0.03266418  0.67088233  1
  O  O2  1  0.63731101  0.53266418  0.82911767  1
  O  O3  1  0.13731101  0.96733582  0.32911767  1
  O  O4  1  0.80044469  0.35292467  0.18507938  1
  O  O5  1  0.30044469  0.14707533  0.68507938  1
  O  O6  1  0.19955531  0.64707533  0.81492062  1
  O  O7  1  0.69955531  0.85292467  0.31492062  1
  O  O8  1  0.99905763  0.25598949  0.30254040  1
  O  O9  1  0.49905763  0.24401051  0.80254040  1
  O  O10  1  0.00094237  0.74401051  0.69745960  1
  O  O11  1  0.50094237  0.75598949  0.19745960  1
  O  O12  1  0.61740926  0.54285203  0.30094720  1
  O  O13  1  0.11740926  0.95714797  0.80094720  1
  O  O14  1  0.38259074  0.45714797  0.69905280  1
  O  O15  1  0.88259074  0.04285203  0.19905280  1
  O  O16  1  0.63578095  0.32033697  0.32974052  1
  O  O17  1  0.13578095  0.17966303  0.82974052  1
  O  O18  1  0.36421905  0.67966303  0.67025948  1
  O  O19  1  0.86421905  0.82033697  0.17025948  1
  O  O20  1  0.20007964  0.43277638  0.31794698  1
  O  O21  1  0.70007964  0.06722362  0.81794698  1
  O  O22  1  0.79992036  0.56722362  0.68205302  1
  O  O23  1  0.29992036  0.93277638  0.18205302  1
  O  O24  1  0.38424679  0.24400080  0.19815786  1
  O  O25  1  0.88424679  0.25599920  0.69815786  1
  O  O26  1  0.61575321  0.75599920  0.80184214  1
  O  O27  1  0.11575321  0.74400080  0.30184214  1
  O  O28  1  0.00183247  0.52954146  0.20036919  1
  O  O29  1  0.50183247  0.97045854  0.70036919  1
  O  O30  1  0.99816753  0.47045854  0.79963081  1
  O  O31  1  0.49816753  0.02954146  0.29963081  1
  F  F0  1  0.88227044  0.37881666  0.05302780  1
  F  F1  1  0.38227044  0.12118334  0.55302780  1
  F  F2  1  0.11772956  0.62118334  0.94697220  1
  F  F3  1  0.61772956  0.87881666  0.44697220  1
  F  F4  1  0.24170261  0.24876075  0.41334162  1
  F  F5  1  0.74170261  0.25123925  0.91334162  1
  F  F6  1  0.75829739  0.75123925  0.58665838  1
  F  F7  1  0.25829739  0.74876075  0.08665838  1
  F  F8  1  0.69662792  0.41253544  0.45524256  1
  F  F9  1  0.19662792  0.08746456  0.95524256  1
  F  F10  1  0.30337208  0.58746456  0.54475744  1
  F  F11  1  0.80337208  0.91253544  0.04475744  1
  F  F12  1  0.96514298  0.23952035  0.43142389  1
  F  F13  1  0.46514298  0.26047965  0.93142389  1
  F  F14  1  0.03485702  0.76047965  0.56857611  1
  F  F15  1  0.53485702  0.73952035  0.06857611  1
  F  F16  1  0.02947082  0.54938260  0.07164245  1
  F  F17  1  0.52947082  0.95061740  0.57164245  1
  F  F18  1  0.97052918  0.45061740  0.92835755  1
  F  F19  1  0.47052918  0.04938260  0.42835755  1
  F  F20  1  0.10930268  0.41145157  0.44970128  1
  F  F21  1  0.60930268  0.08854843  0.94970128  1
  F  F22  1  0.89069732  0.58854843  0.55029872  1
  F  F23  1  0.39069732  0.91145157  0.05029872  1
  F  F24  1  0.53874219  0.30253185  0.07954155  1
  F  F25  1  0.03874219  0.19746815  0.57954155  1
  F  F26  1  0.46125781  0.69746815  0.92045845  1
  F  F27  1  0.96125781  0.80253185  0.42045845  1
  F  F28  1  0.45677500  0.49111801  0.41855553  1
  F  F29  1  0.95677500  0.00888199  0.91855553  1
  F  F30  1  0.54322500  0.50888199  0.58144447  1
  F  F31  1  0.04322500  0.99111801  0.08144447  1
  F  F32  1  0.31244144  0.18151670  0.07170144  1
  F  F33  1  0.81244144  0.31848330  0.57170144  1
  F  F34  1  0.68755856  0.81848330  0.92829856  1
  F  F35  1  0.18755856  0.68151670  0.42829856  1
  F  F36  1  0.29371887  0.37739755  0.04502719  1
  F  F37  1  0.79371887  0.12260245  0.54502719  1
  F  F38  1  0.70628113  0.62260245  0.95497281  1
  F  F39  1  0.20628113  0.87739755  0.45497281  1
  F  F40  1  0.75418776  0.54072308  0.09185078  1
  F  F41  1  0.25418776  0.95927692  0.59185078  1
  F  F42  1  0.24581224  0.45927692  0.90814922  1
  F  F43  1  0.74581224  0.04072308  0.40814922  1
  F  F44  1  0.68673121  0.60821190  0.42767561  1
  F  F45  1  0.18673121  0.89178810  0.92767561  1
  F  F46  1  0.31326879  0.39178810  0.57232439  1
  F  F47  1  0.81326879  0.10821190  0.07232439  1
loop_
_geom_bond_atom_site_label_1
_geom_bond_atom_site_label_2
_geom_bond_distance
_geom_bond_site_symmetry_2
Na0 O16 2.430442 1_555
Na0 O4 2.444804 1_555
Na0 O15 2.491095 1_555
Na0 O24 2.512592 1_555
Na0 O31 2.521629 1_555
Na1 O17 2.430442 1_555
Na1 O5 2.444804 1_555
Na1 O14 2.491095 1_555
Na1 O25 2.512592 1_455
Na1 O30 2.521629 1_455
Na2 O18 2.430442 1_555
Na2 O6 2.444804 1_555
Na2 O13 2.491095 1_555
Na2 O26 2.512592 1_555
Na2 O29 2.521629 1_555
Na3 O19 2.430442 1_555
Na3 O7 2.444804 1_555
Na3 O12 2.491095 1_555
Na3 O27 2.512592 1_655
Na3 O28 2.521629 1_655
Na4 O3 2.422126 1_545
Na4 O23 2.477427 1_545
Na4 O24 2.500781 1_555
Na4 O15 2.514994 1_455
Na4 O8 2.555252 1_455
Na5 O2 2.422126 1_555
Na5 O22 2.477427 1_555
Na5 O25 2.500781 1_555
Na5 O14 2.514994 1_555
Na5 O9 2.555252 1_555
Na6 O1 2.422126 1_565
Na6 O21 2.477427 1_565
Na6 O26 2.500781 1_555
Na6 O13 2.514994 1_655
Na6 O10 2.555252 1_655
Na7 O0 2.422126 1_555
Na7 O20 2.477427 1_555
Na7 O27 2.500781 1_555
Na7 O12 2.514994 1_555
Na7 O11 2.555252 1_555
C0 F0 1.347672 1_555
C0 F40 1.347828 1_555
C0 F16 1.348190 1_655
C0 S4 1.883959 1_555
C1 F1 1.347672 1_555
C1 F41 1.347828 1_545
C1 F17 1.348190 1_545
C1 S5 1.883959 1_555
C2 F2 1.347672 1_555
C2 F42 1.347828 1_555
C2 F18 1.348190 1_455
C2 S6 1.883959 1_555
C3 F3 1.347672 1_555
C3 F43 1.347828 1_565
C3 F19 1.348190 1_565
C3 S7 1.883959 1_555
C4 F4 1.347966 1_555
C4 F20 1.347988 1_555
C4 F12 1.349127 1_455
C4 S0 1.886090 1_555
C5 F5 1.347966 1_555
C5 F21 1.347988 1_555
C5 F13 1.349127 1_555
C5 S1 1.886090 1_555
C6 F6 1.347966 1_555
C6 F22 1.347988 1_555
C6 F14 1.349127 1_655
C6 S2 1.886090 1_555
C7 F7 1.347966 1_555
C7 F23 1.347988 1_555
C7 F15 1.349127 1_555
C7 S3 1.886090 1_555
C8 F28 1.347252 1_555
C8 F44 1.347283 1_555
C8 F8 1.347704 1_555
C8 S12 1.884740 1_555
C9 F29 1.347252 1_455
C9 F45 1.347283 1_545
C9 F9 1.347704 1_555
C9 S13 1.884740 1_555
C10 F30 1.347252 1_555
C10 F46 1.347283 1_555
C10 F10 1.347704 1_555
C10 S14 1.884740 1_555
C11 F31 1.347252 1_655
C11 F47 1.347283 1_565
C11 F11 1.347704 1_555
C11 S15 1.884740 1_555
C12 F32 1.346132 1_555
C12 F24 1.346898 1_555
C12 F36 1.348563 1_555
C12 S8 1.885353 1_555
C13 F33 1.346132 1_555
C13 F25 1.346898 1_655
C13 F37 1.348563 1_555
C13 S9 1.885353 1_555
C14 F34 1.346132 1_555
C14 F26 1.346898 1_555
C14 F38 1.348563 1_555
C14 S10 1.885353 1_555
C15 F35 1.346132 1_555
C15 F27 1.346898 1_455
C15 F39 1.348563 1_555
C15 S11 1.885353 1_555
N0 S8 1.586350 1_555
N0 S4 1.589406 1_455
N1 S9 1.586350 1_555
N1 S5 1.589406 1_555
N2 S10 1.586350 1_555
N2 S6 1.589406 1_655
N3 S11 1.586350 1_555
N3 S7 1.589406 1_555
N4 S12 1.584758 1_555
N4 S0 1.589530 1_655
N5 S13 1.584758 1_555
N5 S1 1.589530 1_555
N6 S14 1.584758 1_555
N6 S2 1.589530 1_455
N7 S15 1.584758 1_555
N7 S3 1.589530 1_555
O0 S8 1.448200 1_555
O1 S9 1.448200 1_555
O2 S10 1.448200 1_555
O3 S11 1.448200 1_555
O4 S4 1.443844 1_555
O5 S5 1.443844 1_555
O6 S6 1.443844 1_555
O7 S7 1.443844 1_555
O8 S0 1.456947 1_655
O9 S1 1.456947 1_555
O10 S2 1.456947 1_455
O11 S3 1.456947 1_555
O12 S12 1.460041 1_555
O13 S13 1.460041 1_565
O14 S14 1.460041 1_555
O15 S15 1.460041 1_545
O16 S12 1.448038 1_555
O17 S13 1.448038 1_555
O18 S14 1.448038 1_555
O19 S15 1.448038 1_555
O20 S0 1.443928 1_555
O21 S1 1.443928 1_555
O22 S2 1.443928 1_555
O23 S3 1.443928 1_555
O24 S8 1.459326 1_555
O25 S9 1.459326 1_555
O26 S10 1.459326 1_555
O27 S11 1.459326 1_555
O28 S4 1.457377 1_455
O29 S5 1.457377 1_565
O30 S6 1.457377 1_655
O31 S7 1.457377 1_545
