# generated using pymatgen
data_Ca4TiMn3O10
_symmetry_space_group_name_H-M   'P 1'
_cell_length_a   5.59373258
_cell_length_b   11.04508965
_cell_length_c   15.63237036
_cell_angle_alpha   90.61083247
_cell_angle_beta   89.98714005
_cell_angle_gamma   92.25195329
_symmetry_Int_Tables_number   1
_chemical_formula_structural   Ca4TiMn3O10
_chemical_formula_sum   'Ca16 Ti4 Mn12 O40'
_cell_volume   965.01831442
_cell_formula_units_Z   4
loop_
 _symmetry_equiv_pos_site_id
 _symmetry_equiv_pos_as_xyz
  1  'x, y, z'
loop_
 _atom_site_type_symbol
 _atom_site_label
 _atom_site_symmetry_multiplicity
 _atom_site_fract_x
 _atom_site_fract_y
 _atom_site_fract_z
 _atom_site_occupancy
  Ca  Ca0  1  0.06000800  0.97945200  0.11964300  1
  Ca  Ca1  1  0.04281000  0.98290900  0.61975000  1
  Ca  Ca2  1  0.96733900  0.54122300  0.12388300  1
  Ca  Ca3  1  0.96480700  0.54982000  0.62586000  1
  Ca  Ca4  1  0.99472000  0.51524200  0.37157500  1
  Ca  Ca5  1  0.95724300  0.52387500  0.86935500  1
  Ca  Ca6  1  0.01940100  0.95998500  0.38834800  1
  Ca  Ca7  1  0.01597600  0.95313600  0.87807700  1
  Ca  Ca8  1  0.45969300  0.24682100  0.39489700  1
  Ca  Ca9  1  0.52547100  0.24419600  0.88472900  1
  Ca  Ca10  1  0.52970400  0.76136400  0.38053400  1
  Ca  Ca11  1  0.49161900  0.73175500  0.86436300  1
  Ca  Ca12  1  0.46136800  0.22779000  0.12166800  1
  Ca  Ca13  1  0.47843400  0.22591000  0.61985200  1
  Ca  Ca14  1  0.50879300  0.76361000  0.12691300  1
  Ca  Ca15  1  0.52056300  0.78333900  0.62060300  1
  Ti  Ti0  1  0.53084500  0.98631400  0.99430500  1
  Ti  Ti1  1  0.03458400  0.24108200  0.97886600  1
  Ti  Ti2  1  0.89417400  0.26209000  0.24185700  1
  Ti  Ti3  1  0.55551300  0.99173200  0.25421200  1
  Mn  Mn0  1  0.51707700  0.00247500  0.49798000  1
  Mn  Mn1  1  0.44711300  0.50000500  0.99379900  1
  Mn  Mn2  1  0.47308600  0.50417000  0.49450800  1
  Mn  Mn3  1  0.02205200  0.23371300  0.51682400  1
  Mn  Mn4  1  0.98274600  0.74253200  0.00112600  1
  Mn  Mn5  1  0.00633700  0.74740200  0.50195100  1
  Mn  Mn6  1  0.90720900  0.27342500  0.73776400  1
  Mn  Mn7  1  0.01556800  0.74791500  0.24811600  1
  Mn  Mn8  1  0.00742900  0.75640200  0.74901000  1
  Mn  Mn9  1  0.53425500  0.00180700  0.75563100  1
  Mn  Mn10  1  0.51409600  0.50226200  0.25475600  1
  Mn  Mn11  1  0.49506700  0.50483900  0.74336100  1
  O  O0  1  0.19409500  0.56975100  0.24848300  1
  O  O1  1  0.18828800  0.59393400  0.75807800  1
  O  O2  1  0.73647600  0.38516600  0.18509000  1
  O  O3  1  0.70751400  0.39999200  0.67177400  1
  O  O4  1  0.82533900  0.91815700  0.22968100  1
  O  O5  1  0.83920400  0.90734000  0.74009700  1
  O  O6  1  0.60586000  0.17057400  0.25878700  1
  O  O7  1  0.59007100  0.17579000  0.75410800  1
  O  O8  1  0.71183000  0.65600800  0.23066600  1
  O  O9  1  0.70936300  0.65825700  0.72803200  1
  O  O10  1  0.30972900  0.86863400  0.26230300  1
  O  O11  1  0.29900300  0.86182600  0.78027200  1
  O  O12  1  0.29226700  0.35414500  0.51575200  1
  O  O13  1  0.23459200  0.35418300  0.03434900  1
  O  O14  1  0.30073200  0.85460700  0.48369100  1
  O  O15  1  0.32440900  0.85989000  0.97734600  1
  O  O16  1  0.72860600  0.19959500  0.01070300  1
  O  O17  1  0.70274100  0.16376800  0.50238900  1
  O  O18  1  0.67662000  0.62782000  0.03418700  1
  O  O19  1  0.70243400  0.63747200  0.52254900  1
  O  O20  1  0.81104300  0.90154000  0.01385600  1
  O  O21  1  0.80030800  0.89182700  0.51401900  1
  O  O22  1  0.23071900  0.09951200  0.47233000  1
  O  O23  1  0.22415400  0.10930200  0.97145800  1
  O  O24  1  0.18218300  0.59657700  0.49380500  1
  O  O25  1  0.15667200  0.59705400  0.98679900  1
  O  O26  1  0.60539600  0.98818300  0.36969700  1
  O  O27  1  0.61528600  0.02155400  0.88037500  1
  O  O28  1  0.59335300  0.45379600  0.37943400  1
  O  O29  1  0.55633700  0.45892200  0.87077600  1
  O  O30  1  0.47380100  0.01161500  0.11912600  1
  O  O31  1  0.46205200  0.99879300  0.63466700  1
  O  O32  1  0.07918100  0.17944900  0.16988000  1
  O  O33  1  0.07362000  0.19376400  0.64267500  1
  O  O34  1  0.08522300  0.75600800  0.12301100  1
  O  O35  1  0.08641000  0.75874800  0.62814400  1
  O  O36  1  0.05164300  0.30209300  0.33966100  1
  O  O37  1  0.00465400  0.29764700  0.86857600  1
  O  O38  1  0.94829700  0.74549300  0.37166300  1
  O  O39  1  0.91285600  0.74309600  0.87732900  1
loop_
_geom_bond_atom_site_label_1
_geom_bond_atom_site_label_2
_geom_bond_distance
_geom_bond_site_symmetry_2
Ca0 O4 2.257070 1_455
Ca0 O20 2.300268 1_455
Ca0 O30 2.327937 1_565
Ca0 O32 2.335012 1_565
Ca0 O34 2.478632 1_555
Ca0 O23 2.869233 1_564
Ca0 O10 2.935437 1_555
Ca1 O21 2.332867 1_455
Ca1 O5 2.343275 1_455
Ca1 O33 2.352160 1_565
Ca1 O31 2.356230 1_555
Ca1 O35 2.502213 1_555
Ca1 O22 2.833750 1_565
Ca1 O14 2.951025 1_555
Ca2 O2 2.326770 1_555
Ca2 O0 2.336379 1_655
Ca2 O18 2.382706 1_555
Ca2 O34 2.437346 1_655
Ca2 O25 2.463731 1_654
Ca2 O8 2.555929 1_555
Ca2 O13 2.939687 1_655
Ca3 O3 2.272179 1_555
Ca3 O35 2.379919 1_655
Ca3 O19 2.417751 1_555
Ca3 O24 2.445189 1_655
Ca3 O1 2.450297 1_655
Ca3 O9 2.473841 1_555
Ca4 O0 2.297792 1_655
Ca4 O28 2.323415 1_555
Ca4 O24 2.334063 1_655
Ca4 O36 2.434454 1_655
Ca4 O38 2.566483 1_555
Ca5 O25 2.273061 1_655
Ca5 O1 2.290006 1_655
Ca5 O29 2.327689 1_555
Ca5 O39 2.445558 1_555
Ca5 O37 2.522985 1_655
Ca6 O22 2.304377 1_565
Ca6 O26 2.367280 1_455
Ca6 O38 2.398250 1_455
Ca6 O21 2.426116 1_455
Ca6 O14 2.496913 1_555
Ca6 O4 2.735191 1_455
Ca6 O10 2.760947 1_555
Ca7 O39 2.368356 1_455
Ca7 O27 2.393429 1_465
Ca7 O5 2.413390 1_455
Ca7 O11 2.439816 1_555
Ca7 O20 2.473344 1_456
Ca7 O23 2.500271 1_565
Ca7 O15 2.573010 1_555
Ca8 O22 2.372868 1_555
Ca8 O17 2.375994 1_555
Ca8 O28 2.391832 1_555
Ca8 O12 2.426983 1_555
Ca8 O6 2.433116 1_555
Ca8 O36 2.539648 1_555
Ca9 O7 2.204333 1_555
Ca9 O16 2.340412 1_556
Ca9 O29 2.383491 1_555
Ca9 O27 2.529372 1_555
Ca9 O23 2.596834 1_555
Ca9 O37 2.734131 1_655
Ca9 O37 3.006386 1_555
Ca10 O14 2.317085 1_555
Ca10 O38 2.358848 1_555
Ca10 O26 2.531765 1_555
Ca10 O10 2.548743 1_555
Ca10 O19 2.811449 1_555
Ca10 O8 2.813297 1_555
Ca10 O21 2.913385 1_555
Ca11 O11 2.261725 1_555
Ca11 O39 2.363332 1_555
Ca11 O15 2.459112 1_555
Ca11 O9 2.593087 1_555
Ca11 O1 2.775084 1_555
Ca12 O32 2.311203 1_555
Ca12 O16 2.316135 1_555
Ca12 O13 2.366821 1_555
Ca12 O6 2.391026 1_555
Ca12 O30 2.391322 1_555
Ca12 O2 2.475131 1_555
Ca12 O23 2.964216 1_554
Ca13 O7 2.270164 1_555
Ca13 O33 2.306537 1_555
Ca13 O17 2.336000 1_555
Ca13 O3 2.402364 1_555
Ca13 O12 2.429931 1_555
Ca13 O31 2.519733 1_545
Ca14 O18 2.301208 1_555
Ca14 O8 2.341141 1_555
Ca14 O34 2.368301 1_555
Ca14 O10 2.667028 1_555
Ca14 O30 2.757863 1_565
Ca14 O15 2.793131 1_554
Ca14 O20 2.855968 1_555
Ca14 O4 2.887079 1_555
Ca15 O31 2.422497 1_555
Ca15 O35 2.436015 1_555
Ca15 O9 2.451369 1_555
Ca15 O19 2.460822 1_555
Ca15 O21 2.560199 1_555
Ca15 O14 2.612586 1_555
Ca15 O5 2.880479 1_555
Ca15 O11 2.924798 1_555
Mn0 O14 2.004702 1_545
Mn0 O22 2.004909 1_555
Mn0 O17 2.027088 1_555
Mn0 O21 2.055572 1_545
Mn0 O26 2.071091 1_545
Mn0 O31 2.159313 1_545
Mn1 O18 1.969433 1_556
Mn1 O25 1.984918 1_555
Mn1 O13 2.068835 1_556
Mn1 O29 2.068892 1_555
Mn2 O12 1.938807 1_555
Mn2 O24 1.954608 1_555
Mn2 O19 1.960567 1_555
Mn2 O28 2.001411 1_555
Mn3 O17 1.930303 1_455
Mn3 O12 1.974028 1_555
Mn3 O22 2.038854 1_555
Mn3 O33 2.043803 1_555
Mn4 O25 1.921882 1_654
Mn4 O39 1.974543 1_554
Mn4 O34 1.992197 1_655
Mn4 O20 2.042438 1_555
Mn4 O18 2.155860 1_555
Mn4 O15 2.299184 1_654
Mn5 O24 1.970556 1_555
Mn5 O21 2.011557 1_455
Mn5 O14 2.012248 1_555
Mn5 O35 2.024492 1_555
Mn5 O38 2.062251 1_455
Mn5 O19 2.076932 1_455
Mn6 O33 1.971319 1_655
Mn6 O7 2.056830 1_555
Mn6 O3 2.102420 1_555
Mn6 O37 2.127836 1_655
Mn7 O8 1.962229 1_455
Mn7 O38 1.967827 1_455
Mn7 O34 1.996288 1_555
Mn7 O10 2.087099 1_555
Mn7 O4 2.218094 1_455
Mn7 O0 2.241509 1_555
Mn8 O35 1.940501 1_555
Mn8 O5 1.952564 1_455
Mn8 O9 1.978172 1_455
Mn8 O11 2.023311 1_555
Mn8 O39 2.079642 1_455
Mn8 O1 2.100447 1_555
Mn9 O31 1.933360 1_545
Mn9 O7 1.935107 1_555
Mn9 O27 2.009789 1_555
Mn9 O11 2.030536 1_545
Mn9 O5 2.047362 1_545
Mn10 O0 1.968722 1_555
Mn10 O8 2.028478 1_555
Mn10 O28 2.079193 1_555
Mn10 O2 2.121769 1_555
Mn11 O3 2.021273 1_555
Mn11 O1 2.023315 1_555
Mn11 O9 2.052954 1_555
Mn11 O29 2.092232 1_555
O2 Ti2 1.879856 1_555
O4 Ti3 1.781859 1_555
O6 Ti2 1.889479 1_555
O6 Ti3 1.984847 1_545
O10 Ti3 1.900391 1_555
O13 Ti1 1.852561 1_554
O15 Ti0 1.794181 1_555
O16 Ti1 1.824814 1_654
O16 Ti0 2.573180 1_544
O20 Ti0 1.883714 1_554
O23 Ti1 1.836861 1_555
O23 Ti0 2.260467 1_545
O26 Ti3 1.827871 1_555
O27 Ti0 1.883217 1_545
O30 Ti0 1.995591 1_544
O30 Ti3 2.175935 1_545
O32 Ti2 1.794983 1_455
O36 Ti2 1.806730 1_455
O37 Ti1 1.849913 1_555
