# generated using pymatgen
data_Sm(Al5Ru)2
_symmetry_space_group_name_H-M   'P 1'
_cell_length_a   6.82866347
_cell_length_b   6.82866347
_cell_length_c   9.11136844
_cell_angle_alpha   90.00000000
_cell_angle_beta   90.00000000
_cell_angle_gamma   97.03622896
_symmetry_Int_Tables_number   1
_chemical_formula_structural   Sm(Al5Ru)2
_chemical_formula_sum   'Sm2 Al20 Ru4'
_cell_volume   421.66925214
_cell_formula_units_Z   2
loop_
 _symmetry_equiv_pos_site_id
 _symmetry_equiv_pos_as_xyz
  1  'x, y, z'
loop_
 _atom_site_type_symbol
 _atom_site_label
 _atom_site_symmetry_multiplicity
 _atom_site_fract_x
 _atom_site_fract_y
 _atom_site_fract_z
 _atom_site_occupancy
  Sm  Sm0  1  0.87504020  0.12495980  0.75000000  1
  Sm  Sm1  1  0.12495980  0.87504020  0.25000000  1
  Al  Al0  1  0.62314257  0.37685743  0.55019670  1
  Al  Al1  1  0.37685743  0.62314257  0.44980330  1
  Al  Al2  1  0.37685743  0.62314257  0.05019670  1
  Al  Al3  1  0.62314257  0.37685743  0.94980330  1
  Al  Al4  1  0.22796218  0.22796218  0.50000000  1
  Al  Al5  1  0.77203782  0.77203782  0.50000000  1
  Al  Al6  1  0.77203782  0.77203782  -0.00000000  1
  Al  Al7  1  0.22796218  0.22796218  -0.00000000  1
  Al  Al8  1  0.84018000  0.15982000  0.10108410  1
  Al  Al9  1  0.15982000  0.84018000  0.89891590  1
  Al  Al10  1  0.15982000  0.84018000  0.60108410  1
  Al  Al11  1  0.84018000  0.15982000  0.39891590  1
  Al  Al12  1  0.86060598  0.59027063  0.75000000  1
  Al  Al13  1  0.13939402  0.40972937  0.25000000  1
  Al  Al14  1  0.40972937  0.13939402  0.75000000  1
  Al  Al15  1  0.59027063  0.86060598  0.25000000  1
  Al  Al16  1  0.21968699  0.48164025  0.75000000  1
  Al  Al17  1  0.78031301  0.51835975  0.25000000  1
  Al  Al18  1  0.51835975  0.78031301  0.75000000  1
  Al  Al19  1  0.48164025  0.21968699  0.25000000  1
  Ru  Ru0  1  -0.00000000  0.50000000  0.50000000  1
  Ru  Ru1  1  -0.00000000  0.50000000  -0.00000000  1
  Ru  Ru2  1  0.50000000  0.00000000  -0.00000000  1
  Ru  Ru3  1  0.50000000  0.00000000  0.50000000  1
loop_
_geom_bond_atom_site_label_1
_geom_bond_atom_site_label_2
_geom_bond_distance
_geom_bond_site_symmetry_2
Al0 Ru3 2.647391 1_555
Al0 Ru0 2.647391 1_655
Al0 Sm0 3.155424 1_555
Al1 Ru0 2.647391 1_555
Al1 Ru3 2.647391 1_565
Al1 Sm1 3.155424 1_555
Al2 Ru1 2.647391 1_555
Al2 Ru2 2.647391 1_565
Al2 Sm1 3.155424 1_555
Al3 Ru2 2.647391 1_556
Al3 Ru1 2.647391 1_656
Al3 Sm0 3.155424 1_555
Al4 Ru3 2.565656 1_555
Al4 Ru0 2.565656 1_555
Al4 Sm0 3.328067 1_455
Al4 Sm1 3.328067 1_545
Al5 Ru3 2.565656 1_565
Al5 Ru0 2.565656 1_655
Al5 Sm1 3.328067 1_655
Al5 Sm0 3.328067 1_565
Al6 Ru2 2.565656 1_565
Al6 Ru1 2.565656 1_655
Al6 Sm1 3.328067 1_655
Al6 Sm0 3.328067 1_564
Al7 Ru2 2.565656 1_555
Al7 Ru1 2.565656 1_555
Al7 Sm0 3.328067 1_454
Al7 Sm1 3.328067 1_545
Al8 Ru1 2.610447 1_655
Al8 Ru2 2.610447 1_555
Al8 Sm1 3.214176 1_645
Al8 Sm0 3.218680 1_554
Al9 Ru1 2.610447 1_556
Al9 Ru2 2.610447 1_566
Al9 Sm0 3.214176 1_465
Al9 Sm1 3.218680 1_556
Al10 Ru0 2.610447 1_555
Al10 Ru3 2.610447 1_565
Al10 Sm0 3.214176 1_465
Al10 Sm1 3.218680 1_555
Al11 Ru0 2.610447 1_655
Al11 Ru3 2.610447 1_555
Al11 Sm1 3.214176 1_645
Al11 Sm0 3.218680 1_555
Al12 Ru0 2.572619 1_655
Al12 Ru1 2.572619 1_656
Al12 Sm0 3.191025 1_555
Al12 Sm0 3.640453 1_565
Al13 Ru0 2.572619 1_555
Al13 Ru1 2.572619 1_555
Al13 Sm1 3.191025 1_555
Al13 Sm1 3.640453 1_545
Al14 Ru3 2.572619 1_555
Al14 Ru2 2.572619 1_556
Al14 Sm0 3.191025 1_555
Al14 Sm0 3.640453 1_455
Al15 Ru3 2.572619 1_565
Al15 Ru2 2.572619 1_565
Al15 Sm1 3.191025 1_555
Al15 Sm1 3.640453 1_655
Al16 Ru0 2.738771 1_555
Al16 Ru1 2.738771 1_556
Al16 Sm0 3.172835 1_455
Al17 Ru1 2.738771 1_655
Al17 Ru0 2.738771 1_655
Al17 Sm1 3.172835 1_655
Al18 Ru2 2.738771 1_566
Al18 Ru3 2.738771 1_565
Al18 Sm0 3.172835 1_565
Al19 Ru2 2.738771 1_555
Al19 Ru3 2.738771 1_555
Al19 Sm1 3.172835 1_545
Ru0 Sm0 3.455451 1_455
Ru0 Sm1 3.455451 1_555
Ru1 Sm0 3.455451 1_454
Ru1 Sm1 3.455451 1_555
Ru2 Sm1 3.455451 1_545
Ru2 Sm0 3.455451 1_554
Ru3 Sm1 3.455451 1_545
Ru3 Sm0 3.455451 1_555
