# generated using pymatgen
data_SrCaFe(PO4)2
_symmetry_space_group_name_H-M   'P 1'
_cell_length_a   5.73033883
_cell_length_b   6.96447559
_cell_length_c   9.57771920
_cell_angle_alpha   109.34407905
_cell_angle_beta   101.49958385
_cell_angle_gamma   98.28271299
_symmetry_Int_Tables_number   1
_chemical_formula_structural   SrCaFe(PO4)2
_chemical_formula_sum   'Sr2 Ca2 Fe2 P4 O16'
_cell_volume   344.17237732
_cell_formula_units_Z   2
loop_
 _symmetry_equiv_pos_site_id
 _symmetry_equiv_pos_as_xyz
  1  'x, y, z'
loop_
 _atom_site_type_symbol
 _atom_site_label
 _atom_site_symmetry_multiplicity
 _atom_site_fract_x
 _atom_site_fract_y
 _atom_site_fract_z
 _atom_site_occupancy
  Sr  Sr0  1  0.26920700  0.80819900  0.05995100  1
  Sr  Sr1  1  0.73079300  0.19180100  0.94004900  1
  Ca  Ca0  1  0.00935400  0.41917700  0.66277300  1
  Ca  Ca1  1  0.99064600  0.58082300  0.33722700  1
  Fe  Fe0  1  0.63399200  0.84689600  0.55734700  1
  Fe  Fe1  1  0.36600800  0.15310400  0.44265300  1
  P  P0  1  0.38625100  0.41484300  0.22282200  1
  P  P1  1  0.61374900  0.58515700  0.77717800  1
  P  P2  1  0.84209600  0.03397700  0.29817500  1
  P  P3  1  0.15790400  0.96602300  0.70182500  1
  O  O0  1  0.84948900  0.56150700  0.87842700  1
  O  O1  1  0.61228100  0.45346700  0.16277800  1
  O  O2  1  0.65261500  0.80172600  0.76369200  1
  O  O3  1  0.95594100  0.09635300  0.68992100  1
  O  O4  1  0.38771900  0.54653300  0.83722200  1
  O  O5  1  0.02338000  0.73370400  0.59776600  1
  O  O6  1  0.97662000  0.26629600  0.40223400  1
  O  O7  1  0.26295900  0.99792200  0.87018300  1
  O  O8  1  0.34738500  0.19827400  0.23630800  1
  O  O9  1  0.73704100  0.00207800  0.12981700  1
  O  O10  1  0.15051100  0.43849300  0.12157300  1
  O  O11  1  0.41851800  0.58614700  0.38544400  1
  O  O12  1  0.58148200  0.41385300  0.61455600  1
  O  O13  1  0.63396100  0.96225900  0.36702900  1
  O  O14  1  0.04405900  0.90364700  0.31007900  1
  O  O15  1  0.36603900  0.03774100  0.63297100  1
loop_
_geom_bond_atom_site_label_1
_geom_bond_atom_site_label_2
_geom_bond_distance
_geom_bond_site_symmetry_2
Ca0 O4 2.301960 1_555
Ca0 O6 2.321937 1_455
Ca0 O3 2.331714 1_455
Ca0 O12 2.395248 1_455
Ca0 O0 2.397429 1_455
Ca0 O5 2.462768 1_555
Ca1 O1 2.301960 1_555
Ca1 O5 2.321937 1_655
Ca1 O14 2.331714 1_655
Ca1 O11 2.395248 1_655
Ca1 O10 2.397429 1_655
Ca1 O6 2.462768 1_555
Fe0 O11 2.023802 1_555
Fe0 O2 2.086535 1_555
Fe0 O3 2.171470 1_565
Fe0 O13 2.222228 1_555
Fe0 O15 2.245556 1_565
Fe0 O5 2.472789 1_655
Fe1 O12 2.023802 1_555
Fe1 O8 2.086535 1_555
Fe1 O14 2.171470 1_545
Fe1 O15 2.222228 1_555
Fe1 O13 2.245556 1_545
Fe1 O6 2.472789 1_455
O0 P1 1.562039 1_555
O0 Sr0 2.631055 1_656
O0 Sr1 2.846546 1_555
O1 P0 1.542658 1_555
O1 Sr1 2.586831 1_554
O2 P1 1.544336 1_555
O2 Sr1 2.596485 1_565
O3 P3 1.579515 1_645
O3 Sr1 2.875774 1_555
O4 P1 1.542658 1_555
O4 Sr0 2.586831 1_556
O5 P3 1.572079 1_555
O6 P2 1.572079 1_555
O7 P3 1.532635 1_555
O7 Sr0 2.574745 1_556
O7 Sr1 2.664798 1_565
O8 P0 1.544336 1_555
O8 Sr0 2.596485 1_545
O9 P2 1.532635 1_555
O9 Sr1 2.574745 1_554
O9 Sr0 2.664798 1_545
O10 P0 1.562039 1_555
O10 Sr1 2.631055 1_454
O10 Sr0 2.846546 1_555
O11 P0 1.572919 1_555
O12 P1 1.572919 1_555
O13 P2 1.570685 1_565
O13 Sr0 2.997051 1_555
O14 P2 1.579515 1_465
O14 Sr0 2.875774 1_555
O15 P3 1.570685 1_545
O15 Sr1 2.997051 1_555
