# generated using pymatgen
data_KMg6Ti
_symmetry_space_group_name_H-M   'P 1'
_cell_length_a   6.56214277
_cell_length_b   6.56214277
_cell_length_c   5.26253900
_cell_angle_alpha   90.00000000
_cell_angle_beta   90.00000000
_cell_angle_gamma   118.12993914
_symmetry_Int_Tables_number   1
_chemical_formula_structural   KMg6Ti
_chemical_formula_sum   'K1 Mg6 Ti1'
_cell_volume   199.84646842
_cell_formula_units_Z   1
loop_
 _symmetry_equiv_pos_site_id
 _symmetry_equiv_pos_as_xyz
  1  'x, y, z'
loop_
 _atom_site_type_symbol
 _atom_site_label
 _atom_site_symmetry_multiplicity
 _atom_site_fract_x
 _atom_site_fract_y
 _atom_site_fract_z
 _atom_site_occupancy
  K  K0  1  0.15447400  0.84552600  0.00000000  1
  Mg  Mg0  1  0.82057900  0.65536100  0.50000000  1
  Mg  Mg1  1  0.34463900  0.17942100  0.50000000  1
  Mg  Mg2  1  0.83944600  0.16055400  0.50000000  1
  Mg  Mg3  1  0.63747500  0.81904600  0.00000000  1
  Mg  Mg4  1  0.18095400  0.36252500  0.00000000  1
  Mg  Mg5  1  0.66690800  0.33309200  0.00000000  1
  Ti  Ti0  1  0.35552400  0.64447600  0.50000000  1
loop_
_geom_bond_atom_site_label_1
_geom_bond_atom_site_label_2
_geom_bond_distance
_geom_bond_site_symmetry_2
K0 Mg3 3.255056 1_555
K0 Mg4 3.255056 1_555
K0 Mg1 3.271601 1_565
K0 Mg1 3.271601 1_564
K0 Mg0 3.271601 1_455
K0 Mg0 3.271601 1_454
K0 Mg4 3.314240 1_565
K0 Mg3 3.314240 1_455
K0 Mg5 3.376276 1_565
K0 Mg5 3.376276 1_455
K0 Ti0 3.470746 1_555
K0 Ti0 3.470746 1_554
Mg0 Ti0 3.018738 1_555
Mg0 Mg5 3.225191 1_556
Mg0 Mg5 3.225191 1_555
Mg0 Mg2 3.258606 1_565
Mg0 Mg3 3.276895 1_555
Mg0 Mg3 3.276895 1_556
Mg0 Mg2 3.307169 1_555
Mg0 Ti0 3.544622 1_655
Mg1 Ti0 3.018738 1_555
Mg1 Mg5 3.225191 1_556
Mg1 Mg5 3.225191 1_555
Mg1 Mg2 3.258606 1_455
Mg1 Mg4 3.276895 1_556
Mg1 Mg4 3.276895 1_555
Mg1 Mg2 3.307169 1_555
Mg1 Ti0 3.544622 1_545
Mg2 Mg5 3.270504 1_555
Mg2 Mg5 3.270504 1_556
Mg2 Mg3 3.301764 1_545
Mg2 Mg3 3.301764 1_546
Mg2 Mg4 3.301764 1_655
Mg2 Mg4 3.301764 1_656
Mg2 Ti0 3.378225 1_545
Mg2 Ti0 3.378225 1_655
Mg3 Mg4 3.080031 1_555
Mg3 Ti0 3.108141 1_554
Mg3 Ti0 3.108141 1_555
Mg3 Mg5 3.284381 1_555
Mg3 Mg5 3.286598 1_565
Mg4 Ti0 3.108141 1_554
Mg4 Ti0 3.108141 1_555
Mg4 Mg5 3.284381 1_555
Mg4 Mg5 3.286598 1_455
