# generated using pymatgen
data_Sr2TaInO6
_symmetry_space_group_name_H-M   'P 1'
_cell_length_a   5.82899646
_cell_length_b   5.82899646
_cell_length_c   5.82899646
_cell_angle_alpha   120.81181073
_cell_angle_beta   120.81181073
_cell_angle_gamma   88.59956127
_symmetry_Int_Tables_number   1
_chemical_formula_structural   Sr2TaInO6
_chemical_formula_sum   'Sr2 Ta1 In1 O6'
_cell_volume   138.28136732
_cell_formula_units_Z   1
loop_
 _symmetry_equiv_pos_site_id
 _symmetry_equiv_pos_as_xyz
  1  'x, y, z'
loop_
 _atom_site_type_symbol
 _atom_site_label
 _atom_site_symmetry_multiplicity
 _atom_site_fract_x
 _atom_site_fract_y
 _atom_site_fract_z
 _atom_site_occupancy
  Sr  Sr0  1  0.75000000  0.25000000  0.50000000  1
  Sr  Sr1  1  0.25000000  0.75000000  0.50000000  1
  Ta  Ta0  1  0.50000000  0.50000000  0.00000000  1
  In  In0  1  0.00000000  0.00000000  0.00000000  1
  O  O0  1  0.26002500  0.26002500  0.00000000  1
  O  O1  1  0.73997500  0.73997500  0.00000000  1
  O  O2  1  0.31933200  0.79698900  0.11632100  1
  O  O3  1  0.68066800  0.20301100  0.88367900  1
  O  O4  1  0.79698900  0.68066800  0.47765700  1
  O  O5  1  0.20301100  0.31933200  0.52234300  1
loop_
_geom_bond_atom_site_label_1
_geom_bond_atom_site_label_2
_geom_bond_distance
_geom_bond_site_symmetry_2
In0 O0 2.169537 1_555
In0 O1 2.169537 1_445
In0 O5 2.178571 1_555
In0 O4 2.178571 1_444
In0 O2 2.178571 1_545
In0 O3 2.178571 1_454
O0 Ta0 2.002249 1_555
O0 Sr1 2.879878 1_544
O0 Sr0 2.879878 1_454
O0 Sr0 2.879878 1_555
O0 Sr1 2.879878 1_555
O1 Ta0 2.002249 1_555
O1 Sr0 2.879878 1_554
O1 Sr1 2.879878 1_554
O1 Sr1 2.879878 1_655
O1 Sr0 2.879878 1_565
O2 Ta0 2.001393 1_555
O2 Sr1 2.607487 1_555
O2 Sr0 2.607487 1_565
O3 Ta0 2.001393 1_556
O3 Sr1 2.607487 1_545
O3 Sr0 2.607487 1_555
O4 Ta0 2.001393 1_555
O4 Sr0 2.607487 1_555
O4 Sr1 2.607487 1_655
O5 Ta0 2.001393 1_556
O5 Sr0 2.607487 1_455
O5 Sr1 2.607487 1_555
