# generated using pymatgen
data_TaCoAs
_symmetry_space_group_name_H-M   'P 1'
_cell_length_a   3.69404072
_cell_length_b   6.27659448
_cell_length_c   7.14647561
_cell_angle_alpha   90.00000000
_cell_angle_beta   90.00000000
_cell_angle_gamma   90.00000000
_symmetry_Int_Tables_number   1
_chemical_formula_structural   TaCoAs
_chemical_formula_sum   'Ta4 Co4 As4'
_cell_volume   165.69815199
_cell_formula_units_Z   4
loop_
 _symmetry_equiv_pos_site_id
 _symmetry_equiv_pos_as_xyz
  1  'x, y, z'
loop_
 _atom_site_type_symbol
 _atom_site_label
 _atom_site_symmetry_multiplicity
 _atom_site_fract_x
 _atom_site_fract_y
 _atom_site_fract_z
 _atom_site_occupancy
  Ta  Ta0  1  0.25000000  0.52020677  0.16869108  1
  Ta  Ta1  1  0.75000000  0.47979323  0.83130892  1
  Ta  Ta2  1  0.75000000  0.97979323  0.66869108  1
  Ta  Ta3  1  0.25000000  0.02020677  0.33130892  1
  Co  Co0  1  0.25000000  0.64743836  0.56770310  1
  Co  Co1  1  0.75000000  0.35256164  0.43229690  1
  Co  Co2  1  0.75000000  0.85256164  0.06770310  1
  Co  Co3  1  0.25000000  0.14743836  0.93229690  1
  As  As0  1  0.25000000  0.78114822  0.87803669  1
  As  As1  1  0.75000000  0.21885178  0.12196331  1
  As  As2  1  0.75000000  0.71885178  0.37803669  1
  As  As3  1  0.25000000  0.28114822  0.62196331  1
loop_
_geom_bond_atom_site_label_1
_geom_bond_atom_site_label_2
_geom_bond_distance
_geom_bond_site_symmetry_2
As0 Co3 2.331527 1_565
As0 Co2 2.334445 1_456
As0 Co2 2.334445 1_556
As0 Co0 2.371271 1_555
As0 Ta0 2.645191 1_556
As0 Ta1 2.664715 1_555
As0 Ta1 2.664715 1_455
As0 Ta2 2.684082 1_455
As0 Ta2 2.684082 1_555
As1 Co2 2.331527 1_545
As1 Co3 2.334445 1_554
As1 Co3 2.334445 1_654
As1 Co1 2.371271 1_555
As1 Ta1 2.645191 1_554
As1 Ta0 2.664715 1_555
As1 Ta0 2.664715 1_655
As1 Ta3 2.684082 1_555
As1 Ta3 2.684082 1_655
As2 Co1 2.331527 1_555
As2 Co0 2.334445 1_555
As2 Co0 2.334445 1_655
As2 Co2 2.371271 1_555
As2 Ta2 2.645191 1_555
As2 Ta3 2.664715 1_665
As2 Ta3 2.664715 1_565
As2 Ta0 2.684082 1_555
As2 Ta0 2.684082 1_655
As3 Co0 2.331527 1_555
As3 Co1 2.334445 1_455
As3 Co1 2.334445 1_555
As3 Co3 2.371271 1_555
As3 Ta3 2.645191 1_555
As3 Ta2 2.664715 1_445
As3 Ta2 2.664715 1_545
As3 Ta1 2.684082 1_455
As3 Ta1 2.684082 1_555
