# generated using pymatgen
data_K2Na4Fe2O5
_symmetry_space_group_name_H-M   'P 1'
_cell_length_a   6.48647200
_cell_length_b   6.48647300
_cell_length_c   10.54203400
_cell_angle_alpha   90.00001427
_cell_angle_beta   89.99996603
_cell_angle_gamma   89.99996467
_symmetry_Int_Tables_number   1
_chemical_formula_structural   K2Na4Fe2O5
_chemical_formula_sum   'K4 Na8 Fe4 O10'
_cell_volume   443.54896988
_cell_formula_units_Z   2
loop_
 _symmetry_equiv_pos_site_id
 _symmetry_equiv_pos_as_xyz
  1  'x, y, z'
loop_
 _atom_site_type_symbol
 _atom_site_label
 _atom_site_symmetry_multiplicity
 _atom_site_fract_x
 _atom_site_fract_y
 _atom_site_fract_z
 _atom_site_occupancy
  K  K0  1  0.31125700  0.68874300  0.99999900  1
  K  K1  1  0.68874800  0.31125000  0.00000000  1
  K  K2  1  0.81124900  0.81125200  0.50000100  1
  K  K3  1  0.18874500  0.18874700  0.50000000  1
  Na  Na0  1  0.00000400  0.99999600  0.22392500  1
  Na  Na1  1  0.00000400  0.99999500  0.77607600  1
  Na  Na2  1  0.49999800  0.49999600  0.72392500  1
  Na  Na3  1  0.49999700  0.49999600  0.27607500  1
  Na  Na4  1  0.00000300  0.49999900  0.25000000  1
  Na  Na5  1  0.00000300  0.49999800  0.75000000  1
  Na  Na6  1  0.49999700  0.99999900  0.25000000  1
  Na  Na7  1  0.49999700  0.99999800  0.75000000  1
  Fe  Fe0  1  0.79224500  0.79223200  0.99999800  1
  Fe  Fe1  1  0.70775100  0.29224200  0.50000000  1
  Fe  Fe2  1  0.20778900  0.20779600  0.00000000  1
  Fe  Fe3  1  0.29220800  0.70779300  0.49999900  1
  O  O0  1  0.00000000  0.00000000  0.00000000  1
  O  O1  1  0.49999800  0.49999700  0.50000000  1
  O  O2  1  0.29105400  0.29105000  0.16260500  1
  O  O3  1  0.70894500  0.70894200  0.83739300  1
  O  O4  1  0.70894500  0.70894300  0.16260800  1
  O  O5  1  0.20894800  0.79105000  0.66260400  1
  O  O6  1  0.20894900  0.79105100  0.33739600  1
  O  O7  1  0.29105400  0.29104900  0.83739500  1
  O  O8  1  0.79105500  0.20894300  0.33739300  1
  O  O9  1  0.79105500  0.20894300  0.66260700  1
loop_
_geom_bond_atom_site_label_1
_geom_bond_atom_site_label_2
_geom_bond_distance
_geom_bond_site_symmetry_2
K0 O0 2.855240 1_566
K0 O3 3.099989 1_555
K0 O4 3.100008 1_556
K0 O7 3.100012 1_555
K0 O2 3.100019 1_556
K1 O0 2.855185 1_655
K1 O2 3.100016 1_555
K1 O3 3.100017 1_554
K1 O7 3.100018 1_554
K1 O4 3.100028 1_555
K2 O1 2.855205 1_555
K2 O9 3.100004 1_565
K2 O8 3.100017 1_565
K2 O5 3.100033 1_655
K2 O6 3.100048 1_655
K3 O1 2.855191 1_555
K3 O9 3.100005 1_455
K3 O8 3.100006 1_455
K3 O6 3.100022 1_545
K3 O5 3.100028 1_545
Na0 O6 2.259357 1_555
Na0 O8 2.259362 1_465
Na0 O0 2.360625 1_565
Na0 O2 2.747039 1_565
Na0 O4 2.747068 1_455
Na1 O5 2.259357 1_555
Na1 O9 2.259373 1_465
Na1 O0 2.360614 1_566
Na1 O7 2.747037 1_565
Na1 O3 2.747067 1_455
Na2 O3 2.259353 1_555
Na2 O7 2.259355 1_555
Na2 O1 2.360625 1_555
Na2 O5 2.747041 1_555
Na2 O9 2.747059 1_555
Na3 O2 2.259348 1_555
Na3 O4 2.259354 1_555
Na3 O1 2.360625 1_555
Na3 O6 2.747035 1_555
Na3 O8 2.747064 1_555
Na4 O2 2.499985 1_555
Na4 O6 2.499985 1_555
Na4 O4 2.499991 1_455
Na4 O8 2.500000 1_455
Na5 O5 2.499981 1_555
Na5 O7 2.499986 1_555
Na5 O3 2.499994 1_455
Na5 O9 2.499995 1_455
Na6 O2 2.499965 1_565
Na6 O6 2.499972 1_555
Na6 O4 2.499994 1_555
Na6 O8 2.499996 1_565
Na7 O7 2.499964 1_565
Na7 O5 2.499977 1_555
Na7 O9 2.499999 1_565
Na7 O3 2.499999 1_555
Fe0 O3 1.876771 1_555
Fe0 O4 1.876816 1_556
Fe0 O0 1.905850 1_666
Fe1 O8 1.876813 1_555
Fe1 O9 1.876814 1_555
Fe1 O1 1.905780 1_555
Fe2 O7 1.876636 1_554
Fe2 O2 1.876638 1_555
Fe2 O0 1.906135 1_555
Fe3 O6 1.876615 1_555
Fe3 O5 1.876633 1_555
Fe3 O1 1.906138 1_555
