# generated using pymatgen
data_Na3Pb2S3ClO12
_symmetry_space_group_name_H-M   'P 1'
_cell_length_a   7.14330100
_cell_length_b   10.01665355
_cell_length_c   17.37997986
_cell_angle_alpha   90.17984548
_cell_angle_beta   90.00000000
_cell_angle_gamma   90.00000000
_symmetry_Int_Tables_number   1
_chemical_formula_structural   Na3Pb2S3ClO12
_chemical_formula_sum   'Na12 Pb8 S12 Cl4 O48'
_cell_volume   1243.56569428
_cell_formula_units_Z   4
loop_
 _symmetry_equiv_pos_site_id
 _symmetry_equiv_pos_as_xyz
  1  'x, y, z'
loop_
 _atom_site_type_symbol
 _atom_site_label
 _atom_site_symmetry_multiplicity
 _atom_site_fract_x
 _atom_site_fract_y
 _atom_site_fract_z
 _atom_site_occupancy
  Na  Na0  1  0.74729200  0.73275700  0.00458100  1
  Na  Na1  1  0.24729200  0.26724300  0.99541900  1
  Na  Na2  1  0.75234000  0.63944200  0.63048200  1
  Na  Na3  1  0.25234000  0.36055800  0.36951800  1
  Na  Na4  1  0.50588600  0.50668900  0.83876900  1
  Na  Na5  1  0.00588600  0.49331100  0.16123100  1
  Na  Na6  1  0.49280400  0.49880600  0.16461200  1
  Na  Na7  1  0.99280400  0.50119400  0.83538800  1
  Na  Na8  1  0.49395900  0.99665100  0.66719000  1
  Na  Na9  1  0.99395900  0.00334900  0.33281000  1
  Na  Na10  1  0.50584800  0.00298200  0.33492200  1
  Na  Na11  1  0.00584800  0.99701800  0.66507800  1
  Pb  Pb0  1  0.75436800  0.12957600  0.11934700  1
  Pb  Pb1  1  0.25436800  0.87042400  0.88065300  1
  Pb  Pb2  1  0.74914200  0.61711600  0.37365900  1
  Pb  Pb3  1  0.24914200  0.38288400  0.62634100  1
  Pb  Pb4  1  0.74844800  0.24913100  0.49937900  1
  Pb  Pb5  1  0.24844800  0.75086900  0.50062100  1
  Pb  Pb6  1  0.74888800  0.12460200  0.87455900  1
  Pb  Pb7  1  0.24888800  0.87539800  0.12544100  1
  S  S0  1  0.74964600  0.27853900  0.68949000  1
  S  S1  1  0.24964600  0.72146100  0.31051000  1
  S  S2  1  0.75134200  0.83000200  0.79377800  1
  S  S3  1  0.25134200  0.16999800  0.20622200  1
  S  S4  1  0.75204500  0.32614900  0.29620300  1
  S  S5  1  0.25204500  0.67385100  0.70379700  1
  S  S6  1  0.74911800  0.77530600  0.19371900  1
  S  S7  1  0.24911800  0.22469400  0.80628100  1
  S  S8  1  0.75131100  0.89741700  0.51870000  1
  S  S9  1  0.25131100  0.10258300  0.48130000  1
  S  S10  1  0.74608400  0.39382300  0.01805800  1
  S  S11  1  0.24608400  0.60617700  0.98194200  1
  Cl  Cl0  1  0.52179200  0.98557800  0.00014000  1
  Cl  Cl1  1  0.02179200  0.01442200  0.99986000  1
  Cl  Cl2  1  0.48140900  0.49352500  0.49355900  1
  Cl  Cl3  1  0.98140900  0.50647500  0.50644100  1
  O  O0  1  0.90952700  0.78784100  0.13910700  1
  O  O1  1  0.40952700  0.21215900  0.86089300  1
  O  O2  1  0.07341600  0.22588400  0.85252400  1
  O  O3  1  0.57341600  0.77411600  0.14747600  1
  O  O4  1  0.91808100  0.40183000  0.32638800  1
  O  O5  1  0.41808100  0.59817000  0.67361200  1
  O  O6  1  0.08088300  0.59740100  0.68019700  1
  O  O7  1  0.58088300  0.40259900  0.31980300  1
  O  O8  1  0.92416100  0.82772000  0.54534600  1
  O  O9  1  0.42416100  0.17228000  0.45465400  1
  O  O10  1  0.08693100  0.18481800  0.45752700  1
  O  O11  1  0.58693100  0.81518200  0.54247300  1
  O  O12  1  0.92057100  0.27385200  0.63917600  1
  O  O13  1  0.42057100  0.72614800  0.36082400  1
  O  O14  1  0.08584100  0.71603300  0.36502700  1
  O  O15  1  0.58584100  0.28396700  0.63497300  1
  O  O16  1  0.74809200  0.41444200  0.93343400  1
  O  O17  1  0.24809200  0.58555800  0.06656600  1
  O  O18  1  0.76441100  0.64091600  0.23276800  1
  O  O19  1  0.26441100  0.35908400  0.76723200  1
  O  O20  1  0.75676400  0.82688200  0.70875100  1
  O  O21  1  0.25676400  0.17311800  0.29124900  1
  O  O22  1  0.74933700  0.69545600  0.82808900  1
  O  O23  1  0.24933700  0.30454400  0.17191100  1
  O  O24  1  0.91729600  0.91006400  0.82261600  1
  O  O25  1  0.41729600  0.08993600  0.17738400  1
  O  O26  1  0.08157000  0.08982200  0.18172800  1
  O  O27  1  0.58157000  0.91017800  0.81827200  1
  O  O28  1  0.73912200  0.14867400  0.73211700  1
  O  O29  1  0.23912200  0.85132600  0.26788300  1
  O  O30  1  0.74915100  0.18843300  0.32727300  1
  O  O31  1  0.24915100  0.81156700  0.67272700  1
  O  O32  1  0.74941500  0.88409700  0.25163000  1
  O  O33  1  0.24941500  0.11590300  0.74837000  1
  O  O34  1  0.76099500  0.32447000  0.20974200  1
  O  O35  1  0.26099500  0.67553000  0.79025800  1
  O  O36  1  0.75147900  0.39357000  0.74240500  1
  O  O37  1  0.25147900  0.60643000  0.25759500  1
  O  O38  1  0.91738200  0.31734100  0.04338100  1
  O  O39  1  0.41738200  0.68265900  0.95661900  1
  O  O40  1  0.08007900  0.69053600  0.95907900  1
  O  O41  1  0.58007900  0.30946400  0.04092100  1
  O  O42  1  0.74104300  0.02883800  0.56173800  1
  O  O43  1  0.24104300  0.97116200  0.43826200  1
  O  O44  1  0.73957300  0.52229400  0.06067900  1
  O  O45  1  0.23957300  0.47770600  0.93932100  1
  O  O46  1  0.75316300  0.91985200  0.43445000  1
  O  O47  1  0.25316300  0.08014800  0.56555000  1
loop_
_geom_bond_atom_site_label_1
_geom_bond_atom_site_label_2
_geom_bond_distance
_geom_bond_site_symmetry_2
Na0 O44 2.326105 1_555
Na0 O40 2.540320 1_654
Na0 O39 2.549084 1_554
Na0 O0 2.665688 1_555
Na0 O3 2.806365 1_555
Na1 O45 2.326105 1_555
Na1 O41 2.540320 1_556
Na1 O38 2.549084 1_456
Na1 O1 2.665688 1_555
Na1 O2 2.806365 1_555
Na2 O20 2.315277 1_555
Na2 O6 2.536542 1_655
Na2 O5 2.536912 1_555
Na2 O11 2.617520 1_555
Na2 O8 2.696299 1_555
Na3 O21 2.315277 1_555
Na3 O7 2.536542 1_555
Na3 O4 2.536912 1_455
Na3 O10 2.617520 1_555
Na3 O9 2.696299 1_555
Na4 O16 2.561969 1_555
Na4 O22 2.576064 1_555
Na4 O35 2.576857 1_555
Na4 O19 2.587595 1_555
Na4 O45 2.600095 1_555
Na4 O36 2.674816 1_555
Na4 O39 2.771126 1_555
Na5 O17 2.561969 1_555
Na5 O23 2.576064 1_555
Na5 O34 2.576857 1_455
Na5 O18 2.587595 1_455
Na5 O44 2.600095 1_455
Na5 O37 2.674816 1_555
Na5 O38 2.771126 1_455
Na6 O44 2.535390 1_555
Na6 O17 2.593034 1_555
Na6 O37 2.595090 1_555
Na6 O23 2.613171 1_555
Na6 O18 2.680129 1_555
Na6 O34 2.709875 1_555
Na6 O3 2.833773 1_555
Na6 O41 2.929415 1_555
Na6 O7 2.935272 1_555
Na7 O45 2.535390 1_655
Na7 O16 2.593034 1_555
Na7 O36 2.595090 1_555
Na7 O22 2.613171 1_555
Na7 O19 2.680129 1_655
Na7 O35 2.709875 1_655
Na7 O2 2.833773 1_655
Na7 O40 2.929415 1_655
Na7 O6 2.935272 1_655
Na8 O33 2.541341 1_565
Na8 O31 2.550586 1_555
Na8 O42 2.565512 1_565
Na8 O28 2.578435 1_565
Na8 O47 2.605373 1_565
Na8 O20 2.635425 1_555
Na8 O27 2.837434 1_555
Na8 O11 2.901518 1_555
Na8 O15 3.006158 1_565
Na9 O32 2.541341 1_545
Na9 O30 2.550586 1_555
Na9 O43 2.565512 1_645
Na9 O29 2.578435 1_645
Na9 O46 2.605373 1_545
Na9 O21 2.635425 1_655
Na9 O26 2.837434 1_655
Na9 O10 2.901518 1_655
Na9 O14 3.006158 1_645
Na10 O30 2.547644 1_555
Na10 O32 2.555385 1_545
Na10 O21 2.579608 1_555
Na10 O46 2.610676 1_545
Na10 O43 2.628507 1_545
Na10 O29 2.698932 1_545
Na10 O9 2.743061 1_555
Na10 O13 2.875904 1_545
Na10 O25 2.944554 1_555
Na11 O31 2.547644 1_555
Na11 O33 2.555385 1_565
Na11 O20 2.579608 1_455
Na11 O47 2.610676 1_565
Na11 O42 2.628507 1_465
Na11 O28 2.698932 1_465
Na11 O8 2.743061 1_455
Na11 O12 2.875904 1_465
Na11 O24 2.944554 1_455
Cl0 Na0 3.002509 1_555
Cl0 Pb0 3.018978 1_565
Cl0 Pb1 3.045857 1_554
Cl0 Pb6 3.058365 1_564
Cl0 Pb7 3.126643 1_555
Cl0 Na1 3.437008 1_564
Cl1 Na1 3.002509 1_555
Cl1 Pb1 3.018978 1_545
Cl1 Pb0 3.045857 1_456
Cl1 Pb7 3.058365 1_546
Cl1 Pb6 3.126643 1_455
Cl1 Na0 3.437008 1_446
Cl2 Na3 3.013470 1_555
Cl2 Pb3 3.053321 1_555
Cl2 Pb5 3.070344 1_555
Cl2 Pb2 3.090126 1_555
Cl2 Pb4 3.105358 1_555
Cl2 Na2 3.394562 1_555
Cl3 Na2 3.013470 1_555
Cl3 Pb2 3.053321 1_555
Cl3 Pb4 3.070344 1_555
Cl3 Pb3 3.090126 1_655
Cl3 Pb5 3.105358 1_655
Cl3 Na3 3.394562 1_655
O0 S6 1.493446 1_555
O0 Pb7 2.589100 1_655
O1 S7 1.493446 1_555
O1 Pb6 2.589100 1_555
O2 S7 1.490395 1_555
O2 Pb6 2.559762 1_455
O3 S6 1.490395 1_555
O3 Pb7 2.559762 1_555
O4 S4 1.501365 1_555
O4 Pb2 2.602006 1_555
O5 S5 1.501365 1_555
O5 Pb3 2.602006 1_555
O6 S5 1.499192 1_555
O6 Pb3 2.631581 1_555
O7 S4 1.499192 1_555
O7 Pb2 2.631581 1_555
O8 S8 1.492788 1_555
O8 Pb5 2.561079 1_655
O9 S9 1.492788 1_555
O9 Pb4 2.561079 1_555
O10 S9 1.493367 1_555
O10 Pb4 2.605248 1_455
O11 S8 1.493367 1_555
O11 Pb5 2.605248 1_555
O12 S0 1.502460 1_555
O12 Pb3 2.598623 1_655
O12 Pb4 2.733600 1_555
O13 S1 1.502460 1_555
O13 Pb2 2.598623 1_555
O13 Pb5 2.733600 1_555
O14 S1 1.506718 1_555
O14 Pb2 2.605738 1_455
O14 Pb5 2.649426 1_555
O15 S0 1.506718 1_555
O15 Pb3 2.605738 1_555
O15 Pb4 2.649426 1_555
O16 S10 1.485905 1_556
O17 S11 1.485905 1_554
O18 S6 1.513391 1_555
O18 Pb2 2.463421 1_555
O19 S7 1.513391 1_555
O19 Pb3 2.463421 1_555
O20 S2 1.478507 1_555
O21 S3 1.478507 1_555
O22 S2 1.475517 1_555
O23 S3 1.475517 1_555
O24 S2 1.515627 1_555
O24 Pb6 2.620686 1_565
O24 Pb1 2.641050 1_655
O25 S3 1.515627 1_555
O25 Pb7 2.620686 1_545
O25 Pb0 2.641050 1_555
O26 S3 1.514847 1_555
O26 Pb0 2.607624 1_455
O26 Pb7 2.642994 1_545
O27 S2 1.514847 1_555
O27 Pb1 2.607624 1_555
O27 Pb6 2.642994 1_565
O28 S0 1.500894 1_555
O28 Pb6 2.489085 1_555
O29 S1 1.500894 1_555
O29 Pb7 2.489085 1_555
O30 S4 1.483102 1_555
O31 S5 1.483102 1_555
O32 S6 1.481094 1_555
O33 S7 1.481094 1_555
O34 S4 1.504091 1_555
O34 Pb0 2.502450 1_555
O35 S5 1.504091 1_555
O35 Pb1 2.502450 1_555
O36 S0 1.472046 1_555
O37 S1 1.472046 1_555
O38 S10 1.509965 1_555
O38 Pb0 2.579153 1_555
O39 S11 1.509965 1_555
O39 Pb1 2.579153 1_555
O40 S11 1.510032 1_555
O40 Pb1 2.582650 1_555
O41 S10 1.510032 1_555
O41 Pb0 2.582650 1_555
O42 S8 1.513805 1_545
O42 Pb4 2.462013 1_555
O43 S9 1.513805 1_565
O43 Pb5 2.462013 1_555
O44 S10 1.483534 1_555
O45 S11 1.483534 1_555
O46 S8 1.482163 1_555
O47 S9 1.482163 1_555
