# generated using pymatgen
data_Na2Zn3S4
_symmetry_space_group_name_H-M   'P 1'
_cell_length_a   8.72099499
_cell_length_b   8.72099499
_cell_length_c   8.72099499
_cell_angle_alpha   141.08358228
_cell_angle_beta   108.60454627
_cell_angle_gamma   84.42793317
_symmetry_Int_Tables_number   1
_chemical_formula_structural   Na2Zn3S4
_chemical_formula_sum   'Na4 Zn6 S8'
_cell_volume   381.95569662
_cell_formula_units_Z   2
loop_
 _symmetry_equiv_pos_site_id
 _symmetry_equiv_pos_as_xyz
  1  'x, y, z'
loop_
 _atom_site_type_symbol
 _atom_site_label
 _atom_site_symmetry_multiplicity
 _atom_site_fract_x
 _atom_site_fract_y
 _atom_site_fract_z
 _atom_site_occupancy
  Na  Na0  1  0.62594700  0.73984600  0.36579300  1
  Na  Na1  1  0.37405300  0.26015400  0.63420700  1
  Na  Na2  1  0.12594700  0.76015400  0.88610000  1
  Na  Na3  1  0.87405300  0.23984600  0.11390000  1
  Zn  Zn0  1  0.75000000  0.25000000  0.50000000  1
  Zn  Zn1  1  0.25000000  0.75000000  0.50000000  1
  Zn  Zn2  1  0.96740700  0.75000000  0.21740700  1
  Zn  Zn3  1  0.53259300  0.75000000  0.78259300  1
  Zn  Zn4  1  0.03259300  0.25000000  0.78259300  1
  Zn  Zn5  1  0.46740700  0.25000000  0.21740700  1
  S  S0  1  0.00705300  0.86548200  0.59463800  1
  S  S1  1  0.27084400  0.41241500  0.40536200  1
  S  S2  1  0.22915600  0.63451800  0.14157100  1
  S  S3  1  0.49294700  0.08758500  0.85842900  1
  S  S4  1  0.99294700  0.13451800  0.40536200  1
  S  S5  1  0.72915600  0.58758500  0.59463800  1
  S  S6  1  0.77084400  0.36548200  0.85842900  1
  S  S7  1  0.50705300  0.91241500  0.14157100  1
loop_
_geom_bond_atom_site_label_1
_geom_bond_atom_site_label_2
_geom_bond_distance
_geom_bond_site_symmetry_2
Na0 S5 3.049921 1_555
Na0 S0 3.049921 1_655
Na0 S2 3.185364 1_555
Na0 S7 3.185364 1_555
Na0 S3 3.349916 1_565
Na0 S6 3.349916 1_565
Na1 S1 3.049921 1_555
Na1 S4 3.049921 1_455
Na1 S3 3.185364 1_555
Na1 S6 3.185364 1_555
Na1 S2 3.349916 1_545
Na1 S7 3.349916 1_545
Na2 S7 3.049922 1_556
Na2 S2 3.049929 1_556
Na2 S0 3.185356 1_555
Na2 S5 3.185363 1_455
Na2 S1 3.349910 1_555
Na2 S4 3.349917 1_455
Na3 S3 3.049922 1_554
Na3 S6 3.049929 1_554
Na3 S4 3.185356 1_555
Na3 S1 3.185363 1_655
Na3 S5 3.349910 1_555
Na3 S0 3.349917 1_655
S0 Zn4 2.310868 1_565
S0 Zn1 2.364837 1_555
S0 Zn2 2.478471 1_455
S1 Zn5 2.310868 1_555
S1 Zn1 2.364837 1_555
S1 Zn3 2.478471 1_555
S2 Zn4 2.310868 1_554
S2 Zn1 2.364837 1_555
S2 Zn2 2.478471 1_455
S3 Zn5 2.310868 1_556
S3 Zn1 2.364837 1_545
S3 Zn3 2.478471 1_545
S4 Zn2 2.310868 1_545
S4 Zn0 2.364837 1_555
S4 Zn4 2.478471 1_655
S5 Zn3 2.310868 1_555
S5 Zn0 2.364837 1_555
S5 Zn5 2.478471 1_555
S6 Zn2 2.310868 1_556
S6 Zn0 2.364837 1_555
S6 Zn4 2.478471 1_655
S7 Zn3 2.310868 1_554
S7 Zn0 2.364837 1_565
S7 Zn5 2.478471 1_565
