# generated using pymatgen
data_Cu2AgPS4
_symmetry_space_group_name_H-M   'P 1'
_cell_length_a   6.20504700
_cell_length_b   6.32174800
_cell_length_c   7.66154300
_cell_angle_alpha   90.00000000
_cell_angle_beta   90.00000000
_cell_angle_gamma   90.00000000
_symmetry_Int_Tables_number   1
_chemical_formula_structural   Cu2AgPS4
_chemical_formula_sum   'Cu4 Ag2 P2 S8'
_cell_volume   300.53738179
_cell_formula_units_Z   2
loop_
 _symmetry_equiv_pos_site_id
 _symmetry_equiv_pos_as_xyz
  1  'x, y, z'
loop_
 _atom_site_type_symbol
 _atom_site_label
 _atom_site_symmetry_multiplicity
 _atom_site_fract_x
 _atom_site_fract_y
 _atom_site_fract_z
 _atom_site_occupancy
  Cu  Cu0  1  0.00974100  0.18523700  0.75257500  1
  Cu  Cu1  1  0.00974100  0.18523700  0.24742500  1
  Cu  Cu2  1  0.50974100  0.81476300  0.74742500  1
  Cu  Cu3  1  0.50974100  0.81476300  0.25257500  1
  Ag  Ag0  1  0.00461900  0.64720300  0.50000000  1
  Ag  Ag1  1  0.50461900  0.35279700  0.00000000  1
  P  P0  1  0.50059700  0.31254400  0.50000000  1
  P  P1  1  0.00059700  0.68745600  0.00000000  1
  S  S0  1  0.37808200  0.16004000  0.72126100  1
  S  S1  1  0.37808200  0.16004000  0.27873900  1
  S  S2  1  0.87808200  0.83996000  0.77873900  1
  S  S3  1  0.87808200  0.83996000  0.22126100  1
  S  S4  1  0.83654200  0.28028900  0.50000000  1
  S  S5  1  0.33654200  0.71971100  0.00000000  1
  S  S6  1  0.41116600  0.63183400  0.50000000  1
  S  S7  1  0.91116600  0.36816600  0.00000000  1
loop_
_geom_bond_atom_site_label_1
_geom_bond_atom_site_label_2
_geom_bond_distance
_geom_bond_site_symmetry_2
Cu0 S4 2.293630 1_455
Cu0 S7 2.303254 1_456
Cu0 S0 2.303644 1_555
Cu0 S2 2.339232 1_445
Cu1 S4 2.293630 1_455
Cu1 S7 2.303254 1_455
Cu1 S1 2.303644 1_555
Cu1 S3 2.339232 1_445
Cu2 S5 2.293630 1_556
Cu2 S6 2.303254 1_555
Cu2 S2 2.303644 1_555
Cu2 S0 2.339232 1_565
Cu3 S5 2.293630 1_555
Cu3 S6 2.303254 1_555
Cu3 S3 2.303644 1_555
Cu3 S1 2.339232 1_565
Ag0 S6 2.524514 1_555
Ag0 S4 2.543216 1_455
Ag0 S2 2.581093 1_455
Ag0 S3 2.581093 1_455
Ag1 S7 2.524514 1_555
Ag1 S5 2.543216 1_555
Ag1 S1 2.581093 1_555
Ag1 S0 2.581093 1_554
P0 S1 2.093108 1_555
P0 S0 2.093108 1_555
P0 S6 2.093362 1_555
P0 S4 2.094504 1_555
P1 S3 2.093108 1_455
P1 S2 2.093108 1_454
P1 S7 2.093362 1_455
P1 S5 2.094504 1_555
