# generated using pymatgen
data_HfMgN2
_symmetry_space_group_name_H-M   'P 1'
_cell_length_a   6.36655539
_cell_length_b   7.37675005
_cell_length_c   4.40368061
_cell_angle_alpha   90.00000000
_cell_angle_beta   90.00000000
_cell_angle_gamma   90.00000000
_symmetry_Int_Tables_number   1
_chemical_formula_structural   HfMgN2
_chemical_formula_sum   'Hf4 Mg4 N8'
_cell_volume   206.81660425
_cell_formula_units_Z   4
loop_
 _symmetry_equiv_pos_site_id
 _symmetry_equiv_pos_as_xyz
  1  'x, y, z'
loop_
 _atom_site_type_symbol
 _atom_site_label
 _atom_site_symmetry_multiplicity
 _atom_site_fract_x
 _atom_site_fract_y
 _atom_site_fract_z
 _atom_site_occupancy
  Hf  Hf0  1  0.58780106  0.36953665  0.94253148  1
  Hf  Hf1  1  0.41219894  0.63046335  0.44253248  1
  Hf  Hf2  1  0.91219894  0.86953665  0.44253248  1
  Hf  Hf3  1  0.08780106  0.13046335  0.94253148  1
  Mg  Mg0  1  0.57918015  0.88175101  0.94256460  1
  Mg  Mg1  1  0.42081985  0.11824899  0.44256460  1
  Mg  Mg2  1  0.92081985  0.38175101  0.44256460  1
  Mg  Mg3  1  0.07918015  0.61824899  0.94256460  1
  N  N0  1  0.57927328  0.38527568  0.44247420  1
  N  N1  1  0.42072672  0.61472432  0.94247420  1
  N  N2  1  0.92072672  0.88527568  0.94247420  1
  N  N3  1  0.07927328  0.11472432  0.44247420  1
  N  N4  1  0.58466307  0.86758384  0.44242772  1
  N  N5  1  0.41533693  0.13241616  0.94242772  1
  N  N6  1  0.91533693  0.36758384  0.94242772  1
  N  N7  1  0.08466307  0.63241616  0.44242772  1
loop_
_geom_bond_atom_site_label_1
_geom_bond_atom_site_label_2
_geom_bond_distance
_geom_bond_site_symmetry_2
Hf0 N5 2.065245 1_555
Hf0 N6 2.085325 1_555
Hf0 N1 2.098281 1_555
Hf0 N0 2.205316 1_556
Hf0 N0 2.205819 1_555
Hf1 N4 2.065245 1_555
Hf1 N7 2.085325 1_555
Hf1 N0 2.098281 1_555
Hf1 N1 2.205311 1_555
Hf1 N1 2.205824 1_554
Hf2 N7 2.065245 1_655
Hf2 N4 2.085325 1_555
Hf2 N3 2.098281 1_665
Hf2 N2 2.205311 1_555
Hf2 N2 2.205824 1_554
Hf3 N6 2.065245 1_455
Hf3 N5 2.085325 1_555
Hf3 N2 2.098281 1_445
Hf3 N3 2.205316 1_556
Hf3 N3 2.205819 1_555
Mg0 N5 2.123027 1_565
Mg0 N2 2.174631 1_555
Mg0 N4 2.203993 1_556
Mg0 N4 2.205197 1_555
Mg0 N1 2.213087 1_555
Mg1 N4 2.123027 1_545
Mg1 N3 2.174631 1_555
Mg1 N5 2.203993 1_555
Mg1 N5 2.205197 1_554
Mg1 N0 2.213087 1_555
Mg2 N7 2.123027 1_655
Mg2 N0 2.174631 1_555
Mg2 N6 2.203993 1_555
Mg2 N6 2.205197 1_554
Mg2 N3 2.213087 1_655
Mg3 N6 2.123027 1_455
Mg3 N1 2.174631 1_555
Mg3 N7 2.203993 1_556
Mg3 N7 2.205197 1_555
Mg3 N2 2.213087 1_455
