# generated using pymatgen
data_Sm6Si19Rh30
_symmetry_space_group_name_H-M   'P 1'
_cell_length_a   15.84757428
_cell_length_b   15.84757428
_cell_length_c   3.88129900
_cell_angle_alpha   90.00000000
_cell_angle_beta   90.00000000
_cell_angle_gamma   120.00000118
_symmetry_Int_Tables_number   1
_chemical_formula_structural   Sm6Si19Rh30
_chemical_formula_sum   'Sm6 Si19 Rh30'
_cell_volume   844.17661857
_cell_formula_units_Z   1
loop_
 _symmetry_equiv_pos_site_id
 _symmetry_equiv_pos_as_xyz
  1  'x, y, z'
loop_
 _atom_site_type_symbol
 _atom_site_label
 _atom_site_symmetry_multiplicity
 _atom_site_fract_x
 _atom_site_fract_y
 _atom_site_fract_z
 _atom_site_occupancy
  Sm  Sm0  1  0.89986400  0.60330100  0.25021100  1
  Sm  Sm1  1  0.70343700  0.10013600  0.25021100  1
  Sm  Sm2  1  0.39669900  0.29656300  0.25021100  1
  Sm  Sm3  1  0.09977100  0.39499800  0.75015800  1
  Sm  Sm4  1  0.29522700  0.90022900  0.75015800  1
  Sm  Sm5  1  0.60500200  0.70477300  0.75015800  1
  Si  Si0  1  0.13304500  0.87881400  0.25042300  1
  Si  Si1  1  0.74576900  0.86695500  0.25042300  1
  Si  Si2  1  0.12118600  0.25423100  0.25042300  1
  Si  Si3  1  0.86763700  0.12240500  0.75025700  1
  Si  Si4  1  0.25476900  0.13236300  0.75025700  1
  Si  Si5  1  0.87759500  0.74523100  0.75025700  1
  Si  Si6  1  0.31867300  0.75922900  0.25008000  1
  Si  Si7  1  0.44055600  0.68132700  0.25008000  1
  Si  Si8  1  0.24077100  0.55944400  0.25008000  1
  Si  Si9  1  0.68119400  0.24090300  0.74998000  1
  Si  Si10  1  0.55970900  0.31880600  0.74998000  1
  Si  Si11  1  0.75909700  0.44029100  0.74998000  1
  Si  Si12  1  0.93599800  0.37125000  0.25010100  1
  Si  Si13  1  0.43525200  0.06400200  0.25010100  1
  Si  Si14  1  0.62875000  0.56474800  0.25010100  1
  Si  Si15  1  0.06374400  0.62913500  0.74993600  1
  Si  Si16  1  0.56539100  0.93625600  0.74993600  1
  Si  Si17  1  0.37086500  0.43460900  0.74993600  1
  Si  Si18  1  0.00000000  0.00000000  0.16597200  1
  Rh  Rh0  1  0.15386700  0.73652200  0.24965500  1
  Rh  Rh1  1  0.58265500  0.84613300  0.24965500  1
  Rh  Rh2  1  0.26347800  0.41734500  0.24965500  1
  Rh  Rh3  1  0.84672800  0.26390300  0.75031400  1
  Rh  Rh4  1  0.41717500  0.15327200  0.75031400  1
  Rh  Rh5  1  0.73609700  0.58282500  0.75031400  1
  Rh  Rh6  1  0.07509300  0.53633200  0.25001000  1
  Rh  Rh7  1  0.46123900  0.92490700  0.25001000  1
  Rh  Rh8  1  0.46366800  0.53876100  0.25001000  1
  Rh  Rh9  1  0.92500900  0.46325400  0.74970700  1
  Rh  Rh10  1  0.53824500  0.07499100  0.74970700  1
  Rh  Rh11  1  0.53674600  0.46175500  0.74970700  1
  Rh  Rh12  1  0.76920700  0.72546600  0.25120000  1
  Rh  Rh13  1  0.95625900  0.23079300  0.25120000  1
  Rh  Rh14  1  0.27453400  0.04374100  0.25120000  1
  Rh  Rh15  1  0.23057000  0.27500500  0.74920200  1
  Rh  Rh16  1  0.04443500  0.76943000  0.74920200  1
  Rh  Rh17  1  0.72499500  0.95556500  0.74920200  1
  Rh  Rh18  1  0.96807400  0.84090800  0.24869100  1
  Rh  Rh19  1  0.87283400  0.03192600  0.24869100  1
  Rh  Rh20  1  0.15909200  0.12716600  0.24869100  1
  Rh  Rh21  1  0.02907400  0.14660900  0.75334600  1
  Rh  Rh22  1  0.11753600  0.97092600  0.75334600  1
  Rh  Rh23  1  0.85339100  0.88246400  0.75334600  1
  Rh  Rh24  1  0.65092600  0.42699700  0.24988500  1
  Rh  Rh25  1  0.77607100  0.34907400  0.24988500  1
  Rh  Rh26  1  0.57300300  0.22392900  0.24988500  1
  Rh  Rh27  1  0.34916100  0.57299000  0.75022000  1
  Rh  Rh28  1  0.22382900  0.65083900  0.75022000  1
  Rh  Rh29  1  0.42701000  0.77617100  0.75022000  1
loop_
_geom_bond_atom_site_label_1
_geom_bond_atom_site_label_2
_geom_bond_distance
_geom_bond_site_symmetry_2
Si0 Sm4 3.100150 1_555
Si0 Sm4 3.101437 1_554
Si1 Sm5 3.100150 1_555
Si1 Sm5 3.101437 1_554
Si2 Sm3 3.100150 1_555
Si2 Sm3 3.101437 1_554
Si3 Sm1 3.121368 1_556
Si3 Sm1 3.121590 1_555
Si4 Sm2 3.121363 1_556
Si4 Sm2 3.121585 1_555
Si5 Sm0 3.121356 1_556
Si5 Sm0 3.121578 1_555
Si6 Sm4 3.118700 1_554
Si6 Sm4 3.119077 1_555
Si7 Sm5 3.118700 1_554
Si7 Sm5 3.119077 1_555
Si8 Sm3 3.118700 1_554
Si8 Sm3 3.119077 1_555
Si9 Sm1 3.106411 1_555
Si9 Sm1 3.107531 1_556
Si10 Sm2 3.106411 1_555
Si10 Sm2 3.107531 1_556
Si11 Sm0 3.106411 1_555
Si11 Sm0 3.107531 1_556
Si12 Sm3 3.109059 1_654
Si12 Sm3 3.109335 1_655
Si13 Sm4 3.109059 1_544
Si13 Sm4 3.109335 1_545
Si14 Sm5 3.109059 1_554
Si14 Sm5 3.109336 1_555
Si15 Sm0 3.100202 1_455
Si15 Sm0 3.101538 1_456
Si16 Sm1 3.100202 1_565
Si16 Sm1 3.101538 1_566
Si17 Sm2 3.100202 1_555
Si17 Sm2 3.101538 1_556
Rh0 Si0 2.436789 1_555
Rh0 Si6 2.451737 1_555
Rh0 Si15 2.503465 1_554
Rh0 Si15 2.505156 1_555
Rh0 Sm4 3.113821 1_554
Rh0 Sm4 3.116254 1_555
Rh0 Sm0 3.487433 1_455
Rh1 Si1 2.436789 1_555
Rh1 Si7 2.451737 1_555
Rh1 Si16 2.503465 1_554
Rh1 Si16 2.505156 1_555
Rh1 Sm5 3.113821 1_554
Rh1 Sm5 3.116254 1_555
Rh1 Sm1 3.487433 1_565
Rh2 Si2 2.436788 1_555
Rh2 Si8 2.451737 1_555
Rh2 Si17 2.503465 1_554
Rh2 Si17 2.505156 1_555
Rh2 Sm3 3.113821 1_554
Rh2 Sm3 3.116254 1_555
Rh2 Sm2 3.487433 1_555
Rh3 Si3 2.425117 1_555
Rh3 Si9 2.461391 1_555
Rh3 Si12 2.500335 1_556
Rh3 Si12 2.501618 1_555
Rh3 Sm1 3.124633 1_556
Rh3 Sm1 3.125130 1_555
Rh4 Si4 2.425101 1_555
Rh4 Si10 2.461390 1_555
Rh4 Si13 2.500335 1_556
Rh4 Si13 2.501618 1_555
Rh4 Sm2 3.124633 1_556
Rh4 Sm2 3.125130 1_555
Rh5 Si5 2.425107 1_555
Rh5 Si11 2.461391 1_555
Rh5 Si14 2.500335 1_556
Rh5 Si14 2.501618 1_555
Rh5 Sm0 3.124633 1_556
Rh5 Sm0 3.125130 1_555
Rh6 Si12 2.436479 1_455
Rh6 Si8 2.462971 1_555
Rh6 Si15 2.494961 1_555
Rh6 Si15 2.495408 1_554
Rh6 Sm3 3.132013 1_554
Rh6 Sm3 3.132725 1_555
Rh6 Sm0 3.432929 1_455
Rh7 Si13 2.436479 1_565
Rh7 Si6 2.462971 1_555
Rh7 Si16 2.494961 1_555
Rh7 Si16 2.495408 1_554
Rh7 Sm4 3.132013 1_554
Rh7 Sm4 3.132725 1_555
Rh7 Sm1 3.432928 1_565
Rh8 Si14 2.436479 1_555
Rh8 Si7 2.462971 1_555
Rh8 Si17 2.494961 1_555
Rh8 Si17 2.495408 1_554
Rh8 Sm5 3.132013 1_554
Rh8 Sm5 3.132725 1_555
Rh8 Sm2 3.432929 1_555
Rh9 Si15 2.442296 1_655
Rh9 Si11 2.467557 1_555
Rh9 Si12 2.484011 1_555
Rh9 Si12 2.486400 1_556
Rh9 Sm0 3.118892 1_555
Rh9 Sm0 3.121326 1_556
Rh10 Si16 2.442296 1_545
Rh10 Si9 2.467557 1_555
Rh10 Si13 2.484011 1_555
Rh10 Si13 2.486400 1_556
Rh10 Sm1 3.118892 1_555
Rh10 Sm1 3.121326 1_556
Rh11 Si17 2.442296 1_555
Rh11 Si10 2.467557 1_555
Rh11 Si14 2.484011 1_555
Rh11 Si14 2.486400 1_556
Rh11 Sm2 3.118892 1_555
Rh11 Sm2 3.121326 1_556
Rh12 Si14 2.402596 1_555
Rh12 Si1 2.449193 1_555
Rh12 Si5 2.502491 1_555
Rh12 Si5 2.508161 1_554
Rh12 Sm5 3.126711 1_555
Rh12 Sm5 3.131728 1_554
Rh12 Sm0 3.470485 1_555
Rh13 Si12 2.402596 1_555
Rh13 Si2 2.449193 1_655
Rh13 Si3 2.502488 1_555
Rh13 Si3 2.508158 1_554
Rh13 Sm3 3.126711 1_655
Rh13 Sm3 3.131728 1_654
Rh13 Sm1 3.470485 1_555
Rh14 Si13 2.402596 1_555
Rh14 Si0 2.449193 1_545
Rh14 Si4 2.502481 1_555
Rh14 Si4 2.508151 1_554
Rh14 Sm4 3.126711 1_545
Rh14 Sm4 3.131728 1_544
Rh14 Sm2 3.470485 1_555
Rh15 Si17 2.391068 1_555
Rh15 Si4 2.474668 1_555
Rh15 Si2 2.508060 1_555
Rh15 Si2 2.515383 1_556
Rh15 Sm2 3.146352 1_555
Rh15 Sm2 3.151179 1_556
Rh16 Si15 2.391068 1_555
Rh16 Si5 2.474653 1_455
Rh16 Si0 2.508060 1_555
Rh16 Si0 2.515383 1_556
Rh16 Sm0 3.146352 1_455
Rh16 Sm0 3.151179 1_456
Rh17 Si16 2.391068 1_555
Rh17 Si3 2.474658 1_565
Rh17 Si1 2.508060 1_555
Rh17 Si1 2.515383 1_556
Rh17 Sm1 3.146352 1_565
Rh17 Sm1 3.151179 1_566
Rh18 Si18 2.332384 1_665
Rh18 Si0 2.371799 1_655
Rh18 Si5 2.433816 1_554
Rh18 Si5 2.443490 1_555
Rh18 Sm0 3.358140 1_555
Rh19 Si18 2.332384 1_655
Rh19 Si1 2.371799 1_545
Rh19 Si3 2.433811 1_554
Rh19 Si3 2.443484 1_555
Rh19 Sm1 3.358140 1_555
Rh20 Si18 2.332384 1_555
Rh20 Si2 2.371799 1_555
Rh20 Si4 2.433820 1_554
Rh20 Si4 2.443494 1_555
Rh20 Sm2 3.358140 1_555
Rh21 Si3 2.389827 1_455
Rh21 Si2 2.504458 1_556
Rh21 Si2 2.521978 1_555
Rh21 Si18 2.665490 1_556
Rh22 Si4 2.389827 1_565
Rh22 Si0 2.504451 1_556
Rh22 Si0 2.521972 1_555
Rh22 Si18 2.665503 1_566
Rh23 Si5 2.389827 1_555
Rh23 Si1 2.504461 1_556
Rh23 Si1 2.521982 1_555
Rh23 Si18 2.665494 1_666
Rh24 Si14 2.378292 1_555
Rh24 Si10 2.513080 1_554
Rh24 Si10 2.513649 1_555
Rh24 Si11 2.527166 1_554
Rh24 Si11 2.527732 1_555
Rh24 Sm2 3.489511 1_555
Rh24 Sm0 3.513892 1_555
Rh25 Si12 2.378292 1_555
Rh25 Si11 2.513080 1_554
Rh25 Si11 2.513649 1_555
Rh25 Si9 2.527166 1_554
Rh25 Si9 2.527732 1_555
Rh25 Sm0 3.489511 1_555
Rh25 Sm1 3.513893 1_555
Rh26 Si13 2.378292 1_555
Rh26 Si9 2.513080 1_554
Rh26 Si9 2.513649 1_555
Rh26 Si10 2.527166 1_554
Rh26 Si10 2.527732 1_555
Rh26 Sm1 3.489511 1_555
Rh26 Sm2 3.513893 1_555
Rh27 Si17 2.383666 1_555
Rh27 Si7 2.514519 1_556
Rh27 Si7 2.515358 1_555
Rh27 Si8 2.528222 1_556
Rh27 Si8 2.529056 1_555
Rh28 Si15 2.383666 1_555
Rh28 Si8 2.514519 1_556
Rh28 Si8 2.515358 1_555
Rh28 Si6 2.528222 1_556
Rh28 Si6 2.529056 1_555
Rh29 Si16 2.383666 1_555
Rh29 Si6 2.514519 1_556
Rh29 Si6 2.515358 1_555
Rh29 Si7 2.528222 1_556
Rh29 Si7 2.529056 1_555
