# generated using pymatgen
data_Ce3AlFeS7
_symmetry_space_group_name_H-M   'P 1'
_cell_length_a   9.92976994
_cell_length_b   9.92976994
_cell_length_c   5.97319800
_cell_angle_alpha   90.00000000
_cell_angle_beta   90.00000000
_cell_angle_gamma   119.99999957
_symmetry_Int_Tables_number   1
_chemical_formula_structural   Ce3AlFeS7
_chemical_formula_sum   'Ce6 Al2 Fe2 S14'
_cell_volume   510.05371764
_cell_formula_units_Z   2
loop_
 _symmetry_equiv_pos_site_id
 _symmetry_equiv_pos_as_xyz
  1  'x, y, z'
loop_
 _atom_site_type_symbol
 _atom_site_label
 _atom_site_symmetry_multiplicity
 _atom_site_fract_x
 _atom_site_fract_y
 _atom_site_fract_z
 _atom_site_occupancy
  Ce  Ce0  1  0.77282100  0.13810400  0.73985800  1
  Ce  Ce1  1  0.36528400  0.22717900  0.73985800  1
  Ce  Ce2  1  0.86189600  0.63471600  0.73985800  1
  Ce  Ce3  1  0.22717900  0.86189600  0.23985800  1
  Ce  Ce4  1  0.63471600  0.77282100  0.23985800  1
  Ce  Ce5  1  0.13810400  0.36528400  0.23985800  1
  Al  Al0  1  0.66666700  0.33333300  0.16457300  1
  Al  Al1  1  0.33333300  0.66666700  0.66457300  1
  Fe  Fe0  1  0.00000000  0.00000000  0.53130400  1
  Fe  Fe1  1  0.00000000  0.00000000  0.03130400  1
  S  S0  1  0.85494500  0.09072300  0.29089100  1
  S  S1  1  0.23577800  0.14505500  0.29089100  1
  S  S2  1  0.90927700  0.76422200  0.29089100  1
  S  S3  1  0.14505500  0.90927700  0.79089100  1
  S  S4  1  0.76422200  0.85494500  0.79089100  1
  S  S5  1  0.09072300  0.23577800  0.79089100  1
  S  S6  1  0.90439500  0.42182400  0.01219100  1
  S  S7  1  0.51742900  0.09560500  0.01219100  1
  S  S8  1  0.57817600  0.48257100  0.01219100  1
  S  S9  1  0.09560500  0.57817600  0.51219100  1
  S  S10  1  0.48257100  0.90439500  0.51219100  1
  S  S11  1  0.42182400  0.51742900  0.51219100  1
  S  S12  1  0.66666700  0.33333300  0.53633400  1
  S  S13  1  0.33333300  0.66666700  0.03633400  1
loop_
_geom_bond_atom_site_label_1
_geom_bond_atom_site_label_2
_geom_bond_distance
_geom_bond_site_symmetry_2
Ce0 S4 2.786720 1_545
Ce0 S5 2.817213 1_655
Ce0 S7 2.860988 1_556
Ce0 S12 2.896638 1_555
Ce0 S0 2.908934 1_555
Ce0 S6 2.934171 1_556
Ce0 S10 2.975399 1_545
Ce0 S0 3.479011 1_556
Ce1 S5 2.786730 1_555
Ce1 S3 2.817215 1_545
Ce1 S8 2.860985 1_556
Ce1 S12 2.896638 1_555
Ce1 S1 2.908937 1_555
Ce1 S7 2.934163 1_556
Ce1 S11 2.975402 1_555
Ce1 S1 3.479014 1_556
Ce2 S3 2.786725 1_655
Ce2 S4 2.817222 1_555
Ce2 S6 2.860980 1_556
Ce2 S12 2.896638 1_555
Ce2 S2 2.908938 1_555
Ce2 S8 2.934170 1_556
Ce2 S9 2.975393 1_655
Ce2 S2 3.479014 1_556
Ce3 S1 2.786720 1_565
Ce3 S2 2.817213 1_455
Ce3 S10 2.860988 1_555
Ce3 S13 2.896638 1_555
Ce3 S3 2.908934 1_554
Ce3 S9 2.934171 1_555
Ce3 S7 2.975399 1_565
Ce3 S3 3.479011 1_555
Ce4 S2 2.786730 1_555
Ce4 S0 2.817215 1_565
Ce4 S11 2.860985 1_555
Ce4 S13 2.896638 1_555
Ce4 S4 2.908937 1_554
Ce4 S10 2.934163 1_555
Ce4 S8 2.975402 1_555
Ce4 S4 3.479014 1_555
Ce5 S0 2.786725 1_455
Ce5 S1 2.817222 1_555
Ce5 S9 2.860980 1_555
Ce5 S13 2.896638 1_555
Ce5 S5 2.908938 1_554
Ce5 S11 2.934170 1_555
Ce5 S6 2.975393 1_455
Ce5 S5 3.479014 1_555
Al0 S12 2.220602 1_555
Al0 S6 2.258032 1_555
Al0 S7 2.258033 1_555
Al0 S8 2.258040 1_555
Al1 S13 2.220602 1_556
Al1 S9 2.258032 1_555
Al1 S10 2.258033 1_555
Al1 S11 2.258040 1_555
Fe0 S0 2.499190 1_455
Fe0 S2 2.499190 1_445
Fe0 S1 2.499190 1_555
Fe0 S3 2.566711 1_545
Fe0 S5 2.566711 1_555
Fe0 S4 2.566711 1_445
Fe1 S3 2.499190 1_544
Fe1 S5 2.499190 1_554
Fe1 S4 2.499190 1_444
Fe1 S0 2.566711 1_455
Fe1 S2 2.566711 1_445
Fe1 S1 2.566711 1_555
