# generated using pymatgen
data_Tb2ZnSb4
_symmetry_space_group_name_H-M   'P 1'
_cell_length_a   4.30052409
_cell_length_b   4.30052409
_cell_length_c   9.98310153
_cell_angle_alpha   90.00000000
_cell_angle_beta   90.00000000
_cell_angle_gamma   90.00000000
_symmetry_Int_Tables_number   1
_chemical_formula_structural   Tb2ZnSb4
_chemical_formula_sum   'Tb2 Zn1 Sb4'
_cell_volume   184.63254561
_cell_formula_units_Z   1
loop_
 _symmetry_equiv_pos_site_id
 _symmetry_equiv_pos_as_xyz
  1  'x, y, z'
loop_
 _atom_site_type_symbol
 _atom_site_label
 _atom_site_symmetry_multiplicity
 _atom_site_fract_x
 _atom_site_fract_y
 _atom_site_fract_z
 _atom_site_occupancy
  Tb  Tb0  1  0.50000000  0.00000000  0.75339375  1
  Tb  Tb1  1  -0.00000000  0.50000000  0.24660625  1
  Zn  Zn0  1  0.50000000  0.50000000  0.50000000  1
  Sb  Sb0  1  0.50000000  0.00000000  0.34415312  1
  Sb  Sb1  1  -0.00000000  0.50000000  0.65584688  1
  Sb  Sb2  1  0.50000000  0.50000000  -0.00000000  1
  Sb  Sb3  1  0.00000000  0.00000000  -0.00000000  1
loop_
_geom_bond_atom_site_label_1
_geom_bond_atom_site_label_2
_geom_bond_distance
_geom_bond_site_symmetry_2
Tb0 Zn0 3.320058 1_555
Tb0 Zn0 3.320058 1_545
Tb1 Zn0 3.320058 1_455
Tb1 Zn0 3.320058 1_555
Sb0 Zn0 2.654101 1_545
Sb0 Zn0 2.654101 1_555
Sb0 Tb1 3.193052 1_655
Sb0 Tb1 3.193052 1_545
Sb0 Tb1 3.193052 1_645
Sb0 Tb1 3.193052 1_555
Sb1 Zn0 2.654101 1_555
Sb1 Zn0 2.654101 1_455
Sb1 Tb0 3.193052 1_555
Sb1 Tb0 3.193052 1_455
Sb1 Tb0 3.193052 1_565
Sb1 Tb0 3.193052 1_465
Sb2 Sb3 3.040930 1_655
Sb2 Sb3 3.040930 1_565
Sb2 Sb3 3.040930 1_665
Sb2 Sb3 3.040930 1_555
Sb2 Tb1 3.268724 1_555
Sb2 Tb1 3.268724 1_655
Sb2 Tb0 3.268724 1_554
Sb2 Tb0 3.268724 1_564
Sb3 Tb1 3.268724 1_555
Sb3 Tb1 3.268724 1_545
Sb3 Tb0 3.268724 1_454
Sb3 Tb0 3.268724 1_554
