# generated using pymatgen
data_VH15C4S2(NO5)2
_symmetry_space_group_name_H-M   'P 1'
_cell_length_a   18.69191200
_cell_length_b   7.25543600
_cell_length_c   9.54231890
_cell_angle_alpha   80.38033933
_cell_angle_beta   90.00000000
_cell_angle_gamma   90.00000000
_symmetry_Int_Tables_number   1
_chemical_formula_structural   VH15C4S2(NO5)2
_chemical_formula_sum   'V4 H60 C16 S8 N8 O40'
_cell_volume   1275.91313112
_cell_formula_units_Z   4
loop_
 _symmetry_equiv_pos_site_id
 _symmetry_equiv_pos_as_xyz
  1  'x, y, z'
loop_
 _atom_site_type_symbol
 _atom_site_label
 _atom_site_symmetry_multiplicity
 _atom_site_fract_x
 _atom_site_fract_y
 _atom_site_fract_z
 _atom_site_occupancy
  V  V0  1  0.75208800  0.59187900  0.30104200  1
  V  V1  1  0.25208800  0.90812100  0.69895800  1
  V  V2  1  0.24791200  0.40812100  0.69895800  1
  V  V3  1  0.74791200  0.09187900  0.30104200  1
  H  H0  1  0.65174200  0.83612500  0.29482500  1
  H  H1  1  0.15174200  0.66387500  0.70517500  1
  H  H2  1  0.34825800  0.16387500  0.70517500  1
  H  H3  1  0.84825800  0.33612500  0.29482500  1
  H  H4  1  0.78649800  0.46908100  0.84898000  1
  H  H5  1  0.28649800  0.03091900  0.15102000  1
  H  H6  1  0.21350200  0.53091900  0.15102000  1
  H  H7  1  0.71350200  0.96908100  0.84898000  1
  H  H8  1  0.93816200  0.08099000  0.86787800  1
  H  H9  1  0.43816200  0.41901000  0.13212200  1
  H  H10  1  0.06183800  0.91901000  0.13212200  1
  H  H11  1  0.56183800  0.58099000  0.86787800  1
  H  H12  1  0.56291200  0.61355500  0.31166000  1
  H  H13  1  0.06291200  0.88644500  0.68834000  1
  H  H14  1  0.43708800  0.38644500  0.68834000  1
  H  H15  1  0.93708800  0.11355500  0.31166000  1
  H  H16  1  0.50196800  0.75092600  0.32937700  1
  H  H17  1  0.00196800  0.74907400  0.67062300  1
  H  H18  1  0.49803200  0.24907400  0.67062300  1
  H  H19  1  0.99803200  0.25092600  0.32937700  1
  H  H20  1  0.85253800  0.58333300  0.74058700  1
  H  H21  1  0.35253800  0.91666700  0.25941300  1
  H  H22  1  0.14746200  0.41666700  0.25941300  1
  H  H23  1  0.64746200  0.08333300  0.74058700  1
  H  H24  1  0.00723400  0.17547200  0.76432300  1
  H  H25  1  0.50723400  0.32452800  0.23567700  1
  H  H26  1  0.99276600  0.82452800  0.23567700  1
  H  H27  1  0.49276600  0.67547200  0.76432300  1
  H  H28  1  0.80989700  0.18072500  0.78713300  1
  H  H29  1  0.30989700  0.31927500  0.21286700  1
  H  H30  1  0.19010300  0.81927500  0.21286700  1
  H  H31  1  0.69010300  0.68072500  0.78713300  1
  H  H32  1  0.80096800  0.34776100  0.62647800  1
  H  H33  1  0.30096800  0.15223900  0.37352200  1
  H  H34  1  0.19903200  0.65223900  0.37352200  1
  H  H35  1  0.69903200  0.84776100  0.62647800  1
  H  H36  1  0.93341700  0.37080000  0.60324900  1
  H  H37  1  0.43341700  0.12920000  0.39675100  1
  H  H38  1  0.06658300  0.62920000  0.39675100  1
  H  H39  1  0.56658300  0.87080000  0.60324900  1
  H  H40  1  0.90526600  0.13386200  0.61752400  1
  H  H41  1  0.40526600  0.36613800  0.38247600  1
  H  H42  1  0.09473400  0.86613800  0.38247600  1
  H  H43  1  0.59473400  0.63386200  0.61752400  1
  H  H44  1  0.86199500  0.29686600  0.00421100  1
  H  H45  1  0.36199500  0.20313400  0.99578900  1
  H  H46  1  0.13800500  0.70313400  0.99578900  1
  H  H47  1  0.63800500  0.79686600  0.00421100  1
  H  H48  1  0.88950300  0.53325200  0.98287800  1
  H  H49  1  0.38950300  0.96674800  0.01712200  1
  H  H50  1  0.11049700  0.46674800  0.01712200  1
  H  H51  1  0.61049700  0.03325200  0.98287800  1
  H  H52  1  0.99250400  0.30590300  0.97967100  1
  H  H53  1  0.49250400  0.19409700  0.02032900  1
  H  H54  1  0.00749600  0.69409700  0.02032900  1
  H  H55  1  0.50749600  0.80590300  0.97967100  1
  H  H56  1  0.98854600  0.47466300  0.82039900  1
  H  H57  1  0.48854600  0.02533700  0.17960100  1
  H  H58  1  0.01145400  0.52533700  0.17960100  1
  H  H59  1  0.51145400  0.97466300  0.82039900  1
  C  C0  1  0.83440700  0.30176300  0.72005500  1
  C  C1  1  0.33440700  0.19823700  0.27994500  1
  C  C2  1  0.16559300  0.69823700  0.27994500  1
  C  C3  1  0.66559300  0.80176300  0.72005500  1
  C  C4  1  0.90855900  0.25325000  0.67362500  1
  C  C5  1  0.40855900  0.24675000  0.32637500  1
  C  C6  1  0.09144100  0.74675000  0.32637500  1
  C  C7  1  0.59144100  0.75325000  0.67362500  1
  C  C8  1  0.88669300  0.41068700  0.92982000  1
  C  C9  1  0.38669300  0.08931300  0.07018000  1
  C  C10  1  0.11330700  0.58931300  0.07018000  1
  C  C11  1  0.61330700  0.91068700  0.92982000  1
  C  C12  1  0.96058300  0.35751300  0.88508100  1
  C  C13  1  0.46058300  0.14248700  0.11491900  1
  C  C14  1  0.03941700  0.64248700  0.11491900  1
  C  C15  1  0.53941700  0.85751300  0.88508100  1
  S  S0  1  0.86621100  0.80735100  0.48254400  1
  S  S1  1  0.36621100  0.69264900  0.51745600  1
  S  S2  1  0.13378900  0.19264900  0.51745600  1
  S  S3  1  0.63378900  0.30735100  0.48254400  1
  S  S4  1  0.83608600  0.89243700  0.06144600  1
  S  S5  1  0.33608600  0.60756300  0.93855400  1
  S  S6  1  0.16391400  0.10756300  0.93855400  1
  S  S7  1  0.66391400  0.39243700  0.06144600  1
  N  N0  1  0.83745700  0.45677700  0.80545600  1
  N  N1  1  0.33745700  0.04322300  0.19454400  1
  N  N2  1  0.16254300  0.54322300  0.19454400  1
  N  N3  1  0.66254300  0.95677700  0.80545600  1
  N  N4  1  0.95627400  0.20195700  0.80019200  1
  N  N5  1  0.45627400  0.29804300  0.19980800  1
  N  N6  1  0.04372600  0.79804300  0.19980800  1
  N  N7  1  0.54372600  0.70195700  0.80019200  1
  O  O0  1  0.70434500  0.84019100  0.29958000  1
  O  O1  1  0.20434500  0.65980900  0.70042000  1
  O  O2  1  0.29565500  0.15980900  0.70042000  1
  O  O3  1  0.79565500  0.34019100  0.29958000  1
  O  O4  1  0.82339900  0.63992600  0.45754900  1
  O  O5  1  0.32339900  0.86007400  0.54245100  1
  O  O6  1  0.17660100  0.36007400  0.54245100  1
  O  O7  1  0.67660100  0.13992600  0.45754900  1
  O  O8  1  0.82755900  0.70457300  0.15399400  1
  O  O9  1  0.32755900  0.79542700  0.84600600  1
  O  O10  1  0.17244100  0.29542700  0.84600600  1
  O  O11  1  0.67244100  0.20457300  0.15399400  1
  O  O12  1  0.68176600  0.47693300  0.46195700  1
  O  O13  1  0.18176600  0.02306700  0.53804300  1
  O  O14  1  0.31823400  0.52306700  0.53804300  1
  O  O15  1  0.81823400  0.97693300  0.46195700  1
  O  O16  1  0.68187700  0.54475800  0.14578800  1
  O  O17  1  0.18187700  0.95524200  0.85421200  1
  O  O18  1  0.31812300  0.45524200  0.85421200  1
  O  O19  1  0.81812300  0.04475800  0.14578800  1
  O  O20  1  0.78907300  0.90522000  0.93652300  1
  O  O21  1  0.28907300  0.59478000  0.06347700  1
  O  O22  1  0.21092700  0.09478000  0.06347700  1
  O  O23  1  0.71092700  0.40522000  0.93652300  1
  O  O24  1  0.92794500  0.84172900  0.38573700  1
  O  O25  1  0.42794500  0.65827100  0.61426300  1
  O  O26  1  0.07205500  0.15827100  0.61426300  1
  O  O27  1  0.57205500  0.34172900  0.38573700  1
  O  O28  1  0.91181700  0.91509900  0.01744800  1
  O  O29  1  0.41181700  0.58490100  0.98255200  1
  O  O30  1  0.08818300  0.08490100  0.98255200  1
  O  O31  1  0.58818300  0.41509900  0.01744800  1
  O  O32  1  0.89027200  0.77126400  0.63307500  1
  O  O33  1  0.39027200  0.72873600  0.36692500  1
  O  O34  1  0.10972800  0.22873600  0.36692500  1
  O  O35  1  0.60972800  0.27126400  0.63307500  1
  O  O36  1  0.54922200  0.74566700  0.28551900  1
  O  O37  1  0.04922200  0.75433300  0.71448100  1
  O  O38  1  0.45077800  0.25433300  0.71448100  1
  O  O39  1  0.95077800  0.24566700  0.28551900  1
loop_
_geom_bond_atom_site_label_1
_geom_bond_atom_site_label_2
_geom_bond_distance
_geom_bond_site_symmetry_2
H0 O0 0.984966 1_555
H1 O1 0.984966 1_555
H2 O2 0.984966 1_555
H3 O3 0.984966 1_555
H4 N0 1.048879 1_555
H4 O23 1.666883 1_555
H5 N1 1.048879 1_555
H5 O22 1.666883 1_555
H6 N2 1.048879 1_555
H6 O21 1.666883 1_555
H7 N3 1.048879 1_555
H7 O20 1.666883 1_555
H8 N4 1.054810 1_555
H9 N5 1.054810 1_555
H10 N6 1.054810 1_555
H11 N7 1.054810 1_555
H12 O36 0.983144 1_555
H13 O37 0.983144 1_555
H14 O38 0.983144 1_555
H15 O39 0.983144 1_555
H16 O36 0.980868 1_555
H17 O37 0.980868 1_555
H18 O38 0.980868 1_555
H19 O39 0.980868 1_555
H20 N0 1.056310 1_555
H20 O32 1.715124 1_555
H21 N1 1.056310 1_565
H21 O33 1.715124 1_555
H22 N2 1.056310 1_555
H22 O34 1.715124 1_555
H23 N3 1.056310 1_545
H23 O35 1.715124 1_555
H24 N4 1.040860 1_455
H25 N5 1.040860 1_555
H26 N6 1.040860 1_655
H27 N7 1.040860 1_555
C0 H32 1.095354 1_555
C0 H28 1.096784 1_555
C0 N0 1.496198 1_555
C1 H33 1.095354 1_555
C1 H29 1.096784 1_555
C1 N1 1.496198 1_555
C2 H34 1.095354 1_555
C2 H30 1.096784 1_555
C2 N2 1.496198 1_555
C3 H35 1.095354 1_555
C3 H31 1.096784 1_555
C3 N3 1.496198 1_555
C4 H40 1.093468 1_555
C4 H36 1.096746 1_555
C4 N4 1.497458 1_555
C5 H41 1.093468 1_555
C5 H37 1.096746 1_555
C5 N5 1.497458 1_555
C6 H42 1.093468 1_555
C6 H38 1.096746 1_555
C6 N6 1.497458 1_555
C7 H43 1.093468 1_555
C7 H39 1.096746 1_555
C7 N7 1.497458 1_555
C8 H48 1.095608 1_555
C8 H44 1.096853 1_556
C8 N0 1.494818 1_555
C9 H49 1.095608 1_545
C9 H45 1.096853 1_554
C9 N1 1.494818 1_555
C10 H50 1.095608 1_555
C10 H46 1.096853 1_554
C10 N2 1.494818 1_555
C11 H51 1.095608 1_565
C11 H47 1.096853 1_556
C11 N3 1.494818 1_555
C12 H52 1.094516 1_555
C12 H56 1.096026 1_555
C12 N4 1.497329 1_555
C13 H53 1.094516 1_555
C13 H57 1.096026 1_555
C13 N5 1.497329 1_555
C14 H54 1.094516 1_555
C14 H58 1.096026 1_555
C14 N6 1.497329 1_555
C15 H55 1.094516 1_555
C15 H59 1.096026 1_555
C15 N7 1.497329 1_555
O0 V3 2.001634 1_565
O0 V0 2.008480 1_555
O1 V2 2.001634 1_555
O1 V1 2.008480 1_555
O2 V1 2.001634 1_545
O2 V2 2.008480 1_555
O3 V0 2.001634 1_555
O3 V3 2.008480 1_555
O4 S0 1.506551 1_555
O4 V0 2.074273 1_555
O5 S1 1.506551 1_555
O5 V1 2.074273 1_555
O6 S2 1.506551 1_555
O6 V2 2.074273 1_555
O7 S3 1.506551 1_555
O7 V3 2.074273 1_555
O8 S4 1.503620 1_555
O8 V0 2.060115 1_555
O9 S5 1.503620 1_555
O9 V1 2.060115 1_555
O10 S6 1.503620 1_555
O10 V2 2.060115 1_555
O11 S7 1.503620 1_555
O11 V3 2.060115 1_555
O12 S3 1.508605 1_555
O12 V0 2.086406 1_555
O13 S2 1.508605 1_555
O13 V1 2.086406 1_545
O14 S1 1.508605 1_555
O14 V2 2.086406 1_555
O15 S0 1.508605 1_555
O15 V3 2.086406 1_565
O16 S7 1.509670 1_555
O16 V0 2.050193 1_555
O17 S6 1.509670 1_565
O17 V1 2.050193 1_555
O18 S5 1.509670 1_555
O18 V2 2.050193 1_555
O19 S4 1.509670 1_545
O19 V3 2.050193 1_555
O20 S4 1.471350 1_556
O21 S5 1.471350 1_554
O22 S6 1.471350 1_554
O23 S7 1.471350 1_556
O24 S0 1.473123 1_555
O25 S1 1.473123 1_555
O26 S2 1.473123 1_555
O27 S3 1.473123 1_555
O28 S4 1.477848 1_555
O29 S5 1.477848 1_555
O30 S6 1.477848 1_555
O31 S7 1.477848 1_555
O32 S0 1.486074 1_555
O33 S1 1.486074 1_555
O34 S2 1.486074 1_555
O35 S3 1.486074 1_555
