# generated using pymatgen
data_PrMoO4F
_symmetry_space_group_name_H-M   'P 1'
_cell_length_a   6.65118400
_cell_length_b   7.08161900
_cell_length_c   10.17787220
_cell_angle_alpha   64.06754008
_cell_angle_beta   90.00000000
_cell_angle_gamma   90.00000000
_symmetry_Int_Tables_number   1
_chemical_formula_structural   PrMoO4F
_chemical_formula_sum   'Pr4 Mo4 O16 F4'
_cell_volume   431.11984946
_cell_formula_units_Z   4
loop_
 _symmetry_equiv_pos_site_id
 _symmetry_equiv_pos_as_xyz
  1  'x, y, z'
loop_
 _atom_site_type_symbol
 _atom_site_label
 _atom_site_symmetry_multiplicity
 _atom_site_fract_x
 _atom_site_fract_y
 _atom_site_fract_z
 _atom_site_occupancy
  Pr  Pr0  1  0.62896400  0.80344200  0.42202400  1
  Pr  Pr1  1  0.87103600  0.80344200  0.92202400  1
  Pr  Pr2  1  0.37103600  0.19655800  0.57797600  1
  Pr  Pr3  1  0.12896400  0.19655800  0.07797600  1
  Mo  Mo0  1  0.63618000  0.33400300  0.83483200  1
  Mo  Mo1  1  0.86382000  0.33400300  0.33483200  1
  Mo  Mo2  1  0.36382000  0.66599700  0.16516800  1
  Mo  Mo3  1  0.13618000  0.66599700  0.66516800  1
  O  O0  1  0.66038200  0.55292200  0.87291400  1
  O  O1  1  0.83961800  0.55292200  0.37291400  1
  O  O2  1  0.33961800  0.44707800  0.12708600  1
  O  O3  1  0.16038200  0.44707800  0.62708600  1
  O  O4  1  0.90278900  0.78582100  0.58859300  1
  O  O5  1  0.59721100  0.78582100  0.08859300  1
  O  O6  1  0.09721100  0.21417900  0.41140700  1
  O  O7  1  0.40278900  0.21417900  0.91140700  1
  O  O8  1  0.60778400  0.43928000  0.63676200  1
  O  O9  1  0.89221600  0.43928000  0.13676200  1
  O  O10  1  0.39221600  0.56072000  0.36323800  1
  O  O11  1  0.10778400  0.56072000  0.86323800  1
  O  O12  1  0.85668000  0.16598800  0.91854900  1
  O  O13  1  0.64332000  0.16598800  0.41854900  1
  O  O14  1  0.14332000  0.83401200  0.08145100  1
  O  O15  1  0.35668000  0.83401200  0.58145100  1
  F  F0  1  0.88345600  0.01341200  0.26072800  1
  F  F1  1  0.61654400  0.01341200  0.76072800  1
  F  F2  1  0.11654400  0.98658800  0.73927200  1
  F  F3  1  0.38345600  0.98658800  0.23927200  1
loop_
_geom_bond_atom_site_label_1
_geom_bond_atom_site_label_2
_geom_bond_distance
_geom_bond_site_symmetry_2
Mo0 O0 1.762136 1_555
Mo0 O7 1.777288 1_555
Mo0 O8 1.827830 1_555
Mo0 O12 1.845497 1_555
Mo1 O1 1.762136 1_555
Mo1 O6 1.777288 1_655
Mo1 O9 1.827830 1_555
Mo1 O13 1.845497 1_555
Mo2 O2 1.762136 1_555
Mo2 O5 1.777288 1_555
Mo2 O10 1.827830 1_555
Mo2 O14 1.845497 1_555
Mo3 O3 1.762136 1_555
Mo3 O4 1.777288 1_455
Mo3 O11 1.827830 1_555
Mo3 O15 1.845497 1_555
O0 Pr1 2.477069 1_555
O1 Pr0 2.477069 1_555
O2 Pr3 2.477069 1_555
O3 Pr2 2.477069 1_555
O4 Pr0 2.453902 1_555
O5 Pr1 2.453902 1_554
O6 Pr2 2.453902 1_555
O7 Pr3 2.453902 1_556
O8 Pr0 2.552932 1_555
O8 Pr2 2.586793 1_555
O9 Pr1 2.552932 1_554
O9 Pr3 2.586793 1_655
O10 Pr2 2.552932 1_555
O10 Pr0 2.586793 1_555
O11 Pr3 2.552932 1_556
O11 Pr1 2.586793 1_455
O12 Pr3 2.503354 1_656
O12 Pr1 2.553930 1_545
O13 Pr2 2.503354 1_555
O13 Pr0 2.553930 1_545
O14 Pr1 2.503354 1_454
O14 Pr3 2.553930 1_565
O15 Pr0 2.503354 1_555
O15 Pr2 2.553930 1_565
F0 Pr0 2.374056 1_545
F0 Pr3 2.387114 1_655
F1 Pr1 2.374056 1_545
F1 Pr2 2.387114 1_555
F2 Pr2 2.374056 1_565
F2 Pr1 2.387114 1_455
F3 Pr3 2.374056 1_565
F3 Pr0 2.387114 1_555
