# generated using pymatgen
data_Sr2MnSO3
_symmetry_space_group_name_H-M   'P 1'
_cell_length_a   4.00396500
_cell_length_b   4.00396500
_cell_length_c   14.59609100
_cell_angle_alpha   90.00000000
_cell_angle_beta   90.00000000
_cell_angle_gamma   90.00000000
_symmetry_Int_Tables_number   1
_chemical_formula_structural   Sr2MnSO3
_chemical_formula_sum   'Sr4 Mn2 S2 O6'
_cell_volume   234.00067347
_cell_formula_units_Z   2
loop_
 _symmetry_equiv_pos_site_id
 _symmetry_equiv_pos_as_xyz
  1  'x, y, z'
loop_
 _atom_site_type_symbol
 _atom_site_label
 _atom_site_symmetry_multiplicity
 _atom_site_fract_x
 _atom_site_fract_y
 _atom_site_fract_z
 _atom_site_occupancy
  Sr  Sr0  1  0.50000000  0.00000000  0.16445300  1
  Sr  Sr1  1  0.00000000  0.50000000  0.83554700  1
  Sr  Sr2  1  0.50000000  0.00000000  0.40859100  1
  Sr  Sr3  1  0.00000000  0.50000000  0.59140900  1
  Mn  Mn0  1  0.00000000  0.50000000  0.29214600  1
  Mn  Mn1  1  0.50000000  0.00000000  0.70785400  1
  S  S0  1  0.00000000  0.50000000  0.11729800  1
  S  S1  1  0.50000000  0.00000000  0.88270200  1
  O  O0  1  0.50000000  0.50000000  0.28748600  1
  O  O1  1  0.00000000  0.00000000  0.28748600  1
  O  O2  1  0.00000000  0.00000000  0.71251400  1
  O  O3  1  0.50000000  0.50000000  0.71251400  1
  O  O4  1  0.00000000  0.50000000  0.42432400  1
  O  O5  1  0.50000000  0.00000000  0.57567600  1
loop_
_geom_bond_atom_site_label_1
_geom_bond_atom_site_label_2
_geom_bond_distance
_geom_bond_site_symmetry_2
Mn0 O4 1.929282 1_555
Mn0 O0 2.003138 1_455
Mn0 O0 2.003138 1_555
Mn0 O1 2.003138 1_555
Mn0 O1 2.003138 1_565
Mn0 S0 2.552097 1_555
Mn1 O5 1.929282 1_555
Mn1 O2 2.003138 1_555
Mn1 O3 2.003138 1_555
Mn1 O2 2.003138 1_655
Mn1 O3 2.003138 1_545
Mn1 S1 2.552097 1_555
S0 Sr0 2.913691 1_565
S0 Sr0 2.913691 1_455
S0 Sr0 2.913691 1_465
S0 Sr0 2.913691 1_555
S1 Sr1 2.913691 1_555
S1 Sr1 2.913691 1_655
S1 Sr1 2.913691 1_645
S1 Sr1 2.913691 1_545
O0 Sr2 2.670684 1_555
O0 Sr2 2.670684 1_565
O0 Sr0 2.689393 1_565
O0 Sr0 2.689393 1_555
O1 Sr2 2.670684 1_455
O1 Sr2 2.670684 1_555
O1 Sr0 2.689393 1_455
O1 Sr0 2.689393 1_555
O2 Sr3 2.670684 1_555
O2 Sr3 2.670684 1_545
O2 Sr1 2.689393 1_545
O2 Sr1 2.689393 1_555
O3 Sr3 2.670684 1_555
O3 Sr3 2.670684 1_655
O3 Sr1 2.689393 1_655
O3 Sr1 2.689393 1_555
O4 Sr3 2.438788 1_555
O4 Sr2 2.840529 1_465
O4 Sr2 2.840529 1_455
O4 Sr2 2.840529 1_565
O4 Sr2 2.840529 1_555
O5 Sr2 2.438788 1_555
O5 Sr3 2.840529 1_545
O5 Sr3 2.840529 1_645
O5 Sr3 2.840529 1_555
O5 Sr3 2.840529 1_655
