# generated using pymatgen
data_CoO
_symmetry_space_group_name_H-M   'P 1'
_cell_length_a   10.04904476
_cell_length_b   10.17319195
_cell_length_c   10.37096020
_cell_angle_alpha   94.54368623
_cell_angle_beta   84.01078620
_cell_angle_gamma   83.96681257
_symmetry_Int_Tables_number   1
_chemical_formula_structural   CoO
_chemical_formula_sum   'Co40 O40'
_cell_volume   1044.23598623
_cell_formula_units_Z   40
loop_
 _symmetry_equiv_pos_site_id
 _symmetry_equiv_pos_as_xyz
  1  'x, y, z'
loop_
 _atom_site_type_symbol
 _atom_site_label
 _atom_site_symmetry_multiplicity
 _atom_site_fract_x
 _atom_site_fract_y
 _atom_site_fract_z
 _atom_site_occupancy
  Co  Co0  1  0.33990238  0.80892782  0.07265497  1
  Co  Co1  1  0.01934835  0.34436158  0.72241072  1
  Co  Co2  1  0.26433707  0.04982420  0.04514411  1
  Co  Co3  1  0.46980150  0.57152216  0.25898261  1
  Co  Co4  1  0.99493080  0.00200188  0.53225922  1
  Co  Co5  1  0.67324852  0.39728395  0.49780308  1
  Co  Co6  1  0.02643781  0.06880207  0.85241335  1
  Co  Co7  1  0.72086824  0.75189760  0.89509278  1
  Co  Co8  1  0.80070614  0.28300588  0.67061880  1
  Co  Co9  1  0.18066359  0.55422787  0.12497128  1
  Co  Co10  1  0.17245942  0.06501277  0.34110498  1
  Co  Co11  1  0.62992523  0.50201754  0.81948375  1
  Co  Co12  1  0.24620703  0.93952738  0.62381480  1
  Co  Co13  1  0.73379683  0.05674189  0.03648350  1
  Co  Co14  1  0.83290241  0.61228688  0.62922328  1
  Co  Co15  1  0.23978976  0.63603422  0.56884339  1
  Co  Co16  1  0.48428964  0.21663507  0.74865945  1
  Co  Co17  1  0.47424373  0.09999719  0.46128453  1
  Co  Co18  1  0.72706699  0.95498003  0.63907039  1
  Co  Co19  1  0.31339337  0.53180072  0.86254044  1
  Co  Co20  1  0.50376954  0.35408364  0.03017602  1
  Co  Co21  1  0.87831180  0.59071555  0.22194963  1
  Co  Co22  1  0.58120758  0.89135713  0.20205160  1
  Co  Co23  1  0.50790882  0.90640900  0.85642459  1
  Co  Co24  1  -0.00213635  0.79598697  0.35154775  1
  Co  Co25  1  0.95022025  0.48761768  0.94965810  1
  Co  Co26  1  0.93187690  0.82342929  0.04378307  1
  Co  Co27  1  0.60217463  0.21355188  0.26349222  1
  Co  Co28  1  0.07873953  0.49930567  0.44682449  1
  Co  Co29  1  0.16242275  0.27150505  0.94596536  1
  Co  Co30  1  0.24167508  0.24099308  0.62504007  1
  Co  Co31  1  0.68405989  0.75070829  0.40395964  1
  Co  Co32  1  0.35200090  0.84176718  0.37476330  1
  Co  Co33  1  0.71635852  0.40556279  0.17563031  1
  Co  Co34  1  0.41002419  0.39796737  0.50376271  1
  Co  Co35  1  0.79730583  0.05830592  0.38351551  1
  Co  Co36  1  0.96097217  0.27490516  0.25948553  1
  Co  Co37  1  0.28385174  0.31738993  0.24451544  1
  Co  Co38  1  0.98372260  0.77597561  0.75264813  1
  Co  Co39  1  0.49842044  0.66499125  0.64251387  1
  O  O0  1  0.90640714  0.41446296  0.12368087  1
  O  O1  1  0.82131432  0.11396548  0.59332386  1
  O  O2  1  0.31942167  0.91980572  0.91370342  1
  O  O3  1  0.10501178  0.35637666  0.33213096  1
  O  O4  1  0.62511182  0.90470780  0.00628006  1
  O  O5  1  0.65236140  0.25017646  0.07130811  1
  O  O6  1  0.14615449  0.46200057  0.94726013  1
  O  O7  1  0.75412649  0.30157959  0.33613547  1
  O  O8  1  0.18858285  0.21616122  0.11742889  1
  O  O9  1  0.53940737  0.26534913  0.56564294  1
  O  O10  1  0.53731154  0.91031143  0.39797434  1
  O  O11  1  0.29382401  0.96885796  0.20450694  1
  O  O12  1  0.14226311  0.87965541  0.42608682  1
  O  O13  1  0.67678270  0.58774430  0.26056485  1
  O  O14  1  0.55764597  0.68463862  0.82230399  1
  O  O15  1  0.03517804  0.64027347  0.58993988  1
  O  O16  1  0.69947221  0.03811473  0.22901691  1
  O  O17  1  0.81705340  0.87782951  0.46054830  1
  O  O18  1  0.42319978  0.25204721  0.35002599  1
  O  O19  1  0.56209004  0.03355231  0.73984164  1
  O  O20  1  0.36084070  0.53416156  0.67280520  1
  O  O21  1  0.12811627  0.38519012  0.58070878  1
  O  O22  1  0.25429808  0.66972789  0.00683033  1
  O  O23  1  0.36071942  0.78012058  0.56493315  1
  O  O24  1  -0.01596737  0.25787104  0.87122456  1
  O  O25  1  0.05376103  0.60413799  0.30234472  1
  O  O26  1  0.91765323  0.98742870  0.97439635  1
  O  O27  1  0.67683674  0.59371834  0.53286385  1
  O  O28  1  0.81918856  0.45422456  0.74777441  1
  O  O29  1  0.79322699  0.79535558  0.72083614  1
  O  O30  1  0.34532434  0.53798492  0.40779841  1
  O  O31  1  0.28524623  0.20582635  0.78611234  1
  O  O32  1  0.36738263  0.45395519  0.14572266  1
  O  O33  1  0.45479557  0.74978582  0.20494890  1
  O  O34  1  0.98103668  0.10785563  0.34852283  1
  O  O35  1  0.88391881  0.77767602  0.20894139  1
  O  O36  1  0.91075257  0.67667618  0.91442919  1
  O  O37  1  0.27641350  0.08252895  0.50807859  1
  O  O38  1  0.06119221  0.93951773  0.70207320  1
  O  O39  1  0.49059505  0.39093812  0.85671488  1
loop_
_geom_bond_atom_site_label_1
_geom_bond_atom_site_label_2
_geom_bond_distance
_geom_bond_site_symmetry_2
Co0 O22 1.853879 1_555
Co0 O33 1.973014 1_555
Co0 O11 2.021982 1_555
Co0 O2 2.085377 1_554
Co1 O21 1.839517 1_555
Co1 O24 1.857026 1_555
Co1 O28 2.175909 1_455
Co2 O2 1.821298 1_544
Co2 O8 1.847730 1_555
Co2 O11 1.940209 1_545
Co3 O33 1.935652 1_555
Co3 O30 1.957890 1_555
Co3 O32 2.039104 1_555
Co3 O13 2.105374 1_555
Co4 O1 1.994934 1_555
Co4 O12 2.002229 1_645
Co4 O38 2.069335 1_645
Co4 O34 2.271386 1_555
Co4 O17 2.438694 1_545
Co5 O7 1.926212 1_555
Co5 O27 2.007420 1_555
Co5 O9 2.106437 1_555
Co6 O26 1.883701 1_445
Co6 O24 1.915765 1_555
Co6 O38 1.935906 1_545
Co7 O4 1.960175 1_556
Co7 O29 1.977404 1_555
Co7 O36 2.015959 1_555
Co7 O14 2.034910 1_555
Co8 O1 1.820678 1_555
Co8 O28 1.893932 1_555
Co9 O22 1.910769 1_555
Co9 O32 2.079492 1_555
Co9 O6 2.079697 1_554
Co9 O25 2.119979 1_555
Co10 O11 1.902711 1_545
Co10 O34 1.919308 1_455
Co10 O37 2.118837 1_555
Co10 O12 2.180001 1_545
Co11 O39 1.917120 1_555
Co11 O14 1.919189 1_555
Co11 O28 1.964667 1_555
Co12 O23 1.905550 1_555
Co12 O38 1.949508 1_555
Co12 O37 1.985622 1_565
Co12 O12 2.459667 1_555
Co13 O26 1.931664 1_544
Co13 O4 2.008208 1_545
Co13 O16 2.017891 1_555
Co13 O5 2.039548 1_555
Co14 O27 1.963006 1_555
Co14 O29 2.003670 1_555
Co14 O15 2.084714 1_655
Co14 O28 2.107309 1_555
Co15 O20 1.975352 1_555
Co15 O23 2.000156 1_555
Co15 O30 2.013267 1_555
Co15 O15 2.040460 1_555
Co16 O19 1.934073 1_555
Co16 O31 2.013608 1_555
Co16 O39 2.031686 1_555
Co16 O9 2.035276 1_555
Co17 O10 2.002969 1_545
Co17 O37 2.026291 1_555
Co17 O18 2.055895 1_555
Co17 O9 2.126223 1_555
Co18 O19 1.925400 1_565
Co18 O29 1.976614 1_555
Co18 O1 2.021841 1_565
Co18 O17 2.032923 1_555
Co19 O22 1.966601 1_556
Co19 O20 1.978385 1_555
Co19 O6 2.035230 1_555
Co19 O39 2.157671 1_555
Co20 O5 1.844342 1_555
Co20 O32 1.875727 1_555
Co20 O39 1.881616 1_554
Co21 O35 1.923673 1_555
Co21 O0 1.969113 1_555
Co21 O13 2.026861 1_555
Co21 O25 2.040018 1_655
Co22 O33 2.018010 1_555
Co22 O10 2.023218 1_555
Co22 O16 2.023816 1_565
Co22 O4 2.050544 1_555
Co23 O2 1.912389 1_555
Co23 O19 1.920879 1_565
Co23 O4 2.045675 1_556
Co23 O14 2.250475 1_555
Co24 O12 1.953762 1_555
Co24 O35 1.971733 1_455
Co24 O25 1.984199 1_555
Co24 O17 2.092066 1_455
Co25 O6 1.956067 1_655
Co25 O36 1.992788 1_555
Co25 O0 2.029978 1_556
Co25 O24 2.390408 1_655
Co25 O28 2.605680 1_555
Co26 O35 1.839558 1_555
Co26 O26 1.866379 1_554
Co26 O36 1.970372 1_554
Co27 O18 1.911253 1_555
Co27 O16 1.930881 1_555
Co27 O7 2.030223 1_555
Co27 O5 2.076811 1_555
Co28 O3 1.782850 1_555
Co28 O25 1.928982 1_555
Co28 O21 1.949352 1_555
Co28 O15 1.961233 1_555
Co29 O6 1.926491 1_555
Co29 O8 1.942502 1_556
Co29 O31 1.985540 1_555
Co29 O24 2.039331 1_555
Co30 O31 1.823343 1_555
Co30 O21 1.878828 1_555
Co30 O37 1.917179 1_555
Co31 O17 2.051762 1_555
Co31 O10 2.084850 1_555
Co31 O13 2.150117 1_555
Co31 O27 2.164614 1_555
Co32 O33 2.049477 1_555
Co32 O10 2.086115 1_555
Co32 O12 2.106358 1_555
Co32 O23 2.123960 1_555
Co32 O11 2.355723 1_555
Co33 O0 1.942984 1_555
Co33 O13 1.970364 1_555
Co33 O5 2.042283 1_555
Co33 O7 2.088151 1_555
Co34 O30 1.899258 1_555
Co34 O9 1.965984 1_555
Co34 O18 2.074350 1_555
Co34 O20 2.127870 1_555
Co35 O34 1.969642 1_555
Co35 O16 1.973612 1_555
Co35 O17 2.058518 1_545
Co35 O1 2.248664 1_555
Co35 O7 2.562448 1_555
Co36 O3 1.931459 1_655
Co36 O34 1.999208 1_555
Co36 O7 2.128045 1_555
Co36 O0 2.148101 1_555
Co36 O8 2.574726 1_655
Co37 O3 1.914438 1_555
Co37 O18 1.959458 1_555
Co37 O8 1.992419 1_555
Co37 O32 1.993922 1_555
Co38 O29 1.968508 1_555
Co38 O38 1.993623 1_655
Co38 O15 2.078327 1_655
Co38 O36 2.130913 1_555
Co39 O23 1.993716 1_555
Co39 O14 2.017034 1_555
Co39 O20 2.035677 1_555
Co39 O27 2.050380 1_555
