# generated using pymatgen
data_Tb2B6Os
_symmetry_space_group_name_H-M   'P 1'
_cell_length_a   3.67167460
_cell_length_b   9.18498404
_cell_length_c   11.54822878
_cell_angle_alpha   90.00000000
_cell_angle_beta   90.00000000
_cell_angle_gamma   90.00000000
_symmetry_Int_Tables_number   1
_chemical_formula_structural   Tb2B6Os
_chemical_formula_sum   'Tb8 B24 Os4'
_cell_volume   389.45561544
_cell_formula_units_Z   4
loop_
 _symmetry_equiv_pos_site_id
 _symmetry_equiv_pos_as_xyz
  1  'x, y, z'
loop_
 _atom_site_type_symbol
 _atom_site_label
 _atom_site_symmetry_multiplicity
 _atom_site_fract_x
 _atom_site_fract_y
 _atom_site_fract_z
 _atom_site_occupancy
  Tb  Tb0  1  -0.00000000  0.32280799  0.41379429  1
  Tb  Tb1  1  0.00000000  0.67719201  0.58620571  1
  Tb  Tb2  1  0.00000000  0.82280799  0.08620571  1
  Tb  Tb3  1  0.00000000  0.17719201  0.91379429  1
  Tb  Tb4  1  -0.00000000  0.94418909  0.37345482  1
  Tb  Tb5  1  -0.00000000  0.05581091  0.62654518  1
  Tb  Tb6  1  0.00000000  0.44418909  0.12654518  1
  Tb  Tb7  1  0.00000000  0.55581091  0.87345482  1
  B  B0  1  0.50000000  0.55385642  0.43250457  1
  B  B1  1  0.50000000  0.44614358  0.56749543  1
  B  B2  1  0.50000000  0.05385642  0.06749543  1
  B  B3  1  0.50000000  0.94614358  0.93250457  1
  B  B4  1  0.50000000  0.74672697  0.41995519  1
  B  B5  1  0.50000000  0.25327303  0.58004481  1
  B  B6  1  0.50000000  0.24672697  0.08004481  1
  B  B7  1  0.50000000  0.75327303  0.91995519  1
  B  B8  1  0.50000000  0.79008691  0.26743474  1
  B  B9  1  0.50000000  0.20991309  0.73256526  1
  B  B10  1  0.50000000  0.29008691  0.23256526  1
  B  B11  1  0.50000000  0.70991309  0.76743474  1
  B  B12  1  0.50000000  0.63254472  0.18617104  1
  B  B13  1  0.50000000  0.36745528  0.81382896  1
  B  B14  1  0.50000000  0.13254472  0.31382896  1
  B  B15  1  0.50000000  0.86745528  0.68617104  1
  B  B16  1  0.50000000  0.98441574  0.21311127  1
  B  B17  1  0.50000000  0.01558426  0.78688873  1
  B  B18  1  0.50000000  0.48441574  0.28688873  1
  B  B19  1  0.50000000  0.51558426  0.71311127  1
  B  B20  1  0.50000000  0.61264840  0.03131129  1
  B  B21  1  0.50000000  0.38735160  0.96868871  1
  B  B22  1  0.50000000  0.11264840  0.46868871  1
  B  B23  1  0.50000000  0.88735160  0.53131129  1
  Os  Os0  1  -0.00000000  0.63739421  0.32167711  1
  Os  Os1  1  -0.00000000  0.36260579  0.67832289  1
  Os  Os2  1  -0.00000000  0.13739421  0.17832289  1
  Os  Os3  1  0.00000000  0.86260579  0.82167711  1
loop_
_geom_bond_atom_site_label_1
_geom_bond_atom_site_label_2
_geom_bond_distance
_geom_bond_site_symmetry_2
B0 B4 1.777431 1_555
B0 B18 1.798499 1_555
B0 B1 1.846343 1_555
B0 Os0 2.365815 1_655
B0 Os0 2.365815 1_555
B0 Tb1 2.793592 1_555
B0 Tb1 2.793592 1_655
B0 Tb0 2.814359 1_655
B0 Tb0 2.814359 1_555
B1 B5 1.777431 1_555
B1 B19 1.798499 1_555
B1 Os1 2.365815 1_655
B1 Os1 2.365815 1_555
B1 Tb0 2.793592 1_655
B1 Tb0 2.793592 1_555
B1 Tb1 2.814359 1_655
B1 Tb1 2.814359 1_555
B2 B6 1.777431 1_555
B2 B3 1.846343 1_544
B2 Os2 2.365815 1_555
B2 Os2 2.365815 1_655
B2 Tb3 2.793592 1_654
B2 Tb3 2.793592 1_554
B2 Tb2 2.814359 1_545
B2 Tb2 2.814359 1_645
B3 B7 1.777431 1_555
B3 Os3 2.365815 1_655
B3 Os3 2.365815 1_555
B3 Tb2 2.793592 1_556
B3 Tb2 2.793592 1_656
B3 Tb3 2.814359 1_565
B3 Tb3 2.814359 1_665
B4 B8 1.805806 1_555
B4 Os0 2.380512 1_555
B4 Os0 2.380512 1_655
B4 Tb4 2.635929 1_655
B4 Tb4 2.635929 1_555
B4 Tb1 2.732072 1_555
B4 Tb1 2.732072 1_655
B5 B9 1.805806 1_555
B5 Os1 2.380512 1_655
B5 Os1 2.380512 1_555
B5 Tb5 2.635929 1_555
B5 Tb5 2.635929 1_655
B5 Tb0 2.732072 1_555
B5 Tb0 2.732072 1_655
B6 Os2 2.380512 1_555
B6 Os2 2.380512 1_655
B6 Tb6 2.635929 1_655
B6 Tb6 2.635929 1_555
B6 Tb3 2.732072 1_554
B6 Tb3 2.732072 1_654
B7 Os3 2.380512 1_555
B7 Os3 2.380512 1_655
B7 Tb7 2.635929 1_655
B7 Tb7 2.635929 1_555
B7 Tb2 2.732072 1_556
B7 Tb2 2.732072 1_656
B8 Os0 2.393665 1_555
B8 Os0 2.393665 1_655
B8 Tb4 2.621593 1_555
B8 Tb4 2.621593 1_655
B8 Tb2 2.800133 1_655
B8 Tb2 2.800133 1_555
B9 Os1 2.393665 1_655
B9 Os1 2.393665 1_555
B9 Tb5 2.621593 1_555
B9 Tb5 2.621593 1_655
B9 Tb3 2.800133 1_655
B9 Tb3 2.800133 1_555
B10 B14 1.724693 1_555
B10 B6 1.805806 1_555
B10 B18 1.891943 1_555
B10 Os2 2.393665 1_655
B10 Os2 2.393665 1_555
B10 Tb6 2.621593 1_655
B10 Tb6 2.621593 1_555
B10 Tb0 2.800133 1_555
B10 Tb0 2.800133 1_655
B11 B15 1.724693 1_555
B11 B7 1.805806 1_555
B11 B19 1.891943 1_555
B11 Os3 2.393665 1_555
B11 Os3 2.393665 1_655
B11 Tb7 2.621593 1_555
B11 Tb7 2.621593 1_655
B11 Tb1 2.800133 1_555
B11 Tb1 2.800133 1_655
B12 B8 1.724693 1_555
B12 B18 1.789960 1_555
B12 B20 1.797669 1_555
B12 Os0 2.412686 1_655
B12 Os0 2.412686 1_555
B12 Tb6 2.614858 1_655
B12 Tb6 2.614858 1_555
B12 Tb2 2.785134 1_655
B12 Tb2 2.785134 1_555
B13 B9 1.724693 1_555
B13 B19 1.789960 1_555
B13 B21 1.797669 1_555
B13 Os1 2.412686 1_655
B13 Os1 2.412686 1_555
B13 Tb7 2.614858 1_655
B13 Tb7 2.614858 1_555
B13 Tb3 2.785134 1_655
B13 Tb3 2.785134 1_555
B14 B16 1.789960 1_545
B14 B22 1.797669 1_555
B14 Os2 2.412686 1_555
B14 Os2 2.412686 1_655
B14 Tb4 2.614858 1_545
B14 Tb4 2.614858 1_645
B14 Tb0 2.785134 1_555
B14 Tb0 2.785134 1_655
B15 B17 1.789960 1_565
B15 B23 1.797669 1_555
B15 Os3 2.412686 1_655
B15 Os3 2.412686 1_555
B15 Tb5 2.614858 1_665
B15 Tb5 2.614858 1_565
B15 Tb1 2.785134 1_555
B15 Tb1 2.785134 1_655
B16 B2 1.798499 1_565
B16 B8 1.891943 1_555
B16 Os2 2.346490 1_665
B16 Os2 2.346490 1_565
B16 Tb4 2.633543 1_555
B16 Tb4 2.633543 1_655
B16 Tb2 2.778746 1_555
B16 Tb2 2.778746 1_655
B17 B3 1.798499 1_545
B17 B9 1.891943 1_555
B17 Os3 2.346490 1_645
B17 Os3 2.346490 1_545
B17 Tb5 2.633543 1_555
B17 Tb5 2.633543 1_655
B17 Tb3 2.778746 1_555
B17 Tb3 2.778746 1_655
B18 Os0 2.346490 1_655
B18 Os0 2.346490 1_555
B18 Tb6 2.633543 1_655
B18 Tb6 2.633543 1_555
B18 Tb0 2.778746 1_555
B18 Tb0 2.778746 1_655
B19 Os1 2.346490 1_655
B19 Os1 2.346490 1_555
B19 Tb7 2.633543 1_555
B19 Tb7 2.633543 1_655
B19 Tb1 2.778746 1_655
B19 Tb1 2.778746 1_555
B20 B7 1.822643 1_554
B20 B21 2.192074 1_554
B20 Tb7 2.639324 1_654
B20 Tb7 2.639324 1_554
B20 Tb6 2.640823 1_655
B20 Tb6 2.640823 1_555
B20 Tb2 2.738298 1_555
B20 Tb2 2.738298 1_655
B21 B6 1.822643 1_556
B21 Tb6 2.639324 1_656
B21 Tb6 2.639324 1_556
B21 Tb7 2.640823 1_555
B21 Tb7 2.640823 1_655
B21 Tb3 2.738298 1_555
B21 Tb3 2.738298 1_655
B22 B5 1.822643 1_555
B22 B23 2.192074 1_545
B22 Tb5 2.639324 1_555
B22 Tb5 2.639324 1_655
B22 Tb4 2.640823 1_545
B22 Tb4 2.640823 1_645
B22 Tb0 2.738298 1_555
B22 Tb0 2.738298 1_655
B23 B4 1.822643 1_555
B23 Tb4 2.639324 1_655
B23 Tb4 2.639324 1_555
B23 Tb5 2.640823 1_565
B23 Tb5 2.640823 1_665
B23 Tb1 2.738298 1_555
B23 Tb1 2.738298 1_655
Os0 Tb6 2.868291 1_555
Os0 Tb4 2.880647 1_555
Os0 Tb1 3.076629 1_555
Os0 Tb0 3.079072 1_555
Os0 Tb2 3.208544 1_555
Os1 Tb7 2.868291 1_555
Os1 Tb5 2.880647 1_555
Os1 Tb0 3.076629 1_555
Os1 Tb1 3.079072 1_555
Os1 Tb3 3.208544 1_555
Os2 Tb4 2.868291 1_545
Os2 Tb6 2.880647 1_555
Os2 Tb3 3.076629 1_554
Os2 Tb2 3.079072 1_545
Os2 Tb0 3.208544 1_555
Os3 Tb5 2.868291 1_565
Os3 Tb7 2.880647 1_555
Os3 Tb2 3.076629 1_556
Os3 Tb3 3.079072 1_565
Os3 Tb1 3.208544 1_555
