# generated using pymatgen
data_GaAgGeS4
_symmetry_space_group_name_H-M   'P 1'
_cell_length_a   6.95447100
_cell_length_b   6.96897786
_cell_length_c   12.17745859
_cell_angle_alpha   74.45161046
_cell_angle_beta   82.40245747
_cell_angle_gamma   60.89169599
_symmetry_Int_Tables_number   1
_chemical_formula_structural   GaAgGeS4
_chemical_formula_sum   'Ga3 Ag3 Ge3 S12'
_cell_volume   496.77606203
_cell_formula_units_Z   3
loop_
 _symmetry_equiv_pos_site_id
 _symmetry_equiv_pos_as_xyz
  1  'x, y, z'
loop_
 _atom_site_type_symbol
 _atom_site_label
 _atom_site_symmetry_multiplicity
 _atom_site_fract_x
 _atom_site_fract_y
 _atom_site_fract_z
 _atom_site_occupancy
  Ga  Ga0  1  0.50302900  0.25210300  0.49789200  1
  Ga  Ga1  1  0.00889100  0.99709800  0.00073700  1
  Ga  Ga2  1  0.24357000  0.49390000  0.23164000  1
  Ag  Ag0  1  0.33383800  0.39011800  0.91801000  1
  Ag  Ag1  1  0.66382700  0.64261900  0.08715700  1
  Ag  Ag2  1  0.17202100  0.97121500  0.41692800  1
  Ge  Ge0  1  0.25819200  0.99276800  0.72552000  1
  Ge  Ge1  1  0.73945700  0.97008100  0.27300400  1
  Ge  Ge2  1  0.75150900  0.96674900  0.76831600  1
  S  S0  1  0.11756000  0.75146500  0.73921800  1
  S  S1  1  0.87228500  0.61307800  0.25799600  1
  S  S2  1  0.38065700  0.11525400  0.23761800  1
  S  S3  1  0.61529300  0.73772600  0.75955500  1
  S  S4  1  0.09682000  0.22087200  0.84847400  1
  S  S5  1  0.89725100  0.16515500  0.15147300  1
  S  S6  1  0.39989000  0.56945100  0.35543500  1
  S  S7  1  0.60521100  0.30730500  0.65473900  1
  S  S8  1  0.19286800  0.19960100  0.54696700  1
  S  S9  1  0.81060300  0.94380900  0.45160900  1
  S  S10  1  0.31014900  0.64365200  0.04493300  1
  S  S11  1  0.69326100  0.99914100  0.95127900  1
loop_
_geom_bond_atom_site_label_1
_geom_bond_atom_site_label_2
_geom_bond_distance
_geom_bond_site_symmetry_2
Ga0 S6 2.268011 1_555
Ga0 S7 2.306484 1_555
Ga0 S9 2.316943 1_545
Ga0 S8 2.335262 1_555
Ga1 S5 2.287972 1_465
Ga1 S10 2.304964 1_555
Ga1 S4 2.306877 1_564
Ga1 S11 2.344293 1_454
Ga2 S6 2.268787 1_555
Ga2 S1 2.301585 1_455
Ga2 S2 2.311949 1_555
Ga2 S10 2.322189 1_555
Ag0 S10 2.579023 1_556
Ag0 S11 2.624096 1_545
Ag0 S0 2.754197 1_555
Ag0 S4 2.760655 1_555
Ag1 S10 2.574780 1_555
Ag1 S1 2.597996 1_555
Ag1 S11 2.674740 1_554
Ag1 S5 2.829176 1_555
Ag2 S9 2.583698 1_455
Ag2 S8 2.588104 1_565
Ag2 S2 2.699065 1_565
Ag2 S6 2.721168 1_555
Ge0 S8 2.226125 1_565
Ge0 S3 2.254131 1_555
Ge0 S4 2.263680 1_565
Ge0 S0 2.284485 1_555
Ge1 S9 2.234211 1_555
Ge1 S2 2.242780 1_565
Ge1 S1 2.244928 1_555
Ge1 S5 2.277279 1_565
Ge2 S7 2.200858 1_565
Ge2 S3 2.246154 1_555
Ge2 S11 2.262997 1_555
Ge2 S0 2.277629 1_655
