# generated using pymatgen
data_HoAl3Ni2
_symmetry_space_group_name_H-M   'P 1'
_cell_length_a   8.93239134
_cell_length_b   8.93239134
_cell_length_c   4.03610700
_cell_angle_alpha   90.00000000
_cell_angle_beta   90.00000000
_cell_angle_gamma   119.99999421
_symmetry_Int_Tables_number   1
_chemical_formula_structural   HoAl3Ni2
_chemical_formula_sum   'Ho3 Al9 Ni6'
_cell_volume   278.88734749
_cell_formula_units_Z   3
loop_
 _symmetry_equiv_pos_site_id
 _symmetry_equiv_pos_as_xyz
  1  'x, y, z'
loop_
 _atom_site_type_symbol
 _atom_site_label
 _atom_site_symmetry_multiplicity
 _atom_site_fract_x
 _atom_site_fract_y
 _atom_site_fract_z
 _atom_site_occupancy
  Ho  Ho0  1  0.33333300  0.66666700  0.50000000  1
  Ho  Ho1  1  0.66666700  0.33333300  0.50000000  1
  Ho  Ho2  1  0.00000000  0.00000000  -0.00000000  1
  Al  Al0  1  0.50000000  0.00000000  -0.00000000  1
  Al  Al1  1  0.00000000  0.50000000  -0.00000000  1
  Al  Al2  1  0.50000000  0.50000000  -0.00000000  1
  Al  Al3  1  0.29734544  0.00000000  0.50000000  1
  Al  Al4  1  0.70265456  -0.00000000  0.50000000  1
  Al  Al5  1  0.00000000  0.29734544  0.50000000  1
  Al  Al6  1  -0.00000000  0.70265456  0.50000000  1
  Al  Al7  1  0.70265456  0.70265456  0.50000000  1
  Al  Al8  1  0.29734544  0.29734544  0.50000000  1
  Ni  Ni0  1  0.18099997  0.36200094  -0.00000000  1
  Ni  Ni1  1  0.81900003  0.63799906  0.00000000  1
  Ni  Ni2  1  0.63799906  0.81900003  -0.00000000  1
  Ni  Ni3  1  0.36200094  0.18099997  0.00000000  1
  Ni  Ni4  1  0.18099997  0.81900003  0.00000000  1
  Ni  Ni5  1  0.81900003  0.18099997  -0.00000000  1
loop_
_geom_bond_atom_site_label_1
_geom_bond_atom_site_label_2
_geom_bond_distance
_geom_bond_site_symmetry_2
Ho0 Ni4 3.102747 1_556
Ho0 Ni4 3.102747 1_555
Ho0 Ni0 3.102747 1_556
Ho0 Ni0 3.102747 1_555
Ho0 Ni2 3.102747 1_556
Ho0 Ni2 3.102747 1_555
Ho1 Ni5 3.102747 1_555
Ho1 Ni5 3.102747 1_556
Ho1 Ni3 3.102747 1_556
Ho1 Ni3 3.102747 1_555
Ho1 Ni1 3.102747 1_555
Ho1 Ni1 3.102747 1_556
Ho2 Ni5 2.800315 1_455
Ho2 Ni4 2.800315 1_545
Ho2 Ni1 2.800323 1_445
Ho2 Ni2 2.800323 1_445
Ho2 Ni3 2.800323 1_555
Ho2 Ni0 2.800323 1_555
Al0 Ni3 2.475136 1_555
Al0 Ni2 2.475136 1_545
Al0 Ni5 2.475143 1_555
Al0 Ni4 2.475143 1_545
Al0 Al3 2.710964 1_554
Al0 Al3 2.710964 1_555
Al0 Al4 2.710964 1_555
Al0 Al4 2.710964 1_554
Al0 Ho0 3.274369 1_544
Al0 Ho1 3.274369 1_554
Al0 Ho0 3.274369 1_545
Al0 Ho1 3.274369 1_555
Al1 Ni0 2.475136 1_555
Al1 Ni1 2.475136 1_455
Al1 Ni5 2.475143 1_455
Al1 Ni4 2.475143 1_555
Al1 Al5 2.710964 1_555
Al1 Al5 2.710964 1_554
Al1 Al6 2.710964 1_554
Al1 Al6 2.710964 1_555
Al1 Ho1 3.274369 1_454
Al1 Ho0 3.274369 1_554
Al1 Ho0 3.274369 1_555
Al1 Ho1 3.274369 1_455
Al2 Ni2 2.475144 1_555
Al2 Ni3 2.475144 1_555
Al2 Ni0 2.475144 1_555
Al2 Ni1 2.475144 1_555
Al2 Al8 2.710964 1_555
Al2 Al8 2.710964 1_554
Al2 Al7 2.710964 1_555
Al2 Al7 2.710964 1_554
Al2 Ho0 3.274375 1_554
Al2 Ho1 3.274375 1_555
Al2 Ho1 3.274375 1_554
Al2 Ho0 3.274375 1_555
Al3 Ni3 2.467038 1_556
Al3 Ni3 2.467038 1_555
Al3 Ni4 2.467038 1_545
Al3 Ni4 2.467038 1_546
Al3 Al8 2.656006 1_555
Al3 Al6 2.656006 1_545
Al3 Ho0 3.150512 1_545
Al3 Ho1 3.150517 1_555
Al4 Ni2 2.467038 1_546
Al4 Ni2 2.467038 1_545
Al4 Ni5 2.467038 1_555
Al4 Ni5 2.467038 1_556
Al4 Al7 2.656006 1_545
Al4 Al5 2.656006 1_655
Al4 Ho1 3.150512 1_555
Al4 Ho0 3.150517 1_545
Al5 Ni0 2.467038 1_556
Al5 Ni0 2.467038 1_555
Al5 Ni5 2.467038 1_456
Al5 Ni5 2.467038 1_455
Al5 Al8 2.656006 1_555
Al5 Ho1 3.150512 1_455
Al5 Ho0 3.150517 1_555
Al6 Ni1 2.467038 1_455
Al6 Ni1 2.467038 1_456
Al6 Ni4 2.467038 1_555
Al6 Ni4 2.467038 1_556
Al6 Al7 2.656006 1_455
Al6 Ho0 3.150512 1_555
Al6 Ho1 3.150517 1_455
Al7 Ni1 2.467042 1_555
Al7 Ni2 2.467042 1_556
Al7 Ni1 2.467042 1_556
Al7 Ni2 2.467042 1_555
Al7 Ho1 3.150521 1_555
Al7 Ho0 3.150521 1_555
Al8 Ni3 2.467042 1_556
Al8 Ni0 2.467042 1_556
Al8 Ni3 2.467042 1_555
Al8 Ni0 2.467042 1_555
Al8 Ho0 3.150521 1_555
Al8 Ho1 3.150521 1_555
Ni0 Ni5 2.800315 1_455
Ni0 Ni3 2.800330 1_555
Ni1 Ni4 2.800315 1_655
Ni1 Ni2 2.800330 1_555
Ni2 Ni5 2.800315 1_565
Ni3 Ni4 2.800315 1_545
