# generated using pymatgen
data_Li4V3CoCu2(PO4)6
_symmetry_space_group_name_H-M   'P 1'
_cell_length_a   8.60370503
_cell_length_b   8.85682743
_cell_length_c   8.86563906
_cell_angle_alpha   59.84062229
_cell_angle_beta   58.82557755
_cell_angle_gamma   59.15760912
_symmetry_Int_Tables_number   1
_chemical_formula_structural   Li4V3CoCu2(PO4)6
_chemical_formula_sum   'Li4 V3 Co1 Cu2 P6 O24'
_cell_volume   469.73360583
_cell_formula_units_Z   1
loop_
 _symmetry_equiv_pos_site_id
 _symmetry_equiv_pos_as_xyz
  1  'x, y, z'
loop_
 _atom_site_type_symbol
 _atom_site_label
 _atom_site_symmetry_multiplicity
 _atom_site_fract_x
 _atom_site_fract_y
 _atom_site_fract_z
 _atom_site_occupancy
  Li  Li0  1  0.24984236  0.85452807  0.64770080  1
  Li  Li1  1  0.72306765  0.15540100  0.34314066  1
  Li  Li2  1  0.72430193  0.77823795  0.15346585  1
  Li  Li3  1  0.72454925  0.34329700  0.78135969  1
  V  V0  1  0.07244098  0.64163419  0.64322953  1
  V  V1  1  0.42677088  0.85630819  0.85954774  1
  V  V2  1  0.93980652  0.35563032  0.35010642  1
  Co  Co0  1  0.55241369  0.15367272  0.14771610  1
  Cu  Cu0  1  0.00149325  0.00241901  0.01213360  1
  Cu  Cu1  1  0.49234029  0.48626535  0.50070925  1
  P  P0  1  0.25288576  0.24940596  0.54957179  1
  P  P1  1  0.25516452  0.94900466  0.24678138  1
  P  P2  1  0.25538002  0.54783508  0.94730703  1
  P  P3  1  0.75137744  0.46035582  0.04051110  1
  P  P4  1  0.76004434  0.04061654  0.74590590  1
  P  P5  1  0.74554362  0.75018311  0.45886220  1
  O  O0  1  0.07356377  0.11324734  0.30139748  1
  O  O1  1  0.07341418  0.50757194  0.10820979  1
  O  O2  1  0.07358651  0.30667679  0.50855720  1
  O  O3  1  0.23432884  0.08195320  0.73686442  1
  O  O4  1  0.44489996  0.19243090  0.39487427  1
  O  O5  1  0.25838496  0.40708862  0.57629698  1
  O  O6  1  0.23827692  0.92972138  0.09079902  1
  O  O7  1  0.26020005  0.76351046  0.41549889  1
  O  O8  1  0.56848034  0.61440075  0.00408453  1
  O  O9  1  0.26782496  0.57696481  0.75209152  1
  O  O10  1  0.77103571  0.26835953  0.05352839  1
  O  O11  1  0.58843112  0.99531389  0.79454100  1
  O  O12  1  0.44564666  0.97132938  0.18902797  1
  O  O13  1  0.23052406  0.74421586  0.92796084  1
  O  O14  1  0.73287602  0.43426885  0.23847901  1
  O  O15  1  0.44532449  0.39610452  0.96954232  1
  O  O16  1  0.74292120  0.23739667  0.58721377  1
  O  O17  1  0.76348063  0.06432250  0.90711107  1
  O  O18  1  0.74280693  0.59294721  0.42545760  1
  O  O19  1  0.54993926  0.80445945  0.61312212  1
  O  O20  1  0.76589803  0.91143186  0.26701769  1
  O  O21  1  0.91413685  0.69116298  0.51244660  1
  O  O22  1  0.93299060  0.50360285  0.88992599  1
  O  O23  1  0.95360643  0.88972428  0.68489945  1
loop_
_geom_bond_atom_site_label_1
_geom_bond_atom_site_label_2
_geom_bond_distance
_geom_bond_site_symmetry_2
Li0 O9 2.096663 1_555
Li0 O13 2.110814 1_555
Li0 O19 2.258365 1_555
Li0 O23 2.262826 1_455
Li0 O3 2.432074 1_565
Li0 O7 2.509901 1_555
Li1 O4 2.062909 1_555
Li1 O10 2.123433 1_555
Li1 O14 2.190494 1_555
Li1 O20 2.377322 1_545
Li2 O12 2.080176 1_555
Li2 O20 2.128936 1_555
Li2 O18 2.164832 1_555
Li2 O17 2.420102 1_564
Li3 O17 2.056750 1_555
Li3 O15 2.063020 1_555
Li3 O16 2.248519 1_555
Li3 O10 2.353835 1_556
Co0 O15 2.006167 1_554
Co0 O4 2.026499 1_555
Co0 O12 2.040734 1_545
Co0 O17 2.164824 1_554
Co0 O10 2.178931 1_555
Co0 O20 2.187674 1_545
Cu0 O6 2.173931 1_545
Cu0 O10 2.222736 1_455
Cu0 O20 2.228777 1_445
Cu0 O3 2.263440 1_554
Cu0 O13 2.289406 1_544
Cu0 O17 2.381342 1_454
Cu1 O5 2.138029 1_555
Cu1 O14 2.239937 1_555
Cu1 O9 2.257095 1_555
Cu1 O16 2.288068 1_555
Cu1 O7 2.293203 1_555
Cu1 O18 2.438763 1_555
O0 P1 1.544597 1_545
O0 V2 2.000806 1_455
O1 P2 1.536979 1_554
O1 V2 1.966109 1_455
O2 P0 1.536983 1_555
O2 V2 2.009084 1_455
O3 P0 1.573552 1_555
O3 V1 2.050808 1_545
O4 P0 1.536152 1_555
O5 P0 1.555837 1_555
O5 V0 2.018664 1_555
O6 P1 1.559944 1_555
O6 V1 2.017956 1_554
O7 P1 1.569462 1_555
O7 V0 2.018058 1_555
O8 P3 1.524452 1_555
O8 V1 1.974661 1_554
O9 P2 1.568818 1_555
O9 V0 2.054836 1_555
O10 P3 1.568970 1_555
O11 P4 1.517067 1_565
O11 V1 1.998842 1_555
O12 P1 1.532609 1_555
O13 P2 1.567540 1_555
O13 V1 2.063455 1_555
O14 P3 1.581184 1_555
O14 V2 2.119973 1_555
O15 P2 1.526756 1_555
O16 P4 1.589369 1_555
O16 V2 2.074928 1_555
O17 P4 1.561780 1_555
O18 P5 1.575716 1_555
O18 V2 2.079117 1_555
O19 P5 1.543356 1_555
O19 V1 2.054047 1_555
O20 P5 1.571763 1_555
O21 P5 1.513068 1_555
O21 V0 1.975628 1_655
O22 P3 1.520121 1_556
O22 V0 1.954008 1_655
O23 P4 1.537432 1_565
O23 V0 2.032487 1_655
