# generated using pymatgen
data_YMg5
_symmetry_space_group_name_H-M   'P 1'
_cell_length_a   17.33950751
_cell_length_b   17.33950751
_cell_length_c   10.51307064
_cell_angle_alpha   90.00000000
_cell_angle_beta   90.00000000
_cell_angle_gamma   158.14121122
_symmetry_Int_Tables_number   1
_chemical_formula_structural   YMg5
_chemical_formula_sum   'Y8 Mg40'
_cell_volume   1176.84654829
_cell_formula_units_Z   8
loop_
 _symmetry_equiv_pos_site_id
 _symmetry_equiv_pos_as_xyz
  1  'x, y, z'
loop_
 _atom_site_type_symbol
 _atom_site_label
 _atom_site_symmetry_multiplicity
 _atom_site_fract_x
 _atom_site_fract_y
 _atom_site_fract_z
 _atom_site_occupancy
  Y  Y0_0  1  0.38998745  0.11001254  0.00000000  1
  Y  Y0_1  1  0.38998745  0.11001254  0.50000000  1
  Y  Y0_2  1  0.38998745  0.61001254  0.00000000  1
  Y  Y0_3  1  0.38998745  0.61001254  0.50000000  1
  Y  Y0_4  1  0.88998745  0.11001254  0.00000000  1
  Y  Y0_5  1  0.88998745  0.11001254  0.50000000  1
  Y  Y0_6  1  0.88998746  0.61001254  0.00000000  1
  Y  Y0_7  1  0.88998746  0.61001254  0.50000000  1
  Mg  Mg0_0  1  0.49870778  0.00129222  0.25000000  1
  Mg  Mg0_1  1  0.49870778  0.00129222  0.75000000  1
  Mg  Mg0_2  1  0.49870778  0.50129221  0.25000000  1
  Mg  Mg0_3  1  0.49870778  0.50129221  0.75000000  1
  Mg  Mg0_4  1  0.99870778  0.00129222  0.25000000  1
  Mg  Mg0_5  1  0.99870778  0.00129222  0.75000000  1
  Mg  Mg0_6  1  0.99870779  0.50129221  0.25000000  1
  Mg  Mg0_7  1  0.99870779  0.50129221  0.75000000  1
  Mg  Mg1_0  1  0.16902085  0.33097914  0.25000000  1
  Mg  Mg1_1  1  0.16902085  0.33097914  0.75000000  1
  Mg  Mg1_2  1  0.16902086  0.83097914  0.25000000  1
  Mg  Mg1_3  1  0.16902086  0.83097914  0.75000000  1
  Mg  Mg1_4  1  0.66902085  0.33097914  0.25000000  1
  Mg  Mg1_5  1  0.66902085  0.33097914  0.75000000  1
  Mg  Mg1_6  1  0.66902086  0.83097914  0.25000000  1
  Mg  Mg1_7  1  0.66902086  0.83097914  0.75000000  1
  Mg  Mg2_0  1  0.33211732  0.16788268  0.25000000  1
  Mg  Mg2_1  1  0.33211732  0.16788268  0.75000000  1
  Mg  Mg2_2  1  0.33211732  0.66788268  0.25000000  1
  Mg  Mg2_3  1  0.33211732  0.66788268  0.75000000  1
  Mg  Mg2_4  1  0.83211731  0.16788268  0.25000000  1
  Mg  Mg2_5  1  0.83211731  0.16788268  0.75000000  1
  Mg  Mg2_6  1  0.83211732  0.66788268  0.25000000  1
  Mg  Mg2_7  1  0.83211732  0.66788268  0.75000000  1
  Mg  Mg3_0  1  0.05323353  0.44676647  0.00000000  1
  Mg  Mg3_1  1  0.05323353  0.44676647  0.50000000  1
  Mg  Mg3_2  1  0.05323353  0.94676647  0.00000000  1
  Mg  Mg3_3  1  0.05323353  0.94676647  0.50000000  1
  Mg  Mg3_4  1  0.55323353  0.44676647  0.00000000  1
  Mg  Mg3_5  1  0.55323353  0.44676647  0.50000000  1
  Mg  Mg3_6  1  0.55323353  0.94676647  0.00000000  1
  Mg  Mg3_7  1  0.55323353  0.94676647  0.50000000  1
  Mg  Mg4_0  1  0.22359957  0.27640043  0.00000000  1
  Mg  Mg4_1  1  0.22359957  0.27640043  0.50000000  1
  Mg  Mg4_2  1  0.22359957  0.77640043  0.00000000  1
  Mg  Mg4_3  1  0.22359957  0.77640043  0.50000000  1
  Mg  Mg4_4  1  0.72359957  0.27640043  0.00000000  1
  Mg  Mg4_5  1  0.72359957  0.27640043  0.50000000  1
  Mg  Mg4_6  1  0.72359957  0.77640043  0.00000000  1
  Mg  Mg4_7  1  0.72359957  0.77640043  0.50000000  1
loop_
_geom_bond_atom_site_label_1
_geom_bond_atom_site_label_2
_geom_bond_distance
_geom_bond_site_symmetry_2
Y0_0 Y0_6 3.287557 1_445
Y0_0 Y0_6 3.287557 1_555
Y0_1 Y0_7 3.287557 1_445
Y0_1 Y0_7 3.287557 1_555
Y0_2 Y0_4 3.287557 1_565
Y0_2 Y0_4 3.287557 1_455
Y0_3 Y0_5 3.287557 1_565
Y0_3 Y0_5 3.287557 1_455
Mg0_0 Mg1_2 3.172415 1_545
Mg0_0 Mg1_4 3.172415 1_555
Mg0_0 Mg4_5 3.215698 1_555
Mg0_0 Mg4_2 3.215698 1_545
Mg0_0 Mg4_3 3.215698 1_545
Mg0_0 Mg4_4 3.215698 1_555
Mg0_0 Mg3_7 3.217881 1_545
Mg0_0 Mg3_6 3.217881 1_545
Mg0_0 Mg2_4 3.281484 1_555
Mg0_0 Mg2_2 3.281484 1_545
Mg0_0 Mg0_6 3.287557 1_445
Mg0_0 Mg0_6 3.287557 1_555
Mg0_1 Mg1_3 3.172415 1_545
Mg0_1 Mg1_5 3.172415 1_555
Mg0_1 Mg4_2 3.215698 1_546
Mg0_1 Mg4_5 3.215698 1_555
Mg0_1 Mg4_4 3.215698 1_556
Mg0_1 Mg4_3 3.215698 1_545
Mg0_1 Mg3_7 3.217881 1_545
Mg0_1 Mg3_6 3.217881 1_546
Mg0_1 Mg2_5 3.281484 1_555
Mg0_1 Mg2_3 3.281484 1_545
Mg0_1 Mg0_7 3.287557 1_445
Mg0_1 Mg0_7 3.287557 1_555
Mg0_2 Mg1_6 3.172415 1_555
Mg0_2 Mg1_0 3.172415 1_555
Mg0_2 Mg4_7 3.215698 1_555
Mg0_2 Mg4_6 3.215698 1_555
Mg0_2 Mg4_0 3.215698 1_555
Mg0_2 Mg4_1 3.215698 1_555
Mg0_2 Mg3_4 3.217881 1_555
Mg0_2 Mg3_5 3.217881 1_555
Mg0_2 Mg2_0 3.281484 1_555
Mg0_2 Mg2_6 3.281484 1_555
Mg0_2 Mg0_4 3.287557 1_565
Mg0_2 Mg0_4 3.287557 1_455
Mg0_3 Mg1_7 3.172415 1_555
Mg0_3 Mg1_1 3.172415 1_555
Mg0_3 Mg4_7 3.215698 1_555
Mg0_3 Mg4_6 3.215698 1_556
Mg0_3 Mg4_1 3.215698 1_555
Mg0_3 Mg4_0 3.215698 1_556
Mg0_3 Mg3_5 3.217881 1_555
Mg0_3 Mg3_4 3.217881 1_556
Mg0_3 Mg2_1 3.281484 1_555
Mg0_3 Mg2_7 3.281484 1_555
Mg0_3 Mg0_5 3.287557 1_455
Mg0_3 Mg0_5 3.287557 1_565
Mg0_4 Mg1_6 3.172415 1_545
Mg0_4 Mg1_0 3.172415 1_655
Mg0_4 Mg4_7 3.215698 1_545
Mg0_4 Mg4_6 3.215698 1_545
Mg0_4 Mg4_0 3.215698 1_655
Mg0_4 Mg4_1 3.215698 1_655
Mg0_4 Mg3_2 3.217881 1_645
Mg0_4 Mg3_3 3.217881 1_645
Mg0_4 Mg2_6 3.281484 1_545
Mg0_4 Mg2_0 3.281484 1_655
Mg0_5 Mg1_7 3.172415 1_545
Mg0_5 Mg1_1 3.172415 1_655
Mg0_5 Mg4_7 3.215698 1_545
Mg0_5 Mg4_6 3.215698 1_546
Mg0_5 Mg4_1 3.215698 1_655
Mg0_5 Mg4_0 3.215698 1_656
Mg0_5 Mg3_2 3.217881 1_646
Mg0_5 Mg3_3 3.217881 1_645
Mg0_5 Mg2_7 3.281484 1_545
Mg0_5 Mg2_1 3.281484 1_655
Mg0_6 Mg1_2 3.172415 1_655
Mg0_6 Mg1_4 3.172415 1_555
Mg0_6 Mg4_3 3.215698 1_655
Mg0_6 Mg4_2 3.215698 1_655
Mg0_6 Mg4_5 3.215698 1_555
Mg0_6 Mg4_4 3.215698 1_555
Mg0_6 Mg3_0 3.217881 1_655
Mg0_6 Mg3_1 3.217881 1_655
Mg0_6 Mg2_4 3.281484 1_555
Mg0_6 Mg2_2 3.281484 1_655
Mg0_7 Mg1_3 3.172415 1_655
Mg0_7 Mg1_5 3.172415 1_555
Mg0_7 Mg4_3 3.215698 1_655
Mg0_7 Mg4_2 3.215698 1_656
Mg0_7 Mg4_5 3.215698 1_555
Mg0_7 Mg4_4 3.215698 1_556
Mg0_7 Mg3_1 3.217881 1_655
Mg0_7 Mg3_0 3.217881 1_656
Mg0_7 Mg2_5 3.281484 1_555
Mg0_7 Mg2_3 3.281484 1_655
Mg1_0 Mg4_0 3.218922 1_555
Mg1_0 Mg4_1 3.218922 1_555
Mg1_0 Y0_3 3.253783 1_555
Mg1_0 Y0_2 3.253783 1_555
Mg1_0 Y0_4 3.253783 1_455
Mg1_0 Y0_5 3.253783 1_455
Mg1_0 Mg1_6 3.287557 1_445
Mg1_0 Mg1_6 3.287557 1_555
Mg1_0 Mg2_2 3.384977 1_555
Mg1_0 Mg2_4 3.384977 1_455
Mg1_1 Mg4_1 3.218922 1_555
Mg1_1 Mg4_0 3.218922 1_556
Mg1_1 Y0_3 3.253783 1_555
Mg1_1 Y0_2 3.253783 1_556
Mg1_1 Y0_5 3.253783 1_455
Mg1_1 Y0_4 3.253783 1_456
Mg1_1 Mg1_7 3.287557 1_445
Mg1_1 Mg1_7 3.287557 1_555
Mg1_1 Mg2_3 3.384977 1_555
Mg1_1 Mg2_5 3.384977 1_455
Mg1_2 Mg4_3 3.218922 1_555
Mg1_2 Mg4_2 3.218922 1_555
Mg1_2 Y0_6 3.253783 1_455
Mg1_2 Y0_7 3.253783 1_455
Mg1_2 Y0_1 3.253783 1_565
Mg1_2 Y0_0 3.253783 1_565
Mg1_2 Mg1_4 3.287557 1_565
Mg1_2 Mg1_4 3.287557 1_455
Mg1_2 Mg2_6 3.384977 1_455
Mg1_2 Mg2_0 3.384977 1_565
Mg1_3 Mg4_3 3.218922 1_555
Mg1_3 Mg4_2 3.218922 1_556
Mg1_3 Y0_6 3.253783 1_456
Mg1_3 Y0_7 3.253783 1_455
Mg1_3 Y0_1 3.253783 1_565
Mg1_3 Y0_0 3.253783 1_566
Mg1_3 Mg1_5 3.287557 1_565
Mg1_3 Mg1_5 3.287557 1_455
Mg1_3 Mg2_7 3.384977 1_455
Mg1_3 Mg2_1 3.384977 1_565
Mg1_4 Mg4_4 3.218922 1_555
Mg1_4 Mg4_5 3.218922 1_555
Mg1_4 Y0_7 3.253783 1_555
Mg1_4 Y0_6 3.253783 1_555
Mg1_4 Y0_1 3.253783 1_555
Mg1_4 Y0_0 3.253783 1_555
Mg1_4 Mg2_6 3.384977 1_555
Mg1_4 Mg2_0 3.384977 1_555
Mg1_5 Mg4_5 3.218922 1_555
Mg1_5 Mg4_4 3.218922 1_556
Mg1_5 Y0_7 3.253783 1_555
Mg1_5 Y0_6 3.253783 1_556
Mg1_5 Y0_0 3.253783 1_556
Mg1_5 Y0_1 3.253783 1_555
Mg1_5 Mg2_7 3.384977 1_555
Mg1_5 Mg2_1 3.384977 1_555
Mg1_6 Mg4_7 3.218922 1_555
Mg1_6 Mg4_6 3.218922 1_555
Mg1_6 Y0_3 3.253783 1_555
Mg1_6 Y0_2 3.253783 1_555
Mg1_6 Y0_4 3.253783 1_565
Mg1_6 Y0_5 3.253783 1_565
Mg1_6 Mg2_2 3.384977 1_555
Mg1_6 Mg2_4 3.384977 1_565
Mg1_7 Mg4_7 3.218922 1_555
Mg1_7 Mg4_6 3.218922 1_556
Mg1_7 Y0_3 3.253783 1_555
Mg1_7 Y0_2 3.253783 1_556
Mg1_7 Y0_4 3.253783 1_566
Mg1_7 Y0_5 3.253783 1_565
Mg1_7 Mg2_3 3.384977 1_555
Mg1_7 Mg2_5 3.384977 1_565
Mg2_0 Mg3_2 3.252239 1_545
Mg2_0 Mg3_3 3.252239 1_545
Mg2_0 Mg3_4 3.252239 1_555
Mg2_0 Mg3_5 3.252239 1_555
Mg2_0 Y0_1 3.284901 1_555
Mg2_0 Y0_0 3.284901 1_555
Mg2_0 Mg2_6 3.287557 1_555
Mg2_0 Mg2_6 3.287557 1_445
Mg2_1 Mg3_2 3.252239 1_546
Mg2_1 Mg3_3 3.252239 1_545
Mg2_1 Mg3_5 3.252239 1_555
Mg2_1 Mg3_4 3.252239 1_556
Mg2_1 Y0_0 3.284901 1_556
Mg2_1 Y0_1 3.284901 1_555
Mg2_1 Mg2_7 3.287557 1_445
Mg2_1 Mg2_7 3.287557 1_555
Mg2_2 Mg3_6 3.252239 1_555
Mg2_2 Mg3_0 3.252239 1_555
Mg2_2 Mg3_7 3.252239 1_555
Mg2_2 Mg3_1 3.252239 1_555
Mg2_2 Y0_3 3.284901 1_555
Mg2_2 Y0_2 3.284901 1_555
Mg2_2 Mg2_4 3.287557 1_455
Mg2_2 Mg2_4 3.287557 1_565
Mg2_3 Mg3_7 3.252239 1_555
Mg2_3 Mg3_1 3.252239 1_555
Mg2_3 Mg3_0 3.252239 1_556
Mg2_3 Mg3_6 3.252239 1_556
Mg2_3 Y0_3 3.284901 1_555
Mg2_3 Y0_2 3.284901 1_556
Mg2_3 Mg2_5 3.287557 1_565
Mg2_3 Mg2_5 3.287557 1_455
Mg2_4 Mg3_6 3.252239 1_545
Mg2_4 Mg3_7 3.252239 1_545
Mg2_4 Mg3_1 3.252239 1_655
Mg2_4 Mg3_0 3.252239 1_655
Mg2_4 Y0_4 3.284901 1_555
Mg2_4 Y0_5 3.284901 1_555
Mg2_5 Mg3_6 3.252239 1_546
Mg2_5 Mg3_7 3.252239 1_545
Mg2_5 Mg3_1 3.252239 1_655
Mg2_5 Mg3_0 3.252239 1_656
Mg2_5 Y0_5 3.284901 1_555
Mg2_5 Y0_4 3.284901 1_556
Mg2_6 Mg3_2 3.252239 1_655
Mg2_6 Mg3_3 3.252239 1_655
Mg2_6 Mg3_4 3.252239 1_555
Mg2_6 Mg3_5 3.252239 1_555
Mg2_6 Y0_7 3.284901 1_555
Mg2_6 Y0_6 3.284901 1_555
Mg2_7 Mg3_2 3.252239 1_656
Mg2_7 Mg3_3 3.252239 1_655
Mg2_7 Mg3_5 3.252239 1_555
Mg2_7 Mg3_4 3.252239 1_556
Mg2_7 Y0_7 3.284901 1_555
Mg2_7 Y0_6 3.284901 1_556
Mg3_0 Mg4_2 3.170873 1_555
Mg3_0 Mg4_4 3.170873 1_455
Mg3_0 Mg3_6 3.287557 1_445
Mg3_0 Mg3_6 3.287557 1_555
Mg3_0 Y0_4 3.380525 1_455
Mg3_0 Y0_2 3.380525 1_555
Mg3_1 Mg4_3 3.170873 1_555
Mg3_1 Mg4_5 3.170873 1_455
Mg3_1 Mg3_7 3.287557 1_445
Mg3_1 Mg3_7 3.287557 1_555
Mg3_1 Y0_5 3.380525 1_455
Mg3_1 Y0_3 3.380525 1_555
Mg3_2 Mg4_6 3.170873 1_455
Mg3_2 Mg4_0 3.170873 1_565
Mg3_2 Mg3_4 3.287557 1_565
Mg3_2 Mg3_4 3.287557 1_455
Mg3_2 Y0_0 3.380525 1_565
Mg3_2 Y0_6 3.380525 1_455
Mg3_3 Mg4_7 3.170873 1_455
Mg3_3 Mg4_1 3.170873 1_565
Mg3_3 Mg3_5 3.287557 1_565
Mg3_3 Mg3_5 3.287557 1_455
Mg3_3 Y0_1 3.380525 1_565
Mg3_3 Y0_7 3.380525 1_455
Mg3_4 Mg4_6 3.170873 1_555
Mg3_4 Mg4_0 3.170873 1_555
Mg3_4 Y0_0 3.380525 1_555
Mg3_4 Y0_6 3.380525 1_555
Mg3_5 Mg4_7 3.170873 1_555
Mg3_5 Mg4_1 3.170873 1_555
Mg3_5 Y0_1 3.380525 1_555
Mg3_5 Y0_7 3.380525 1_555
Mg3_6 Mg4_2 3.170873 1_555
Mg3_6 Mg4_4 3.170873 1_565
Mg3_6 Y0_4 3.380525 1_565
Mg3_6 Y0_2 3.380525 1_555
Mg3_7 Mg4_3 3.170873 1_555
Mg3_7 Mg4_5 3.170873 1_565
Mg3_7 Y0_5 3.380525 1_565
Mg3_7 Y0_3 3.380525 1_555
Mg4_0 Y0_2 3.287456 1_555
Mg4_0 Y0_4 3.287456 1_455
Mg4_0 Mg4_6 3.287557 1_555
Mg4_0 Mg4_6 3.287557 1_445
Mg4_1 Y0_3 3.287456 1_555
Mg4_1 Y0_5 3.287456 1_455
Mg4_1 Mg4_7 3.287557 1_555
Mg4_1 Mg4_7 3.287557 1_445
Mg4_2 Y0_6 3.287456 1_455
Mg4_2 Y0_0 3.287456 1_565
Mg4_2 Mg4_4 3.287557 1_455
Mg4_2 Mg4_4 3.287557 1_565
Mg4_3 Y0_7 3.287456 1_455
Mg4_3 Y0_1 3.287456 1_565
Mg4_3 Mg4_5 3.287557 1_455
Mg4_3 Mg4_5 3.287557 1_565
Mg4_4 Y0_6 3.287456 1_555
Mg4_4 Y0_0 3.287456 1_555
Mg4_5 Y0_7 3.287456 1_555
Mg4_5 Y0_1 3.287456 1_555
Mg4_6 Y0_2 3.287456 1_555
Mg4_6 Y0_4 3.287456 1_565
Mg4_7 Y0_3 3.287456 1_555
Mg4_7 Y0_5 3.287456 1_565
