# generated using pymatgen
data_BaSrHf4O12
_symmetry_space_group_name_H-M   'P 1'
_cell_length_a   5.85790707
_cell_length_b   5.85790707
_cell_length_c   8.28392197
_cell_angle_alpha   90.00000000
_cell_angle_beta   90.00000000
_cell_angle_gamma   89.90541705
_symmetry_Int_Tables_number   1
_chemical_formula_structural   BaSrHf4O12
_chemical_formula_sum   'Ba1 Sr1 Hf4 O12'
_cell_volume   284.26301812
_cell_formula_units_Z   1
loop_
 _symmetry_equiv_pos_site_id
 _symmetry_equiv_pos_as_xyz
  1  'x, y, z'
loop_
 _atom_site_type_symbol
 _atom_site_label
 _atom_site_symmetry_multiplicity
 _atom_site_fract_x
 _atom_site_fract_y
 _atom_site_fract_z
 _atom_site_occupancy
  Ba  Ba0  1  0.50748211  0.50748211  0.00000000  1
  Sr  Sr0  1  0.98927697  0.98927697  0.50000000  1
  Hf  Hf0  1  0.49728502  0.00233075  0.74816335  1
  Hf  Hf1  1  0.49728502  0.00233075  0.25183665  1
  Hf  Hf2  1  0.00233075  0.49728502  0.25183665  1
  Hf  Hf3  1  0.00233075  0.49728502  0.74816335  1
  O  O0  1  0.73842047  0.26181998  0.74764368  1
  O  O1  1  0.26181998  0.73842047  0.74764368  1
  O  O2  1  0.26181998  0.73842047  0.25235632  1
  O  O3  1  0.73842047  0.26181998  0.25235632  1
  O  O4  1  0.76108842  0.76108842  0.75502522  1
  O  O5  1  0.22910999  0.22910999  0.72197817  1
  O  O6  1  0.22910999  0.22910999  0.27802183  1
  O  O7  1  0.76108842  0.76108842  0.24497478  1
  O  O8  1  0.49073178  0.01238966  -0.00000000  1
  O  O9  1  0.53340332  0.98800690  0.50000000  1
  O  O10  1  0.01238966  0.49073178  -0.00000000  1
  O  O11  1  0.98800690  0.53340332  0.50000000  1
loop_
_geom_bond_atom_site_label_1
_geom_bond_atom_site_label_2
_geom_bond_distance
_geom_bond_site_symmetry_2
Ba0 O1 2.874854 1_554
Ba0 O0 2.874854 1_554
Ba0 O2 2.874854 1_555
Ba0 O3 2.874854 1_555
Ba0 O10 2.902027 1_555
Ba0 O8 2.902027 1_555
Ba0 O4 2.922257 1_554
Ba0 O7 2.922257 1_555
Ba0 O8 2.959167 1_565
Ba0 O10 2.959167 1_655
Ba0 O6 3.260571 1_555
Ba0 O5 3.260571 1_554
Hf0 O5 2.067078 1_555
Hf0 O9 2.068313 1_545
Hf0 O1 2.073551 1_545
Hf0 O0 2.076775 1_555
Hf0 O8 2.087378 1_556
Hf0 O4 2.093119 1_545
Hf1 O6 2.067078 1_555
Hf1 O9 2.068313 1_545
Hf1 O2 2.073551 1_545
Hf1 O3 2.076775 1_555
Hf1 O8 2.087378 1_555
Hf1 O7 2.093119 1_545
Hf2 O6 2.067078 1_555
Hf2 O11 2.068313 1_455
Hf2 O3 2.073551 1_455
Hf2 O2 2.076775 1_555
Hf2 O10 2.087378 1_555
Hf2 O7 2.093119 1_455
Hf3 O5 2.067078 1_555
Hf3 O11 2.068313 1_455
Hf3 O0 2.073551 1_455
Hf3 O1 2.076775 1_555
Hf3 O10 2.087378 1_556
Hf3 O4 2.093119 1_455
O0 Sr0 2.984807 1_545
O1 Sr0 2.984807 1_455
O2 Sr0 2.984807 1_455
O3 Sr0 2.984807 1_545
O4 Sr0 2.835946 1_555
O5 Sr0 2.708410 1_445
O6 Sr0 2.708410 1_445
O7 Sr0 2.835946 1_555
O9 Sr0 2.670488 1_555
O9 Sr0 3.187438 1_455
O11 Sr0 2.670488 1_555
O11 Sr0 3.187438 1_545
