# generated using pymatgen
data_Li3TiV2O6
_symmetry_space_group_name_H-M   'P 1'
_cell_length_a   5.97305192
_cell_length_b   6.66170371
_cell_length_c   6.73182262
_cell_angle_alpha   97.10669850
_cell_angle_beta   64.22713904
_cell_angle_gamma   77.04890399
_symmetry_Int_Tables_number   1
_chemical_formula_structural   Li3TiV2O6
_chemical_formula_sum   'Li6 Ti2 V4 O12'
_cell_volume   227.49478805
_cell_formula_units_Z   2
loop_
 _symmetry_equiv_pos_site_id
 _symmetry_equiv_pos_as_xyz
  1  'x, y, z'
loop_
 _atom_site_type_symbol
 _atom_site_label
 _atom_site_symmetry_multiplicity
 _atom_site_fract_x
 _atom_site_fract_y
 _atom_site_fract_z
 _atom_site_occupancy
  Li  Li0  1  0.74677400  0.33480600  0.83956100  1
  Li  Li1  1  0.24815700  0.33506800  0.83881800  1
  Li  Li2  1  0.75312200  0.99556500  0.50162900  1
  Li  Li3  1  0.25272500  0.99540900  0.50145200  1
  Li  Li4  1  0.25338800  0.66965400  0.16103900  1
  Li  Li5  1  0.75354300  0.66956000  0.16111100  1
  Ti  Ti0  1  0.99571700  0.34072200  0.34267400  1
  Ti  Ti1  1  0.49624800  0.34057900  0.34165200  1
  V  V0  1  0.00152900  0.66734300  0.66605800  1
  V  V1  1  0.00389900  0.99186600  0.99322100  1
  V  V2  1  0.50180300  0.66762200  0.66627200  1
  V  V3  1  0.50391500  0.99155000  0.99313100  1
  O  O0  1  0.11876900  0.01943500  0.24038100  1
  O  O1  1  0.61910100  0.01911900  0.24029100  1
  O  O2  1  0.88393400  0.64909000  0.40892600  1
  O  O3  1  0.38406200  0.64886300  0.40924700  1
  O  O4  1  0.62602600  0.67309700  0.91583900  1
  O  O5  1  0.12613600  0.67348200  0.91547700  1
  O  O6  1  0.87550600  0.00275100  0.76074500  1
  O  O7  1  0.37540200  0.00261300  0.76085000  1
  O  O8  1  0.13902100  0.33093600  0.56128400  1
  O  O9  1  0.63864500  0.33134700  0.56158300  1
  O  O10  1  0.36365800  0.32495900  0.10882300  1
  O  O11  1  0.86327300  0.32497200  0.10892900  1
loop_
_geom_bond_atom_site_label_1
_geom_bond_atom_site_label_2
_geom_bond_distance
_geom_bond_site_symmetry_2
Li0 O6 2.087663 1_555
Li0 O4 2.127345 1_555
Li0 O11 2.209739 1_556
Li0 O9 2.228550 1_555
Li0 O10 2.239678 1_556
Li0 O8 2.267918 1_655
Li1 O7 2.090234 1_555
Li1 O5 2.128016 1_555
Li1 O10 2.210017 1_556
Li1 O8 2.229506 1_555
Li1 O11 2.249525 1_456
Li1 O9 2.258552 1_555
Li2 O9 2.117808 1_565
Li2 O7 2.155475 1_565
Li2 O6 2.164069 1_565
Li2 O2 2.176819 1_555
Li2 O0 2.184698 1_665
Li2 O1 2.235444 1_565
Li3 O8 2.116231 1_565
Li3 O6 2.152970 1_465
Li3 O7 2.167086 1_565
Li3 O3 2.177264 1_555
Li3 O1 2.186957 1_565
Li3 O0 2.233745 1_565
Li4 O5 2.098913 1_554
Li4 O4 2.125229 1_554
Li4 O3 2.136165 1_555
Li4 O2 2.159395 1_455
Li4 O10 2.179722 1_555
Li4 O0 2.200026 1_565
Li5 O4 2.098123 1_554
Li5 O5 2.127074 1_654
Li5 O2 2.132317 1_555
Li5 O3 2.160416 1_555
Li5 O11 2.179072 1_555
Li5 O1 2.198653 1_565
O0 Ti0 2.021242 1_455
O0 V1 2.060696 1_544
O0 V3 2.121163 1_544
O1 Ti1 2.022032 1_555
O1 V3 2.062026 1_544
O1 V1 2.120360 1_644
O2 Ti0 1.940162 1_555
O2 V0 2.132581 1_655
O2 V2 2.146717 1_555
O3 Ti1 1.939204 1_555
O3 V2 2.132611 1_555
O3 V0 2.147284 1_555
O4 V3 2.001626 1_555
O4 V2 2.110786 1_555
O4 V0 2.127280 1_655
O5 V1 2.001114 1_555
O5 V0 2.111448 1_555
O5 V2 2.126475 1_555
O6 V1 2.022232 1_645
O6 V0 2.107572 1_645
O6 V3 2.112545 1_545
O7 V3 2.021556 1_545
O7 V2 2.104917 1_545
O7 V1 2.111035 1_545
O8 Ti0 1.999201 1_455
O8 Ti1 2.021015 1_555
O8 V0 2.115282 1_555
O9 Ti1 2.003334 1_555
O9 Ti0 2.018344 1_555
O9 V2 2.114424 1_555
O10 Ti0 2.041152 1_455
O10 Ti1 2.042229 1_555
O10 V3 2.100502 1_544
O11 Ti1 2.035205 1_555
O11 Ti0 2.047362 1_555
O11 V1 2.098651 1_644
