# generated using pymatgen
data_Ti3Cr3Si5
_symmetry_space_group_name_H-M   'P 1'
_cell_length_a   4.94406100
_cell_length_b   8.08620000
_cell_length_c   8.97450757
_cell_angle_alpha   63.22362178
_cell_angle_beta   74.01114780
_cell_angle_gamma   90.00000000
_symmetry_Int_Tables_number   1
_chemical_formula_structural   Ti3Cr3Si5
_chemical_formula_sum   'Ti6 Cr6 Si10'
_cell_volume   304.68932767
_cell_formula_units_Z   2
loop_
 _symmetry_equiv_pos_site_id
 _symmetry_equiv_pos_as_xyz
  1  'x, y, z'
loop_
 _atom_site_type_symbol
 _atom_site_label
 _atom_site_symmetry_multiplicity
 _atom_site_fract_x
 _atom_site_fract_y
 _atom_site_fract_z
 _atom_site_occupancy
  Ti  Ti0  1  0.09378400  0.80892600  0.81243100  1
  Ti  Ti1  1  0.09378400  0.37864300  0.81243100  1
  Ti  Ti2  1  0.90621600  0.62135700  0.18756900  1
  Ti  Ti3  1  0.90621600  0.19107400  0.18756900  1
  Ti  Ti4  1  0.75662600  0.00000000  0.00000000  1
  Ti  Ti5  1  0.24337400  0.00000000  0.00000000  1
  Cr  Cr0  1  0.35599800  0.35599800  0.28800500  1
  Cr  Cr1  1  0.64400200  0.64400200  0.71199500  1
  Cr  Cr2  1  0.50000000  0.00000000  0.50000000  1
  Cr  Cr3  1  0.00000000  0.50000000  0.50000000  1
  Cr  Cr4  1  0.50000000  0.50000000  0.50000000  1
  Cr  Cr5  1  0.00000000  0.00000000  0.50000000  1
  Si  Si0  1  0.22040500  0.72040500  0.55919000  1
  Si  Si1  1  0.77959500  0.27959500  0.44081000  1
  Si  Si2  1  0.73904000  0.50000000  0.00000000  1
  Si  Si3  1  0.26096000  0.50000000  0.00000000  1
  Si  Si4  1  0.18275600  0.18275600  0.63448700  1
  Si  Si5  1  0.81724400  0.81724400  0.36551300  1
  Si  Si6  1  0.38801600  0.08952600  0.22396800  1
  Si  Si7  1  0.38801600  0.68650600  0.22396800  1
  Si  Si8  1  0.61198400  0.31349400  0.77603200  1
  Si  Si9  1  0.61198400  0.91047400  0.77603200  1
loop_
_geom_bond_atom_site_label_1
_geom_bond_atom_site_label_2
_geom_bond_distance
_geom_bond_site_symmetry_2
Ti0 Ti4 2.965991 1_466
Ti0 Ti5 2.965993 1_566
Ti1 Ti4 2.965990 1_456
Ti1 Ti5 2.965993 1_556
Ti2 Ti5 2.965990 1_665
Ti2 Ti4 2.965993 1_565
Ti3 Ti5 2.965991 1_655
Ti3 Ti4 2.965993 1_555
Ti4 Ti5 2.406512 1_655
Ti4 Ti5 2.537549 1_555
Cr0 Si7 2.462493 1_555
Cr0 Si6 2.462501 1_555
Cr0 Si2 2.492913 1_555
Cr0 Si3 2.492915 1_555
Cr0 Si4 2.640643 1_555
Cr0 Si1 2.732609 1_555
Cr0 Si1 2.732613 1_455
Cr1 Si8 2.462493 1_555
Cr1 Si9 2.462501 1_555
Cr1 Si3 2.492913 1_556
Cr1 Si2 2.492915 1_556
Cr1 Si5 2.640643 1_555
Cr1 Si0 2.732609 1_555
Cr1 Si0 2.732613 1_655
Cr2 Si1 2.412031 1_555
Cr2 Si0 2.412031 1_545
Cr2 Si9 2.471259 1_545
Cr2 Si6 2.471259 1_555
Cr2 Cr5 2.472030 1_655
Cr2 Cr5 2.472030 1_555
Cr2 Si4 2.581655 1_555
Cr2 Si5 2.581655 1_545
Cr2 Ti3 2.697586 1_555
Cr2 Ti0 2.697586 1_545
Cr3 Si0 2.412031 1_555
Cr3 Si1 2.412031 1_455
Cr3 Si8 2.471259 1_455
Cr3 Si7 2.471259 1_555
Cr3 Cr4 2.472030 1_555
Cr3 Cr4 2.472030 1_455
Cr3 Si5 2.581659 1_455
Cr3 Si4 2.581659 1_555
Cr3 Ti1 2.697584 1_555
Cr3 Ti2 2.697584 1_455
Cr4 Si1 2.412031 1_555
Cr4 Si0 2.412031 1_555
Cr4 Si8 2.471259 1_555
Cr4 Si7 2.471259 1_555
Cr4 Si5 2.581661 1_555
Cr4 Si4 2.581661 1_555
Cr4 Ti1 2.697586 1_555
Cr4 Ti2 2.697586 1_555
Cr5 Si0 2.412031 1_545
Cr5 Si1 2.412031 1_455
Cr5 Si9 2.471259 1_445
Cr5 Si6 2.471259 1_555
Cr5 Si4 2.581653 1_555
Cr5 Si5 2.581653 1_445
Cr5 Ti0 2.697584 1_545
Cr5 Ti3 2.697584 1_455
Si0 Ti1 2.598360 1_555
Si0 Ti0 2.598360 1_555
Si1 Ti2 2.598360 1_555
Si1 Ti3 2.598360 1_555
Si2 Si3 2.363657 1_555
Si2 Si3 2.580404 1_655
Si2 Ti0 2.595114 1_654
Si2 Ti1 2.595114 1_654
Si2 Ti3 2.595116 1_555
Si2 Ti2 2.595117 1_555
Si3 Ti3 2.595114 1_455
Si3 Ti2 2.595114 1_455
Si3 Ti0 2.595116 1_554
Si3 Ti1 2.595117 1_554
Si4 Ti0 2.672998 1_545
Si4 Ti1 2.673005 1_555
Si4 Ti4 3.034444 1_456
Si4 Ti5 3.034446 1_556
Si5 Ti3 2.672998 1_565
Si5 Ti2 2.673005 1_555
Si5 Ti5 3.034444 1_665
Si5 Ti4 3.034446 1_565
Si6 Ti3 2.577230 1_455
Si6 Ti3 2.577235 1_555
Si6 Ti4 2.679272 1_555
Si6 Ti5 2.679272 1_555
Si7 Ti2 2.577230 1_455
Si7 Ti2 2.577235 1_555
Si7 Ti4 2.679271 1_565
Si7 Ti5 2.679271 1_565
Si8 Ti1 2.577230 1_655
Si8 Ti1 2.577235 1_555
Si8 Ti5 2.679271 1_556
Si8 Ti4 2.679271 1_556
Si9 Ti0 2.577230 1_655
Si9 Ti0 2.577235 1_555
Si9 Ti5 2.679272 1_566
Si9 Ti4 2.679272 1_566
