# generated using pymatgen
data_Si2NiPd
_symmetry_space_group_name_H-M   'P 1'
_cell_length_a   3.37305789
_cell_length_b   5.37998642
_cell_length_c   5.87866812
_cell_angle_alpha   90.00000000
_cell_angle_beta   90.00000000
_cell_angle_gamma   90.00000000
_symmetry_Int_Tables_number   1
_chemical_formula_structural   Si2NiPd
_chemical_formula_sum   'Si4 Ni2 Pd2'
_cell_volume   106.68022354
_cell_formula_units_Z   2
loop_
 _symmetry_equiv_pos_site_id
 _symmetry_equiv_pos_as_xyz
  1  'x, y, z'
loop_
 _atom_site_type_symbol
 _atom_site_label
 _atom_site_symmetry_multiplicity
 _atom_site_fract_x
 _atom_site_fract_y
 _atom_site_fract_z
 _atom_site_occupancy
  Si  Si0  1  0.50000000  0.32456242  0.69504972  1
  Si  Si1  1  0.50000000  0.82456242  0.30495028  1
  Si  Si2  1  0.00000000  0.67979003  0.84912893  1
  Si  Si3  1  0.00000000  0.17979003  0.15087107  1
  Ni  Ni0  1  0.50000000  0.49374232  0.05488014  1
  Ni  Ni1  1  0.50000000  0.99374232  0.94511986  1
  Pd  Pd0  1  0.00000000  0.50190423  0.43389779  1
  Pd  Pd1  1  0.00000000  0.00190423  0.56610221  1
loop_
_geom_bond_atom_site_label_1
_geom_bond_atom_site_label_2
_geom_bond_distance
_geom_bond_site_symmetry_2
Si0 Si2 2.705032 1_655
Si0 Si2 2.705032 1_555
Si1 Si3 2.705032 1_565
Si1 Si3 2.705032 1_665
Ni0 Si0 2.302831 1_554
Ni0 Si2 2.304180 1_554
Ni0 Si2 2.304180 1_654
Ni0 Si1 2.308430 1_555
Ni0 Si3 2.452699 1_555
Ni0 Si3 2.452699 1_655
Ni0 Pd0 2.794785 1_655
Ni0 Pd0 2.794785 1_555
Ni1 Si1 2.302831 1_556
Ni1 Si3 2.304180 1_566
Ni1 Si3 2.304180 1_666
Ni1 Si0 2.308430 1_565
Ni1 Si2 2.452699 1_555
Ni1 Si2 2.452699 1_655
Ni1 Pd1 2.794785 1_565
Ni1 Pd1 2.794785 1_665
Pd0 Si3 2.402391 1_555
Pd0 Si0 2.472165 1_455
Pd0 Si0 2.472165 1_555
Pd0 Si1 2.536206 1_455
Pd0 Si1 2.536206 1_555
Pd0 Si2 2.621908 1_555
Pd1 Si2 2.402391 1_545
Pd1 Si1 2.472165 1_545
Pd1 Si1 2.472165 1_445
Pd1 Si0 2.536206 1_555
Pd1 Si0 2.536206 1_455
Pd1 Si3 2.621908 1_555
