# generated using pymatgen
data_BaHg2
_symmetry_space_group_name_H-M   'P 1'
_cell_length_a   5.17052867
_cell_length_b   6.67318760
_cell_length_c   6.67318809
_cell_angle_alpha   77.37454779
_cell_angle_beta   67.20651911
_cell_angle_gamma   67.20651851
_symmetry_Int_Tables_number   1
_chemical_formula_structural   BaHg2
_chemical_formula_sum   'Ba2 Hg4'
_cell_volume   195.05692768
_cell_formula_units_Z   2
loop_
 _symmetry_equiv_pos_site_id
 _symmetry_equiv_pos_as_xyz
  1  'x, y, z'
loop_
 _atom_site_type_symbol
 _atom_site_label
 _atom_site_symmetry_multiplicity
 _atom_site_fract_x
 _atom_site_fract_y
 _atom_site_fract_z
 _atom_site_occupancy
  Ba  Ba0  1  0.49905470  0.25094530  0.75094530  1
  Ba  Ba1  1  0.50094530  0.74905470  0.24905470  1
  Hg  Hg0  1  0.83364187  0.16510433  0.16761193  1
  Hg  Hg1  1  0.16635813  0.83489567  0.83238807  1
  Hg  Hg2  1  0.16635813  0.33238807  0.33489567  1
  Hg  Hg3  1  0.83364187  0.66761193  0.66510433  1
loop_
_geom_bond_atom_site_label_1
_geom_bond_atom_site_label_2
_geom_bond_distance
_geom_bond_site_symmetry_2
Ba0 Hg1 3.644078 1_545
Ba0 Hg1 3.644078 1_645
Ba0 Hg2 3.644078 1_655
Ba0 Hg2 3.644078 1_555
Ba0 Hg3 3.648987 1_555
Ba0 Hg3 3.648987 1_455
Ba0 Hg0 3.648988 1_456
Ba0 Hg0 3.648988 1_556
Ba0 Hg1 3.667040 1_555
Ba0 Hg2 3.667040 1_556
Ba0 Hg3 3.669212 1_545
Ba0 Hg0 3.669212 1_555
Ba1 Hg0 3.644078 1_565
Ba1 Hg0 3.644078 1_465
Ba1 Hg3 3.644078 1_455
Ba1 Hg3 3.644078 1_555
Ba1 Hg2 3.648987 1_555
Ba1 Hg2 3.648987 1_655
Ba1 Hg1 3.648988 1_654
Ba1 Hg1 3.648988 1_554
Ba1 Hg0 3.667040 1_555
Ba1 Hg3 3.667040 1_554
Ba1 Hg2 3.669212 1_565
Ba1 Hg1 3.669212 1_555
Hg0 Hg2 2.995421 1_555
Hg0 Hg2 2.995421 1_655
Hg0 Hg1 3.009189 1_644
Hg1 Hg3 2.995421 1_555
Hg1 Hg3 2.995421 1_455
Hg2 Hg3 3.009189 1_455
