# generated using pymatgen
data_HoH6C6Cl3(O3F2)3
_symmetry_space_group_name_H-M   'P 1'
_cell_length_a   19.81185700
_cell_length_b   9.35672200
_cell_length_c   10.66022962
_cell_angle_alpha   66.10983101
_cell_angle_beta   90.00000000
_cell_angle_gamma   90.00000000
_symmetry_Int_Tables_number   1
_chemical_formula_structural   HoH6C6Cl3(O3F2)3
_chemical_formula_sum   'Ho4 H24 C24 Cl12 O36 F24'
_cell_volume   1806.82184270
_cell_formula_units_Z   4
loop_
 _symmetry_equiv_pos_site_id
 _symmetry_equiv_pos_as_xyz
  1  'x, y, z'
loop_
 _atom_site_type_symbol
 _atom_site_label
 _atom_site_symmetry_multiplicity
 _atom_site_fract_x
 _atom_site_fract_y
 _atom_site_fract_z
 _atom_site_occupancy
  Ho  Ho0  1  0.42904300  0.70336300  0.47378500  1
  Ho  Ho1  1  0.92904300  0.29663700  0.02621500  1
  Ho  Ho2  1  0.57095700  0.29663700  0.52621500  1
  Ho  Ho3  1  0.07095700  0.70336300  0.97378500  1
  H  H0  1  0.28827000  0.68278800  0.56845500  1
  H  H1  1  0.78827000  0.31721200  0.93154500  1
  H  H2  1  0.71173000  0.31721200  0.43154500  1
  H  H3  1  0.21173000  0.68278800  0.06845500  1
  H  H4  1  0.28765100  0.57377500  0.48080100  1
  H  H5  1  0.78765100  0.42622500  0.01919900  1
  H  H6  1  0.71234900  0.42622500  0.51919900  1
  H  H7  1  0.21234900  0.57377500  0.98080100  1
  H  H8  1  0.38773600  0.86332300  0.16490500  1
  H  H9  1  0.88773600  0.13667700  0.33509500  1
  H  H10  1  0.61226400  0.13667700  0.83509500  1
  H  H11  1  0.11226400  0.86332300  0.66490500  1
  H  H12  1  0.31827800  0.83012400  0.24165700  1
  H  H13  1  0.81827800  0.16987600  0.25834300  1
  H  H14  1  0.68172200  0.16987600  0.75834300  1
  H  H15  1  0.18172200  0.83012400  0.74165700  1
  H  H16  1  0.45499800  0.05731700  0.40621000  1
  H  H17  1  0.95499800  0.94268300  0.09379000  1
  H  H18  1  0.54500200  0.94268300  0.59379000  1
  H  H19  1  0.04500200  0.05731700  0.90621000  1
  H  H20  1  0.46794100  0.02388100  0.27530600  1
  H  H21  1  0.96794100  0.97611900  0.22469400  1
  H  H22  1  0.53205900  0.97611900  0.72469400  1
  H  H23  1  0.03205900  0.02388100  0.77530600  1
  C  C0  1  0.58325300  0.63879600  0.59257000  1
  C  C1  1  0.08325300  0.36120400  0.90743000  1
  C  C2  1  0.41674700  0.36120400  0.40743000  1
  C  C3  1  0.91674700  0.63879600  0.09257000  1
  C  C4  1  0.46065600  0.35552300  0.74677600  1
  C  C5  1  0.96065600  0.64447700  0.75322400  1
  C  C6  1  0.53934400  0.64447700  0.25322400  1
  C  C7  1  0.03934400  0.35552300  0.24677600  1
  C  C8  1  0.33155100  0.83759800  0.66637700  1
  C  C9  1  0.83155100  0.16240200  0.83362300  1
  C  C10  1  0.66844900  0.16240200  0.33362300  1
  C  C11  1  0.16844900  0.83759800  0.16637700  1
  C  C12  1  0.65008000  0.67089000  0.65376500  1
  C  C13  1  0.15008000  0.32911000  0.84623500  1
  C  C14  1  0.34992000  0.32911000  0.34623500  1
  C  C15  1  0.84992000  0.67089000  0.15376500  1
  C  C16  1  0.44040400  0.27794900  0.90191000  1
  C  C17  1  0.94040400  0.72205100  0.59809000  1
  C  C18  1  0.55959600  0.72205100  0.09809000  1
  C  C19  1  0.05959600  0.27794900  0.40191000  1
  C  C20  1  0.33706300  0.93758600  0.75286500  1
  C  C21  1  0.83706300  0.06241400  0.74713500  1
  C  C22  1  0.66293700  0.06241400  0.24713500  1
  C  C23  1  0.16293700  0.93758600  0.25286500  1
  Cl  Cl0  1  0.65474000  0.54626500  0.83052300  1
  Cl  Cl1  1  0.15474000  0.45373500  0.66947700  1
  Cl  Cl2  1  0.34526000  0.45373500  0.16947700  1
  Cl  Cl3  1  0.84526000  0.54626500  0.33052300  1
  Cl  Cl4  1  0.35182900  0.26759700  0.92283000  1
  Cl  Cl5  1  0.85182900  0.73240300  0.57717000  1
  Cl  Cl6  1  0.64817100  0.73240300  0.07717000  1
  Cl  Cl7  1  0.14817100  0.26759700  0.42283000  1
  Cl  Cl8  1  0.35871000  0.81050800  0.92513400  1
  Cl  Cl9  1  0.85871000  0.18949200  0.57486600  1
  Cl  Cl10  1  0.64129000  0.18949200  0.07486600  1
  Cl  Cl11  1  0.14129000  0.81050800  0.42513400  1
  O  O0  1  0.53581400  0.73493400  0.57338900  1
  O  O1  1  0.03581400  0.26506600  0.92661100  1
  O  O2  1  0.46418600  0.26506600  0.42661100  1
  O  O3  1  0.96418600  0.73493400  0.07338900  1
  O  O4  1  0.41617000  0.48326200  0.42959000  1
  O  O5  1  0.91617000  0.51673800  0.07041000  1
  O  O6  1  0.58383000  0.51673800  0.57041000  1
  O  O7  1  0.08383000  0.48326200  0.92959000  1
  O  O8  1  0.43990200  0.49322300  0.68474900  1
  O  O9  1  0.93990200  0.50677700  0.81525100  1
  O  O10  1  0.56009800  0.50677700  0.31525100  1
  O  O11  1  0.06009800  0.49322300  0.18474900  1
  O  O12  1  0.50429600  0.72745100  0.29658100  1
  O  O13  1  0.00429600  0.27254900  0.20341900  1
  O  O14  1  0.49570400  0.27254900  0.70341900  1
  O  O15  1  0.99570400  0.72745100  0.79658100  1
  O  O16  1  0.38580500  0.82284300  0.61014800  1
  O  O17  1  0.88580500  0.17715700  0.88985200  1
  O  O18  1  0.61419500  0.17715700  0.38985200  1
  O  O19  1  0.11419500  0.82284300  0.11014800  1
  O  O20  1  0.27426700  0.78056300  0.66459500  1
  O  O21  1  0.77426700  0.21943700  0.83540500  1
  O  O22  1  0.72573300  0.21943700  0.33540500  1
  O  O23  1  0.22573300  0.78056300  0.16459500  1
  O  O24  1  0.31434400  0.64383700  0.50743000  1
  O  O25  1  0.81434400  0.35616300  0.99257000  1
  O  O26  1  0.68565600  0.35616300  0.49257000  1
  O  O27  1  0.18565600  0.64383700  0.00743000  1
  O  O28  1  0.36723200  0.83416600  0.25488900  1
  O  O29  1  0.86723200  0.16583400  0.24511100  1
  O  O30  1  0.63276800  0.16583400  0.74511100  1
  O  O31  1  0.13276800  0.83416600  0.75488900  1
  O  O32  1  0.46132200  0.97357500  0.37387200  1
  O  O33  1  0.96132200  0.02642500  0.12612800  1
  O  O34  1  0.53867800  0.02642500  0.62612800  1
  O  O35  1  0.03867800  0.97357500  0.87387200  1
  F  F0  1  0.70448600  0.64310600  0.58659000  1
  F  F1  1  0.20448600  0.35689400  0.91341000  1
  F  F2  1  0.29551400  0.35689400  0.41341000  1
  F  F3  1  0.79551400  0.64310600  0.08659000  1
  F  F4  1  0.65509100  0.82206400  0.63858500  1
  F  F5  1  0.15509100  0.17793600  0.86141500  1
  F  F6  1  0.34490900  0.17793600  0.36141500  1
  F  F7  1  0.84490900  0.82206400  0.13858500  1
  F  F8  1  0.46639300  0.13028500  0.96510900  1
  F  F9  1  0.96639300  0.86971500  0.53489100  1
  F  F10  1  0.53360700  0.86971500  0.03489100  1
  F  F11  1  0.03360700  0.13028500  0.46510900  1
  F  F12  1  0.46720400  0.36325800  0.96845700  1
  F  F13  1  0.96720400  0.63674200  0.53154300  1
  F  F14  1  0.53279600  0.63674200  0.03154300  1
  F  F15  1  0.03279600  0.36325800  0.46845700  1
  F  F16  1  0.27728200  0.00945200  0.75429500  1
  F  F17  1  0.77728200  0.99054800  0.74570500  1
  F  F18  1  0.72271800  0.99054800  0.24570500  1
  F  F19  1  0.22271800  0.00945200  0.25429500  1
  F  F20  1  0.38466400  0.05133300  0.70274400  1
  F  F21  1  0.88466400  0.94866700  0.79725600  1
  F  F22  1  0.61533600  0.94866700  0.29725600  1
  F  F23  1  0.11533600  0.05133300  0.20274400  1
loop_
_geom_bond_atom_site_label_1
_geom_bond_atom_site_label_2
_geom_bond_distance
_geom_bond_site_symmetry_2
Ho0 O4 2.305235 1_555
Ho0 O8 2.321289 1_555
Ho0 O16 2.326589 1_555
Ho0 O24 2.332564 1_555
Ho0 O12 2.344608 1_555
Ho0 O32 2.398862 1_555
Ho0 O0 2.437902 1_555
Ho0 O28 2.475773 1_555
Ho1 O5 2.305235 1_555
Ho1 O9 2.321289 1_554
Ho1 O17 2.326589 1_554
Ho1 O25 2.332564 1_554
Ho1 O13 2.344608 1_655
Ho1 O33 2.398862 1_555
Ho1 O1 2.437902 1_654
Ho1 O29 2.475773 1_555
Ho2 O6 2.305235 1_555
Ho2 O10 2.321289 1_555
Ho2 O18 2.326589 1_555
Ho2 O26 2.332564 1_555
Ho2 O14 2.344608 1_555
Ho2 O34 2.398862 1_555
Ho2 O2 2.437902 1_555
Ho2 O30 2.475773 1_555
Ho3 O7 2.305235 1_555
Ho3 O11 2.321289 1_556
Ho3 O19 2.326589 1_556
Ho3 O27 2.332564 1_556
Ho3 O15 2.344608 1_455
Ho3 O35 2.398862 1_555
Ho3 O3 2.437902 1_456
Ho3 O31 2.475773 1_555
H0 O24 1.007430 1_555
H0 O20 1.650371 1_555
H1 O25 1.007430 1_555
H1 O21 1.650371 1_555
H2 O26 1.007430 1_555
H2 O22 1.650371 1_555
H3 O27 1.007430 1_555
H3 O23 1.650371 1_555
H4 O24 0.969911 1_555
H5 O25 0.969911 1_554
H6 O26 0.969911 1_555
H7 O27 0.969911 1_556
H8 O28 0.973467 1_555
H9 O29 0.973467 1_555
H10 O30 0.973467 1_555
H11 O31 0.973467 1_555
H12 O28 0.983003 1_555
H13 O29 0.983003 1_555
H14 O30 0.983003 1_555
H15 O31 0.983003 1_555
H16 O32 0.983500 1_545
H17 O33 0.983500 1_565
H18 O34 0.983500 1_565
H19 O35 0.983500 1_545
H20 O32 0.970673 1_545
H21 O33 0.970673 1_565
H22 O34 0.970673 1_565
H23 O35 0.970673 1_545
C0 O6 1.256489 1_555
C0 O0 1.259096 1_555
C1 O7 1.256489 1_555
C1 O1 1.259096 1_555
C2 O4 1.256489 1_555
C2 O2 1.259096 1_555
C3 O5 1.256489 1_555
C3 O3 1.259096 1_555
C4 O8 1.255495 1_555
C4 O14 1.260617 1_555
C5 O9 1.255495 1_555
C5 O15 1.260617 1_555
C6 O10 1.255495 1_555
C6 O12 1.260617 1_555
C7 O11 1.255495 1_555
C7 O13 1.260617 1_555
C8 O20 1.257525 1_555
C8 O16 1.265202 1_555
C9 O21 1.257525 1_555
C9 O17 1.265202 1_555
C10 O22 1.257525 1_555
C10 O18 1.265202 1_555
C11 O23 1.257525 1_555
C11 O19 1.265202 1_555
C12 F4 1.360674 1_555
C12 F0 1.375865 1_555
C12 Cl0 1.771750 1_555
C13 F5 1.360674 1_555
C13 F1 1.375865 1_555
C13 Cl1 1.771750 1_555
C14 F6 1.360674 1_555
C14 F2 1.375865 1_555
C14 Cl2 1.771750 1_555
C15 F7 1.360674 1_555
C15 F3 1.375865 1_555
C15 Cl3 1.771750 1_555
C16 F8 1.368946 1_555
C16 F12 1.371484 1_555
C16 Cl4 1.766654 1_555
C17 F9 1.368946 1_555
C17 F13 1.371484 1_555
C17 Cl5 1.766654 1_555
C18 F10 1.368946 1_555
C18 F14 1.371484 1_555
C18 Cl6 1.766654 1_555
C19 F11 1.368946 1_555
C19 F15 1.371484 1_555
C19 Cl7 1.766654 1_555
C20 F20 1.359039 1_565
C20 F16 1.365077 1_565
C20 Cl8 1.789292 1_555
C21 F21 1.359039 1_545
C21 F17 1.365077 1_545
C21 Cl9 1.789292 1_555
C22 F22 1.359039 1_545
C22 F18 1.365077 1_545
C22 Cl10 1.789292 1_555
C23 F23 1.359039 1_565
C23 F19 1.365077 1_565
C23 Cl11 1.789292 1_555
