# generated using pymatgen
data_Tb(PO3)3
_symmetry_space_group_name_H-M   'P 1'
_cell_length_a   13.36765729
_cell_length_b   13.36765729
_cell_length_c   10.17944636
_cell_angle_alpha   84.25526307
_cell_angle_beta   84.25526307
_cell_angle_gamma   61.20354359
_symmetry_Int_Tables_number   1
_chemical_formula_structural   Tb(PO3)3
_chemical_formula_sum   'Tb8 P24 O72'
_cell_volume   1583.24777522
_cell_formula_units_Z   8
loop_
 _symmetry_equiv_pos_site_id
 _symmetry_equiv_pos_as_xyz
  1  'x, y, z'
loop_
 _atom_site_type_symbol
 _atom_site_label
 _atom_site_symmetry_multiplicity
 _atom_site_fract_x
 _atom_site_fract_y
 _atom_site_fract_z
 _atom_site_occupancy
  Tb  Tb0  1  0.97998000  0.25220500  0.23041300  1
  Tb  Tb1  1  0.74779500  0.02002000  0.26958700  1
  Tb  Tb2  1  0.02002000  0.74779500  0.76958700  1
  Tb  Tb3  1  0.25220500  0.97998000  0.73041300  1
  Tb  Tb4  1  0.48484900  0.24543200  0.73387800  1
  Tb  Tb5  1  0.75456800  0.51515100  0.76612200  1
  Tb  Tb6  1  0.51515100  0.75456800  0.26612200  1
  Tb  Tb7  1  0.24543200  0.48484900  0.23387800  1
  P  P0  1  0.15630800  0.22757700  0.93721400  1
  P  P1  1  0.77242300  0.84369200  0.56278600  1
  P  P2  1  0.84369200  0.77242300  0.06278600  1
  P  P3  1  0.22757700  0.15630800  0.43721400  1
  P  P4  1  0.21262300  0.35528000  0.56723900  1
  P  P5  1  0.64472000  0.78737700  0.93276100  1
  P  P6  1  0.78737700  0.64472000  0.43276100  1
  P  P7  1  0.35528000  0.21262300  0.06723900  1
  P  P8  1  0.04919100  0.46126400  0.79339000  1
  P  P9  1  0.53873600  0.95080900  0.70661000  1
  P  P10  1  0.95080900  0.53873600  0.20661000  1
  P  P11  1  0.46126400  0.04919100  0.29339000  1
  P  P12  1  0.52921600  0.47078400  0.25000000  1
  P  P13  1  0.47078400  0.52921600  0.75000000  1
  P  P14  1  0.71989100  0.35835300  0.05012900  1
  P  P15  1  0.64164700  0.28010900  0.44987100  1
  P  P16  1  0.28010900  0.64164700  0.94987100  1
  P  P17  1  0.35835300  0.71989100  0.55012900  1
  P  P18  1  0.73566700  0.15840600  0.92648400  1
  P  P19  1  0.84159400  0.26433300  0.57351600  1
  P  P20  1  0.26433300  0.84159400  0.07351600  1
  P  P21  1  0.15840600  0.73566700  0.42648400  1
  P  P22  1  0.95174600  0.04825400  0.75000000  1
  P  P23  1  0.04825400  0.95174600  0.25000000  1
  O  O0  1  0.14505000  0.21377800  0.33009000  1
  O  O1  1  0.78622200  0.85495000  0.16991000  1
  O  O2  1  0.85495000  0.78622200  0.66991000  1
  O  O3  1  0.21377800  0.14505000  0.83009000  1
  O  O4  1  0.05171200  0.23359100  0.01355700  1
  O  O5  1  0.76640900  0.94828800  0.48644300  1
  O  O6  1  0.94828800  0.76640900  0.98644300  1
  O  O7  1  0.23359100  0.05171200  0.51355700  1
  O  O8  1  0.21217200  0.41725500  0.43619500  1
  O  O9  1  0.58274500  0.78782800  0.06380500  1
  O  O10  1  0.78782800  0.58274500  0.56380500  1
  O  O11  1  0.41725500  0.21217200  0.93619500  1
  O  O12  1  0.30699400  0.32502200  0.65661400  1
  O  O13  1  0.67497800  0.69300600  0.84338600  1
  O  O14  1  0.69300600  0.67497800  0.34338600  1
  O  O15  1  0.32502200  0.30699400  0.15661400  1
  O  O16  1  0.93038300  0.47651200  0.81658900  1
  O  O17  1  0.52348800  0.06961700  0.68341100  1
  O  O18  1  0.06961700  0.52348800  0.18341100  1
  O  O19  1  0.47651200  0.93038300  0.31658900  1
  O  O20  1  0.06851300  0.56030900  0.81239800  1
  O  O21  1  0.43969100  0.93148700  0.68760200  1
  O  O22  1  0.93148700  0.43969100  0.18760200  1
  O  O23  1  0.56030900  0.06851300  0.31239800  1
  O  O24  1  0.41757700  0.46904000  0.27094400  1
  O  O25  1  0.53096000  0.58242300  0.22905600  1
  O  O26  1  0.58242300  0.53096000  0.72905600  1
  O  O27  1  0.46904000  0.41757700  0.77094400  1
  O  O28  1  0.71982100  0.46107100  0.97588300  1
  O  O29  1  0.53892900  0.28017900  0.52411700  1
  O  O30  1  0.28017900  0.53892900  0.02411700  1
  O  O31  1  0.46107100  0.71982100  0.47588300  1
  O  O32  1  0.81590000  0.28631300  0.13854000  1
  O  O33  1  0.71368700  0.18410000  0.36146000  1
  O  O34  1  0.18410000  0.71368700  0.86146000  1
  O  O35  1  0.28631300  0.81590000  0.63854000  1
  O  O36  1  0.66413900  0.16158000  0.81989400  1
  O  O37  1  0.83842000  0.33586100  0.68010600  1
  O  O38  1  0.33586100  0.83842000  0.18010600  1
  O  O39  1  0.16158000  0.66413900  0.31989400  1
  O  O40  1  0.72858600  0.10336100  0.06028100  1
  O  O41  1  0.89664000  0.27141400  0.43971900  1
  O  O42  1  0.27141400  0.89664000  0.93971900  1
  O  O43  1  0.10336000  0.72858600  0.56028100  1
  O  O44  1  0.95401500  0.93723400  0.73244400  1
  O  O45  1  0.06276600  0.04598500  0.76755600  1
  O  O46  1  0.04598500  0.06276600  0.26755600  1
  O  O47  1  0.93723400  0.95401500  0.23244400  1
  O  O48  1  0.24310600  0.20263200  0.04849200  1
  O  O49  1  0.79736800  0.75689400  0.45150800  1
  O  O50  1  0.75689400  0.79736800  0.95150800  1
  O  O51  1  0.20263200  0.24310600  0.54849200  1
  O  O52  1  0.09017700  0.42505600  0.64364400  1
  O  O53  1  0.57494400  0.90982300  0.85635600  1
  O  O54  1  0.90982300  0.57494400  0.35635600  1
  O  O55  1  0.42505600  0.09017700  0.14364400  1
  O  O56  1  0.13560200  0.35395600  0.88272400  1
  O  O57  1  0.64604400  0.86439800  0.61727600  1
  O  O58  1  0.86439800  0.64604400  0.11727600  1
  O  O59  1  0.35395600  0.13560200  0.38272400  1
  O  O60  1  0.59814600  0.39185700  0.12894400  1
  O  O61  1  0.60814300  0.40185400  0.37105600  1
  O  O62  1  0.40185400  0.60814300  0.87105600  1
  O  O63  1  0.39185700  0.59814600  0.62894400  1
  O  O64  1  0.70708200  0.28810200  0.94016700  1
  O  O65  1  0.71189800  0.29291800  0.55983300  1
  O  O66  1  0.29291800  0.71189800  0.05983300  1
  O  O67  1  0.28810200  0.70708200  0.44016700  1
  O  O68  1  0.86844300  0.10610500  0.87608200  1
  O  O69  1  0.89389500  0.13155700  0.62391800  1
  O  O70  1  0.13155700  0.89389500  0.12391800  1
  O  O71  1  0.10610500  0.86844300  0.37608200  1
loop_
_geom_bond_atom_site_label_1
_geom_bond_atom_site_label_2
_geom_bond_distance
_geom_bond_site_symmetry_2
O0 P3 1.500987 1_555
O0 Tb0 2.326877 1_455
O1 P2 1.500987 1_555
O1 Tb1 2.326877 1_565
O2 P1 1.500987 1_555
O2 Tb2 2.326877 1_655
O3 P0 1.500987 1_555
O3 Tb3 2.326877 1_545
O4 P0 1.500685 1_554
O4 Tb0 2.304489 1_455
O5 P1 1.500685 1_555
O5 Tb1 2.304489 1_565
O6 P2 1.500685 1_556
O6 Tb2 2.304489 1_655
O7 P3 1.500685 1_555
O7 Tb3 2.304489 1_545
O8 P4 1.497124 1_555
O8 Tb7 2.255381 1_555
O9 P5 1.497124 1_554
O9 Tb6 2.255381 1_555
O10 P6 1.497124 1_555
O10 Tb5 2.255381 1_555
O11 P7 1.497124 1_556
O11 Tb4 2.255381 1_555
O12 P4 1.499087 1_555
O12 Tb4 2.274417 1_555
O13 P5 1.499087 1_555
O13 Tb5 2.274417 1_555
O14 P6 1.499087 1_555
O14 Tb6 2.274417 1_555
O15 P7 1.499087 1_555
O15 Tb7 2.274417 1_555
O16 P8 1.497440 1_655
O16 Tb5 2.252420 1_555
O17 P9 1.497440 1_545
O17 Tb4 2.252420 1_555
O18 P10 1.497440 1_455
O18 Tb7 2.252420 1_555
O19 P11 1.497440 1_565
O19 Tb6 2.252420 1_555
O20 P8 1.499292 1_555
O20 Tb2 2.272472 1_555
O21 P9 1.499292 1_555
O21 Tb3 2.272472 1_555
O22 P10 1.499292 1_555
O22 Tb0 2.272472 1_555
O23 P11 1.499292 1_555
O23 Tb1 2.272472 1_555
O24 P12 1.497311 1_555
O24 Tb7 2.274155 1_555
O25 P12 1.497311 1_555
O25 Tb6 2.274155 1_555
O26 P13 1.497311 1_555
O26 Tb5 2.274155 1_555
O27 P13 1.497311 1_555
O27 Tb4 2.274155 1_555
O28 P14 1.499253 1_556
O28 Tb5 2.261324 1_555
O29 P15 1.499253 1_555
O29 Tb4 2.261324 1_555
O30 P16 1.499253 1_554
O30 Tb7 2.261324 1_555
O31 P17 1.499253 1_555
O31 Tb6 2.261324 1_555
O32 P14 1.500506 1_555
O32 Tb0 2.292423 1_555
O33 P15 1.500506 1_555
O33 Tb1 2.292423 1_555
O34 P16 1.500506 1_555
O34 Tb2 2.292423 1_555
O35 P17 1.500506 1_555
O35 Tb3 2.292423 1_555
O36 P18 1.500907 1_555
O36 Tb4 2.324372 1_555
O37 P19 1.500907 1_555
O37 Tb5 2.324372 1_555
O38 P20 1.500907 1_555
O38 Tb6 2.324372 1_555
O39 P21 1.500907 1_555
O39 Tb7 2.324372 1_555
O40 P18 1.498681 1_554
O40 Tb1 2.281527 1_555
O41 P19 1.498687 1_555
O41 Tb0 2.281523 1_555
O42 P20 1.498687 1_556
O42 Tb3 2.281523 1_555
O43 P21 1.498687 1_555
O43 Tb2 2.281523 1_555
O44 P22 1.497994 1_565
O44 Tb2 2.248733 1_655
O45 P22 1.497994 1_455
O45 Tb3 2.248733 1_545
O46 P23 1.497994 1_545
O46 Tb0 2.248733 1_455
O47 P23 1.497994 1_655
O47 Tb1 2.248733 1_565
O48 P0 1.598540 1_554
O48 P7 1.599404 1_555
O49 P1 1.598540 1_555
O49 P6 1.599404 1_555
O50 P2 1.598540 1_556
O50 P5 1.599404 1_555
O51 P3 1.598540 1_555
O51 P4 1.599404 1_555
O52 P4 1.604248 1_555
O52 P8 1.607192 1_555
O53 P5 1.604248 1_555
O53 P9 1.607192 1_555
O54 P6 1.604248 1_555
O54 P10 1.607192 1_555
O55 P7 1.604248 1_555
O55 P11 1.607192 1_555
O56 P8 1.603664 1_555
O56 P0 1.622027 1_555
O57 P9 1.603664 1_555
O57 P1 1.622027 1_555
O58 P10 1.603664 1_555
O58 P2 1.622027 1_555
O59 P11 1.603664 1_555
O59 P3 1.622027 1_555
O60 P12 1.605337 1_555
O60 P14 1.612817 1_555
O61 P12 1.605337 1_555
O61 P15 1.612817 1_555
O62 P13 1.605337 1_555
O62 P16 1.612817 1_555
O63 P13 1.605337 1_555
O63 P17 1.612817 1_555
O64 P14 1.602461 1_556
O64 P18 1.603337 1_555
O65 P15 1.602461 1_555
O65 P19 1.603337 1_555
O66 P16 1.602461 1_554
O66 P20 1.603337 1_555
O67 P17 1.602461 1_555
O67 P21 1.603337 1_555
O68 P22 1.602575 1_555
O68 P18 1.611314 1_555
O69 P22 1.602575 1_555
O69 P19 1.611314 1_555
O70 P23 1.602575 1_555
O70 P20 1.611314 1_555
O71 P23 1.602575 1_555
O71 P21 1.611314 1_555
