# generated using pymatgen
data_Y4Ti3SnO14
_symmetry_space_group_name_H-M   'P 1'
_cell_length_a   7.26399044
_cell_length_b   7.26399044
_cell_length_c   7.26399010
_cell_angle_alpha   59.96005650
_cell_angle_beta   59.96005650
_cell_angle_gamma   59.96005290
_symmetry_Int_Tables_number   1
_chemical_formula_structural   Y4Ti3SnO14
_chemical_formula_sum   'Y4 Ti3 Sn1 O14'
_cell_volume   270.78037143
_cell_formula_units_Z   1
loop_
 _symmetry_equiv_pos_site_id
 _symmetry_equiv_pos_as_xyz
  1  'x, y, z'
loop_
 _atom_site_type_symbol
 _atom_site_label
 _atom_site_symmetry_multiplicity
 _atom_site_fract_x
 _atom_site_fract_y
 _atom_site_fract_z
 _atom_site_occupancy
  Y  Y0  1  0.50000000  0.50000000  0.50000000  1
  Y  Y1  1  0.50000000  0.00000000  0.50000000  1
  Y  Y2  1  0.00000000  0.50000000  0.50000000  1
  Y  Y3  1  0.50000000  0.50000000  0.00000000  1
  Ti  Ti0  1  0.00000000  0.50000000  0.00000000  1
  Ti  Ti1  1  0.50000000  0.00000000  0.00000000  1
  Ti  Ti2  1  0.00000000  0.00000000  0.50000000  1
  Sn  Sn0  1  0.00000000  0.00000000  0.00000000  1
  O  O0  1  0.62401700  0.62401700  0.62401700  1
  O  O1  1  0.37598300  0.37598300  0.37598300  1
  O  O2  1  0.91163400  0.91163400  0.34462200  1
  O  O3  1  0.34462200  0.91163400  0.91163400  1
  O  O4  1  0.91163400  0.34462200  0.91163400  1
  O  O5  1  0.32471700  0.32471700  0.91956200  1
  O  O6  1  0.91956200  0.32471700  0.32471700  1
  O  O7  1  0.32471700  0.91956200  0.32471700  1
  O  O8  1  0.08836600  0.08836600  0.65537800  1
  O  O9  1  0.65537800  0.08836600  0.08836600  1
  O  O10  1  0.08836600  0.65537800  0.08836600  1
  O  O11  1  0.67528300  0.67528300  0.08043800  1
  O  O12  1  0.08043800  0.67528300  0.67528300  1
  O  O13  1  0.67528300  0.08043800  0.67528300  1
loop_
_geom_bond_atom_site_label_1
_geom_bond_atom_site_label_2
_geom_bond_distance
_geom_bond_site_symmetry_2
O0 Y0 2.207309 1_555
O0 Y3 2.228912 1_556
O0 Y1 2.228912 1_565
O0 Y2 2.228912 1_655
O1 Y0 2.207309 1_555
O1 Y3 2.228912 1_555
O1 Y1 2.228912 1_555
O1 Y2 2.228912 1_555
O2 Ti2 1.990265 1_665
O2 Sn0 2.070175 1_665
O2 Y2 2.459970 1_655
O2 Y1 2.459970 1_565
O3 Ti1 1.990265 1_566
O3 Sn0 2.070175 1_566
O3 Y1 2.459970 1_565
O3 Y3 2.459970 1_556
O4 Ti0 1.990265 1_656
O4 Sn0 2.070175 1_656
O4 Y2 2.459970 1_655
O4 Y3 2.459970 1_556
O5 Ti0 1.970869 1_556
O5 Ti1 1.970869 1_556
O5 Y0 2.526574 1_555
O5 Y3 2.587782 1_556
O6 Ti0 1.970869 1_655
O6 Ti2 1.970869 1_655
O6 Y0 2.526574 1_555
O6 Y2 2.587782 1_655
O7 Ti1 1.970869 1_565
O7 Ti2 1.970869 1_565
O7 Y0 2.526574 1_555
O7 Y1 2.587782 1_565
O8 Ti2 1.990265 1_555
O8 Sn0 2.070175 1_556
O8 Y2 2.459970 1_555
O8 Y1 2.459970 1_555
O9 Ti1 1.990265 1_555
O9 Sn0 2.070175 1_655
O9 Y1 2.459970 1_555
O9 Y3 2.459970 1_555
O10 Ti0 1.990265 1_555
O10 Sn0 2.070175 1_565
O10 Y2 2.459970 1_555
O10 Y3 2.459970 1_555
O11 Ti1 1.970869 1_565
O11 Ti0 1.970869 1_655
O11 Y0 2.526574 1_555
O11 Y3 2.587782 1_555
O12 Ti0 1.970869 1_556
O12 Ti2 1.970869 1_565
O12 Y0 2.526574 1_555
O12 Y2 2.587782 1_555
O13 Ti1 1.970869 1_556
O13 Ti2 1.970869 1_655
O13 Y0 2.526574 1_555
O13 Y1 2.587782 1_555
