# generated using pymatgen
data_CuH5N2Cl3
_symmetry_space_group_name_H-M   'P 1'
_cell_length_a   14.59673900
_cell_length_b   5.67711000
_cell_length_c   7.14277300
_cell_angle_alpha   90.00000000
_cell_angle_beta   90.00000000
_cell_angle_gamma   90.00000000
_symmetry_Int_Tables_number   1
_chemical_formula_structural   CuH5N2Cl3
_chemical_formula_sum   'Cu4 H20 N8 Cl12'
_cell_volume   591.90226263
_cell_formula_units_Z   4
loop_
 _symmetry_equiv_pos_site_id
 _symmetry_equiv_pos_as_xyz
  1  'x, y, z'
loop_
 _atom_site_type_symbol
 _atom_site_label
 _atom_site_symmetry_multiplicity
 _atom_site_fract_x
 _atom_site_fract_y
 _atom_site_fract_z
 _atom_site_occupancy
  Cu  Cu0  1  0.95393700  0.25000000  0.35190600  1
  Cu  Cu1  1  0.45393700  0.25000000  0.14809400  1
  Cu  Cu2  1  0.04606300  0.75000000  0.64809400  1
  Cu  Cu3  1  0.54606300  0.75000000  0.85190600  1
  H  H0  1  0.06862100  0.10247400  0.09811100  1
  H  H1  1  0.56862100  0.39752600  0.40188900  1
  H  H2  1  0.93137900  0.60247400  0.90188900  1
  H  H3  1  0.43137900  0.89752600  0.59811100  1
  H  H4  1  0.93137900  0.89752600  0.90188900  1
  H  H5  1  0.43137900  0.60247400  0.59811100  1
  H  H6  1  0.06862100  0.39752600  0.09811100  1
  H  H7  1  0.56862100  0.10247400  0.40188900  1
  H  H8  1  0.16894400  0.40003900  0.35012700  1
  H  H9  1  0.66894400  0.09996100  0.14987300  1
  H  H10  1  0.83105600  0.90003900  0.64987300  1
  H  H11  1  0.33105600  0.59996100  0.85012700  1
  H  H12  1  0.83105600  0.59996100  0.64987300  1
  H  H13  1  0.33105600  0.90003900  0.85012700  1
  H  H14  1  0.16894400  0.09996100  0.35012700  1
  H  H15  1  0.66894400  0.40003900  0.14987300  1
  H  H16  1  0.21441600  0.25000000  0.16418000  1
  H  H17  1  0.71441600  0.25000000  0.33582000  1
  H  H18  1  0.78558400  0.75000000  0.83582000  1
  H  H19  1  0.28558400  0.75000000  0.66418000  1
  N  N0  1  0.07166600  0.25000000  0.18284100  1
  N  N1  1  0.57166600  0.25000000  0.31715900  1
  N  N2  1  0.92833400  0.75000000  0.81715900  1
  N  N3  1  0.42833400  0.75000000  0.68284100  1
  N  N4  1  0.16200700  0.25000000  0.26641100  1
  N  N5  1  0.66200700  0.25000000  0.23358900  1
  N  N6  1  0.83799300  0.75000000  0.73358900  1
  N  N7  1  0.33799300  0.75000000  0.76641100  1
  Cl  Cl0  1  0.03918600  0.25000000  0.62238200  1
  Cl  Cl1  1  0.53918600  0.25000000  0.87761800  1
  Cl  Cl2  1  0.96081400  0.75000000  0.37761800  1
  Cl  Cl3  1  0.46081400  0.75000000  0.12238200  1
  Cl  Cl4  1  0.87843600  0.25000000  0.06795900  1
  Cl  Cl5  1  0.37843600  0.25000000  0.43204100  1
  Cl  Cl6  1  0.12156400  0.75000000  0.93204100  1
  Cl  Cl7  1  0.62156400  0.75000000  0.56795900  1
  Cl  Cl8  1  0.81963500  0.25000000  0.52859900  1
  Cl  Cl9  1  0.31963500  0.25000000  0.97140100  1
  Cl  Cl10  1  0.18036500  0.75000000  0.47140100  1
  Cl  Cl11  1  0.68036500  0.75000000  0.02859900  1
loop_
_geom_bond_atom_site_label_1
_geom_bond_atom_site_label_2
_geom_bond_distance
_geom_bond_site_symmetry_2
Cu0 N0 2.100329 1_655
Cu1 N1 2.100329 1_555
Cu2 N2 2.100329 1_455
Cu3 N3 2.100329 1_555
H0 N0 1.034260 1_555
H1 N1 1.034260 1_555
H2 N2 1.034260 1_555
H3 N3 1.034260 1_555
H4 N2 1.034260 1_555
H5 N3 1.034260 1_555
H6 N0 1.034260 1_555
H7 N1 1.034260 1_555
H8 N4 1.045637 1_555
H9 N5 1.045637 1_555
H10 N6 1.045637 1_555
H11 N7 1.045637 1_555
H12 N6 1.045637 1_555
H13 N7 1.045637 1_555
H14 N4 1.045637 1_555
H15 N5 1.045637 1_555
H16 N4 1.057562 1_555
H17 N5 1.057562 1_555
H18 N6 1.057562 1_555
H19 N7 1.057562 1_555
Cl0 Cu0 2.298010 1_455
Cl0 Cu2 2.846261 1_545
Cl0 Cu2 2.846261 1_555
Cl1 Cu1 2.298010 1_556
Cl1 Cu3 2.846261 1_545
Cl1 Cu3 2.846261 1_555
Cl2 Cu2 2.298010 1_655
Cl2 Cu0 2.846261 1_565
Cl2 Cu0 2.846261 1_555
Cl3 Cu3 2.298010 1_554
Cl3 Cu1 2.846261 1_555
Cl3 Cu1 2.846261 1_565
Cl4 Cu0 2.308251 1_555
Cl5 Cu1 2.308251 1_555
Cl6 Cu2 2.308251 1_555
Cl7 Cu3 2.308251 1_555
Cl8 H17 2.062744 1_555
Cl8 Cu0 2.331501 1_555
Cl9 H16 2.062744 1_556
Cl9 Cu1 2.331501 1_556
Cl10 H19 2.062744 1_555
Cl10 Cu2 2.331501 1_555
Cl11 H18 2.062744 1_554
Cl11 Cu3 2.331501 1_554
