# generated using pymatgen
data_KLiMg30O31
_symmetry_space_group_name_H-M   'P 1'
_cell_length_a   8.58585400
_cell_length_b   8.58726100
_cell_length_c   8.63545000
_cell_angle_alpha   90.00000000
_cell_angle_beta   90.00000000
_cell_angle_gamma   90.00000000
_symmetry_Int_Tables_number   1
_chemical_formula_structural   KLiMg30O31
_chemical_formula_sum   'K1 Li1 Mg30 O31'
_cell_volume   636.68282713
_cell_formula_units_Z   1
loop_
 _symmetry_equiv_pos_site_id
 _symmetry_equiv_pos_as_xyz
  1  'x, y, z'
loop_
 _atom_site_type_symbol
 _atom_site_label
 _atom_site_symmetry_multiplicity
 _atom_site_fract_x
 _atom_site_fract_y
 _atom_site_fract_z
 _atom_site_occupancy
  K  K0  1  0.00000000  0.00443200  0.00000000  1
  Li  Li0  1  0.50000000  0.00321900  0.50000000  1
  Mg  Mg0  1  0.50000000  0.02117100  0.00000000  1
  Mg  Mg1  1  0.00000000  0.00142500  0.50000000  1
  Mg  Mg2  1  0.00000000  0.50011400  0.00000000  1
  Mg  Mg3  1  0.50000000  0.47995400  0.00000000  1
  Mg  Mg4  1  0.00000000  0.49880400  0.50000000  1
  Mg  Mg5  1  0.50000000  0.49860300  0.50000000  1
  Mg  Mg6  1  0.25442800  0.99860400  0.25553400  1
  Mg  Mg7  1  0.74557200  0.99860400  0.25553400  1
  Mg  Mg8  1  0.25442800  0.99860400  0.74446600  1
  Mg  Mg9  1  0.74557200  0.99860400  0.74446600  1
  Mg  Mg10  1  0.25095300  0.50086800  0.25066400  1
  Mg  Mg11  1  0.74904700  0.50086800  0.25066400  1
  Mg  Mg12  1  0.25095300  0.50086800  0.74933600  1
  Mg  Mg13  1  0.74904700  0.50086800  0.74933600  1
  Mg  Mg14  1  0.22932600  0.75054800  0.00000000  1
  Mg  Mg15  1  0.77067400  0.75054800  0.00000000  1
  Mg  Mg16  1  0.24936400  0.75301000  0.50000000  1
  Mg  Mg17  1  0.75063600  0.75301000  0.50000000  1
  Mg  Mg18  1  0.24841800  0.25141700  0.00000000  1
  Mg  Mg19  1  0.75158200  0.25141700  0.00000000  1
  Mg  Mg20  1  0.25186600  0.24589000  0.50000000  1
  Mg  Mg21  1  0.74813400  0.24589000  0.50000000  1
  Mg  Mg22  1  0.00000000  0.75003100  0.25616800  1
  Mg  Mg23  1  0.50000000  0.75647200  0.27426800  1
  Mg  Mg24  1  0.00000000  0.75003100  0.74383200  1
  Mg  Mg25  1  0.50000000  0.75647200  0.72573200  1
  Mg  Mg26  1  0.00000000  0.25055500  0.25370100  1
  Mg  Mg27  1  0.50000000  0.24451000  0.25684200  1
  Mg  Mg28  1  0.00000000  0.25055500  0.74629900  1
  Mg  Mg29  1  0.50000000  0.24451000  0.74315800  1
  O  O0  1  0.00000000  0.72683000  0.00000000  1
  O  O1  1  0.00000000  0.74387000  0.50000000  1
  O  O2  1  0.50000000  0.74042800  0.50000000  1
  O  O3  1  0.00000000  0.27566500  0.00000000  1
  O  O4  1  0.50000000  0.25196300  0.00000000  1
  O  O5  1  0.00000000  0.25529200  0.50000000  1
  O  O6  1  0.50000000  0.25884600  0.50000000  1
  O  O7  1  0.25466900  0.74925700  0.24568800  1
  O  O8  1  0.74533100  0.74925700  0.24568800  1
  O  O9  1  0.25466900  0.74925700  0.75431200  1
  O  O10  1  0.74533100  0.74925700  0.75431200  1
  O  O11  1  0.25135000  0.24983200  0.24720100  1
  O  O12  1  0.74865000  0.24983200  0.24720100  1
  O  O13  1  0.25135000  0.24983200  0.75279900  1
  O  O14  1  0.74865000  0.24983200  0.75279900  1
  O  O15  1  0.27712800  0.98597500  0.00000000  1
  O  O16  1  0.72287200  0.98597500  0.00000000  1
  O  O17  1  0.24990100  0.99857500  0.50000000  1
  O  O18  1  0.75009900  0.99857500  0.50000000  1
  O  O19  1  0.26081100  0.50751700  0.00000000  1
  O  O20  1  0.73918900  0.50751700  0.00000000  1
  O  O21  1  0.25159000  0.50084900  0.50000000  1
  O  O22  1  0.74841000  0.50084900  0.50000000  1
  O  O23  1  0.00000000  0.99789600  0.27260500  1
  O  O24  1  0.50000000  0.99560900  0.24392000  1
  O  O25  1  0.00000000  0.99789600  0.72739500  1
  O  O26  1  0.50000000  0.99560900  0.75608000  1
  O  O27  1  0.00000000  0.50152300  0.25256100  1
  O  O28  1  0.50000000  0.50719500  0.24328000  1
  O  O29  1  0.00000000  0.50152300  0.74743900  1
  O  O30  1  0.50000000  0.50719500  0.75672000  1
loop_
_geom_bond_atom_site_label_1
_geom_bond_atom_site_label_2
_geom_bond_distance
_geom_bond_site_symmetry_2
K0 O3 2.329149 1_555
K0 O25 2.354736 1_544
K0 O23 2.354736 1_545
K0 O0 2.383841 1_545
K0 O15 2.384654 1_545
K0 O16 2.384654 1_445
Li0 O18 2.147684 1_545
Li0 O17 2.147684 1_545
Li0 O6 2.195136 1_555
Li0 O24 2.212331 1_545
Li0 O26 2.212331 1_545
Li0 O2 2.256655 1_545
Mg0 O16 1.937268 1_545
Mg0 O15 1.937268 1_545
Mg0 O4 1.981871 1_555
Mg0 O26 2.117766 1_544
Mg0 O24 2.117766 1_545
Mg1 O23 1.963892 1_545
Mg1 O25 1.963892 1_545
Mg1 O17 2.145753 1_545
Mg1 O18 2.145753 1_445
Mg1 O5 2.180022 1_555
Mg1 O1 2.211692 1_545
Mg2 O3 1.927402 1_555
Mg2 O0 1.946869 1_555
Mg2 O27 2.181011 1_555
Mg2 O29 2.181011 1_554
Mg2 O19 2.240187 1_555
Mg2 O20 2.240187 1_455
Mg3 O4 1.957818 1_555
Mg3 O20 2.067237 1_555
Mg3 O19 2.067237 1_555
Mg3 O30 2.113816 1_554
Mg3 O28 2.113816 1_555
Mg4 O5 2.091101 1_555
Mg4 O1 2.104446 1_555
Mg4 O29 2.136875 1_555
Mg4 O27 2.136875 1_555
Mg4 O21 2.160186 1_555
Mg4 O22 2.160186 1_455
Mg5 O6 2.058856 1_555
Mg5 O2 2.076614 1_555
Mg5 O21 2.132899 1_555
Mg5 O22 2.132899 1_555
Mg5 O28 2.218120 1_555
Mg5 O30 2.218120 1_555
Mg6 O24 2.110986 1_555
Mg6 O17 2.111432 1_555
Mg6 O7 2.142896 1_555
Mg6 O11 2.158722 1_565
Mg6 O23 2.189458 1_555
Mg6 O15 2.217894 1_555
Mg7 O24 2.110986 1_555
Mg7 O18 2.111432 1_555
Mg7 O8 2.142896 1_555
Mg7 O12 2.158722 1_565
Mg7 O23 2.189458 1_655
Mg7 O16 2.217894 1_555
Mg8 O26 2.110986 1_555
Mg8 O17 2.111432 1_555
Mg8 O9 2.142896 1_555
Mg8 O13 2.158722 1_565
Mg8 O25 2.189458 1_555
Mg8 O15 2.217894 1_556
Mg9 O26 2.110986 1_555
Mg9 O18 2.111432 1_555
Mg9 O10 2.142896 1_555
Mg9 O14 2.158722 1_565
Mg9 O25 2.189458 1_655
Mg9 O16 2.217894 1_556
Mg10 O7 2.133653 1_555
Mg10 O28 2.139922 1_555
Mg10 O21 2.153136 1_555
Mg10 O27 2.154715 1_555
Mg10 O11 2.155922 1_555
Mg10 O19 2.167003 1_555
Mg11 O8 2.133653 1_555
Mg11 O28 2.139922 1_555
Mg11 O22 2.153136 1_555
Mg11 O27 2.154715 1_655
Mg11 O12 2.155922 1_555
Mg11 O20 2.167003 1_555
Mg12 O9 2.133653 1_555
Mg12 O30 2.139922 1_555
Mg12 O21 2.153136 1_555
Mg12 O29 2.154715 1_555
Mg12 O13 2.155922 1_555
Mg12 O19 2.167003 1_556
Mg13 O10 2.133653 1_555
Mg13 O30 2.139922 1_555
Mg13 O22 2.153136 1_555
Mg13 O29 2.154715 1_655
Mg13 O14 2.155922 1_555
Mg13 O20 2.167003 1_556
Mg14 O0 1.979466 1_555
Mg14 O15 2.062912 1_555
Mg14 O19 2.104405 1_555
Mg14 O7 2.132784 1_555
Mg14 O9 2.132784 1_554
Mg15 O0 1.979466 1_655
Mg15 O16 2.062912 1_555
Mg15 O20 2.104405 1_555
Mg15 O8 2.132784 1_555
Mg15 O10 2.132784 1_554
Mg16 O17 2.108736 1_555
Mg16 O1 2.142441 1_555
Mg16 O2 2.154635 1_555
Mg16 O21 2.165457 1_555
Mg16 O7 2.196807 1_555
Mg16 O9 2.196807 1_555
Mg17 O18 2.108736 1_555
Mg17 O1 2.142441 1_655
Mg17 O2 2.154635 1_555
Mg17 O22 2.165457 1_555
Mg17 O8 2.196807 1_555
Mg17 O10 2.196807 1_555
Mg18 O11 2.134884 1_555
Mg18 O13 2.134884 1_554
Mg18 O3 2.143021 1_555
Mg18 O4 2.160051 1_555
Mg18 O19 2.201770 1_555
Mg18 O15 2.292709 1_545
Mg19 O12 2.134884 1_555
Mg19 O14 2.134884 1_554
Mg19 O3 2.143021 1_655
Mg19 O4 2.160051 1_555
Mg19 O20 2.201770 1_555
Mg19 O16 2.292709 1_545
Mg20 O17 2.123825 1_545
Mg20 O6 2.133345 1_555
Mg20 O5 2.163991 1_555
Mg20 O13 2.183300 1_555
Mg20 O11 2.183300 1_555
Mg20 O21 2.189401 1_555
Mg21 O18 2.123825 1_545
Mg21 O6 2.133345 1_555
Mg21 O5 2.163991 1_655
Mg21 O14 2.183300 1_555
Mg21 O12 2.183300 1_555
Mg21 O22 2.189401 1_555
Mg22 O1 2.106264 1_555
Mg22 O23 2.133209 1_555
Mg22 O27 2.134230 1_555
Mg22 O7 2.188433 1_555
Mg22 O8 2.188433 1_455
Mg22 O0 2.221080 1_555
Mg23 O2 1.954160 1_555
Mg23 O24 2.070187 1_555
Mg23 O8 2.121690 1_555
Mg23 O7 2.121690 1_555
Mg23 O28 2.157268 1_555
Mg24 O1 2.106264 1_555
Mg24 O25 2.133209 1_555
Mg24 O29 2.134230 1_555
Mg24 O9 2.188433 1_555
Mg24 O10 2.188433 1_455
Mg24 O0 2.221080 1_556
Mg25 O2 1.954160 1_555
Mg25 O26 2.070187 1_555
Mg25 O10 2.121690 1_555
Mg25 O9 2.121690 1_555
Mg25 O30 2.157268 1_555
Mg26 O5 2.127292 1_555
Mg26 O27 2.155150 1_555
Mg26 O12 2.158793 1_455
Mg26 O11 2.158793 1_555
Mg26 O23 2.175781 1_545
Mg26 O3 2.201408 1_555
Mg27 O6 2.103384 1_555
Mg27 O11 2.136984 1_555
Mg27 O12 2.136984 1_555
Mg27 O24 2.140289 1_545
Mg27 O4 2.218869 1_555
Mg27 O28 2.258783 1_555
Mg28 O5 2.127292 1_555
Mg28 O29 2.155150 1_555
Mg28 O14 2.158793 1_455
Mg28 O13 2.158793 1_555
Mg28 O25 2.175781 1_545
Mg28 O3 2.201408 1_556
Mg29 O6 2.103384 1_555
Mg29 O13 2.136984 1_555
Mg29 O14 2.136984 1_555
Mg29 O26 2.140289 1_545
Mg29 O4 2.218869 1_556
Mg29 O30 2.258783 1_555
