# generated using pymatgen
data_Mn3Ni8N9
_symmetry_space_group_name_H-M   'P 1'
_cell_length_a   5.86774213
_cell_length_b   9.63436200
_cell_length_c   14.76126786
_cell_angle_alpha   90.00000000
_cell_angle_beta   96.43804457
_cell_angle_gamma   90.00000000
_symmetry_Int_Tables_number   1
_chemical_formula_structural   Mn3Ni8N9
_chemical_formula_sum   'Mn12 Ni32 N36'
_cell_volume   829.22076757
_cell_formula_units_Z   4
loop_
 _symmetry_equiv_pos_site_id
 _symmetry_equiv_pos_as_xyz
  1  'x, y, z'
loop_
 _atom_site_type_symbol
 _atom_site_label
 _atom_site_symmetry_multiplicity
 _atom_site_fract_x
 _atom_site_fract_y
 _atom_site_fract_z
 _atom_site_occupancy
  Mn  Mn0  1  0.48310600  0.05703700  0.75994800  1
  Mn  Mn1  1  0.51689400  0.55703700  0.74005200  1
  Mn  Mn2  1  0.51689400  0.94296300  0.24005200  1
  Mn  Mn3  1  0.48310600  0.44296300  0.25994800  1
  Mn  Mn4  1  0.76393800  0.83184000  0.55343500  1
  Mn  Mn5  1  0.23606200  0.33184000  0.94656500  1
  Mn  Mn6  1  0.23606200  0.16816000  0.44656500  1
  Mn  Mn7  1  0.76393800  0.66816000  0.05343500  1
  Mn  Mn8  1  0.76955000  0.36935500  0.59100100  1
  Mn  Mn9  1  0.23045000  0.86935500  0.90899900  1
  Mn  Mn10  1  0.23045000  0.63064500  0.40899900  1
  Mn  Mn11  1  0.76955000  0.13064500  0.09100100  1
  Ni  Ni0  1  0.54858200  0.87898600  0.08353100  1
  Ni  Ni1  1  0.45141800  0.37898600  0.41646900  1
  Ni  Ni2  1  0.45141800  0.12101400  0.91646900  1
  Ni  Ni3  1  0.54858200  0.62101400  0.58353100  1
  Ni  Ni4  1  0.57865000  0.06712800  0.58241800  1
  Ni  Ni5  1  0.42135000  0.56712800  0.91758200  1
  Ni  Ni6  1  0.42135000  0.93287200  0.41758200  1
  Ni  Ni7  1  0.57865000  0.43287200  0.08241800  1
  Ni  Ni8  1  0.80804300  0.84241100  0.74454800  1
  Ni  Ni9  1  0.19195700  0.34241100  0.75545200  1
  Ni  Ni10  1  0.19195700  0.15758900  0.25545200  1
  Ni  Ni11  1  0.80804300  0.65758900  0.24454800  1
  Ni  Ni12  1  0.73876700  0.32024700  0.78883000  1
  Ni  Ni13  1  0.26123300  0.82024700  0.71117000  1
  Ni  Ni14  1  0.26123300  0.67975300  0.21117000  1
  Ni  Ni15  1  0.73876700  0.17975300  0.28883000  1
  Ni  Ni16  1  0.82883100  0.32806200  0.97448800  1
  Ni  Ni17  1  0.17116900  0.82806200  0.52551200  1
  Ni  Ni18  1  0.17116900  0.67193800  0.02551200  1
  Ni  Ni19  1  0.82883100  0.17193800  0.47448800  1
  Ni  Ni20  1  0.00443300  0.09573000  0.90062600  1
  Ni  Ni21  1  0.99556700  0.59573000  0.59937400  1
  Ni  Ni22  1  0.99556700  0.90427000  0.09937400  1
  Ni  Ni23  1  0.00443300  0.40427000  0.40062600  1
  Ni  Ni24  1  0.98055300  0.10515200  0.64625000  1
  Ni  Ni25  1  0.01944700  0.60515200  0.85375000  1
  Ni  Ni26  1  0.01944700  0.89484800  0.35375000  1
  Ni  Ni27  1  0.98055300  0.39484800  0.14625000  1
  Ni  Ni28  1  0.29581000  0.32448200  0.58583200  1
  Ni  Ni29  1  0.70419000  0.82448200  0.91416800  1
  Ni  Ni30  1  0.70419000  0.67551800  0.41416800  1
  Ni  Ni31  1  0.29581000  0.17551800  0.08583200  1
  N  N0  1  0.52289100  0.44410500  0.63509300  1
  N  N1  1  0.47710900  0.94410500  0.86490700  1
  N  N2  1  0.47710900  0.55589500  0.36490700  1
  N  N3  1  0.52289100  0.05589500  0.13509300  1
  N  N4  1  0.45385500  0.22891600  0.79915200  1
  N  N5  1  0.54614500  0.72891600  0.70084800  1
  N  N6  1  0.54614500  0.77108400  0.20084800  1
  N  N7  1  0.45385500  0.27108400  0.29915200  1
  N  N8  1  0.75687400  0.13207600  0.97333700  1
  N  N9  1  0.24312600  0.63207600  0.52666300  1
  N  N10  1  0.24312600  0.86792400  0.02666300  1
  N  N11  1  0.75687400  0.36792400  0.47333700  1
  N  N12  1  0.47400300  0.88563400  0.54179600  1
  N  N13  1  0.52599700  0.38563400  0.95820400  1
  N  N14  1  0.52599700  0.11436600  0.45820400  1
  N  N15  1  0.47400300  0.61436600  0.04179600  1
  N  N16  1  0.72894600  0.03159400  0.69709300  1
  N  N17  1  0.27105400  0.53159400  0.80290700  1
  N  N18  1  0.27105400  0.96840600  0.30290700  1
  N  N19  1  0.72894600  0.46840600  0.19709300  1
  N  N20  1  0.04962900  0.41536900  0.64031900  1
  N  N21  1  0.95037100  0.91536900  0.85968100  1
  N  N22  1  0.95037100  0.58463100  0.35968100  1
  N  N23  1  0.04962900  0.08463100  0.14031900  1
  N  N24  1  0.01526800  0.27979600  0.85747800  1
  N  N25  1  0.98473200  0.77979600  0.64252200  1
  N  N26  1  0.98473200  0.72020400  0.14252200  1
  N  N27  1  0.01526800  0.22020400  0.35747800  1
  N  N28  1  0.11287300  0.17264700  0.54808500  1
  N  N29  1  0.88712700  0.67264700  0.95191500  1
  N  N30  1  0.88712700  0.82735300  0.45191500  1
  N  N31  1  0.11287300  0.32735300  0.04808500  1
  N  N32  1  0.23496500  0.01136400  0.69744900  1
  N  N33  1  0.76503500  0.51136400  0.80255100  1
  N  N34  1  0.76503500  0.98863600  0.30255100  1
  N  N35  1  0.23496500  0.48863600  0.19744900  1
loop_
_geom_bond_atom_site_label_1
_geom_bond_atom_site_label_2
_geom_bond_distance
_geom_bond_site_symmetry_2
Mn0 N32 1.692196 1_555
Mn0 N4 1.768836 1_555
Mn0 N16 1.817131 1_555
Mn0 N1 1.896757 1_545
Mn1 N33 1.692196 1_555
Mn1 N5 1.768836 1_555
Mn1 N17 1.817131 1_555
Mn1 N0 1.896757 1_555
Mn2 N34 1.692196 1_555
Mn2 N6 1.768836 1_555
Mn2 N18 1.817131 1_555
Mn2 N3 1.896757 1_565
Mn3 N35 1.692196 1_555
Mn3 N7 1.768836 1_555
Mn3 N19 1.817131 1_555
Mn3 N2 1.896757 1_555
Mn4 N30 1.735795 1_555
Mn4 N12 1.768297 1_555
Mn4 N25 1.810289 1_555
Mn5 N31 1.735795 1_556
Mn5 N13 1.768297 1_555
Mn5 N24 1.810289 1_555
Mn6 N28 1.735795 1_555
Mn6 N14 1.768297 1_555
Mn6 N27 1.810289 1_555
Mn7 N29 1.735795 1_554
Mn7 N15 1.768297 1_555
Mn7 N26 1.810289 1_555
Mn8 N11 1.730164 1_555
Mn8 N20 1.777377 1_655
Mn8 N0 1.802296 1_555
Mn9 N10 1.730164 1_556
Mn9 N21 1.777377 1_455
Mn9 N1 1.802296 1_555
Mn10 N9 1.730164 1_555
Mn10 N22 1.777377 1_455
Mn10 N2 1.802296 1_555
Mn11 N8 1.730164 1_554
Mn11 N23 1.777377 1_655
Mn11 N3 1.802296 1_555
N0 Ni28 1.848009 1_555
N0 Ni3 1.879563 1_555
N1 Ni29 1.848009 1_555
N1 Ni2 1.879563 1_565
N2 Ni30 1.848009 1_555
N2 Ni1 1.879563 1_555
N3 Ni31 1.848009 1_555
N3 Ni0 1.879563 1_545
N4 Ni12 1.910359 1_555
N4 Ni9 1.936761 1_555
N4 Ni2 2.021239 1_555
N5 Ni13 1.910359 1_555
N5 Ni8 1.936761 1_555
N5 Ni3 2.021239 1_555
N6 Ni14 1.910359 1_555
N6 Ni11 1.936761 1_555
N6 Ni0 2.021239 1_555
N7 Ni15 1.910359 1_555
N7 Ni10 1.936761 1_555
N7 Ni1 2.021239 1_555
N8 Ni2 1.895016 1_555
N8 Ni20 1.932441 1_655
N8 Ni16 1.934490 1_555
N9 Ni3 1.895016 1_555
N9 Ni21 1.932441 1_455
N9 Ni17 1.934490 1_555
N10 Ni0 1.895016 1_555
N10 Ni22 1.932441 1_455
N10 Ni18 1.934490 1_555
N11 Ni1 1.895016 1_555
N11 Ni23 1.932441 1_655
N11 Ni19 1.934490 1_555
N12 Ni17 1.851272 1_555
N12 Ni6 1.880815 1_555
N12 Ni4 1.926542 1_565
N13 Ni16 1.851272 1_555
N13 Ni7 1.880815 1_556
N13 Ni5 1.926542 1_555
N14 Ni19 1.851272 1_555
N14 Ni4 1.880815 1_555
N14 Ni6 1.926542 1_545
N15 Ni18 1.851272 1_555
N15 Ni5 1.880815 1_554
N15 Ni7 1.926542 1_555
N16 Ni4 1.850828 1_555
N16 Ni24 1.869126 1_555
N16 Ni8 1.988787 1_545
N17 Ni5 1.850828 1_555
N17 Ni25 1.869126 1_555
N17 Ni9 1.988787 1_555
N18 Ni6 1.850828 1_555
N18 Ni26 1.869126 1_555
N18 Ni10 1.988787 1_565
N19 Ni7 1.850828 1_555
N19 Ni27 1.869126 1_555
N19 Ni11 1.988787 1_555
N20 Ni21 1.855372 1_455
N20 Ni28 1.939289 1_555
N20 Ni9 1.939478 1_555
N21 Ni20 1.855372 1_665
N21 Ni29 1.939289 1_555
N21 Ni8 1.939478 1_555
N22 Ni23 1.855372 1_655
N22 Ni30 1.939289 1_555
N22 Ni11 1.939478 1_555
N23 Ni22 1.855372 1_445
N23 Ni31 1.939289 1_555
N23 Ni10 1.939478 1_555
N24 Ni12 1.855351 1_455
N24 Ni20 1.887747 1_555
N24 Ni9 2.014222 1_555
N24 Ni16 2.195451 1_455
N25 Ni13 1.855351 1_655
N25 Ni21 1.887747 1_555
N25 Ni8 2.014222 1_555
N25 Ni17 2.195451 1_655
N26 Ni14 1.855351 1_655
N26 Ni22 1.887747 1_555
N26 Ni11 2.014222 1_555
N26 Ni18 2.195451 1_655
N27 Ni15 1.855351 1_455
N27 Ni23 1.887747 1_555
N27 Ni10 2.014222 1_555
N27 Ni19 2.195451 1_455
N28 Ni24 1.837852 1_455
N28 Ni28 1.862381 1_555
N28 Ni19 1.884692 1_455
N29 Ni25 1.837852 1_655
N29 Ni29 1.862381 1_555
N29 Ni18 1.884692 1_656
N30 Ni26 1.837852 1_655
N30 Ni30 1.862381 1_555
N30 Ni17 1.884692 1_655
N31 Ni27 1.837852 1_455
N31 Ni31 1.862381 1_555
N31 Ni16 1.884692 1_454
N32 Ni24 1.833892 1_455
N32 Ni13 1.856914 1_545
N33 Ni25 1.833892 1_655
N33 Ni12 1.856914 1_555
N34 Ni26 1.833892 1_655
N34 Ni15 1.856914 1_565
N35 Ni27 1.833892 1_455
N35 Ni14 1.856914 1_555
