# generated using pymatgen
data_CeB5BrO11
_symmetry_space_group_name_H-M   'P 1'
_cell_length_a   14.85531900
_cell_length_b   6.57093900
_cell_length_c   12.52230815
_cell_angle_alpha   59.13031386
_cell_angle_beta   90.00000000
_cell_angle_gamma   90.00000000
_symmetry_Int_Tables_number   1
_chemical_formula_structural   CeB5BrO11
_chemical_formula_sum   'Ce4 B20 Br4 O44'
_cell_volume   1049.18332433
_cell_formula_units_Z   4
loop_
 _symmetry_equiv_pos_site_id
 _symmetry_equiv_pos_as_xyz
  1  'x, y, z'
loop_
 _atom_site_type_symbol
 _atom_site_label
 _atom_site_symmetry_multiplicity
 _atom_site_fract_x
 _atom_site_fract_y
 _atom_site_fract_z
 _atom_site_occupancy
  Ce  Ce0  1  0.80689100  0.99189800  0.68527100  1
  Ce  Ce1  1  0.69310900  0.99189800  0.18527100  1
  Ce  Ce2  1  0.19310900  0.00810200  0.31472900  1
  Ce  Ce3  1  0.30689100  0.00810200  0.81472900  1
  B  B0  1  0.75393600  0.40615400  0.71926900  1
  B  B1  1  0.74606400  0.40615400  0.21926900  1
  B  B2  1  0.24606400  0.59384600  0.28073100  1
  B  B3  1  0.25393600  0.59384600  0.78073100  1
  B  B4  1  0.70894200  0.50818600  0.87090600  1
  B  B5  1  0.79105800  0.50818600  0.37090600  1
  B  B6  1  0.29105800  0.49181400  0.12909400  1
  B  B7  1  0.20894200  0.49181400  0.62909400  1
  B  B8  1  0.83353700  0.10680200  0.40726200  1
  B  B9  1  0.66646300  0.10680200  0.90726200  1
  B  B10  1  0.16646300  0.89319800  0.59273800  1
  B  B11  1  0.33353700  0.89319800  0.09273800  1
  B  B12  1  0.03382000  0.11415900  0.59041800  1
  B  B13  1  0.46618000  0.11415900  0.09041800  1
  B  B14  1  0.96618000  0.88584100  0.40958200  1
  B  B15  1  0.53382000  0.88584100  0.90958200  1
  B  B16  1  0.82957700  0.67145200  0.50722100  1
  B  B17  1  0.67042300  0.67145200  0.00722100  1
  B  B18  1  0.17042300  0.32854800  0.49277900  1
  B  B19  1  0.32957700  0.32854800  0.99277900  1
  Br  Br0  1  0.61455500  0.10389300  0.56870100  1
  Br  Br1  1  0.88544500  0.10389300  0.06870100  1
  Br  Br2  1  0.38544500  0.89610700  0.43129900  1
  Br  Br3  1  0.11455500  0.89610700  0.93129900  1
  O  O0  1  0.80340100  0.88080000  0.51471500  1
  O  O1  1  0.69659900  0.88080000  0.01471500  1
  O  O2  1  0.19659900  0.11920000  0.48528500  1
  O  O3  1  0.30340100  0.11920000  0.98528500  1
  O  O4  1  0.80144000  0.44645700  0.61797300  1
  O  O5  1  0.69856000  0.44645700  0.11797300  1
  O  O6  1  0.19856000  0.55354300  0.38202700  1
  O  O7  1  0.30144000  0.55354300  0.88202700  1
  O  O8  1  0.94742500  0.11177100  0.63575200  1
  O  O9  1  0.55257500  0.11177100  0.13575200  1
  O  O10  1  0.05257500  0.88822900  0.36424800  1
  O  O11  1  0.44742500  0.88822900  0.86424800  1
  O  O12  1  0.71846500  0.68356700  0.89688000  1
  O  O13  1  0.78153500  0.68356700  0.39688000  1
  O  O14  1  0.28153500  0.31643300  0.10312000  1
  O  O15  1  0.21846500  0.31643300  0.60312000  1
  O  O16  1  0.07461800  0.32762700  0.51500800  1
  O  O17  1  0.42538200  0.32762700  0.01500800  1
  O  O18  1  0.92538200  0.67237300  0.48499200  1
  O  O19  1  0.57461800  0.67237300  0.98499200  1
  O  O20  1  0.72463900  0.17849900  0.79480500  1
  O  O21  1  0.77536100  0.17849900  0.29480500  1
  O  O22  1  0.27536100  0.82150100  0.20519500  1
  O  O23  1  0.22463900  0.82150100  0.70519500  1
  O  O24  1  0.07401200  0.90205300  0.62433400  1
  O  O25  1  0.42598800  0.90205300  0.12433400  1
  O  O26  1  0.92598800  0.09794700  0.37566600  1
  O  O27  1  0.57401200  0.09794700  0.87566600  1
  O  O28  1  0.82058000  0.28277100  0.44798300  1
  O  O29  1  0.67942000  0.28277100  0.94798300  1
  O  O30  1  0.17942000  0.71722900  0.55201700  1
  O  O31  1  0.32058000  0.71722900  0.05201700  1
  O  O32  1  0.91089300  0.72459100  0.76475400  1
  O  O33  1  0.58910700  0.72459100  0.26475400  1
  O  O34  1  0.08910700  0.27540900  0.23524600  1
  O  O35  1  0.41089300  0.27540900  0.73524600  1
  O  O36  1  0.73813900  0.57798400  0.75004400  1
  O  O37  1  0.76186100  0.57798400  0.25004400  1
  O  O38  1  0.26186100  0.42201600  0.24995600  1
  O  O39  1  0.23813900  0.42201600  0.74995600  1
  O  O40  1  0.89915300  0.93656900  0.84646700  1
  O  O41  1  0.60084700  0.93656900  0.34646700  1
  O  O42  1  0.10084700  0.06343100  0.15353300  1
  O  O43  1  0.39915300  0.06343100  0.65353300  1
loop_
_geom_bond_atom_site_label_1
_geom_bond_atom_site_label_2
_geom_bond_distance
_geom_bond_site_symmetry_2
Ce0 O32 2.160736 1_555
Ce0 O8 2.205024 1_565
Ce0 O40 2.309139 1_555
Ce0 O20 2.569743 1_565
Ce0 O28 2.587611 1_565
Ce0 O0 2.587859 1_555
Ce0 O36 2.614298 1_555
Ce0 O4 2.656160 1_565
Ce0 O12 2.709756 1_555
Ce1 O33 2.160736 1_555
Ce1 O9 2.205024 1_565
Ce1 O41 2.309139 1_555
Ce1 O21 2.569743 1_565
Ce1 O29 2.587611 1_564
Ce1 O1 2.587859 1_555
Ce1 O37 2.614298 1_555
Ce1 O5 2.656160 1_565
Ce1 O13 2.709756 1_555
Ce2 O34 2.160736 1_555
Ce2 O10 2.205024 1_545
Ce2 O42 2.309139 1_555
Ce2 O22 2.569743 1_545
Ce2 O30 2.587611 1_545
Ce2 O2 2.587859 1_555
Ce2 O38 2.614298 1_555
Ce2 O6 2.656160 1_545
Ce2 O14 2.709756 1_555
Ce3 O35 2.160736 1_555
Ce3 O11 2.205024 1_545
Ce3 O43 2.309139 1_555
Ce3 O23 2.569743 1_545
Ce3 O31 2.587611 1_546
Ce3 O3 2.587859 1_555
Ce3 O39 2.614298 1_555
Ce3 O7 2.656160 1_545
Ce3 O15 2.709756 1_555
B0 O4 1.353662 1_555
B0 O20 1.367428 1_555
B0 O36 1.387416 1_555
B1 O5 1.353662 1_555
B1 O21 1.367428 1_555
B1 O37 1.387416 1_555
B2 O6 1.353662 1_555
B2 O22 1.367428 1_555
B2 O38 1.387416 1_555
B3 O7 1.353662 1_555
B3 O23 1.367428 1_555
B3 O39 1.387416 1_555
B4 O12 1.355917 1_555
B4 O29 1.360439 1_555
B4 O36 1.405974 1_555
B5 O13 1.355917 1_555
B5 O28 1.360439 1_555
B5 O37 1.405974 1_555
B6 O14 1.355917 1_555
B6 O31 1.360439 1_555
B6 O38 1.405974 1_555
B7 O15 1.355917 1_555
B7 O30 1.360439 1_555
B7 O39 1.405974 1_555
B8 O26 1.438663 1_555
B8 O0 1.471662 1_545
B8 O28 1.496362 1_555
B8 O21 1.507023 1_555
B9 O27 1.438663 1_555
B9 O1 1.471662 1_546
B9 O29 1.496362 1_555
B9 O20 1.507023 1_555
B10 O24 1.438663 1_555
B10 O2 1.471662 1_565
B10 O30 1.496362 1_555
B10 O23 1.507023 1_555
B11 O25 1.438663 1_555
B11 O3 1.471662 1_564
B11 O31 1.496362 1_555
B11 O22 1.507023 1_555
B12 O16 1.366501 1_555
B12 O24 1.368188 1_545
B12 O8 1.400198 1_455
B13 O17 1.366501 1_555
B13 O25 1.368188 1_545
B13 O9 1.400198 1_555
B14 O18 1.366501 1_555
B14 O26 1.368188 1_565
B14 O10 1.400198 1_655
B15 O19 1.366501 1_555
B15 O27 1.368188 1_565
B15 O11 1.400198 1_555
B16 O18 1.449596 1_555
B16 O4 1.476420 1_555
B16 O0 1.478105 1_555
B16 O13 1.520514 1_555
B17 O19 1.449596 1_554
B17 O5 1.476420 1_555
B17 O1 1.478105 1_555
B17 O12 1.520514 1_554
B18 O16 1.449596 1_555
B18 O6 1.476420 1_555
B18 O2 1.478105 1_555
B18 O15 1.520514 1_555
B19 O17 1.449596 1_556
B19 O7 1.476420 1_555
B19 O3 1.478105 1_555
B19 O14 1.520514 1_556
Br0 Ce0 3.119885 1_545
Br1 Ce1 3.119885 1_545
Br2 Ce2 3.119885 1_565
Br3 Ce3 3.119885 1_565
