# generated using pymatgen
data_InMo6(SeS)4
_symmetry_space_group_name_H-M   'P 1'
_cell_length_a   6.70757600
_cell_length_b   6.74600341
_cell_length_c   6.80200459
_cell_angle_alpha   90.02208892
_cell_angle_beta   90.00893719
_cell_angle_gamma   90.25037456
_symmetry_Int_Tables_number   1
_chemical_formula_structural   InMo6(SeS)4
_chemical_formula_sum   'In1 Mo6 Se4 S4'
_cell_volume   307.78318882
_cell_formula_units_Z   1
loop_
 _symmetry_equiv_pos_site_id
 _symmetry_equiv_pos_as_xyz
  1  'x, y, z'
loop_
 _atom_site_type_symbol
 _atom_site_label
 _atom_site_symmetry_multiplicity
 _atom_site_fract_x
 _atom_site_fract_y
 _atom_site_fract_z
 _atom_site_occupancy
  In  In0  1  0.00138200  0.99750000  0.00060200  1
  Mo  Mo0  1  0.76669400  0.44601900  0.58071300  1
  Mo  Mo1  1  0.44272900  0.58421300  0.76199400  1
  Mo  Mo2  1  0.58258000  0.76969100  0.44208300  1
  Mo  Mo3  1  0.22909000  0.55893300  0.41897300  1
  Mo  Mo4  1  0.55543800  0.42231900  0.23647300  1
  Mo  Mo5  1  0.41584300  0.22773400  0.55319300  1
  Se  Se0  1  0.61949600  0.25261400  0.87665900  1
  Se  Se1  1  0.75142600  0.12441300  0.37429300  1
  Se  Se2  1  0.12092400  0.37417300  0.74869500  1
  Se  Se3  1  0.37497700  0.75106500  0.12074400  1
  S  S0  1  0.75802900  0.75797300  0.75027700  1
  S  S1  1  0.24039200  0.24699100  0.24807500  1
  S  S2  1  0.27198000  0.86892700  0.61281600  1
  S  S3  1  0.86901900  0.61743500  0.27441000  1
loop_
_geom_bond_atom_site_label_1
_geom_bond_atom_site_label_2
_geom_bond_distance
_geom_bond_site_symmetry_2
In0 S0 2.854574 1_454
In0 S1 2.865279 1_565
In0 Se3 3.122180 1_555
In0 Se1 3.164992 1_465
In0 Se2 3.165720 1_564
In0 Se0 3.205152 1_464
Mo0 S0 2.400323 1_555
Mo0 S3 2.478812 1_555
Mo0 Se1 2.585447 1_555
Mo0 Se0 2.592446 1_555
Mo0 Se2 2.682464 1_655
Mo1 S0 2.414876 1_555
Mo1 S2 2.459829 1_555
Mo1 Se2 2.578419 1_555
Mo1 Se0 2.653756 1_555
Mo1 Se3 2.725956 1_556
Mo2 S0 2.405410 1_555
Mo2 S3 2.462561 1_555
Mo2 S2 2.479844 1_555
Mo2 Se3 2.594165 1_555
Mo2 Se1 2.683067 1_565
Mo3 S1 2.405184 1_555
Mo3 S2 2.487361 1_555
Mo3 Se3 2.596938 1_555
Mo3 S3 2.638894 1_455
Mo3 Se2 2.665458 1_555
Mo4 S1 2.418477 1_555
Mo4 S3 2.489707 1_555
Mo4 Se1 2.582625 1_555
Mo4 Se3 2.650975 1_555
Mo4 Se0 2.736378 1_554
Mo5 S1 2.389556 1_555
Mo5 Se2 2.583489 1_555
Mo5 Se0 2.594592 1_555
Mo5 S2 2.633438 1_545
Mo5 Se1 2.654673 1_555
