# generated using pymatgen
data_Li2Co3SnO8
_symmetry_space_group_name_H-M   'P 1'
_cell_length_a   8.50358658
_cell_length_b   8.50358658
_cell_length_c   8.49294172
_cell_angle_alpha   89.91053818
_cell_angle_beta   89.91053818
_cell_angle_gamma   90.03208327
_symmetry_Int_Tables_number   1
_chemical_formula_structural   Li2Co3SnO8
_chemical_formula_sum   'Li8 Co12 Sn4 O32'
_cell_volume   614.13138452
_cell_formula_units_Z   4
loop_
 _symmetry_equiv_pos_site_id
 _symmetry_equiv_pos_as_xyz
  1  'x, y, z'
loop_
 _atom_site_type_symbol
 _atom_site_label
 _atom_site_symmetry_multiplicity
 _atom_site_fract_x
 _atom_site_fract_y
 _atom_site_fract_z
 _atom_site_occupancy
  Li  Li0  1  0.00304300  0.75246700  0.87661600  1
  Li  Li1  1  0.24753300  0.99695700  0.12338400  1
  Li  Li2  1  0.25097500  0.49803900  0.62671400  1
  Li  Li3  1  0.50082200  0.25222800  0.87318200  1
  Li  Li4  1  0.50196100  0.74902500  0.37328600  1
  Li  Li5  1  0.74777200  0.49917800  0.12681800  1
  Li  Li6  1  0.75122000  0.00215700  0.62429300  1
  Li  Li7  1  0.99784300  0.24878000  0.37570700  1
  Co  Co0  1  0.11388400  0.37408000  0.01111700  1
  Co  Co1  1  0.12434800  0.61594600  0.25849800  1
  Co  Co2  1  0.13354500  0.86645500  0.50000000  1
  Co  Co3  1  0.36554600  0.36530400  0.24919900  1
  Co  Co4  1  0.37533800  0.11473800  0.48904400  1
  Co  Co5  1  0.38405400  0.87565200  0.74150200  1
  Co  Co6  1  0.61696500  0.12660800  0.24003900  1
  Co  Co7  1  0.62592000  0.88611600  0.98888300  1
  Co  Co8  1  0.63469600  0.63445400  0.75080100  1
  Co  Co9  1  0.86878200  0.13121800  0.00000000  1
  Co  Co10  1  0.87339200  0.38303500  0.75996100  1
  Co  Co11  1  0.88526200  0.62466200  0.51095600  1
  Sn  Sn0  1  0.12409900  0.12477100  0.74988800  1
  Sn  Sn1  1  0.37498200  0.62501800  0.00000000  1
  Sn  Sn2  1  0.62544500  0.37455500  0.50000000  1
  Sn  Sn3  1  0.87522900  0.87590100  0.25011200  1
  O  O0  1  0.09245300  0.13275400  0.99728700  1
  O  O1  1  0.11073800  0.37036800  0.77481000  1
  O  O2  1  0.11504600  0.63487100  0.49051000  1
  O  O3  1  0.12842600  0.61371900  0.02198200  1
  O  O4  1  0.12131700  0.85298800  0.26373500  1
  O  O5  1  0.13333200  0.38427400  0.23983000  1
  O  O6  1  0.13447500  0.10219300  0.50496200  1
  O  O7  1  0.14701200  0.87868300  0.73626500  1
  O  O8  1  0.35332600  0.37847400  0.01214200  1
  O  O9  1  0.36209400  0.60155900  0.24614100  1
  O  O10  1  0.36512900  0.88495400  0.50949000  1
  O  O11  1  0.37922600  0.35203200  0.48722900  1
  O  O12  1  0.37020400  0.11173100  0.72935900  1
  O  O13  1  0.38352900  0.13544700  0.25716700  1
  O  O14  1  0.38628100  0.87157400  0.97801800  1
  O  O15  1  0.39844100  0.63790600  0.75385900  1
  O  O16  1  0.60315000  0.36170900  0.25307200  1
  O  O17  1  0.61607600  0.12928500  0.47622600  1
  O  O18  1  0.61572600  0.86666800  0.76017000  1
  O  O19  1  0.62963200  0.88926200  0.22519000  1
  O  O20  1  0.62152600  0.64667400  0.98785800  1
  O  O21  1  0.64792800  0.12018600  0.00680700  1
  O  O22  1  0.63829100  0.39685000  0.74692800  1
  O  O23  1  0.64796800  0.62077400  0.51277100  1
  O  O24  1  0.85768600  0.12205600  0.22697200  1
  O  O25  1  0.86724600  0.90754700  0.00271300  1
  O  O26  1  0.86455300  0.61647100  0.74283300  1
  O  O27  1  0.87794400  0.14231400  0.77302800  1
  O  O28  1  0.87071500  0.38392400  0.52377400  1
  O  O29  1  0.87981400  0.35207200  0.99319300  1
  O  O30  1  0.88826900  0.62979600  0.27064100  1
  O  O31  1  0.89780700  0.86552500  0.49503800  1
loop_
_geom_bond_atom_site_label_1
_geom_bond_atom_site_label_2
_geom_bond_distance
_geom_bond_site_symmetry_2
Li0 O26 2.005494 1_455
Li0 O3 2.013461 1_556
Li0 O7 2.015333 1_555
Li0 O25 2.054676 1_456
Li1 O13 2.005494 1_565
Li1 O14 2.013461 1_554
Li1 O4 2.015333 1_555
Li1 O0 2.054676 1_564
Li2 O2 2.007373 1_555
Li2 O11 2.033806 1_555
Li2 O15 2.039536 1_555
Li2 O1 2.042633 1_555
Li3 O22 2.004757 1_555
Li3 O21 2.028676 1_556
Li3 O8 2.029604 1_556
Li3 O12 2.039706 1_555
Li4 O10 2.007373 1_555
Li4 O23 2.033806 1_555
Li4 O9 2.039536 1_555
Li4 O19 2.042633 1_555
Li5 O16 2.004757 1_555
Li5 O29 2.028676 1_554
Li5 O20 2.029604 1_554
Li5 O30 2.039706 1_555
Li6 O18 1.994211 1_545
Li6 O17 2.018010 1_555
Li6 O31 2.027344 1_545
Li6 O27 2.045702 1_555
Li7 O5 1.994211 1_655
Li7 O28 2.018010 1_555
Li7 O6 2.027344 1_655
Li7 O24 2.045702 1_555
Co0 O5 1.951787 1_555
Co0 O29 2.005155 1_454
Co0 O1 2.007459 1_554
Co0 O8 2.036470 1_555
Co0 O3 2.043707 1_555
Co0 O0 2.063655 1_554
Co1 O5 1.978168 1_555
Co1 O2 1.978738 1_555
Co1 O3 2.009081 1_555
Co1 O30 2.013527 1_455
Co1 O4 2.016446 1_555
Co1 O9 2.028024 1_555
Co2 O10 1.977259 1_555
Co2 O2 1.977259 1_555
Co2 O31 2.005139 1_455
Co2 O6 2.005139 1_565
Co2 O7 2.012875 1_555
Co2 O4 2.012875 1_555
Co3 O13 1.961737 1_555
Co3 O5 1.983031 1_555
Co3 O9 2.009374 1_555
Co3 O8 2.019090 1_555
Co3 O16 2.021053 1_555
Co3 O11 2.028071 1_555
Co4 O10 1.963279 1_545
Co4 O13 1.978017 1_555
Co4 O11 2.018137 1_555
Co4 O12 2.041500 1_555
Co4 O17 2.053509 1_555
Co4 O6 2.055145 1_555
Co5 O18 1.978168 1_555
Co5 O10 1.978738 1_555
Co5 O14 2.009081 1_555
Co5 O12 2.013527 1_565
Co5 O7 2.016446 1_555
Co5 O15 2.028024 1_555
Co6 O13 1.991609 1_555
Co6 O21 1.998675 1_555
Co6 O16 2.005935 1_555
Co6 O17 2.006090 1_555
Co6 O19 2.025341 1_545
Co6 O24 2.050215 1_555
Co7 O18 1.951787 1_555
Co7 O21 2.005155 1_566
Co7 O19 2.007459 1_556
Co7 O20 2.036470 1_555
Co7 O14 2.043707 1_555
Co7 O25 2.063655 1_556
Co8 O26 1.961737 1_555
Co8 O18 1.983031 1_555
Co8 O15 2.009374 1_555
Co8 O20 2.019090 1_555
Co8 O22 2.021053 1_555
Co8 O23 2.028071 1_555
Co9 O29 1.881134 1_554
Co9 O21 1.881134 1_555
Co9 O0 1.902147 1_654
Co9 O25 1.902147 1_545
Co9 O27 1.931269 1_554
Co9 O24 1.931269 1_555
Co10 O26 1.991609 1_555
Co10 O29 1.998675 1_555
Co10 O22 2.005935 1_555
Co10 O28 2.006090 1_555
Co10 O1 2.025341 1_655
Co10 O27 2.050215 1_555
Co11 O2 1.963279 1_655
Co11 O26 1.978017 1_555
Co11 O23 2.018137 1_555
Co11 O30 2.041500 1_555
Co11 O28 2.053509 1_555
Co11 O31 2.055145 1_555
O0 Sn0 2.119089 1_555
O1 Sn0 2.102600 1_555
O3 Sn1 2.106741 1_555
O4 Sn3 2.105135 1_455
O6 Sn0 2.091012 1_555
O7 Sn0 2.105135 1_565
O8 Sn1 2.106829 1_555
O9 Sn1 2.102330 1_555
O11 Sn2 2.105359 1_555
O12 Sn0 2.102756 1_555
O14 Sn1 2.106741 1_556
O15 Sn1 2.102330 1_556
O16 Sn2 2.108987 1_555
O17 Sn2 2.097220 1_555
O19 Sn3 2.102600 1_555
O20 Sn1 2.106829 1_556
O22 Sn2 2.108987 1_555
O23 Sn2 2.105359 1_555
O24 Sn3 2.107492 1_545
O25 Sn3 2.119089 1_555
O27 Sn0 2.107492 1_655
O28 Sn2 2.097220 1_555
O30 Sn3 2.102756 1_555
O31 Sn3 2.091012 1_555
