# generated using pymatgen
data_TiCrAgS4
_symmetry_space_group_name_H-M   'P 1'
_cell_length_a   5.96870900
_cell_length_b   9.50171000
_cell_length_c   11.52859700
_cell_angle_alpha   90.00000000
_cell_angle_beta   90.00000000
_cell_angle_gamma   90.00000000
_symmetry_Int_Tables_number   1
_chemical_formula_structural   TiCrAgS4
_chemical_formula_sum   'Ti4 Cr4 Ag4 S16'
_cell_volume   653.82065291
_cell_formula_units_Z   4
loop_
 _symmetry_equiv_pos_site_id
 _symmetry_equiv_pos_as_xyz
  1  'x, y, z'
loop_
 _atom_site_type_symbol
 _atom_site_label
 _atom_site_symmetry_multiplicity
 _atom_site_fract_x
 _atom_site_fract_y
 _atom_site_fract_z
 _atom_site_occupancy
  Ti  Ti0  1  0.13158100  0.25000000  0.96537700  1
  Ti  Ti1  1  0.86841800  0.75000000  0.03462300  1
  Ti  Ti2  1  0.36841800  0.75000000  0.46537700  1
  Ti  Ti3  1  0.63158200  0.25000000  0.53462300  1
  Cr  Cr0  1  0.99796100  0.75000000  0.26838100  1
  Cr  Cr1  1  0.00203900  0.25000000  0.73161800  1
  Cr  Cr2  1  0.50203900  0.25000000  0.76838200  1
  Cr  Cr3  1  0.49796100  0.75000000  0.23161900  1
  Ag  Ag0  1  0.18008100  0.25000000  0.36261300  1
  Ag  Ag1  1  0.81991900  0.75000000  0.63738700  1
  Ag  Ag2  1  0.31991900  0.75000000  0.86261300  1
  Ag  Ag3  1  0.68008100  0.25000000  0.13738700  1
  S  S0  1  0.24117600  0.42079000  0.83353300  1
  S  S1  1  0.75882400  0.57921000  0.16646700  1
  S  S2  1  0.25882400  0.57921000  0.33353300  1
  S  S3  1  0.74117600  0.42079000  0.66646700  1
  S  S4  1  0.74117600  0.07921000  0.66646700  1
  S  S5  1  0.25882400  0.92079000  0.33353300  1
  S  S6  1  0.75882400  0.92079000  0.16646700  1
  S  S7  1  0.24117600  0.07921000  0.83353300  1
  S  S8  1  0.75197000  0.25000000  0.35293800  1
  S  S9  1  0.24803000  0.75000000  0.64706200  1
  S  S10  1  0.74803000  0.75000000  0.85293800  1
  S  S11  1  0.25197000  0.25000000  0.14706200  1
  S  S12  1  0.23983900  0.75000000  0.07730200  1
  S  S13  1  0.76016100  0.25000000  0.92269800  1
  S  S14  1  0.26016100  0.25000000  0.57730200  1
  S  S15  1  0.73983900  0.75000000  0.42269800  1
loop_
_geom_bond_atom_site_label_1
_geom_bond_atom_site_label_2
_geom_bond_distance
_geom_bond_site_symmetry_2
Cr0 S15 2.353437 1_555
Cr0 S5 2.371062 1_655
Cr0 S2 2.371062 1_655
Cr0 S6 2.459922 1_555
Cr0 S1 2.459922 1_555
Cr0 S12 2.633803 1_655
Cr1 S14 2.353429 1_555
Cr1 S4 2.371058 1_455
Cr1 S3 2.371058 1_455
Cr1 S7 2.459928 1_555
Cr1 S0 2.459928 1_555
Cr1 S13 2.633812 1_455
Cr2 S13 2.353429 1_555
Cr2 S7 2.371058 1_555
Cr2 S0 2.371058 1_555
Cr2 S3 2.459928 1_555
Cr2 S4 2.459928 1_555
Cr2 S14 2.633812 1_555
Cr3 S12 2.353437 1_555
Cr3 S6 2.371062 1_555
Cr3 S1 2.371062 1_555
Cr3 S5 2.459922 1_555
Cr3 S2 2.459922 1_555
Cr3 S15 2.633803 1_555
Ag0 S14 2.520793 1_555
Ag0 S11 2.521773 1_555
Ag0 S8 2.557703 1_455
Ag1 S15 2.520793 1_555
Ag1 S10 2.521773 1_555
Ag1 S9 2.557703 1_655
Ag2 S12 2.520793 1_556
Ag2 S9 2.521773 1_555
Ag2 S10 2.557703 1_555
Ag3 S13 2.520793 1_554
Ag3 S8 2.521773 1_555
Ag3 S11 2.557703 1_555
S0 Ti0 2.317692 1_555
S1 Ti1 2.317691 1_555
S2 Ti2 2.317691 1_555
S3 Ti3 2.317691 1_555
S4 Ti3 2.317691 1_555
S5 Ti2 2.317691 1_555
S6 Ti1 2.317691 1_555
S7 Ti0 2.317692 1_555
S8 Ti3 2.214400 1_555
S9 Ti2 2.214400 1_555
S10 Ti1 2.214400 1_556
S11 Ti0 2.214402 1_554
S12 Ti1 2.270849 1_455
S13 Ti0 2.270843 1_655
S14 Ti3 2.270849 1_555
S15 Ti2 2.270849 1_555
