# generated using pymatgen
data_LiAlSi3O8
_symmetry_space_group_name_H-M   'P 1'
_cell_length_a   7.13041500
_cell_length_b   7.33721642
_cell_length_c   7.60503280
_cell_angle_alpha   115.87394874
_cell_angle_beta   110.05537493
_cell_angle_gamma   97.30001156
_symmetry_Int_Tables_number   1
_chemical_formula_structural   LiAlSi3O8
_chemical_formula_sum   'Li2 Al2 Si6 O16'
_cell_volume   317.74922109
_cell_formula_units_Z   2
loop_
 _symmetry_equiv_pos_site_id
 _symmetry_equiv_pos_as_xyz
  1  'x, y, z'
loop_
 _atom_site_type_symbol
 _atom_site_label
 _atom_site_symmetry_multiplicity
 _atom_site_fract_x
 _atom_site_fract_y
 _atom_site_fract_z
 _atom_site_occupancy
  Li  Li0  1  0.84963900  0.97055900  0.75134400  1
  Li  Li1  1  0.15036100  0.02944100  0.24865600  1
  Al  Al0  1  0.79962500  0.30983000  0.83797200  1
  Al  Al1  1  0.20037500  0.69017000  0.16202800  1
  Si  Si0  1  0.62775700  0.76303300  0.45031400  1
  Si  Si1  1  0.37224300  0.23696700  0.54968600  1
  Si  Si2  1  0.75553000  0.64448800  0.17286000  1
  Si  Si3  1  0.24447000  0.35551200  0.82714000  1
  Si  Si4  1  0.70920500  0.20596500  0.22114200  1
  Si  Si5  1  0.29079500  0.79403500  0.77885800  1
  O  O0  1  0.72740300  0.98405400  0.44666700  1
  O  O1  1  0.27259700  0.01594600  0.55333300  1
  O  O2  1  0.62984600  0.18960800  0.68768800  1
  O  O3  1  0.37015400  0.81039200  0.31231200  1
  O  O4  1  0.05367300  0.24366700  0.88462500  1
  O  O5  1  0.94632700  0.75633300  0.11537500  1
  O  O6  1  0.72691800  0.69922200  0.33399800  1
  O  O7  1  0.27308200  0.30077800  0.66600200  1
  O  O8  1  0.83941400  0.17467700  0.11263700  1
  O  O9  1  0.16058600  0.82532300  0.88736300  1
  O  O10  1  0.79820100  0.38424900  0.29229600  1
  O  O11  1  0.20179900  0.61575100  0.70770400  1
  O  O12  1  0.54168600  0.73333800  0.94408300  1
  O  O13  1  0.45831400  0.26666200  0.05591700  1
  O  O14  1  0.71108500  0.58071900  0.70409300  1
  O  O15  1  0.28891500  0.41928100  0.29590700  1
loop_
_geom_bond_atom_site_label_1
_geom_bond_atom_site_label_2
_geom_bond_distance
_geom_bond_site_symmetry_2
Li0 O4 1.906414 1_665
Li0 Si0 1.980873 1_555
Li1 O5 1.906414 1_445
Li1 Si1 1.980873 1_555
Al0 O2 1.204013 1_555
Al0 O4 1.891021 1_655
Al1 O3 1.204013 1_555
Al1 O5 1.891021 1_455
O0 Si0 1.701588 1_555
O1 Si1 1.701588 1_555
O2 Si1 1.937638 1_555
O3 Si0 1.937638 1_555
O4 Si3 1.775594 1_555
O5 Si2 1.775594 1_555
O6 Si2 1.211369 1_555
O6 Si0 1.285792 1_555
O7 Si3 1.211369 1_555
O7 Si1 1.285792 1_555
O8 Si4 1.417719 1_555
O9 Si5 1.417719 1_555
O10 Si4 1.158613 1_555
O11 Si5 1.158613 1_555
O12 Si5 2.031437 1_555
O12 Si2 2.280378 1_556
O13 Si4 2.031437 1_555
O13 Si3 2.280378 1_554
