# generated using pymatgen
data_Nd2VFeO6
_symmetry_space_group_name_H-M   'P 1'
_cell_length_a   5.69966800
_cell_length_b   5.50020500
_cell_length_c   9.58229552
_cell_angle_alpha   55.18610588
_cell_angle_beta   90.00000000
_cell_angle_gamma   90.00000000
_symmetry_Int_Tables_number   1
_chemical_formula_structural   Nd2VFeO6
_chemical_formula_sum   'Nd4 V2 Fe2 O12'
_cell_volume   246.63054360
_cell_formula_units_Z   2
loop_
 _symmetry_equiv_pos_site_id
 _symmetry_equiv_pos_as_xyz
  1  'x, y, z'
loop_
 _atom_site_type_symbol
 _atom_site_label
 _atom_site_symmetry_multiplicity
 _atom_site_fract_x
 _atom_site_fract_y
 _atom_site_fract_z
 _atom_site_occupancy
  Nd  Nd0  1  0.55564500  0.76439800  0.74955900  1
  Nd  Nd1  1  0.05564500  0.23560200  0.75044100  1
  Nd  Nd2  1  0.44435500  0.23560200  0.25044100  1
  Nd  Nd3  1  0.94435500  0.76439800  0.24955900  1
  V  V0  1  0.50000000  0.50000000  0.50000000  1
  V  V1  1  0.00000000  0.50000000  0.00000000  1
  Fe  Fe0  1  0.50000000  0.00000000  0.00000000  1
  Fe  Fe1  1  0.00000000  0.00000000  0.50000000  1
  O  O0  1  0.70274500  0.24586600  0.05071900  1
  O  O1  1  0.20274500  0.75413400  0.44928100  1
  O  O2  1  0.29578300  0.15284900  0.54955000  1
  O  O3  1  0.79578300  0.84715100  0.95045000  1
  O  O4  1  0.29725500  0.75413400  0.94928100  1
  O  O5  1  0.79725500  0.24586600  0.55071900  1
  O  O6  1  0.70421700  0.84715100  0.45045000  1
  O  O7  1  0.20421700  0.15284900  0.04955000  1
  O  O8  1  0.47294200  0.34260800  0.75178500  1
  O  O9  1  0.97294200  0.65739200  0.74821500  1
  O  O10  1  0.52705800  0.65739200  0.24821500  1
  O  O11  1  0.02705800  0.34260800  0.25178500  1
loop_
_geom_bond_atom_site_label_1
_geom_bond_atom_site_label_2
_geom_bond_distance
_geom_bond_site_symmetry_2
Nd0 O8 2.355469 1_555
Nd0 O4 2.389851 1_555
Nd0 O2 2.399210 1_565
Nd0 O9 2.451992 1_555
Nd0 O5 2.603510 1_565
Nd0 O3 2.605107 1_555
Nd0 O6 2.765774 1_555
Nd0 O0 2.786973 1_556
Nd1 O9 2.355469 1_455
Nd1 O5 2.389851 1_455
Nd1 O3 2.399210 1_445
Nd1 O8 2.451992 1_555
Nd1 O4 2.603510 1_545
Nd1 O2 2.605107 1_555
Nd1 O7 2.765774 1_556
Nd1 O1 2.786973 1_555
Nd2 O10 2.355469 1_555
Nd2 O0 2.389851 1_555
Nd2 O6 2.399210 1_545
Nd2 O11 2.451992 1_555
Nd2 O1 2.603510 1_545
Nd2 O7 2.605107 1_555
Nd2 O2 2.765774 1_555
Nd2 O4 2.786973 1_554
Nd3 O11 2.355469 1_655
Nd3 O1 2.389851 1_655
Nd3 O7 2.399210 1_665
Nd3 O10 2.451992 1_555
Nd3 O0 2.603510 1_565
Nd3 O6 2.605107 1_555
Nd3 O3 2.765774 1_554
Nd3 O5 2.786973 1_555
Fe0 O8 2.028357 1_554
Fe0 O10 2.028357 1_545
Fe0 O4 2.037341 1_544
Fe0 O0 2.037341 1_555
Fe0 O3 2.056729 1_544
Fe0 O7 2.056729 1_555
Fe1 O9 2.028357 1_445
Fe1 O11 2.028357 1_555
Fe1 O5 2.037341 1_455
Fe1 O1 2.037341 1_545
Fe1 O6 2.056729 1_445
Fe1 O2 2.056729 1_555
O0 V1 2.069985 1_655
O1 V0 2.069985 1_555
O2 V0 2.047171 1_555
O3 V1 2.047171 1_656
O4 V1 2.069985 1_556
O5 V0 2.069985 1_555
O6 V0 2.047171 1_555
O7 V1 2.047171 1_555
O8 V0 2.051675 1_555
O9 V1 2.051675 1_656
O10 V0 2.051675 1_555
O11 V1 2.051675 1_555
