# generated using pymatgen
data_Ba3BiIrRuO9
_symmetry_space_group_name_H-M   'P 1'
_cell_length_a   6.01063802
_cell_length_b   6.01063802
_cell_length_c   14.95237711
_cell_angle_alpha   88.71328465
_cell_angle_beta   88.71328465
_cell_angle_gamma   119.77962642
_symmetry_Int_Tables_number   1
_chemical_formula_structural   Ba3BiIrRuO9
_chemical_formula_sum   'Ba6 Bi2 Ir2 Ru2 O18'
_cell_volume   468.38893904
_cell_formula_units_Z   2
loop_
 _symmetry_equiv_pos_site_id
 _symmetry_equiv_pos_as_xyz
  1  'x, y, z'
loop_
 _atom_site_type_symbol
 _atom_site_label
 _atom_site_symmetry_multiplicity
 _atom_site_fract_x
 _atom_site_fract_y
 _atom_site_fract_z
 _atom_site_occupancy
  Ba  Ba0  1  0.34085900  0.67345700  0.40706700  1
  Ba  Ba1  1  0.32553700  0.65537400  0.09547800  1
  Ba  Ba2  1  0.65537400  0.32553700  0.59547800  1
  Ba  Ba3  1  0.67345700  0.34085900  0.90706700  1
  Ba  Ba4  1  0.99404200  0.00768000  0.25033300  1
  Ba  Ba5  1  0.00768000  0.99404200  0.75033300  1
  Bi  Bi0  1  0.99782900  0.99889800  0.50154400  1
  Bi  Bi1  1  0.99889800  0.99782900  0.00154400  1
  Ir  Ir0  1  0.31486800  0.64695700  0.66600200  1
  Ir  Ir1  1  0.64695700  0.31486800  0.16600200  1
  Ru  Ru0  1  0.35315100  0.68567700  0.83548800  1
  Ru  Ru1  1  0.68567700  0.35315100  0.33548800  1
  O  O0  1  0.40782200  0.22552700  0.42741000  1
  O  O1  1  0.77654900  0.59219400  0.06925200  1
  O  O2  1  0.59219400  0.77654900  0.56925200  1
  O  O3  1  0.22552700  0.40782200  0.92741000  1
  O  O4  1  0.87414000  0.68303800  0.39531200  1
  O  O5  1  0.31409900  0.12474400  0.10287800  1
  O  O6  1  0.12474400  0.31409900  0.60287800  1
  O  O7  1  0.68303800  0.87414000  0.89531200  1
  O  O8  1  0.87176400  0.21701700  0.40397200  1
  O  O9  1  0.78302100  0.12916300  0.09283000  1
  O  O10  1  0.12916300  0.78302100  0.59283000  1
  O  O11  1  0.21701700  0.87176400  0.90397200  1
  O  O12  1  0.51155200  0.48990600  0.25099600  1
  O  O13  1  0.48990600  0.51155200  0.75099600  1
  O  O14  1  0.97100200  0.49136000  0.23679300  1
  O  O15  1  0.51228900  0.03048300  0.26464400  1
  O  O16  1  0.03048300  0.51228900  0.76464400  1
  O  O17  1  0.49136000  0.97100200  0.73679300  1
loop_
_geom_bond_atom_site_label_1
_geom_bond_atom_site_label_2
_geom_bond_distance
_geom_bond_site_symmetry_2
Ba0 O15 2.775184 1_565
Ba0 O8 2.794017 1_455
Ba0 O2 2.801637 1_555
Ba0 O4 2.843583 1_455
Ba0 O0 2.923761 1_555
Ba0 O12 2.974577 1_555
Ba0 O0 3.160656 1_565
Ba0 O4 3.177959 1_555
Ba0 O8 3.238787 1_565
Ba0 O10 3.244010 1_555
Ba0 O14 3.253388 1_455
Ba0 O6 3.418070 1_555
Ba1 O14 2.755928 1_455
Ba1 O9 2.807876 1_565
Ba1 O5 2.860517 1_565
Ba1 O3 2.870171 1_554
Ba1 O1 2.937404 1_555
Ba1 O12 2.960412 1_555
Ba1 O5 3.155218 1_555
Ba1 O1 3.163309 1_455
Ba1 O9 3.225687 1_455
Ba1 O15 3.257475 1_565
Ba1 O11 3.328052 1_554
Ba1 O7 3.468709 1_554
Ba2 O17 2.755928 1_545
Ba2 O10 2.807876 1_655
Ba2 O6 2.860517 1_655
Ba2 O0 2.870171 1_555
Ba2 O2 2.937404 1_555
Ba2 O13 2.960412 1_555
Ba2 O6 3.155218 1_555
Ba2 O2 3.163309 1_545
Ba2 O10 3.225687 1_545
Ba2 O16 3.257475 1_655
Ba2 O8 3.328052 1_555
Ba2 O4 3.468709 1_555
Ba3 O16 2.775184 1_655
Ba3 O11 2.794017 1_545
Ba3 O1 2.801637 1_556
Ba3 O7 2.843583 1_545
Ba3 O3 2.923761 1_555
Ba3 O13 2.974577 1_555
Ba3 O3 3.160656 1_655
Ba3 O7 3.177959 1_555
Ba3 O11 3.238787 1_655
Ba3 O9 3.244010 1_556
Ba3 O17 3.253388 1_545
Ba3 O5 3.418070 1_556
Ba4 O4 2.714630 1_545
Ba4 O5 2.729892 1_655
Ba4 O8 2.893684 1_555
Ba4 O9 2.943650 1_555
Ba4 O15 2.969351 1_555
Ba4 O14 2.981086 1_555
Ba4 O12 3.020565 1_655
Ba4 O12 3.021268 1_545
Ba4 O14 3.048590 1_545
Ba4 O15 3.061850 1_655
Ba5 O7 2.714630 1_455
Ba5 O6 2.729892 1_565
Ba5 O11 2.893684 1_555
Ba5 O10 2.943650 1_555
Ba5 O16 2.969351 1_555
Ba5 O17 2.981086 1_555
Ba5 O13 3.020565 1_565
Ba5 O13 3.021268 1_455
Ba5 O17 3.048590 1_455
Ba5 O16 3.061850 1_565
Bi0 O10 2.270725 1_655
Bi0 O6 2.283043 1_665
Bi0 O2 2.312396 1_555
Bi0 O8 2.317755 1_565
Bi0 O4 2.338078 1_555
Bi0 O0 2.373221 1_665
Bi1 O9 2.270725 1_565
Bi1 O5 2.283043 1_665
Bi1 O1 2.312396 1_555
Bi1 O11 2.317755 1_654
Bi1 O7 2.338078 1_554
Bi1 O3 2.373221 1_664
Ir0 O2 2.007345 1_555
Ir0 O10 2.008295 1_555
Ir0 O6 2.015368 1_555
Ir0 O17 2.032234 1_555
Ir0 O16 2.052127 1_555
Ir0 O13 2.061194 1_555
Ir1 O1 2.007345 1_555
Ir1 O9 2.008295 1_555
Ir1 O5 2.015368 1_555
Ir1 O14 2.032234 1_555
Ir1 O15 2.052127 1_555
Ir1 O12 2.061194 1_555
O0 Ru1 1.960542 1_555
O3 Ru0 1.960542 1_555
O4 Ru1 1.977118 1_555
O7 Ru0 1.977118 1_555
O8 Ru1 1.972835 1_555
O11 Ru0 1.972835 1_555
O12 Ru1 2.057766 1_555
O13 Ru0 2.057766 1_555
O14 Ru1 2.055515 1_555
O15 Ru1 2.025768 1_555
O16 Ru0 2.025768 1_555
O17 Ru0 2.055515 1_555
