# generated using pymatgen
data_Mg7B
_symmetry_space_group_name_H-M   'P 1'
_cell_length_a   6.16651196
_cell_length_b   6.16651196
_cell_length_c   4.88400000
_cell_angle_alpha   90.00000000
_cell_angle_beta   90.00000000
_cell_angle_gamma   119.99999958
_symmetry_Int_Tables_number   1
_chemical_formula_structural   Mg7B
_chemical_formula_sum   'Mg7 B1'
_cell_volume   160.83680795
_cell_formula_units_Z   1
loop_
 _symmetry_equiv_pos_site_id
 _symmetry_equiv_pos_as_xyz
  1  'x, y, z'
loop_
 _atom_site_type_symbol
 _atom_site_label
 _atom_site_symmetry_multiplicity
 _atom_site_fract_x
 _atom_site_fract_y
 _atom_site_fract_z
 _atom_site_occupancy
  Mg  Mg0  1  0.99892800  0.49946400  0.00000000  1
  Mg  Mg1  1  0.50053600  0.49946400  0.00000000  1
  Mg  Mg2  1  0.50053600  0.00107200  0.00000000  1
  Mg  Mg3  1  0.15967200  0.31934500  0.50000000  1
  Mg  Mg4  1  0.15967200  0.84032800  0.50000000  1
  Mg  Mg5  1  0.68065500  0.84032800  0.50000000  1
  Mg  Mg6  1  0.66666700  0.33333300  0.50000000  1
  B  B0  1  0.00000000  0.00000000  0.00000000  1
loop_
_geom_bond_atom_site_label_1
_geom_bond_atom_site_label_2
_geom_bond_distance
_geom_bond_site_symmetry_2
Mg0 Mg6 3.018581 1_554
Mg0 Mg6 3.018581 1_555
Mg0 Mg3 3.046397 1_654
Mg0 Mg3 3.046397 1_655
Mg0 Mg4 3.046400 1_654
Mg0 Mg4 3.046400 1_655
Mg1 Mg6 3.018584 1_555
Mg1 Mg6 3.018584 1_554
Mg1 Mg5 3.046400 1_555
Mg1 Mg5 3.046400 1_554
Mg1 Mg3 3.046400 1_555
Mg1 Mg3 3.046400 1_554
Mg2 Mg6 3.018581 1_555
Mg2 Mg6 3.018581 1_554
Mg2 Mg5 3.046397 1_544
Mg2 Mg5 3.046397 1_545
Mg2 Mg4 3.046400 1_544
Mg2 Mg4 3.046400 1_545
Mg3 Mg4 2.953864 1_545
Mg3 Mg5 2.953864 1_445
Mg3 Mg6 3.084155 1_455
Mg3 Mg6 3.084167 1_555
Mg3 Mg4 3.212648 1_555
Mg3 Mg5 3.212648 1_555
Mg4 Mg5 2.953864 1_455
Mg4 Mg6 3.084161 1_455
Mg4 Mg6 3.084161 1_565
Mg4 Mg5 3.212648 1_555
Mg5 Mg6 3.084155 1_565
Mg5 Mg6 3.084167 1_555
B0 Mg4 2.978555 1_544
B0 Mg4 2.978555 1_545
B0 Mg3 2.978558 1_555
B0 Mg3 2.978558 1_554
B0 Mg5 2.978558 1_444
B0 Mg5 2.978558 1_445
