# generated using pymatgen
data_K2U3(O5F4)2
_symmetry_space_group_name_H-M   'P 1'
_cell_length_a   8.36887144
_cell_length_b   8.36887144
_cell_length_c   13.15363900
_cell_angle_alpha   90.00000000
_cell_angle_beta   90.00000000
_cell_angle_gamma   119.05447340
_symmetry_Int_Tables_number   1
_chemical_formula_structural   K2U3(O5F4)2
_chemical_formula_sum   'K4 U6 O20 F16'
_cell_volume   805.32250943
_cell_formula_units_Z   2
loop_
 _symmetry_equiv_pos_site_id
 _symmetry_equiv_pos_as_xyz
  1  'x, y, z'
loop_
 _atom_site_type_symbol
 _atom_site_label
 _atom_site_symmetry_multiplicity
 _atom_site_fract_x
 _atom_site_fract_y
 _atom_site_fract_z
 _atom_site_occupancy
  K  K0  1  0.91256100  0.92226800  0.25000000  1
  K  K1  1  0.92226800  0.91256100  0.75000000  1
  K  K2  1  0.45959500  0.19986800  0.25000000  1
  K  K3  1  0.19986800  0.45959500  0.75000000  1
  U  U0  1  0.76587200  0.17247800  0.52521700  1
  U  U1  1  0.17247800  0.76587200  0.47478300  1
  U  U2  1  0.76587200  0.17247800  0.97478300  1
  U  U3  1  0.17247800  0.76587200  0.02521700  1
  U  U4  1  0.57470700  0.57470700  0.50000000  1
  U  U5  1  0.57470700  0.57470700  0.00000000  1
  O  O0  1  0.87474700  0.17253500  0.40522200  1
  O  O1  1  0.17253500  0.87474700  0.59477800  1
  O  O2  1  0.87474700  0.17253500  0.09477800  1
  O  O3  1  0.17253500  0.87474700  0.90522200  1
  O  O4  1  0.63876300  0.15920200  0.63818700  1
  O  O5  1  0.15920200  0.63876300  0.36181300  1
  O  O6  1  0.63876300  0.15920200  0.86181300  1
  O  O7  1  0.15920200  0.63876300  0.13818700  1
  O  O8  1  0.53104300  0.61281000  0.36974800  1
  O  O9  1  0.61281000  0.53104300  0.63025200  1
  O  O10  1  0.53104300  0.61281000  0.13025200  1
  O  O11  1  0.61281000  0.53104300  0.86974800  1
  O  O12  1  0.28577200  0.28577200  0.50000000  1
  O  O13  1  0.28577200  0.28577200  0.00000000  1
  O  O14  1  0.18680300  0.33071000  0.25000000  1
  O  O15  1  0.33071000  0.18680300  0.75000000  1
  O  O16  1  0.82902400  0.53970900  0.25000000  1
  O  O17  1  0.53970900  0.82902400  0.75000000  1
  O  O18  1  0.58363600  0.93652000  0.25000000  1
  O  O19  1  0.93652000  0.58363600  0.75000000  1
  F  F0  1  0.61474300  0.33317200  0.44931900  1
  F  F1  1  0.33317200  0.61474300  0.55068100  1
  F  F2  1  0.61474300  0.33317200  0.05068100  1
  F  F3  1  0.33317200  0.61474300  0.94931900  1
  F  F4  1  0.48365600  0.95997400  0.45406600  1
  F  F5  1  0.95997400  0.48365600  0.54593400  1
  F  F6  1  0.48365600  0.95997400  0.04593400  1
  F  F7  1  0.95997400  0.48365600  0.95406600  1
  F  F8  1  0.98818900  0.19373800  0.62305500  1
  F  F9  1  0.19373800  0.98818900  0.37694500  1
  F  F10  1  0.98818900  0.19373800  0.87694500  1
  F  F11  1  0.19373800  0.98818900  0.12305500  1
  F  F12  1  0.71247200  0.87377900  0.55270000  1
  F  F13  1  0.87377900  0.71247200  0.44730000  1
  F  F14  1  0.71247200  0.87377900  0.94730000  1
  F  F15  1  0.87377900  0.71247200  0.05270000  1
loop_
_geom_bond_atom_site_label_1
_geom_bond_atom_site_label_2
_geom_bond_distance
_geom_bond_site_symmetry_2
K0 O18 2.812588 1_555
K0 O16 2.926590 1_555
K0 O2 3.049481 1_565
K0 O0 3.049481 1_565
K0 O14 3.054791 1_665
K1 O19 2.812588 1_555
K1 O17 2.926590 1_555
K1 O1 3.049481 1_655
K1 O3 3.049481 1_655
K1 O15 3.054791 1_665
K2 O18 2.856057 1_545
K2 O14 2.973044 1_555
K2 O16 3.017765 1_555
K3 O19 2.856057 1_455
K3 O15 2.973044 1_555
K3 O17 3.017765 1_555
O0 U0 1.822374 1_555
O1 U1 1.822374 1_555
O2 U2 1.822374 1_554
O3 U3 1.822374 1_556
O4 U0 1.799230 1_555
O5 U1 1.799230 1_555
O6 U2 1.799230 1_555
O7 U3 1.799230 1_555
O8 U4 1.812111 1_555
O9 U4 1.812111 1_555
O10 U5 1.812111 1_555
O11 U5 1.812111 1_556
O12 U4 2.452535 1_555
O13 U5 2.452535 1_555
F0 U4 2.302271 1_555
F0 U0 2.461090 1_555
F0 K2 2.897794 1_555
F1 U4 2.302271 1_555
F1 U1 2.461090 1_555
F1 K3 2.897794 1_555
F2 U5 2.302271 1_555
F2 U2 2.461090 1_554
F2 K2 2.897794 1_555
F3 U5 2.302271 1_556
F3 U3 2.461090 1_556
F3 K3 2.897794 1_555
F4 U1 2.320788 1_555
F4 U0 2.353128 1_565
F5 U0 2.320788 1_555
F5 U1 2.353128 1_655
F6 U3 2.320788 1_555
F6 U2 2.353128 1_564
F7 U2 2.320788 1_555
F7 U3 2.353128 1_656
F8 U0 2.197254 1_555
F8 K3 2.654891 1_655
F8 K1 2.714569 1_545
F9 U1 2.197254 1_555
F9 K2 2.654891 1_565
F9 K0 2.714569 1_455
F10 U2 2.197254 1_555
F10 K3 2.654891 1_655
F10 K1 2.714569 1_545
F11 U3 2.197254 1_555
F11 K2 2.654891 1_565
F11 K0 2.714569 1_455
F12 U4 2.295966 1_555
F12 U0 2.343973 1_565
F12 K1 3.060991 1_555
F13 U4 2.295966 1_555
F13 U1 2.343973 1_655
F13 K0 3.060991 1_555
F14 U5 2.295966 1_556
F14 U2 2.343973 1_565
F14 K1 3.060991 1_555
F15 U5 2.295966 1_555
F15 U3 2.343973 1_655
F15 K0 3.060991 1_555
