# generated using pymatgen
data_Mg14MnSiO16
_symmetry_space_group_name_H-M   'P 1'
_cell_length_a   4.30638500
_cell_length_b   8.60073300
_cell_length_c   8.62982300
_cell_angle_alpha   90.00000000
_cell_angle_beta   90.00000000
_cell_angle_gamma   90.00000000
_symmetry_Int_Tables_number   1
_chemical_formula_structural   Mg14MnSiO16
_chemical_formula_sum   'Mg14 Mn1 Si1 O16'
_cell_volume   319.63196748
_cell_formula_units_Z   1
loop_
 _symmetry_equiv_pos_site_id
 _symmetry_equiv_pos_as_xyz
  1  'x, y, z'
loop_
 _atom_site_type_symbol
 _atom_site_label
 _atom_site_symmetry_multiplicity
 _atom_site_fract_x
 _atom_site_fract_y
 _atom_site_fract_z
 _atom_site_occupancy
  Mg  Mg0  1  0.00000000  0.00000000  0.50000000  1
  Mg  Mg1  1  0.00000000  0.50000000  0.50000000  1
  Mg  Mg2  1  0.50000000  0.75089300  0.00000000  1
  Mg  Mg3  1  0.50000000  0.24910700  0.00000000  1
  Mg  Mg4  1  0.50000000  0.75039100  0.50000000  1
  Mg  Mg5  1  0.50000000  0.24960900  0.50000000  1
  Mg  Mg6  1  0.50000000  0.00000000  0.74820700  1
  Mg  Mg7  1  0.50000000  0.50000000  0.74697900  1
  Mg  Mg8  1  0.50000000  0.00000000  0.25179300  1
  Mg  Mg9  1  0.50000000  0.50000000  0.25302100  1
  Mg  Mg10  1  0.00000000  0.75023800  0.74765300  1
  Mg  Mg11  1  0.00000000  0.24976200  0.74765300  1
  Mg  Mg12  1  0.00000000  0.75023800  0.25234700  1
  Mg  Mg13  1  0.00000000  0.24976200  0.25234700  1
  Mn  Mn0  1  0.00000000  0.00000000  0.00000000  1
  Si  Si0  1  0.00000000  0.50000000  0.00000000  1
  O  O0  1  0.00000000  0.00000000  0.74129400  1
  O  O1  1  0.00000000  0.50000000  0.73702800  1
  O  O2  1  0.00000000  0.00000000  0.25870600  1
  O  O3  1  0.00000000  0.50000000  0.26297200  1
  O  O4  1  0.50000000  0.74972200  0.75138400  1
  O  O5  1  0.50000000  0.25027800  0.75138400  1
  O  O6  1  0.50000000  0.74972200  0.24861600  1
  O  O7  1  0.50000000  0.25027800  0.24861600  1
  O  O8  1  0.50000000  0.00000000  0.00000000  1
  O  O9  1  0.50000000  0.50000000  0.00000000  1
  O  O10  1  0.50000000  0.00000000  0.50000000  1
  O  O11  1  0.50000000  0.50000000  0.50000000  1
  O  O12  1  0.00000000  0.75219900  0.00000000  1
  O  O13  1  0.00000000  0.24780100  0.00000000  1
  O  O14  1  0.00000000  0.75130600  0.50000000  1
  O  O15  1  0.00000000  0.24869400  0.50000000  1
loop_
_geom_bond_atom_site_label_1
_geom_bond_atom_site_label_2
_geom_bond_distance
_geom_bond_site_symmetry_2
Mg0 O0 2.082325 1_555
Mg0 O2 2.082325 1_555
Mg0 O14 2.138951 1_545
Mg0 O15 2.138951 1_555
Mg0 O10 2.153192 1_455
Mg0 O10 2.153192 1_555
Mg1 O3 2.045510 1_555
Mg1 O1 2.045510 1_555
Mg1 O11 2.153192 1_555
Mg1 O11 2.153192 1_455
Mg1 O14 2.161416 1_555
Mg1 O15 2.161416 1_555
Mg2 O8 2.142503 1_565
Mg2 O4 2.145536 1_554
Mg2 O6 2.145536 1_555
Mg2 O12 2.153222 1_655
Mg2 O12 2.153222 1_555
Mg2 O9 2.157864 1_555
Mg3 O8 2.142503 1_555
Mg3 O5 2.145536 1_554
Mg3 O7 2.145536 1_555
Mg3 O13 2.153222 1_555
Mg3 O13 2.153222 1_655
Mg3 O9 2.157864 1_555
Mg4 O10 2.146820 1_565
Mg4 O14 2.153207 1_655
Mg4 O14 2.153207 1_555
Mg4 O11 2.153546 1_555
Mg4 O6 2.169407 1_555
Mg4 O4 2.169407 1_555
Mg5 O10 2.146820 1_555
Mg5 O15 2.153207 1_655
Mg5 O15 2.153207 1_555
Mg5 O11 2.153546 1_555
Mg5 O7 2.169407 1_555
Mg5 O5 2.169407 1_555
Mg6 O10 2.141982 1_555
Mg6 O4 2.152749 1_545
Mg6 O5 2.152749 1_555
Mg6 O0 2.154019 1_555
Mg6 O0 2.154019 1_655
Mg6 O8 2.172929 1_556
Mg7 O11 2.131385 1_555
Mg7 O4 2.148129 1_555
Mg7 O5 2.148129 1_555
Mg7 O1 2.154904 1_655
Mg7 O1 2.154904 1_555
Mg7 O9 2.183526 1_556
Mg8 O10 2.141982 1_555
Mg8 O7 2.152749 1_555
Mg8 O6 2.152749 1_545
Mg8 O2 2.154019 1_655
Mg8 O2 2.154019 1_555
Mg8 O8 2.172929 1_555
Mg9 O11 2.131385 1_555
Mg9 O6 2.148129 1_555
Mg9 O7 2.148129 1_555
Mg9 O3 2.154904 1_555
Mg9 O3 2.154904 1_655
Mg9 O9 2.183526 1_555
Mg10 O14 2.137221 1_555
Mg10 O0 2.148837 1_565
Mg10 O4 2.153438 1_455
Mg10 O4 2.153438 1_555
Mg10 O1 2.154183 1_555
Mg10 O12 2.177775 1_556
Mg11 O15 2.137221 1_555
Mg11 O0 2.148837 1_555
Mg11 O5 2.153438 1_555
Mg11 O5 2.153438 1_455
Mg11 O1 2.154183 1_555
Mg11 O13 2.177775 1_556
Mg12 O14 2.137221 1_555
Mg12 O2 2.148837 1_565
Mg12 O6 2.153438 1_455
Mg12 O6 2.153438 1_555
Mg12 O3 2.154183 1_555
Mg12 O12 2.177775 1_555
Mg13 O15 2.137221 1_555
Mg13 O2 2.148837 1_555
Mg13 O7 2.153438 1_455
Mg13 O7 2.153438 1_555
Mg13 O3 2.154183 1_555
Mg13 O13 2.177775 1_555
Mn0 O13 2.131270 1_555
Mn0 O12 2.131270 1_545
Mn0 O8 2.153192 1_555
Mn0 O8 2.153192 1_455
Mn0 O0 2.232587 1_554
Mn0 O2 2.232587 1_555
O1 Si0 2.269402 1_556
O3 Si0 2.269402 1_555
O9 Si0 2.153192 1_555
O9 Si0 2.153192 1_655
O12 Si0 2.169096 1_555
O13 Si0 2.169096 1_555
