# generated using pymatgen
data_Nd3GaFeSe7
_symmetry_space_group_name_H-M   'P 1'
_cell_length_a   6.51444400
_cell_length_b   10.40865269
_cell_length_c   10.36433240
_cell_angle_alpha   120.19953622
_cell_angle_beta   90.00000000
_cell_angle_gamma   90.00000000
_symmetry_Int_Tables_number   1
_chemical_formula_structural   Nd3GaFeSe7
_chemical_formula_sum   'Nd6 Ga2 Fe2 Se14'
_cell_volume   607.38925228
_cell_formula_units_Z   2
loop_
 _symmetry_equiv_pos_site_id
 _symmetry_equiv_pos_as_xyz
  1  'x, y, z'
loop_
 _atom_site_type_symbol
 _atom_site_label
 _atom_site_symmetry_multiplicity
 _atom_site_fract_x
 _atom_site_fract_y
 _atom_site_fract_z
 _atom_site_occupancy
  Nd  Nd0  1  0.82105200  0.15870700  0.78220900  1
  Nd  Nd1  1  0.81925600  0.21747500  0.37368200  1
  Nd  Nd2  1  0.82115700  0.62454500  0.84424400  1
  Nd  Nd3  1  0.32105200  0.84129300  0.21779100  1
  Nd  Nd4  1  0.31925600  0.78252500  0.62631800  1
  Nd  Nd5  1  0.32115700  0.37545500  0.15575600  1
  Ga  Ga0  1  0.90034800  0.66674000  0.33377200  1
  Ga  Ga1  1  0.40034800  0.33326000  0.66622800  1
  Fe  Fe0  1  0.50922400  0.99759800  0.99524600  1
  Fe  Fe1  1  0.00922400  0.00240200  0.00475400  1
  Se  Se0  1  0.54956600  0.43470900  0.91408300  1
  Se  Se1  1  0.54913900  0.08693800  0.52090700  1
  Se  Se2  1  0.54987000  0.47904800  0.56580800  1
  Se  Se3  1  0.04956600  0.56529100  0.08591700  1
  Se  Se4  1  0.04913900  0.91306200  0.47909300  1
  Se  Se5  1  0.04987000  0.52095200  0.43419200  1
  Se  Se6  1  0.53086200  0.66647900  0.33369200  1
  Se  Se7  1  0.03086200  0.33352100  0.66630800  1
  Se  Se8  1  0.74327000  0.86547800  0.76421100  1
  Se  Se9  1  0.74444100  0.23603200  0.10113700  1
  Se  Se10  1  0.74261500  0.89966200  0.13505100  1
  Se  Se11  1  0.24327000  0.13452200  0.23578900  1
  Se  Se12  1  0.24444100  0.76396800  0.89886300  1
  Se  Se13  1  0.24261500  0.10033800  0.86494900  1
loop_
_geom_bond_atom_site_label_1
_geom_bond_atom_site_label_2
_geom_bond_distance
_geom_bond_site_symmetry_2
Nd0 Se7 2.969996 1_655
Nd0 Se1 2.999156 1_555
Nd0 Se8 3.005697 1_545
Nd0 Se9 3.024333 1_556
Nd0 Se13 3.028284 1_655
Nd0 Se0 3.049399 1_555
Nd0 Se4 3.245591 1_645
Nd1 Se9 2.966975 1_555
Nd1 Se7 2.978610 1_655
Nd1 Se2 3.000557 1_555
Nd1 Se10 3.013024 1_545
Nd1 Se11 3.029265 1_655
Nd1 Se1 3.058855 1_555
Nd1 Se5 3.261175 1_655
Nd2 Se7 2.970375 1_655
Nd2 Se10 2.977138 1_556
Nd2 Se0 2.999572 1_555
Nd2 Se12 3.033740 1_655
Nd2 Se8 3.054049 1_555
Nd2 Se2 3.057445 1_555
Nd2 Se3 3.228384 1_656
Nd3 Se6 2.969996 1_555
Nd3 Se4 2.999156 1_555
Nd3 Se11 3.005697 1_565
Nd3 Se12 3.024333 1_554
Nd3 Se10 3.028284 1_555
Nd3 Se3 3.049399 1_555
Nd3 Se1 3.245591 1_565
Nd4 Se12 2.966975 1_555
Nd4 Se6 2.978610 1_555
Nd4 Se5 3.000557 1_555
Nd4 Se13 3.013024 1_565
Nd4 Se8 3.029265 1_555
Nd4 Se4 3.058855 1_555
Nd4 Se2 3.261175 1_555
Nd5 Se6 2.970375 1_555
Nd5 Se13 2.977138 1_554
Nd5 Se3 2.999572 1_555
Nd5 Se9 3.033740 1_555
Nd5 Se11 3.054049 1_555
Nd5 Se5 3.057445 1_555
Nd5 Se0 3.228384 1_554
Ga0 Se6 2.406997 1_555
Ga0 Se4 2.428299 1_655
Ga0 Se5 2.433835 1_655
Ga0 Se3 2.435165 1_655
Ga1 Se7 2.406997 1_555
Ga1 Se1 2.428299 1_555
Ga1 Se2 2.433835 1_555
Ga1 Se0 2.435165 1_555
Fe0 Se8 2.576193 1_555
Fe0 Se10 2.633690 1_556
Fe0 Se9 2.640365 1_566
Fe0 Se13 2.727018 1_565
Fe0 Se12 2.728167 1_555
Fe0 Se11 2.770154 1_566
Fe1 Se11 2.576193 1_555
Fe1 Se13 2.633690 1_554
Fe1 Se12 2.640365 1_544
Fe1 Se10 2.727018 1_445
Fe1 Se9 2.728167 1_455
Fe1 Se8 2.770154 1_444
