# generated using pymatgen
data_Sr6Al12Bi2O27
_symmetry_space_group_name_H-M   'P 1'
_cell_length_a   10.53146751
_cell_length_b   10.53146751
_cell_length_c   10.53146745
_cell_angle_alpha   115.04782172
_cell_angle_beta   115.04782165
_cell_angle_gamma   115.04781930
_symmetry_Int_Tables_number   1
_chemical_formula_structural   Sr6Al12Bi2O27
_chemical_formula_sum   'Sr6 Al12 Bi2 O27'
_cell_volume   650.85971612
_cell_formula_units_Z   1
loop_
 _symmetry_equiv_pos_site_id
 _symmetry_equiv_pos_as_xyz
  1  'x, y, z'
loop_
 _atom_site_type_symbol
 _atom_site_label
 _atom_site_symmetry_multiplicity
 _atom_site_fract_x
 _atom_site_fract_y
 _atom_site_fract_z
 _atom_site_occupancy
  Sr  Sr0  1  0.19840234  0.23974914  0.84181783  1
  Sr  Sr1  1  0.23974914  0.84181783  0.19840234  1
  Sr  Sr2  1  0.84181783  0.19840234  0.23974914  1
  Sr  Sr3  1  0.80193919  0.77030456  0.16182517  1
  Sr  Sr4  1  0.77030456  0.16182517  0.80193919  1
  Sr  Sr5  1  0.16182517  0.80193919  0.77030456  1
  Al  Al0  1  0.01837599  0.56004804  0.26003304  1
  Al  Al1  1  0.56004804  0.26003304  0.01837599  1
  Al  Al2  1  0.26003304  0.01837599  0.56004804  1
  Al  Al3  1  0.97836604  0.43703058  0.73808438  1
  Al  Al4  1  0.43703058  0.73808438  0.97836604  1
  Al  Al5  1  0.73808438  0.97836604  0.43703058  1
  Al  Al6  1  0.34662765  0.38828727  0.66122520  1
  Al  Al7  1  0.38828727  0.66122520  0.34662765  1
  Al  Al8  1  0.66122520  0.34662765  0.38828727  1
  Al  Al9  1  0.66212037  0.61753236  0.34088934  1
  Al  Al10  1  0.61753236  0.34088934  0.66212037  1
  Al  Al11  1  0.34088934  0.66212037  0.61753236  1
  Bi  Bi0  1  0.19632370  0.19632370  0.19632370  1
  Bi  Bi1  1  0.77299831  0.77299831  0.77299831  1
  O  O0  1  0.68214713  0.94210810  0.23633295  1
  O  O1  1  0.94210810  0.23633295  0.68214713  1
  O  O2  1  0.23633295  0.68214713  0.94210810  1
  O  O3  1  0.31073869  0.05652957  0.76115438  1
  O  O4  1  0.05652957  0.76115438  0.31073869  1
  O  O5  1  0.76115438  0.31073869  0.05652957  1
  O  O6  1  0.59281435  0.49801249  0.76945496  1
  O  O7  1  0.49801249  0.76945496  0.59281435  1
  O  O8  1  0.76945496  0.59281435  0.49801249  1
  O  O9  1  0.42234110  0.51202243  0.24661570  1
  O  O10  1  0.51202243  0.24661570  0.42234110  1
  O  O11  1  0.24661570  0.42234110  0.51202243  1
  O  O12  1  0.13177025  0.52965396  0.18286841  1
  O  O13  1  0.52965396  0.18286841  0.13177025  1
  O  O14  1  0.18286841  0.13177025  0.52965396  1
  O  O15  1  0.86989265  0.46170298  0.82300396  1
  O  O16  1  0.46170298  0.82300396  0.86989265  1
  O  O17  1  0.82300396  0.86989265  0.46170298  1
  O  O18  1  0.52859021  0.87666954  0.39801917  1
  O  O19  1  0.87666954  0.39801917  0.52859021  1
  O  O20  1  0.39801917  0.52859021  0.87666954  1
  O  O21  1  0.47180524  0.12081240  0.60260936  1
  O  O22  1  0.12081240  0.60260936  0.47180524  1
  O  O23  1  0.60260936  0.47180524  0.12081240  1
  O  O24  1  0.89889656  0.98389667  0.07955434  1
  O  O25  1  0.98389667  0.07955434  0.89889656  1
  O  O26  1  0.07955434  0.89889656  0.98389667  1
loop_
_geom_bond_atom_site_label_1
_geom_bond_atom_site_label_2
_geom_bond_distance
_geom_bond_site_symmetry_2
Al0 O22 1.745169 1_555
Al0 O4 1.752813 1_555
Al0 O12 1.764702 1_555
Al0 O5 1.766905 1_455
Al1 O23 1.745169 1_555
Al1 O5 1.752813 1_555
Al1 O13 1.764702 1_555
Al1 O3 1.766905 1_554
Al2 O21 1.745169 1_555
Al2 O3 1.752813 1_555
Al2 O14 1.764702 1_555
Al2 O4 1.766905 1_545
Al3 O1 1.741298 1_555
Al3 O19 1.744302 1_555
Al3 O2 1.756009 1_655
Al3 O15 1.758422 1_555
Al4 O2 1.741298 1_555
Al4 O20 1.744302 1_555
Al4 O0 1.756009 1_556
Al4 O16 1.758422 1_555
Al5 O0 1.741298 1_555
Al5 O18 1.744302 1_555
Al5 O1 1.756009 1_565
Al5 O17 1.758422 1_555
Al6 O14 1.747639 1_555
Al6 O20 1.751728 1_555
Al6 O11 1.761446 1_555
Al6 O6 1.789453 1_555
Al7 O12 1.747639 1_555
Al7 O18 1.751728 1_555
Al7 O9 1.761446 1_555
Al7 O7 1.789453 1_555
Al8 O13 1.747639 1_555
Al8 O19 1.751728 1_555
Al8 O10 1.761446 1_555
Al8 O8 1.789453 1_555
Al9 O17 1.746836 1_555
Al9 O23 1.750328 1_555
Al9 O8 1.764587 1_555
Al9 O9 1.778817 1_555
Al10 O15 1.746836 1_555
Al10 O21 1.750328 1_555
Al10 O6 1.764587 1_555
Al10 O10 1.778817 1_555
Al11 O16 1.746836 1_555
Al11 O22 1.750328 1_555
Al11 O7 1.764587 1_555
Al11 O11 1.778817 1_555
Bi0 O25 2.191780 1_454
Bi0 O26 2.191780 1_544
Bi0 O24 2.191780 1_445
Bi0 O11 2.782213 1_555
Bi0 O10 2.782213 1_555
Bi0 O9 2.782213 1_555
Bi1 O24 2.219070 1_556
Bi1 O26 2.219070 1_655
Bi1 O25 2.219070 1_565
Bi1 O8 2.680369 1_555
Bi1 O7 2.680369 1_555
Bi1 O6 2.680369 1_555
O0 Sr2 2.477440 1_565
O0 Sr3 2.655169 1_555
O1 Sr0 2.477440 1_655
O1 Sr4 2.655169 1_555
O2 Sr1 2.477440 1_556
O2 Sr5 2.655169 1_555
O3 Sr5 2.538491 1_545
O3 Sr0 2.690826 1_555
O4 Sr3 2.538491 1_455
O4 Sr1 2.690826 1_555
O5 Sr4 2.538491 1_554
O5 Sr2 2.690826 1_555
O6 Sr3 2.657366 1_556
O7 Sr4 2.657366 1_565
O8 Sr5 2.657366 1_655
O9 Sr0 2.714412 1_554
O10 Sr1 2.714412 1_545
O11 Sr2 2.714412 1_455
O12 Sr4 2.648531 1_454
O12 Sr1 2.889526 1_555
O13 Sr5 2.648531 1_544
O13 Sr2 2.889526 1_555
O14 Sr3 2.648531 1_445
O14 Sr0 2.889526 1_555
O15 Sr1 2.680259 1_656
O15 Sr4 2.743757 1_555
O16 Sr2 2.680259 1_566
O16 Sr5 2.743757 1_555
O17 Sr0 2.680259 1_665
O17 Sr3 2.743757 1_555
O18 Sr1 2.606501 1_555
O18 Sr4 2.671097 1_565
O19 Sr2 2.606501 1_555
O19 Sr5 2.671097 1_655
O20 Sr0 2.606501 1_555
O20 Sr3 2.671097 1_556
O21 Sr4 2.640155 1_555
O21 Sr1 2.691971 1_545
O22 Sr5 2.640155 1_555
O22 Sr2 2.691971 1_455
O23 Sr3 2.640155 1_555
O23 Sr0 2.691971 1_554
O24 Sr2 2.663155 1_565
O24 Sr3 2.703306 1_555
O25 Sr0 2.663155 1_655
O25 Sr4 2.703306 1_555
O26 Sr1 2.663155 1_556
O26 Sr5 2.703306 1_555
