# generated using pymatgen
data_Sr3La7Ga(Co3O10)3
_symmetry_space_group_name_H-M   'P 1'
_cell_length_a   5.46402283
_cell_length_b   5.46402245
_cell_length_c   54.67582888
_cell_angle_alpha   60.86783369
_cell_angle_beta   60.86783592
_cell_angle_gamma   60.69286500
_symmetry_Int_Tables_number   1
_chemical_formula_structural   Sr3La7Ga(Co3O10)3
_chemical_formula_sum   'Sr6 La14 Ga2 Co18 O60'
_cell_volume   1175.33142686
_cell_formula_units_Z   2
loop_
 _symmetry_equiv_pos_site_id
 _symmetry_equiv_pos_as_xyz
  1  'x, y, z'
loop_
 _atom_site_type_symbol
 _atom_site_label
 _atom_site_symmetry_multiplicity
 _atom_site_fract_x
 _atom_site_fract_y
 _atom_site_fract_z
 _atom_site_occupancy
  Sr  Sr0  1  0.24590356  0.24824956  0.02565888  1
  Sr  Sr1  1  0.25107383  0.24840316  0.12485059  1
  Sr  Sr2  1  0.24972402  0.24800906  0.22529990  1
  Sr  Sr3  1  0.25199094  0.25027598  0.32470010  1
  Sr  Sr4  1  0.25159684  0.24892617  0.42514941  1
  Sr  Sr5  1  0.25175044  0.25409644  0.52434112  1
  La  La0  1  0.74967241  0.74796528  0.07495157  1
  La  La1  1  0.75212271  0.74880018  0.17527333  1
  La  La2  1  0.75379546  0.74620454  0.27500000  1
  La  La3  1  0.75119982  0.74787729  0.37472667  1
  La  La4  1  0.24796988  0.25315389  0.62416118  1
  La  La5  1  0.75203472  0.75032759  0.47504843  1
  La  La6  1  0.25267102  0.24948654  0.72472263  1
  La  La7  1  0.75087495  0.75703119  0.57389704  1
  La  La8  1  0.25051346  0.24732898  0.82527737  1
  La  La9  1  0.74629602  0.75095960  0.67495685  1
  La  La10  1  0.24684611  0.25203012  0.92583882  1
  La  La11  1  0.75383918  0.74616082  0.77500000  1
  La  La12  1  0.74904040  0.75370398  0.87504315  1
  La  La13  1  0.74296881  0.74912505  0.97610296  1
  Ga  Ga0  1  0.49935824  0.49582328  0.25072721  1
  Ga  Ga1  1  0.00417672  0.00064176  0.29927279  1
  Co  Co0  1  -0.00175512  0.99650526  0.00061406  1
  Co  Co1  1  0.00131480  0.99848262  0.09999226  1
  Co  Co2  1  0.99453551  -0.00185618  0.20055116  1
  Co  Co3  1  0.49866415  0.49864656  0.05025058  1
  Co  Co4  1  0.49995776  0.49988132  0.15021706  1
  Co  Co5  1  0.00011868  0.00004224  0.39978294  1
  Co  Co6  1  0.50185618  0.50546449  0.34944884  1
  Co  Co7  1  0.50151738  0.49868520  0.45000774  1
  Co  Co8  1  0.50349474  0.50175512  0.54938594  1
  Co  Co9  1  0.00135344  0.00133585  0.49974942  1
  Co  Co10  1  0.00331424  0.99777017  0.79995887  1
  Co  Co11  1  0.49766706  0.50088654  0.64987617  1
  Co  Co12  1  0.99274106  0.00250489  0.60025383  1
  Co  Co13  1  -0.00088654  0.00233294  0.90012383  1
  Co  Co14  1  0.50222983  0.49668576  0.75004113  1
  Co  Co15  1  -0.00062625  -0.00000404  0.69994260  1
  Co  Co16  1  0.50000404  0.50062625  0.85005740  1
  Co  Co17  1  0.49749511  0.50725894  0.94974617  1
  O  O0  1  0.20109016  0.73914458  0.03101800  1
  O  O1  1  0.31309361  0.20097159  0.07410709  1
  O  O2  1  0.24328261  0.72150623  0.07913324  1
  O  O3  1  0.75844304  0.29136406  0.01916673  1
  O  O4  1  0.19544213  0.74484530  0.13058323  1
  O  O5  1  0.70207624  0.78534536  0.02490821  1
  O  O6  1  0.31322022  0.21793363  0.17288556  1
  O  O7  1  0.78849222  0.26052055  0.06970996  1
  O  O8  1  0.25490461  0.71946440  0.17866288  1
  O  O9  1  0.75992743  0.28838445  0.11858634  1
  O  O10  1  0.19959085  0.75412567  0.22917934  1
  O  O11  1  0.70470046  0.77195547  0.12520738  1
  O  O12  1  0.31410852  0.18589148  0.27500000  1
  O  O13  1  0.79709411  0.24842111  0.17033598  1
  O  O14  1  0.24091977  0.70663691  0.27934663  1
  O  O15  1  0.75845191  0.30201669  0.21814901  1
  O  O16  1  0.19798331  0.74154809  0.33185099  1
  O  O17  1  0.70954027  0.78997873  0.22367401  1
  O  O18  1  0.28206637  0.18677978  0.37711444  1
  O  O19  1  0.79336309  0.25908023  0.27065337  1
  O  O20  1  0.25157889  0.70290589  0.37966402  1
  O  O21  1  0.74587433  0.30040915  0.32082066  1
  O  O22  1  0.21161555  0.74007257  0.43141366  1
  O  O23  1  0.71002127  0.79045973  0.32632599  1
  O  O24  1  0.29902841  0.18690639  0.47589291  1
  O  O25  1  0.78053560  0.24509539  0.37133712  1
  O  O26  1  0.23947945  0.71150778  0.48029004  1
  O  O27  1  0.75515470  0.30455787  0.41941677  1
  O  O28  1  0.20863594  0.74155696  0.53083327  1
  O  O29  1  0.72804453  0.79529954  0.42479262  1
  O  O30  1  0.29791930  0.18839635  0.57694796  1
  O  O31  1  0.77849377  0.25671739  0.47086676  1
  O  O32  1  0.23042408  0.70288975  0.58124628  1
  O  O33  1  0.76085542  0.29890984  0.51898200  1
  O  O34  1  0.18210119  0.75019928  0.63101861  1
  O  O35  1  0.71465464  0.79792376  0.52509179  1
  O  O36  1  0.30703360  0.18651695  0.67558225  1
  O  O37  1  0.77715598  0.25948259  0.57086375  1
  O  O38  1  0.24875169  0.69115718  0.68143023  1
  O  O39  1  0.74644721  0.30903791  0.61870527  1
  O  O40  1  0.18940511  0.75319442  0.73077203  1
  O  O41  1  0.69141738  0.81214885  0.62501944  1
  O  O42  1  0.31213713  0.18786287  0.77500000  1
  O  O43  1  0.81194123  0.24554020  0.66918292  1
  O  O44  1  0.25472668  0.68449934  0.78121989  1
  O  O45  1  0.75022564  0.30806091  0.71863116  1
  O  O46  1  0.19193909  0.74977436  0.83136884  1
  O  O47  1  0.69170478  0.81044628  0.72478077  1
  O  O48  1  0.31348305  0.19296640  0.87441775  1
  O  O49  1  0.81550066  0.24527332  0.76878011  1
  O  O50  1  0.25445980  0.68805877  0.88081708  1
  O  O51  1  0.74680558  0.31059489  0.81922797  1
  O  O52  1  0.19096209  0.75355279  0.93129473  1
  O  O53  1  0.68955372  0.80829522  0.82521923  1
  O  O54  1  0.31160365  0.20208070  0.97305204  1
  O  O55  1  0.80884282  0.25124831  0.86856977  1
  O  O56  1  0.24051741  0.72284402  0.97913625  1
  O  O57  1  0.74980072  0.31789881  0.91898139  1
  O  O58  1  0.68785115  0.80858262  0.92498056  1
  O  O59  1  0.79711025  0.26957592  0.96875372  1
loop_
_geom_bond_atom_site_label_1
_geom_bond_atom_site_label_2
_geom_bond_distance
_geom_bond_site_symmetry_2
La0 O1 2.456598 1_565
La0 O0 2.466548 1_655
La0 O9 2.481969 1_555
La0 O11 2.699925 1_555
La0 O7 2.711422 1_555
La0 O2 2.733593 1_555
La0 O2 2.744814 1_655
La0 O5 2.773562 1_555
La0 O7 2.776951 1_565
La0 O3 3.049684 1_565
La0 O1 3.066049 1_655
La0 O4 3.074818 1_555
La1 O15 2.424989 1_555
La1 O4 2.464927 1_655
La1 O6 2.509962 1_565
La1 O17 2.652715 1_555
La1 O8 2.710770 1_555
La1 O13 2.731376 1_565
La1 O13 2.757679 1_555
La1 O8 2.764581 1_655
La1 O11 2.810303 1_555
La1 O6 3.017160 1_655
La1 O10 3.022606 1_555
La1 O9 3.065584 1_565
La2 O12 2.427575 1_565
La2 O21 2.503513 1_555
La2 O10 2.503513 1_655
La2 O19 2.681447 1_555
La2 O14 2.681447 1_655
La2 O19 2.801986 1_565
La2 O14 2.801986 1_555
La2 O17 2.818069 1_555
La2 O23 2.818069 1_555
La2 O12 3.093570 1_655
La2 O15 3.113384 1_565
La2 O16 3.113384 1_555
La3 O16 2.424989 1_655
La3 O27 2.464927 1_555
La3 O18 2.509962 1_565
La3 O23 2.652715 1_555
La3 O25 2.710770 1_565
La3 O20 2.731376 1_555
La3 O20 2.757679 1_655
La3 O25 2.764580 1_555
La3 O29 2.810303 1_555
La3 O18 3.017160 1_655
La3 O21 3.022605 1_565
La3 O22 3.065584 1_555
La4 O32 2.434707 1_555
La4 O41 2.442198 1_545
La4 O43 2.454492 1_455
La4 O30 2.640502 1_555
La4 O39 2.745023 1_555
La4 O34 2.747578 1_555
La4 O39 2.753125 1_455
La4 O34 2.766974 1_545
La4 O36 2.812985 1_555
La4 O37 2.941005 1_555
La4 O41 3.080028 1_455
La4 O38 3.142050 1_545
La5 O24 2.456598 1_565
La5 O33 2.466548 1_555
La5 O22 2.481969 1_655
La5 O29 2.699925 1_555
La5 O26 2.711422 1_655
La5 O31 2.733593 1_565
La5 O31 2.744813 1_555
La5 O35 2.773562 1_555
La5 O26 2.776951 1_555
La5 O28 3.049685 1_555
La5 O24 3.066049 1_655
La5 O27 3.074818 1_565
La6 O38 2.421624 1_555
La6 O47 2.423989 1_545
La6 O49 2.430329 1_455
La6 O36 2.729182 1_555
La6 O45 2.733285 1_555
La6 O40 2.741457 1_545
La6 O42 2.763522 1_555
La6 O40 2.765409 1_555
La6 O45 2.770690 1_455
La7 O30 2.445126 1_565
La7 O28 2.461679 1_655
La7 O39 2.481111 1_555
La7 O35 2.664618 1_555
La7 O32 2.695427 1_655
La7 O37 2.733610 1_555
La7 O37 2.739493 1_565
La7 O41 2.801578 1_555
La7 O32 2.816236 1_555
La7 O33 3.021189 1_565
La7 O30 3.083001 1_655
La7 O34 3.156516 1_555
La8 O55 2.421624 1_455
La8 O53 2.423989 1_545
La8 O44 2.430329 1_555
La8 O48 2.729182 1_555
La8 O46 2.733284 1_545
La8 O51 2.741457 1_555
La8 O42 2.763522 1_555
La8 O51 2.765409 1_455
La8 O46 2.770690 1_555
La9 O36 2.415169 1_565
La9 O34 2.423188 1_655
La9 O45 2.435490 1_555
La9 O38 2.728185 1_555
La9 O41 2.732545 1_555
La9 O43 2.745782 1_565
La9 O47 2.755309 1_555
La9 O43 2.761114 1_555
La9 O38 2.779331 1_655
La10 O59 2.434707 1_455
La10 O58 2.442198 1_545
La10 O50 2.454492 1_555
La10 O54 2.640502 1_555
La10 O52 2.745023 1_545
La10 O57 2.747578 1_455
La10 O52 2.753125 1_555
La10 O57 2.766974 1_555
La10 O48 2.812985 1_555
La10 O56 2.941005 1_545
La10 O58 3.080028 1_455
La10 O55 3.142050 1_555
La11 O51 2.430805 1_555
La11 O40 2.430805 1_655
La11 O42 2.438701 1_565
La11 O49 2.748005 1_565
La11 O44 2.748005 1_555
La11 O49 2.758897 1_555
La11 O44 2.758897 1_655
La11 O47 2.762204 1_555
La11 O53 2.762204 1_555
La12 O48 2.415169 1_565
La12 O57 2.423188 1_555
La12 O46 2.435490 1_655
La12 O55 2.728185 1_565
La12 O58 2.732545 1_555
La12 O50 2.745782 1_555
La12 O53 2.755309 1_555
La12 O50 2.761114 1_655
La12 O55 2.779331 1_555
La13 O54 2.445126 1_565
La13 O3 2.461679 1_556
La13 O52 2.481111 1_655
La13 O5 2.664618 1_556
La13 O59 2.695427 1_555
La13 O56 2.733610 1_655
La13 O56 2.739493 1_555
La13 O58 2.801578 1_555
La13 O59 2.816236 1_565
La13 O0 3.021189 1_556
La13 O54 3.083001 1_655
La13 O57 3.156516 1_565
Ga0 O19 1.933516 1_555
Ga0 O14 1.944378 1_555
Ga0 O12 1.958478 1_555
Ga0 O17 1.982037 1_555
Ga0 O10 2.014840 1_555
Ga0 O15 2.052333 1_555
Ga1 O14 1.933516 1_545
Ga1 O19 1.944378 1_455
Ga1 O12 1.958478 1_555
Ga1 O23 1.982037 1_445
Ga1 O21 2.014840 1_455
Ga1 O16 2.052333 1_545
Co0 O3 1.889967 1_465
Co0 O56 1.904095 1_554
Co0 O5 1.989268 1_455
Co0 O0 1.990325 1_555
Co0 O54 2.046162 1_564
Co0 O59 2.048563 1_464
Co1 O9 1.870668 1_465
Co1 O2 1.895432 1_555
Co1 O4 1.968417 1_555
Co1 O7 2.019937 1_465
Co1 O1 2.025437 1_565
Co1 O11 2.046040 1_455
Co2 O15 1.896528 1_555
Co2 O10 1.922556 1_645
Co2 O17 1.932364 1_545
Co2 O8 1.941818 1_645
Co2 O13 1.963296 1_555
Co2 O6 2.115754 1_655
Co3 O7 1.899544 1_555
Co3 O1 1.906873 1_555
Co3 O5 1.923773 1_555
Co3 O0 1.924547 1_555
Co3 O2 1.996770 1_555
Co3 O3 2.034081 1_555
Co4 O6 1.843653 1_555
Co4 O11 1.868378 1_555
Co4 O13 1.953782 1_555
Co4 O8 1.966686 1_555
Co4 O4 1.967808 1_555
Co4 O9 2.071511 1_555
Co5 O18 1.843653 1_555
Co5 O29 1.868378 1_445
Co5 O20 1.953782 1_545
Co5 O25 1.966686 1_455
Co5 O27 1.967808 1_455
Co5 O22 2.071511 1_545
Co6 O16 1.896528 1_555
Co6 O21 1.922556 1_555
Co6 O23 1.932364 1_555
Co6 O25 1.941818 1_555
Co6 O20 1.963296 1_555
Co6 O18 2.115754 1_555
Co7 O22 1.870668 1_555
Co7 O31 1.895432 1_555
Co7 O27 1.968417 1_555
Co7 O26 2.019937 1_555
Co7 O24 2.025437 1_555
Co7 O29 2.046040 1_555
Co8 O28 1.889967 1_555
Co8 O37 1.904095 1_555
Co8 O35 1.989268 1_555
Co8 O33 1.990325 1_555
Co8 O30 2.046162 1_555
Co8 O32 2.048563 1_555
Co9 O26 1.899544 1_545
Co9 O24 1.906873 1_555
Co9 O35 1.923773 1_445
Co9 O33 1.924547 1_455
Co9 O31 1.996770 1_455
Co9 O28 2.034081 1_545
Co10 O42 1.970324 1_565
Co10 O49 1.971828 1_465
Co10 O44 1.975350 1_555
Co10 O46 1.984461 1_555
Co10 O53 1.989595 1_455
Co10 O51 1.991567 1_465
Co11 O39 1.984967 1_555
Co11 O34 1.988913 1_555
Co11 O41 1.992890 1_555
Co11 O38 1.996146 1_555
Co11 O36 1.996628 1_555
Co11 O43 1.998787 1_555
Co12 O32 1.925559 1_645
Co12 O39 1.936700 1_555
Co12 O41 1.939241 1_545
Co12 O30 1.940375 1_655
Co12 O34 1.959798 1_645
Co12 O37 1.992055 1_555
Co13 O52 1.984967 1_545
Co13 O57 1.988913 1_455
Co13 O58 1.992890 1_445
Co13 O55 1.996146 1_455
Co13 O48 1.996628 1_555
Co13 O50 1.998787 1_545
Co14 O42 1.970323 1_555
Co14 O44 1.971828 1_555
Co14 O49 1.975350 1_555
Co14 O45 1.984461 1_555
Co14 O47 1.989595 1_555
Co14 O40 1.991567 1_555
Co15 O38 1.948841 1_545
Co15 O45 1.951333 1_455
Co15 O43 1.952507 1_455
Co15 O36 1.952996 1_555
Co15 O47 1.963491 1_445
Co15 O40 1.964208 1_545
Co16 O55 1.948841 1_555
Co16 O46 1.951334 1_555
Co16 O50 1.952507 1_555
Co16 O48 1.952996 1_555
Co16 O53 1.963491 1_555
Co16 O51 1.964208 1_555
Co17 O59 1.925559 1_555
Co17 O52 1.936700 1_555
Co17 O58 1.939241 1_555
Co17 O54 1.940375 1_555
Co17 O57 1.959798 1_555
Co17 O56 1.992055 1_555
O0 Sr0 2.718959 1_555
O0 Sr0 2.772609 1_565
O1 Sr0 2.721433 1_555
O1 Sr1 2.752859 1_555
O2 Sr1 2.576219 1_555
O2 Sr0 2.939142 1_565
O3 Sr0 2.738712 1_655
O3 Sr0 2.760619 1_555
O4 Sr1 2.734322 1_555
O4 Sr1 2.765405 1_565
O5 Sr0 2.537999 1_565
O5 Sr0 2.984664 1_655
O6 Sr1 2.725436 1_555
O6 Sr2 2.791920 1_555
O7 Sr0 2.486800 1_655
O7 Sr1 3.015428 1_555
O8 Sr2 2.596991 1_555
O8 Sr1 2.954892 1_565
O9 Sr1 2.736818 1_555
O9 Sr1 2.759542 1_655
O10 Sr2 2.740841 1_565
O10 Sr2 2.746013 1_555
O11 Sr1 2.569405 1_565
O11 Sr1 2.955231 1_655
O12 Sr2 2.745737 1_555
O12 Sr3 2.745737 1_555
O13 Sr1 2.516268 1_655
O13 Sr2 3.037287 1_555
O14 Sr3 2.519632 1_555
O14 Sr2 2.995794 1_565
O15 Sr2 2.753102 1_655
O15 Sr2 2.756668 1_555
O16 Sr3 2.753102 1_555
O16 Sr3 2.756668 1_565
O17 Sr2 2.535189 1_565
O17 Sr2 2.988556 1_655
O18 Sr4 2.725436 1_555
O18 Sr3 2.791920 1_555
O19 Sr2 2.519632 1_655
O19 Sr3 2.995794 1_555
O20 Sr4 2.516268 1_555
O20 Sr3 3.037287 1_565
O21 Sr3 2.740841 1_555
O21 Sr3 2.746013 1_655
O22 Sr4 2.736817 1_565
O22 Sr4 2.759542 1_555
O23 Sr3 2.535189 1_565
O23 Sr3 2.988556 1_655
O24 Sr5 2.721433 1_555
O24 Sr4 2.752859 1_555
O25 Sr3 2.596991 1_655
O25 Sr4 2.954892 1_555
O26 Sr5 2.486800 1_555
O26 Sr4 3.015428 1_565
O27 Sr4 2.734322 1_655
O27 Sr4 2.765405 1_555
O28 Sr5 2.738712 1_555
O28 Sr5 2.760619 1_565
O29 Sr4 2.569405 1_565
O29 Sr4 2.955231 1_655
O30 Sr5 2.842220 1_555
O31 Sr4 2.576219 1_655
O31 Sr5 2.939143 1_555
O32 Sr5 3.103499 1_565
O33 Sr5 2.718959 1_655
O33 Sr5 2.772609 1_555
O35 Sr5 2.537999 1_565
O35 Sr5 2.984664 1_655
O37 Sr5 2.602212 1_655
O54 Sr0 2.842220 1_556
O56 Sr0 2.602212 1_556
O59 Sr0 3.103500 1_556
