# generated using pymatgen
data_CsYZnTe3
_symmetry_space_group_name_H-M   'P 1'
_cell_length_a   4.45983800
_cell_length_b   8.86237483
_cell_length_c   11.79406400
_cell_angle_alpha   90.00000000
_cell_angle_beta   90.00000000
_cell_angle_gamma   104.57318404
_symmetry_Int_Tables_number   1
_chemical_formula_structural   CsYZnTe3
_chemical_formula_sum   'Cs2 Y2 Zn2 Te6'
_cell_volume   451.15983566
_cell_formula_units_Z   2
loop_
 _symmetry_equiv_pos_site_id
 _symmetry_equiv_pos_as_xyz
  1  'x, y, z'
loop_
 _atom_site_type_symbol
 _atom_site_label
 _atom_site_symmetry_multiplicity
 _atom_site_fract_x
 _atom_site_fract_y
 _atom_site_fract_z
 _atom_site_occupancy
  Cs  Cs0  1  0.74500200  0.49000400  0.25000000  1
  Cs  Cs1  1  0.25499800  0.50999600  0.75000000  1
  Y  Y0  1  0.00000000  0.00000000  0.50000000  1
  Y  Y1  1  0.00000000  0.00000000  0.00000000  1
  Zn  Zn0  1  0.46016100  0.92032200  0.25000000  1
  Zn  Zn1  1  0.53983900  0.07967800  0.75000000  1
  Te  Te0  1  0.37911400  0.75822800  0.44262700  1
  Te  Te1  1  0.62088600  0.24177200  0.55737300  1
  Te  Te2  1  0.37911400  0.75822800  0.05737300  1
  Te  Te3  1  0.62088600  0.24177200  0.94262700  1
  Te  Te4  1  0.05784700  0.11569400  0.25000000  1
  Te  Te5  1  0.94215300  0.88430600  0.75000000  1
loop_
_geom_bond_atom_site_label_1
_geom_bond_atom_site_label_2
_geom_bond_distance
_geom_bond_site_symmetry_2
Cs0 Te4 3.908985 1_655
Cs0 Te4 3.908985 1_555
Cs0 Te2 3.927688 1_655
Cs0 Te0 3.927688 1_655
Cs0 Te2 3.927688 1_555
Cs0 Te0 3.927688 1_555
Cs0 Te3 4.204185 1_554
Cs0 Te1 4.204185 1_555
Cs1 Te5 3.908985 1_555
Cs1 Te5 3.908985 1_455
Cs1 Te3 3.927688 1_455
Cs1 Te3 3.927688 1_555
Cs1 Te1 3.927688 1_455
Cs1 Te1 3.927688 1_555
Cs1 Te2 4.204185 1_556
Cs1 Te0 4.204185 1_555
Te0 Zn0 2.663516 1_555
Te0 Y0 3.119423 1_565
Te0 Y0 3.119423 1_665
Te1 Zn1 2.663516 1_555
Te1 Y0 3.119423 1_655
Te1 Y0 3.119423 1_555
Te2 Zn0 2.663516 1_555
Te2 Y1 3.119423 1_565
Te2 Y1 3.119423 1_665
Te3 Zn1 2.663516 1_555
Te3 Y1 3.119423 1_656
Te3 Y1 3.119423 1_556
Te4 Zn0 2.789389 1_445
Te4 Zn0 2.789389 1_545
Te4 Y1 3.111025 1_555
Te4 Y0 3.111025 1_555
Te5 Zn1 2.789389 1_665
Te5 Zn1 2.789389 1_565
Te5 Y1 3.111025 1_666
Te5 Y0 3.111025 1_665
