# generated using pymatgen
data_MgSb2O
_symmetry_space_group_name_H-M   'P 1'
_cell_length_a   6.47760823
_cell_length_b   9.55993137
_cell_length_c   9.56811536
_cell_angle_alpha   120.02832509
_cell_angle_beta   89.85490442
_cell_angle_gamma   90.07260255
_symmetry_Int_Tables_number   1
_chemical_formula_structural   MgSb2O
_chemical_formula_sum   'Mg6 Sb12 O6'
_cell_volume   512.98074756
_cell_formula_units_Z   6
loop_
 _symmetry_equiv_pos_site_id
 _symmetry_equiv_pos_as_xyz
  1  'x, y, z'
loop_
 _atom_site_type_symbol
 _atom_site_label
 _atom_site_symmetry_multiplicity
 _atom_site_fract_x
 _atom_site_fract_y
 _atom_site_fract_z
 _atom_site_occupancy
  Mg  Mg0  1  0.13866100  0.36024600  0.35990200  1
  Mg  Mg1  1  0.13866100  0.63975400  0.99965600  1
  Mg  Mg2  1  0.13706700  0.00000000  0.64069200  1
  Mg  Mg3  1  0.86133900  0.63975400  0.64009800  1
  Mg  Mg4  1  0.86133900  0.36024600  0.00034400  1
  Mg  Mg5  1  0.86293300  0.00000000  0.35930800  1
  Sb  Sb0  1  0.00000000  0.00000000  0.00000000  1
  Sb  Sb1  1  0.50000000  0.00000000  0.00000000  1
  Sb  Sb2  1  0.00000000  0.66699600  0.33349800  1
  Sb  Sb3  1  0.00000000  0.33300400  0.66650200  1
  Sb  Sb4  1  0.50000000  0.66646600  0.33323300  1
  Sb  Sb5  1  0.50000000  0.33353400  0.66676700  1
  Sb  Sb6  1  0.62253900  0.37369300  0.37327500  1
  Sb  Sb7  1  0.62253900  0.62630700  0.99958200  1
  Sb  Sb8  1  0.62349500  0.00000000  0.62597800  1
  Sb  Sb9  1  0.37746100  0.62630700  0.62672500  1
  Sb  Sb10  1  0.37746100  0.37369300  0.00041800  1
  Sb  Sb11  1  0.37650500  0.00000000  0.37402200  1
  O  O0  1  0.20043300  0.16184700  0.16126700  1
  O  O1  1  0.20043300  0.83815300  0.99942000  1
  O  O2  1  0.20075700  0.00000000  0.83744800  1
  O  O3  1  0.79956700  0.83815300  0.83873300  1
  O  O4  1  0.79956700  0.16184700  0.00058000  1
  O  O5  1  0.79924300  0.00000000  0.16255200  1
loop_
_geom_bond_atom_site_label_1
_geom_bond_atom_site_label_2
_geom_bond_distance
_geom_bond_site_symmetry_2
Mg0 O0 1.939038 1_555
Mg0 Sb9 2.981764 1_555
Mg0 Sb6 3.137154 1_555
Mg0 Sb2 3.196795 1_555
Mg0 Sb3 3.198625 1_555
Mg0 Sb6 3.345532 1_455
Mg1 O1 1.939038 1_555
Mg1 Sb10 2.981764 1_556
Mg1 Sb7 3.137154 1_555
Mg1 Sb3 3.196795 1_555
Mg1 Sb2 3.198625 1_556
Mg1 Sb7 3.345532 1_455
Mg2 O2 1.928279 1_555
Mg2 Sb11 2.982585 1_555
Mg2 Sb8 3.153677 1_555
Mg2 Sb3 3.194236 1_555
Mg2 Sb2 3.194236 1_545
Mg2 Sb8 3.330052 1_455
Mg3 O3 1.939038 1_555
Mg3 Sb6 2.981764 1_555
Mg3 Sb9 3.137154 1_555
Mg3 Sb3 3.196795 1_655
Mg3 Sb2 3.198625 1_655
Mg3 Sb9 3.345532 1_655
Mg4 O4 1.939038 1_555
Mg4 Sb7 2.981764 1_554
Mg4 Sb10 3.137154 1_555
Mg4 Sb2 3.196795 1_655
Mg4 Sb3 3.198625 1_654
Mg4 Sb10 3.345532 1_655
Mg5 O5 1.928279 1_555
Mg5 Sb8 2.982585 1_555
Mg5 Sb11 3.153677 1_555
Mg5 Sb2 3.194236 1_645
Mg5 Sb3 3.194236 1_655
Mg5 Sb11 3.330052 1_655
Sb2 Sb4 3.238807 1_555
Sb2 Sb4 3.238807 1_455
Sb3 Sb5 3.238807 1_455
Sb3 Sb5 3.238807 1_555
Sb4 Sb6 3.113044 1_555
Sb4 Sb8 3.117462 1_565
Sb4 Sb7 3.119327 1_554
Sb4 Sb9 3.119327 1_555
Sb5 Sb9 3.113044 1_555
Sb5 Sb7 3.113044 1_555
Sb5 Sb8 3.117462 1_555
Sb5 Sb6 3.119327 1_555
Sb6 Sb9 2.891699 1_555
Sb10 Sb7 2.891700 1_554
Sb10 Sb4 3.113044 1_555
Sb10 Sb5 3.119327 1_554
Sb11 Sb8 2.896708 1_555
Sb11 Sb4 3.117462 1_545
Sb11 Sb5 3.117462 1_555
O0 Sb0 2.018939 1_555
O0 Sb1 2.478569 1_555
O1 Sb0 2.018939 1_566
O1 Sb1 2.478570 1_566
O2 Sb0 2.024814 1_556
O2 Sb1 2.488291 1_556
O3 Sb0 2.018939 1_666
O3 Sb1 2.478569 1_566
O4 Sb0 2.018939 1_655
O4 Sb1 2.478570 1_555
O5 Sb0 2.024814 1_655
O5 Sb1 2.488291 1_555
