# generated using pymatgen
data_LaMg6Si
_symmetry_space_group_name_H-M   'P 1'
_cell_length_a   4.70837300
_cell_length_b   6.28133100
_cell_length_c   13.00571300
_cell_angle_alpha   90.00000000
_cell_angle_beta   90.00000000
_cell_angle_gamma   90.00000000
_symmetry_Int_Tables_number   1
_chemical_formula_structural   LaMg6Si
_chemical_formula_sum   'La2 Mg12 Si2'
_cell_volume   384.64200181
_cell_formula_units_Z   2
loop_
 _symmetry_equiv_pos_site_id
 _symmetry_equiv_pos_as_xyz
  1  'x, y, z'
loop_
 _atom_site_type_symbol
 _atom_site_label
 _atom_site_symmetry_multiplicity
 _atom_site_fract_x
 _atom_site_fract_y
 _atom_site_fract_z
 _atom_site_occupancy
  La  La0  1  0.00000000  0.50000000  0.29514500  1
  La  La1  1  0.00000000  0.00000000  0.79514500  1
  Mg  Mg0  1  0.00000000  0.24384900  0.07152200  1
  Mg  Mg1  1  0.00000000  0.75615100  0.07152200  1
  Mg  Mg2  1  0.00000000  0.00000000  0.35348600  1
  Mg  Mg3  1  0.50000000  0.74882500  0.43954000  1
  Mg  Mg4  1  0.50000000  0.25117500  0.43954000  1
  Mg  Mg5  1  0.50000000  0.00000000  0.19914600  1
  Mg  Mg6  1  0.00000000  0.74384900  0.57152200  1
  Mg  Mg7  1  0.00000000  0.25615100  0.57152200  1
  Mg  Mg8  1  0.00000000  0.50000000  0.85348600  1
  Mg  Mg9  1  0.50000000  0.24882500  0.93954000  1
  Mg  Mg10  1  0.50000000  0.75117500  0.93954000  1
  Mg  Mg11  1  0.50000000  0.50000000  0.69914600  1
  Si  Si0  1  0.50000000  0.50000000  0.13009900  1
  Si  Si1  1  0.50000000  0.00000000  0.63009900  1
loop_
_geom_bond_atom_site_label_1
_geom_bond_atom_site_label_2
_geom_bond_distance
_geom_bond_site_symmetry_2
La0 Si0 3.185880 1_555
La0 Si0 3.185880 1_455
La0 Mg2 3.231022 1_555
La0 Mg2 3.231022 1_565
La0 Mg1 3.323768 1_555
La0 Mg0 3.323768 1_555
La0 Mg3 3.392897 1_455
La0 Mg4 3.392897 1_455
La0 Mg3 3.392897 1_555
La0 Mg4 3.392897 1_555
La1 Si1 3.185880 1_455
La1 Si1 3.185880 1_555
La1 Mg8 3.231022 1_555
La1 Mg8 3.231022 1_545
La1 Mg7 3.323768 1_555
La1 Mg6 3.323768 1_545
La1 Mg9 3.392897 1_555
La1 Mg9 3.392897 1_455
La1 Mg10 3.392897 1_445
La1 Mg10 3.392897 1_545
Mg0 Si0 2.951503 1_455
Mg0 Si0 2.951503 1_555
Mg0 Mg8 3.260376 1_554
Mg1 Si0 2.951503 1_555
Mg1 Si0 2.951503 1_455
Mg1 Mg8 3.260376 1_554
Mg2 Mg4 3.046960 1_455
Mg2 Mg3 3.046960 1_445
Mg2 Mg3 3.046960 1_545
Mg2 Mg4 3.046960 1_555
Mg2 Mg5 3.093777 1_455
Mg2 Mg5 3.093777 1_555
Mg2 Mg7 3.260376 1_555
Mg2 Mg6 3.260376 1_545
Mg3 Si1 2.937929 1_565
Mg4 Si1 2.937929 1_555
Mg6 Si1 2.951503 1_465
Mg6 Si1 2.951503 1_565
Mg7 Si1 2.951503 1_455
Mg7 Si1 2.951503 1_555
Mg8 Mg9 3.046960 1_455
Mg8 Mg9 3.046960 1_555
Mg9 Si0 2.937929 1_556
Mg10 Si0 2.937929 1_556
Mg10 Mg8 3.046960 1_555
Mg10 Mg8 3.046960 1_655
Mg11 Mg8 3.093777 1_555
Mg11 Mg8 3.093777 1_655
