# generated using pymatgen
data_Li7Mn2(CoO4)3
_symmetry_space_group_name_H-M   'P 1'
_cell_length_a   5.84969500
_cell_length_b   6.51954093
_cell_length_c   6.53175001
_cell_angle_alpha   96.67103937
_cell_angle_beta   115.70836518
_cell_angle_gamma   102.94874210
_symmetry_Int_Tables_number   1
_chemical_formula_structural   Li7Mn2(CoO4)3
_chemical_formula_sum   'Li7 Mn2 Co3 O12'
_cell_volume   212.18221173
_cell_formula_units_Z   1
loop_
 _symmetry_equiv_pos_site_id
 _symmetry_equiv_pos_as_xyz
  1  'x, y, z'
loop_
 _atom_site_type_symbol
 _atom_site_label
 _atom_site_symmetry_multiplicity
 _atom_site_fract_x
 _atom_site_fract_y
 _atom_site_fract_z
 _atom_site_occupancy
  Li  Li0  1  0.24593900  0.33039700  0.83068700  1
  Li  Li1  1  0.25155900  0.66196500  0.16536000  1
  Li  Li2  1  0.25902500  0.00474100  0.49934400  1
  Li  Li3  1  0.74890200  0.33452600  0.83207900  1
  Li  Li4  1  0.74697200  0.66145700  0.17030700  1
  Li  Li5  1  0.75131600  0.00747400  0.50158000  1
  Li  Li6  1  0.50357900  0.33202100  0.33320500  1
  Mn  Mn0  1  0.00610000  0.00248800  0.00367100  1
  Mn  Mn1  1  0.00289400  0.33027000  0.33520000  1
  Co  Co0  1  0.98626500  0.66373200  0.65717200  1
  Co  Co1  1  0.49861700  0.00468800  0.00333000  1
  Co  Co2  1  0.49829900  0.65853000  0.65936300  1
  O  O0  1  0.11226700  0.31390700  0.09168900  1
  O  O1  1  0.11933400  0.64559600  0.41557800  1
  O  O2  1  0.10507400  0.99918100  0.76249400  1
  O  O3  1  0.64441300  0.31107900  0.09697800  1
  O  O4  1  0.63717500  0.67149300  0.43663300  1
  O  O5  1  0.63827000  0.99323400  0.78243100  1
  O  O6  1  0.35662900  0.34377500  0.57154200  1
  O  O7  1  0.36810300  0.69193400  0.90121500  1
  O  O8  1  0.35421700  0.99586000  0.21615500  1
  O  O9  1  0.88785700  0.34112700  0.56931200  1
  O  O10  1  0.87237900  0.68332200  0.91234400  1
  O  O11  1  0.90481700  0.01720200  0.25233000  1
loop_
_geom_bond_atom_site_label_1
_geom_bond_atom_site_label_2
_geom_bond_distance
_geom_bond_site_symmetry_2
Li0 O2 2.049627 1_545
Li0 O6 2.062006 1_555
Li0 O9 2.073175 1_455
Li0 O0 2.165819 1_556
Li0 O7 2.232900 1_555
Li0 O3 2.267051 1_556
Li1 O8 2.069501 1_555
Li1 O1 2.093099 1_555
Li1 O7 2.125752 1_554
Li1 O0 2.149920 1_555
Li1 O4 2.162354 1_555
Li1 O10 2.163815 1_454
Li2 O11 2.026947 1_455
Li2 O6 2.095866 1_555
Li2 O8 2.148970 1_545
Li2 O5 2.212276 1_545
Li2 O1 2.215067 1_545
Li2 O2 2.260421 1_545
Li3 O3 2.080352 1_556
Li3 O0 2.113175 1_656
Li3 O5 2.116564 1_545
Li3 O10 2.150809 1_555
Li3 O9 2.195496 1_555
Li3 O6 2.205250 1_555
Li4 O4 2.098727 1_555
Li4 O1 2.105649 1_655
Li4 O10 2.116332 1_554
Li4 O3 2.165572 1_555
Li4 O11 2.200253 1_565
Li4 O7 2.222508 1_554
Li5 O2 2.049754 1_645
Li5 O9 2.063165 1_555
Li5 O4 2.075265 1_545
Li5 O11 2.174299 1_555
Li5 O5 2.208083 1_545
Li5 O8 2.237973 1_545
Li6 O3 2.045096 1_555
Li6 O8 2.079444 1_545
Li6 O6 2.081132 1_555
Li6 O9 2.084765 1_555
Li6 O4 2.093997 1_555
Li6 O0 2.108317 1_555
Mn0 O2 1.899012 1_544
Mn0 O8 1.917367 1_545
Mn0 O0 1.921542 1_555
Mn0 O11 1.955074 1_455
Mn0 O10 1.968462 1_444
Mn0 O5 1.986359 1_444
Mn1 O9 1.919671 1_455
Mn1 O11 1.933175 1_455
Mn1 O1 1.943518 1_555
Mn1 O6 1.946285 1_555
Mn1 O0 1.955665 1_555
Mn1 O3 1.959731 1_455
Co0 O4 1.938767 1_555
Co0 O9 1.993658 1_555
Co0 O1 2.042961 1_655
Co0 O10 2.046972 1_555
Co0 O7 2.054923 1_655
Co0 O2 2.072101 1_655
Co1 O3 1.895172 1_555
Co1 O8 1.914366 1_545
Co1 O7 1.931295 1_544
Co1 O5 1.944149 1_544
Co1 O2 2.140921 1_544
Co1 O11 2.197130 1_555
Co2 O6 1.943894 1_555
Co2 O4 1.951092 1_555
Co2 O7 2.039899 1_555
Co2 O10 2.046312 1_555
Co2 O1 2.068697 1_555
Co2 O5 2.073386 1_555
