# generated using pymatgen
data_BaU2V2O12
_symmetry_space_group_name_H-M   'P 1'
_cell_length_a   8.34216335
_cell_length_b   6.66638675
_cell_length_c   10.50676766
_cell_angle_alpha   76.12648856
_cell_angle_beta   90.00000000
_cell_angle_gamma   90.00000000
_symmetry_Int_Tables_number   1
_chemical_formula_structural   BaU2V2O12
_chemical_formula_sum   'Ba2 U4 V4 O24'
_cell_volume   567.25765605
_cell_formula_units_Z   2
loop_
 _symmetry_equiv_pos_site_id
 _symmetry_equiv_pos_as_xyz
  1  'x, y, z'
loop_
 _atom_site_type_symbol
 _atom_site_label
 _atom_site_symmetry_multiplicity
 _atom_site_fract_x
 _atom_site_fract_y
 _atom_site_fract_z
 _atom_site_occupancy
  Ba  Ba0  1  0.96599676  0.46464970  0.84087928  1
  Ba  Ba1  1  0.03400324  0.46464970  0.34087928  1
  U  U0  1  0.76704439  0.01872482  0.67997848  1
  U  U1  1  0.27178664  0.98572638  0.82083266  1
  U  U2  1  0.72821336  0.98572638  0.32083266  1
  U  U3  1  0.23295561  0.01872482  0.17997848  1
  V  V0  1  0.09893116  0.88123052  0.55526240  1
  V  V1  1  0.60603997  0.11528863  0.94857893  1
  V  V2  1  0.39396003  0.11528863  0.44857893  1
  V  V3  1  0.90106884  0.88123052  0.05526240  1
  O  O0  1  0.72763107  0.74233525  0.72473321  1
  O  O1  1  0.21594569  0.25635660  0.76314595  1
  O  O2  1  0.78405431  0.25635660  0.26314595  1
  O  O3  1  0.27236893  0.74233525  0.22473321  1
  O  O4  1  0.18464460  0.03211502  0.39338647  1
  O  O5  1  0.69453529  0.95578487  0.10623763  1
  O  O6  1  0.30546471  0.95578487  0.60623763  1
  O  O7  1  0.81535540  0.03211502  0.89338647  1
  O  O8  1  0.83272736  0.28938911  0.64018943  1
  O  O9  1  0.29638704  0.71045652  0.88019259  1
  O  O10  1  0.70361296  0.71045652  0.38019259  1
  O  O11  1  0.16727264  0.28938911  0.14018943  1
  O  O12  1  0.09165338  0.63613766  0.55527210  1
  O  O13  1  0.64634946  0.35586433  0.93760037  1
  O  O14  1  0.35365054  0.35586433  0.43760037  1
  O  O15  1  0.90834662  0.63613766  0.05527210  1
  O  O16  1  0.03716535  0.89457910  0.72013520  1
  O  O17  1  0.54118176  0.07725769  0.78879796  1
  O  O18  1  0.45881824  0.07725769  0.28879796  1
  O  O19  1  0.96283465  0.89457910  0.22013520  1
  O  O20  1  0.90873960  0.99013865  0.49326355  1
  O  O21  1  0.40348630  0.05996517  0.00461181  1
  O  O22  1  0.59651370  0.05996517  0.50461181  1
  O  O23  1  0.09126040  0.99013865  0.99326355  1
loop_
_geom_bond_atom_site_label_1
_geom_bond_atom_site_label_2
_geom_bond_distance
_geom_bond_site_symmetry_2
Ba0 O1 2.736185 1_655
Ba0 O0 2.790470 1_555
Ba0 O15 2.801293 1_556
Ba0 O8 2.868570 1_555
Ba0 O13 2.883697 1_555
Ba0 O16 2.903898 1_655
Ba0 O7 3.071641 1_555
Ba0 O12 3.124972 1_655
Ba0 O9 3.282808 1_655
Ba0 O23 3.351552 1_645
Ba0 O11 3.508846 1_656
Ba1 O2 2.736185 1_455
Ba1 O3 2.790470 1_555
Ba1 O12 2.801293 1_555
Ba1 O11 2.868570 1_555
Ba1 O14 2.883697 1_555
Ba1 O19 2.903898 1_455
Ba1 O4 3.071641 1_555
Ba1 O15 3.124972 1_455
Ba1 O10 3.282808 1_455
Ba1 O20 3.351552 1_445
Ba1 O8 3.508846 1_455
O0 U0 1.818957 1_565
O1 U1 1.820670 1_545
O2 U2 1.820670 1_545
O3 U3 1.818957 1_565
O4 V0 1.896130 1_545
O4 V2 1.961357 1_555
O4 U3 2.300861 1_555
O5 V1 1.890740 1_564
O5 V3 1.905264 1_555
O5 U2 2.327717 1_555
O6 V2 1.890740 1_565
O6 V0 1.905264 1_555
O6 U1 2.327717 1_555
O7 V3 1.896130 1_546
O7 V1 1.961357 1_555
O7 U0 2.300861 1_555
O8 U0 1.835471 1_555
O9 U1 1.802685 1_555
O10 U2 1.802685 1_555
O11 U3 1.835471 1_555
O12 V0 1.634987 1_555
O13 V1 1.615471 1_555
O14 V2 1.615471 1_555
O15 V3 1.634987 1_555
O16 V0 1.829790 1_555
O16 U1 2.372277 1_555
O16 U0 2.402763 1_465
O17 V1 1.838325 1_555
O17 U0 2.285515 1_555
O17 U1 2.331877 1_545
O18 V2 1.838325 1_555
O18 U3 2.285515 1_555
O18 U2 2.331877 1_545
O19 V3 1.829790 1_555
O19 U2 2.372277 1_555
O19 U3 2.402763 1_665
O20 V0 1.800547 1_655
O20 U0 2.336957 1_565
O20 U2 2.361487 1_555
O21 V1 1.798249 1_554
O21 U3 2.291588 1_555
O21 U1 2.374602 1_544
O22 V2 1.798249 1_555
O22 U0 2.291588 1_555
O22 U2 2.374602 1_545
O23 V3 1.800547 1_456
O23 U3 2.336957 1_566
O23 U1 2.361487 1_555
