# generated using pymatgen
data_Ga40SnMo8
_symmetry_space_group_name_H-M   'P 1'
_cell_length_a   9.61870336
_cell_length_b   9.61870336
_cell_length_c   9.61870374
_cell_angle_alpha   93.97899714
_cell_angle_beta   93.97899714
_cell_angle_gamma   93.97899967
_symmetry_Int_Tables_number   1
_chemical_formula_structural   Ga40SnMo8
_chemical_formula_sum   'Ga40 Sn1 Mo8'
_cell_volume   883.16673760
_cell_formula_units_Z   1
loop_
 _symmetry_equiv_pos_site_id
 _symmetry_equiv_pos_as_xyz
  1  'x, y, z'
loop_
 _atom_site_type_symbol
 _atom_site_label
 _atom_site_symmetry_multiplicity
 _atom_site_fract_x
 _atom_site_fract_y
 _atom_site_fract_z
 _atom_site_occupancy
  Ga  Ga0  1  0.50000000  0.50000000  0.50000000  1
  Ga  Ga1  1  0.00000000  0.50000000  0.50000000  1
  Ga  Ga2  1  0.50000000  0.00000000  0.50000000  1
  Ga  Ga3  1  0.50000000  0.50000000  0.00000000  1
  Ga  Ga4  1  0.26633800  0.63408300  0.61046100  1
  Ga  Ga5  1  0.61046100  0.26633800  0.63408300  1
  Ga  Ga6  1  0.63408300  0.61046100  0.26633800  1
  Ga  Ga7  1  0.73366200  0.36591700  0.38953900  1
  Ga  Ga8  1  0.38953900  0.73366200  0.36591700  1
  Ga  Ga9  1  0.36591700  0.38953900  0.73366200  1
  Ga  Ga10  1  0.67385300  0.77837800  0.53165900  1
  Ga  Ga11  1  0.53165900  0.67385300  0.77837800  1
  Ga  Ga12  1  0.77837800  0.53165900  0.67385300  1
  Ga  Ga13  1  0.32614700  0.22162200  0.46834100  1
  Ga  Ga14  1  0.46834100  0.32614700  0.22162200  1
  Ga  Ga15  1  0.22162200  0.46834100  0.32614700  1
  Ga  Ga16  1  0.77790000  0.07538300  0.44768900  1
  Ga  Ga17  1  0.44768900  0.77790000  0.07538300  1
  Ga  Ga18  1  0.07538300  0.44768900  0.77790000  1
  Ga  Ga19  1  0.22210000  0.92461700  0.55231100  1
  Ga  Ga20  1  0.55231100  0.22210000  0.92461700  1
  Ga  Ga21  1  0.92461700  0.55231100  0.22210000  1
  Ga  Ga22  1  0.96563600  0.78485500  0.59801200  1
  Ga  Ga23  1  0.59801200  0.96563600  0.78485500  1
  Ga  Ga24  1  0.78485500  0.59801200  0.96563600  1
  Ga  Ga25  1  0.03436400  0.21514500  0.40198800  1
  Ga  Ga26  1  0.40198800  0.03436400  0.21514500  1
  Ga  Ga27  1  0.21514500  0.40198800  0.03436400  1
  Ga  Ga28  1  0.04947400  0.73485100  0.86850200  1
  Ga  Ga29  1  0.86850200  0.04947400  0.73485100  1
  Ga  Ga30  1  0.73485100  0.86850200  0.04947400  1
  Ga  Ga31  1  0.95052600  0.26514900  0.13149800  1
  Ga  Ga32  1  0.13149800  0.95052600  0.26514900  1
  Ga  Ga33  1  0.26514900  0.13149800  0.95052600  1
  Ga  Ga34  1  0.12424300  0.17409200  0.68291600  1
  Ga  Ga35  1  0.68291600  0.12424300  0.17409200  1
  Ga  Ga36  1  0.17409200  0.68291600  0.12424300  1
  Ga  Ga37  1  0.87575700  0.82590800  0.31708400  1
  Ga  Ga38  1  0.31708400  0.87575700  0.82590800  1
  Ga  Ga39  1  0.82590800  0.31708400  0.87575700  1
  Sn  Sn0  1  0.00000000  0.00000000  0.00000000  1
  Mo  Mo0  1  0.78684700  0.78684700  0.78684700  1
  Mo  Mo1  1  0.21315300  0.21315300  0.21315300  1
  Mo  Mo2  1  0.28844900  0.61227800  0.88870700  1
  Mo  Mo3  1  0.88870700  0.28844900  0.61227800  1
  Mo  Mo4  1  0.61227800  0.88870700  0.28844900  1
  Mo  Mo5  1  0.71155100  0.38772200  0.11129300  1
  Mo  Mo6  1  0.11129300  0.71155100  0.38772200  1
  Mo  Mo7  1  0.38772200  0.11129300  0.71155100  1
loop_
_geom_bond_atom_site_label_1
_geom_bond_atom_site_label_2
_geom_bond_distance
_geom_bond_site_symmetry_2
Ga0 Ga6 2.896051 1_555
Ga0 Ga9 2.896051 1_555
Ga0 Ga5 2.896051 1_555
Ga0 Ga8 2.896051 1_555
Ga0 Ga4 2.896051 1_555
Ga0 Ga7 2.896051 1_555
Ga0 Ga10 3.041973 1_555
Ga0 Ga13 3.041973 1_555
Ga0 Ga15 3.041974 1_555
Ga0 Ga12 3.041974 1_555
Ga0 Ga14 3.041974 1_555
Ga0 Ga11 3.041974 1_555
Ga1 Mo3 2.572161 1_455
Ga1 Mo6 2.572161 1_555
Ga2 Mo4 2.572161 1_545
Ga2 Mo7 2.572161 1_555
Ga3 Mo2 2.572161 1_554
Ga3 Mo5 2.572161 1_555
Ga4 Mo2 2.693929 1_555
Ga4 Mo6 2.702184 1_555
Ga5 Mo3 2.693929 1_555
Ga5 Mo7 2.702184 1_555
Ga6 Mo4 2.693929 1_555
Ga6 Mo5 2.702184 1_555
Ga7 Mo5 2.693929 1_555
Ga7 Mo3 2.702184 1_555
Ga8 Mo6 2.693929 1_555
Ga8 Mo4 2.702184 1_555
Ga9 Mo7 2.693929 1_555
Ga9 Mo2 2.702184 1_555
Ga10 Mo0 2.608173 1_555
Ga10 Mo4 2.681247 1_555
Ga10 Ga37 2.967223 1_555
Ga11 Mo0 2.608173 1_555
Ga11 Mo2 2.681247 1_555
Ga11 Ga38 2.967223 1_555
Ga12 Mo0 2.608173 1_555
Ga12 Mo3 2.681247 1_555
Ga12 Ga39 2.967223 1_555
Ga13 Mo1 2.608173 1_555
Ga13 Mo7 2.681247 1_555
Ga13 Ga34 2.967223 1_555
Ga14 Mo1 2.608173 1_555
Ga14 Mo5 2.681247 1_555
Ga14 Ga35 2.967223 1_555
Ga15 Mo1 2.608173 1_555
Ga15 Mo6 2.681247 1_555
Ga15 Ga36 2.967223 1_555
Ga16 Mo3 2.618169 1_555
Ga16 Mo4 2.643998 1_545
Ga16 Ga35 2.806904 1_555
Ga16 Ga29 2.870979 1_555
Ga16 Ga37 2.877766 1_545
Ga17 Mo4 2.618169 1_555
Ga17 Mo2 2.643998 1_554
Ga17 Ga36 2.806904 1_555
Ga17 Ga30 2.870979 1_555
Ga17 Ga38 2.877766 1_554
Ga18 Mo2 2.618169 1_555
Ga18 Mo3 2.643998 1_455
Ga18 Ga34 2.806904 1_555
Ga18 Ga28 2.870979 1_555
Ga18 Ga39 2.877766 1_455
Ga19 Mo6 2.618169 1_555
Ga19 Mo7 2.643998 1_565
Ga19 Ga38 2.806904 1_555
Ga19 Ga32 2.870979 1_555
Ga19 Ga34 2.877766 1_565
Ga20 Mo7 2.618169 1_555
Ga20 Mo5 2.643998 1_556
Ga20 Ga39 2.806904 1_555
Ga20 Ga33 2.870979 1_555
Ga20 Ga35 2.877766 1_556
Ga21 Mo5 2.618169 1_555
Ga21 Mo6 2.643998 1_655
Ga21 Ga37 2.806904 1_555
Ga21 Ga31 2.870979 1_555
Ga21 Ga36 2.877766 1_655
Ga22 Mo0 2.586534 1_555
Ga22 Mo6 2.623716 1_655
Ga22 Ga28 2.754474 1_655
Ga22 Ga37 2.841877 1_555
Ga22 Ga29 3.019869 1_565
Ga23 Mo0 2.586534 1_555
Ga23 Mo7 2.623715 1_565
Ga23 Ga29 2.754474 1_565
Ga23 Ga38 2.841877 1_555
Ga23 Ga30 3.019869 1_556
Ga24 Mo0 2.586534 1_555
Ga24 Mo5 2.623715 1_556
Ga24 Ga30 2.754474 1_556
Ga24 Ga39 2.841877 1_555
Ga24 Ga28 3.019869 1_655
Ga25 Mo1 2.586534 1_555
Ga25 Mo3 2.623716 1_455
Ga25 Ga31 2.754474 1_455
Ga25 Ga34 2.841877 1_555
Ga25 Ga32 3.019869 1_545
Ga26 Mo1 2.586534 1_555
Ga26 Mo4 2.623715 1_545
Ga26 Ga32 2.754474 1_545
Ga26 Ga35 2.841877 1_555
Ga26 Ga33 3.019869 1_554
Ga27 Mo1 2.586534 1_555
Ga27 Mo2 2.623715 1_554
Ga27 Ga33 2.754474 1_554
Ga27 Ga36 2.841877 1_555
Ga27 Ga31 3.019869 1_455
Ga28 Mo2 2.656577 1_555
Ga28 Mo0 2.683813 1_455
Ga28 Ga36 2.753519 1_556
Ga28 Sn0 2.852200 1_566
Ga28 Ga38 2.893065 1_555
Ga29 Mo3 2.656577 1_555
Ga29 Mo0 2.683813 1_545
Ga29 Ga34 2.753519 1_655
Ga29 Sn0 2.852201 1_656
Ga29 Ga39 2.893065 1_555
Ga30 Mo4 2.656577 1_555
Ga30 Mo0 2.683813 1_554
Ga30 Ga35 2.753519 1_565
Ga30 Sn0 2.852200 1_665
Ga30 Ga37 2.893065 1_555
Ga31 Mo5 2.656577 1_555
Ga31 Mo1 2.683813 1_655
Ga31 Ga39 2.753519 1_554
Ga31 Sn0 2.852200 1_655
Ga31 Ga35 2.893065 1_555
Ga32 Mo6 2.656577 1_555
Ga32 Mo1 2.683813 1_565
Ga32 Ga37 2.753519 1_455
Ga32 Sn0 2.852201 1_565
Ga32 Ga36 2.893065 1_555
Ga33 Mo7 2.656577 1_555
Ga33 Mo1 2.683813 1_556
Ga33 Ga38 2.753519 1_545
Ga33 Sn0 2.852200 1_556
Ga33 Ga34 2.893065 1_555
Ga34 Mo7 2.646169 1_555
Ga34 Mo3 2.653344 1_455
Ga34 Ga9 2.995010 1_555
Ga35 Mo5 2.646169 1_555
Ga35 Mo4 2.653344 1_545
Ga35 Ga7 2.995010 1_555
Ga36 Mo6 2.646169 1_555
Ga36 Mo2 2.653344 1_554
Ga36 Ga8 2.995010 1_555
Ga37 Mo4 2.646169 1_555
Ga37 Mo6 2.653344 1_655
Ga37 Ga6 2.995010 1_555
Ga38 Mo2 2.646169 1_555
Ga38 Mo7 2.653344 1_565
Ga38 Ga4 2.995010 1_555
Ga39 Mo3 2.646169 1_555
Ga39 Mo5 2.653344 1_556
Ga39 Ga5 2.995010 1_555
