# generated using pymatgen
data_LiMn8O16
_symmetry_space_group_name_H-M   'P 1'
_cell_length_a   5.90103500
_cell_length_b   9.87891700
_cell_length_c   13.97004995
_cell_angle_alpha   45.60244430
_cell_angle_beta   90.00000000
_cell_angle_gamma   90.00000000
_symmetry_Int_Tables_number   1
_chemical_formula_structural   LiMn8O16
_chemical_formula_sum   'Li2 Mn16 O32'
_cell_volume   581.88780508
_cell_formula_units_Z   2
loop_
 _symmetry_equiv_pos_site_id
 _symmetry_equiv_pos_as_xyz
  1  'x, y, z'
loop_
 _atom_site_type_symbol
 _atom_site_label
 _atom_site_symmetry_multiplicity
 _atom_site_fract_x
 _atom_site_fract_y
 _atom_site_fract_z
 _atom_site_occupancy
  Li  Li0  1  0.37498800  0.08939300  0.42184300  1
  Li  Li1  1  0.62501200  0.08939300  0.92184300  1
  Mn  Mn0  1  0.62588700  0.48510200  0.34664200  1
  Mn  Mn1  1  0.12437700  0.48595800  0.34567100  1
  Mn  Mn2  1  0.62550300  0.82116200  0.83073100  1
  Mn  Mn3  1  0.12432900  0.82285800  0.83005400  1
  Mn  Mn4  1  0.12366600  0.18758900  0.16097900  1
  Mn  Mn5  1  0.62644100  0.18792500  0.16105600  1
  Mn  Mn6  1  0.12533500  0.52167100  0.64614300  1
  Mn  Mn7  1  0.62539300  0.52430700  0.64377300  1
  Mn  Mn8  1  0.87562300  0.48595800  0.84567100  1
  Mn  Mn9  1  0.37411300  0.48510200  0.84664200  1
  Mn  Mn10  1  0.87567100  0.82285800  0.33005400  1
  Mn  Mn11  1  0.37449700  0.82116200  0.33073100  1
  Mn  Mn12  1  0.87633400  0.18758900  0.66097900  1
  Mn  Mn13  1  0.37355900  0.18792500  0.66105600  1
  Mn  Mn14  1  0.87466500  0.52167100  0.14614300  1
  Mn  Mn15  1  0.37460700  0.52430700  0.14377300  1
  O  O0  1  0.87477100  0.38635200  0.65705000  1
  O  O1  1  0.37578500  0.38633400  0.65723400  1
  O  O2  1  0.87508400  0.28996700  0.03887800  1
  O  O3  1  0.37514900  0.29031000  0.03931500  1
  O  O4  1  0.87467100  0.71809000  0.95329600  1
  O  O5  1  0.37524600  0.71903200  0.95268400  1
  O  O6  1  0.87545300  0.62244100  0.33582500  1
  O  O7  1  0.37485700  0.62189000  0.33553100  1
  O  O8  1  0.12522900  0.38635200  0.15705000  1
  O  O9  1  0.62421500  0.38633400  0.15723400  1
  O  O10  1  0.12491600  0.28996700  0.53887800  1
  O  O11  1  0.62485100  0.29031000  0.53931500  1
  O  O12  1  0.62475400  0.71903200  0.45268400  1
  O  O13  1  0.12532900  0.71809000  0.45329600  1
  O  O14  1  0.62514300  0.62189000  0.83553100  1
  O  O15  1  0.12454700  0.62244100  0.83582500  1
  O  O16  1  0.62559400  0.35586200  0.83895100  1
  O  O17  1  0.12493600  0.36312700  0.83766500  1
  O  O18  1  0.12627600  0.95487100  0.20123300  1
  O  O19  1  0.62400500  0.95620800  0.19942000  1
  O  O20  1  0.12538900  0.64446100  0.15273300  1
  O  O21  1  0.62445100  0.64626500  0.15215500  1
  O  O22  1  0.62500400  0.06048400  0.79283400  1
  O  O23  1  0.12519000  0.06249200  0.78847800  1
  O  O24  1  0.87506400  0.36312700  0.33766500  1
  O  O25  1  0.37440600  0.35586200  0.33895100  1
  O  O26  1  0.87372400  0.95487100  0.70123300  1
  O  O27  1  0.37599500  0.95620800  0.69942000  1
  O  O28  1  0.87461100  0.64446100  0.65273300  1
  O  O29  1  0.37554900  0.64626500  0.65215500  1
  O  O30  1  0.87481000  0.06249200  0.28847800  1
  O  O31  1  0.37499600  0.06048400  0.29283400  1
loop_
_geom_bond_atom_site_label_1
_geom_bond_atom_site_label_2
_geom_bond_distance
_geom_bond_site_symmetry_2
Li0 O25 2.001295 1_555
Li0 O31 2.012442 1_555
Li1 O16 2.001295 1_555
Li1 O22 2.012442 1_555
Mn0 O11 1.923642 1_555
Mn0 O6 1.935352 1_555
Mn0 O7 1.936753 1_555
Mn0 O24 1.959908 1_555
Mn0 O21 1.965721 1_555
Mn0 O25 2.008940 1_555
Mn1 O10 1.929117 1_555
Mn1 O6 1.932623 1_455
Mn1 O7 1.934405 1_555
Mn1 O20 1.952238 1_555
Mn1 O24 1.959409 1_455
Mn1 O25 2.001572 1_555
Mn2 O4 1.921178 1_555
Mn2 O14 1.922275 1_555
Mn2 O5 1.922540 1_555
Mn2 O26 1.954326 1_555
Mn2 O27 1.971885 1_555
Mn2 O22 2.029409 1_565
Mn3 O15 1.924360 1_555
Mn3 O4 1.926778 1_455
Mn3 O5 1.928877 1_555
Mn3 O26 1.960194 1_455
Mn3 O27 1.976714 1_555
Mn3 O23 2.004403 1_565
Mn4 O2 1.915802 1_455
Mn4 O3 1.925479 1_555
Mn4 O8 1.925583 1_555
Mn4 O30 1.943259 1_455
Mn4 O18 1.947524 1_545
Mn4 O31 1.983153 1_555
Mn5 O2 1.916957 1_555
Mn5 O9 1.923133 1_555
Mn5 O3 1.925468 1_555
Mn5 O30 1.940567 1_555
Mn5 O19 1.952128 1_545
Mn5 O31 1.983087 1_555
Mn6 O1 1.925071 1_555
Mn6 O13 1.925730 1_555
Mn6 O0 1.926517 1_455
Mn6 O17 1.935988 1_555
Mn6 O28 1.955811 1_455
Mn6 O29 1.961332 1_555
Mn7 O12 1.908206 1_555
Mn7 O0 1.924478 1_555
Mn7 O1 1.924606 1_555
Mn7 O28 1.948156 1_555
Mn7 O29 1.958665 1_555
Mn7 O16 1.963366 1_555
Mn8 O2 1.929117 1_556
Mn8 O15 1.932623 1_655
Mn8 O14 1.934405 1_555
Mn8 O28 1.952238 1_555
Mn8 O17 1.959409 1_655
Mn8 O16 2.001572 1_555
Mn9 O3 1.923642 1_556
Mn9 O15 1.935352 1_555
Mn9 O14 1.936753 1_555
Mn9 O17 1.959908 1_555
Mn9 O29 1.965721 1_555
Mn9 O16 2.008940 1_555
Mn10 O6 1.924360 1_555
Mn10 O13 1.926778 1_655
Mn10 O12 1.928877 1_555
Mn10 O18 1.960194 1_655
Mn10 O19 1.976714 1_555
Mn10 O30 2.004403 1_565
Mn11 O13 1.921178 1_555
Mn11 O7 1.922275 1_555
Mn11 O12 1.922540 1_555
Mn11 O18 1.954326 1_555
Mn11 O19 1.971885 1_555
Mn11 O31 2.029409 1_565
Mn12 O10 1.915802 1_655
Mn12 O11 1.925479 1_555
Mn12 O0 1.925583 1_555
Mn12 O23 1.943259 1_655
Mn12 O26 1.947524 1_545
Mn12 O22 1.983153 1_555
Mn13 O10 1.916957 1_555
Mn13 O1 1.923133 1_555
Mn13 O11 1.925468 1_555
Mn13 O23 1.940567 1_555
Mn13 O27 1.952128 1_545
Mn13 O22 1.983087 1_555
Mn14 O9 1.925071 1_555
Mn14 O4 1.925730 1_554
Mn14 O8 1.926517 1_655
Mn14 O24 1.935988 1_555
Mn14 O20 1.955811 1_655
Mn14 O21 1.961332 1_555
Mn15 O5 1.908206 1_554
Mn15 O8 1.924478 1_555
Mn15 O9 1.924606 1_555
Mn15 O20 1.948156 1_555
Mn15 O21 1.958665 1_555
Mn15 O25 1.963366 1_555
