# generated using pymatgen
data_AlCu4SbPb6S2(Cl2O13)2
_symmetry_space_group_name_H-M   'P 1'
_cell_length_a   10.08421867
_cell_length_b   10.08421867
_cell_length_c   10.65058877
_cell_angle_alpha   65.35171203
_cell_angle_beta   65.35171203
_cell_angle_gamma   41.88996469
_symmetry_Int_Tables_number   1
_chemical_formula_structural   AlCu4SbPb6S2(Cl2O13)2
_chemical_formula_sum   'Al1 Cu4 Sb1 Pb6 S2 Cl4 O26'
_cell_volume   647.06220151
_cell_formula_units_Z   1
loop_
 _symmetry_equiv_pos_site_id
 _symmetry_equiv_pos_as_xyz
  1  'x, y, z'
loop_
 _atom_site_type_symbol
 _atom_site_label
 _atom_site_symmetry_multiplicity
 _atom_site_fract_x
 _atom_site_fract_y
 _atom_site_fract_z
 _atom_site_occupancy
  Al  Al0  1  0.00000000  0.00000000  0.50000000  1
  Cu  Cu0  1  0.00000000  0.50000000  0.50000000  1
  Cu  Cu1  1  0.50000000  0.00000000  0.50000000  1
  Cu  Cu2  1  0.11212600  0.11212600  0.60995600  1
  Cu  Cu3  1  0.88787400  0.88787400  0.39004400  1
  Sb  Sb0  1  0.00000000  0.00000000  0.00000000  1
  Pb  Pb0  1  0.19046600  0.19046600  0.82395100  1
  Pb  Pb1  1  0.80953400  0.80953400  0.17604900  1
  Pb  Pb2  1  0.17488800  0.69921800  0.79070900  1
  Pb  Pb3  1  0.69921800  0.17488800  0.79070900  1
  Pb  Pb4  1  0.82511200  0.30078200  0.20929100  1
  Pb  Pb5  1  0.30078200  0.82511200  0.20929100  1
  S  S0  1  0.26521900  0.26521900  0.07661900  1
  S  S1  1  0.73478100  0.73478100  0.92338100  1
  Cl  Cl0  1  0.34224200  0.34224200  0.65667200  1
  Cl  Cl1  1  0.65775800  0.65775800  0.34332800  1
  Cl  Cl2  1  0.46669300  0.46669300  0.20120500  1
  Cl  Cl3  1  0.53330700  0.53330700  0.79879500  1
  O  O0  1  0.98046300  0.98046300  0.19894300  1
  O  O1  1  0.01953700  0.01953700  0.80105700  1
  O  O2  1  0.23219300  0.23219300  0.44962700  1
  O  O3  1  0.76780700  0.76780700  0.55037300  1
  O  O4  1  0.09233600  0.09233600  0.30970800  1
  O  O5  1  0.90766400  0.90766400  0.69029200  1
  O  O6  1  0.89965700  0.27161200  0.97246200  1
  O  O7  1  0.27161200  0.89965700  0.97246200  1
  O  O8  1  0.10034300  0.72838800  0.02753800  1
  O  O9  1  0.72838800  0.10034300  0.02753800  1
  O  O10  1  0.87824800  0.22578300  0.56147400  1
  O  O11  1  0.22578300  0.87824800  0.56147400  1
  O  O12  1  0.12175200  0.77421700  0.43852600  1
  O  O13  1  0.77421700  0.12175200  0.43852600  1
  O  O14  1  0.98059700  0.35086200  0.66676400  1
  O  O15  1  0.35086200  0.98059700  0.66676400  1
  O  O16  1  0.01940300  0.64913800  0.33323600  1
  O  O17  1  0.64913800  0.01940300  0.33323600  1
  O  O18  1  0.19786400  0.19786400  0.03164000  1
  O  O19  1  0.80213600  0.80213600  0.96836000  1
  O  O20  1  0.34257200  0.34257200  0.94311000  1
  O  O21  1  0.65742800  0.65742800  0.05689000  1
  O  O22  1  0.08674700  0.42627200  0.15667100  1
  O  O23  1  0.42627200  0.08674700  0.15667100  1
  O  O24  1  0.91325300  0.57372800  0.84332900  1
  O  O25  1  0.57372800  0.91325300  0.84332900  1
loop_
_geom_bond_atom_site_label_1
_geom_bond_atom_site_label_2
_geom_bond_distance
_geom_bond_site_symmetry_2
Al0 O11 1.879098 1_545
Al0 O10 1.879098 1_455
Al0 O13 1.879098 1_455
Al0 O12 1.879098 1_545
Al0 O4 1.996087 1_555
Al0 O5 1.996087 1_445
Cu0 O16 1.837116 1_555
Cu0 O14 1.837116 1_455
Cu0 O3 1.951852 1_455
Cu0 O2 1.951852 1_555
Cu1 O17 1.837116 1_555
Cu1 O15 1.837116 1_545
Cu1 O3 1.951852 1_545
Cu1 O2 1.951852 1_555
Cu2 O10 1.907938 1_455
Cu2 O11 1.907938 1_545
Cu2 O14 1.926812 1_455
Cu2 O15 1.926812 1_545
Cu2 O1 2.003476 1_555
Cu2 O2 2.140445 1_555
Cu3 O13 1.907938 1_565
Cu3 O12 1.907938 1_655
Cu3 O17 1.926812 1_565
Cu3 O16 1.926812 1_655
Cu3 O0 2.003476 1_555
Cu3 O3 2.140445 1_555
Cl0 Pb0 2.607324 1_555
Cl1 Pb1 2.607324 1_555
Cl2 Pb5 2.646968 1_555
Cl2 Pb4 2.646968 1_555
Cl3 Pb2 2.646968 1_555
Cl3 Pb3 2.646968 1_555
O0 Sb0 1.982071 1_665
O0 Pb5 2.349280 1_655
O0 Pb4 2.349280 1_565
O1 Sb0 1.982071 1_556
O1 Pb2 2.349280 1_545
O1 Pb3 2.349280 1_455
O4 Pb4 2.217933 1_455
O4 Pb5 2.217933 1_545
O5 Pb2 2.217933 1_655
O5 Pb3 2.217933 1_565
O6 Sb0 2.015709 1_656
O6 Pb0 2.325785 1_655
O6 Pb4 2.392083 1_556
O7 Sb0 2.015709 1_566
O7 Pb0 2.325785 1_565
O7 Pb5 2.392083 1_556
O8 Sb0 2.015709 1_565
O8 Pb1 2.325785 1_455
O8 Pb2 2.392083 1_554
O9 Sb0 2.015709 1_655
O9 Pb1 2.325785 1_545
O9 Pb3 2.392083 1_554
O10 Pb3 2.478209 1_555
O11 Pb2 2.478209 1_555
O12 Pb5 2.478209 1_555
O13 Pb4 2.478209 1_555
O14 Pb0 2.344780 1_655
O15 Pb0 2.344780 1_565
O16 Pb1 2.344780 1_455
O17 Pb1 2.344780 1_545
O18 S0 1.543325 1_555
O18 Pb0 2.277651 1_554
O19 S1 1.543325 1_555
O19 Pb1 2.277651 1_556
O20 S0 1.514753 1_556
O20 Pb2 2.606608 1_555
O20 Pb3 2.606608 1_555
O21 S1 1.514753 1_554
O21 Pb4 2.606608 1_555
O21 Pb5 2.606608 1_555
O22 S0 1.458396 1_555
O22 Pb1 2.625426 1_455
O23 S0 1.458396 1_555
O23 Pb1 2.625426 1_545
O24 S1 1.458396 1_555
O24 Pb0 2.625426 1_655
O25 S1 1.458396 1_555
O25 Pb0 2.625426 1_565
