# generated using pymatgen
data_Te2W3Se4
_symmetry_space_group_name_H-M   'P 1'
_cell_length_a   3.39981015
_cell_length_b   3.39981015
_cell_length_c   31.48266900
_cell_angle_alpha   90.00000000
_cell_angle_beta   90.00000000
_cell_angle_gamma   120.00000290
_symmetry_Int_Tables_number   1
_chemical_formula_structural   Te2W3Se4
_chemical_formula_sum   'Te2 W3 Se4'
_cell_volume   315.14577878
_cell_formula_units_Z   1
loop_
 _symmetry_equiv_pos_site_id
 _symmetry_equiv_pos_as_xyz
  1  'x, y, z'
loop_
 _atom_site_type_symbol
 _atom_site_label
 _atom_site_symmetry_multiplicity
 _atom_site_fract_x
 _atom_site_fract_y
 _atom_site_fract_z
 _atom_site_occupancy
  Te  Te0  1  0.00000000  0.00000000  0.05979400  1
  Te  Te1  1  0.00000000  0.00000000  0.94020600  1
  W  W0  1  0.00000000  0.00000000  0.76865100  1
  W  W1  1  0.00000000  0.00000000  0.23134900  1
  W  W2  1  0.33333300  0.66666700  0.00000000  1
  Se  Se0  1  0.33333300  0.66666700  0.71603900  1
  Se  Se1  1  0.33333300  0.66666700  0.17869800  1
  Se  Se2  1  0.33333300  0.66666700  0.82130200  1
  Se  Se3  1  0.33333300  0.66666700  0.28396100  1
loop_
_geom_bond_atom_site_label_1
_geom_bond_atom_site_label_2
_geom_bond_distance
_geom_bond_site_symmetry_2
Te0 W2 2.719670 1_545
Te0 W2 2.719672 1_555
Te0 W2 2.719672 1_445
Te1 W2 2.719670 1_546
Te1 W2 2.719672 1_446
Te1 W2 2.719672 1_556
Se0 W0 2.568354 1_565
Se0 W0 2.568357 1_665
Se0 W0 2.568357 1_555
Se1 W1 2.569146 1_565
Se1 W1 2.569149 1_555
Se1 W1 2.569149 1_665
Se2 W0 2.569146 1_565
Se2 W0 2.569149 1_665
Se2 W0 2.569149 1_555
Se3 W1 2.568354 1_565
Se3 W1 2.568357 1_555
Se3 W1 2.568357 1_665
