# generated using pymatgen
data_Sc12Ir3Br16
_symmetry_space_group_name_H-M   'P 1'
_cell_length_a   8.93041812
_cell_length_b   10.84563961
_cell_length_c   11.51471921
_cell_angle_alpha   116.69861171
_cell_angle_beta   101.91780306
_cell_angle_gamma   101.56178966
_symmetry_Int_Tables_number   1
_chemical_formula_structural   Sc12Ir3Br16
_chemical_formula_sum   'Sc12 Ir3 Br16'
_cell_volume   918.40633240
_cell_formula_units_Z   1
loop_
 _symmetry_equiv_pos_site_id
 _symmetry_equiv_pos_as_xyz
  1  'x, y, z'
loop_
 _atom_site_type_symbol
 _atom_site_label
 _atom_site_symmetry_multiplicity
 _atom_site_fract_x
 _atom_site_fract_y
 _atom_site_fract_z
 _atom_site_occupancy
  Sc  Sc0  1  0.08033078  0.25301672  0.34876260  1
  Sc  Sc1  1  0.92220597  0.74790854  0.65452304  1
  Sc  Sc2  1  0.77807331  0.53554353  0.31541776  1
  Sc  Sc3  1  0.22192935  0.46149009  0.68208925  1
  Sc  Sc4  1  0.28269030  0.74778886  0.65133767  1
  Sc  Sc5  1  0.71774490  0.25123704  0.34539815  1
  Sc  Sc6  1  0.14087139  0.53863013  0.31818763  1
  Sc  Sc7  1  0.86194635  0.46432322  0.68434849  1
  Sc  Sc8  1  0.39427136  0.34597266  0.25453459  1
  Sc  Sc9  1  0.59936815  0.65396343  0.74529903  1
  Sc  Sc10  1  0.45304961  0.29554657  0.52138236  1
  Sc  Sc11  1  0.54238039  0.70434086  0.47848416  1
  Ir  Ir0  1  -0.00101358  0.50002658  0.50002592  1
  Ir  Ir1  1  0.34111466  0.50018007  0.49927998  1
  Ir  Ir2  1  0.66076952  0.49976395  0.50067345  1
  Br  Br0  1  0.39838798  0.74816302  0.89474096  1
  Br  Br1  1  0.59995638  0.25114847  0.10417857  1
  Br  Br2  1  0.19474224  0.98050228  0.79186516  1
  Br  Br3  1  0.80530316  0.01939896  0.20814445  1
  Br  Br4  1  0.33493119  0.08247543  0.24407865  1
  Br  Br5  1  0.66807738  0.91773233  0.75585577  1
  Br  Br6  1  0.55818558  0.43498442  0.80648292  1
  Br  Br7  1  0.44482734  0.56477976  0.19335799  1
  Br  Br8  1  0.31197213  0.83758029  0.46168238  1
  Br  Br9  1  0.69011265  0.16653670  0.53757993  1
  Br  Br10  1  0.16426461  0.16205565  0.53473717  1
  Br  Br11  1  0.83506002  0.83411128  0.46610646  1
  Br  Br12  1  0.92434704  0.58058256  0.15200848  1
  Br  Br13  1  0.07533659  0.41959775  0.84820672  1
  Br  Br14  1  0.92962810  0.74719824  0.89608982  1
  Br  Br15  1  0.06913518  0.25341861  0.10513649  1
loop_
_geom_bond_atom_site_label_1
_geom_bond_atom_site_label_2
_geom_bond_distance
_geom_bond_site_symmetry_2
Ir0 Sc7 2.788140 1_455
Ir0 Sc1 2.794224 1_455
Ir0 Sc6 2.799238 1_555
Ir0 Sc0 2.801443 1_555
Ir0 Sc2 2.804908 1_455
Ir0 Sc5 2.806852 1_455
Ir0 Sc4 2.813572 1_555
Ir0 Sc3 2.816134 1_555
Ir1 Sc11 2.692536 1_555
Ir1 Sc6 2.694466 1_555
Ir1 Sc4 2.695075 1_555
Ir1 Sc0 2.696123 1_555
Ir1 Sc3 2.698156 1_555
Ir1 Sc10 2.698419 1_555
Ir1 Sc8 2.756820 1_555
Ir1 Sc9 2.764025 1_555
Ir2 Sc7 2.699360 1_555
Ir2 Sc2 2.702264 1_555
Ir2 Sc5 2.704794 1_555
Ir2 Sc1 2.705761 1_555
Ir2 Sc10 2.722860 1_555
Ir2 Sc11 2.728404 1_555
Ir2 Sc9 2.793625 1_555
Ir2 Sc8 2.802478 1_555
Br0 Sc9 2.767162 1_555
Br0 Sc4 2.777568 1_555
Br0 Sc3 2.783358 1_555
Br1 Sc5 2.758967 1_555
Br1 Sc2 2.766589 1_555
Br1 Sc8 2.810665 1_555
Br2 Sc1 2.674442 1_455
Br2 Sc4 2.693519 1_555
Br3 Sc5 2.675661 1_555
Br3 Sc0 2.692662 1_655
Br4 Sc8 2.742212 1_555
Br4 Sc10 2.765828 1_555
Br4 Sc5 3.213136 1_555
Br4 Sc0 3.295155 1_555
Br5 Sc9 2.743758 1_555
Br5 Sc11 2.766363 1_555
Br5 Sc4 3.231698 1_555
Br5 Sc1 3.277570 1_555
Br6 Sc9 2.744538 1_555
Br6 Sc10 2.764471 1_555
Br6 Sc3 3.176682 1_555
Br6 Sc7 3.327104 1_555
Br7 Sc8 2.745128 1_555
Br7 Sc11 2.766524 1_555
Br7 Sc2 3.159722 1_555
Br7 Sc6 3.344240 1_555
Br8 Sc11 2.763737 1_555
Br8 Sc6 2.781145 1_555
Br8 Sc4 2.798337 1_555
Br9 Sc7 2.771166 1_555
Br9 Sc10 2.780888 1_555
Br9 Sc5 2.786246 1_555
Br10 Sc10 2.763694 1_555
Br10 Sc0 2.766353 1_555
Br10 Sc3 2.776328 1_555
Br11 Sc1 2.757490 1_555
Br11 Sc2 2.771496 1_555
Br11 Sc11 2.773520 1_555
Br12 Sc2 2.659090 1_555
Br12 Sc6 2.685962 1_655
Br13 Sc7 2.671092 1_455
Br13 Sc3 2.675035 1_555
Br14 Sc7 2.765625 1_555
Br14 Sc1 2.772168 1_555
Br14 Sc9 2.801387 1_555
Br15 Sc8 2.759495 1_555
Br15 Sc6 2.781139 1_555
Br15 Sc0 2.788363 1_555
