# generated using pymatgen
data_Tb(Fe5Si)2
_symmetry_space_group_name_H-M   'P 1'
_cell_length_a   4.74837000
_cell_length_b   6.35600346
_cell_length_c   6.35600346
_cell_angle_alpha   98.50695480
_cell_angle_beta   111.93374962
_cell_angle_gamma   68.06625038
_symmetry_Int_Tables_number   1
_chemical_formula_structural   Tb(Fe5Si)2
_chemical_formula_sum   'Tb1 Fe10 Si2'
_cell_volume   165.05509103
_cell_formula_units_Z   1
loop_
 _symmetry_equiv_pos_site_id
 _symmetry_equiv_pos_as_xyz
  1  'x, y, z'
loop_
 _atom_site_type_symbol
 _atom_site_label
 _atom_site_symmetry_multiplicity
 _atom_site_fract_x
 _atom_site_fract_y
 _atom_site_fract_z
 _atom_site_occupancy
  Tb  Tb0  1  0.00000000  0.00000000  0.00000000  1
  Fe  Fe0  1  0.63908100  0.36091900  0.63908100  1
  Fe  Fe1  1  0.36091900  0.63908100  0.36091900  1
  Fe  Fe2  1  0.00000000  0.35469100  0.35469100  1
  Fe  Fe3  1  0.00000000  0.64530900  0.64530900  1
  Fe  Fe4  1  0.50000000  0.79050500  0.79050500  1
  Fe  Fe5  1  0.50000000  0.20949500  0.20949500  1
  Fe  Fe6  1  0.50000000  0.00000000  0.50000000  1
  Fe  Fe7  1  0.00000000  0.00000000  0.50000000  1
  Fe  Fe8  1  0.50000000  0.50000000  0.00000000  1
  Fe  Fe9  1  0.00000000  0.50000000  0.00000000  1
  Si  Si0  1  0.73602800  0.76397200  0.23602800  1
  Si  Si1  1  0.26397200  0.23602800  0.76397200  1
loop_
_geom_bond_atom_site_label_1
_geom_bond_atom_site_label_2
_geom_bond_distance
_geom_bond_site_symmetry_2
Fe0 Fe1 2.330640 1_555
Fe0 Fe8 2.564317 1_556
Fe0 Fe9 2.564317 1_656
Fe0 Fe6 2.564317 1_555
Fe0 Fe7 2.564317 1_655
Fe0 Si1 2.594564 1_555
Fe0 Si1 2.594564 1_655
Fe0 Fe5 2.677319 1_555
Fe0 Fe4 2.677319 1_555
Fe0 Fe2 2.906608 1_655
Fe0 Fe3 2.906608 1_655
Fe0 Fe2 2.906608 1_555
Fe0 Fe3 2.906608 1_555
Fe0 Tb0 3.024038 1_656
Fe1 Fe7 2.564317 1_565
Fe1 Fe8 2.564317 1_555
Fe1 Fe9 2.564317 1_555
Fe1 Fe6 2.564317 1_565
Fe1 Si0 2.594564 1_555
Fe1 Si0 2.594564 1_455
Fe1 Fe4 2.677319 1_555
Fe1 Fe5 2.677319 1_555
Fe1 Fe3 2.906608 1_555
Fe1 Fe2 2.906608 1_555
Fe1 Fe3 2.906608 1_655
Fe1 Fe2 2.906608 1_655
Fe1 Tb0 3.024038 1_565
Fe2 Fe3 2.411345 1_555
Fe2 Si1 2.519021 1_555
Fe2 Si0 2.519021 1_455
Fe2 Fe7 2.559575 1_555
Fe2 Fe9 2.559575 1_555
Fe2 Fe8 2.559575 1_455
Fe2 Fe6 2.559575 1_555
Fe2 Fe5 2.662356 1_555
Fe2 Fe5 2.662356 1_455
Fe2 Tb0 2.942978 1_555
Fe3 Si0 2.519021 1_455
Fe3 Si1 2.519021 1_555
Fe3 Fe7 2.559575 1_565
Fe3 Fe9 2.559575 1_556
Fe3 Fe6 2.559575 1_465
Fe3 Fe8 2.559575 1_556
Fe3 Fe4 2.662356 1_455
Fe3 Fe4 2.662356 1_555
Fe3 Tb0 2.942978 1_566
Fe4 Fe6 2.431012 1_565
Fe4 Fe8 2.431012 1_556
Fe4 Fe7 2.431012 1_565
Fe4 Fe9 2.431012 1_656
Fe4 Si0 2.632952 1_556
Fe4 Si1 2.632952 1_565
Fe4 Tb0 2.942489 1_666
Fe4 Tb0 2.942489 1_566
Fe5 Fe6 2.431012 1_555
Fe5 Fe8 2.431012 1_555
Fe5 Fe9 2.431012 1_555
Fe5 Fe7 2.431012 1_655
Fe5 Si0 2.632952 1_545
Fe5 Si1 2.632952 1_554
Fe5 Tb0 2.942489 1_555
Fe5 Tb0 2.942489 1_655
Fe6 Fe7 2.374185 1_655
Fe6 Fe7 2.374185 1_555
Fe6 Si1 2.392848 1_555
Fe6 Si0 2.392848 1_545
Fe6 Tb0 3.178002 1_656
Fe6 Tb0 3.178002 1_555
Fe7 Si0 2.392848 1_445
Fe7 Si1 2.392848 1_555
Fe7 Tb0 3.178002 1_555
Fe7 Tb0 3.178002 1_556
Fe8 Fe9 2.374185 1_555
Fe8 Fe9 2.374185 1_655
Fe8 Si0 2.392848 1_555
Fe8 Si1 2.392848 1_554
Fe8 Tb0 3.178002 1_565
Fe8 Tb0 3.178002 1_655
Fe9 Si1 2.392848 1_554
Fe9 Si0 2.392848 1_455
Fe9 Tb0 3.178002 1_555
Fe9 Tb0 3.178002 1_565
Si0 Tb0 3.089936 1_665
Si0 Tb0 3.089936 1_565
Si1 Tb0 3.089936 1_556
Si1 Tb0 3.089936 1_656
