# generated using pymatgen
data_Mg(WO2)2
_symmetry_space_group_name_H-M   'P 1'
_cell_length_a   6.35213859
_cell_length_b   6.35213859
_cell_length_c   6.35213859
_cell_angle_alpha   121.19910294
_cell_angle_beta   117.89369354
_cell_angle_gamma   90.81098272
_symmetry_Int_Tables_number   1
_chemical_formula_structural   Mg(WO2)2
_chemical_formula_sum   'Mg2 W4 O8'
_cell_volume   182.27244087
_cell_formula_units_Z   2
loop_
 _symmetry_equiv_pos_site_id
 _symmetry_equiv_pos_as_xyz
  1  'x, y, z'
loop_
 _atom_site_type_symbol
 _atom_site_label
 _atom_site_symmetry_multiplicity
 _atom_site_fract_x
 _atom_site_fract_y
 _atom_site_fract_z
 _atom_site_occupancy
  Mg  Mg0  1  0.00000000  0.50000000  0.50000000  1
  Mg  Mg1  1  0.50000000  0.50000000  0.00000000  1
  W  W0  1  0.10023300  0.85023300  0.25000000  1
  W  W1  1  0.89976700  0.14976700  0.75000000  1
  W  W2  1  0.50000000  0.00000000  0.00000000  1
  W  W3  1  0.50000000  0.50000000  0.50000000  1
  O  O0  1  0.74451200  0.25725800  0.01274600  1
  O  O1  1  0.74194100  0.26499300  0.47694800  1
  O  O2  1  0.74451200  0.73176600  0.48725400  1
  O  O3  1  0.28804500  0.26499300  0.02305200  1
  O  O4  1  0.71195500  0.73500700  0.97694800  1
  O  O5  1  0.25805900  0.73500700  0.52305200  1
  O  O6  1  0.25548800  0.26823400  0.51274600  1
  O  O7  1  0.25548800  0.74274200  0.98725400  1
loop_
_geom_bond_atom_site_label_1
_geom_bond_atom_site_label_2
_geom_bond_distance
_geom_bond_site_symmetry_2
Mg0 O5 2.101577 1_555
Mg0 O1 2.101577 1_455
Mg0 O2 2.208150 1_455
Mg0 O6 2.208150 1_555
Mg0 O7 2.208150 1_555
Mg0 O0 2.208150 1_455
Mg1 O3 2.101577 1_555
Mg1 O4 2.101577 1_554
Mg1 O2 2.208150 1_555
Mg1 O0 2.208150 1_555
Mg1 O7 2.208150 1_554
Mg1 O6 2.208150 1_554
O0 W1 2.145427 1_554
O0 W2 2.182368 1_555
O1 W1 2.063539 1_555
O1 W3 2.158891 1_555
O1 W2 2.158891 1_555
O2 W1 2.145427 1_565
O2 W3 2.182368 1_555
O3 W1 2.063539 1_454
O3 W3 2.158891 1_555
O3 W2 2.158891 1_555
O4 W0 2.063539 1_656
O4 W3 2.158891 1_555
O4 W2 2.158891 1_566
O5 W0 2.063539 1_555
O5 W3 2.158891 1_555
O5 W2 2.158891 1_566
O6 W0 2.145427 1_545
O6 W3 2.182368 1_555
O7 W0 2.145427 1_556
O7 W2 2.182368 1_566
