# generated using pymatgen
data_Ta3Os
_symmetry_space_group_name_H-M   'P 1'
_cell_length_a   4.55775353
_cell_length_b   4.55775353
_cell_length_c   4.55775353
_cell_angle_alpha   60.00000000
_cell_angle_beta   60.00000000
_cell_angle_gamma   60.00000000
_symmetry_Int_Tables_number   1
_chemical_formula_structural   Ta3Os
_chemical_formula_sum   'Ta3 Os1'
_cell_volume   66.94798517
_cell_formula_units_Z   1
loop_
 _symmetry_equiv_pos_site_id
 _symmetry_equiv_pos_as_xyz
  1  'x, y, z'
loop_
 _atom_site_type_symbol
 _atom_site_label
 _atom_site_symmetry_multiplicity
 _atom_site_fract_x
 _atom_site_fract_y
 _atom_site_fract_z
 _atom_site_occupancy
  Ta  Ta0  1  0.00000000  -0.00000000  0.00000000  1
  Ta  Ta1  1  0.50000000  0.50000000  0.50000000  1
  Ta  Ta2  1  0.24999900  0.24999900  0.24999900  1
  Os  Os0  1  0.75000000  0.75000000  0.75000000  1
loop_
_geom_bond_atom_site_label_1
_geom_bond_atom_site_label_2
_geom_bond_distance
_geom_bond_site_symmetry_2
Ta0 Ta2 2.791031 1_555
Ta0 Ta2 2.791046 1_554
Ta0 Ta2 2.791046 1_455
Ta0 Ta2 2.791046 1_545
Ta1 Ta2 2.791039 1_556
Ta1 Ta2 2.791039 1_565
Ta1 Ta2 2.791039 1_655
Ta1 Ta2 2.791054 1_555
Os0 Ta1 2.791043 1_655
Os0 Ta0 2.791043 1_566
Os0 Ta0 2.791043 1_665
Os0 Ta0 2.791043 1_656
Os0 Ta1 2.791043 1_555
Os0 Ta1 2.791043 1_556
Os0 Ta1 2.791043 1_565
Os0 Ta0 2.791043 1_666
Os0 Ta2 3.222812 1_566
Os0 Ta2 3.222812 1_656
Os0 Ta2 3.222812 1_665
Os0 Ta2 3.222825 1_565
Os0 Ta2 3.222825 1_655
Os0 Ta2 3.222825 1_556
