# generated using pymatgen
data_Ta3V7Si6
_symmetry_space_group_name_H-M   'P 1'
_cell_length_a   7.29942347
_cell_length_b   7.29942347
_cell_length_c   4.89486300
_cell_angle_alpha   90.00000000
_cell_angle_beta   90.00000000
_cell_angle_gamma   119.99999516
_symmetry_Int_Tables_number   1
_chemical_formula_structural   Ta3V7Si6
_chemical_formula_sum   'Ta3 V7 Si6'
_cell_volume   225.86467481
_cell_formula_units_Z   1
loop_
 _symmetry_equiv_pos_site_id
 _symmetry_equiv_pos_as_xyz
  1  'x, y, z'
loop_
 _atom_site_type_symbol
 _atom_site_label
 _atom_site_symmetry_multiplicity
 _atom_site_fract_x
 _atom_site_fract_y
 _atom_site_fract_z
 _atom_site_occupancy
  Ta  Ta0  1  0.22908500  0.00000000  0.00000000  1
  Ta  Ta1  1  0.00000000  0.22908500  0.00000000  1
  Ta  Ta2  1  0.77091500  0.77091500  0.00000000  1
  V  V0  1  0.33333300  0.66666700  0.74660000  1
  V  V1  1  0.66666700  0.33333300  0.74660000  1
  V  V2  1  0.66666700  0.33333300  0.25340000  1
  V  V3  1  0.33333300  0.66666700  0.25340000  1
  V  V4  1  0.73628300  0.00000000  0.50000000  1
  V  V5  1  0.00000000  0.73628300  0.50000000  1
  V  V6  1  0.26371700  0.26371700  0.50000000  1
  Si  Si0  1  0.38968200  0.00000000  0.50000000  1
  Si  Si1  1  0.00000000  0.38968200  0.50000000  1
  Si  Si2  1  0.61031800  0.61031800  0.50000000  1
  Si  Si3  1  0.59156400  0.00000000  0.00000000  1
  Si  Si4  1  0.00000000  0.59156400  0.00000000  1
  Si  Si5  1  0.40843600  0.40843600  0.00000000  1
loop_
_geom_bond_atom_site_label_1
_geom_bond_atom_site_label_2
_geom_bond_distance
_geom_bond_site_symmetry_2
V0 V3 2.414146 1_555
V0 V3 2.480717 1_556
V1 V2 2.414146 1_555
V1 V2 2.480717 1_556
Si0 V6 2.514150 1_555
Si0 V5 2.514150 1_545
Si0 V4 2.529987 1_555
Si0 V3 2.558434 1_545
Si0 V0 2.558434 1_545
Si0 V2 2.558436 1_555
Si0 V1 2.558436 1_555
Si0 Ta0 2.713693 1_556
Si0 Ta0 2.713693 1_555
Si1 V6 2.514150 1_555
Si1 V4 2.514150 1_455
Si1 V5 2.529987 1_555
Si1 V2 2.558434 1_455
Si1 V1 2.558434 1_455
Si1 V3 2.558436 1_555
Si1 V0 2.558436 1_555
Si1 Ta1 2.713693 1_555
Si1 Ta1 2.713693 1_556
Si2 V4 2.514150 1_565
Si2 V5 2.514150 1_655
Si2 V6 2.529988 1_555
Si2 V3 2.558440 1_555
Si2 V2 2.558440 1_555
Si2 V1 2.558440 1_555
Si2 V0 2.558440 1_555
Si2 Ta2 2.713693 1_556
Si2 Ta2 2.713693 1_555
Si3 V2 2.534821 1_555
Si3 V1 2.534821 1_554
Si3 V3 2.534823 1_545
Si3 V0 2.534823 1_544
Si3 Ta2 2.588295 1_545
Si3 Ta1 2.588295 1_655
Si3 Ta0 2.645888 1_555
Si3 V4 2.665676 1_555
Si3 V4 2.665676 1_554
Si4 V0 2.534821 1_554
Si4 V3 2.534821 1_555
Si4 V1 2.534823 1_454
Si4 V2 2.534823 1_455
Si4 Ta2 2.588295 1_455
Si4 Ta0 2.588295 1_565
Si4 Ta1 2.645888 1_555
Si4 V5 2.665676 1_555
Si4 V5 2.665676 1_554
Si5 V0 2.534827 1_554
Si5 V1 2.534827 1_554
Si5 V3 2.534827 1_555
Si5 V2 2.534827 1_555
Si5 Ta0 2.588295 1_555
Si5 Ta1 2.588295 1_555
Si5 Ta2 2.645888 1_555
Si5 V6 2.665676 1_554
Si5 V6 2.665676 1_555
