# generated using pymatgen
data_Li3MnCoO5
_symmetry_space_group_name_H-M   'P 1'
_cell_length_a   7.72308812
_cell_length_b   7.72308812
_cell_length_c   5.11198679
_cell_angle_alpha   83.89138023
_cell_angle_beta   83.89138023
_cell_angle_gamma   142.01466501
_symmetry_Int_Tables_number   1
_chemical_formula_structural   Li3MnCoO5
_chemical_formula_sum   'Li6 Mn2 Co2 O10'
_cell_volume   177.34463411
_cell_formula_units_Z   2
loop_
 _symmetry_equiv_pos_site_id
 _symmetry_equiv_pos_as_xyz
  1  'x, y, z'
loop_
 _atom_site_type_symbol
 _atom_site_label
 _atom_site_symmetry_multiplicity
 _atom_site_fract_x
 _atom_site_fract_y
 _atom_site_fract_z
 _atom_site_occupancy
  Li  Li0  1  0.89690000  0.10310000  0.50000000  1
  Li  Li1  1  0.29723500  0.70276500  0.50000000  1
  Li  Li2  1  0.70240000  0.29760000  0.50000000  1
  Li  Li3  1  0.10566300  0.89433700  0.50000000  1
  Li  Li4  1  0.49864000  0.50136000  0.50000000  1
  Li  Li5  1  0.20127400  0.79872600  0.00000000  1
  Mn  Mn0  1  0.00204800  0.99795200  0.00000000  1
  Mn  Mn1  1  0.60222000  0.39778000  0.00000000  1
  Co  Co0  1  0.39245000  0.60755000  0.00000000  1
  Co  Co1  1  0.79676000  0.20324000  0.00000000  1
  O  O0  1  0.66809000  0.85892800  0.22864900  1
  O  O1  1  0.05303500  0.44113900  0.23293500  1
  O  O2  1  0.47127100  0.08186700  0.23374300  1
  O  O3  1  0.84189500  0.65625800  0.22090700  1
  O  O4  1  0.25512300  0.24681200  0.21951800  1
  O  O5  1  0.14107200  0.33191000  0.77135100  1
  O  O6  1  0.55886100  0.94696500  0.76706500  1
  O  O7  1  0.91813300  0.52872900  0.76625700  1
  O  O8  1  0.34374200  0.15810500  0.77909300  1
  O  O9  1  0.75318800  0.74487700  0.78048200  1
loop_
_geom_bond_atom_site_label_1
_geom_bond_atom_site_label_2
_geom_bond_distance
_geom_bond_site_symmetry_2
Li0 O6 2.015514 1_545
Li0 O1 2.015514 1_655
Li0 O0 2.104389 1_545
Li0 O5 2.104389 1_655
Li0 O4 2.217755 1_655
Li0 O9 2.217755 1_545
Li1 O1 2.152097 1_555
Li1 O6 2.152097 1_555
Li1 O2 2.188741 1_565
Li1 O7 2.188741 1_455
Li1 O0 2.221547 1_555
Li1 O5 2.221547 1_555
Li2 O7 2.031373 1_555
Li2 O2 2.031373 1_555
Li2 O1 2.141238 1_655
Li2 O6 2.141238 1_545
Li2 O3 2.235295 1_555
Li2 O8 2.235295 1_555
Li3 O2 2.058921 1_565
Li3 O7 2.058921 1_455
Li3 O4 2.159274 1_565
Li3 O9 2.159274 1_455
Li3 O8 2.199693 1_565
Li3 O3 2.199693 1_455
Li4 O3 2.080157 1_555
Li4 O8 2.080157 1_555
Li4 O5 2.089121 1_555
Li4 O0 2.089121 1_555
Li4 O9 2.191645 1_555
Li4 O4 2.191645 1_555
Li5 O1 2.093201 1_555
Li5 O6 2.093201 1_554
Li5 O8 2.108064 1_564
Li5 O3 2.108064 1_455
Li5 O2 2.110985 1_565
Li5 O7 2.110985 1_454
Mn0 O3 1.921552 1_455
Mn0 O8 1.921552 1_564
Mn0 O9 1.943618 1_454
Mn0 O4 1.943618 1_565
Mn0 O5 1.974145 1_564
Mn0 O0 1.974145 1_455
Mn1 O2 1.906853 1_555
Mn1 O7 1.906853 1_554
Mn1 O3 1.945890 1_555
Mn1 O8 1.945890 1_554
Mn1 O4 1.989756 1_555
Mn1 O9 1.989756 1_554
Co0 O6 1.907989 1_554
Co0 O1 1.907989 1_555
Co0 O5 2.040781 1_554
Co0 O0 2.040781 1_555
Co0 O4 2.137644 1_555
Co0 O9 2.137644 1_554
Co1 O1 1.986431 1_655
Co1 O6 1.986431 1_544
Co1 O7 2.008351 1_554
Co1 O2 2.008351 1_555
Co1 O0 2.085824 1_545
Co1 O5 2.085824 1_654
