# generated using pymatgen
data_ZrC8(NCl3)2
_symmetry_space_group_name_H-M   'P 1'
_cell_length_a   7.85526903
_cell_length_b   7.85526903
_cell_length_c   7.85526903
_cell_angle_alpha   60.00000000
_cell_angle_beta   60.00000000
_cell_angle_gamma   60.00000000
_symmetry_Int_Tables_number   1
_chemical_formula_structural   ZrC8(NCl3)2
_chemical_formula_sum   'Zr1 C8 N2 Cl6'
_cell_volume   342.74268362
_cell_formula_units_Z   1
loop_
 _symmetry_equiv_pos_site_id
 _symmetry_equiv_pos_as_xyz
  1  'x, y, z'
loop_
 _atom_site_type_symbol
 _atom_site_label
 _atom_site_symmetry_multiplicity
 _atom_site_fract_x
 _atom_site_fract_y
 _atom_site_fract_z
 _atom_site_occupancy
  Zr  Zr0  1  0.00000000  0.00000000  0.00000000  1
  C  C0  1  0.67493200  0.67493200  0.97520300  1
  C  C1  1  0.67493200  0.97520300  0.67493200  1
  C  C2  1  0.97520300  0.67493200  0.67493200  1
  C  C3  1  0.67493200  0.67493200  0.67493200  1
  C  C4  1  0.32506800  0.32506800  0.02479700  1
  C  C5  1  0.32506800  0.02479700  0.32506800  1
  C  C6  1  0.02479700  0.32506800  0.32506800  1
  C  C7  1  0.32506800  0.32506800  0.32506800  1
  N  N0  1  0.75000000  0.75000000  0.75000000  1
  N  N1  1  0.25000000  0.25000000  0.25000000  1
  Cl  Cl0  1  0.77591100  0.77591100  0.22408900  1
  Cl  Cl1  1  0.22408900  0.77591100  0.22408900  1
  Cl  Cl2  1  0.77591100  0.22408900  0.22408900  1
  Cl  Cl3  1  0.22408900  0.22408900  0.77591100  1
  Cl  Cl4  1  0.77591100  0.22408900  0.77591100  1
  Cl  Cl5  1  0.22408900  0.77591100  0.77591100  1
loop_
_geom_bond_atom_site_label_1
_geom_bond_atom_site_label_2
_geom_bond_distance
_geom_bond_site_symmetry_2
C0 N0 1.444407 1_555
C1 N0 1.444407 1_555
C2 N0 1.444407 1_555
C3 N0 1.444413 1_555
C4 N1 1.444407 1_555
C5 N1 1.444407 1_555
C6 N1 1.444407 1_555
C7 N1 1.444413 1_555
Cl0 Zr0 2.489411 1_665
Cl1 Zr0 2.489411 1_565
Cl2 Zr0 2.489411 1_655
Cl3 Zr0 2.489411 1_556
Cl4 Zr0 2.489411 1_656
Cl5 Zr0 2.489411 1_566
