# generated using pymatgen
data_MgZn3S4
_symmetry_space_group_name_H-M   'P 1'
_cell_length_a   3.85446654
_cell_length_b   6.31228017
_cell_length_c   6.69321852
_cell_angle_alpha   89.95487729
_cell_angle_beta   90.00000000
_cell_angle_gamma   90.00000000
_symmetry_Int_Tables_number   1
_chemical_formula_structural   MgZn3S4
_chemical_formula_sum   'Mg1 Zn3 S4'
_cell_volume   162.84911990
_cell_formula_units_Z   1
loop_
 _symmetry_equiv_pos_site_id
 _symmetry_equiv_pos_as_xyz
  1  'x, y, z'
loop_
 _atom_site_type_symbol
 _atom_site_label
 _atom_site_symmetry_multiplicity
 _atom_site_fract_x
 _atom_site_fract_y
 _atom_site_fract_z
 _atom_site_occupancy
  Mg  Mg0  1  0.00000000  0.50036641  0.33346099  1
  Zn  Zn0  1  0.50000000  0.49957969  0.83328654  1
  Zn  Zn1  1  0.50000000  0.99926586  0.16347546  1
  Zn  Zn2  1  -0.00000000  0.99868500  0.67020412  1
  S  S0  1  0.00000000  0.11304079  0.33458206  1
  S  S1  1  0.50000000  0.12705943  0.83257001  1
  S  S2  1  0.50000000  0.63032256  0.15652868  1
  S  S3  1  0.00000000  0.62767926  0.67589115  1
loop_
_geom_bond_atom_site_label_1
_geom_bond_atom_site_label_2
_geom_bond_distance
_geom_bond_site_symmetry_2
Mg0 S2 2.405839 1_455
Mg0 S2 2.405839 1_555
Mg0 S3 2.429364 1_555
Mg0 S0 2.444913 1_555
S0 Zn1 2.354339 1_545
S0 Zn1 2.354339 1_445
S0 Zn2 2.358979 1_545
S1 Zn0 2.351461 1_555
S1 Zn2 2.356541 1_545
S1 Zn2 2.356541 1_645
S1 Zn1 2.356552 1_546
S2 Zn0 2.316198 1_554
S2 Zn1 2.329374 1_555
S3 Zn0 2.340202 1_555
S3 Zn0 2.340202 1_455
S3 Zn2 2.342172 1_555
