# generated using pymatgen
data_CsNaMg6O7
_symmetry_space_group_name_H-M   'P 1'
_cell_length_a   4.24398900
_cell_length_b   4.24398900
_cell_length_c   11.97284400
_cell_angle_alpha   90.00000000
_cell_angle_beta   90.00000000
_cell_angle_gamma   90.00000000
_symmetry_Int_Tables_number   1
_chemical_formula_structural   CsNaMg6O7
_chemical_formula_sum   'Cs1 Na1 Mg6 O7'
_cell_volume   215.64819285
_cell_formula_units_Z   1
loop_
 _symmetry_equiv_pos_site_id
 _symmetry_equiv_pos_as_xyz
  1  'x, y, z'
loop_
 _atom_site_type_symbol
 _atom_site_label
 _atom_site_symmetry_multiplicity
 _atom_site_fract_x
 _atom_site_fract_y
 _atom_site_fract_z
 _atom_site_occupancy
  Cs  Cs0  1  0.50000000  0.50000000  0.96119600  1
  Na  Na0  1  0.00000000  0.00000000  0.07864200  1
  Mg  Mg0  1  0.00000000  0.00000000  0.49552900  1
  Mg  Mg1  1  0.50000000  0.50000000  0.47921000  1
  Mg  Mg2  1  0.00000000  0.50000000  0.27373900  1
  Mg  Mg3  1  0.00000000  0.50000000  0.66316600  1
  Mg  Mg4  1  0.50000000  0.00000000  0.27373900  1
  Mg  Mg5  1  0.50000000  0.00000000  0.66316600  1
  O  O0  1  0.00000000  0.00000000  0.67202500  1
  O  O1  1  0.50000000  0.50000000  0.31170700  1
  O  O2  1  0.50000000  0.50000000  0.67224100  1
  O  O3  1  0.00000000  0.50000000  0.11502300  1
  O  O4  1  0.00000000  0.50000000  0.48779800  1
  O  O5  1  0.50000000  0.00000000  0.11502300  1
  O  O6  1  0.50000000  0.00000000  0.48779800  1
loop_
_geom_bond_atom_site_label_1
_geom_bond_atom_site_label_2
_geom_bond_distance
_geom_bond_site_symmetry_2
Cs0 O3 2.809785 1_656
Cs0 O5 2.809785 1_556
Cs0 O5 2.809785 1_566
Cs0 O3 2.809785 1_556
Cs0 O2 3.459613 1_555
Na0 O3 2.166240 1_545
Na0 O3 2.166240 1_555
Na0 O5 2.166240 1_555
Na0 O5 2.166240 1_455
Mg0 O0 2.113159 1_555
Mg0 O6 2.124012 1_555
Mg0 O4 2.124012 1_555
Mg0 O6 2.124012 1_455
Mg0 O4 2.124012 1_545
Mg1 O1 2.005487 1_555
Mg1 O6 2.124484 1_565
Mg1 O4 2.124484 1_555
Mg1 O4 2.124484 1_655
Mg1 O6 2.124484 1_555
Mg1 O2 2.311130 1_555
Mg2 O3 1.900282 1_555
Mg2 O1 2.170140 1_555
Mg2 O1 2.170140 1_455
Mg2 O4 2.562895 1_555
Mg3 O4 2.099654 1_555
Mg3 O0 2.124644 1_555
Mg3 O0 2.124644 1_565
Mg3 O2 2.124774 1_455
Mg3 O2 2.124774 1_555
Mg4 O5 1.900282 1_555
Mg4 O1 2.170140 1_555
Mg4 O1 2.170140 1_545
Mg4 O6 2.562895 1_555
Mg5 O6 2.099654 1_555
Mg5 O0 2.124644 1_555
Mg5 O0 2.124644 1_655
Mg5 O2 2.124774 1_545
Mg5 O2 2.124774 1_555
