# generated using pymatgen
data_TaNbN2
_symmetry_space_group_name_H-M   'P 1'
_cell_length_a   5.42477724
_cell_length_b   5.42477724
_cell_length_c   5.42477732
_cell_angle_alpha   33.68993366
_cell_angle_beta   33.68993366
_cell_angle_gamma   33.68992505
_symmetry_Int_Tables_number   1
_chemical_formula_structural   TaNbN2
_chemical_formula_sum   'Ta1 Nb1 N2'
_cell_volume   43.76199211
_cell_formula_units_Z   1
loop_
 _symmetry_equiv_pos_site_id
 _symmetry_equiv_pos_as_xyz
  1  'x, y, z'
loop_
 _atom_site_type_symbol
 _atom_site_label
 _atom_site_symmetry_multiplicity
 _atom_site_fract_x
 _atom_site_fract_y
 _atom_site_fract_z
 _atom_site_occupancy
  Ta  Ta0  1  0.00000000  0.00000000  0.00000000  1
  Nb  Nb0  1  0.50000000  0.50000000  0.50000000  1
  N  N0  1  0.25414000  0.25414000  0.25414000  1
  N  N1  1  0.74586000  0.74586000  0.74586000  1
loop_
_geom_bond_atom_site_label_1
_geom_bond_atom_site_label_2
_geom_bond_distance
_geom_bond_site_symmetry_2
N0 Ta0 2.184037 1_655
N0 Ta0 2.184037 1_565
N0 Ta0 2.184038 1_556
N0 Nb0 2.257121 1_545
N0 Nb0 2.257121 1_455
N0 Nb0 2.257121 1_554
N1 Ta0 2.184037 1_656
N1 Ta0 2.184037 1_566
N1 Ta0 2.184038 1_665
N1 Nb0 2.257121 1_655
N1 Nb0 2.257121 1_565
N1 Nb0 2.257121 1_556
