# generated using pymatgen
data_PdPtAu
_symmetry_space_group_name_H-M   'P 1'
_cell_length_a   5.69903604
_cell_length_b   5.69903604
_cell_length_c   13.97276200
_cell_angle_alpha   90.00000000
_cell_angle_beta   90.00000000
_cell_angle_gamma   120.00000047
_symmetry_Int_Tables_number   1
_chemical_formula_structural   PdPtAu
_chemical_formula_sum   'Pd8 Pt8 Au8'
_cell_volume   393.02094745
_cell_formula_units_Z   8
loop_
 _symmetry_equiv_pos_site_id
 _symmetry_equiv_pos_as_xyz
  1  'x, y, z'
loop_
 _atom_site_type_symbol
 _atom_site_label
 _atom_site_symmetry_multiplicity
 _atom_site_fract_x
 _atom_site_fract_y
 _atom_site_fract_z
 _atom_site_occupancy
  Pd  Pd0_0  1  0.00000000  0.00000000  0.16897750  1
  Pd  Pd0_1  1  0.00000000  0.00000000  0.66897750  1
  Pd  Pd0_2  1  0.00000000  0.50000000  0.16897750  1
  Pd  Pd0_3  1  0.00000000  0.50000000  0.66897750  1
  Pd  Pd0_4  1  0.50000000  0.00000000  0.16897750  1
  Pd  Pd0_5  1  0.50000000  0.00000000  0.66897750  1
  Pd  Pd0_6  1  0.50000000  0.50000000  0.16897750  1
  Pd  Pd0_7  1  0.50000000  0.50000000  0.66897750  1
  Pt  Pt0_0  1  0.33333350  0.16666650  0.32954550  1
  Pt  Pt0_1  1  0.33333350  0.16666650  0.82954550  1
  Pt  Pt0_2  1  0.33333350  0.66666650  0.32954550  1
  Pt  Pt0_3  1  0.33333350  0.66666650  0.82954550  1
  Pt  Pt0_4  1  0.83333350  0.16666650  0.32954550  1
  Pt  Pt0_5  1  0.83333350  0.16666650  0.82954550  1
  Pt  Pt0_6  1  0.83333350  0.66666650  0.32954550  1
  Pt  Pt0_7  1  0.83333350  0.66666650  0.82954550  1
  Au  Au0_0  1  0.16666650  0.33333350  0.00147700  1
  Au  Au0_1  1  0.16666650  0.33333350  0.50147700  1
  Au  Au0_2  1  0.16666650  0.83333350  0.00147700  1
  Au  Au0_3  1  0.16666650  0.83333350  0.50147700  1
  Au  Au0_4  1  0.66666650  0.33333350  0.00147700  1
  Au  Au0_5  1  0.66666650  0.33333350  0.50147700  1
  Au  Au0_6  1  0.66666650  0.83333350  0.00147700  1
  Au  Au0_7  1  0.66666650  0.83333350  0.50147700  1
loop_
_geom_bond_atom_site_label_1
_geom_bond_atom_site_label_2
_geom_bond_distance
_geom_bond_site_symmetry_2
Pd0_0 Pt0_4 2.782126 1_455
Pd0_0 Pt0_6 2.782127 1_445
Pd0_0 Pt0_0 2.782127 1_555
Pd0_0 Pd0_6 2.849518 1_445
Pd0_0 Pd0_6 2.849518 1_555
Pd0_0 Pd0_2 2.849518 1_545
Pd0_0 Pd0_4 2.849518 1_555
Pd0_0 Pd0_4 2.849518 1_455
Pd0_0 Pd0_2 2.849518 1_555
Pd0_1 Pt0_5 2.782126 1_455
Pd0_1 Pt0_1 2.782127 1_555
Pd0_1 Pt0_7 2.782127 1_445
Pd0_1 Pd0_7 2.849518 1_555
Pd0_1 Pd0_7 2.849518 1_445
Pd0_1 Pd0_3 2.849518 1_555
Pd0_1 Pd0_5 2.849518 1_555
Pd0_1 Pd0_3 2.849518 1_545
Pd0_1 Pd0_5 2.849518 1_455
Pd0_2 Pt0_6 2.782126 1_455
Pd0_2 Pt0_2 2.782127 1_555
Pd0_2 Pt0_4 2.782127 1_455
Pd0_2 Pd0_4 2.849518 1_565
Pd0_2 Pd0_4 2.849518 1_455
Pd0_2 Pd0_6 2.849518 1_555
Pd0_2 Pd0_6 2.849518 1_455
Pd0_3 Pt0_7 2.782126 1_455
Pd0_3 Pt0_3 2.782127 1_555
Pd0_3 Pt0_5 2.782127 1_455
Pd0_3 Pd0_5 2.849518 1_455
Pd0_3 Pd0_5 2.849518 1_565
Pd0_3 Pd0_7 2.849518 1_555
Pd0_3 Pd0_7 2.849518 1_455
Pd0_4 Pt0_0 2.782126 1_555
Pd0_4 Pt0_2 2.782127 1_545
Pd0_4 Pt0_4 2.782127 1_555
Pd0_4 Pd0_6 2.849518 1_555
Pd0_4 Pd0_6 2.849518 1_545
Pd0_5 Pt0_1 2.782126 1_555
Pd0_5 Pt0_3 2.782127 1_545
Pd0_5 Pt0_5 2.782127 1_555
Pd0_5 Pd0_7 2.849518 1_555
Pd0_5 Pd0_7 2.849518 1_545
Pd0_6 Pt0_2 2.782126 1_555
Pd0_6 Pt0_0 2.782127 1_555
Pd0_6 Pt0_6 2.782127 1_555
Pd0_7 Pt0_3 2.782126 1_555
Pd0_7 Pt0_1 2.782127 1_555
Pd0_7 Pt0_7 2.782127 1_555
Pt0_0 Pt0_6 2.849518 1_555
Pt0_0 Pt0_6 2.849518 1_445
Pt0_0 Pt0_2 2.849518 1_545
Pt0_0 Pt0_4 2.849518 1_555
Pt0_0 Pt0_2 2.849518 1_555
Pt0_0 Pt0_4 2.849518 1_455
Pt0_1 Pt0_7 2.849518 1_555
Pt0_1 Pt0_7 2.849518 1_445
Pt0_1 Pt0_5 2.849518 1_555
Pt0_1 Pt0_3 2.849518 1_545
Pt0_1 Pt0_5 2.849518 1_455
Pt0_1 Pt0_3 2.849518 1_555
Pt0_2 Pt0_4 2.849518 1_565
Pt0_2 Pt0_4 2.849518 1_455
Pt0_2 Pt0_6 2.849518 1_455
Pt0_2 Pt0_6 2.849518 1_555
Pt0_3 Pt0_5 2.849518 1_565
Pt0_3 Pt0_5 2.849518 1_455
Pt0_3 Pt0_7 2.849518 1_455
Pt0_3 Pt0_7 2.849518 1_555
Pt0_4 Pt0_6 2.849518 1_555
Pt0_4 Pt0_6 2.849518 1_545
Pt0_5 Pt0_7 2.849518 1_555
Pt0_5 Pt0_7 2.849518 1_545
Au0_0 Au0_6 2.849518 1_555
Au0_0 Au0_6 2.849518 1_445
Au0_0 Au0_4 2.849518 1_555
Au0_0 Au0_2 2.849518 1_555
Au0_0 Au0_2 2.849518 1_545
Au0_0 Au0_4 2.849518 1_455
Au0_0 Pd0_2 2.860815 1_555
Au0_0 Pd0_0 2.860816 1_555
Au0_0 Pd0_6 2.860816 1_555
Au0_0 Pt0_3 2.911684 1_554
Au0_0 Pt0_5 2.911684 1_454
Au0_0 Pt0_1 2.911687 1_554
Au0_1 Au0_7 2.849518 1_445
Au0_1 Au0_7 2.849518 1_555
Au0_1 Au0_3 2.849518 1_555
Au0_1 Au0_5 2.849518 1_555
Au0_1 Au0_5 2.849518 1_455
Au0_1 Au0_3 2.849518 1_545
Au0_1 Pd0_3 2.860815 1_555
Au0_1 Pd0_1 2.860816 1_555
Au0_1 Pd0_7 2.860816 1_555
Au0_1 Pt0_4 2.911684 1_455
Au0_1 Pt0_2 2.911684 1_555
Au0_1 Pt0_0 2.911687 1_555
Au0_2 Au0_4 2.849518 1_565
Au0_2 Au0_4 2.849518 1_455
Au0_2 Au0_6 2.849518 1_555
Au0_2 Au0_6 2.849518 1_455
Au0_2 Pd0_0 2.860815 1_565
Au0_2 Pd0_2 2.860816 1_555
Au0_2 Pd0_4 2.860816 1_565
Au0_2 Pt0_7 2.911684 1_454
Au0_2 Pt0_1 2.911684 1_564
Au0_2 Pt0_3 2.911687 1_554
Au0_3 Au0_5 2.849518 1_565
Au0_3 Au0_5 2.849518 1_455
Au0_3 Au0_7 2.849518 1_555
Au0_3 Au0_7 2.849518 1_455
Au0_3 Pd0_1 2.860815 1_565
Au0_3 Pd0_5 2.860816 1_565
Au0_3 Pd0_3 2.860816 1_555
Au0_3 Pt0_6 2.911684 1_455
Au0_3 Pt0_0 2.911684 1_565
Au0_3 Pt0_2 2.911687 1_555
Au0_4 Au0_6 2.849518 1_545
Au0_4 Au0_6 2.849518 1_555
Au0_4 Pd0_6 2.860815 1_555
Au0_4 Pd0_4 2.860816 1_555
Au0_4 Pd0_2 2.860816 1_655
Au0_4 Pt0_1 2.911684 1_554
Au0_4 Pt0_7 2.911684 1_554
Au0_4 Pt0_5 2.911687 1_554
Au0_5 Au0_7 2.849518 1_545
Au0_5 Au0_7 2.849518 1_555
Au0_5 Pd0_7 2.860815 1_555
Au0_5 Pd0_5 2.860816 1_555
Au0_5 Pd0_3 2.860816 1_655
Au0_5 Pt0_0 2.911684 1_555
Au0_5 Pt0_6 2.911684 1_555
Au0_5 Pt0_4 2.911687 1_555
Au0_6 Pd0_4 2.860815 1_565
Au0_6 Pd0_6 2.860816 1_555
Au0_6 Pd0_0 2.860816 1_665
Au0_6 Pt0_3 2.911684 1_554
Au0_6 Pt0_5 2.911684 1_564
Au0_6 Pt0_7 2.911687 1_554
Au0_7 Pd0_5 2.860815 1_565
Au0_7 Pd0_7 2.860816 1_555
Au0_7 Pd0_1 2.860816 1_665
Au0_7 Pt0_2 2.911684 1_555
Au0_7 Pt0_4 2.911684 1_565
Au0_7 Pt0_6 2.911687 1_555
