# generated using pymatgen
data_Li4Mn3NbO8
_symmetry_space_group_name_H-M   'P 1'
_cell_length_a   6.06817131
_cell_length_b   6.06817131
_cell_length_c   6.06565321
_cell_angle_alpha   61.61659120
_cell_angle_beta   61.61659120
_cell_angle_gamma   61.52065522
_symmetry_Int_Tables_number   1
_chemical_formula_structural   Li4Mn3NbO8
_chemical_formula_sum   'Li4 Mn3 Nb1 O8'
_cell_volume   163.54914133
_cell_formula_units_Z   1
loop_
 _symmetry_equiv_pos_site_id
 _symmetry_equiv_pos_as_xyz
  1  'x, y, z'
loop_
 _atom_site_type_symbol
 _atom_site_label
 _atom_site_symmetry_multiplicity
 _atom_site_fract_x
 _atom_site_fract_y
 _atom_site_fract_z
 _atom_site_occupancy
  Li  Li0  1  0.50000000  0.50000000  0.50000000  1
  Li  Li1  1  0.00000000  0.00000000  0.50000000  1
  Li  Li2  1  0.50000000  0.00000000  0.00000000  1
  Li  Li3  1  0.00000000  0.50000000  0.00000000  1
  Mn  Mn0  1  0.50000000  0.50000000  0.00000000  1
  Mn  Mn1  1  0.00000000  0.50000000  0.50000000  1
  Mn  Mn2  1  0.50000000  0.00000000  0.50000000  1
  Nb  Nb0  1  0.00000000  0.00000000  0.00000000  1
  O  O0  1  0.25686600  0.25686600  0.27460500  1
  O  O1  1  0.76398200  0.76398200  0.22933200  1
  O  O2  1  0.23014300  0.76637500  0.76221800  1
  O  O3  1  0.74313400  0.74313400  0.72539500  1
  O  O4  1  0.76637500  0.23014300  0.76221800  1
  O  O5  1  0.23601800  0.23601800  0.77066800  1
  O  O6  1  0.76985700  0.23362500  0.23778200  1
  O  O7  1  0.23362500  0.76985700  0.23778200  1
loop_
_geom_bond_atom_site_label_1
_geom_bond_atom_site_label_2
_geom_bond_distance
_geom_bond_site_symmetry_2
Li0 O4 2.295166 1_555
Li0 O2 2.295166 1_555
Li0 O6 2.295166 1_555
Li0 O7 2.295166 1_555
Li0 O1 2.296506 1_555
Li0 O5 2.296506 1_555
Li1 O6 2.137712 1_455
Li1 O7 2.137712 1_545
Li1 O2 2.137712 1_545
Li1 O4 2.137712 1_455
Li1 O0 2.234557 1_555
Li1 O3 2.234557 1_445
Li2 O1 2.142127 1_545
Li2 O5 2.142127 1_554
Li2 O4 2.159785 1_554
Li2 O7 2.159785 1_545
Li2 O0 2.306408 1_555
Li2 O3 2.306408 1_544
Li3 O1 2.142127 1_455
Li3 O5 2.142127 1_554
Li3 O2 2.159785 1_554
Li3 O6 2.159785 1_455
Li3 O0 2.306408 1_555
Li3 O3 2.306408 1_454
Mn0 O3 2.128612 1_554
Mn0 O0 2.128612 1_555
Mn0 O2 2.208888 1_554
Mn0 O4 2.208888 1_554
Mn0 O6 2.208888 1_555
Mn0 O7 2.208888 1_555
Mn1 O3 2.043031 1_455
Mn1 O0 2.043031 1_555
Mn1 O7 2.194326 1_555
Mn1 O4 2.194326 1_455
Mn1 O5 2.204505 1_555
Mn1 O1 2.204505 1_455
Mn2 O0 2.043031 1_555
Mn2 O3 2.043031 1_545
Mn2 O6 2.194326 1_555
Mn2 O2 2.194326 1_545
Mn2 O5 2.204505 1_555
Mn2 O1 2.204505 1_545
Nb0 O6 2.044801 1_455
Nb0 O7 2.044801 1_545
Nb0 O4 2.044801 1_454
Nb0 O2 2.044801 1_544
Nb0 O5 2.050695 1_554
Nb0 O1 2.050695 1_445
