# generated using pymatgen
data_Nb2Pb2Se4O15
_symmetry_space_group_name_H-M   'P 1'
_cell_length_a   13.98835246
_cell_length_b   13.98835246
_cell_length_c   7.87915218
_cell_angle_alpha   85.72774519
_cell_angle_beta   85.72774519
_cell_angle_gamma   29.77463651
_symmetry_Int_Tables_number   1
_chemical_formula_structural   Nb2Pb2Se4O15
_chemical_formula_sum   'Nb4 Pb4 Se8 O30'
_cell_volume   763.33696165
_cell_formula_units_Z   2
loop_
 _symmetry_equiv_pos_site_id
 _symmetry_equiv_pos_as_xyz
  1  'x, y, z'
loop_
 _atom_site_type_symbol
 _atom_site_label
 _atom_site_symmetry_multiplicity
 _atom_site_fract_x
 _atom_site_fract_y
 _atom_site_fract_z
 _atom_site_occupancy
  Nb  Nb0  1  0.92166800  0.93629900  0.73726300  1
  Nb  Nb1  1  0.06370100  0.07833200  0.76273700  1
  Nb  Nb2  1  0.07833200  0.06370100  0.26273700  1
  Nb  Nb3  1  0.93629900  0.92166800  0.23726300  1
  Pb  Pb0  1  0.81251900  0.59431000  0.68364300  1
  Pb  Pb1  1  0.40569000  0.18748100  0.81635700  1
  Pb  Pb2  1  0.18748100  0.40569000  0.31635700  1
  Pb  Pb3  1  0.59431000  0.81251900  0.18364300  1
  Se  Se0  1  0.91920200  0.70299900  0.93731800  1
  Se  Se1  1  0.29700100  0.08079800  0.56268200  1
  Se  Se2  1  0.08079800  0.29700100  0.06268200  1
  Se  Se3  1  0.70299900  0.91920200  0.43731800  1
  Se  Se4  1  0.34286500  0.49855700  0.51363700  1
  Se  Se5  1  0.50144300  0.65713500  0.98636300  1
  Se  Se6  1  0.65713500  0.50144300  0.48636300  1
  Se  Se7  1  0.49855700  0.34286500  0.01363700  1
  O  O0  1  0.04754100  0.51780000  0.81296500  1
  O  O1  1  0.48220000  0.95245900  0.68703500  1
  O  O2  1  0.95245900  0.48220000  0.18703500  1
  O  O3  1  0.51780000  0.04754100  0.31296500  1
  O  O4  1  0.70203200  0.82988400  0.95023200  1
  O  O5  1  0.17011600  0.29796800  0.54976800  1
  O  O6  1  0.29796800  0.17011600  0.04976800  1
  O  O7  1  0.82988400  0.70203200  0.45023200  1
  O  O8  1  0.84500400  0.85776000  0.78665400  1
  O  O9  1  0.14224000  0.15499600  0.71334600  1
  O  O10  1  0.15499600  0.14224000  0.21334600  1
  O  O11  1  0.85776000  0.84500400  0.28665400  1
  O  O12  1  0.20016800  0.64943200  0.33608600  1
  O  O13  1  0.35056800  0.79983200  0.16391400  1
  O  O14  1  0.79983200  0.35056800  0.66391400  1
  O  O15  1  0.64943200  0.20016800  0.83608600  1
  O  O16  1  0.34013000  0.37954000  0.53073100  1
  O  O17  1  0.62046000  0.65987000  0.96926900  1
  O  O18  1  0.65987000  0.62046000  0.46926900  1
  O  O19  1  0.37954000  0.34013000  0.03073100  1
  O  O20  1  0.19608400  0.65545700  0.68887300  1
  O  O21  1  0.34454300  0.80391600  0.81112700  1
  O  O22  1  0.80391600  0.34454300  0.31112700  1
  O  O23  1  0.65545700  0.19608400  0.18887300  1
  O  O24  1  0.85094200  0.99949100  0.51584600  1
  O  O25  1  0.00050900  0.14905800  0.98415400  1
  O  O26  1  0.14905800  0.00050900  0.48415400  1
  O  O27  1  0.99949100  0.85094200  0.01584600  1
  O  O28  1  0.99642100  0.00357900  0.75000000  1
  O  O29  1  0.00357900  0.99642100  0.25000000  1
loop_
_geom_bond_atom_site_label_1
_geom_bond_atom_site_label_2
_geom_bond_distance
_geom_bond_site_symmetry_2
Nb0 O24 1.820152 1_555
Nb0 O28 1.930634 1_565
Nb0 O20 2.034735 1_655
Nb0 O15 2.077894 1_565
Nb0 O8 2.104253 1_555
Nb0 O27 2.266681 1_556
Nb1 O25 1.820152 1_555
Nb1 O28 1.930634 1_455
Nb1 O21 2.034735 1_545
Nb1 O14 2.077894 1_455
Nb1 O9 2.104253 1_555
Nb1 O26 2.266681 1_555
Nb2 O26 1.820152 1_555
Nb2 O29 1.930634 1_545
Nb2 O22 2.034735 1_455
Nb2 O13 2.077894 1_545
Nb2 O10 2.104253 1_555
Nb2 O25 2.266681 1_554
Nb3 O27 1.820152 1_555
Nb3 O29 1.930634 1_655
Nb3 O23 2.034735 1_565
Nb3 O12 2.077894 1_655
Nb3 O11 2.104253 1_555
Nb3 O24 2.266681 1_555
O0 Se0 1.713678 1_455
O0 Pb1 2.503159 1_555
O0 Pb0 2.687077 1_455
O1 Se1 1.713678 1_565
O1 Pb0 2.503159 1_555
O1 Pb1 2.687077 1_565
O2 Se2 1.713678 1_655
O2 Pb3 2.503159 1_555
O2 Pb2 2.687077 1_655
O3 Se3 1.713678 1_545
O3 Pb2 2.503159 1_555
O3 Pb3 2.687077 1_545
O4 Se0 1.734890 1_555
O4 Pb3 2.422353 1_556
O4 Pb1 2.680865 1_565
O5 Se1 1.734890 1_555
O5 Pb2 2.422353 1_555
O5 Pb0 2.680865 1_455
O6 Se2 1.734890 1_555
O6 Pb1 2.422353 1_554
O6 Pb3 2.680865 1_545
O7 Se3 1.734890 1_555
O7 Pb0 2.422353 1_555
O7 Pb2 2.680865 1_655
O8 Se0 1.753040 1_555
O9 Se1 1.753040 1_555
O10 Se2 1.753040 1_555
O11 Se3 1.753040 1_555
O12 Se4 1.748884 1_555
O13 Se5 1.748884 1_554
O14 Se6 1.748884 1_555
O15 Se7 1.748884 1_556
O16 Se4 1.693437 1_555
O16 Pb2 2.575991 1_555
O16 Pb1 2.872817 1_555
O17 Se5 1.693437 1_555
O17 Pb3 2.575991 1_556
O17 Pb0 2.872817 1_555
O18 Se6 1.693437 1_555
O18 Pb0 2.575991 1_555
O18 Pb3 2.872817 1_555
O19 Se7 1.693437 1_555
O19 Pb1 2.575991 1_554
O19 Pb2 2.872817 1_555
O20 Se4 1.773507 1_555
O21 Se5 1.773507 1_555
O22 Se6 1.773507 1_555
O23 Se7 1.773507 1_555
