# generated using pymatgen
data_EuIn2Ni9
_symmetry_space_group_name_H-M   'P 1'
_cell_length_a   4.88201600
_cell_length_b   8.31761300
_cell_length_c   8.31761300
_cell_angle_alpha   90.00000000
_cell_angle_beta   90.00000000
_cell_angle_gamma   90.00000000
_symmetry_Int_Tables_number   1
_chemical_formula_structural   EuIn2Ni9
_chemical_formula_sum   'Eu2 In4 Ni18'
_cell_volume   337.75098006
_cell_formula_units_Z   2
loop_
 _symmetry_equiv_pos_site_id
 _symmetry_equiv_pos_as_xyz
  1  'x, y, z'
loop_
 _atom_site_type_symbol
 _atom_site_label
 _atom_site_symmetry_multiplicity
 _atom_site_fract_x
 _atom_site_fract_y
 _atom_site_fract_z
 _atom_site_occupancy
  Eu  Eu0  1  0.00000000  0.50000000  0.50000000  1
  Eu  Eu1  1  0.00000000  0.00000000  0.00000000  1
  In  In0  1  0.00000000  0.62458200  0.12458200  1
  In  In1  1  0.00000000  0.37541800  0.87541800  1
  In  In2  1  0.00000000  0.87541800  0.62458200  1
  In  In3  1  0.00000000  0.12458200  0.37541800  1
  Ni  Ni0  1  0.74985600  0.17640800  0.67640800  1
  Ni  Ni1  1  0.74985600  0.82359200  0.32359200  1
  Ni  Ni2  1  0.74985600  0.32359200  0.17640800  1
  Ni  Ni3  1  0.74985600  0.67640800  0.82359200  1
  Ni  Ni4  1  0.25014400  0.82359200  0.32359200  1
  Ni  Ni5  1  0.25014400  0.17640800  0.67640800  1
  Ni  Ni6  1  0.25014400  0.67640800  0.82359200  1
  Ni  Ni7  1  0.25014400  0.32359200  0.17640800  1
  Ni  Ni8  1  0.50000000  0.70991200  0.56506000  1
  Ni  Ni9  1  0.50000000  0.29008800  0.43494000  1
  Ni  Ni10  1  0.50000000  0.79008800  0.06506000  1
  Ni  Ni11  1  0.50000000  0.20991200  0.93494000  1
  Ni  Ni12  1  0.50000000  0.56506000  0.29008800  1
  Ni  Ni13  1  0.50000000  0.43494000  0.70991200  1
  Ni  Ni14  1  0.50000000  0.06506000  0.20991200  1
  Ni  Ni15  1  0.50000000  0.93494000  0.79008800  1
  Ni  Ni16  1  0.50000000  0.00000000  0.50000000  1
  Ni  Ni17  1  0.50000000  0.50000000  0.00000000  1
loop_
_geom_bond_atom_site_label_1
_geom_bond_atom_site_label_2
_geom_bond_distance
_geom_bond_site_symmetry_2
Eu0 Ni13 3.049550 1_455
Eu0 Ni9 3.049550 1_455
Eu0 Ni13 3.049550 1_555
Eu0 Ni9 3.049550 1_555
Eu0 Ni12 3.049550 1_555
Eu0 Ni8 3.049550 1_455
Eu0 Ni8 3.049550 1_555
Eu0 Ni12 3.049550 1_455
Eu0 In2 3.290027 1_555
Eu0 In1 3.290027 1_555
Eu0 In3 3.290027 1_555
Eu0 In0 3.290027 1_555
Eu0 Ni6 3.299779 1_555
Eu0 Ni3 3.299779 1_455
Eu0 Ni1 3.299779 1_455
Eu0 Ni4 3.299779 1_555
Eu0 Ni7 3.299779 1_555
Eu0 Ni0 3.299779 1_455
Eu0 Ni2 3.299779 1_455
Eu0 Ni5 3.299779 1_555
Eu1 Ni15 3.049550 1_544
Eu1 Ni11 3.049550 1_554
Eu1 Ni11 3.049550 1_454
Eu1 Ni15 3.049550 1_444
Eu1 Ni10 3.049550 1_545
Eu1 Ni14 3.049550 1_555
Eu1 Ni14 3.049550 1_455
Eu1 Ni10 3.049550 1_445
Eu1 In3 3.290027 1_555
Eu1 In0 3.290027 1_545
Eu1 In2 3.290027 1_544
Eu1 In1 3.290027 1_554
Eu1 Ni0 3.299779 1_454
Eu1 Ni7 3.299779 1_555
Eu1 Ni2 3.299779 1_455
Eu1 Ni5 3.299779 1_554
Eu1 Ni6 3.299779 1_544
Eu1 Ni3 3.299779 1_444
Eu1 Ni4 3.299779 1_545
Eu1 Ni1 3.299779 1_445
In0 Ni4 2.640323 1_555
In0 Ni1 2.640323 1_455
In0 Ni7 2.818647 1_555
In0 Ni2 2.818647 1_455
In0 Ni6 2.818647 1_554
In0 Ni3 2.818647 1_454
In0 Ni12 2.845820 1_455
In0 Ni12 2.845820 1_555
In0 Ni10 2.845820 1_455
In0 Ni10 2.845820 1_555
In0 Ni17 2.847112 1_455
In0 Ni17 2.847112 1_555
In0 In1 2.930887 1_554
In1 Ni5 2.640323 1_555
In1 Ni0 2.640323 1_455
In1 Ni3 2.818647 1_455
In1 Ni6 2.818647 1_555
In1 Ni2 2.818647 1_456
In1 Ni7 2.818647 1_556
In1 Ni13 2.845820 1_555
In1 Ni13 2.845820 1_455
In1 Ni11 2.845820 1_555
In1 Ni11 2.845820 1_455
In1 Ni17 2.847112 1_556
In1 Ni17 2.847112 1_456
In2 Ni3 2.640323 1_455
In2 Ni6 2.640323 1_555
In2 Ni1 2.818647 1_455
In2 Ni4 2.818647 1_555
In2 Ni0 2.818647 1_465
In2 Ni5 2.818647 1_565
In2 Ni8 2.845820 1_555
In2 Ni8 2.845820 1_455
In2 Ni15 2.845820 1_455
In2 Ni15 2.845820 1_555
In2 Ni16 2.847112 1_465
In2 Ni16 2.847112 1_565
In2 In3 2.930887 1_565
In3 Ni7 2.640323 1_555
In3 Ni2 2.640323 1_455
In3 Ni5 2.818647 1_555
In3 Ni0 2.818647 1_455
In3 Ni1 2.818647 1_445
In3 Ni4 2.818647 1_545
In3 Ni14 2.845820 1_555
In3 Ni14 2.845820 1_455
In3 Ni9 2.845820 1_555
In3 Ni9 2.845820 1_455
In3 Ni16 2.847112 1_555
In3 Ni16 2.847112 1_455
Ni0 Ni16 2.407034 1_555
Ni0 Ni5 2.439602 1_555
Ni0 Ni5 2.442414 1_655
Ni0 Ni11 2.487903 1_555
Ni0 Ni13 2.487903 1_555
Ni0 Ni15 2.532942 1_545
Ni0 Ni9 2.532942 1_555
Ni1 Ni16 2.407034 1_565
Ni1 Ni4 2.439602 1_555
Ni1 Ni4 2.442414 1_655
Ni1 Ni12 2.487903 1_555
Ni1 Ni10 2.487903 1_555
Ni1 Ni14 2.532942 1_565
Ni1 Ni8 2.532942 1_555
Ni2 Ni7 2.439602 1_555
Ni2 Ni7 2.442414 1_655
Ni2 Ni9 2.487903 1_555
Ni3 Ni6 2.439602 1_555
Ni3 Ni6 2.442414 1_655
Ni3 Ni8 2.487903 1_555
Ni4 Ni8 2.532942 1_555
Ni5 Ni9 2.532942 1_555
Ni6 Ni8 2.487903 1_555
Ni7 Ni9 2.487903 1_555
Ni10 Ni17 2.472778 1_555
Ni10 Ni4 2.487903 1_555
Ni10 Ni6 2.532942 1_554
Ni10 Ni3 2.532942 1_554
Ni10 Ni14 2.585048 1_565
Ni10 Ni15 2.585048 1_554
Ni10 Ni12 2.646978 1_555
Ni11 Ni17 2.472778 1_556
Ni11 Ni5 2.487903 1_555
Ni11 Ni2 2.532942 1_556
Ni11 Ni7 2.532942 1_556
Ni11 Ni15 2.585048 1_545
Ni11 Ni14 2.585048 1_556
Ni11 Ni13 2.646978 1_555
Ni12 Ni17 2.472778 1_555
Ni12 Ni4 2.487903 1_555
Ni12 Ni2 2.532942 1_555
Ni12 Ni7 2.532942 1_555
Ni12 Ni8 2.585048 1_555
Ni12 Ni9 2.585048 1_555
Ni13 Ni17 2.472778 1_556
Ni13 Ni5 2.487903 1_555
Ni13 Ni6 2.532942 1_555
Ni13 Ni3 2.532942 1_555
Ni13 Ni8 2.585048 1_555
Ni13 Ni9 2.585048 1_555
Ni14 Ni16 2.472778 1_555
Ni14 Ni2 2.487903 1_555
Ni14 Ni7 2.487903 1_555
Ni14 Ni4 2.532942 1_545
Ni14 Ni9 2.646978 1_555
Ni15 Ni16 2.472778 1_565
Ni15 Ni3 2.487903 1_555
Ni15 Ni6 2.487903 1_555
Ni15 Ni5 2.532942 1_565
Ni15 Ni8 2.646978 1_555
Ni16 Ni5 2.407034 1_555
Ni16 Ni4 2.407034 1_545
Ni16 Ni8 2.472778 1_545
Ni16 Ni9 2.472778 1_555
Ni17 Ni2 2.407034 1_555
Ni17 Ni7 2.407034 1_555
Ni17 Ni3 2.407034 1_554
Ni17 Ni6 2.407034 1_554
