# generated using pymatgen
data_LiP4WO12
_symmetry_space_group_name_H-M   'P 1'
_cell_length_a   7.47280308
_cell_length_b   7.47280308
_cell_length_c   10.33355384
_cell_angle_alpha   66.38720478
_cell_angle_beta   66.38720478
_cell_angle_gamma   69.36792612
_symmetry_Int_Tables_number   1
_chemical_formula_structural   LiP4WO12
_chemical_formula_sum   'Li2 P8 W2 O24'
_cell_volume   471.64144331
_cell_formula_units_Z   2
loop_
 _symmetry_equiv_pos_site_id
 _symmetry_equiv_pos_as_xyz
  1  'x, y, z'
loop_
 _atom_site_type_symbol
 _atom_site_label
 _atom_site_symmetry_multiplicity
 _atom_site_fract_x
 _atom_site_fract_y
 _atom_site_fract_z
 _atom_site_occupancy
  Li  Li0  1  0.02678600  0.97321400  0.25000000  1
  Li  Li1  1  0.97321400  0.02678600  0.75000000  1
  P  P0  1  0.69416700  0.68228400  0.80722300  1
  P  P1  1  0.25641400  0.72793000  0.97436300  1
  P  P2  1  0.27207000  0.74358600  0.52563700  1
  P  P3  1  0.68228400  0.69416700  0.30722300  1
  P  P4  1  0.31771600  0.30583300  0.69277700  1
  P  P5  1  0.72793000  0.25641400  0.47436300  1
  P  P6  1  0.74358600  0.27207000  0.02563700  1
  P  P7  1  0.30583300  0.31771600  0.19277700  1
  W  W0  1  0.00000000  0.50000000  0.50000000  1
  W  W1  1  0.50000000  0.00000000  0.00000000  1
  O  O0  1  0.80164000  0.65540200  0.65801700  1
  O  O1  1  0.30261700  0.80306800  0.07241700  1
  O  O2  1  0.46514100  0.68208300  0.84420500  1
  O  O3  1  0.09277000  0.84103200  0.90833800  1
  O  O4  1  0.86840900  0.70680000  0.32638000  1
  O  O5  1  0.22424200  0.50312000  0.06765900  1
  O  O6  1  0.80306800  0.30261700  0.57241700  1
  O  O7  1  0.15896800  0.90723000  0.59166200  1
  O  O8  1  0.49688000  0.77575800  0.43234100  1
  O  O9  1  0.65540200  0.80164000  0.15801700  1
  O  O10  1  0.31791700  0.53485900  0.65579500  1
  O  O11  1  0.29320000  0.13159100  0.17362000  1
  O  O12  1  0.70680000  0.86840900  0.82638000  1
  O  O13  1  0.68208300  0.46514100  0.34420500  1
  O  O14  1  0.34459800  0.19836000  0.84198300  1
  O  O15  1  0.50312000  0.22424200  0.56765900  1
  O  O16  1  0.84103200  0.09277000  0.40833800  1
  O  O17  1  0.19693200  0.69738300  0.42758300  1
  O  O18  1  0.77575800  0.49688000  0.93234100  1
  O  O19  1  0.13159100  0.29320000  0.67362000  1
  O  O20  1  0.90723000  0.15896800  0.09166200  1
  O  O21  1  0.53485900  0.31791700  0.15579500  1
  O  O22  1  0.69738300  0.19693200  0.92758300  1
  O  O23  1  0.19836000  0.34459800  0.34198300  1
loop_
_geom_bond_atom_site_label_1
_geom_bond_atom_site_label_2
_geom_bond_distance
_geom_bond_site_symmetry_2
Li0 O20 1.969712 1_465
Li0 O16 1.969712 1_465
Li0 O4 2.374986 1_455
Li0 O11 2.374986 1_565
Li0 O1 2.494953 1_555
Li0 O17 2.494953 1_555
Li1 O7 1.969712 1_645
Li1 O3 1.969712 1_645
Li1 O12 2.374986 1_545
Li1 O19 2.374986 1_655
Li1 O22 2.494953 1_555
Li1 O6 2.494953 1_555
O0 P0 1.484935 1_555
O0 W0 2.139876 1_655
O1 P1 1.527679 1_554
O1 W1 2.159767 1_565
O2 P0 1.597671 1_555
O2 P1 1.634383 1_555
O3 P1 1.467421 1_555
O4 P3 1.520104 1_555
O4 W0 2.166860 1_655
O5 P7 1.601285 1_555
O5 P1 1.615854 1_554
O6 P5 1.527679 1_555
O6 W0 2.159767 1_655
O7 P2 1.467421 1_555
O8 P3 1.601285 1_555
O8 P2 1.615854 1_555
O9 P3 1.484935 1_555
O9 W1 2.139876 1_565
O10 P4 1.597671 1_555
O10 P2 1.634383 1_555
O11 P7 1.520104 1_555
O11 W1 2.166860 1_555
O12 P0 1.520104 1_555
O12 W1 2.166860 1_566
O13 P3 1.597671 1_555
O13 P5 1.634383 1_555
O14 P4 1.484935 1_555
O14 W1 2.139876 1_556
O15 P4 1.601285 1_555
O15 P5 1.615854 1_555
O16 P5 1.467421 1_555
O17 P2 1.527679 1_555
O17 W0 2.159767 1_555
O18 P0 1.601285 1_555
O18 P6 1.615854 1_556
O19 P4 1.520104 1_555
O19 W0 2.166860 1_555
O20 P6 1.467421 1_555
O21 P7 1.597671 1_555
O21 P6 1.634383 1_555
O22 P6 1.527679 1_556
O22 W1 2.159767 1_556
O23 P7 1.484935 1_555
O23 W0 2.139876 1_555
