# generated using pymatgen
data_KCa4Si8O28F
_symmetry_space_group_name_H-M   'P 1'
_cell_length_a   9.42753200
_cell_length_b   9.42753200
_cell_length_c   15.59483000
_cell_angle_alpha   90.00000000
_cell_angle_beta   90.00000000
_cell_angle_gamma   90.00000000
_symmetry_Int_Tables_number   1
_chemical_formula_structural   KCa4Si8O28F
_chemical_formula_sum   'K2 Ca8 Si16 O56 F2'
_cell_volume   1386.04290881
_cell_formula_units_Z   2
loop_
 _symmetry_equiv_pos_site_id
 _symmetry_equiv_pos_as_xyz
  1  'x, y, z'
loop_
 _atom_site_type_symbol
 _atom_site_label
 _atom_site_symmetry_multiplicity
 _atom_site_fract_x
 _atom_site_fract_y
 _atom_site_fract_z
 _atom_site_occupancy
  K  K0  1  0.50000000  0.50000000  0.00000000  1
  K  K1  1  0.00000000  0.00000000  0.50000000  1
  Ca  Ca0  1  0.72432700  0.59361800  0.50000000  1
  Ca  Ca1  1  0.27567300  0.40638200  0.50000000  1
  Ca  Ca2  1  0.77567300  0.09361800  0.00000000  1
  Ca  Ca3  1  0.22432700  0.90638200  0.00000000  1
  Ca  Ca4  1  0.59361800  0.27567300  0.50000000  1
  Ca  Ca5  1  0.40638200  0.72432700  0.50000000  1
  Ca  Ca6  1  0.09361800  0.22432700  0.00000000  1
  Ca  Ca7  1  0.90638200  0.77567300  0.00000000  1
  Si  Si0  1  0.59210000  0.71459800  0.30559100  1
  Si  Si1  1  0.40790000  0.28540200  0.30559100  1
  Si  Si2  1  0.90790000  0.21459800  0.80559100  1
  Si  Si3  1  0.09210000  0.78540200  0.80559100  1
  Si  Si4  1  0.71459800  0.40790000  0.30559100  1
  Si  Si5  1  0.28540200  0.59210000  0.30559100  1
  Si  Si6  1  0.21459800  0.09210000  0.80559100  1
  Si  Si7  1  0.78540200  0.90790000  0.80559100  1
  Si  Si8  1  0.40790000  0.28540200  0.69440900  1
  Si  Si9  1  0.59210000  0.71459800  0.69440900  1
  Si  Si10  1  0.09210000  0.78540200  0.19440900  1
  Si  Si11  1  0.90790000  0.21459800  0.19440900  1
  Si  Si12  1  0.28540200  0.59210000  0.69440900  1
  Si  Si13  1  0.71459800  0.40790000  0.69440900  1
  Si  Si14  1  0.78540200  0.90790000  0.19440900  1
  Si  Si15  1  0.21459800  0.09210000  0.19440900  1
  O  O0  1  0.65072500  0.84927500  0.25000000  1
  O  O1  1  0.34927500  0.15072500  0.25000000  1
  O  O2  1  0.84927500  0.34927500  0.75000000  1
  O  O3  1  0.15072500  0.65072500  0.75000000  1
  O  O4  1  0.84927500  0.34927500  0.25000000  1
  O  O5  1  0.15072500  0.65072500  0.25000000  1
  O  O6  1  0.34927500  0.15072500  0.75000000  1
  O  O7  1  0.65072500  0.84927500  0.75000000  1
  O  O8  1  0.68682200  0.57434100  0.27795500  1
  O  O9  1  0.31317800  0.42565900  0.27795500  1
  O  O10  1  0.81317800  0.07434100  0.77795500  1
  O  O11  1  0.18682200  0.92565900  0.77795500  1
  O  O12  1  0.57434100  0.31317800  0.27795500  1
  O  O13  1  0.42565900  0.68682200  0.27795500  1
  O  O14  1  0.07434100  0.18682200  0.77795500  1
  O  O15  1  0.92565900  0.81317800  0.77795500  1
  O  O16  1  0.31317800  0.42565900  0.72204500  1
  O  O17  1  0.68682200  0.57434100  0.72204500  1
  O  O18  1  0.18682200  0.92565900  0.22204500  1
  O  O19  1  0.81317800  0.07434100  0.22204500  1
  O  O20  1  0.42565900  0.68682200  0.72204500  1
  O  O21  1  0.57434100  0.31317800  0.72204500  1
  O  O22  1  0.92565900  0.81317800  0.22204500  1
  O  O23  1  0.07434100  0.18682200  0.22204500  1
  O  O24  1  0.60147100  0.74342800  0.40795900  1
  O  O25  1  0.39852900  0.25657200  0.40795900  1
  O  O26  1  0.89852900  0.24342800  0.90795900  1
  O  O27  1  0.10147100  0.75657200  0.90795900  1
  O  O28  1  0.74342800  0.39852900  0.40795900  1
  O  O29  1  0.25657200  0.60147100  0.40795900  1
  O  O30  1  0.24342800  0.10147100  0.90795900  1
  O  O31  1  0.75657200  0.89852900  0.90795900  1
  O  O32  1  0.39852900  0.25657200  0.59204100  1
  O  O33  1  0.60147100  0.74342800  0.59204100  1
  O  O34  1  0.10147100  0.75657200  0.09204100  1
  O  O35  1  0.89852900  0.24342800  0.09204100  1
  O  O36  1  0.25657200  0.60147100  0.59204100  1
  O  O37  1  0.74342800  0.39852900  0.59204100  1
  O  O38  1  0.75657200  0.89852900  0.09204100  1
  O  O39  1  0.24342800  0.10147100  0.09204100  1
  O  O40  1  0.98817500  0.69910400  0.45943100  1
  O  O41  1  0.01182500  0.30089600  0.45943100  1
  O  O42  1  0.51182500  0.19910400  0.95943100  1
  O  O43  1  0.48817500  0.80089600  0.95943100  1
  O  O44  1  0.69910400  0.01182500  0.45943100  1
  O  O45  1  0.30089600  0.98817500  0.45943100  1
  O  O46  1  0.19910400  0.48817500  0.95943100  1
  O  O47  1  0.80089600  0.51182500  0.95943100  1
  O  O48  1  0.01182500  0.30089600  0.54056900  1
  O  O49  1  0.98817500  0.69910400  0.54056900  1
  O  O50  1  0.48817500  0.80089600  0.04056900  1
  O  O51  1  0.51182500  0.19910400  0.04056900  1
  O  O52  1  0.30089600  0.98817500  0.54056900  1
  O  O53  1  0.69910400  0.01182500  0.54056900  1
  O  O54  1  0.80089600  0.51182500  0.04056900  1
  O  O55  1  0.19910400  0.48817500  0.04056900  1
  F  F0  1  0.50000000  0.50000000  0.50000000  1
  F  F1  1  0.00000000  0.00000000  0.00000000  1
loop_
_geom_bond_atom_site_label_1
_geom_bond_atom_site_label_2
_geom_bond_distance
_geom_bond_site_symmetry_2
K0 O55 2.908539 1_555
K0 O43 2.908539 1_554
K0 O42 2.908539 1_554
K0 O46 2.908539 1_554
K0 O50 2.908539 1_555
K0 O51 2.908539 1_555
K0 O47 2.908539 1_554
K0 O54 2.908539 1_555
K1 O52 2.908539 1_545
K1 O48 2.908539 1_555
K1 O41 2.908539 1_555
K1 O45 2.908539 1_545
K1 O49 2.908539 1_445
K1 O40 2.908539 1_445
K1 O53 2.908539 1_455
K1 O44 2.908539 1_455
Ca0 F0 2.291626 1_555
Ca0 O24 2.323029 1_555
Ca0 O33 2.323029 1_555
Ca0 O28 2.339953 1_555
Ca0 O37 2.339953 1_555
Ca0 O49 2.752558 1_555
Ca0 O40 2.752558 1_555
Ca1 F0 2.291626 1_555
Ca1 O25 2.323029 1_555
Ca1 O32 2.323029 1_555
Ca1 O29 2.339953 1_555
Ca1 O36 2.339953 1_555
Ca1 O48 2.752558 1_555
Ca1 O41 2.752558 1_555
Ca2 F1 2.291626 1_655
Ca2 O35 2.323029 1_555
Ca2 O26 2.323029 1_554
Ca2 O38 2.339953 1_545
Ca2 O31 2.339953 1_544
Ca2 O51 2.752558 1_555
Ca2 O42 2.752558 1_554
Ca3 F1 2.291626 1_565
Ca3 O34 2.323029 1_555
Ca3 O27 2.323029 1_554
Ca3 O39 2.339953 1_565
Ca3 O30 2.339953 1_564
Ca3 O43 2.752558 1_554
Ca3 O50 2.752558 1_555
Ca4 F0 2.291626 1_555
Ca4 O28 2.323029 1_555
Ca4 O37 2.323029 1_555
Ca4 O25 2.339953 1_555
Ca4 O32 2.339953 1_555
Ca4 O53 2.752558 1_555
Ca4 O44 2.752558 1_555
Ca5 F0 2.291626 1_555
Ca5 O29 2.323029 1_555
Ca5 O36 2.323029 1_555
Ca5 O24 2.339953 1_555
Ca5 O33 2.339953 1_555
Ca5 O52 2.752558 1_555
Ca5 O45 2.752558 1_555
Ca6 F1 2.291626 1_555
Ca6 O39 2.323029 1_555
Ca6 O30 2.323029 1_554
Ca6 O35 2.339953 1_455
Ca6 O26 2.339953 1_454
Ca6 O55 2.752558 1_555
Ca6 O46 2.752558 1_554
Ca7 F1 2.291626 1_665
Ca7 O38 2.323029 1_555
Ca7 O31 2.323029 1_554
Ca7 O34 2.339953 1_655
Ca7 O27 2.339953 1_654
Ca7 O47 2.752558 1_554
Ca7 O54 2.752558 1_555
O0 Si14 1.633739 1_555
O0 Si0 1.633739 1_555
O1 Si1 1.633739 1_555
O1 Si15 1.633739 1_555
O2 Si2 1.633739 1_555
O2 Si13 1.633739 1_555
O3 Si12 1.633739 1_555
O3 Si3 1.633739 1_555
O4 Si4 1.633739 1_555
O4 Si11 1.633739 1_555
O5 Si5 1.633739 1_555
O5 Si10 1.633739 1_555
O6 Si8 1.633739 1_555
O6 Si6 1.633739 1_555
O7 Si7 1.633739 1_555
O7 Si9 1.633739 1_555
O8 Si4 1.648173 1_555
O8 Si0 1.652755 1_555
O9 Si5 1.648173 1_555
O9 Si1 1.652755 1_555
O10 Si7 1.648173 1_545
O10 Si2 1.652755 1_555
O11 Si6 1.648173 1_565
O11 Si3 1.652755 1_555
O12 Si1 1.648173 1_555
O12 Si4 1.652755 1_555
O13 Si0 1.648173 1_555
O13 Si5 1.652755 1_555
O14 Si2 1.648173 1_455
O14 Si6 1.652755 1_555
O15 Si3 1.648173 1_655
O15 Si7 1.652755 1_555
O16 Si12 1.648173 1_555
O16 Si8 1.652755 1_555
O17 Si13 1.648173 1_555
O17 Si9 1.652755 1_555
O18 Si15 1.648173 1_565
O18 Si10 1.652755 1_555
O19 Si14 1.648173 1_545
O19 Si11 1.652755 1_555
O20 Si9 1.648173 1_555
O20 Si12 1.652755 1_555
O21 Si8 1.648173 1_555
O21 Si13 1.652755 1_555
O22 Si10 1.648173 1_655
O22 Si14 1.652755 1_555
O23 Si11 1.648173 1_455
O23 Si15 1.652755 1_555
O24 Si0 1.621792 1_555
O25 Si1 1.621792 1_555
O26 Si2 1.621792 1_555
O27 Si3 1.621792 1_555
O28 Si4 1.621792 1_555
O29 Si5 1.621792 1_555
O30 Si6 1.621792 1_555
O31 Si7 1.621792 1_555
O32 Si8 1.621792 1_555
O33 Si9 1.621792 1_555
O34 Si10 1.621792 1_555
O35 Si11 1.621792 1_555
O36 Si12 1.621792 1_555
O37 Si13 1.621792 1_555
O38 Si14 1.621792 1_555
O39 Si15 1.621792 1_555
O40 O49 1.265333 1_555
O41 O48 1.265333 1_555
O42 O51 1.265333 1_556
O43 O50 1.265333 1_556
O44 O53 1.265333 1_555
O45 O52 1.265333 1_555
O46 O55 1.265333 1_556
O47 O54 1.265333 1_556
