# generated using pymatgen
data_Dy2SnS3
_symmetry_space_group_name_H-M   'P 1'
_cell_length_a   8.06334675
_cell_length_b   8.06334675
_cell_length_c   7.13456087
_cell_angle_alpha   76.63993737
_cell_angle_beta   76.63993737
_cell_angle_gamma   121.11147375
_symmetry_Int_Tables_number   1
_chemical_formula_structural   Dy2SnS3
_chemical_formula_sum   'Dy4 Sn2 S6'
_cell_volume   350.53869717
_cell_formula_units_Z   2
loop_
 _symmetry_equiv_pos_site_id
 _symmetry_equiv_pos_as_xyz
  1  'x, y, z'
loop_
 _atom_site_type_symbol
 _atom_site_label
 _atom_site_symmetry_multiplicity
 _atom_site_fract_x
 _atom_site_fract_y
 _atom_site_fract_z
 _atom_site_occupancy
  Dy  Dy0  1  0.37894800  0.56801400  0.03272300  1
  Dy  Dy1  1  0.15913700  0.69760100  0.50195900  1
  Dy  Dy2  1  0.56801400  0.37894800  0.53272300  1
  Dy  Dy3  1  0.69760100  0.15913700  0.00195900  1
  Sn  Sn0  1  0.89988800  0.21657600  0.47280700  1
  Sn  Sn1  1  0.21657600  0.89988800  0.97280700  1
  S  S0  1  0.93187800  0.77229000  0.33275300  1
  S  S1  1  0.77229000  0.93187800  0.83275300  1
  S  S2  1  0.06987500  0.52351700  0.91402000  1
  S  S3  1  0.52351700  0.06987500  0.41402000  1
  S  S4  1  0.52564100  0.36203700  0.91673800  1
  S  S5  1  0.36203700  0.52564100  0.41673800  1
loop_
_geom_bond_atom_site_label_1
_geom_bond_atom_site_label_2
_geom_bond_distance
_geom_bond_site_symmetry_2
Dy0 S5 2.643541 1_555
Dy0 S4 2.656182 1_554
Dy0 S1 2.657243 1_554
Dy0 S2 2.692323 1_554
Dy1 S0 2.646658 1_455
Dy1 S3 2.683346 1_565
Dy1 S2 2.683695 1_555
Dy1 S5 2.691307 1_555
Dy2 S4 2.643541 1_555
Dy2 S5 2.656182 1_555
Dy2 S0 2.657243 1_555
Dy2 S3 2.692323 1_555
Dy3 S1 2.646658 1_544
Dy3 S2 2.683346 1_654
Dy3 S3 2.683695 1_555
Dy3 S4 2.691307 1_554
S0 Sn1 2.556766 1_654
S1 Sn0 2.556766 1_565
S2 Sn1 2.809438 1_555
S3 Sn0 2.809438 1_555
