# generated using pymatgen
data_VPb2Se3O10
_symmetry_space_group_name_H-M   'P 1'
_cell_length_a   16.33586300
_cell_length_b   5.29279600
_cell_length_c   12.60395598
_cell_angle_alpha   65.63949336
_cell_angle_beta   90.00000000
_cell_angle_gamma   90.00000000
_symmetry_Int_Tables_number   1
_chemical_formula_structural   VPb2Se3O10
_chemical_formula_sum   'V4 Pb8 Se12 O40'
_cell_volume   992.74413283
_cell_formula_units_Z   4
loop_
 _symmetry_equiv_pos_site_id
 _symmetry_equiv_pos_as_xyz
  1  'x, y, z'
loop_
 _atom_site_type_symbol
 _atom_site_label
 _atom_site_symmetry_multiplicity
 _atom_site_fract_x
 _atom_site_fract_y
 _atom_site_fract_z
 _atom_site_occupancy
  V  V0  1  0.80735800  0.18174500  0.05964600  1
  V  V1  1  0.69264200  0.18174500  0.55964600  1
  V  V2  1  0.19264200  0.81825500  0.94035400  1
  V  V3  1  0.30735800  0.81825500  0.44035400  1
  Pb  Pb0  1  0.58614200  0.20294900  0.06638800  1
  Pb  Pb1  1  0.91385800  0.20294900  0.56638800  1
  Pb  Pb2  1  0.41385800  0.79705100  0.93361200  1
  Pb  Pb3  1  0.08614200  0.79705100  0.43361200  1
  Pb  Pb4  1  0.50953100  0.56373900  0.68331100  1
  Pb  Pb5  1  0.99046900  0.56373900  0.18331100  1
  Pb  Pb6  1  0.49046900  0.43626100  0.31668900  1
  Pb  Pb7  1  0.00953100  0.43626100  0.81668900  1
  Se  Se0  1  0.37384400  0.09906100  0.15697700  1
  Se  Se1  1  0.12615600  0.09906100  0.65697700  1
  Se  Se2  1  0.62615600  0.90093900  0.84302300  1
  Se  Se3  1  0.87384400  0.90093900  0.34302300  1
  Se  Se4  1  0.64612500  0.81600600  0.41337400  1
  Se  Se5  1  0.85387500  0.81600600  0.91337400  1
  Se  Se6  1  0.35387500  0.18399400  0.58662600  1
  Se  Se7  1  0.14612500  0.18399400  0.08662600  1
  Se  Se8  1  0.79106000  0.53722400  0.70499900  1
  Se  Se9  1  0.70894000  0.53722400  0.20499900  1
  Se  Se10  1  0.20894000  0.46277600  0.29500100  1
  Se  Se11  1  0.29106000  0.46277600  0.79500100  1
  O  O0  1  0.57089000  0.85884400  0.31287400  1
  O  O1  1  0.92911000  0.85884400  0.81287400  1
  O  O2  1  0.42911000  0.14115600  0.68712600  1
  O  O3  1  0.07089000  0.14115600  0.18712600  1
  O  O4  1  0.44822900  0.35778500  0.09655300  1
  O  O5  1  0.05177100  0.35778500  0.59655300  1
  O  O6  1  0.55177100  0.64221500  0.90344700  1
  O  O7  1  0.94822900  0.64221500  0.40344700  1
  O  O8  1  0.75150000  0.24805100  0.19380600  1
  O  O9  1  0.74850000  0.24805100  0.69380600  1
  O  O10  1  0.24850000  0.75194900  0.80619400  1
  O  O11  1  0.25150000  0.75194900  0.30619400  1
  O  O12  1  0.61394600  0.06572500  0.46346700  1
  O  O13  1  0.88605400  0.06572500  0.96346700  1
  O  O14  1  0.38605400  0.93427500  0.53653300  1
  O  O15  1  0.11394600  0.93427500  0.03653300  1
  O  O16  1  0.38224100  0.06761800  0.29969700  1
  O  O17  1  0.11775900  0.06761800  0.79969700  1
  O  O18  1  0.61775900  0.93238200  0.70030300  1
  O  O19  1  0.88224100  0.93238200  0.20030300  1
  O  O20  1  0.57080300  0.17721100  0.84423800  1
  O  O21  1  0.92919700  0.17721100  0.34423800  1
  O  O22  1  0.42919700  0.82278900  0.15576200  1
  O  O23  1  0.07080300  0.82278900  0.65576200  1
  O  O24  1  0.73628100  0.36714900  0.96231900  1
  O  O25  1  0.76371900  0.36714900  0.46231900  1
  O  O26  1  0.26371900  0.63285100  0.03768100  1
  O  O27  1  0.23628100  0.63285100  0.53768100  1
  O  O28  1  0.61318400  0.50536100  0.52878500  1
  O  O29  1  0.88681600  0.50536100  0.02878500  1
  O  O30  1  0.38681600  0.49463900  0.47121500  1
  O  O31  1  0.11318400  0.49463900  0.97121500  1
  O  O32  1  0.60893600  0.51634100  0.16094600  1
  O  O33  1  0.89106400  0.51634100  0.66094600  1
  O  O34  1  0.39106400  0.48365900  0.83905400  1
  O  O35  1  0.10893600  0.48365900  0.33905400  1
  O  O36  1  0.75857200  0.82339600  0.58479200  1
  O  O37  1  0.74142800  0.82339600  0.08479200  1
  O  O38  1  0.24142800  0.17660400  0.41520800  1
  O  O39  1  0.25857200  0.17660400  0.91520800  1
loop_
_geom_bond_atom_site_label_1
_geom_bond_atom_site_label_2
_geom_bond_distance
_geom_bond_site_symmetry_2
O0 Se4 1.711582 1_555
O0 Pb6 2.577228 1_555
O0 Pb0 2.891883 1_565
O1 Se5 1.711582 1_555
O1 Pb7 2.577228 1_655
O1 Pb1 2.891883 1_565
O2 Se6 1.711582 1_555
O2 Pb4 2.577228 1_555
O2 Pb2 2.891883 1_545
O3 Se7 1.711582 1_555
O3 Pb5 2.577228 1_455
O3 Pb3 2.891883 1_545
O4 Se0 1.752549 1_555
O4 Pb2 2.449363 1_554
O4 Pb0 2.479693 1_555
O5 Se1 1.752549 1_555
O5 Pb3 2.449363 1_555
O5 Pb1 2.479693 1_455
O6 Se2 1.752549 1_555
O6 Pb0 2.449363 1_556
O6 Pb2 2.479693 1_555
O7 Se3 1.752549 1_555
O7 Pb1 2.449363 1_555
O7 Pb3 2.479693 1_655
O8 Se9 1.738948 1_555
O8 V0 2.074765 1_555
O9 Se8 1.738948 1_555
O9 V1 2.074765 1_555
O10 Se11 1.738948 1_555
O10 V2 2.074765 1_555
O11 Se10 1.738948 1_555
O11 V3 2.074765 1_555
O12 Se4 1.763603 1_545
O12 V1 2.028146 1_555
O13 Se5 1.763603 1_545
O13 V0 2.028146 1_556
O14 Se6 1.763603 1_565
O14 V3 2.028146 1_555
O15 Se7 1.763603 1_565
O15 V2 2.028146 1_554
O16 Se0 1.742229 1_555
O16 V3 2.109749 1_545
O16 Pb6 2.706179 1_555
O17 Se1 1.742229 1_555
O17 V2 2.109749 1_545
O17 Pb7 2.706179 1_555
O18 Se2 1.742229 1_555
O18 V1 2.109749 1_565
O18 Pb4 2.706179 1_555
O19 Se3 1.742229 1_555
O19 V0 2.109749 1_565
O19 Pb5 2.706179 1_555
O20 Se2 1.724684 1_545
O20 Pb4 2.424478 1_555
O20 Pb0 2.869814 1_556
O21 Se3 1.724684 1_545
O21 Pb5 2.424478 1_555
O21 Pb1 2.869814 1_555
O22 Se0 1.724684 1_565
O22 Pb6 2.424478 1_555
O22 Pb2 2.869814 1_554
O23 Se1 1.724684 1_565
O23 Pb7 2.424478 1_555
O23 Pb3 2.869814 1_555
O24 V0 1.680141 1_556
O24 Pb0 2.747888 1_556
O25 V1 1.680141 1_555
O25 Pb1 2.747888 1_555
O26 V2 1.680141 1_554
O26 Pb2 2.747888 1_554
O27 V3 1.680141 1_555
O27 Pb3 2.747888 1_555
O28 Se4 1.770830 1_555
O28 V1 2.054342 1_555
O28 Pb4 2.693018 1_555
O29 Se5 1.770830 1_554
O29 V0 2.054342 1_555
O29 Pb5 2.693018 1_555
O30 Se6 1.770830 1_555
O30 V3 2.054342 1_555
O30 Pb6 2.693018 1_555
O31 Se7 1.770830 1_556
O31 V2 2.054342 1_555
O31 Pb7 2.693018 1_555
O32 Se9 1.743547 1_555
O32 Pb0 2.437463 1_555
O32 Pb6 2.663043 1_555
O33 Se8 1.743547 1_555
O33 Pb1 2.437463 1_555
O33 Pb7 2.663043 1_655
O34 Se11 1.743547 1_555
O34 Pb2 2.437463 1_555
O34 Pb4 2.663043 1_555
O35 Se10 1.743547 1_555
O35 Pb3 2.437463 1_555
O35 Pb5 2.663043 1_455
O36 Se8 1.725742 1_555
O36 V1 2.088511 1_565
O37 Se9 1.725742 1_555
O37 V0 2.088511 1_565
O38 Se10 1.725742 1_555
O38 V3 2.088511 1_545
O39 Se11 1.725742 1_555
O39 V2 2.088511 1_545
