# generated using pymatgen
data_Zr5ZnSn3
_symmetry_space_group_name_H-M   'P 1'
_cell_length_a   8.68272143
_cell_length_b   8.68272143
_cell_length_c   5.87867057
_cell_angle_alpha   90.00000000
_cell_angle_beta   90.00000000
_cell_angle_gamma   119.99999963
_symmetry_Int_Tables_number   1
_chemical_formula_structural   Zr5ZnSn3
_chemical_formula_sum   'Zr10 Zn2 Sn6'
_cell_volume   383.81460149
_cell_formula_units_Z   2
loop_
 _symmetry_equiv_pos_site_id
 _symmetry_equiv_pos_as_xyz
  1  'x, y, z'
loop_
 _atom_site_type_symbol
 _atom_site_label
 _atom_site_symmetry_multiplicity
 _atom_site_fract_x
 _atom_site_fract_y
 _atom_site_fract_z
 _atom_site_occupancy
  Zr  Zr0  1  0.66666700  0.33333300  -0.00000000  1
  Zr  Zr1  1  0.33333300  0.66666700  -0.00000000  1
  Zr  Zr2  1  0.33333300  0.66666700  0.50000000  1
  Zr  Zr3  1  0.66666700  0.33333300  0.50000000  1
  Zr  Zr4  1  0.73293773  0.73293773  0.75000000  1
  Zr  Zr5  1  0.26706227  -0.00000000  0.75000000  1
  Zr  Zr6  1  -0.00000000  0.26706227  0.75000000  1
  Zr  Zr7  1  0.26706227  0.26706227  0.25000000  1
  Zr  Zr8  1  0.73293773  0.00000000  0.25000000  1
  Zr  Zr9  1  0.00000000  0.73293773  0.25000000  1
  Zn  Zn0  1  0.00000000  -0.00000000  -0.00000000  1
  Zn  Zn1  1  0.00000000  -0.00000000  0.50000000  1
  Sn  Sn0  1  0.38493266  0.38493266  0.75000000  1
  Sn  Sn1  1  0.61506734  -0.00000000  0.75000000  1
  Sn  Sn2  1  -0.00000000  0.61506734  0.75000000  1
  Sn  Sn3  1  0.61506734  0.61506734  0.25000000  1
  Sn  Sn4  1  0.38493266  0.00000000  0.25000000  1
  Sn  Sn5  1  0.00000000  0.38493266  0.25000000  1
loop_
_geom_bond_atom_site_label_1
_geom_bond_atom_site_label_2
_geom_bond_distance
_geom_bond_site_symmetry_2
Zr0 Zr3 2.939335 1_554
Zr0 Zr3 2.939335 1_555
Zr1 Zr2 2.939335 1_554
Zr1 Zr2 2.939335 1_555
Zn0 Zr8 2.745338 1_455
Zn0 Zr5 2.745338 1_554
Zn0 Zr6 2.745338 1_554
Zn0 Zr9 2.745338 1_545
Zn0 Zr4 2.745338 1_444
Zn0 Zr7 2.745338 1_555
Zn1 Zr8 2.745338 1_455
Zn1 Zr6 2.745338 1_555
Zn1 Zr5 2.745338 1_555
Zn1 Zr9 2.745338 1_545
Zn1 Zr4 2.745338 1_445
Zn1 Zr7 2.745338 1_555
Sn0 Zr6 2.966067 1_555
Sn0 Zr5 2.966067 1_555
Sn0 Zr4 3.021631 1_555
Sn0 Zr1 3.072558 1_556
Sn0 Zr2 3.072558 1_555
Sn0 Zr3 3.072558 1_555
Sn0 Zr0 3.072558 1_556
Sn0 Zr7 3.112413 1_556
Sn0 Zr7 3.112413 1_555
Sn1 Zr4 2.966067 1_545
Sn1 Zr6 2.966067 1_655
Sn1 Zr5 3.021631 1_555
Sn1 Zr3 3.072551 1_555
Sn1 Zr0 3.072551 1_556
Sn1 Zr1 3.072554 1_546
Sn1 Zr2 3.072554 1_545
Sn1 Zr8 3.112413 1_556
Sn1 Zr8 3.112413 1_555
Sn2 Zr4 2.966067 1_455
Sn2 Zr5 2.966067 1_565
Sn2 Zr6 3.021631 1_555
Sn2 Zr1 3.072551 1_556
Sn2 Zr2 3.072551 1_555
Sn2 Zr0 3.072554 1_456
Sn2 Zr3 3.072554 1_455
Sn2 Zr9 3.112413 1_556
Sn2 Zr9 3.112413 1_555
Sn3 Zr8 2.966067 1_565
Sn3 Zr9 2.966067 1_655
Sn3 Zr7 3.021631 1_555
Sn3 Zr2 3.072558 1_555
Sn3 Zr1 3.072558 1_555
Sn3 Zr3 3.072558 1_555
Sn3 Zr0 3.072558 1_555
Sn3 Zr4 3.112413 1_554
Sn3 Zr4 3.112413 1_555
Sn4 Zr7 2.966067 1_555
Sn4 Zr9 2.966067 1_545
Sn4 Zr8 3.021631 1_555
Sn4 Zr2 3.072551 1_545
Sn4 Zr1 3.072551 1_545
Sn4 Zr3 3.072554 1_555
Sn4 Zr0 3.072554 1_555
Sn4 Zr5 3.112413 1_555
Sn4 Zr5 3.112413 1_554
Sn5 Zr7 2.966067 1_555
Sn5 Zr8 2.966067 1_455
Sn5 Zr9 3.021631 1_555
Sn5 Zr0 3.072551 1_455
Sn5 Zr3 3.072551 1_455
Sn5 Zr2 3.072554 1_555
Sn5 Zr1 3.072554 1_555
Sn5 Zr6 3.112413 1_554
Sn5 Zr6 3.112413 1_555
