# generated using pymatgen
data_MoSI
_symmetry_space_group_name_H-M   'P 1'
_cell_length_a   7.42445291
_cell_length_b   7.42445291
_cell_length_c   7.42445291
_cell_angle_alpha   60.00000000
_cell_angle_beta   60.00000000
_cell_angle_gamma   60.00000000
_symmetry_Int_Tables_number   1
_chemical_formula_structural   MoSI
_chemical_formula_sum   'Mo4 S4 I4'
_cell_volume   289.38657082
_cell_formula_units_Z   4
loop_
 _symmetry_equiv_pos_site_id
 _symmetry_equiv_pos_as_xyz
  1  'x, y, z'
loop_
 _atom_site_type_symbol
 _atom_site_label
 _atom_site_symmetry_multiplicity
 _atom_site_fract_x
 _atom_site_fract_y
 _atom_site_fract_z
 _atom_site_occupancy
  Mo  Mo0  1  0.34480400  0.34480400  0.34480400  1
  Mo  Mo1  1  0.34480400  0.34480400  0.96558700  1
  Mo  Mo2  1  0.34480400  0.96558700  0.34480400  1
  Mo  Mo3  1  0.96558700  0.34480400  0.34480400  1
  S  S0  1  0.12369600  0.12369600  0.12369600  1
  S  S1  1  0.12369600  0.12369600  0.62891200  1
  S  S2  1  0.12369600  0.62891200  0.12369600  1
  S  S3  1  0.62891200  0.12369600  0.12369600  1
  I  I0  1  0.62351000  0.62351000  0.62351000  1
  I  I1  1  0.62351000  0.62351000  0.12946900  1
  I  I2  1  0.62351000  0.12946900  0.62351000  1
  I  I3  1  0.12946900  0.62351000  0.62351000  1
loop_
_geom_bond_atom_site_label_1
_geom_bond_atom_site_label_2
_geom_bond_distance
_geom_bond_site_symmetry_2
Mo0 S3 2.368232 1_555
Mo0 S1 2.368232 1_555
Mo0 S2 2.368232 1_555
Mo1 S0 2.368230 1_556
Mo1 S3 2.368236 1_556
Mo1 S2 2.368236 1_556
Mo2 S0 2.368230 1_565
Mo2 S1 2.368236 1_565
Mo2 S3 2.368236 1_565
Mo3 S0 2.368230 1_655
Mo3 S1 2.368236 1_655
Mo3 S2 2.368236 1_655
I0 Mo1 2.963928 1_555
I0 Mo2 2.963928 1_555
I0 Mo3 2.963928 1_555
I1 Mo2 2.963928 1_555
I1 Mo0 2.963928 1_555
I1 Mo3 2.963928 1_555
I2 Mo1 2.963928 1_555
I2 Mo0 2.963928 1_555
I2 Mo3 2.963928 1_555
I3 Mo2 2.963928 1_555
I3 Mo1 2.963928 1_555
I3 Mo0 2.963928 1_555
