# generated using pymatgen
data_Dy2Si5Ni3
_symmetry_space_group_name_H-M   'P 1'
_cell_length_a   5.63481209
_cell_length_b   7.81425168
_cell_length_c   7.81425117
_cell_angle_alpha   75.09146695
_cell_angle_beta   68.86620798
_cell_angle_gamma   68.86619318
_symmetry_Int_Tables_number   1
_chemical_formula_structural   Dy2Si5Ni3
_chemical_formula_sum   'Dy4 Si10 Ni6'
_cell_volume   296.12704843
_cell_formula_units_Z   2
loop_
 _symmetry_equiv_pos_site_id
 _symmetry_equiv_pos_as_xyz
  1  'x, y, z'
loop_
 _atom_site_type_symbol
 _atom_site_label
 _atom_site_symmetry_multiplicity
 _atom_site_fract_x
 _atom_site_fract_y
 _atom_site_fract_z
 _atom_site_occupancy
  Dy  Dy0  1  0.13093941  0.63283854  0.10528365  1
  Dy  Dy1  1  0.86906059  0.36716146  0.89471635  1
  Dy  Dy2  1  0.36906059  0.89471635  0.36716146  1
  Dy  Dy3  1  0.63093941  0.10528365  0.63283854  1
  Si  Si0  1  0.25000000  0.00000000  0.00000000  1
  Si  Si1  1  0.75000000  0.00000000  0.00000000  1
  Si  Si2  1  0.98497102  0.26502898  0.26502898  1
  Si  Si3  1  0.51502898  0.73497102  0.73497102  1
  Si  Si4  1  0.01502898  0.73497102  0.73497102  1
  Si  Si5  1  0.48497102  0.26502898  0.26502898  1
  Si  Si6  1  0.39226703  0.45688914  0.75857579  1
  Si  Si7  1  0.89226703  0.75857579  0.45688914  1
  Si  Si8  1  0.10773297  0.24142421  0.54311086  1
  Si  Si9  1  0.60773297  0.54311086  0.24142421  1
  Ni  Ni0  1  0.86622016  0.02041172  0.24714696  1
  Ni  Ni1  1  0.75000000  0.50000000  0.50000000  1
  Ni  Ni2  1  0.36622016  0.24714696  0.02041172  1
  Ni  Ni3  1  0.63377984  0.75285304  0.97958828  1
  Ni  Ni4  1  0.13377984  0.97958828  0.75285304  1
  Ni  Ni5  1  0.25000000  0.50000000  0.50000000  1
loop_
_geom_bond_atom_site_label_1
_geom_bond_atom_site_label_2
_geom_bond_distance
_geom_bond_site_symmetry_2
Dy0 Si7 2.845124 1_455
Dy0 Ni2 2.965508 1_555
Dy0 Si6 2.996470 1_554
Dy0 Si0 3.022257 1_565
Dy0 Si1 3.022259 1_465
Dy0 Si9 3.026587 1_555
Dy0 Si9 3.026588 1_455
Dy0 Si3 3.039039 1_554
Dy0 Si4 3.039041 1_554
Dy0 Ni3 3.050869 1_454
Dy0 Ni3 3.050869 1_554
Dy0 Si5 3.100597 1_555
Dy0 Si2 3.100600 1_455
Dy0 Ni0 3.147037 1_465
Dy0 Ni5 3.222378 1_555
Dy0 Ni1 3.222381 1_455
Dy1 Si8 2.845124 1_655
Dy1 Ni3 2.965508 1_555
Dy1 Si9 2.996470 1_556
Dy1 Si1 3.022257 1_556
Dy1 Si0 3.022259 1_656
Dy1 Si6 3.026587 1_555
Dy1 Si6 3.026588 1_655
Dy1 Si5 3.039039 1_556
Dy1 Si2 3.039041 1_556
Dy1 Ni2 3.050869 1_656
Dy1 Ni2 3.050869 1_556
Dy1 Si3 3.100597 1_555
Dy1 Si4 3.100600 1_655
Dy1 Ni4 3.147037 1_645
Dy1 Ni1 3.222378 1_555
Dy1 Ni5 3.222381 1_655
Dy2 Si9 2.845124 1_555
Dy2 Ni4 2.965508 1_555
Dy2 Si8 2.996470 1_565
Dy2 Si0 3.022257 1_565
Dy2 Si1 3.022260 1_565
Dy2 Si7 3.026587 1_555
Dy2 Si7 3.026588 1_455
Dy2 Si2 3.039038 1_465
Dy2 Si5 3.039041 1_565
Dy2 Ni0 3.050869 1_465
Dy2 Ni0 3.050869 1_565
Dy2 Si4 3.100597 1_555
Dy2 Si3 3.100599 1_555
Dy2 Ni3 3.147037 1_554
Dy2 Ni5 3.222378 1_555
Dy2 Ni1 3.222381 1_555
Dy3 Si6 2.845124 1_555
Dy3 Ni0 2.965508 1_555
Dy3 Si7 2.996470 1_545
Dy3 Si1 3.022257 1_556
Dy3 Si0 3.022260 1_556
Dy3 Si8 3.026587 1_555
Dy3 Si8 3.026588 1_655
Dy3 Si4 3.039038 1_645
Dy3 Si3 3.039041 1_545
Dy3 Ni4 3.050869 1_645
Dy3 Ni4 3.050869 1_545
Dy3 Si2 3.100597 1_555
Dy3 Si5 3.100599 1_555
Dy3 Ni2 3.147037 1_556
Dy3 Ni1 3.222378 1_555
Dy3 Ni5 3.222381 1_555
Si2 Si9 2.453592 1_555
Si2 Si8 2.453595 1_655
Si3 Si7 2.453592 1_555
Si3 Si6 2.453596 1_555
Si4 Si6 2.453592 1_555
Si4 Si7 2.453595 1_455
Si5 Si8 2.453592 1_555
Si5 Si9 2.453596 1_555
Ni0 Si7 2.263960 1_545
Ni0 Si5 2.290912 1_555
Ni0 Si2 2.290915 1_555
Ni0 Si1 2.308664 1_555
Ni0 Si0 2.308668 1_655
Ni1 Si9 2.337068 1_555
Ni1 Si7 2.337068 1_555
Ni1 Si8 2.337072 1_655
Ni1 Si6 2.337072 1_555
Ni1 Si2 2.593146 1_555
Ni1 Si3 2.593146 1_555
Ni1 Ni5 2.817406 1_655
Ni1 Ni5 2.817406 1_555
Ni2 Si6 2.263960 1_554
Ni2 Si2 2.290912 1_455
Ni2 Si5 2.290915 1_555
Ni2 Si0 2.308665 1_555
Ni2 Si1 2.308668 1_555
Ni3 Si9 2.263960 1_556
Ni3 Si4 2.290912 1_655
Ni3 Si3 2.290915 1_555
Ni3 Si1 2.308665 1_566
Ni3 Si0 2.308668 1_566
Ni4 Si8 2.263960 1_565
Ni4 Si3 2.290912 1_555
Ni4 Si4 2.290915 1_555
Ni4 Si0 2.308664 1_566
Ni4 Si1 2.308668 1_466
Ni5 Si6 2.337068 1_555
Ni5 Si8 2.337068 1_555
Ni5 Si7 2.337072 1_455
Ni5 Si9 2.337072 1_555
Ni5 Si5 2.593146 1_555
Ni5 Si4 2.593146 1_555
