# generated using pymatgen
data_La3In2(GaO4)3
_symmetry_space_group_name_H-M   'P 1'
_cell_length_a   11.33365541
_cell_length_b   11.33365541
_cell_length_c   11.33365541
_cell_angle_alpha   109.47122063
_cell_angle_beta   109.47122063
_cell_angle_gamma   109.47122063
_symmetry_Int_Tables_number   1
_chemical_formula_structural   La3In2(GaO4)3
_chemical_formula_sum   'La12 In8 Ga12 O48'
_cell_volume   1120.69677287
_cell_formula_units_Z   4
loop_
 _symmetry_equiv_pos_site_id
 _symmetry_equiv_pos_as_xyz
  1  'x, y, z'
loop_
 _atom_site_type_symbol
 _atom_site_label
 _atom_site_symmetry_multiplicity
 _atom_site_fract_x
 _atom_site_fract_y
 _atom_site_fract_z
 _atom_site_occupancy
  La  La0  1  0.25000000  0.37500000  0.12500000  1
  La  La1  1  0.75000000  0.62500000  0.87500000  1
  La  La2  1  0.75000000  0.12500000  0.37500000  1
  La  La3  1  0.12500000  0.25000000  0.37500000  1
  La  La4  1  0.37500000  0.75000000  0.12500000  1
  La  La5  1  0.25000000  0.87500000  0.62500000  1
  La  La6  1  0.87500000  0.75000000  0.62500000  1
  La  La7  1  0.62500000  0.25000000  0.87500000  1
  La  La8  1  0.37500000  0.12500000  0.25000000  1
  La  La9  1  0.62500000  0.87500000  0.75000000  1
  La  La10  1  0.12500000  0.37500000  0.75000000  1
  La  La11  1  0.87500000  0.62500000  0.25000000  1
  In  In0  1  0.00000000  0.00000000  0.00000000  1
  In  In1  1  0.50000000  0.00000000  0.50000000  1
  In  In2  1  0.00000000  0.50000000  0.50000000  1
  In  In3  1  0.50000000  0.00000000  0.00000000  1
  In  In4  1  0.50000000  0.50000000  0.00000000  1
  In  In5  1  0.50000000  0.50000000  0.50000000  1
  In  In6  1  0.00000000  0.00000000  0.50000000  1
  In  In7  1  0.00000000  0.50000000  0.00000000  1
  Ga  Ga0  1  0.25000000  0.62500000  0.37500000  1
  Ga  Ga1  1  0.75000000  0.37500000  0.62500000  1
  Ga  Ga2  1  0.75000000  0.87500000  0.12500000  1
  Ga  Ga3  1  0.37500000  0.25000000  0.62500000  1
  Ga  Ga4  1  0.62500000  0.75000000  0.37500000  1
  Ga  Ga5  1  0.25000000  0.12500000  0.87500000  1
  Ga  Ga6  1  0.12500000  0.75000000  0.87500000  1
  Ga  Ga7  1  0.87500000  0.25000000  0.12500000  1
  Ga  Ga8  1  0.62500000  0.37500000  0.25000000  1
  Ga  Ga9  1  0.37500000  0.62500000  0.75000000  1
  Ga  Ga10  1  0.87500000  0.12500000  0.75000000  1
  Ga  Ga11  1  0.12500000  0.87500000  0.25000000  1
  O  O0  1  0.47511000  0.37497600  0.28840000  1
  O  O1  1  0.52489000  0.62502400  0.71160000  1
  O  O2  1  0.58657600  0.18671000  0.21160000  1
  O  O3  1  0.91342400  0.12502400  0.60013300  1
  O  O4  1  0.28840000  0.47511000  0.37497600  1
  O  O5  1  0.31329000  0.91342400  0.28840000  1
  O  O6  1  0.41342400  0.81329000  0.78840000  1
  O  O7  1  0.08657600  0.87497600  0.39986700  1
  O  O8  1  0.71160000  0.52489000  0.62502400  1
  O  O9  1  0.68671000  0.08657600  0.71160000  1
  O  O10  1  0.02489000  0.31329000  0.89986700  1
  O  O11  1  0.21160000  0.58657600  0.18671000  1
  O  O12  1  0.12502400  0.02489000  0.21160000  1
  O  O13  1  0.97511000  0.68671000  0.10013300  1
  O  O14  1  0.78840000  0.41342400  0.81329000  1
  O  O15  1  0.87497600  0.97511000  0.78840000  1
  O  O16  1  0.60013300  0.91342400  0.12502400  1
  O  O17  1  0.18671000  0.47511000  0.60013300  1
  O  O18  1  0.39986700  0.08657600  0.87497600  1
  O  O19  1  0.81329000  0.52489000  0.39986700  1
  O  O20  1  0.89986700  0.02489000  0.31329000  1
  O  O21  1  0.37497600  0.58657600  0.89986700  1
  O  O22  1  0.10013300  0.97511000  0.68671000  1
  O  O23  1  0.62502400  0.41342400  0.10013300  1
  O  O24  1  0.37497600  0.28840000  0.47511000  1
  O  O25  1  0.58657600  0.89986700  0.37497600  1
  O  O26  1  0.62502400  0.71160000  0.52489000  1
  O  O27  1  0.41342400  0.10013300  0.62502400  1
  O  O28  1  0.12502400  0.60013300  0.91342400  1
  O  O29  1  0.02489000  0.21160000  0.12502400  1
  O  O30  1  0.87497600  0.39986700  0.08657600  1
  O  O31  1  0.97511000  0.78840000  0.87497600  1
  O  O32  1  0.31329000  0.89986700  0.02489000  1
  O  O33  1  0.91342400  0.28840000  0.31329000  1
  O  O34  1  0.68671000  0.10013300  0.97511000  1
  O  O35  1  0.08657600  0.71160000  0.68671000  1
  O  O36  1  0.18671000  0.21160000  0.58657600  1
  O  O37  1  0.47511000  0.60013300  0.18671000  1
  O  O38  1  0.81329000  0.78840000  0.41342400  1
  O  O39  1  0.52489000  0.39986700  0.81329000  1
  O  O40  1  0.28840000  0.31329000  0.91342400  1
  O  O41  1  0.71160000  0.68671000  0.08657600  1
  O  O42  1  0.21160000  0.12502400  0.02489000  1
  O  O43  1  0.78840000  0.87497600  0.97511000  1
  O  O44  1  0.89986700  0.37497600  0.58657600  1
  O  O45  1  0.10013300  0.62502400  0.41342400  1
  O  O46  1  0.60013300  0.18671000  0.47511000  1
  O  O47  1  0.39986700  0.81329000  0.52489000  1
loop_
_geom_bond_atom_site_label_1
_geom_bond_atom_site_label_2
_geom_bond_distance
_geom_bond_site_symmetry_2
La0 O4 2.491832 1_555
La0 O40 2.491832 1_554
La0 O11 2.491832 1_555
La0 O42 2.491832 1_555
La0 O37 2.605707 1_555
La0 O10 2.605707 1_554
La0 O29 2.605713 1_555
La0 O0 2.605713 1_555
La1 O43 2.491832 1_555
La1 O8 2.491832 1_555
La1 O14 2.491832 1_555
La1 O41 2.491832 1_556
La1 O13 2.605707 1_556
La1 O39 2.605707 1_555
La1 O1 2.605713 1_555
La1 O31 2.605713 1_555
La2 O44 2.491832 1_555
La2 O16 2.491832 1_545
La2 O46 2.491842 1_555
La2 O20 2.491842 1_555
La2 O25 2.605705 1_545
La2 O3 2.605705 1_555
La2 O2 2.605713 1_555
La2 O33 2.605713 1_555
La3 O24 2.491832 1_555
La3 O33 2.491832 1_455
La3 O36 2.491832 1_555
La3 O29 2.491832 1_555
La3 O20 2.605707 1_455
La3 O17 2.605707 1_555
La3 O12 2.605713 1_555
La3 O4 2.605713 1_555
La4 O25 2.491832 1_555
La4 O28 2.491832 1_554
La4 O32 2.491842 1_555
La4 O37 2.491842 1_555
La4 O21 2.605705 1_554
La4 O16 2.605705 1_555
La4 O5 2.605713 1_555
La4 O11 2.605713 1_555
La5 O18 2.491832 1_565
La5 O45 2.491832 1_555
La5 O47 2.491842 1_555
La5 O22 2.491842 1_555
La5 O27 2.605705 1_565
La5 O7 2.605705 1_555
La5 O6 2.605713 1_555
La5 O35 2.605713 1_555
La6 O38 2.491832 1_555
La6 O35 2.491832 1_655
La6 O31 2.491832 1_555
La6 O26 2.491832 1_555
La6 O19 2.605707 1_555
La6 O22 2.605707 1_655
La6 O8 2.605713 1_555
La6 O15 2.605713 1_555
La7 O27 2.491832 1_555
La7 O30 2.491832 1_556
La7 O39 2.491842 1_555
La7 O34 2.491842 1_555
La7 O18 2.605705 1_555
La7 O23 2.605705 1_556
La7 O9 2.605713 1_555
La7 O14 2.605713 1_555
La8 O0 2.491832 1_555
La8 O5 2.491832 1_545
La8 O2 2.491832 1_555
La8 O12 2.491832 1_555
La8 O46 2.605707 1_555
La8 O32 2.605707 1_545
La8 O24 2.605713 1_555
La8 O42 2.605713 1_555
La9 O6 2.491832 1_555
La9 O1 2.491832 1_555
La9 O9 2.491832 1_565
La9 O15 2.491832 1_555
La9 O34 2.605707 1_565
La9 O47 2.605707 1_555
La9 O43 2.605713 1_555
La9 O26 2.605713 1_555
La10 O21 2.491832 1_555
La10 O3 2.491832 1_455
La10 O10 2.491842 1_555
La10 O17 2.491842 1_555
La10 O44 2.605705 1_455
La10 O28 2.605705 1_555
La10 O36 2.605713 1_555
La10 O40 2.605713 1_555
La11 O23 2.491832 1_555
La11 O7 2.491832 1_655
La11 O19 2.491842 1_555
La11 O13 2.491842 1_555
La11 O45 2.605705 1_655
La11 O30 2.605705 1_555
La11 O38 2.605713 1_555
La11 O41 2.605713 1_555
In0 O43 2.203591 1_444
In0 O42 2.203591 1_555
In0 O12 2.203591 1_555
In0 O29 2.203591 1_555
In0 O15 2.203591 1_444
In0 O31 2.203591 1_444
In1 O27 2.203586 1_555
In1 O25 2.203586 1_545
In1 O46 2.203589 1_555
In1 O47 2.203589 1_545
In1 O5 2.203591 1_545
In1 O9 2.203591 1_555
In2 O44 2.203586 1_455
In2 O45 2.203586 1_555
In2 O19 2.203589 1_455
In2 O17 2.203589 1_555
In2 O33 2.203591 1_455
In2 O35 2.203591 1_555
In3 O16 2.203586 1_545
In3 O18 2.203586 1_554
In3 O34 2.203589 1_554
In3 O32 2.203589 1_545
In3 O2 2.203591 1_555
In3 O6 2.203591 1_544
In4 O21 2.203586 1_554
In4 O23 2.203586 1_555
In4 O39 2.203589 1_554
In4 O37 2.203589 1_555
In4 O40 2.203591 1_554
In4 O41 2.203591 1_555
In5 O0 2.203591 1_555
In5 O26 2.203591 1_555
In5 O4 2.203591 1_555
In5 O8 2.203591 1_555
In5 O24 2.203591 1_555
In5 O1 2.203591 1_555
In6 O3 2.203586 1_455
In6 O7 2.203586 1_545
In6 O22 2.203589 1_545
In6 O20 2.203589 1_455
In6 O38 2.203591 1_445
In6 O36 2.203591 1_555
In7 O28 2.203586 1_554
In7 O30 2.203586 1_455
In7 O13 2.203589 1_455
In7 O10 2.203589 1_554
In7 O11 2.203591 1_555
In7 O14 2.203591 1_454
Ga0 O11 1.888915 1_555
Ga0 O4 1.888915 1_555
Ga0 O47 1.888918 1_555
Ga0 O45 1.888926 1_555
Ga1 O8 1.888915 1_555
Ga1 O14 1.888915 1_555
Ga1 O46 1.888918 1_555
Ga1 O44 1.888926 1_555
Ga2 O43 1.888915 1_554
Ga2 O41 1.888915 1_555
Ga2 O20 1.888918 1_565
Ga2 O16 1.888926 1_555
Ga3 O36 1.888915 1_555
Ga3 O24 1.888915 1_555
Ga3 O39 1.888918 1_555
Ga3 O27 1.888926 1_555
Ga4 O38 1.888915 1_555
Ga4 O26 1.888915 1_555
Ga4 O37 1.888918 1_555
Ga4 O25 1.888926 1_555
Ga5 O40 1.888915 1_555
Ga5 O42 1.888915 1_556
Ga5 O22 1.888918 1_545
Ga5 O18 1.888926 1_555
Ga6 O31 1.888915 1_455
Ga6 O35 1.888915 1_555
Ga6 O32 1.888918 1_556
Ga6 O28 1.888926 1_555
Ga7 O33 1.888915 1_555
Ga7 O29 1.888915 1_655
Ga7 O34 1.888918 1_554
Ga7 O30 1.888926 1_555
Ga8 O2 1.888915 1_555
Ga8 O0 1.888915 1_555
Ga8 O19 1.888918 1_555
Ga8 O23 1.888926 1_555
Ga9 O6 1.888915 1_555
Ga9 O1 1.888915 1_555
Ga9 O17 1.888918 1_555
Ga9 O21 1.888926 1_555
Ga10 O9 1.888915 1_555
Ga10 O15 1.888915 1_545
Ga10 O10 1.888918 1_655
Ga10 O3 1.888926 1_555
Ga11 O5 1.888915 1_555
Ga11 O12 1.888915 1_565
Ga11 O13 1.888918 1_455
Ga11 O7 1.888926 1_555
