# generated using pymatgen
data_Mn3CrAs4
_symmetry_space_group_name_H-M   'P 1'
_cell_length_a   3.42594800
_cell_length_b   5.54863100
_cell_length_c   6.06295263
_cell_angle_alpha   89.74589423
_cell_angle_beta   90.00000000
_cell_angle_gamma   90.00000000
_symmetry_Int_Tables_number   1
_chemical_formula_structural   Mn3CrAs4
_chemical_formula_sum   'Mn3 Cr1 As4'
_cell_volume   115.25148091
_cell_formula_units_Z   1
loop_
 _symmetry_equiv_pos_site_id
 _symmetry_equiv_pos_as_xyz
  1  'x, y, z'
loop_
 _atom_site_type_symbol
 _atom_site_label
 _atom_site_symmetry_multiplicity
 _atom_site_fract_x
 _atom_site_fract_y
 _atom_site_fract_z
 _atom_site_occupancy
  Mn  Mn0  1  0.50000000  0.00317700  0.19301700  1
  Mn  Mn1  1  0.00000000  0.49704500  0.69371500  1
  Mn  Mn2  1  0.00000000  0.99606400  0.80607400  1
  Cr  Cr0  1  0.50000000  0.50311900  0.30522700  1
  As  As0  1  0.50000000  0.69862600  0.91891300  1
  As  As1  1  0.50000000  0.19948100  0.58132300  1
  As  As2  1  0.00000000  0.29973900  0.08048400  1
  As  As3  1  0.00000000  0.80274900  0.42124700  1
loop_
_geom_bond_atom_site_label_1
_geom_bond_atom_site_label_2
_geom_bond_distance
_geom_bond_site_symmetry_2
As0 Mn0 2.375356 1_566
As0 Mn1 2.462333 1_555
As0 Mn1 2.462333 1_655
As0 Mn2 2.473063 1_555
As0 Mn2 2.473063 1_655
As0 Cr0 2.576851 1_556
As1 Cr0 2.369722 1_555
As1 Mn2 2.459959 1_645
As1 Mn2 2.459959 1_545
As1 Mn1 2.476821 1_655
As1 Mn1 2.476821 1_555
As1 Mn0 2.598419 1_555
As2 Mn2 2.373192 1_544
As2 Cr0 2.465377 1_455
As2 Cr0 2.465377 1_555
As2 Mn0 2.469321 1_555
As2 Mn0 2.469321 1_455
As2 Mn1 2.583528 1_554
As3 Mn1 2.362487 1_555
As3 Mn0 2.464175 1_465
As3 Mn0 2.464175 1_565
As3 Cr0 2.490680 1_455
As3 Cr0 2.490680 1_555
As3 Mn2 2.572257 1_555
