# generated using pymatgen
data_Pr3Sn13Ir4
_symmetry_space_group_name_H-M   'P 1'
_cell_length_a   9.79014164
_cell_length_b   9.79008756
_cell_length_c   9.79013615
_cell_angle_alpha   90.00001668
_cell_angle_beta   90.00016469
_cell_angle_gamma   89.99992766
_symmetry_Int_Tables_number   1
_chemical_formula_structural   Pr3Sn13Ir4
_chemical_formula_sum   'Pr6 Sn26 Ir8'
_cell_volume   938.34875607
_cell_formula_units_Z   2
loop_
 _symmetry_equiv_pos_site_id
 _symmetry_equiv_pos_as_xyz
  1  'x, y, z'
loop_
 _atom_site_type_symbol
 _atom_site_label
 _atom_site_symmetry_multiplicity
 _atom_site_fract_x
 _atom_site_fract_y
 _atom_site_fract_z
 _atom_site_occupancy
  Pr  Pr0  1  0.50000065  -0.00000124  0.75000162  1
  Pr  Pr1  1  0.00000022  0.24999913  0.49999857  1
  Pr  Pr2  1  0.75000057  0.50000102  0.00000035  1
  Pr  Pr3  1  0.49999847  -0.00000058  0.24999838  1
  Pr  Pr4  1  0.00000126  0.75000093  0.49999907  1
  Pr  Pr5  1  0.24999962  0.50000175  0.00000259  1
  Sn  Sn0  1  0.50000110  0.49997901  0.50001334  1
  Sn  Sn1  1  0.99999892  0.00002121  0.99998682  1
  Sn  Sn2  1  0.65247066  0.19404330  0.49999879  1
  Sn  Sn3  1  0.80596783  0.50000282  0.65247856  1
  Sn  Sn4  1  0.50000200  0.34752226  0.80596536  1
  Sn  Sn5  1  0.34752162  0.80597131  0.49999766  1
  Sn  Sn6  1  0.19403797  0.50000214  0.34753070  1
  Sn  Sn7  1  0.49999829  0.65247181  0.19403388  1
  Sn  Sn8  1  0.65247922  0.80597153  0.49999930  1
  Sn  Sn9  1  0.80596125  0.50000196  0.34753149  1
  Sn  Sn10  1  0.34752980  0.19404410  0.49999663  1
  Sn  Sn11  1  0.19403240  0.50000363  0.65247884  1
  Sn  Sn12  1  0.50000071  0.65246252  0.80595624  1
  Sn  Sn13  1  0.49999874  0.34751659  0.19402622  1
  Sn  Sn14  1  0.15247443  -0.00000398  0.69403773  1
  Sn  Sn15  1  0.30597041  0.15248291  0.00000340  1
  Sn  Sn16  1  -0.00000116  0.30595940  0.84752389  1
  Sn  Sn17  1  0.84752012  -0.00000259  0.30596981  1
  Sn  Sn18  1  0.69403597  0.84752897  0.00000084  1
  Sn  Sn19  1  0.00000121  0.69402931  0.15247752  1
  Sn  Sn20  1  0.15247945  -0.00000275  0.30596967  1
  Sn  Sn21  1  0.30596276  0.84753062  0.00000188  1
  Sn  Sn22  1  0.84752550  -0.00000289  0.69403715  1
  Sn  Sn23  1  0.69402940  0.15248261  0.00000023  1
  Sn  Sn24  1  0.00000116  0.30595591  0.15246895  1
  Sn  Sn25  1  -0.00000023  0.69402568  0.84751548  1
  Ir  Ir0  1  0.74999783  0.25000321  0.75000446  1
  Ir  Ir1  1  0.24999947  0.75000236  0.25000369  1
  Ir  Ir2  1  0.75000183  0.75000238  0.25000481  1
  Ir  Ir3  1  0.25000169  0.25000378  0.75000419  1
  Ir  Ir4  1  0.24999285  0.74999697  0.74999522  1
  Ir  Ir5  1  0.74999292  0.24999710  0.24999651  1
  Ir  Ir6  1  0.25000791  0.24999744  0.24999523  1
  Ir  Ir7  1  0.75000619  0.74999734  0.74999595  1
loop_
_geom_bond_atom_site_label_1
_geom_bond_atom_site_label_2
_geom_bond_distance
_geom_bond_site_symmetry_2
Pr0 Sn18 3.439054 1_546
Pr0 Sn8 3.439073 1_545
Pr0 Sn23 3.439075 1_556
Pr0 Sn21 3.439078 1_546
Pr0 Sn5 3.439084 1_545
Pr0 Sn15 3.439112 1_556
Pr0 Sn2 3.439137 1_555
Pr0 Sn10 3.439151 1_555
Pr0 Sn4 3.446118 1_555
Pr0 Sn22 3.446153 1_555
Pr0 Sn14 3.446162 1_555
Pr0 Sn12 3.446228 1_545
Pr1 Sn17 3.439077 1_455
Pr1 Sn20 3.439077 1_555
Pr1 Sn9 3.439083 1_455
Pr1 Sn6 3.439089 1_555
Pr1 Sn3 3.439112 1_455
Pr1 Sn22 3.439115 1_455
Pr1 Sn14 3.439116 1_555
Pr1 Sn11 3.439116 1_555
Pr1 Sn16 3.446147 1_555
Pr1 Sn10 3.446181 1_555
Pr1 Sn24 3.446183 1_555
Pr1 Sn2 3.446184 1_455
Pr2 Sn19 3.439059 1_655
Pr2 Sn25 3.439068 1_654
Pr2 Sn12 3.439071 1_554
Pr2 Sn7 3.439077 1_555
Pr2 Sn4 3.439088 1_554
Pr2 Sn13 3.439094 1_555
Pr2 Sn24 3.439110 1_655
Pr2 Sn16 3.439114 1_654
Pr2 Sn23 3.446082 1_555
Pr2 Sn3 3.446126 1_554
Pr2 Sn18 3.446162 1_555
Pr2 Sn9 3.446203 1_555
Pr3 Sn21 3.439034 1_545
Pr3 Sn15 3.439043 1_555
Pr3 Sn5 3.439052 1_545
Pr3 Sn18 3.439064 1_545
Pr3 Sn8 3.439071 1_545
Pr3 Sn23 3.439089 1_555
Pr3 Sn10 3.439097 1_555
Pr3 Sn2 3.439119 1_555
Pr3 Sn13 3.446071 1_555
Pr3 Sn20 3.446107 1_555
Pr3 Sn17 3.446130 1_555
Pr3 Sn7 3.446159 1_545
Pr4 Sn20 3.439040 1_565
Pr4 Sn17 3.439046 1_465
Pr4 Sn6 3.439052 1_555
Pr4 Sn14 3.439055 1_565
Pr4 Sn11 3.439056 1_555
Pr4 Sn9 3.439066 1_455
Pr4 Sn22 3.439073 1_465
Pr4 Sn3 3.439081 1_455
Pr4 Sn25 3.446084 1_555
Pr4 Sn5 3.446117 1_555
Pr4 Sn19 3.446128 1_555
Pr4 Sn8 3.446133 1_455
Pr5 Sn7 3.439032 1_555
Pr5 Sn19 3.439032 1_555
Pr5 Sn13 3.439055 1_555
Pr5 Sn25 3.439069 1_554
Pr5 Sn12 3.439099 1_554
Pr5 Sn24 3.439099 1_555
Pr5 Sn4 3.439135 1_554
Pr5 Sn16 3.439142 1_554
Pr5 Sn15 3.446084 1_555
Pr5 Sn11 3.446142 1_554
Pr5 Sn21 3.446170 1_555
Pr5 Sn6 3.446178 1_555
Sn0 Sn2 3.346489 1_555
Sn0 Sn10 3.346493 1_555
Sn0 Sn4 3.346587 1_555
Sn0 Sn12 3.346623 1_555
Sn0 Sn3 3.346754 1_555
Sn0 Sn9 3.346776 1_555
Sn0 Sn11 3.346780 1_555
Sn0 Sn6 3.346798 1_555
Sn0 Sn13 3.346919 1_555
Sn0 Sn7 3.346985 1_555
Sn0 Sn8 3.347027 1_555
Sn0 Sn5 3.347028 1_555
Sn1 Sn16 3.346483 1_655
Sn1 Sn24 3.346536 1_656
Sn1 Sn22 3.346639 1_555
Sn1 Sn14 3.346651 1_655
Sn1 Sn23 3.346760 1_556
Sn1 Sn15 3.346782 1_656
Sn1 Sn21 3.346838 1_646
Sn1 Sn18 3.346841 1_546
Sn1 Sn20 3.346961 1_656
Sn1 Sn17 3.346962 1_556
Sn1 Sn25 3.347021 1_645
Sn1 Sn19 3.347075 1_646
Sn2 Sn22 3.296102 1_555
Sn3 Sn9 2.985473 1_555
Sn5 Sn8 2.985578 1_555
Sn10 Sn2 2.985414 1_555
Sn10 Sn20 3.296018 1_555
Sn10 Sn14 3.296140 1_555
Sn11 Sn6 2.985484 1_555
Sn11 Sn25 3.295836 1_555
Sn11 Sn16 3.296017 1_555
Sn12 Sn4 2.985392 1_555
Sn12 Sn18 3.296143 1_556
Sn12 Sn21 3.296177 1_556
Sn13 Sn7 2.985538 1_555
Sn13 Sn15 3.295795 1_555
Sn13 Sn23 3.295832 1_555
Sn14 Sn22 2.985493 1_455
Sn14 Sn5 3.295952 1_545
Sn15 Sn21 2.985510 1_545
Sn15 Sn4 3.295939 1_554
Sn16 Sn24 2.985454 1_556
Sn16 Sn3 3.295991 1_455
Sn17 Sn20 2.985595 1_655
Sn17 Sn8 3.295867 1_545
Sn17 Sn2 3.296022 1_555
Sn18 Sn23 2.985523 1_565
Sn18 Sn7 3.296046 1_555
Sn19 Sn25 2.985620 1_554
Sn19 Sn6 3.295976 1_555
Sn19 Sn9 3.296009 1_455
Sn20 Sn5 3.295857 1_545
Sn21 Sn7 3.296028 1_555
Sn22 Sn8 3.295936 1_545
Sn23 Sn4 3.295890 1_554
Sn24 Sn6 3.296134 1_555
Sn24 Sn9 3.296159 1_455
Sn25 Sn3 3.295834 1_455
Ir0 Sn4 2.683631 1_555
Ir0 Sn23 2.683652 1_556
Ir0 Sn16 2.683668 1_655
Ir0 Sn3 2.683698 1_555
Ir0 Sn2 2.683743 1_555
Ir0 Sn22 2.683755 1_555
Ir0 Pr2 3.461283 1_556
Ir0 Pr0 3.461342 1_555
Ir0 Pr1 3.461399 1_655
Ir1 Sn20 2.683625 1_565
Ir1 Sn5 2.683639 1_555
Ir1 Sn6 2.683690 1_555
Ir1 Sn19 2.683701 1_555
Ir1 Sn7 2.683716 1_555
Ir1 Sn21 2.683722 1_555
Ir1 Pr4 3.461297 1_555
Ir1 Pr3 3.461303 1_565
Ir1 Pr5 3.461339 1_555
Ir2 Sn17 2.683619 1_565
Ir2 Sn8 2.683650 1_555
Ir2 Sn9 2.683684 1_555
Ir2 Sn19 2.683719 1_655
Ir2 Sn18 2.683737 1_555
Ir2 Sn7 2.683760 1_555
Ir2 Pr4 3.461288 1_655
Ir2 Pr3 3.461329 1_565
Ir2 Pr2 3.461367 1_555
Ir3 Sn4 2.683669 1_555
Ir3 Sn15 2.683681 1_556
Ir3 Sn16 2.683688 1_555
Ir3 Sn11 2.683694 1_555
Ir3 Sn10 2.683767 1_555
Ir3 Sn14 2.683767 1_555
Ir3 Pr5 3.461302 1_556
Ir3 Pr0 3.461354 1_555
Ir3 Pr1 3.461381 1_555
Ir4 Sn11 2.683588 1_555
Ir4 Sn25 2.683636 1_555
Ir4 Sn14 2.683639 1_565
Ir4 Sn5 2.683710 1_555
Ir4 Sn12 2.683790 1_555
Ir4 Sn21 2.683794 1_556
Ir4 Pr4 3.461247 1_555
Ir4 Pr5 3.461346 1_556
Ir4 Pr0 3.461397 1_565
Ir5 Sn23 2.683622 1_555
Ir5 Sn13 2.683634 1_555
Ir5 Sn2 2.683689 1_555
Ir5 Sn17 2.683707 1_555
Ir5 Sn9 2.683771 1_555
Ir5 Sn24 2.683772 1_655
Ir5 Pr3 3.461276 1_555
Ir5 Pr2 3.461328 1_555
Ir5 Pr1 3.461397 1_655
Ir6 Sn15 2.683583 1_555
Ir6 Sn13 2.683606 1_555
Ir6 Sn10 2.683673 1_555
Ir6 Sn20 2.683721 1_555
Ir6 Sn24 2.683747 1_555
Ir6 Sn6 2.683775 1_555
Ir6 Pr3 3.461247 1_555
Ir6 Pr5 3.461307 1_555
Ir6 Pr1 3.461418 1_555
Ir7 Sn3 2.683604 1_555
Ir7 Sn25 2.683632 1_655
Ir7 Sn22 2.683654 1_565
Ir7 Sn8 2.683690 1_555
Ir7 Sn12 2.683774 1_555
Ir7 Sn18 2.683774 1_556
Ir7 Pr4 3.461286 1_655
Ir7 Pr2 3.461333 1_556
Ir7 Pr0 3.461374 1_565
