# generated using pymatgen
data_MgV12(BO5)4
_symmetry_space_group_name_H-M   'P 1'
_cell_length_a   3.17353661
_cell_length_b   9.75374902
_cell_length_c   12.97791769
_cell_angle_alpha   88.95225983
_cell_angle_beta   90.00000399
_cell_angle_gamma   89.99999889
_symmetry_Int_Tables_number   1
_chemical_formula_structural   MgV12(BO5)4
_chemical_formula_sum   'Mg1 V12 B4 O20'
_cell_volume   401.64973714
_cell_formula_units_Z   1
loop_
 _symmetry_equiv_pos_site_id
 _symmetry_equiv_pos_as_xyz
  1  'x, y, z'
loop_
 _atom_site_type_symbol
 _atom_site_label
 _atom_site_symmetry_multiplicity
 _atom_site_fract_x
 _atom_site_fract_y
 _atom_site_fract_z
 _atom_site_occupancy
  Mg  Mg0  1  0.49999949  0.24021974  0.76745783  1
  V  V0  1  0.50000004  0.01374545  0.21816160  1
  V  V1  1  0.49999981  0.96250131  0.77270234  1
  V  V2  1  0.50000012  0.51298406  0.72543233  1
  V  V3  1  0.50000009  0.51296341  0.28021992  1
  V  V4  1  0.49999993  0.99438551  0.48860391  1
  V  V5  1  0.50000019  0.51385719  0.00616649  1
  V  V6  1  0.00000008  0.24987666  0.38270495  1
  V  V7  1  0.99999992  0.75120010  0.60266968  1
  V  V8  1  0.99999980  0.25836607  0.92928362  1
  V  V9  1  0.00000012  0.75099562  0.11737263  1
  V  V10  1  0.99999976  0.98904527  0.99629350  1
  V  V11  1  0.00000028  0.49830567  0.49699611  1
  B  B0  1  0.00000013  0.28958210  0.14713749  1
  B  B1  1  0.00000001  0.72008765  0.86212916  1
  B  B2  1  0.00000003  0.20972199  0.62223079  1
  B  B3  1  0.00000005  0.77882056  0.35568510  1
  O  O0  1  0.00000041  0.37366820  0.05775329  1
  O  O1  1  0.99999999  0.65589966  0.95747465  1
  O  O2  1  0.99999978  0.14988438  0.53036936  1
  O  O3  1  0.99999998  0.84733534  0.44901919  1
  O  O4  1  0.99999987  0.14694719  0.13778512  1
  O  O5  1  0.99999998  0.86396210  0.85736545  1
  O  O6  1  0.00000117  0.35052921  0.64551040  1
  O  O7  1  0.00000003  0.63506298  0.35603035  1
  O  O8  1  0.50000014  0.12145412  0.35488712  1
  O  O9  1  0.49999988  0.87970506  0.63090600  1
  O  O10  1  0.49999975  0.38642323  0.86715839  1
  O  O11  1  0.50000023  0.62713591  0.14068161  1
  O  O12  1  0.00000014  0.35720315  0.23976623  1
  O  O13  1  0.00000005  0.64928267  0.76896129  1
  O  O14  1  0.99999930  0.12790610  0.71639557  1
  O  O15  1  0.00000012  0.85422367  0.26258754  1
  O  O16  1  0.50000015  0.39419620  0.42109613  1
  O  O17  1  0.50000019  0.59873632  0.57768503  1
  O  O18  1  0.49999984  0.10724036  0.90824700  1
  O  O19  1  0.50000014  0.89738079  0.07823983  1
loop_
_geom_bond_atom_site_label_1
_geom_bond_atom_site_label_2
_geom_bond_distance
_geom_bond_site_symmetry_2
Mg0 O10 1.942997 1_555
Mg0 O14 2.045386 1_555
Mg0 O14 2.045386 1_455
Mg0 O18 2.221293 1_555
Mg0 O6 2.473433 1_555
Mg0 O6 2.473440 1_655
B0 O12 1.381711 1_555
B0 O4 1.398719 1_455
B0 O0 1.408371 1_555
B1 O1 1.376503 1_455
B1 O13 1.403378 1_555
B1 O5 1.403547 1_455
B2 O2 1.336919 1_455
B2 O6 1.411621 1_555
B2 O14 1.447272 1_455
B3 O3 1.394059 1_455
B3 O7 1.402101 1_555
B3 O15 1.402921 1_555
O0 V8 2.028089 1_454
O0 V5 2.191407 1_555
O0 V5 2.191408 1_455
O1 V5 2.191939 1_556
O1 V5 2.191940 1_656
O1 V9 2.288437 1_656
O2 V6 2.134328 1_655
O2 V4 2.267611 1_545
O2 V4 2.267612 1_645
O3 V7 2.187956 1_555
O3 V4 2.205875 1_655
O3 V4 2.205875 1_555
O4 V0 2.290050 1_555
O4 V0 2.290051 1_655
O4 V10 2.418123 1_544
O5 V1 2.147145 1_655
O5 V1 2.147145 1_555
O5 V10 2.195385 1_555
O6 V11 2.385552 1_555
O6 V2 2.482848 1_555
O6 V2 2.482852 1_455
O7 V3 2.224180 1_455
O7 V3 2.224181 1_555
O7 V11 2.244303 1_555
O8 V6 2.057599 1_655
O8 V6 2.057599 1_555
O8 V0 2.078556 1_555
O8 V4 2.113986 1_545
O9 V1 2.023101 1_555
O9 V7 2.059111 1_455
O9 V7 2.059112 1_555
O9 V4 2.141554 1_555
O10 V8 2.165906 1_455
O10 V8 2.165906 1_555
O10 V2 2.196331 1_555
O10 V5 2.209411 1_556
O11 V9 2.013820 1_655
O11 V9 2.013821 1_555
O11 V5 2.082999 1_555
O11 V3 2.108505 1_555
O12 V6 2.113302 1_555
O12 V3 2.265114 1_555
O12 V3 2.265114 1_455
O13 V2 2.152160 1_455
O13 V2 2.152160 1_555
O13 V7 2.359493 1_455
O14 V1 2.368859 1_545
O14 V1 2.368861 1_645
O15 V9 2.152866 1_555
O15 V0 2.288750 1_565
O15 V0 2.288751 1_465
O16 V11 2.134441 1_555
O16 V11 2.134442 1_655
O16 V3 2.146416 1_555
O16 V6 2.184770 1_655
O16 V6 2.184770 1_555
O17 V2 2.077871 1_555
O17 V11 2.147438 1_555
O17 V11 2.147438 1_655
O17 V7 2.202737 1_555
O17 V7 2.202738 1_455
O18 V8 2.186295 1_555
O18 V8 2.186295 1_455
O18 V10 2.259288 1_545
O18 V10 2.259288 1_445
O18 V1 2.275575 1_545
O19 V10 2.100819 1_554
O19 V10 2.100820 1_454
O19 V0 2.158946 1_565
O19 V9 2.188119 1_655
O19 V9 2.188119 1_555
