# generated using pymatgen
data_SiH8(CBr)4
_symmetry_space_group_name_H-M   'P 1'
_cell_length_a   9.24296000
_cell_length_b   9.24296000
_cell_length_c   7.27088800
_cell_angle_alpha   90.00000000
_cell_angle_beta   90.00000000
_cell_angle_gamma   90.00000000
_symmetry_Int_Tables_number   1
_chemical_formula_structural   SiH8(CBr)4
_chemical_formula_sum   'Si2 H16 C8 Br8'
_cell_volume   621.16875440
_cell_formula_units_Z   2
loop_
 _symmetry_equiv_pos_site_id
 _symmetry_equiv_pos_as_xyz
  1  'x, y, z'
loop_
 _atom_site_type_symbol
 _atom_site_label
 _atom_site_symmetry_multiplicity
 _atom_site_fract_x
 _atom_site_fract_y
 _atom_site_fract_z
 _atom_site_occupancy
  Si  Si0  1  0.00000000  0.00000000  0.00000000  1
  Si  Si1  1  0.50000000  0.50000000  0.50000000  1
  H  H0  1  0.81275100  0.98232400  0.75095000  1
  H  H1  1  0.31275100  0.51767600  0.74905000  1
  H  H2  1  0.18724900  0.01767600  0.75095000  1
  H  H3  1  0.68724900  0.48232400  0.74905000  1
  H  H4  1  0.01767600  0.81275100  0.24905000  1
  H  H5  1  0.48232400  0.31275100  0.25095000  1
  H  H6  1  0.98232400  0.18724900  0.24905000  1
  H  H7  1  0.51767600  0.68724900  0.25095000  1
  H  H8  1  0.77347300  0.85711900  0.93215800  1
  H  H9  1  0.27347300  0.64288100  0.56784200  1
  H  H10  1  0.22652700  0.14288100  0.93215800  1
  H  H11  1  0.72652700  0.35711900  0.56784200  1
  H  H12  1  0.14288100  0.77347300  0.06784200  1
  H  H13  1  0.35711900  0.27347300  0.43215800  1
  H  H14  1  0.85711900  0.22652700  0.06784200  1
  H  H15  1  0.64288100  0.72652700  0.43215800  1
  C  C0  1  0.85964700  0.90741400  0.85146400  1
  C  C1  1  0.35964700  0.59258600  0.64853600  1
  C  C2  1  0.14035300  0.09258600  0.85146400  1
  C  C3  1  0.64035300  0.40741400  0.64853600  1
  C  C4  1  0.09258600  0.85964700  0.14853600  1
  C  C5  1  0.40741400  0.35964700  0.35146400  1
  C  C6  1  0.90741400  0.14035300  0.14853600  1
  C  C7  1  0.59258600  0.64035300  0.35146400  1
  Br  Br0  1  0.94258400  0.74816400  0.70493000  1
  Br  Br1  1  0.44258400  0.75183600  0.79507000  1
  Br  Br2  1  0.05741600  0.25183600  0.70493000  1
  Br  Br3  1  0.55741600  0.24816400  0.79507000  1
  Br  Br4  1  0.25183600  0.94258400  0.29507000  1
  Br  Br5  1  0.24816400  0.44258400  0.20493000  1
  Br  Br6  1  0.74816400  0.05741600  0.29507000  1
  Br  Br7  1  0.75183600  0.55741600  0.20493000  1
loop_
_geom_bond_atom_site_label_1
_geom_bond_atom_site_label_2
_geom_bond_distance
_geom_bond_site_symmetry_2
C0 H8 1.093052 1_555
C0 H0 1.096082 1_555
C0 Si0 1.892523 1_666
C1 H9 1.093052 1_555
C1 H1 1.096082 1_555
C1 Si1 1.892523 1_555
C2 H10 1.093052 1_555
C2 H2 1.096082 1_555
C2 Si0 1.892523 1_556
C3 H11 1.093052 1_555
C3 H3 1.096082 1_555
C3 Si1 1.892523 1_555
C4 H12 1.093052 1_555
C4 H4 1.096082 1_555
C4 Si0 1.892523 1_565
C5 H13 1.093052 1_555
C5 H5 1.096082 1_555
C5 Si1 1.892523 1_555
C6 H14 1.093052 1_555
C6 H6 1.096082 1_555
C6 Si0 1.892523 1_655
C7 H15 1.093052 1_555
C7 H7 1.096082 1_555
C7 Si1 1.892523 1_555
Br0 C0 1.972158 1_555
Br1 C1 1.972158 1_555
Br2 C2 1.972158 1_555
Br3 C3 1.972158 1_555
Br4 C4 1.972158 1_555
Br5 C5 1.972158 1_555
Br6 C6 1.972158 1_555
Br7 C7 1.972158 1_555
