# generated using pymatgen
data_PrCu9Sn4
_symmetry_space_group_name_H-M   'P 1'
_cell_length_a   8.75088566
_cell_length_b   8.75088566
_cell_length_c   8.75088566
_cell_angle_alpha   117.21618038
_cell_angle_beta   117.21618038
_cell_angle_gamma   94.89338197
_symmetry_Int_Tables_number   1
_chemical_formula_structural   PrCu9Sn4
_chemical_formula_sum   'Pr2 Cu18 Sn8'
_cell_volume   491.84750476
_cell_formula_units_Z   2
loop_
 _symmetry_equiv_pos_site_id
 _symmetry_equiv_pos_as_xyz
  1  'x, y, z'
loop_
 _atom_site_type_symbol
 _atom_site_label
 _atom_site_symmetry_multiplicity
 _atom_site_fract_x
 _atom_site_fract_y
 _atom_site_fract_z
 _atom_site_occupancy
  Pr  Pr0  1  0.75000000  0.75000000  0.00000000  1
  Pr  Pr1  1  0.25000000  0.25000000  0.00000000  1
  Cu  Cu0  1  0.34337300  0.84337300  0.89686900  1
  Cu  Cu1  1  0.65662700  0.15662700  0.10313100  1
  Cu  Cu2  1  0.94650400  0.44650400  0.10313100  1
  Cu  Cu3  1  0.84337300  0.94650400  0.50000000  1
  Cu  Cu4  1  0.55349600  0.65662700  0.50000000  1
  Cu  Cu5  1  0.05349600  0.55349600  0.89686900  1
  Cu  Cu6  1  0.15662700  0.05349600  0.50000000  1
  Cu  Cu7  1  0.44650400  0.34337300  0.50000000  1
  Cu  Cu8  1  0.00000000  0.50000000  0.50000000  1
  Cu  Cu9  1  0.50000000  0.00000000  0.50000000  1
  Cu  Cu10  1  0.78240800  0.28240800  0.70672000  1
  Cu  Cu11  1  0.21759200  0.71759200  0.29328000  1
  Cu  Cu12  1  0.57568800  0.07568800  0.29328000  1
  Cu  Cu13  1  0.28240800  0.57568800  0.50000000  1
  Cu  Cu14  1  0.92431200  0.21759200  0.50000000  1
  Cu  Cu15  1  0.42431200  0.92431200  0.70672000  1
  Cu  Cu16  1  0.71759200  0.42431200  0.50000000  1
  Cu  Cu17  1  0.07568800  0.78240800  0.50000000  1
  Sn  Sn0  1  0.71861100  0.54291500  0.26152600  1
  Sn  Sn1  1  0.28138900  0.45708500  0.73847400  1
  Sn  Sn2  1  0.54291500  0.28138900  0.82430500  1
  Sn  Sn3  1  0.21861100  0.95708500  0.17569500  1
  Sn  Sn4  1  0.45708500  0.71861100  0.17569500  1
  Sn  Sn5  1  0.78138900  0.04291500  0.82430500  1
  Sn  Sn6  1  0.04291500  0.21861100  0.26152600  1
  Sn  Sn7  1  0.95708500  0.78138900  0.73847400  1
loop_
_geom_bond_atom_site_label_1
_geom_bond_atom_site_label_2
_geom_bond_distance
_geom_bond_site_symmetry_2
Pr0 Sn5 3.588960 1_564
Pr0 Sn4 3.588960 1_555
Pr0 Sn6 3.588967 1_665
Pr0 Sn7 3.588967 1_554
Pr0 Sn1 3.588967 1_554
Pr0 Sn0 3.588967 1_555
Pr0 Sn3 3.588970 1_655
Pr0 Sn2 3.588970 1_554
Pr1 Sn2 3.588960 1_554
Pr1 Sn3 3.588960 1_545
Pr1 Sn1 3.588967 1_554
Pr1 Sn0 3.588967 1_555
Pr1 Sn7 3.588967 1_444
Pr1 Sn6 3.588967 1_555
Pr1 Sn4 3.588970 1_555
Pr1 Sn5 3.588970 1_454
Cu0 Cu15 2.417154 1_555
Cu0 Cu12 2.587090 1_566
Cu0 Cu1 2.820141 1_566
Cu0 Sn1 2.890672 1_555
Cu0 Sn7 2.890672 1_455
Cu0 Cu13 2.912716 1_555
Cu0 Cu17 2.912716 1_555
Cu0 Sn4 2.921780 1_556
Cu0 Sn3 2.921780 1_556
Cu0 Cu8 3.080270 1_555
Cu0 Pr0 3.518107 1_556
Cu0 Pr1 3.518107 1_566
Cu1 Cu12 2.417154 1_555
Cu1 Cu15 2.587090 1_544
Cu1 Sn6 2.890672 1_655
Cu1 Sn0 2.890672 1_555
Cu1 Cu16 2.912716 1_555
Cu1 Cu14 2.912716 1_555
Cu1 Sn5 2.921780 1_554
Cu1 Sn2 2.921780 1_554
Cu1 Cu8 3.080270 1_655
Cu1 Pr1 3.518107 1_555
Cu1 Pr0 3.518107 1_545
Cu2 Cu5 2.820141 1_654
Cu2 Sn6 2.890672 1_655
Cu2 Sn0 2.890672 1_555
Cu2 Sn5 2.921787 1_554
Cu2 Sn2 2.921787 1_554
Cu2 Cu8 3.080270 1_655
Cu2 Pr1 3.518107 1_655
Cu2 Pr0 3.518107 1_555
Cu3 Cu6 2.820141 1_665
Cu3 Sn4 2.890673 1_555
Cu3 Sn5 2.890680 1_565
Cu3 Sn7 2.921787 1_555
Cu3 Sn0 2.921787 1_555
Cu3 Cu9 3.080270 1_565
Cu3 Pr0 3.518107 1_555
Cu3 Pr1 3.518107 1_666
Cu4 Cu7 2.820141 1_555
Cu4 Sn5 2.890673 1_565
Cu4 Sn4 2.890680 1_555
Cu4 Sn7 2.921787 1_555
Cu4 Sn0 2.921787 1_555
Cu4 Cu9 3.080270 1_565
Cu4 Pr1 3.518107 1_555
Cu4 Pr0 3.518107 1_556
Cu5 Sn7 2.890672 1_455
Cu5 Sn1 2.890672 1_555
Cu5 Sn3 2.921787 1_556
Cu5 Sn4 2.921787 1_556
Cu5 Cu8 3.080270 1_555
Cu5 Pr0 3.518107 1_456
Cu5 Pr1 3.518107 1_556
Cu6 Sn2 2.890673 1_555
Cu6 Sn3 2.890680 1_545
Cu6 Sn1 2.921787 1_555
Cu6 Sn6 2.921787 1_555
Cu6 Cu9 3.080270 1_555
Cu6 Pr0 3.518107 1_445
Cu6 Pr1 3.518107 1_556
Cu7 Sn3 2.890673 1_545
Cu7 Sn2 2.890680 1_555
Cu7 Sn1 2.921787 1_555
Cu7 Sn6 2.921787 1_555
Cu7 Cu9 3.080270 1_555
Cu7 Pr1 3.518107 1_555
Cu7 Pr0 3.518107 1_556
Cu8 Sn6 2.594940 1_555
Cu8 Sn0 2.594940 1_455
Cu8 Sn7 2.594940 1_455
Cu8 Sn1 2.594940 1_555
Cu9 Sn4 2.594945 1_545
Cu9 Sn3 2.594945 1_545
Cu9 Sn5 2.594945 1_555
Cu9 Sn2 2.594945 1_555
Cu10 Cu5 2.417154 1_655
Cu10 Cu9 2.503370 1_555
Cu10 Cu14 2.524391 1_555
Cu10 Cu16 2.524391 1_555
Cu10 Cu2 2.587090 1_556
Cu10 Cu12 2.665169 1_555
Cu10 Sn5 2.725599 1_555
Cu10 Sn2 2.725599 1_555
Cu10 Cu3 2.912716 1_545
Cu10 Cu7 2.912716 1_555
Cu11 Cu2 2.417154 1_455
Cu11 Cu9 2.503370 1_565
Cu11 Cu13 2.524391 1_555
Cu11 Cu17 2.524391 1_555
Cu11 Cu5 2.587090 1_554
Cu11 Cu15 2.665169 1_555
Cu11 Sn4 2.725599 1_555
Cu11 Sn3 2.725599 1_555
Cu11 Cu6 2.912716 1_565
Cu11 Cu4 2.912716 1_555
Cu12 Cu9 2.503370 1_555
Cu12 Cu14 2.524391 1_555
Cu12 Cu16 2.524391 1_555
Cu12 Sn4 2.725590 1_545
Cu12 Sn3 2.725590 1_545
Cu12 Cu3 2.912716 1_545
Cu12 Cu7 2.912716 1_555
Cu13 Cu4 2.417154 1_555
Cu13 Cu8 2.503370 1_555
Cu13 Cu15 2.524391 1_555
Cu13 Cu7 2.587090 1_555
Cu13 Cu17 2.665169 1_555
Cu13 Sn6 2.725592 1_555
Cu13 Sn1 2.725592 1_555
Cu13 Cu2 2.912716 1_455
Cu14 Cu3 2.417154 1_545
Cu14 Cu8 2.503370 1_655
Cu14 Cu6 2.587090 1_655
Cu14 Cu16 2.665169 1_555
Cu14 Sn6 2.725592 1_655
Cu14 Sn1 2.725592 1_655
Cu14 Cu5 2.912716 1_655
Cu15 Cu9 2.503370 1_565
Cu15 Cu17 2.524391 1_555
Cu15 Sn2 2.725590 1_565
Cu15 Sn5 2.725590 1_565
Cu15 Cu6 2.912716 1_565
Cu15 Cu4 2.912716 1_555
Cu16 Cu7 2.417154 1_555
Cu16 Cu8 2.503370 1_655
Cu16 Cu4 2.587090 1_555
Cu16 Sn0 2.725592 1_555
Cu16 Sn7 2.725592 1_555
Cu16 Cu5 2.912716 1_655
Cu17 Cu6 2.417154 1_565
Cu17 Cu8 2.503370 1_555
Cu17 Cu3 2.587090 1_455
Cu17 Sn7 2.725592 1_455
Cu17 Sn0 2.725592 1_455
Cu17 Cu2 2.912716 1_455
Sn0 Sn2 2.872263 1_554
Sn0 Sn4 2.872271 1_555
Sn0 Sn7 3.074562 1_555
Sn1 Sn4 2.872263 1_556
Sn1 Sn2 2.872271 1_555
Sn1 Sn6 3.074562 1_555
Sn2 Sn5 3.074562 1_555
Sn3 Sn7 2.872263 1_454
Sn3 Sn6 2.872271 1_565
Sn3 Sn4 3.074562 1_555
Sn5 Sn6 2.872263 1_656
Sn5 Sn7 2.872271 1_545
