# generated using pymatgen
data_Ti4Cr2Ge5
_symmetry_space_group_name_H-M   'P 1'
_cell_length_a   5.19160510
_cell_length_b   8.33643177
_cell_length_c   9.22327150
_cell_angle_alpha   63.41373472
_cell_angle_beta   74.07321670
_cell_angle_gamma   90.89153910
_symmetry_Int_Tables_number   1
_chemical_formula_structural   Ti4Cr2Ge5
_chemical_formula_sum   'Ti8 Cr4 Ge10'
_cell_volume   338.79384372
_cell_formula_units_Z   2
loop_
 _symmetry_equiv_pos_site_id
 _symmetry_equiv_pos_as_xyz
  1  'x, y, z'
loop_
 _atom_site_type_symbol
 _atom_site_label
 _atom_site_symmetry_multiplicity
 _atom_site_fract_x
 _atom_site_fract_y
 _atom_site_fract_z
 _atom_site_occupancy
  Ti  Ti0  1  0.50000000  0.50000000  0.50000000  1
  Ti  Ti1  1  0.00000000  0.00000000  0.50000000  1
  Ti  Ti2  1  0.08863200  0.80970100  0.82154700  1
  Ti  Ti3  1  0.08982200  0.36875200  0.82154700  1
  Ti  Ti4  1  0.91017800  0.63124800  0.17845300  1
  Ti  Ti5  1  0.91136800  0.19029900  0.17845300  1
  Ti  Ti6  1  0.75748100  0.99972700  0.00000000  1
  Ti  Ti7  1  0.24251900  0.00027300  0.00000000  1
  Cr  Cr0  1  0.34990200  0.34990200  0.30019600  1
  Cr  Cr1  1  0.65009800  0.65009800  0.69980400  1
  Cr  Cr2  1  0.50000000  0.00000000  0.50000000  1
  Cr  Cr3  1  0.00000000  0.50000000  0.50000000  1
  Ge  Ge0  1  0.20975000  0.70975000  0.58050000  1
  Ge  Ge1  1  0.79025000  0.29025000  0.41950000  1
  Ge  Ge2  1  0.73824600  0.49782800  0.00000000  1
  Ge  Ge3  1  0.26175400  0.50217200  0.00000000  1
  Ge  Ge4  1  0.17314800  0.17314800  0.65370400  1
  Ge  Ge5  1  0.82685200  0.82685200  0.34629600  1
  Ge  Ge6  1  0.39900200  0.08995900  0.21698600  1
  Ge  Ge7  1  0.38401200  0.69305500  0.21698600  1
  Ge  Ge8  1  0.61598800  0.30694500  0.78301400  1
  Ge  Ge9  1  0.60099800  0.91004100  0.78301400  1
loop_
_geom_bond_atom_site_label_1
_geom_bond_atom_site_label_2
_geom_bond_distance
_geom_bond_site_symmetry_2
Ti0 Ti3 2.843289 1_555
Ti0 Ti4 2.843289 1_555
Ti1 Ti5 2.843291 1_455
Ti1 Ti2 2.843291 1_545
Ti2 Ti7 2.982276 1_566
Ti2 Ti6 3.006629 1_456
Ti3 Ti6 2.982278 1_446
Ti3 Ti7 3.006627 1_556
Ti4 Ti7 2.982278 1_665
Ti4 Ti6 3.006627 1_555
Ti5 Ti6 2.982276 1_545
Ti5 Ti7 3.006629 1_655
Ti6 Ti7 2.518059 1_665
Ti6 Ti7 2.673554 1_565
Cr0 Ge7 2.597751 1_555
Cr0 Ge6 2.597751 1_555
Cr0 Ge3 2.656030 1_555
Cr0 Ge2 2.656030 1_555
Cr0 Ge1 2.758732 1_555
Cr0 Ge1 2.758732 1_455
Cr0 Ge4 2.767614 1_555
Cr0 Ti1 2.896688 1_555
Cr0 Ti0 2.896688 1_555
Cr0 Cr2 2.925604 1_555
Cr0 Cr3 2.925604 1_555
Cr1 Ge8 2.597751 1_555
Cr1 Ge9 2.597751 1_555
Cr1 Ge2 2.656030 1_556
Cr1 Ge3 2.656030 1_556
Cr1 Ge0 2.758732 1_555
Cr1 Ge0 2.758732 1_655
Cr1 Ge5 2.767614 1_555
Cr1 Ti1 2.896688 1_665
Cr1 Ti0 2.896688 1_555
Cr1 Cr2 2.925604 1_565
Cr1 Cr3 2.925604 1_655
Cr2 Ge1 2.518149 1_555
Cr2 Ge0 2.518149 1_545
Cr2 Ge6 2.581140 1_555
Cr2 Ge9 2.581140 1_545
Cr2 Ti1 2.595803 1_555
Cr2 Ti1 2.595803 1_655
Cr2 Ge4 2.749596 1_555
Cr2 Ge5 2.749596 1_545
Cr2 Ti5 2.842612 1_555
Cr2 Ti2 2.842612 1_545
Cr3 Ge0 2.518149 1_555
Cr3 Ge1 2.518149 1_455
Cr3 Ge8 2.581140 1_455
Cr3 Ge7 2.581140 1_555
Cr3 Ti0 2.595803 1_455
Cr3 Ti0 2.595803 1_555
Cr3 Ge5 2.749596 1_455
Cr3 Ge4 2.749596 1_555
Cr3 Ti3 2.842615 1_555
Cr3 Ti4 2.842615 1_455
Ge0 Ti1 2.551358 1_565
Ge0 Ti0 2.551358 1_555
Ge0 Ti3 2.634328 1_555
Ge0 Ti2 2.634328 1_555
Ge1 Ti1 2.551358 1_655
Ge1 Ti0 2.551358 1_555
Ge1 Ti4 2.634328 1_555
Ge1 Ti5 2.634328 1_555
Ge2 Ge3 2.474587 1_555
Ge2 Ti4 2.675239 1_555
Ge2 Ti2 2.675241 1_654
Ge2 Ti5 2.682540 1_555
Ge2 Ti3 2.682543 1_654
Ge2 Ge3 2.717525 1_655
Ge3 Ti3 2.675239 1_554
Ge3 Ti5 2.675241 1_455
Ge3 Ti2 2.682540 1_554
Ge3 Ti4 2.682543 1_455
Ge4 Ti2 2.675170 1_545
Ge4 Ti3 2.675170 1_555
Ge4 Ti0 2.718809 1_555
Ge4 Ti1 2.718809 1_555
Ge4 Ti7 2.989230 1_556
Ge4 Ti6 2.989230 1_446
Ge5 Ti5 2.675170 1_565
Ge5 Ti4 2.675170 1_555
Ge5 Ti0 2.718809 1_555
Ge5 Ti1 2.718809 1_665
Ge5 Ti6 2.989230 1_555
Ge5 Ti7 2.989230 1_665
Ge6 Ti1 2.626596 1_555
Ge6 Ti5 2.654702 1_555
Ge6 Ti6 2.716918 1_545
Ge6 Ti7 2.727088 1_555
Ge6 Ti5 2.743831 1_455
Ge7 Ti0 2.626596 1_555
Ge7 Ti4 2.654707 1_455
Ge7 Ti7 2.716918 1_565
Ge7 Ti6 2.727088 1_555
Ge7 Ti4 2.743826 1_555
Ge8 Ti0 2.626596 1_555
Ge8 Ti3 2.654707 1_655
Ge8 Ti6 2.716918 1_546
Ge8 Ti7 2.727088 1_556
Ge8 Ti3 2.743826 1_555
Ge9 Ti1 2.626596 1_665
Ge9 Ti2 2.654702 1_555
Ge9 Ti7 2.716918 1_566
Ge9 Ti6 2.727088 1_556
Ge9 Ti2 2.743831 1_655
