# generated using pymatgen
data_Tb3Sc2S7
_symmetry_space_group_name_H-M   'P 1'
_cell_length_a   6.50199119
_cell_length_b   6.50199119
_cell_length_c   11.39505631
_cell_angle_alpha   75.44901396
_cell_angle_beta   75.44901396
_cell_angle_gamma   33.48346577
_symmetry_Int_Tables_number   1
_chemical_formula_structural   Tb3Sc2S7
_chemical_formula_sum   'Tb3 Sc2 S7'
_cell_volume   256.46192092
_cell_formula_units_Z   1
loop_
 _symmetry_equiv_pos_site_id
 _symmetry_equiv_pos_as_xyz
  1  'x, y, z'
loop_
 _atom_site_type_symbol
 _atom_site_label
 _atom_site_symmetry_multiplicity
 _atom_site_fract_x
 _atom_site_fract_y
 _atom_site_fract_z
 _atom_site_occupancy
  Tb  Tb0  1  0.30375603  0.30375603  0.79837254  1
  Tb  Tb1  1  0.69624397  0.69624397  0.20162746  1
  Tb  Tb2  1  -0.00000000  -0.00000000  -0.00000000  1
  Sc  Sc0  1  0.11099972  0.11099972  0.57065572  1
  Sc  Sc1  1  0.88900028  0.88900028  0.42934428  1
  S  S0  1  0.26398076  0.26398076  0.36250944  1
  S  S1  1  0.73601924  0.73601924  0.63749056  1
  S  S2  1  0.66247158  0.66247158  0.94574111  1
  S  S3  1  0.33752842  0.33752842  0.05425889  1
  S  S4  1  0.96744667  0.96744667  0.77602949  1
  S  S5  1  0.03255333  0.03255333  0.22397051  1
  S  S6  1  0.50000000  0.50000000  0.50000000  1
loop_
_geom_bond_atom_site_label_1
_geom_bond_atom_site_label_2
_geom_bond_distance
_geom_bond_site_symmetry_2
S0 Sc0 2.623710 1_555
S0 Sc1 2.670929 1_455
S0 Sc1 2.670929 1_545
S0 Tb1 2.896846 1_545
S0 Tb1 2.896846 1_455
S1 Sc1 2.623710 1_555
S1 Sc0 2.670929 1_655
S1 Sc0 2.670929 1_565
S1 Tb0 2.896846 1_655
S1 Tb0 2.896846 1_565
S2 Tb2 2.706891 1_656
S2 Tb2 2.706891 1_566
S2 Tb0 2.805895 1_565
S2 Tb0 2.805895 1_655
S2 Tb1 3.053269 1_556
S3 Tb2 2.706891 1_655
S3 Tb2 2.706891 1_565
S3 Tb1 2.805895 1_545
S3 Tb1 2.805895 1_455
S3 Tb0 3.053269 1_554
S4 Sc0 2.545035 1_665
S4 Tb2 2.687138 1_666
S4 Tb0 2.730483 1_655
S4 Tb0 2.730483 1_565
S5 Sc1 2.545035 1_445
S5 Tb2 2.687138 1_555
S5 Tb1 2.730483 1_455
S5 Tb1 2.730483 1_545
S6 Sc0 2.578908 1_565
S6 Sc0 2.578908 1_655
S6 Sc1 2.578908 1_545
S6 Sc1 2.578908 1_455
