# generated using pymatgen
data_Li2CoNiO4
_symmetry_space_group_name_H-M   'P 1'
_cell_length_a   5.06517325
_cell_length_b   5.82836947
_cell_length_c   5.88154959
_cell_angle_alpha   120.29948891
_cell_angle_beta   89.99840339
_cell_angle_gamma   73.53063256
_symmetry_Int_Tables_number   1
_chemical_formula_structural   Li2CoNiO4
_chemical_formula_sum   'Li4 Co2 Ni2 O8'
_cell_volume   141.60200473
_cell_formula_units_Z   2
loop_
 _symmetry_equiv_pos_site_id
 _symmetry_equiv_pos_as_xyz
  1  'x, y, z'
loop_
 _atom_site_type_symbol
 _atom_site_label
 _atom_site_symmetry_multiplicity
 _atom_site_fract_x
 _atom_site_fract_y
 _atom_site_fract_z
 _atom_site_occupancy
  Li  Li0  1  0.50002700  0.50000000  0.74756200  1
  Li  Li1  1  0.49997300  0.50000000  0.25243800  1
  Li  Li2  1  0.49591700  0.00380400  0.25189100  1
  Li  Li3  1  0.50408300  0.99619600  0.74810900  1
  Co  Co0  1  0.00000000  0.50000000  0.50000000  1
  Co  Co1  1  0.00000000  0.50000000  0.00000000  1
  Ni  Ni0  1  0.00000000  0.00000000  0.50000000  1
  Ni  Ni1  1  0.00000000  0.00000000  0.00000000  1
  O  O0  1  0.77079900  0.72921700  0.37860700  1
  O  O1  1  0.77080700  0.72916700  0.85062400  1
  O  O2  1  0.22920100  0.27078200  0.62139300  1
  O  O3  1  0.22919300  0.27083200  0.14937600  1
  O  O4  1  0.78212100  0.25983600  0.37996900  1
  O  O5  1  0.77716400  0.26072700  0.88035400  1
  O  O6  1  0.21787900  0.74016400  0.62003100  1
  O  O7  1  0.22283600  0.73927300  0.11964600  1
loop_
_geom_bond_atom_site_label_1
_geom_bond_atom_site_label_2
_geom_bond_distance
_geom_bond_site_symmetry_2
Li0 O1 2.062620 1_555
Li0 O2 2.063031 1_555
Li0 O4 2.118347 1_555
Li0 O6 2.118866 1_555
Li0 O5 2.124723 1_555
Li0 O7 2.124958 1_556
Li1 O3 2.062624 1_555
Li1 O0 2.063027 1_555
Li1 O6 2.118347 1_555
Li1 O4 2.118866 1_555
Li1 O7 2.124723 1_555
Li1 O5 2.124958 1_554
Li2 O2 2.089266 1_555
Li2 O3 2.089417 1_555
Li2 O7 2.212360 1_545
Li2 O4 2.233427 1_555
Li2 O1 2.234959 1_544
Li2 O0 2.235047 1_545
Li3 O0 2.089266 1_555
Li3 O1 2.089421 1_555
Li3 O5 2.212360 1_565
Li3 O6 2.233427 1_555
Li3 O3 2.234959 1_566
Li3 O2 2.235043 1_565
Co0 O6 1.885330 1_555
Co0 O4 1.885330 1_455
Co0 O0 1.930143 1_455
Co0 O2 1.930147 1_555
Co0 O3 1.930226 1_555
Co0 O1 1.930226 1_455
Co1 O7 1.901659 1_555
Co1 O5 1.901659 1_454
Co1 O1 2.051469 1_454
Co1 O3 2.051473 1_555
Co1 O2 2.051789 1_554
Co1 O0 2.051789 1_455
Ni0 O4 2.034940 1_455
Ni0 O6 2.034940 1_545
Ni0 O5 2.045679 1_455
Ni0 O7 2.045679 1_545
Ni0 O2 2.061613 1_555
Ni0 O0 2.061618 1_445
Ni1 O6 2.035422 1_544
Ni1 O4 2.035422 1_455
Ni1 O7 2.045713 1_545
Ni1 O5 2.045713 1_454
Ni1 O3 2.061793 1_555
Ni1 O1 2.061798 1_444
