# generated using pymatgen
data_In4Se3
_symmetry_space_group_name_H-M   'P 1'
_cell_length_a   4.11451074
_cell_length_b   12.48540012
_cell_length_c   15.57927383
_cell_angle_alpha   90.00000000
_cell_angle_beta   90.00000000
_cell_angle_gamma   90.00000000
_symmetry_Int_Tables_number   1
_chemical_formula_structural   In4Se3
_chemical_formula_sum   'In16 Se12'
_cell_volume   800.32775047
_cell_formula_units_Z   4
loop_
 _symmetry_equiv_pos_site_id
 _symmetry_equiv_pos_as_xyz
  1  'x, y, z'
loop_
 _atom_site_type_symbol
 _atom_site_label
 _atom_site_symmetry_multiplicity
 _atom_site_fract_x
 _atom_site_fract_y
 _atom_site_fract_z
 _atom_site_occupancy
  In  In0  1  -0.00000000  0.60692792  0.57533621  1
  In  In1  1  0.00000000  0.39307208  0.42466379  1
  In  In2  1  0.50000000  0.10692792  0.92466379  1
  In  In3  1  0.50000000  0.89307208  0.07533621  1
  In  In4  1  0.50000000  0.14388369  0.53606891  1
  In  In5  1  0.50000000  0.85611631  0.46393109  1
  In  In6  1  -0.00000000  0.64388369  0.96393109  1
  In  In7  1  0.00000000  0.35611631  0.03606891  1
  In  In8  1  0.50000000  0.02629014  0.68795186  1
  In  In9  1  0.50000000  0.97370986  0.31204814  1
  In  In10  1  0.00000000  0.52629014  0.81204814  1
  In  In11  1  -0.00000000  0.47370986  0.18795186  1
  In  In12  1  0.50000000  0.83969178  0.78924978  1
  In  In13  1  0.50000000  0.16030822  0.21075022  1
  In  In14  1  -0.00000000  0.33969178  0.71075022  1
  In  In15  1  -0.00000000  0.66030822  0.28924978  1
  Se  Se0  1  0.50000000  0.65701676  0.07071380  1
  Se  Se1  1  0.50000000  0.34298324  0.92928620  1
  Se  Se2  1  0.00000000  0.15701676  0.42928620  1
  Se  Se3  1  0.00000000  0.84298324  0.57071380  1
  Se  Se4  1  0.50000000  0.64009080  0.72949727  1
  Se  Se5  1  0.50000000  0.35990920  0.27050273  1
  Se  Se6  1  0.00000000  0.14009080  0.77050273  1
  Se  Se7  1  0.00000000  0.85990920  0.22949727  1
  Se  Se8  1  0.50000000  0.34721112  0.59877411  1
  Se  Se9  1  0.50000000  0.65278888  0.40122589  1
  Se  Se10  1  0.00000000  0.84721112  0.90122589  1
  Se  Se11  1  0.00000000  0.15278888  0.09877311  1
loop_
_geom_bond_atom_site_label_1
_geom_bond_atom_site_label_2
_geom_bond_distance
_geom_bond_site_symmetry_2
In0 Se3 2.948125 1_555
In0 Se4 3.189355 1_555
In0 Se4 3.189355 1_455
In1 Se2 2.948125 1_555
In1 Se5 3.189355 1_555
In1 Se5 3.189355 1_455
In2 Se1 2.948125 1_555
In2 Se6 3.189355 1_555
In2 Se6 3.189355 1_655
In3 Se0 2.948125 1_555
In3 Se7 3.189355 1_655
In3 Se7 3.189355 1_555
In4 Se2 2.650800 1_555
In4 Se2 2.650800 1_655
In4 Se8 2.720101 1_555
In4 In8 2.784716 1_555
In5 Se3 2.650800 1_555
In5 Se3 2.650800 1_655
In5 Se9 2.720101 1_555
In5 In9 2.784716 1_555
In6 Se0 2.650800 1_556
In6 Se0 2.650800 1_456
In6 Se10 2.720101 1_555
In7 Se1 2.650800 1_454
In7 Se1 2.650800 1_554
In7 Se11 2.720095 1_555
In8 Se6 2.811603 1_555
In8 Se6 2.811603 1_655
In9 Se7 2.811603 1_655
In9 Se7 2.811603 1_555
In10 In6 2.784716 1_555
In10 Se4 2.811603 1_455
In10 Se4 2.811603 1_555
In10 In14 2.813949 1_555
In11 In7 2.784716 1_555
In11 Se5 2.811603 1_555
In11 Se5 2.811603 1_455
In11 In15 2.813949 1_555
In12 Se4 2.660287 1_555
In12 Se10 2.698966 1_655
In12 Se10 2.698966 1_555
In12 In8 2.813949 1_565
In13 Se5 2.660287 1_555
In13 Se11 2.698976 1_655
In13 Se11 2.698976 1_555
In13 In9 2.813949 1_545
In14 Se6 2.660287 1_555
In14 Se8 2.698966 1_455
In14 Se8 2.698966 1_555
In15 Se7 2.660287 1_555
In15 Se9 2.698966 1_555
In15 Se9 2.698966 1_455
