# generated using pymatgen
data_KNb5Pb2O15
_symmetry_space_group_name_H-M   'P 1'
_cell_length_a   13.03218743
_cell_length_b   13.03218743
_cell_length_c   3.96758900
_cell_angle_alpha   90.00000000
_cell_angle_beta   90.00000000
_cell_angle_gamma   92.45202779
_symmetry_Int_Tables_number   1
_chemical_formula_structural   KNb5Pb2O15
_chemical_formula_sum   'K2 Nb10 Pb4 O30'
_cell_volume   673.23004116
_cell_formula_units_Z   2
loop_
 _symmetry_equiv_pos_site_id
 _symmetry_equiv_pos_as_xyz
  1  'x, y, z'
loop_
 _atom_site_type_symbol
 _atom_site_label
 _atom_site_symmetry_multiplicity
 _atom_site_fract_x
 _atom_site_fract_y
 _atom_site_fract_z
 _atom_site_occupancy
  K  K0  1  0.17001300  0.82998700  0.50000000  1
  K  K1  1  0.82402800  0.17597200  0.50000000  1
  Nb  Nb0  1  0.50034000  0.49966000  0.00000000  1
  Nb  Nb1  1  0.42365500  0.78228800  0.00000000  1
  Nb  Nb2  1  0.21771200  0.57634500  0.00000000  1
  Nb  Nb3  1  0.71390500  0.91670900  0.00000000  1
  Nb  Nb4  1  0.08329100  0.28609500  0.00000000  1
  Nb  Nb5  1  0.57381100  0.21162600  0.00000000  1
  Nb  Nb6  1  0.78837400  0.42618900  0.00000000  1
  Nb  Nb7  1  0.99091700  0.00908300  0.00000000  1
  Nb  Nb8  1  0.28458900  0.06665600  0.00000000  1
  Nb  Nb9  1  0.93334400  0.71541100  0.00000000  1
  Pb  Pb0  1  0.50767000  0.98564400  0.50000000  1
  Pb  Pb1  1  0.01435600  0.49233000  0.50000000  1
  Pb  Pb2  1  0.36842100  0.28248100  0.50000000  1
  Pb  Pb3  1  0.71751900  0.63157900  0.50000000  1
  O  O0  1  0.14453500  0.01038400  0.00000000  1
  O  O1  1  0.98961600  0.85546500  0.00000000  1
  O  O2  1  0.98768300  0.01231700  0.50000000  1
  O  O3  1  0.49175100  0.50824900  0.50000000  1
  O  O4  1  0.48382300  0.35329000  0.00000000  1
  O  O5  1  0.64671000  0.51617700  0.00000000  1
  O  O6  1  0.28213100  0.71786900  0.00000000  1
  O  O7  1  0.21082500  0.22944600  0.00000000  1
  O  O8  1  0.77055400  0.78917500  0.00000000  1
  O  O9  1  0.29059300  0.09307100  0.50000000  1
  O  O10  1  0.90692900  0.70940700  0.50000000  1
  O  O11  1  0.62990100  0.08271800  0.00000000  1
  O  O12  1  0.91728200  0.37009900  0.00000000  1
  O  O13  1  0.34732300  0.94203800  0.00000000  1
  O  O14  1  0.05796200  0.65267700  0.00000000  1
  O  O15  1  0.55621600  0.22146300  0.50000000  1
  O  O16  1  0.77853700  0.44378400  0.50000000  1
  O  O17  1  0.83345000  0.00762100  0.00000000  1
  O  O18  1  0.99237900  0.16655000  0.00000000  1
  O  O19  1  0.68922700  0.93158600  0.50000000  1
  O  O20  1  0.06841400  0.31077300  0.50000000  1
  O  O21  1  0.41651000  0.80991400  0.50000000  1
  O  O22  1  0.19008600  0.58349000  0.50000000  1
  O  O23  1  0.49441600  0.66426400  0.00000000  1
  O  O24  1  0.33573600  0.50558400  0.00000000  1
  O  O25  1  0.55303300  0.88049000  0.00000000  1
  O  O26  1  0.11951000  0.44696700  0.00000000  1
  O  O27  1  0.70414200  0.29585800  0.00000000  1
  O  O28  1  0.41897300  0.16096200  0.00000000  1
  O  O29  1  0.83903800  0.58102700  0.00000000  1
loop_
_geom_bond_atom_site_label_1
_geom_bond_atom_site_label_2
_geom_bond_distance
_geom_bond_site_symmetry_2
K0 O6 2.896204 1_556
K0 O6 2.896204 1_555
K0 O1 3.104759 1_456
K0 O1 3.104759 1_455
K0 O0 3.104759 1_565
K0 O0 3.104759 1_566
K1 O18 2.964309 1_555
K1 O18 2.964309 1_556
K1 O17 2.964309 1_555
K1 O17 2.964309 1_556
K1 O27 3.004389 1_556
K1 O27 3.004389 1_555
K1 O2 3.080056 1_555
Nb0 O4 1.910455 1_555
Nb0 O5 1.910455 1_555
Nb0 O3 1.990370 1_555
Nb0 O3 1.990370 1_554
Nb0 O24 2.149837 1_555
Nb0 O23 2.149837 1_555
Nb1 O23 1.826896 1_555
Nb1 O6 1.993489 1_555
Nb1 O21 2.019059 1_555
Nb1 O21 2.019059 1_554
Nb1 O25 2.072698 1_555
Nb1 O13 2.345433 1_555
Nb2 O24 1.826896 1_555
Nb2 O6 1.993489 1_555
Nb2 O22 2.019059 1_555
Nb2 O22 2.019059 1_554
Nb2 O26 2.072698 1_555
Nb2 O14 2.345433 1_555
Nb3 O8 1.847274 1_555
Nb3 O17 1.916488 1_565
Nb3 O19 2.020346 1_555
Nb3 O19 2.020346 1_554
Nb3 O25 2.129200 1_555
Nb3 O11 2.466112 1_565
Nb4 O7 1.847274 1_555
Nb4 O18 1.916488 1_455
Nb4 O20 2.020346 1_554
Nb4 O20 2.020346 1_555
Nb4 O26 2.129200 1_555
Nb4 O12 2.466112 1_455
Nb5 O11 1.860549 1_555
Nb5 O27 1.982515 1_555
Nb5 O15 2.001742 1_555
Nb5 O15 2.001742 1_554
Nb5 O28 2.096134 1_555
Nb5 O4 2.229126 1_555
Nb6 O12 1.860549 1_555
Nb6 O27 1.982515 1_555
Nb6 O16 2.001742 1_555
Nb6 O16 2.001742 1_554
Nb6 O29 2.096134 1_555
Nb6 O5 2.229126 1_555
Nb7 O2 1.984728 1_554
Nb7 O2 1.984728 1_555
Nb7 O1 2.001325 1_545
Nb7 O0 2.001325 1_655
Nb7 O17 2.051413 1_555
Nb7 O18 2.051413 1_555
Nb8 O13 1.849200 1_545
Nb8 O0 1.937694 1_555
Nb8 O9 2.014389 1_554
Nb8 O9 2.014389 1_555
Nb8 O28 2.096048 1_555
Nb8 O7 2.366309 1_555
Nb9 O14 1.849200 1_655
Nb9 O1 1.937694 1_555
Nb9 O10 2.014389 1_554
Nb9 O10 2.014389 1_555
Nb9 O29 2.096048 1_555
Nb9 O8 2.366309 1_555
O4 Pb2 2.632504 1_555
O4 Pb2 2.632504 1_554
O5 Pb3 2.632504 1_554
O5 Pb3 2.632504 1_555
O9 Pb2 2.628240 1_555
O10 Pb3 2.628240 1_555
O15 Pb2 2.605481 1_555
O16 Pb3 2.605481 1_555
O19 Pb0 2.497458 1_555
O20 Pb1 2.497458 1_555
O21 Pb0 2.534432 1_555
O22 Pb1 2.534432 1_555
O25 Pb0 2.496440 1_555
O25 Pb0 2.496440 1_554
O26 Pb1 2.496440 1_554
O26 Pb1 2.496440 1_555
O28 Pb2 2.639452 1_555
O28 Pb2 2.639452 1_554
O29 Pb3 2.639452 1_555
O29 Pb3 2.639452 1_554
