# generated using pymatgen
data_MgGa
_symmetry_space_group_name_H-M   'P 1'
_cell_length_a   6.41166408
_cell_length_b   6.41166408
_cell_length_c   18.21636000
_cell_angle_alpha   90.00000000
_cell_angle_beta   90.00000000
_cell_angle_gamma   120.00000085
_symmetry_Int_Tables_number   1
_chemical_formula_structural   MgGa
_chemical_formula_sum   'Mg16 Ga16'
_cell_volume   648.53549459
_cell_formula_units_Z   16
loop_
 _symmetry_equiv_pos_site_id
 _symmetry_equiv_pos_as_xyz
  1  'x, y, z'
loop_
 _atom_site_type_symbol
 _atom_site_label
 _atom_site_symmetry_multiplicity
 _atom_site_fract_x
 _atom_site_fract_y
 _atom_site_fract_z
 _atom_site_occupancy
  Mg  Mg0_0  1  0.16666650  0.33333350  0.31906750  1
  Mg  Mg0_1  1  0.16666650  0.33333350  0.81906750  1
  Mg  Mg0_2  1  0.16666650  0.83333350  0.31906750  1
  Mg  Mg0_3  1  0.16666650  0.83333350  0.81906750  1
  Mg  Mg0_4  1  0.66666650  0.33333350  0.31906750  1
  Mg  Mg0_5  1  0.66666650  0.33333350  0.81906750  1
  Mg  Mg0_6  1  0.66666650  0.83333350  0.31906750  1
  Mg  Mg0_7  1  0.66666650  0.83333350  0.81906750  1
  Mg  Mg1_0  1  0.33333350  0.16666650  0.18093250  1
  Mg  Mg1_1  1  0.33333350  0.16666650  0.68093250  1
  Mg  Mg1_2  1  0.33333350  0.66666650  0.18093250  1
  Mg  Mg1_3  1  0.33333350  0.66666650  0.68093250  1
  Mg  Mg1_4  1  0.83333350  0.16666650  0.18093250  1
  Mg  Mg1_5  1  0.83333350  0.16666650  0.68093250  1
  Mg  Mg1_6  1  0.83333350  0.66666650  0.18093250  1
  Mg  Mg1_7  1  0.83333350  0.66666650  0.68093250  1
  Ga  Ga0_0  1  0.33333350  0.16666650  0.44359700  1
  Ga  Ga0_1  1  0.33333350  0.16666650  0.94359700  1
  Ga  Ga0_2  1  0.33333350  0.66666650  0.44359700  1
  Ga  Ga0_3  1  0.33333350  0.66666650  0.94359700  1
  Ga  Ga0_4  1  0.83333350  0.16666650  0.44359700  1
  Ga  Ga0_5  1  0.83333350  0.16666650  0.94359700  1
  Ga  Ga0_6  1  0.83333350  0.66666650  0.44359700  1
  Ga  Ga0_7  1  0.83333350  0.66666650  0.94359700  1
  Ga  Ga1_0  1  0.16666650  0.33333350  0.05640300  1
  Ga  Ga1_1  1  0.16666650  0.33333350  0.55640300  1
  Ga  Ga1_2  1  0.16666650  0.83333350  0.05640300  1
  Ga  Ga1_3  1  0.16666650  0.83333350  0.55640300  1
  Ga  Ga1_4  1  0.66666650  0.33333350  0.05640300  1
  Ga  Ga1_5  1  0.66666650  0.33333350  0.55640300  1
  Ga  Ga1_6  1  0.66666650  0.83333350  0.05640300  1
  Ga  Ga1_7  1  0.66666650  0.83333350  0.55640300  1
loop_
_geom_bond_atom_site_label_1
_geom_bond_atom_site_label_2
_geom_bond_distance
_geom_bond_site_symmetry_2
Mg0_0 Mg1_2 3.123721 1_555
Mg0_0 Mg1_4 3.123721 1_455
Mg0_0 Mg1_0 3.123724 1_555
Mg0_0 Mg0_6 3.205832 1_555
Mg0_0 Mg0_6 3.205832 1_445
Mg0_0 Mg0_4 3.205832 1_555
Mg0_0 Mg0_2 3.205832 1_555
Mg0_0 Mg0_2 3.205832 1_545
Mg0_0 Mg0_4 3.205832 1_455
Mg0_1 Mg1_3 3.123721 1_555
Mg0_1 Mg1_5 3.123721 1_455
Mg0_1 Mg1_1 3.123724 1_555
Mg0_1 Mg0_7 3.205832 1_555
Mg0_1 Mg0_7 3.205832 1_445
Mg0_1 Mg0_5 3.205832 1_555
Mg0_1 Mg0_3 3.205832 1_555
Mg0_1 Mg0_5 3.205832 1_455
Mg0_1 Mg0_3 3.205832 1_545
Mg0_2 Mg1_0 3.123721 1_565
Mg0_2 Mg1_6 3.123721 1_455
Mg0_2 Mg1_2 3.123724 1_555
Mg0_2 Mg0_4 3.205832 1_565
Mg0_2 Mg0_4 3.205832 1_455
Mg0_2 Mg0_6 3.205832 1_555
Mg0_2 Mg0_6 3.205832 1_455
Mg0_3 Mg1_1 3.123721 1_565
Mg0_3 Mg1_7 3.123721 1_455
Mg0_3 Mg1_3 3.123724 1_555
Mg0_3 Mg0_5 3.205832 1_565
Mg0_3 Mg0_5 3.205832 1_455
Mg0_3 Mg0_7 3.205832 1_555
Mg0_3 Mg0_7 3.205832 1_455
Mg0_4 Mg1_0 3.123721 1_555
Mg0_4 Mg1_6 3.123721 1_555
Mg0_4 Mg1_4 3.123724 1_555
Mg0_4 Mg0_6 3.205832 1_545
Mg0_4 Mg0_6 3.205832 1_555
Mg0_5 Mg1_7 3.123721 1_555
Mg0_5 Mg1_1 3.123721 1_555
Mg0_5 Mg1_5 3.123724 1_555
Mg0_5 Mg0_7 3.205832 1_545
Mg0_5 Mg0_7 3.205832 1_555
Mg0_6 Mg1_2 3.123721 1_555
Mg0_6 Mg1_4 3.123721 1_565
Mg0_6 Mg1_6 3.123724 1_555
Mg0_7 Mg1_3 3.123721 1_555
Mg0_7 Mg1_5 3.123721 1_565
Mg0_7 Mg1_7 3.123724 1_555
Mg1_0 Mg1_6 3.205832 1_555
Mg1_0 Mg1_6 3.205832 1_445
Mg1_0 Mg1_4 3.205832 1_555
Mg1_0 Mg1_2 3.205832 1_545
Mg1_0 Mg1_4 3.205832 1_455
Mg1_0 Mg1_2 3.205832 1_555
Mg1_1 Mg1_7 3.205832 1_555
Mg1_1 Mg1_7 3.205832 1_445
Mg1_1 Mg1_3 3.205832 1_545
Mg1_1 Mg1_5 3.205832 1_555
Mg1_1 Mg1_3 3.205832 1_555
Mg1_1 Mg1_5 3.205832 1_455
Mg1_2 Mg1_4 3.205832 1_455
Mg1_2 Mg1_4 3.205832 1_565
Mg1_2 Mg1_6 3.205832 1_555
Mg1_2 Mg1_6 3.205832 1_455
Mg1_3 Mg1_5 3.205832 1_565
Mg1_3 Mg1_5 3.205832 1_455
Mg1_3 Mg1_7 3.205832 1_555
Mg1_3 Mg1_7 3.205832 1_455
Mg1_4 Mg1_6 3.205832 1_555
Mg1_4 Mg1_6 3.205832 1_545
Mg1_5 Mg1_7 3.205832 1_555
Mg1_5 Mg1_7 3.205832 1_545
Ga0_0 Ga1_5 2.765584 1_555
Ga0_0 Ga1_3 2.765584 1_545
Ga0_0 Ga1_1 2.765588 1_555
Ga0_0 Mg0_4 2.927756 1_555
Ga0_0 Mg0_2 2.927756 1_545
Ga0_0 Mg0_0 2.927759 1_555
Ga0_1 Ga1_2 2.765584 1_546
Ga0_1 Ga1_4 2.765584 1_556
Ga0_1 Ga1_0 2.765588 1_556
Ga0_1 Mg0_5 2.927756 1_555
Ga0_1 Mg0_3 2.927756 1_545
Ga0_1 Mg0_1 2.927759 1_555
Ga0_2 Ga1_7 2.765584 1_555
Ga0_2 Ga1_1 2.765584 1_555
Ga0_2 Ga1_3 2.765588 1_555
Ga0_2 Mg0_6 2.927756 1_555
Ga0_2 Mg0_0 2.927756 1_555
Ga0_2 Mg0_2 2.927759 1_555
Ga0_3 Ga1_6 2.765584 1_556
Ga0_3 Ga1_0 2.765584 1_556
Ga0_3 Ga1_2 2.765588 1_556
Ga0_3 Mg0_7 2.927756 1_555
Ga0_3 Mg0_1 2.927756 1_555
Ga0_3 Mg0_3 2.927759 1_555
Ga0_4 Ga1_1 2.765584 1_655
Ga0_4 Ga1_7 2.765584 1_545
Ga0_4 Ga1_5 2.765588 1_555
Ga0_4 Mg0_6 2.927756 1_545
Ga0_4 Mg0_0 2.927756 1_655
Ga0_4 Mg0_4 2.927759 1_555
Ga0_5 Ga1_0 2.765584 1_656
Ga0_5 Ga1_6 2.765584 1_546
Ga0_5 Ga1_4 2.765588 1_556
Ga0_5 Mg0_7 2.927756 1_545
Ga0_5 Mg0_1 2.927756 1_655
Ga0_5 Mg0_5 2.927759 1_555
Ga0_6 Ga1_5 2.765584 1_555
Ga0_6 Ga1_3 2.765584 1_655
Ga0_6 Ga1_7 2.765588 1_555
Ga0_6 Mg0_4 2.927756 1_555
Ga0_6 Mg0_2 2.927756 1_655
Ga0_6 Mg0_6 2.927759 1_555
Ga0_7 Ga1_4 2.765584 1_556
Ga0_7 Ga1_2 2.765584 1_656
Ga0_7 Ga1_6 2.765588 1_556
Ga0_7 Mg0_5 2.927756 1_555
Ga0_7 Mg0_3 2.927756 1_655
Ga0_7 Mg0_7 2.927759 1_555
Ga1_0 Mg1_4 2.927756 1_455
Ga1_0 Mg1_2 2.927756 1_555
Ga1_0 Mg1_0 2.927759 1_555
Ga1_1 Mg1_3 2.927756 1_555
Ga1_1 Mg1_5 2.927756 1_455
Ga1_1 Mg1_1 2.927759 1_555
Ga1_2 Mg1_0 2.927756 1_565
Ga1_2 Mg1_6 2.927756 1_455
Ga1_2 Mg1_2 2.927759 1_555
Ga1_3 Mg1_1 2.927756 1_565
Ga1_3 Mg1_7 2.927756 1_455
Ga1_3 Mg1_3 2.927759 1_555
Ga1_4 Mg1_0 2.927756 1_555
Ga1_4 Mg1_6 2.927756 1_555
Ga1_4 Mg1_4 2.927759 1_555
Ga1_5 Mg1_1 2.927756 1_555
Ga1_5 Mg1_7 2.927756 1_555
Ga1_5 Mg1_5 2.927759 1_555
Ga1_6 Mg1_2 2.927756 1_555
Ga1_6 Mg1_4 2.927756 1_565
Ga1_6 Mg1_6 2.927759 1_555
Ga1_7 Mg1_3 2.927756 1_555
Ga1_7 Mg1_5 2.927756 1_565
Ga1_7 Mg1_7 2.927759 1_555
