# generated using pymatgen
data_Cr8Fe3N8
_symmetry_space_group_name_H-M   'P 1'
_cell_length_a   8.25784194
_cell_length_b   3.93618883
_cell_length_c   6.02882136
_cell_angle_alpha   90.00000425
_cell_angle_beta   71.21801343
_cell_angle_gamma   76.21199255
_symmetry_Int_Tables_number   1
_chemical_formula_structural   Cr8Fe3N8
_chemical_formula_sum   'Cr8 Fe3 N8'
_cell_volume   179.55370969
_cell_formula_units_Z   1
loop_
 _symmetry_equiv_pos_site_id
 _symmetry_equiv_pos_as_xyz
  1  'x, y, z'
loop_
 _atom_site_type_symbol
 _atom_site_label
 _atom_site_symmetry_multiplicity
 _atom_site_fract_x
 _atom_site_fract_y
 _atom_site_fract_z
 _atom_site_occupancy
  Cr  Cr0  1  0.06313012  0.96843444  0.73699522  1
  Cr  Cr1  1  0.93686988  0.03156556  0.26300478  1
  Cr  Cr2  1  0.69658173  0.65170913  0.46999042  1
  Cr  Cr3  1  0.30341827  0.34829087  0.53000958  1
  Cr  Cr4  1  0.81900374  0.59049813  0.95470365  1
  Cr  Cr5  1  0.18099626  0.40950187  0.04529635  1
  Cr  Cr6  1  0.56418872  0.21790614  0.83839419  1
  Cr  Cr7  1  0.43581128  0.78209386  0.16160581  1
  Fe  Fe0  1  -0.00000000  0.50000000  0.50000000  1
  Fe  Fe1  1  0.36725074  0.81637463  0.78407243  1
  Fe  Fe2  1  0.63274926  0.18362537  0.21592757  1
  N  N0  1  0.20813955  0.89593072  0.09154724  1
  N  N1  1  0.79186045  0.10406928  0.90845276  1
  N  N2  1  0.31079969  0.84460066  0.51196933  1
  N  N3  1  0.68920031  0.15539934  0.48803067  1
  N  N4  1  0.59921569  0.70039215  0.81807867  1
  N  N5  1  0.40078431  0.29960785  0.18192133  1
  N  N6  1  0.06953228  0.46523436  0.76908080  1
  N  N7  1  0.93046772  0.53476564  0.23091920  1
loop_
_geom_bond_atom_site_label_1
_geom_bond_atom_site_label_2
_geom_bond_distance
_geom_bond_site_symmetry_2
Cr0 N6 1.979904 1_555
Cr0 N6 1.979912 1_565
Cr0 N2 1.999777 1_555
Cr0 N1 2.076164 1_465
Cr1 N7 1.979904 1_555
Cr1 N7 1.979912 1_545
Cr1 N3 1.999777 1_555
Cr1 N0 2.076164 1_645
Cr2 N7 1.950188 1_555
Cr2 N3 1.970901 1_565
Cr2 N3 1.970905 1_555
Cr2 N4 1.981714 1_555
Cr3 N6 1.950188 1_555
Cr3 N2 1.970901 1_545
Cr3 N2 1.970905 1_555
Cr3 N5 1.981714 1_555
Cr4 N6 1.948960 1_655
Cr4 N1 2.009670 1_565
Cr4 N1 2.009673 1_555
Cr4 N7 2.135227 1_556
Cr4 N4 2.179025 1_555
Cr5 N7 1.948960 1_455
Cr5 N0 2.009670 1_545
Cr5 N0 2.009673 1_555
Cr5 N6 2.135227 1_554
Cr5 N5 2.179025 1_555
Cr6 N4 1.986073 1_555
Cr6 N4 1.986078 1_545
Cr6 N1 2.005905 1_555
Cr6 N3 2.015625 1_555
Cr6 N5 2.051125 1_556
Cr7 N5 1.986073 1_555
Cr7 N5 1.986078 1_565
Cr7 N0 2.005905 1_555
Cr7 N2 2.015625 1_555
Cr7 N4 2.051125 1_554
Fe0 N6 1.882135 1_555
Fe0 N7 1.882135 1_455
Fe1 N2 1.840791 1_555
Fe1 N0 1.869806 1_556
Fe1 N4 1.937977 1_555
Fe2 N3 1.840791 1_555
Fe2 N1 1.869806 1_554
Fe2 N5 1.937977 1_555
