# generated using pymatgen
data_Cs2CdP2O7
_symmetry_space_group_name_H-M   'P 1'
_cell_length_a   5.57197500
_cell_length_b   10.24531700
_cell_length_c   16.90896400
_cell_angle_alpha   90.00000000
_cell_angle_beta   90.00000000
_cell_angle_gamma   90.00000000
_symmetry_Int_Tables_number   1
_chemical_formula_structural   Cs2CdP2O7
_chemical_formula_sum   'Cs8 Cd4 P8 O28'
_cell_volume   965.27611296
_cell_formula_units_Z   4
loop_
 _symmetry_equiv_pos_site_id
 _symmetry_equiv_pos_as_xyz
  1  'x, y, z'
loop_
 _atom_site_type_symbol
 _atom_site_label
 _atom_site_symmetry_multiplicity
 _atom_site_fract_x
 _atom_site_fract_y
 _atom_site_fract_z
 _atom_site_occupancy
  Cs  Cs0  1  0.25000000  0.35219500  0.92161800  1
  Cs  Cs1  1  0.25000000  0.14780500  0.42161800  1
  Cs  Cs2  1  0.75000000  0.64780500  0.07838200  1
  Cs  Cs3  1  0.75000000  0.85219500  0.57838200  1
  Cs  Cs4  1  0.25000000  0.47613600  0.61043200  1
  Cs  Cs5  1  0.25000000  0.02386400  0.11043200  1
  Cs  Cs6  1  0.75000000  0.52386400  0.38956800  1
  Cs  Cs7  1  0.75000000  0.97613600  0.88956800  1
  Cd  Cd0  1  0.25000000  0.11186200  0.68928300  1
  Cd  Cd1  1  0.25000000  0.38813800  0.18928300  1
  Cd  Cd2  1  0.75000000  0.88813800  0.31071700  1
  Cd  Cd3  1  0.75000000  0.61186200  0.81071700  1
  P  P0  1  0.75000000  0.23356200  0.58864400  1
  P  P1  1  0.75000000  0.26643800  0.08864400  1
  P  P2  1  0.25000000  0.76643800  0.41135600  1
  P  P3  1  0.25000000  0.73356200  0.91135600  1
  P  P4  1  0.75000000  0.27202100  0.76262100  1
  P  P5  1  0.75000000  0.22797900  0.26262100  1
  P  P6  1  0.25000000  0.72797900  0.23737900  1
  P  P7  1  0.25000000  0.77202100  0.73737900  1
  O  O0  1  0.75000000  0.32429800  0.67100000  1
  O  O1  1  0.75000000  0.17570200  0.17100000  1
  O  O2  1  0.25000000  0.67570200  0.32900000  1
  O  O3  1  0.25000000  0.82429800  0.82900000  1
  O  O4  1  0.52165000  0.19100300  0.77650200  1
  O  O5  1  0.97835000  0.30899700  0.27650200  1
  O  O6  1  0.02165000  0.80899700  0.22349800  1
  O  O7  1  0.47835000  0.69100300  0.72349800  1
  O  O8  1  0.47835000  0.80899700  0.22349800  1
  O  O9  1  0.02165000  0.69100300  0.72349800  1
  O  O10  1  0.97835000  0.19100300  0.77650200  1
  O  O11  1  0.52165000  0.30899700  0.27650200  1
  O  O12  1  0.75000000  0.39678700  0.81235900  1
  O  O13  1  0.75000000  0.10321300  0.31235900  1
  O  O14  1  0.25000000  0.60321300  0.18764100  1
  O  O15  1  0.25000000  0.89678700  0.68764100  1
  O  O16  1  0.52091500  0.15003900  0.59156300  1
  O  O17  1  0.97908500  0.34996100  0.09156300  1
  O  O18  1  0.02091500  0.84996100  0.40843700  1
  O  O19  1  0.47908500  0.65003900  0.90843700  1
  O  O20  1  0.47908500  0.84996100  0.40843700  1
  O  O21  1  0.02091500  0.65003900  0.90843700  1
  O  O22  1  0.97908500  0.15003900  0.59156300  1
  O  O23  1  0.52091500  0.34996100  0.09156300  1
  O  O24  1  0.75000000  0.33571600  0.52337500  1
  O  O25  1  0.75000000  0.16428400  0.02337500  1
  O  O26  1  0.25000000  0.66428400  0.47662500  1
  O  O27  1  0.25000000  0.83571600  0.97662500  1
loop_
_geom_bond_atom_site_label_1
_geom_bond_atom_site_label_2
_geom_bond_distance
_geom_bond_site_symmetry_2
Cs0 O23 3.246036 1_556
Cs0 O17 3.246036 1_456
Cs0 O19 3.315223 1_555
Cs0 O21 3.315223 1_555
Cs0 O4 3.322550 1_555
Cs0 O10 3.322550 1_455
Cs0 O12 3.373951 1_555
Cs0 O12 3.373951 1_455
Cs1 O22 3.246036 1_455
Cs1 O16 3.246036 1_555
Cs1 O18 3.315223 1_545
Cs1 O20 3.315223 1_545
Cs1 O11 3.322550 1_555
Cs1 O5 3.322550 1_455
Cs1 O13 3.373951 1_455
Cs1 O13 3.373951 1_555
Cs2 O19 3.246036 1_554
Cs2 O21 3.246036 1_654
Cs2 O17 3.315223 1_555
Cs2 O23 3.315223 1_555
Cs2 O6 3.322550 1_655
Cs2 O8 3.322550 1_555
Cs2 O14 3.373951 1_655
Cs2 O14 3.373951 1_555
Cs3 O18 3.246036 1_655
Cs3 O20 3.246036 1_555
Cs3 O16 3.315223 1_565
Cs3 O22 3.315223 1_565
Cs3 O9 3.322550 1_655
Cs3 O7 3.322550 1_555
Cs3 O15 3.373951 1_555
Cs3 O15 3.373951 1_655
Cs4 O26 2.972349 1_555
Cs4 O9 3.181205 1_555
Cs4 O7 3.181205 1_555
Cs4 O0 3.351205 1_455
Cs4 O0 3.351205 1_555
Cs4 O24 3.463863 1_555
Cs4 O24 3.463863 1_455
Cs5 O27 2.972349 1_544
Cs5 O6 3.181205 1_545
Cs5 O8 3.181205 1_545
Cs5 O1 3.351205 1_455
Cs5 O1 3.351205 1_555
Cs5 O25 3.463863 1_555
Cs5 O25 3.463863 1_455
Cs6 O24 2.972349 1_555
Cs6 O5 3.181205 1_555
Cs6 O11 3.181205 1_555
Cs6 O2 3.351205 1_555
Cs6 O2 3.351205 1_655
Cs6 O26 3.463863 1_555
Cs6 O26 3.463863 1_655
Cs7 O25 2.972349 1_566
Cs7 O10 3.181205 1_565
Cs7 O4 3.181205 1_565
Cs7 O3 3.351205 1_555
Cs7 O3 3.351205 1_655
Cs7 O27 3.463863 1_555
Cs7 O27 3.463863 1_655
Cd0 O15 2.203686 1_545
Cd0 O10 2.263512 1_455
Cd0 O4 2.263512 1_555
Cd0 O22 2.271984 1_455
Cd0 O16 2.271984 1_555
Cd1 O14 2.203686 1_555
Cd1 O5 2.263512 1_455
Cd1 O11 2.263512 1_555
Cd1 O17 2.271984 1_455
Cd1 O23 2.271984 1_555
Cd2 O13 2.203686 1_565
Cd2 O6 2.263512 1_655
Cd2 O8 2.263512 1_555
Cd2 O18 2.271984 1_655
Cd2 O20 2.271984 1_555
Cd3 O12 2.203686 1_555
Cd3 O7 2.263512 1_555
Cd3 O9 2.263512 1_655
Cd3 O21 2.271984 1_655
Cd3 O19 2.271984 1_555
O0 P4 1.639186 1_555
O0 P0 1.674336 1_555
O1 P5 1.639186 1_555
O1 P1 1.674336 1_555
O2 P6 1.639186 1_555
O2 P2 1.674336 1_555
O3 P7 1.639186 1_555
O3 P3 1.674336 1_555
O4 P4 1.537200 1_555
O5 P5 1.537200 1_555
O6 P6 1.537200 1_555
O7 P7 1.537200 1_555
O8 P6 1.537200 1_555
O9 P7 1.537200 1_555
O10 P4 1.537200 1_555
O11 P5 1.537200 1_555
O12 P4 1.530124 1_555
O13 P5 1.530124 1_555
O14 P6 1.530124 1_555
O15 P7 1.530124 1_555
O16 P0 1.537541 1_555
O17 P1 1.537541 1_555
O18 P2 1.537541 1_555
O19 P3 1.537541 1_555
O20 P2 1.537541 1_555
O21 P3 1.537541 1_555
O22 P0 1.537541 1_555
O23 P1 1.537541 1_555
O24 P0 1.520978 1_555
O25 P1 1.520978 1_555
O26 P2 1.520978 1_555
O27 P3 1.520978 1_555
