# generated using pymatgen
data_Sr6Ce2Y4Fe3(CuO8)3
_symmetry_space_group_name_H-M   'P 1'
_cell_length_a   5.46253423
_cell_length_b   8.63788521
_cell_length_c   13.21954205
_cell_angle_alpha   97.48488953
_cell_angle_beta   78.07633634
_cell_angle_gamma   71.56695314
_symmetry_Int_Tables_number   1
_chemical_formula_structural   Sr6Ce2Y4Fe3(CuO8)3
_chemical_formula_sum   'Sr6 Ce2 Y4 Fe3 Cu3 O24'
_cell_volume   565.98987671
_cell_formula_units_Z   1
loop_
 _symmetry_equiv_pos_site_id
 _symmetry_equiv_pos_as_xyz
  1  'x, y, z'
loop_
 _atom_site_type_symbol
 _atom_site_label
 _atom_site_symmetry_multiplicity
 _atom_site_fract_x
 _atom_site_fract_y
 _atom_site_fract_z
 _atom_site_occupancy
  Sr  Sr0  1  0.73086500  0.64589800  0.39237200  1
  Sr  Sr1  1  0.41271300  0.28236100  0.39221400  1
  Sr  Sr2  1  0.07382400  0.96307100  0.38928200  1
  Sr  Sr3  1  0.10194300  0.68646000  0.60965400  1
  Sr  Sr4  1  0.75204600  0.38605800  0.60985000  1
  Sr  Sr5  1  0.42739500  0.03670400  0.60850500  1
  Ce  Ce0  1  0.56578700  0.46491400  0.90351000  1
  Ce  Ce1  1  0.89642600  0.80354000  0.90360900  1
  Y  Y0  1  0.26554000  0.86891800  0.10000200  1
  Y  Y1  1  0.60205200  0.19748100  0.09841400  1
  Y  Y2  1  0.93386900  0.53289000  0.09937400  1
  Y  Y3  1  0.23159800  0.13458900  0.90221500  1
  Fe  Fe0  1  0.99348200  0.25352600  0.25951000  1
  Fe  Fe1  1  0.32735600  0.58615000  0.25913700  1
  Fe  Fe2  1  0.84176100  0.07872400  0.73775400  1
  Cu  Cu0  1  0.66727400  0.91624400  0.24920900  1
  Cu  Cu1  1  0.16630900  0.41597600  0.75140700  1
  Cu  Cu2  1  0.49817400  0.75217200  0.75148000  1
  O  O0  1  0.22587200  0.63908300  0.40917400  1
  O  O1  1  0.89492200  0.30062400  0.40953300  1
  O  O2  1  0.55693600  0.97139600  0.41473100  1
  O  O3  1  0.61208000  0.69325800  0.58258000  1
  O  O4  1  0.27781400  0.36204000  0.58233200  1
  O  O5  1  0.94078900  0.02972300  0.58870000  1
  O  O6  1  0.83049400  0.33493800  0.99961500  1
  O  O7  1  0.50345800  0.99798100  0.99920800  1
  O  O8  1  0.16733000  0.66649200  0.99936900  1
  O  O9  1  0.66681000  0.66649200  0.99936900  1
  O  O10  1  0.33495300  0.33493800  0.99961500  1
  O  O11  1  0.99935300  0.99798100  0.99920800  1
  O  O12  1  0.68449800  0.40789100  0.22351800  1
  O  O13  1  0.34554400  0.07723900  0.22524300  1
  O  O14  1  0.02074300  0.73923200  0.22498300  1
  O  O15  1  0.14638200  0.92761800  0.77544300  1
  O  O16  1  0.81667200  0.59165600  0.77453000  1
  O  O17  1  0.48642900  0.25605200  0.77581600  1
  O  O18  1  0.31714200  0.59165600  0.77453000  1
  O  O19  1  0.98170400  0.25605200  0.77581600  1
  O  O20  1  0.65055600  0.92761800  0.77544300  1
  O  O21  1  0.51504000  0.73923200  0.22498300  1
  O  O22  1  0.18409200  0.40789100  0.22351800  1
  O  O23  1  0.85197500  0.07723900  0.22524300  1
loop_
_geom_bond_atom_site_label_1
_geom_bond_atom_site_label_2
_geom_bond_distance
_geom_bond_site_symmetry_2
Ce0 O10 2.251545 1_555
Ce0 O6 2.251551 1_555
Ce0 O8 2.294313 1_555
Ce0 O9 2.294323 1_555
Ce0 O17 2.509153 1_555
Ce0 O19 2.509162 1_555
Ce0 O18 2.540371 1_555
Ce0 O16 2.540377 1_555
Ce1 O11 2.252101 1_555
Ce1 O7 2.252104 1_555
Ce1 O8 2.291386 1_655
Ce1 O9 2.291386 1_555
Ce1 O15 2.515201 1_655
Ce1 O20 2.515207 1_555
Ce1 O18 2.539486 1_655
Ce1 O16 2.539489 1_555
Fe0 O1 1.897014 1_555
Fe0 O23 1.957247 1_555
Fe0 O13 1.957251 1_655
Fe0 O22 1.981662 1_655
Fe0 O12 1.981665 1_555
Fe1 O0 1.897215 1_555
Fe1 O21 1.955766 1_555
Fe1 O14 1.955770 1_555
Fe1 O22 1.982547 1_555
Fe1 O12 1.982547 1_555
Fe2 O5 1.884630 1_555
Fe2 O15 1.964506 1_645
Fe2 O20 1.964509 1_545
Fe2 O17 1.970377 1_555
Fe2 O19 1.970381 1_555
Cu0 O14 1.979515 1_655
Cu0 O21 1.979526 1_555
Cu0 O13 1.980467 1_565
Cu0 O23 1.980467 1_565
Cu0 O2 2.092844 1_555
Cu1 O18 1.961894 1_555
Cu1 O16 1.961898 1_455
Cu1 O17 1.972791 1_555
Cu1 O19 1.972791 1_455
Cu1 O4 2.137850 1_555
Cu2 O16 1.961080 1_555
Cu2 O18 1.961080 1_555
Cu2 O20 1.967624 1_555
Cu2 O15 1.967628 1_555
Cu2 O3 2.135672 1_555
O0 Sr3 2.539778 1_555
O0 Sr2 2.720852 1_555
O0 Sr0 2.741399 1_555
O0 Sr0 2.741404 1_455
O0 Sr1 2.884989 1_555
O1 Sr4 2.537474 1_555
O1 Sr2 2.723020 1_645
O1 Sr1 2.741946 1_555
O1 Sr1 2.741946 1_655
O1 Sr0 2.884365 1_555
O2 Sr5 2.450069 1_565
O2 Sr0 2.621709 1_555
O2 Sr1 2.625121 1_565
O2 Sr2 2.750151 1_555
O2 Sr2 2.750162 1_655
O3 Sr0 2.408498 1_555
O3 Sr4 2.614574 1_555
O3 Sr3 2.755675 1_555
O3 Sr3 2.755686 1_655
O3 Sr5 2.763292 1_565
O4 Sr1 2.407608 1_555
O4 Sr3 2.607051 1_555
O4 Sr4 2.756033 1_455
O4 Sr4 2.756033 1_555
O4 Sr5 2.757299 1_555
O5 Sr2 2.521422 1_645
O5 Sr5 2.742719 1_655
O5 Sr5 2.742730 1_555
O5 Sr4 2.874882 1_555
O5 Sr3 2.882253 1_645
O6 Y3 2.304193 1_655
O6 Y2 2.304905 1_556
O6 Y1 2.310915 1_556
O7 Y1 2.295560 1_566
O7 Y0 2.301091 1_556
O7 Y3 2.305349 1_565
O8 Y2 2.310288 1_456
O8 Y0 2.323150 1_556
O9 Y2 2.310291 1_556
O9 Y0 2.323154 1_556
O10 Y3 2.304193 1_555
O10 Y2 2.304898 1_456
O10 Y1 2.310911 1_556
O11 Y1 2.295563 1_566
O11 Y0 2.301091 1_656
O11 Y3 2.305349 1_665
O12 Y2 2.486504 1_555
O12 Y1 2.506700 1_555
O12 Sr1 2.938209 1_555
O12 Sr0 2.939507 1_555
O13 Y0 2.488022 1_545
O13 Y1 2.501282 1_555
O13 Sr1 2.805874 1_555
O13 Sr2 2.833884 1_545
O14 Y2 2.499736 1_455
O14 Y0 2.507849 1_555
O14 Sr0 2.806791 1_455
O14 Sr2 2.839113 1_555
O15 Y3 2.507884 1_565
O15 Sr5 2.858505 1_565
O15 Sr3 2.924339 1_555
O16 Sr3 2.778137 1_655
O16 Sr4 2.779325 1_555
O17 Y3 2.499950 1_555
O17 Sr5 2.859224 1_555
O17 Sr4 2.921781 1_555
O18 Sr3 2.778137 1_555
O18 Sr4 2.779325 1_555
O19 Y3 2.499947 1_655
O19 Sr5 2.859218 1_655
O19 Sr4 2.921783 1_555
O20 Y3 2.507881 1_565
O20 Sr5 2.858505 1_565
O20 Sr3 2.924341 1_655
O21 Y2 2.499748 1_555
O21 Y0 2.507843 1_555
O21 Sr0 2.806797 1_555
O21 Sr2 2.839106 1_555
O22 Y2 2.486495 1_455
O22 Y1 2.506700 1_555
O22 Sr1 2.938214 1_555
O22 Sr0 2.939505 1_455
O23 Y0 2.488019 1_645
O23 Y1 2.501288 1_555
O23 Sr1 2.805874 1_555
O23 Sr2 2.833884 1_645
