# generated using pymatgen
data_Mg2Bi
_symmetry_space_group_name_H-M   'P 1'
_cell_length_a   13.42131894
_cell_length_b   13.42131894
_cell_length_c   15.08129422
_cell_angle_alpha   73.65797882
_cell_angle_beta   73.65797882
_cell_angle_gamma   28.98943601
_symmetry_Int_Tables_number   1
_chemical_formula_structural   Mg2Bi
_chemical_formula_sum   'Mg32 Bi16'
_cell_volume   1259.77881463
_cell_formula_units_Z   16
loop_
 _symmetry_equiv_pos_site_id
 _symmetry_equiv_pos_as_xyz
  1  'x, y, z'
loop_
 _atom_site_type_symbol
 _atom_site_label
 _atom_site_symmetry_multiplicity
 _atom_site_fract_x
 _atom_site_fract_y
 _atom_site_fract_z
 _atom_site_occupancy
  Mg  Mg0_0  1  0.15405750  0.15405750  0.06460550  1
  Mg  Mg0_1  1  0.15405750  0.15405750  0.56460550  1
  Mg  Mg0_2  1  0.15405750  0.65405750  0.06460550  1
  Mg  Mg0_3  1  0.15405750  0.65405750  0.56460550  1
  Mg  Mg0_4  1  0.65405750  0.15405750  0.06460550  1
  Mg  Mg0_5  1  0.65405750  0.15405750  0.56460550  1
  Mg  Mg0_6  1  0.65405750  0.65405750  0.06460550  1
  Mg  Mg0_7  1  0.65405750  0.65405750  0.56460550  1
  Mg  Mg1_0  1  0.01406550  0.01406550  0.09103500  1
  Mg  Mg1_1  1  0.01406550  0.01406550  0.59103500  1
  Mg  Mg1_2  1  0.01406550  0.51406550  0.09103500  1
  Mg  Mg1_3  1  0.01406550  0.51406550  0.59103500  1
  Mg  Mg1_4  1  0.51406550  0.01406550  0.09103500  1
  Mg  Mg1_5  1  0.51406550  0.01406550  0.59103500  1
  Mg  Mg1_6  1  0.51406550  0.51406550  0.09103500  1
  Mg  Mg1_7  1  0.51406550  0.51406550  0.59103500  1
  Mg  Mg2_0  1  0.48593450  0.48593450  0.40896500  1
  Mg  Mg2_1  1  0.48593450  0.48593450  0.90896500  1
  Mg  Mg2_2  1  0.48593450  0.98593450  0.40896500  1
  Mg  Mg2_3  1  0.48593450  0.98593450  0.90896500  1
  Mg  Mg2_4  1  0.98593450  0.48593450  0.40896500  1
  Mg  Mg2_5  1  0.98593450  0.48593450  0.90896500  1
  Mg  Mg2_6  1  0.98593450  0.98593450  0.40896500  1
  Mg  Mg2_7  1  0.98593450  0.98593450  0.90896500  1
  Mg  Mg3_0  1  0.34594250  0.34594250  0.43539450  1
  Mg  Mg3_1  1  0.34594250  0.34594250  0.93539450  1
  Mg  Mg3_2  1  0.34594250  0.84594250  0.43539450  1
  Mg  Mg3_3  1  0.34594250  0.84594250  0.93539450  1
  Mg  Mg3_4  1  0.84594250  0.34594250  0.43539450  1
  Mg  Mg3_5  1  0.84594250  0.34594250  0.93539450  1
  Mg  Mg3_6  1  0.84594250  0.84594250  0.43539450  1
  Mg  Mg3_7  1  0.84594250  0.84594250  0.93539450  1
  Bi  Bi0_0  1  0.31584450  0.31584450  0.23721900  1
  Bi  Bi0_1  1  0.31584450  0.31584450  0.73721900  1
  Bi  Bi0_2  1  0.31584450  0.81584450  0.23721900  1
  Bi  Bi0_3  1  0.31584450  0.81584450  0.73721900  1
  Bi  Bi0_4  1  0.81584450  0.31584450  0.23721900  1
  Bi  Bi0_5  1  0.81584450  0.31584450  0.73721900  1
  Bi  Bi0_6  1  0.81584450  0.81584450  0.23721900  1
  Bi  Bi0_7  1  0.81584450  0.81584450  0.73721900  1
  Bi  Bi1_0  1  0.18415550  0.18415550  0.26278100  1
  Bi  Bi1_1  1  0.18415550  0.18415550  0.76278100  1
  Bi  Bi1_2  1  0.18415550  0.68415550  0.26278100  1
  Bi  Bi1_3  1  0.18415550  0.68415550  0.76278100  1
  Bi  Bi1_4  1  0.68415550  0.18415550  0.26278100  1
  Bi  Bi1_5  1  0.68415550  0.18415550  0.76278100  1
  Bi  Bi1_6  1  0.68415550  0.68415550  0.26278100  1
  Bi  Bi1_7  1  0.68415550  0.68415550  0.76278100  1
loop_
_geom_bond_atom_site_label_1
_geom_bond_atom_site_label_2
_geom_bond_distance
_geom_bond_site_symmetry_2
Mg0_0 Mg2_3 3.155215 1_544
Mg0_0 Mg2_5 3.155215 1_454
Mg0_0 Mg3_5 3.257314 1_454
Mg0_0 Mg3_3 3.257314 1_544
Mg0_0 Mg0_6 3.359232 1_455
Mg0_0 Mg0_6 3.359232 1_545
Mg0_0 Mg1_4 3.437402 1_555
Mg0_0 Mg1_2 3.437402 1_555
Mg0_0 Mg1_0 3.542897 1_555
Mg0_1 Mg2_4 3.155215 1_455
Mg0_1 Mg2_2 3.155215 1_545
Mg0_1 Mg3_4 3.257314 1_455
Mg0_1 Mg3_2 3.257314 1_545
Mg0_1 Mg0_7 3.359232 1_545
Mg0_1 Mg0_7 3.359232 1_455
Mg0_1 Mg1_5 3.437402 1_555
Mg0_1 Mg1_3 3.437402 1_555
Mg0_1 Mg1_1 3.542897 1_555
Mg0_2 Mg2_1 3.155215 1_554
Mg0_2 Mg2_7 3.155215 1_454
Mg0_2 Mg3_7 3.257314 1_454
Mg0_2 Mg3_1 3.257314 1_554
Mg0_2 Mg0_4 3.359232 1_555
Mg0_2 Mg0_4 3.359232 1_465
Mg0_2 Mg1_6 3.437402 1_555
Mg0_2 Mg1_0 3.437402 1_565
Mg0_2 Mg1_2 3.542897 1_555
Mg0_3 Mg2_0 3.155215 1_555
Mg0_3 Mg2_6 3.155215 1_455
Mg0_3 Mg3_0 3.257314 1_555
Mg0_3 Mg3_6 3.257314 1_455
Mg0_3 Mg0_5 3.359232 1_465
Mg0_3 Mg0_5 3.359232 1_555
Mg0_3 Mg1_1 3.437402 1_565
Mg0_3 Mg1_7 3.437402 1_555
Mg0_3 Mg1_3 3.542897 1_555
Mg0_4 Mg2_1 3.155215 1_554
Mg0_4 Mg2_7 3.155215 1_544
Mg0_4 Mg3_7 3.257314 1_544
Mg0_4 Mg3_1 3.257314 1_554
Mg0_4 Mg1_6 3.437402 1_555
Mg0_4 Mg1_0 3.437402 1_655
Mg0_4 Mg1_4 3.542897 1_555
Mg0_5 Mg2_0 3.155215 1_555
Mg0_5 Mg2_6 3.155215 1_545
Mg0_5 Mg3_0 3.257314 1_555
Mg0_5 Mg3_6 3.257314 1_545
Mg0_5 Mg1_1 3.437402 1_655
Mg0_5 Mg1_7 3.437402 1_555
Mg0_5 Mg1_5 3.542897 1_555
Mg0_6 Mg2_3 3.155215 1_554
Mg0_6 Mg2_5 3.155215 1_554
Mg0_6 Mg3_3 3.257314 1_554
Mg0_6 Mg3_5 3.257314 1_554
Mg0_6 Mg1_4 3.437402 1_565
Mg0_6 Mg1_2 3.437402 1_655
Mg0_6 Mg1_6 3.542897 1_555
Mg0_7 Mg2_2 3.155215 1_555
Mg0_7 Mg2_4 3.155215 1_555
Mg0_7 Mg3_4 3.257314 1_555
Mg0_7 Mg3_2 3.257314 1_555
Mg0_7 Mg1_3 3.437402 1_655
Mg0_7 Mg1_5 3.437402 1_565
Mg0_7 Mg1_7 3.542897 1_555
Mg1_0 Mg2_7 3.039896 1_444
Mg1_0 Mg3_3 3.155215 1_544
Mg1_0 Mg3_5 3.155215 1_454
Mg1_0 Mg1_6 3.359232 1_545
Mg1_0 Mg1_6 3.359232 1_455
Mg1_1 Mg2_6 3.039896 1_445
Mg1_1 Mg3_2 3.155215 1_545
Mg1_1 Mg3_4 3.155215 1_455
Mg1_1 Mg1_7 3.359232 1_455
Mg1_1 Mg1_7 3.359232 1_545
Mg1_2 Mg2_5 3.039896 1_454
Mg1_2 Mg3_1 3.155215 1_554
Mg1_2 Mg3_7 3.155215 1_454
Mg1_2 Mg1_4 3.359232 1_465
Mg1_2 Mg1_4 3.359232 1_555
Mg1_3 Mg2_4 3.039896 1_455
Mg1_3 Mg3_6 3.155215 1_455
Mg1_3 Mg3_0 3.155215 1_555
Mg1_3 Mg1_5 3.359232 1_465
Mg1_3 Mg1_5 3.359232 1_555
Mg1_4 Mg2_3 3.039896 1_544
Mg1_4 Mg3_1 3.155215 1_554
Mg1_4 Mg3_7 3.155215 1_544
Mg1_5 Mg2_2 3.039896 1_545
Mg1_5 Mg3_6 3.155215 1_545
Mg1_5 Mg3_0 3.155215 1_555
Mg1_6 Mg2_1 3.039896 1_554
Mg1_6 Mg3_5 3.155215 1_554
Mg1_6 Mg3_3 3.155215 1_554
Mg1_7 Mg2_0 3.039896 1_555
Mg1_7 Mg3_4 3.155215 1_555
Mg1_7 Mg3_2 3.155215 1_555
Mg2_0 Mg2_6 3.359232 1_455
Mg2_0 Mg2_6 3.359232 1_545
Mg2_0 Mg3_4 3.437402 1_555
Mg2_0 Mg3_2 3.437402 1_555
Mg2_0 Mg3_0 3.542897 1_555
Mg2_1 Mg2_7 3.359232 1_545
Mg2_1 Mg2_7 3.359232 1_455
Mg2_1 Mg3_5 3.437402 1_555
Mg2_1 Mg3_3 3.437402 1_555
Mg2_1 Mg3_1 3.542897 1_555
Mg2_2 Mg2_4 3.359232 1_555
Mg2_2 Mg2_4 3.359232 1_465
Mg2_2 Mg3_6 3.437402 1_555
Mg2_2 Mg3_0 3.437402 1_565
Mg2_2 Mg3_2 3.542897 1_555
Mg2_3 Mg2_5 3.359232 1_555
Mg2_3 Mg2_5 3.359232 1_465
Mg2_3 Mg3_1 3.437402 1_565
Mg2_3 Mg3_7 3.437402 1_555
Mg2_3 Mg3_3 3.542897 1_555
Mg2_4 Mg3_6 3.437402 1_555
Mg2_4 Mg3_0 3.437402 1_655
Mg2_4 Mg3_4 3.542897 1_555
Mg2_5 Mg3_1 3.437402 1_655
Mg2_5 Mg3_7 3.437402 1_555
Mg2_5 Mg3_5 3.542897 1_555
Mg2_6 Mg3_2 3.437402 1_655
Mg2_6 Mg3_4 3.437402 1_565
Mg2_6 Mg3_6 3.542897 1_555
Mg2_7 Mg3_5 3.437402 1_565
Mg2_7 Mg3_3 3.437402 1_655
Mg2_7 Mg3_7 3.542897 1_555
Mg3_0 Mg3_6 3.359232 1_545
Mg3_0 Mg3_6 3.359232 1_455
Mg3_1 Mg3_7 3.359232 1_545
Mg3_1 Mg3_7 3.359232 1_455
Mg3_2 Mg3_4 3.359232 1_555
Mg3_2 Mg3_4 3.359232 1_465
Mg3_3 Mg3_5 3.359232 1_555
Mg3_3 Mg3_5 3.359232 1_465
Bi0_0 Mg2_4 3.273569 1_455
Bi0_0 Mg2_2 3.273569 1_545
Bi0_0 Mg3_0 3.302004 1_555
Bi0_0 Bi1_0 3.330819 1_555
Bi0_0 Mg1_4 3.349131 1_555
Bi0_0 Mg1_2 3.349131 1_555
Bi0_0 Bi0_6 3.359232 1_545
Bi0_0 Bi0_6 3.359232 1_455
Bi0_0 Mg0_4 3.374123 1_555
Bi0_0 Mg0_2 3.374123 1_555
Bi0_0 Bi1_4 3.621111 1_555
Bi0_0 Bi1_2 3.621111 1_555
Bi0_1 Mg2_5 3.273569 1_455
Bi0_1 Mg2_3 3.273569 1_545
Bi0_1 Mg3_1 3.302004 1_555
Bi0_1 Bi1_1 3.330819 1_555
Bi0_1 Mg1_3 3.349131 1_555
Bi0_1 Mg1_5 3.349131 1_555
Bi0_1 Bi0_7 3.359232 1_545
Bi0_1 Bi0_7 3.359232 1_455
Bi0_1 Mg0_3 3.374123 1_555
Bi0_1 Mg0_5 3.374123 1_555
Bi0_1 Bi1_5 3.621111 1_555
Bi0_1 Bi1_3 3.621111 1_555
Bi0_2 Mg2_6 3.273569 1_455
Bi0_2 Mg2_0 3.273569 1_555
Bi0_2 Mg3_2 3.302004 1_555
Bi0_2 Bi1_2 3.330819 1_555
Bi0_2 Mg1_0 3.349131 1_565
Bi0_2 Mg1_6 3.349131 1_555
Bi0_2 Bi0_4 3.359232 1_465
Bi0_2 Bi0_4 3.359232 1_555
Bi0_2 Mg0_6 3.374123 1_555
Bi0_2 Mg0_0 3.374123 1_565
Bi0_2 Bi1_6 3.621111 1_555
Bi0_2 Bi1_0 3.621111 1_565
Bi0_3 Mg2_1 3.273569 1_555
Bi0_3 Mg2_7 3.273569 1_455
Bi0_3 Mg3_3 3.302004 1_555
Bi0_3 Bi1_3 3.330819 1_555
Bi0_3 Mg1_7 3.349131 1_555
Bi0_3 Mg1_1 3.349131 1_565
Bi0_3 Bi0_5 3.359232 1_465
Bi0_3 Bi0_5 3.359232 1_555
Bi0_3 Mg0_1 3.374123 1_565
Bi0_3 Mg0_7 3.374123 1_555
Bi0_3 Bi1_7 3.621111 1_555
Bi0_3 Bi1_1 3.621111 1_565
Bi0_4 Mg2_6 3.273569 1_545
Bi0_4 Mg2_0 3.273569 1_555
Bi0_4 Mg3_4 3.302004 1_555
Bi0_4 Bi1_4 3.330819 1_555
Bi0_4 Mg1_0 3.349131 1_655
Bi0_4 Mg1_6 3.349131 1_555
Bi0_4 Mg0_0 3.374123 1_655
Bi0_4 Mg0_6 3.374123 1_555
Bi0_4 Bi1_6 3.621111 1_555
Bi0_4 Bi1_0 3.621111 1_655
Bi0_5 Mg2_1 3.273569 1_555
Bi0_5 Mg2_7 3.273569 1_545
Bi0_5 Mg3_5 3.302004 1_555
Bi0_5 Bi1_5 3.330819 1_555
Bi0_5 Mg1_7 3.349131 1_555
Bi0_5 Mg1_1 3.349131 1_655
Bi0_5 Mg0_1 3.374123 1_655
Bi0_5 Mg0_7 3.374123 1_555
Bi0_5 Bi1_7 3.621111 1_555
Bi0_5 Bi1_1 3.621111 1_655
Bi0_6 Mg2_2 3.273569 1_555
Bi0_6 Mg2_4 3.273569 1_555
Bi0_6 Mg3_6 3.302004 1_555
Bi0_6 Bi1_6 3.330819 1_555
Bi0_6 Mg1_4 3.349131 1_565
Bi0_6 Mg1_2 3.349131 1_655
Bi0_6 Mg0_4 3.374123 1_565
Bi0_6 Mg0_2 3.374123 1_655
Bi0_6 Bi1_4 3.621111 1_565
Bi0_6 Bi1_2 3.621111 1_655
Bi0_7 Mg2_3 3.273569 1_555
Bi0_7 Mg2_5 3.273569 1_555
Bi0_7 Mg3_7 3.302004 1_555
Bi0_7 Bi1_7 3.330819 1_555
Bi0_7 Mg1_3 3.349131 1_655
Bi0_7 Mg1_5 3.349131 1_565
Bi0_7 Mg0_3 3.374123 1_655
Bi0_7 Mg0_5 3.374123 1_565
Bi0_7 Bi1_3 3.621111 1_655
Bi0_7 Bi1_5 3.621111 1_565
Bi1_0 Mg1_2 3.273569 1_555
Bi1_0 Mg1_4 3.273569 1_555
Bi1_0 Mg0_0 3.302004 1_555
Bi1_0 Mg2_2 3.349131 1_545
Bi1_0 Mg2_4 3.349131 1_455
Bi1_0 Bi1_6 3.359232 1_545
Bi1_0 Bi1_6 3.359232 1_455
Bi1_0 Mg3_2 3.374123 1_545
Bi1_0 Mg3_4 3.374123 1_455
Bi1_1 Mg1_5 3.273569 1_555
Bi1_1 Mg1_3 3.273569 1_555
Bi1_1 Mg0_1 3.302004 1_555
Bi1_1 Mg2_3 3.349131 1_545
Bi1_1 Mg2_5 3.349131 1_455
Bi1_1 Bi1_7 3.359232 1_455
Bi1_1 Bi1_7 3.359232 1_545
Bi1_1 Mg3_5 3.374123 1_455
Bi1_1 Mg3_3 3.374123 1_545
Bi1_2 Mg1_6 3.273569 1_555
Bi1_2 Mg1_0 3.273569 1_565
Bi1_2 Mg0_2 3.302004 1_555
Bi1_2 Mg2_0 3.349131 1_555
Bi1_2 Mg2_6 3.349131 1_455
Bi1_2 Bi1_4 3.359232 1_555
Bi1_2 Bi1_4 3.359232 1_465
Bi1_2 Mg3_0 3.374123 1_555
Bi1_2 Mg3_6 3.374123 1_455
Bi1_3 Mg1_1 3.273569 1_565
Bi1_3 Mg1_7 3.273569 1_555
Bi1_3 Mg0_3 3.302004 1_555
Bi1_3 Mg2_7 3.349131 1_455
Bi1_3 Mg2_1 3.349131 1_555
Bi1_3 Bi1_5 3.359232 1_555
Bi1_3 Bi1_5 3.359232 1_465
Bi1_3 Mg3_7 3.374123 1_455
Bi1_3 Mg3_1 3.374123 1_555
Bi1_4 Mg1_6 3.273569 1_555
Bi1_4 Mg1_0 3.273569 1_655
Bi1_4 Mg0_4 3.302004 1_555
Bi1_4 Mg2_0 3.349131 1_555
Bi1_4 Mg2_6 3.349131 1_545
Bi1_4 Mg3_0 3.374123 1_555
Bi1_4 Mg3_6 3.374123 1_545
Bi1_5 Mg1_1 3.273569 1_655
Bi1_5 Mg1_7 3.273569 1_555
Bi1_5 Mg0_5 3.302004 1_555
Bi1_5 Mg2_7 3.349131 1_545
Bi1_5 Mg2_1 3.349131 1_555
Bi1_5 Mg3_7 3.374123 1_545
Bi1_5 Mg3_1 3.374123 1_555
Bi1_6 Mg1_4 3.273569 1_565
Bi1_6 Mg1_2 3.273569 1_655
Bi1_6 Mg0_6 3.302004 1_555
Bi1_6 Mg2_2 3.349131 1_555
Bi1_6 Mg2_4 3.349131 1_555
Bi1_6 Mg3_2 3.374123 1_555
Bi1_6 Mg3_4 3.374123 1_555
Bi1_7 Mg1_5 3.273569 1_565
Bi1_7 Mg1_3 3.273569 1_655
Bi1_7 Mg0_7 3.302004 1_555
Bi1_7 Mg2_5 3.349131 1_555
Bi1_7 Mg2_3 3.349131 1_555
Bi1_7 Mg3_5 3.374123 1_555
Bi1_7 Mg3_3 3.374123 1_555
