# generated using pymatgen
data_Sr4LaTi5O15
_symmetry_space_group_name_H-M   'P 1'
_cell_length_a   8.83356508
_cell_length_b   8.83356508
_cell_length_c   6.84162570
_cell_angle_alpha   75.04614325
_cell_angle_beta   75.04614325
_cell_angle_gamma   36.89161878
_symmetry_Int_Tables_number   1
_chemical_formula_structural   Sr4LaTi5O15
_chemical_formula_sum   'Sr4 La1 Ti5 O15'
_cell_volume   308.39631841
_cell_formula_units_Z   1
loop_
 _symmetry_equiv_pos_site_id
 _symmetry_equiv_pos_as_xyz
  1  'x, y, z'
loop_
 _atom_site_type_symbol
 _atom_site_label
 _atom_site_symmetry_multiplicity
 _atom_site_fract_x
 _atom_site_fract_y
 _atom_site_fract_z
 _atom_site_occupancy
  Sr  Sr0  1  0.60045800  0.60045800  0.59977800  1
  Sr  Sr1  1  0.20034700  0.20034700  0.20013100  1
  Sr  Sr2  1  0.79965300  0.79965300  0.79986900  1
  Sr  Sr3  1  0.39954200  0.39954200  0.40022200  1
  La  La0  1  0.00000000  0.00000000  0.00000000  1
  Ti  Ti0  1  0.20068800  0.20068800  0.69821100  1
  Ti  Ti1  1  0.79931200  0.79931200  0.30178900  1
  Ti  Ti2  1  0.39907000  0.39907000  0.90031700  1
  Ti  Ti3  1  0.00000000  0.00000000  0.50000000  1
  Ti  Ti4  1  0.60093000  0.60093000  0.09968300  1
  O  O0  1  0.39364400  0.90103600  0.90151600  1
  O  O1  1  0.00000000  0.50000000  0.50000000  1
  O  O2  1  0.60635600  0.09896400  0.09848400  1
  O  O3  1  0.19720100  0.70456600  0.70460200  1
  O  O4  1  0.80279900  0.29543400  0.29539800  1
  O  O5  1  0.29990000  0.29990000  0.80077700  1
  O  O6  1  0.90168500  0.90168500  0.39414400  1
  O  O7  1  0.50000000  0.50000000  0.00000000  1
  O  O8  1  0.09831500  0.09831500  0.60585600  1
  O  O9  1  0.70010000  0.70010000  0.19922300  1
  O  O10  1  0.50000000  0.00000000  0.50000000  1
  O  O11  1  0.09896400  0.60635600  0.09848400  1
  O  O12  1  0.70456600  0.19720100  0.70460200  1
  O  O13  1  0.29543400  0.80279900  0.29539800  1
  O  O14  1  0.90103600  0.39364400  0.90151600  1
loop_
_geom_bond_atom_site_label_1
_geom_bond_atom_site_label_2
_geom_bond_distance
_geom_bond_site_symmetry_2
La0 O0 2.746297 1_544
La0 O14 2.746297 1_454
La0 O2 2.746297 1_455
La0 O11 2.746297 1_545
La0 O13 2.750095 1_545
La0 O4 2.750095 1_455
La0 O3 2.750095 1_544
La0 O12 2.750095 1_454
La0 O6 2.751231 1_445
La0 O8 2.751231 1_554
La0 O7 2.795007 1_455
La0 O7 2.795007 1_545
O0 Ti4 1.969929 1_556
O0 Ti0 1.988271 1_565
O0 Sr0 2.787943 1_555
O0 Sr1 2.801104 1_566
O0 Sr2 2.836411 1_555
O1 Ti1 1.966031 1_455
O1 Ti0 1.966031 1_555
O1 Sr3 2.787382 1_555
O1 Sr0 2.787382 1_455
O1 Sr2 2.789861 1_455
O1 Sr1 2.789861 1_555
O2 Ti2 1.969929 1_554
O2 Ti1 1.988271 1_545
O2 Sr3 2.787943 1_555
O2 Sr2 2.801104 1_544
O2 Sr1 2.836411 1_555
O3 Ti3 1.976385 1_565
O3 Ti2 1.981264 1_555
O3 Sr0 2.798433 1_555
O3 Sr2 2.801052 1_455
O3 Sr3 2.839508 1_555
O4 Ti3 1.976385 1_655
O4 Ti4 1.981264 1_555
O4 Sr3 2.798433 1_555
O4 Sr1 2.801052 1_655
O4 Sr0 2.839508 1_555
O5 Ti2 1.960081 1_555
O5 Ti0 1.972783 1_555
O5 Sr1 2.787256 1_556
O5 Sr3 2.794469 1_555
O5 Sr2 2.795019 1_455
O5 Sr2 2.795019 1_545
O6 Ti3 1.971963 1_665
O6 Ti1 1.983105 1_555
O6 Sr3 2.795402 1_565
O6 Sr3 2.795402 1_655
O6 Sr2 2.836712 1_555
O7 Ti4 1.988466 1_555
O7 Ti2 1.988466 1_554
O7 Sr3 2.797166 1_555
O7 Sr0 2.797166 1_554
O8 Ti3 1.971963 1_555
O8 Ti0 1.983105 1_555
O8 Sr0 2.795402 1_545
O8 Sr0 2.795402 1_455
O8 Sr1 2.836712 1_555
O9 Ti4 1.960081 1_555
O9 Ti1 1.972783 1_555
O9 Sr2 2.787256 1_554
O9 Sr0 2.794469 1_555
O9 Sr1 2.795019 1_655
O9 Sr1 2.795019 1_565
O10 Ti1 1.966031 1_545
O10 Ti0 1.966031 1_555
O10 Sr3 2.787382 1_555
O10 Sr0 2.787382 1_545
O10 Sr2 2.789861 1_545
O10 Sr1 2.789861 1_555
O11 Ti2 1.969929 1_554
O11 Ti1 1.988271 1_455
O11 Sr3 2.787943 1_555
O11 Sr2 2.801104 1_454
O11 Sr1 2.836411 1_555
O12 Ti3 1.976385 1_655
O12 Ti2 1.981264 1_555
O12 Sr0 2.798433 1_555
O12 Sr2 2.801052 1_545
O12 Sr3 2.839508 1_555
O13 Ti3 1.976385 1_565
O13 Ti4 1.981264 1_555
O13 Sr3 2.798433 1_555
O13 Sr1 2.801052 1_565
O13 Sr0 2.839508 1_555
O14 Ti4 1.969929 1_556
O14 Ti0 1.988271 1_655
O14 Sr0 2.787943 1_555
O14 Sr1 2.801104 1_656
O14 Sr2 2.836411 1_555
