# generated using pymatgen
data_NaSbNO4F3
_symmetry_space_group_name_H-M   'P 1'
_cell_length_a   5.75554400
_cell_length_b   11.68845200
_cell_length_c   18.00063200
_cell_angle_alpha   90.00000000
_cell_angle_beta   90.00000000
_cell_angle_gamma   90.00000000
_symmetry_Int_Tables_number   1
_chemical_formula_structural   NaSbNO4F3
_chemical_formula_sum   'Na8 Sb8 N8 O32 F24'
_cell_volume   1210.96371279
_cell_formula_units_Z   8
loop_
 _symmetry_equiv_pos_site_id
 _symmetry_equiv_pos_as_xyz
  1  'x, y, z'
loop_
 _atom_site_type_symbol
 _atom_site_label
 _atom_site_symmetry_multiplicity
 _atom_site_fract_x
 _atom_site_fract_y
 _atom_site_fract_z
 _atom_site_occupancy
  Na  Na0  1  0.31101400  0.86900900  0.98535700  1
  Na  Na1  1  0.68898600  0.63099100  0.48535700  1
  Na  Na2  1  0.18898600  0.36900900  0.01464300  1
  Na  Na3  1  0.81101400  0.13099100  0.51464300  1
  Na  Na4  1  0.68898600  0.13099100  0.01464300  1
  Na  Na5  1  0.31101400  0.36900900  0.51464300  1
  Na  Na6  1  0.81101400  0.63099100  0.98535700  1
  Na  Na7  1  0.18898600  0.86900900  0.48535700  1
  Sb  Sb0  1  0.65568600  0.40017100  0.86586900  1
  Sb  Sb1  1  0.34431400  0.09982900  0.36586900  1
  Sb  Sb2  1  0.84431400  0.90017100  0.13413100  1
  Sb  Sb3  1  0.15568600  0.59982900  0.63413100  1
  Sb  Sb4  1  0.34431400  0.59982900  0.13413100  1
  Sb  Sb5  1  0.65568600  0.90017100  0.63413100  1
  Sb  Sb6  1  0.15568600  0.09982900  0.86586900  1
  Sb  Sb7  1  0.84431400  0.40017100  0.36586900  1
  N  N0  1  0.22607200  0.36575000  0.75942200  1
  N  N1  1  0.77392800  0.13425000  0.25942200  1
  N  N2  1  0.27392800  0.86575000  0.24057800  1
  N  N3  1  0.72607200  0.63425000  0.74057800  1
  N  N4  1  0.77392800  0.63425000  0.24057800  1
  N  N5  1  0.22607200  0.86575000  0.74057800  1
  N  N6  1  0.72607200  0.13425000  0.75942200  1
  N  N7  1  0.27392800  0.36575000  0.25942200  1
  O  O0  1  0.64805300  0.29094200  0.58980900  1
  O  O1  1  0.35194700  0.20905800  0.08980900  1
  O  O2  1  0.85194700  0.79094200  0.41019100  1
  O  O3  1  0.14805300  0.70905800  0.91019100  1
  O  O4  1  0.35194700  0.70905800  0.41019100  1
  O  O5  1  0.64805300  0.79094200  0.91019100  1
  O  O6  1  0.14805300  0.20905800  0.58980900  1
  O  O7  1  0.85194700  0.29094200  0.08980900  1
  O  O8  1  0.35621300  0.43496100  0.72516500  1
  O  O9  1  0.64378700  0.06503900  0.22516500  1
  O  O10  1  0.14378700  0.93496100  0.27483500  1
  O  O11  1  0.85621300  0.56503900  0.77483500  1
  O  O12  1  0.64378700  0.56503900  0.27483500  1
  O  O13  1  0.35621300  0.93496100  0.77483500  1
  O  O14  1  0.85621300  0.06503900  0.72516500  1
  O  O15  1  0.14378700  0.43496100  0.22516500  1
  O  O16  1  0.26464700  0.34789100  0.82977300  1
  O  O17  1  0.73535300  0.15210900  0.32977300  1
  O  O18  1  0.23535300  0.84789100  0.17022700  1
  O  O19  1  0.76464700  0.65210900  0.67022700  1
  O  O20  1  0.73535300  0.65210900  0.17022700  1
  O  O21  1  0.26464700  0.84789100  0.67022700  1
  O  O22  1  0.76464700  0.15210900  0.82977300  1
  O  O23  1  0.23535300  0.34789100  0.32977300  1
  O  O24  1  0.06178300  0.31402700  0.72966500  1
  O  O25  1  0.93821700  0.18597300  0.22966500  1
  O  O26  1  0.43821700  0.81402700  0.27033500  1
  O  O27  1  0.56178300  0.68597300  0.77033500  1
  O  O28  1  0.93821700  0.68597300  0.27033500  1
  O  O29  1  0.06178300  0.81402700  0.77033500  1
  O  O30  1  0.56178300  0.18597300  0.72966500  1
  O  O31  1  0.43821700  0.31402700  0.22966500  1
  F  F0  1  0.52660900  0.30589400  0.94932500  1
  F  F1  1  0.47339100  0.19410600  0.44932500  1
  F  F2  1  0.97339100  0.80589400  0.05067500  1
  F  F3  1  0.02660900  0.69410600  0.55067500  1
  F  F4  1  0.47339100  0.69410600  0.05067500  1
  F  F5  1  0.52660900  0.80589400  0.55067500  1
  F  F6  1  0.02660900  0.19410600  0.94932500  1
  F  F7  1  0.97339100  0.30589400  0.44932500  1
  F  F8  1  0.49551800  0.53198200  0.90906100  1
  F  F9  1  0.50448200  0.96801800  0.40906100  1
  F  F10  1  0.00448200  0.03198200  0.09093900  1
  F  F11  1  0.99551800  0.46801800  0.59093900  1
  F  F12  1  0.50448200  0.46801800  0.09093900  1
  F  F13  1  0.49551800  0.03198200  0.59093900  1
  F  F14  1  0.99551800  0.96801800  0.90906100  1
  F  F15  1  0.00448200  0.53198200  0.40906100  1
  F  F16  1  0.90393700  0.44584200  0.93953500  1
  F  F17  1  0.09606300  0.05415800  0.43953500  1
  F  F18  1  0.59606300  0.94584200  0.06046500  1
  F  F19  1  0.40393700  0.55415800  0.56046500  1
  F  F20  1  0.09606300  0.55415800  0.06046500  1
  F  F21  1  0.90393700  0.94584200  0.56046500  1
  F  F22  1  0.40393700  0.05415800  0.93953500  1
  F  F23  1  0.59606300  0.44584200  0.43953500  1
loop_
_geom_bond_atom_site_label_1
_geom_bond_atom_site_label_2
_geom_bond_distance
_geom_bond_site_symmetry_2
Na0 O3 2.491133 1_555
Na0 O5 2.535019 1_555
Na1 O2 2.491133 1_555
Na1 O4 2.535019 1_555
Na2 O1 2.491133 1_555
Na2 O7 2.535019 1_455
Na3 O0 2.491133 1_555
Na3 O6 2.535019 1_655
Na4 O7 2.491133 1_555
Na4 O1 2.535019 1_555
Na5 O6 2.491133 1_555
Na5 O0 2.535019 1_555
Na6 O5 2.491133 1_555
Na6 O3 2.535019 1_655
Na7 O4 2.491133 1_555
Na7 O2 2.535019 1_455
N0 O24 1.243591 1_555
N0 O8 1.263224 1_555
N0 O16 1.302513 1_555
N1 O25 1.243591 1_555
N1 O9 1.263224 1_555
N1 O17 1.302513 1_555
N2 O26 1.243591 1_555
N2 O10 1.263224 1_555
N2 O18 1.302513 1_555
N3 O27 1.243591 1_555
N3 O11 1.263224 1_555
N3 O19 1.302513 1_555
N4 O28 1.243591 1_555
N4 O12 1.263224 1_555
N4 O20 1.302513 1_555
N5 O29 1.243591 1_555
N5 O13 1.263224 1_555
N5 O21 1.302513 1_555
N6 O30 1.243591 1_555
N6 O14 1.263224 1_555
N6 O22 1.302513 1_555
N7 O31 1.243591 1_555
N7 O15 1.263224 1_555
N7 O23 1.302513 1_555
O16 Sb0 2.420945 1_555
O17 Sb1 2.420945 1_555
O18 Sb2 2.420945 1_455
O19 Sb3 2.420945 1_655
O20 Sb4 2.420945 1_555
O21 Sb5 2.420945 1_555
O22 Sb6 2.420945 1_655
O23 Sb7 2.420945 1_455
F0 Sb0 2.005741 1_555
F0 Na2 2.388031 1_556
F0 Na4 2.536767 1_556
F1 Sb1 2.005741 1_555
F1 Na3 2.388031 1_555
F1 Na5 2.536767 1_555
F2 Sb2 2.005741 1_555
F2 Na0 2.388031 1_654
F2 Na6 2.536767 1_554
F3 Sb3 2.005741 1_555
F3 Na1 2.388031 1_455
F3 Na7 2.536767 1_555
F4 Sb4 2.005741 1_555
F4 Na6 2.388031 1_554
F4 Na0 2.536767 1_554
F5 Sb5 2.005741 1_555
F5 Na7 2.388031 1_555
F5 Na1 2.536767 1_555
F6 Sb6 2.005741 1_555
F6 Na4 2.388031 1_456
F6 Na2 2.536767 1_556
F7 Sb7 2.005741 1_555
F7 Na5 2.388031 1_655
F7 Na3 2.536767 1_555
F8 Sb0 1.956514 1_555
F8 Na6 2.553964 1_555
F9 Sb1 1.956514 1_565
F9 Na7 2.553964 1_555
F10 Sb2 1.956514 1_445
F10 Na4 2.553964 1_455
F11 Sb3 1.956514 1_655
F11 Na5 2.553964 1_655
F12 Sb4 1.956514 1_555
F12 Na2 2.553964 1_555
F13 Sb5 1.956514 1_545
F13 Na3 2.553964 1_555
F14 Sb6 1.956514 1_665
F14 Na0 2.553964 1_655
F15 Sb7 1.956514 1_455
F15 Na1 2.553964 1_455
F16 Sb0 2.021104 1_555
F16 Na2 2.307812 1_656
F16 Na6 2.376915 1_555
F17 Sb1 2.021104 1_555
F17 Na3 2.307812 1_455
F17 Na7 2.376915 1_545
F18 Sb2 2.021104 1_555
F18 Na0 2.307812 1_554
F18 Na4 2.376915 1_565
F19 Sb3 2.021104 1_555
F19 Na1 2.307812 1_555
F19 Na5 2.376915 1_555
F20 Sb4 2.021104 1_555
F20 Na6 2.307812 1_454
F20 Na2 2.376915 1_555
F21 Sb5 2.021104 1_555
F21 Na7 2.307812 1_655
F21 Na3 2.376915 1_565
F22 Sb6 2.021104 1_555
F22 Na4 2.307812 1_556
F22 Na0 2.376915 1_545
F23 Sb7 2.021104 1_555
F23 Na5 2.307812 1_555
F23 Na1 2.376915 1_555
