# generated using pymatgen
data_Ni9O13
_symmetry_space_group_name_H-M   'P 1'
_cell_length_a   2.92639309
_cell_length_b   5.15980242
_cell_length_c   15.80848579
_cell_angle_alpha   99.27874808
_cell_angle_beta   90.02310661
_cell_angle_gamma   106.45731571
_symmetry_Int_Tables_number   1
_chemical_formula_structural   Ni9O13
_chemical_formula_sum   'Ni9 O13'
_cell_volume   225.65934861
_cell_formula_units_Z   1
loop_
 _symmetry_equiv_pos_site_id
 _symmetry_equiv_pos_as_xyz
  1  'x, y, z'
loop_
 _atom_site_type_symbol
 _atom_site_label
 _atom_site_symmetry_multiplicity
 _atom_site_fract_x
 _atom_site_fract_y
 _atom_site_fract_z
 _atom_site_occupancy
  Ni  Ni0  1  0.50000000  0.00000000  0.50000000  1
  Ni  Ni1  1  0.64901500  0.29774500  0.04572500  1
  Ni  Ni2  1  0.35098500  0.70225500  0.95427500  1
  Ni  Ni3  1  0.74989000  0.50013300  0.41240600  1
  Ni  Ni4  1  0.25011000  0.49986700  0.58759400  1
  Ni  Ni5  1  0.93755800  0.87477000  0.12426500  1
  Ni  Ni6  1  0.06244200  0.12523000  0.87573500  1
  Ni  Ni7  1  0.99677700  0.99379600  0.33460400  1
  Ni  Ni8  1  0.00322300  0.00620400  0.66539600  1
  O  O0  1  0.00000000  0.00000000  0.00000000  1
  O  O1  1  0.88033800  0.76086200  0.23102900  1
  O  O2  1  0.11966200  0.23913800  0.76897100  1
  O  O3  1  0.30075200  0.60087300  0.07217700  1
  O  O4  1  0.69924800  0.39912700  0.92782300  1
  O  O5  1  0.56583000  0.13235500  0.14900000  1
  O  O6  1  0.43417000  0.86764500  0.85100000  1
  O  O7  1  0.60887000  0.21823500  0.30728500  1
  O  O8  1  0.39113000  0.78176500  0.69271500  1
  O  O9  1  0.38315200  0.76734600  0.38592700  1
  O  O10  1  0.61684800  0.23265400  0.61407300  1
  O  O11  1  0.12529800  0.25070400  0.45614900  1
  O  O12  1  0.87470200  0.74929600  0.54385100  1
loop_
_geom_bond_atom_site_label_1
_geom_bond_atom_site_label_2
_geom_bond_distance
_geom_bond_site_symmetry_2
Ni0 O10 1.969466 1_555
Ni0 O9 1.969466 1_545
Ni0 O12 2.109155 1_545
Ni0 O11 2.109155 1_555
Ni0 O12 2.109817 1_445
Ni0 O11 2.109817 1_655
Ni1 O5 1.945475 1_555
Ni1 O4 2.010041 1_554
Ni1 O3 2.086265 1_555
Ni1 O3 2.087342 1_655
Ni1 O0 2.115249 1_655
Ni1 O0 2.116008 1_555
Ni2 O6 1.945475 1_555
Ni2 O3 2.010041 1_556
Ni2 O4 2.086265 1_555
Ni2 O4 2.087342 1_455
Ni2 O0 2.115249 1_566
Ni2 O0 2.116008 1_666
Ni3 O7 1.981778 1_555
Ni3 O9 2.061429 1_655
Ni3 O9 2.062081 1_555
Ni3 O11 2.104511 1_655
Ni3 O11 2.104893 1_555
Ni3 O12 2.230685 1_555
Ni4 O8 1.981778 1_555
Ni4 O10 2.061429 1_455
Ni4 O10 2.062081 1_555
Ni4 O12 2.104511 1_455
Ni4 O12 2.104893 1_555
Ni4 O11 2.230685 1_555
Ni5 O1 1.867197 1_555
Ni5 O5 1.935713 1_665
Ni5 O5 1.937700 1_565
Ni5 O3 2.068666 1_555
Ni5 O3 2.069176 1_655
Ni5 O0 2.157005 1_665
Ni6 O2 1.867197 1_555
Ni6 O6 1.935713 1_445
Ni6 O6 1.937700 1_545
Ni6 O4 2.068666 1_555
Ni6 O4 2.069176 1_455
Ni6 O0 2.157005 1_556
Ni7 O1 1.836983 1_555
Ni7 O7 1.929239 1_565
Ni7 O7 1.929425 1_665
Ni7 O9 2.086981 1_655
Ni7 O9 2.089530 1_555
Ni7 O11 2.118057 1_665
Ni8 O2 1.836983 1_555
Ni8 O8 1.929239 1_545
Ni8 O8 1.929425 1_445
Ni8 O10 2.086981 1_455
Ni8 O10 2.089530 1_555
Ni8 O12 2.118057 1_445
