# generated using pymatgen
data_HgAu3
_symmetry_space_group_name_H-M   'P 1'
_cell_length_a   5.85820170
_cell_length_b   5.85820170
_cell_length_c   4.98261377
_cell_angle_alpha   90.00000000
_cell_angle_beta   90.00000000
_cell_angle_gamma   119.99999296
_symmetry_Int_Tables_number   1
_chemical_formula_structural   HgAu3
_chemical_formula_sum   'Hg2 Au6'
_cell_volume   148.08686083
_cell_formula_units_Z   2
loop_
 _symmetry_equiv_pos_site_id
 _symmetry_equiv_pos_as_xyz
  1  'x, y, z'
loop_
 _atom_site_type_symbol
 _atom_site_label
 _atom_site_symmetry_multiplicity
 _atom_site_fract_x
 _atom_site_fract_y
 _atom_site_fract_z
 _atom_site_occupancy
  Hg  Hg0  1  0.33333300  0.66666700  0.75000000  1
  Hg  Hg1  1  0.66666700  0.33333300  0.25000000  1
  Au  Au0  1  0.16516376  0.33032752  0.25000000  1
  Au  Au1  1  0.66967248  0.83483624  0.25000000  1
  Au  Au2  1  0.16516376  0.83483624  0.25000000  1
  Au  Au3  1  0.83483624  0.66967248  0.75000000  1
  Au  Au4  1  0.33032752  0.16516376  0.75000000  1
  Au  Au5  1  0.83483624  0.16516376  0.75000000  1
loop_
_geom_bond_atom_site_label_1
_geom_bond_atom_site_label_2
_geom_bond_distance
_geom_bond_site_symmetry_2
Au0 Au2 2.902688 1_545
Au0 Au1 2.902688 1_445
Au0 Hg1 2.929138 1_455
Au0 Hg1 2.929143 1_555
Au0 Au2 2.955514 1_555
Au0 Au1 2.955514 1_555
Au0 Au4 3.002523 1_554
Au0 Au4 3.002523 1_555
Au0 Au5 3.002523 1_455
Au0 Au5 3.002523 1_454
Au0 Hg0 3.019653 1_555
Au0 Hg0 3.019653 1_554
Au1 Au2 2.902688 1_655
Au1 Hg1 2.929138 1_565
Au1 Hg1 2.929143 1_555
Au1 Au2 2.955514 1_555
Au1 Au3 3.002523 1_555
Au1 Au3 3.002523 1_554
Au1 Au5 3.002523 1_564
Au1 Au5 3.002523 1_565
Au1 Hg0 3.019653 1_555
Au1 Hg0 3.019653 1_554
Au2 Hg1 2.929141 1_455
Au2 Hg1 2.929141 1_565
Au2 Au4 3.002523 1_564
Au2 Au3 3.002523 1_455
Au2 Au4 3.002523 1_565
Au2 Au3 3.002523 1_454
Au2 Hg0 3.019650 1_555
Au2 Hg0 3.019650 1_554
Au3 Au5 2.902688 1_565
Au3 Au4 2.902688 1_665
Au3 Hg0 2.929138 1_655
Au3 Hg0 2.929143 1_555
Au3 Au5 2.955514 1_555
Au3 Au4 2.955514 1_555
Au3 Hg1 3.019653 1_555
Au3 Hg1 3.019653 1_556
Au4 Au5 2.902688 1_455
Au4 Hg0 2.929138 1_545
Au4 Hg0 2.929143 1_555
Au4 Au5 2.955514 1_555
Au4 Hg1 3.019653 1_555
Au4 Hg1 3.019653 1_556
Au5 Hg0 2.929141 1_545
Au5 Hg0 2.929141 1_655
Au5 Hg1 3.019650 1_555
Au5 Hg1 3.019650 1_556
