# generated using pymatgen
data_NaMg6Ni
_symmetry_space_group_name_H-M   'P 1'
_cell_length_a   4.96791500
_cell_length_b   6.33674800
_cell_length_c   10.75039300
_cell_angle_alpha   90.00000000
_cell_angle_beta   90.00000000
_cell_angle_gamma   90.00000000
_symmetry_Int_Tables_number   1
_chemical_formula_structural   NaMg6Ni
_chemical_formula_sum   'Na2 Mg12 Ni2'
_cell_volume   338.42694529
_cell_formula_units_Z   2
loop_
 _symmetry_equiv_pos_site_id
 _symmetry_equiv_pos_as_xyz
  1  'x, y, z'
loop_
 _atom_site_type_symbol
 _atom_site_label
 _atom_site_symmetry_multiplicity
 _atom_site_fract_x
 _atom_site_fract_y
 _atom_site_fract_z
 _atom_site_occupancy
  Na  Na0  1  0.50000000  0.50000000  0.83461000  1
  Na  Na1  1  0.50000000  0.00000000  0.33461000  1
  Mg  Mg0  1  0.50000000  0.24923600  0.08397300  1
  Mg  Mg1  1  0.50000000  0.75076400  0.08397300  1
  Mg  Mg2  1  0.00000000  0.23234600  0.91232400  1
  Mg  Mg3  1  0.00000000  0.76765400  0.91232400  1
  Mg  Mg4  1  0.00000000  0.50000000  0.17452300  1
  Mg  Mg5  1  0.00000000  0.50000000  0.66408900  1
  Mg  Mg6  1  0.50000000  0.74923600  0.58397300  1
  Mg  Mg7  1  0.50000000  0.25076400  0.58397300  1
  Mg  Mg8  1  0.00000000  0.73234600  0.41232400  1
  Mg  Mg9  1  0.00000000  0.26765400  0.41232400  1
  Mg  Mg10  1  0.00000000  0.00000000  0.67452300  1
  Mg  Mg11  1  0.00000000  0.00000000  0.16408900  1
  Ni  Ni0  1  0.50000000  0.50000000  0.33418800  1
  Ni  Ni1  1  0.50000000  0.00000000  0.83418800  1
loop_
_geom_bond_atom_site_label_1
_geom_bond_atom_site_label_2
_geom_bond_distance
_geom_bond_site_symmetry_2
Na0 Ni1 3.168377 1_565
Na0 Ni1 3.168377 1_555
Na1 Ni0 3.168377 1_545
Na1 Ni0 3.168377 1_555
Mg0 Mg11 3.066949 1_655
Mg0 Mg11 3.066949 1_555
Mg0 Mg2 3.096225 1_654
Mg0 Mg2 3.096225 1_554
Mg0 Mg4 3.105263 1_555
Mg0 Mg4 3.105263 1_655
Mg0 Ni1 3.115301 1_554
Mg0 Na0 3.116317 1_554
Mg0 Na1 3.123199 1_555
Mg0 Ni0 3.124200 1_555
Mg0 Mg1 3.158691 1_545
Mg0 Mg1 3.178057 1_555
Mg1 Mg11 3.066949 1_565
Mg1 Mg11 3.066949 1_665
Mg1 Mg3 3.096225 1_554
Mg1 Mg3 3.096225 1_654
Mg1 Mg4 3.105263 1_655
Mg1 Mg4 3.105263 1_555
Mg1 Ni1 3.115301 1_564
Mg1 Na0 3.116317 1_554
Mg1 Na1 3.123199 1_565
Mg1 Ni0 3.124200 1_555
Mg2 Ni1 3.007217 1_555
Mg2 Ni1 3.007217 1_455
Mg2 Na0 3.121640 1_555
Mg2 Na0 3.121640 1_455
Mg2 Mg5 3.161987 1_555
Mg3 Ni1 3.007217 1_565
Mg3 Ni1 3.007217 1_465
Mg3 Na0 3.121640 1_555
Mg3 Na0 3.121640 1_455
Mg3 Mg5 3.161987 1_555
Mg4 Ni0 3.019319 1_555
Mg4 Ni0 3.019319 1_455
Mg5 Mg6 3.066949 1_455
Mg5 Mg6 3.066949 1_555
Mg5 Mg7 3.066949 1_455
Mg5 Mg7 3.066949 1_555
Mg5 Mg8 3.081113 1_555
Mg5 Mg9 3.081113 1_555
Mg5 Na0 3.087159 1_555
Mg5 Na0 3.087159 1_455
Mg6 Mg8 3.096225 1_555
Mg6 Mg8 3.096225 1_655
Mg6 Ni0 3.115301 1_555
Mg6 Na1 3.116317 1_565
Mg6 Na0 3.123199 1_555
Mg6 Ni1 3.124200 1_565
Mg6 Mg7 3.158691 1_555
Mg6 Mg7 3.178057 1_565
Mg7 Mg9 3.096225 1_555
Mg7 Mg9 3.096225 1_655
Mg7 Ni0 3.115301 1_555
Mg7 Na1 3.116317 1_555
Mg7 Na0 3.123199 1_555
Mg7 Ni1 3.124200 1_555
Mg8 Ni0 3.007217 1_555
Mg8 Ni0 3.007217 1_455
Mg8 Na1 3.121640 1_465
Mg8 Na1 3.121640 1_565
Mg9 Ni0 3.007217 1_555
Mg9 Ni0 3.007217 1_455
Mg9 Na1 3.121640 1_455
Mg9 Na1 3.121640 1_555
Mg10 Ni1 3.019319 1_555
Mg10 Ni1 3.019319 1_455
Mg10 Mg6 3.105263 1_445
Mg10 Mg6 3.105263 1_545
Mg10 Mg7 3.105263 1_455
Mg10 Mg7 3.105263 1_555
Mg10 Mg5 3.170359 1_555
Mg10 Mg5 3.170359 1_545
Mg11 Mg2 3.081113 1_554
Mg11 Mg3 3.081113 1_544
Mg11 Na1 3.087159 1_455
Mg11 Na1 3.087159 1_555
Mg11 Mg9 3.161987 1_555
Mg11 Mg8 3.161987 1_545
Mg11 Mg4 3.170359 1_555
Mg11 Mg4 3.170359 1_545
