# generated using pymatgen
data_InGa3
_symmetry_space_group_name_H-M   'P 1'
_cell_length_a   6.17403015
_cell_length_b   6.17403015
_cell_length_c   5.20594100
_cell_angle_alpha   90.00000000
_cell_angle_beta   90.00000000
_cell_angle_gamma   120.00000164
_symmetry_Int_Tables_number   1
_chemical_formula_structural   InGa3
_chemical_formula_sum   'In2 Ga6'
_cell_volume   171.85705239
_cell_formula_units_Z   2
loop_
 _symmetry_equiv_pos_site_id
 _symmetry_equiv_pos_as_xyz
  1  'x, y, z'
loop_
 _atom_site_type_symbol
 _atom_site_label
 _atom_site_symmetry_multiplicity
 _atom_site_fract_x
 _atom_site_fract_y
 _atom_site_fract_z
 _atom_site_occupancy
  In  In0  1  0.33333300  0.66666700  0.75000000  1
  In  In1  1  0.66666700  0.33333300  0.25000000  1
  Ga  Ga0  1  0.16008200  0.32016400  0.25000000  1
  Ga  Ga1  1  0.67983600  0.83991800  0.25000000  1
  Ga  Ga2  1  0.16008200  0.83991800  0.25000000  1
  Ga  Ga3  1  0.83991800  0.67983600  0.75000000  1
  Ga  Ga4  1  0.32016400  0.16008200  0.75000000  1
  Ga  Ga5  1  0.83991800  0.16008200  0.75000000  1
loop_
_geom_bond_atom_site_label_1
_geom_bond_atom_site_label_2
_geom_bond_distance
_geom_bond_site_symmetry_2
Ga0 Ga1 2.965053 1_445
Ga0 Ga2 2.965053 1_545
Ga0 In1 3.087815 1_455
Ga0 In1 3.087821 1_555
Ga0 Ga5 3.115440 1_455
Ga0 Ga5 3.115440 1_454
Ga0 Ga4 3.115440 1_555
Ga0 Ga4 3.115440 1_554
Ga0 In0 3.194992 1_555
Ga0 In0 3.194992 1_554
Ga0 Ga1 3.208977 1_555
Ga0 Ga2 3.208977 1_555
Ga1 Ga2 2.965053 1_655
Ga1 In1 3.087815 1_565
Ga1 In1 3.087821 1_555
Ga1 Ga5 3.115440 1_565
Ga1 Ga5 3.115440 1_564
Ga1 Ga3 3.115440 1_555
Ga1 Ga3 3.115440 1_554
Ga1 In0 3.194992 1_555
Ga1 In0 3.194992 1_554
Ga1 Ga2 3.208977 1_555
Ga2 In1 3.087818 1_455
Ga2 In1 3.087818 1_565
Ga2 Ga3 3.115440 1_454
Ga2 Ga4 3.115440 1_564
Ga2 Ga3 3.115440 1_455
Ga2 Ga4 3.115440 1_565
Ga2 In0 3.194989 1_555
Ga2 In0 3.194989 1_554
Ga3 Ga4 2.965053 1_665
Ga3 Ga5 2.965053 1_565
Ga3 In0 3.087815 1_655
Ga3 In0 3.087821 1_555
Ga3 In1 3.194992 1_556
Ga3 In1 3.194992 1_555
Ga3 Ga4 3.208977 1_555
Ga3 Ga5 3.208977 1_555
Ga4 Ga5 2.965053 1_455
Ga4 In0 3.087815 1_545
Ga4 In0 3.087821 1_555
Ga4 In1 3.194992 1_556
Ga4 In1 3.194992 1_555
Ga4 Ga5 3.208977 1_555
Ga5 In0 3.087818 1_545
Ga5 In0 3.087818 1_655
Ga5 In1 3.194989 1_556
Ga5 In1 3.194989 1_555
