# generated using pymatgen
data_La6Sm2V5Cr3O24
_symmetry_space_group_name_H-M   'P 1'
_cell_length_a   7.91334700
_cell_length_b   7.86126100
_cell_length_c   7.91481820
_cell_angle_alpha   89.94850862
_cell_angle_beta   90.00000000
_cell_angle_gamma   90.00000000
_symmetry_Int_Tables_number   1
_chemical_formula_structural   La6Sm2V5Cr3O24
_chemical_formula_sum   'La6 Sm2 V5 Cr3 O24'
_cell_volume   492.37182524
_cell_formula_units_Z   1
loop_
 _symmetry_equiv_pos_site_id
 _symmetry_equiv_pos_as_xyz
  1  'x, y, z'
loop_
 _atom_site_type_symbol
 _atom_site_label
 _atom_site_symmetry_multiplicity
 _atom_site_fract_x
 _atom_site_fract_y
 _atom_site_fract_z
 _atom_site_occupancy
  La  La0  1  0.75249900  0.74927100  0.24768400  1
  La  La1  1  0.24750100  0.74927100  0.24768400  1
  La  La2  1  0.75255300  0.25081600  0.24737200  1
  La  La3  1  0.24744700  0.25081600  0.24737200  1
  La  La4  1  0.75256300  0.25073500  0.75221800  1
  La  La5  1  0.24743700  0.25073500  0.75221800  1
  Sm  Sm0  1  0.75305800  0.74880900  0.75297300  1
  Sm  Sm1  1  0.24694200  0.74880900  0.75297300  1
  V  V0  1  0.00000000  0.99937100  0.99948100  1
  V  V1  1  0.50000000  0.99949100  0.99948000  1
  V  V2  1  0.00000000  0.99942100  0.50060100  1
  V  V3  1  0.50000000  0.99956700  0.50055200  1
  V  V4  1  0.50000000  0.50061200  0.50066900  1
  Cr  Cr0  1  0.00000000  0.50046200  0.99949000  1
  Cr  Cr1  1  0.50000000  0.50049300  0.99950800  1
  Cr  Cr2  1  0.00000000  0.50048600  0.50051200  1
  O  O0  1  0.00000000  0.00037200  0.24707500  1
  O  O1  1  0.50000000  0.99959800  0.24979000  1
  O  O2  1  0.00000000  0.50025700  0.25027700  1
  O  O3  1  0.50000000  0.49959100  0.24633000  1
  O  O4  1  0.00000000  0.99658300  0.75282200  1
  O  O5  1  0.50000000  0.99756500  0.75020000  1
  O  O6  1  0.00000000  0.50304500  0.74968700  1
  O  O7  1  0.50000000  0.50375000  0.75374000  1
  O  O8  1  0.00000000  0.74548900  0.99665700  1
  O  O9  1  0.50000000  0.74981300  0.99730100  1
  O  O10  1  0.00000000  0.25446400  0.00005100  1
  O  O11  1  0.50000000  0.25013800  0.99969300  1
  O  O12  1  0.00000000  0.74834100  0.50320000  1
  O  O13  1  0.50000000  0.75030400  0.50294100  1
  O  O14  1  0.00000000  0.25151100  0.49981600  1
  O  O15  1  0.50000000  0.24985700  0.49982000  1
  O  O16  1  0.75261100  0.99841100  0.99850600  1
  O  O17  1  0.24738900  0.99841100  0.99850600  1
  O  O18  1  0.75006400  0.50165100  0.99833800  1
  O  O19  1  0.24993600  0.50165100  0.99833800  1
  O  O20  1  0.75308500  0.99853600  0.50152600  1
  O  O21  1  0.24691500  0.99853600  0.50152600  1
  O  O22  1  0.75088800  0.50148000  0.50153700  1
  O  O23  1  0.24911200  0.50148000  0.50153700  1
loop_
_geom_bond_atom_site_label_1
_geom_bond_atom_site_label_2
_geom_bond_distance
_geom_bond_site_symmetry_2
La0 O2 2.769182 1_655
La0 O18 2.773331 1_554
La0 O16 2.778230 1_554
La0 O0 2.780742 1_665
La0 O8 2.790064 1_654
La0 O22 2.797235 1_555
La0 O3 2.800926 1_555
La0 O1 2.804526 1_555
La0 O20 2.807743 1_555
La0 O9 2.814202 1_554
La0 O12 2.815305 1_655
La0 O13 2.841516 1_555
La1 O2 2.769182 1_555
La1 O19 2.773331 1_554
La1 O17 2.778230 1_554
La1 O0 2.780742 1_565
La1 O8 2.790064 1_554
La1 O23 2.797235 1_555
La1 O3 2.800926 1_555
La1 O1 2.804526 1_555
La1 O21 2.807743 1_555
La1 O9 2.814202 1_554
La1 O12 2.815305 1_555
La1 O13 2.841516 1_555
La2 O10 2.768902 1_655
La2 O2 2.771301 1_655
La2 O0 2.776778 1_655
La2 O18 2.786895 1_554
La2 O3 2.796230 1_555
La2 O16 2.797140 1_544
La2 O14 2.797595 1_655
La2 O11 2.799485 1_554
La2 O1 2.809742 1_545
La2 O22 2.817290 1_555
La2 O20 2.823570 1_545
La2 O15 2.826042 1_555
La3 O10 2.768902 1_555
La3 O2 2.771301 1_555
La3 O0 2.776778 1_555
La3 O19 2.786895 1_554
La3 O3 2.796230 1_555
La3 O17 2.797140 1_544
La3 O14 2.797595 1_555
La3 O11 2.799485 1_554
La3 O1 2.809742 1_545
La3 O23 2.817290 1_555
La3 O21 2.823570 1_545
La3 O15 2.826042 1_555
La4 O10 2.771756 1_656
La4 O18 2.773590 1_555
La4 O16 2.779843 1_545
La4 O6 2.787199 1_655
La4 O22 2.795585 1_555
La4 O14 2.797296 1_655
La4 O4 2.797465 1_645
La4 O11 2.798404 1_555
La4 O20 2.806203 1_545
La4 O7 2.819726 1_555
La4 O5 2.820607 1_545
La4 O15 2.825826 1_555
La5 O10 2.771756 1_556
La5 O19 2.773590 1_555
La5 O17 2.779843 1_545
La5 O6 2.787199 1_555
La5 O23 2.795585 1_555
La5 O14 2.797296 1_555
La5 O4 2.797465 1_545
La5 O11 2.798404 1_555
La5 O21 2.806203 1_545
La5 O7 2.819726 1_555
La5 O5 2.820607 1_545
La5 O15 2.825826 1_555
Cr0 O8 1.926332 1_555
Cr0 O10 1.933856 1_556
Cr0 O6 1.977231 1_555
Cr0 O19 1.977873 1_555
Cr0 O18 1.977873 1_455
Cr0 O2 1.984933 1_556
Cr1 O7 1.945355 1_555
Cr1 O3 1.953558 1_556
Cr1 O9 1.960032 1_555
Cr1 O11 1.968105 1_555
Cr1 O18 1.978886 1_555
Cr1 O19 1.978886 1_555
Cr2 O12 1.948588 1_555
Cr2 O14 1.957270 1_555
Cr2 O23 1.971342 1_555
Cr2 O22 1.971342 1_455
Cr2 O6 1.972295 1_555
Cr2 O2 1.980567 1_555
O0 V0 1.959684 1_544
O0 V2 2.006619 1_545
O1 V1 1.981159 1_554
O1 V3 1.984735 1_555
O3 V4 2.013070 1_555
O4 V0 1.952404 1_555
O4 V2 1.996388 1_555
O4 Sm1 2.759101 1_555
O4 Sm0 2.759101 1_455
O5 V1 1.973078 1_555
O5 V3 1.975967 1_555
O5 Sm0 2.799049 1_555
O5 Sm1 2.799049 1_555
O6 Sm1 2.748109 1_555
O6 Sm0 2.748109 1_455
O7 V4 2.003185 1_555
O7 Sm1 2.778752 1_555
O7 Sm0 2.778752 1_555
O8 V0 1.995978 1_555
O8 Sm1 2.745758 1_555
O8 Sm0 2.745758 1_455
O9 V1 1.962875 1_555
O9 Sm1 2.783858 1_555
O9 Sm0 2.783858 1_555
O10 V0 2.005362 1_544
O11 V1 1.970404 1_545
O12 V2 1.973894 1_555
O12 Sm1 2.779720 1_555
O12 Sm0 2.779720 1_455
O13 V3 1.959596 1_555
O13 V4 1.962993 1_555
O13 Sm1 2.815408 1_555
O13 Sm0 2.815408 1_555
O14 V2 1.981749 1_545
O15 V3 1.967598 1_545
O15 V4 1.971268 1_555
O16 V0 1.957705 1_655
O16 V1 1.999031 1_555
O16 Sm0 2.762906 1_555
O17 V0 1.957705 1_555
O17 V1 1.999031 1_555
O17 Sm1 2.762906 1_555
O18 Sm0 2.745972 1_555
O19 Sm1 2.745972 1_555
O20 V2 1.953950 1_655
O20 V3 2.002781 1_555
O20 Sm0 2.794233 1_555
O21 V2 1.953950 1_555
O21 V3 2.002781 1_555
O21 Sm1 2.794233 1_555
O22 V4 1.985387 1_555
O22 Sm0 2.783523 1_555
O23 V4 1.985387 1_555
O23 Sm1 2.783523 1_555
