# generated using pymatgen
data_GdB2Os
_symmetry_space_group_name_H-M   'P 1'
_cell_length_a   5.92155200
_cell_length_b   5.33806500
_cell_length_c   6.40848200
_cell_angle_alpha   90.00000000
_cell_angle_beta   90.00000000
_cell_angle_gamma   90.00000000
_symmetry_Int_Tables_number   1
_chemical_formula_structural   GdB2Os
_chemical_formula_sum   'Gd4 B8 Os4'
_cell_volume   202.56974153
_cell_formula_units_Z   4
loop_
 _symmetry_equiv_pos_site_id
 _symmetry_equiv_pos_as_xyz
  1  'x, y, z'
loop_
 _atom_site_type_symbol
 _atom_site_label
 _atom_site_symmetry_multiplicity
 _atom_site_fract_x
 _atom_site_fract_y
 _atom_site_fract_z
 _atom_site_occupancy
  Gd  Gd0  1  0.01003800  0.25000000  0.33718900  1
  Gd  Gd1  1  0.51003800  0.25000000  0.16281100  1
  Gd  Gd2  1  0.98996200  0.75000000  0.66281100  1
  Gd  Gd3  1  0.48996200  0.75000000  0.83718900  1
  B  B0  1  0.36650300  0.08232100  0.54039100  1
  B  B1  1  0.86650300  0.41767900  0.95960900  1
  B  B2  1  0.63349700  0.58232100  0.45960900  1
  B  B3  1  0.13349700  0.91767900  0.04039100  1
  B  B4  1  0.63349700  0.91767900  0.45960900  1
  B  B5  1  0.13349700  0.58232100  0.04039100  1
  B  B6  1  0.36650300  0.41767900  0.54039100  1
  B  B7  1  0.86650300  0.08232100  0.95960900  1
  Os  Os0  1  0.17774200  0.25000000  0.81623900  1
  Os  Os1  1  0.67774200  0.25000000  0.68376100  1
  Os  Os2  1  0.82225800  0.75000000  0.18376100  1
  Os  Os3  1  0.32225800  0.75000000  0.31623900  1
loop_
_geom_bond_atom_site_label_1
_geom_bond_atom_site_label_2
_geom_bond_distance
_geom_bond_site_symmetry_2
Gd0 Os1 2.967274 1_455
Gd1 Os0 2.967274 1_554
Gd2 Os3 2.967274 1_655
Gd3 Os2 2.967274 1_556
B0 B6 1.790163 1_555
B0 B4 1.881498 1_545
B0 Os1 2.245451 1_555
B0 Os0 2.274984 1_555
B0 Os3 2.297608 1_545
B0 Gd0 2.636764 1_555
B0 Gd3 2.701678 1_545
B0 Gd1 2.716359 1_555
B0 Gd2 2.955330 1_445
B1 B7 1.790163 1_555
B1 B5 1.881498 1_656
B1 Os0 2.245451 1_655
B1 Os1 2.274984 1_555
B1 Os2 2.297608 1_556
B1 Gd1 2.636764 1_556
B1 Gd2 2.701678 1_555
B1 Gd0 2.716359 1_656
B1 Gd3 2.955330 1_555
B2 B4 1.790163 1_555
B2 B6 1.881498 1_555
B2 Os3 2.245451 1_555
B2 Os2 2.274984 1_555
B2 Os1 2.297608 1_555
B2 Gd2 2.636764 1_555
B2 Gd1 2.701678 1_555
B2 Gd3 2.716359 1_555
B2 Gd0 2.955330 1_655
B3 B5 1.790163 1_555
B3 B7 1.881498 1_464
B3 Os2 2.245451 1_455
B3 Os3 2.274984 1_555
B3 Os0 2.297608 1_564
B3 Gd3 2.636764 1_554
B3 Gd0 2.701678 1_565
B3 Gd2 2.716359 1_454
B3 Gd1 2.955330 1_565
B4 Os3 2.245451 1_555
B4 Os2 2.274984 1_555
B4 Os1 2.297608 1_565
B4 Gd2 2.636764 1_555
B4 Gd1 2.701678 1_565
B4 Gd3 2.716359 1_555
B4 Gd0 2.955330 1_665
B5 Os2 2.245451 1_455
B5 Os3 2.274984 1_555
B5 Os0 2.297608 1_554
B5 Gd3 2.636764 1_554
B5 Gd0 2.701678 1_555
B5 Gd2 2.716359 1_454
B5 Gd1 2.955330 1_555
B6 Os1 2.245451 1_555
B6 Os0 2.274984 1_555
B6 Os3 2.297608 1_555
B6 Gd0 2.636764 1_555
B6 Gd3 2.701678 1_555
B6 Gd1 2.716359 1_555
B6 Gd2 2.955330 1_455
B7 Os0 2.245451 1_655
B7 Os1 2.274984 1_555
B7 Os2 2.297608 1_546
B7 Gd1 2.636764 1_556
B7 Gd2 2.701678 1_545
B7 Gd0 2.716359 1_656
B7 Gd3 2.955330 1_545
