# generated using pymatgen
data_MgFeO3
_symmetry_space_group_name_H-M   'P 1'
_cell_length_a   4.99287417
_cell_length_b   5.40624239
_cell_length_c   7.77101314
_cell_angle_alpha   84.32479157
_cell_angle_beta   93.06461285
_cell_angle_gamma   90.65209114
_symmetry_Int_Tables_number   1
_chemical_formula_structural   MgFeO3
_chemical_formula_sum   'Mg4 Fe4 O12'
_cell_volume   208.42994947
_cell_formula_units_Z   4
loop_
 _symmetry_equiv_pos_site_id
 _symmetry_equiv_pos_as_xyz
  1  'x, y, z'
loop_
 _atom_site_type_symbol
 _atom_site_label
 _atom_site_symmetry_multiplicity
 _atom_site_fract_x
 _atom_site_fract_y
 _atom_site_fract_z
 _atom_site_occupancy
  Mg  Mg0  1  0.99834900  0.28393500  0.14142100  1
  Mg  Mg1  1  0.49835400  0.78353100  0.64132200  1
  Mg  Mg2  1  0.00153200  0.71645400  0.85847500  1
  Mg  Mg3  1  0.50165800  0.21607000  0.35852400  1
  Fe  Fe0  1  0.50251900  0.18959400  0.84968300  1
  Fe  Fe1  1  0.49721900  0.80996800  0.15034500  1
  Fe  Fe2  1  0.00265900  0.69004100  0.34977600  1
  Fe  Fe3  1  0.99748300  0.31041600  0.65033900  1
  O  O0  1  0.86099200  0.63977200  0.59526200  1
  O  O1  1  0.36051100  0.13915100  0.09510100  1
  O  O2  1  0.67607600  0.15219400  0.60101700  1
  O  O3  1  0.17542200  0.65208800  0.10112100  1
  O  O4  1  0.19937300  0.02195400  0.74107600  1
  O  O5  1  0.69920100  0.52184700  0.24137800  1
  O  O6  1  0.80082900  0.97821500  0.25877900  1
  O  O7  1  0.30066700  0.47801900  0.75893000  1
  O  O8  1  0.32456000  0.84789200  0.39874700  1
  O  O9  1  0.82405800  0.34758800  0.89890500  1
  O  O10  1  0.13955100  0.36102100  0.40496600  1
  O  O11  1  0.63898700  0.86025300  0.90483400  1
loop_
_geom_bond_atom_site_label_1
_geom_bond_atom_site_label_2
_geom_bond_distance
_geom_bond_site_symmetry_2
Mg0 O9 2.032384 1_554
Mg0 O1 2.041929 1_655
Mg0 O6 2.072917 1_545
Mg0 O3 2.169650 1_655
Mg0 O5 2.203167 1_555
Mg0 O10 2.207440 1_655
Mg1 O8 2.032168 1_555
Mg1 O0 2.041271 1_555
Mg1 O7 2.073237 1_555
Mg1 O2 2.173442 1_565
Mg1 O4 2.203609 1_565
Mg1 O11 2.205899 1_555
Mg2 O3 2.032842 1_556
Mg2 O11 2.041547 1_455
Mg2 O4 2.072937 1_565
Mg2 O9 2.174000 1_455
Mg2 O7 2.203467 1_555
Mg2 O0 2.203555 1_455
Mg3 O2 2.032567 1_555
Mg3 O10 2.042301 1_555
Mg3 O5 2.072568 1_555
Mg3 O8 2.169777 1_545
Mg3 O6 2.202320 1_545
Mg3 O1 2.206236 1_555
Fe0 O9 1.849583 1_555
Fe0 O11 1.914048 1_545
Fe0 O7 1.920092 1_555
Fe0 O4 1.951425 1_555
Fe0 O1 2.061945 1_556
Fe0 O2 2.187742 1_555
Fe1 O3 1.850392 1_555
Fe1 O1 1.913776 1_565
Fe1 O5 1.919707 1_555
Fe1 O6 1.954207 1_555
Fe1 O11 2.062117 1_554
Fe1 O8 2.184402 1_555
Fe2 O8 1.850357 1_555
Fe2 O10 1.913252 1_555
Fe2 O6 1.919467 1_455
Fe2 O5 1.953375 1_455
Fe2 O0 2.061736 1_455
Fe2 O3 2.186458 1_555
Fe3 O2 1.849765 1_555
Fe3 O0 1.914098 1_555
Fe3 O4 1.920314 1_655
Fe3 O7 1.951413 1_655
Fe3 O10 2.061770 1_655
Fe3 O9 2.186512 1_555
