# generated using pymatgen
data_Sr3Nb5O15
_symmetry_space_group_name_H-M   'P 1'
_cell_length_a   4.00064600
_cell_length_b   12.68441200
_cell_length_c   12.68441200
_cell_angle_alpha   90.00000000
_cell_angle_beta   90.00000000
_cell_angle_gamma   90.00000000
_symmetry_Int_Tables_number   1
_chemical_formula_structural   Sr3Nb5O15
_chemical_formula_sum   'Sr6 Nb10 O30'
_cell_volume   643.68116887
_cell_formula_units_Z   2
loop_
 _symmetry_equiv_pos_site_id
 _symmetry_equiv_pos_as_xyz
  1  'x, y, z'
loop_
 _atom_site_type_symbol
 _atom_site_label
 _atom_site_symmetry_multiplicity
 _atom_site_fract_x
 _atom_site_fract_y
 _atom_site_fract_z
 _atom_site_occupancy
  Sr  Sr0  1  0.99719200  0.00000000  0.00000000  1
  Sr  Sr1  1  0.99719200  0.50000000  0.50000000  1
  Sr  Sr2  1  0.01075300  0.66205300  0.16205300  1
  Sr  Sr3  1  0.01075300  0.33794700  0.83794700  1
  Sr  Sr4  1  0.01075300  0.83794700  0.66205300  1
  Sr  Sr5  1  0.01075300  0.16205300  0.33794700  1
  Nb  Nb0  1  0.50275700  0.50000000  0.00000000  1
  Nb  Nb1  1  0.50275700  0.00000000  0.50000000  1
  Nb  Nb2  1  0.49995400  0.21066800  0.07889500  1
  Nb  Nb3  1  0.49995400  0.78933200  0.92110500  1
  Nb  Nb4  1  0.49995400  0.92110500  0.21066800  1
  Nb  Nb5  1  0.49995400  0.71066800  0.42110500  1
  Nb  Nb6  1  0.49995400  0.07889500  0.78933200  1
  Nb  Nb7  1  0.49995400  0.28933200  0.57889500  1
  Nb  Nb8  1  0.49995400  0.42110500  0.28933200  1
  Nb  Nb9  1  0.49995400  0.57889500  0.71066800  1
  O  O0  1  0.99941200  0.20627000  0.07910600  1
  O  O1  1  0.99941200  0.79373000  0.92089400  1
  O  O2  1  0.99941200  0.92089400  0.20627000  1
  O  O3  1  0.99941200  0.70627000  0.42089400  1
  O  O4  1  0.99941200  0.07910600  0.79373000  1
  O  O5  1  0.99941200  0.29373000  0.57910600  1
  O  O6  1  0.99941200  0.42089400  0.29373000  1
  O  O7  1  0.99941200  0.57910600  0.70627000  1
  O  O8  1  0.49857400  0.06419100  0.13545000  1
  O  O9  1  0.49857400  0.93580900  0.86455000  1
  O  O10  1  0.49857400  0.86455000  0.06419100  1
  O  O11  1  0.49857400  0.56419100  0.36455000  1
  O  O12  1  0.49857400  0.13545000  0.93580900  1
  O  O13  1  0.49857400  0.43580900  0.63545000  1
  O  O14  1  0.49857400  0.36455000  0.43580900  1
  O  O15  1  0.49857400  0.63545000  0.56419100  1
  O  O16  1  0.00038200  0.50000000  0.00000000  1
  O  O17  1  0.00038200  0.00000000  0.50000000  1
  O  O18  1  0.49996400  0.22692700  0.72692700  1
  O  O19  1  0.49996400  0.77307300  0.27307300  1
  O  O20  1  0.49996400  0.27307300  0.22692700  1
  O  O21  1  0.49996400  0.72692700  0.77307300  1
  O  O22  1  0.49886900  0.01101500  0.34108100  1
  O  O23  1  0.49886900  0.98898500  0.65891900  1
  O  O24  1  0.49886900  0.65891900  0.01101500  1
  O  O25  1  0.49886900  0.51101500  0.15891900  1
  O  O26  1  0.49886900  0.34108100  0.98898500  1
  O  O27  1  0.49886900  0.48898500  0.84108100  1
  O  O28  1  0.49886900  0.15891900  0.48898500  1
  O  O29  1  0.49886900  0.84108100  0.51101500  1
loop_
_geom_bond_atom_site_label_1
_geom_bond_atom_site_label_2
_geom_bond_distance
_geom_bond_site_symmetry_2
Nb0 O16 1.990821 1_655
Nb0 O16 2.009825 1_555
Nb0 O26 2.020690 1_554
Nb0 O25 2.020690 1_555
Nb0 O27 2.020690 1_554
Nb0 O24 2.020690 1_555
Nb1 O17 1.990821 1_655
Nb1 O17 2.009825 1_555
Nb1 O28 2.020690 1_555
Nb1 O22 2.020690 1_555
Nb1 O23 2.020690 1_545
Nb1 O29 2.020690 1_545
Nb2 O8 1.991661 1_555
Nb2 O0 1.998935 1_555
Nb2 O0 2.003270 1_455
Nb2 O26 2.009248 1_554
Nb2 O20 2.037728 1_555
Nb2 O12 2.050467 1_554
Nb3 O9 1.991661 1_555
Nb3 O1 1.998935 1_555
Nb3 O1 2.003270 1_455
Nb3 O24 2.009248 1_556
Nb3 O21 2.037728 1_555
Nb3 O10 2.050467 1_556
Nb4 O10 1.991661 1_555
Nb4 O2 1.998935 1_555
Nb4 O2 2.003270 1_455
Nb4 O22 2.009248 1_565
Nb4 O19 2.037728 1_555
Nb4 O8 2.050467 1_565
Nb5 O11 1.991661 1_555
Nb5 O3 1.998935 1_555
Nb5 O3 2.003270 1_455
Nb5 O29 2.009248 1_555
Nb5 O19 2.037728 1_555
Nb5 O15 2.050467 1_555
Nb6 O12 1.991661 1_555
Nb6 O4 1.998935 1_555
Nb6 O4 2.003270 1_455
Nb6 O23 2.009248 1_545
Nb6 O18 2.037728 1_555
Nb6 O9 2.050467 1_545
Nb7 O13 1.991661 1_555
Nb7 O5 1.998935 1_555
Nb7 O5 2.003270 1_455
Nb7 O28 2.009248 1_555
Nb7 O18 2.037728 1_555
Nb7 O14 2.050467 1_555
Nb8 O14 1.991661 1_555
Nb8 O6 1.998935 1_555
Nb8 O6 2.003270 1_455
Nb8 O25 2.009248 1_555
Nb8 O20 2.037728 1_555
Nb8 O11 2.050467 1_555
Nb9 O15 1.991661 1_555
Nb9 O7 1.998935 1_555
Nb9 O7 2.003270 1_455
Nb9 O27 2.009248 1_555
Nb9 O21 2.037728 1_555
Nb9 O13 2.050467 1_555
O0 Sr0 2.802238 1_555
O1 Sr0 2.802238 1_566
O2 Sr0 2.802238 1_565
O3 Sr1 2.802238 1_555
O4 Sr0 2.802238 1_556
O5 Sr1 2.802238 1_555
O6 Sr1 2.802238 1_555
O7 Sr1 2.802238 1_555
O8 Sr0 2.755730 1_555
O8 Sr0 2.763745 1_455
O9 Sr0 2.755730 1_566
O9 Sr0 2.763745 1_466
O10 Sr0 2.755730 1_565
O10 Sr0 2.763745 1_465
O11 Sr1 2.755730 1_555
O11 Sr1 2.763745 1_455
O12 Sr0 2.755730 1_556
O12 Sr0 2.763745 1_456
O13 Sr1 2.755730 1_555
O13 Sr1 2.763745 1_455
O14 Sr1 2.755730 1_555
O14 Sr1 2.763745 1_455
O15 Sr1 2.755730 1_555
O15 Sr1 2.763745 1_455
O16 Sr2 2.907279 1_555
O16 Sr3 2.907279 1_554
O17 Sr4 2.907279 1_545
O17 Sr5 2.907279 1_555
O18 Sr3 2.792250 1_555
O18 Sr3 2.853423 1_655
O19 Sr2 2.792250 1_555
O19 Sr2 2.853423 1_655
O20 Sr5 2.792250 1_555
O20 Sr5 2.853423 1_655
O21 Sr4 2.792250 1_555
O21 Sr4 2.853423 1_655
O22 Sr5 2.735932 1_555
O22 Sr5 2.804592 1_655
O23 Sr4 2.735932 1_555
O23 Sr4 2.804592 1_655
O24 Sr2 2.735932 1_555
O24 Sr2 2.804592 1_655
O25 Sr2 2.735932 1_555
O25 Sr2 2.804592 1_655
O26 Sr3 2.735932 1_555
O26 Sr3 2.804592 1_655
O27 Sr3 2.735932 1_555
O27 Sr3 2.804592 1_655
O28 Sr5 2.735932 1_555
O28 Sr5 2.804592 1_655
O29 Sr4 2.735932 1_555
O29 Sr4 2.804592 1_655
