# generated using pymatgen
data_Fe
_symmetry_space_group_name_H-M   'P 1'
_cell_length_a   5.16973079
_cell_length_b   5.16973174
_cell_length_c   5.16972846
_cell_angle_alpha   59.99998985
_cell_angle_beta   59.99998380
_cell_angle_gamma   60.00000441
_symmetry_Int_Tables_number   1
_chemical_formula_structural   Fe
_chemical_formula_sum   Fe8
_cell_volume   97.69865800
_cell_formula_units_Z   8
loop_
 _symmetry_equiv_pos_site_id
 _symmetry_equiv_pos_as_xyz
  1  'x, y, z'
loop_
 _atom_site_type_symbol
 _atom_site_label
 _atom_site_symmetry_multiplicity
 _atom_site_fract_x
 _atom_site_fract_y
 _atom_site_fract_z
 _atom_site_occupancy
  Fe  Fe0_0  1  0.00000000  0.00000000  0.00000000  1
  Fe  Fe0_1  1  0.00000000  0.00000000  0.50000000  1
  Fe  Fe0_2  1  0.00000000  0.50000000  0.00000000  1
  Fe  Fe0_3  1  0.00000000  0.50000000  0.50000000  1
  Fe  Fe0_4  1  0.50000000  0.00000000  0.00000000  1
  Fe  Fe0_5  1  0.50000000  0.00000000  0.50000000  1
  Fe  Fe0_6  1  0.50000000  0.50000000  0.00000000  1
  Fe  Fe0_7  1  0.50000000  0.50000000  0.50000000  1
loop_
_geom_bond_atom_site_label_1
_geom_bond_atom_site_label_2
_geom_bond_distance
_geom_bond_site_symmetry_2
Fe0_0 Fe0_5 2.584864 1_554
Fe0_0 Fe0_5 2.584864 1_455
Fe0_0 Fe0_1 2.584864 1_554
Fe0_0 Fe0_1 2.584864 1_555
Fe0_0 Fe0_3 2.584865 1_554
Fe0_0 Fe0_3 2.584865 1_545
Fe0_0 Fe0_4 2.584865 1_555
Fe0_0 Fe0_4 2.584865 1_455
Fe0_0 Fe0_6 2.584866 1_545
Fe0_0 Fe0_6 2.584866 1_455
Fe0_0 Fe0_2 2.584866 1_555
Fe0_0 Fe0_2 2.584866 1_545
Fe0_1 Fe0_4 2.584864 1_555
Fe0_1 Fe0_4 2.584864 1_456
Fe0_1 Fe0_2 2.584865 1_555
Fe0_1 Fe0_2 2.584865 1_546
Fe0_1 Fe0_5 2.584865 1_555
Fe0_1 Fe0_5 2.584865 1_455
Fe0_1 Fe0_7 2.584866 1_545
Fe0_1 Fe0_7 2.584866 1_455
Fe0_1 Fe0_3 2.584866 1_555
Fe0_1 Fe0_3 2.584866 1_545
Fe0_2 Fe0_7 2.584864 1_554
Fe0_2 Fe0_7 2.584864 1_455
Fe0_2 Fe0_3 2.584864 1_555
Fe0_2 Fe0_3 2.584864 1_554
Fe0_2 Fe0_6 2.584865 1_455
Fe0_2 Fe0_6 2.584865 1_555
Fe0_2 Fe0_4 2.584866 1_555
Fe0_2 Fe0_4 2.584866 1_465
Fe0_3 Fe0_6 2.584864 1_555
Fe0_3 Fe0_6 2.584864 1_456
Fe0_3 Fe0_7 2.584865 1_455
Fe0_3 Fe0_7 2.584865 1_555
Fe0_3 Fe0_5 2.584866 1_555
Fe0_3 Fe0_5 2.584866 1_465
Fe0_4 Fe0_5 2.584864 1_554
Fe0_4 Fe0_5 2.584864 1_555
Fe0_4 Fe0_7 2.584865 1_554
Fe0_4 Fe0_7 2.584865 1_545
Fe0_4 Fe0_6 2.584866 1_545
Fe0_4 Fe0_6 2.584866 1_555
Fe0_5 Fe0_6 2.584865 1_546
Fe0_5 Fe0_6 2.584865 1_555
Fe0_5 Fe0_7 2.584866 1_545
Fe0_5 Fe0_7 2.584866 1_555
Fe0_6 Fe0_7 2.584864 1_554
Fe0_6 Fe0_7 2.584864 1_555
