# generated using pymatgen
data_KOsBr4NO2
_symmetry_space_group_name_H-M   'P 1'
_cell_length_a   9.18374676
_cell_length_b   9.18374676
_cell_length_c   7.57098900
_cell_angle_alpha   90.00000000
_cell_angle_beta   90.00000000
_cell_angle_gamma   118.62372276
_symmetry_Int_Tables_number   1
_chemical_formula_structural   KOsBr4NO2
_chemical_formula_sum   'K2 Os2 Br8 N2 O4'
_cell_volume   560.50620218
_cell_formula_units_Z   2
loop_
 _symmetry_equiv_pos_site_id
 _symmetry_equiv_pos_as_xyz
  1  'x, y, z'
loop_
 _atom_site_type_symbol
 _atom_site_label
 _atom_site_symmetry_multiplicity
 _atom_site_fract_x
 _atom_site_fract_y
 _atom_site_fract_z
 _atom_site_occupancy
  K  K0  1  0.68092200  0.31907800  0.02194200  1
  K  K1  1  0.31907800  0.68092200  0.52194200  1
  Os  Os0  1  0.16923200  0.83076800  0.02036400  1
  Os  Os1  1  0.83076800  0.16923200  0.52036400  1
  Br  Br0  1  0.25133400  0.13602600  0.05499000  1
  Br  Br1  1  0.86397400  0.74866600  0.05499000  1
  Br  Br2  1  0.74866600  0.86397400  0.55499000  1
  Br  Br3  1  0.13602600  0.25133400  0.55499000  1
  Br  Br4  1  0.53492200  0.09549900  0.43667800  1
  Br  Br5  1  0.90450100  0.46507800  0.43667800  1
  Br  Br6  1  0.46507800  0.90450100  0.93667800  1
  Br  Br7  1  0.09549900  0.53492200  0.93667800  1
  N  N0  1  0.86356300  0.13643700  0.27821000  1
  N  N1  1  0.13643700  0.86356300  0.77821000  1
  O  O0  1  0.11622400  0.88377600  0.62974600  1
  O  O1  1  0.88377600  0.11622400  0.12974600  1
  O  O2  1  0.19873300  0.80126700  0.24340300  1
  O  O3  1  0.80126700  0.19873300  0.74340300  1
loop_
_geom_bond_atom_site_label_1
_geom_bond_atom_site_label_2
_geom_bond_distance
_geom_bond_site_symmetry_2
K0 O3 2.839094 1_554
K0 O1 3.306453 1_555
K1 O2 2.839094 1_555
K1 O0 3.306453 1_555
Br0 Os0 2.543841 1_545
Br0 K0 3.478365 1_555
Br1 Os0 2.543841 1_655
Br1 K0 3.478365 1_555
Br2 Os1 2.543841 1_565
Br2 K1 3.478365 1_555
Br3 Os1 2.543841 1_455
Br3 K1 3.478365 1_555
Br4 Os1 2.545425 1_555
Br4 K1 3.407504 1_545
Br4 K0 3.638049 1_555
Br5 Os1 2.545425 1_555
Br5 K1 3.407504 1_655
Br5 K0 3.638049 1_555
Br6 Os0 2.545425 1_556
Br6 K0 3.407504 1_566
Br6 K1 3.638049 1_555
Br7 Os0 2.545425 1_556
Br7 K0 3.407504 1_456
Br7 K1 3.638049 1_555
N0 O1 1.168483 1_555
N0 Os1 1.905121 1_555
N1 O0 1.168483 1_555
N1 Os0 1.905121 1_556
O2 Os0 1.751739 1_555
O3 Os1 1.751739 1_555
