# generated using pymatgen
data_Mg14ZnB
_symmetry_space_group_name_H-M   'P 1'
_cell_length_a   6.18326216
_cell_length_b   6.18326169
_cell_length_c   10.03074346
_cell_angle_alpha   90.00000000
_cell_angle_beta   90.00000000
_cell_angle_gamma   120.00000250
_symmetry_Int_Tables_number   1
_chemical_formula_structural   Mg14ZnB
_chemical_formula_sum   'Mg14 Zn1 B1'
_cell_volume   332.12306091
_cell_formula_units_Z   1
loop_
 _symmetry_equiv_pos_site_id
 _symmetry_equiv_pos_as_xyz
  1  'x, y, z'
loop_
 _atom_site_type_symbol
 _atom_site_label
 _atom_site_symmetry_multiplicity
 _atom_site_fract_x
 _atom_site_fract_y
 _atom_site_fract_z
 _atom_site_occupancy
  Mg  Mg0  1  0.16886701  0.83443301  0.12500000  1
  Mg  Mg1  1  0.16350164  0.83175032  0.62500000  1
  Mg  Mg2  1  0.66556699  0.33113299  0.12500000  1
  Mg  Mg3  1  0.66824968  0.33649836  0.62500000  1
  Mg  Mg4  1  0.66556699  0.83443301  0.12500000  1
  Mg  Mg5  1  0.66824968  0.83175032  0.62500000  1
  Mg  Mg6  1  0.32737166  0.17262834  0.38165587  1
  Mg  Mg7  1  0.32737166  0.17262834  0.86834413  1
  Mg  Mg8  1  0.32737166  0.65474431  0.38165587  1
  Mg  Mg9  1  0.32737166  0.65474431  0.86834413  1
  Mg  Mg10  1  0.84525569  0.17262834  0.38165587  1
  Mg  Mg11  1  0.84525569  0.17262834  0.86834413  1
  Mg  Mg12  1  0.83333300  0.66666700  0.37197715  1
  Mg  Mg13  1  0.83333300  0.66666700  0.87802285  1
  Zn  Zn0  1  0.16666700  0.33333300  0.12500000  1
  B  B0  1  0.16666700  0.33333300  0.62500000  1
loop_
_geom_bond_atom_site_label_1
_geom_bond_atom_site_label_2
_geom_bond_distance
_geom_bond_site_symmetry_2
Mg0 Mg13 3.060327 1_454
Mg0 Mg12 3.060327 1_455
Mg0 Mg2 3.071226 1_565
Mg0 Mg4 3.071226 1_555
Mg0 Zn0 3.091653 1_565
Mg0 Zn0 3.091653 1_555
Mg0 Mg2 3.112036 1_455
Mg0 Mg4 3.112036 1_455
Mg0 Mg8 3.148289 1_555
Mg0 Mg9 3.148289 1_554
Mg0 Mg7 3.148295 1_564
Mg0 Mg6 3.148295 1_565
Mg1 Mg9 3.048218 1_555
Mg1 Mg8 3.048218 1_555
Mg1 Mg6 3.048224 1_565
Mg1 Mg7 3.048224 1_565
Mg1 Mg12 3.093110 1_455
Mg1 Mg13 3.093110 1_455
Mg2 Mg4 3.071226 1_545
Mg2 Zn0 3.091653 1_555
Mg2 Zn0 3.091654 1_655
Mg2 Mg4 3.112036 1_555
Mg2 Mg7 3.148295 1_554
Mg2 Mg6 3.148295 1_555
Mg3 Mg6 3.048225 1_555
Mg3 Mg7 3.048225 1_555
Mg4 Zn0 3.091653 1_555
Mg4 Zn0 3.091653 1_665
Mg4 Mg8 3.148295 1_555
Mg4 Mg9 3.148295 1_554
Mg5 Mg9 3.048224 1_555
Mg5 Mg8 3.048224 1_555
Mg6 Mg8 2.981049 1_555
Mg6 Zn0 3.096770 1_555
Mg6 Mg8 3.202212 1_545
Mg7 Mg9 2.981049 1_555
Mg7 Zn0 3.096770 1_556
Mg7 Mg9 3.202212 1_545
Mg8 Zn0 3.096776 1_555
Mg9 Zn0 3.096776 1_556
Mg10 Mg8 2.981049 1_655
Mg10 Mg6 2.981049 1_655
Mg10 Mg3 3.048218 1_555
Mg10 Mg5 3.048224 1_545
Mg10 Mg12 3.093814 1_545
Mg10 Mg12 3.093814 1_555
Mg10 Zn0 3.096776 1_655
Mg10 Mg2 3.148289 1_555
Mg10 Mg4 3.148295 1_545
Mg10 Mg8 3.202212 1_545
Mg10 Mg6 3.202213 1_555
Mg11 Mg9 2.981049 1_655
Mg11 Mg7 2.981049 1_655
Mg11 Mg3 3.048218 1_555
Mg11 Mg5 3.048224 1_545
Mg11 Mg13 3.093814 1_545
Mg11 Mg13 3.093814 1_555
Mg11 Zn0 3.096776 1_656
Mg11 Mg2 3.148289 1_556
Mg11 Mg4 3.148295 1_546
Mg11 Mg9 3.202212 1_545
Mg11 Mg7 3.202213 1_555
Mg12 Mg4 3.060321 1_555
Mg12 Mg2 3.060327 1_555
Mg12 Mg5 3.093104 1_555
Mg12 Mg3 3.093110 1_555
Mg12 Mg6 3.093814 1_665
Mg12 Mg6 3.093814 1_555
Mg12 Mg8 3.093814 1_555
Mg12 Mg8 3.093814 1_655
Mg13 Mg4 3.060321 1_556
Mg13 Mg2 3.060327 1_556
Mg13 Mg5 3.093104 1_555
Mg13 Mg3 3.093110 1_555
Mg13 Mg7 3.093814 1_665
Mg13 Mg7 3.093814 1_555
Mg13 Mg9 3.093814 1_555
Mg13 Mg9 3.093814 1_655
B0 Mg6 2.986687 1_555
B0 Mg7 2.986687 1_555
B0 Mg8 2.986693 1_555
B0 Mg9 2.986693 1_555
B0 Mg10 2.986693 1_455
B0 Mg11 2.986693 1_455
