# generated using pymatgen
data_Co2As2O9
_symmetry_space_group_name_H-M   'P 1'
_cell_length_a   14.51688800
_cell_length_b   6.44689900
_cell_length_c   9.53763812
_cell_angle_alpha   51.26000198
_cell_angle_beta   90.00000000
_cell_angle_gamma   90.00000000
_symmetry_Int_Tables_number   1
_chemical_formula_structural   Co2As2O9
_chemical_formula_sum   'Co8 As8 O36'
_cell_volume   696.23579642
_cell_formula_units_Z   4
loop_
 _symmetry_equiv_pos_site_id
 _symmetry_equiv_pos_as_xyz
  1  'x, y, z'
loop_
 _atom_site_type_symbol
 _atom_site_label
 _atom_site_symmetry_multiplicity
 _atom_site_fract_x
 _atom_site_fract_y
 _atom_site_fract_z
 _atom_site_occupancy
  Co  Co0  1  0.75417500  0.67435000  0.86713800  1
  Co  Co1  1  0.74582500  0.67435000  0.36713800  1
  Co  Co2  1  0.24582500  0.32565000  0.13286200  1
  Co  Co3  1  0.25417500  0.32565000  0.63286200  1
  Co  Co4  1  0.89350900  0.17969500  0.58609700  1
  Co  Co5  1  0.60649100  0.17969500  0.08609700  1
  Co  Co6  1  0.10649100  0.82030500  0.41390300  1
  Co  Co7  1  0.39350900  0.82030500  0.91390300  1
  As  As0  1  0.80791100  0.10425400  0.95217700  1
  As  As1  1  0.69208900  0.10425400  0.45217700  1
  As  As2  1  0.19208900  0.89574600  0.04782300  1
  As  As3  1  0.30791100  0.89574600  0.54782300  1
  As  As4  1  0.92218200  0.59920600  0.66054500  1
  As  As5  1  0.57781800  0.59920600  0.16054500  1
  As  As6  1  0.07781800  0.40079400  0.33945500  1
  As  As7  1  0.42218200  0.40079400  0.83945500  1
  O  O0  1  0.78900100  0.03114500  0.80756700  1
  O  O1  1  0.71099900  0.03114500  0.30756700  1
  O  O2  1  0.21099900  0.96885500  0.19243300  1
  O  O3  1  0.28900100  0.96885500  0.69243300  1
  O  O4  1  0.83168900  0.85024500  0.16996200  1
  O  O5  1  0.66831100  0.85024500  0.66996200  1
  O  O6  1  0.16831100  0.14975500  0.83003800  1
  O  O7  1  0.33168900  0.14975500  0.33003800  1
  O  O8  1  0.72426500  0.32763600  0.91152300  1
  O  O9  1  0.77573500  0.32763600  0.41152300  1
  O  O10  1  0.27573500  0.67236400  0.08847700  1
  O  O11  1  0.22426500  0.67236400  0.58847700  1
  O  O12  1  0.91360700  0.29043900  0.88050400  1
  O  O13  1  0.58639300  0.29043900  0.38050400  1
  O  O14  1  0.08639300  0.70956100  0.11949600  1
  O  O15  1  0.41360700  0.70956100  0.61949600  1
  O  O16  1  0.03473200  0.68378000  0.62963400  1
  O  O17  1  0.46526800  0.68378000  0.12963400  1
  O  O18  1  0.96526800  0.31622000  0.37036600  1
  O  O19  1  0.53473200  0.31622000  0.87036600  1
  O  O20  1  0.87337400  0.53731400  0.52491800  1
  O  O21  1  0.62662600  0.53731400  0.02491800  1
  O  O22  1  0.12662600  0.46268600  0.47508200  1
  O  O23  1  0.37337400  0.46268600  0.97508200  1
  O  O24  1  0.85221400  0.82279800  0.65285000  1
  O  O25  1  0.64778600  0.82279800  0.15285000  1
  O  O26  1  0.14778600  0.17720200  0.34715000  1
  O  O27  1  0.35221400  0.17720200  0.84715000  1
  O  O28  1  0.82438000  0.52141500  0.03493100  1
  O  O29  1  0.67562000  0.52141500  0.53493100  1
  O  O30  1  0.17562000  0.47858500  0.96506900  1
  O  O31  1  0.32438000  0.47858500  0.46506900  1
  O  O32  1  0.98239000  0.05092600  0.73779500  1
  O  O33  1  0.51761000  0.05092600  0.23779500  1
  O  O34  1  0.01761000  0.94907400  0.26220500  1
  O  O35  1  0.48239000  0.94907400  0.76220500  1
loop_
_geom_bond_atom_site_label_1
_geom_bond_atom_site_label_2
_geom_bond_distance
_geom_bond_site_symmetry_2
Co0 O28 1.611547 1_556
Co0 O5 1.925408 1_555
Co0 O8 2.044433 1_555
Co0 O0 2.057604 1_565
Co0 O24 2.161142 1_555
Co0 O21 2.193083 1_556
Co1 O29 1.611547 1_555
Co1 O4 1.925408 1_555
Co1 O9 2.044433 1_555
Co1 O1 2.057604 1_565
Co1 O25 2.161142 1_555
Co1 O20 2.193083 1_555
Co2 O30 1.611547 1_554
Co2 O7 1.925408 1_555
Co2 O10 2.044433 1_555
Co2 O2 2.057604 1_545
Co2 O26 2.161142 1_555
Co2 O23 2.193083 1_554
Co3 O31 1.611547 1_555
Co3 O6 1.925408 1_555
Co3 O11 2.044433 1_555
Co3 O3 2.057604 1_545
Co3 O27 2.161142 1_555
Co3 O22 2.193083 1_555
Co4 O32 1.715822 1_555
Co4 O18 1.956231 1_555
Co4 O20 2.014367 1_555
Co4 O24 2.055562 1_545
Co4 O9 2.148845 1_555
Co4 O0 2.269102 1_555
Co5 O33 1.715822 1_555
Co5 O19 1.956231 1_554
Co5 O21 2.014367 1_555
Co5 O25 2.055562 1_545
Co5 O8 2.148845 1_554
Co5 O1 2.269102 1_555
Co6 O34 1.715822 1_555
Co6 O16 1.956231 1_555
Co6 O22 2.014367 1_555
Co6 O26 2.055562 1_565
Co6 O11 2.148845 1_555
Co6 O2 2.269102 1_555
Co7 O35 1.715822 1_555
Co7 O17 1.956231 1_556
Co7 O23 2.014367 1_555
Co7 O27 2.055562 1_565
Co7 O10 2.148845 1_556
Co7 O3 2.269102 1_555
As0 O4 1.690605 1_546
As0 O8 1.732020 1_555
As0 O0 1.735919 1_555
As0 O12 1.798727 1_555
As1 O5 1.690605 1_545
As1 O9 1.732020 1_555
As1 O1 1.735919 1_555
As1 O13 1.798727 1_555
As2 O6 1.690605 1_564
As2 O10 1.732020 1_555
As2 O2 1.735919 1_555
As2 O14 1.798727 1_555
As3 O7 1.690605 1_565
As3 O11 1.732020 1_555
As3 O3 1.735919 1_555
As3 O15 1.798727 1_555
As4 O16 1.688955 1_655
As4 O20 1.726423 1_555
As4 O24 1.726995 1_555
As4 O12 1.775517 1_555
As5 O17 1.688955 1_555
As5 O21 1.726423 1_555
As5 O25 1.726995 1_555
As5 O13 1.775517 1_555
As6 O18 1.688955 1_455
As6 O22 1.726423 1_555
As6 O26 1.726995 1_555
As6 O14 1.775517 1_555
As7 O19 1.688955 1_555
As7 O23 1.726423 1_555
As7 O27 1.726995 1_555
As7 O15 1.775517 1_555
