# generated using pymatgen
data_Fe4Mo
_symmetry_space_group_name_H-M   'P 1'
_cell_length_a   18.79317484
_cell_length_b   18.79317484
_cell_length_c   18.79317484
_cell_angle_alpha   164.04992552
_cell_angle_beta   164.04992552
_cell_angle_gamma   22.63087119
_symmetry_Int_Tables_number   1
_chemical_formula_structural   Fe4Mo
_chemical_formula_sum   'Fe32 Mo8'
_cell_volume   501.12852143
_cell_formula_units_Z   8
loop_
 _symmetry_equiv_pos_site_id
 _symmetry_equiv_pos_as_xyz
  1  'x, y, z'
loop_
 _atom_site_type_symbol
 _atom_site_label
 _atom_site_symmetry_multiplicity
 _atom_site_fract_x
 _atom_site_fract_y
 _atom_site_fract_z
 _atom_site_occupancy
  Fe  Fe0_0  1  0.19421700  0.19421700  0.00000000  1
  Fe  Fe0_1  1  0.19421700  0.19421700  0.50000000  1
  Fe  Fe0_2  1  0.19421700  0.69421700  0.00000000  1
  Fe  Fe0_3  1  0.19421700  0.69421700  0.50000000  1
  Fe  Fe0_4  1  0.69421700  0.19421700  0.00000000  1
  Fe  Fe0_5  1  0.69421700  0.19421700  0.50000000  1
  Fe  Fe0_6  1  0.69421700  0.69421700  0.00000000  1
  Fe  Fe0_7  1  0.69421700  0.69421700  0.50000000  1
  Fe  Fe1_0  1  0.39707300  0.39707300  0.00000000  1
  Fe  Fe1_1  1  0.39707300  0.39707300  0.50000000  1
  Fe  Fe1_2  1  0.39707300  0.89707300  0.00000000  1
  Fe  Fe1_3  1  0.39707300  0.89707300  0.50000000  1
  Fe  Fe1_4  1  0.89707300  0.39707300  0.00000000  1
  Fe  Fe1_5  1  0.89707300  0.39707300  0.50000000  1
  Fe  Fe1_6  1  0.89707300  0.89707300  0.00000000  1
  Fe  Fe1_7  1  0.89707300  0.89707300  0.50000000  1
  Fe  Fe2_0  1  0.10292700  0.10292700  0.00000000  1
  Fe  Fe2_1  1  0.10292700  0.10292700  0.50000000  1
  Fe  Fe2_2  1  0.10292700  0.60292700  0.00000000  1
  Fe  Fe2_3  1  0.10292700  0.60292700  0.50000000  1
  Fe  Fe2_4  1  0.60292700  0.10292700  0.00000000  1
  Fe  Fe2_5  1  0.60292700  0.10292700  0.50000000  1
  Fe  Fe2_6  1  0.60292700  0.60292700  0.00000000  1
  Fe  Fe2_7  1  0.60292700  0.60292700  0.50000000  1
  Fe  Fe3_0  1  0.30578300  0.30578300  0.00000000  1
  Fe  Fe3_1  1  0.30578300  0.30578300  0.50000000  1
  Fe  Fe3_2  1  0.30578300  0.80578300  0.00000000  1
  Fe  Fe3_3  1  0.30578300  0.80578300  0.50000000  1
  Fe  Fe3_4  1  0.80578300  0.30578300  0.00000000  1
  Fe  Fe3_5  1  0.80578300  0.30578300  0.50000000  1
  Fe  Fe3_6  1  0.80578300  0.80578300  0.00000000  1
  Fe  Fe3_7  1  0.80578300  0.80578300  0.50000000  1
  Mo  Mo0_0  1  0.00000000  0.00000000  0.00000000  1
  Mo  Mo0_1  1  0.00000000  0.00000000  0.50000000  1
  Mo  Mo0_2  1  0.00000000  0.50000000  0.00000000  1
  Mo  Mo0_3  1  0.00000000  0.50000000  0.50000000  1
  Mo  Mo0_4  1  0.50000000  0.00000000  0.00000000  1
  Mo  Mo0_5  1  0.50000000  0.00000000  0.50000000  1
  Mo  Mo0_6  1  0.50000000  0.50000000  0.00000000  1
  Mo  Mo0_7  1  0.50000000  0.50000000  0.50000000  1
loop_
_geom_bond_atom_site_label_1
_geom_bond_atom_site_label_2
_geom_bond_distance
_geom_bond_site_symmetry_2
Fe0_0 Fe1_7 2.533428 1_444
Fe0_0 Fe1_4 2.533428 1_455
Fe0_0 Fe1_2 2.533428 1_545
Fe0_0 Fe1_1 2.533428 1_555
Fe0_0 Fe0_5 2.607396 1_555
Fe0_0 Fe0_5 2.607396 1_454
Fe0_0 Fe0_3 2.607396 1_544
Fe0_0 Fe0_3 2.607396 1_555
Fe0_0 Mo0_1 2.761536 1_554
Fe0_0 Mo0_7 2.761536 1_555
Fe0_0 Mo0_4 2.761536 1_555
Fe0_0 Mo0_2 2.761536 1_555
Fe0_1 Fe1_6 2.533428 1_445
Fe0_1 Fe1_3 2.533428 1_545
Fe0_1 Fe1_5 2.533428 1_455
Fe0_1 Fe1_0 2.533428 1_556
Fe0_1 Fe0_2 2.607396 1_545
Fe0_1 Fe0_2 2.607396 1_556
Fe0_1 Fe0_4 2.607396 1_556
Fe0_1 Fe0_4 2.607396 1_455
Fe0_1 Mo0_0 2.761536 1_555
Fe0_1 Mo0_6 2.761536 1_556
Fe0_1 Mo0_5 2.761536 1_555
Fe0_1 Mo0_3 2.761536 1_555
Fe0_2 Fe1_5 2.533428 1_454
Fe0_2 Fe1_0 2.533428 1_555
Fe0_2 Fe1_3 2.533428 1_555
Fe0_2 Fe1_6 2.533428 1_455
Fe0_2 Fe0_7 2.607396 1_555
Fe0_2 Fe0_7 2.607396 1_454
Fe0_2 Mo0_3 2.761536 1_554
Fe0_2 Mo0_5 2.761536 1_565
Fe0_2 Mo0_6 2.761536 1_555
Fe0_2 Mo0_0 2.761536 1_565
Fe0_3 Fe1_7 2.533428 1_455
Fe0_3 Fe1_2 2.533428 1_556
Fe0_3 Fe1_4 2.533428 1_455
Fe0_3 Fe1_1 2.533428 1_555
Fe0_3 Fe0_6 2.607396 1_455
Fe0_3 Fe0_6 2.607396 1_556
Fe0_3 Mo0_2 2.761536 1_555
Fe0_3 Mo0_7 2.761536 1_555
Fe0_3 Mo0_4 2.761536 1_566
Fe0_3 Mo0_1 2.761536 1_565
Fe0_4 Fe1_3 2.533428 1_544
Fe0_4 Fe1_6 2.533428 1_545
Fe0_4 Fe1_5 2.533428 1_555
Fe0_4 Fe1_0 2.533428 1_555
Fe0_4 Fe0_7 2.607396 1_555
Fe0_4 Fe0_7 2.607396 1_544
Fe0_4 Mo0_6 2.761536 1_555
Fe0_4 Mo0_3 2.761536 1_655
Fe0_4 Mo0_0 2.761536 1_655
Fe0_4 Mo0_5 2.761536 1_554
Fe0_5 Fe1_4 2.533428 1_556
Fe0_5 Fe1_2 2.533428 1_545
Fe0_5 Fe1_7 2.533428 1_545
Fe0_5 Fe1_1 2.533428 1_555
Fe0_5 Fe0_6 2.607396 1_545
Fe0_5 Fe0_6 2.607396 1_556
Fe0_5 Mo0_4 2.761536 1_555
Fe0_5 Mo0_7 2.761536 1_555
Fe0_5 Mo0_2 2.761536 1_656
Fe0_5 Mo0_1 2.761536 1_655
Fe0_6 Fe1_2 2.533428 1_555
Fe0_6 Fe1_7 2.533428 1_555
Fe0_6 Fe1_4 2.533428 1_555
Fe0_6 Fe1_1 2.533428 1_554
Fe0_6 Mo0_2 2.761536 1_655
Fe0_6 Mo0_7 2.761536 1_554
Fe0_6 Mo0_4 2.761536 1_565
Fe0_6 Mo0_1 2.761536 1_665
Fe0_7 Fe1_6 2.533428 1_556
Fe0_7 Fe1_0 2.533428 1_555
Fe0_7 Fe1_3 2.533428 1_555
Fe0_7 Fe1_5 2.533428 1_555
Fe0_7 Mo0_3 2.761536 1_655
Fe0_7 Mo0_5 2.761536 1_565
Fe0_7 Mo0_0 2.761536 1_666
Fe0_7 Mo0_6 2.761536 1_555
Fe1_0 Fe2_2 2.458962 1_555
Fe1_0 Fe2_4 2.458962 1_555
Fe1_0 Fe2_7 2.458962 1_555
Fe1_0 Fe2_1 2.458962 1_554
Fe1_0 Fe1_3 2.607396 1_555
Fe1_0 Fe1_5 2.607396 1_555
Fe1_0 Fe1_5 2.607396 1_454
Fe1_0 Fe1_3 2.607396 1_544
Fe1_1 Fe2_6 2.458962 1_556
Fe1_1 Fe2_5 2.458962 1_555
Fe1_1 Fe2_3 2.458962 1_555
Fe1_1 Fe2_0 2.458962 1_555
Fe1_1 Fe1_4 2.607396 1_455
Fe1_1 Fe1_4 2.607396 1_556
Fe1_1 Fe1_2 2.607396 1_545
Fe1_1 Fe1_2 2.607396 1_556
Fe1_2 Fe2_6 2.458962 1_555
Fe1_2 Fe2_5 2.458962 1_565
Fe1_2 Fe2_3 2.458962 1_554
Fe1_2 Fe2_0 2.458962 1_565
Fe1_2 Fe1_7 2.607396 1_454
Fe1_2 Fe1_7 2.607396 1_555
Fe1_3 Fe2_7 2.458962 1_555
Fe1_3 Fe2_4 2.458962 1_566
Fe1_3 Fe2_2 2.458962 1_555
Fe1_3 Fe2_1 2.458962 1_565
Fe1_3 Fe1_6 2.607396 1_455
Fe1_3 Fe1_6 2.607396 1_556
Fe1_4 Fe2_6 2.458962 1_555
Fe1_4 Fe2_3 2.458962 1_655
Fe1_4 Fe2_0 2.458962 1_655
Fe1_4 Fe2_5 2.458962 1_554
Fe1_4 Fe1_7 2.607396 1_555
Fe1_4 Fe1_7 2.607396 1_544
Fe1_5 Fe2_7 2.458962 1_555
Fe1_5 Fe2_4 2.458962 1_555
Fe1_5 Fe2_2 2.458962 1_656
Fe1_5 Fe2_1 2.458962 1_655
Fe1_5 Fe1_6 2.607396 1_545
Fe1_5 Fe1_6 2.607396 1_556
Fe1_6 Fe2_4 2.458962 1_565
Fe1_6 Fe2_2 2.458962 1_655
Fe1_6 Fe2_7 2.458962 1_554
Fe1_6 Fe2_1 2.458962 1_665
Fe1_7 Fe2_5 2.458962 1_565
Fe1_7 Fe2_3 2.458962 1_655
Fe1_7 Fe2_6 2.458962 1_555
Fe1_7 Fe2_0 2.458962 1_666
Fe2_0 Fe3_1 2.533428 1_555
Fe2_0 Fe3_2 2.533428 1_545
Fe2_0 Fe3_4 2.533428 1_455
Fe2_0 Fe3_7 2.533428 1_444
Fe2_0 Fe2_3 2.607396 1_544
Fe2_0 Fe2_5 2.607396 1_454
Fe2_0 Fe2_5 2.607396 1_555
Fe2_0 Fe2_3 2.607396 1_555
Fe2_1 Fe3_6 2.533428 1_445
Fe2_1 Fe3_0 2.533428 1_556
Fe2_1 Fe3_5 2.533428 1_455
Fe2_1 Fe3_3 2.533428 1_545
Fe2_1 Fe2_4 2.607396 1_455
Fe2_1 Fe2_4 2.607396 1_556
Fe2_1 Fe2_2 2.607396 1_556
Fe2_1 Fe2_2 2.607396 1_545
Fe2_2 Fe3_6 2.533428 1_455
Fe2_2 Fe3_0 2.533428 1_555
Fe2_2 Fe3_5 2.533428 1_454
Fe2_2 Fe3_3 2.533428 1_555
Fe2_2 Fe2_7 2.607396 1_454
Fe2_2 Fe2_7 2.607396 1_555
Fe2_3 Fe3_1 2.533428 1_555
Fe2_3 Fe3_2 2.533428 1_556
Fe2_3 Fe3_4 2.533428 1_455
Fe2_3 Fe3_7 2.533428 1_455
Fe2_3 Fe2_6 2.607396 1_455
Fe2_3 Fe2_6 2.607396 1_556
Fe2_4 Fe3_6 2.533428 1_545
Fe2_4 Fe3_0 2.533428 1_555
Fe2_4 Fe3_5 2.533428 1_555
Fe2_4 Fe3_3 2.533428 1_544
Fe2_4 Fe2_7 2.607396 1_544
Fe2_4 Fe2_7 2.607396 1_555
Fe2_5 Fe3_1 2.533428 1_555
Fe2_5 Fe3_2 2.533428 1_545
Fe2_5 Fe3_4 2.533428 1_556
Fe2_5 Fe3_7 2.533428 1_545
Fe2_5 Fe2_6 2.607396 1_545
Fe2_5 Fe2_6 2.607396 1_556
Fe2_6 Fe3_1 2.533428 1_554
Fe2_6 Fe3_4 2.533428 1_555
Fe2_6 Fe3_2 2.533428 1_555
Fe2_6 Fe3_7 2.533428 1_555
Fe2_7 Fe3_6 2.533428 1_556
Fe2_7 Fe3_0 2.533428 1_555
Fe2_7 Fe3_3 2.533428 1_555
Fe2_7 Fe3_5 2.533428 1_555
Fe3_0 Fe3_5 2.607396 1_555
Fe3_0 Fe3_3 2.607396 1_555
Fe3_0 Fe3_3 2.607396 1_544
Fe3_0 Fe3_5 2.607396 1_454
Fe3_0 Mo0_1 2.761536 1_554
Fe3_0 Mo0_2 2.761536 1_555
Fe3_0 Mo0_4 2.761536 1_555
Fe3_0 Mo0_7 2.761536 1_555
Fe3_1 Fe3_4 2.607396 1_556
Fe3_1 Fe3_2 2.607396 1_556
Fe3_1 Fe3_2 2.607396 1_545
Fe3_1 Fe3_4 2.607396 1_455
Fe3_1 Mo0_0 2.761536 1_555
Fe3_1 Mo0_3 2.761536 1_555
Fe3_1 Mo0_6 2.761536 1_556
Fe3_1 Mo0_5 2.761536 1_555
Fe3_2 Fe3_7 2.607396 1_555
Fe3_2 Fe3_7 2.607396 1_454
Fe3_2 Mo0_5 2.761536 1_565
Fe3_2 Mo0_6 2.761536 1_555
Fe3_2 Mo0_0 2.761536 1_565
Fe3_2 Mo0_3 2.761536 1_554
Fe3_3 Fe3_6 2.607396 1_556
Fe3_3 Fe3_6 2.607396 1_455
Fe3_3 Mo0_7 2.761536 1_555
Fe3_3 Mo0_4 2.761536 1_566
Fe3_3 Mo0_2 2.761536 1_555
Fe3_3 Mo0_1 2.761536 1_565
Fe3_4 Fe3_7 2.607396 1_555
Fe3_4 Fe3_7 2.607396 1_544
Fe3_4 Mo0_6 2.761536 1_555
Fe3_4 Mo0_5 2.761536 1_554
Fe3_4 Mo0_3 2.761536 1_655
Fe3_4 Mo0_0 2.761536 1_655
Fe3_5 Fe3_6 2.607396 1_556
Fe3_5 Fe3_6 2.607396 1_545
Fe3_5 Mo0_7 2.761536 1_555
Fe3_5 Mo0_4 2.761536 1_555
Fe3_5 Mo0_2 2.761536 1_656
Fe3_5 Mo0_1 2.761536 1_655
Fe3_6 Mo0_2 2.761536 1_655
Fe3_6 Mo0_1 2.761536 1_665
Fe3_6 Mo0_7 2.761536 1_554
Fe3_6 Mo0_4 2.761536 1_565
Fe3_7 Mo0_6 2.761536 1_555
Fe3_7 Mo0_5 2.761536 1_565
Fe3_7 Mo0_3 2.761536 1_655
Fe3_7 Mo0_0 2.761536 1_666
Mo0_0 Mo0_3 2.607396 1_544
Mo0_0 Mo0_3 2.607396 1_555
Mo0_0 Mo0_5 2.607396 1_454
Mo0_0 Mo0_5 2.607396 1_555
Mo0_1 Mo0_2 2.607396 1_556
Mo0_1 Mo0_4 2.607396 1_455
Mo0_1 Mo0_2 2.607396 1_545
Mo0_1 Mo0_4 2.607396 1_556
Mo0_2 Mo0_7 2.607396 1_555
Mo0_2 Mo0_7 2.607396 1_454
Mo0_3 Mo0_6 2.607396 1_455
Mo0_3 Mo0_6 2.607396 1_556
Mo0_4 Mo0_7 2.607396 1_544
Mo0_4 Mo0_7 2.607396 1_555
Mo0_5 Mo0_6 2.607396 1_556
Mo0_5 Mo0_6 2.607396 1_545
