# generated using pymatgen
data_ZnFe(Si2O5)2
_symmetry_space_group_name_H-M   'P 1'
_cell_length_a   7.20981156
_cell_length_b   7.20981116
_cell_length_c   14.78192446
_cell_angle_alpha   90.00000000
_cell_angle_beta   90.00000000
_cell_angle_gamma   90.00000000
_symmetry_Int_Tables_number   1
_chemical_formula_structural   ZnFe(Si2O5)2
_chemical_formula_sum   'Zn4 Fe4 Si16 O40'
_cell_volume   768.38483022
_cell_formula_units_Z   4
loop_
 _symmetry_equiv_pos_site_id
 _symmetry_equiv_pos_as_xyz
  1  'x, y, z'
loop_
 _atom_site_type_symbol
 _atom_site_label
 _atom_site_symmetry_multiplicity
 _atom_site_fract_x
 _atom_site_fract_y
 _atom_site_fract_z
 _atom_site_occupancy
  Zn  Zn0  1  0.50000000  0.50000000  0.50000000  1
  Zn  Zn1  1  -0.00000000  0.00000000  0.50000000  1
  Zn  Zn2  1  -0.00000000  0.00000000  1.00000000  1
  Zn  Zn3  1  0.50000000  0.50000000  0.00000000  1
  Fe  Fe0  1  0.50000000  0.00000000  0.56692122  1
  Fe  Fe1  1  -0.00000000  0.50000000  0.93307878  1
  Fe  Fe2  1  -0.00000000  0.50000000  0.43307878  1
  Fe  Fe3  1  0.50000000  0.00000000  0.06692122  1
  Si  Si0  1  0.15764926  0.23686240  0.64495726  1
  Si  Si1  1  0.84235074  0.76313760  0.64495726  1
  Si  Si2  1  0.23686241  0.15764925  0.85504273  1
  Si  Si3  1  0.73686241  0.34235075  0.64495727  1
  Si  Si4  1  0.26313759  0.65764925  0.64495727  1
  Si  Si5  1  0.34235074  0.73686240  0.85504274  1
  Si  Si6  1  0.65764926  0.26313760  0.85504274  1
  Si  Si7  1  0.76313759  0.84235075  0.85504273  1
  Si  Si8  1  0.34235074  0.26313760  0.35504274  1
  Si  Si9  1  0.65764926  0.73686240  0.35504274  1
  Si  Si10  1  0.26313759  0.34235075  0.14495727  1
  Si  Si11  1  0.76313759  0.15764925  0.35504273  1
  Si  Si12  1  0.23686241  0.84235075  0.35504273  1
  Si  Si13  1  0.15764926  0.76313760  0.14495726  1
  Si  Si14  1  0.84235074  0.23686240  0.14495726  1
  Si  Si15  1  0.73686241  0.65764925  0.14495727  1
  O  O0  1  0.23115326  0.08329989  0.57428848  1
  O  O1  1  0.76884674  0.91670011  0.57428848  1
  O  O2  1  0.08329987  0.23115327  0.92571153  1
  O  O3  1  0.58329987  0.26884673  0.57428847  1
  O  O4  1  0.41670013  0.73115327  0.57428847  1
  O  O5  1  0.26884674  0.58329989  0.92571152  1
  O  O6  1  0.73115326  0.41670011  0.92571152  1
  O  O7  1  0.91670013  0.76884673  0.92571153  1
  O  O8  1  0.26884674  0.41670011  0.42571152  1
  O  O9  1  0.73115326  0.58329989  0.42571152  1
  O  O10  1  0.41670013  0.26884673  0.07428847  1
  O  O11  1  0.91670013  0.23115327  0.42571153  1
  O  O12  1  0.08329987  0.76884673  0.42571153  1
  O  O13  1  0.23115326  0.91670011  0.07428848  1
  O  O14  1  0.76884674  0.08329989  0.07428848  1
  O  O15  1  0.25090511  0.06277107  0.37385815  1
  O  O16  1  0.58329987  0.73115327  0.07428847  1
  O  O17  1  0.75090511  0.56277107  0.62614185  1
  O  O18  1  0.43722892  0.24909487  0.87385815  1
  O  O19  1  0.93722892  0.25090513  0.62614185  1
  O  O20  1  0.06277108  0.74909487  0.62614185  1
  O  O21  1  0.25090511  0.93722893  0.87385815  1
  O  O22  1  0.74909489  0.06277107  0.87385815  1
  O  O23  1  0.56277108  0.75090513  0.87385815  1
  O  O24  1  0.68615977  0.68615978  0.24999999  1
  O  O25  1  0.81384023  0.18615978  0.25000001  1
  O  O26  1  0.18615977  0.81384022  0.25000001  1
  O  O27  1  0.31384023  0.31384022  0.24999999  1
  O  O28  1  0.81384023  0.81384022  0.75000001  1
  O  O29  1  0.68615977  0.31384022  0.74999999  1
  O  O30  1  0.31384023  0.68615978  0.74999999  1
  O  O31  1  0.18615977  0.18615978  0.75000001  1
  O  O32  1  0.93722892  0.74909487  0.12614185  1
  O  O33  1  0.75090511  0.43722893  0.12614185  1
  O  O34  1  0.24909489  0.56277107  0.12614185  1
  O  O35  1  0.43722892  0.75090513  0.37385815  1
  O  O36  1  0.56277108  0.24909487  0.37385815  1
  O  O37  1  0.06277108  0.25090513  0.12614185  1
  O  O38  1  0.74909489  0.93722893  0.37385815  1
  O  O39  1  0.24909489  0.43722893  0.62614185  1
loop_
_geom_bond_atom_site_label_1
_geom_bond_atom_site_label_2
_geom_bond_distance
_geom_bond_site_symmetry_2
Fe0 O3 2.032164 1_555
Fe0 O4 2.032164 1_545
Fe0 O0 2.032164 1_555
Fe0 O1 2.032164 1_545
Fe1 O7 2.032164 1_455
Fe1 O2 2.032164 1_555
Fe1 O6 2.032164 1_455
Fe1 O5 2.032164 1_555
Fe2 O11 2.032164 1_455
Fe2 O12 2.032164 1_555
Fe2 O9 2.032164 1_455
Fe2 O8 2.032164 1_555
Fe3 O10 2.032164 1_555
Fe3 O16 2.032164 1_545
Fe3 O13 2.032164 1_545
Fe3 O14 2.032164 1_555
O0 Si0 1.611793 1_555
O0 Zn1 2.084235 1_555
O1 Si1 1.611793 1_555
O1 Zn1 2.084235 1_665
O2 Si2 1.611793 1_555
O2 Zn2 2.084235 1_555
O3 Si3 1.611793 1_555
O3 Zn0 2.084235 1_555
O4 Si4 1.611793 1_555
O4 Zn0 2.084235 1_555
O5 Si5 1.611793 1_555
O5 Zn3 2.084235 1_556
O6 Si6 1.611793 1_555
O6 Zn3 2.084235 1_556
O7 Si7 1.611793 1_555
O7 Zn2 2.084235 1_665
O8 Si8 1.611793 1_555
O8 Zn0 2.084235 1_555
O9 Si9 1.611793 1_555
O9 Zn0 2.084235 1_555
O10 Si10 1.611793 1_555
O10 Zn3 2.084235 1_555
O11 Si11 1.611793 1_555
O11 Zn1 2.084235 1_655
O12 Si12 1.611793 1_555
O12 Zn1 2.084235 1_565
O13 Si13 1.611793 1_555
O13 Zn2 2.084235 1_564
O14 Si14 1.611793 1_555
O14 Zn2 2.084235 1_654
O15 Si8 1.612117 1_555
O15 Si12 1.616517 1_545
O16 Si15 1.611793 1_555
O16 Zn3 2.084235 1_555
O17 Si1 1.612117 1_555
O17 Si3 1.616517 1_555
O18 Si2 1.612117 1_555
O18 Si6 1.616517 1_555
O19 Si3 1.612117 1_555
O19 Si0 1.616517 1_655
O20 Si4 1.612117 1_555
O20 Si1 1.616517 1_455
O21 Si5 1.612117 1_555
O21 Si2 1.616517 1_565
O22 Si6 1.612117 1_555
O22 Si7 1.616517 1_545
O23 Si7 1.612117 1_555
O23 Si5 1.616517 1_555
O24 Si15 1.608374 1_555
O24 Si9 1.608374 1_555
O25 Si11 1.608374 1_555
O25 Si14 1.608374 1_555
O26 Si12 1.608374 1_555
O26 Si13 1.608374 1_555
O27 Si10 1.608374 1_555
O27 Si8 1.608374 1_555
O28 Si7 1.608374 1_555
O28 Si1 1.608374 1_555
O29 Si3 1.608374 1_555
O29 Si6 1.608374 1_555
O30 Si4 1.608374 1_555
O30 Si5 1.608374 1_555
O31 Si2 1.608374 1_555
O31 Si0 1.608374 1_555
O32 Si15 1.612117 1_555
O32 Si13 1.616517 1_655
O33 Si14 1.612117 1_555
O33 Si15 1.616517 1_555
O34 Si13 1.612117 1_555
O34 Si10 1.616517 1_555
O35 Si12 1.612117 1_555
O35 Si9 1.616517 1_555
O36 Si11 1.612117 1_555
O36 Si8 1.616517 1_555
O37 Si10 1.612117 1_555
O37 Si14 1.616517 1_455
O38 Si9 1.612117 1_555
O38 Si11 1.616517 1_565
O39 Si0 1.612117 1_555
O39 Si4 1.616517 1_555
