# generated using pymatgen
data_CaFe2P2O9
_symmetry_space_group_name_H-M   'P 1'
_cell_length_a   6.40384638
_cell_length_b   7.28323190
_cell_length_c   14.29132148
_cell_angle_alpha   90.00000000
_cell_angle_beta   90.00000000
_cell_angle_gamma   90.00000000
_symmetry_Int_Tables_number   1
_chemical_formula_structural   CaFe2P2O9
_chemical_formula_sum   'Ca4 Fe8 P8 O36'
_cell_volume   666.55721256
_cell_formula_units_Z   4
loop_
 _symmetry_equiv_pos_site_id
 _symmetry_equiv_pos_as_xyz
  1  'x, y, z'
loop_
 _atom_site_type_symbol
 _atom_site_label
 _atom_site_symmetry_multiplicity
 _atom_site_fract_x
 _atom_site_fract_y
 _atom_site_fract_z
 _atom_site_occupancy
  Ca  Ca0  1  0.25000000  0.89114348  0.78190971  1
  Ca  Ca1  1  0.25000000  0.60885652  0.28190971  1
  Ca  Ca2  1  0.75000000  0.39114348  0.71809029  1
  Ca  Ca3  1  0.75000000  0.10885652  0.21809029  1
  Fe  Fe0  1  0.25000000  0.35469576  0.87983288  1
  Fe  Fe1  1  0.75000000  0.64530424  0.12016712  1
  Fe  Fe2  1  0.75000000  0.85469576  0.62016712  1
  Fe  Fe3  1  0.25000000  0.14530424  0.37983288  1
  Fe  Fe4  1  0.00000000  0.00000000  0.00000000  1
  Fe  Fe5  1  0.00000000  0.50000000  0.50000000  1
  Fe  Fe6  1  0.50000000  0.50000000  0.50000000  1
  Fe  Fe7  1  0.50000000  0.00000000  0.00000000  1
  P  P0  1  0.75000000  0.36831518  0.93017540  1
  P  P1  1  0.25000000  0.63168482  0.06982460  1
  P  P2  1  0.25000000  0.86831518  0.56982460  1
  P  P3  1  0.75000000  0.13168482  0.43017540  1
  P  P4  1  0.25000000  0.38641645  0.68925675  1
  P  P5  1  0.25000000  0.11358355  0.18925675  1
  P  P6  1  0.75000000  0.88641645  0.81074325  1
  P  P7  1  0.75000000  0.61358355  0.31074325  1
  O  O0  1  0.55342720  0.61173887  0.37260531  1
  O  O1  1  0.05342720  0.38826113  0.62739469  1
  O  O2  1  0.44657280  0.11173887  0.12739469  1
  O  O3  1  0.94657280  0.88826113  0.87260531  1
  O  O4  1  0.44657280  0.38826113  0.62739469  1
  O  O5  1  0.94657280  0.61173887  0.37260531  1
  O  O6  1  0.55342720  0.88826113  0.87260531  1
  O  O7  1  0.05342720  0.11173887  0.12739469  1
  O  O8  1  0.75000000  0.32446529  0.47691899  1
  O  O9  1  0.25000000  0.67553471  0.52308101  1
  O  O10  1  0.25000000  0.82446529  0.02308101  1
  O  O11  1  0.75000000  0.17553471  0.97691899  1
  O  O12  1  0.25000000  0.12138964  0.94192217  1
  O  O13  1  0.75000000  0.87861036  0.05807783  1
  O  O14  1  0.75000000  0.62138964  0.55807783  1
  O  O15  1  0.25000000  0.37861036  0.44192217  1
  O  O16  1  0.25000000  0.21407404  0.75159091  1
  O  O17  1  0.75000000  0.78592596  0.24840909  1
  O  O18  1  0.75000000  0.71407404  0.74840909  1
  O  O19  1  0.25000000  0.28592596  0.25159091  1
  O  O20  1  0.93920734  0.11926971  0.36496816  1
  O  O21  1  0.43920734  0.88073029  0.63503184  1
  O  O22  1  0.06079266  0.61926971  0.13503184  1
  O  O23  1  0.56079266  0.38073029  0.86496816  1
  O  O24  1  0.06079266  0.88073029  0.63503184  1
  O  O25  1  0.56079266  0.11926971  0.36496816  1
  O  O26  1  0.93920734  0.38073029  0.86496816  1
  O  O27  1  0.43920734  0.61926971  0.13503184  1
  O  O28  1  0.25000000  0.48947498  0.99390697  1
  O  O29  1  0.75000000  0.04697949  0.74056465  1
  O  O30  1  0.75000000  0.45302051  0.24056465  1
  O  O31  1  0.25000000  0.54697949  0.75943535  1
  O  O32  1  0.25000000  0.01052502  0.49390697  1
  O  O33  1  0.75000000  0.98947498  0.50609303  1
  O  O34  1  0.75000000  0.51052502  0.00609303  1
  O  O35  1  0.25000000  0.95302051  0.25943535  1
loop_
_geom_bond_atom_site_label_1
_geom_bond_atom_site_label_2
_geom_bond_distance
_geom_bond_site_symmetry_2
Ca0 O6 2.335833 1_555
Ca0 O3 2.335833 1_455
Ca0 O16 2.391557 1_565
Ca0 O21 2.424869 1_555
Ca0 O24 2.424869 1_555
Ca0 O31 2.527120 1_555
Ca0 O12 2.835758 1_565
Ca1 O0 2.335833 1_555
Ca1 O5 2.335833 1_455
Ca1 O19 2.391557 1_555
Ca1 O27 2.424869 1_555
Ca1 O22 2.424869 1_555
Ca1 O35 2.527120 1_555
Ca1 O15 2.835758 1_555
Ca2 O1 2.335833 1_655
Ca2 O4 2.335833 1_555
Ca2 O18 2.391557 1_555
Ca2 O23 2.424869 1_555
Ca2 O26 2.424869 1_555
Ca2 O29 2.527120 1_555
Ca2 O14 2.835758 1_555
Ca3 O7 2.335833 1_655
Ca3 O2 2.335833 1_555
Ca3 O17 2.391557 1_545
Ca3 O25 2.424869 1_555
Ca3 O20 2.424869 1_555
Ca3 O30 2.527120 1_555
Ca3 O13 2.835758 1_545
Fe0 O28 1.902990 1_555
Fe0 O12 1.916958 1_555
Fe0 O26 2.010535 1_455
Fe0 O23 2.010535 1_555
Fe0 O16 2.099502 1_555
Fe0 O31 2.218525 1_555
Fe1 O34 1.902990 1_555
Fe1 O13 1.916958 1_555
Fe1 O22 2.010535 1_655
Fe1 O27 2.010535 1_555
Fe1 O17 2.099502 1_555
Fe1 O30 2.218525 1_555
Fe2 O33 1.902990 1_555
Fe2 O14 1.916958 1_555
Fe2 O24 2.010535 1_655
Fe2 O21 2.010535 1_555
Fe2 O18 2.099502 1_555
Fe2 O29 2.218525 1_565
Fe3 O32 1.902990 1_555
Fe3 O15 1.916958 1_555
Fe3 O20 2.010535 1_455
Fe3 O25 2.010535 1_555
Fe3 O19 2.099502 1_555
Fe3 O35 2.218525 1_545
Fe4 O13 2.008393 1_445
Fe4 O12 2.008393 1_554
Fe4 O7 2.023385 1_555
Fe4 O3 2.023385 1_444
Fe4 O11 2.075173 1_454
Fe4 O10 2.075173 1_545
Fe5 O15 2.008393 1_555
Fe5 O14 2.008393 1_455
Fe5 O1 2.023385 1_555
Fe5 O5 2.023385 1_455
Fe5 O9 2.075173 1_555
Fe5 O8 2.075173 1_455
Fe6 O14 2.008393 1_555
Fe6 O15 2.008393 1_555
Fe6 O0 2.023385 1_555
Fe6 O4 2.023385 1_555
Fe6 O9 2.075173 1_555
Fe6 O8 2.075173 1_555
Fe7 O13 2.008393 1_545
Fe7 O12 2.008393 1_554
Fe7 O2 2.023385 1_555
Fe7 O6 2.023385 1_544
Fe7 O11 2.075173 1_554
Fe7 O10 2.075173 1_545
O0 P7 1.538320 1_555
O1 P4 1.538320 1_555
O2 P5 1.538320 1_555
O3 P6 1.538320 1_555
O4 P4 1.538320 1_555
O5 P7 1.538320 1_555
O6 P6 1.538320 1_555
O7 P5 1.538320 1_555
O8 P3 1.554882 1_555
O9 P2 1.554882 1_555
O10 P1 1.554882 1_555
O11 P0 1.554882 1_555
O16 P4 1.539202 1_555
O17 P7 1.539202 1_555
O18 P6 1.539202 1_555
O19 P5 1.539202 1_555
O20 P3 1.531247 1_555
O21 P2 1.531247 1_555
O22 P1 1.531247 1_555
O23 P0 1.531247 1_555
O24 P2 1.531247 1_555
O25 P3 1.531247 1_555
O26 P0 1.531247 1_555
O27 P1 1.531247 1_555
O28 P1 1.499973 1_556
O29 P6 1.540596 1_545
O30 P7 1.540596 1_555
O31 P4 1.540596 1_555
O32 P2 1.499973 1_545
O33 P3 1.499973 1_565
O34 P0 1.499973 1_554
O35 P5 1.540596 1_565
