# generated using pymatgen
data_Li2FeO3
_symmetry_space_group_name_H-M   'P 1'
_cell_length_a   5.13795213
_cell_length_b   4.89543118
_cell_length_c   9.64770754
_cell_angle_alpha   87.62286913
_cell_angle_beta   98.46101919
_cell_angle_gamma   58.38011336
_symmetry_Int_Tables_number   1
_chemical_formula_structural   Li2FeO3
_chemical_formula_sum   'Li8 Fe4 O12'
_cell_volume   202.35320127
_cell_formula_units_Z   4
loop_
 _symmetry_equiv_pos_site_id
 _symmetry_equiv_pos_as_xyz
  1  'x, y, z'
loop_
 _atom_site_type_symbol
 _atom_site_label
 _atom_site_symmetry_multiplicity
 _atom_site_fract_x
 _atom_site_fract_y
 _atom_site_fract_z
 _atom_site_occupancy
  Li  Li0  1  0.99115472  0.50669499  0.00064752  1
  Li  Li1  1  0.49113813  0.00672566  0.50065069  1
  Li  Li2  1  0.74096473  0.75760501  0.25102509  1
  Li  Li3  1  0.24099862  0.25758888  0.75103451  1
  Li  Li4  1  0.64696308  0.17360395  0.99774071  1
  Li  Li5  1  0.14692139  0.67373025  0.49777207  1
  Li  Li6  1  0.83819555  0.34127374  0.50241755  1
  Li  Li7  1  0.33821787  0.84121025  0.00243291  1
  Fe  Fe0  1  0.57093171  0.59873739  0.75003377  1
  Fe  Fe1  1  0.41393228  0.41582566  0.24991611  1
  Fe  Fe2  1  0.07083985  0.09875154  0.25002492  1
  Fe  Fe3  1  0.91402505  0.91581970  0.74989569  1
  O  O0  1  0.11863760  0.36007955  0.36723894  1
  O  O1  1  0.61860661  0.86000092  0.86724956  1
  O  O2  1  0.36669226  0.15447258  0.13266313  1
  O  O3  1  0.86664635  0.65442695  0.63266524  1
  O  O4  1  0.75936822  0.08001307  0.36600146  1
  O  O5  1  0.25931031  0.58005539  0.86597333  1
  O  O6  1  0.06934993  0.79417243  0.13694820  1
  O  O7  1  0.56938143  0.29419276  0.63695845  1
  O  O8  1  0.72598486  0.43489645  0.13387402  1
  O  O9  1  0.22597259  0.93493380  0.63386720  1
  O  O10  1  0.41639100  0.72045816  0.36282592  1
  O  O11  1  0.91642286  0.22046891  0.86283899  1
loop_
_geom_bond_atom_site_label_1
_geom_bond_atom_site_label_2
_geom_bond_distance
_geom_bond_site_symmetry_2
Li0 O2 1.981000 1_655
Li0 O1 1.982597 1_554
Li0 O11 2.108771 1_554
Li0 O6 2.112367 1_655
Li0 O8 2.147512 1_555
Li0 O5 2.173087 1_654
Li1 O3 1.981056 1_545
Li1 O0 1.982638 1_555
Li1 O10 2.109064 1_545
Li1 O7 2.112480 1_555
Li1 O9 2.147412 1_545
Li1 O4 2.173063 1_555
Li2 O4 2.000341 1_565
Li2 O0 2.007176 1_655
Li2 O2 2.007181 1_565
Li2 O8 2.007272 1_555
Li2 O10 2.192846 1_555
Li2 O6 2.221906 1_655
Li3 O5 2.000192 1_555
Li3 O1 2.007189 1_545
Li3 O9 2.007234 1_545
Li3 O3 2.007295 1_455
Li3 O11 2.192816 1_455
Li3 O7 2.221972 1_555
Li4 O8 2.013207 1_556
Li4 O1 2.074597 1_545
Li4 O5 2.105178 1_555
Li4 O2 2.111808 1_556
Li4 O11 2.121747 1_555
Li4 O6 2.161536 1_646
Li5 O9 2.012699 1_555
Li5 O0 2.074901 1_555
Li5 O4 2.104656 1_465
Li5 O3 2.111940 1_455
Li5 O10 2.121805 1_555
Li5 O7 2.161780 1_555
Li6 O4 2.014421 1_555
Li6 O3 2.071537 1_555
Li6 O9 2.103876 1_645
Li6 O0 2.113676 1_655
Li6 O7 2.117091 1_555
Li6 O10 2.161410 1_555
Li7 O5 2.014477 1_554
Li7 O2 2.071905 1_565
Li7 O8 2.103768 1_555
Li7 O1 2.113463 1_554
Li7 O6 2.117048 1_555
Li7 O11 2.161509 1_464
Fe0 O9 1.819314 1_555
Fe0 O1 1.828021 1_555
Fe0 O7 1.886185 1_555
Fe0 O11 1.892651 1_555
Fe0 O5 2.120165 1_555
Fe0 O3 2.140092 1_555
Fe1 O4 1.819287 1_555
Fe1 O2 1.827681 1_555
Fe1 O10 1.887125 1_555
Fe1 O6 1.891869 1_555
Fe1 O8 2.123485 1_555
Fe1 O0 2.138103 1_555
Fe2 O8 1.818936 1_455
Fe2 O0 1.828520 1_555
Fe2 O6 1.886227 1_545
Fe2 O10 1.892796 1_545
Fe2 O4 2.119849 1_455
Fe2 O2 2.140729 1_555
Fe3 O5 1.818850 1_655
Fe3 O3 1.827990 1_555
Fe3 O11 1.887284 1_565
Fe3 O7 1.891917 1_565
Fe3 O9 2.123028 1_655
Fe3 O1 2.139004 1_555
