# generated using pymatgen
data_Na3NiN2
_symmetry_space_group_name_H-M   'P 1'
_cell_length_a   9.31783000
_cell_length_b   10.75930263
_cell_length_c   10.75930262
_cell_angle_alpha   89.99999752
_cell_angle_beta   125.26438797
_cell_angle_gamma   54.73561207
_symmetry_Int_Tables_number   1
_chemical_formula_structural   Na3NiN2
_chemical_formula_sum   'Na24 Ni8 N16'
_cell_volume   622.76245157
_cell_formula_units_Z   8
loop_
 _symmetry_equiv_pos_site_id
 _symmetry_equiv_pos_as_xyz
  1  'x, y, z'
loop_
 _atom_site_type_symbol
 _atom_site_label
 _atom_site_symmetry_multiplicity
 _atom_site_fract_x
 _atom_site_fract_y
 _atom_site_fract_z
 _atom_site_occupancy
  Na  Na0  1  0.19099500  0.06249800  0.95348100  1
  Na  Na1  1  0.80900500  0.75349300  0.54651900  1
  Na  Na2  1  0.80900500  0.43750200  0.76248600  1
  Na  Na3  1  0.19099500  0.74650700  0.73751400  1
  Na  Na4  1  0.28403300  0.76248600  0.30001200  1
  Na  Na5  1  0.71596700  0.73751400  0.01597900  1
  Na  Na6  1  0.28403300  0.95348100  0.48402100  1
  Na  Na7  1  0.71596700  0.54651900  0.19998800  1
  Na  Na8  1  0.68400900  0.01597900  0.74650700  1
  Na  Na9  1  0.68400900  0.30001200  0.43750200  1
  Na  Na10  1  0.31599100  0.19998800  0.75349300  1
  Na  Na11  1  0.31599100  0.48402100  0.06249800  1
  Na  Na12  1  0.80900500  0.93750200  0.04651900  1
  Na  Na13  1  0.19099500  0.24650700  0.45348100  1
  Na  Na14  1  0.19099500  0.56249800  0.23751400  1
  Na  Na15  1  0.80900500  0.25349300  0.26248600  1
  Na  Na16  1  0.71596700  0.23751400  0.69998800  1
  Na  Na17  1  0.28403300  0.26248600  0.98402100  1
  Na  Na18  1  0.71596700  0.04651900  0.51597900  1
  Na  Na19  1  0.28403300  0.45348100  0.80001200  1
  Na  Na20  1  0.31599100  0.98402100  0.25349300  1
  Na  Na21  1  0.31599100  0.69998800  0.56249800  1
  Na  Na22  1  0.68400900  0.80001200  0.24650700  1
  Na  Na23  1  0.68400900  0.51597900  0.93750200  1
  Ni  Ni0  1  0.20313200  0.00000000  0.70313200  1
  Ni  Ni1  1  0.79686800  0.70313200  0.79686800  1
  Ni  Ni2  1  0.79686800  0.50000000  0.50000000  1
  Ni  Ni3  1  0.20313200  0.79686800  0.00000000  1
  Ni  Ni4  1  0.79686800  0.00000000  0.29686800  1
  Ni  Ni5  1  0.20313200  0.29686800  0.20313200  1
  Ni  Ni6  1  0.20313200  0.50000000  0.50000000  1
  Ni  Ni7  1  0.79686800  0.20313200  0.00000000  1
  N  N0  1  0.00000000  0.00000000  0.50000000  1
  N  N1  1  0.00000000  0.50000000  0.00000000  1
  N  N2  1  0.00000000  0.50000000  0.50000000  1
  N  N3  1  0.00000000  0.00000000  0.00000000  1
  N  N4  1  0.50000000  0.93305400  0.75000000  1
  N  N5  1  0.50000000  0.56694600  0.25000000  1
  N  N6  1  0.00000000  0.25000000  0.68305400  1
  N  N7  1  0.00000000  0.75000000  0.81694600  1
  N  N8  1  0.63389200  0.68305400  0.56694600  1
  N  N9  1  0.36610800  0.81694600  0.93305400  1
  N  N10  1  0.50000000  0.06694600  0.25000000  1
  N  N11  1  0.50000000  0.43305400  0.75000000  1
  N  N12  1  0.00000000  0.75000000  0.31694600  1
  N  N13  1  0.00000000  0.25000000  0.18305400  1
  N  N14  1  0.36610800  0.31694600  0.43305400  1
  N  N15  1  0.63389200  0.18305400  0.06694600  1
loop_
_geom_bond_atom_site_label_1
_geom_bond_atom_site_label_2
_geom_bond_distance
_geom_bond_site_symmetry_2
N0 Ni0 1.892749 1_555
N0 Ni4 1.892749 1_455
N0 Na15 2.506041 1_455
N0 Na3 2.506041 1_545
N0 Na9 2.506041 1_455
N0 Na21 2.506041 1_545
N0 Na6 2.506041 1_545
N0 Na18 2.506041 1_455
N1 Ni5 1.892749 1_555
N1 Ni1 1.892749 1_454
N1 Na14 2.506041 1_555
N1 Na2 2.506041 1_454
N1 Na5 2.506041 1_455
N1 Na17 2.506041 1_554
N1 Na11 2.506041 1_555
N1 Na23 2.506041 1_454
N2 Ni6 1.892749 1_555
N2 Ni2 1.892749 1_455
N2 Na10 2.506041 1_555
N2 Na22 2.506041 1_455
N2 Na1 2.506041 1_455
N2 Na13 2.506041 1_555
N2 Na19 2.506041 1_555
N2 Na7 2.506041 1_455
N3 Ni7 1.892749 1_455
N3 Ni3 1.892749 1_545
N3 Na4 2.506041 1_545
N3 Na16 2.506041 1_454
N3 Na12 2.506041 1_445
N3 Na0 2.506041 1_554
N3 Na20 2.506041 1_545
N3 Na8 2.506041 1_454
N4 Ni1 2.124482 1_555
N4 Ni0 2.124482 1_565
N4 Na5 2.264294 1_556
N4 Na6 2.264294 1_555
N4 Na10 2.361782 1_565
N4 Na8 2.361782 1_565
N5 Ni3 2.124481 1_555
N5 Ni2 2.124482 1_555
N5 Na4 2.264294 1_555
N5 Na7 2.264294 1_555
N5 Na9 2.361782 1_555
N5 Na11 2.361782 1_555
N6 Ni2 2.124481 1_455
N6 Ni0 2.124481 1_555
N6 Na9 2.264294 1_455
N6 Na10 2.264294 1_555
N6 Na0 2.361782 1_555
N6 Na2 2.361782 1_455
N7 Ni3 2.124482 1_556
N7 Ni1 2.124482 1_455
N7 Na11 2.264294 1_556
N7 Na8 2.264294 1_465
N7 Na1 2.361782 1_455
N7 Na3 2.361782 1_555
N8 Ni1 2.124481 1_555
N8 Ni2 2.124482 1_555
N8 Na2 2.264294 1_555
N8 Na1 2.264294 1_555
N8 Na6 2.361782 1_555
N8 Na4 2.361782 1_555
N9 Ni0 2.124481 1_565
N9 Ni3 2.124481 1_556
N9 Na0 2.264294 1_565
N9 Na3 2.264294 1_555
N9 Na7 2.361782 1_556
N9 Na5 2.361782 1_556
N10 Ni5 2.124482 1_555
N10 Ni4 2.124482 1_555
N10 Na17 2.264294 1_554
N10 Na18 2.264294 1_555
N10 Na22 2.361782 1_545
N10 Na20 2.361782 1_545
N11 Ni7 2.124481 1_556
N11 Ni6 2.124482 1_555
N11 Na16 2.264294 1_555
N11 Na19 2.264294 1_555
N11 Na21 2.361782 1_555
N11 Na23 2.361782 1_555
N12 Ni6 2.124481 1_555
N12 Ni4 2.124481 1_465
N12 Na21 2.264294 1_555
N12 Na22 2.264294 1_455
N12 Na12 2.361782 1_455
N12 Na14 2.361782 1_555
N13 Ni7 2.124482 1_455
N13 Ni5 2.124482 1_555
N13 Na23 2.264294 1_454
N13 Na20 2.264294 1_545
N13 Na13 2.361782 1_555
N13 Na15 2.361782 1_455
N14 Ni5 2.124481 1_555
N14 Ni6 2.124482 1_555
N14 Na14 2.264294 1_555
N14 Na13 2.264294 1_555
N14 Na18 2.361782 1_555
N14 Na16 2.361782 1_555
N15 Ni4 2.124481 1_555
N15 Ni7 2.124481 1_555
N15 Na12 2.264294 1_545
N15 Na15 2.264294 1_555
N15 Na19 2.361782 1_554
N15 Na17 2.361782 1_554
