# generated using pymatgen
data_Hf6Be15Co8
_symmetry_space_group_name_H-M   'P 1'
_cell_length_a   7.69621841
_cell_length_b   7.69621391
_cell_length_c   7.69621677
_cell_angle_alpha   59.99929647
_cell_angle_beta   59.99929212
_cell_angle_gamma   59.99927832
_symmetry_Int_Tables_number   1
_chemical_formula_structural   Hf6Be15Co8
_chemical_formula_sum   'Hf6 Be15 Co8'
_cell_volume   322.33673789
_cell_formula_units_Z   1
loop_
 _symmetry_equiv_pos_site_id
 _symmetry_equiv_pos_as_xyz
  1  'x, y, z'
loop_
 _atom_site_type_symbol
 _atom_site_label
 _atom_site_symmetry_multiplicity
 _atom_site_fract_x
 _atom_site_fract_y
 _atom_site_fract_z
 _atom_site_occupancy
  Hf  Hf0  1  0.71341493  0.28657954  0.28658288  1
  Hf  Hf1  1  0.28658819  0.71341400  0.71341028  1
  Hf  Hf2  1  0.28658501  0.71341308  0.28659013  1
  Hf  Hf3  1  0.71341615  0.28658236  0.71342144  1
  Hf  Hf4  1  0.28658505  0.28658703  0.71341280  1
  Hf  Hf5  1  0.71341215  0.71342133  0.28658606  1
  Be  Be0  1  0.32221435  0.32221460  0.32221196  1
  Be  Be1  1  0.67778821  0.67778216  0.67778754  1
  Be  Be2  1  0.32221910  0.32221907  0.03335743  1
  Be  Be3  1  0.32221943  0.03335809  0.32221712  1
  Be  Be4  1  0.67778274  0.67777816  0.96664440  1
  Be  Be5  1  0.67778175  0.96664234  0.67778213  1
  Be  Be6  1  0.03335628  0.32222029  0.32221792  1
  Be  Be7  1  0.96664286  0.67777830  0.67778282  1
  Be  Be8  1  0.50000494  0.99999638  0.99999479  1
  Be  Be9  1  0.99999182  0.50000512  0.50000905  1
  Be  Be10  1  0.99999113  0.50000404  0.99999462  1
  Be  Be11  1  0.50000625  0.99999643  0.50000362  1
  Be  Be12  1  0.99999040  0.99999558  0.50000569  1
  Be  Be13  1  0.50001040  0.50000110  0.99999571  1
  Be  Be14  1  -0.00000433  0.00001595  0.99998856  1
  Co  Co0  1  0.12474413  0.12474326  0.12474264  1
  Co  Co1  1  0.87525799  0.87525415  0.87525858  1
  Co  Co2  1  0.12474107  0.12473946  0.62577631  1
  Co  Co3  1  0.12474003  0.62577955  0.12473807  1
  Co  Co4  1  0.87526243  0.87525921  0.37422073  1
  Co  Co5  1  0.87526105  0.37422173  0.87526174  1
  Co  Co6  1  0.62577631  0.12474007  0.12473997  1
  Co  Co7  1  0.37422118  0.87525859  0.87526301  1
loop_
_geom_bond_atom_site_label_1
_geom_bond_atom_site_label_2
_geom_bond_distance
_geom_bond_site_symmetry_2
Be0 Be2 2.223052 1_555
Be0 Be3 2.223062 1_555
Be0 Be6 2.223070 1_555
Be0 Be13 2.231588 1_554
Be0 Be11 2.231598 1_545
Be0 Be9 2.231626 1_455
Be0 Co6 2.299153 1_555
Be0 Co2 2.299167 1_555
Be0 Co3 2.299167 1_555
Be0 Hf0 2.763871 1_555
Be0 Hf2 2.763893 1_555
Be0 Hf4 2.763895 1_555
Be1 Be7 2.223055 1_555
Be1 Be4 2.223069 1_555
Be1 Be5 2.223084 1_555
Be1 Be9 2.231464 1_555
Be1 Be13 2.231491 1_555
Be1 Be11 2.231533 1_555
Be1 Co5 2.299151 1_555
Be1 Co4 2.299184 1_555
Be1 Co7 2.299187 1_555
Be1 Hf3 2.763871 1_555
Be1 Hf5 2.763881 1_555
Be1 Hf1 2.763896 1_555
Be2 Be3 2.223108 1_555
Be2 Be6 2.223118 1_555
Be2 Be8 2.231628 1_544
Be2 Co6 2.299124 1_555
Be2 Co3 2.299136 1_555
Be2 Co0 2.299202 1_555
Be2 Hf3 2.763830 1_554
Be2 Hf1 2.763854 1_554
Be2 Hf4 2.763954 1_554
Be3 Be6 2.223125 1_555
Be3 Be8 2.231624 1_544
Be3 Co6 2.299120 1_555
Be3 Co2 2.299132 1_555
Be3 Co0 2.299196 1_555
Be3 Hf5 2.763812 1_545
Be3 Hf1 2.763837 1_545
Be3 Hf2 2.763934 1_545
Be4 Be7 2.223112 1_555
Be4 Be5 2.223130 1_555
Be4 Be8 2.231564 1_555
Be4 Co5 2.299118 1_555
Be4 Co7 2.299147 1_555
Be4 Co1 2.299203 1_555
Be4 Hf0 2.763844 1_556
Be4 Hf2 2.763863 1_556
Be4 Hf5 2.763961 1_556
Be5 Be7 2.223125 1_555
Be5 Be8 2.231538 1_555
Be5 Co7 2.299150 1_555
Be5 Co4 2.299152 1_555
Be5 Co1 2.299207 1_555
Be5 Hf0 2.763844 1_565
Be5 Hf4 2.763854 1_565
Be5 Hf3 2.763953 1_565
Be6 Be9 2.231580 1_455
Be6 Co2 2.299140 1_555
Be6 Co3 2.299141 1_555
Be6 Co0 2.299204 1_555
Be6 Hf5 2.763872 1_455
Be6 Hf3 2.763873 1_455
Be6 Hf0 2.763974 1_455
Be7 Be9 2.231447 1_555
Be7 Co5 2.299116 1_555
Be7 Co4 2.299147 1_555
Be7 Co1 2.299208 1_555
Be7 Hf4 2.763822 1_655
Be7 Hf2 2.763829 1_655
Be7 Hf1 2.763946 1_655
Be8 Co1 2.358049 1_555
Be8 Co7 2.358085 1_555
Be8 Co0 2.358098 1_566
Be8 Co6 2.358128 1_566
Be8 Hf3 2.749965 1_565
Be8 Hf5 2.749976 1_556
Be8 Hf4 2.749997 1_565
Be8 Hf2 2.750008 1_556
Be9 Co5 2.358047 1_555
Be9 Co4 2.358055 1_555
Be9 Co2 2.358127 1_655
Be9 Co3 2.358162 1_655
Be9 Hf3 2.749981 1_555
Be9 Hf4 2.749983 1_655
Be9 Hf5 2.750004 1_555
Be9 Hf2 2.750004 1_655
Be10 Be4 2.231500 1_555
Be10 Be7 2.231517 1_555
Be10 Be6 2.231640 1_656
Be10 Be2 2.231665 1_656
Be10 Co1 2.358030 1_555
Be10 Co5 2.358034 1_555
Be10 Co0 2.358096 1_656
Be10 Co3 2.358176 1_656
Be10 Hf4 2.749985 1_655
Be10 Hf0 2.749985 1_556
Be10 Hf5 2.750026 1_556
Be10 Hf1 2.750028 1_655
Be11 Be5 2.231475 1_555
Be11 Be3 2.231574 1_565
Be11 Co4 2.358069 1_555
Be11 Co7 2.358089 1_555
Be11 Co6 2.358116 1_565
Be11 Co2 2.358125 1_565
Be11 Hf0 2.749944 1_565
Be11 Hf5 2.749953 1_555
Be11 Hf4 2.749992 1_565
Be11 Hf1 2.750002 1_555
Be12 Be5 2.231510 1_555
Be12 Be7 2.231550 1_555
Be12 Be6 2.231651 1_665
Be12 Be3 2.231671 1_665
Be12 Co1 2.358048 1_555
Be12 Co4 2.358059 1_555
Be12 Co0 2.358112 1_665
Be12 Co2 2.358159 1_665
Be12 Hf0 2.749970 1_565
Be12 Hf2 2.749982 1_655
Be12 Hf3 2.749990 1_565
Be12 Hf1 2.750004 1_655
Be13 Be4 2.231455 1_555
Be13 Be2 2.231574 1_556
Be13 Co5 2.358034 1_555
Be13 Co7 2.358076 1_555
Be13 Co6 2.358098 1_556
Be13 Co3 2.358158 1_556
Be13 Hf0 2.749947 1_556
Be13 Hf3 2.749955 1_555
Be13 Hf2 2.750028 1_556
Be13 Hf1 2.750038 1_555
Be14 Co5 2.351463 1_455
Be14 Co2 2.351505 1_555
Be14 Co6 2.351549 1_456
Be14 Co7 2.351588 1_545
Be14 Co4 2.351630 1_446
Be14 Co1 2.351646 1_445
Be14 Co0 2.351648 1_556
Be14 Co3 2.351655 1_546
Co0 Hf0 2.605675 1_455
Co0 Hf4 2.605685 1_554
Co0 Hf2 2.605689 1_545
Co1 Hf5 2.605667 1_556
Co1 Hf3 2.605670 1_565
Co1 Hf1 2.605690 1_655
Co2 Hf3 2.605658 1_455
Co2 Hf1 2.605669 1_545
Co2 Hf4 2.605720 1_555
Co3 Hf5 2.605680 1_455
Co3 Hf1 2.605685 1_554
Co3 Hf2 2.605739 1_555
Co4 Hf0 2.605632 1_565
Co4 Hf2 2.605655 1_655
Co4 Hf5 2.605687 1_555
Co5 Hf0 2.605635 1_556
Co5 Hf4 2.605661 1_655
Co5 Hf3 2.605695 1_555
Co6 Hf3 2.605620 1_554
Co6 Hf5 2.605624 1_545
Co6 Hf0 2.605672 1_555
Co7 Hf2 2.605679 1_556
Co7 Hf4 2.605687 1_565
Co7 Hf1 2.605737 1_555
