# generated using pymatgen
data_Cs6Br4O
_symmetry_space_group_name_H-M   'P 1'
_cell_length_a   9.85796995
_cell_length_b   9.85796995
_cell_length_c   9.85797002
_cell_angle_alpha   88.57630249
_cell_angle_beta   88.57630249
_cell_angle_gamma   88.57630512
_symmetry_Int_Tables_number   1
_chemical_formula_structural   Cs6Br4O
_chemical_formula_sum   'Cs12 Br8 O2'
_cell_volume   957.12053594
_cell_formula_units_Z   2
loop_
 _symmetry_equiv_pos_site_id
 _symmetry_equiv_pos_as_xyz
  1  'x, y, z'
loop_
 _atom_site_type_symbol
 _atom_site_label
 _atom_site_symmetry_multiplicity
 _atom_site_fract_x
 _atom_site_fract_y
 _atom_site_fract_z
 _atom_site_occupancy
  Cs  Cs0  1  0.93260645  0.05854419  0.72021628  1
  Cs  Cs1  1  0.94145581  0.27978372  0.06739355  1
  Cs  Cs2  1  0.77978372  0.44145581  0.56739355  1
  Cs  Cs3  1  0.43260645  0.22021628  0.55854419  1
  Cs  Cs4  1  0.27978372  0.06739355  0.94145581  1
  Cs  Cs5  1  0.55854419  0.43260645  0.22021628  1
  Cs  Cs6  1  0.44145581  0.56739355  0.77978372  1
  Cs  Cs7  1  0.56739355  0.77978372  0.44145581  1
  Cs  Cs8  1  0.72021628  0.93260645  0.05854419  1
  Cs  Cs9  1  0.22021628  0.55854419  0.43260645  1
  Cs  Cs10  1  0.05854419  0.72021628  0.93260645  1
  Cs  Cs11  1  0.06739355  0.94145581  0.27978372  1
  Br  Br0  1  0.75000000  0.12757600  0.37242400  1
  Br  Br1  1  0.62757600  0.25000000  0.87242400  1
  Br  Br2  1  0.87242400  0.62757600  0.25000000  1
  Br  Br3  1  0.75000000  0.75000000  0.75000000  1
  Br  Br4  1  0.25000000  0.25000000  0.25000000  1
  Br  Br5  1  0.12757600  0.37242400  0.75000000  1
  Br  Br6  1  0.37242400  0.75000000  0.12757600  1
  Br  Br7  1  0.25000000  0.87242400  0.62757600  1
  O  O0  1  0.00000000  0.00000000  -0.00000000  1
  O  O1  1  0.50000000  0.50000000  0.50000000  1
loop_
_geom_bond_atom_site_label_1
_geom_bond_atom_site_label_2
_geom_bond_distance
_geom_bond_site_symmetry_2
Cs0 O0 2.893868 1_656
Cs1 O0 2.893868 1_655
Cs2 O1 2.893868 1_555
Cs3 O1 2.893868 1_555
Cs4 O0 2.893868 1_556
Cs5 O1 2.893868 1_555
Cs6 O1 2.893868 1_555
Cs7 O1 2.893868 1_555
Cs8 O0 2.893868 1_665
Cs9 O1 2.893868 1_555
Cs10 O0 2.893868 1_566
Cs11 O0 2.893868 1_565
Br0 Cs3 3.694068 1_555
Br0 Cs11 3.694068 1_645
Br0 Cs2 3.704483 1_555
Br0 Cs8 3.704483 1_545
Br0 Cs1 3.806569 1_555
Br0 Cs5 3.806570 1_555
Br0 Cs7 3.948193 1_545
Br0 Cs0 3.948193 1_555
Br1 Cs8 3.694068 1_546
Br1 Cs6 3.694068 1_555
Br1 Cs1 3.704483 1_556
Br1 Cs3 3.704483 1_555
Br1 Cs2 3.806569 1_555
Br1 Cs0 3.806570 1_555
Br1 Cs4 3.948193 1_555
Br1 Cs5 3.948193 1_556
Br2 Cs2 3.694068 1_555
Br2 Cs10 3.694068 1_654
Br2 Cs11 3.704483 1_655
Br2 Cs5 3.704483 1_555
Br2 Cs8 3.806570 1_555
Br2 Cs7 3.806570 1_555
Br2 Cs1 3.948193 1_555
Br2 Cs9 3.948193 1_655
Br3 Cs6 3.574850 1_555
Br3 Cs0 3.574850 1_565
Br3 Cs2 3.574850 1_555
Br3 Cs10 3.574850 1_655
Br3 Cs7 3.574850 1_555
Br3 Cs8 3.574850 1_556
Br4 Cs11 3.574850 1_545
Br4 Cs5 3.574850 1_555
Br4 Cs9 3.574850 1_555
Br4 Cs1 3.574850 1_455
Br4 Cs4 3.574850 1_554
Br4 Cs3 3.574850 1_555
Br5 Cs9 3.694068 1_555
Br5 Cs1 3.694068 1_456
Br5 Cs6 3.704483 1_555
Br5 Cs0 3.704483 1_455
Br5 Cs4 3.806570 1_555
Br5 Cs3 3.806570 1_555
Br5 Cs2 3.948193 1_455
Br5 Cs10 3.948193 1_555
Br6 Cs4 3.694068 1_564
Br6 Cs5 3.694068 1_555
Br6 Cs10 3.704483 1_554
Br6 Cs7 3.704483 1_555
Br6 Cs9 3.806569 1_555
Br6 Cs11 3.806570 1_555
Br6 Cs8 3.948193 1_555
Br6 Cs6 3.948193 1_554
Br7 Cs7 3.694068 1_555
Br7 Cs0 3.694068 1_465
Br7 Cs9 3.704483 1_555
Br7 Cs4 3.704483 1_565
Br7 Cs10 3.806569 1_555
Br7 Cs6 3.806570 1_555
Br7 Cs3 3.948193 1_565
Br7 Cs11 3.948193 1_555
