# generated using pymatgen
data_Er15Fe8C25
_symmetry_space_group_name_H-M   'P 1'
_cell_length_a   5.06786401
_cell_length_b   11.80224698
_cell_length_c   11.80146128
_cell_angle_alpha   119.99822361
_cell_angle_beta   89.99928920
_cell_angle_gamma   89.99408747
_symmetry_Int_Tables_number   1
_chemical_formula_structural   Er15Fe8C25
_chemical_formula_sum   'Er15 Fe8 C25'
_cell_volume   611.31329187
_cell_formula_units_Z   1
loop_
 _symmetry_equiv_pos_site_id
 _symmetry_equiv_pos_as_xyz
  1  'x, y, z'
loop_
 _atom_site_type_symbol
 _atom_site_label
 _atom_site_symmetry_multiplicity
 _atom_site_fract_x
 _atom_site_fract_y
 _atom_site_fract_z
 _atom_site_occupancy
  Er  Er0  1  0.49915900  0.83171900  0.83082900  1
  Er  Er1  1  0.49923700  0.16917800  0.00086700  1
  Er  Er2  1  0.49910700  0.99919100  0.16843900  1
  Er  Er3  1  0.24474400  0.63349800  0.48865500  1
  Er  Er4  1  0.24479500  0.51133600  0.14483900  1
  Er  Er5  1  0.24473400  0.85522400  0.36650800  1
  Er  Er6  1  0.75522800  0.36691300  0.85496600  1
  Er  Er7  1  0.75529800  0.14501900  0.51190000  1
  Er  Er8  1  0.75526900  0.48801800  0.63304500  1
  Er  Er9  1  0.25229500  0.11610500  0.71144500  1
  Er  Er10  1  0.25226300  0.28848300  0.40463100  1
  Er  Er11  1  0.25235400  0.59531900  0.88386300  1
  Er  Er12  1  0.74711800  0.88413800  0.59614400  1
  Er  Er13  1  0.74714400  0.40384500  0.28799800  1
  Er  Er14  1  0.74717400  0.71207200  0.11588300  1
  Fe  Fe0  1  0.00783700  0.13285600  0.13221600  1
  Fe  Fe1  1  0.00795600  0.86791600  0.00062600  1
  Fe  Fe2  1  0.00794300  0.99940100  0.86721700  1
  Fe  Fe3  1  0.26534700  0.33330700  0.66664500  1
  Fe  Fe4  1  0.73590200  0.66664300  0.33331800  1
  Fe  Fe5  1  0.00056400  0.75072300  0.75022500  1
  Fe  Fe6  1  0.00060500  0.24988700  0.00058700  1
  Fe  Fe7  1  0.00051500  0.99935100  0.24929100  1
  C  C0  1  0.23947500  0.87715500  0.58067000  1
  C  C1  1  0.23949300  0.41931400  0.29648000  1
  C  C2  1  0.23945900  0.70347500  0.12281900  1
  C  C3  1  0.76046700  0.12356400  0.70410600  1
  C  C4  1  0.76045800  0.29586100  0.41944900  1
  C  C5  1  0.76048700  0.58051200  0.87646300  1
  C  C6  1  0.25769600  0.35831700  0.83286200  1
  C  C7  1  0.25765200  0.16712600  0.52544200  1
  C  C8  1  0.25769100  0.47453200  0.64168500  1
  C  C9  1  0.74281500  0.64136100  0.47441700  1
  C  C10  1  0.74286500  0.52559400  0.16692600  1
  C  C11  1  0.74280500  0.83305200  0.35863900  1
  C  C12  1  0.18422900  0.88826000  0.70118500  1
  C  C13  1  0.18424500  0.29882700  0.18704000  1
  C  C14  1  0.18443400  0.81294800  0.11178100  1
  C  C15  1  0.81128100  0.10939600  0.81253500  1
  C  C16  1  0.81133700  0.18743900  0.29681700  1
  C  C17  1  0.81104800  0.70309300  0.89058000  1
  C  C18  1  0.23849500  0.31832100  0.92253900  1
  C  C19  1  0.23849200  0.07745000  0.39575100  1
  C  C20  1  0.23863100  0.60419600  0.68166100  1
  C  C21  1  0.76151300  0.68163000  0.60411800  1
  C  C22  1  0.76153400  0.39587300  0.07751900  1
  C  C23  1  0.76160900  0.92246100  0.31833500  1
  C  C24  1  0.22920400  0.00009900  0.00004400  1
loop_
_geom_bond_atom_site_label_1
_geom_bond_atom_site_label_2
_geom_bond_distance
_geom_bond_site_symmetry_2
C0 C12 1.389948 1_555
C0 Er5 2.408615 1_555
C0 Er9 2.446871 1_565
C0 Er12 2.500210 1_455
C0 Er3 2.515346 1_555
C0 Er12 2.577548 1_555
C1 C13 1.390041 1_555
C1 Er3 2.408654 1_555
C1 Er10 2.447069 1_555
C1 Er13 2.500198 1_455
C1 Er4 2.515231 1_555
C1 Er13 2.577555 1_555
C2 Er4 2.408288 1_555
C2 Er11 2.446773 1_554
C2 Er14 2.499889 1_455
C2 Er5 2.515687 1_555
C2 Er14 2.577952 1_555
C3 Er7 2.405075 1_555
C3 Er12 2.452097 1_545
C3 Er9 2.497094 1_655
C3 Er6 2.511195 1_555
C3 Er9 2.579792 1_555
C4 Er8 2.404513 1_555
C4 Er13 2.452003 1_555
C4 Er10 2.496987 1_655
C4 Er7 2.510528 1_555
C4 Er10 2.579923 1_555
C5 Er6 2.404318 1_555
C5 Er14 2.451930 1_556
C5 Er11 2.497324 1_655
C5 Er8 2.511763 1_555
C5 Er11 2.579573 1_555
C6 Fe3 1.832357 1_555
C6 Er9 2.475862 1_555
C6 Er6 2.531704 1_555
C6 Er11 2.550213 1_555
C6 Er6 2.556592 1_455
C7 Fe3 1.832215 1_555
C7 Er10 2.475257 1_555
C7 Er7 2.532246 1_555
C7 Er9 2.550211 1_555
C7 Er7 2.556067 1_455
C8 Fe3 1.832304 1_555
C8 Er11 2.475340 1_555
C8 Er8 2.531954 1_555
C8 Er10 2.550720 1_555
C8 Er8 2.556374 1_455
C9 Fe4 1.833003 1_555
C9 Er12 2.481581 1_555
C9 Er3 2.534530 1_555
C9 Er3 2.553987 1_655
C9 Er13 2.555737 1_555
C10 C22 1.360464 1_555
C10 Fe4 1.832949 1_555
C10 Er13 2.481877 1_555
C10 Er4 2.534530 1_555
C10 Er4 2.553972 1_655
C10 Er14 2.555938 1_555
C11 C23 1.360416 1_555
C11 Fe4 1.833295 1_555
C11 Er14 2.481201 1_555
C11 Er5 2.534566 1_555
C11 Er5 2.554094 1_655
C11 Er12 2.555469 1_555
C12 Fe2 1.946208 1_555
C12 Fe5 2.185390 1_555
C12 Er0 2.520758 1_555
C12 Er12 2.527063 1_455
C12 Er9 2.653192 1_565
C13 Fe0 1.946269 1_555
C13 Fe6 2.184230 1_555
C13 Er1 2.520840 1_555
C13 Er13 2.526948 1_455
C13 Er10 2.653542 1_555
C14 C2 1.390068 1_555
C14 Fe1 1.947419 1_555
C14 Fe7 2.184437 1_555
C14 Er2 2.520493 1_555
C14 Er14 2.527548 1_455
C14 Er11 2.653684 1_554
C15 C3 1.394871 1_555
C15 Fe2 1.983059 1_645
C15 Fe6 2.217184 1_656
C15 Er1 2.523914 1_556
C15 Er9 2.553271 1_655
C15 Er12 2.628023 1_545
C16 C4 1.395177 1_555
C16 Fe0 1.982075 1_655
C16 Fe7 2.217222 1_645
C16 Er2 2.523935 1_545
C16 Er10 2.552969 1_655
C16 Er13 2.627853 1_555
C17 C5 1.394815 1_555
C17 Fe1 1.985141 1_656
C17 Fe5 2.216583 1_655
C17 Er0 2.523899 1_555
C17 Er11 2.554335 1_655
C17 Er14 2.627547 1_556
C18 C6 1.360840 1_555
C18 Fe6 1.923084 1_556
C18 Er9 2.441652 1_555
C18 Er4 2.469206 1_556
C18 Er1 2.706579 1_556
C18 Er6 2.723997 1_455
C18 Er6 2.877529 1_555
C19 C7 1.361019 1_555
C19 Fe7 1.923234 1_545
C19 Er10 2.440962 1_555
C19 Er5 2.468581 1_545
C19 Er2 2.704805 1_545
C19 Er7 2.723553 1_455
C19 Er7 2.877849 1_555
C20 C8 1.360823 1_555
C20 Fe5 1.923878 1_555
C20 Er11 2.441339 1_555
C20 Er3 2.469086 1_555
C20 Er0 2.706819 1_555
C20 Er8 2.724692 1_455
C20 Er8 2.876990 1_555
C21 C9 1.360280 1_555
C21 Fe5 1.923548 1_655
C21 Er12 2.439545 1_555
C21 Er8 2.473676 1_555
C21 Er0 2.706343 1_555
C21 Er3 2.720739 1_655
C21 Er3 2.874814 1_555
C22 Fe6 1.922539 1_655
C22 Er13 2.439370 1_555
C22 Er6 2.473547 1_554
C22 Er1 2.706341 1_555
C22 Er4 2.721111 1_655
C22 Er4 2.874499 1_555
C23 Fe7 1.921700 1_655
C23 Er14 2.438673 1_555
C23 Er7 2.473618 1_565
C23 Er2 2.705713 1_555
C23 Er5 2.719999 1_655
C23 Er5 2.875059 1_555
C24 Fe2 1.924002 1_544
C24 Fe1 1.924087 1_545
C24 Fe0 1.924141 1_555
C24 Er1 2.415805 1_555
C24 Er0 2.416587 1_544
C24 Er2 2.416987 1_545
