# generated using pymatgen
data_Tl4Cu3(B9O22)2
_symmetry_space_group_name_H-M   'P 1'
_cell_length_a   7.67394500
_cell_length_b   12.52087400
_cell_length_c   13.08644841
_cell_angle_alpha   90.00000000
_cell_angle_beta   107.04974882
_cell_angle_gamma   90.00000000
_symmetry_Int_Tables_number   1
_chemical_formula_structural   Tl4Cu3(B9O22)2
_chemical_formula_sum   'Tl4 Cu3 B18 O44'
_cell_volume   1202.14256169
_cell_formula_units_Z   1
loop_
 _symmetry_equiv_pos_site_id
 _symmetry_equiv_pos_as_xyz
  1  'x, y, z'
loop_
 _atom_site_type_symbol
 _atom_site_label
 _atom_site_symmetry_multiplicity
 _atom_site_fract_x
 _atom_site_fract_y
 _atom_site_fract_z
 _atom_site_occupancy
  Tl  Tl0  1  0.34905800  0.00000000  0.58533600  1
  Tl  Tl1  1  0.76372200  0.00000000  0.41466400  1
  Tl  Tl2  1  0.26868900  0.50000000  0.22693500  1
  Tl  Tl3  1  0.04175400  0.50000000  0.77306500  1
  Cu  Cu0  1  0.95274400  0.00000000  0.87969900  1
  Cu  Cu1  1  0.07304400  0.00000000  0.12030100  1
  Cu  Cu2  1  0.56344600  0.50000000  0.00000000  1
  B  B0  1  0.09778200  0.19369500  0.00000000  1
  B  B1  1  0.09778200  0.80630500  0.00000000  1
  B  B2  1  0.96589100  0.22652000  0.80353500  1
  B  B3  1  0.16235600  0.77348000  0.19646500  1
  B  B4  1  0.96589100  0.77348000  0.80353500  1
  B  B5  1  0.16235600  0.22652000  0.19646500  1
  B  B6  1  0.78892300  0.10223100  0.65998200  1
  B  B7  1  0.12894100  0.89776900  0.34001800  1
  B  B8  1  0.78892300  0.89776900  0.65998200  1
  B  B9  1  0.12894100  0.10223100  0.34001800  1
  B  B10  1  0.64250700  0.26006400  0.71717000  1
  B  B11  1  0.92533700  0.73993600  0.28283000  1
  B  B12  1  0.64250700  0.73993600  0.71717000  1
  B  B13  1  0.92533700  0.26006400  0.28283000  1
  B  B14  1  0.02590100  0.21598300  0.62631200  1
  B  B15  1  0.39959000  0.78401700  0.37368800  1
  B  B16  1  0.02590100  0.78401700  0.62631200  1
  B  B17  1  0.39959000  0.21598300  0.37368800  1
  O  O0  1  0.00853200  0.09419100  0.00000000  1
  O  O1  1  0.00853200  0.90580900  0.00000000  1
  O  O2  1  0.90924100  0.89029500  0.77679200  1
  O  O3  1  0.13244900  0.10970500  0.22320800  1
  O  O4  1  0.90924100  0.10970500  0.77679200  1
  O  O5  1  0.13244900  0.89029500  0.22320800  1
  O  O6  1  0.09492300  0.23824100  0.90590900  1
  O  O7  1  0.18901500  0.76175900  0.09409100  1
  O  O8  1  0.09492300  0.76175900  0.90590900  1
  O  O9  1  0.18901500  0.23824100  0.09409100  1
  O  O10  1  0.71067600  0.00000000  0.63244100  1
  O  O11  1  0.07823600  0.00000000  0.36755900  1
  O  O12  1  0.79804700  0.28739100  0.79647900  1
  O  O13  1  0.00156800  0.71260900  0.20352100  1
  O  O14  1  0.79804700  0.71260900  0.79647900  1
  O  O15  1  0.00156800  0.28739100  0.20352100  1
  O  O16  1  0.48459200  0.31638000  0.70876200  1
  O  O17  1  0.77583000  0.68362000  0.29123800  1
  O  O18  1  0.48459200  0.68362000  0.70876200  1
  O  O19  1  0.77583000  0.31638000  0.29123800  1
  O  O20  1  0.63609200  0.17808100  0.64654900  1
  O  O21  1  0.98954300  0.82191900  0.35345100  1
  O  O22  1  0.63609200  0.82191900  0.64654900  1
  O  O23  1  0.98954300  0.17808100  0.35345100  1
  O  O24  1  0.04327600  0.26903800  0.72089400  1
  O  O25  1  0.32238200  0.73096200  0.27910600  1
  O  O26  1  0.04327600  0.73096200  0.72089400  1
  O  O27  1  0.32238200  0.26903800  0.27910600  1
  O  O28  1  0.57089200  0.24822200  0.43234900  1
  O  O29  1  0.13854300  0.75177800  0.56765100  1
  O  O30  1  0.57089200  0.75177800  0.43234900  1
  O  O31  1  0.13854300  0.24822200  0.56765100  1
  O  O32  1  0.90745100  0.13183000  0.59316100  1
  O  O33  1  0.31429000  0.86817000  0.40683900  1
  O  O34  1  0.90745100  0.86817000  0.59316100  1
  O  O35  1  0.31429000  0.13183000  0.40683900  1
  O  O36  1  0.75672200  0.39976300  0.00000000  1
  O  O37  1  0.75672200  0.60023700  0.00000000  1
  O  O38  1  0.39254700  0.41560900  0.88873700  1
  O  O39  1  0.50381000  0.58439100  0.11126300  1
  O  O40  1  0.39254700  0.58439100  0.88873700  1
  O  O41  1  0.50381000  0.41560900  0.11126300  1
  O  O42  1  0.78730600  0.50000000  0.15282700  1
  O  O43  1  0.63447900  0.50000000  0.84717300  1
loop_
_geom_bond_atom_site_label_1
_geom_bond_atom_site_label_2
_geom_bond_distance
_geom_bond_site_symmetry_2
Cu0 O4 1.883657 1_555
Cu0 O2 1.883657 1_545
Cu0 O0 1.912430 1_656
Cu0 O1 1.912430 1_646
Cu1 O3 1.883658 1_555
Cu1 O5 1.883658 1_545
Cu1 O1 1.912430 1_545
Cu1 O0 1.912430 1_555
Cu2 O36 1.942939 1_555
Cu2 O37 1.942939 1_555
Cu2 O41 1.958759 1_555
Cu2 O39 1.958759 1_555
Cu2 O40 1.958759 1_554
Cu2 O38 1.958759 1_554
Cu2 O43 2.221774 1_554
Cu2 O42 2.221774 1_555
B0 O6 1.346058 1_554
B0 O9 1.346060 1_555
B0 O0 1.421723 1_555
B1 O8 1.346058 1_554
B1 O7 1.346060 1_555
B1 O1 1.421723 1_555
B2 O6 1.420891 1_655
B2 O12 1.476035 1_555
B2 O24 1.477250 1_655
B2 O4 1.536726 1_555
B3 O7 1.420894 1_555
B3 O13 1.476035 1_555
B3 O25 1.477250 1_555
B3 O5 1.536726 1_555
B4 O8 1.420891 1_655
B4 O14 1.476035 1_555
B4 O26 1.477250 1_655
B4 O2 1.536726 1_555
B5 O9 1.420894 1_555
B5 O15 1.476035 1_555
B5 O27 1.477250 1_555
B5 O3 1.536726 1_555
B6 O10 1.414921 1_555
B6 O20 1.479002 1_555
B6 O32 1.481808 1_555
B6 O4 1.539583 1_555
B7 O11 1.414919 1_565
B7 O21 1.479002 1_455
B7 O33 1.481808 1_555
B7 O5 1.539583 1_555
B8 O10 1.414921 1_565
B8 O22 1.479002 1_555
B8 O34 1.481808 1_555
B8 O2 1.539583 1_555
B9 O11 1.414919 1_555
B9 O23 1.479002 1_455
B9 O35 1.481808 1_555
B9 O3 1.539583 1_555
B10 O20 1.372425 1_555
B10 O12 1.375683 1_555
B10 O16 1.378279 1_555
B11 O21 1.372425 1_555
B11 O13 1.375683 1_655
B11 O17 1.378279 1_555
B12 O22 1.372425 1_555
B12 O14 1.375683 1_555
B12 O18 1.378279 1_555
B13 O23 1.372425 1_555
B13 O15 1.375683 1_655
B13 O19 1.378279 1_555
B14 O31 1.374254 1_555
B14 O32 1.376018 1_455
B14 O24 1.376334 1_555
B15 O30 1.374248 1_555
B15 O33 1.376022 1_555
B15 O25 1.376335 1_555
B16 O29 1.374254 1_555
B16 O34 1.376018 1_455
B16 O26 1.376334 1_555
B17 O28 1.374248 1_555
B17 O35 1.376022 1_555
B17 O27 1.376335 1_555
O10 Tl0 2.660395 1_555
O11 Tl1 2.660402 1_455
O32 Tl1 2.808323 1_555
O33 Tl0 2.808323 1_565
O34 Tl1 2.808323 1_565
O35 Tl0 2.808323 1_555
