# generated using pymatgen
data_MgSn5
_symmetry_space_group_name_H-M   'P 1'
_cell_length_a   6.46093176
_cell_length_b   6.46093176
_cell_length_c   6.46093194
_cell_angle_alpha   52.22700813
_cell_angle_beta   52.22700813
_cell_angle_gamma   52.22701875
_symmetry_Int_Tables_number   1
_chemical_formula_structural   MgSn5
_chemical_formula_sum   'Mg1 Sn5'
_cell_volume   155.87995785
_cell_formula_units_Z   1
loop_
 _symmetry_equiv_pos_site_id
 _symmetry_equiv_pos_as_xyz
  1  'x, y, z'
loop_
 _atom_site_type_symbol
 _atom_site_label
 _atom_site_symmetry_multiplicity
 _atom_site_fract_x
 _atom_site_fract_y
 _atom_site_fract_z
 _atom_site_occupancy
  Mg  Mg0  1  0.50000000  0.50000000  0.50000000  1
  Sn  Sn0  1  -0.00000000  0.66052502  0.33947498  1
  Sn  Sn1  1  0.16639363  0.16639363  0.16639363  1
  Sn  Sn2  1  0.33947498  0.00000000  0.66052502  1
  Sn  Sn3  1  0.66052502  0.33947498  0.00000000  1
  Sn  Sn4  1  0.83360637  0.83360637  0.83360637  1
loop_
_geom_bond_atom_site_label_1
_geom_bond_atom_site_label_2
_geom_bond_distance
_geom_bond_site_symmetry_2
Mg0 Sn1 3.283722 1_556
Mg0 Sn4 3.283722 1_554
Mg0 Sn1 3.283723 1_565
Mg0 Sn4 3.283723 1_545
Mg0 Sn4 3.283723 1_455
Mg0 Sn1 3.283723 1_655
Mg0 Sn0 3.357003 1_655
Mg0 Sn2 3.357003 1_555
Mg0 Sn3 3.357004 1_555
Mg0 Sn3 3.357004 1_556
Mg0 Sn0 3.357004 1_555
Mg0 Sn2 3.357004 1_565
Sn0 Sn3 3.253890 1_456
Sn0 Sn3 3.253890 1_555
Sn0 Sn2 3.253891 1_465
Sn0 Sn2 3.253891 1_555
Sn0 Sn2 3.344222 1_564
Sn0 Sn3 3.344222 1_465
Sn0 Sn4 3.360782 1_455
Sn0 Sn1 3.360782 1_555
Sn0 Sn1 3.382722 1_565
Sn0 Sn4 3.382722 1_454
Sn1 Sn3 3.360782 1_555
Sn1 Sn2 3.360782 1_555
Sn1 Sn2 3.382722 1_554
Sn1 Sn3 3.382722 1_455
Sn2 Sn3 3.253890 1_555
Sn2 Sn3 3.253890 1_546
Sn2 Sn3 3.344222 1_456
Sn2 Sn4 3.360782 1_545
Sn2 Sn4 3.382722 1_445
Sn3 Sn4 3.360782 1_554
Sn3 Sn4 3.382722 1_544
