# generated using pymatgen
data_UZn4P2(H2O5)3
_symmetry_space_group_name_H-M   'P 1'
_cell_length_a   6.68505200
_cell_length_b   9.04983100
_cell_length_c   19.82700600
_cell_angle_alpha   90.00000000
_cell_angle_beta   90.00000000
_cell_angle_gamma   90.00000000
_symmetry_Int_Tables_number   1
_chemical_formula_structural   UZn4P2(H2O5)3
_chemical_formula_sum   'U4 Zn16 P8 H24 O60'
_cell_volume   1199.50592330
_cell_formula_units_Z   4
loop_
 _symmetry_equiv_pos_site_id
 _symmetry_equiv_pos_as_xyz
  1  'x, y, z'
loop_
 _atom_site_type_symbol
 _atom_site_label
 _atom_site_symmetry_multiplicity
 _atom_site_fract_x
 _atom_site_fract_y
 _atom_site_fract_z
 _atom_site_occupancy
  U  U0  1  0.35324600  0.00000000  0.25000000  1
  U  U1  1  0.14675400  0.50000000  0.75000000  1
  U  U2  1  0.64675400  0.00000000  0.75000000  1
  U  U3  1  0.85324600  0.50000000  0.25000000  1
  Zn  Zn0  1  0.63801200  0.04682800  0.41966300  1
  Zn  Zn1  1  0.86198800  0.45317200  0.91966300  1
  Zn  Zn2  1  0.86198800  0.54682800  0.58033700  1
  Zn  Zn3  1  0.63801200  0.95317200  0.08033700  1
  Zn  Zn4  1  0.36198800  0.95317200  0.58033700  1
  Zn  Zn5  1  0.13801200  0.54682800  0.08033700  1
  Zn  Zn6  1  0.13801200  0.45317200  0.41966300  1
  Zn  Zn7  1  0.36198800  0.04682800  0.91966300  1
  Zn  Zn8  1  0.91055500  0.77193800  0.44596200  1
  Zn  Zn9  1  0.58944500  0.72806200  0.94596200  1
  Zn  Zn10  1  0.58944500  0.27193800  0.55403800  1
  Zn  Zn11  1  0.91055500  0.22806200  0.05403800  1
  Zn  Zn12  1  0.08944500  0.22806200  0.55403800  1
  Zn  Zn13  1  0.41055500  0.27193800  0.05403800  1
  Zn  Zn14  1  0.41055500  0.72806200  0.44596200  1
  Zn  Zn15  1  0.08944500  0.77193800  0.94596200  1
  P  P0  1  0.84078200  0.91497700  0.58153100  1
  P  P1  1  0.65921800  0.58502300  0.08153100  1
  P  P2  1  0.65921800  0.41497700  0.41846900  1
  P  P3  1  0.84078200  0.08502300  0.91846900  1
  P  P4  1  0.15921800  0.08502300  0.41846900  1
  P  P5  1  0.34078200  0.41497700  0.91846900  1
  P  P6  1  0.34078200  0.58502300  0.58153100  1
  P  P7  1  0.15921800  0.91497700  0.08153100  1
  H  H0  1  0.64055300  0.18915500  0.31578700  1
  H  H1  1  0.85944700  0.31084500  0.81578700  1
  H  H2  1  0.85944700  0.68915500  0.68421300  1
  H  H3  1  0.64055300  0.81084500  0.18421300  1
  H  H4  1  0.35944700  0.81084500  0.68421300  1
  H  H5  1  0.14055300  0.68915500  0.18421300  1
  H  H6  1  0.14055300  0.31084500  0.31578700  1
  H  H7  1  0.35944700  0.18915500  0.81578700  1
  H  H8  1  0.15071200  0.70661500  0.35797400  1
  H  H9  1  0.34928800  0.79338500  0.85797400  1
  H  H10  1  0.34928800  0.20661500  0.64202600  1
  H  H11  1  0.15071200  0.29338500  0.14202600  1
  H  H12  1  0.84928800  0.29338500  0.64202600  1
  H  H13  1  0.65071200  0.20661500  0.14202600  1
  H  H14  1  0.65071200  0.79338500  0.35797400  1
  H  H15  1  0.84928800  0.70661500  0.85797400  1
  H  H16  1  0.88720900  0.96462000  0.21444700  1
  H  H17  1  0.61279100  0.53538000  0.71444700  1
  H  H18  1  0.61279100  0.46462000  0.78555300  1
  H  H19  1  0.88720900  0.03538000  0.28555300  1
  H  H20  1  0.11279100  0.03538000  0.78555300  1
  H  H21  1  0.38720900  0.46462000  0.28555300  1
  H  H22  1  0.38720900  0.53538000  0.21444700  1
  H  H23  1  0.11279100  0.96462000  0.71444700  1
  O  O0  1  0.86833700  0.76119100  0.54453200  1
  O  O1  1  0.63166300  0.73880900  0.04453200  1
  O  O2  1  0.63166300  0.26119100  0.45546800  1
  O  O3  1  0.86833700  0.23880900  0.95546800  1
  O  O4  1  0.13166300  0.23880900  0.45546800  1
  O  O5  1  0.36833700  0.26119100  0.95546800  1
  O  O6  1  0.36833700  0.73880900  0.54453200  1
  O  O7  1  0.13166300  0.76119100  0.04453200  1
  O  O8  1  0.66532500  0.00016700  0.54714300  1
  O  O9  1  0.83467500  0.49983300  0.04714300  1
  O  O10  1  0.83467500  0.50016700  0.45285700  1
  O  O11  1  0.66532500  0.99983300  0.95285700  1
  O  O12  1  0.33467500  0.99983300  0.45285700  1
  O  O13  1  0.16532500  0.50016700  0.95285700  1
  O  O14  1  0.16532500  0.49983300  0.54714300  1
  O  O15  1  0.33467500  0.00016700  0.04714300  1
  O  O16  1  0.03919500  0.00284300  0.57452100  1
  O  O17  1  0.46080500  0.49715700  0.07452100  1
  O  O18  1  0.46080500  0.50284300  0.42547900  1
  O  O19  1  0.03919500  0.99715700  0.92547900  1
  O  O20  1  0.96080500  0.99715700  0.42547900  1
  O  O21  1  0.53919500  0.50284300  0.92547900  1
  O  O22  1  0.53919500  0.49715700  0.57452100  1
  O  O23  1  0.96080500  0.00284300  0.07452100  1
  O  O24  1  0.62115300  0.08105200  0.31871600  1
  O  O25  1  0.87884700  0.41894800  0.81871600  1
  O  O26  1  0.87884700  0.58105200  0.68128400  1
  O  O27  1  0.62115300  0.91894800  0.18128400  1
  O  O28  1  0.37884700  0.91894800  0.68128400  1
  O  O29  1  0.12115300  0.58105200  0.18128400  1
  O  O30  1  0.12115300  0.41894800  0.31871600  1
  O  O31  1  0.37884700  0.08105200  0.81871600  1
  O  O32  1  0.35824200  0.82378000  0.29507200  1
  O  O33  1  0.14175800  0.67622000  0.79507200  1
  O  O34  1  0.14175800  0.32378000  0.70492800  1
  O  O35  1  0.35824200  0.17622000  0.20492800  1
  O  O36  1  0.64175800  0.17622000  0.70492800  1
  O  O37  1  0.85824200  0.32378000  0.20492800  1
  O  O38  1  0.85824200  0.67622000  0.29507200  1
  O  O39  1  0.64175800  0.82378000  0.79507200  1
  O  O40  1  0.14671400  0.68461500  0.40635700  1
  O  O41  1  0.35328600  0.81538500  0.90635700  1
  O  O42  1  0.35328600  0.18461500  0.59364300  1
  O  O43  1  0.14671400  0.31538500  0.09364300  1
  O  O44  1  0.85328600  0.31538500  0.59364300  1
  O  O45  1  0.64671400  0.18461500  0.09364300  1
  O  O46  1  0.64671400  0.81538500  0.40635700  1
  O  O47  1  0.85328600  0.68461500  0.90635700  1
  O  O48  1  0.79364900  0.88039400  0.65590100  1
  O  O49  1  0.70635100  0.61960600  0.15590100  1
  O  O50  1  0.70635100  0.38039400  0.34409900  1
  O  O51  1  0.79364900  0.11960600  0.84409900  1
  O  O52  1  0.20635100  0.11960600  0.34409900  1
  O  O53  1  0.29364900  0.38039400  0.84409900  1
  O  O54  1  0.29364900  0.61960600  0.65590100  1
  O  O55  1  0.20635100  0.88039400  0.15590100  1
  O  O56  1  0.97825600  0.00000000  0.25000000  1
  O  O57  1  0.52174400  0.50000000  0.75000000  1
  O  O58  1  0.02174400  0.00000000  0.75000000  1
  O  O59  1  0.47825600  0.50000000  0.25000000  1
loop_
_geom_bond_atom_site_label_1
_geom_bond_atom_site_label_2
_geom_bond_distance
_geom_bond_site_symmetry_2
H0 O24 0.988580 1_555
H1 O25 0.988580 1_555
H2 O26 0.988580 1_555
H3 O27 0.988580 1_555
H4 O28 0.988580 1_555
H5 O29 0.988580 1_555
H6 O30 0.988580 1_555
H7 O31 0.988580 1_555
H8 O40 0.980097 1_555
H9 O41 0.980097 1_555
H10 O42 0.980097 1_555
H11 O43 0.980097 1_555
H12 O44 0.980097 1_555
H13 O45 0.980097 1_555
H14 O46 0.980097 1_555
H15 O47 0.980097 1_555
H16 O56 0.984822 1_565
H17 O57 0.984822 1_555
H18 O57 0.984822 1_555
H19 O56 0.984822 1_555
H20 O58 0.984822 1_555
H21 O59 0.984822 1_555
H22 O59 0.984822 1_555
H23 O58 0.984822 1_565
O0 P0 1.583983 1_555
O0 Zn8 1.977015 1_555
O0 Zn2 2.066197 1_555
O1 P1 1.583983 1_555
O1 Zn9 1.977015 1_554
O1 Zn3 2.066197 1_555
O2 P2 1.583983 1_555
O2 Zn10 1.977015 1_555
O2 Zn0 2.066197 1_555
O3 P3 1.583983 1_555
O3 Zn11 1.977015 1_556
O3 Zn1 2.066197 1_555
O4 P4 1.583983 1_555
O4 Zn12 1.977015 1_555
O4 Zn6 2.066197 1_555
O5 P5 1.583983 1_555
O5 Zn13 1.977015 1_556
O5 Zn7 2.066197 1_555
O6 P6 1.583983 1_555
O6 Zn14 1.977015 1_555
O6 Zn4 2.066197 1_555
O7 P7 1.583983 1_555
O7 Zn15 1.977015 1_554
O7 Zn5 2.066197 1_555
O8 P0 1.560456 1_545
O8 Zn4 2.173957 1_545
O8 Zn10 2.514966 1_555
O9 P1 1.560456 1_555
O9 Zn5 2.173957 1_655
O9 Zn11 2.514966 1_555
O10 P2 1.560456 1_555
O10 Zn6 2.173957 1_655
O10 Zn8 2.514966 1_555
O11 P3 1.560456 1_565
O11 Zn7 2.173957 1_565
O11 Zn9 2.514966 1_555
O12 P4 1.560456 1_565
O12 Zn0 2.173957 1_565
O12 Zn14 2.514966 1_555
O13 P5 1.560456 1_555
O13 Zn1 2.173957 1_455
O13 Zn15 2.514966 1_555
O14 P6 1.560456 1_555
O14 Zn2 2.173957 1_455
O14 Zn12 2.514966 1_555
O15 P7 1.560456 1_545
O15 Zn3 2.173957 1_545
O15 Zn13 2.514966 1_555
O16 P0 1.552726 1_445
O16 Zn12 2.105234 1_555
O16 Zn4 2.207225 1_545
O17 P1 1.552726 1_555
O17 Zn13 2.105234 1_555
O17 Zn5 2.207225 1_555
O18 P2 1.552726 1_555
O18 Zn14 2.105234 1_555
O18 Zn6 2.207225 1_555
O19 P3 1.552726 1_465
O19 Zn15 2.105234 1_555
O19 Zn7 2.207225 1_565
O20 P4 1.552726 1_665
O20 Zn8 2.105234 1_555
O20 Zn0 2.207225 1_565
O21 P5 1.552726 1_555
O21 Zn9 2.105234 1_555
O21 Zn1 2.207225 1_555
O22 P6 1.552726 1_555
O22 Zn10 2.105234 1_555
O22 Zn2 2.207225 1_555
O23 P7 1.552726 1_645
O23 Zn11 2.105234 1_555
O23 Zn3 2.207225 1_545
O24 Zn0 2.028433 1_555
O24 U0 2.366820 1_555
O25 Zn1 2.028433 1_555
O25 U1 2.366820 1_655
O26 Zn2 2.028433 1_555
O26 U1 2.366820 1_655
O27 Zn3 2.028433 1_555
O27 U0 2.366820 1_565
O28 Zn4 2.028433 1_555
O28 U2 2.366820 1_565
O29 Zn5 2.028433 1_555
O29 U3 2.366820 1_455
O30 Zn6 2.028433 1_555
O30 U3 2.366820 1_455
O31 Zn7 2.028433 1_555
O31 U2 2.366820 1_555
O32 U0 1.828381 1_565
O33 U1 1.828381 1_555
O34 U1 1.828381 1_555
O35 U0 1.828381 1_555
O36 U2 1.828381 1_555
O37 U3 1.828381 1_555
O38 U3 1.828381 1_555
O39 U2 1.828381 1_565
O40 Zn8 1.932234 1_455
O40 Zn14 1.970322 1_555
O40 Zn6 2.111871 1_555
O41 Zn9 1.932234 1_555
O41 Zn15 1.970322 1_555
O41 Zn7 2.111871 1_565
O42 Zn10 1.932234 1_555
O42 Zn12 1.970322 1_555
O42 Zn4 2.111871 1_545
O43 Zn11 1.932234 1_455
O43 Zn13 1.970322 1_555
O43 Zn5 2.111871 1_555
O44 Zn12 1.932234 1_655
O44 Zn10 1.970322 1_555
O44 Zn2 2.111871 1_555
O45 Zn13 1.932234 1_555
O45 Zn11 1.970322 1_555
O45 Zn3 2.111871 1_545
O46 Zn14 1.932234 1_555
O46 Zn8 1.970322 1_555
O46 Zn0 2.111871 1_565
O47 Zn15 1.932234 1_655
O47 Zn9 1.970322 1_555
O47 Zn1 2.111871 1_555
O48 P0 1.539962 1_555
O48 U2 2.369976 1_565
O49 P1 1.539962 1_555
O49 U3 2.369976 1_555
O50 P2 1.539962 1_555
O50 U3 2.369976 1_555
O51 P3 1.539962 1_555
O51 U2 2.369976 1_555
O52 P4 1.539962 1_555
O52 U0 2.369976 1_555
O53 P5 1.539962 1_555
O53 U1 2.369976 1_555
O54 P6 1.539962 1_555
O54 U1 2.369976 1_555
O55 P7 1.539962 1_555
O55 U0 2.369976 1_565
O56 U0 2.506828 1_655
O57 U1 2.506828 1_555
O58 U2 2.506828 1_455
O59 U3 2.506828 1_555
