# generated using pymatgen
data_Er2Mn(GeO3)4
_symmetry_space_group_name_H-M   'P 1'
_cell_length_a   5.00720700
_cell_length_b   9.98379751
_cell_length_c   9.98379751
_cell_angle_alpha   90.50646897
_cell_angle_beta   90.00000000
_cell_angle_gamma   90.00000000
_symmetry_Int_Tables_number   1
_chemical_formula_structural   Er2Mn(GeO3)4
_chemical_formula_sum   'Er4 Mn2 Ge8 O24'
_cell_volume   499.07993133
_cell_formula_units_Z   2
loop_
 _symmetry_equiv_pos_site_id
 _symmetry_equiv_pos_as_xyz
  1  'x, y, z'
loop_
 _atom_site_type_symbol
 _atom_site_label
 _atom_site_symmetry_multiplicity
 _atom_site_fract_x
 _atom_site_fract_y
 _atom_site_fract_z
 _atom_site_occupancy
  Er  Er0  1  0.50000000  0.00000000  0.50000000  1
  Er  Er1  1  0.50000000  0.50000000  0.00000000  1
  Er  Er2  1  0.50000000  0.75000000  0.75000000  1
  Er  Er3  1  0.50000000  0.25000000  0.25000000  1
  Mn  Mn0  1  0.50000000  0.50000000  0.50000000  1
  Mn  Mn1  1  0.50000000  0.00000000  0.00000000  1
  Ge  Ge0  1  0.99608400  0.74680000  0.47928700  1
  Ge  Ge1  1  0.00391600  0.25320000  0.52071300  1
  Ge  Ge2  1  0.00391600  0.24680000  0.97928700  1
  Ge  Ge3  1  0.99608400  0.75320000  0.02071300  1
  Ge  Ge4  1  0.00391600  0.47928700  0.74680000  1
  Ge  Ge5  1  0.99608400  0.52071300  0.25320000  1
  Ge  Ge6  1  0.99608400  0.97928700  0.24680000  1
  Ge  Ge7  1  0.00391600  0.02071300  0.75320000  1
  O  O0  1  0.26187500  0.56496900  0.66841200  1
  O  O1  1  0.25465100  0.06341600  0.33009400  1
  O  O2  1  0.25465100  0.43658400  0.16990600  1
  O  O3  1  0.26187500  0.93503100  0.83158800  1
  O  O4  1  0.73812500  0.43503100  0.33158800  1
  O  O5  1  0.74534900  0.93658400  0.66990600  1
  O  O6  1  0.74534900  0.56341600  0.83009400  1
  O  O7  1  0.73812500  0.06496900  0.16841200  1
  O  O8  1  0.73812500  0.66841200  0.56496900  1
  O  O9  1  0.74534900  0.33009400  0.06341600  1
  O  O10  1  0.74534900  0.16990600  0.43658400  1
  O  O11  1  0.73812500  0.83158800  0.93503100  1
  O  O12  1  0.26187500  0.33158800  0.43503100  1
  O  O13  1  0.25465100  0.66990600  0.93658400  1
  O  O14  1  0.25465100  0.83009400  0.56341600  1
  O  O15  1  0.26187500  0.16841200  0.06496900  1
  O  O16  1  0.83121000  0.36963400  0.63036600  1
  O  O17  1  0.83020200  0.87332200  0.37332200  1
  O  O18  1  0.83020200  0.62667800  0.12667800  1
  O  O19  1  0.83121000  0.13036600  0.86963400  1
  O  O20  1  0.16879000  0.63036600  0.36963400  1
  O  O21  1  0.16979800  0.12667800  0.62667800  1
  O  O22  1  0.16979800  0.37332200  0.87332200  1
  O  O23  1  0.16879000  0.86963400  0.13036600  1
loop_
_geom_bond_atom_site_label_1
_geom_bond_atom_site_label_2
_geom_bond_distance
_geom_bond_site_symmetry_2
Er0 O1 2.192384 1_555
Er0 O14 2.192384 1_545
Er0 O5 2.192384 1_545
Er0 O10 2.192384 1_555
Er0 O17 2.429916 1_545
Er0 O21 2.429916 1_555
Er1 O2 2.192384 1_555
Er1 O6 2.192384 1_554
Er1 O13 2.192384 1_554
Er1 O9 2.192384 1_555
Er1 O22 2.429916 1_554
Er1 O18 2.429916 1_555
Er2 O3 2.339047 1_555
Er2 O0 2.339047 1_555
Er2 O8 2.339047 1_555
Er2 O11 2.339047 1_555
Er2 O14 2.375941 1_555
Er2 O5 2.375941 1_555
Er2 O6 2.375941 1_555
Er2 O13 2.375941 1_555
Er3 O7 2.339047 1_555
Er3 O15 2.339047 1_555
Er3 O12 2.339047 1_555
Er3 O4 2.339047 1_555
Er3 O1 2.375941 1_555
Er3 O10 2.375941 1_555
Er3 O9 2.375941 1_555
Er3 O2 2.375941 1_555
Mn0 O12 2.156433 1_555
Mn0 O4 2.156433 1_555
Mn0 O0 2.156433 1_555
Mn0 O8 2.156433 1_555
Mn0 O16 2.483629 1_555
Mn0 O20 2.483629 1_555
Mn1 O15 2.156433 1_555
Mn1 O3 2.156433 1_544
Mn1 O11 2.156433 1_544
Mn1 O7 2.156433 1_555
Mn1 O23 2.483629 1_545
Mn1 O19 2.483629 1_554
Ge0 O8 1.739094 1_555
Ge0 O14 1.749547 1_655
Ge0 O20 1.809729 1_655
Ge0 O17 1.851581 1_555
Ge1 O12 1.739094 1_555
Ge1 O10 1.749547 1_455
Ge1 O16 1.809729 1_455
Ge1 O21 1.851581 1_555
Ge2 O15 1.739094 1_556
Ge2 O9 1.749547 1_456
Ge2 O19 1.809729 1_455
Ge2 O22 1.851581 1_555
Ge3 O11 1.739094 1_554
Ge3 O13 1.749547 1_654
Ge3 O23 1.809729 1_655
Ge3 O18 1.851581 1_555
Ge4 O0 1.739094 1_555
Ge4 O6 1.749547 1_455
Ge4 O16 1.809729 1_455
Ge4 O22 1.851581 1_555
Ge5 O4 1.739094 1_555
Ge5 O2 1.749547 1_655
Ge5 O20 1.809729 1_655
Ge5 O18 1.851581 1_555
Ge6 O7 1.739094 1_565
Ge6 O1 1.749547 1_665
Ge6 O23 1.809729 1_655
Ge6 O17 1.851581 1_555
Ge7 O3 1.739094 1_545
Ge7 O5 1.749547 1_445
Ge7 O19 1.809729 1_455
Ge7 O21 1.851581 1_555
