# generated using pymatgen
data_Li9Mn2Co5O16
_symmetry_space_group_name_H-M   'P 1'
_cell_length_a   5.81380600
_cell_length_b   5.86717819
_cell_length_c   10.06985783
_cell_angle_alpha   73.07598331
_cell_angle_beta   74.16383951
_cell_angle_gamma   60.64637021
_symmetry_Int_Tables_number   1
_chemical_formula_structural   Li9Mn2Co5O16
_chemical_formula_sum   'Li9 Mn2 Co5 O16'
_cell_volume   282.91046715
_cell_formula_units_Z   1
loop_
 _symmetry_equiv_pos_site_id
 _symmetry_equiv_pos_as_xyz
  1  'x, y, z'
loop_
 _atom_site_type_symbol
 _atom_site_label
 _atom_site_symmetry_multiplicity
 _atom_site_fract_x
 _atom_site_fract_y
 _atom_site_fract_z
 _atom_site_occupancy
  Li  Li0  1  0.49459500  0.50614700  0.00456500  1
  Li  Li1  1  0.74987600  0.25036900  0.25420900  1
  Li  Li2  1  0.00149000  0.99654400  0.49786300  1
  Li  Li3  1  0.99273700  0.50247000  0.00184300  1
  Li  Li4  1  0.25205300  0.24553500  0.25315400  1
  Li  Li5  1  0.50658000  0.99743900  0.49844000  1
  Li  Li6  1  0.75784800  0.74856200  0.74479000  1
  Li  Li7  1  0.24967900  0.74966900  0.74559600  1
  Li  Li8  1  0.25575700  0.75163100  0.24936600  1
  Mn  Mn0  1  0.00020100  0.99835900  0.00444100  1
  Mn  Mn1  1  0.74931800  0.74762300  0.24791800  1
  Co  Co0  1  0.49555000  0.50565300  0.49228900  1
  Co  Co1  1  0.74248700  0.25304800  0.74764300  1
  Co  Co2  1  0.49415400  0.99869900  0.00276500  1
  Co  Co3  1  0.00943900  0.50833600  0.49422400  1
  Co  Co4  1  0.24835300  0.25164400  0.74987400  1
  O  O0  1  0.87740100  0.34809900  0.87900000  1
  O  O1  1  0.13531400  0.11262700  0.11039000  1
  O  O2  1  0.40770800  0.86262900  0.36748200  1
  O  O3  1  0.37642100  0.34622700  0.87636000  1
  O  O4  1  0.63965800  0.09943400  0.12073000  1
  O  O5  1  0.87958900  0.84600900  0.37430100  1
  O  O6  1  0.13619600  0.61567900  0.62323600  1
  O  O7  1  0.63232100  0.60115300  0.62394900  1
  O  O8  1  0.09667400  0.65617400  0.12385700  1
  O  O9  1  0.38265700  0.37718900  0.38449100  1
  O  O10  1  0.61767800  0.13276300  0.63173600  1
  O  O11  1  0.62395300  0.65456900  0.12506600  1
  O  O12  1  0.87171000  0.39909100  0.36501300  1
  O  O13  1  0.11795700  0.14711200  0.62821000  1
  O  O14  1  0.35239000  0.88816400  0.89122200  1
  O  O15  1  0.85225600  0.90135200  0.88597600  1
loop_
_geom_bond_atom_site_label_1
_geom_bond_atom_site_label_2
_geom_bond_distance
_geom_bond_site_symmetry_2
Li0 O14 2.053968 1_554
Li0 O0 2.129614 1_554
Li0 O11 2.133463 1_555
Li0 O8 2.161540 1_555
Li0 O4 2.171194 1_555
Li0 O3 2.200095 1_554
Li1 O12 2.027857 1_555
Li1 O9 2.077264 1_555
Li1 O4 2.172757 1_555
Li1 O5 2.175540 1_545
Li1 O11 2.207518 1_555
Li1 O1 2.215111 1_655
Li2 O6 2.093334 1_555
Li2 O5 2.136646 1_455
Li2 O10 2.161563 1_465
Li2 O13 2.169875 1_565
Li2 O12 2.213907 1_465
Li2 O2 2.237787 1_555
Li3 O11 2.061512 1_555
Li3 O8 2.067020 1_655
Li3 O1 2.072107 1_655
Li3 O0 2.121456 1_554
Li3 O3 2.131702 1_654
Li3 O15 2.135844 1_554
Li4 O12 2.061157 1_455
Li4 O2 2.064233 1_545
Li4 O9 2.154112 1_555
Li4 O4 2.173186 1_555
Li4 O1 2.199888 1_555
Li4 O8 2.235568 1_555
Li5 O2 2.040051 1_555
Li5 O9 2.046686 1_565
Li5 O5 2.081583 1_555
Li5 O10 2.108481 1_565
Li5 O7 2.159804 1_555
Li5 O13 2.166821 1_565
Li6 O10 2.062216 1_565
Li6 O6 2.085509 1_655
Li6 O7 2.116019 1_555
Li6 O15 2.185513 1_555
Li6 O0 2.212013 1_555
Li6 O14 2.305434 1_555
Li7 O6 2.021791 1_555
Li7 O7 2.107705 1_555
Li7 O13 2.135377 1_565
Li7 O14 2.194233 1_555
Li7 O3 2.210144 1_555
Li7 O15 2.250059 1_455
Li8 O2 2.051274 1_555
Li8 O11 2.056889 1_555
Li8 O1 2.071219 1_565
Li8 O8 2.079499 1_555
Li8 O5 2.094972 1_455
Li8 O9 2.107289 1_555
Mn0 O1 1.896029 1_565
Mn0 O8 1.910457 1_555
Mn0 O14 1.941017 1_554
Mn0 O0 1.965400 1_464
Mn0 O15 1.980422 1_454
Mn0 O4 1.990644 1_465
Mn1 O11 1.906614 1_555
Mn1 O2 1.924423 1_555
Mn1 O12 1.925054 1_555
Mn1 O8 1.969222 1_655
Mn1 O5 1.977088 1_555
Mn1 O4 1.980856 1_565
Co0 O9 1.878136 1_555
Co0 O2 1.999033 1_555
Co0 O7 2.036823 1_555
Co0 O6 2.046974 1_555
Co0 O12 2.100582 1_555
Co0 O10 2.120152 1_555
Co1 O7 1.950610 1_555
Co1 O10 1.957218 1_555
Co1 O0 2.024961 1_555
Co1 O15 2.031313 1_545
Co1 O13 2.066404 1_655
Co1 O3 2.067517 1_555
Co2 O11 1.930951 1_555
Co2 O1 1.947898 1_565
Co2 O14 1.953174 1_554
Co2 O3 1.960214 1_564
Co2 O4 1.980748 1_565
Co2 O15 1.983112 1_554
Co3 O5 1.895160 1_455
Co3 O9 2.017618 1_555
Co3 O6 2.020242 1_555
Co3 O13 2.049147 1_555
Co3 O12 2.074197 1_455
Co3 O7 2.119078 1_455
Co4 O3 1.954178 1_555
Co4 O13 1.962657 1_555
Co4 O6 2.028777 1_555
Co4 O10 2.032934 1_555
Co4 O0 2.088894 1_455
Co4 O14 2.092310 1_545
