# generated using pymatgen
data_RbIn(TeMo)6
_symmetry_space_group_name_H-M   'P 1'
_cell_length_a   4.60431000
_cell_length_b   10.53600763
_cell_length_c   10.53330162
_cell_angle_alpha   119.95958150
_cell_angle_beta   90.00000000
_cell_angle_gamma   90.00000000
_symmetry_Int_Tables_number   1
_chemical_formula_structural   RbIn(TeMo)6
_chemical_formula_sum   'Rb1 In1 Te6 Mo6'
_cell_volume   442.70305760
_cell_formula_units_Z   1
loop_
 _symmetry_equiv_pos_site_id
 _symmetry_equiv_pos_as_xyz
  1  'x, y, z'
loop_
 _atom_site_type_symbol
 _atom_site_label
 _atom_site_symmetry_multiplicity
 _atom_site_fract_x
 _atom_site_fract_y
 _atom_site_fract_z
 _atom_site_occupancy
  Rb  Rb0  1  0.75000000  0.66638500  0.33310000  1
  In  In0  1  0.25000000  0.33291200  0.66741500  1
  Te  Te0  1  0.75000000  0.70462900  0.67948600  1
  Te  Te1  1  0.75000000  0.32053800  0.02456900  1
  Te  Te2  1  0.75000000  0.97504900  0.29578900  1
  Te  Te3  1  0.25000000  0.29326800  0.32846300  1
  Te  Te4  1  0.25000000  0.67136500  0.96473000  1
  Te  Te5  1  0.25000000  0.03543900  0.70666000  1
  Mo  Mo0  1  0.75000000  0.01464900  0.86114500  1
  Mo  Mo1  1  0.75000000  0.13895400  0.15319700  1
  Mo  Mo2  1  0.75000000  0.84665400  0.98553500  1
  Mo  Mo3  1  0.25000000  0.98561900  0.13833400  1
  Mo  Mo4  1  0.25000000  0.86194200  0.84727500  1
  Mo  Mo5  1  0.25000000  0.15259700  0.01430000  1
loop_
_geom_bond_atom_site_label_1
_geom_bond_atom_site_label_2
_geom_bond_distance
_geom_bond_site_symmetry_2
Rb0 Te0 3.464995 1_555
Rb0 Te2 3.465120 1_555
Rb0 Te1 3.465784 1_555
In0 Te5 3.359758 1_555
In0 Te4 3.371899 1_555
In0 Te3 3.381116 1_555
Mo0 Mo1 2.674828 1_556
Mo0 Mo2 2.676918 1_545
Mo0 Mo5 2.770022 1_556
Mo0 Mo5 2.770022 1_656
Mo0 Mo4 2.770401 1_545
Mo0 Mo4 2.770401 1_645
Mo0 Te1 2.794448 1_556
Mo0 Te0 2.843957 1_545
Mo0 Te5 2.889948 1_655
Mo0 Te5 2.889948 1_555
Mo1 Mo2 2.677893 1_544
Mo1 Mo5 2.769679 1_655
Mo1 Mo5 2.769679 1_555
Mo1 Mo3 2.771602 1_645
Mo1 Mo3 2.771602 1_545
Mo1 Te2 2.797977 1_545
Mo1 Te1 2.843388 1_555
Mo1 Te3 2.890267 1_655
Mo1 Te3 2.890267 1_555
Mo2 Mo3 2.771356 1_556
Mo2 Mo3 2.771356 1_656
Mo2 Mo4 2.771473 1_555
Mo2 Mo4 2.771473 1_655
Mo2 Te0 2.795254 1_555
Mo2 Te2 2.845058 1_556
Mo2 Te4 2.890424 1_655
Mo2 Te4 2.890424 1_555
Mo3 Mo5 2.664142 1_565
Mo3 Mo4 2.665917 1_554
Mo3 Te3 2.834399 1_565
Mo3 Te2 2.871844 1_455
Mo3 Te2 2.871844 1_555
Mo3 Te4 2.873905 1_554
Mo4 Mo5 2.663099 1_566
Mo4 Te4 2.836111 1_555
Mo4 Te5 2.870435 1_565
Mo4 Te0 2.871396 1_455
Mo4 Te0 2.871396 1_555
Mo5 Te5 2.833590 1_554
Mo5 Te3 2.872058 1_555
Mo5 Te1 2.872513 1_455
Mo5 Te1 2.872513 1_555
