# generated using pymatgen
data_SrMg6Fe
_symmetry_space_group_name_H-M   'P 1'
_cell_length_a   6.73540454
_cell_length_b   6.73540454
_cell_length_c   5.12729500
_cell_angle_alpha   90.00000000
_cell_angle_beta   90.00000000
_cell_angle_gamma   123.56363777
_symmetry_Int_Tables_number   1
_chemical_formula_structural   SrMg6Fe
_chemical_formula_sum   'Sr1 Mg6 Fe1'
_cell_volume   193.82179421
_cell_formula_units_Z   1
loop_
 _symmetry_equiv_pos_site_id
 _symmetry_equiv_pos_as_xyz
  1  'x, y, z'
loop_
 _atom_site_type_symbol
 _atom_site_label
 _atom_site_symmetry_multiplicity
 _atom_site_fract_x
 _atom_site_fract_y
 _atom_site_fract_z
 _atom_site_occupancy
  Sr  Sr0  1  0.32420700  0.67579300  0.50000000  1
  Mg  Mg0  1  0.31640400  0.17077600  0.50000000  1
  Mg  Mg1  1  0.82922400  0.68359600  0.50000000  1
  Mg  Mg2  1  0.14862900  0.31297700  0.00000000  1
  Mg  Mg3  1  0.68702300  0.85137100  0.00000000  1
  Mg  Mg4  1  0.67957900  0.32042100  0.00000000  1
  Mg  Mg5  1  0.15145800  0.84854200  0.00000000  1
  Fe  Fe0  1  0.86348000  0.13652000  0.50000000  1
loop_
_geom_bond_atom_site_label_1
_geom_bond_atom_site_label_2
_geom_bond_distance
_geom_bond_site_symmetry_2
Mg0 Mg1 3.103048 1_445
Mg0 Mg5 3.138618 1_545
Mg0 Mg5 3.138618 1_546
Mg0 Mg2 3.156479 1_555
Mg0 Mg2 3.156479 1_556
Mg0 Mg1 3.266360 1_555
Mg0 Mg4 3.293262 1_555
Mg0 Mg4 3.293262 1_556
Mg0 Sr0 3.363252 1_545
Mg0 Sr0 3.372722 1_555
Mg1 Mg5 3.138618 1_655
Mg1 Mg5 3.138618 1_656
Mg1 Mg3 3.156479 1_555
Mg1 Mg3 3.156479 1_556
Mg1 Mg4 3.293262 1_555
Mg1 Mg4 3.293262 1_556
Mg1 Sr0 3.363252 1_655
Mg1 Sr0 3.372722 1_555
Mg2 Mg5 3.138732 1_545
Mg2 Mg4 3.187235 1_455
Mg2 Sr0 3.278276 1_554
Mg2 Sr0 3.278276 1_555
Mg3 Mg5 3.138732 1_655
Mg3 Mg4 3.187235 1_565
Mg3 Sr0 3.278276 1_555
Mg3 Sr0 3.278276 1_554
Mg4 Mg5 3.202149 1_545
Mg4 Mg5 3.202149 1_655
Mg5 Sr0 3.282813 1_554
Mg5 Sr0 3.282813 1_555
Fe0 Mg0 2.929381 1_655
Fe0 Mg1 2.929381 1_545
Fe0 Mg3 3.024822 1_545
Fe0 Mg3 3.024822 1_546
Fe0 Mg2 3.024822 1_656
Fe0 Mg2 3.024822 1_655
Fe0 Sr0 3.218641 1_655
Fe0 Sr0 3.218641 1_545
Fe0 Mg4 3.367082 1_555
Fe0 Mg4 3.367082 1_556
