# generated using pymatgen
data_LiScS2
_symmetry_space_group_name_H-M   'P 1'
_cell_length_a   3.69088344
_cell_length_b   3.69088517
_cell_length_c   6.41325906
_cell_angle_alpha   73.27645525
_cell_angle_beta   73.27645755
_cell_angle_gamma   60.00000299
_symmetry_Int_Tables_number   1
_chemical_formula_structural   LiScS2
_chemical_formula_sum   'Li1 Sc1 S2'
_cell_volume   71.36198036
_cell_formula_units_Z   1
loop_
 _symmetry_equiv_pos_site_id
 _symmetry_equiv_pos_as_xyz
  1  'x, y, z'
loop_
 _atom_site_type_symbol
 _atom_site_label
 _atom_site_symmetry_multiplicity
 _atom_site_fract_x
 _atom_site_fract_y
 _atom_site_fract_z
 _atom_site_occupancy
  Li  Li0  1  0.00000000  -0.00000000  -0.00000000  1
  Sc  Sc0  1  0.50000000  0.50000000  0.50000000  1
  S  S0  1  0.75277692  0.75277692  0.74166925  1
  S  S1  1  0.24722308  0.24722308  0.25833075  1
loop_
_geom_bond_atom_site_label_1
_geom_bond_atom_site_label_2
_geom_bond_distance
_geom_bond_site_symmetry_2
Li0 S1 2.642467 1_455
Li0 S0 2.642467 1_544
Li0 S1 2.642468 1_555
Li0 S0 2.642468 1_444
Li0 S1 2.642468 1_545
Li0 S0 2.642468 1_454
S0 Sc0 2.584148 1_655
S0 Sc0 2.584148 1_555
S0 Sc0 2.584149 1_565
S1 Sc0 2.584148 1_455
S1 Sc0 2.584148 1_555
S1 Sc0 2.584149 1_545
