# generated using pymatgen
data_LaNi5Sn
_symmetry_space_group_name_H-M   'P 1'
_cell_length_a   4.94992543
_cell_length_b   4.94992543
_cell_length_c   19.87652200
_cell_angle_alpha   90.00000000
_cell_angle_beta   90.00000000
_cell_angle_gamma   119.99999233
_symmetry_Int_Tables_number   1
_chemical_formula_structural   LaNi5Sn
_chemical_formula_sum   'La4 Ni20 Sn4'
_cell_volume   421.76289642
_cell_formula_units_Z   4
loop_
 _symmetry_equiv_pos_site_id
 _symmetry_equiv_pos_as_xyz
  1  'x, y, z'
loop_
 _atom_site_type_symbol
 _atom_site_label
 _atom_site_symmetry_multiplicity
 _atom_site_fract_x
 _atom_site_fract_y
 _atom_site_fract_z
 _atom_site_occupancy
  La  La0  1  0.33333300  0.66666700  0.25000000  1
  La  La1  1  0.66666700  0.33333300  0.75000000  1
  La  La2  1  0.00000000  0.00000000  0.50000000  1
  La  La3  1  0.00000000  0.00000000  0.00000000  1
  Ni  Ni0  1  0.83482000  0.16518000  0.35400800  1
  Ni  Ni1  1  0.83482000  0.66963900  0.35400800  1
  Ni  Ni2  1  0.33036100  0.16518000  0.35400800  1
  Ni  Ni3  1  0.16518000  0.83482000  0.64599200  1
  Ni  Ni4  1  0.16518000  0.33036100  0.64599200  1
  Ni  Ni5  1  0.66963900  0.83482000  0.64599200  1
  Ni  Ni6  1  0.16518000  0.83482000  0.85400800  1
  Ni  Ni7  1  0.16518000  0.33036100  0.85400800  1
  Ni  Ni8  1  0.66963900  0.83482000  0.85400800  1
  Ni  Ni9  1  0.83482000  0.16518000  0.14599200  1
  Ni  Ni10  1  0.83482000  0.66963900  0.14599200  1
  Ni  Ni11  1  0.33036100  0.16518000  0.14599200  1
  Ni  Ni12  1  0.33333300  0.66666700  0.95609100  1
  Ni  Ni13  1  0.66666700  0.33333300  0.04390900  1
  Ni  Ni14  1  0.66666700  0.33333300  0.45609100  1
  Ni  Ni15  1  0.33333300  0.66666700  0.54390900  1
  Ni  Ni16  1  0.33333300  0.66666700  0.75000000  1
  Ni  Ni17  1  0.66666700  0.33333300  0.25000000  1
  Ni  Ni18  1  0.00000000  0.00000000  0.25000000  1
  Ni  Ni19  1  0.00000000  0.00000000  0.75000000  1
  Sn  Sn0  1  0.33333300  0.66666700  0.41239800  1
  Sn  Sn1  1  0.66666700  0.33333300  0.58760200  1
  Sn  Sn2  1  0.66666700  0.33333300  0.91239800  1
  Sn  Sn3  1  0.33333300  0.66666700  0.08760200  1
loop_
_geom_bond_atom_site_label_1
_geom_bond_atom_site_label_2
_geom_bond_distance
_geom_bond_site_symmetry_2
La0 Ni18 2.857838 1_565
La0 Ni17 2.857838 1_455
La0 Ni17 2.857838 1_565
La0 Ni18 2.857842 1_665
La0 Ni18 2.857842 1_555
La0 Ni17 2.857846 1_555
La0 Ni2 3.224807 1_565
La0 Ni11 3.224807 1_565
La0 Ni10 3.224807 1_455
La0 Ni1 3.224807 1_455
La0 Ni9 3.224811 1_455
La0 Ni0 3.224811 1_455
La0 Ni0 3.224811 1_565
La0 Ni9 3.224811 1_565
La0 Ni1 3.224814 1_555
La0 Ni2 3.224814 1_555
La0 Ni10 3.224814 1_555
La0 Ni11 3.224814 1_555
La0 Sn0 3.227907 1_555
La0 Sn3 3.227907 1_555
La1 Ni19 2.857838 1_655
La1 Ni16 2.857838 1_545
La1 Ni16 2.857838 1_655
La1 Ni19 2.857842 1_555
La1 Ni19 2.857842 1_665
La1 Ni16 2.857846 1_555
La1 Ni7 3.224807 1_655
La1 Ni4 3.224807 1_655
La1 Ni5 3.224807 1_545
La1 Ni8 3.224807 1_545
La1 Ni6 3.224811 1_655
La1 Ni3 3.224811 1_545
La1 Ni3 3.224811 1_655
La1 Ni6 3.224811 1_545
La1 Ni7 3.224814 1_555
La1 Ni4 3.224814 1_555
La1 Ni8 3.224814 1_555
La1 Ni5 3.224814 1_555
La1 Sn2 3.227907 1_555
La1 Sn1 3.227907 1_555
La2 Ni15 2.988134 1_545
La2 Ni14 2.988134 1_455
La2 Ni15 2.988138 1_555
La2 Ni14 2.988138 1_445
La2 Ni14 2.988138 1_555
La2 Ni15 2.988138 1_445
La2 Ni0 3.228943 1_455
La2 Ni3 3.228943 1_545
La2 Ni4 3.228944 1_555
La2 Ni1 3.228944 1_445
La2 Ni5 3.228944 1_445
La2 Ni2 3.228944 1_555
La2 Sn1 3.346505 1_455
La2 Sn0 3.346505 1_545
La2 Sn1 3.346509 1_445
La2 Sn1 3.346509 1_555
La2 Sn0 3.346509 1_445
La2 Sn0 3.346509 1_555
La3 Ni13 2.988134 1_455
La3 Ni12 2.988134 1_544
La3 Ni13 2.988138 1_445
La3 Ni13 2.988138 1_555
La3 Ni12 2.988138 1_554
La3 Ni12 2.988138 1_444
La3 Ni9 3.228943 1_455
La3 Ni6 3.228943 1_544
La3 Ni8 3.228944 1_444
La3 Ni7 3.228944 1_554
La3 Ni10 3.228944 1_445
La3 Ni11 3.228944 1_555
La3 Sn2 3.346505 1_454
La3 Sn3 3.346505 1_545
La3 Sn2 3.346509 1_444
La3 Sn2 3.346509 1_554
La3 Sn3 3.346509 1_445
La3 Sn3 3.346509 1_555
Ni0 Ni2 2.452891 1_655
Ni0 Ni1 2.452891 1_545
Ni0 Ni14 2.489068 1_555
Ni0 Ni1 2.497034 1_555
Ni0 Ni2 2.497034 1_555
Ni0 Ni18 2.505863 1_655
Ni0 Ni17 2.520356 1_555
Ni0 Sn0 2.733601 1_545
Ni0 Sn0 2.733601 1_655
Ni1 Ni2 2.452891 1_665
Ni1 Ni14 2.489068 1_555
Ni1 Ni2 2.497035 1_555
Ni1 Ni18 2.505866 1_665
Ni1 Ni17 2.520356 1_555
Ni1 Sn0 2.733596 1_655
Ni1 Sn0 2.733605 1_555
Ni2 Sn0 2.733596 1_545
Ni2 Sn0 2.733605 1_555
Ni3 Ni4 2.452891 1_565
Ni3 Ni5 2.452891 1_455
Ni3 Ni5 2.497034 1_555
Ni3 Ni4 2.497034 1_555
Ni3 Sn1 2.733601 1_455
Ni3 Sn1 2.733601 1_565
Ni4 Ni5 2.452891 1_445
Ni4 Ni5 2.497035 1_555
Ni4 Sn1 2.733596 1_455
Ni4 Sn1 2.733605 1_555
Ni5 Sn1 2.733596 1_565
Ni5 Sn1 2.733605 1_555
Ni6 Ni7 2.452891 1_565
Ni6 Ni8 2.452891 1_455
Ni6 Ni8 2.497034 1_555
Ni6 Ni7 2.497034 1_555
Ni6 Sn2 2.733601 1_455
Ni6 Sn2 2.733601 1_565
Ni7 Ni8 2.452891 1_445
Ni7 Ni8 2.497035 1_555
Ni7 Sn2 2.733596 1_455
Ni7 Sn2 2.733605 1_555
Ni8 Sn2 2.733596 1_565
Ni8 Sn2 2.733605 1_555
Ni9 Sn3 2.733601 1_545
Ni9 Sn3 2.733601 1_655
Ni10 Ni9 2.452891 1_565
Ni10 Ni11 2.452891 1_665
Ni10 Ni13 2.489068 1_555
Ni10 Ni9 2.497034 1_555
Ni10 Ni11 2.497035 1_555
Ni10 Ni18 2.505866 1_665
Ni10 Ni17 2.520356 1_555
Ni10 Sn3 2.733596 1_655
Ni10 Sn3 2.733605 1_555
Ni11 Ni9 2.452891 1_455
Ni11 Ni13 2.489068 1_555
Ni11 Ni9 2.497034 1_555
Ni11 Ni18 2.505866 1_555
Ni11 Ni17 2.520356 1_555
Ni11 Sn3 2.733596 1_545
Ni11 Sn3 2.733605 1_555
Ni12 Ni6 2.489068 1_555
Ni12 Ni7 2.489068 1_555
Ni12 Ni8 2.489068 1_555
Ni12 Sn3 2.613981 1_556
Ni12 Sn2 2.986883 1_455
Ni12 Sn2 2.986883 1_565
Ni12 Sn2 2.986891 1_555
Ni13 Ni9 2.489068 1_555
Ni13 Sn2 2.613981 1_554
Ni13 Sn3 2.986883 1_545
Ni13 Sn3 2.986883 1_655
Ni13 Sn3 2.986891 1_555
Ni14 Ni2 2.489068 1_555
Ni14 Sn1 2.613981 1_555
Ni14 Sn0 2.986883 1_545
Ni14 Sn0 2.986883 1_655
Ni14 Sn0 2.986891 1_555
Ni15 Ni3 2.489068 1_555
Ni15 Ni5 2.489068 1_555
Ni15 Ni4 2.489068 1_555
Ni15 Sn0 2.613981 1_555
Ni15 Sn1 2.986883 1_455
Ni15 Sn1 2.986883 1_565
Ni15 Sn1 2.986891 1_555
Ni16 Ni3 2.520356 1_555
Ni16 Ni6 2.520356 1_555
Ni16 Ni7 2.520356 1_555
Ni16 Ni4 2.520356 1_555
Ni16 Ni8 2.520356 1_555
Ni16 Ni5 2.520356 1_555
Ni16 Ni19 2.857838 1_565
Ni16 Ni19 2.857842 1_555
Ni16 Ni19 2.857842 1_665
Ni17 Ni9 2.520356 1_555
Ni17 Ni2 2.520356 1_555
Ni17 Ni18 2.857838 1_655
Ni17 Ni18 2.857842 1_665
Ni17 Ni18 2.857842 1_555
Ni18 Ni9 2.505863 1_455
Ni18 Ni2 2.505866 1_555
Ni19 Ni3 2.505863 1_545
Ni19 Ni6 2.505863 1_545
Ni19 Ni7 2.505866 1_555
Ni19 Ni8 2.505866 1_445
Ni19 Ni4 2.505866 1_555
Ni19 Ni5 2.505866 1_445
