# generated using pymatgen
data_Mg16Al12Co
_symmetry_space_group_name_H-M   'P 1'
_cell_length_a   9.21088987
_cell_length_b   9.00997311
_cell_length_c   9.00997252
_cell_angle_alpha   109.01509957
_cell_angle_beta   109.92357954
_cell_angle_gamma   109.92357050
_symmetry_Int_Tables_number   1
_chemical_formula_structural   Mg16Al12Co
_chemical_formula_sum   'Mg16 Al12 Co1'
_cell_volume   572.36312731
_cell_formula_units_Z   1
loop_
 _symmetry_equiv_pos_site_id
 _symmetry_equiv_pos_as_xyz
  1  'x, y, z'
loop_
 _atom_site_type_symbol
 _atom_site_label
 _atom_site_symmetry_multiplicity
 _atom_site_fract_x
 _atom_site_fract_y
 _atom_site_fract_z
 _atom_site_occupancy
  Mg  Mg0  1  0.00289900  0.35173600  0.99999900  1
  Mg  Mg1  1  0.31936900  0.59267800  0.00000000  1
  Mg  Mg2  1  0.99060300  0.00000100  0.00000100  1
  Mg  Mg3  1  0.57317600  0.26721700  0.00000000  1
  Mg  Mg4  1  0.57317500  0.00000000  0.26721700  1
  Mg  Mg5  1  0.68300400  0.67603100  0.27887400  1
  Mg  Mg6  1  0.00697400  0.60284300  0.32396900  1
  Mg  Mg7  1  0.00289900  0.00000000  0.35173600  1
  Mg  Mg8  1  0.40413100  0.72112600  0.39715800  1
  Mg  Mg9  1  0.72669200  0.40732300  0.40732300  1
  Mg  Mg10  1  0.31937000  0.00000000  0.59267800  1
  Mg  Mg11  1  0.00697400  0.32396800  0.60284400  1
  Mg  Mg12  1  0.65116100  0.64826200  0.64826200  1
  Mg  Mg13  1  0.68300400  0.27887400  0.67603200  1
  Mg  Mg14  1  0.40413100  0.39715700  0.72112600  1
  Mg  Mg15  1  0.30595800  0.73278400  0.73278400  1
  Al  Al0  1  0.81202100  0.61461200  0.99999900  1
  Al  Al1  1  0.64926600  0.81028400  0.99999900  1
  Al  Al2  1  0.18610100  0.82051400  0.17738500  1
  Al  Al3  1  0.36558600  0.35687000  0.17948400  1
  Al  Al4  1  0.83898200  0.18971500  0.18971600  1
  Al  Al5  1  0.36558600  0.17948400  0.35687000  1
  Al  Al6  1  0.19740900  0.38538900  0.38538800  1
  Al  Al7  1  0.81202100  0.00000000  0.61461200  1
  Al  Al8  1  0.00871600  0.82261500  0.64313000  1
  Al  Al9  1  0.64926600  0.99999900  0.81028400  1
  Al  Al10  1  0.18610100  0.17738500  0.82051500  1
  Al  Al11  1  0.00871600  0.64313100  0.82261500  1
  Co  Co0  1  0.26670600  0.00000100  0.00000000  1
loop_
_geom_bond_atom_site_label_1
_geom_bond_atom_site_label_2
_geom_bond_distance
_geom_bond_site_symmetry_2
Mg0 Mg1 2.982779 1_556
Mg0 Mg13 3.033884 1_455
Mg0 Mg6 3.033896 1_556
Mg0 Mg2 3.132345 1_456
Mg0 Mg11 3.518975 1_555
Mg0 Mg8 3.519002 1_556
Mg1 Mg15 3.047857 1_554
Mg1 Mg4 3.047860 1_565
Mg1 Mg5 3.068586 1_555
Mg1 Mg14 3.068592 1_554
Mg1 Mg11 3.087912 1_554
Mg1 Mg8 3.087925 1_555
Mg2 Mg7 3.132342 1_655
Mg3 Mg9 3.047866 1_555
Mg3 Mg5 3.255983 1_555
Mg3 Mg6 3.419728 1_655
Mg4 Mg9 3.047866 1_555
Mg4 Mg8 3.255984 1_545
Mg4 Mg5 3.419728 1_545
Mg5 Mg7 3.033895 1_665
Mg5 Mg9 3.087918 1_555
Mg5 Mg8 3.192768 1_555
Mg5 Mg6 3.192781 1_655
Mg6 Mg9 3.068589 1_455
Mg6 Mg8 3.192769 1_555
Mg6 Mg7 3.518995 1_565
Mg10 Mg7 2.982790 1_555
Mg10 Mg15 3.047856 1_545
Mg10 Mg3 3.047859 1_556
Mg10 Mg13 3.068576 1_555
Mg10 Mg8 3.068582 1_545
Mg10 Mg14 3.087919 1_555
Mg10 Mg6 3.087919 1_545
Mg11 Mg7 3.033887 1_555
Mg11 Mg9 3.068599 1_455
Mg11 Mg14 3.192770 1_555
Mg11 Mg13 3.192782 1_455
Mg11 Mg15 3.255990 1_555
Mg11 Mg4 3.419734 1_455
Mg12 Mg9 2.982773 1_555
Mg12 Mg8 3.033877 1_555
Mg12 Mg14 3.033882 1_555
Mg12 Mg2 3.132372 1_566
Mg12 Mg5 3.518987 1_555
Mg12 Mg13 3.518990 1_555
Mg13 Mg9 3.087926 1_555
Mg13 Mg14 3.192760 1_555
Mg13 Mg4 3.255986 1_555
Mg13 Mg3 3.419714 1_556
Mg14 Mg3 3.255979 1_556
Mg14 Mg15 3.419740 1_555
Mg14 Mg7 3.518996 1_555
Mg15 Mg6 3.255980 1_555
Mg15 Mg8 3.419731 1_555
Al0 Al1 2.675215 1_555
Al0 Al11 2.797586 1_655
Al0 Al2 2.797592 1_656
Al0 Mg13 2.918073 1_555
Al0 Mg6 2.918092 1_656
Al0 Mg14 3.099825 1_555
Al0 Mg5 3.099841 1_556
Al0 Mg3 3.153400 1_556
Al0 Mg12 3.172187 1_555
Al0 Mg7 3.172191 1_666
Al1 Al9 2.783441 1_555
Al1 Al4 2.783449 1_566
Al1 Mg15 2.914517 1_555
Al1 Mg4 2.914527 1_566
Al1 Mg1 3.002851 1_556
Al1 Mg2 3.023896 1_566
Al1 Mg12 3.035652 1_555
Al1 Mg7 3.035656 1_666
Al1 Mg14 3.094785 1_555
Al1 Mg5 3.094795 1_556
Al2 Al5 2.633350 1_565
Al2 Co0 2.719461 1_565
Al2 Mg8 2.902904 1_555
Al2 Mg1 3.031771 1_555
Al2 Mg4 3.038510 1_565
Al2 Mg6 3.046395 1_555
Al2 Mg10 3.113932 1_565
Al2 Mg7 3.153010 1_565
Al2 Mg2 3.181132 1_465
Al3 Al5 2.602553 1_555
Al3 Co0 2.719440 1_555
Al3 Al6 2.797601 1_555
Al3 Mg5 2.902898 1_555
Al3 Mg9 3.031785 1_555
Al3 Mg3 3.038511 1_555
Al3 Mg8 3.046405 1_555
Al3 Mg1 3.113927 1_555
Al3 Mg0 3.153005 1_554
Al3 Mg2 3.181121 1_455
Al4 Al6 2.675216 1_655
Al4 Al9 2.783455 1_544
Al4 Mg4 2.914517 1_555
Al4 Mg3 2.914520 1_555
Al4 Mg9 3.002853 1_555
Al4 Mg2 3.023889 1_555
Al4 Mg7 3.035644 1_655
Al4 Mg0 3.035664 1_654
Al4 Mg11 3.094794 1_655
Al4 Mg6 3.094795 1_655
Al5 Co0 2.719447 1_555
Al5 Al6 2.797608 1_555
Al5 Mg13 2.902902 1_555
Al5 Mg9 3.031785 1_555
Al5 Mg4 3.038503 1_555
Al5 Mg14 3.046403 1_555
Al5 Mg10 3.113926 1_555
Al5 Mg7 3.153004 1_555
Al5 Mg2 3.181120 1_455
Al6 Mg8 2.918073 1_555
Al6 Mg14 2.918089 1_555
Al6 Mg6 3.099818 1_555
Al6 Mg11 3.099837 1_555
Al6 Mg15 3.153404 1_555
Al6 Mg0 3.172190 1_554
Al6 Mg7 3.172195 1_555
Al7 Al9 2.675215 1_545
Al7 Al8 2.797593 1_645
Al7 Mg11 2.918072 1_655
Al7 Mg5 2.918082 1_545
Al7 Mg8 3.099827 1_545
Al7 Mg13 3.099833 1_555
Al7 Mg4 3.153398 1_555
Al7 Mg0 3.172181 1_655
Al7 Mg12 3.172195 1_545
Al8 Co0 2.719448 1_566
Al8 Mg6 2.902906 1_555
Al8 Mg10 3.031784 1_565
Al8 Mg15 3.038504 1_555
Al8 Mg5 3.046405 1_455
Al8 Mg9 3.113926 1_455
Al8 Mg12 3.153015 1_455
Al8 Mg2 3.181130 1_466
Al9 Mg15 2.914517 1_555
Al9 Mg3 2.914520 1_566
Al9 Mg10 3.002843 1_565
Al9 Mg2 3.023896 1_566
Al9 Mg12 3.035653 1_555
Al9 Mg0 3.035658 1_665
Al9 Mg8 3.094778 1_555
Al9 Mg13 3.094789 1_565
Al10 Al8 2.602539 1_545
Al10 Al3 2.633342 1_556
Al10 Co0 2.719441 1_556
Al10 Al7 2.797593 1_455
Al10 Mg14 2.902906 1_555
Al10 Mg10 3.031784 1_555
Al10 Mg3 3.038518 1_556
Al10 Mg11 3.046388 1_555
Al10 Mg1 3.113934 1_556
Al10 Mg0 3.153000 1_555
Al10 Mg2 3.181125 1_456
Al11 Al2 2.602539 1_556
Al11 Al8 2.633342 1_555
Al11 Co0 2.719449 1_566
Al11 Mg11 2.902917 1_555
Al11 Mg1 3.031782 1_556
Al11 Mg15 3.038503 1_555
Al11 Mg13 3.046413 1_455
Al11 Mg9 3.113926 1_455
Al11 Mg12 3.153010 1_455
Al11 Mg2 3.181123 1_466
Co0 Mg2 2.543157 1_455
Co0 Mg15 3.022110 1_544
Co0 Mg3 3.022118 1_555
Co0 Mg4 3.022121 1_555
