# generated using pymatgen
data_AlV4N3
_symmetry_space_group_name_H-M   'P 1'
_cell_length_a   5.59734392
_cell_length_b   5.59734392
_cell_length_c   47.52800600
_cell_angle_alpha   90.00000000
_cell_angle_beta   90.00000000
_cell_angle_gamma   119.99999900
_symmetry_Int_Tables_number   1
_chemical_formula_structural   AlV4N3
_chemical_formula_sum   'Al16 V64 N48'
_cell_volume   1289.56789993
_cell_formula_units_Z   16
loop_
 _symmetry_equiv_pos_site_id
 _symmetry_equiv_pos_as_xyz
  1  'x, y, z'
loop_
 _atom_site_type_symbol
 _atom_site_label
 _atom_site_symmetry_multiplicity
 _atom_site_fract_x
 _atom_site_fract_y
 _atom_site_fract_z
 _atom_site_occupancy
  Al  Al0_0  1  0.16666650  0.33333350  0.12500000  1
  Al  Al0_1  1  0.16666650  0.33333350  0.62500000  1
  Al  Al0_2  1  0.16666650  0.83333350  0.12500000  1
  Al  Al0_3  1  0.16666650  0.83333350  0.62500000  1
  Al  Al0_4  1  0.66666650  0.33333350  0.12500000  1
  Al  Al0_5  1  0.66666650  0.33333350  0.62500000  1
  Al  Al0_6  1  0.66666650  0.83333350  0.12500000  1
  Al  Al0_7  1  0.66666650  0.83333350  0.62500000  1
  Al  Al1_0  1  0.33333350  0.16666650  0.37500000  1
  Al  Al1_1  1  0.33333350  0.16666650  0.87500000  1
  Al  Al1_2  1  0.33333350  0.66666650  0.37500000  1
  Al  Al1_3  1  0.33333350  0.66666650  0.87500000  1
  Al  Al1_4  1  0.83333350  0.16666650  0.37500000  1
  Al  Al1_5  1  0.83333350  0.16666650  0.87500000  1
  Al  Al1_6  1  0.83333350  0.66666650  0.37500000  1
  Al  Al1_7  1  0.83333350  0.66666650  0.87500000  1
  V  V0_0  1  0.16666650  0.33333350  0.22269100  1
  V  V0_1  1  0.16666650  0.33333350  0.72269100  1
  V  V0_2  1  0.16666650  0.83333350  0.22269100  1
  V  V0_3  1  0.16666650  0.83333350  0.72269100  1
  V  V0_4  1  0.66666650  0.33333350  0.22269100  1
  V  V0_5  1  0.66666650  0.33333350  0.72269100  1
  V  V0_6  1  0.66666650  0.83333350  0.22269100  1
  V  V0_7  1  0.66666650  0.83333350  0.72269100  1
  V  V1_0  1  0.33333350  0.16666650  0.27730900  1
  V  V1_1  1  0.33333350  0.16666650  0.77730900  1
  V  V1_2  1  0.33333350  0.66666650  0.27730900  1
  V  V1_3  1  0.33333350  0.66666650  0.77730900  1
  V  V1_4  1  0.83333350  0.16666650  0.27730900  1
  V  V1_5  1  0.83333350  0.16666650  0.77730900  1
  V  V1_6  1  0.83333350  0.66666650  0.27730900  1
  V  V1_7  1  0.83333350  0.66666650  0.77730900  1
  V  V2_0  1  0.33333350  0.16666650  0.47269100  1
  V  V2_1  1  0.33333350  0.16666650  0.97269100  1
  V  V2_2  1  0.33333350  0.66666650  0.47269100  1
  V  V2_3  1  0.33333350  0.66666650  0.97269100  1
  V  V2_4  1  0.83333350  0.16666650  0.47269100  1
  V  V2_5  1  0.83333350  0.16666650  0.97269100  1
  V  V2_6  1  0.83333350  0.66666650  0.47269100  1
  V  V2_7  1  0.83333350  0.66666650  0.97269100  1
  V  V3_0  1  0.16666650  0.33333350  0.02730900  1
  V  V3_1  1  0.16666650  0.33333350  0.52730900  1
  V  V3_2  1  0.16666650  0.83333350  0.02730900  1
  V  V3_3  1  0.16666650  0.83333350  0.52730900  1
  V  V3_4  1  0.66666650  0.33333350  0.02730900  1
  V  V3_5  1  0.66666650  0.33333350  0.52730900  1
  V  V3_6  1  0.66666650  0.83333350  0.02730900  1
  V  V3_7  1  0.66666650  0.83333350  0.52730900  1
  V  V4_0  1  0.16666650  0.33333350  0.42007200  1
  V  V4_1  1  0.16666650  0.33333350  0.92007200  1
  V  V4_2  1  0.16666650  0.83333350  0.42007200  1
  V  V4_3  1  0.16666650  0.83333350  0.92007200  1
  V  V4_4  1  0.66666650  0.33333350  0.42007200  1
  V  V4_5  1  0.66666650  0.33333350  0.92007200  1
  V  V4_6  1  0.66666650  0.83333350  0.42007200  1
  V  V4_7  1  0.66666650  0.83333350  0.92007200  1
  V  V5_0  1  0.33333350  0.16666650  0.07992800  1
  V  V5_1  1  0.33333350  0.16666650  0.57992800  1
  V  V5_2  1  0.33333350  0.66666650  0.07992800  1
  V  V5_3  1  0.33333350  0.66666650  0.57992800  1
  V  V5_4  1  0.83333350  0.16666650  0.07992800  1
  V  V5_5  1  0.83333350  0.16666650  0.57992800  1
  V  V5_6  1  0.83333350  0.66666650  0.07992800  1
  V  V5_7  1  0.83333350  0.66666650  0.57992800  1
  V  V6_0  1  0.33333350  0.16666650  0.17007200  1
  V  V6_1  1  0.33333350  0.16666650  0.67007200  1
  V  V6_2  1  0.33333350  0.66666650  0.17007200  1
  V  V6_3  1  0.33333350  0.66666650  0.67007200  1
  V  V6_4  1  0.83333350  0.16666650  0.17007200  1
  V  V6_5  1  0.83333350  0.16666650  0.67007200  1
  V  V6_6  1  0.83333350  0.66666650  0.17007200  1
  V  V6_7  1  0.83333350  0.66666650  0.67007200  1
  V  V7_0  1  0.16666650  0.33333350  0.32992800  1
  V  V7_1  1  0.16666650  0.33333350  0.82992800  1
  V  V7_2  1  0.16666650  0.83333350  0.32992800  1
  V  V7_3  1  0.16666650  0.83333350  0.82992800  1
  V  V7_4  1  0.66666650  0.33333350  0.32992800  1
  V  V7_5  1  0.66666650  0.33333350  0.82992800  1
  V  V7_6  1  0.66666650  0.83333350  0.32992800  1
  V  V7_7  1  0.66666650  0.83333350  0.82992800  1
  N  N0_0  1  0.00000000  0.00000000  0.25000000  1
  N  N0_1  1  0.00000000  0.00000000  0.75000000  1
  N  N0_2  1  0.00000000  0.50000000  0.25000000  1
  N  N0_3  1  0.00000000  0.50000000  0.75000000  1
  N  N0_4  1  0.50000000  0.00000000  0.25000000  1
  N  N0_5  1  0.50000000  0.00000000  0.75000000  1
  N  N0_6  1  0.50000000  0.50000000  0.25000000  1
  N  N0_7  1  0.50000000  0.50000000  0.75000000  1
  N  N1_0  1  0.00000000  0.00000000  0.00000000  1
  N  N1_1  1  0.00000000  0.00000000  0.50000000  1
  N  N1_2  1  0.00000000  0.50000000  0.00000000  1
  N  N1_3  1  0.00000000  0.50000000  0.50000000  1
  N  N1_4  1  0.50000000  0.00000000  0.00000000  1
  N  N1_5  1  0.50000000  0.00000000  0.50000000  1
  N  N1_6  1  0.50000000  0.50000000  0.00000000  1
  N  N1_7  1  0.50000000  0.50000000  0.50000000  1
  N  N2_0  1  0.00000000  0.00000000  0.19576250  1
  N  N2_1  1  0.00000000  0.00000000  0.69576250  1
  N  N2_2  1  0.00000000  0.50000000  0.19576250  1
  N  N2_3  1  0.00000000  0.50000000  0.69576250  1
  N  N2_4  1  0.50000000  0.00000000  0.19576250  1
  N  N2_5  1  0.50000000  0.00000000  0.69576250  1
  N  N2_6  1  0.50000000  0.50000000  0.19576250  1
  N  N2_7  1  0.50000000  0.50000000  0.69576250  1
  N  N3_0  1  0.00000000  0.00000000  0.30423750  1
  N  N3_1  1  0.00000000  0.00000000  0.80423750  1
  N  N3_2  1  0.00000000  0.50000000  0.30423750  1
  N  N3_3  1  0.00000000  0.50000000  0.80423750  1
  N  N3_4  1  0.50000000  0.00000000  0.30423750  1
  N  N3_5  1  0.50000000  0.00000000  0.80423750  1
  N  N3_6  1  0.50000000  0.50000000  0.30423750  1
  N  N3_7  1  0.50000000  0.50000000  0.80423750  1
  N  N4_0  1  0.00000000  0.00000000  0.44576250  1
  N  N4_1  1  0.00000000  0.00000000  0.94576250  1
  N  N4_2  1  0.00000000  0.50000000  0.44576250  1
  N  N4_3  1  0.00000000  0.50000000  0.94576250  1
  N  N4_4  1  0.50000000  0.00000000  0.44576250  1
  N  N4_5  1  0.50000000  0.00000000  0.94576250  1
  N  N4_6  1  0.50000000  0.50000000  0.44576250  1
  N  N4_7  1  0.50000000  0.50000000  0.94576250  1
  N  N5_0  1  0.00000000  0.00000000  0.05423750  1
  N  N5_1  1  0.00000000  0.00000000  0.55423750  1
  N  N5_2  1  0.00000000  0.50000000  0.05423750  1
  N  N5_3  1  0.00000000  0.50000000  0.55423750  1
  N  N5_4  1  0.50000000  0.00000000  0.05423750  1
  N  N5_5  1  0.50000000  0.00000000  0.55423750  1
  N  N5_6  1  0.50000000  0.50000000  0.05423750  1
  N  N5_7  1  0.50000000  0.50000000  0.55423750  1
loop_
_geom_bond_atom_site_label_1
_geom_bond_atom_site_label_2
_geom_bond_distance
_geom_bond_site_symmetry_2
Al0_0 V5_2 2.683243 1_555
Al0_0 V5_4 2.683243 1_455
Al0_0 V6_2 2.683243 1_555
Al0_0 V6_4 2.683243 1_455
Al0_0 V5_0 2.683246 1_555
Al0_0 V6_0 2.683246 1_555
Al0_0 Al0_4 2.798672 1_555
Al0_0 Al0_2 2.798672 1_545
Al0_0 Al0_4 2.798672 1_455
Al0_0 Al0_2 2.798672 1_555
Al0_0 Al0_6 2.798672 1_445
Al0_0 Al0_6 2.798672 1_555
Al0_1 V5_5 2.683243 1_455
Al0_1 V6_5 2.683243 1_455
Al0_1 V5_3 2.683243 1_555
Al0_1 V6_3 2.683243 1_555
Al0_1 V6_1 2.683246 1_555
Al0_1 V5_1 2.683246 1_555
Al0_1 Al0_3 2.798672 1_545
Al0_1 Al0_5 2.798672 1_555
Al0_1 Al0_3 2.798672 1_555
Al0_1 Al0_5 2.798672 1_455
Al0_1 Al0_7 2.798672 1_445
Al0_1 Al0_7 2.798672 1_555
Al0_2 V5_6 2.683243 1_455
Al0_2 V5_0 2.683243 1_565
Al0_2 V6_6 2.683243 1_455
Al0_2 V6_0 2.683243 1_565
Al0_2 V5_2 2.683246 1_555
Al0_2 V6_2 2.683246 1_555
Al0_2 Al0_6 2.798672 1_555
Al0_2 Al0_6 2.798672 1_455
Al0_2 Al0_4 2.798672 1_565
Al0_2 Al0_4 2.798672 1_455
Al0_3 V6_7 2.683243 1_455
Al0_3 V5_1 2.683243 1_565
Al0_3 V5_7 2.683243 1_455
Al0_3 V6_1 2.683243 1_565
Al0_3 V5_3 2.683246 1_555
Al0_3 V6_3 2.683246 1_555
Al0_3 Al0_7 2.798672 1_555
Al0_3 Al0_7 2.798672 1_455
Al0_3 Al0_5 2.798672 1_565
Al0_3 Al0_5 2.798672 1_455
Al0_4 V5_0 2.683243 1_555
Al0_4 V5_6 2.683243 1_555
Al0_4 V6_0 2.683243 1_555
Al0_4 V6_6 2.683243 1_555
Al0_4 V5_4 2.683246 1_555
Al0_4 V6_4 2.683246 1_555
Al0_4 Al0_6 2.798672 1_545
Al0_4 Al0_6 2.798672 1_555
Al0_5 V5_1 2.683243 1_555
Al0_5 V6_7 2.683243 1_555
Al0_5 V6_1 2.683243 1_555
Al0_5 V5_7 2.683243 1_555
Al0_5 V5_5 2.683246 1_555
Al0_5 V6_5 2.683246 1_555
Al0_5 Al0_7 2.798672 1_545
Al0_5 Al0_7 2.798672 1_555
Al0_6 V5_4 2.683243 1_565
Al0_6 V5_2 2.683243 1_555
Al0_6 V6_2 2.683243 1_555
Al0_6 V6_4 2.683243 1_565
Al0_6 V5_6 2.683246 1_555
Al0_6 V6_6 2.683246 1_555
Al0_7 V6_5 2.683243 1_565
Al0_7 V5_5 2.683243 1_565
Al0_7 V5_3 2.683243 1_555
Al0_7 V6_3 2.683243 1_555
Al0_7 V6_7 2.683246 1_555
Al0_7 V5_7 2.683246 1_555
Al1_0 V7_4 2.683243 1_555
Al1_0 V4_2 2.683243 1_545
Al1_0 V4_4 2.683243 1_555
Al1_0 V7_2 2.683243 1_545
Al1_0 V4_0 2.683246 1_555
Al1_0 V7_0 2.683246 1_555
Al1_0 Al1_2 2.798672 1_555
Al1_0 Al1_4 2.798672 1_455
Al1_0 Al1_4 2.798672 1_555
Al1_0 Al1_2 2.798672 1_545
Al1_0 Al1_6 2.798672 1_445
Al1_0 Al1_6 2.798672 1_555
Al1_1 V4_3 2.683243 1_545
Al1_1 V4_5 2.683243 1_555
Al1_1 V7_3 2.683243 1_545
Al1_1 V7_5 2.683243 1_555
Al1_1 V4_1 2.683246 1_555
Al1_1 V7_1 2.683246 1_555
Al1_1 Al1_5 2.798672 1_455
Al1_1 Al1_3 2.798672 1_555
Al1_1 Al1_5 2.798672 1_555
Al1_1 Al1_3 2.798672 1_545
Al1_1 Al1_7 2.798672 1_445
Al1_1 Al1_7 2.798672 1_555
Al1_2 V4_6 2.683243 1_555
Al1_2 V4_0 2.683243 1_555
Al1_2 V7_6 2.683243 1_555
Al1_2 V7_0 2.683243 1_555
Al1_2 V7_2 2.683246 1_555
Al1_2 V4_2 2.683246 1_555
Al1_2 Al1_6 2.798672 1_455
Al1_2 Al1_6 2.798672 1_555
Al1_2 Al1_4 2.798672 1_455
Al1_2 Al1_4 2.798672 1_565
Al1_3 V4_1 2.683243 1_555
Al1_3 V4_7 2.683243 1_555
Al1_3 V7_1 2.683243 1_555
Al1_3 V7_7 2.683243 1_555
Al1_3 V4_3 2.683246 1_555
Al1_3 V7_3 2.683246 1_555
Al1_3 Al1_7 2.798672 1_455
Al1_3 Al1_7 2.798672 1_555
Al1_3 Al1_5 2.798672 1_455
Al1_3 Al1_5 2.798672 1_565
Al1_4 V7_0 2.683243 1_655
Al1_4 V7_6 2.683243 1_545
Al1_4 V4_0 2.683243 1_655
Al1_4 V4_6 2.683243 1_545
Al1_4 V7_4 2.683246 1_555
Al1_4 V4_4 2.683246 1_555
Al1_4 Al1_6 2.798672 1_555
Al1_4 Al1_6 2.798672 1_545
Al1_5 V4_7 2.683243 1_545
Al1_5 V4_1 2.683243 1_655
Al1_5 V7_7 2.683243 1_545
Al1_5 V7_1 2.683243 1_655
Al1_5 V4_5 2.683246 1_555
Al1_5 V7_5 2.683246 1_555
Al1_5 Al1_7 2.798672 1_555
Al1_5 Al1_7 2.798672 1_545
Al1_6 V7_4 2.683243 1_555
Al1_6 V4_2 2.683243 1_655
Al1_6 V7_2 2.683243 1_655
Al1_6 V4_4 2.683243 1_555
Al1_6 V4_6 2.683246 1_555
Al1_6 V7_6 2.683246 1_555
Al1_7 V4_3 2.683243 1_655
Al1_7 V4_5 2.683243 1_555
Al1_7 V7_5 2.683243 1_555
Al1_7 V7_3 2.683243 1_655
Al1_7 V4_7 2.683246 1_555
Al1_7 V7_7 2.683246 1_555
N0_0 V0_2 2.072560 1_545
N0_0 V1_4 2.072560 1_455
N0_0 V0_0 2.072562 1_555
N0_0 V0_6 2.072562 1_445
N0_0 V1_0 2.072562 1_555
N0_0 V1_6 2.072562 1_445
N0_1 V0_3 2.072560 1_545
N0_1 V1_5 2.072560 1_455
N0_1 V0_1 2.072562 1_555
N0_1 V0_7 2.072562 1_445
N0_1 V1_1 2.072562 1_555
N0_1 V1_7 2.072562 1_445
N0_2 V0_0 2.072560 1_555
N0_2 V1_6 2.072560 1_455
N0_2 V0_4 2.072562 1_455
N0_2 V0_2 2.072562 1_555
N0_2 V1_2 2.072562 1_555
N0_2 V1_4 2.072562 1_455
N0_3 V0_1 2.072560 1_555
N0_3 V1_7 2.072560 1_455
N0_3 V0_3 2.072562 1_555
N0_3 V0_5 2.072562 1_455
N0_3 V1_5 2.072562 1_455
N0_3 V1_3 2.072562 1_555
N0_4 V0_6 2.072560 1_545
N0_4 V1_0 2.072560 1_555
N0_4 V0_4 2.072562 1_555
N0_4 V0_2 2.072562 1_545
N0_4 V1_2 2.072562 1_545
N0_4 V1_4 2.072562 1_555
N0_5 V0_7 2.072560 1_545
N0_5 V1_1 2.072560 1_555
N0_5 V0_5 2.072562 1_555
N0_5 V0_3 2.072562 1_545
N0_5 V1_3 2.072562 1_545
N0_5 V1_5 2.072562 1_555
N0_6 V0_4 2.072560 1_555
N0_6 V1_2 2.072560 1_555
N0_6 V0_0 2.072562 1_555
N0_6 V0_6 2.072562 1_555
N0_6 V1_0 2.072562 1_555
N0_6 V1_6 2.072562 1_555
N0_7 V0_5 2.072560 1_555
N0_7 V1_3 2.072560 1_555
N0_7 V0_1 2.072562 1_555
N0_7 V0_7 2.072562 1_555
N0_7 V1_1 2.072562 1_555
N0_7 V1_7 2.072562 1_555
N1_0 V3_2 2.072560 1_545
N1_0 V2_5 2.072560 1_454
N1_0 V3_0 2.072562 1_555
N1_0 V3_6 2.072562 1_445
N1_0 V2_1 2.072562 1_554
N1_0 V2_7 2.072562 1_444
N1_1 V2_4 2.072560 1_455
N1_1 V3_3 2.072560 1_545
N1_1 V3_1 2.072562 1_555
N1_1 V2_0 2.072562 1_555
N1_1 V2_6 2.072562 1_445
N1_1 V3_7 2.072562 1_445
N1_2 V3_0 2.072560 1_555
N1_2 V2_7 2.072560 1_454
N1_2 V3_2 2.072562 1_555
N1_2 V3_4 2.072562 1_455
N1_2 V2_3 2.072562 1_554
N1_2 V2_5 2.072562 1_454
N1_3 V2_6 2.072560 1_455
N1_3 V3_1 2.072560 1_555
N1_3 V2_4 2.072562 1_455
N1_3 V2_2 2.072562 1_555
N1_3 V3_3 2.072562 1_555
N1_3 V3_5 2.072562 1_455
N1_4 V3_6 2.072560 1_545
N1_4 V2_1 2.072560 1_554
N1_4 V3_2 2.072562 1_545
N1_4 V3_4 2.072562 1_555
N1_4 V2_5 2.072562 1_554
N1_4 V2_3 2.072562 1_544
N1_5 V3_7 2.072560 1_545
N1_5 V2_0 2.072560 1_555
N1_5 V3_5 2.072562 1_555
N1_5 V3_3 2.072562 1_545
N1_5 V2_4 2.072562 1_555
N1_5 V2_2 2.072562 1_545
N1_6 V3_4 2.072560 1_555
N1_6 V2_3 2.072560 1_554
N1_6 V3_0 2.072562 1_555
N1_6 V3_6 2.072562 1_555
N1_6 V2_1 2.072562 1_554
N1_6 V2_7 2.072562 1_554
N1_7 V3_5 2.072560 1_555
N1_7 V2_2 2.072560 1_555
N1_7 V3_1 2.072562 1_555
N1_7 V2_0 2.072562 1_555
N1_7 V3_7 2.072562 1_555
N1_7 V2_6 2.072562 1_555
N2_0 V6_4 2.025274 1_455
N2_0 V6_0 2.025276 1_555
N2_0 V6_6 2.025276 1_445
N2_0 V0_2 2.061283 1_545
N2_0 V0_6 2.061285 1_445
N2_0 V0_0 2.061285 1_555
N2_1 V6_5 2.025274 1_455
N2_1 V6_1 2.025276 1_555
N2_1 V6_7 2.025276 1_445
N2_1 V0_3 2.061283 1_545
N2_1 V0_7 2.061285 1_445
N2_1 V0_1 2.061285 1_555
N2_2 V6_6 2.025274 1_455
N2_2 V6_4 2.025276 1_455
N2_2 V6_2 2.025276 1_555
N2_2 V0_0 2.061283 1_555
N2_2 V0_4 2.061285 1_455
N2_2 V0_2 2.061285 1_555
N2_3 V6_7 2.025274 1_455
N2_3 V6_5 2.025276 1_455
N2_3 V6_3 2.025276 1_555
N2_3 V0_1 2.061283 1_555
N2_3 V0_5 2.061285 1_455
N2_3 V0_3 2.061285 1_555
N2_4 V6_0 2.025274 1_555
N2_4 V6_4 2.025276 1_555
N2_4 V6_2 2.025276 1_545
N2_4 V0_6 2.061283 1_545
N2_4 V0_2 2.061285 1_545
N2_4 V0_4 2.061285 1_555
N2_5 V6_1 2.025274 1_555
N2_5 V6_5 2.025276 1_555
N2_5 V6_3 2.025276 1_545
N2_5 V0_7 2.061283 1_545
N2_5 V0_3 2.061285 1_545
N2_5 V0_5 2.061285 1_555
N2_6 V6_2 2.025274 1_555
N2_6 V6_0 2.025276 1_555
N2_6 V6_6 2.025276 1_555
N2_6 V0_4 2.061283 1_555
N2_6 V0_6 2.061285 1_555
N2_6 V0_0 2.061285 1_555
N2_7 V6_3 2.025274 1_555
N2_7 V6_7 2.025276 1_555
N2_7 V6_1 2.025276 1_555
N2_7 V0_5 2.061283 1_555
N2_7 V0_7 2.061285 1_555
N2_7 V0_1 2.061285 1_555
N3_0 V7_2 2.025274 1_545
N3_0 V7_0 2.025276 1_555
N3_0 V7_6 2.025276 1_445
N3_0 V1_4 2.061283 1_455
N3_0 V1_0 2.061285 1_555
N3_0 V1_6 2.061285 1_445
N3_1 V7_3 2.025274 1_545
N3_1 V7_1 2.025276 1_555
N3_1 V7_7 2.025276 1_445
N3_1 V1_5 2.061283 1_455
N3_1 V1_7 2.061285 1_445
N3_1 V1_1 2.061285 1_555
N3_2 V7_0 2.025274 1_555
N3_2 V7_2 2.025276 1_555
N3_2 V7_4 2.025276 1_455
N3_2 V1_6 2.061283 1_455
N3_2 V1_4 2.061285 1_455
N3_2 V1_2 2.061285 1_555
N3_3 V7_1 2.025274 1_555
N3_3 V7_3 2.025276 1_555
N3_3 V7_5 2.025276 1_455
N3_3 V1_7 2.061283 1_455
N3_3 V1_3 2.061285 1_555
N3_3 V1_5 2.061285 1_455
N3_4 V7_6 2.025274 1_545
N3_4 V7_2 2.025276 1_545
N3_4 V7_4 2.025276 1_555
N3_4 V1_0 2.061283 1_555
N3_4 V1_4 2.061285 1_555
N3_4 V1_2 2.061285 1_545
N3_5 V7_7 2.025274 1_545
N3_5 V7_3 2.025276 1_545
N3_5 V7_5 2.025276 1_555
N3_5 V1_1 2.061283 1_555
N3_5 V1_3 2.061285 1_545
N3_5 V1_5 2.061285 1_555
N3_6 V7_4 2.025274 1_555
N3_6 V7_0 2.025276 1_555
N3_6 V7_6 2.025276 1_555
N3_6 V1_2 2.061283 1_555
N3_6 V1_0 2.061285 1_555
N3_6 V1_6 2.061285 1_555
N3_7 V7_5 2.025274 1_555
N3_7 V7_1 2.025276 1_555
N3_7 V7_7 2.025276 1_555
N3_7 V1_3 2.061283 1_555
N3_7 V1_7 2.061285 1_555
N3_7 V1_1 2.061285 1_555
N4_0 V4_2 2.025274 1_545
N4_0 V4_0 2.025276 1_555
N4_0 V4_6 2.025276 1_445
N4_0 V2_4 2.061283 1_455
N4_0 V2_0 2.061285 1_555
N4_0 V2_6 2.061285 1_445
N4_1 V4_3 2.025274 1_545
N4_1 V4_1 2.025276 1_555
N4_1 V4_7 2.025276 1_445
N4_1 V2_5 2.061283 1_455
N4_1 V2_7 2.061285 1_445
N4_1 V2_1 2.061285 1_555
N4_2 V4_0 2.025274 1_555
N4_2 V4_2 2.025276 1_555
N4_2 V4_4 2.025276 1_455
N4_2 V2_6 2.061283 1_455
N4_2 V2_4 2.061285 1_455
N4_2 V2_2 2.061285 1_555
N4_3 V4_1 2.025274 1_555
N4_3 V4_5 2.025276 1_455
N4_3 V4_3 2.025276 1_555
N4_3 V2_7 2.061283 1_455
N4_3 V2_5 2.061285 1_455
N4_3 V2_3 2.061285 1_555
N4_4 V4_6 2.025274 1_545
N4_4 V4_2 2.025276 1_545
N4_4 V4_4 2.025276 1_555
N4_4 V2_0 2.061283 1_555
N4_4 V2_2 2.061285 1_545
N4_4 V2_4 2.061285 1_555
N4_5 V4_7 2.025274 1_545
N4_5 V4_5 2.025276 1_555
N4_5 V4_3 2.025276 1_545
N4_5 V2_1 2.061283 1_555
N4_5 V2_5 2.061285 1_555
N4_5 V2_3 2.061285 1_545
N4_6 V4_4 2.025274 1_555
N4_6 V4_6 2.025276 1_555
N4_6 V4_0 2.025276 1_555
N4_6 V2_2 2.061283 1_555
N4_6 V2_6 2.061285 1_555
N4_6 V2_0 2.061285 1_555
N4_7 V4_5 2.025274 1_555
N4_7 V4_1 2.025276 1_555
N4_7 V4_7 2.025276 1_555
N4_7 V2_3 2.061283 1_555
N4_7 V2_7 2.061285 1_555
N4_7 V2_1 2.061285 1_555
N5_0 V5_4 2.025274 1_455
N5_0 V5_0 2.025276 1_555
N5_0 V5_6 2.025276 1_445
N5_0 V3_2 2.061283 1_545
N5_0 V3_0 2.061285 1_555
N5_0 V3_6 2.061285 1_445
N5_1 V5_5 2.025274 1_455
N5_1 V5_1 2.025276 1_555
N5_1 V5_7 2.025276 1_445
N5_1 V3_3 2.061283 1_545
N5_1 V3_7 2.061285 1_445
N5_1 V3_1 2.061285 1_555
N5_2 V5_6 2.025274 1_455
N5_2 V5_4 2.025276 1_455
N5_2 V5_2 2.025276 1_555
N5_2 V3_0 2.061283 1_555
N5_2 V3_4 2.061285 1_455
N5_2 V3_2 2.061285 1_555
N5_3 V5_7 2.025274 1_455
N5_3 V5_5 2.025276 1_455
N5_3 V5_3 2.025276 1_555
N5_3 V3_1 2.061283 1_555
N5_3 V3_3 2.061285 1_555
N5_3 V3_5 2.061285 1_455
N5_4 V5_0 2.025274 1_555
N5_4 V5_4 2.025276 1_555
N5_4 V5_2 2.025276 1_545
N5_4 V3_6 2.061283 1_545
N5_4 V3_2 2.061285 1_545
N5_4 V3_4 2.061285 1_555
N5_5 V5_1 2.025274 1_555
N5_5 V5_5 2.025276 1_555
N5_5 V5_3 2.025276 1_545
N5_5 V3_7 2.061283 1_545
N5_5 V3_5 2.061285 1_555
N5_5 V3_3 2.061285 1_545
N5_6 V5_2 2.025274 1_555
N5_6 V5_0 2.025276 1_555
N5_6 V5_6 2.025276 1_555
N5_6 V3_4 2.061283 1_555
N5_6 V3_0 2.061285 1_555
N5_6 V3_6 2.061285 1_555
N5_7 V5_3 2.025274 1_555
N5_7 V5_1 2.025276 1_555
N5_7 V5_7 2.025276 1_555
N5_7 V3_5 2.061283 1_555
N5_7 V3_7 2.061285 1_555
N5_7 V3_1 2.061285 1_555
