# generated using pymatgen
data_PrFeSi
_symmetry_space_group_name_H-M   'P 1'
_cell_length_a   4.05753941
_cell_length_b   4.05753941
_cell_length_c   7.08387682
_cell_angle_alpha   90.00000000
_cell_angle_beta   90.00000000
_cell_angle_gamma   90.00000000
_symmetry_Int_Tables_number   1
_chemical_formula_structural   PrFeSi
_chemical_formula_sum   'Pr2 Fe2 Si2'
_cell_volume   116.62629905
_cell_formula_units_Z   2
loop_
 _symmetry_equiv_pos_site_id
 _symmetry_equiv_pos_as_xyz
  1  'x, y, z'
loop_
 _atom_site_type_symbol
 _atom_site_label
 _atom_site_symmetry_multiplicity
 _atom_site_fract_x
 _atom_site_fract_y
 _atom_site_fract_z
 _atom_site_occupancy
  Pr  Pr0  1  0.75000000  0.75000000  0.30949687  1
  Pr  Pr1  1  0.25000000  0.25000000  0.69050313  1
  Fe  Fe0  1  0.75000000  0.25000000  0.00000000  1
  Fe  Fe1  1  0.25000000  0.75000000  0.00000000  1
  Si  Si0  1  0.75000000  0.75000000  0.84568380  1
  Si  Si1  1  0.25000000  0.25000000  0.15431620  1
loop_
_geom_bond_atom_site_label_1
_geom_bond_atom_site_label_2
_geom_bond_distance
_geom_bond_site_symmetry_2
Pr0 Si1 3.072496 1_665
Pr0 Si1 3.072496 1_555
Pr0 Si1 3.072496 1_655
Pr0 Si1 3.072496 1_565
Pr1 Si0 3.072496 1_545
Pr1 Si0 3.072496 1_555
Pr1 Si0 3.072496 1_445
Pr1 Si0 3.072496 1_455
Fe0 Si0 2.304539 1_554
Fe0 Si0 2.304539 1_544
Fe0 Si1 2.304539 1_655
Fe0 Si1 2.304539 1_555
Fe0 Pr0 2.987087 1_545
Fe0 Pr0 2.987087 1_555
Fe0 Pr1 2.987087 1_654
Fe0 Pr1 2.987087 1_554
Fe1 Si0 2.304539 1_554
Fe1 Si0 2.304539 1_454
Fe1 Si1 2.304539 1_565
Fe1 Si1 2.304539 1_555
Fe1 Pr0 2.987087 1_455
Fe1 Pr0 2.987087 1_555
Fe1 Pr1 2.987087 1_554
Fe1 Pr1 2.987087 1_564
