# generated using pymatgen
data_Sc2B4Ru5
_symmetry_space_group_name_H-M   'P 1'
_cell_length_a   5.98084332
_cell_length_b   17.00118464
_cell_length_c   20.04584837
_cell_angle_alpha   89.99532736
_cell_angle_beta   90.00000031
_cell_angle_gamma   90.00000302
_symmetry_Int_Tables_number   1
_chemical_formula_structural   Sc2B4Ru5
_chemical_formula_sum   'Sc32 B64 Ru80'
_cell_volume   2038.29035185
_cell_formula_units_Z   16
loop_
 _symmetry_equiv_pos_site_id
 _symmetry_equiv_pos_as_xyz
  1  'x, y, z'
loop_
 _atom_site_type_symbol
 _atom_site_label
 _atom_site_symmetry_multiplicity
 _atom_site_fract_x
 _atom_site_fract_y
 _atom_site_fract_z
 _atom_site_occupancy
  Sc  Sc0_0  1  0.25000038  0.42137819  0.09044686  1
  Sc  Sc0_1  1  0.25000038  0.42137819  0.59044686  1
  Sc  Sc0_2  1  0.25000038  0.92137819  0.09044686  1
  Sc  Sc0_3  1  0.25000038  0.92137819  0.59044686  1
  Sc  Sc0_4  1  0.75000038  0.42137819  0.09044686  1
  Sc  Sc0_5  1  0.75000038  0.42137819  0.59044686  1
  Sc  Sc0_6  1  0.75000038  0.92137819  0.09044686  1
  Sc  Sc0_7  1  0.75000038  0.92137819  0.59044686  1
  Sc  Sc1_0  1  0.25000005  0.07862082  0.40954911  1
  Sc  Sc1_1  1  0.25000005  0.07862083  0.90954911  1
  Sc  Sc1_2  1  0.25000005  0.57862083  0.40954911  1
  Sc  Sc1_3  1  0.25000005  0.57862082  0.90954911  1
  Sc  Sc1_4  1  0.75000004  0.07862083  0.40954911  1
  Sc  Sc1_5  1  0.75000005  0.07862083  0.90954911  1
  Sc  Sc1_6  1  0.75000005  0.57862083  0.40954911  1
  Sc  Sc1_7  1  0.75000005  0.57862082  0.90954911  1
  Sc  Sc2_0  1  0.24999992  0.32862437  0.34044122  1
  Sc  Sc2_1  1  0.24999992  0.32862437  0.84044122  1
  Sc  Sc2_2  1  0.24999992  0.82862437  0.34044122  1
  Sc  Sc2_3  1  0.24999992  0.82862437  0.84044122  1
  Sc  Sc2_4  1  0.74999992  0.32862437  0.34044122  1
  Sc  Sc2_5  1  0.74999992  0.32862437  0.84044121  1
  Sc  Sc2_6  1  0.74999992  0.82862437  0.34044122  1
  Sc  Sc2_7  1  0.74999992  0.82862437  0.84044122  1
  Sc  Sc3_0  1  0.25000033  0.17137552  0.15956351  1
  Sc  Sc3_1  1  0.25000033  0.17137552  0.65956351  1
  Sc  Sc3_2  1  0.25000033  0.67137552  0.15956351  1
  Sc  Sc3_3  1  0.25000033  0.67137552  0.65956351  1
  Sc  Sc3_4  1  0.75000033  0.17137552  0.15956351  1
  Sc  Sc3_5  1  0.75000033  0.17137552  0.65956351  1
  Sc  Sc3_6  1  0.75000033  0.67137552  0.15956351  1
  Sc  Sc3_7  1  0.75000033  0.67137552  0.65956351  1
  B  B0_0  1  0.24999994  0.48224298  0.29427443  1
  B  B0_1  1  0.24999994  0.48224298  0.79427443  1
  B  B0_2  1  0.24999994  0.98224298  0.29427443  1
  B  B0_3  1  0.24999994  0.98224298  0.79427443  1
  B  B0_4  1  0.74999994  0.48224298  0.29427443  1
  B  B0_5  1  0.74999994  0.48224298  0.79427443  1
  B  B0_6  1  0.74999994  0.98224298  0.29427443  1
  B  B0_7  1  0.74999994  0.98224298  0.79427443  1
  B  B1_0  1  0.24999996  0.01775733  0.20572712  1
  B  B1_1  1  0.24999995  0.01775733  0.70572712  1
  B  B1_2  1  0.24999996  0.51775733  0.20572711  1
  B  B1_3  1  0.24999995  0.51775733  0.70572712  1
  B  B1_4  1  0.74999996  0.01775733  0.20572712  1
  B  B1_5  1  0.74999996  0.01775733  0.70572711  1
  B  B1_6  1  0.74999996  0.51775733  0.20572711  1
  B  B1_7  1  0.74999996  0.51775733  0.70572712  1
  B  B2_0  1  0.24999995  0.42621666  0.44919659  1
  B  B2_1  1  0.24999995  0.42621666  0.94919659  1
  B  B2_2  1  0.24999995  0.92621666  0.44919659  1
  B  B2_3  1  0.24999995  0.92621666  0.94919659  1
  B  B2_4  1  0.74999995  0.42621666  0.44919659  1
  B  B2_5  1  0.74999995  0.42621666  0.94919659  1
  B  B2_6  1  0.74999995  0.92621666  0.44919659  1
  B  B2_7  1  0.74999995  0.92621666  0.94919659  1
  B  B3_0  1  0.24999997  0.07378484  0.05080180  1
  B  B3_1  1  0.24999996  0.07378485  0.55080180  1
  B  B3_2  1  0.24999997  0.57378485  0.05080180  1
  B  B3_3  1  0.24999996  0.57378484  0.55080180  1
  B  B3_4  1  0.74999997  0.07378485  0.05080180  1
  B  B3_5  1  0.74999997  0.07378484  0.55080180  1
  B  B3_6  1  0.74999997  0.57378485  0.05080180  1
  B  B3_7  1  0.74999997  0.57378485  0.55080180  1
  B  B4_0  1  0.24999993  0.32376825  0.19918799  1
  B  B4_1  1  0.24999993  0.32376826  0.69918799  1
  B  B4_2  1  0.24999993  0.82376825  0.19918799  1
  B  B4_3  1  0.24999993  0.82376825  0.69918799  1
  B  B4_4  1  0.74999993  0.32376825  0.19918799  1
  B  B4_5  1  0.74999993  0.32376825  0.69918799  1
  B  B4_6  1  0.74999993  0.82376825  0.19918799  1
  B  B4_7  1  0.74999993  0.82376825  0.69918799  1
  B  B5_0  1  0.24999993  0.17623058  0.30081582  1
  B  B5_1  1  0.24999993  0.17623058  0.80081582  1
  B  B5_2  1  0.24999993  0.67623058  0.30081582  1
  B  B5_3  1  0.24999993  0.67623058  0.80081582  1
  B  B5_4  1  0.74999993  0.17623058  0.30081582  1
  B  B5_5  1  0.74999993  0.17623058  0.80081582  1
  B  B5_6  1  0.74999993  0.67623058  0.30081582  1
  B  B5_7  1  0.74999993  0.67623058  0.80081582  1
  B  B6_0  1  0.25000003  0.23230681  0.45569177  1
  B  B6_1  1  0.25000003  0.23230681  0.95569177  1
  B  B6_2  1  0.25000003  0.73230681  0.45569177  1
  B  B6_3  1  0.25000003  0.73230681  0.95569177  1
  B  B6_4  1  0.75000002  0.23230681  0.45569177  1
  B  B6_5  1  0.75000003  0.23230681  0.95569177  1
  B  B6_6  1  0.75000003  0.73230681  0.45569177  1
  B  B6_7  1  0.75000003  0.73230681  0.95569177  1
  B  B7_0  1  0.24999998  0.26769155  0.04430703  1
  B  B7_1  1  0.24999998  0.26769155  0.54430703  1
  B  B7_2  1  0.24999998  0.76769154  0.04430703  1
  B  B7_3  1  0.24999998  0.76769154  0.54430703  1
  B  B7_4  1  0.74999998  0.26769155  0.04430703  1
  B  B7_5  1  0.74999998  0.26769155  0.54430703  1
  B  B7_6  1  0.74999998  0.76769154  0.04430703  1
  B  B7_7  1  0.74999998  0.76769155  0.54430703  1
  Ru  Ru0_0  1  0.00000029  0.33028927  0.47601536  1
  Ru  Ru0_1  1  0.00000029  0.33028927  0.97601536  1
  Ru  Ru0_2  1  0.00000029  0.83028927  0.47601536  1
  Ru  Ru0_3  1  0.00000029  0.83028927  0.97601536  1
  Ru  Ru0_4  1  0.50000029  0.33028927  0.47601536  1
  Ru  Ru0_5  1  0.50000029  0.33028927  0.97601536  1
  Ru  Ru0_6  1  0.50000029  0.83028927  0.47601536  1
  Ru  Ru0_7  1  0.50000029  0.83028927  0.97601536  1
  Ru  Ru1_0  1  0.99999993  0.16971662  0.02398533  1
  Ru  Ru1_1  1  0.99999993  0.16971661  0.52398533  1
  Ru  Ru1_2  1  0.99999993  0.66971661  0.02398533  1
  Ru  Ru1_3  1  0.99999993  0.66971662  0.52398533  1
  Ru  Ru1_4  1  0.49999993  0.16971662  0.02398533  1
  Ru  Ru1_5  1  0.49999993  0.16971662  0.52398533  1
  Ru  Ru1_6  1  0.49999993  0.66971661  0.02398533  1
  Ru  Ru1_7  1  0.49999993  0.66971662  0.52398533  1
  Ru  Ru2_0  1  0.99999984  0.41964332  0.22596167  1
  Ru  Ru2_1  1  0.99999984  0.41964331  0.72596167  1
  Ru  Ru2_2  1  0.99999984  0.91964332  0.22596167  1
  Ru  Ru2_3  1  0.99999984  0.91964331  0.72596167  1
  Ru  Ru2_4  1  0.49999984  0.41964331  0.22596167  1
  Ru  Ru2_5  1  0.49999984  0.41964331  0.72596167  1
  Ru  Ru2_6  1  0.49999984  0.91964332  0.22596167  1
  Ru  Ru2_7  1  0.49999984  0.91964331  0.72596167  1
  Ru  Ru3_0  1  0.99999995  0.08035393  0.27403563  1
  Ru  Ru3_1  1  0.99999995  0.08035394  0.77403563  1
  Ru  Ru3_2  1  0.99999995  0.58035393  0.27403563  1
  Ru  Ru3_3  1  0.99999995  0.58035393  0.77403563  1
  Ru  Ru3_4  1  0.49999995  0.08035393  0.27403563  1
  Ru  Ru3_5  1  0.49999995  0.08035393  0.77403563  1
  Ru  Ru3_6  1  0.49999995  0.58035393  0.27403563  1
  Ru  Ru3_7  1  0.49999995  0.58035393  0.77403563  1
  Ru  Ru4_0  1  0.00000002  0.99999915  0.99999885  1
  Ru  Ru4_1  1  0.00000002  0.99999915  0.49999884  1
  Ru  Ru4_2  1  0.00000002  0.49999915  0.99999885  1
  Ru  Ru4_3  1  0.00000002  0.49999915  0.49999885  1
  Ru  Ru4_4  1  0.50000002  0.99999915  0.99999885  1
  Ru  Ru4_5  1  0.50000002  0.99999915  0.49999884  1
  Ru  Ru4_6  1  0.50000002  0.49999915  0.99999885  1
  Ru  Ru4_7  1  0.50000002  0.49999915  0.49999884  1
  Ru  Ru5_0  1  0.99999993  0.20212310  0.38116776  1
  Ru  Ru5_1  1  0.99999993  0.20212309  0.88116776  1
  Ru  Ru5_2  1  0.99999993  0.70212309  0.38116776  1
  Ru  Ru5_3  1  0.99999993  0.70212309  0.88116776  1
  Ru  Ru5_4  1  0.49999994  0.20212309  0.38116776  1
  Ru  Ru5_5  1  0.49999994  0.20212310  0.88116776  1
  Ru  Ru5_6  1  0.49999994  0.70212309  0.38116776  1
  Ru  Ru5_7  1  0.49999994  0.70212309  0.88116776  1
  Ru  Ru6_0  1  0.99999997  0.29788253  0.11883044  1
  Ru  Ru6_1  1  0.99999997  0.29788253  0.61883044  1
  Ru  Ru6_2  1  0.99999997  0.79788253  0.11883044  1
  Ru  Ru6_3  1  0.99999997  0.79788253  0.61883044  1
  Ru  Ru6_4  1  0.49999997  0.29788253  0.11883044  1
  Ru  Ru6_5  1  0.49999997  0.29788253  0.61883044  1
  Ru  Ru6_6  1  0.49999997  0.79788254  0.11883044  1
  Ru  Ru6_7  1  0.49999997  0.79788253  0.61883044  1
  Ru  Ru7_0  1  0.00000000  0.25000128  0.25000146  1
  Ru  Ru7_1  1  0.00000000  0.25000128  0.75000146  1
  Ru  Ru7_2  1  0.00000000  0.75000128  0.25000146  1
  Ru  Ru7_3  1  0.00000000  0.75000128  0.75000146  1
  Ru  Ru7_4  1  0.50000000  0.25000128  0.25000146  1
  Ru  Ru7_5  1  0.50000000  0.25000128  0.75000146  1
  Ru  Ru7_6  1  0.50000000  0.75000128  0.25000146  1
  Ru  Ru7_7  1  0.50000000  0.75000128  0.75000146  1
  Ru  Ru8_0  1  0.99999989  0.45209946  0.36886258  1
  Ru  Ru8_1  1  0.99999989  0.45209946  0.86886257  1
  Ru  Ru8_2  1  0.99999989  0.95209946  0.36886257  1
  Ru  Ru8_3  1  0.99999989  0.95209946  0.86886257  1
  Ru  Ru8_4  1  0.49999990  0.45209946  0.36886258  1
  Ru  Ru8_5  1  0.49999990  0.45209946  0.86886257  1
  Ru  Ru8_6  1  0.49999990  0.95209946  0.36886258  1
  Ru  Ru8_7  1  0.49999990  0.95209946  0.86886257  1
  Ru  Ru9_0  1  0.99999983  0.04789341  0.13113769  1
  Ru  Ru9_1  1  0.99999983  0.04789342  0.63113769  1
  Ru  Ru9_2  1  0.99999983  0.54789341  0.13113769  1
  Ru  Ru9_3  1  0.99999983  0.54789341  0.63113769  1
  Ru  Ru9_4  1  0.49999983  0.04789342  0.13113769  1
  Ru  Ru9_5  1  0.49999983  0.04789342  0.63113769  1
  Ru  Ru9_6  1  0.49999983  0.54789341  0.13113769  1
  Ru  Ru9_7  1  0.49999983  0.54789341  0.63113769  1
loop_
_geom_bond_atom_site_label_1
_geom_bond_atom_site_label_2
_geom_bond_distance
_geom_bond_site_symmetry_2
Sc0_0 Sc0_4 2.990422 1_555
Sc0_0 Sc0_4 2.990422 1_455
Sc0_1 Sc0_5 2.990422 1_555
Sc0_1 Sc0_5 2.990422 1_455
Sc0_2 Sc0_6 2.990422 1_455
Sc0_2 Sc0_6 2.990422 1_555
Sc0_3 Sc0_7 2.990422 1_555
Sc0_3 Sc0_7 2.990422 1_455
Sc1_0 Sc1_4 2.990422 1_455
Sc1_0 Sc1_4 2.990422 1_555
Sc1_1 Sc1_5 2.990422 1_455
Sc1_1 Sc1_5 2.990422 1_555
Sc1_2 Sc1_6 2.990422 1_455
Sc1_2 Sc1_6 2.990422 1_555
Sc1_3 Sc1_7 2.990422 1_455
Sc1_3 Sc1_7 2.990422 1_555
Sc2_0 Sc2_4 2.990422 1_555
Sc2_0 Sc2_4 2.990422 1_455
Sc2_1 Sc2_5 2.990422 1_455
Sc2_1 Sc2_5 2.990422 1_555
Sc2_2 Sc2_6 2.990422 1_455
Sc2_2 Sc2_6 2.990422 1_555
Sc2_3 Sc2_7 2.990422 1_555
Sc2_3 Sc2_7 2.990422 1_455
Sc3_0 Sc3_4 2.990422 1_455
Sc3_0 Sc3_4 2.990422 1_555
Sc3_1 Sc3_5 2.990422 1_455
Sc3_1 Sc3_5 2.990422 1_555
Sc3_2 Sc3_6 2.990422 1_455
Sc3_2 Sc3_6 2.990422 1_555
Sc3_3 Sc3_7 2.990422 1_455
Sc3_3 Sc3_7 2.990422 1_555
B0_0 B1_2 1.874841 1_555
B0_0 Ru8_4 2.175714 1_555
B0_0 Ru8_0 2.175714 1_455
B0_0 Ru3_6 2.276483 1_555
B0_0 Ru3_2 2.276483 1_455
B0_0 Ru2_4 2.289930 1_555
B0_0 Ru2_0 2.289931 1_455
B0_0 Sc2_0 2.770746 1_555
B0_0 Sc1_2 2.832865 1_555
B0_1 B1_3 1.874841 1_555
B0_1 Ru8_5 2.175714 1_555
B0_1 Ru8_1 2.175714 1_455
B0_1 Ru3_7 2.276483 1_555
B0_1 Ru3_3 2.276483 1_455
B0_1 Ru2_5 2.289930 1_555
B0_1 Ru2_1 2.289931 1_455
B0_1 Sc2_1 2.770746 1_555
B0_1 Sc1_3 2.832865 1_555
B0_2 B1_0 1.874841 1_565
B0_2 Ru8_6 2.175714 1_555
B0_2 Ru8_2 2.175714 1_455
B0_2 Ru3_4 2.276483 1_565
B0_2 Ru3_0 2.276483 1_465
B0_2 Ru2_6 2.289930 1_555
B0_2 Ru2_2 2.289931 1_455
B0_2 Sc2_2 2.770746 1_555
B0_2 Sc1_0 2.832865 1_565
B0_3 B1_1 1.874841 1_565
B0_3 Ru8_7 2.175714 1_555
B0_3 Ru8_3 2.175714 1_455
B0_3 Ru3_5 2.276483 1_565
B0_3 Ru3_1 2.276483 1_465
B0_3 Ru2_7 2.289930 1_555
B0_3 Ru2_3 2.289931 1_455
B0_3 Sc2_3 2.770746 1_555
B0_3 Sc1_1 2.832865 1_565
B0_4 B1_6 1.874841 1_555
B0_4 Ru8_0 2.175714 1_555
B0_4 Ru8_4 2.175714 1_555
B0_4 Ru3_2 2.276483 1_555
B0_4 Ru3_6 2.276483 1_555
B0_4 Ru2_0 2.289930 1_555
B0_4 Ru2_4 2.289931 1_555
B0_4 Sc2_4 2.770746 1_555
B0_4 Sc1_6 2.832865 1_555
B0_5 B1_7 1.874841 1_555
B0_5 Ru8_1 2.175714 1_555
B0_5 Ru8_5 2.175714 1_555
B0_5 Ru3_3 2.276483 1_555
B0_5 Ru3_7 2.276483 1_555
B0_5 Ru2_1 2.289930 1_555
B0_5 Ru2_5 2.289931 1_555
B0_5 Sc2_5 2.770746 1_555
B0_5 Sc1_7 2.832865 1_555
B0_6 B1_4 1.874841 1_565
B0_6 Ru8_2 2.175714 1_555
B0_6 Ru8_6 2.175714 1_555
B0_6 Ru3_0 2.276483 1_565
B0_6 Ru3_4 2.276483 1_565
B0_6 Ru2_2 2.289930 1_555
B0_6 Ru2_6 2.289931 1_555
B0_6 Sc2_6 2.770746 1_555
B0_6 Sc1_4 2.832865 1_565
B0_7 B1_5 1.874841 1_565
B0_7 Ru8_3 2.175714 1_555
B0_7 Ru8_7 2.175714 1_555
B0_7 Ru3_1 2.276483 1_565
B0_7 Ru3_5 2.276483 1_565
B0_7 Ru2_3 2.289930 1_555
B0_7 Ru2_7 2.289931 1_555
B0_7 Sc2_7 2.770746 1_555
B0_7 Sc1_5 2.832865 1_565
B1_0 Ru9_4 2.175702 1_555
B1_0 Ru9_0 2.175703 1_455
B1_0 Ru2_6 2.276505 1_545
B1_0 Ru2_2 2.276506 1_445
B1_0 Ru3_4 2.289855 1_555
B1_0 Ru3_0 2.289855 1_455
B1_0 Sc3_0 2.770718 1_555
B1_0 Sc0_2 2.832968 1_545
B1_1 Ru9_5 2.175702 1_555
B1_1 Ru9_1 2.175703 1_455
B1_1 Ru2_7 2.276505 1_545
B1_1 Ru2_3 2.276506 1_445
B1_1 Ru3_5 2.289855 1_555
B1_1 Ru3_1 2.289855 1_455
B1_1 Sc3_1 2.770718 1_555
B1_1 Sc0_3 2.832968 1_545
B1_2 Ru9_6 2.175702 1_555
B1_2 Ru9_2 2.175703 1_455
B1_2 Ru2_4 2.276505 1_555
B1_2 Ru2_0 2.276506 1_455
B1_2 Ru3_6 2.289855 1_555
B1_2 Ru3_2 2.289855 1_455
B1_2 Sc3_2 2.770718 1_555
B1_2 Sc0_0 2.832968 1_555
B1_3 Ru9_7 2.175702 1_555
B1_3 Ru9_3 2.175703 1_455
B1_3 Ru2_5 2.276505 1_555
B1_3 Ru2_1 2.276506 1_455
B1_3 Ru3_7 2.289855 1_555
B1_3 Ru3_3 2.289855 1_455
B1_3 Sc3_3 2.770718 1_555
B1_3 Sc0_1 2.832968 1_555
B1_4 Ru9_0 2.175702 1_555
B1_4 Ru9_4 2.175703 1_555
B1_4 Ru2_2 2.276505 1_545
B1_4 Ru2_6 2.276506 1_545
B1_4 Ru3_0 2.289855 1_555
B1_4 Ru3_4 2.289855 1_555
B1_4 Sc3_4 2.770718 1_555
B1_4 Sc0_6 2.832968 1_545
B1_5 Ru9_1 2.175702 1_555
B1_5 Ru9_5 2.175703 1_555
B1_5 Ru2_3 2.276505 1_545
B1_5 Ru2_7 2.276506 1_545
B1_5 Ru3_1 2.289855 1_555
B1_5 Ru3_5 2.289855 1_555
B1_5 Sc3_5 2.770718 1_555
B1_5 Sc0_7 2.832968 1_545
B1_6 Ru9_2 2.175702 1_555
B1_6 Ru9_6 2.175703 1_555
B1_6 Ru2_0 2.276505 1_555
B1_6 Ru2_4 2.276506 1_555
B1_6 Ru3_2 2.289855 1_555
B1_6 Ru3_6 2.289855 1_555
B1_6 Sc3_6 2.770718 1_555
B1_6 Sc0_4 2.832968 1_555
B1_7 Ru9_3 2.175702 1_555
B1_7 Ru9_7 2.175703 1_555
B1_7 Ru2_1 2.276505 1_555
B1_7 Ru2_5 2.276506 1_555
B1_7 Ru3_3 2.289855 1_555
B1_7 Ru3_7 2.289855 1_555
B1_7 Sc3_7 2.770718 1_555
B1_7 Sc0_5 2.832968 1_555
B2_0 Ru4_3 2.201464 1_555
B2_0 Ru4_7 2.201464 1_555
B2_0 Ru8_4 2.241081 1_555
B2_0 Ru8_0 2.241081 1_455
B2_0 Ru0_0 2.276904 1_555
B2_0 Ru0_4 2.276907 1_555
B2_0 Sc1_2 2.710141 1_555
B2_0 Sc2_0 2.739761 1_555
B2_0 Sc0_1 2.832669 1_555
B2_1 Ru4_2 2.201464 1_555
B2_1 Ru4_6 2.201464 1_555
B2_1 Ru8_5 2.241081 1_555
B2_1 Ru8_1 2.241081 1_455
B2_1 Ru0_1 2.276904 1_555
B2_1 Ru0_5 2.276907 1_555
B2_1 Sc1_3 2.710141 1_555
B2_1 Sc2_1 2.739761 1_555
B2_1 Sc0_0 2.832669 1_556
B2_2 Ru4_1 2.201464 1_555
B2_2 Ru4_5 2.201464 1_555
B2_2 Ru8_6 2.241081 1_555
B2_2 Ru8_2 2.241081 1_455
B2_2 Ru0_2 2.276904 1_555
B2_2 Ru0_6 2.276907 1_555
B2_2 Sc1_0 2.710141 1_565
B2_2 Sc2_2 2.739761 1_555
B2_2 Sc0_3 2.832669 1_555
B2_3 Ru4_0 2.201464 1_555
B2_3 Ru4_4 2.201464 1_555
B2_3 Ru8_7 2.241081 1_555
B2_3 Ru8_3 2.241081 1_455
B2_3 Ru0_3 2.276904 1_555
B2_3 Ru0_7 2.276907 1_555
B2_3 Sc1_1 2.710141 1_565
B2_3 Sc2_3 2.739761 1_555
B2_3 Sc0_2 2.832669 1_556
B2_4 Ru4_7 2.201464 1_555
B2_4 Ru4_3 2.201464 1_655
B2_4 Ru8_0 2.241081 1_555
B2_4 Ru8_4 2.241081 1_555
B2_4 Ru0_4 2.276904 1_555
B2_4 Ru0_0 2.276907 1_655
B2_4 Sc1_6 2.710141 1_555
B2_4 Sc2_4 2.739761 1_555
B2_4 Sc0_5 2.832669 1_555
B2_5 Ru4_6 2.201464 1_555
B2_5 Ru4_2 2.201464 1_655
B2_5 Ru8_1 2.241081 1_555
B2_5 Ru8_5 2.241081 1_555
B2_5 Ru0_5 2.276904 1_555
B2_5 Ru0_1 2.276907 1_655
B2_5 Sc1_7 2.710141 1_555
B2_5 Sc2_5 2.739761 1_555
B2_5 Sc0_4 2.832669 1_556
B2_6 Ru4_5 2.201464 1_555
B2_6 Ru4_1 2.201464 1_655
B2_6 Ru8_2 2.241081 1_555
B2_6 Ru8_6 2.241081 1_555
B2_6 Ru0_6 2.276904 1_555
B2_6 Ru0_2 2.276907 1_655
B2_6 Sc1_4 2.710141 1_565
B2_6 Sc2_6 2.739761 1_555
B2_6 Sc0_7 2.832669 1_555
B2_7 Ru4_4 2.201464 1_555
B2_7 Ru4_0 2.201464 1_655
B2_7 Ru8_3 2.241081 1_555
B2_7 Ru8_7 2.241081 1_555
B2_7 Ru0_7 2.276904 1_555
B2_7 Ru0_3 2.276907 1_655
B2_7 Sc1_5 2.710141 1_565
B2_7 Sc2_7 2.739761 1_555
B2_7 Sc0_6 2.832669 1_556
B3_0 Ru4_0 2.201501 1_544
B3_0 Ru4_4 2.201502 1_544
B3_0 Ru9_4 2.241136 1_555
B3_0 Ru9_0 2.241137 1_455
B3_0 Ru1_4 2.276948 1_555
B3_0 Ru1_0 2.276948 1_455
B3_0 Sc0_2 2.710168 1_545
B3_0 Sc3_0 2.739846 1_555
B3_0 Sc1_1 2.832717 1_554
B3_1 Ru4_1 2.201501 1_545
B3_1 Ru4_5 2.201502 1_545
B3_1 Ru9_5 2.241136 1_555
B3_1 Ru9_1 2.241137 1_455
B3_1 Ru1_5 2.276948 1_555
B3_1 Ru1_1 2.276948 1_455
B3_1 Sc0_3 2.710168 1_545
B3_1 Sc3_1 2.739846 1_555
B3_1 Sc1_0 2.832717 1_555
B3_2 Ru4_2 2.201501 1_554
B3_2 Ru4_6 2.201502 1_554
B3_2 Ru9_6 2.241136 1_555
B3_2 Ru9_2 2.241137 1_455
B3_2 Ru1_6 2.276948 1_555
B3_2 Ru1_2 2.276948 1_455
B3_2 Sc0_0 2.710168 1_555
B3_2 Sc3_2 2.739846 1_555
B3_2 Sc1_3 2.832717 1_554
B3_3 Ru4_3 2.201501 1_555
B3_3 Ru4_7 2.201502 1_555
B3_3 Ru9_7 2.241136 1_555
B3_3 Ru9_3 2.241137 1_455
B3_3 Ru1_7 2.276948 1_555
B3_3 Ru1_3 2.276948 1_455
B3_3 Sc0_1 2.710168 1_555
B3_3 Sc3_3 2.739846 1_555
B3_3 Sc1_2 2.832717 1_555
B3_4 Ru4_4 2.201501 1_544
B3_4 Ru4_0 2.201502 1_644
B3_4 Ru9_0 2.241136 1_555
B3_4 Ru9_4 2.241137 1_555
B3_4 Ru1_0 2.276948 1_555
B3_4 Ru1_4 2.276948 1_555
B3_4 Sc0_6 2.710168 1_545
B3_4 Sc3_4 2.739846 1_555
B3_4 Sc1_5 2.832717 1_554
B3_5 Ru4_5 2.201501 1_545
B3_5 Ru4_1 2.201502 1_645
B3_5 Ru9_1 2.241136 1_555
B3_5 Ru9_5 2.241137 1_555
B3_5 Ru1_1 2.276948 1_555
B3_5 Ru1_5 2.276948 1_555
B3_5 Sc0_7 2.710168 1_545
B3_5 Sc3_5 2.739846 1_555
B3_5 Sc1_4 2.832717 1_555
B3_6 Ru4_6 2.201501 1_554
B3_6 Ru4_2 2.201502 1_654
B3_6 Ru9_2 2.241136 1_555
B3_6 Ru9_6 2.241137 1_555
B3_6 Ru1_2 2.276948 1_555
B3_6 Ru1_6 2.276948 1_555
B3_6 Sc0_4 2.710168 1_555
B3_6 Sc3_6 2.739846 1_555
B3_6 Sc1_7 2.832717 1_554
B3_7 Ru4_7 2.201501 1_555
B3_7 Ru4_3 2.201502 1_655
B3_7 Ru9_3 2.241136 1_555
B3_7 Ru9_7 2.241137 1_555
B3_7 Ru1_3 2.276948 1_555
B3_7 Ru1_7 2.276948 1_555
B3_7 Sc0_5 2.710168 1_555
B3_7 Sc3_7 2.739846 1_555
B3_7 Sc1_6 2.832717 1_555
B4_0 Ru7_0 2.201323 1_555
B4_0 Ru7_4 2.201323 1_555
B4_0 Ru6_0 2.241481 1_455
B4_0 Ru6_4 2.241481 1_555
B4_0 Ru2_4 2.276117 1_555
B4_0 Ru2_0 2.276118 1_455
B4_0 Sc3_0 2.709944 1_555
B4_0 Sc0_0 2.739500 1_555
B4_0 Sc2_0 2.832751 1_555
B4_1 Ru7_1 2.201323 1_555
B4_1 Ru7_5 2.201323 1_555
B4_1 Ru6_1 2.241481 1_455
B4_1 Ru6_5 2.241481 1_555
B4_1 Ru2_5 2.276117 1_555
B4_1 Ru2_1 2.276118 1_455
B4_1 Sc3_1 2.709944 1_555
B4_1 Sc0_1 2.739500 1_555
B4_1 Sc2_1 2.832751 1_555
B4_2 Ru7_2 2.201323 1_555
B4_2 Ru7_6 2.201323 1_555
B4_2 Ru6_2 2.241481 1_455
B4_2 Ru6_6 2.241481 1_555
B4_2 Ru2_6 2.276117 1_555
B4_2 Ru2_2 2.276118 1_455
B4_2 Sc3_2 2.709944 1_555
B4_2 Sc0_2 2.739500 1_555
B4_2 Sc2_2 2.832751 1_555
B4_3 Ru7_3 2.201323 1_555
B4_3 Ru7_7 2.201323 1_555
B4_3 Ru6_3 2.241481 1_455
B4_3 Ru6_7 2.241481 1_555
B4_3 Ru2_7 2.276117 1_555
B4_3 Ru2_3 2.276118 1_455
B4_3 Sc3_3 2.709944 1_555
B4_3 Sc0_3 2.739500 1_555
B4_3 Sc2_3 2.832751 1_555
B4_4 Ru7_4 2.201323 1_555
B4_4 Ru7_0 2.201323 1_655
B4_4 Ru6_4 2.241481 1_555
B4_4 Ru6_0 2.241481 1_555
B4_4 Ru2_0 2.276117 1_555
B4_4 Ru2_4 2.276118 1_555
B4_4 Sc3_4 2.709944 1_555
B4_4 Sc0_4 2.739500 1_555
B4_4 Sc2_4 2.832751 1_555
B4_5 Ru7_5 2.201323 1_555
B4_5 Ru7_1 2.201323 1_655
B4_5 Ru6_5 2.241481 1_555
B4_5 Ru6_1 2.241481 1_555
B4_5 Ru2_1 2.276117 1_555
B4_5 Ru2_5 2.276118 1_555
B4_5 Sc3_5 2.709944 1_555
B4_5 Sc0_5 2.739500 1_555
B4_5 Sc2_5 2.832751 1_555
B4_6 Ru7_6 2.201323 1_555
B4_6 Ru7_2 2.201323 1_655
B4_6 Ru6_6 2.241481 1_555
B4_6 Ru6_2 2.241481 1_555
B4_6 Ru2_2 2.276117 1_555
B4_6 Ru2_6 2.276118 1_555
B4_6 Sc3_6 2.709944 1_555
B4_6 Sc0_6 2.739500 1_555
B4_6 Sc2_6 2.832751 1_555
B4_7 Ru7_7 2.201323 1_555
B4_7 Ru7_3 2.201323 1_655
B4_7 Ru6_7 2.241481 1_555
B4_7 Ru6_3 2.241481 1_555
B4_7 Ru2_3 2.276117 1_555
B4_7 Ru2_7 2.276118 1_555
B4_7 Sc3_7 2.709944 1_555
B4_7 Sc0_7 2.739500 1_555
B4_7 Sc2_7 2.832751 1_555
B5_0 Ru7_0 2.201367 1_555
B5_0 Ru7_4 2.201368 1_555
B5_0 Ru5_4 2.241423 1_555
B5_0 Ru5_0 2.241423 1_455
B5_0 Ru3_0 2.276168 1_455
B5_0 Ru3_4 2.276168 1_555
B5_0 Sc2_0 2.709967 1_555
B5_0 Sc1_0 2.739374 1_555
B5_0 Sc3_0 2.832732 1_555
B5_1 Ru7_1 2.201367 1_555
B5_1 Ru7_5 2.201368 1_555
B5_1 Ru5_5 2.241423 1_555
B5_1 Ru5_1 2.241423 1_455
B5_1 Ru3_1 2.276168 1_455
B5_1 Ru3_5 2.276168 1_555
B5_1 Sc2_1 2.709967 1_555
B5_1 Sc1_1 2.739374 1_555
B5_1 Sc3_1 2.832732 1_555
B5_2 Ru7_2 2.201367 1_555
B5_2 Ru7_6 2.201368 1_555
B5_2 Ru5_6 2.241423 1_555
B5_2 Ru5_2 2.241423 1_455
B5_2 Ru3_2 2.276168 1_455
B5_2 Ru3_6 2.276168 1_555
B5_2 Sc2_2 2.709967 1_555
B5_2 Sc1_2 2.739374 1_555
B5_2 Sc3_2 2.832732 1_555
B5_3 Ru7_3 2.201367 1_555
B5_3 Ru7_7 2.201368 1_555
B5_3 Ru5_7 2.241423 1_555
B5_3 Ru5_3 2.241423 1_455
B5_3 Ru3_3 2.276168 1_455
B5_3 Ru3_7 2.276168 1_555
B5_3 Sc2_3 2.709967 1_555
B5_3 Sc1_3 2.739374 1_555
B5_3 Sc3_3 2.832732 1_555
B5_4 Ru7_4 2.201367 1_555
B5_4 Ru7_0 2.201368 1_655
B5_4 Ru5_0 2.241423 1_555
B5_4 Ru5_4 2.241423 1_555
B5_4 Ru3_4 2.276168 1_555
B5_4 Ru3_0 2.276168 1_555
B5_4 Sc2_4 2.709967 1_555
B5_4 Sc1_4 2.739374 1_555
B5_4 Sc3_4 2.832732 1_555
B5_5 Ru7_5 2.201367 1_555
B5_5 Ru7_1 2.201368 1_655
B5_5 Ru5_1 2.241423 1_555
B5_5 Ru5_5 2.241423 1_555
B5_5 Ru3_5 2.276168 1_555
B5_5 Ru3_1 2.276168 1_555
B5_5 Sc2_5 2.709967 1_555
B5_5 Sc1_5 2.739374 1_555
B5_5 Sc3_5 2.832732 1_555
B5_6 Ru7_6 2.201367 1_555
B5_6 Ru7_2 2.201368 1_655
B5_6 Ru5_2 2.241423 1_555
B5_6 Ru5_6 2.241423 1_555
B5_6 Ru3_6 2.276168 1_555
B5_6 Ru3_2 2.276168 1_555
B5_6 Sc2_6 2.709967 1_555
B5_6 Sc1_6 2.739374 1_555
B5_6 Sc3_6 2.832732 1_555
B5_7 Ru7_7 2.201367 1_555
B5_7 Ru7_3 2.201368 1_655
B5_7 Ru5_3 2.241423 1_555
B5_7 Ru5_7 2.241423 1_555
B5_7 Ru3_7 2.276168 1_555
B5_7 Ru3_3 2.276168 1_555
B5_7 Sc2_7 2.709967 1_555
B5_7 Sc1_7 2.739374 1_555
B5_7 Sc3_7 2.832732 1_555
B6_0 B7_1 1.875516 1_555
B6_0 Ru5_4 2.175049 1_555
B6_0 Ru5_0 2.175050 1_455
B6_0 Ru0_0 2.275234 1_555
B6_0 Ru0_4 2.275236 1_555
B6_0 Ru1_5 2.289521 1_555
B6_0 Ru1_1 2.289522 1_455
B6_0 Sc1_0 2.771807 1_555
B6_0 Sc2_0 2.831659 1_555
B6_1 B7_0 1.875516 1_556
B6_1 Ru5_5 2.175049 1_555
B6_1 Ru5_1 2.175050 1_455
B6_1 Ru0_1 2.275234 1_555
B6_1 Ru0_5 2.275236 1_555
B6_1 Ru1_4 2.289521 1_556
B6_1 Ru1_0 2.289522 1_456
B6_1 Sc1_1 2.771807 1_555
B6_1 Sc2_1 2.831659 1_555
B6_2 B7_3 1.875516 1_555
B6_2 Ru5_6 2.175049 1_555
B6_2 Ru5_2 2.175050 1_455
B6_2 Ru0_2 2.275234 1_555
B6_2 Ru0_6 2.275236 1_555
B6_2 Ru1_7 2.289521 1_555
B6_2 Ru1_3 2.289522 1_455
B6_2 Sc1_2 2.771807 1_555
B6_2 Sc2_2 2.831659 1_555
B6_3 B7_2 1.875516 1_556
B6_3 Ru5_7 2.175049 1_555
B6_3 Ru5_3 2.175050 1_455
B6_3 Ru0_3 2.275234 1_555
B6_3 Ru0_7 2.275236 1_555
B6_3 Ru1_6 2.289521 1_556
B6_3 Ru1_2 2.289522 1_456
B6_3 Sc1_3 2.771807 1_555
B6_3 Sc2_3 2.831659 1_555
B6_4 B7_5 1.875516 1_555
B6_4 Ru5_0 2.175049 1_555
B6_4 Ru5_4 2.175050 1_555
B6_4 Ru0_4 2.275234 1_555
B6_4 Ru0_0 2.275236 1_655
B6_4 Ru1_1 2.289521 1_555
B6_4 Ru1_5 2.289522 1_555
B6_4 Sc1_4 2.771807 1_555
B6_4 Sc2_4 2.831659 1_555
B6_5 B7_4 1.875516 1_556
B6_5 Ru5_1 2.175049 1_555
B6_5 Ru5_5 2.175050 1_555
B6_5 Ru0_5 2.275234 1_555
B6_5 Ru0_1 2.275236 1_655
B6_5 Ru1_0 2.289521 1_556
B6_5 Ru1_4 2.289522 1_556
B6_5 Sc1_5 2.771807 1_555
B6_5 Sc2_5 2.831659 1_555
B6_6 B7_7 1.875516 1_555
B6_6 Ru5_2 2.175049 1_555
B6_6 Ru5_6 2.175050 1_555
B6_6 Ru0_6 2.275234 1_555
B6_6 Ru0_2 2.275236 1_655
B6_6 Ru1_3 2.289521 1_555
B6_6 Ru1_7 2.289522 1_555
B6_6 Sc1_6 2.771807 1_555
B6_6 Sc2_6 2.831659 1_555
B6_7 B7_6 1.875516 1_556
B6_7 Ru5_3 2.175049 1_555
B6_7 Ru5_7 2.175050 1_555
B6_7 Ru0_7 2.275234 1_555
B6_7 Ru0_3 2.275236 1_655
B6_7 Ru1_2 2.289521 1_556
B6_7 Ru1_6 2.289522 1_556
B6_7 Sc1_7 2.771807 1_555
B6_7 Sc2_7 2.831659 1_555
B7_0 Ru6_4 2.175070 1_555
B7_0 Ru6_0 2.175071 1_455
B7_0 Ru1_4 2.275134 1_555
B7_0 Ru1_0 2.275134 1_455
B7_0 Ru0_1 2.289557 1_554
B7_0 Ru0_5 2.289560 1_554
B7_0 Sc0_0 2.771799 1_555
B7_0 Sc3_0 2.831741 1_555
B7_1 Ru6_5 2.175070 1_555
B7_1 Ru6_1 2.175071 1_455
B7_1 Ru1_5 2.275134 1_555
B7_1 Ru1_1 2.275134 1_455
B7_1 Ru0_0 2.289557 1_555
B7_1 Ru0_4 2.289560 1_555
B7_1 Sc0_1 2.771799 1_555
B7_1 Sc3_1 2.831741 1_555
B7_2 Ru6_6 2.175070 1_555
B7_2 Ru6_2 2.175071 1_455
B7_2 Ru1_6 2.275134 1_555
B7_2 Ru1_2 2.275134 1_455
B7_2 Ru0_3 2.289557 1_554
B7_2 Ru0_7 2.289560 1_554
B7_2 Sc0_2 2.771799 1_555
B7_2 Sc3_2 2.831741 1_555
B7_3 Ru6_7 2.175070 1_555
B7_3 Ru6_3 2.175071 1_455
B7_3 Ru1_7 2.275134 1_555
B7_3 Ru1_3 2.275134 1_455
B7_3 Ru0_2 2.289557 1_555
B7_3 Ru0_6 2.289560 1_555
B7_3 Sc0_3 2.771799 1_555
B7_3 Sc3_3 2.831741 1_555
B7_4 Ru6_0 2.175070 1_555
B7_4 Ru6_4 2.175071 1_555
B7_4 Ru1_0 2.275134 1_555
B7_4 Ru1_4 2.275134 1_555
B7_4 Ru0_5 2.289557 1_554
B7_4 Ru0_1 2.289560 1_654
B7_4 Sc0_4 2.771799 1_555
B7_4 Sc3_4 2.831741 1_555
B7_5 Ru6_1 2.175070 1_555
B7_5 Ru6_5 2.175071 1_555
B7_5 Ru1_1 2.275134 1_555
B7_5 Ru1_5 2.275134 1_555
B7_5 Ru0_4 2.289557 1_555
B7_5 Ru0_0 2.289560 1_655
B7_5 Sc0_5 2.771799 1_555
B7_5 Sc3_5 2.831741 1_555
B7_6 Ru6_2 2.175070 1_555
B7_6 Ru6_6 2.175071 1_555
B7_6 Ru1_2 2.275134 1_555
B7_6 Ru1_6 2.275134 1_555
B7_6 Ru0_7 2.289557 1_554
B7_6 Ru0_3 2.289560 1_654
B7_6 Sc0_6 2.771799 1_555
B7_6 Sc3_6 2.831741 1_555
B7_7 Ru6_3 2.175070 1_555
B7_7 Ru6_7 2.175071 1_555
B7_7 Ru1_3 2.275134 1_555
B7_7 Ru1_7 2.275134 1_555
B7_7 Ru0_6 2.289557 1_555
B7_7 Ru0_2 2.289560 1_655
B7_7 Sc0_7 2.771799 1_555
B7_7 Sc3_7 2.831741 1_555
Ru0_0 Sc2_0 3.101991 1_555
Ru0_0 Sc2_4 3.101993 1_455
Ru0_0 Sc0_5 3.145843 1_455
Ru0_0 Sc0_1 3.145843 1_555
Ru0_1 Sc2_1 3.101991 1_555
Ru0_1 Sc2_5 3.101993 1_455
Ru0_1 Sc0_4 3.145843 1_456
Ru0_1 Sc0_0 3.145843 1_556
Ru0_2 Sc2_2 3.101991 1_555
Ru0_2 Sc2_6 3.101993 1_455
Ru0_2 Sc0_7 3.145843 1_455
Ru0_2 Sc0_3 3.145843 1_555
Ru0_3 Sc2_3 3.101991 1_555
Ru0_3 Sc2_7 3.101993 1_455
Ru0_3 Sc0_6 3.145843 1_456
Ru0_3 Sc0_2 3.145843 1_556
Ru0_4 Sc2_4 3.101991 1_555
Ru0_4 Sc2_0 3.101993 1_555
Ru0_4 Sc0_1 3.145843 1_555
Ru0_4 Sc0_5 3.145843 1_555
Ru0_5 Sc2_5 3.101991 1_555
Ru0_5 Sc2_1 3.101993 1_555
Ru0_5 Sc0_0 3.145843 1_556
Ru0_5 Sc0_4 3.145843 1_556
Ru0_6 Sc2_6 3.101991 1_555
Ru0_6 Sc2_2 3.101993 1_555
Ru0_6 Sc0_3 3.145843 1_555
Ru0_6 Sc0_7 3.145843 1_555
Ru0_7 Sc2_7 3.101991 1_555
Ru0_7 Sc2_3 3.101993 1_555
Ru0_7 Sc0_2 3.145843 1_556
Ru0_7 Sc0_6 3.145843 1_556
Ru1_0 Sc3_4 3.102061 1_555
Ru1_0 Sc3_0 3.102063 1_655
Ru1_0 Sc1_5 3.145969 1_554
Ru1_0 Sc1_1 3.145970 1_654
Ru1_1 Sc3_5 3.102061 1_555
Ru1_1 Sc3_1 3.102063 1_655
Ru1_1 Sc1_4 3.145969 1_555
Ru1_1 Sc1_0 3.145970 1_655
Ru1_2 Sc3_6 3.102061 1_555
Ru1_2 Sc3_2 3.102063 1_655
Ru1_2 Sc1_7 3.145969 1_554
Ru1_2 Sc1_3 3.145970 1_654
Ru1_3 Sc3_7 3.102061 1_555
Ru1_3 Sc3_3 3.102063 1_655
Ru1_3 Sc1_6 3.145969 1_555
Ru1_3 Sc1_2 3.145970 1_655
Ru1_4 Sc3_0 3.102061 1_555
Ru1_4 Sc3_4 3.102063 1_555
Ru1_4 Sc1_1 3.145969 1_554
Ru1_4 Sc1_5 3.145970 1_554
Ru1_5 Sc3_1 3.102061 1_555
Ru1_5 Sc3_5 3.102063 1_555
Ru1_5 Sc1_0 3.145969 1_555
Ru1_5 Sc1_4 3.145970 1_555
Ru1_6 Sc3_2 3.102061 1_555
Ru1_6 Sc3_6 3.102063 1_555
Ru1_6 Sc1_3 3.145969 1_554
Ru1_6 Sc1_7 3.145970 1_554
Ru1_7 Sc3_3 3.102061 1_555
Ru1_7 Sc3_7 3.102063 1_555
Ru1_7 Sc1_2 3.145969 1_555
Ru1_7 Sc1_6 3.145970 1_555
Ru2_0 Sc0_4 3.100956 1_555
Ru2_0 Sc0_0 3.100959 1_655
Ru2_0 Sc2_4 3.145775 1_555
Ru2_0 Sc2_0 3.145776 1_655
Ru2_1 Sc0_5 3.100956 1_555
Ru2_1 Sc0_1 3.100959 1_655
Ru2_1 Sc2_5 3.145775 1_555
Ru2_1 Sc2_1 3.145776 1_655
Ru2_2 Sc0_6 3.100956 1_555
Ru2_2 Sc0_2 3.100959 1_655
Ru2_2 Sc2_6 3.145775 1_555
Ru2_2 Sc2_2 3.145776 1_655
Ru2_3 Sc0_7 3.100956 1_555
Ru2_3 Sc0_3 3.100959 1_655
Ru2_3 Sc2_7 3.145775 1_555
Ru2_3 Sc2_3 3.145776 1_655
Ru2_4 Sc0_0 3.100956 1_555
Ru2_4 Sc0_4 3.100959 1_555
Ru2_4 Sc2_0 3.145775 1_555
Ru2_4 Sc2_4 3.145776 1_555
Ru2_5 Sc0_1 3.100956 1_555
Ru2_5 Sc0_5 3.100959 1_555
Ru2_5 Sc2_1 3.145775 1_555
Ru2_5 Sc2_5 3.145776 1_555
Ru2_6 Sc0_2 3.100956 1_555
Ru2_6 Sc0_6 3.100959 1_555
Ru2_6 Sc2_2 3.145775 1_555
Ru2_6 Sc2_6 3.145776 1_555
Ru2_7 Sc0_3 3.100956 1_555
Ru2_7 Sc0_7 3.100959 1_555
Ru2_7 Sc2_3 3.145775 1_555
Ru2_7 Sc2_7 3.145776 1_555
Ru3_0 Sc1_4 3.100933 1_555
Ru3_0 Sc1_0 3.100934 1_655
Ru3_0 Sc3_4 3.145688 1_555
Ru3_0 Sc3_0 3.145690 1_655
Ru3_1 Sc1_5 3.100933 1_555
Ru3_1 Sc1_1 3.100934 1_655
Ru3_1 Sc3_5 3.145688 1_555
Ru3_1 Sc3_1 3.145690 1_655
Ru3_2 Sc1_6 3.100933 1_555
Ru3_2 Sc1_2 3.100934 1_655
Ru3_2 Sc3_6 3.145688 1_555
Ru3_2 Sc3_2 3.145690 1_655
Ru3_3 Sc1_7 3.100933 1_555
Ru3_3 Sc1_3 3.100934 1_655
Ru3_3 Sc3_7 3.145688 1_555
Ru3_3 Sc3_3 3.145690 1_655
Ru3_4 Sc1_0 3.100933 1_555
Ru3_4 Sc1_4 3.100934 1_555
Ru3_4 Sc3_0 3.145688 1_555
Ru3_4 Sc3_4 3.145690 1_555
Ru3_5 Sc1_1 3.100933 1_555
Ru3_5 Sc1_5 3.100934 1_555
Ru3_5 Sc3_1 3.145688 1_555
Ru3_5 Sc3_5 3.145690 1_555
Ru3_6 Sc1_2 3.100933 1_555
Ru3_6 Sc1_6 3.100934 1_555
Ru3_6 Sc3_2 3.145688 1_555
Ru3_6 Sc3_6 3.145690 1_555
Ru3_7 Sc1_3 3.100933 1_555
Ru3_7 Sc1_7 3.100934 1_555
Ru3_7 Sc3_3 3.145688 1_555
Ru3_7 Sc3_7 3.145690 1_555
Ru4_0 Sc0_6 2.703561 1_456
Ru4_0 Sc0_2 2.703564 1_556
Ru4_0 Sc1_5 2.703591 1_465
Ru4_0 Sc1_1 2.703592 1_565
Ru4_1 Sc0_7 2.703561 1_455
Ru4_1 Sc0_3 2.703564 1_555
Ru4_1 Sc1_4 2.703591 1_465
Ru4_1 Sc1_0 2.703592 1_565
Ru4_2 Sc0_4 2.703561 1_456
Ru4_2 Sc0_0 2.703564 1_556
Ru4_2 Sc1_7 2.703591 1_455
Ru4_2 Sc1_3 2.703592 1_555
Ru4_3 Sc0_5 2.703561 1_455
Ru4_3 Sc0_1 2.703564 1_555
Ru4_3 Sc1_6 2.703591 1_455
Ru4_3 Sc1_2 2.703592 1_555
Ru4_4 Sc0_2 2.703561 1_556
Ru4_4 Sc0_6 2.703564 1_556
Ru4_4 Sc1_1 2.703591 1_565
Ru4_4 Sc1_5 2.703592 1_565
Ru4_5 Sc0_3 2.703561 1_555
Ru4_5 Sc0_7 2.703564 1_555
Ru4_5 Sc1_0 2.703591 1_565
Ru4_5 Sc1_4 2.703592 1_565
Ru4_6 Sc0_0 2.703561 1_556
Ru4_6 Sc0_4 2.703564 1_556
Ru4_6 Sc1_3 2.703591 1_555
Ru4_6 Sc1_7 2.703592 1_555
Ru4_7 Sc0_1 2.703561 1_555
Ru4_7 Sc0_5 2.703564 1_555
Ru4_7 Sc1_2 2.703591 1_555
Ru4_7 Sc1_6 2.703592 1_555
Ru5_0 Sc1_4 2.639662 1_555
Ru5_0 Sc1_0 2.639663 1_655
Ru5_0 Sc2_0 2.743586 1_655
Ru5_0 Sc2_4 2.743586 1_555
Ru5_1 Sc1_5 2.639662 1_555
Ru5_1 Sc1_1 2.639663 1_655
Ru5_1 Sc2_1 2.743586 1_655
Ru5_1 Sc2_5 2.743586 1_555
Ru5_2 Sc1_6 2.639662 1_555
Ru5_2 Sc1_2 2.639663 1_655
Ru5_2 Sc2_2 2.743586 1_655
Ru5_2 Sc2_6 2.743586 1_555
Ru5_3 Sc1_7 2.639662 1_555
Ru5_3 Sc1_3 2.639663 1_655
Ru5_3 Sc2_3 2.743586 1_655
Ru5_3 Sc2_7 2.743586 1_555
Ru5_4 Sc1_0 2.639662 1_555
Ru5_4 Sc1_4 2.639663 1_555
Ru5_4 Sc2_4 2.743586 1_555
Ru5_4 Sc2_0 2.743586 1_555
Ru5_5 Sc1_1 2.639662 1_555
Ru5_5 Sc1_5 2.639663 1_555
Ru5_5 Sc2_5 2.743586 1_555
Ru5_5 Sc2_1 2.743586 1_555
Ru5_6 Sc1_2 2.639662 1_555
Ru5_6 Sc1_6 2.639663 1_555
Ru5_6 Sc2_6 2.743586 1_555
Ru5_6 Sc2_2 2.743586 1_555
Ru5_7 Sc1_3 2.639662 1_555
Ru5_7 Sc1_7 2.639663 1_555
Ru5_7 Sc2_7 2.743586 1_555
Ru5_7 Sc2_3 2.743586 1_555
Ru6_0 Sc0_4 2.639581 1_555
Ru6_0 Sc0_0 2.639584 1_655
Ru6_0 Sc3_4 2.743700 1_555
Ru6_0 Sc3_0 2.743702 1_655
Ru6_1 Sc0_5 2.639581 1_555
Ru6_1 Sc0_1 2.639584 1_655
Ru6_1 Sc3_5 2.743700 1_555
Ru6_1 Sc3_1 2.743702 1_655
Ru6_2 Sc0_6 2.639581 1_555
Ru6_2 Sc0_2 2.639584 1_655
Ru6_2 Sc3_6 2.743700 1_555
Ru6_2 Sc3_2 2.743702 1_655
Ru6_3 Sc0_7 2.639581 1_555
Ru6_3 Sc0_3 2.639584 1_655
Ru6_3 Sc3_7 2.743700 1_555
Ru6_3 Sc3_3 2.743702 1_655
Ru6_4 Sc0_0 2.639581 1_555
Ru6_4 Sc0_4 2.639584 1_555
Ru6_4 Sc3_0 2.743700 1_555
Ru6_4 Sc3_4 2.743702 1_555
Ru6_5 Sc0_1 2.639581 1_555
Ru6_5 Sc0_5 2.639584 1_555
Ru6_5 Sc3_1 2.743700 1_555
Ru6_5 Sc3_5 2.743702 1_555
Ru6_6 Sc0_2 2.639581 1_555
Ru6_6 Sc0_6 2.639584 1_555
Ru6_6 Sc3_2 2.743700 1_555
Ru6_6 Sc3_6 2.743702 1_555
Ru6_7 Sc0_3 2.639581 1_555
Ru6_7 Sc0_7 2.639584 1_555
Ru6_7 Sc3_3 2.743700 1_555
Ru6_7 Sc3_7 2.743702 1_555
Ru7_0 Sc3_4 2.703613 1_455
Ru7_0 Sc3_0 2.703615 1_555
Ru7_0 Sc2_0 2.703615 1_555
Ru7_0 Sc2_4 2.703616 1_455
Ru7_1 Sc3_5 2.703613 1_455
Ru7_1 Sc3_1 2.703615 1_555
Ru7_1 Sc2_1 2.703615 1_555
Ru7_1 Sc2_5 2.703616 1_455
Ru7_2 Sc3_6 2.703613 1_455
Ru7_2 Sc3_2 2.703615 1_555
Ru7_2 Sc2_2 2.703615 1_555
Ru7_2 Sc2_6 2.703616 1_455
Ru7_3 Sc3_7 2.703613 1_455
Ru7_3 Sc3_3 2.703615 1_555
Ru7_3 Sc2_3 2.703615 1_555
Ru7_3 Sc2_7 2.703616 1_455
Ru7_4 Sc3_0 2.703613 1_555
Ru7_4 Sc3_4 2.703615 1_555
Ru7_4 Sc2_4 2.703615 1_555
Ru7_4 Sc2_0 2.703616 1_555
Ru7_5 Sc3_1 2.703613 1_555
Ru7_5 Sc3_5 2.703615 1_555
Ru7_5 Sc2_5 2.703615 1_555
Ru7_5 Sc2_1 2.703616 1_555
Ru7_6 Sc3_2 2.703613 1_555
Ru7_6 Sc3_6 2.703615 1_555
Ru7_6 Sc2_6 2.703615 1_555
Ru7_6 Sc2_2 2.703616 1_555
Ru7_7 Sc3_3 2.703613 1_555
Ru7_7 Sc3_7 2.703615 1_555
Ru7_7 Sc2_7 2.703615 1_555
Ru7_7 Sc2_3 2.703616 1_555
Ru8_0 Sc2_4 2.639541 1_555
Ru8_0 Sc2_0 2.639542 1_655
Ru8_0 Sc1_6 2.743719 1_555
Ru8_0 Sc1_2 2.743720 1_655
Ru8_1 Sc2_5 2.639541 1_555
Ru8_1 Sc2_1 2.639542 1_655
Ru8_1 Sc1_7 2.743719 1_555
Ru8_1 Sc1_3 2.743720 1_655
Ru8_2 Sc2_6 2.639541 1_555
Ru8_2 Sc2_2 2.639542 1_655
Ru8_2 Sc1_4 2.743719 1_565
Ru8_2 Sc1_0 2.743720 1_665
Ru8_3 Sc2_7 2.639541 1_555
Ru8_3 Sc2_3 2.639542 1_655
Ru8_3 Sc1_5 2.743719 1_565
Ru8_3 Sc1_1 2.743720 1_665
Ru8_4 Sc2_0 2.639541 1_555
Ru8_4 Sc2_4 2.639542 1_555
Ru8_4 Sc1_2 2.743719 1_555
Ru8_4 Sc1_6 2.743720 1_555
Ru8_5 Sc2_1 2.639541 1_555
Ru8_5 Sc2_5 2.639542 1_555
Ru8_5 Sc1_3 2.743719 1_555
Ru8_5 Sc1_7 2.743720 1_555
Ru8_6 Sc2_2 2.639541 1_555
Ru8_6 Sc2_6 2.639542 1_555
Ru8_6 Sc1_0 2.743719 1_565
Ru8_6 Sc1_4 2.743720 1_565
Ru8_7 Sc2_3 2.639541 1_555
Ru8_7 Sc2_7 2.639542 1_555
Ru8_7 Sc1_1 2.743719 1_565
Ru8_7 Sc1_5 2.743720 1_565
Ru9_0 Sc3_4 2.639654 1_555
Ru9_0 Sc3_0 2.639657 1_655
Ru9_0 Sc0_6 2.743661 1_545
Ru9_0 Sc0_2 2.743665 1_645
Ru9_1 Sc3_5 2.639654 1_555
Ru9_1 Sc3_1 2.639657 1_655
Ru9_1 Sc0_7 2.743661 1_545
Ru9_1 Sc0_3 2.743665 1_645
Ru9_2 Sc3_6 2.639654 1_555
Ru9_2 Sc3_2 2.639657 1_655
Ru9_2 Sc0_4 2.743661 1_555
Ru9_2 Sc0_0 2.743665 1_655
Ru9_3 Sc3_7 2.639654 1_555
Ru9_3 Sc3_3 2.639657 1_655
Ru9_3 Sc0_5 2.743661 1_555
Ru9_3 Sc0_1 2.743665 1_655
Ru9_4 Sc3_0 2.639654 1_555
Ru9_4 Sc3_4 2.639657 1_555
Ru9_4 Sc0_2 2.743661 1_545
Ru9_4 Sc0_6 2.743665 1_545
Ru9_5 Sc3_1 2.639654 1_555
Ru9_5 Sc3_5 2.639657 1_555
Ru9_5 Sc0_3 2.743661 1_545
Ru9_5 Sc0_7 2.743665 1_545
Ru9_6 Sc3_2 2.639654 1_555
Ru9_6 Sc3_6 2.639657 1_555
Ru9_6 Sc0_0 2.743661 1_555
Ru9_6 Sc0_4 2.743665 1_555
Ru9_7 Sc3_3 2.639654 1_555
Ru9_7 Sc3_7 2.639657 1_555
Ru9_7 Sc0_1 2.743661 1_555
Ru9_7 Sc0_5 2.743665 1_555
