# generated using pymatgen
data_TiMn2Re
_symmetry_space_group_name_H-M   'P 1'
_cell_length_a   10.13767528
_cell_length_b   10.13767528
_cell_length_c   10.13767528
_cell_angle_alpha   122.74368762
_cell_angle_beta   120.92536346
_cell_angle_gamma   86.85845380
_symmetry_Int_Tables_number   1
_chemical_formula_structural   TiMn2Re
_chemical_formula_sum   'Ti1 Mn2 Re1'
_cell_volume   714.87718041
_cell_formula_units_Z   1
loop_
 _symmetry_equiv_pos_site_id
 _symmetry_equiv_pos_as_xyz
  1  'x, y, z'
loop_
 _atom_site_type_symbol
 _atom_site_label
 _atom_site_symmetry_multiplicity
 _atom_site_fract_x
 _atom_site_fract_y
 _atom_site_fract_z
 _atom_site_occupancy
  Ti  Ti0  1  0.00000000  0.00000000  0.00000000  1
  Mn  Mn0  1  0.00000000  0.24095900  0.24095900  1
  Mn  Mn1  1  0.00000000  0.75904100  0.75904100  1
  Re  Re0  1  0.00000000  0.50000000  0.50000000  1
loop_
_geom_bond_atom_site_label_1
_geom_bond_atom_site_label_2
_geom_bond_distance
_geom_bond_site_symmetry_2
Mn0 Ti0 2.340770 1_555
Mn0 Re0 2.516426 1_555
Mn1 Ti0 2.340770 1_566
Mn1 Re0 2.516426 1_555
