# generated using pymatgen
data_NaYbSe2
_symmetry_space_group_name_H-M   'P 1'
_cell_length_a   7.41565837
_cell_length_b   7.41565837
_cell_length_c   7.41565906
_cell_angle_alpha   32.78421325
_cell_angle_beta   32.78421325
_cell_angle_gamma   32.78421788
_symmetry_Int_Tables_number   1
_chemical_formula_structural   NaYbSe2
_chemical_formula_sum   'Na1 Yb1 Se2'
_cell_volume   106.36658263
_cell_formula_units_Z   1
loop_
 _symmetry_equiv_pos_site_id
 _symmetry_equiv_pos_as_xyz
  1  'x, y, z'
loop_
 _atom_site_type_symbol
 _atom_site_label
 _atom_site_symmetry_multiplicity
 _atom_site_fract_x
 _atom_site_fract_y
 _atom_site_fract_z
 _atom_site_occupancy
  Na  Na0  1  0.00000000  0.00000000  0.00000000  1
  Yb  Yb0  1  0.50000000  0.50000000  0.50000000  1
  Se  Se0  1  0.75557000  0.75557000  0.75557000  1
  Se  Se1  1  0.24443000  0.24443000  0.24443000  1
loop_
_geom_bond_atom_site_label_1
_geom_bond_atom_site_label_2
_geom_bond_distance
_geom_bond_site_symmetry_2
Na0 Se0 3.055485 1_544
Na0 Se1 3.055485 1_455
Na0 Se1 3.055485 1_545
Na0 Se0 3.055485 1_454
Na0 Se0 3.055485 1_445
Na0 Se1 3.055485 1_554
Se0 Yb0 2.917988 1_565
Se0 Yb0 2.917988 1_655
Se0 Yb0 2.917988 1_556
Se1 Yb0 2.917988 1_455
Se1 Yb0 2.917988 1_545
Se1 Yb0 2.917988 1_554
