# generated using pymatgen
data_YMg
_symmetry_space_group_name_H-M   'P 1'
_cell_length_a   5.89970617
_cell_length_b   5.89970617
_cell_length_c   5.45228700
_cell_angle_alpha   90.00000000
_cell_angle_beta   90.00000000
_cell_angle_gamma   117.90027760
_symmetry_Int_Tables_number   1
_chemical_formula_structural   YMg
_chemical_formula_sum   'Y3 Mg3'
_cell_volume   167.71637473
_cell_formula_units_Z   3
loop_
 _symmetry_equiv_pos_site_id
 _symmetry_equiv_pos_as_xyz
  1  'x, y, z'
loop_
 _atom_site_type_symbol
 _atom_site_label
 _atom_site_symmetry_multiplicity
 _atom_site_fract_x
 _atom_site_fract_y
 _atom_site_fract_z
 _atom_site_occupancy
  Y  Y0  1  0.62601900  0.62601900  0.00000000  1
  Y  Y1  1  0.04268200  0.68379800  0.50000000  1
  Y  Y2  1  0.68379800  0.04268200  0.50000000  1
  Mg  Mg0  1  0.99254500  0.32012000  0.00000000  1
  Mg  Mg1  1  0.32012000  0.99254500  0.00000000  1
  Mg  Mg2  1  0.33483600  0.33483600  0.50000000  1
loop_
_geom_bond_atom_site_label_1
_geom_bond_atom_site_label_2
_geom_bond_distance
_geom_bond_site_symmetry_2
Y0 Y1 3.578623 1_655
Y0 Y1 3.578623 1_654
Y0 Y2 3.578623 1_564
Y0 Y2 3.578623 1_565
Y1 Y2 3.360746 1_565
Y1 Y2 3.360746 1_455
Y1 Y2 3.627879 1_465
Mg0 Y2 3.261694 1_554
Mg0 Y2 3.261694 1_555
Mg0 Y0 3.303371 1_655
Mg0 Mg1 3.311383 1_645
Mg0 Mg2 3.369474 1_654
Mg0 Mg2 3.369474 1_655
Mg0 Y1 3.395434 1_655
Mg0 Y1 3.395434 1_654
Mg0 Y0 3.403701 1_555
Mg0 Mg1 3.506815 1_545
Mg0 Mg1 3.506815 1_655
Mg0 Y0 3.627369 1_545
Mg1 Y1 3.261694 1_555
Mg1 Y1 3.261694 1_554
Mg1 Y0 3.303371 1_565
Mg1 Mg2 3.369474 1_564
Mg1 Mg2 3.369474 1_565
Mg1 Y2 3.395434 1_565
Mg1 Y2 3.395434 1_564
Mg1 Y0 3.403701 1_555
Mg1 Y0 3.627369 1_455
Mg2 Y1 3.245057 1_555
Mg2 Y2 3.245057 1_555
Mg2 Y0 3.251505 1_556
Mg2 Y0 3.251505 1_555
Mg2 Y1 3.395275 1_545
Mg2 Y2 3.395275 1_455
Mg2 Y1 3.692153 1_655
Mg2 Y2 3.692153 1_565
