# generated using pymatgen
data_Sr3Sn13Ir4
_symmetry_space_group_name_H-M   'P 1'
_cell_length_a   9.88007759
_cell_length_b   9.88014489
_cell_length_c   9.88012661
_cell_angle_alpha   90.00039614
_cell_angle_beta   89.99983159
_cell_angle_gamma   89.99993203
_symmetry_Int_Tables_number   1
_chemical_formula_structural   Sr3Sn13Ir4
_chemical_formula_sum   'Sr6 Sn26 Ir8'
_cell_volume   964.46434859
_cell_formula_units_Z   2
loop_
 _symmetry_equiv_pos_site_id
 _symmetry_equiv_pos_as_xyz
  1  'x, y, z'
loop_
 _atom_site_type_symbol
 _atom_site_label
 _atom_site_symmetry_multiplicity
 _atom_site_fract_x
 _atom_site_fract_y
 _atom_site_fract_z
 _atom_site_occupancy
  Sr  Sr0  1  0.49999690  -0.00000401  0.74999737  1
  Sr  Sr1  1  0.00000189  0.25000180  0.50000043  1
  Sr  Sr2  1  0.74999772  0.50000307  -0.00000051  1
  Sr  Sr3  1  0.49999837  -0.00000291  0.25000274  1
  Sr  Sr4  1  0.00000278  0.74999860  0.50000195  1
  Sr  Sr5  1  0.25000250  0.50000402  -0.00000137  1
  Sn  Sn0  1  0.49999394  0.50001478  0.50001062  1
  Sn  Sn1  1  0.00000631  -0.00001480  -0.00001052  1
  Sn  Sn2  1  0.65234018  0.20097590  0.49999865  1
  Sn  Sn3  1  0.79902467  0.49999864  0.65234856  1
  Sn  Sn4  1  0.50000014  0.34767138  0.79900386  1
  Sn  Sn5  1  0.34766034  0.79901511  0.49999804  1
  Sn  Sn6  1  0.20099072  0.49999722  0.34766758  1
  Sn  Sn7  1  0.50000047  0.65235437  0.20097346  1
  Sn  Sn8  1  0.65233353  0.79900834  0.49999733  1
  Sn  Sn9  1  0.79901607  0.49999853  0.34766586  1
  Sn  Sn10  1  0.34765209  0.20097098  0.49999984  1
  Sn  Sn11  1  0.20098237  0.49999726  0.65234373  1
  Sn  Sn12  1  0.49999912  0.65234414  0.79901887  1
  Sn  Sn13  1  0.50000051  0.34766832  0.20098722  1
  Sn  Sn14  1  0.15233521  0.00000279  0.70098446  1
  Sn  Sn15  1  0.29900674  0.15232303  0.00000297  1
  Sn  Sn16  1  0.00000010  0.29902505  0.84765179  1
  Sn  Sn17  1  0.84766888  0.00000102  0.29902230  1
  Sn  Sn18  1  0.70097291  0.84765299  0.00000158  1
  Sn  Sn19  1  -0.00000079  0.70099651  0.15232415  1
  Sn  Sn20  1  0.15234234  0.00000104  0.29902652  1
  Sn  Sn21  1  0.29901929  0.84766031  0.00000208  1
  Sn  Sn22  1  0.84767103  0.00000306  0.70099108  1
  Sn  Sn23  1  0.70098418  0.15232326  0.00000172  1
  Sn  Sn24  1  -0.00000133  0.29902331  0.15232450  1
  Sn  Sn25  1  0.00000096  0.70098631  0.84766328  1
  Ir  Ir0  1  0.75000432  0.25000259  0.74999797  1
  Ir  Ir1  1  0.25000342  0.75000168  0.24999881  1
  Ir  Ir2  1  0.74999550  0.75000145  0.24999745  1
  Ir  Ir3  1  0.24999727  0.25000116  0.74999792  1
  Ir  Ir4  1  0.25000062  0.74999926  0.75000122  1
  Ir  Ir5  1  0.75000033  0.24999828  0.25000247  1
  Ir  Ir6  1  0.24999985  0.24999695  0.25000394  1
  Ir  Ir7  1  0.74999956  0.74999921  0.75000108  1
loop_
_geom_bond_atom_site_label_1
_geom_bond_atom_site_label_2
_geom_bond_distance
_geom_bond_site_symmetry_2
Sn0 Sn8 3.315437 1_555
Sn0 Sn4 3.315459 1_555
Sn0 Sn5 3.315467 1_555
Sn0 Sn12 3.315509 1_555
Sn0 Sn6 3.315525 1_555
Sn0 Sn11 3.315546 1_555
Sn0 Sn9 3.315692 1_555
Sn0 Sn13 3.315719 1_555
Sn0 Sn3 3.315745 1_555
Sn0 Sn7 3.315828 1_555
Sn0 Sn2 3.315863 1_555
Sn0 Sn10 3.315889 1_555
Sn1 Sn19 3.315383 1_545
Sn1 Sn25 3.315416 1_544
Sn1 Sn22 3.315458 1_454
Sn1 Sn15 3.315476 1_555
Sn1 Sn14 3.315480 1_554
Sn1 Sn21 3.315526 1_545
Sn1 Sn23 3.315665 1_455
Sn1 Sn18 3.315741 1_445
Sn1 Sn17 3.315763 1_455
Sn1 Sn24 3.315801 1_555
Sn1 Sn20 3.315801 1_555
Sn1 Sn16 3.315847 1_554
Sn2 Sr1 3.468910 1_655
Sn2 Sr3 3.508460 1_555
Sn2 Sr0 3.508505 1_555
Sn3 Sr2 3.468821 1_556
Sn3 Sr1 3.508478 1_655
Sn3 Sr4 3.508516 1_655
Sn4 Sr0 3.469036 1_555
Sn4 Sr5 3.508511 1_556
Sn4 Sr2 3.508522 1_556
Sn5 Sr4 3.468857 1_555
Sn5 Sr3 3.508471 1_565
Sn5 Sr0 3.508474 1_565
Sn6 Sr5 3.468976 1_555
Sn6 Sr1 3.508486 1_555
Sn6 Sr4 3.508511 1_555
Sn7 Sr3 3.468748 1_565
Sn7 Sr2 3.508471 1_555
Sn7 Sr5 3.508487 1_555
Sn8 Sr4 3.468961 1_655
Sn8 Sr3 3.508496 1_565
Sn8 Sr0 3.508508 1_565
Sn9 Sr2 3.468963 1_555
Sn9 Sr1 3.508487 1_655
Sn9 Sr4 3.508510 1_655
Sn10 Sr1 3.468803 1_555
Sn10 Sr3 3.508452 1_555
Sn10 Sr0 3.508480 1_555
Sn11 Sr5 3.468853 1_556
Sn11 Sr1 3.508474 1_555
Sn11 Sr4 3.508515 1_555
Sn12 Sr0 3.468834 1_565
Sn12 Sr5 3.508466 1_556
Sn12 Sr2 3.508494 1_556
Sn13 Sr3 3.469015 1_555
Sn13 Sr2 3.508492 1_555
Sn13 Sr5 3.508512 1_555
Sn14 Sr0 3.468893 1_555
Sn14 Sr1 3.508493 1_555
Sn14 Sr4 3.508500 1_545
Sn15 Sr5 3.469091 1_555
Sn15 Sr3 3.508504 1_555
Sn15 Sr0 3.508519 1_554
Sn16 Sr1 3.468818 1_555
Sn16 Sr2 3.508515 1_456
Sn16 Sr5 3.508527 1_556
Sn17 Sr3 3.468988 1_555
Sn17 Sr1 3.508454 1_655
Sn17 Sr4 3.508494 1_645
Sn18 Sr2 3.468815 1_555
Sn18 Sr3 3.508473 1_565
Sn18 Sr0 3.508520 1_564
Sn19 Sr4 3.469048 1_555
Sn19 Sr2 3.508507 1_455
Sn19 Sr5 3.508509 1_555
Sn20 Sr3 3.468850 1_555
Sn20 Sr1 3.508454 1_555
Sn20 Sr4 3.508493 1_545
Sn21 Sr5 3.468867 1_555
Sn21 Sr3 3.508474 1_565
Sn21 Sr0 3.508495 1_564
Sn22 Sr0 3.469003 1_555
Sn22 Sr1 3.508515 1_655
Sn22 Sr4 3.508528 1_645
Sn23 Sr2 3.469093 1_555
Sn23 Sr3 3.508475 1_555
Sn23 Sr0 3.508505 1_554
Sn24 Sr1 3.469063 1_555
Sn24 Sr2 3.508437 1_455
Sn24 Sr5 3.508463 1_555
Sn25 Sr4 3.468907 1_555
Sn25 Sr5 3.508499 1_556
Sn25 Sr2 3.508517 1_456
Ir0 Sn16 2.695607 1_655
Ir0 Sn3 2.695609 1_555
Ir0 Sn22 2.695666 1_555
Ir0 Sn2 2.695690 1_555
Ir0 Sn4 2.695701 1_555
Ir0 Sn23 2.695779 1_556
Ir0 Sr1 3.493104 1_655
Ir0 Sr2 3.493157 1_556
Ir0 Sr0 3.493247 1_555
Ir1 Sn7 2.695595 1_555
Ir1 Sn21 2.695635 1_555
Ir1 Sn5 2.695640 1_555
Ir1 Sn20 2.695681 1_565
Ir1 Sn19 2.695726 1_555
Ir1 Sn6 2.695740 1_555
Ir1 Sr3 3.493082 1_565
Ir1 Sr5 3.493128 1_555
Ir1 Sr4 3.493165 1_555
Ir2 Sn7 2.695578 1_555
Ir2 Sn18 2.695616 1_555
Ir2 Sn8 2.695647 1_555
Ir2 Sn19 2.695710 1_655
Ir2 Sn17 2.695724 1_565
Ir2 Sn9 2.695739 1_555
Ir2 Sr3 3.493094 1_565
Ir2 Sr2 3.493118 1_555
Ir2 Sr4 3.493231 1_655
Ir3 Sn16 2.695616 1_555
Ir3 Sn11 2.695616 1_555
Ir3 Sn10 2.695646 1_555
Ir3 Sn14 2.695653 1_555
Ir3 Sn4 2.695699 1_555
Ir3 Sn15 2.695770 1_556
Ir3 Sr1 3.493099 1_555
Ir3 Sr5 3.493168 1_556
Ir3 Sr0 3.493178 1_555
Ir4 Sn12 2.695627 1_555
Ir4 Sn25 2.695651 1_555
Ir4 Sn21 2.695676 1_556
Ir4 Sn11 2.695676 1_555
Ir4 Sn5 2.695691 1_555
Ir4 Sn14 2.695722 1_565
Ir4 Sr0 3.493100 1_565
Ir4 Sr5 3.493116 1_556
Ir4 Sr4 3.493129 1_555
Ir5 Sn2 2.695641 1_555
Ir5 Sn9 2.695677 1_555
Ir5 Sn17 2.695682 1_555
Ir5 Sn13 2.695688 1_555
Ir5 Sn24 2.695717 1_655
Ir5 Sn23 2.695720 1_555
Ir5 Sr1 3.493145 1_655
Ir5 Sr3 3.493171 1_555
Ir5 Sr2 3.493222 1_555
Ir6 Sn10 2.695621 1_555
Ir6 Sn20 2.695636 1_555
Ir6 Sn6 2.695664 1_555
Ir6 Sn15 2.695699 1_555
Ir6 Sn13 2.695702 1_555
Ir6 Sn24 2.695754 1_555
Ir6 Sr1 3.493100 1_555
Ir6 Sr3 3.493133 1_555
Ir6 Sr5 3.493254 1_555
Ir7 Sn12 2.695644 1_555
Ir7 Sn3 2.695656 1_555
Ir7 Sn18 2.695658 1_556
Ir7 Sn25 2.695672 1_655
Ir7 Sn8 2.695711 1_555
Ir7 Sn22 2.695735 1_565
Ir7 Sr2 3.493129 1_556
Ir7 Sr0 3.493141 1_565
Ir7 Sr4 3.493155 1_655
