# generated using pymatgen
data_MgAg3P3O13
_symmetry_space_group_name_H-M   'P 1'
_cell_length_a   6.45655000
_cell_length_b   7.96275600
_cell_length_c   10.62444887
_cell_angle_alpha   82.06675213
_cell_angle_beta   90.00000000
_cell_angle_gamma   90.00000000
_symmetry_Int_Tables_number   1
_chemical_formula_structural   MgAg3P3O13
_chemical_formula_sum   'Mg2 Ag6 P6 O26'
_cell_volume   540.99583552
_cell_formula_units_Z   2
loop_
 _symmetry_equiv_pos_site_id
 _symmetry_equiv_pos_as_xyz
  1  'x, y, z'
loop_
 _atom_site_type_symbol
 _atom_site_label
 _atom_site_symmetry_multiplicity
 _atom_site_fract_x
 _atom_site_fract_y
 _atom_site_fract_z
 _atom_site_occupancy
  Mg  Mg0  1  0.75000000  0.38495200  0.15922100  1
  Mg  Mg1  1  0.25000000  0.61504800  0.84077900  1
  Ag  Ag0  1  0.25000000  0.66441400  0.21357200  1
  Ag  Ag1  1  0.75000000  0.33558600  0.78642800  1
  Ag  Ag2  1  0.25000000  0.25805400  0.43135500  1
  Ag  Ag3  1  0.50000000  0.00000000  0.00000000  1
  Ag  Ag4  1  0.75000000  0.74194600  0.56864500  1
  Ag  Ag5  1  0.00000000  0.00000000  0.00000000  1
  P  P0  1  0.25000000  0.77340800  0.50277400  1
  P  P1  1  0.75000000  0.22659200  0.49722600  1
  P  P2  1  0.25000000  0.26309700  0.75678900  1
  P  P3  1  0.75000000  0.73690300  0.24321100  1
  P  P4  1  0.75000000  0.67048500  0.88734100  1
  P  P5  1  0.25000000  0.32951500  0.11265900  1
  O  O0  1  0.75000000  0.60913500  0.75140500  1
  O  O1  1  0.56924600  0.25430300  0.39748700  1
  O  O2  1  0.25000000  0.19498200  0.63019200  1
  O  O3  1  0.54131200  0.76721100  0.89120900  1
  O  O4  1  0.75000000  0.37603400  0.57745100  1
  O  O5  1  0.75000000  0.11021400  0.90597000  1
  O  O6  1  0.25000000  0.62396600  0.42254900  1
  O  O7  1  0.04131200  0.23278900  0.10879100  1
  O  O8  1  0.25000000  0.93966600  0.41437400  1
  O  O9  1  0.75000000  0.06033400  0.58562600  1
  O  O10  1  0.07207300  0.38888600  0.78123500  1
  O  O11  1  0.25000000  0.88978600  0.09403000  1
  O  O12  1  0.57207300  0.61111400  0.21876500  1
  O  O13  1  0.75000000  0.50576500  0.98098100  1
  O  O14  1  0.75000000  0.80501800  0.36980800  1
  O  O15  1  0.45868800  0.23278900  0.10879100  1
  O  O16  1  0.93075400  0.25430300  0.39748700  1
  O  O17  1  0.43075400  0.74569700  0.60251300  1
  O  O18  1  0.42792700  0.38888600  0.78123500  1
  O  O19  1  0.25000000  0.39086500  0.24859500  1
  O  O20  1  0.75000000  0.89444100  0.14024800  1
  O  O21  1  0.25000000  0.10555900  0.85975200  1
  O  O22  1  0.92792700  0.61111400  0.21876500  1
  O  O23  1  0.95868800  0.76721100  0.89120900  1
  O  O24  1  0.06924600  0.74569700  0.60251300  1
  O  O25  1  0.25000000  0.49423500  0.01901900  1
loop_
_geom_bond_atom_site_label_1
_geom_bond_atom_site_label_2
_geom_bond_distance
_geom_bond_site_symmetry_2
Mg0 O13 2.002170 1_554
Mg0 O22 2.297295 1_555
Mg0 O12 2.297295 1_555
Mg0 O7 2.339233 1_655
Mg0 O15 2.339233 1_555
Mg1 O25 2.002170 1_556
Mg1 O10 2.297295 1_555
Mg1 O18 2.297295 1_555
Mg1 O3 2.339233 1_555
Mg1 O23 2.339233 1_455
Ag0 O11 2.050473 1_555
Ag0 O12 2.121544 1_555
Ag0 O22 2.121544 1_455
Ag0 O19 2.158541 1_555
Ag0 O6 2.199072 1_555
Ag0 O25 2.623362 1_555
Ag1 O5 2.050473 1_555
Ag1 O18 2.121544 1_555
Ag1 O10 2.121544 1_655
Ag1 O0 2.158541 1_555
Ag1 O4 2.199072 1_555
Ag1 O13 2.623362 1_555
Ag2 O19 2.078907 1_555
Ag2 O1 2.093322 1_555
Ag2 O16 2.093322 1_455
Ag2 O2 2.102893 1_555
Ag2 O8 2.566375 1_545
Ag3 O5 2.032647 1_554
Ag3 O11 2.032647 1_545
Ag3 O20 2.277388 1_545
Ag3 O21 2.277388 1_554
Ag3 O15 2.331208 1_555
Ag3 O3 2.331208 1_544
Ag4 O0 2.078907 1_555
Ag4 O24 2.093322 1_655
Ag4 O17 2.093322 1_555
Ag4 O14 2.102893 1_555
Ag4 O9 2.566375 1_565
Ag5 O5 2.032647 1_454
Ag5 O11 2.032647 1_545
Ag5 O20 2.277388 1_445
Ag5 O21 2.277388 1_554
Ag5 O7 2.331208 1_555
Ag5 O23 2.331208 1_444
O0 P4 1.587213 1_555
O1 P1 1.571321 1_555
O2 P2 1.518105 1_555
O3 P4 1.555359 1_555
O4 P1 1.556438 1_555
O6 P0 1.556438 1_555
O7 P5 1.555359 1_555
O8 P0 1.513775 1_555
O9 P1 1.513775 1_555
O10 P2 1.569157 1_555
O12 P3 1.569157 1_555
O13 P4 1.532948 1_555
O14 P3 1.518105 1_555
O15 P5 1.555359 1_555
O16 P1 1.571321 1_555
O17 P0 1.571321 1_555
O18 P2 1.569157 1_555
O19 P5 1.587213 1_555
O20 P3 1.546443 1_555
O21 P2 1.546443 1_555
O22 P3 1.569157 1_555
O23 P4 1.555359 1_555
O24 P0 1.571321 1_555
O25 P5 1.532948 1_555
