# generated using pymatgen
data_BaYCoCuO5
_symmetry_space_group_name_H-M   'P 1'
_cell_length_a   3.90598500
_cell_length_b   3.90598500
_cell_length_c   7.81013100
_cell_angle_alpha   90.00000000
_cell_angle_beta   90.00000000
_cell_angle_gamma   90.00000000
_symmetry_Int_Tables_number   1
_chemical_formula_structural   BaYCoCuO5
_chemical_formula_sum   'Ba1 Y1 Co1 Cu1 O5'
_cell_volume   119.15697262
_cell_formula_units_Z   1
loop_
 _symmetry_equiv_pos_site_id
 _symmetry_equiv_pos_as_xyz
  1  'x, y, z'
loop_
 _atom_site_type_symbol
 _atom_site_label
 _atom_site_symmetry_multiplicity
 _atom_site_fract_x
 _atom_site_fract_y
 _atom_site_fract_z
 _atom_site_occupancy
  Ba  Ba0  1  0.00000000  0.00000000  0.99308500  1
  Y  Y0  1  0.00000000  0.00000000  0.46985900  1
  Co  Co0  1  0.50000000  0.50000000  0.70961300  1
  Cu  Cu0  1  0.50000000  0.50000000  0.25578800  1
  O  O0  1  0.00000000  0.50000000  0.63827600  1
  O  O1  1  0.50000000  0.00000000  0.63827600  1
  O  O2  1  0.00000000  0.50000000  0.27233000  1
  O  O3  1  0.50000000  0.00000000  0.27233000  1
  O  O4  1  0.50000000  0.50000000  0.93836000  1
loop_
_geom_bond_atom_site_label_1
_geom_bond_atom_site_label_2
_geom_bond_distance
_geom_bond_site_symmetry_2
Ba0 O4 2.794823 1_555
Ba0 O4 2.794823 1_455
Ba0 O4 2.794823 1_445
Ba0 O4 2.794823 1_545
Ba0 O2 2.927572 1_546
Ba0 O3 2.927572 1_556
Ba0 O2 2.927572 1_556
Ba0 O3 2.927572 1_456
Co0 O4 1.786544 1_555
Co0 O1 2.030910 1_555
Co0 O0 2.030910 1_655
Co0 O1 2.030910 1_565
Co0 O0 2.030910 1_555
Cu0 O3 1.957261 1_555
Cu0 O2 1.957261 1_555
Cu0 O3 1.957261 1_565
Cu0 O2 1.957261 1_655
Cu0 O4 2.479154 1_554
O0 Y0 2.354644 1_565
O0 Y0 2.354644 1_555
O1 Y0 2.354644 1_555
O1 Y0 2.354644 1_655
O2 Y0 2.488812 1_555
O2 Y0 2.488812 1_565
O3 Y0 2.488812 1_555
O3 Y0 2.488812 1_655
