# generated using pymatgen
data_Li9Mn2Co5O16
_symmetry_space_group_name_H-M   'P 1'
_cell_length_a   2.97297800
_cell_length_b   10.01133245
_cell_length_c   10.80010434
_cell_angle_alpha   114.46001346
_cell_angle_beta   97.49170355
_cell_angle_gamma   89.93010386
_symmetry_Int_Tables_number   1
_chemical_formula_structural   Li9Mn2Co5O16
_chemical_formula_sum   'Li9 Mn2 Co5 O16'
_cell_volume   289.60475768
_cell_formula_units_Z   1
loop_
 _symmetry_equiv_pos_site_id
 _symmetry_equiv_pos_as_xyz
  1  'x, y, z'
loop_
 _atom_site_type_symbol
 _atom_site_label
 _atom_site_symmetry_multiplicity
 _atom_site_fract_x
 _atom_site_fract_y
 _atom_site_fract_z
 _atom_site_occupancy
  Li  Li0  1  0.13994200  0.94581800  0.27020100  1
  Li  Li1  1  0.86383500  0.05930700  0.73773600  1
  Li  Li2  1  0.63008800  0.20000200  0.25974800  1
  Li  Li3  1  0.63059400  0.68751600  0.26052400  1
  Li  Li4  1  0.36639100  0.80955500  0.73896600  1
  Li  Li5  1  0.12486100  0.43959800  0.25226400  1
  Li  Li6  1  0.87722100  0.55422300  0.74317300  1
  Li  Li7  1  0.36963500  0.30495900  0.73853700  1
  Li  Li8  1  0.75163400  0.12524100  0.50068500  1
  Mn  Mn0  1  0.99113500  0.00451700  0.00184000  1
  Mn  Mn1  1  0.51059900  0.74731700  0.00130800  1
  Co  Co0  1  0.46904300  0.25936100  0.99688200  1
  Co  Co1  1  0.25450300  0.36547400  0.50125200  1
  Co  Co2  1  0.02777100  0.48891600  0.99900100  1
  Co  Co3  1  0.74967500  0.62498900  0.50019900  1
  Co  Co4  1  0.24543500  0.88384900  0.49772400  1
  O  O0  1  0.55202300  0.96391600  0.10902500  1
  O  O1  1  0.30700700  0.07090400  0.61661800  1
  O  O2  1  0.03531700  0.20720400  0.11088700  1
  O  O3  1  0.06457200  0.72317600  0.10898700  1
  O  O4  1  0.81900500  0.83003400  0.61695000  1
  O  O5  1  0.57301500  0.46968200  0.12101000  1
  O  O6  1  0.30913500  0.58128600  0.61337700  1
  O  O7  1  0.83292300  0.34603100  0.61662400  1
  O  O8  1  0.67877500  0.90258200  0.37998300  1
  O  O9  1  0.43419800  0.02568900  0.89046800  1
  O  O10  1  0.19136200  0.17848800  0.38175600  1
  O  O11  1  0.19080700  0.66887100  0.38843400  1
  O  O12  1  0.94910200  0.78777700  0.89498500  1
  O  O13  1  0.66762900  0.41955200  0.38608900  1
  O  O14  1  0.46591300  0.54498000  0.88948400  1
  O  O15  1  0.92685800  0.27918600  0.87528300  1
loop_
_geom_bond_atom_site_label_1
_geom_bond_atom_site_label_2
_geom_bond_distance
_geom_bond_site_symmetry_2
Li0 O8 2.021725 1_555
Li0 O8 2.079239 1_455
Li0 O10 2.128275 1_565
Li0 O3 2.176141 1_555
Li0 O0 2.319836 1_555
Li0 O0 2.363259 1_455
Li1 O1 2.006406 1_555
Li1 O1 2.008990 1_655
Li1 O15 2.075564 1_555
Li1 O4 2.112779 1_545
Li1 O9 2.332056 1_655
Li1 O9 2.340064 1_555
Li2 O10 2.041537 1_555
Li2 O13 2.045166 1_555
Li2 O10 2.056190 1_655
Li2 O2 2.154672 1_655
Li2 O0 2.237563 1_545
Li2 O2 2.251887 1_555
Li3 O8 1.993252 1_555
Li3 O5 2.065929 1_555
Li3 O11 2.080848 1_655
Li3 O11 2.082750 1_555
Li3 O3 2.324200 1_555
Li3 O3 2.346528 1_655
Li4 O4 2.022528 1_455
Li4 O4 2.067866 1_555
Li4 O9 2.093567 1_565
Li4 O6 2.113068 1_555
Li4 O12 2.296933 1_455
Li4 O12 2.330259 1_555
Li5 O13 2.089093 1_555
Li5 O5 2.130194 1_455
Li5 O11 2.144827 1_555
Li5 O5 2.173103 1_555
Li5 O13 2.174910 1_455
Li5 O2 2.183781 1_555
Li6 O7 1.955569 1_555
Li6 O6 2.114727 1_655
Li6 O6 2.141710 1_555
Li6 O14 2.150815 1_555
Li6 O12 2.221748 1_555
Li6 O14 2.228930 1_655
Li7 O7 2.085099 1_455
Li7 O1 2.154331 1_555
Li7 O15 2.160699 1_555
Li7 O7 2.173109 1_555
Li7 O15 2.191779 1_455
Li7 O14 2.269287 1_555
Li8 O7 2.035322 1_555
Li8 O8 2.058247 1_545
Li8 O1 2.146711 1_555
Li8 O1 2.147692 1_655
Li8 O10 2.156290 1_655
Li8 O10 2.171496 1_555
Mn0 O2 1.871652 1_655
Mn0 O9 1.962587 1_654
Mn0 O9 1.980961 1_554
Mn0 O12 1.986221 1_544
Mn0 O0 1.998638 1_545
Mn0 O0 2.042180 1_645
Mn1 O14 1.874147 1_554
Mn1 O3 1.950606 1_555
Mn1 O3 1.963576 1_655
Mn1 O0 1.986187 1_555
Mn1 O12 1.989730 1_554
Mn1 O12 2.037882 1_454
Co0 O5 1.970338 1_556
Co0 O15 2.006339 1_455
Co0 O15 2.073462 1_555
Co0 O2 2.097482 1_556
Co0 O9 2.132440 1_555
Co0 O2 2.147707 1_656
Co1 O10 1.772607 1_555
Co1 O7 1.941661 1_455
Co1 O6 1.985892 1_555
Co1 O7 2.046679 1_555
Co1 O13 2.075136 1_555
Co1 O13 2.207649 1_455
Co2 O15 1.964103 1_455
Co2 O5 2.013315 1_556
Co2 O5 2.067995 1_456
Co2 O14 2.089036 1_555
Co2 O14 2.129910 1_455
Co2 O3 2.140781 1_556
Co3 O13 1.905819 1_555
Co3 O4 1.906846 1_555
Co3 O11 2.055078 1_655
Co3 O6 2.064612 1_555
Co3 O11 2.079663 1_555
Co3 O6 2.088761 1_655
Co4 O1 1.771287 1_565
Co4 O11 1.974532 1_555
Co4 O8 1.984237 1_555
Co4 O8 2.031841 1_455
Co4 O4 2.134805 1_455
Co4 O4 2.203575 1_555
