# generated using pymatgen
data_Co2NiO4
_symmetry_space_group_name_H-M   'P 1'
_cell_length_a   5.80771930
_cell_length_b   5.80771930
_cell_length_c   5.80771957
_cell_angle_alpha   58.97909506
_cell_angle_beta   58.97909506
_cell_angle_gamma   58.97910362
_symmetry_Int_Tables_number   1
_chemical_formula_structural   Co2NiO4
_chemical_formula_sum   'Co4 Ni2 O8'
_cell_volume   135.29055153
_cell_formula_units_Z   2
loop_
 _symmetry_equiv_pos_site_id
 _symmetry_equiv_pos_as_xyz
  1  'x, y, z'
loop_
 _atom_site_type_symbol
 _atom_site_label
 _atom_site_symmetry_multiplicity
 _atom_site_fract_x
 _atom_site_fract_y
 _atom_site_fract_z
 _atom_site_occupancy
  Co  Co0  1  0.00000000  0.00000000  0.00000000  1
  Co  Co1  1  0.00000000  0.50000000  0.00000000  1
  Co  Co2  1  0.50000000  0.00000000  0.00000000  1
  Co  Co3  1  0.00000000  0.00000000  0.50000000  1
  Ni  Ni0  1  0.62515200  0.62515200  0.62515200  1
  Ni  Ni1  1  0.37484800  0.37484800  0.37484800  1
  O  O0  1  0.23331100  0.23331100  0.23331100  1
  O  O1  1  0.23538800  0.79156900  0.23538800  1
  O  O2  1  0.79156900  0.23538800  0.23538800  1
  O  O3  1  0.23538800  0.23538800  0.79156900  1
  O  O4  1  0.76668900  0.76668900  0.76668900  1
  O  O5  1  0.76461200  0.20843100  0.76461200  1
  O  O6  1  0.20843100  0.76461200  0.76461200  1
  O  O7  1  0.76461200  0.76461200  0.20843100  1
loop_
_geom_bond_atom_site_label_1
_geom_bond_atom_site_label_2
_geom_bond_distance
_geom_bond_site_symmetry_2
Co0 O3 1.928217 1_554
Co0 O7 1.928217 1_445
Co0 O1 1.928217 1_545
Co0 O2 1.928217 1_455
Co0 O6 1.928217 1_544
Co0 O5 1.928217 1_454
Co1 O0 1.907133 1_555
Co1 O4 1.907133 1_454
Co1 O6 1.934502 1_554
Co1 O2 1.934502 1_455
Co1 O7 1.934502 1_455
Co1 O3 1.934502 1_554
Co2 O0 1.907133 1_555
Co2 O4 1.907133 1_544
Co2 O5 1.934502 1_554
Co2 O1 1.934502 1_545
Co2 O7 1.934502 1_545
Co2 O3 1.934502 1_554
Co3 O0 1.907133 1_555
Co3 O4 1.907133 1_445
Co3 O6 1.934502 1_545
Co3 O5 1.934502 1_455
Co3 O2 1.934502 1_455
Co3 O1 1.934502 1_545
Ni0 O7 1.950568 1_555
Ni0 O5 1.950568 1_555
Ni0 O6 1.950568 1_555
Ni0 O4 2.028894 1_555
Ni1 O3 1.950568 1_555
Ni1 O2 1.950568 1_555
Ni1 O1 1.950568 1_555
Ni1 O0 2.028894 1_555
