# generated using pymatgen
data_Mg2Bi
_symmetry_space_group_name_H-M   'P 1'
_cell_length_a   6.71065947
_cell_length_b   6.71065947
_cell_length_c   7.54064711
_cell_angle_alpha   73.65797882
_cell_angle_beta   73.65797882
_cell_angle_gamma   28.98943601
_symmetry_Int_Tables_number   1
_chemical_formula_structural   Mg2Bi
_chemical_formula_sum   'Mg4 Bi2'
_cell_volume   157.47235183
_cell_formula_units_Z   2
loop_
 _symmetry_equiv_pos_site_id
 _symmetry_equiv_pos_as_xyz
  1  'x, y, z'
loop_
 _atom_site_type_symbol
 _atom_site_label
 _atom_site_symmetry_multiplicity
 _atom_site_fract_x
 _atom_site_fract_y
 _atom_site_fract_z
 _atom_site_occupancy
  Mg  Mg0  1  0.30811500  0.30811500  0.12921100  1
  Mg  Mg1  1  0.02813100  0.02813100  0.18207000  1
  Mg  Mg2  1  0.97186900  0.97186900  0.81793000  1
  Mg  Mg3  1  0.69188500  0.69188500  0.87078900  1
  Bi  Bi0  1  0.63168900  0.63168900  0.47443800  1
  Bi  Bi1  1  0.36831100  0.36831100  0.52556200  1
loop_
_geom_bond_atom_site_label_1
_geom_bond_atom_site_label_2
_geom_bond_distance
_geom_bond_site_symmetry_2
Bi0 Mg2 3.273569 1_455
Bi0 Mg2 3.273569 1_545
Bi0 Mg3 3.302004 1_555
Bi0 Mg1 3.349131 1_655
Bi0 Mg1 3.349131 1_565
Bi0 Mg0 3.374123 1_655
Bi0 Mg0 3.374123 1_565
Bi1 Mg1 3.273569 1_655
Bi1 Mg1 3.273569 1_565
Bi1 Mg0 3.302004 1_555
Bi1 Mg2 3.349131 1_545
Bi1 Mg2 3.349131 1_455
Bi1 Mg3 3.374123 1_455
Bi1 Mg3 3.374123 1_545
