# generated using pymatgen
data_ReSi4W
_symmetry_space_group_name_H-M   'P 1'
_cell_length_a   3.21279800
_cell_length_b   3.21279800
_cell_length_c   7.85291100
_cell_angle_alpha   90.00000000
_cell_angle_beta   90.00000000
_cell_angle_gamma   90.00000000
_symmetry_Int_Tables_number   1
_chemical_formula_structural   ReSi4W
_chemical_formula_sum   'Re1 Si4 W1'
_cell_volume   81.05830481
_cell_formula_units_Z   1
loop_
 _symmetry_equiv_pos_site_id
 _symmetry_equiv_pos_as_xyz
  1  'x, y, z'
loop_
 _atom_site_type_symbol
 _atom_site_label
 _atom_site_symmetry_multiplicity
 _atom_site_fract_x
 _atom_site_fract_y
 _atom_site_fract_z
 _atom_site_occupancy
  Re  Re0  1  0.00000000  0.00000000  0.00000000  1
  Si  Si0  1  0.50000000  0.50000000  0.16688200  1
  Si  Si1  1  0.00000000  0.00000000  0.66730600  1
  Si  Si2  1  0.00000000  0.00000000  0.33269400  1
  Si  Si3  1  0.50000000  0.50000000  0.83311800  1
  W  W0  1  0.50000000  0.50000000  0.50000000  1
loop_
_geom_bond_atom_site_label_1
_geom_bond_atom_site_label_2
_geom_bond_distance
_geom_bond_site_symmetry_2
Re0 Si2 2.612616 1_555
Re0 Si1 2.612616 1_554
Re0 Si3 2.622684 1_444
Re0 Si3 2.622684 1_554
Re0 Si3 2.622684 1_544
Re0 Si3 2.622684 1_454
Re0 Si0 2.622684 1_545
Re0 Si0 2.622684 1_555
Re0 Si0 2.622684 1_445
Re0 Si0 2.622684 1_455
Si0 W0 2.615946 1_555
Si0 Si2 2.618495 1_665
Si0 Si2 2.618495 1_555
Si0 Si2 2.618495 1_565
Si0 Si2 2.618495 1_655
Si0 Si3 2.621019 1_554
Si1 Si3 2.618495 1_455
Si1 Si3 2.618495 1_545
Si1 Si3 2.618495 1_555
Si1 Si3 2.618495 1_445
Si1 W0 2.624349 1_455
Si1 W0 2.624349 1_555
Si1 W0 2.624349 1_445
Si1 W0 2.624349 1_545
Si1 Si2 2.627678 1_555
Si2 W0 2.624349 1_455
Si2 W0 2.624349 1_555
Si2 W0 2.624349 1_445
Si2 W0 2.624349 1_545
Si3 W0 2.615946 1_555
