# generated using pymatgen
data_Rb6NaU3Si4O20F
_symmetry_space_group_name_H-M   'P 1'
_cell_length_a   11.26021600
_cell_length_b   13.84294200
_cell_length_c   7.94851000
_cell_angle_alpha   90.00000000
_cell_angle_beta   90.00000000
_cell_angle_gamma   90.00000000
_symmetry_Int_Tables_number   1
_chemical_formula_structural   Rb6NaU3Si4O20F
_chemical_formula_sum   'Rb12 Na2 U6 Si8 O40 F2'
_cell_volume   1238.97015708
_cell_formula_units_Z   2
loop_
 _symmetry_equiv_pos_site_id
 _symmetry_equiv_pos_as_xyz
  1  'x, y, z'
loop_
 _atom_site_type_symbol
 _atom_site_label
 _atom_site_symmetry_multiplicity
 _atom_site_fract_x
 _atom_site_fract_y
 _atom_site_fract_z
 _atom_site_occupancy
  Rb  Rb0  1  0.81421200  0.44289200  0.74695400  1
  Rb  Rb1  1  0.18578800  0.55710800  0.74695400  1
  Rb  Rb2  1  0.31421200  0.05710800  0.75304600  1
  Rb  Rb3  1  0.68578800  0.94289200  0.75304600  1
  Rb  Rb4  1  0.18578800  0.55710800  0.25304600  1
  Rb  Rb5  1  0.81421200  0.44289200  0.25304600  1
  Rb  Rb6  1  0.68578800  0.94289200  0.24695400  1
  Rb  Rb7  1  0.31421200  0.05710800  0.24695400  1
  Rb  Rb8  1  0.07011100  0.30023500  0.00000000  1
  Rb  Rb9  1  0.92988900  0.69976500  0.00000000  1
  Rb  Rb10  1  0.57011100  0.19976500  0.50000000  1
  Rb  Rb11  1  0.42988900  0.80023500  0.50000000  1
  Na  Na0  1  0.00000000  0.00000000  0.50000000  1
  Na  Na1  1  0.50000000  0.50000000  0.00000000  1
  U  U0  1  0.11162800  0.27285700  0.50000000  1
  U  U1  1  0.88837200  0.72714300  0.50000000  1
  U  U2  1  0.61162800  0.22714300  0.00000000  1
  U  U3  1  0.38837200  0.77285700  0.00000000  1
  U  U4  1  0.00000000  0.00000000  0.00000000  1
  U  U5  1  0.50000000  0.50000000  0.50000000  1
  Si  Si0  1  0.85899700  0.17519500  0.69667300  1
  Si  Si1  1  0.14100300  0.82480500  0.69667300  1
  Si  Si2  1  0.35899700  0.32480500  0.80332700  1
  Si  Si3  1  0.64100300  0.67519500  0.80332700  1
  Si  Si4  1  0.14100300  0.82480500  0.30332700  1
  Si  Si5  1  0.85899700  0.17519500  0.30332700  1
  Si  Si6  1  0.64100300  0.67519500  0.19667300  1
  Si  Si7  1  0.35899700  0.32480500  0.19667300  1
  O  O0  1  0.82340100  0.14048500  0.50000000  1
  O  O1  1  0.17659900  0.85951500  0.50000000  1
  O  O2  1  0.32340100  0.35951500  0.00000000  1
  O  O3  1  0.67659900  0.64048500  0.00000000  1
  O  O4  1  0.73949700  0.21898200  0.78552800  1
  O  O5  1  0.26050300  0.78101800  0.78552800  1
  O  O6  1  0.23949700  0.28101800  0.71447200  1
  O  O7  1  0.76050300  0.71898200  0.71447200  1
  O  O8  1  0.26050300  0.78101800  0.21447200  1
  O  O9  1  0.73949700  0.21898200  0.21447200  1
  O  O10  1  0.76050300  0.71898200  0.28552800  1
  O  O11  1  0.23949700  0.28101800  0.28552800  1
  O  O12  1  0.96031700  0.25999700  0.68456100  1
  O  O13  1  0.03968300  0.74000300  0.68456100  1
  O  O14  1  0.46031700  0.24000300  0.81543900  1
  O  O15  1  0.53968300  0.75999700  0.81543900  1
  O  O16  1  0.03968300  0.74000300  0.31543900  1
  O  O17  1  0.96031700  0.25999700  0.31543900  1
  O  O18  1  0.53968300  0.75999700  0.18456100  1
  O  O19  1  0.46031700  0.24000300  0.18456100  1
  O  O20  1  0.90344800  0.07721900  0.79235500  1
  O  O21  1  0.09655200  0.92278100  0.79235500  1
  O  O22  1  0.40344800  0.42278100  0.70764500  1
  O  O23  1  0.59655200  0.57721900  0.70764500  1
  O  O24  1  0.09655200  0.92278100  0.20764500  1
  O  O25  1  0.90344800  0.07721900  0.20764500  1
  O  O26  1  0.59655200  0.57721900  0.29235500  1
  O  O27  1  0.40344800  0.42278100  0.29235500  1
  O  O28  1  0.13026600  0.13731500  0.50000000  1
  O  O29  1  0.86973400  0.86268500  0.50000000  1
  O  O30  1  0.63026600  0.36268500  0.00000000  1
  O  O31  1  0.36973400  0.63731500  0.00000000  1
  O  O32  1  0.09517500  0.40728900  0.50000000  1
  O  O33  1  0.90482500  0.59271100  0.50000000  1
  O  O34  1  0.59517500  0.09271100  0.00000000  1
  O  O35  1  0.40482500  0.90728900  0.00000000  1
  O  O36  1  0.87955200  0.90684600  0.00000000  1
  O  O37  1  0.12044800  0.09315400  0.00000000  1
  O  O38  1  0.37955200  0.59315400  0.50000000  1
  O  O39  1  0.62044800  0.40684600  0.50000000  1
  F  F0  1  0.00000000  0.50000000  0.00000000  1
  F  F1  1  0.50000000  0.00000000  0.50000000  1
loop_
_geom_bond_atom_site_label_1
_geom_bond_atom_site_label_2
_geom_bond_distance
_geom_bond_site_symmetry_2
Na0 O29 2.400995 1_445
Na0 O28 2.400995 1_555
Na0 O25 2.779318 1_455
Na0 O20 2.779318 1_455
Na0 O21 2.779318 1_545
Na0 O24 2.779318 1_545
Na0 O1 2.781413 1_545
Na0 O0 2.781413 1_455
Na1 O31 2.400995 1_555
Na1 O30 2.400995 1_555
Na1 O26 2.779318 1_555
Na1 O27 2.779318 1_555
Na1 O23 2.779318 1_554
Na1 O22 2.779318 1_554
Na1 O3 2.781413 1_555
Na1 O2 2.781413 1_555
O0 Si5 1.683834 1_555
O0 Si0 1.683834 1_555
O0 Rb10 2.967806 1_555
O1 Si1 1.683834 1_555
O1 Si4 1.683834 1_555
O1 Rb11 2.967806 1_555
O2 Si7 1.683834 1_555
O2 Si2 1.683834 1_554
O2 Rb8 2.967806 1_555
O3 Si3 1.683834 1_554
O3 Si6 1.683834 1_555
O3 Rb9 2.967806 1_555
O4 Si0 1.636107 1_555
O4 U2 2.234277 1_556
O4 Rb10 2.976471 1_555
O4 Rb0 3.226323 1_555
O5 Si1 1.636107 1_555
O5 U3 2.234277 1_556
O5 Rb11 2.976471 1_555
O5 Rb1 3.226323 1_555
O6 Si2 1.636107 1_555
O6 U0 2.234277 1_555
O6 Rb8 2.976471 1_556
O6 Rb2 3.226323 1_555
O7 Si3 1.636107 1_555
O7 U1 2.234277 1_555
O7 Rb9 2.976471 1_556
O7 Rb3 3.226323 1_555
O8 Si4 1.636107 1_555
O8 U3 2.234277 1_555
O8 Rb11 2.976471 1_555
O8 Rb4 3.226323 1_555
O9 Si5 1.636107 1_555
O9 U2 2.234277 1_555
O9 Rb10 2.976471 1_555
O9 Rb5 3.226323 1_555
O10 Si6 1.636107 1_555
O10 U1 2.234277 1_555
O10 Rb9 2.976471 1_555
O10 Rb6 3.226323 1_555
O11 Si7 1.636107 1_555
O11 U0 2.234277 1_555
O11 Rb8 2.976471 1_555
O11 Rb7 3.226323 1_555
O12 Si0 1.639802 1_555
O12 U0 2.255361 1_655
O12 Rb8 2.850459 1_656
O12 Rb0 3.059833 1_555
O13 Si1 1.639802 1_555
O13 U1 2.255361 1_455
O13 Rb9 2.850459 1_456
O13 Rb1 3.059833 1_555
O14 Si2 1.639802 1_555
O14 U2 2.255361 1_556
O14 Rb10 2.850459 1_555
O14 Rb2 3.059833 1_555
O15 Si3 1.639802 1_555
O15 U3 2.255361 1_556
O15 Rb11 2.850459 1_555
O15 Rb3 3.059833 1_555
O16 Si4 1.639802 1_555
O16 U1 2.255361 1_455
O16 Rb9 2.850459 1_455
O16 Rb4 3.059833 1_555
O17 Si5 1.639802 1_555
O17 U0 2.255361 1_655
O17 Rb8 2.850459 1_655
O17 Rb5 3.059833 1_555
O18 Si6 1.639802 1_555
O18 U3 2.255361 1_555
O18 Rb11 2.850459 1_555
O18 Rb6 3.059833 1_555
O19 Si7 1.639802 1_555
O19 U2 2.255361 1_555
O19 Rb10 2.850459 1_555
O19 Rb7 3.059833 1_555
O20 Si0 1.633529 1_555
O20 U4 2.246925 1_656
O20 Rb3 3.092280 1_545
O21 Si1 1.633529 1_555
O21 U4 2.246925 1_566
O21 Rb2 3.092280 1_565
O22 Si2 1.633529 1_555
O22 U5 2.246925 1_555
O22 Rb1 3.092280 1_555
O23 Si3 1.633529 1_555
O23 U5 2.246925 1_555
O23 Rb0 3.092280 1_555
O24 Si4 1.633529 1_555
O24 U4 2.246925 1_565
O24 Rb7 3.092280 1_565
O25 Si5 1.633529 1_555
O25 U4 2.246925 1_655
O25 Rb6 3.092280 1_545
O26 Si6 1.633529 1_555
O26 U5 2.246925 1_555
O26 Rb5 3.092280 1_555
O27 Si7 1.633529 1_555
O27 U5 2.246925 1_555
O27 Rb4 3.092280 1_555
O28 U0 1.888001 1_555
O28 Rb7 3.093286 1_555
O28 Rb2 3.093286 1_555
O29 U1 1.888001 1_555
O29 Rb3 3.093286 1_555
O29 Rb6 3.093286 1_555
O30 U2 1.888001 1_555
O30 Rb5 3.093286 1_555
O30 Rb0 3.093286 1_554
O31 U3 1.888001 1_555
O31 Rb1 3.093286 1_554
O31 Rb4 3.093286 1_555
O32 U0 1.870134 1_555
O32 Rb1 3.032376 1_555
O32 Rb4 3.032376 1_555
O33 U1 1.870134 1_555
O33 Rb0 3.032376 1_555
O33 Rb5 3.032376 1_555
O34 U2 1.870134 1_555
O34 Rb6 3.032376 1_545
O34 Rb3 3.032376 1_544
O35 U3 1.870134 1_555
O35 Rb2 3.032376 1_564
O35 Rb7 3.032376 1_565
O36 U4 1.871455 1_665
O36 Rb9 2.922109 1_555
O36 Rb6 2.976975 1_555
O36 Rb3 2.976975 1_554
O37 U4 1.871455 1_555
O37 Rb8 2.922109 1_555
O37 Rb2 2.976975 1_554
O37 Rb7 2.976975 1_555
O38 U5 1.871455 1_555
O38 Rb11 2.922109 1_555
O38 Rb1 2.976975 1_555
O38 Rb4 2.976975 1_555
O39 U5 1.871455 1_555
O39 Rb10 2.922109 1_555
O39 Rb5 2.976975 1_555
O39 Rb0 2.976975 1_555
F0 Rb9 2.875819 1_455
F0 Rb8 2.875819 1_555
F0 Rb5 3.007816 1_455
F0 Rb0 3.007816 1_454
F0 Rb1 3.007816 1_554
F0 Rb4 3.007816 1_555
F1 Rb11 2.875819 1_545
F1 Rb10 2.875819 1_555
F1 Rb6 3.007816 1_545
F1 Rb7 3.007816 1_555
F1 Rb2 3.007816 1_555
F1 Rb3 3.007816 1_545
