# generated using pymatgen
data_LiB11
_symmetry_space_group_name_H-M   'P 1'
_cell_length_a   4.75390086
_cell_length_b   4.75390086
_cell_length_c   4.75390086
_cell_angle_alpha   110.18791289
_cell_angle_beta   110.18791289
_cell_angle_gamma   108.04715304
_symmetry_Int_Tables_number   1
_chemical_formula_structural   LiB11
_chemical_formula_sum   'Li1 B11'
_cell_volume   82.66617041
_cell_formula_units_Z   1
loop_
 _symmetry_equiv_pos_site_id
 _symmetry_equiv_pos_as_xyz
  1  'x, y, z'
loop_
 _atom_site_type_symbol
 _atom_site_label
 _atom_site_symmetry_multiplicity
 _atom_site_fract_x
 _atom_site_fract_y
 _atom_site_fract_z
 _atom_site_occupancy
  Li  Li0  1  0.75000000  0.25000000  0.50000000  1
  B  B0  1  0.68027500  0.68027500  0.00000000  1
  B  B1  1  0.31972500  0.31972500  0.00000000  1
  B  B2  1  0.29744900  0.29744900  0.59489800  1
  B  B3  1  0.70255100  0.70255100  0.40510200  1
  B  B4  1  0.70255100  0.29744900  0.00000000  1
  B  B5  1  0.29744900  0.70255100  0.00000000  1
  B  B6  1  0.12257600  0.83589300  0.28668300  1
  B  B7  1  0.54921000  0.83589300  0.71331700  1
  B  B8  1  0.16410700  0.45079000  0.28668300  1
  B  B9  1  0.16410700  0.87742400  0.71331700  1
  B  B10  1  0.00000000  0.00000000  0.00000000  1
loop_
_geom_bond_atom_site_label_1
_geom_bond_atom_site_label_2
_geom_bond_distance
_geom_bond_site_symmetry_2
B0 B7 1.785581 1_554
B0 B6 1.785581 1_655
B0 B10 1.785786 1_665
B0 B3 1.855458 1_555
B0 B4 1.855458 1_555
B0 B2 1.855458 1_554
B0 B5 1.855458 1_555
B0 B1 2.013809 1_555
B0 Li0 2.748071 1_554
B0 Li0 2.748071 1_565
B1 B8 1.785581 1_555
B1 B9 1.785581 1_544
B1 B10 1.785786 1_555
B1 B2 1.855458 1_554
B1 B5 1.855458 1_555
B1 B4 1.855458 1_555
B1 B3 1.855458 1_555
B1 Li0 2.748071 1_555
B1 Li0 2.748071 1_454
B2 B6 1.860794 1_545
B2 B8 1.860794 1_555
B2 B7 2.223436 1_555
B2 B9 2.223436 1_545
B2 Li0 2.404824 1_555
B2 Li0 2.404824 1_455
B3 B9 1.860794 1_655
B3 B7 1.860794 1_555
B3 B6 2.223436 1_655
B3 B8 2.223436 1_555
B3 Li0 2.404824 1_565
B3 Li0 2.404824 1_555
B4 B8 1.860794 1_655
B4 B7 1.860794 1_544
B4 B6 2.223436 1_655
B4 B9 2.223436 1_544
B4 Li0 2.404824 1_554
B4 Li0 2.404824 1_555
B5 B9 1.860794 1_554
B5 B6 1.860794 1_555
B5 B7 2.223436 1_554
B5 B8 2.223436 1_555
B5 Li0 2.404824 1_454
B5 Li0 2.404824 1_565
B6 B8 1.901197 1_555
B6 B9 1.901197 1_555
B6 B7 2.321176 1_555
B6 Li0 2.587794 1_565
B7 B8 1.901197 1_555
B7 B9 1.901197 1_555
B7 Li0 2.587794 1_565
B8 B9 2.321176 1_555
B8 Li0 2.587794 1_455
B9 Li0 2.587794 1_455
B10 B9 1.809135 1_544
B10 B6 1.809135 1_545
B10 B8 1.809135 1_555
B10 B7 1.809135 1_444
