# generated using pymatgen
data_Pr9Al5Se21
_symmetry_space_group_name_H-M   'P 1'
_cell_length_a   12.27023976
_cell_length_b   12.27023977
_cell_length_c   12.27023897
_cell_angle_alpha   94.73704700
_cell_angle_beta   94.73704704
_cell_angle_gamma   94.73704439
_symmetry_Int_Tables_number   1
_chemical_formula_structural   Pr9Al5Se21
_chemical_formula_sum   'Pr18 Al10 Se42'
_cell_volume   1827.34436627
_cell_formula_units_Z   2
loop_
 _symmetry_equiv_pos_site_id
 _symmetry_equiv_pos_as_xyz
  1  'x, y, z'
loop_
 _atom_site_type_symbol
 _atom_site_label
 _atom_site_symmetry_multiplicity
 _atom_site_fract_x
 _atom_site_fract_y
 _atom_site_fract_z
 _atom_site_occupancy
  Pr  Pr0  1  0.11357473  0.88319816  0.73906912  1
  Pr  Pr1  1  0.45424895  0.22707903  0.07235963  1
  Pr  Pr2  1  0.76569218  0.55471770  0.39483082  1
  Pr  Pr3  1  0.39483082  0.76569218  0.55471770  1
  Pr  Pr4  1  0.73906912  0.11357473  0.88319816  1
  Pr  Pr5  1  0.07235963  0.45424895  0.22707903  1
  Pr  Pr6  1  0.22707903  0.07235963  0.45424895  1
  Pr  Pr7  1  0.55471770  0.39483082  0.76569218  1
  Pr  Pr8  1  0.88319816  0.73906912  0.11357473  1
  Pr  Pr9  1  0.20877910  0.43159024  0.58437101  1
  Pr  Pr10  1  0.55123471  0.77572033  0.93230927  1
  Pr  Pr11  1  0.87541720  0.09855750  0.24698403  1
  Pr  Pr12  1  0.93230927  0.55123471  0.77572033  1
  Pr  Pr13  1  0.24698403  0.87541720  0.09855750  1
  Pr  Pr14  1  0.58437101  0.20877910  0.43159024  1
  Pr  Pr15  1  0.09855750  0.24698403  0.87541720  1
  Pr  Pr16  1  0.43159024  0.58437101  0.20877910  1
  Pr  Pr17  1  0.77572033  0.93230927  0.55123471  1
  Al  Al0  1  0.72043732  0.38696882  0.04576146  1
  Al  Al1  1  0.04576146  0.72043732  0.38696882  1
  Al  Al2  1  0.38696882  0.04576146  0.72043732  1
  Al  Al3  1  0.88122263  0.22469588  0.54704016  1
  Al  Al4  1  0.22469588  0.54704016  0.88122263  1
  Al  Al5  1  0.54704016  0.88122263  0.22469588  1
  Al  Al6  1  0.85559431  0.85559431  0.85559431  1
  Al  Al7  1  0.16931898  0.16931898  0.16931898  1
  Al  Al8  1  0.67108451  0.67108451  0.67108451  1
  Al  Al9  1  0.35373169  0.35373169  0.35373169  1
  Se  Se0  1  0.83985501  0.50793803  0.16970767  1
  Se  Se1  1  0.16970767  0.83985501  0.50793803  1
  Se  Se2  1  0.50793803  0.16970767  0.83985501  1
  Se  Se3  1  0.67164874  0.00531348  0.34007284  1
  Se  Se4  1  0.00531348  0.34007284  0.67164874  1
  Se  Se5  1  0.34007284  0.67164874  0.00531348  1
  Se  Se6  1  0.54414675  0.45018627  0.00848264  1
  Se  Se7  1  0.87111356  0.78690186  0.35533508  1
  Se  Se8  1  0.20805847  0.10840066  0.69365249  1
  Se  Se9  1  0.69365249  0.20805847  0.10840066  1
  Se  Se10  1  0.00848264  0.54414675  0.45018627  1
  Se  Se11  1  0.35533508  0.87111356  0.78690186  1
  Se  Se12  1  0.78690186  0.35533508  0.87111356  1
  Se  Se13  1  0.10840066  0.69365249  0.20805847  1
  Se  Se14  1  0.45018627  0.00848264  0.54414675  1
  Se  Se15  1  0.96470126  0.06726497  0.48021703  1
  Se  Se16  1  0.29969654  0.38503395  0.81488008  1
  Se  Se17  1  0.63061928  0.72009560  0.16381649  1
  Se  Se18  1  0.81488008  0.29969654  0.38503395  1
  Se  Se19  1  0.16381649  0.63061928  0.72009560  1
  Se  Se20  1  0.48021703  0.96470126  0.06726497  1
  Se  Se21  1  0.72009560  0.16381649  0.63061928  1
  Se  Se22  1  0.06726497  0.48021703  0.96470126  1
  Se  Se23  1  0.38503395  0.81488008  0.29969654  1
  Se  Se24  1  0.55048145  0.40679355  0.30688632  1
  Se  Se25  1  0.89031000  0.75927771  0.66457985  1
  Se  Se26  1  0.23511757  0.09659491  0.99704436  1
  Se  Se27  1  0.99704436  0.23511757  0.09659491  1
  Se  Se28  1  0.30688632  0.55048145  0.40679355  1
  Se  Se29  1  0.66457985  0.89031000  0.75927771  1
  Se  Se30  1  0.75927771  0.66457985  0.89031000  1
  Se  Se31  1  0.09659491  0.99704436  0.23511757  1
  Se  Se32  1  0.40679355  0.30688632  0.55048145  1
  Se  Se33  1  0.14945822  0.28200242  0.37469378  1
  Se  Se34  1  0.48759299  0.62003034  0.72589818  1
  Se  Se35  1  0.79244905  0.94042620  0.03673187  1
  Se  Se36  1  0.72589818  0.48759299  0.62003034  1
  Se  Se37  1  0.03673187  0.79244905  0.94042620  1
  Se  Se38  1  0.37469378  0.14945822  0.28200242  1
  Se  Se39  1  0.94042620  0.03673187  0.79244905  1
  Se  Se40  1  0.28200242  0.37469378  0.14945822  1
  Se  Se41  1  0.62003034  0.72589818  0.48759299  1
loop_
_geom_bond_atom_site_label_1
_geom_bond_atom_site_label_2
_geom_bond_distance
_geom_bond_site_symmetry_2
Pr0 Se37 2.983127 1_555
Pr0 Se1 2.989037 1_555
Pr0 Se11 2.994293 1_555
Pr0 Se8 3.020316 1_565
Pr0 Se39 3.029685 1_465
Pr0 Se25 3.053071 1_455
Pr0 Se19 3.203031 1_555
Pr1 Se9 2.965618 1_555
Pr1 Se2 3.020566 1_554
Pr1 Se38 3.023725 1_555
Pr1 Se26 3.046515 1_554
Pr1 Se40 3.053204 1_555
Pr1 Se6 3.053498 1_555
Pr1 Se20 3.257253 1_545
Pr1 Se24 3.535348 1_555
Pr2 Se0 3.004583 1_555
Pr2 Se36 3.014081 1_555
Pr2 Se10 3.016182 1_655
Pr2 Se41 3.076193 1_555
Pr2 Se7 3.122109 1_555
Pr2 Se24 3.137890 1_555
Pr2 Se18 3.229894 1_555
Pr3 Se1 3.004583 1_555
Pr3 Se41 3.014081 1_555
Pr3 Se14 3.016182 1_565
Pr3 Se34 3.076193 1_555
Pr3 Se11 3.122109 1_555
Pr3 Se28 3.137890 1_555
Pr3 Se23 3.229894 1_555
Pr4 Se39 2.983127 1_555
Pr4 Se2 2.989037 1_555
Pr4 Se12 2.994293 1_555
Pr4 Se9 3.020316 1_556
Pr4 Se35 3.029685 1_546
Pr4 Se29 3.053071 1_545
Pr4 Se21 3.203031 1_555
Pr5 Se13 2.965618 1_555
Pr5 Se0 3.020566 1_455
Pr5 Se40 3.023725 1_555
Pr5 Se27 3.046515 1_455
Pr5 Se33 3.053204 1_555
Pr5 Se10 3.053498 1_555
Pr5 Se22 3.257253 1_554
Pr5 Se28 3.535348 1_555
Pr6 Se8 2.965618 1_555
Pr6 Se1 3.020566 1_545
Pr6 Se33 3.023725 1_555
Pr6 Se31 3.046515 1_545
Pr6 Se38 3.053204 1_555
Pr6 Se14 3.053498 1_555
Pr6 Se15 3.257253 1_455
Pr6 Se32 3.535348 1_555
Pr7 Se2 3.004583 1_555
Pr7 Se34 3.014081 1_555
Pr7 Se6 3.016182 1_556
Pr7 Se36 3.076193 1_555
Pr7 Se12 3.122109 1_555
Pr7 Se32 3.137890 1_555
Pr7 Se16 3.229894 1_555
Pr8 Se35 2.983127 1_555
Pr8 Se0 2.989037 1_555
Pr8 Se7 2.994293 1_555
Pr8 Se13 3.020316 1_655
Pr8 Se37 3.029685 1_654
Pr8 Se30 3.053070 1_554
Pr8 Se17 3.203031 1_555
Pr9 Se19 2.957094 1_555
Pr9 Se4 2.969496 1_555
Pr9 Se28 2.998860 1_555
Pr9 Se32 3.015537 1_555
Pr9 Se33 3.034487 1_555
Pr9 Se16 3.069475 1_555
Pr9 Se10 3.305509 1_555
Pr10 Se20 2.969236 1_556
Pr10 Se29 3.012756 1_555
Pr10 Se5 3.028567 1_556
Pr10 Se34 3.049869 1_555
Pr10 Se30 3.052534 1_555
Pr10 Se17 3.075218 1_556
Pr10 Se11 3.229955 1_555
Pr10 Se35 3.527637 1_556
Pr11 Se27 2.998776 1_555
Pr11 Se3 3.013336 1_555
Pr11 Se15 3.044800 1_555
Pr11 Se18 3.054887 1_555
Pr11 Se31 3.087330 1_645
Pr11 Se35 3.141654 1_545
Pr11 Se9 3.149116 1_555
Pr12 Se22 2.969236 1_655
Pr12 Se30 3.012756 1_555
Pr12 Se4 3.028567 1_655
Pr12 Se36 3.049869 1_555
Pr12 Se25 3.052534 1_555
Pr12 Se19 3.075218 1_655
Pr12 Se12 3.229955 1_555
Pr12 Se37 3.527637 1_655
Pr13 Se31 2.998776 1_555
Pr13 Se5 3.013336 1_555
Pr13 Se20 3.044800 1_555
Pr13 Se23 3.054887 1_555
Pr13 Se26 3.087330 1_564
Pr13 Se37 3.141654 1_554
Pr13 Se13 3.149116 1_555
Pr14 Se21 2.957094 1_555
Pr14 Se3 2.969496 1_555
Pr14 Se32 2.998860 1_555
Pr14 Se24 3.015537 1_555
Pr14 Se38 3.034487 1_555
Pr14 Se18 3.069476 1_555
Pr14 Se14 3.305509 1_555
Pr15 Se26 2.998776 1_555
Pr15 Se4 3.013336 1_555
Pr15 Se22 3.044800 1_555
Pr15 Se16 3.054888 1_555
Pr15 Se27 3.087330 1_456
Pr15 Se39 3.141654 1_455
Pr15 Se8 3.149116 1_555
Pr16 Se17 2.957094 1_555
Pr16 Se5 2.969496 1_555
Pr16 Se24 2.998860 1_555
Pr16 Se28 3.015537 1_555
Pr16 Se40 3.034487 1_555
Pr16 Se23 3.069476 1_555
Pr16 Se6 3.305509 1_555
Pr17 Se15 2.969236 1_565
Pr17 Se25 3.012756 1_555
Pr17 Se3 3.028567 1_565
Pr17 Se41 3.049869 1_555
Pr17 Se29 3.052534 1_555
Pr17 Se21 3.075218 1_565
Pr17 Se7 3.229955 1_555
Pr17 Se39 3.527637 1_565
Al0 Se0 2.358623 1_555
Al0 Se12 2.368891 1_554
Al0 Se6 2.379573 1_555
Al0 Se9 2.391489 1_555
Al1 Se1 2.358623 1_555
Al1 Se7 2.368891 1_455
Al1 Se10 2.379573 1_555
Al1 Se13 2.391489 1_555
Al2 Se2 2.358623 1_555
Al2 Se11 2.368891 1_545
Al2 Se14 2.379573 1_555
Al2 Se8 2.391489 1_555
Al3 Se4 2.358456 1_655
Al3 Se18 2.370601 1_555
Al3 Se15 2.378431 1_555
Al3 Se21 2.394998 1_555
Al4 Se5 2.358456 1_556
Al4 Se16 2.370601 1_555
Al4 Se22 2.378431 1_555
Al4 Se19 2.394998 1_555
Al5 Se3 2.358456 1_565
Al5 Se23 2.370601 1_555
Al5 Se20 2.378431 1_555
Al5 Se17 2.394998 1_555
Al6 Se35 2.580561 1_556
Al6 Se37 2.580561 1_655
Al6 Se39 2.580561 1_565
Al6 Se25 2.619557 1_555
Al6 Se29 2.619557 1_555
Al6 Se30 2.619557 1_555
Al7 Se26 2.450673 1_554
Al7 Se27 2.450674 1_455
Al7 Se31 2.450674 1_545
Al7 Se33 2.811246 1_555
Al7 Se38 2.811246 1_555
Al7 Se40 2.811246 1_555
Al8 Se41 2.449637 1_555
Al8 Se36 2.449637 1_555
Al8 Se34 2.449638 1_555
Al8 Se30 2.825277 1_555
Al8 Se29 2.825277 1_555
Al8 Se25 2.825277 1_555
Al9 Se32 2.571751 1_555
Al9 Se28 2.571751 1_555
Al9 Se24 2.571751 1_555
Al9 Se40 2.627312 1_555
Al9 Se38 2.627312 1_555
Al9 Se33 2.627312 1_555
