# generated using pymatgen
data_K2NdBr5
_symmetry_space_group_name_H-M   'P 1'
_cell_length_a   8.47555519
_cell_length_b   9.17274349
_cell_length_c   13.40637203
_cell_angle_alpha   90.00000000
_cell_angle_beta   90.00000000
_cell_angle_gamma   90.00000000
_symmetry_Int_Tables_number   1
_chemical_formula_structural   K2NdBr5
_chemical_formula_sum   'K8 Nd4 Br20'
_cell_volume   1042.26624319
_cell_formula_units_Z   4
loop_
 _symmetry_equiv_pos_site_id
 _symmetry_equiv_pos_as_xyz
  1  'x, y, z'
loop_
 _atom_site_type_symbol
 _atom_site_label
 _atom_site_symmetry_multiplicity
 _atom_site_fract_x
 _atom_site_fract_y
 _atom_site_fract_z
 _atom_site_occupancy
  K  K0  1  0.94769189  0.00388620  0.82769229  1
  K  K1  1  0.05230811  0.99611380  0.17230771  1
  K  K2  1  0.44769189  0.99611380  0.67230771  1
  K  K3  1  0.05230811  0.50388620  0.17230771  1
  K  K4  1  0.55230811  0.00388620  0.32769229  1
  K  K5  1  0.94769189  0.49611380  0.82769229  1
  K  K6  1  0.55230811  0.49611380  0.32769229  1
  K  K7  1  0.44769189  0.50388620  0.67230771  1
  Nd  Nd0  1  0.92107613  0.75000000  0.50609607  1
  Nd  Nd1  1  0.07892387  0.25000000  0.49390393  1
  Nd  Nd2  1  0.42107613  0.25000000  0.99390393  1
  Nd  Nd3  1  0.57892387  0.75000000  0.00609607  1
  Br  Br0  1  0.12920214  0.75000000  0.68124121  1
  Br  Br1  1  0.87079786  0.25000000  0.31875879  1
  Br  Br2  1  0.62920214  0.25000000  0.81875879  1
  Br  Br3  1  0.37079786  0.75000000  0.18124121  1
  Br  Br4  1  0.83264039  0.04480851  0.57828603  1
  Br  Br5  1  0.16735961  0.95519149  0.42171397  1
  Br  Br6  1  0.33264039  0.95519149  0.92171397  1
  Br  Br7  1  0.16735961  0.54480851  0.42171397  1
  Br  Br8  1  0.66735961  0.04480851  0.07828603  1
  Br  Br9  1  0.83264039  0.45519149  0.57828603  1
  Br  Br10  1  0.66735961  0.45519149  0.07828603  1
  Br  Br11  1  0.33264039  0.54480851  0.92171397  1
  Br  Br12  1  0.57114988  0.75000000  0.50757736  1
  Br  Br13  1  0.42885012  0.25000000  0.49242264  1
  Br  Br14  1  0.07114988  0.25000000  0.99242264  1
  Br  Br15  1  0.92885012  0.75000000  0.00757736  1
  Br  Br16  1  0.66493133  0.75000000  0.79313405  1
  Br  Br17  1  0.33506867  0.25000000  0.20686595  1
  Br  Br18  1  0.16493133  0.25000000  0.70686595  1
  Br  Br19  1  0.83506867  0.75000000  0.29313405  1
loop_
_geom_bond_atom_site_label_1
_geom_bond_atom_site_label_2
_geom_bond_distance
_geom_bond_site_symmetry_2
Br0 Nd0 2.936840 1_455
Br0 K0 3.412476 1_465
Br0 K5 3.412476 1_455
Br0 K7 3.521003 1_555
Br0 K2 3.521003 1_555
Br1 Nd1 2.936840 1_655
Br1 K1 3.412476 1_645
Br1 K3 3.412476 1_655
Br1 K6 3.521003 1_555
Br1 K4 3.521003 1_555
Br2 Nd2 2.936840 1_555
Br2 K7 3.412476 1_555
Br2 K2 3.412476 1_545
Br2 K5 3.521003 1_555
Br2 K0 3.521003 1_555
Br3 Nd3 2.936840 1_555
Br3 K4 3.412476 1_565
Br3 K6 3.412476 1_555
Br3 K1 3.521003 1_555
Br3 K3 3.521003 1_555
Br4 Nd0 2.968362 1_545
Br4 Nd1 3.029769 1_655
Br4 K0 3.503092 1_555
Br4 K2 3.526080 1_545
Br5 Nd1 2.968362 1_565
Br5 Nd0 3.029769 1_455
Br5 K1 3.503092 1_555
Br5 K4 3.526080 1_565
Br6 Nd2 2.968362 1_565
Br6 Nd3 3.029769 1_556
Br6 K2 3.503092 1_555
Br6 K0 3.526080 1_465
Br7 Nd1 2.968362 1_555
Br7 Nd0 3.029769 1_455
Br7 K3 3.503092 1_555
Br7 K6 3.526080 1_555
Br8 Nd3 2.968362 1_545
Br8 Nd2 3.029769 1_554
Br8 K4 3.503092 1_555
Br8 K1 3.526080 1_645
Br9 Nd0 2.968362 1_555
Br9 Nd1 3.029769 1_655
Br9 K5 3.503092 1_555
Br9 K7 3.526080 1_555
Br10 Nd3 2.968362 1_555
Br10 Nd2 3.029769 1_554
Br10 K6 3.503092 1_555
Br10 K3 3.526080 1_655
Br11 Nd2 2.968362 1_555
Br11 Nd3 3.029769 1_556
Br11 K7 3.503092 1_555
Br11 K5 3.526080 1_455
Br12 Nd0 2.965886 1_555
Br12 K2 3.326947 1_555
Br12 K7 3.326947 1_555
Br12 K4 3.356309 1_565
Br12 K6 3.356309 1_555
Br13 Nd1 2.965886 1_555
Br13 K4 3.326947 1_555
Br13 K6 3.326947 1_555
Br13 K2 3.356309 1_545
Br13 K7 3.356309 1_555
Br14 Nd2 2.965886 1_555
Br14 K0 3.326947 1_455
Br14 K5 3.326947 1_455
Br14 K1 3.356309 1_546
Br14 K3 3.356309 1_556
Br15 Nd3 2.965886 1_555
Br15 K1 3.326947 1_655
Br15 K3 3.326947 1_655
Br15 K0 3.356309 1_564
Br15 K5 3.356309 1_554
Br16 Nd3 2.946639 1_556
Br16 K2 3.333239 1_555
Br16 K7 3.333239 1_555
Br16 K0 3.373659 1_565
Br16 K5 3.373659 1_555
Br17 Nd2 2.946639 1_554
Br17 K6 3.333239 1_555
Br17 K4 3.333239 1_555
Br17 K3 3.373659 1_555
Br17 K1 3.373659 1_545
Br18 Nd1 2.946639 1_555
Br18 K5 3.333239 1_455
Br18 K0 3.333239 1_455
Br18 K7 3.373659 1_555
Br18 K2 3.373659 1_545
Br19 Nd0 2.946639 1_555
Br19 K3 3.333239 1_655
Br19 K1 3.333239 1_655
Br19 K4 3.373659 1_565
Br19 K6 3.373659 1_555
