# generated using pymatgen
data_Dy3Rh2
_symmetry_space_group_name_H-M   'P 1'
_cell_length_a   11.08612588
_cell_length_b   11.08612588
_cell_length_c   14.69935465
_cell_angle_alpha   112.15390122
_cell_angle_beta   112.15390122
_cell_angle_gamma   90.00000000
_symmetry_Int_Tables_number   1
_chemical_formula_structural   Dy3Rh2
_chemical_formula_sum   'Dy42 Rh28'
_cell_volume   1528.24267373
_cell_formula_units_Z   14
loop_
 _symmetry_equiv_pos_site_id
 _symmetry_equiv_pos_as_xyz
  1  'x, y, z'
loop_
 _atom_site_type_symbol
 _atom_site_label
 _atom_site_symmetry_multiplicity
 _atom_site_fract_x
 _atom_site_fract_y
 _atom_site_fract_z
 _atom_site_occupancy
  Dy  Dy0  1  0.50374926  0.63239116  0.85681459  1
  Dy  Dy1  1  0.35306633  0.22442342  0.85681459  1
  Dy  Dy2  1  0.85306633  0.13239116  0.85681459  1
  Dy  Dy3  1  0.00374926  0.72442342  0.85681459  1
  Dy  Dy4  1  0.63239116  0.35306633  0.85681459  1
  Dy  Dy5  1  0.22442342  0.50374926  0.85681459  1
  Dy  Dy6  1  0.13239116  0.00374926  0.85681459  1
  Dy  Dy7  1  0.72442342  0.85306633  0.85681459  1
  Dy  Dy8  1  0.49625074  0.36760884  0.14318541  1
  Dy  Dy9  1  0.64693367  0.77557658  0.14318541  1
  Dy  Dy10  1  0.14693367  0.86760884  0.14318541  1
  Dy  Dy11  1  0.99625074  0.27557658  0.14318541  1
  Dy  Dy12  1  0.36760884  0.64693367  0.14318541  1
  Dy  Dy13  1  0.77557658  0.49625074  0.14318541  1
  Dy  Dy14  1  0.86760884  0.99625074  0.14318541  1
  Dy  Dy15  1  0.27557658  0.14693367  0.14318541  1
  Dy  Dy16  1  0.51666579  0.38651471  0.61284501  1
  Dy  Dy17  1  0.09617921  0.22633030  0.61284501  1
  Dy  Dy18  1  0.59617921  0.88651471  0.61284501  1
  Dy  Dy19  1  0.01666579  0.72633030  0.61284501  1
  Dy  Dy20  1  0.38651471  0.09617921  0.61284501  1
  Dy  Dy21  1  0.22633030  0.51666579  0.61284501  1
  Dy  Dy22  1  0.88651471  0.01666579  0.61284501  1
  Dy  Dy23  1  0.72633030  0.59617921  0.61284501  1
  Dy  Dy24  1  0.48333421  0.61348529  0.38715499  1
  Dy  Dy25  1  0.90382079  0.77366970  0.38715499  1
  Dy  Dy26  1  0.40382079  0.11348529  0.38715499  1
  Dy  Dy27  1  0.98333421  0.27366970  0.38715499  1
  Dy  Dy28  1  0.61348529  0.90382079  0.38715499  1
  Dy  Dy29  1  0.77366970  0.48333421  0.38715499  1
  Dy  Dy30  1  0.11348529  0.98333421  0.38715499  1
  Dy  Dy31  1  0.27366970  0.40382079  0.38715499  1
  Dy  Dy32  1  0.35097330  0.85097330  0.00000000  1
  Dy  Dy33  1  0.64902670  0.14902670  -0.00000000  1
  Dy  Dy34  1  0.14902670  0.35097330  0.00000000  1
  Dy  Dy35  1  0.85097330  0.64902670  0.00000000  1
  Dy  Dy36  1  0.88737263  0.38737263  0.77474726  1
  Dy  Dy37  1  0.38737263  0.88737263  0.77474726  1
  Dy  Dy38  1  0.11262737  0.61262737  0.22525274  1
  Dy  Dy39  1  0.61262737  0.11262737  0.22525274  1
  Dy  Dy40  1  0.75000000  0.25000000  0.50000000  1
  Dy  Dy41  1  0.25000000  0.75000000  0.50000000  1
  Rh  Rh0  1  0.21453946  0.71453946  0.78668926  1
  Rh  Rh1  1  0.57214881  0.07214881  0.78668926  1
  Rh  Rh2  1  0.07214881  0.21453946  0.78668926  1
  Rh  Rh3  1  0.71453946  0.57214881  0.78668926  1
  Rh  Rh4  1  0.78546054  0.28546054  0.21331074  1
  Rh  Rh5  1  0.42785119  0.92785119  0.21331074  1
  Rh  Rh6  1  0.92785119  0.78546054  0.21331074  1
  Rh  Rh7  1  0.28546054  0.42785119  0.21331074  1
  Rh  Rh8  1  0.96472239  0.46472239  0.62327445  1
  Rh  Rh9  1  0.65855205  0.15855205  0.62327445  1
  Rh  Rh10  1  0.15855205  0.96472239  0.62327445  1
  Rh  Rh11  1  0.46472239  0.65855205  0.62327445  1
  Rh  Rh12  1  0.03527761  0.53527761  0.37672555  1
  Rh  Rh13  1  0.34144795  0.84144795  0.37672555  1
  Rh  Rh14  1  0.84144795  0.03527761  0.37672555  1
  Rh  Rh15  1  0.53527761  0.34144795  0.37672555  1
  Rh  Rh16  1  0.09803299  0.59803299  0.00000000  1
  Rh  Rh17  1  0.90196701  0.40196701  -0.00000000  1
  Rh  Rh18  1  0.40196701  0.09803299  0.00000000  1
  Rh  Rh19  1  0.59803299  0.90196701  0.00000000  1
  Rh  Rh20  1  0.36737707  0.36737707  0.73475314  1
  Rh  Rh21  1  0.86737707  0.86737707  0.73475314  1
  Rh  Rh22  1  0.63262293  0.63262293  0.26524686  1
  Rh  Rh23  1  0.13262293  0.13262293  0.26524686  1
  Rh  Rh24  1  0.50000000  0.50000000  0.00000000  1
  Rh  Rh25  1  0.00000000  0.00000000  0.00000000  1
  Rh  Rh26  1  0.25000000  0.25000000  0.50000000  1
  Rh  Rh27  1  0.75000000  0.75000000  0.50000000  1
loop_
_geom_bond_atom_site_label_1
_geom_bond_atom_site_label_2
_geom_bond_distance
_geom_bond_site_symmetry_2
Dy0 Rh19 2.837383 1_556
Dy0 Rh20 2.848715 1_555
Dy0 Rh3 2.875227 1_555
Dy0 Rh24 2.996925 1_556
Dy0 Rh0 3.222915 1_555
Dy0 Rh11 3.418589 1_555
Dy0 Dy37 3.536712 1_555
Dy1 Rh18 2.837384 1_556
Dy1 Rh20 2.848724 1_555
Dy1 Rh2 2.875247 1_555
Dy1 Rh24 2.996922 1_556
Dy1 Rh1 3.222900 1_555
Dy1 Rh10 3.418591 1_545
Dy1 Dy37 3.536725 1_545
Dy2 Rh17 2.837384 1_556
Dy2 Rh21 2.848715 1_545
Dy2 Rh1 2.875248 1_555
Dy2 Rh25 2.996922 1_656
Dy2 Rh2 3.222896 1_655
Dy2 Rh9 3.418591 1_555
Dy2 Dy36 3.536704 1_555
Dy3 Rh16 2.837383 1_556
Dy3 Rh21 2.848724 1_455
Dy3 Rh0 2.875226 1_555
Dy3 Rh25 2.996925 1_566
Dy3 Rh3 3.222919 1_455
Dy3 Rh8 3.418588 1_455
Dy3 Dy36 3.536733 1_455
Dy4 Rh17 2.837384 1_556
Dy4 Rh20 2.848715 1_555
Dy4 Rh1 2.875248 1_555
Dy4 Rh24 2.996922 1_556
Dy4 Rh3 3.222896 1_555
Dy4 Rh9 3.418591 1_555
Dy5 Rh16 2.837383 1_556
Dy5 Rh20 2.848724 1_555
Dy5 Rh0 2.875226 1_555
Dy5 Rh24 2.996925 1_556
Dy5 Rh2 3.222919 1_555
Dy5 Rh8 3.418588 1_455
Dy6 Rh18 2.837383 1_556
Dy6 Rh21 2.848715 1_445
Dy6 Rh2 2.875227 1_555
Dy6 Rh25 2.996925 1_556
Dy6 Rh0 3.222915 1_545
Dy6 Rh10 3.418589 1_545
Dy7 Rh19 2.837384 1_556
Dy7 Rh21 2.848724 1_555
Dy7 Rh3 2.875247 1_555
Dy7 Rh25 2.996922 1_666
Dy7 Rh1 3.222900 1_565
Dy7 Rh11 3.418591 1_555
Dy8 Rh18 2.837383 1_555
Dy8 Rh22 2.848715 1_555
Dy8 Rh7 2.875227 1_555
Dy8 Rh24 2.996925 1_555
Dy8 Rh4 3.222915 1_555
Dy8 Rh15 3.418589 1_555
Dy9 Rh19 2.837384 1_555
Dy9 Rh22 2.848724 1_555
Dy9 Rh6 2.875247 1_555
Dy9 Rh24 2.996922 1_555
Dy9 Rh5 3.222900 1_555
Dy9 Rh14 3.418591 1_565
Dy10 Rh16 2.837384 1_555
Dy10 Rh23 2.848715 1_565
Dy10 Rh5 2.875248 1_555
Dy10 Rh25 2.996922 1_565
Dy10 Rh6 3.222896 1_455
Dy10 Rh13 3.418591 1_555
Dy10 Dy38 3.536704 1_555
Dy11 Rh17 2.837383 1_555
Dy11 Rh23 2.848724 1_655
Dy11 Rh4 2.875226 1_555
Dy11 Rh25 2.996925 1_655
Dy11 Rh7 3.222919 1_655
Dy11 Rh12 3.418588 1_655
Dy11 Dy38 3.536733 1_655
Dy12 Rh16 2.837384 1_555
Dy12 Rh22 2.848715 1_555
Dy12 Rh5 2.875248 1_555
Dy12 Rh24 2.996922 1_555
Dy12 Rh7 3.222896 1_555
Dy12 Rh13 3.418591 1_555
Dy12 Dy38 3.536704 1_555
Dy13 Rh17 2.837383 1_555
Dy13 Rh22 2.848724 1_555
Dy13 Rh4 2.875226 1_555
Dy13 Rh24 2.996925 1_555
Dy13 Rh6 3.222919 1_555
Dy13 Rh12 3.418588 1_655
Dy13 Dy38 3.536733 1_655
Dy14 Rh19 2.837383 1_555
Dy14 Rh23 2.848715 1_665
Dy14 Rh6 2.875227 1_555
Dy14 Rh25 2.996925 1_665
Dy14 Rh4 3.222915 1_565
Dy14 Rh14 3.418589 1_565
Dy14 Dy39 3.536712 1_565
Dy15 Rh18 2.837384 1_555
Dy15 Rh23 2.848724 1_555
Dy15 Rh7 2.875247 1_555
Dy15 Rh25 2.996922 1_555
Dy15 Rh5 3.222900 1_545
Dy15 Rh15 3.418591 1_555
Dy15 Dy39 3.536725 1_555
Dy16 Rh3 2.717244 1_555
Dy16 Rh26 2.861795 1_555
Dy16 Rh20 2.918699 1_555
Dy16 Rh9 2.999153 1_555
Dy16 Rh11 3.027917 1_555
Dy16 Rh15 3.401611 1_555
Dy17 Rh2 2.717254 1_555
Dy17 Rh26 2.861795 1_555
Dy17 Rh20 2.918711 1_555
Dy17 Rh8 2.999153 1_455
Dy17 Rh10 3.027917 1_545
Dy17 Rh14 3.401610 1_455
Dy18 Rh1 2.717249 1_565
Dy18 Rh27 2.861795 1_555
Dy18 Rh21 2.918708 1_555
Dy18 Rh11 2.999154 1_555
Dy18 Rh9 3.027917 1_565
Dy18 Rh13 3.401610 1_555
Dy19 Rh0 2.717249 1_555
Dy19 Rh27 2.861795 1_455
Dy19 Rh21 2.918702 1_455
Dy19 Rh10 2.999153 1_555
Dy19 Rh8 3.027917 1_455
Dy19 Rh12 3.401611 1_555
Dy20 Rh1 2.717249 1_555
Dy20 Rh26 2.861795 1_555
Dy20 Rh20 2.918708 1_555
Dy20 Rh10 2.999154 1_545
Dy20 Rh9 3.027917 1_555
Dy20 Rh13 3.401610 1_545
Dy21 Rh0 2.717249 1_555
Dy21 Rh26 2.861795 1_555
Dy21 Rh20 2.918702 1_555
Dy21 Rh11 2.999153 1_555
Dy21 Rh8 3.027917 1_455
Dy21 Rh12 3.401611 1_555
Dy22 Rh2 2.717244 1_655
Dy22 Rh27 2.861795 1_545
Dy22 Rh21 2.918699 1_545
Dy22 Rh9 2.999153 1_555
Dy22 Rh10 3.027917 1_645
Dy22 Rh14 3.401611 1_555
Dy23 Rh3 2.717254 1_555
Dy23 Rh27 2.861795 1_555
Dy23 Rh21 2.918711 1_555
Dy23 Rh8 2.999153 1_555
Dy23 Rh11 3.027917 1_555
Dy23 Rh15 3.401610 1_555
Dy24 Rh7 2.717244 1_555
Dy24 Rh27 2.861795 1_555
Dy24 Rh22 2.918699 1_555
Dy24 Rh13 2.999153 1_555
Dy24 Rh15 3.027917 1_555
Dy24 Rh11 3.401611 1_555
Dy25 Rh6 2.717254 1_555
Dy25 Rh27 2.861795 1_555
Dy25 Rh22 2.918711 1_555
Dy25 Rh12 2.999153 1_655
Dy25 Rh14 3.027917 1_565
Dy25 Rh10 3.401610 1_655
Dy26 Rh5 2.717249 1_545
Dy26 Rh26 2.861795 1_555
Dy26 Rh23 2.918708 1_555
Dy26 Rh15 2.999154 1_555
Dy26 Rh13 3.027917 1_545
Dy26 Rh9 3.401610 1_555
Dy27 Rh4 2.717249 1_555
Dy27 Rh26 2.861795 1_655
Dy27 Rh23 2.918702 1_655
Dy27 Rh14 2.999153 1_555
Dy27 Rh12 3.027917 1_655
Dy27 Rh8 3.401611 1_555
Dy28 Rh5 2.717249 1_555
Dy28 Rh27 2.861795 1_555
Dy28 Rh22 2.918708 1_555
Dy28 Rh14 2.999154 1_565
Dy28 Rh13 3.027917 1_555
Dy28 Rh9 3.401610 1_565
Dy29 Rh4 2.717249 1_555
Dy29 Rh27 2.861795 1_555
Dy29 Rh22 2.918702 1_555
Dy29 Rh15 2.999153 1_555
Dy29 Rh12 3.027917 1_655
Dy29 Rh8 3.401611 1_555
Dy30 Rh6 2.717244 1_455
Dy30 Rh26 2.861795 1_565
Dy30 Rh23 2.918699 1_565
Dy30 Rh13 2.999153 1_555
Dy30 Rh14 3.027917 1_465
Dy30 Rh10 3.401611 1_555
Dy31 Rh7 2.717254 1_555
Dy31 Rh26 2.861795 1_555
Dy31 Rh23 2.918711 1_555
Dy31 Rh12 2.999153 1_555
Dy31 Rh15 3.027917 1_555
Dy31 Rh11 3.401610 1_555
Dy32 Rh5 2.693211 1_555
Dy32 Rh0 2.693214 1_554
Dy32 Rh19 2.796668 1_555
Dy32 Rh18 2.796668 1_565
Dy33 Rh1 2.693211 1_554
Dy33 Rh4 2.693214 1_555
Dy33 Rh19 2.796668 1_545
Dy33 Rh18 2.796668 1_555
Dy34 Rh2 2.693213 1_554
Dy34 Rh7 2.693213 1_555
Dy34 Rh17 2.796668 1_455
Dy34 Rh16 2.796668 1_555
Dy35 Rh3 2.693213 1_554
Dy35 Rh6 2.693213 1_555
Dy35 Rh17 2.796668 1_555
Dy35 Rh16 2.796668 1_655
Dy36 Rh2 2.807257 1_655
Dy36 Rh3 2.807257 1_555
Dy36 Rh9 3.050896 1_555
Dy36 Rh8 3.050921 1_555
Dy36 Rh17 3.194914 1_556
Dy36 Rh16 3.194929 1_656
Dy36 Dy40 3.416379 1_555
Dy36 Dy4 3.536704 1_555
Dy36 Dy5 3.536733 1_655
Dy37 Rh0 2.807249 1_555
Dy37 Rh1 2.807265 1_565
Dy37 Rh11 3.050909 1_555
Dy37 Rh10 3.050909 1_555
Dy37 Rh19 3.194921 1_556
Dy37 Rh18 3.194921 1_566
Dy37 Dy41 3.416379 1_555
Dy37 Dy6 3.536712 1_565
Dy37 Dy7 3.536725 1_555
Dy38 Rh7 2.807257 1_555
Dy38 Rh6 2.807257 1_455
Dy38 Rh13 3.050896 1_555
Dy38 Rh12 3.050921 1_555
Dy38 Rh16 3.194914 1_555
Dy38 Rh17 3.194929 1_455
Dy38 Dy41 3.416379 1_555
Dy39 Rh4 2.807249 1_555
Dy39 Rh5 2.807265 1_545
Dy39 Rh15 3.050909 1_555
Dy39 Rh14 3.050909 1_555
Dy39 Rh18 3.194921 1_555
Dy39 Rh19 3.194921 1_545
Dy39 Dy40 3.416379 1_555
Dy39 Dy8 3.536712 1_555
Dy39 Dy9 3.536725 1_545
Dy40 Rh8 2.847830 1_555
Dy40 Rh14 2.847830 1_555
Dy40 Rh15 2.847830 1_555
Dy40 Rh9 2.847831 1_555
Dy41 Rh12 2.847830 1_555
Dy41 Rh11 2.847830 1_555
Dy41 Rh10 2.847830 1_555
Dy41 Rh13 2.847831 1_555
Rh0 Rh8 3.328013 1_455
Rh1 Rh9 3.328026 1_555
Rh10 Rh2 3.328020 1_565
Rh11 Rh3 3.328020 1_555
Rh12 Rh4 3.328013 1_455
Rh13 Rh5 3.328026 1_555
Rh14 Rh6 3.328020 1_545
Rh15 Rh7 3.328020 1_555
Rh16 Rh17 3.073952 1_455
Rh18 Rh19 3.073952 1_545
Rh20 Rh26 2.919067 1_555
Rh20 Rh24 3.298245 1_556
Rh21 Rh27 2.919067 1_555
Rh21 Rh25 3.298245 1_666
Rh22 Rh27 2.919067 1_555
Rh22 Rh24 3.298245 1_555
Rh23 Rh26 2.919067 1_555
Rh23 Rh25 3.298245 1_555
