# generated using pymatgen
data_Ba2Ca2Tl2Fe3O10
_symmetry_space_group_name_H-M   'P 1'
_cell_length_a   3.96159900
_cell_length_b   3.98787001
_cell_length_c   18.60019658
_cell_angle_alpha   96.05126217
_cell_angle_beta   95.88002485
_cell_angle_gamma   89.99643686
_symmetry_Int_Tables_number   1
_chemical_formula_structural   Ba2Ca2Tl2Fe3O10
_chemical_formula_sum   'Ba2 Ca2 Tl2 Fe3 O10'
_cell_volume   290.66032546
_cell_formula_units_Z   1
loop_
 _symmetry_equiv_pos_site_id
 _symmetry_equiv_pos_as_xyz
  1  'x, y, z'
loop_
 _atom_site_type_symbol
 _atom_site_label
 _atom_site_symmetry_multiplicity
 _atom_site_fract_x
 _atom_site_fract_y
 _atom_site_fract_z
 _atom_site_occupancy
  Ba  Ba0  1  0.83731200  0.90788800  0.71328200  1
  Ba  Ba1  1  0.16335600  0.20821900  0.28767600  1
  Ca  Ca0  1  0.05781100  0.11721600  0.09123400  1
  Ca  Ca1  1  0.93586600  0.01634700  0.91002000  1
  Tl  Tl0  1  0.27762600  0.38319800  0.56242500  1
  Tl  Tl1  1  0.72786700  0.82421700  0.43825000  1
  Fe  Fe0  1  0.60694500  0.65734500  0.17592700  1
  Fe  Fe1  1  0.38989300  0.46845700  0.82543100  1
  Fe  Fe2  1  0.49482300  0.57020500  0.00058700  1
  O  O0  1  0.10577000  0.65659100  0.17261900  1
  O  O1  1  0.67992100  0.71292200  0.32297600  1
  O  O2  1  0.60575700  0.15615700  0.17328200  1
  O  O3  1  0.23273100  0.15738900  0.45042200  1
  O  O4  1  0.49404900  0.07051400  0.00038600  1
  O  O5  1  0.39069800  0.96941600  0.82773600  1
  O  O6  1  0.32325700  0.37740600  0.67724800  1
  O  O7  1  0.89110000  0.47053900  0.82853600  1
  O  O8  1  0.77254300  0.70327500  0.55029300  1
  O  O9  1  0.99471100  0.57161300  0.00070800  1
loop_
_geom_bond_atom_site_label_1
_geom_bond_atom_site_label_2
_geom_bond_distance
_geom_bond_site_symmetry_2
Ba0 O6 2.843715 1_565
Ba0 O6 2.861906 1_665
Ba0 O5 2.886541 1_655
Ba0 O7 2.894402 1_555
Ba0 O5 2.895563 1_555
Ba0 O6 2.914398 1_555
Ba0 O7 2.927101 1_565
Ba0 O6 2.931815 1_655
Ba0 O8 3.039984 1_555
Ba1 O1 2.848941 1_555
Ba1 O1 2.851047 1_455
Ba1 O2 2.883223 1_555
Ba1 O0 2.894592 1_545
Ba1 O2 2.897228 1_455
Ba1 O1 2.918547 1_545
Ba1 O1 2.920939 1_445
Ba1 O0 2.921612 1_555
Ba1 O3 3.039557 1_555
Ca0 O2 2.463791 1_455
Ca0 O0 2.491758 1_555
Ca0 O0 2.495829 1_545
Ca0 O2 2.517252 1_555
Ca0 O4 2.531542 1_555
Ca0 O9 2.595823 1_455
Ca0 O9 2.602529 1_445
Ca0 O4 2.653035 1_455
Ca1 O5 2.475634 1_645
Ca1 O7 2.476465 1_555
Ca1 O5 2.510839 1_545
Ca1 O7 2.513092 1_545
Ca1 O4 2.541963 1_556
Ca1 O9 2.568124 1_546
Ca1 O4 2.631281 1_656
Ca1 O9 2.633425 1_556
Fe0 O0 1.980090 1_555
Fe0 O0 1.983385 1_655
Fe0 O2 1.994080 1_555
Fe0 O2 1.994977 1_565
Fe0 O1 2.706266 1_555
Fe1 O7 1.980490 1_555
Fe1 O7 1.982758 1_455
Fe1 O5 1.993691 1_555
Fe1 O5 1.995081 1_545
Fe1 O6 2.727321 1_555
Fe2 O9 1.980134 1_555
Fe2 O9 1.981482 1_455
Fe2 O4 1.992314 1_555
Fe2 O4 1.995566 1_565
O1 Tl1 2.132191 1_555
O3 Tl0 2.170519 1_555
O3 Tl1 2.379278 1_445
O3 Tl1 2.385667 1_545
O6 Tl0 2.127405 1_555
O8 Tl1 2.177939 1_555
O8 Tl0 2.377357 1_655
O8 Tl0 2.382451 1_555
