# generated using pymatgen
data_Sm(GaS2)2
_symmetry_space_group_name_H-M   'P 1'
_cell_length_a   5.79853062
_cell_length_b   5.79853062
_cell_length_c   10.04522600
_cell_angle_alpha   90.00000000
_cell_angle_beta   90.00000000
_cell_angle_gamma   114.67447722
_symmetry_Int_Tables_number   1
_chemical_formula_structural   Sm(GaS2)2
_chemical_formula_sum   'Sm2 Ga4 S8'
_cell_volume   306.91166295
_cell_formula_units_Z   2
loop_
 _symmetry_equiv_pos_site_id
 _symmetry_equiv_pos_as_xyz
  1  'x, y, z'
loop_
 _atom_site_type_symbol
 _atom_site_label
 _atom_site_symmetry_multiplicity
 _atom_site_fract_x
 _atom_site_fract_y
 _atom_site_fract_z
 _atom_site_occupancy
  Sm  Sm0  1  0.50000000  0.50000000  0.75000000  1
  Sm  Sm1  1  0.50000000  0.50000000  0.25000000  1
  Ga  Ga0  1  0.78546900  0.22528700  0.50000000  1
  Ga  Ga1  1  0.21453100  0.77471400  0.50000000  1
  Ga  Ga2  1  0.77471300  0.21453100  0.00000000  1
  Ga  Ga3  1  0.22528700  0.78546900  0.00000000  1
  S  S0  1  0.35917600  0.21717000  0.50000000  1
  S  S1  1  0.64082400  0.78283000  0.50000000  1
  S  S2  1  0.78283000  0.64082400  0.00000000  1
  S  S3  1  0.21717000  0.35917600  0.00000000  1
  S  S4  1  0.50000000  0.00000000  0.82027800  1
  S  S5  1  0.00000000  0.50000000  0.67972200  1
  S  S6  1  0.50000000  0.00000000  0.17972200  1
  S  S7  1  0.00000000  0.50000000  0.32027800  1
loop_
_geom_bond_atom_site_label_1
_geom_bond_atom_site_label_2
_geom_bond_distance
_geom_bond_site_symmetry_2
Ga0 S1 2.342892 1_545
Ga0 S7 2.385312 1_655
Ga0 S5 2.385312 1_655
Ga0 S0 2.452597 1_555
Ga1 S0 2.342887 1_565
Ga1 S5 2.385315 1_555
Ga1 S7 2.385315 1_555
Ga1 S1 2.452600 1_555
Ga2 S3 2.342892 1_655
Ga2 S6 2.385312 1_555
Ga2 S4 2.385312 1_554
Ga2 S2 2.452597 1_555
Ga3 S2 2.342892 1_455
Ga3 S6 2.385312 1_565
Ga3 S4 2.385312 1_564
Ga3 S3 2.452597 1_555
S0 Sm1 2.923172 1_555
S0 Sm0 2.923172 1_555
S1 Sm1 2.923172 1_555
S1 Sm0 2.923172 1_555
S2 Sm1 2.923172 1_555
S2 Sm0 2.923172 1_554
S3 Sm1 2.923172 1_555
S3 Sm0 2.923172 1_554
S4 Sm0 2.983977 1_555
S4 Sm0 2.983977 1_545
S5 Sm0 2.983977 1_555
S5 Sm0 2.983977 1_455
S6 Sm1 2.983977 1_555
S6 Sm1 2.983977 1_545
S7 Sm1 2.983977 1_555
S7 Sm1 2.983977 1_455
