# generated using pymatgen
data_Mg6BiC
_symmetry_space_group_name_H-M   'P 1'
_cell_length_a   4.90838000
_cell_length_b   6.25939300
_cell_length_c   11.02677300
_cell_angle_alpha   90.00000000
_cell_angle_beta   90.00000000
_cell_angle_gamma   90.00000000
_symmetry_Int_Tables_number   1
_chemical_formula_structural   Mg6BiC
_chemical_formula_sum   'Mg12 Bi2 C2'
_cell_volume   338.78083326
_cell_formula_units_Z   2
loop_
 _symmetry_equiv_pos_site_id
 _symmetry_equiv_pos_as_xyz
  1  'x, y, z'
loop_
 _atom_site_type_symbol
 _atom_site_label
 _atom_site_symmetry_multiplicity
 _atom_site_fract_x
 _atom_site_fract_y
 _atom_site_fract_z
 _atom_site_occupancy
  Mg  Mg0  1  0.50000000  0.24850500  0.41571000  1
  Mg  Mg1  1  0.50000000  0.75149500  0.41571000  1
  Mg  Mg2  1  0.00000000  0.77095700  0.08562900  1
  Mg  Mg3  1  0.00000000  0.22904300  0.08562900  1
  Mg  Mg4  1  0.00000000  0.00000000  0.32379300  1
  Mg  Mg5  1  0.00000000  0.50000000  0.33855800  1
  Mg  Mg6  1  0.50000000  0.74850500  0.91571000  1
  Mg  Mg7  1  0.50000000  0.25149500  0.91571000  1
  Mg  Mg8  1  0.00000000  0.27095700  0.58562900  1
  Mg  Mg9  1  0.00000000  0.72904300  0.58562900  1
  Mg  Mg10  1  0.00000000  0.50000000  0.82379300  1
  Mg  Mg11  1  0.00000000  0.00000000  0.83855800  1
  Bi  Bi0  1  0.50000000  0.50000000  0.16680500  1
  Bi  Bi1  1  0.50000000  0.00000000  0.66680500  1
  C  C0  1  0.50000000  0.00000000  0.16816200  1
  C  C1  1  0.50000000  0.50000000  0.66816200  1
loop_
_geom_bond_atom_site_label_1
_geom_bond_atom_site_label_2
_geom_bond_distance
_geom_bond_site_symmetry_2
Mg0 Mg5 3.037257 1_655
Mg0 Mg5 3.037257 1_555
Mg0 Mg4 3.077317 1_655
Mg0 Mg4 3.077317 1_555
Mg0 Mg8 3.090857 1_655
Mg0 Mg8 3.090857 1_555
Mg0 Mg1 3.110981 1_545
Mg0 Mg1 3.148412 1_555
Mg1 Mg5 3.037257 1_655
Mg1 Mg5 3.037257 1_555
Mg1 Mg4 3.077317 1_565
Mg1 Mg4 3.077317 1_665
Mg1 Mg9 3.090857 1_555
Mg1 Mg9 3.090857 1_655
Mg2 Mg6 3.090857 1_454
Mg2 Mg6 3.090857 1_554
Mg3 Mg7 3.090857 1_454
Mg3 Mg7 3.090857 1_554
Mg6 Mg7 3.110981 1_555
Mg6 Mg7 3.148412 1_565
Mg10 Mg7 3.077317 1_555
Mg10 Mg6 3.077317 1_455
Mg10 Mg7 3.077317 1_455
Mg10 Mg6 3.077317 1_555
Mg11 Mg7 3.037257 1_455
Mg11 Mg6 3.037257 1_545
Mg11 Mg7 3.037257 1_555
Mg11 Mg6 3.037257 1_445
Bi0 Mg5 3.099973 1_555
Bi0 Mg5 3.099973 1_655
Bi0 Mg2 3.114607 1_655
Bi0 Mg3 3.114607 1_555
Bi0 Mg3 3.114607 1_655
Bi0 Mg2 3.114607 1_555
Bi0 Mg1 3.164026 1_555
Bi0 Mg0 3.164026 1_555
Bi0 Mg6 3.175787 1_554
Bi0 Mg7 3.175787 1_554
Bi1 Mg11 3.099973 1_655
Bi1 Mg11 3.099973 1_555
Bi1 Mg8 3.114607 1_555
Bi1 Mg9 3.114607 1_645
Bi1 Mg8 3.114607 1_655
Bi1 Mg9 3.114607 1_545
Bi1 Mg6 3.164026 1_545
Bi1 Mg7 3.164026 1_555
Bi1 Mg1 3.175787 1_545
Bi1 Mg0 3.175787 1_555
