# generated using pymatgen
data_SmTh
_symmetry_space_group_name_H-M   'P 1'
_cell_length_a   12.35873117
_cell_length_b   12.35873117
_cell_length_c   12.35873098
_cell_angle_alpha   33.85531549
_cell_angle_beta   33.85531549
_cell_angle_gamma   33.85530975
_symmetry_Int_Tables_number   1
_chemical_formula_structural   SmTh
_chemical_formula_sum   'Sm8 Th8'
_cell_volume   522.08454655
_cell_formula_units_Z   8
loop_
 _symmetry_equiv_pos_site_id
 _symmetry_equiv_pos_as_xyz
  1  'x, y, z'
loop_
 _atom_site_type_symbol
 _atom_site_label
 _atom_site_symmetry_multiplicity
 _atom_site_fract_x
 _atom_site_fract_y
 _atom_site_fract_z
 _atom_site_occupancy
  Sm  Sm0_0  1  0.00000000  0.00000000  0.00000000  1
  Sm  Sm0_1  1  0.00000000  0.00000000  0.50000000  1
  Sm  Sm0_2  1  0.00000000  0.50000000  0.00000000  1
  Sm  Sm0_3  1  0.00000000  0.50000000  0.50000000  1
  Sm  Sm0_4  1  0.50000000  0.00000000  0.00000000  1
  Sm  Sm0_5  1  0.50000000  0.00000000  0.50000000  1
  Sm  Sm0_6  1  0.50000000  0.50000000  0.00000000  1
  Sm  Sm0_7  1  0.50000000  0.50000000  0.50000000  1
  Th  Th0_0  1  0.25000000  0.25000000  0.25000000  1
  Th  Th0_1  1  0.25000000  0.25000000  0.75000000  1
  Th  Th0_2  1  0.25000000  0.75000000  0.25000000  1
  Th  Th0_3  1  0.25000000  0.75000000  0.75000000  1
  Th  Th0_4  1  0.75000000  0.25000000  0.25000000  1
  Th  Th0_5  1  0.75000000  0.25000000  0.75000000  1
  Th  Th0_6  1  0.75000000  0.75000000  0.25000000  1
  Th  Th0_7  1  0.75000000  0.75000000  0.75000000  1
loop_
_geom_bond_atom_site_label_1
_geom_bond_atom_site_label_2
_geom_bond_distance
_geom_bond_site_symmetry_2
Sm0_0 Th0_5 3.575373 1_454
Sm0_0 Th0_3 3.575373 1_544
Sm0_0 Th0_4 3.575373 1_455
Sm0_0 Th0_2 3.575373 1_545
Sm0_0 Th0_6 3.575373 1_445
Sm0_0 Th0_1 3.575373 1_554
Sm0_0 Sm0_6 3.598417 1_545
Sm0_0 Sm0_6 3.598417 1_455
Sm0_0 Sm0_5 3.598418 1_554
Sm0_0 Sm0_5 3.598418 1_455
Sm0_0 Sm0_3 3.598418 1_545
Sm0_0 Sm0_3 3.598418 1_554
Sm0_1 Th0_2 3.575373 1_545
Sm0_1 Th0_4 3.575373 1_455
Sm0_1 Th0_3 3.575373 1_545
Sm0_1 Th0_5 3.575373 1_455
Sm0_1 Th0_7 3.575373 1_445
Sm0_1 Th0_0 3.575373 1_555
Sm0_1 Sm0_7 3.598417 1_455
Sm0_1 Sm0_7 3.598417 1_545
Sm0_1 Sm0_2 3.598418 1_555
Sm0_1 Sm0_4 3.598418 1_456
Sm0_1 Sm0_2 3.598418 1_546
Sm0_1 Sm0_4 3.598418 1_555
Sm0_2 Th0_7 3.575373 1_454
Sm0_2 Th0_1 3.575373 1_554
Sm0_2 Th0_6 3.575373 1_455
Sm0_2 Th0_0 3.575373 1_555
Sm0_2 Th0_4 3.575373 1_455
Sm0_2 Th0_3 3.575373 1_554
Sm0_2 Sm0_4 3.598417 1_555
Sm0_2 Sm0_4 3.598417 1_465
Sm0_2 Sm0_7 3.598418 1_455
Sm0_2 Sm0_7 3.598418 1_554
Sm0_3 Th0_0 3.575373 1_555
Sm0_3 Th0_1 3.575373 1_555
Sm0_3 Th0_6 3.575373 1_455
Sm0_3 Th0_7 3.575373 1_455
Sm0_3 Th0_5 3.575373 1_455
Sm0_3 Th0_2 3.575373 1_555
Sm0_3 Sm0_5 3.598417 1_555
Sm0_3 Sm0_5 3.598417 1_465
Sm0_3 Sm0_6 3.598418 1_555
Sm0_3 Sm0_6 3.598418 1_456
Sm0_4 Th0_7 3.575373 1_544
Sm0_4 Th0_1 3.575373 1_554
Sm0_4 Th0_6 3.575373 1_545
Sm0_4 Th0_0 3.575373 1_555
Sm0_4 Th0_2 3.575373 1_545
Sm0_4 Th0_5 3.575373 1_554
Sm0_4 Sm0_7 3.598418 1_545
Sm0_4 Sm0_7 3.598418 1_554
Sm0_5 Th0_0 3.575373 1_555
Sm0_5 Th0_1 3.575373 1_555
Sm0_5 Th0_6 3.575373 1_545
Sm0_5 Th0_7 3.575373 1_545
Sm0_5 Th0_3 3.575373 1_545
Sm0_5 Th0_4 3.575373 1_555
Sm0_5 Sm0_6 3.598418 1_555
Sm0_5 Sm0_6 3.598418 1_546
Sm0_6 Th0_5 3.575373 1_554
Sm0_6 Th0_3 3.575373 1_554
Sm0_6 Th0_4 3.575373 1_555
Sm0_6 Th0_2 3.575373 1_555
Sm0_6 Th0_0 3.575373 1_555
Sm0_6 Th0_7 3.575373 1_554
Sm0_7 Th0_5 3.575373 1_555
Sm0_7 Th0_3 3.575373 1_555
Sm0_7 Th0_2 3.575373 1_555
Sm0_7 Th0_4 3.575373 1_555
Sm0_7 Th0_6 3.575373 1_555
Sm0_7 Th0_1 3.575373 1_555
Th0_0 Th0_6 3.598417 1_545
Th0_0 Th0_6 3.598417 1_455
Th0_0 Th0_5 3.598418 1_554
Th0_0 Th0_3 3.598418 1_545
Th0_0 Th0_5 3.598418 1_455
Th0_0 Th0_3 3.598418 1_554
Th0_1 Th0_7 3.598417 1_455
Th0_1 Th0_7 3.598417 1_545
Th0_1 Th0_4 3.598418 1_456
Th0_1 Th0_2 3.598418 1_546
Th0_1 Th0_2 3.598418 1_555
Th0_1 Th0_4 3.598418 1_555
Th0_2 Th0_4 3.598417 1_465
Th0_2 Th0_4 3.598417 1_555
Th0_2 Th0_7 3.598418 1_455
Th0_2 Th0_7 3.598418 1_554
Th0_3 Th0_5 3.598417 1_555
Th0_3 Th0_5 3.598417 1_465
Th0_3 Th0_6 3.598418 1_555
Th0_3 Th0_6 3.598418 1_456
Th0_4 Th0_7 3.598418 1_554
Th0_4 Th0_7 3.598418 1_545
Th0_5 Th0_6 3.598418 1_555
Th0_5 Th0_6 3.598418 1_546
