# generated using pymatgen
data_Ca5(BN2)3
_symmetry_space_group_name_H-M   'P 1'
_cell_length_a   6.40467355
_cell_length_b   6.40467355
_cell_length_c   6.40467355
_cell_angle_alpha   109.47122063
_cell_angle_beta   109.47122063
_cell_angle_gamma   109.47122063
_symmetry_Int_Tables_number   1
_chemical_formula_structural   Ca5(BN2)3
_chemical_formula_sum   'Ca5 B3 N6'
_cell_volume   202.24095393
_cell_formula_units_Z   1
loop_
 _symmetry_equiv_pos_site_id
 _symmetry_equiv_pos_as_xyz
  1  'x, y, z'
loop_
 _atom_site_type_symbol
 _atom_site_label
 _atom_site_symmetry_multiplicity
 _atom_site_fract_x
 _atom_site_fract_y
 _atom_site_fract_z
 _atom_site_occupancy
  Ca  Ca0  1  0.50000000  0.50000000  0.50000000  1
  Ca  Ca1  1  0.00000000  0.00000000  0.50000000  1
  Ca  Ca2  1  0.00000000  0.50000000  0.00000000  1
  Ca  Ca3  1  0.50000000  0.00000000  0.00000000  1
  Ca  Ca4  1  0.00000000  0.00000000  0.00000000  1
  B  B0  1  0.00000000  0.50000000  0.50000000  1
  B  B1  1  0.50000000  0.00000000  0.50000000  1
  B  B2  1  0.50000000  0.50000000  0.00000000  1
  N  N0  1  0.00000000  0.31761400  0.31761400  1
  N  N1  1  0.00000000  0.68238600  0.68238600  1
  N  N2  1  0.31761400  0.00000000  0.31761400  1
  N  N3  1  0.68238600  0.00000000  0.68238600  1
  N  N4  1  0.31761400  0.31761400  0.00000000  1
  N  N5  1  0.68238600  0.68238600  0.00000000  1
loop_
_geom_bond_atom_site_label_1
_geom_bond_atom_site_label_2
_geom_bond_distance
_geom_bond_site_symmetry_2
Ca0 N2 2.662082 1_555
Ca0 N1 2.662082 1_655
Ca0 N3 2.662082 1_565
Ca0 N5 2.662082 1_556
Ca0 N0 2.662082 1_555
Ca0 N4 2.662082 1_555
Ca1 N2 2.662082 1_555
Ca1 N4 2.662082 1_556
Ca1 N1 2.662082 1_545
Ca1 N0 2.662082 1_555
Ca1 N5 2.662082 1_445
Ca1 N3 2.662082 1_455
Ca2 N5 2.662082 1_455
Ca2 N0 2.662082 1_555
Ca2 N4 2.662082 1_555
Ca2 N2 2.662082 1_565
Ca2 N3 2.662082 1_454
Ca2 N1 2.662082 1_554
Ca3 N2 2.662082 1_555
Ca3 N1 2.662082 1_544
Ca3 N3 2.662082 1_554
Ca3 N0 2.662082 1_655
Ca3 N4 2.662082 1_555
Ca3 N5 2.662082 1_545
Ca4 N3 2.348908 1_454
Ca4 N1 2.348908 1_544
Ca4 N5 2.348908 1_445
Ca4 N0 2.348908 1_555
Ca4 N2 2.348908 1_555
Ca4 N4 2.348908 1_555
B0 N0 1.348832 1_555
B0 N1 1.348832 1_555
B1 N2 1.348832 1_555
B1 N3 1.348832 1_555
B2 N4 1.348832 1_555
B2 N5 1.348832 1_555
