# generated using pymatgen
data_KSrTbSbO6
_symmetry_space_group_name_H-M   'P 1'
_cell_length_a   8.46530979
_cell_length_b   8.46719547
_cell_length_c   8.42193648
_cell_angle_alpha   90.00000000
_cell_angle_beta   90.00000000
_cell_angle_gamma   90.00000000
_symmetry_Int_Tables_number   1
_chemical_formula_structural   KSrTbSbO6
_chemical_formula_sum   'K4 Sr4 Tb4 Sb4 O24'
_cell_volume   603.66278530
_cell_formula_units_Z   4
loop_
 _symmetry_equiv_pos_site_id
 _symmetry_equiv_pos_as_xyz
  1  'x, y, z'
loop_
 _atom_site_type_symbol
 _atom_site_label
 _atom_site_symmetry_multiplicity
 _atom_site_fract_x
 _atom_site_fract_y
 _atom_site_fract_z
 _atom_site_occupancy
  K  K0  1  0.00000000  0.50000000  0.50000000  1
  K  K1  1  0.50000000  0.00000000  0.50000000  1
  K  K2  1  0.50000000  0.00000000  0.00000000  1
  K  K3  1  0.00000000  0.50000000  0.00000000  1
  Sr  Sr0  1  0.50000000  0.50000000  0.00000000  1
  Sr  Sr1  1  0.00000000  0.00000000  0.50000000  1
  Sr  Sr2  1  0.00000000  0.00000000  0.00000000  1
  Sr  Sr3  1  0.50000000  0.50000000  0.50000000  1
  Tb  Tb0  1  0.25000000  0.25000000  0.25000000  1
  Tb  Tb1  1  0.75000000  0.75000000  0.25000000  1
  Tb  Tb2  1  0.75000000  0.25000000  0.75000000  1
  Tb  Tb3  1  0.25000000  0.75000000  0.75000000  1
  Sb  Sb0  1  0.75000000  0.75000000  0.75000000  1
  Sb  Sb1  1  0.25000000  0.25000000  0.75000000  1
  Sb  Sb2  1  0.25000000  0.75000000  0.25000000  1
  Sb  Sb3  1  0.75000000  0.25000000  0.25000000  1
  O  O0  1  0.98609757  0.23236356  0.25526663  1
  O  O1  1  0.01390243  0.76763644  0.25526663  1
  O  O2  1  0.01390243  0.23236356  0.74473337  1
  O  O3  1  0.98609757  0.76763644  0.74473337  1
  O  O4  1  0.24328653  0.98601662  0.24454227  1
  O  O5  1  0.24328653  0.01398338  0.75545773  1
  O  O6  1  0.75671347  0.01398338  0.24454227  1
  O  O7  1  0.75671347  0.98601662  0.75545773  1
  O  O8  1  0.24524101  0.25464478  0.98594141  1
  O  O9  1  0.75475899  0.25464478  0.01405859  1
  O  O10  1  0.24524101  0.74535522  0.01405859  1
  O  O11  1  0.75475899  0.74535522  0.98594141  1
  O  O12  1  0.51390243  0.26763644  0.24473337  1
  O  O13  1  0.48609757  0.73236356  0.24473337  1
  O  O14  1  0.48609757  0.26763644  0.75526663  1
  O  O15  1  0.51390243  0.73236356  0.75526663  1
  O  O16  1  0.25671347  0.51398338  0.25545773  1
  O  O17  1  0.25671347  0.48601662  0.74454227  1
  O  O18  1  0.74328653  0.48601662  0.25545773  1
  O  O19  1  0.74328653  0.51398338  0.74454227  1
  O  O20  1  0.25475899  0.24535522  0.51405859  1
  O  O21  1  0.74524101  0.24535522  0.48594141  1
  O  O22  1  0.25475899  0.75464478  0.48594141  1
  O  O23  1  0.74524101  0.75464478  0.51405859  1
loop_
_geom_bond_atom_site_label_1
_geom_bond_atom_site_label_2
_geom_bond_distance
_geom_bond_site_symmetry_2
K0 O17 2.996374 1_555
K0 O19 2.996374 1_455
K0 O18 2.996374 1_455
K0 O16 2.996374 1_555
K0 O22 3.051866 1_555
K0 O23 3.051866 1_455
K0 O20 3.051866 1_555
K0 O21 3.051866 1_455
K0 O2 3.065526 1_555
K0 O3 3.065526 1_455
K0 O0 3.065526 1_455
K0 O1 3.065526 1_555
K1 O22 2.939362 1_545
K1 O21 2.939362 1_555
K1 O23 2.939362 1_545
K1 O20 2.939362 1_555
K1 O5 3.060289 1_555
K1 O6 3.060289 1_555
K1 O7 3.060289 1_545
K1 O4 3.060289 1_545
K1 O13 3.125861 1_545
K1 O12 3.125861 1_555
K1 O15 3.125861 1_545
K1 O14 3.125861 1_555
K2 O5 2.996374 1_554
K2 O7 2.996374 1_544
K2 O6 2.996374 1_555
K2 O4 2.996374 1_545
K2 O10 3.051866 1_545
K2 O9 3.051866 1_555
K2 O8 3.051866 1_554
K2 O11 3.051866 1_544
K2 O15 3.065526 1_544
K2 O14 3.065526 1_554
K2 O13 3.065526 1_545
K2 O12 3.065526 1_555
K3 O11 2.939362 1_454
K3 O9 2.939362 1_455
K3 O10 2.939362 1_555
K3 O8 2.939362 1_554
K3 O18 3.060289 1_455
K3 O19 3.060289 1_454
K3 O16 3.060289 1_555
K3 O17 3.060289 1_554
K3 O1 3.125861 1_555
K3 O0 3.125861 1_455
K3 O2 3.125861 1_554
K3 O3 3.125861 1_454
O0 Sb3 2.004701 1_555
O0 Tb0 2.239441 1_655
O0 Sr1 2.851847 1_655
O0 Sr2 2.916606 1_655
O1 Sb2 2.004701 1_555
O1 Tb1 2.239441 1_455
O1 Sr1 2.851847 1_565
O1 Sr2 2.916606 1_565
O2 Sb1 2.004701 1_555
O2 Tb2 2.239441 1_455
O2 Sr1 2.851847 1_555
O2 Sr2 2.916606 1_556
O3 Sb0 2.004701 1_555
O3 Tb3 2.239441 1_655
O3 Sr1 2.851847 1_665
O3 Sr2 2.916606 1_666
O4 Sb2 1.999735 1_555
O4 Tb0 2.236394 1_565
O4 Sr2 2.914989 1_565
O4 Sr1 2.980650 1_565
O5 Sb1 1.999735 1_555
O5 Tb3 2.236394 1_545
O5 Sr2 2.914989 1_556
O5 Sr1 2.980650 1_555
O6 Sb3 1.999735 1_555
O6 Tb1 2.236394 1_545
O6 Sr2 2.914989 1_655
O6 Sr1 2.980650 1_655
O7 Sb0 1.999735 1_555
O7 Tb2 2.236394 1_565
O7 Sr2 2.914989 1_666
O7 Sr1 2.980650 1_665
O8 Sb1 1.987881 1_555
O8 Tb0 2.224597 1_556
O8 Sr2 2.995472 1_556
O8 Sr0 2.996813 1_556
O9 Sb3 1.987881 1_555
O9 Tb2 2.224597 1_554
O9 Sr2 2.995472 1_655
O9 Sr0 2.996813 1_555
O10 Sb2 1.987881 1_555
O10 Tb3 2.224597 1_554
O10 Sr2 2.995472 1_565
O10 Sr0 2.996813 1_555
O11 Sb0 1.987881 1_555
O11 Tb1 2.224597 1_556
O11 Sr2 2.995472 1_666
O11 Sr0 2.996813 1_556
O12 Sb3 2.004701 1_555
O12 Tb0 2.239441 1_555
O12 Sr0 2.851847 1_555
O12 Sr3 2.916606 1_555
O13 Sb2 2.004701 1_555
O13 Tb1 2.239441 1_555
O13 Sr0 2.851847 1_555
O13 Sr3 2.916606 1_555
O14 Sb1 2.004701 1_555
O14 Tb2 2.239441 1_555
O14 Sr0 2.851847 1_556
O14 Sr3 2.916606 1_555
O15 Sb0 2.004701 1_555
O15 Tb3 2.239441 1_555
O15 Sr0 2.851847 1_556
O15 Sr3 2.916606 1_555
O16 Sb2 1.999735 1_555
O16 Tb0 2.236394 1_555
O16 Sr3 2.914989 1_555
O16 Sr0 2.980650 1_555
O17 Sb1 1.999735 1_555
O17 Tb3 2.236394 1_555
O17 Sr3 2.914989 1_555
O17 Sr0 2.980650 1_556
O18 Sb3 1.999735 1_555
O18 Tb1 2.236394 1_555
O18 Sr3 2.914989 1_555
O18 Sr0 2.980650 1_555
O19 Sb0 1.999735 1_555
O19 Tb2 2.236394 1_555
O19 Sr3 2.914989 1_555
O19 Sr0 2.980650 1_556
O20 Sb1 1.987881 1_555
O20 Tb0 2.224597 1_555
O20 Sr3 2.995472 1_555
O20 Sr1 2.996813 1_555
O21 Sb3 1.987881 1_555
O21 Tb2 2.224597 1_555
O21 Sr3 2.995472 1_555
O21 Sr1 2.996813 1_655
O22 Sb2 1.987881 1_555
O22 Tb3 2.224597 1_555
O22 Sr3 2.995472 1_555
O22 Sr1 2.996813 1_565
O23 Sb0 1.987881 1_555
O23 Tb1 2.224597 1_555
O23 Sr3 2.995472 1_555
O23 Sr1 2.996813 1_665
