# generated using pymatgen
data_NaAu3
_symmetry_space_group_name_H-M   'P 1'
_cell_length_a   5.80434729
_cell_length_b   5.80434729
_cell_length_c   5.11901600
_cell_angle_alpha   90.00000000
_cell_angle_beta   90.00000000
_cell_angle_gamma   119.99999190
_symmetry_Int_Tables_number   1
_chemical_formula_structural   NaAu3
_chemical_formula_sum   'Na2 Au6'
_cell_volume   149.35643305
_cell_formula_units_Z   2
loop_
 _symmetry_equiv_pos_site_id
 _symmetry_equiv_pos_as_xyz
  1  'x, y, z'
loop_
 _atom_site_type_symbol
 _atom_site_label
 _atom_site_symmetry_multiplicity
 _atom_site_fract_x
 _atom_site_fract_y
 _atom_site_fract_z
 _atom_site_occupancy
  Na  Na0  1  0.66666700  0.33333300  0.25000000  1
  Na  Na1  1  0.33333300  0.66666700  0.75000000  1
  Au  Au0  1  0.83374900  0.16625100  0.75000000  1
  Au  Au1  1  0.33250300  0.16625100  0.75000000  1
  Au  Au2  1  0.83374900  0.66749700  0.75000000  1
  Au  Au3  1  0.16625100  0.83374900  0.25000000  1
  Au  Au4  1  0.66749700  0.83374900  0.25000000  1
  Au  Au5  1  0.16625100  0.33250300  0.25000000  1
loop_
_geom_bond_atom_site_label_1
_geom_bond_atom_site_label_2
_geom_bond_distance
_geom_bond_site_symmetry_2
Au0 Na1 2.902177 1_545
Au0 Na1 2.902177 1_655
Au0 Na0 3.061475 1_555
Au0 Na0 3.061475 1_556
Au1 Na1 2.902171 1_545
Au1 Na1 2.902182 1_555
Au1 Na0 3.061475 1_555
Au1 Na0 3.061475 1_556
Au2 Na1 2.902171 1_655
Au2 Na1 2.902182 1_555
Au2 Na0 3.061475 1_555
Au2 Na0 3.061475 1_556
Au3 Na0 2.902177 1_455
Au3 Na0 2.902177 1_565
Au3 Na1 3.061475 1_555
Au3 Na1 3.061475 1_554
Au4 Na0 2.902171 1_565
Au4 Na0 2.902182 1_555
Au4 Na1 3.061475 1_554
Au4 Na1 3.061475 1_555
Au5 Na0 2.902171 1_455
Au5 Na0 2.902182 1_555
Au5 Na1 3.061475 1_554
Au5 Na1 3.061475 1_555
