# generated using pymatgen
data_CrFeCoSi
_symmetry_space_group_name_H-M   'P 1'
_cell_length_a   3.96389212
_cell_length_b   3.96389212
_cell_length_c   3.96389212
_cell_angle_alpha   60.00000000
_cell_angle_beta   60.00000000
_cell_angle_gamma   60.00000000
_symmetry_Int_Tables_number   1
_chemical_formula_structural   CrFeCoSi
_chemical_formula_sum   'Cr1 Fe1 Co1 Si1'
_cell_volume   44.04032165
_cell_formula_units_Z   1
loop_
 _symmetry_equiv_pos_site_id
 _symmetry_equiv_pos_as_xyz
  1  'x, y, z'
loop_
 _atom_site_type_symbol
 _atom_site_label
 _atom_site_symmetry_multiplicity
 _atom_site_fract_x
 _atom_site_fract_y
 _atom_site_fract_z
 _atom_site_occupancy
  Cr  Cr0  1  0.25000000  0.25000000  0.25000000  1
  Fe  Fe0  1  0.00000000  0.00000000  0.00000000  1
  Co  Co0  1  0.50000000  0.50000000  0.50000000  1
  Si  Si0  1  0.75000000  0.75000000  0.75000000  1
loop_
_geom_bond_atom_site_label_1
_geom_bond_atom_site_label_2
_geom_bond_distance
_geom_bond_site_symmetry_2
Cr0 Fe0 2.427378 1_655
Cr0 Fe0 2.427378 1_565
Cr0 Fe0 2.427378 1_556
Cr0 Fe0 2.427378 1_555
Cr0 Si0 2.802895 1_544
Cr0 Si0 2.802895 1_445
Cr0 Si0 2.802895 1_454
Cr0 Si0 2.802895 1_455
Cr0 Si0 2.802895 1_545
Cr0 Si0 2.802895 1_554
Fe0 Si0 2.427378 1_444
Fe0 Si0 2.427378 1_445
Fe0 Si0 2.427378 1_454
Fe0 Si0 2.427378 1_544
Co0 Cr0 2.427378 1_655
Co0 Cr0 2.427378 1_555
Co0 Cr0 2.427378 1_556
Co0 Si0 2.427378 1_554
Co0 Si0 2.427378 1_455
Co0 Cr0 2.427378 1_565
Co0 Si0 2.427378 1_555
Co0 Si0 2.427378 1_545
