# generated using pymatgen
data_Te2MoWSeS
_symmetry_space_group_name_H-M   'P 1'
_cell_length_a   3.39930210
_cell_length_b   3.39930210
_cell_length_c   38.72283700
_cell_angle_alpha   90.00000000
_cell_angle_beta   90.00000000
_cell_angle_gamma   120.00000190
_symmetry_Int_Tables_number   1
_chemical_formula_structural   Te2MoWSeS
_chemical_formula_sum   'Te4 Mo2 W2 Se2 S2'
_cell_volume   387.50500480
_cell_formula_units_Z   2
loop_
 _symmetry_equiv_pos_site_id
 _symmetry_equiv_pos_as_xyz
  1  'x, y, z'
loop_
 _atom_site_type_symbol
 _atom_site_label
 _atom_site_symmetry_multiplicity
 _atom_site_fract_x
 _atom_site_fract_y
 _atom_site_fract_z
 _atom_site_occupancy
  Te  Te0  1  0.00000000  0.00000000  0.33019500  1
  Te  Te1  1  0.00000000  0.00000000  0.70620500  1
  Te  Te2  1  0.00000000  0.00000000  0.23343800  1
  Te  Te3  1  0.00000000  0.00000000  0.60884100  1
  Mo  Mo0  1  0.00000000  0.00000000  0.46966800  1
  Mo  Mo1  1  0.33333300  0.66666700  0.28182000  1
  W  W0  1  0.00000000  0.00000000  0.09389600  1
  W  W1  1  0.33333300  0.66666700  0.65754600  1
  Se  Se0  1  0.33333300  0.66666700  0.05115000  1
  Se  Se1  1  0.33333300  0.66666700  0.13665700  1
  S  S0  1  0.33333300  0.66666700  0.43088200  1
  S  S1  1  0.33333300  0.66666700  0.50845000  1
loop_
_geom_bond_atom_site_label_1
_geom_bond_atom_site_label_2
_geom_bond_distance
_geom_bond_site_symmetry_2
Te1 W1 2.720663 1_545
Te1 W1 2.720665 1_555
Te1 W1 2.720665 1_445
Te3 W1 2.721897 1_545
Te3 W1 2.721899 1_555
Te3 W1 2.721899 1_445
Mo0 S1 2.471233 1_545
Mo0 S1 2.471236 1_555
Mo0 S1 2.471236 1_445
Mo0 S0 2.471327 1_545
Mo0 S0 2.471330 1_555
Mo0 S0 2.471330 1_445
Mo1 Te0 2.713059 1_565
Mo1 Te0 2.713061 1_555
Mo1 Te0 2.713061 1_665
Mo1 Te2 2.713246 1_565
Mo1 Te2 2.713248 1_665
Mo1 Te2 2.713248 1_555
Se0 W0 2.567408 1_565
Se0 W0 2.567410 1_555
Se0 W0 2.567410 1_665
Se1 W0 2.567783 1_565
Se1 W0 2.567785 1_665
Se1 W0 2.567785 1_555
