# generated using pymatgen
data_Dy2MgS4
_symmetry_space_group_name_H-M   'P 1'
_cell_length_a   7.56544200
_cell_length_b   12.66299400
_cell_length_c   12.78881300
_cell_angle_alpha   90.00000000
_cell_angle_beta   90.00000000
_cell_angle_gamma   90.00000000
_symmetry_Int_Tables_number   1
_chemical_formula_structural   Dy2MgS4
_chemical_formula_sum   'Dy16 Mg8 S32'
_cell_volume   1225.18294974
_cell_formula_units_Z   8
loop_
 _symmetry_equiv_pos_site_id
 _symmetry_equiv_pos_as_xyz
  1  'x, y, z'
loop_
 _atom_site_type_symbol
 _atom_site_label
 _atom_site_symmetry_multiplicity
 _atom_site_fract_x
 _atom_site_fract_y
 _atom_site_fract_z
 _atom_site_occupancy
  Dy  Dy0  1  0.88284200  0.10912200  0.68539500  1
  Dy  Dy1  1  0.11715800  0.89087800  0.18539500  1
  Dy  Dy2  1  0.88284200  0.39087800  0.18539500  1
  Dy  Dy3  1  0.11715800  0.60912200  0.68539500  1
  Dy  Dy4  1  0.38177500  0.12758800  0.32649200  1
  Dy  Dy5  1  0.61822500  0.87241200  0.82649200  1
  Dy  Dy6  1  0.38177500  0.37241200  0.82649200  1
  Dy  Dy7  1  0.61822500  0.62758800  0.32649200  1
  Dy  Dy8  1  0.62873300  0.13337100  0.99232600  1
  Dy  Dy9  1  0.37126700  0.86662900  0.49232600  1
  Dy  Dy10  1  0.62873300  0.36662900  0.49232600  1
  Dy  Dy11  1  0.37126700  0.63337100  0.99232600  1
  Dy  Dy12  1  0.12887400  0.13377400  0.99135900  1
  Dy  Dy13  1  0.87112600  0.86622600  0.49135900  1
  Dy  Dy14  1  0.12887400  0.36622600  0.49135900  1
  Dy  Dy15  1  0.87112600  0.63377400  0.99135900  1
  Mg  Mg0  1  0.38131900  0.11007300  0.69104300  1
  Mg  Mg1  1  0.61868100  0.88992700  0.19104300  1
  Mg  Mg2  1  0.38131900  0.38992700  0.19104300  1
  Mg  Mg3  1  0.61868100  0.61007300  0.69104300  1
  Mg  Mg4  1  0.87825100  0.12579600  0.32116600  1
  Mg  Mg5  1  0.12174900  0.87420400  0.82116600  1
  Mg  Mg6  1  0.87825100  0.37420400  0.82116600  1
  Mg  Mg7  1  0.12174900  0.62579600  0.32116600  1
  S  S0  1  0.87775200  0.01286400  0.87769700  1
  S  S1  1  0.12224800  0.98713600  0.37769700  1
  S  S2  1  0.87775200  0.48713600  0.37769700  1
  S  S3  1  0.12224800  0.51286400  0.87769700  1
  S  S4  1  0.37735200  0.03260300  0.13041300  1
  S  S5  1  0.62264800  0.96739700  0.63041300  1
  S  S6  1  0.37735200  0.46739700  0.63041300  1
  S  S7  1  0.62264800  0.53260300  0.13041300  1
  S  S8  1  0.37304300  0.02154400  0.86950100  1
  S  S9  1  0.62695700  0.97845600  0.36950100  1
  S  S10  1  0.37304300  0.47845600  0.36950100  1
  S  S11  1  0.62695700  0.52154400  0.86950100  1
  S  S12  1  0.87300600  0.04209700  0.13697000  1
  S  S13  1  0.12699400  0.95790300  0.63697000  1
  S  S14  1  0.87300600  0.45790300  0.63697000  1
  S  S15  1  0.12699400  0.54209700  0.13697000  1
  S  S16  1  0.87931800  0.21236100  0.50166400  1
  S  S17  1  0.12068200  0.78763900  0.00166400  1
  S  S18  1  0.87931800  0.28763900  0.00166400  1
  S  S19  1  0.12068200  0.71236100  0.50166400  1
  S  S20  1  0.37963600  0.21290300  0.51963000  1
  S  S21  1  0.62036400  0.78709700  0.01963000  1
  S  S22  1  0.37963600  0.28709700  0.01963000  1
  S  S23  1  0.62036400  0.71290300  0.51963000  1
  S  S24  1  0.12911700  0.23214600  0.77618700  1
  S  S25  1  0.87088300  0.76785400  0.27618700  1
  S  S26  1  0.12911700  0.26785400  0.27618700  1
  S  S27  1  0.87088300  0.73214600  0.77618700  1
  S  S28  1  0.63206900  0.23149800  0.77715800  1
  S  S29  1  0.36793100  0.76850200  0.27715800  1
  S  S30  1  0.63206900  0.26850200  0.27715800  1
  S  S31  1  0.36793100  0.73149800  0.77715800  1
loop_
_geom_bond_atom_site_label_1
_geom_bond_atom_site_label_2
_geom_bond_distance
_geom_bond_site_symmetry_2
Dy0 S16 2.689029 1_555
Dy0 S24 2.691941 1_655
Dy0 S28 2.716248 1_555
Dy0 S13 2.731695 1_645
Dy0 S0 2.745080 1_555
Dy0 S5 2.755025 1_545
Dy1 S17 2.689029 1_555
Dy1 S25 2.691941 1_455
Dy1 S29 2.716248 1_555
Dy1 S12 2.731695 1_465
Dy1 S1 2.745080 1_555
Dy1 S4 2.755025 1_565
Dy2 S18 2.689029 1_555
Dy2 S26 2.691941 1_655
Dy2 S30 2.716248 1_555
Dy2 S15 2.731695 1_655
Dy2 S2 2.745080 1_555
Dy2 S7 2.755025 1_555
Dy3 S19 2.689029 1_555
Dy3 S27 2.691941 1_455
Dy3 S31 2.716248 1_555
Dy3 S14 2.731695 1_455
Dy3 S3 2.745080 1_555
Dy3 S6 2.755025 1_555
Dy4 S30 2.677272 1_555
Dy4 S26 2.687461 1_555
Dy4 S20 2.695984 1_555
Dy4 S9 2.703609 1_545
Dy4 S1 2.728943 1_545
Dy4 S4 2.781363 1_555
Dy5 S31 2.677272 1_555
Dy5 S27 2.687461 1_555
Dy5 S21 2.695984 1_556
Dy5 S8 2.703609 1_565
Dy5 S0 2.728943 1_565
Dy5 S5 2.781363 1_555
Dy6 S28 2.677272 1_555
Dy6 S24 2.687461 1_555
Dy6 S22 2.695984 1_556
Dy6 S11 2.703609 1_555
Dy6 S3 2.728943 1_555
Dy6 S6 2.781363 1_555
Dy7 S29 2.677272 1_555
Dy7 S25 2.687461 1_555
Dy7 S23 2.695984 1_555
Dy7 S10 2.703609 1_555
Dy7 S2 2.728943 1_555
Dy7 S7 2.781363 1_555
Dy8 S18 2.724777 1_556
Dy8 S22 2.731804 1_556
Dy8 S0 2.833179 1_555
Dy8 S12 2.858839 1_556
Dy8 S8 2.866102 1_555
Dy8 S4 2.892017 1_556
Dy8 S28 3.019394 1_555
Dy9 S19 2.724777 1_555
Dy9 S23 2.731804 1_555
Dy9 S1 2.833179 1_555
Dy9 S13 2.858839 1_555
Dy9 S9 2.866102 1_555
Dy9 S5 2.892017 1_555
Dy9 S29 3.019394 1_555
Dy10 S16 2.724777 1_555
Dy10 S20 2.731804 1_555
Dy10 S2 2.833179 1_555
Dy10 S14 2.858839 1_555
Dy10 S10 2.866102 1_555
Dy10 S6 2.892017 1_555
Dy10 S30 3.019394 1_555
Dy11 S17 2.724777 1_556
Dy11 S21 2.731804 1_556
Dy11 S3 2.833179 1_555
Dy11 S15 2.858839 1_556
Dy11 S11 2.866102 1_555
Dy11 S7 2.892017 1_556
Dy11 S31 3.019394 1_555
Dy12 S18 2.716275 1_456
Dy12 S22 2.738492 1_556
Dy12 S8 2.803695 1_555
Dy12 S0 2.840176 1_455
Dy12 S4 2.887488 1_556
Dy12 S12 2.926193 1_456
Dy12 S24 3.020613 1_555
Dy13 S19 2.716275 1_655
Dy13 S23 2.738492 1_555
Dy13 S9 2.803695 1_555
Dy13 S1 2.840176 1_655
Dy13 S5 2.887488 1_555
Dy13 S13 2.926193 1_655
Dy13 S25 3.020613 1_555
Dy14 S16 2.716275 1_455
Dy14 S20 2.738492 1_555
Dy14 S10 2.803695 1_555
Dy14 S2 2.840176 1_455
Dy14 S6 2.887488 1_555
Dy14 S14 2.926193 1_455
Dy14 S26 3.020613 1_555
Dy15 S17 2.716275 1_656
Dy15 S21 2.738492 1_556
Dy15 S11 2.803695 1_555
Dy15 S3 2.840176 1_655
Dy15 S7 2.887488 1_556
Dy15 S15 2.926193 1_656
Dy15 S27 3.020613 1_555
Mg0 S8 2.543500 1_555
Mg0 S20 2.549769 1_555
Mg0 S28 2.678777 1_555
Mg0 S5 2.683060 1_545
Mg0 S24 2.686215 1_555
Mg0 S13 2.809511 1_545
Mg1 S9 2.543500 1_555
Mg1 S21 2.549769 1_555
Mg1 S29 2.678777 1_555
Mg1 S4 2.683060 1_565
Mg1 S25 2.686215 1_555
Mg1 S12 2.809511 1_565
Mg2 S10 2.543500 1_555
Mg2 S22 2.549769 1_555
Mg2 S30 2.678777 1_555
Mg2 S7 2.683060 1_555
Mg2 S26 2.686215 1_555
Mg2 S15 2.809511 1_555
Mg3 S11 2.543500 1_555
Mg3 S23 2.549769 1_555
Mg3 S31 2.678777 1_555
Mg3 S6 2.683060 1_555
Mg3 S27 2.686215 1_555
Mg3 S14 2.809511 1_555
Mg4 S16 2.555418 1_555
Mg4 S12 2.583408 1_555
Mg4 S1 2.648245 1_645
Mg4 S30 2.655396 1_555
Mg4 S26 2.677485 1_655
Mg4 S9 2.734513 1_545
Mg5 S17 2.555418 1_556
Mg5 S13 2.583408 1_555
Mg5 S0 2.648245 1_465
Mg5 S31 2.655396 1_555
Mg5 S27 2.677485 1_455
Mg5 S8 2.734513 1_565
Mg6 S18 2.555418 1_556
Mg6 S14 2.583408 1_555
Mg6 S3 2.648245 1_655
Mg6 S28 2.655396 1_555
Mg6 S24 2.677485 1_655
Mg6 S11 2.734513 1_555
Mg7 S19 2.555418 1_555
Mg7 S15 2.583408 1_555
Mg7 S2 2.648245 1_455
Mg7 S29 2.655396 1_555
Mg7 S25 2.677485 1_455
Mg7 S10 2.734513 1_555
