# generated using pymatgen
data_Gd11In9Ni4
_symmetry_space_group_name_H-M   'P 1'
_cell_length_a   7.33783000
_cell_length_b   26.21652369
_cell_length_c   26.21652369
_cell_angle_alpha   111.15375159
_cell_angle_beta   90.00000000
_cell_angle_gamma   90.00000000
_symmetry_Int_Tables_number   1
_chemical_formula_structural   Gd11In9Ni4
_chemical_formula_sum   'Gd88 In72 Ni32'
_cell_volume   4703.49226580
_cell_formula_units_Z   8
loop_
 _symmetry_equiv_pos_site_id
 _symmetry_equiv_pos_as_xyz
  1  'x, y, z'
loop_
 _atom_site_type_symbol
 _atom_site_label
 _atom_site_symmetry_multiplicity
 _atom_site_fract_x
 _atom_site_fract_y
 _atom_site_fract_z
 _atom_site_occupancy
  Gd  Gd0_0  1  0.00000000  0.46211200  0.29109750  1
  Gd  Gd0_1  1  0.00000000  0.46211200  0.79109750  1
  Gd  Gd0_2  1  0.00000000  0.96211200  0.29109750  1
  Gd  Gd0_3  1  0.00000000  0.96211200  0.79109750  1
  Gd  Gd0_4  1  0.50000000  0.46211200  0.29109750  1
  Gd  Gd0_5  1  0.50000000  0.46211200  0.79109750  1
  Gd  Gd0_6  1  0.50000000  0.96211200  0.29109750  1
  Gd  Gd0_7  1  0.50000000  0.96211200  0.79109750  1
  Gd  Gd1_0  1  0.00000000  0.03788800  0.20890250  1
  Gd  Gd1_1  1  0.00000000  0.03788800  0.70890250  1
  Gd  Gd1_2  1  0.00000000  0.53788800  0.20890250  1
  Gd  Gd1_3  1  0.00000000  0.53788800  0.70890250  1
  Gd  Gd1_4  1  0.50000000  0.03788800  0.20890250  1
  Gd  Gd1_5  1  0.50000000  0.03788800  0.70890250  1
  Gd  Gd1_6  1  0.50000000  0.53788800  0.20890250  1
  Gd  Gd1_7  1  0.50000000  0.53788800  0.70890250  1
  Gd  Gd2_0  1  0.00000000  0.29109750  0.46211200  1
  Gd  Gd2_1  1  0.00000000  0.29109750  0.96211200  1
  Gd  Gd2_2  1  0.00000000  0.79109750  0.46211200  1
  Gd  Gd2_3  1  0.00000000  0.79109750  0.96211200  1
  Gd  Gd2_4  1  0.50000000  0.29109750  0.46211200  1
  Gd  Gd2_5  1  0.50000000  0.29109750  0.96211200  1
  Gd  Gd2_6  1  0.50000000  0.79109750  0.46211200  1
  Gd  Gd2_7  1  0.50000000  0.79109750  0.96211200  1
  Gd  Gd3_0  1  0.00000000  0.20890250  0.03788800  1
  Gd  Gd3_1  1  0.00000000  0.20890250  0.53788800  1
  Gd  Gd3_2  1  0.00000000  0.70890250  0.03788800  1
  Gd  Gd3_3  1  0.00000000  0.70890250  0.53788800  1
  Gd  Gd3_4  1  0.50000000  0.20890250  0.03788800  1
  Gd  Gd3_5  1  0.50000000  0.20890250  0.53788800  1
  Gd  Gd3_6  1  0.50000000  0.70890250  0.03788800  1
  Gd  Gd3_7  1  0.50000000  0.70890250  0.53788800  1
  Gd  Gd4_0  1  0.00000000  0.07864850  0.42135150  1
  Gd  Gd4_1  1  0.00000000  0.07864850  0.92135150  1
  Gd  Gd4_2  1  0.00000000  0.57864850  0.42135150  1
  Gd  Gd4_3  1  0.00000000  0.57864850  0.92135150  1
  Gd  Gd4_4  1  0.50000000  0.07864850  0.42135150  1
  Gd  Gd4_5  1  0.50000000  0.07864850  0.92135150  1
  Gd  Gd4_6  1  0.50000000  0.57864850  0.42135150  1
  Gd  Gd4_7  1  0.50000000  0.57864850  0.92135150  1
  Gd  Gd5_0  1  0.00000000  0.42135150  0.07864850  1
  Gd  Gd5_1  1  0.00000000  0.42135150  0.57864850  1
  Gd  Gd5_2  1  0.00000000  0.92135150  0.07864850  1
  Gd  Gd5_3  1  0.00000000  0.92135150  0.57864850  1
  Gd  Gd5_4  1  0.50000000  0.42135150  0.07864850  1
  Gd  Gd5_5  1  0.50000000  0.42135150  0.57864850  1
  Gd  Gd5_6  1  0.50000000  0.92135150  0.07864850  1
  Gd  Gd5_7  1  0.50000000  0.92135150  0.57864850  1
  Gd  Gd6_0  1  0.00000000  0.18709700  0.31290300  1
  Gd  Gd6_1  1  0.00000000  0.18709700  0.81290300  1
  Gd  Gd6_2  1  0.00000000  0.68709700  0.31290300  1
  Gd  Gd6_3  1  0.00000000  0.68709700  0.81290300  1
  Gd  Gd6_4  1  0.50000000  0.18709700  0.31290300  1
  Gd  Gd6_5  1  0.50000000  0.18709700  0.81290300  1
  Gd  Gd6_6  1  0.50000000  0.68709700  0.31290300  1
  Gd  Gd6_7  1  0.50000000  0.68709700  0.81290300  1
  Gd  Gd7_0  1  0.00000000  0.31290300  0.18709700  1
  Gd  Gd7_1  1  0.00000000  0.31290300  0.68709700  1
  Gd  Gd7_2  1  0.00000000  0.81290300  0.18709700  1
  Gd  Gd7_3  1  0.00000000  0.81290300  0.68709700  1
  Gd  Gd7_4  1  0.50000000  0.31290300  0.18709700  1
  Gd  Gd7_5  1  0.50000000  0.31290300  0.68709700  1
  Gd  Gd7_6  1  0.50000000  0.81290300  0.18709700  1
  Gd  Gd7_7  1  0.50000000  0.81290300  0.68709700  1
  Gd  Gd8_0  1  0.00000000  0.34399100  0.34399100  1
  Gd  Gd8_1  1  0.00000000  0.34399100  0.84399100  1
  Gd  Gd8_2  1  0.00000000  0.84399100  0.34399100  1
  Gd  Gd8_3  1  0.00000000  0.84399100  0.84399100  1
  Gd  Gd8_4  1  0.50000000  0.34399100  0.34399100  1
  Gd  Gd8_5  1  0.50000000  0.34399100  0.84399100  1
  Gd  Gd8_6  1  0.50000000  0.84399100  0.34399100  1
  Gd  Gd8_7  1  0.50000000  0.84399100  0.84399100  1
  Gd  Gd9_0  1  0.00000000  0.15600900  0.15600900  1
  Gd  Gd9_1  1  0.00000000  0.15600900  0.65600900  1
  Gd  Gd9_2  1  0.00000000  0.65600900  0.15600900  1
  Gd  Gd9_3  1  0.00000000  0.65600900  0.65600900  1
  Gd  Gd9_4  1  0.50000000  0.15600900  0.15600900  1
  Gd  Gd9_5  1  0.50000000  0.15600900  0.65600900  1
  Gd  Gd9_6  1  0.50000000  0.65600900  0.15600900  1
  Gd  Gd9_7  1  0.50000000  0.65600900  0.65600900  1
  Gd  Gd10_0  1  0.00000000  0.00000000  0.00000000  1
  Gd  Gd10_1  1  0.00000000  0.00000000  0.50000000  1
  Gd  Gd10_2  1  0.00000000  0.50000000  0.00000000  1
  Gd  Gd10_3  1  0.00000000  0.50000000  0.50000000  1
  Gd  Gd10_4  1  0.50000000  0.00000000  0.00000000  1
  Gd  Gd10_5  1  0.50000000  0.00000000  0.50000000  1
  Gd  Gd10_6  1  0.50000000  0.50000000  0.00000000  1
  Gd  Gd10_7  1  0.50000000  0.50000000  0.50000000  1
  In  In0_0  1  0.25000000  0.08094650  0.31654850  1
  In  In0_1  1  0.25000000  0.08094650  0.81654850  1
  In  In0_2  1  0.25000000  0.58094650  0.31654850  1
  In  In0_3  1  0.25000000  0.58094650  0.81654850  1
  In  In0_4  1  0.75000000  0.08094650  0.31654850  1
  In  In0_5  1  0.75000000  0.08094650  0.81654850  1
  In  In0_6  1  0.75000000  0.58094650  0.31654850  1
  In  In0_7  1  0.75000000  0.58094650  0.81654850  1
  In  In1_0  1  0.25000000  0.41905350  0.18345150  1
  In  In1_1  1  0.25000000  0.41905350  0.68345150  1
  In  In1_2  1  0.25000000  0.91905350  0.18345150  1
  In  In1_3  1  0.25000000  0.91905350  0.68345150  1
  In  In1_4  1  0.75000000  0.41905350  0.18345150  1
  In  In1_5  1  0.75000000  0.41905350  0.68345150  1
  In  In1_6  1  0.75000000  0.91905350  0.18345150  1
  In  In1_7  1  0.75000000  0.91905350  0.68345150  1
  In  In2_0  1  0.25000000  0.31654850  0.08094650  1
  In  In2_1  1  0.25000000  0.31654850  0.58094650  1
  In  In2_2  1  0.25000000  0.81654850  0.08094650  1
  In  In2_3  1  0.25000000  0.81654850  0.58094650  1
  In  In2_4  1  0.75000000  0.31654850  0.08094650  1
  In  In2_5  1  0.75000000  0.31654850  0.58094650  1
  In  In2_6  1  0.75000000  0.81654850  0.08094650  1
  In  In2_7  1  0.75000000  0.81654850  0.58094650  1
  In  In3_0  1  0.25000000  0.18345150  0.41905350  1
  In  In3_1  1  0.25000000  0.18345150  0.91905350  1
  In  In3_2  1  0.25000000  0.68345150  0.41905350  1
  In  In3_3  1  0.25000000  0.68345150  0.91905350  1
  In  In3_4  1  0.75000000  0.18345150  0.41905350  1
  In  In3_5  1  0.75000000  0.18345150  0.91905350  1
  In  In3_6  1  0.75000000  0.68345150  0.41905350  1
  In  In3_7  1  0.75000000  0.68345150  0.91905350  1
  In  In4_0  1  0.25000000  0.46100900  0.39016000  1
  In  In4_1  1  0.25000000  0.46100900  0.89016000  1
  In  In4_2  1  0.25000000  0.96100900  0.39016000  1
  In  In4_3  1  0.25000000  0.96100900  0.89016000  1
  In  In4_4  1  0.75000000  0.46100900  0.39016000  1
  In  In4_5  1  0.75000000  0.46100900  0.89016000  1
  In  In4_6  1  0.75000000  0.96100900  0.39016000  1
  In  In4_7  1  0.75000000  0.96100900  0.89016000  1
  In  In5_0  1  0.25000000  0.03899100  0.10984000  1
  In  In5_1  1  0.25000000  0.03899100  0.60984000  1
  In  In5_2  1  0.25000000  0.53899100  0.10984000  1
  In  In5_3  1  0.25000000  0.53899100  0.60984000  1
  In  In5_4  1  0.75000000  0.03899100  0.10984000  1
  In  In5_5  1  0.75000000  0.03899100  0.60984000  1
  In  In5_6  1  0.75000000  0.53899100  0.10984000  1
  In  In5_7  1  0.75000000  0.53899100  0.60984000  1
  In  In6_0  1  0.25000000  0.39016000  0.46100900  1
  In  In6_1  1  0.25000000  0.39016000  0.96100900  1
  In  In6_2  1  0.25000000  0.89016000  0.46100900  1
  In  In6_3  1  0.25000000  0.89016000  0.96100900  1
  In  In6_4  1  0.75000000  0.39016000  0.46100900  1
  In  In6_5  1  0.75000000  0.39016000  0.96100900  1
  In  In6_6  1  0.75000000  0.89016000  0.46100900  1
  In  In6_7  1  0.75000000  0.89016000  0.96100900  1
  In  In7_0  1  0.25000000  0.10984000  0.03899100  1
  In  In7_1  1  0.25000000  0.10984000  0.53899100  1
  In  In7_2  1  0.25000000  0.60984000  0.03899100  1
  In  In7_3  1  0.25000000  0.60984000  0.53899100  1
  In  In7_4  1  0.75000000  0.10984000  0.03899100  1
  In  In7_5  1  0.75000000  0.10984000  0.53899100  1
  In  In7_6  1  0.75000000  0.60984000  0.03899100  1
  In  In7_7  1  0.75000000  0.60984000  0.53899100  1
  In  In8_0  1  0.25000000  0.25000000  0.25000000  1
  In  In8_1  1  0.25000000  0.25000000  0.75000000  1
  In  In8_2  1  0.25000000  0.75000000  0.25000000  1
  In  In8_3  1  0.25000000  0.75000000  0.75000000  1
  In  In8_4  1  0.75000000  0.25000000  0.25000000  1
  In  In8_5  1  0.75000000  0.25000000  0.75000000  1
  In  In8_6  1  0.75000000  0.75000000  0.25000000  1
  In  In8_7  1  0.75000000  0.75000000  0.75000000  1
  Ni  Ni0_0  1  0.25000000  0.37825200  0.27536650  1
  Ni  Ni0_1  1  0.25000000  0.37825200  0.77536650  1
  Ni  Ni0_2  1  0.25000000  0.87825200  0.27536650  1
  Ni  Ni0_3  1  0.25000000  0.87825200  0.77536650  1
  Ni  Ni0_4  1  0.75000000  0.37825200  0.27536650  1
  Ni  Ni0_5  1  0.75000000  0.37825200  0.77536650  1
  Ni  Ni0_6  1  0.75000000  0.87825200  0.27536650  1
  Ni  Ni0_7  1  0.75000000  0.87825200  0.77536650  1
  Ni  Ni1_0  1  0.25000000  0.12174800  0.22463350  1
  Ni  Ni1_1  1  0.25000000  0.12174800  0.72463350  1
  Ni  Ni1_2  1  0.25000000  0.62174800  0.22463350  1
  Ni  Ni1_3  1  0.25000000  0.62174800  0.72463350  1
  Ni  Ni1_4  1  0.75000000  0.12174800  0.22463350  1
  Ni  Ni1_5  1  0.75000000  0.12174800  0.72463350  1
  Ni  Ni1_6  1  0.75000000  0.62174800  0.22463350  1
  Ni  Ni1_7  1  0.75000000  0.62174800  0.72463350  1
  Ni  Ni2_0  1  0.25000000  0.27536650  0.37825200  1
  Ni  Ni2_1  1  0.25000000  0.27536650  0.87825200  1
  Ni  Ni2_2  1  0.25000000  0.77536650  0.37825200  1
  Ni  Ni2_3  1  0.25000000  0.77536650  0.87825200  1
  Ni  Ni2_4  1  0.75000000  0.27536650  0.37825200  1
  Ni  Ni2_5  1  0.75000000  0.27536650  0.87825200  1
  Ni  Ni2_6  1  0.75000000  0.77536650  0.37825200  1
  Ni  Ni2_7  1  0.75000000  0.77536650  0.87825200  1
  Ni  Ni3_0  1  0.25000000  0.22463350  0.12174800  1
  Ni  Ni3_1  1  0.25000000  0.22463350  0.62174800  1
  Ni  Ni3_2  1  0.25000000  0.72463350  0.12174800  1
  Ni  Ni3_3  1  0.25000000  0.72463350  0.62174800  1
  Ni  Ni3_4  1  0.75000000  0.22463350  0.12174800  1
  Ni  Ni3_5  1  0.75000000  0.22463350  0.62174800  1
  Ni  Ni3_6  1  0.75000000  0.72463350  0.12174800  1
  Ni  Ni3_7  1  0.75000000  0.72463350  0.62174800  1
loop_
_geom_bond_atom_site_label_1
_geom_bond_atom_site_label_2
_geom_bond_distance
_geom_bond_site_symmetry_2
Gd0_0 Ni0_0 2.777480 1_555
Gd0_0 Ni0_4 2.777480 1_455
Gd0_0 In4_0 3.188270 1_555
Gd0_0 In4_4 3.188270 1_455
Gd0_0 In1_4 3.210066 1_455
Gd0_0 In1_0 3.210066 1_555
Gd0_0 In0_6 3.466413 1_455
Gd0_0 In0_2 3.466413 1_555
Gd0_0 Gd4_2 3.669495 1_555
Gd0_1 Ni0_1 2.777480 1_555
Gd0_1 Ni0_5 2.777480 1_455
Gd0_1 In4_5 3.188270 1_455
Gd0_1 In4_1 3.188270 1_555
Gd0_1 In1_5 3.210066 1_455
Gd0_1 In1_1 3.210066 1_555
Gd0_1 In0_3 3.466413 1_555
Gd0_1 In0_7 3.466413 1_455
Gd0_1 Gd4_3 3.669495 1_555
Gd0_2 Ni0_6 2.777480 1_455
Gd0_2 Ni0_2 2.777480 1_555
Gd0_2 In4_2 3.188270 1_555
Gd0_2 In4_6 3.188270 1_455
Gd0_2 In1_2 3.210066 1_555
Gd0_2 In1_6 3.210066 1_455
Gd0_2 In0_4 3.466413 1_465
Gd0_2 In0_0 3.466413 1_565
Gd0_2 Gd4_0 3.669495 1_565
Gd0_3 Ni0_3 2.777480 1_555
Gd0_3 Ni0_7 2.777480 1_455
Gd0_3 In4_3 3.188270 1_555
Gd0_3 In4_7 3.188270 1_455
Gd0_3 In1_7 3.210066 1_455
Gd0_3 In1_3 3.210066 1_555
Gd0_3 In0_5 3.466413 1_465
Gd0_3 In0_1 3.466413 1_565
Gd0_3 Gd4_1 3.669495 1_565
Gd0_4 Ni0_0 2.777480 1_555
Gd0_4 Ni0_4 2.777480 1_555
Gd0_4 In4_4 3.188270 1_555
Gd0_4 In4_0 3.188270 1_555
Gd0_4 In1_4 3.210066 1_555
Gd0_4 In1_0 3.210066 1_555
Gd0_4 In0_6 3.466413 1_555
Gd0_4 In0_2 3.466413 1_555
Gd0_4 Gd4_6 3.669495 1_555
Gd0_5 Ni0_1 2.777480 1_555
Gd0_5 Ni0_5 2.777480 1_555
Gd0_5 In4_5 3.188270 1_555
Gd0_5 In4_1 3.188270 1_555
Gd0_5 In1_5 3.210066 1_555
Gd0_5 In1_1 3.210066 1_555
Gd0_5 In0_3 3.466413 1_555
Gd0_5 In0_7 3.466413 1_555
Gd0_5 Gd4_7 3.669495 1_555
Gd0_6 Ni0_2 2.777480 1_555
Gd0_6 Ni0_6 2.777480 1_555
Gd0_6 In4_2 3.188270 1_555
Gd0_6 In4_6 3.188270 1_555
Gd0_6 In1_2 3.210066 1_555
Gd0_6 In1_6 3.210066 1_555
Gd0_6 In0_4 3.466413 1_565
Gd0_6 In0_0 3.466413 1_565
Gd0_6 Gd4_4 3.669495 1_565
Gd0_7 Ni0_3 2.777480 1_555
Gd0_7 Ni0_7 2.777480 1_555
Gd0_7 In4_3 3.188270 1_555
Gd0_7 In4_7 3.188270 1_555
Gd0_7 In1_3 3.210066 1_555
Gd0_7 In1_7 3.210066 1_555
Gd0_7 In0_1 3.466413 1_565
Gd0_7 In0_5 3.466413 1_565
Gd0_7 Gd4_5 3.669495 1_565
Gd1_0 Ni1_4 2.777480 1_455
Gd1_0 Ni1_0 2.777480 1_555
Gd1_0 In5_0 3.188270 1_555
Gd1_0 In5_4 3.188270 1_455
Gd1_0 In0_0 3.210066 1_555
Gd1_0 In0_4 3.210066 1_455
Gd1_0 In1_2 3.466413 1_545
Gd1_0 In1_6 3.466413 1_445
Gd1_0 Gd5_2 3.669495 1_545
Gd1_1 Ni1_1 2.777480 1_555
Gd1_1 Ni1_5 2.777480 1_455
Gd1_1 In5_1 3.188270 1_555
Gd1_1 In5_5 3.188270 1_455
Gd1_1 In0_1 3.210066 1_555
Gd1_1 In0_5 3.210066 1_455
Gd1_1 In1_3 3.466413 1_545
Gd1_1 In1_7 3.466413 1_445
Gd1_1 Gd5_3 3.669495 1_545
Gd1_2 Ni1_2 2.777480 1_555
Gd1_2 Ni1_6 2.777480 1_455
Gd1_2 In5_2 3.188270 1_555
Gd1_2 In5_6 3.188270 1_455
Gd1_2 In0_2 3.210066 1_555
Gd1_2 In0_6 3.210066 1_455
Gd1_2 In1_0 3.466413 1_555
Gd1_2 In1_4 3.466413 1_455
Gd1_2 Gd5_0 3.669495 1_555
Gd1_3 Ni1_3 2.777480 1_555
Gd1_3 Ni1_7 2.777480 1_455
Gd1_3 In5_7 3.188270 1_455
Gd1_3 In5_3 3.188270 1_555
Gd1_3 In0_3 3.210066 1_555
Gd1_3 In0_7 3.210066 1_455
Gd1_3 In1_5 3.466413 1_455
Gd1_3 In1_1 3.466413 1_555
Gd1_3 Gd5_1 3.669495 1_555
Gd1_4 Ni1_4 2.777480 1_555
Gd1_4 Ni1_0 2.777480 1_555
Gd1_4 In5_0 3.188270 1_555
Gd1_4 In5_4 3.188270 1_555
Gd1_4 In0_0 3.210066 1_555
Gd1_4 In0_4 3.210066 1_555
Gd1_4 In1_2 3.466413 1_545
Gd1_4 In1_6 3.466413 1_545
Gd1_4 Gd5_6 3.669495 1_545
Gd1_5 Ni1_1 2.777480 1_555
Gd1_5 Ni1_5 2.777480 1_555
Gd1_5 In5_1 3.188270 1_555
Gd1_5 In5_5 3.188270 1_555
Gd1_5 In0_1 3.210066 1_555
Gd1_5 In0_5 3.210066 1_555
Gd1_5 In1_3 3.466413 1_545
Gd1_5 In1_7 3.466413 1_545
Gd1_5 Gd5_7 3.669495 1_545
Gd1_6 Ni1_2 2.777480 1_555
Gd1_6 Ni1_6 2.777480 1_555
Gd1_6 In5_2 3.188270 1_555
Gd1_6 In5_6 3.188270 1_555
Gd1_6 In0_2 3.210066 1_555
Gd1_6 In0_6 3.210066 1_555
Gd1_6 In1_0 3.466413 1_555
Gd1_6 In1_4 3.466413 1_555
Gd1_6 Gd5_4 3.669495 1_555
Gd1_7 Ni1_3 2.777480 1_555
Gd1_7 Ni1_7 2.777480 1_555
Gd1_7 In5_7 3.188270 1_555
Gd1_7 In5_3 3.188270 1_555
Gd1_7 In0_3 3.210066 1_555
Gd1_7 In0_7 3.210066 1_555
Gd1_7 In1_1 3.466413 1_555
Gd1_7 In1_5 3.466413 1_555
Gd1_7 Gd5_5 3.669495 1_555
Gd2_0 Ni2_4 2.777480 1_455
Gd2_0 Ni2_0 2.777480 1_555
Gd2_0 In6_0 3.188270 1_555
Gd2_0 In6_4 3.188270 1_455
Gd2_0 In3_0 3.210066 1_555
Gd2_0 In3_4 3.210066 1_455
Gd2_0 In2_1 3.466413 1_555
Gd2_0 In2_5 3.466413 1_455
Gd2_0 Gd5_1 3.669495 1_555
Gd2_1 Ni2_1 2.777480 1_555
Gd2_1 Ni2_5 2.777480 1_455
Gd2_1 In6_5 3.188270 1_455
Gd2_1 In6_1 3.188270 1_555
Gd2_1 In3_5 3.210066 1_455
Gd2_1 In3_1 3.210066 1_555
Gd2_1 In2_4 3.466413 1_456
Gd2_1 In2_0 3.466413 1_556
Gd2_1 Gd5_0 3.669495 1_556
Gd2_2 Ni2_2 2.777480 1_555
Gd2_2 Ni2_6 2.777480 1_455
Gd2_2 In6_6 3.188270 1_455
Gd2_2 In6_2 3.188270 1_555
Gd2_2 In3_6 3.210066 1_455
Gd2_2 In3_2 3.210066 1_555
Gd2_2 In2_3 3.466413 1_555
Gd2_2 In2_7 3.466413 1_455
Gd2_2 Gd5_3 3.669495 1_555
Gd2_3 Ni2_3 2.777480 1_555
Gd2_3 Ni2_7 2.777480 1_455
Gd2_3 In6_3 3.188270 1_555
Gd2_3 In6_7 3.188270 1_455
Gd2_3 In3_3 3.210066 1_555
Gd2_3 In3_7 3.210066 1_455
Gd2_3 In2_2 3.466413 1_556
Gd2_3 In2_6 3.466413 1_456
Gd2_3 Gd5_2 3.669495 1_556
Gd2_4 Ni2_4 2.777480 1_555
Gd2_4 Ni2_0 2.777480 1_555
Gd2_4 In6_0 3.188270 1_555
Gd2_4 In6_4 3.188270 1_555
Gd2_4 In3_0 3.210066 1_555
Gd2_4 In3_4 3.210066 1_555
Gd2_4 In2_1 3.466413 1_555
Gd2_4 In2_5 3.466413 1_555
Gd2_4 Gd5_5 3.669495 1_555
Gd2_5 Ni2_1 2.777480 1_555
Gd2_5 Ni2_5 2.777480 1_555
Gd2_5 In6_5 3.188270 1_555
Gd2_5 In6_1 3.188270 1_555
Gd2_5 In3_5 3.210066 1_555
Gd2_5 In3_1 3.210066 1_555
Gd2_5 In2_4 3.466413 1_556
Gd2_5 In2_0 3.466413 1_556
Gd2_5 Gd5_4 3.669495 1_556
Gd2_6 Ni2_2 2.777480 1_555
Gd2_6 Ni2_6 2.777480 1_555
Gd2_6 In6_2 3.188270 1_555
Gd2_6 In6_6 3.188270 1_555
Gd2_6 In3_6 3.210066 1_555
Gd2_6 In3_2 3.210066 1_555
Gd2_6 In2_3 3.466413 1_555
Gd2_6 In2_7 3.466413 1_555
Gd2_6 Gd5_7 3.669495 1_555
Gd2_7 Ni2_3 2.777480 1_555
Gd2_7 Ni2_7 2.777480 1_555
Gd2_7 In6_3 3.188270 1_555
Gd2_7 In6_7 3.188270 1_555
Gd2_7 In3_7 3.210066 1_555
Gd2_7 In3_3 3.210066 1_555
Gd2_7 In2_6 3.466413 1_556
Gd2_7 In2_2 3.466413 1_556
Gd2_7 Gd5_6 3.669495 1_556
Gd3_0 Ni3_4 2.777480 1_455
Gd3_0 Ni3_0 2.777480 1_555
Gd3_0 In7_0 3.188270 1_555
Gd3_0 In7_4 3.188270 1_455
Gd3_0 In2_4 3.210066 1_455
Gd3_0 In2_0 3.210066 1_555
Gd3_0 In3_5 3.466413 1_454
Gd3_0 In3_1 3.466413 1_554
Gd3_0 Gd4_1 3.669495 1_554
Gd3_1 Ni3_1 2.777480 1_555
Gd3_1 Ni3_5 2.777480 1_455
Gd3_1 In7_5 3.188270 1_455
Gd3_1 In7_1 3.188270 1_555
Gd3_1 In2_5 3.210066 1_455
Gd3_1 In2_1 3.210066 1_555
Gd3_1 In3_0 3.466413 1_555
Gd3_1 In3_4 3.466413 1_455
Gd3_1 Gd4_0 3.669495 1_555
Gd3_2 Ni3_2 2.777480 1_555
Gd3_2 Ni3_6 2.777480 1_455
Gd3_2 In7_6 3.188270 1_455
Gd3_2 In7_2 3.188270 1_555
Gd3_2 In2_6 3.210066 1_455
Gd3_2 In2_2 3.210066 1_555
Gd3_2 In3_7 3.466413 1_454
Gd3_2 In3_3 3.466413 1_554
Gd3_2 Gd4_3 3.669495 1_554
Gd3_3 Ni3_3 2.777480 1_555
Gd3_3 Ni3_7 2.777480 1_455
Gd3_3 In7_3 3.188270 1_555
Gd3_3 In7_7 3.188270 1_455
Gd3_3 In2_7 3.210066 1_455
Gd3_3 In2_3 3.210066 1_555
Gd3_3 In3_6 3.466413 1_455
Gd3_3 In3_2 3.466413 1_555
Gd3_3 Gd4_2 3.669495 1_555
Gd3_4 Ni3_0 2.777480 1_555
Gd3_4 Ni3_4 2.777480 1_555
Gd3_4 In7_0 3.188270 1_555
Gd3_4 In7_4 3.188270 1_555
Gd3_4 In2_4 3.210066 1_555
Gd3_4 In2_0 3.210066 1_555
Gd3_4 In3_5 3.466413 1_554
Gd3_4 In3_1 3.466413 1_554
Gd3_4 Gd4_5 3.669495 1_554
Gd3_5 Ni3_1 2.777480 1_555
Gd3_5 Ni3_5 2.777480 1_555
Gd3_5 In7_5 3.188270 1_555
Gd3_5 In7_1 3.188270 1_555
Gd3_5 In2_5 3.210066 1_555
Gd3_5 In2_1 3.210066 1_555
Gd3_5 In3_0 3.466413 1_555
Gd3_5 In3_4 3.466413 1_555
Gd3_5 Gd4_4 3.669495 1_555
Gd3_6 Ni3_2 2.777480 1_555
Gd3_6 Ni3_6 2.777480 1_555
Gd3_6 In7_6 3.188270 1_555
Gd3_6 In7_2 3.188270 1_555
Gd3_6 In2_2 3.210066 1_555
Gd3_6 In2_6 3.210066 1_555
Gd3_6 In3_7 3.466413 1_554
Gd3_6 In3_3 3.466413 1_554
Gd3_6 Gd4_7 3.669495 1_554
Gd3_7 Ni3_3 2.777480 1_555
Gd3_7 Ni3_7 2.777480 1_555
Gd3_7 In7_7 3.188270 1_555
Gd3_7 In7_3 3.188270 1_555
Gd3_7 In2_7 3.210066 1_555
Gd3_7 In2_3 3.210066 1_555
Gd3_7 In3_6 3.466413 1_555
Gd3_7 In3_2 3.466413 1_555
Gd3_7 Gd4_6 3.669495 1_555
Gd4_0 In0_4 3.322270 1_455
Gd4_0 In0_0 3.322270 1_555
Gd4_0 In3_0 3.322270 1_555
Gd4_0 In3_4 3.322270 1_455
Gd4_0 In4_2 3.424233 1_545
Gd4_0 In4_6 3.424233 1_445
Gd4_0 In7_1 3.424233 1_555
Gd4_0 In7_5 3.424233 1_455
Gd4_0 Gd4_4 3.668915 1_455
Gd4_0 Gd4_4 3.668915 1_555
Gd4_1 In0_5 3.322270 1_455
Gd4_1 In0_1 3.322270 1_555
Gd4_1 In3_5 3.322270 1_455
Gd4_1 In3_1 3.322270 1_555
Gd4_1 In7_0 3.424233 1_556
Gd4_1 In7_4 3.424233 1_456
Gd4_1 In4_3 3.424233 1_545
Gd4_1 In4_7 3.424233 1_445
Gd4_1 Gd4_5 3.668915 1_455
Gd4_1 Gd4_5 3.668915 1_555
Gd4_2 In0_2 3.322270 1_555
Gd4_2 In0_6 3.322270 1_455
Gd4_2 In3_2 3.322270 1_555
Gd4_2 In3_6 3.322270 1_455
Gd4_2 In4_0 3.424233 1_555
Gd4_2 In4_4 3.424233 1_455
Gd4_2 In7_7 3.424233 1_455
Gd4_2 In7_3 3.424233 1_555
Gd4_2 Gd4_6 3.668915 1_555
Gd4_2 Gd4_6 3.668915 1_455
Gd4_3 In0_3 3.322270 1_555
Gd4_3 In0_7 3.322270 1_455
Gd4_3 In3_7 3.322270 1_455
Gd4_3 In3_3 3.322270 1_555
Gd4_3 In4_1 3.424233 1_555
Gd4_3 In4_5 3.424233 1_455
Gd4_3 In7_2 3.424233 1_556
Gd4_3 In7_6 3.424233 1_456
Gd4_3 Gd4_7 3.668915 1_455
Gd4_3 Gd4_7 3.668915 1_555
Gd4_4 In0_4 3.322270 1_555
Gd4_4 In0_0 3.322270 1_555
Gd4_4 In3_0 3.322270 1_555
Gd4_4 In3_4 3.322270 1_555
Gd4_4 In4_2 3.424233 1_545
Gd4_4 In4_6 3.424233 1_545
Gd4_4 In7_1 3.424233 1_555
Gd4_4 In7_5 3.424233 1_555
Gd4_5 In0_1 3.322270 1_555
Gd4_5 In0_5 3.322270 1_555
Gd4_5 In3_1 3.322270 1_555
Gd4_5 In3_5 3.322270 1_555
Gd4_5 In7_0 3.424233 1_556
Gd4_5 In7_4 3.424233 1_556
Gd4_5 In4_3 3.424233 1_545
Gd4_5 In4_7 3.424233 1_545
Gd4_6 In0_2 3.322270 1_555
Gd4_6 In0_6 3.322270 1_555
Gd4_6 In3_2 3.322270 1_555
Gd4_6 In3_6 3.322270 1_555
Gd4_6 In4_0 3.424233 1_555
Gd4_6 In4_4 3.424233 1_555
Gd4_6 In7_7 3.424233 1_555
Gd4_6 In7_3 3.424233 1_555
Gd4_7 In0_3 3.322270 1_555
Gd4_7 In0_7 3.322270 1_555
Gd4_7 In3_7 3.322270 1_555
Gd4_7 In3_3 3.322270 1_555
Gd4_7 In4_5 3.424233 1_555
Gd4_7 In4_1 3.424233 1_555
Gd4_7 In7_6 3.424233 1_556
Gd4_7 In7_2 3.424233 1_556
Gd5_0 In2_4 3.322270 1_455
Gd5_0 In2_0 3.322270 1_555
Gd5_0 In1_0 3.322270 1_555
Gd5_0 In1_4 3.322270 1_455
Gd5_0 In6_5 3.424233 1_454
Gd5_0 In6_1 3.424233 1_554
Gd5_0 In5_2 3.424233 1_555
Gd5_0 In5_6 3.424233 1_455
Gd5_0 Gd5_4 3.668915 1_555
Gd5_0 Gd5_4 3.668915 1_455
Gd5_1 In2_5 3.322270 1_455
Gd5_1 In2_1 3.322270 1_555
Gd5_1 In1_1 3.322270 1_555
Gd5_1 In1_5 3.322270 1_455
Gd5_1 In6_0 3.424233 1_555
Gd5_1 In6_4 3.424233 1_455
Gd5_1 In5_7 3.424233 1_455
Gd5_1 In5_3 3.424233 1_555
Gd5_1 Gd5_5 3.668915 1_455
Gd5_1 Gd5_5 3.668915 1_555
Gd5_2 In2_6 3.322270 1_455
Gd5_2 In2_2 3.322270 1_555
Gd5_2 In1_2 3.322270 1_555
Gd5_2 In1_6 3.322270 1_455
Gd5_2 In5_4 3.424233 1_465
Gd5_2 In5_0 3.424233 1_565
Gd5_2 In6_7 3.424233 1_454
Gd5_2 In6_3 3.424233 1_554
Gd5_2 Gd5_6 3.668915 1_455
Gd5_2 Gd5_6 3.668915 1_555
Gd5_3 In2_3 3.322270 1_555
Gd5_3 In2_7 3.322270 1_455
Gd5_3 In1_3 3.322270 1_555
Gd5_3 In1_7 3.322270 1_455
Gd5_3 In6_2 3.424233 1_555
Gd5_3 In6_6 3.424233 1_455
Gd5_3 In5_5 3.424233 1_465
Gd5_3 In5_1 3.424233 1_565
Gd5_3 Gd5_7 3.668915 1_555
Gd5_3 Gd5_7 3.668915 1_455
Gd5_4 In2_4 3.322270 1_555
Gd5_4 In2_0 3.322270 1_555
Gd5_4 In1_0 3.322270 1_555
Gd5_4 In1_4 3.322270 1_555
Gd5_4 In6_1 3.424233 1_554
Gd5_4 In6_5 3.424233 1_554
Gd5_4 In5_2 3.424233 1_555
Gd5_4 In5_6 3.424233 1_555
Gd5_5 In2_5 3.322270 1_555
Gd5_5 In2_1 3.322270 1_555
Gd5_5 In1_1 3.322270 1_555
Gd5_5 In1_5 3.322270 1_555
Gd5_5 In6_0 3.424233 1_555
Gd5_5 In5_7 3.424233 1_555
Gd5_5 In6_4 3.424233 1_555
Gd5_5 In5_3 3.424233 1_555
Gd5_6 In2_2 3.322270 1_555
Gd5_6 In2_6 3.322270 1_555
Gd5_6 In1_2 3.322270 1_555
Gd5_6 In1_6 3.322270 1_555
Gd5_6 In5_0 3.424233 1_565
Gd5_6 In5_4 3.424233 1_565
Gd5_6 In6_7 3.424233 1_554
Gd5_6 In6_3 3.424233 1_554
Gd5_7 In2_7 3.322270 1_555
Gd5_7 In2_3 3.322270 1_555
Gd5_7 In1_3 3.322270 1_555
Gd5_7 In1_7 3.322270 1_555
Gd5_7 In6_6 3.424233 1_555
Gd5_7 In6_2 3.424233 1_555
Gd5_7 In5_5 3.424233 1_565
Gd5_7 In5_1 3.424233 1_565
Gd6_0 Ni1_0 2.965483 1_555
Gd6_0 Ni1_4 2.965483 1_455
Gd6_0 Ni2_0 2.965483 1_555
Gd6_0 Ni2_4 2.965483 1_455
Gd6_0 In8_4 3.281323 1_455
Gd6_0 In8_0 3.281323 1_555
Gd6_0 In3_0 3.363160 1_555
Gd6_0 In3_4 3.363160 1_455
Gd6_0 In0_4 3.363160 1_455
Gd6_0 In0_0 3.363160 1_555
Gd6_1 Ni1_1 2.965483 1_555
Gd6_1 Ni1_5 2.965483 1_455
Gd6_1 Ni2_1 2.965483 1_555
Gd6_1 Ni2_5 2.965483 1_455
Gd6_1 In8_5 3.281323 1_455
Gd6_1 In8_1 3.281323 1_555
Gd6_1 In3_1 3.363160 1_555
Gd6_1 In3_5 3.363160 1_455
Gd6_1 In0_5 3.363160 1_455
Gd6_1 In0_1 3.363160 1_555
Gd6_2 Ni1_2 2.965483 1_555
Gd6_2 Ni1_6 2.965483 1_455
Gd6_2 Ni2_2 2.965483 1_555
Gd6_2 Ni2_6 2.965483 1_455
Gd6_2 In8_2 3.281323 1_555
Gd6_2 In8_6 3.281323 1_455
Gd6_2 In3_6 3.363160 1_455
Gd6_2 In3_2 3.363160 1_555
Gd6_2 In0_2 3.363160 1_555
Gd6_2 In0_6 3.363160 1_455
Gd6_3 Ni1_7 2.965483 1_455
Gd6_3 Ni1_3 2.965483 1_555
Gd6_3 Ni2_7 2.965483 1_455
Gd6_3 Ni2_3 2.965483 1_555
Gd6_3 In8_3 3.281323 1_555
Gd6_3 In8_7 3.281323 1_455
Gd6_3 In3_3 3.363160 1_555
Gd6_3 In3_7 3.363160 1_455
Gd6_3 In0_3 3.363160 1_555
Gd6_3 In0_7 3.363160 1_455
Gd6_4 Ni1_4 2.965483 1_555
Gd6_4 Ni1_0 2.965483 1_555
Gd6_4 Ni2_0 2.965483 1_555
Gd6_4 Ni2_4 2.965483 1_555
Gd6_4 In8_4 3.281323 1_555
Gd6_4 In8_0 3.281323 1_555
Gd6_4 In3_0 3.363160 1_555
Gd6_4 In3_4 3.363160 1_555
Gd6_4 In0_0 3.363160 1_555
Gd6_4 In0_4 3.363160 1_555
Gd6_5 Ni1_1 2.965483 1_555
Gd6_5 Ni1_5 2.965483 1_555
Gd6_5 Ni2_1 2.965483 1_555
Gd6_5 Ni2_5 2.965483 1_555
Gd6_5 In8_5 3.281323 1_555
Gd6_5 In8_1 3.281323 1_555
Gd6_5 In3_1 3.363160 1_555
Gd6_5 In3_5 3.363160 1_555
Gd6_5 In0_1 3.363160 1_555
Gd6_5 In0_5 3.363160 1_555
Gd6_6 Ni1_2 2.965483 1_555
Gd6_6 Ni1_6 2.965483 1_555
Gd6_6 Ni2_2 2.965483 1_555
Gd6_6 Ni2_6 2.965483 1_555
Gd6_6 In8_6 3.281323 1_555
Gd6_6 In8_2 3.281323 1_555
Gd6_6 In3_2 3.363160 1_555
Gd6_6 In3_6 3.363160 1_555
Gd6_6 In0_2 3.363160 1_555
Gd6_6 In0_6 3.363160 1_555
Gd6_7 Ni1_7 2.965483 1_555
Gd6_7 Ni1_3 2.965483 1_555
Gd6_7 Ni2_7 2.965483 1_555
Gd6_7 Ni2_3 2.965483 1_555
Gd6_7 In8_3 3.281323 1_555
Gd6_7 In8_7 3.281323 1_555
Gd6_7 In3_3 3.363160 1_555
Gd6_7 In3_7 3.363160 1_555
Gd6_7 In0_3 3.363160 1_555
Gd6_7 In0_7 3.363160 1_555
Gd7_0 Ni3_0 2.965483 1_555
Gd7_0 Ni3_4 2.965483 1_455
Gd7_0 Ni0_0 2.965483 1_555
Gd7_0 Ni0_4 2.965483 1_455
Gd7_0 In8_4 3.281323 1_455
Gd7_0 In8_0 3.281323 1_555
Gd7_0 In1_0 3.363160 1_555
Gd7_0 In1_4 3.363160 1_455
Gd7_0 In2_0 3.363160 1_555
Gd7_0 In2_4 3.363160 1_455
Gd7_1 Ni3_1 2.965483 1_555
Gd7_1 Ni3_5 2.965483 1_455
Gd7_1 Ni0_1 2.965483 1_555
Gd7_1 Ni0_5 2.965483 1_455
Gd7_1 In8_1 3.281323 1_555
Gd7_1 In8_5 3.281323 1_455
Gd7_1 In1_1 3.363160 1_555
Gd7_1 In1_5 3.363160 1_455
Gd7_1 In2_5 3.363160 1_455
Gd7_1 In2_1 3.363160 1_555
Gd7_2 Ni3_6 2.965483 1_455
Gd7_2 Ni3_2 2.965483 1_555
Gd7_2 Ni0_2 2.965483 1_555
Gd7_2 Ni0_6 2.965483 1_455
Gd7_2 In8_6 3.281323 1_455
Gd7_2 In8_2 3.281323 1_555
Gd7_2 In1_6 3.363160 1_455
Gd7_2 In1_2 3.363160 1_555
Gd7_2 In2_2 3.363160 1_555
Gd7_2 In2_6 3.363160 1_455
Gd7_3 Ni3_3 2.965483 1_555
Gd7_3 Ni3_7 2.965483 1_455
Gd7_3 Ni0_7 2.965483 1_455
Gd7_3 Ni0_3 2.965483 1_555
Gd7_3 In8_3 3.281323 1_555
Gd7_3 In8_7 3.281323 1_455
Gd7_3 In1_7 3.363160 1_455
Gd7_3 In1_3 3.363160 1_555
Gd7_3 In2_3 3.363160 1_555
Gd7_3 In2_7 3.363160 1_455
Gd7_4 Ni3_4 2.965483 1_555
Gd7_4 Ni3_0 2.965483 1_555
Gd7_4 Ni0_0 2.965483 1_555
Gd7_4 Ni0_4 2.965483 1_555
Gd7_4 In8_0 3.281323 1_555
Gd7_4 In8_4 3.281323 1_555
Gd7_4 In1_0 3.363160 1_555
Gd7_4 In1_4 3.363160 1_555
Gd7_4 In2_0 3.363160 1_555
Gd7_4 In2_4 3.363160 1_555
Gd7_5 Ni3_5 2.965483 1_555
Gd7_5 Ni3_1 2.965483 1_555
Gd7_5 Ni0_1 2.965483 1_555
Gd7_5 Ni0_5 2.965483 1_555
Gd7_5 In8_1 3.281323 1_555
Gd7_5 In8_5 3.281323 1_555
Gd7_5 In1_5 3.363160 1_555
Gd7_5 In1_1 3.363160 1_555
Gd7_5 In2_5 3.363160 1_555
Gd7_5 In2_1 3.363160 1_555
Gd7_6 Ni3_6 2.965483 1_555
Gd7_6 Ni3_2 2.965483 1_555
Gd7_6 Ni0_6 2.965483 1_555
Gd7_6 Ni0_2 2.965483 1_555
Gd7_6 In8_6 3.281323 1_555
Gd7_6 In8_2 3.281323 1_555
Gd7_6 In1_2 3.363160 1_555
Gd7_6 In1_6 3.363160 1_555
Gd7_6 In2_2 3.363160 1_555
Gd7_6 In2_6 3.363160 1_555
Gd7_7 Ni3_3 2.965483 1_555
Gd7_7 Ni3_7 2.965483 1_555
Gd7_7 Ni0_7 2.965483 1_555
Gd7_7 Ni0_3 2.965483 1_555
Gd7_7 In8_3 3.281323 1_555
Gd7_7 In8_7 3.281323 1_555
Gd7_7 In1_7 3.363160 1_555
Gd7_7 In1_3 3.363160 1_555
Gd7_7 In2_7 3.363160 1_555
Gd7_7 In2_3 3.363160 1_555
Gd8_0 Ni0_0 2.928320 1_555
Gd8_0 Ni2_0 2.928320 1_555
Gd8_0 Ni0_4 2.928320 1_455
Gd8_0 Ni2_4 2.928320 1_455
Gd8_0 In8_0 3.335663 1_555
Gd8_0 In8_4 3.335663 1_455
Gd8_0 In6_4 3.400250 1_455
Gd8_0 In6_0 3.400250 1_555
Gd8_0 In4_0 3.400250 1_555
Gd8_0 In4_4 3.400250 1_455
Gd8_1 Ni0_1 2.928320 1_555
Gd8_1 Ni0_5 2.928320 1_455
Gd8_1 Ni2_1 2.928320 1_555
Gd8_1 Ni2_5 2.928320 1_455
Gd8_1 In8_1 3.335663 1_555
Gd8_1 In8_5 3.335663 1_455
Gd8_1 In6_1 3.400250 1_555
Gd8_1 In6_5 3.400250 1_455
Gd8_1 In4_5 3.400250 1_455
Gd8_1 In4_1 3.400250 1_555
Gd8_2 Ni0_6 2.928320 1_455
Gd8_2 Ni2_6 2.928320 1_455
Gd8_2 Ni0_2 2.928320 1_555
Gd8_2 Ni2_2 2.928320 1_555
Gd8_2 In8_6 3.335663 1_455
Gd8_2 In8_2 3.335663 1_555
Gd8_2 In4_2 3.400250 1_555
Gd8_2 In4_6 3.400250 1_455
Gd8_2 In6_2 3.400250 1_555
Gd8_2 In6_6 3.400250 1_455
Gd8_3 Ni2_3 2.928320 1_555
Gd8_3 Ni0_3 2.928320 1_555
Gd8_3 Ni0_7 2.928320 1_455
Gd8_3 Ni2_7 2.928320 1_455
Gd8_3 In8_3 3.335663 1_555
Gd8_3 In8_7 3.335663 1_455
Gd8_3 In6_3 3.400250 1_555
Gd8_3 In4_3 3.400250 1_555
Gd8_3 In6_7 3.400250 1_455
Gd8_3 In4_7 3.400250 1_455
Gd8_4 Ni0_0 2.928320 1_555
Gd8_4 Ni2_0 2.928320 1_555
Gd8_4 Ni2_4 2.928320 1_555
Gd8_4 Ni0_4 2.928320 1_555
Gd8_4 In8_0 3.335663 1_555
Gd8_4 In8_4 3.335663 1_555
Gd8_4 In6_4 3.400250 1_555
Gd8_4 In6_0 3.400250 1_555
Gd8_4 In4_0 3.400250 1_555
Gd8_4 In4_4 3.400250 1_555
Gd8_5 Ni0_5 2.928320 1_555
Gd8_5 Ni0_1 2.928320 1_555
Gd8_5 Ni2_1 2.928320 1_555
Gd8_5 Ni2_5 2.928320 1_555
Gd8_5 In8_5 3.335663 1_555
Gd8_5 In8_1 3.335663 1_555
Gd8_5 In6_1 3.400250 1_555
Gd8_5 In6_5 3.400250 1_555
Gd8_5 In4_5 3.400250 1_555
Gd8_5 In4_1 3.400250 1_555
Gd8_6 Ni2_6 2.928320 1_555
Gd8_6 Ni0_6 2.928320 1_555
Gd8_6 Ni0_2 2.928320 1_555
Gd8_6 Ni2_2 2.928320 1_555
Gd8_6 In8_2 3.335663 1_555
Gd8_6 In8_6 3.335663 1_555
Gd8_6 In4_6 3.400250 1_555
Gd8_6 In4_2 3.400250 1_555
Gd8_6 In6_2 3.400250 1_555
Gd8_6 In6_6 3.400250 1_555
Gd8_7 Ni2_3 2.928320 1_555
Gd8_7 Ni0_3 2.928320 1_555
Gd8_7 Ni0_7 2.928320 1_555
Gd8_7 Ni2_7 2.928320 1_555
Gd8_7 In8_7 3.335663 1_555
Gd8_7 In8_3 3.335663 1_555
Gd8_7 In6_3 3.400250 1_555
Gd8_7 In4_3 3.400250 1_555
Gd8_7 In6_7 3.400250 1_555
Gd8_7 In4_7 3.400250 1_555
Gd9_0 Ni3_0 2.928320 1_555
Gd9_0 Ni3_4 2.928320 1_455
Gd9_0 Ni1_0 2.928320 1_555
Gd9_0 Ni1_4 2.928320 1_455
Gd9_0 In8_0 3.335663 1_555
Gd9_0 In8_4 3.335663 1_455
Gd9_0 In7_0 3.400250 1_555
Gd9_0 In7_4 3.400250 1_455
Gd9_0 In5_0 3.400250 1_555
Gd9_0 In5_4 3.400250 1_455
Gd9_1 Ni3_1 2.928320 1_555
Gd9_1 Ni3_5 2.928320 1_455
Gd9_1 Ni1_1 2.928320 1_555
Gd9_1 Ni1_5 2.928320 1_455
Gd9_1 In8_1 3.335663 1_555
Gd9_1 In8_5 3.335663 1_455
Gd9_1 In7_1 3.400250 1_555
Gd9_1 In7_5 3.400250 1_455
Gd9_1 In5_5 3.400250 1_455
Gd9_1 In5_1 3.400250 1_555
Gd9_2 Ni3_2 2.928320 1_555
Gd9_2 Ni3_6 2.928320 1_455
Gd9_2 Ni1_2 2.928320 1_555
Gd9_2 Ni1_6 2.928320 1_455
Gd9_2 In8_6 3.335663 1_455
Gd9_2 In8_2 3.335663 1_555
Gd9_2 In5_2 3.400250 1_555
Gd9_2 In5_6 3.400250 1_455
Gd9_2 In7_2 3.400250 1_555
Gd9_2 In7_6 3.400250 1_455
Gd9_3 Ni1_3 2.928320 1_555
Gd9_3 Ni1_7 2.928320 1_455
Gd9_3 Ni3_3 2.928320 1_555
Gd9_3 Ni3_7 2.928320 1_455
Gd9_3 In8_3 3.335663 1_555
Gd9_3 In8_7 3.335663 1_455
Gd9_3 In7_7 3.400250 1_455
Gd9_3 In7_3 3.400250 1_555
Gd9_3 In5_3 3.400250 1_555
Gd9_3 In5_7 3.400250 1_455
Gd9_4 Ni3_0 2.928320 1_555
Gd9_4 Ni1_0 2.928320 1_555
Gd9_4 Ni3_4 2.928320 1_555
Gd9_4 Ni1_4 2.928320 1_555
Gd9_4 In8_4 3.335663 1_555
Gd9_4 In8_0 3.335663 1_555
Gd9_4 In7_4 3.400250 1_555
Gd9_4 In7_0 3.400250 1_555
Gd9_4 In5_0 3.400250 1_555
Gd9_4 In5_4 3.400250 1_555
Gd9_5 Ni3_1 2.928320 1_555
Gd9_5 Ni3_5 2.928320 1_555
Gd9_5 Ni1_1 2.928320 1_555
Gd9_5 Ni1_5 2.928320 1_555
Gd9_5 In8_1 3.335663 1_555
Gd9_5 In8_5 3.335663 1_555
Gd9_5 In7_5 3.400250 1_555
Gd9_5 In7_1 3.400250 1_555
Gd9_5 In5_1 3.400250 1_555
Gd9_5 In5_5 3.400250 1_555
Gd9_6 Ni3_2 2.928320 1_555
Gd9_6 Ni3_6 2.928320 1_555
Gd9_6 Ni1_2 2.928320 1_555
Gd9_6 Ni1_6 2.928320 1_555
Gd9_6 In8_6 3.335663 1_555
Gd9_6 In8_2 3.335663 1_555
Gd9_6 In5_2 3.400250 1_555
Gd9_6 In5_6 3.400250 1_555
Gd9_6 In7_2 3.400250 1_555
Gd9_6 In7_6 3.400250 1_555
Gd9_7 Ni1_3 2.928320 1_555
Gd9_7 Ni3_3 2.928320 1_555
Gd9_7 Ni1_7 2.928320 1_555
Gd9_7 Ni3_7 2.928320 1_555
Gd9_7 In8_7 3.335663 1_555
Gd9_7 In8_3 3.335663 1_555
Gd9_7 In7_3 3.400250 1_555
Gd9_7 In7_7 3.400250 1_555
Gd9_7 In5_3 3.400250 1_555
Gd9_7 In5_7 3.400250 1_555
Gd10_0 In4_3 3.252363 1_544
Gd10_0 In6_3 3.252363 1_544
Gd10_0 In6_7 3.252363 1_444
Gd10_0 In4_7 3.252363 1_444
Gd10_0 In5_0 3.252363 1_555
Gd10_0 In5_4 3.252363 1_455
Gd10_0 In7_4 3.252363 1_455
Gd10_0 In7_0 3.252363 1_555
Gd10_0 Gd4_1 3.401646 1_554
Gd10_0 Gd5_2 3.401646 1_545
Gd10_0 Gd10_4 3.668915 1_455
Gd10_0 Gd10_4 3.668915 1_555
Gd10_1 In6_6 3.252363 1_445
Gd10_1 In6_2 3.252363 1_545
Gd10_1 In4_2 3.252363 1_545
Gd10_1 In4_6 3.252363 1_445
Gd10_1 In7_1 3.252363 1_555
Gd10_1 In7_5 3.252363 1_455
Gd10_1 In5_5 3.252363 1_455
Gd10_1 In5_1 3.252363 1_555
Gd10_1 Gd4_0 3.401646 1_555
Gd10_1 Gd5_3 3.401646 1_545
Gd10_1 Gd10_5 3.668915 1_455
Gd10_1 Gd10_5 3.668915 1_555
Gd10_2 In4_1 3.252363 1_554
Gd10_2 In4_5 3.252363 1_454
Gd10_2 In6_5 3.252363 1_454
Gd10_2 In6_1 3.252363 1_554
Gd10_2 In5_2 3.252363 1_555
Gd10_2 In5_6 3.252363 1_455
Gd10_2 In7_2 3.252363 1_555
Gd10_2 In7_6 3.252363 1_455
Gd10_2 Gd5_0 3.401646 1_555
Gd10_2 Gd4_3 3.401646 1_554
Gd10_2 Gd10_6 3.668915 1_455
Gd10_2 Gd10_6 3.668915 1_555
Gd10_3 In7_3 3.252363 1_555
Gd10_3 In5_3 3.252363 1_555
Gd10_3 In6_0 3.252363 1_555
Gd10_3 In5_7 3.252363 1_455
Gd10_3 In6_4 3.252363 1_455
Gd10_3 In7_7 3.252363 1_455
Gd10_3 In4_0 3.252363 1_555
Gd10_3 In4_4 3.252363 1_455
Gd10_3 Gd4_2 3.401646 1_555
Gd10_3 Gd5_1 3.401646 1_555
Gd10_3 Gd10_7 3.668915 1_455
Gd10_3 Gd10_7 3.668915 1_555
Gd10_4 In4_3 3.252363 1_544
Gd10_4 In6_3 3.252363 1_544
Gd10_4 In4_7 3.252363 1_544
Gd10_4 In6_7 3.252363 1_544
Gd10_4 In5_4 3.252363 1_555
Gd10_4 In5_0 3.252363 1_555
Gd10_4 In7_4 3.252363 1_555
Gd10_4 In7_0 3.252363 1_555
Gd10_4 Gd4_5 3.401646 1_554
Gd10_4 Gd5_6 3.401646 1_545
Gd10_5 In6_6 3.252363 1_545
Gd10_5 In6_2 3.252363 1_545
Gd10_5 In4_2 3.252363 1_545
Gd10_5 In4_6 3.252363 1_545
Gd10_5 In7_5 3.252363 1_555
Gd10_5 In7_1 3.252363 1_555
Gd10_5 In5_5 3.252363 1_555
Gd10_5 In5_1 3.252363 1_555
Gd10_5 Gd4_4 3.401646 1_555
Gd10_5 Gd5_7 3.401646 1_545
Gd10_6 In4_1 3.252363 1_554
Gd10_6 In4_5 3.252363 1_554
Gd10_6 In6_1 3.252363 1_554
Gd10_6 In6_5 3.252363 1_554
Gd10_6 In5_2 3.252363 1_555
Gd10_6 In5_6 3.252363 1_555
Gd10_6 In7_2 3.252363 1_555
Gd10_6 In7_6 3.252363 1_555
Gd10_6 Gd5_4 3.401646 1_555
Gd10_6 Gd4_7 3.401646 1_554
Gd10_7 In7_3 3.252363 1_555
Gd10_7 In7_7 3.252363 1_555
Gd10_7 In5_3 3.252363 1_555
Gd10_7 In6_0 3.252363 1_555
Gd10_7 In5_7 3.252363 1_555
Gd10_7 In6_4 3.252363 1_555
Gd10_7 In4_4 3.252363 1_555
Gd10_7 In4_0 3.252363 1_555
Gd10_7 Gd5_5 3.401646 1_555
Gd10_7 Gd4_6 3.401646 1_555
In0_0 Ni1_0 2.968362 1_555
In0_0 In3_0 3.038289 1_555
In0_1 Ni1_1 2.968362 1_555
In0_1 In3_1 3.038289 1_555
In0_2 Ni1_2 2.968362 1_555
In0_2 In3_2 3.038289 1_555
In0_3 Ni1_3 2.968362 1_555
In0_3 In3_3 3.038289 1_555
In0_4 Ni1_4 2.968362 1_555
In0_4 In3_4 3.038289 1_555
In0_5 Ni1_5 2.968362 1_555
In0_5 In3_5 3.038289 1_555
In0_6 Ni1_6 2.968362 1_555
In0_6 In3_6 3.038289 1_555
In0_7 Ni1_7 2.968362 1_555
In0_7 In3_7 3.038289 1_555
In1_0 Ni0_0 2.968362 1_555
In1_0 In2_0 3.038289 1_555
In1_1 Ni0_1 2.968362 1_555
In1_1 In2_1 3.038289 1_555
In1_2 Ni0_2 2.968362 1_555
In1_2 In2_2 3.038289 1_555
In1_3 Ni0_3 2.968362 1_555
In1_3 In2_3 3.038289 1_555
In1_4 Ni0_4 2.968362 1_555
In1_4 In2_4 3.038289 1_555
In1_5 Ni0_5 2.968362 1_555
In1_5 In2_5 3.038289 1_555
In1_6 Ni0_6 2.968362 1_555
In1_6 In2_6 3.038289 1_555
In1_7 Ni0_7 2.968362 1_555
In1_7 In2_7 3.038289 1_555
In2_0 Ni3_0 2.968362 1_555
In2_1 Ni3_1 2.968362 1_555
In2_2 Ni3_2 2.968362 1_555
In2_3 Ni3_3 2.968362 1_555
In2_4 Ni3_4 2.968362 1_555
In2_5 Ni3_5 2.968362 1_555
In2_6 Ni3_6 2.968362 1_555
In2_7 Ni3_7 2.968362 1_555
In3_0 Ni2_0 2.968362 1_555
In3_1 Ni2_1 2.968362 1_555
In3_2 Ni2_2 2.968362 1_555
In3_3 Ni2_3 2.968362 1_555
In3_4 Ni2_4 2.968362 1_555
In3_5 Ni2_5 2.968362 1_555
In3_6 Ni2_6 2.968362 1_555
In3_7 Ni2_7 2.968362 1_555
In4_0 Ni0_0 3.008593 1_555
In4_0 In6_0 3.064308 1_555
In4_1 Ni0_1 3.008593 1_555
In4_1 In6_1 3.064308 1_555
In4_2 Ni0_2 3.008593 1_555
In4_2 In6_2 3.064308 1_555
In4_3 Ni0_3 3.008593 1_555
In4_3 In6_3 3.064308 1_555
In4_4 Ni0_4 3.008593 1_555
In4_4 In6_4 3.064308 1_555
In4_5 Ni0_5 3.008593 1_555
In4_5 In6_5 3.064308 1_555
In4_6 Ni0_6 3.008593 1_555
In4_6 In6_6 3.064308 1_555
In4_7 Ni0_7 3.008593 1_555
In4_7 In6_7 3.064308 1_555
In5_0 Ni1_0 3.008593 1_555
In5_0 In7_0 3.064308 1_555
In5_1 Ni1_1 3.008593 1_555
In5_1 In7_1 3.064308 1_555
In5_2 Ni1_2 3.008593 1_555
In5_2 In7_2 3.064308 1_555
In5_3 Ni1_3 3.008593 1_555
In5_3 In7_3 3.064308 1_555
In5_4 Ni1_4 3.008593 1_555
In5_4 In7_4 3.064308 1_555
In5_5 Ni1_5 3.008593 1_555
In5_5 In7_5 3.064308 1_555
In5_6 Ni1_6 3.008593 1_555
In5_6 In7_6 3.064308 1_555
In5_7 Ni1_7 3.008593 1_555
In5_7 In7_7 3.064308 1_555
In6_0 Ni2_0 3.008593 1_555
In6_1 Ni2_1 3.008593 1_555
In6_2 Ni2_2 3.008593 1_555
In6_3 Ni2_3 3.008593 1_555
In6_4 Ni2_4 3.008593 1_555
In6_5 Ni2_5 3.008593 1_555
In6_6 Ni2_6 3.008593 1_555
In6_7 Ni2_7 3.008593 1_555
In7_0 Ni3_0 3.008593 1_555
In7_1 Ni3_1 3.008593 1_555
In7_2 Ni3_2 3.008593 1_555
In7_3 Ni3_3 3.008593 1_555
In7_4 Ni3_4 3.008593 1_555
In7_5 Ni3_5 3.008593 1_555
In7_6 Ni3_6 3.008593 1_555
In7_7 Ni3_7 3.008593 1_555
In8_0 Ni3_0 3.183336 1_555
In8_0 Ni1_0 3.183336 1_555
In8_0 Ni2_0 3.183336 1_555
In8_0 Ni0_0 3.183336 1_555
In8_1 Ni3_1 3.183336 1_555
In8_1 Ni1_1 3.183336 1_555
In8_1 Ni0_1 3.183336 1_555
In8_1 Ni2_1 3.183336 1_555
In8_2 Ni3_2 3.183336 1_555
In8_2 Ni1_2 3.183336 1_555
In8_2 Ni0_2 3.183336 1_555
In8_2 Ni2_2 3.183336 1_555
In8_3 Ni1_3 3.183336 1_555
In8_3 Ni3_3 3.183336 1_555
In8_3 Ni2_3 3.183336 1_555
In8_3 Ni0_3 3.183336 1_555
In8_4 Ni3_4 3.183336 1_555
In8_4 Ni1_4 3.183336 1_555
In8_4 Ni2_4 3.183336 1_555
In8_4 Ni0_4 3.183336 1_555
In8_5 Ni3_5 3.183336 1_555
In8_5 Ni1_5 3.183336 1_555
In8_5 Ni0_5 3.183336 1_555
In8_5 Ni2_5 3.183336 1_555
In8_6 Ni3_6 3.183336 1_555
In8_6 Ni1_6 3.183336 1_555
In8_6 Ni2_6 3.183336 1_555
In8_6 Ni0_6 3.183336 1_555
In8_7 Ni1_7 3.183336 1_555
In8_7 Ni3_7 3.183336 1_555
In8_7 Ni0_7 3.183336 1_555
In8_7 Ni2_7 3.183336 1_555
