# generated using pymatgen
data_Mg14CoCuO16
_symmetry_space_group_name_H-M   'P 1'
_cell_length_a   8.50390111
_cell_length_b   8.52719041
_cell_length_c   4.25578602
_cell_angle_alpha   90.00000000
_cell_angle_beta   90.00000000
_cell_angle_gamma   90.00000000
_symmetry_Int_Tables_number   1
_chemical_formula_structural   Mg14CoCuO16
_chemical_formula_sum   'Mg14 Co1 Cu1 O16'
_cell_volume   308.60570165
_cell_formula_units_Z   1
loop_
 _symmetry_equiv_pos_site_id
 _symmetry_equiv_pos_as_xyz
  1  'x, y, z'
loop_
 _atom_site_type_symbol
 _atom_site_label
 _atom_site_symmetry_multiplicity
 _atom_site_fract_x
 _atom_site_fract_y
 _atom_site_fract_z
 _atom_site_occupancy
  Mg  Mg0  1  0.50000000  -0.00000000  0.00000000  1
  Mg  Mg1  1  0.50000000  0.50000000  0.00000000  1
  Mg  Mg2  1  -0.00000000  0.25140704  0.50000000  1
  Mg  Mg3  1  -0.00000000  0.74859296  0.50000000  1
  Mg  Mg4  1  0.50000000  0.24996144  0.50000000  1
  Mg  Mg5  1  0.50000000  0.75003856  0.50000000  1
  Mg  Mg6  1  0.24808569  -0.00000000  0.50000000  1
  Mg  Mg7  1  0.24842228  0.50000000  0.50000000  1
  Mg  Mg8  1  0.75191431  -0.00000000  0.50000000  1
  Mg  Mg9  1  0.75157772  0.50000000  0.50000000  1
  Mg  Mg10  1  0.24897949  0.24963198  0.00000000  1
  Mg  Mg11  1  0.24897949  0.75036802  -0.00000000  1
  Mg  Mg12  1  0.75102051  0.24963198  0.00000000  1
  Mg  Mg13  1  0.75102051  0.75036802  -0.00000000  1
  Co  Co0  1  -0.00000000  0.50000000  0.00000000  1
  Cu  Cu0  1  -0.00000000  -0.00000000  0.00000000  1
  O  O0  1  0.25143192  -0.00000000  -0.00000000  1
  O  O1  1  0.25249549  0.50000000  0.00000000  1
  O  O2  1  0.74856808  -0.00000000  0.00000000  1
  O  O3  1  0.74750451  0.50000000  0.00000000  1
  O  O4  1  0.24911959  0.24953870  0.50000000  1
  O  O5  1  0.24911959  0.75046130  0.50000000  1
  O  O6  1  0.75088041  0.24953870  0.50000000  1
  O  O7  1  0.75088041  0.75046130  0.50000000  1
  O  O8  1  -0.00000000  -0.00000000  0.50000000  1
  O  O9  1  -0.00000000  0.50000000  0.50000000  1
  O  O10  1  0.50000000  -0.00000000  0.50000000  1
  O  O11  1  0.50000000  0.50000000  0.50000000  1
  O  O12  1  -0.00000000  0.25953323  -0.00000000  1
  O  O13  1  -0.00000000  0.74046677  0.00000000  1
  O  O14  1  0.50000000  0.24954037  0.00000000  1
  O  O15  1  0.50000000  0.75045963  0.00000000  1
loop_
_geom_bond_atom_site_label_1
_geom_bond_atom_site_label_2
_geom_bond_distance
_geom_bond_site_symmetry_2
Mg0 O2 2.113798 1_555
Mg0 O0 2.113798 1_555
Mg0 O15 2.127878 1_545
Mg0 O14 2.127878 1_555
Mg0 O10 2.127893 1_555
Mg0 O10 2.127893 1_554
Mg1 O3 2.104754 1_555
Mg1 O1 2.104754 1_555
Mg1 O11 2.127893 1_554
Mg1 O11 2.127893 1_555
Mg1 O14 2.135717 1_555
Mg1 O15 2.135717 1_555
Mg2 O6 2.118548 1_455
Mg2 O4 2.118548 1_555
Mg2 O9 2.119800 1_555
Mg2 O12 2.129021 1_555
Mg2 O12 2.129021 1_556
Mg2 O8 2.143796 1_555
Mg3 O7 2.118548 1_455
Mg3 O5 2.118548 1_555
Mg3 O9 2.119800 1_555
Mg3 O13 2.129021 1_555
Mg3 O13 2.129021 1_556
Mg3 O8 2.143796 1_565
Mg4 O14 2.127896 1_556
Mg4 O14 2.127896 1_555
Mg4 O10 2.131469 1_555
Mg4 O11 2.132126 1_555
Mg4 O4 2.133465 1_555
Mg4 O6 2.133465 1_555
Mg5 O15 2.127896 1_556
Mg5 O15 2.127896 1_555
Mg5 O10 2.131469 1_565
Mg5 O11 2.132126 1_555
Mg5 O5 2.133465 1_555
Mg5 O7 2.133465 1_555
Mg6 O8 2.109696 1_555
Mg6 O5 2.127882 1_545
Mg6 O4 2.127882 1_555
Mg6 O0 2.128083 1_555
Mg6 O0 2.128083 1_556
Mg6 O10 2.142254 1_555
Mg7 O9 2.112559 1_555
Mg7 O1 2.128175 1_556
Mg7 O1 2.128175 1_555
Mg7 O4 2.135739 1_555
Mg7 O5 2.135739 1_555
Mg7 O11 2.139392 1_555
Mg8 O8 2.109696 1_655
Mg8 O6 2.127882 1_555
Mg8 O7 2.127882 1_545
Mg8 O2 2.128083 1_555
Mg8 O2 2.128083 1_556
Mg8 O10 2.142254 1_555
Mg9 O9 2.112559 1_655
Mg9 O3 2.128175 1_556
Mg9 O3 2.128175 1_555
Mg9 O6 2.135739 1_555
Mg9 O7 2.135739 1_555
Mg9 O11 2.139392 1_555
Mg10 O12 2.118980 1_555
Mg10 O4 2.127893 1_554
Mg10 O4 2.127893 1_555
Mg10 O0 2.128762 1_555
Mg10 O14 2.134654 1_555
Mg10 O1 2.135145 1_555
Mg11 O13 2.118980 1_555
Mg11 O5 2.127893 1_555
Mg11 O5 2.127893 1_554
Mg11 O0 2.128762 1_565
Mg11 O15 2.134654 1_555
Mg11 O1 2.135145 1_555
Mg12 O12 2.118980 1_655
Mg12 O6 2.127893 1_555
Mg12 O6 2.127893 1_554
Mg12 O2 2.128762 1_555
Mg12 O14 2.134654 1_555
Mg12 O3 2.135145 1_555
Mg13 O13 2.118980 1_655
Mg13 O7 2.127893 1_555
Mg13 O7 2.127893 1_554
Mg13 O2 2.128762 1_565
Mg13 O15 2.134654 1_555
Mg13 O3 2.135145 1_555
Co0 O12 2.050506 1_555
Co0 O13 2.050506 1_555
Co0 O9 2.127893 1_555
Co0 O9 2.127893 1_554
Co0 O1 2.147197 1_555
Co0 O3 2.147197 1_455
Cu0 O8 2.127893 1_554
Cu0 O8 2.127893 1_555
Cu0 O0 2.138152 1_555
Cu0 O2 2.138152 1_455
Cu0 O13 2.213089 1_545
Cu0 O12 2.213089 1_555
