# generated using pymatgen
data_Th2AsNO
_symmetry_space_group_name_H-M   'P 1'
_cell_length_a   4.05904244
_cell_length_b   4.05904244
_cell_length_c   7.00858900
_cell_angle_alpha   90.00000000
_cell_angle_beta   90.00000000
_cell_angle_gamma   120.00000724
_symmetry_Int_Tables_number   1
_chemical_formula_structural   Th2AsNO
_chemical_formula_sum   'Th2 As1 N1 O1'
_cell_volume   100.00192912
_cell_formula_units_Z   1
loop_
 _symmetry_equiv_pos_site_id
 _symmetry_equiv_pos_as_xyz
  1  'x, y, z'
loop_
 _atom_site_type_symbol
 _atom_site_label
 _atom_site_symmetry_multiplicity
 _atom_site_fract_x
 _atom_site_fract_y
 _atom_site_fract_z
 _atom_site_occupancy
  Th  Th0  1  0.66666700  0.33333300  0.71649600  1
  Th  Th1  1  0.00000000  0.00000000  0.28161000  1
  As  As0  1  0.33333300  0.66666700  0.99229400  1
  N  N0  1  0.66666700  0.33333300  0.38141600  1
  O  O0  1  0.00000000  0.00000000  0.62818500  1
loop_
_geom_bond_atom_site_label_1
_geom_bond_atom_site_label_2
_geom_bond_distance
_geom_bond_site_symmetry_2
As0 Th0 3.037803 1_455
As0 Th0 3.037803 1_565
As0 Th0 3.037808 1_555
As0 Th1 3.098949 1_566
As0 Th1 3.098952 1_666
As0 Th1 3.098952 1_556
N0 Th0 2.348438 1_555
N0 Th1 2.445655 1_655
N0 Th1 2.445659 1_555
N0 Th1 2.445659 1_665
O0 Th0 2.423842 1_455
O0 Th0 2.423846 1_555
O0 Th0 2.423846 1_445
O0 Th1 2.429002 1_555
