# generated using pymatgen
data_K2Zn4P4O21
_symmetry_space_group_name_H-M   'P 1'
_cell_length_a   9.23120100
_cell_length_b   9.51518073
_cell_length_c   13.69168341
_cell_angle_alpha   92.10381305
_cell_angle_beta   102.69204010
_cell_angle_gamma   118.92711541
_symmetry_Int_Tables_number   1
_chemical_formula_structural   K2Zn4P4O21
_chemical_formula_sum   'K4 Zn8 P8 O42'
_cell_volume   1012.36498466
_cell_formula_units_Z   2
loop_
 _symmetry_equiv_pos_site_id
 _symmetry_equiv_pos_as_xyz
  1  'x, y, z'
loop_
 _atom_site_type_symbol
 _atom_site_label
 _atom_site_symmetry_multiplicity
 _atom_site_fract_x
 _atom_site_fract_y
 _atom_site_fract_z
 _atom_site_occupancy
  K  K0  1  0.33609600  0.07725100  0.68149500  1
  K  K1  1  0.66390400  0.92274900  0.31850500  1
  K  K2  1  0.36128300  0.39699500  0.12090500  1
  K  K3  1  0.63871700  0.60300500  0.87909500  1
  Zn  Zn0  1  0.59767800  0.42717100  0.47975000  1
  Zn  Zn1  1  0.40232200  0.57282900  0.52025000  1
  Zn  Zn2  1  0.01466800  0.25865600  0.25720900  1
  Zn  Zn3  1  0.98533200  0.74134400  0.74279100  1
  Zn  Zn4  1  0.75061800  0.03985300  0.96443100  1
  Zn  Zn5  1  0.24938200  0.96014700  0.03556900  1
  Zn  Zn6  1  0.98350400  0.16615300  0.64248800  1
  Zn  Zn7  1  0.01649600  0.83384700  0.35751200  1
  P  P0  1  0.17646000  0.19931700  0.46252900  1
  P  P1  1  0.82354000  0.80068300  0.53747100  1
  P  P2  1  0.65916200  0.22482000  0.11758500  1
  P  P3  1  0.34083800  0.77518000  0.88241500  1
  P  P4  1  0.03786800  0.05474800  0.86066500  1
  P  P5  1  0.96213200  0.94525200  0.13933500  1
  P  P6  1  0.77103000  0.34361100  0.67965300  1
  P  P7  1  0.22897000  0.65638900  0.32034700  1
  O  O0  1  0.34123800  0.35023000  0.44659100  1
  O  O1  1  0.65876200  0.64977000  0.55340900  1
  O  O2  1  0.17855800  0.23574500  0.57640100  1
  O  O3  1  0.82144200  0.76425500  0.42359900  1
  O  O4  1  0.18883800  0.04470000  0.44860100  1
  O  O5  1  0.81116200  0.95530000  0.55139900  1
  O  O6  1  0.01603300  0.18759600  0.39065600  1
  O  O7  1  0.98396700  0.81240400  0.60934400  1
  O  O8  1  0.68246300  0.39808500  0.12992600  1
  O  O9  1  0.31753700  0.60191500  0.87007400  1
  O  O10  1  0.77483300  0.19630700  0.20360400  1
  O  O11  1  0.22516700  0.80369300  0.79639600  1
  O  O12  1  0.67778600  0.18166900  0.01328900  1
  O  O13  1  0.32221400  0.81833100  0.98671100  1
  O  O14  1  0.47221000  0.12966800  0.12866100  1
  O  O15  1  0.52779000  0.87033200  0.87133900  1
  O  O16  1  0.09825200  0.13268100  0.76971800  1
  O  O17  1  0.90174800  0.86731900  0.23028200  1
  O  O18  1  0.93401500  0.12003500  0.89944300  1
  O  O19  1  0.06598500  0.87996500  0.10055700  1
  O  O20  1  0.20728100  0.10894300  0.94884200  1
  O  O21  1  0.79271900  0.89105700  0.05115800  1
  O  O22  1  0.93268400  0.86543500  0.83397900  1
  O  O23  1  0.06731600  0.13456500  0.16602100  1
  O  O24  1  0.82817200  0.51265000  0.73707900  1
  O  O25  1  0.17182800  0.48735000  0.26292100  1
  O  O26  1  0.63397200  0.30453400  0.57688300  1
  O  O27  1  0.36602800  0.69546600  0.42311700  1
  O  O28  1  0.68444700  0.21583400  0.74504000  1
  O  O29  1  0.31555300  0.78416600  0.25496000  1
  O  O30  1  0.92310800  0.33181700  0.65901000  1
  O  O31  1  0.07689200  0.66818300  0.34099000  1
  O  O32  1  0.75446000  0.30002700  0.38987000  1
  O  O33  1  0.24554000  0.69997300  0.61013000  1
  O  O34  1  0.62456100  0.50656400  0.35354400  1
  O  O35  1  0.37543900  0.49343600  0.64645600  1
  O  O36  1  0.39322000  0.81880600  0.63654600  1
  O  O37  1  0.60678000  0.18119400  0.36345400  1
  O  O38  1  0.03205500  0.45894500  0.99075400  1
  O  O39  1  0.96794500  0.54105500  0.00924600  1
  O  O40  1  0.42377000  0.24618400  0.88083100  1
  O  O41  1  0.57623000  0.75381600  0.11916900  1
loop_
_geom_bond_atom_site_label_1
_geom_bond_atom_site_label_2
_geom_bond_distance
_geom_bond_site_symmetry_2
K0 O28 2.724109 1_555
K0 O2 2.796640 1_555
K0 O36 2.826697 1_545
K0 O40 2.852433 1_555
K0 O7 2.893867 1_445
K0 O11 2.954469 1_545
K0 O16 2.965925 1_555
K0 O4 3.118837 1_555
K0 O26 3.239590 1_555
K1 O29 2.724109 1_555
K1 O3 2.796640 1_555
K1 O37 2.826697 1_565
K1 O41 2.852433 1_555
K1 O6 2.893867 1_665
K1 O10 2.954469 1_565
K1 O17 2.965925 1_555
K1 O5 3.118837 1_555
K1 O27 3.239590 1_555
K2 O23 2.876715 1_555
K2 O8 2.935149 1_555
K2 O41 2.995771 1_555
K2 O20 3.060741 1_554
K2 O14 3.165733 1_555
K2 O25 3.225645 1_555
K2 O34 3.323037 1_555
K3 O22 2.876715 1_555
K3 O9 2.935149 1_555
K3 O40 2.995771 1_555
K3 O21 3.060741 1_556
K3 O15 3.165733 1_555
K3 O24 3.225645 1_555
K3 O35 3.323037 1_555
O0 P0 1.574546 1_555
O0 Zn0 2.042727 1_555
O0 Zn1 2.063775 1_555
O1 P1 1.574546 1_555
O1 Zn1 2.042727 1_555
O1 Zn0 2.063775 1_555
O2 P0 1.578566 1_555
O2 Zn6 2.026278 1_455
O3 P1 1.578566 1_555
O3 Zn7 2.026278 1_655
O4 P0 1.538011 1_555
O4 Zn7 1.992065 1_545
O5 P1 1.538011 1_555
O5 Zn6 1.992065 1_565
O6 P0 1.538104 1_555
O6 Zn2 1.970916 1_555
O7 P1 1.538104 1_555
O7 Zn3 1.970916 1_555
O8 P2 1.553505 1_555
O9 P3 1.553505 1_555
O10 P2 1.533608 1_555
O10 Zn2 1.943102 1_655
O11 P3 1.533608 1_555
O11 Zn3 1.943102 1_455
O12 P2 1.539613 1_555
O12 Zn4 1.931171 1_554
O13 P3 1.539613 1_555
O13 Zn5 1.931171 1_556
O14 P2 1.560321 1_555
O14 Zn5 1.986144 1_545
O15 P3 1.560321 1_555
O15 Zn4 1.986144 1_565
O16 P4 1.544053 1_555
O16 Zn6 1.953018 1_455
O17 P5 1.544053 1_555
O17 Zn7 1.953018 1_655
O18 P4 1.537034 1_655
O18 Zn4 1.924121 1_555
O19 P5 1.537034 1_455
O19 Zn5 1.924121 1_555
O20 P4 1.585460 1_555
O20 Zn5 2.004633 1_546
O21 P5 1.585460 1_555
O21 Zn4 2.004633 1_564
O22 P4 1.557208 1_665
O22 Zn3 1.975525 1_555
O23 P5 1.557208 1_445
O23 Zn2 1.975525 1_555
O24 P6 1.545202 1_555
O24 Zn3 1.931251 1_555
O25 P7 1.545202 1_555
O25 Zn2 1.931251 1_555
O26 P6 1.563050 1_555
O26 Zn0 1.881214 1_555
O27 P7 1.563050 1_555
O27 Zn1 1.881214 1_555
O28 P6 1.540389 1_555
O29 P7 1.540389 1_555
O30 P6 1.545232 1_555
O30 Zn6 1.930345 1_555
O31 P7 1.545232 1_555
O31 Zn7 1.930345 1_555
O32 O37 1.236903 1_555
O33 O36 1.236903 1_555
O34 Zn0 1.929009 1_555
O35 Zn1 1.929009 1_555
O38 O39 1.234254 1_456
