# generated using pymatgen
data_YMg14Nb
_symmetry_space_group_name_H-M   'P 1'
_cell_length_a   6.49171944
_cell_length_b   6.49171890
_cell_length_c   10.07598137
_cell_angle_alpha   90.00000000
_cell_angle_beta   90.00000000
_cell_angle_gamma   120.00000278
_symmetry_Int_Tables_number   1
_chemical_formula_structural   YMg14Nb
_chemical_formula_sum   'Y1 Mg14 Nb1'
_cell_volume   367.73707999
_cell_formula_units_Z   1
loop_
 _symmetry_equiv_pos_site_id
 _symmetry_equiv_pos_as_xyz
  1  'x, y, z'
loop_
 _atom_site_type_symbol
 _atom_site_label
 _atom_site_symmetry_multiplicity
 _atom_site_fract_x
 _atom_site_fract_y
 _atom_site_fract_z
 _atom_site_occupancy
  Y  Y0  1  0.16666700  0.33333300  0.12500000  1
  Mg  Mg0  1  0.17412951  0.83706426  0.12500000  1
  Mg  Mg1  1  0.16596901  0.83298400  0.62500000  1
  Mg  Mg2  1  0.66293574  0.32587049  0.12500000  1
  Mg  Mg3  1  0.66701600  0.33403099  0.62500000  1
  Mg  Mg4  1  0.66293574  0.83706426  0.12500000  1
  Mg  Mg5  1  0.66701600  0.83298400  0.62500000  1
  Mg  Mg6  1  0.33096255  0.16903745  0.38520892  1
  Mg  Mg7  1  0.33096255  0.16903745  0.86479108  1
  Mg  Mg8  1  0.33096255  0.66192610  0.38520892  1
  Mg  Mg9  1  0.33096255  0.66192610  0.86479108  1
  Mg  Mg10  1  0.83807390  0.16903745  0.38520892  1
  Mg  Mg11  1  0.83807390  0.16903745  0.86479108  1
  Mg  Mg12  1  0.83333300  0.66666700  0.37098484  1
  Mg  Mg13  1  0.83333300  0.66666700  0.87901516  1
  Nb  Nb0  1  0.16666700  0.33333300  0.62500000  1
loop_
_geom_bond_atom_site_label_1
_geom_bond_atom_site_label_2
_geom_bond_distance
_geom_bond_site_symmetry_2
Mg0 Mg13 3.132737 1_454
Mg0 Mg12 3.132737 1_455
Mg0 Mg2 3.173193 1_565
Mg0 Mg4 3.173193 1_555
Mg0 Mg8 3.218836 1_555
Mg0 Mg9 3.218836 1_554
Mg0 Mg7 3.218843 1_564
Mg0 Mg6 3.218843 1_565
Mg0 Y0 3.246131 1_565
Mg0 Y0 3.246131 1_555
Mg0 Mg2 3.318526 1_455
Mg0 Mg4 3.318527 1_455
Mg1 Mg8 3.067157 1_555
Mg1 Mg9 3.067157 1_555
Mg1 Mg6 3.067163 1_565
Mg1 Mg7 3.067163 1_565
Mg1 Mg13 3.169856 1_455
Mg1 Mg12 3.169856 1_455
Mg1 Mg3 3.239063 1_455
Mg1 Mg5 3.239063 1_455
Mg1 Nb0 3.245862 1_555
Mg1 Nb0 3.245862 1_565
Mg1 Mg3 3.252656 1_565
Mg1 Mg5 3.252656 1_555
Mg2 Mg4 3.173193 1_545
Mg2 Mg7 3.218843 1_554
Mg2 Mg6 3.218843 1_555
Mg2 Y0 3.246131 1_555
Mg2 Y0 3.246131 1_655
Mg2 Mg4 3.318526 1_555
Mg3 Mg6 3.067164 1_555
Mg3 Mg7 3.067164 1_555
Mg3 Mg5 3.239063 1_555
Mg3 Nb0 3.245862 1_655
Mg3 Nb0 3.245862 1_555
Mg3 Mg5 3.252656 1_545
Mg4 Mg9 3.218843 1_554
Mg4 Mg8 3.218843 1_555
Mg4 Y0 3.246131 1_555
Mg4 Y0 3.246131 1_665
Mg5 Mg8 3.067163 1_555
Mg5 Mg9 3.067163 1_555
Mg5 Nb0 3.245862 1_665
Mg5 Nb0 3.245862 1_555
Mg6 Nb0 3.041437 1_555
Mg6 Mg8 3.199695 1_555
Mg6 Y0 3.207305 1_555
Mg6 Mg8 3.292024 1_545
Mg7 Nb0 3.041437 1_555
Mg7 Mg9 3.199695 1_555
Mg7 Y0 3.207305 1_556
Mg7 Mg9 3.292024 1_545
Mg8 Nb0 3.041444 1_555
Mg8 Y0 3.207311 1_555
Mg9 Nb0 3.041444 1_555
Mg9 Y0 3.207311 1_556
Mg10 Nb0 3.041444 1_655
Mg10 Mg3 3.067157 1_555
Mg10 Mg5 3.067163 1_545
Mg10 Mg8 3.199695 1_655
Mg10 Mg6 3.199695 1_655
Mg10 Y0 3.207312 1_655
Mg10 Mg2 3.218836 1_555
Mg10 Mg4 3.218842 1_545
Mg10 Mg12 3.249131 1_545
Mg10 Mg12 3.249131 1_555
Mg10 Mg8 3.292024 1_545
Mg10 Mg6 3.292025 1_555
Mg11 Nb0 3.041444 1_655
Mg11 Mg3 3.067157 1_555
Mg11 Mg5 3.067163 1_545
Mg11 Mg9 3.199695 1_655
Mg11 Mg7 3.199695 1_655
Mg11 Y0 3.207312 1_656
Mg11 Mg2 3.218836 1_556
Mg11 Mg4 3.218842 1_546
Mg11 Mg13 3.249131 1_545
Mg11 Mg13 3.249131 1_555
Mg11 Mg9 3.292024 1_545
Mg11 Mg7 3.292025 1_555
Mg12 Mg4 3.132730 1_555
Mg12 Mg2 3.132737 1_555
Mg12 Mg5 3.169849 1_555
Mg12 Mg3 3.169856 1_555
Mg12 Mg6 3.249131 1_665
Mg12 Mg6 3.249131 1_555
Mg12 Mg8 3.249132 1_555
Mg12 Mg8 3.249132 1_655
Mg13 Mg4 3.132730 1_556
Mg13 Mg2 3.132737 1_556
Mg13 Mg5 3.169849 1_555
Mg13 Mg3 3.169856 1_555
Mg13 Mg7 3.249131 1_665
Mg13 Mg7 3.249131 1_555
Mg13 Mg9 3.249132 1_555
Mg13 Mg9 3.249132 1_655
