# generated using pymatgen
data_CsTl(SO5)2
_symmetry_space_group_name_H-M   'P 1'
_cell_length_a   8.97052709
_cell_length_b   8.97052709
_cell_length_c   7.29816924
_cell_angle_alpha   81.00984452
_cell_angle_beta   81.00984452
_cell_angle_gamma   116.16298733
_symmetry_Int_Tables_number   1
_chemical_formula_structural   CsTl(SO5)2
_chemical_formula_sum   'Cs2 Tl2 S4 O20'
_cell_volume   503.56609356
_cell_formula_units_Z   2
loop_
 _symmetry_equiv_pos_site_id
 _symmetry_equiv_pos_as_xyz
  1  'x, y, z'
loop_
 _atom_site_type_symbol
 _atom_site_label
 _atom_site_symmetry_multiplicity
 _atom_site_fract_x
 _atom_site_fract_y
 _atom_site_fract_z
 _atom_site_occupancy
  Cs  Cs0  1  0.38746000  0.61254000  0.25000000  1
  Cs  Cs1  1  0.61254000  0.38746000  0.75000000  1
  Tl  Tl0  1  0.80810100  0.19189900  0.25000000  1
  Tl  Tl1  1  0.19189900  0.80810100  0.75000000  1
  S  S0  1  0.89630700  0.60929200  0.18870300  1
  S  S1  1  0.39070800  0.10369300  0.31129700  1
  S  S2  1  0.10369300  0.39070800  0.81129700  1
  S  S3  1  0.60929200  0.89630700  0.68870300  1
  O  O0  1  0.78271600  0.58477400  0.05911200  1
  O  O1  1  0.41522600  0.21728400  0.44088800  1
  O  O2  1  0.21728400  0.41522600  0.94088800  1
  O  O3  1  0.58477400  0.78271600  0.55911200  1
  O  O4  1  0.08055400  0.68060400  0.07850200  1
  O  O5  1  0.31939600  0.91944600  0.42149800  1
  O  O6  1  0.91944600  0.31939600  0.92149800  1
  O  O7  1  0.68060400  0.08055400  0.57850200  1
  O  O8  1  0.87811100  0.71578900  0.31637600  1
  O  O9  1  0.28421100  0.12188900  0.18362400  1
  O  O10  1  0.12188900  0.28421100  0.68362400  1
  O  O11  1  0.71578900  0.87811100  0.81637600  1
  O  O12  1  0.85124200  0.43916300  0.32532400  1
  O  O13  1  0.56083700  0.14875800  0.17467600  1
  O  O14  1  0.14875800  0.56083700  0.67467600  1
  O  O15  1  0.43916300  0.85124200  0.82532400  1
  O  O16  1  0.03698900  0.19865500  0.33988200  1
  O  O17  1  0.80134500  0.96301100  0.16011800  1
  O  O18  1  0.96301100  0.80134500  0.66011800  1
  O  O19  1  0.19865500  0.03698900  0.83988200  1
loop_
_geom_bond_atom_site_label_1
_geom_bond_atom_site_label_2
_geom_bond_distance
_geom_bond_site_symmetry_2
Cs0 O3 3.239463 1_555
Cs0 O2 3.239463 1_554
Cs0 O14 3.317685 1_555
Cs0 O15 3.317685 1_554
Cs0 O5 3.440845 1_555
Cs0 O4 3.440845 1_555
Cs0 O17 3.521349 1_555
Cs0 O16 3.521349 1_555
Cs0 O10 3.592818 1_555
Cs0 O11 3.592818 1_554
Cs0 O1 3.730684 1_555
Cs0 O0 3.730684 1_555
Cs1 O1 3.239463 1_555
Cs1 O0 3.239463 1_556
Cs1 O13 3.317685 1_556
Cs1 O12 3.317685 1_555
Cs1 O6 3.440845 1_555
Cs1 O7 3.440845 1_555
Cs1 O18 3.521349 1_555
Cs1 O19 3.521349 1_555
Cs1 O8 3.592818 1_555
Cs1 O9 3.592818 1_556
Cs1 O2 3.730684 1_555
Cs1 O3 3.730684 1_555
O0 S0 1.466198 1_555
O1 S1 1.466198 1_555
O2 S2 1.466198 1_555
O3 S3 1.466198 1_555
O4 S0 1.509693 1_455
O4 Tl1 2.332553 1_554
O5 S1 1.509693 1_565
O5 Tl1 2.332553 1_555
O6 S2 1.509693 1_655
O6 Tl0 2.332553 1_556
O7 S3 1.509693 1_545
O7 Tl0 2.332553 1_555
O8 S0 1.475026 1_555
O9 S1 1.475026 1_555
O10 S2 1.475026 1_555
O11 S3 1.475026 1_555
O12 S0 1.530069 1_555
O12 Tl0 2.249995 1_555
O13 S1 1.530069 1_555
O13 Tl0 2.249995 1_555
O14 S2 1.530069 1_555
O14 Tl1 2.249995 1_555
O15 S3 1.530069 1_555
O15 Tl1 2.249995 1_555
O16 Tl0 2.230117 1_455
O17 Tl0 2.230117 1_565
O18 Tl1 2.230117 1_655
O19 Tl1 2.230117 1_545
