# generated using pymatgen
data_TeMoSe
_symmetry_space_group_name_H-M   'P 1'
_cell_length_a   3.44061029
_cell_length_b   3.44061029
_cell_length_c   39.03685000
_cell_angle_alpha   90.00000000
_cell_angle_beta   90.00000000
_cell_angle_gamma   120.00000559
_symmetry_Int_Tables_number   1
_chemical_formula_structural   TeMoSe
_chemical_formula_sum   'Te4 Mo4 Se4'
_cell_volume   400.19931507
_cell_formula_units_Z   4
loop_
 _symmetry_equiv_pos_site_id
 _symmetry_equiv_pos_as_xyz
  1  'x, y, z'
loop_
 _atom_site_type_symbol
 _atom_site_label
 _atom_site_symmetry_multiplicity
 _atom_site_fract_x
 _atom_site_fract_y
 _atom_site_fract_z
 _atom_site_occupancy
  Te  Te0  1  0.33333300  0.66666700  0.32931400  1
  Te  Te1  1  0.66666700  0.33333300  0.67068600  1
  Te  Te2  1  0.66666700  0.33333300  0.76572400  1
  Te  Te3  1  0.33333300  0.66666700  0.23427600  1
  Mo  Mo0  1  0.33333300  0.66666700  0.71819400  1
  Mo  Mo1  1  0.33333300  0.66666700  0.09391200  1
  Mo  Mo2  1  0.66666700  0.33333300  0.90608800  1
  Mo  Mo3  1  0.66666700  0.33333300  0.28180600  1
  Se  Se0  1  0.33333300  0.66666700  0.94797300  1
  Se  Se1  1  0.66666700  0.33333300  0.05202700  1
  Se  Se2  1  0.66666700  0.33333300  0.13582900  1
  Se  Se3  1  0.33333300  0.66666700  0.86417100  1
loop_
_geom_bond_atom_site_label_1
_geom_bond_atom_site_label_2
_geom_bond_distance
_geom_bond_site_symmetry_2
Mo0 Te1 2.717596 1_455
Mo0 Te1 2.717596 1_565
Mo0 Te1 2.717600 1_555
Mo0 Te2 2.718182 1_455
Mo0 Te2 2.718182 1_565
Mo0 Te2 2.718187 1_555
Mo1 Se1 2.572808 1_565
Mo1 Se1 2.572808 1_455
Mo1 Se1 2.572813 1_555
Mo1 Se2 2.573602 1_455
Mo1 Se2 2.573602 1_565
Mo1 Se2 2.573607 1_555
Mo2 Se0 2.572808 1_545
Mo2 Se0 2.572808 1_655
Mo2 Se0 2.572813 1_555
Mo2 Se3 2.573602 1_545
Mo2 Se3 2.573602 1_655
Mo2 Se3 2.573607 1_555
Mo3 Te0 2.717596 1_545
Mo3 Te0 2.717596 1_655
Mo3 Te0 2.717600 1_555
Mo3 Te3 2.718182 1_655
Mo3 Te3 2.718182 1_545
Mo3 Te3 2.718187 1_555
