# generated using pymatgen
data_SrPrInO4
_symmetry_space_group_name_H-M   'P 1'
_cell_length_a   5.95500200
_cell_length_b   6.02344000
_cell_length_c   12.46494500
_cell_angle_alpha   90.00000000
_cell_angle_beta   90.00000000
_cell_angle_gamma   90.00000000
_symmetry_Int_Tables_number   1
_chemical_formula_structural   SrPrInO4
_chemical_formula_sum   'Sr4 Pr4 In4 O16'
_cell_volume   447.11255685
_cell_formula_units_Z   4
loop_
 _symmetry_equiv_pos_site_id
 _symmetry_equiv_pos_as_xyz
  1  'x, y, z'
loop_
 _atom_site_type_symbol
 _atom_site_label
 _atom_site_symmetry_multiplicity
 _atom_site_fract_x
 _atom_site_fract_y
 _atom_site_fract_z
 _atom_site_occupancy
  Sr  Sr0  1  0.99239700  0.53591800  0.64749100  1
  Sr  Sr1  1  0.50760300  0.46408200  0.14749100  1
  Sr  Sr2  1  0.49239700  0.96408200  0.35250900  1
  Sr  Sr3  1  0.00760300  0.03591800  0.85250900  1
  Pr  Pr0  1  0.01446000  0.44330500  0.35209700  1
  Pr  Pr1  1  0.48554000  0.55669500  0.85209700  1
  Pr  Pr2  1  0.51446000  0.05669500  0.64790300  1
  Pr  Pr3  1  0.98554000  0.94330500  0.14790300  1
  In  In0  1  0.99628500  0.49293800  0.99917100  1
  In  In1  1  0.50371500  0.50706200  0.49917100  1
  In  In2  1  0.49628500  0.00706200  0.00082900  1
  In  In3  1  0.00371500  0.99293800  0.50082900  1
  O  O0  1  0.22290700  0.27983200  0.53020100  1
  O  O1  1  0.27709300  0.72016800  0.03020100  1
  O  O2  1  0.72290700  0.22016800  0.46979900  1
  O  O3  1  0.77709300  0.77983200  0.96979900  1
  O  O4  1  0.80472500  0.70215400  0.45929600  1
  O  O5  1  0.69527500  0.29784600  0.95929600  1
  O  O6  1  0.30472500  0.79784600  0.54070400  1
  O  O7  1  0.19527500  0.20215400  0.04070400  1
  O  O8  1  0.10977900  0.45657200  0.83124600  1
  O  O9  1  0.39022100  0.54342800  0.33124600  1
  O  O10  1  0.60977900  0.04342800  0.16875400  1
  O  O11  1  0.89022100  0.95657200  0.66875400  1
  O  O12  1  0.91903500  0.55031900  0.17822000  1
  O  O13  1  0.58096500  0.44968100  0.67822000  1
  O  O14  1  0.41903500  0.94968100  0.82178000  1
  O  O15  1  0.08096500  0.05031900  0.32178000  1
loop_
_geom_bond_atom_site_label_1
_geom_bond_atom_site_label_2
_geom_bond_distance
_geom_bond_site_symmetry_2
In0 O7 2.177162 1_656
In0 O1 2.195280 1_656
In0 O3 2.196387 1_555
In0 O5 2.200245 1_555
In0 O8 2.210464 1_655
In0 O12 2.304815 1_556
In1 O6 2.177162 1_555
In1 O0 2.195280 1_555
In1 O2 2.196387 1_555
In1 O4 2.200245 1_555
In1 O9 2.210464 1_555
In1 O13 2.304815 1_555
In2 O5 2.177162 1_554
In2 O3 2.195280 1_544
In2 O1 2.196387 1_545
In2 O7 2.200245 1_555
In2 O10 2.210464 1_555
In2 O14 2.304815 1_544
In3 O4 2.177162 1_455
In3 O2 2.195280 1_465
In3 O0 2.196387 1_565
In3 O6 2.200245 1_555
In3 O11 2.210464 1_455
In3 O15 2.304815 1_565
O0 Sr0 2.530043 1_455
O0 Pr2 2.640717 1_555
O0 Pr0 2.727464 1_555
O1 Sr1 2.530043 1_555
O1 Pr3 2.640717 1_455
O1 Pr1 2.727464 1_554
O2 Sr2 2.530043 1_545
O2 Pr0 2.640717 1_655
O2 Pr2 2.727464 1_555
O3 Sr3 2.530043 1_665
O3 Pr1 2.640717 1_555
O3 Pr3 2.727464 1_556
O4 Pr0 2.403420 1_655
O4 Sr2 2.778534 1_555
O4 Sr0 2.784707 1_555
O5 Pr1 2.403420 1_555
O5 Sr3 2.778534 1_655
O5 Sr1 2.784707 1_556
O6 Pr2 2.403420 1_565
O6 Sr0 2.778534 1_455
O6 Sr2 2.784707 1_555
O7 Pr3 2.403420 1_445
O7 Sr1 2.778534 1_555
O7 Sr3 2.784707 1_554
O8 Pr1 2.332032 1_555
O8 Sr0 2.442009 1_455
O8 Sr3 2.619262 1_555
O9 Pr0 2.332032 1_555
O9 Sr1 2.442009 1_555
O9 Sr2 2.619262 1_555
O10 Pr3 2.332032 1_545
O10 Sr2 2.442009 1_545
O10 Sr1 2.619262 1_555
O11 Pr2 2.332032 1_565
O11 Sr3 2.442009 1_665
O11 Sr0 2.619262 1_555
O12 Pr0 2.331501 1_655
O12 Pr3 2.429598 1_555
O12 Sr1 2.533658 1_555
O13 Pr1 2.331501 1_555
O13 Pr2 2.429598 1_555
O13 Sr0 2.533658 1_555
O14 Pr2 2.331501 1_565
O14 Pr1 2.429598 1_555
O14 Sr3 2.533658 1_565
O15 Pr3 2.331501 1_445
O15 Pr0 2.429598 1_555
O15 Sr2 2.533658 1_545
