# generated using pymatgen
data_Mg30CuCO32
_symmetry_space_group_name_H-M   'P 1'
_cell_length_a   8.41473883
_cell_length_b   8.41473883
_cell_length_c   8.36695136
_cell_angle_alpha   90.00000000
_cell_angle_beta   90.00000000
_cell_angle_gamma   90.00000000
_symmetry_Int_Tables_number   1
_chemical_formula_structural   Mg30CuCO32
_chemical_formula_sum   'Mg30 Cu1 C1 O32'
_cell_volume   592.44566598
_cell_formula_units_Z   1
loop_
 _symmetry_equiv_pos_site_id
 _symmetry_equiv_pos_as_xyz
  1  'x, y, z'
loop_
 _atom_site_type_symbol
 _atom_site_label
 _atom_site_symmetry_multiplicity
 _atom_site_fract_x
 _atom_site_fract_y
 _atom_site_fract_z
 _atom_site_occupancy
  Mg  Mg0  1  0.50000000  0.00000000  0.00000000  1
  Mg  Mg1  1  0.00000000  0.50000000  0.00000000  1
  Mg  Mg2  1  0.00000000  0.00000000  0.50000000  1
  Mg  Mg3  1  0.50000000  0.00000000  0.50000000  1
  Mg  Mg4  1  0.00000000  0.50000000  0.50000000  1
  Mg  Mg5  1  0.50000000  0.50000000  0.50000000  1
  Mg  Mg6  1  0.25206394  0.25206394  0.00000000  1
  Mg  Mg7  1  0.74793606  0.25206394  0.00000000  1
  Mg  Mg8  1  0.25206394  0.74793606  0.00000000  1
  Mg  Mg9  1  0.74793606  0.74793606  0.00000000  1
  Mg  Mg10  1  0.25006702  0.25006702  0.50000000  1
  Mg  Mg11  1  0.74993298  0.25006702  0.50000000  1
  Mg  Mg12  1  0.25006702  0.74993298  0.50000000  1
  Mg  Mg13  1  0.74993298  0.74993298  0.50000000  1
  Mg  Mg14  1  0.25160813  0.00000000  0.24706629  1
  Mg  Mg15  1  0.74839187  0.00000000  0.24706629  1
  Mg  Mg16  1  0.25240880  0.50000000  0.24760709  1
  Mg  Mg17  1  0.74759120  0.50000000  0.24760709  1
  Mg  Mg18  1  0.25160813  0.00000000  0.75293371  1
  Mg  Mg19  1  0.74839187  0.00000000  0.75293371  1
  Mg  Mg20  1  0.25240880  0.50000000  0.75239291  1
  Mg  Mg21  1  0.74759120  0.50000000  0.75239291  1
  Mg  Mg22  1  0.00000000  0.25160813  0.24706629  1
  Mg  Mg23  1  0.50000000  0.25240880  0.24760709  1
  Mg  Mg24  1  0.00000000  0.74839187  0.24706629  1
  Mg  Mg25  1  0.50000000  0.74759120  0.24760709  1
  Mg  Mg26  1  0.00000000  0.25160813  0.75293371  1
  Mg  Mg27  1  0.50000000  0.25240880  0.75239291  1
  Mg  Mg28  1  0.00000000  0.74839187  0.75293371  1
  Mg  Mg29  1  0.50000000  0.74759120  0.75239291  1
  Cu  Cu0  1  0.00000000  0.00000000  0.00000000  1
  C  C0  1  0.50000000  0.50000000  0.00000000  1
  O  O0  1  0.00000000  0.00000000  0.24245386  1
  O  O1  1  0.50000000  0.00000000  0.25056256  1
  O  O2  1  0.00000000  0.50000000  0.25056256  1
  O  O3  1  0.50000000  0.50000000  0.25204762  1
  O  O4  1  0.00000000  0.00000000  0.75754614  1
  O  O5  1  0.50000000  0.00000000  0.74943744  1
  O  O6  1  0.00000000  0.50000000  0.74943744  1
  O  O7  1  0.50000000  0.50000000  0.74795238  1
  O  O8  1  0.25038723  0.25038723  0.24919003  1
  O  O9  1  0.74961277  0.25038723  0.24919003  1
  O  O10  1  0.25038723  0.74961277  0.24919003  1
  O  O11  1  0.74961277  0.74961277  0.24919003  1
  O  O12  1  0.25038723  0.25038723  0.75080997  1
  O  O13  1  0.74961277  0.25038723  0.75080997  1
  O  O14  1  0.25038723  0.74961277  0.75080997  1
  O  O15  1  0.74961277  0.74961277  0.75080997  1
  O  O16  1  0.25755883  0.00000000  0.00000000  1
  O  O17  1  0.74244117  0.00000000  0.00000000  1
  O  O18  1  0.24881454  0.50000000  0.00000000  1
  O  O19  1  0.75118546  0.50000000  0.00000000  1
  O  O20  1  0.24812936  0.00000000  0.50000000  1
  O  O21  1  0.75187064  0.00000000  0.50000000  1
  O  O22  1  0.25051088  0.50000000  0.50000000  1
  O  O23  1  0.74948912  0.50000000  0.50000000  1
  O  O24  1  0.00000000  0.25755883  0.00000000  1
  O  O25  1  0.50000000  0.24881454  0.00000000  1
  O  O26  1  0.00000000  0.74244117  0.00000000  1
  O  O27  1  0.50000000  0.75118546  0.00000000  1
  O  O28  1  0.00000000  0.24812936  0.50000000  1
  O  O29  1  0.50000000  0.25051088  0.50000000  1
  O  O30  1  0.00000000  0.75187064  0.50000000  1
  O  O31  1  0.50000000  0.74948912  0.50000000  1
loop_
_geom_bond_atom_site_label_1
_geom_bond_atom_site_label_2
_geom_bond_distance
_geom_bond_site_symmetry_2
Mg0 O17 2.040079 1_555
Mg0 O16 2.040079 1_555
Mg0 O27 2.093709 1_545
Mg0 O25 2.093709 1_555
Mg0 O5 2.096445 1_554
Mg0 O1 2.096445 1_555
Mg1 O26 2.040079 1_555
Mg1 O24 2.040079 1_555
Mg1 O18 2.093709 1_555
Mg1 O19 2.093709 1_455
Mg1 O2 2.096445 1_555
Mg1 O6 2.096445 1_554
Mg2 O21 2.087944 1_455
Mg2 O20 2.087944 1_555
Mg2 O28 2.087944 1_555
Mg2 O30 2.087944 1_545
Mg2 O4 2.154876 1_555
Mg2 O0 2.154876 1_555
Mg3 O5 2.087031 1_555
Mg3 O1 2.087031 1_555
Mg3 O31 2.107984 1_545
Mg3 O29 2.107984 1_555
Mg3 O21 2.119426 1_555
Mg3 O20 2.119426 1_555
Mg4 O2 2.087031 1_555
Mg4 O6 2.087031 1_555
Mg4 O23 2.107984 1_455
Mg4 O22 2.107984 1_555
Mg4 O30 2.119426 1_555
Mg4 O28 2.119426 1_555
Mg5 O7 2.074606 1_555
Mg5 O3 2.074606 1_555
Mg5 O31 2.099386 1_555
Mg5 O22 2.099386 1_555
Mg5 O23 2.099386 1_555
Mg5 O29 2.099386 1_555
Mg6 O12 2.085056 1_554
Mg6 O8 2.085056 1_555
Mg6 O25 2.086496 1_555
Mg6 O18 2.086496 1_555
Mg6 O24 2.121556 1_555
Mg6 O16 2.121556 1_555
Mg7 O13 2.085056 1_554
Mg7 O9 2.085056 1_555
Mg7 O25 2.086496 1_555
Mg7 O19 2.086496 1_555
Mg7 O24 2.121556 1_655
Mg7 O17 2.121556 1_555
Mg8 O14 2.085056 1_554
Mg8 O10 2.085056 1_555
Mg8 O18 2.086496 1_555
Mg8 O27 2.086496 1_555
Mg8 O26 2.121556 1_555
Mg8 O16 2.121556 1_565
Mg9 O15 2.085056 1_554
Mg9 O11 2.085056 1_555
Mg9 O19 2.086496 1_555
Mg9 O27 2.086496 1_555
Mg9 O17 2.121556 1_565
Mg9 O26 2.121556 1_655
Mg10 O8 2.098518 1_555
Mg10 O12 2.098518 1_555
Mg10 O22 2.103124 1_555
Mg10 O29 2.103124 1_555
Mg10 O20 2.104312 1_555
Mg10 O28 2.104312 1_555
Mg11 O9 2.098518 1_555
Mg11 O13 2.098518 1_555
Mg11 O23 2.103124 1_555
Mg11 O29 2.103124 1_555
Mg11 O21 2.104312 1_555
Mg11 O28 2.104312 1_655
Mg12 O10 2.098518 1_555
Mg12 O14 2.098518 1_555
Mg12 O31 2.103124 1_555
Mg12 O22 2.103124 1_555
Mg12 O30 2.104312 1_555
Mg12 O20 2.104312 1_565
Mg13 O11 2.098518 1_555
Mg13 O15 2.098518 1_555
Mg13 O31 2.103124 1_555
Mg13 O23 2.103124 1_555
Mg13 O21 2.104312 1_565
Mg13 O30 2.104312 1_655
Mg14 O16 2.067798 1_555
Mg14 O1 2.090357 1_555
Mg14 O10 2.107043 1_545
Mg14 O8 2.107043 1_555
Mg14 O20 2.116486 1_555
Mg14 O0 2.117568 1_555
Mg15 O17 2.067798 1_555
Mg15 O1 2.090357 1_555
Mg15 O11 2.107043 1_545
Mg15 O9 2.107043 1_555
Mg15 O21 2.116486 1_555
Mg15 O0 2.117568 1_655
Mg16 O18 2.071937 1_555
Mg16 O3 2.083747 1_555
Mg16 O8 2.100537 1_555
Mg16 O10 2.100537 1_555
Mg16 O22 2.111820 1_555
Mg16 O2 2.124098 1_555
Mg17 O19 2.071937 1_555
Mg17 O3 2.083747 1_555
Mg17 O9 2.100537 1_555
Mg17 O11 2.100537 1_555
Mg17 O23 2.111820 1_555
Mg17 O2 2.124098 1_655
Mg18 O16 2.067798 1_556
Mg18 O5 2.090357 1_555
Mg18 O14 2.107043 1_545
Mg18 O12 2.107043 1_555
Mg18 O20 2.116486 1_555
Mg18 O4 2.117568 1_555
Mg19 O17 2.067798 1_556
Mg19 O5 2.090357 1_555
Mg19 O15 2.107043 1_545
Mg19 O13 2.107043 1_555
Mg19 O21 2.116486 1_555
Mg19 O4 2.117568 1_655
Mg20 O18 2.071937 1_556
Mg20 O7 2.083747 1_555
Mg20 O12 2.100537 1_555
Mg20 O14 2.100537 1_555
Mg20 O22 2.111820 1_555
Mg20 O6 2.124098 1_555
Mg21 O19 2.071937 1_556
Mg21 O7 2.083747 1_555
Mg21 O13 2.100537 1_555
Mg21 O15 2.100537 1_555
Mg21 O23 2.111820 1_555
Mg21 O6 2.124098 1_655
Mg22 O24 2.067798 1_555
Mg22 O2 2.090357 1_555
Mg22 O9 2.107043 1_455
Mg22 O8 2.107043 1_555
Mg22 O28 2.116486 1_555
Mg22 O0 2.117568 1_555
Mg23 O25 2.071937 1_555
Mg23 O3 2.083747 1_555
Mg23 O8 2.100537 1_555
Mg23 O9 2.100537 1_555
Mg23 O29 2.111820 1_555
Mg23 O1 2.124098 1_555
Mg24 O26 2.067798 1_555
Mg24 O2 2.090357 1_555
Mg24 O11 2.107043 1_455
Mg24 O10 2.107043 1_555
Mg24 O30 2.116486 1_555
Mg24 O0 2.117568 1_565
Mg25 O27 2.071937 1_555
Mg25 O3 2.083747 1_555
Mg25 O10 2.100537 1_555
Mg25 O11 2.100537 1_555
Mg25 O31 2.111820 1_555
Mg25 O1 2.124098 1_565
Mg26 O24 2.067798 1_556
Mg26 O6 2.090357 1_555
Mg26 O13 2.107043 1_455
Mg26 O12 2.107043 1_555
Mg26 O28 2.116486 1_555
Mg26 O4 2.117568 1_555
Mg27 O25 2.071937 1_556
Mg27 O7 2.083747 1_555
Mg27 O12 2.100537 1_555
Mg27 O13 2.100537 1_555
Mg27 O29 2.111820 1_555
Mg27 O5 2.124098 1_555
Mg28 O26 2.067798 1_556
Mg28 O6 2.090357 1_555
Mg28 O15 2.107043 1_455
Mg28 O14 2.107043 1_555
Mg28 O30 2.116486 1_555
Mg28 O4 2.117568 1_565
Mg29 O27 2.071937 1_556
Mg29 O7 2.083747 1_555
Mg29 O14 2.100537 1_555
Mg29 O15 2.100537 1_555
Mg29 O31 2.111820 1_555
Mg29 O5 2.124098 1_565
Cu0 O0 2.028600 1_555
Cu0 O4 2.028600 1_554
Cu0 O17 2.167290 1_455
Cu0 O26 2.167290 1_545
Cu0 O24 2.167290 1_555
Cu0 O16 2.167290 1_555
C0 O3 2.108870 1_555
C0 O7 2.108870 1_554
C0 O27 2.113660 1_555
C0 O25 2.113660 1_555
C0 O18 2.113660 1_555
C0 O19 2.113660 1_555
