# generated using pymatgen
data_Cs2LiNd(BO3)2
_symmetry_space_group_name_H-M   'P 1'
_cell_length_a   7.32350800
_cell_length_b   10.18131500
_cell_length_c   10.47063600
_cell_angle_alpha   90.00000000
_cell_angle_beta   90.00000000
_cell_angle_gamma   90.00000000
_symmetry_Int_Tables_number   1
_chemical_formula_structural   Cs2LiNd(BO3)2
_chemical_formula_sum   'Cs8 Li4 Nd4 B8 O24'
_cell_volume   780.72142323
_cell_formula_units_Z   4
loop_
 _symmetry_equiv_pos_site_id
 _symmetry_equiv_pos_as_xyz
  1  'x, y, z'
loop_
 _atom_site_type_symbol
 _atom_site_label
 _atom_site_symmetry_multiplicity
 _atom_site_fract_x
 _atom_site_fract_y
 _atom_site_fract_z
 _atom_site_occupancy
  Cs  Cs0  1  0.72758200  0.42308800  0.94643000  1
  Cs  Cs1  1  0.27241800  0.57691200  0.44643000  1
  Cs  Cs2  1  0.72758200  0.07691200  0.05357000  1
  Cs  Cs3  1  0.27241800  0.92308800  0.55357000  1
  Cs  Cs4  1  0.27241800  0.57691200  0.05357000  1
  Cs  Cs5  1  0.72758200  0.42308800  0.55357000  1
  Cs  Cs6  1  0.27241800  0.92308800  0.94643000  1
  Cs  Cs7  1  0.72758200  0.07691200  0.44643000  1
  Li  Li0  1  0.55571800  0.16213500  0.75000000  1
  Li  Li1  1  0.44428200  0.83786500  0.25000000  1
  Li  Li2  1  0.55571800  0.33786500  0.25000000  1
  Li  Li3  1  0.44428200  0.66213500  0.75000000  1
  Nd  Nd0  1  0.14241500  0.27637300  0.75000000  1
  Nd  Nd1  1  0.85758500  0.72362700  0.25000000  1
  Nd  Nd2  1  0.14241500  0.22362700  0.25000000  1
  Nd  Nd3  1  0.85758500  0.77637300  0.75000000  1
  B  B0  1  0.30711800  0.25000000  0.00000000  1
  B  B1  1  0.69288200  0.75000000  0.50000000  1
  B  B2  1  0.69288200  0.75000000  0.00000000  1
  B  B3  1  0.30711800  0.25000000  0.50000000  1
  B  B4  1  0.14834900  0.56762500  0.75000000  1
  B  B5  1  0.85165100  0.43237500  0.25000000  1
  B  B6  1  0.14834900  0.93237500  0.25000000  1
  B  B7  1  0.85165100  0.06762500  0.75000000  1
  O  O0  1  0.97749600  0.50915900  0.75000000  1
  O  O1  1  0.02250400  0.49084100  0.25000000  1
  O  O2  1  0.97749600  0.99084100  0.25000000  1
  O  O3  1  0.02250400  0.00915900  0.75000000  1
  O  O4  1  0.11544600  0.25000000  0.00000000  1
  O  O5  1  0.88455400  0.75000000  0.50000000  1
  O  O6  1  0.88455400  0.75000000  0.00000000  1
  O  O7  1  0.11544600  0.25000000  0.50000000  1
  O  O8  1  0.82889400  0.20342400  0.75000000  1
  O  O9  1  0.17110600  0.79657600  0.25000000  1
  O  O10  1  0.82889400  0.29657600  0.25000000  1
  O  O11  1  0.17110600  0.70342400  0.75000000  1
  O  O12  1  0.30192100  0.48702800  0.75000000  1
  O  O13  1  0.69807900  0.51297200  0.25000000  1
  O  O14  1  0.30192100  0.01297200  0.25000000  1
  O  O15  1  0.69807900  0.98702800  0.75000000  1
  O  O16  1  0.39617900  0.21487100  0.61171200  1
  O  O17  1  0.60382100  0.78512900  0.11171200  1
  O  O18  1  0.39617900  0.28512900  0.38828800  1
  O  O19  1  0.60382100  0.71487100  0.88828800  1
  O  O20  1  0.60382100  0.78512900  0.38828800  1
  O  O21  1  0.39617900  0.21487100  0.88828800  1
  O  O22  1  0.60382100  0.71487100  0.61171200  1
  O  O23  1  0.39617900  0.28512900  0.11171200  1
loop_
_geom_bond_atom_site_label_1
_geom_bond_atom_site_label_2
_geom_bond_distance
_geom_bond_site_symmetry_2
Cs0 O0 2.889281 1_555
Cs1 O1 2.889281 1_555
Cs2 O2 2.889281 1_545
Cs3 O3 2.889281 1_565
Cs4 O1 2.889281 1_555
Cs5 O0 2.889281 1_555
Cs6 O3 2.889281 1_565
Cs7 O2 2.889281 1_545
Li0 O16 1.936493 1_555
Li0 O21 1.936493 1_555
Li0 O8 2.044295 1_555
Li0 O15 2.065290 1_545
Li1 O17 1.936493 1_555
Li1 O20 1.936493 1_555
Li1 O9 2.044295 1_555
Li1 O14 2.065290 1_565
Li2 O23 1.936493 1_555
Li2 O18 1.936493 1_555
Li2 O10 2.044295 1_555
Li2 O13 2.065290 1_555
Li3 O22 1.936493 1_555
Li3 O19 1.936493 1_555
Li3 O11 2.044295 1_555
Li3 O12 2.065290 1_555
Nd0 O8 2.413210 1_455
Nd0 O21 2.437724 1_555
Nd0 O16 2.437724 1_555
Nd0 O12 2.442231 1_555
Nd0 O7 2.638796 1_555
Nd0 O4 2.638796 1_556
Nd0 O0 2.660069 1_455
Nd0 O3 2.858809 1_555
Nd1 O9 2.413210 1_655
Nd1 O17 2.437724 1_555
Nd1 O20 2.437724 1_555
Nd1 O13 2.442231 1_555
Nd1 O5 2.638796 1_555
Nd1 O6 2.638796 1_555
Nd1 O1 2.660069 1_655
Nd1 O2 2.858809 1_555
Nd2 O10 2.413210 1_455
Nd2 O23 2.437724 1_555
Nd2 O18 2.437724 1_555
Nd2 O14 2.442231 1_555
Nd2 O7 2.638796 1_555
Nd2 O4 2.638796 1_555
Nd2 O2 2.660069 1_445
Nd2 O1 2.858809 1_555
Nd3 O11 2.413210 1_655
Nd3 O22 2.437724 1_555
Nd3 O19 2.437724 1_555
Nd3 O15 2.442231 1_555
Nd3 O5 2.638796 1_555
Nd3 O6 2.638796 1_556
Nd3 O3 2.660069 1_665
Nd3 O0 2.858809 1_555
B0 O23 1.386190 1_555
B0 O21 1.386190 1_554
B0 O4 1.403711 1_555
B1 O20 1.386190 1_555
B1 O22 1.386190 1_555
B1 O5 1.403711 1_555
B2 O17 1.386190 1_555
B2 O19 1.386190 1_554
B2 O6 1.403711 1_555
B3 O18 1.386190 1_555
B3 O16 1.386190 1_555
B3 O7 1.403711 1_555
B4 O0 1.385621 1_455
B4 O12 1.392220 1_555
B4 O11 1.392621 1_555
B5 O1 1.385621 1_655
B5 O13 1.392220 1_555
B5 O10 1.392621 1_555
B6 O2 1.385621 1_455
B6 O14 1.392220 1_565
B6 O9 1.392621 1_555
B7 O3 1.385621 1_655
B7 O15 1.392220 1_545
B7 O8 1.392621 1_555
