# generated using pymatgen
data_LaMg14Zn
_symmetry_space_group_name_H-M   'P 1'
_cell_length_a   6.55589292
_cell_length_b   6.55589236
_cell_length_c   10.30187991
_cell_angle_alpha   90.00000000
_cell_angle_beta   90.00000000
_cell_angle_gamma   120.00000281
_symmetry_Int_Tables_number   1
_chemical_formula_structural   LaMg14Zn
_chemical_formula_sum   'La1 Mg14 Zn1'
_cell_volume   383.45178904
_cell_formula_units_Z   1
loop_
 _symmetry_equiv_pos_site_id
 _symmetry_equiv_pos_as_xyz
  1  'x, y, z'
loop_
 _atom_site_type_symbol
 _atom_site_label
 _atom_site_symmetry_multiplicity
 _atom_site_fract_x
 _atom_site_fract_y
 _atom_site_fract_z
 _atom_site_occupancy
  La  La0  1  0.16666700  0.33333300  0.62500000  1
  Mg  Mg0  1  0.16370637  0.83185268  0.12500000  1
  Mg  Mg1  1  0.17927139  0.83963520  0.62500000  1
  Mg  Mg2  1  0.66814732  0.33629363  0.12500000  1
  Mg  Mg3  1  0.66036480  0.32072861  0.62500000  1
  Mg  Mg4  1  0.66814732  0.83185268  0.12500000  1
  Mg  Mg5  1  0.66036480  0.83963520  0.62500000  1
  Mg  Mg6  1  0.33358000  0.16642000  0.36396660  1
  Mg  Mg7  1  0.33358000  0.16642000  0.88603340  1
  Mg  Mg8  1  0.33358000  0.66716099  0.36396660  1
  Mg  Mg9  1  0.33358000  0.66716099  0.88603340  1
  Mg  Mg10  1  0.83283901  0.16642000  0.36396660  1
  Mg  Mg11  1  0.83283901  0.16642000  0.88603340  1
  Mg  Mg12  1  0.83333300  0.66666700  0.38031789  1
  Mg  Mg13  1  0.83333300  0.66666700  0.86968211  1
  Zn  Zn0  1  0.16666700  0.33333300  0.12500000  1
loop_
_geom_bond_atom_site_label_1
_geom_bond_atom_site_label_2
_geom_bond_distance
_geom_bond_site_symmetry_2
La0 Mg1 3.278727 1_545
La0 Mg5 3.278727 1_555
La0 Mg5 3.278727 1_445
La0 Mg1 3.278727 1_555
La0 Mg3 3.278727 1_555
La0 Mg3 3.278728 1_455
La0 Mg7 3.289937 1_555
La0 Mg6 3.289937 1_555
La0 Mg9 3.289943 1_555
La0 Mg8 3.289943 1_555
La0 Mg11 3.289943 1_455
La0 Mg10 3.289943 1_455
Mg0 Mg8 3.109492 1_555
Mg0 Mg9 3.109492 1_554
Mg0 Mg6 3.109499 1_565
Mg0 Mg7 3.109499 1_564
Mg0 Mg13 3.230566 1_454
Mg0 Mg12 3.230566 1_455
Mg0 Mg2 3.248832 1_455
Mg0 Mg4 3.248832 1_455
Mg0 Zn0 3.277989 1_555
Mg0 Zn0 3.277989 1_565
Mg0 Mg2 3.307061 1_565
Mg0 Mg4 3.307061 1_555
Mg1 Mg3 3.153997 1_565
Mg1 Mg5 3.153997 1_555
Mg1 Mg12 3.195544 1_455
Mg1 Mg13 3.195544 1_455
Mg1 Mg9 3.267606 1_555
Mg1 Mg8 3.267606 1_555
Mg1 Mg7 3.267612 1_565
Mg1 Mg6 3.267612 1_565
Mg1 Mg3 3.401896 1_455
Mg1 Mg5 3.401896 1_455
Mg2 Mg6 3.109499 1_555
Mg2 Mg7 3.109499 1_554
Mg2 Mg4 3.248832 1_555
Mg2 Zn0 3.277990 1_655
Mg2 Zn0 3.277990 1_555
Mg2 Mg4 3.307061 1_545
Mg3 Mg5 3.153997 1_545
Mg3 Mg6 3.267613 1_555
Mg3 Mg7 3.267613 1_555
Mg3 Mg5 3.401896 1_555
Mg4 Mg8 3.109499 1_555
Mg4 Mg9 3.109499 1_554
Mg4 Zn0 3.277989 1_665
Mg4 Zn0 3.277989 1_555
Mg5 Mg9 3.267612 1_555
Mg5 Mg8 3.267612 1_555
Mg6 Zn0 3.106883 1_555
Mg6 Mg8 3.273088 1_545
Mg6 Mg8 3.282804 1_555
Mg7 Zn0 3.106883 1_556
Mg7 Mg9 3.273088 1_545
Mg7 Mg9 3.282804 1_555
Mg8 Zn0 3.106890 1_555
Mg9 Zn0 3.106890 1_556
Mg10 Zn0 3.106890 1_655
Mg10 Mg2 3.109492 1_555
Mg10 Mg4 3.109499 1_545
Mg10 Mg3 3.267606 1_555
Mg10 Mg5 3.267612 1_545
Mg10 Mg8 3.273088 1_545
Mg10 Mg6 3.273089 1_555
Mg10 Mg12 3.282273 1_545
Mg10 Mg12 3.282273 1_555
Mg10 Mg8 3.282804 1_655
Mg10 Mg6 3.282804 1_655
Mg11 Zn0 3.106890 1_656
Mg11 Mg2 3.109492 1_556
Mg11 Mg4 3.109499 1_546
Mg11 Mg3 3.267606 1_555
Mg11 Mg5 3.267612 1_545
Mg11 Mg9 3.273088 1_545
Mg11 Mg7 3.273089 1_555
Mg11 Mg13 3.282273 1_545
Mg11 Mg13 3.282273 1_555
Mg11 Mg9 3.282804 1_655
Mg11 Mg7 3.282804 1_655
Mg12 Mg5 3.195537 1_555
Mg12 Mg3 3.195544 1_555
Mg12 Mg4 3.230559 1_555
Mg12 Mg2 3.230566 1_555
Mg12 Mg6 3.282273 1_555
Mg12 Mg6 3.282273 1_665
Mg12 Mg8 3.282273 1_555
Mg12 Mg8 3.282273 1_655
Mg13 Mg5 3.195537 1_555
Mg13 Mg3 3.195544 1_555
Mg13 Mg4 3.230559 1_556
Mg13 Mg2 3.230566 1_556
Mg13 Mg7 3.282273 1_555
Mg13 Mg7 3.282273 1_665
Mg13 Mg9 3.282273 1_555
Mg13 Mg9 3.282273 1_655
