# generated using pymatgen
data_Li9Mn2Co5O16
_symmetry_space_group_name_H-M   'P 1'
_cell_length_a   3.02802900
_cell_length_b   5.14041908
_cell_length_c   19.56176413
_cell_angle_alpha   91.20916215
_cell_angle_beta   93.16224861
_cell_angle_gamma   104.80581918
_symmetry_Int_Tables_number   1
_chemical_formula_structural   Li9Mn2Co5O16
_chemical_formula_sum   'Li9 Mn2 Co5 O16'
_cell_volume   293.73207113
_cell_formula_units_Z   1
loop_
 _symmetry_equiv_pos_site_id
 _symmetry_equiv_pos_as_xyz
  1  'x, y, z'
loop_
 _atom_site_type_symbol
 _atom_site_label
 _atom_site_symmetry_multiplicity
 _atom_site_fract_x
 _atom_site_fract_y
 _atom_site_fract_z
 _atom_site_occupancy
  Li  Li0  1  0.30482600  0.55795000  0.06293900  1
  Li  Li1  1  0.94393300  0.68890900  0.18753500  1
  Li  Li2  1  0.56470600  0.81424700  0.31261600  1
  Li  Li3  1  0.18546100  0.93638600  0.43877300  1
  Li  Li4  1  0.82092100  0.05977400  0.56376400  1
  Li  Li5  1  0.43620100  0.17995100  0.68672800  1
  Li  Li6  1  0.06433800  0.32030900  0.81315900  1
  Li  Li7  1  0.68203200  0.44285600  0.93538400  1
  Li  Li8  1  0.74949300  0.74946900  0.74969900  1
  Mn  Mn0  1  0.00734100  0.99917400  0.99787500  1
  Mn  Mn1  1  0.87220700  0.37423500  0.37616600  1
  Co  Co0  1  0.63094500  0.12457600  0.12441200  1
  Co  Co1  1  0.23874900  0.24988600  0.24890100  1
  Co  Co2  1  0.50750600  0.49888300  0.50344200  1
  Co  Co3  1  0.13247400  0.63057000  0.63049100  1
  Co  Co4  1  0.36044100  0.87133100  0.86873000  1
  O  O0  1  0.69311300  0.26994800  0.03356400  1
  O  O1  1  0.26655700  0.38794300  0.15816500  1
  O  O2  1  0.87507600  0.50907300  0.28327700  1
  O  O3  1  0.56325000  0.64186100  0.41150000  1
  O  O4  1  0.14073300  0.75561600  0.53806700  1
  O  O5  1  0.79507600  0.87930700  0.65408500  1
  O  O6  1  0.40919300  0.02785400  0.79056500  1
  O  O7  1  0.04689300  0.13593800  0.90712700  1
  O  O8  1  0.99745900  0.86306600  0.09045100  1
  O  O9  1  0.60113000  0.98655400  0.21525000  1
  O  O10  1  0.18146800  0.10687600  0.34072000  1
  O  O11  1  0.86592500  0.23584900  0.46837900  1
  O  O12  1  0.44566200  0.36494500  0.59242000  1
  O  O13  1  0.09177000  0.47402800  0.70880800  1
  O  O14  1  0.69746100  0.62255600  0.84545300  1
  O  O15  1  0.32765900  0.74008000  0.96156000  1
loop_
_geom_bond_atom_site_label_1
_geom_bond_atom_site_label_2
_geom_bond_distance
_geom_bond_site_symmetry_2
Li0 O1 2.070721 1_555
Li0 O8 2.093210 1_455
Li0 O0 2.097151 1_455
Li0 O0 2.198308 1_555
Li0 O15 2.207848 1_554
Li0 O8 2.303682 1_555
Li1 O2 2.103183 1_555
Li1 O8 2.113289 1_555
Li1 O1 2.115371 1_655
Li1 O9 2.133344 1_555
Li1 O9 2.210172 1_655
Li1 O1 2.267444 1_555
Li2 O2 2.109153 1_555
Li2 O9 2.113959 1_555
Li2 O10 2.113961 1_665
Li2 O3 2.144350 1_555
Li2 O10 2.199832 1_565
Li2 O2 2.303579 1_455
Li3 O11 2.103964 1_465
Li3 O10 2.126282 1_565
Li3 O3 2.126890 1_455
Li3 O4 2.166906 1_555
Li3 O3 2.191762 1_555
Li3 O11 2.271611 1_565
Li4 O5 2.008918 1_545
Li4 O11 2.087018 1_555
Li4 O4 2.104611 1_645
Li4 O12 2.164007 1_655
Li4 O12 2.238397 1_555
Li4 O4 2.268496 1_545
Li5 O12 2.091523 1_555
Li5 O13 2.094611 1_555
Li5 O13 2.180930 1_655
Li5 O6 2.190104 1_555
Li5 O5 2.202987 1_445
Li5 O5 2.206861 1_545
Li6 O7 2.082922 1_555
Li6 O6 2.090693 1_555
Li6 O6 2.177574 1_455
Li6 O14 2.188827 1_555
Li6 O13 2.202586 1_555
Li6 O14 2.228287 1_455
Li7 O14 2.001469 1_555
Li7 O0 2.135394 1_556
Li7 O15 2.147904 1_555
Li7 O15 2.179090 1_655
Li7 O7 2.188277 1_555
Li7 O7 2.221860 1_655
Li8 O14 1.997648 1_555
Li8 O5 1.999226 1_555
Li8 O13 2.124242 1_655
Li8 O6 2.131878 1_565
Li8 O13 2.224025 1_555
Li8 O6 2.234230 1_665
Mn0 O7 1.921714 1_565
Mn0 O8 1.954150 1_456
Mn0 O15 1.978777 1_555
Mn0 O0 2.009787 1_466
Mn0 O15 2.216320 1_455
Mn0 O0 2.249135 1_566
Mn1 O11 1.952254 1_555
Mn1 O2 1.958078 1_555
Mn1 O3 1.983566 1_555
Mn1 O10 1.983864 1_655
Mn1 O10 2.252759 1_555
Mn1 O3 2.253425 1_655
Co0 O9 1.925423 1_545
Co0 O0 1.942464 1_555
Co0 O8 2.070323 1_545
Co0 O1 2.071790 1_555
Co0 O8 2.105179 1_445
Co0 O1 2.112682 1_655
Co1 O1 1.923617 1_555
Co1 O10 1.954880 1_555
Co1 O2 2.057598 1_455
Co1 O9 2.066628 1_545
Co1 O2 2.108819 1_555
Co1 O9 2.116557 1_445
Co2 O12 1.886614 1_555
Co2 O3 1.956865 1_555
Co2 O4 2.056260 1_555
Co2 O11 2.066277 1_555
Co2 O4 2.098251 1_655
Co2 O11 2.131704 1_455
Co3 O13 1.741256 1_555
Co3 O5 1.893776 1_455
Co3 O4 1.930907 1_555
Co3 O12 2.003790 1_555
Co3 O5 2.105995 1_555
Co3 O12 2.253665 1_455
Co4 O6 1.738754 1_565
Co4 O14 1.891506 1_555
Co4 O15 1.949354 1_555
Co4 O7 2.002822 1_565
Co4 O14 2.106020 1_455
Co4 O7 2.252663 1_665
