# generated using pymatgen
data_Cr3Fe
_symmetry_space_group_name_H-M   'P 1'
_cell_length_a   4.69283630
_cell_length_b   4.69283630
_cell_length_c   4.69283630
_cell_angle_alpha   137.70416279
_cell_angle_beta   137.70416279
_cell_angle_gamma   61.35639031
_symmetry_Int_Tables_number   1
_chemical_formula_structural   Cr3Fe
_chemical_formula_sum   'Cr3 Fe1'
_cell_volume   46.27705342
_cell_formula_units_Z   1
loop_
 _symmetry_equiv_pos_site_id
 _symmetry_equiv_pos_as_xyz
  1  'x, y, z'
loop_
 _atom_site_type_symbol
 _atom_site_label
 _atom_site_symmetry_multiplicity
 _atom_site_fract_x
 _atom_site_fract_y
 _atom_site_fract_z
 _atom_site_occupancy
  Cr  Cr0  1  0.50000000  0.50000000  0.00000000  1
  Cr  Cr1  1  0.75000000  0.25000000  0.50000000  1
  Cr  Cr2  1  0.25000000  0.75000000  0.50000000  1
  Fe  Fe0  1  0.00000000  0.00000000  0.00000000  1
loop_
_geom_bond_atom_site_label_1
_geom_bond_atom_site_label_2
_geom_bond_distance
_geom_bond_site_symmetry_2
Cr0 Fe0 2.394359 1_565
Cr0 Fe0 2.394359 1_655
Cr0 Fe0 2.394359 1_666
Cr0 Fe0 2.394359 1_554
Cr0 Cr2 2.634182 1_544
Cr0 Cr1 2.634182 1_454
Cr0 Cr2 2.634182 1_655
Cr0 Cr1 2.634182 1_555
Cr0 Cr1 2.634182 1_554
Cr0 Cr1 2.634182 1_565
Cr0 Cr2 2.634182 1_554
Cr0 Cr2 2.634182 1_555
Cr1 Cr2 2.394359 1_645
Cr1 Cr2 2.394359 1_555
Cr1 Cr2 2.394359 1_544
Cr1 Cr2 2.394359 1_656
Cr1 Fe0 2.634182 1_666
Cr1 Fe0 2.634182 1_655
Cr1 Fe0 2.634182 1_555
Cr1 Fe0 2.634182 1_656
Cr2 Fe0 2.634182 1_666
Cr2 Fe0 2.634182 1_566
Cr2 Fe0 2.634182 1_555
Cr2 Fe0 2.634182 1_565
