# generated using pymatgen
data_NaLiMg14O15
_symmetry_space_group_name_H-M   'P 1'
_cell_length_a   8.49219802
_cell_length_b   8.66732821
_cell_length_c   4.26776794
_cell_angle_alpha   90.00000000
_cell_angle_beta   90.00000000
_cell_angle_gamma   90.00000000
_symmetry_Int_Tables_number   1
_chemical_formula_structural   NaLiMg14O15
_chemical_formula_sum   'Na1 Li1 Mg14 O15'
_cell_volume   314.12764004
_cell_formula_units_Z   1
loop_
 _symmetry_equiv_pos_site_id
 _symmetry_equiv_pos_as_xyz
  1  'x, y, z'
loop_
 _atom_site_type_symbol
 _atom_site_label
 _atom_site_symmetry_multiplicity
 _atom_site_fract_x
 _atom_site_fract_y
 _atom_site_fract_z
 _atom_site_occupancy
  Na  Na0  1  0.50476891  0.50000000  0.00000000  1
  Li  Li0  1  0.99621338  0.00000000  0.00000000  1
  Mg  Mg0  1  0.98272789  0.50000000  0.00000000  1
  Mg  Mg1  1  0.50381282  0.00000000  0.00000000  1
  Mg  Mg2  1  0.00074538  0.24425842  0.50000000  1
  Mg  Mg3  1  0.00074538  0.75574158  0.50000000  1
  Mg  Mg4  1  0.49922619  0.25023386  0.50000000  1
  Mg  Mg5  1  0.49922619  0.74976614  0.50000000  1
  Mg  Mg6  1  0.24547063  0.00000000  0.50000000  1
  Mg  Mg7  1  0.25152474  0.50000000  0.50000000  1
  Mg  Mg8  1  0.75631377  0.00000000  0.50000000  1
  Mg  Mg9  1  0.74244498  0.50000000  0.50000000  1
  Mg  Mg10  1  0.24903558  0.22316952  -0.00000000  1
  Mg  Mg11  1  0.24903558  0.77683048  0.00000000  1
  Mg  Mg12  1  0.74918738  0.24701065  -0.00000000  1
  Mg  Mg13  1  0.74918738  0.75298935  -0.00000000  1
  O  O0  1  0.25286272  0.00000000  0.00000000  1
  O  O1  1  0.74814585  0.00000000  0.00000000  1
  O  O2  1  0.75678294  0.50000000  0.00000000  1
  O  O3  1  0.25001317  0.25891617  0.50000000  1
  O  O4  1  0.25001317  0.74108383  0.50000000  1
  O  O5  1  0.75092694  0.25334182  0.50000000  1
  O  O6  1  0.75092694  0.74665818  0.50000000  1
  O  O7  1  0.00284449  0.00000000  0.50000000  1
  O  O8  1  0.01441855  0.50000000  0.50000000  1
  O  O9  1  0.49715423  0.00000000  0.50000000  1
  O  O10  1  0.48450096  0.50000000  0.50000000  1
  O  O11  1  0.01272356  0.26796141  0.00000000  1
  O  O12  1  0.01272356  0.73203859  0.00000000  1
  O  O13  1  0.49314839  0.23977339  0.00000000  1
  O  O14  1  0.49314839  0.76022661  0.00000000  1
loop_
_geom_bond_atom_site_label_1
_geom_bond_atom_site_label_2
_geom_bond_distance
_geom_bond_site_symmetry_2
Na0 O2 2.140153 1_555
Na0 O10 2.140814 1_555
Na0 O10 2.140814 1_554
Na0 O14 2.257627 1_555
Na0 O13 2.257627 1_555
Li0 O1 2.106639 1_555
Li0 O7 2.134627 1_654
Li0 O7 2.134627 1_655
Li0 O0 2.179517 1_655
Li0 O12 2.326738 1_645
Li0 O11 2.326738 1_655
Mg0 O2 1.918769 1_555
Mg0 O11 2.027222 1_655
Mg0 O12 2.027222 1_655
Mg0 O8 2.150788 1_654
Mg0 O8 2.150788 1_655
Mg1 O1 2.074924 1_555
Mg1 O14 2.080167 1_545
Mg1 O13 2.080167 1_555
Mg1 O0 2.131118 1_555
Mg1 O9 2.134633 1_554
Mg1 O9 2.134633 1_555
Mg2 O7 2.117143 1_555
Mg2 O3 2.120640 1_555
Mg2 O5 2.122968 1_455
Mg2 O11 2.146163 1_556
Mg2 O11 2.146163 1_555
Mg2 O8 2.219635 1_555
Mg3 O7 2.117143 1_565
Mg3 O4 2.120640 1_555
Mg3 O6 2.122968 1_455
Mg3 O12 2.146163 1_556
Mg3 O12 2.146163 1_555
Mg3 O8 2.219635 1_555
Mg4 O3 2.117704 1_555
Mg4 O13 2.136433 1_555
Mg4 O13 2.136433 1_556
Mg4 O5 2.137662 1_555
Mg4 O10 2.168414 1_555
Mg4 O9 2.168930 1_555
Mg5 O4 2.117704 1_555
Mg5 O14 2.136433 1_556
Mg5 O14 2.136433 1_555
Mg5 O6 2.137662 1_555
Mg5 O10 2.168414 1_555
Mg5 O9 2.168930 1_565
Mg6 O7 2.060429 1_555
Mg6 O0 2.134807 1_555
Mg6 O0 2.134807 1_556
Mg6 O9 2.137347 1_555
Mg6 O4 2.244443 1_545
Mg6 O3 2.244443 1_555
Mg7 O10 1.978480 1_555
Mg7 O8 2.013553 1_555
Mg7 O3 2.089592 1_555
Mg7 O4 2.089592 1_555
Mg8 O7 2.093588 1_655
Mg8 O1 2.135011 1_556
Mg8 O1 2.135011 1_555
Mg8 O5 2.196273 1_555
Mg8 O6 2.196273 1_545
Mg8 O9 2.200834 1_555
Mg9 O2 2.137355 1_555
Mg9 O2 2.137355 1_556
Mg9 O6 2.139081 1_555
Mg9 O5 2.139081 1_555
Mg9 O10 2.190512 1_555
Mg9 O8 2.309653 1_655
Mg10 O0 1.934557 1_555
Mg10 O11 2.044016 1_555
Mg10 O13 2.078043 1_555
Mg10 O3 2.156275 1_554
Mg10 O3 2.156275 1_555
Mg11 O0 1.934557 1_565
Mg11 O12 2.044016 1_555
Mg11 O14 2.078043 1_555
Mg11 O4 2.156275 1_555
Mg11 O4 2.156275 1_554
Mg12 O5 2.134641 1_554
Mg12 O5 2.134641 1_555
Mg12 O1 2.140941 1_555
Mg12 O13 2.175238 1_555
Mg12 O2 2.193690 1_555
Mg12 O11 2.245356 1_655
Mg13 O6 2.134641 1_555
Mg13 O6 2.134641 1_554
Mg13 O1 2.140941 1_565
Mg13 O14 2.175238 1_555
Mg13 O2 2.193690 1_555
Mg13 O12 2.245356 1_655
