# generated using pymatgen
data_Li4V3P8O29
_symmetry_space_group_name_H-M   'P 1'
_cell_length_a   9.81091050
_cell_length_b   9.81091050
_cell_length_c   14.01536539
_cell_angle_alpha   89.88843573
_cell_angle_beta   89.88843573
_cell_angle_gamma   59.91170392
_symmetry_Int_Tables_number   1
_chemical_formula_structural   Li4V3P8O29
_chemical_formula_sum   'Li8 V6 P16 O58'
_cell_volume   1167.25433304
_cell_formula_units_Z   2
loop_
 _symmetry_equiv_pos_site_id
 _symmetry_equiv_pos_as_xyz
  1  'x, y, z'
loop_
 _atom_site_type_symbol
 _atom_site_label
 _atom_site_symmetry_multiplicity
 _atom_site_fract_x
 _atom_site_fract_y
 _atom_site_fract_z
 _atom_site_occupancy
  Li  Li0  1  0.31696500  0.77078000  0.19023900  1
  Li  Li1  1  0.90608600  0.76948900  0.68902300  1
  Li  Li2  1  0.77620300  0.32066900  0.69195300  1
  Li  Li3  1  0.90464100  0.32355500  0.18887400  1
  Li  Li4  1  0.22922000  0.68303500  0.80976100  1
  Li  Li5  1  0.23051100  0.09391400  0.31097700  1
  Li  Li6  1  0.67933100  0.22379700  0.30804700  1
  Li  Li7  1  0.67644500  0.09535900  0.81112600  1
  V  V0  1  0.00519400  0.56549600  0.49426900  1
  V  V1  1  0.00654700  0.43198600  0.99533200  1
  V  V2  1  0.43043500  0.56956500  0.00000000  1
  V  V3  1  0.56524600  0.43475400  0.50000000  1
  V  V4  1  0.43450400  0.99480600  0.50573100  1
  V  V5  1  0.56801400  0.99345300  0.00466800  1
  P  P0  1  0.31463900  0.91630400  0.90505200  1
  P  P1  1  0.31857000  0.77031700  0.40821700  1
  P  P2  1  0.76857900  0.91416200  0.40849600  1
  P  P3  1  0.67275500  0.66404000  0.62241400  1
  P  P4  1  0.66796900  0.66262800  0.12249200  1
  P  P5  1  0.91295700  0.77037100  0.90918000  1
  P  P6  1  0.08369600  0.68536100  0.09494800  1
  P  P7  1  0.76937200  0.32078100  0.90955000  1
  P  P8  1  0.22968300  0.68143000  0.59178300  1
  P  P9  1  0.91308100  0.31794400  0.40773200  1
  P  P10  1  0.08583800  0.23142100  0.59150400  1
  P  P11  1  0.33596000  0.32724500  0.37758600  1
  P  P12  1  0.33737200  0.33203100  0.87750800  1
  P  P13  1  0.22962900  0.08704300  0.09082000  1
  P  P14  1  0.67921900  0.23062800  0.09045000  1
  P  P15  1  0.68205600  0.08691900  0.59226800  1
  O  O0  1  0.24174900  0.00280900  0.18240400  1
  O  O1  1  0.33890500  0.91887000  0.41494200  1
  O  O2  1  0.23150800  0.75580400  0.68292300  1
  O  O3  1  0.33980900  0.74645600  0.91097600  1
  O  O4  1  0.47513300  0.90835500  0.92941200  1
  O  O5  1  0.52145700  0.81467600  0.57619700  1
  O  O6  1  0.61532000  0.90864100  0.42778800  1
  O  O7  1  0.75528400  0.99985700  0.68303300  1
  O  O8  1  0.74492800  0.91662300  0.91110100  1
  O  O9  1  0.51311400  0.67342700  0.08288400  1
  O  O10  1  0.47957700  0.62008600  0.42680700  1
  O  O11  1  0.66667700  0.81406600  0.07584400  1
  O  O12  1  0.66909200  0.67342800  0.72815900  1
  O  O13  1  0.66723500  0.66725000  0.22842900  1
  O  O14  1  0.81851900  0.67015400  0.58015600  1
  O  O15  1  0.61922200  0.47955900  0.92547700  1
  O  O16  1  0.67283300  0.51472400  0.58319500  1
  O  O17  1  0.91109000  0.74396200  0.41535600  1
  O  O18  1  0.00364100  0.78892800  0.99743500  1
  O  O19  1  0.99492600  0.76431100  0.18148100  1
  O  O20  1  0.99719100  0.75825100  0.81759600  1
  O  O21  1  0.90275400  0.61848600  0.92645000  1
  O  O22  1  0.81771500  0.51367000  0.08128100  1
  O  O23  1  0.08113000  0.66109500  0.58505800  1
  O  O24  1  0.90306700  0.47871500  0.42671700  1
  O  O25  1  0.74692200  0.33727600  0.40920600  1
  O  O26  1  0.21003100  0.78996900  0.50000000  1
  O  O27  1  0.24419600  0.76849200  0.31707700  1
  O  O28  1  0.75908900  0.23742200  0.17991300  1
  O  O29  1  0.25354400  0.66019100  0.08902400  1
  O  O30  1  0.09164500  0.52486700  0.07058800  1
  O  O31  1  0.91522700  0.34218000  0.91678600  1
  O  O32  1  0.18532400  0.47854300  0.42380300  1
  O  O33  1  0.09135900  0.38468000  0.57221200  1
  O  O34  1  0.99517200  0.23751400  0.67676900  1
  O  O35  1  0.00014300  0.24471600  0.31696700  1
  O  O36  1  0.00408000  0.20674500  0.49640800  1
  O  O37  1  0.08337700  0.25507200  0.08889900  1
  O  O38  1  0.32657300  0.48688600  0.91711600  1
  O  O39  1  0.37991400  0.52042300  0.57319300  1
  O  O40  1  0.18593400  0.33332300  0.92415600  1
  O  O41  1  0.33275000  0.33276500  0.77157100  1
  O  O42  1  0.32657200  0.33090800  0.27184100  1
  O  O43  1  0.32984600  0.18148100  0.41984400  1
  O  O44  1  0.52044100  0.38077800  0.07452300  1
  O  O45  1  0.48527600  0.32716700  0.41680500  1
  O  O46  1  0.25603800  0.08891000  0.58464400  1
  O  O47  1  0.21107200  0.99635900  0.00256500  1
  O  O48  1  0.23568900  0.00507400  0.81851900  1
  O  O49  1  0.38151400  0.09724600  0.07355000  1
  O  O50  1  0.48633000  0.18228500  0.91871900  1
  O  O51  1  0.52128500  0.09693300  0.57328300  1
  O  O52  1  0.66272400  0.25307800  0.59079400  1
  O  O53  1  0.76257800  0.24091100  0.82008700  1
  O  O54  1  0.79139800  0.20860200  0.00000000  1
  O  O55  1  0.65782000  0.08477300  0.08321400  1
  O  O56  1  0.76248600  0.00482800  0.32323100  1
  O  O57  1  0.79325500  0.99592000  0.50359200  1
loop_
_geom_bond_atom_site_label_1
_geom_bond_atom_site_label_2
_geom_bond_distance
_geom_bond_site_symmetry_2
Li0 O27 1.918677 1_555
Li0 O0 2.013377 1_565
Li0 O29 2.064700 1_555
Li0 O9 2.242952 1_555
Li1 O7 1.987735 1_555
Li1 O20 1.991220 1_555
Li1 O23 2.090085 1_655
Li1 O14 2.205979 1_555
Li2 O34 1.888804 1_555
Li2 O53 1.988392 1_555
Li2 O52 2.106991 1_555
Li2 O16 2.243965 1_555
Li3 O35 1.993402 1_655
Li3 O28 1.995019 1_555
Li3 O37 2.074246 1_655
Li3 O22 2.208922 1_555
Li4 O2 1.918677 1_555
Li4 O20 2.013377 1_455
Li4 O3 2.064700 1_555
Li4 O38 2.242952 1_555
Li5 O35 1.987735 1_555
Li5 O0 1.991220 1_555
Li5 O1 2.090085 1_545
Li5 O43 2.205979 1_555
Li6 O56 1.888804 1_555
Li6 O28 1.988392 1_555
Li6 O25 2.106991 1_555
Li6 O45 2.243965 1_555
Li7 O7 1.993402 1_545
Li7 O53 1.995019 1_555
Li7 O8 2.074246 1_545
Li7 O50 2.208922 1_555
O0 P13 1.497537 1_555
O1 P1 1.570022 1_555
O1 V4 1.939785 1_555
O2 P8 1.476894 1_555
O3 P0 1.559356 1_555
O3 V2 1.951375 1_556
O4 P0 1.575072 1_555
O4 V5 1.846586 1_556
O5 P3 1.614776 1_555
O5 V4 1.819646 1_555
O6 P2 1.554641 1_555
O6 V4 1.883440 1_555
O7 P15 1.499339 1_565
O8 P5 1.550948 1_555
O8 V5 1.995914 1_556
O9 P4 1.571376 1_555
O9 V2 1.970473 1_555
O10 P1 1.549571 1_555
O10 V3 1.878469 1_555
O11 P4 1.616293 1_555
O11 V5 1.821623 1_555
O12 P3 1.484340 1_555
O13 P4 1.485420 1_555
O14 P3 1.575458 1_555
O14 V0 1.992032 1_655
O15 P7 1.531564 1_555
O15 V2 1.912424 1_556
O16 P3 1.565297 1_555
O16 V3 1.981914 1_555
O17 P2 1.552864 1_555
O17 V0 1.875341 1_655
O18 P5 1.588162 1_455
O18 P6 1.647943 1_556
O19 P6 1.467132 1_655
O20 P5 1.497537 1_555
O21 P5 1.561139 1_555
O21 V1 1.856242 1_655
O22 P4 1.573197 1_555
O22 V1 2.007964 1_654
O23 P8 1.570022 1_555
O23 V0 1.939785 1_555
O24 P9 1.553870 1_555
O24 V0 1.867444 1_655
O25 P9 1.543934 1_555
O25 V3 1.999404 1_555
O26 P8 1.617294 1_555
O26 P1 1.617294 1_555
O27 P1 1.476894 1_555
O28 P14 1.499048 1_555
O29 P6 1.559356 1_555
O29 V2 1.951375 1_555
O30 P6 1.575072 1_555
O30 V1 1.846586 1_554
O31 P7 1.550455 1_555
O31 V1 1.894724 1_655
O32 P11 1.614776 1_555
O32 V0 1.819646 1_555
O33 P10 1.554641 1_555
O33 V0 1.883440 1_555
O34 P10 1.471635 1_655
O35 P9 1.499339 1_455
O36 P9 1.598227 1_455
O36 P10 1.636613 1_555
O37 P13 1.550948 1_555
O37 V1 1.995914 1_554
O38 P12 1.571376 1_555
O38 V2 1.970473 1_556
O39 P8 1.549571 1_555
O39 V3 1.878469 1_555
O40 P12 1.616293 1_555
O40 V1 1.821623 1_555
O41 P12 1.485420 1_555
O42 P11 1.484340 1_555
O43 P11 1.575458 1_555
O43 V4 1.992032 1_545
O44 P14 1.531564 1_555
O44 V2 1.912424 1_555
O45 P11 1.565297 1_555
O45 V3 1.981914 1_555
O46 P10 1.552864 1_555
O46 V4 1.875341 1_545
O47 P13 1.588162 1_565
O47 P0 1.647943 1_554
O48 P0 1.467132 1_545
O49 P13 1.561139 1_555
O49 V5 1.856242 1_545
O50 P12 1.573197 1_555
O50 V5 2.007964 1_546
O51 P15 1.553870 1_555
O51 V4 1.867444 1_545
O52 P15 1.543934 1_555
O52 V3 1.999404 1_555
O53 P7 1.499048 1_555
O54 P7 1.619313 1_554
O54 P14 1.619313 1_555
O55 P14 1.550455 1_555
O55 V5 1.894724 1_545
O56 P2 1.471635 1_545
O57 P15 1.598227 1_565
O57 P2 1.636613 1_555
