# generated using pymatgen
data_FeCu8Sb3S13N6
_symmetry_space_group_name_H-M   'P 1'
_cell_length_a   12.46461247
_cell_length_b   12.46461247
_cell_length_c   12.46461247
_cell_angle_alpha   60.00000000
_cell_angle_beta   60.00000000
_cell_angle_gamma   60.00000000
_symmetry_Int_Tables_number   1
_chemical_formula_structural   FeCu8Sb3S13N6
_chemical_formula_sum   'Fe2 Cu16 Sb6 S26 N12'
_cell_volume   1369.37168568
_cell_formula_units_Z   2
loop_
 _symmetry_equiv_pos_site_id
 _symmetry_equiv_pos_as_xyz
  1  'x, y, z'
loop_
 _atom_site_type_symbol
 _atom_site_label
 _atom_site_symmetry_multiplicity
 _atom_site_fract_x
 _atom_site_fract_y
 _atom_site_fract_z
 _atom_site_occupancy
  Fe  Fe0  1  0.25000000  0.25000000  0.25000000  1
  Fe  Fe1  1  0.75000000  0.75000000  0.75000000  1
  Cu  Cu0  1  0.08413100  0.74760700  0.08413100  1
  Cu  Cu1  1  0.74760700  0.08413100  0.08413100  1
  Cu  Cu2  1  0.08413100  0.08413100  0.74760700  1
  Cu  Cu3  1  0.08413100  0.08413100  0.08413100  1
  Cu  Cu4  1  0.58413100  0.58413100  0.24760700  1
  Cu  Cu5  1  0.24760700  0.58413100  0.58413100  1
  Cu  Cu6  1  0.58413100  0.24760700  0.58413100  1
  Cu  Cu7  1  0.58413100  0.58413100  0.58413100  1
  Cu  Cu8  1  0.91586900  0.25239300  0.91586900  1
  Cu  Cu9  1  0.25239300  0.91586900  0.91586900  1
  Cu  Cu10  1  0.91586900  0.91586900  0.25239300  1
  Cu  Cu11  1  0.91586900  0.91586900  0.91586900  1
  Cu  Cu12  1  0.41586900  0.41586900  0.75239300  1
  Cu  Cu13  1  0.75239300  0.41586900  0.41586900  1
  Cu  Cu14  1  0.41586900  0.75239300  0.41586900  1
  Cu  Cu15  1  0.41586900  0.41586900  0.41586900  1
  Sb  Sb0  1  0.25000000  0.75000000  0.75000000  1
  Sb  Sb1  1  0.75000000  0.75000000  0.25000000  1
  Sb  Sb2  1  0.25000000  0.75000000  0.25000000  1
  Sb  Sb3  1  0.75000000  0.25000000  0.25000000  1
  Sb  Sb4  1  0.75000000  0.25000000  0.75000000  1
  Sb  Sb5  1  0.25000000  0.25000000  0.75000000  1
  S  S0  1  0.29201700  0.70798300  0.93974200  1
  S  S1  1  0.93974200  0.70798300  0.06025800  1
  S  S2  1  0.06025800  0.70798300  0.29201700  1
  S  S3  1  0.70798300  0.29201700  0.06025800  1
  S  S4  1  0.70798300  0.93974200  0.29201700  1
  S  S5  1  0.70798300  0.06025800  0.93974200  1
  S  S6  1  0.06025800  0.93974200  0.70798300  1
  S  S7  1  0.29201700  0.06025800  0.70798300  1
  S  S8  1  0.93974200  0.29201700  0.70798300  1
  S  S9  1  0.93974200  0.06025800  0.29201700  1
  S  S10  1  0.06025800  0.29201700  0.93974200  1
  S  S11  1  0.29201700  0.93974200  0.06025800  1
  S  S12  1  0.79201700  0.43974200  0.20798300  1
  S  S13  1  0.43974200  0.56025800  0.20798300  1
  S  S14  1  0.56025800  0.79201700  0.20798300  1
  S  S15  1  0.20798300  0.56025800  0.79201700  1
  S  S16  1  0.20798300  0.79201700  0.43974200  1
  S  S17  1  0.20798300  0.43974200  0.56025800  1
  S  S18  1  0.56025800  0.20798300  0.43974200  1
  S  S19  1  0.79201700  0.20798300  0.56025800  1
  S  S20  1  0.43974200  0.20798300  0.79201700  1
  S  S21  1  0.43974200  0.79201700  0.56025800  1
  S  S22  1  0.56025800  0.43974200  0.79201700  1
  S  S23  1  0.79201700  0.56025800  0.43974200  1
  S  S24  1  0.00000000  0.00000000  0.00000000  1
  S  S25  1  0.50000000  0.50000000  0.50000000  1
  N  N0  1  0.35512400  0.35512400  0.14487600  1
  N  N1  1  0.14487600  0.35512400  0.14487600  1
  N  N2  1  0.14487600  0.35512400  0.35512400  1
  N  N3  1  0.35512400  0.14487600  0.35512400  1
  N  N4  1  0.35512400  0.14487600  0.14487600  1
  N  N5  1  0.14487600  0.14487600  0.35512400  1
  N  N6  1  0.85512400  0.64487600  0.85512400  1
  N  N7  1  0.64487600  0.64487600  0.85512400  1
  N  N8  1  0.64487600  0.85512400  0.85512400  1
  N  N9  1  0.85512400  0.85512400  0.64487600  1
  N  N10  1  0.85512400  0.64487600  0.64487600  1
  N  N11  1  0.64487600  0.85512400  0.64487600  1
loop_
_geom_bond_atom_site_label_1
_geom_bond_atom_site_label_2
_geom_bond_distance
_geom_bond_site_symmetry_2
Fe0 N5 1.853086 1_555
Fe0 N4 1.853086 1_555
Fe0 N0 1.853086 1_555
Fe0 N3 1.853086 1_555
Fe0 N1 1.853086 1_555
Fe0 N2 1.853086 1_555
Fe1 N9 1.853086 1_555
Fe1 N6 1.853086 1_555
Fe1 N8 1.853086 1_555
Fe1 N10 1.853086 1_555
Fe1 N7 1.853086 1_555
Fe1 N11 1.853086 1_555
Cu0 S0 2.267819 1_554
Cu0 S2 2.267819 1_555
Cu0 S1 2.267819 1_455
Cu0 S24 2.568683 1_565
Cu1 S4 2.267819 1_545
Cu1 S3 2.267819 1_555
Cu1 S5 2.267819 1_554
Cu1 S24 2.568683 1_655
Cu2 S7 2.267819 1_555
Cu2 S8 2.267819 1_455
Cu2 S6 2.267819 1_545
Cu2 S24 2.568683 1_556
Cu3 S10 2.267819 1_554
Cu3 S11 2.267819 1_545
Cu3 S9 2.267819 1_455
Cu3 S24 2.568683 1_555
Cu4 S13 2.267819 1_555
Cu4 S12 2.267819 1_555
Cu4 S14 2.267819 1_555
Cu4 S25 2.568683 1_555
Cu5 S17 2.267819 1_555
Cu5 S16 2.267819 1_555
Cu5 S15 2.267819 1_555
Cu5 S25 2.568683 1_555
Cu6 S18 2.267819 1_555
Cu6 S20 2.267819 1_555
Cu6 S19 2.267819 1_555
Cu6 S25 2.568683 1_555
Cu7 S21 2.267819 1_555
Cu7 S23 2.267819 1_555
Cu7 S22 2.267819 1_555
Cu7 S25 2.568683 1_555
Cu8 S10 2.267819 1_655
Cu8 S3 2.267819 1_556
Cu8 S8 2.267819 1_555
Cu8 S24 2.568683 1_656
Cu9 S11 2.267819 1_556
Cu9 S7 2.267819 1_565
Cu9 S0 2.267819 1_555
Cu9 S24 2.568683 1_566
Cu10 S9 2.267819 1_565
Cu10 S2 2.267819 1_655
Cu10 S4 2.267819 1_555
Cu10 S24 2.568683 1_665
Cu11 S6 2.267819 1_655
Cu11 S5 2.267819 1_565
Cu11 S1 2.267819 1_556
Cu11 S24 2.568683 1_666
Cu12 S20 2.267819 1_555
Cu12 S15 2.267819 1_555
Cu12 S22 2.267819 1_555
Cu12 S25 2.568683 1_555
Cu13 S19 2.267819 1_555
Cu13 S12 2.267819 1_555
Cu13 S23 2.267819 1_555
Cu13 S25 2.568683 1_555
Cu14 S16 2.267819 1_555
Cu14 S14 2.267819 1_555
Cu14 S21 2.267819 1_555
Cu14 S25 2.568683 1_555
Cu15 S13 2.267819 1_555
Cu15 S18 2.267819 1_555
Cu15 S17 2.267819 1_555
Cu15 S25 2.568683 1_555
S0 Sb0 2.422354 1_555
S1 Sb1 2.422354 1_555
S2 Sb2 2.422354 1_555
S3 Sb3 2.422354 1_555
S4 Sb1 2.422354 1_555
S5 Sb4 2.422354 1_555
S6 Sb0 2.422354 1_555
S7 Sb5 2.422354 1_555
S8 Sb4 2.422354 1_555
S9 Sb3 2.422354 1_555
S10 Sb5 2.422354 1_555
S11 Sb2 2.422354 1_555
S12 Sb3 2.422354 1_555
S13 Sb2 2.422354 1_555
S14 Sb1 2.422354 1_555
S15 Sb0 2.422354 1_555
S16 Sb2 2.422354 1_555
S17 Sb5 2.422354 1_555
S18 Sb3 2.422354 1_555
S19 Sb4 2.422354 1_555
S20 Sb5 2.422354 1_555
S21 Sb0 2.422354 1_555
S22 Sb4 2.422354 1_555
S23 Sb1 2.422354 1_555
