# generated using pymatgen
data_Ba5Tm8Ni4O21
_symmetry_space_group_name_H-M   'P 1'
_cell_length_a   10.07026392
_cell_length_b   10.07026392
_cell_length_c   10.07026392
_cell_angle_alpha   94.56989379
_cell_angle_beta   94.56989379
_cell_angle_gamma   147.20878934
_symmetry_Int_Tables_number   1
_chemical_formula_structural   Ba5Tm8Ni4O21
_chemical_formula_sum   'Ba5 Tm8 Ni4 O21'
_cell_volume   530.58522827
_cell_formula_units_Z   1
loop_
 _symmetry_equiv_pos_site_id
 _symmetry_equiv_pos_as_xyz
  1  'x, y, z'
loop_
 _atom_site_type_symbol
 _atom_site_label
 _atom_site_symmetry_multiplicity
 _atom_site_fract_x
 _atom_site_fract_y
 _atom_site_fract_z
 _atom_site_occupancy
  Ba  Ba0  1  0.13840500  0.46140400  0.59980900  1
  Ba  Ba1  1  0.86159500  0.53859600  0.40019100  1
  Ba  Ba2  1  0.53859600  0.13840500  0.67700100  1
  Ba  Ba3  1  0.46140400  0.86159500  0.32299900  1
  Ba  Ba4  1  0.00000000  0.00000000  0.00000000  1
  Tm  Tm0  1  0.41104200  0.35754300  0.76858500  1
  Tm  Tm1  1  0.58895800  0.64245700  0.23141500  1
  Tm  Tm2  1  0.64245700  0.41104200  0.05349900  1
  Tm  Tm3  1  0.35754300  0.58895800  0.94650100  1
  Tm  Tm4  1  0.25016900  0.16700400  0.41717300  1
  Tm  Tm5  1  0.74983100  0.83299600  0.58282700  1
  Tm  Tm6  1  0.83299600  0.25016900  0.08316500  1
  Tm  Tm7  1  0.16700400  0.74983100  0.91683500  1
  Ni  Ni0  1  0.04066500  0.24300900  0.28367400  1
  Ni  Ni1  1  0.95933500  0.75699100  0.71632600  1
  Ni  Ni2  1  0.75699100  0.04066500  0.79765600  1
  Ni  Ni3  1  0.24300900  0.95933500  0.20234400  1
  O  O0  1  0.42914100  0.29946000  0.22621900  1
  O  O1  1  0.57085900  0.70054000  0.77378100  1
  O  O2  1  0.07324000  0.20292100  0.77378100  1
  O  O3  1  0.20292100  0.42914100  0.12968100  1
  O  O4  1  0.92676000  0.79707900  0.22621900  1
  O  O5  1  0.79707900  0.57085900  0.87031900  1
  O  O6  1  0.29946000  0.07324000  0.87031900  1
  O  O7  1  0.70054000  0.92676000  0.12968100  1
  O  O8  1  0.39562500  0.50448300  0.40474700  1
  O  O9  1  0.60437500  0.49551700  0.59525300  1
  O  O10  1  0.09973600  0.99087700  0.59525300  1
  O  O11  1  0.99087700  0.39562500  0.89114100  1
  O  O12  1  0.90026400  0.00912300  0.40474700  1
  O  O13  1  0.00912300  0.60437500  0.10885900  1
  O  O14  1  0.50448300  0.09973600  0.10885900  1
  O  O15  1  0.49551700  0.90026400  0.89114100  1
  O  O16  1  0.50000000  0.50000000  0.00000000  1
  O  O17  1  0.36687400  0.03986900  0.40674400  1
  O  O18  1  0.63312600  0.96013100  0.59325600  1
  O  O19  1  0.96013100  0.36687400  0.32700500  1
  O  O20  1  0.03986900  0.63312600  0.67299500  1
loop_
_geom_bond_atom_site_label_1
_geom_bond_atom_site_label_2
_geom_bond_distance
_geom_bond_site_symmetry_2
Ba0 O20 2.704937 1_555
Ba0 O19 2.756876 1_455
Ba0 O18 2.843477 1_445
Ba0 O18 2.843483 1_555
Ba0 O1 2.883306 1_555
Ba0 O2 2.883309 1_555
Ba0 O12 3.132658 1_455
Ba0 O8 3.132666 1_555
Ba0 O15 3.256177 1_555
Ba0 O11 3.256178 1_455
Ba1 O19 2.704937 1_555
Ba1 O20 2.756876 1_655
Ba1 O17 2.843477 1_665
Ba1 O17 2.843483 1_555
Ba1 O0 2.883306 1_555
Ba1 O4 2.883309 1_555
Ba1 O10 3.132658 1_655
Ba1 O9 3.132666 1_555
Ba1 O14 3.256177 1_555
Ba1 O13 3.256178 1_655
Ba2 O17 2.704928 1_555
Ba2 O18 2.756879 1_545
Ba2 O20 2.843480 1_655
Ba2 O20 2.843480 1_545
Ba2 O6 2.883302 1_555
Ba2 O5 2.883302 1_555
Ba2 O11 3.132653 1_555
Ba2 O15 3.132658 1_545
Ba2 O10 3.256177 1_545
Ba2 O9 3.256184 1_555
Ba3 O18 2.704928 1_555
Ba3 O17 2.756879 1_565
Ba3 O19 2.843480 1_455
Ba3 O19 2.843480 1_565
Ba3 O3 2.883302 1_555
Ba3 O7 2.883302 1_555
Ba3 O13 3.132653 1_555
Ba3 O14 3.132658 1_565
Ba3 O12 3.256177 1_565
Ba3 O8 3.256184 1_555
Ba4 O16 2.842512 1_555
Ba4 O16 2.842512 1_445
Ba4 O2 2.895683 1_554
Ba4 O4 2.895683 1_445
Ba4 O1 2.895686 1_444
Ba4 O0 2.895686 1_555
Ba4 O7 2.895692 1_445
Ba4 O5 2.895692 1_444
Ba4 O3 2.895692 1_555
Ba4 O6 2.895692 1_554
Ni0 O19 2.018534 1_455
Ni0 O12 2.041178 1_455
Ni0 O8 2.041184 1_555
Ni0 O7 2.075013 1_445
Ni0 O3 2.075013 1_555
Ni1 O20 2.018534 1_655
Ni1 O10 2.041178 1_655
Ni1 O9 2.041184 1_555
Ni1 O6 2.075013 1_665
Ni1 O5 2.075013 1_555
Ni2 O18 2.018543 1_545
Ni2 O15 2.041178 1_545
Ni2 O11 2.041185 1_555
Ni2 O2 2.075010 1_655
Ni2 O1 2.075014 1_545
Ni3 O17 2.018543 1_565
Ni3 O14 2.041178 1_565
Ni3 O13 2.041185 1_555
Ni3 O4 2.075010 1_455
Ni3 O0 2.075014 1_565
O0 Tm1 2.266049 1_555
O0 Tm4 2.375784 1_555
O0 Tm2 2.398118 1_555
O1 Tm0 2.266049 1_555
O1 Tm5 2.375784 1_555
O1 Tm3 2.398118 1_555
O2 Tm0 2.266053 1_555
O2 Tm5 2.375780 1_445
O2 Tm3 2.398121 1_555
O3 Tm3 2.266051 1_554
O3 Tm6 2.375774 1_455
O3 Tm1 2.398126 1_555
O4 Tm1 2.266053 1_555
O4 Tm4 2.375780 1_665
O4 Tm2 2.398121 1_555
O5 Tm2 2.266051 1_556
O5 Tm7 2.375774 1_655
O5 Tm0 2.398126 1_555
O6 Tm2 2.266051 1_556
O6 Tm7 2.375774 1_545
O6 Tm0 2.398126 1_555
O7 Tm3 2.266051 1_554
O7 Tm6 2.375774 1_565
O7 Tm1 2.398126 1_555
O8 Tm5 2.253658 1_555
O8 Tm1 2.268846 1_555
O8 Tm4 2.332043 1_555
O9 Tm4 2.253658 1_555
O9 Tm0 2.268846 1_555
O9 Tm5 2.332043 1_555
O10 Tm4 2.253660 1_565
O10 Tm0 2.268850 1_565
O10 Tm5 2.332049 1_455
O11 Tm7 2.253651 1_655
O11 Tm3 2.268855 1_655
O11 Tm6 2.332050 1_556
O12 Tm5 2.253660 1_545
O12 Tm1 2.268850 1_545
O12 Tm4 2.332049 1_655
O13 Tm6 2.253651 1_455
O13 Tm2 2.268855 1_455
O13 Tm7 2.332050 1_554
O14 Tm6 2.253660 1_555
O14 Tm2 2.268850 1_555
O14 Tm7 2.332049 1_544
O15 Tm7 2.253660 1_555
O15 Tm3 2.268850 1_555
O15 Tm6 2.332049 1_566
O16 Tm2 2.294610 1_555
O16 Tm3 2.294610 1_554
O16 Tm1 2.294610 1_555
O16 Tm0 2.294610 1_554
O17 Tm4 2.357834 1_555
O18 Tm5 2.357834 1_555
O19 Tm6 2.357834 1_555
O20 Tm7 2.357834 1_555
