# generated using pymatgen
data_Lu2FeCoO6
_symmetry_space_group_name_H-M   'P 1'
_cell_length_a   5.55959760
_cell_length_b   5.19071679
_cell_length_c   7.50578315
_cell_angle_alpha   90.72341533
_cell_angle_beta   90.08602785
_cell_angle_gamma   91.12609485
_symmetry_Int_Tables_number   1
_chemical_formula_structural   Lu2FeCoO6
_chemical_formula_sum   'Lu4 Fe2 Co2 O12'
_cell_volume   216.54468962
_cell_formula_units_Z   2
loop_
 _symmetry_equiv_pos_site_id
 _symmetry_equiv_pos_as_xyz
  1  'x, y, z'
loop_
 _atom_site_type_symbol
 _atom_site_label
 _atom_site_symmetry_multiplicity
 _atom_site_fract_x
 _atom_site_fract_y
 _atom_site_fract_z
 _atom_site_occupancy
  Lu  Lu0  1  0.42203300  0.47571200  0.75247900  1
  Lu  Lu1  1  0.07399600  0.97685300  0.24943200  1
  Lu  Lu2  1  0.57796700  0.52428800  0.24752100  1
  Lu  Lu3  1  0.92600400  0.02314700  0.75056800  1
  Fe  Fe0  1  0.00000000  0.50000000  0.50000000  1
  Fe  Fe1  1  0.50000000  0.00000000  0.00000000  1
  Co  Co0  1  0.50000000  0.00000000  0.50000000  1
  Co  Co1  1  0.00000000  0.50000000  0.00000000  1
  O  O0  1  0.04563800  0.62483400  0.75706800  1
  O  O1  1  0.45559900  0.12152700  0.25249200  1
  O  O2  1  0.95436200  0.37516600  0.24293200  1
  O  O3  1  0.54440100  0.87847300  0.74750800  1
  O  O4  1  0.18681900  0.19472500  0.56377400  1
  O  O5  1  0.30051000  0.68554400  0.06129100  1
  O  O6  1  0.81318100  0.80527500  0.43622600  1
  O  O7  1  0.69949000  0.31445600  0.93870900  1
  O  O8  1  0.19253500  0.19759300  0.93871600  1
  O  O9  1  0.31200500  0.69515600  0.43900200  1
  O  O10  1  0.80746500  0.80240700  0.06128400  1
  O  O11  1  0.68799500  0.30484400  0.56099800  1
loop_
_geom_bond_atom_site_label_1
_geom_bond_atom_site_label_2
_geom_bond_distance
_geom_bond_site_symmetry_2
Lu0 O3 2.186561 1_555
Lu0 O0 2.245561 1_555
Lu0 O11 2.250411 1_555
Lu0 O7 2.260034 1_555
Lu0 O8 2.376965 1_555
Lu0 O4 2.389727 1_555
Lu0 O5 2.642952 1_556
Lu0 O9 2.701575 1_555
Lu1 O2 2.185393 1_465
Lu1 O6 2.201896 1_455
Lu1 O10 2.217807 1_455
Lu1 O1 2.236578 1_565
Lu1 O5 2.427505 1_555
Lu1 O9 2.456929 1_555
Lu1 O4 2.671964 1_565
Lu1 O8 2.688603 1_564
Lu2 O1 2.186561 1_555
Lu2 O2 2.245561 1_555
Lu2 O9 2.250411 1_555
Lu2 O5 2.260034 1_555
Lu2 O10 2.376965 1_555
Lu2 O6 2.389727 1_555
Lu2 O7 2.642952 1_554
Lu2 O11 2.701575 1_555
Lu3 O0 2.185393 1_645
Lu3 O4 2.201896 1_655
Lu3 O8 2.217807 1_655
Lu3 O3 2.236578 1_545
Lu3 O7 2.427505 1_555
Lu3 O11 2.456929 1_555
Lu3 O6 2.671964 1_545
Lu3 O10 2.688603 1_546
Fe0 O6 1.975144 1_455
Fe0 O4 1.975144 1_555
Fe0 O2 2.041496 1_455
Fe0 O0 2.041496 1_555
Fe0 O9 2.046882 1_555
Fe0 O11 2.046882 1_455
Fe1 O1 2.006936 1_555
Fe1 O3 2.006936 1_544
Fe1 O5 2.013774 1_545
Fe1 O7 2.013774 1_554
Fe1 O8 2.064943 1_554
Fe1 O10 2.064943 1_545
Co0 O11 1.929024 1_555
Co0 O9 1.929024 1_545
Co0 O3 1.986051 1_545
Co0 O1 1.986051 1_555
Co0 O4 2.083715 1_555
Co0 O6 2.083715 1_545
Co1 O2 1.958005 1_455
Co1 O0 1.958005 1_554
Co1 O5 1.963098 1_555
Co1 O7 1.963098 1_454
Co1 O8 1.967398 1_554
Co1 O10 1.967398 1_455
