# generated using pymatgen
data_MgSi2
_symmetry_space_group_name_H-M   'P 1'
_cell_length_a   9.74218840
_cell_length_b   9.74218840
_cell_length_c   9.74218864
_cell_angle_alpha   22.18741004
_cell_angle_beta   22.18741004
_cell_angle_gamma   22.18741094
_symmetry_Int_Tables_number   1
_chemical_formula_structural   MgSi2
_chemical_formula_sum   'Mg2 Si4'
_cell_volume   115.62222087
_cell_formula_units_Z   2
loop_
 _symmetry_equiv_pos_site_id
 _symmetry_equiv_pos_as_xyz
  1  'x, y, z'
loop_
 _atom_site_type_symbol
 _atom_site_label
 _atom_site_symmetry_multiplicity
 _atom_site_fract_x
 _atom_site_fract_y
 _atom_site_fract_z
 _atom_site_occupancy
  Mg  Mg0  1  0.91773300  0.91773300  0.91773300  1
  Mg  Mg1  1  0.08226700  0.08226700  0.08226700  1
  Si  Si0  1  0.35129000  0.35129000  0.35129000  1
  Si  Si1  1  0.18523200  0.18523200  0.18523200  1
  Si  Si2  1  0.64871000  0.64871000  0.64871000  1
  Si  Si3  1  0.81476800  0.81476800  0.81476800  1
loop_
_geom_bond_atom_site_label_1
_geom_bond_atom_site_label_2
_geom_bond_distance
_geom_bond_site_symmetry_2
Mg0 Si2 2.836118 1_565
Mg0 Si2 2.836118 1_655
Mg0 Si2 2.836118 1_556
Mg0 Si1 2.864371 1_566
Mg0 Si1 2.864371 1_656
Mg0 Si1 2.864371 1_665
Mg0 Si3 2.934097 1_555
Mg1 Si0 2.836118 1_455
Mg1 Si0 2.836118 1_545
Mg1 Si0 2.836118 1_554
Mg1 Si3 2.864371 1_454
Mg1 Si3 2.864371 1_544
Mg1 Si3 2.864371 1_445
Mg1 Si1 2.934097 1_555
Si0 Si2 2.394264 1_455
Si0 Si2 2.394264 1_545
Si0 Si2 2.394264 1_554
Si1 Si3 2.409295 1_445
Si1 Si3 2.409295 1_544
Si1 Si3 2.409295 1_454
