# generated using pymatgen
data_Li7Mn2(CoO4)3
_symmetry_space_group_name_H-M   'P 1'
_cell_length_a   2.90535600
_cell_length_b   5.14910200
_cell_length_c   14.55986206
_cell_angle_alpha   89.94772103
_cell_angle_beta   90.00000000
_cell_angle_gamma   90.00000000
_symmetry_Int_Tables_number   1
_chemical_formula_structural   Li7Mn2(CoO4)3
_chemical_formula_sum   'Li7 Mn2 Co3 O12'
_cell_volume   217.81507289
_cell_formula_units_Z   1
loop_
 _symmetry_equiv_pos_site_id
 _symmetry_equiv_pos_as_xyz
  1  'x, y, z'
loop_
 _atom_site_type_symbol
 _atom_site_label
 _atom_site_symmetry_multiplicity
 _atom_site_fract_x
 _atom_site_fract_y
 _atom_site_fract_z
 _atom_site_occupancy
  Li  Li0  1  0.50000000  0.82694900  0.17543800  1
  Li  Li1  1  0.50000000  0.50851800  0.49470700  1
  Li  Li2  1  0.50000000  0.16622000  0.82850200  1
  Li  Li3  1  0.00000000  0.30530200  0.18651400  1
  Li  Li4  1  0.00000000  0.02391100  0.48952000  1
  Li  Li5  1  0.00000000  0.66568400  0.82726400  1
  Li  Li6  1  0.50000000  0.16511800  0.33450400  1
  Mn  Mn0  1  0.00000000  0.99740500  0.99995800  1
  Mn  Mn1  1  0.00000000  0.66726500  0.33395500  1
  Co  Co0  1  0.00000000  0.33571900  0.66540500  1
  Co  Co1  1  0.50000000  0.49687600  0.00036800  1
  Co  Co2  1  0.50000000  0.83651600  0.66523600  1
  O  O0  1  0.50000000  0.13645700  0.07502600  1
  O  O1  1  0.50000000  0.81787500  0.40622200  1
  O  O2  1  0.50000000  0.49518600  0.74479900  1
  O  O3  1  0.00000000  0.67599500  0.06956900  1
  O  O4  1  0.00000000  0.36504500  0.41134100  1
  O  O5  1  0.00000000  0.99563200  0.74369100  1
  O  O6  1  0.50000000  0.51294600  0.25892600  1
  O  O7  1  0.50000000  0.17853100  0.59037800  1
  O  O8  1  0.50000000  0.85890400  0.92394000  1
  O  O9  1  0.00000000  0.96941000  0.25524000  1
  O  O10  1  0.00000000  0.67924800  0.59193300  1
  O  O11  1  0.00000000  0.31929100  0.92756500  1
loop_
_geom_bond_atom_site_label_1
_geom_bond_atom_site_label_2
_geom_bond_distance
_geom_bond_site_symmetry_2
Li0 O9 1.999986 1_655
Li0 O9 1.999986 1_555
Li0 O6 2.021926 1_555
Li0 O0 2.161710 1_565
Li0 O3 2.256690 1_555
Li0 O3 2.256690 1_655
Li1 O4 2.032480 1_655
Li1 O4 2.032480 1_555
Li1 O1 2.047782 1_555
Li1 O7 2.196150 1_555
Li1 O10 2.211173 1_655
Li1 O10 2.211173 1_555
Li2 O2 2.085833 1_555
Li2 O5 2.099671 1_545
Li2 O5 2.099671 1_645
Li2 O8 2.104963 1_545
Li2 O11 2.194067 1_555
Li2 O11 2.194067 1_655
Li3 O9 1.997358 1_545
Li3 O6 2.089747 1_555
Li3 O6 2.089747 1_455
Li3 O0 2.345985 1_555
Li3 O0 2.345985 1_455
Li3 O3 2.556666 1_555
Li4 O4 2.092232 1_555
Li4 O1 2.170031 1_445
Li4 O1 2.170031 1_545
Li4 O7 2.214204 1_455
Li4 O7 2.214204 1_555
Li4 O10 2.316934 1_545
Li5 O2 2.079557 1_455
Li5 O2 2.079557 1_555
Li5 O5 2.088837 1_555
Li5 O8 2.254769 1_455
Li5 O8 2.254769 1_555
Li5 O11 2.304170 1_555
Li6 O1 2.069749 1_545
Li6 O6 2.101186 1_555
Li6 O4 2.103260 1_555
Li6 O4 2.103260 1_655
Li6 O9 2.111819 1_545
Li6 O9 2.111819 1_645
Mn0 O3 1.939874 1_556
Mn0 O0 1.954214 1_466
Mn0 O0 1.954214 1_566
Mn0 O8 1.960953 1_555
Mn0 O8 1.960953 1_455
Mn0 O11 1.963377 1_565
Mn1 O4 1.920406 1_555
Mn1 O9 1.931497 1_555
Mn1 O1 1.954557 1_555
Mn1 O1 1.954557 1_455
Mn1 O6 1.984091 1_555
Mn1 O6 1.984091 1_455
Co0 O7 1.990045 1_555
Co0 O7 1.990045 1_455
Co0 O2 2.030391 1_455
Co0 O2 2.030391 1_555
Co0 O10 2.066345 1_555
Co0 O5 2.088559 1_545
Co1 O3 1.994438 1_555
Co1 O3 1.994438 1_655
Co1 O11 2.017865 1_654
Co1 O11 2.017865 1_554
Co1 O0 2.149891 1_555
Co1 O8 2.170124 1_554
Co2 O10 1.976537 1_555
Co2 O10 1.976537 1_655
Co2 O5 2.021899 1_655
Co2 O5 2.021899 1_555
Co2 O7 2.070216 1_565
Co2 O2 2.104090 1_555
