# generated using pymatgen
data_K2H2Se(IO5)2
_symmetry_space_group_name_H-M   'P 1'
_cell_length_a   4.99993600
_cell_length_b   10.62786980
_cell_length_c   10.94277629
_cell_angle_alpha   84.29163383
_cell_angle_beta   76.79367797
_cell_angle_gamma   76.39496231
_symmetry_Int_Tables_number   1
_chemical_formula_structural   K2H2Se(IO5)2
_chemical_formula_sum   'K4 H4 Se2 I4 O20'
_cell_volume   549.57888472
_cell_formula_units_Z   2
loop_
 _symmetry_equiv_pos_site_id
 _symmetry_equiv_pos_as_xyz
  1  'x, y, z'
loop_
 _atom_site_type_symbol
 _atom_site_label
 _atom_site_symmetry_multiplicity
 _atom_site_fract_x
 _atom_site_fract_y
 _atom_site_fract_z
 _atom_site_occupancy
  K  K0  1  0.14343400  0.54135600  0.65153900  1
  K  K1  1  0.33632900  0.95864400  0.84846100  1
  K  K2  1  0.85656600  0.45864400  0.34846100  1
  K  K3  1  0.66367100  0.04135600  0.15153900  1
  H  H0  1  0.00842300  0.85261800  0.61579400  1
  H  H1  1  0.47683500  0.64738200  0.88420600  1
  H  H2  1  0.99157700  0.14738200  0.38420600  1
  H  H3  1  0.52316500  0.35261800  0.11579400  1
  Se  Se0  1  0.67890600  0.25000000  0.75000000  1
  Se  Se1  1  0.32109400  0.75000000  0.25000000  1
  I  I0  1  0.64458500  0.81847000  0.50353000  1
  I  I1  1  0.96658500  0.68153000  0.99647000  1
  I  I2  1  0.35541500  0.18153000  0.49647000  1
  I  I3  1  0.03341500  0.31847000  0.00353000  1
  O  O0  1  0.84371800  0.80849200  0.64130700  1
  O  O1  1  0.29351700  0.69150800  0.85869300  1
  O  O2  1  0.15628200  0.19150800  0.35869300  1
  O  O3  1  0.70648300  0.30849200  0.14130700  1
  O  O4  1  0.59430100  0.65527200  0.53529400  1
  O  O5  1  0.78486600  0.84472800  0.96470600  1
  O  O6  1  0.40569900  0.34472800  0.46470600  1
  O  O7  1  0.21513400  0.15527200  0.03529400  1
  O  O8  1  0.31082500  0.91175400  0.59000100  1
  O  O9  1  0.81258100  0.58824600  0.90999900  1
  O  O10  1  0.68917500  0.08824600  0.40999900  1
  O  O11  1  0.18741900  0.41175400  0.09000100  1
  O  O12  1  0.39340900  0.35885400  0.81913600  1
  O  O13  1  0.57139900  0.14114600  0.68086400  1
  O  O14  1  0.60659100  0.64114600  0.18086400  1
  O  O15  1  0.42860100  0.85885400  0.31913600  1
  O  O16  1  0.85023800  0.17008600  0.85867000  1
  O  O17  1  0.87899300  0.32991400  0.64133000  1
  O  O18  1  0.14976200  0.82991400  0.14133000  1
  O  O19  1  0.12100700  0.67008600  0.35867000  1
loop_
_geom_bond_atom_site_label_1
_geom_bond_atom_site_label_2
_geom_bond_distance
_geom_bond_site_symmetry_2
K0 O4 2.798774 1_555
K0 O12 2.808366 1_555
K0 O17 2.885431 1_455
K0 O0 2.886259 1_455
K0 O6 2.932944 1_555
K0 O9 2.956142 1_455
K0 O1 3.210678 1_555
K0 O4 3.216822 1_455
K0 O19 3.372668 1_555
K1 O5 2.798770 1_555
K1 O13 2.808366 1_565
K1 O16 2.885428 1_465
K1 O1 2.886259 1_555
K1 O7 2.932944 1_566
K1 O8 2.956143 1_555
K1 O0 3.210678 1_555
K1 O5 3.216826 1_455
K1 O18 3.372669 1_556
K2 O6 2.798774 1_555
K2 O14 2.808366 1_555
K2 O19 2.885431 1_655
K2 O2 2.886259 1_655
K2 O4 2.932944 1_555
K2 O11 2.956142 1_655
K2 O3 3.210678 1_555
K2 O6 3.216822 1_655
K2 O17 3.372668 1_555
K3 O7 2.798770 1_555
K3 O15 2.808366 1_545
K3 O18 2.885428 1_645
K3 O3 2.886259 1_555
K3 O5 2.932944 1_544
K3 O10 2.956143 1_555
K3 O2 3.210678 1_555
K3 O7 3.216826 1_655
K3 O16 3.372669 1_554
H0 O0 1.013233 1_455
H0 O8 1.725560 1_555
H1 O1 1.013233 1_555
H1 O9 1.725565 1_555
H2 O2 1.013233 1_655
H2 O10 1.725560 1_555
H3 O3 1.013233 1_555
H3 O11 1.725565 1_555
I0 O4 1.799340 1_555
I0 O8 1.830260 1_555
I0 O0 1.969777 1_555
I0 O15 2.455025 1_555
I1 O5 1.799342 1_555
I1 O9 1.830257 1_555
I1 O1 1.969777 1_655
I1 O14 2.455025 1_556
I2 O6 1.799340 1_555
I2 O10 1.830260 1_555
I2 O2 1.969777 1_555
I2 O13 2.455025 1_555
I3 O7 1.799342 1_555
I3 O11 1.830257 1_555
I3 O3 1.969777 1_455
I3 O12 2.455025 1_554
O12 Se0 1.688831 1_555
O13 Se0 1.688831 1_555
O14 Se1 1.688831 1_555
O15 Se1 1.688831 1_555
O16 Se0 1.670784 1_555
O17 Se0 1.670782 1_555
O18 Se1 1.670784 1_555
O19 Se1 1.670782 1_555
