# generated using pymatgen
data_ErGe2Pt
_symmetry_space_group_name_H-M   'P 1'
_cell_length_a   9.57634110
_cell_length_b   9.57634110
_cell_length_c   9.57634110
_cell_angle_alpha   153.93754818
_cell_angle_beta   125.60724702
_cell_angle_gamma   61.27922564
_symmetry_Int_Tables_number   1
_chemical_formula_structural   ErGe2Pt
_chemical_formula_sum   'Er4 Ge8 Pt4'
_cell_volume   311.47405864
_cell_formula_units_Z   4
loop_
 _symmetry_equiv_pos_site_id
 _symmetry_equiv_pos_as_xyz
  1  'x, y, z'
loop_
 _atom_site_type_symbol
 _atom_site_label
 _atom_site_symmetry_multiplicity
 _atom_site_fract_x
 _atom_site_fract_y
 _atom_site_fract_z
 _atom_site_occupancy
  Er  Er0  1  0.70043000  0.20043000  0.50000000  1
  Er  Er1  1  0.26311700  0.00000000  0.26311700  1
  Er  Er2  1  0.29957000  0.79957000  0.50000000  1
  Er  Er3  1  0.73688300  0.00000000  0.73688300  1
  Ge  Ge0  1  0.05123200  0.20108900  0.85014300  1
  Ge  Ge1  1  0.94876800  0.79891100  0.14985700  1
  Ge  Ge2  1  0.64905400  0.79891100  0.85014300  1
  Ge  Ge3  1  0.35094600  0.20108900  0.14985700  1
  Ge  Ge4  1  0.57378900  0.57378900  0.00000000  1
  Ge  Ge5  1  0.92693700  0.42693700  0.50000000  1
  Ge  Ge6  1  0.07306300  0.57306300  0.50000000  1
  Ge  Ge7  1  0.42621100  0.42621100  0.00000000  1
  Pt  Pt0  1  0.60303500  0.35264500  0.25039000  1
  Pt  Pt1  1  0.39696500  0.64735500  0.74961000  1
  Pt  Pt2  1  0.89774400  0.64735500  0.25039000  1
  Pt  Pt3  1  0.10225600  0.35264500  0.74961000  1
loop_
_geom_bond_atom_site_label_1
_geom_bond_atom_site_label_2
_geom_bond_distance
_geom_bond_site_symmetry_2
Er0 Ge1 3.002824 1_545
Er0 Ge1 3.002824 1_556
Er0 Ge2 3.002824 1_555
Er0 Ge2 3.002824 1_544
Er0 Ge4 3.002940 1_556
Er0 Ge4 3.002940 1_545
Er0 Ge0 3.065022 1_655
Er0 Ge3 3.065022 1_555
Er0 Pt2 3.198671 1_545
Er0 Pt1 3.198673 1_544
Er0 Pt1 3.198673 1_555
Er0 Pt2 3.198674 1_556
Er0 Pt0 3.326528 1_555
Er0 Pt3 3.326537 1_655
Er1 Ge7 3.231221 1_556
Er1 Ge4 3.231221 1_545
Er1 Ge4 3.231221 1_556
Er1 Ge7 3.231221 1_545
Er1 Pt3 3.251580 1_555
Er1 Pt3 3.251583 1_544
Er1 Pt1 3.251588 1_555
Er1 Pt1 3.251588 1_544
Er1 Ge6 3.378895 1_555
Er1 Ge5 3.378895 1_444
Er1 Ge6 3.378895 1_544
Er1 Ge5 3.378895 1_455
Er1 Ge1 3.458835 1_445
Er1 Ge3 3.458835 1_555
Er2 Ge3 3.002824 1_566
Er2 Ge0 3.002824 1_565
Er2 Ge0 3.002824 1_554
Er2 Ge3 3.002824 1_555
Er2 Ge7 3.002940 1_566
Er2 Ge7 3.002940 1_555
Er2 Ge2 3.065022 1_555
Er2 Ge1 3.065022 1_455
Er2 Pt3 3.198671 1_565
Er2 Pt0 3.198673 1_566
Er2 Pt0 3.198673 1_555
Er2 Pt3 3.198674 1_554
Er2 Pt1 3.326528 1_555
Er2 Pt2 3.326537 1_455
Er3 Ge7 3.231221 1_556
Er3 Ge4 3.231221 1_545
Er3 Ge7 3.231221 1_545
Er3 Ge4 3.231221 1_556
Er3 Pt2 3.251580 1_545
Er3 Pt2 3.251583 1_556
Er3 Pt0 3.251588 1_556
Er3 Pt0 3.251588 1_545
Er3 Ge5 3.378895 1_556
Er3 Ge5 3.378895 1_545
Er3 Ge6 3.378895 1_656
Er3 Ge6 3.378895 1_645
Er3 Ge0 3.458835 1_655
Er3 Ge2 3.458835 1_545
Ge0 Pt2 2.491804 1_445
Ge0 Pt2 2.491808 1_456
Ge0 Ge3 2.623569 1_556
Ge0 Pt3 2.647974 1_555
Ge1 Pt3 2.491804 1_665
Ge1 Pt3 2.491808 1_654
Ge1 Ge2 2.623569 1_554
Ge1 Pt2 2.647974 1_555
Ge2 Pt0 2.491801 1_566
Ge2 Pt0 2.491801 1_555
Ge2 Pt1 2.647968 1_555
Ge3 Pt1 2.491801 1_555
Ge3 Pt1 2.491801 1_544
Ge3 Pt0 2.647968 1_555
Ge4 Ge7 2.431905 1_555
Ge4 Pt2 2.504715 1_555
Ge4 Pt1 2.504723 1_554
Ge5 Ge6 2.407977 1_655
Ge5 Pt3 2.504576 1_655
Ge5 Pt0 2.504576 1_555
Ge6 Pt2 2.504576 1_455
Ge6 Pt1 2.504576 1_555
Ge7 Pt3 2.504715 1_554
Ge7 Pt0 2.504723 1_555
