# generated using pymatgen
data_CaWF5
_symmetry_space_group_name_H-M   'P 1'
_cell_length_a   5.85456720
_cell_length_b   5.85456720
_cell_length_c   7.99086985
_cell_angle_alpha   70.21934661
_cell_angle_beta   70.21934661
_cell_angle_gamma   72.46371764
_symmetry_Int_Tables_number   1
_chemical_formula_structural   CaWF5
_chemical_formula_sum   'Ca2 W2 F10'
_cell_volume   237.06895752
_cell_formula_units_Z   2
loop_
 _symmetry_equiv_pos_site_id
 _symmetry_equiv_pos_as_xyz
  1  'x, y, z'
loop_
 _atom_site_type_symbol
 _atom_site_label
 _atom_site_symmetry_multiplicity
 _atom_site_fract_x
 _atom_site_fract_y
 _atom_site_fract_z
 _atom_site_occupancy
  Ca  Ca0  1  0.53317300  0.46682700  0.75000000  1
  Ca  Ca1  1  0.46682700  0.53317300  0.25000000  1
  W  W0  1  0.00000000  0.00000000  0.00000000  1
  W  W1  1  0.00000000  0.00000000  0.50000000  1
  F  F0  1  0.10894300  0.89105700  0.25000000  1
  F  F1  1  0.89105700  0.10894300  0.75000000  1
  F  F2  1  0.21724400  0.26780900  0.37039000  1
  F  F3  1  0.73219100  0.78275600  0.12961000  1
  F  F4  1  0.70512900  0.31641600  0.03079700  1
  F  F5  1  0.68358400  0.29487100  0.46920300  1
  F  F6  1  0.29487100  0.68358400  0.96920300  1
  F  F7  1  0.31641600  0.70512900  0.53079700  1
  F  F8  1  0.26780900  0.21724400  0.87039000  1
  F  F9  1  0.78275600  0.73219100  0.62961000  1
loop_
_geom_bond_atom_site_label_1
_geom_bond_atom_site_label_2
_geom_bond_distance
_geom_bond_site_symmetry_2
Ca0 F8 2.208894 1_555
Ca0 F9 2.208894 1_555
Ca0 F6 2.325635 1_555
Ca0 F7 2.325635 1_555
Ca0 F1 2.476820 1_555
Ca0 F4 2.545775 1_556
Ca0 F5 2.545775 1_555
Ca1 F2 2.208894 1_555
Ca1 F3 2.208894 1_555
Ca1 F5 2.325635 1_555
Ca1 F4 2.325635 1_555
Ca1 F0 2.476820 1_555
Ca1 F7 2.545775 1_555
Ca1 F6 2.545775 1_554
F0 W1 2.135261 1_565
F0 W0 2.135261 1_565
F1 W0 2.135261 1_656
F1 W1 2.135261 1_655
F2 W1 2.087987 1_555
F3 W0 2.087987 1_665
F4 W0 2.136896 1_655
F5 W1 2.136896 1_655
F6 W0 2.136896 1_566
F7 W1 2.136896 1_565
F8 W0 2.087987 1_556
F9 W1 2.087987 1_665
