# generated using pymatgen
data_MnV2Ga2Co3
_symmetry_space_group_name_H-M   'P 1'
_cell_length_a   5.74649000
_cell_length_b   5.74649000
_cell_length_c   5.74649000
_cell_angle_alpha   90.00000000
_cell_angle_beta   90.00000000
_cell_angle_gamma   90.00000000
_symmetry_Int_Tables_number   1
_chemical_formula_structural   MnV2Ga2Co3
_chemical_formula_sum   'Mn2 V4 Ga4 Co6'
_cell_volume   189.76143935
_cell_formula_units_Z   2
loop_
 _symmetry_equiv_pos_site_id
 _symmetry_equiv_pos_as_xyz
  1  'x, y, z'
loop_
 _atom_site_type_symbol
 _atom_site_label
 _atom_site_symmetry_multiplicity
 _atom_site_fract_x
 _atom_site_fract_y
 _atom_site_fract_z
 _atom_site_occupancy
  Mn  Mn0  1  0.00000000  0.00000000  0.00000000  1
  Mn  Mn1  1  0.50000000  0.50000000  0.50000000  1
  V  V0  1  0.25000000  0.25000000  0.25000000  1
  V  V1  1  0.75000000  0.75000000  0.25000000  1
  V  V2  1  0.25000000  0.75000000  0.75000000  1
  V  V3  1  0.75000000  0.25000000  0.75000000  1
  Ga  Ga0  1  0.75000000  0.75000000  0.75000000  1
  Ga  Ga1  1  0.25000000  0.25000000  0.75000000  1
  Ga  Ga2  1  0.25000000  0.75000000  0.25000000  1
  Ga  Ga3  1  0.75000000  0.25000000  0.25000000  1
  Co  Co0  1  0.50000000  0.50000000  0.00000000  1
  Co  Co1  1  0.50000000  0.00000000  0.50000000  1
  Co  Co2  1  0.00000000  0.50000000  0.50000000  1
  Co  Co3  1  0.50000000  0.00000000  0.00000000  1
  Co  Co4  1  0.00000000  0.50000000  0.00000000  1
  Co  Co5  1  0.00000000  0.00000000  0.50000000  1
loop_
_geom_bond_atom_site_label_1
_geom_bond_atom_site_label_2
_geom_bond_distance
_geom_bond_site_symmetry_2
Mn0 V0 2.488303 1_555
Mn0 V1 2.488303 1_445
Mn0 V3 2.488303 1_454
Mn0 V2 2.488303 1_544
Mn1 V2 2.488303 1_555
Mn1 V3 2.488303 1_555
Mn1 V0 2.488303 1_555
Mn1 V1 2.488303 1_555
Ga0 Mn0 2.488303 1_666
Ga0 Mn1 2.488303 1_555
Ga1 Mn0 2.488303 1_556
Ga1 Mn1 2.488303 1_555
Ga2 Mn0 2.488303 1_565
Ga2 Mn1 2.488303 1_555
Ga3 Mn0 2.488303 1_655
Ga3 Mn1 2.488303 1_555
Co0 V2 2.488303 1_554
Co0 Ga1 2.488303 1_554
Co0 Ga3 2.488303 1_555
Co0 V0 2.488303 1_555
Co0 Ga0 2.488303 1_554
Co0 V3 2.488303 1_554
Co0 Ga2 2.488303 1_555
Co0 V1 2.488303 1_555
Co1 V3 2.488303 1_555
Co1 Ga2 2.488303 1_545
Co1 Ga0 2.488303 1_545
Co1 V0 2.488303 1_555
Co1 Ga3 2.488303 1_555
Co1 V1 2.488303 1_545
Co1 V2 2.488303 1_545
Co1 Ga1 2.488303 1_555
Co2 V2 2.488303 1_555
Co2 V0 2.488303 1_555
Co2 V3 2.488303 1_455
Co2 Ga3 2.488303 1_455
Co2 V1 2.488303 1_455
Co2 Ga0 2.488303 1_455
Co2 Ga2 2.488303 1_555
Co2 Ga1 2.488303 1_555
Co3 Ga1 2.488303 1_554
Co3 Ga2 2.488303 1_545
Co3 Ga0 2.488303 1_544
Co3 Ga3 2.488303 1_555
Co3 V0 2.488303 1_555
Co3 V3 2.488303 1_554
Co3 V1 2.488303 1_545
Co3 V2 2.488303 1_544
Co4 V2 2.488303 1_554
Co4 Ga1 2.488303 1_554
Co4 Ga0 2.488303 1_454
Co4 V0 2.488303 1_555
Co4 Ga3 2.488303 1_455
Co4 V1 2.488303 1_455
Co4 Ga2 2.488303 1_555
Co4 V3 2.488303 1_454
Co5 Ga2 2.488303 1_545
Co5 V0 2.488303 1_555
Co5 V3 2.488303 1_455
Co5 Ga0 2.488303 1_445
Co5 V1 2.488303 1_445
Co5 Ga3 2.488303 1_455
Co5 V2 2.488303 1_545
Co5 Ga1 2.488303 1_555
