# generated using pymatgen
data_CsTi2(OF)3
_symmetry_space_group_name_H-M   'P 1'
_cell_length_a   7.45228978
_cell_length_b   7.39449299
_cell_length_c   7.23415057
_cell_angle_alpha   61.24029114
_cell_angle_beta   60.44078954
_cell_angle_gamma   58.31891931
_symmetry_Int_Tables_number   1
_chemical_formula_structural   CsTi2(OF)3
_chemical_formula_sum   'Cs2 Ti4 O6 F6'
_cell_volume   281.49732480
_cell_formula_units_Z   2
loop_
 _symmetry_equiv_pos_site_id
 _symmetry_equiv_pos_as_xyz
  1  'x, y, z'
loop_
 _atom_site_type_symbol
 _atom_site_label
 _atom_site_symmetry_multiplicity
 _atom_site_fract_x
 _atom_site_fract_y
 _atom_site_fract_z
 _atom_site_occupancy
  Cs  Cs0  1  0.50000000  0.50000000  0.50000000  1
  Cs  Cs1  1  0.25000000  0.25000000  0.25000000  1
  Ti  Ti0  1  0.38625700  0.87774000  0.85512000  1
  Ti  Ti1  1  0.87774000  0.38625700  0.88088300  1
  Ti  Ti2  1  0.85512000  0.88088300  0.38625700  1
  Ti  Ti3  1  0.88088300  0.85512000  0.87774000  1
  O  O0  1  0.92714100  0.92714100  0.57285900  1
  O  O1  1  0.57285900  0.57285900  0.92714100  1
  O  O2  1  0.93897000  0.56103000  0.93897000  1
  O  O3  1  0.56103000  0.93897000  0.56103000  1
  O  O4  1  0.82961300  0.82961300  0.17038700  1
  O  O5  1  0.17038700  0.17038700  0.82961300  1
  F  F0  1  0.55155000  0.94845000  0.94845000  1
  F  F1  1  0.94845000  0.55155000  0.55155000  1
  F  F2  1  0.80609000  0.19391000  0.80609000  1
  F  F3  1  0.19391000  0.80609000  0.19391000  1
  F  F4  1  0.20001600  0.79998400  0.79998400  1
  F  F5  1  0.79998400  0.20001600  0.20001600  1
loop_
_geom_bond_atom_site_label_1
_geom_bond_atom_site_label_2
_geom_bond_distance
_geom_bond_site_symmetry_2
Cs0 F4 3.043761 1_555
Cs0 F5 3.043761 1_555
Cs0 F3 3.157064 1_555
Cs0 F2 3.157064 1_555
Cs1 F0 3.059651 1_544
Cs1 F1 3.059651 1_455
Cs1 O2 3.208016 1_454
Cs1 O3 3.208016 1_545
Cs1 O1 3.473765 1_554
Cs1 O0 3.473765 1_445
O0 Ti3 1.891911 1_555
O0 Ti2 1.891911 1_555
O1 Ti1 1.891911 1_555
O1 Ti0 1.891911 1_555
O2 Ti3 1.840150 1_555
O2 Ti1 1.840150 1_555
O3 Ti2 1.840150 1_555
O3 Ti0 1.840150 1_555
O4 Ti3 1.885961 1_554
O4 Ti2 1.885961 1_555
O5 Ti0 1.885961 1_545
O5 Ti1 1.885961 1_455
F0 Ti3 2.020738 1_555
F0 Ti0 2.020738 1_555
F1 Ti1 2.020738 1_555
F1 Ti2 2.020738 1_555
F2 Ti1 2.103357 1_555
F2 Ti3 2.103357 1_545
F3 Ti0 2.103357 1_554
F3 Ti2 2.103357 1_455
F4 Ti3 2.005267 1_455
F4 Ti0 2.005267 1_555
F5 Ti2 2.005267 1_545
F5 Ti1 2.005267 1_554
