# generated using pymatgen
data_YZr2Co9
_symmetry_space_group_name_H-M   'P 1'
_cell_length_a   4.84793537
_cell_length_b   4.84793600
_cell_length_c   8.47427366
_cell_angle_alpha   90.00000000
_cell_angle_beta   73.37907068
_cell_angle_gamma   120.00000433
_symmetry_Int_Tables_number   1
_chemical_formula_structural   YZr2Co9
_chemical_formula_sum   'Y1 Zr2 Co9'
_cell_volume   162.80343251
_cell_formula_units_Z   1
loop_
 _symmetry_equiv_pos_site_id
 _symmetry_equiv_pos_as_xyz
  1  'x, y, z'
loop_
 _atom_site_type_symbol
 _atom_site_label
 _atom_site_symmetry_multiplicity
 _atom_site_fract_x
 _atom_site_fract_y
 _atom_site_fract_z
 _atom_site_occupancy
  Y  Y0  1  0.27905200  0.13952600  0.58142200  1
  Zr  Zr0  1  0.72581000  0.86290500  0.41128500  1
  Zr  Zr1  1  0.99951400  0.99975700  0.00072900  1
  Co  Co0  1  0.66148100  0.58016800  0.75835100  1
  Co  Co1  1  0.16033600  0.58016800  0.75835100  1
  Co  Co2  1  0.66148100  0.08131300  0.75835100  1
  Co  Co3  1  0.33658500  0.41973500  0.24368000  1
  Co  Co4  1  0.83947000  0.41973500  0.24368000  1
  Co  Co5  1  0.33658500  0.91685000  0.24368000  1
  Co  Co6  1  0.66641300  0.33320600  0.00038100  1
  Co  Co7  1  0.33275000  0.66637500  0.00087500  1
  Co  Co8  1  0.00052500  0.50026200  0.49921300  1
loop_
_geom_bond_atom_site_label_1
_geom_bond_atom_site_label_2
_geom_bond_distance
_geom_bond_site_symmetry_2
Y0 Zr0 3.112256 1_445
Y0 Zr0 3.112256 1_555
Y0 Zr0 3.112256 1_545
Y0 Zr1 3.353910 1_446
Zr0 Zr1 3.283913 1_555
Co0 Co6 2.386921 1_556
Co0 Co7 2.393875 1_556
Co0 Co1 2.418417 1_655
Co0 Co2 2.418417 1_555
Co0 Co1 2.429519 1_555
Co0 Co2 2.429519 1_565
Co0 Co8 2.499190 1_655
Co0 Y0 2.806853 1_665
Co0 Y0 2.806853 1_555
Co0 Zr1 3.103904 1_446
Co0 Zr1 3.103904 1_556
Co0 Zr0 3.110324 1_555
Co1 Co6 2.386918 1_456
Co1 Co7 2.393875 1_556
Co1 Co2 2.418417 1_455
Co1 Co2 2.429519 1_565
Co1 Co8 2.499187 1_555
Co1 Y0 2.806853 1_565
Co1 Y0 2.806853 1_555
Co1 Zr1 3.103904 1_446
Co1 Zr1 3.103904 1_456
Co1 Zr0 3.110324 1_555
Co2 Co6 2.386919 1_556
Co2 Co7 2.393875 1_546
Co2 Co8 2.499187 1_655
Co2 Y0 2.806853 1_655
Co2 Y0 2.806853 1_555
Co2 Zr1 3.103904 1_446
Co2 Zr1 3.103904 1_546
Co2 Zr0 3.110324 1_545
Co3 Co7 2.389110 1_555
Co3 Co6 2.401754 1_555
Co3 Co4 2.409981 1_455
Co3 Co5 2.409982 1_555
Co3 Co4 2.437954 1_555
Co3 Co5 2.437954 1_545
Co3 Co8 2.472580 1_555
Co3 Zr0 2.770009 1_445
Co3 Zr0 2.770009 1_555
Co3 Y0 3.046192 1_555
Co3 Zr1 3.106777 1_555
Co3 Zr1 3.106778 1_445
Co4 Co7 2.389110 1_655
Co4 Co6 2.401752 1_555
Co4 Co5 2.409981 1_655
Co4 Co5 2.437954 1_545
Co4 Co8 2.472582 1_655
Co4 Zr0 2.770009 1_545
Co4 Zr0 2.770009 1_555
Co4 Y0 3.046192 1_555
Co4 Zr1 3.106778 1_545
Co4 Zr1 3.106778 1_555
Co5 Co7 2.389110 1_555
Co5 Co6 2.401752 1_565
Co5 Co8 2.472582 1_555
Co5 Zr0 2.770009 1_455
Co5 Zr0 2.770009 1_555
Co5 Y0 3.046192 1_565
Co5 Zr1 3.106777 1_555
Co5 Zr1 3.106778 1_455
Co6 Zr1 2.798956 1_545
Co6 Co7 2.798958 1_655
Co6 Co7 2.798958 1_545
Co6 Zr1 2.798959 1_445
Co6 Zr1 2.798960 1_555
Co6 Co7 2.798963 1_555
Co7 Zr1 2.798957 1_555
Co7 Zr1 2.798957 1_445
Co7 Zr1 2.798957 1_455
Co8 Y0 2.875159 1_555
Co8 Y0 2.875162 1_455
Co8 Y0 2.875163 1_565
Co8 Zr0 2.885965 1_555
Co8 Zr0 2.885966 1_445
Co8 Zr0 2.885970 1_455
