# generated using pymatgen
data_CsMg14V
_symmetry_space_group_name_H-M   'P 1'
_cell_length_a   6.51149363
_cell_length_b   6.51149309
_cell_length_c   10.76730807
_cell_angle_alpha   90.00000000
_cell_angle_beta   90.00000000
_cell_angle_gamma   120.00000281
_symmetry_Int_Tables_number   1
_chemical_formula_structural   CsMg14V
_chemical_formula_sum   'Cs1 Mg14 V1'
_cell_volume   395.36567541
_cell_formula_units_Z   1
loop_
 _symmetry_equiv_pos_site_id
 _symmetry_equiv_pos_as_xyz
  1  'x, y, z'
loop_
 _atom_site_type_symbol
 _atom_site_label
 _atom_site_symmetry_multiplicity
 _atom_site_fract_x
 _atom_site_fract_y
 _atom_site_fract_z
 _atom_site_occupancy
  Cs  Cs0  1  0.16666700  0.33333300  0.62500000  1
  Mg  Mg0  1  0.16174569  0.83087235  0.12500000  1
  Mg  Mg1  1  0.17361382  0.83680641  0.62500000  1
  Mg  Mg2  1  0.66912765  0.33825431  0.12500000  1
  Mg  Mg3  1  0.66319359  0.32638618  0.62500000  1
  Mg  Mg4  1  0.66912765  0.83087235  0.12500000  1
  Mg  Mg5  1  0.66319359  0.83680641  0.62500000  1
  Mg  Mg6  1  0.33578993  0.16421007  0.34926392  1
  Mg  Mg7  1  0.33578993  0.16421007  0.90073608  1
  Mg  Mg8  1  0.33578993  0.67158086  0.34926392  1
  Mg  Mg9  1  0.33578993  0.67158086  0.90073608  1
  Mg  Mg10  1  0.82841914  0.16421007  0.34926392  1
  Mg  Mg11  1  0.82841914  0.16421007  0.90073608  1
  Mg  Mg12  1  0.83333300  0.66666700  0.38239981  1
  Mg  Mg13  1  0.83333300  0.66666700  0.86760019  1
  V  V0  1  0.16666700  0.33333300  0.12500000  1
loop_
_geom_bond_atom_site_label_1
_geom_bond_atom_site_label_2
_geom_bond_distance
_geom_bond_site_symmetry_2
Cs0 Mg5 3.255982 1_555
Cs0 Mg1 3.255982 1_555
Cs0 Mg5 3.255982 1_445
Cs0 Mg1 3.255982 1_545
Cs0 Mg3 3.255982 1_455
Cs0 Mg3 3.255982 1_555
Cs0 Mg6 3.528850 1_555
Cs0 Mg7 3.528850 1_555
Cs0 Mg8 3.528856 1_555
Cs0 Mg9 3.528856 1_555
Cs0 Mg10 3.528856 1_455
Cs0 Mg11 3.528856 1_455
Mg0 Mg9 3.060477 1_554
Mg0 Mg8 3.060477 1_555
Mg0 Mg7 3.060484 1_564
Mg0 Mg6 3.060484 1_565
Mg0 Mg2 3.207679 1_455
Mg0 Mg4 3.207679 1_455
Mg0 V0 3.255865 1_565
Mg0 V0 3.255865 1_555
Mg0 Mg2 3.303814 1_565
Mg0 Mg4 3.303814 1_555
Mg0 Mg12 3.333313 1_455
Mg0 Mg13 3.333313 1_454
Mg1 Mg12 3.241211 1_455
Mg1 Mg13 3.241211 1_455
Mg1 Mg8 3.496189 1_555
Mg1 Mg9 3.496189 1_555
Mg1 Mg6 3.496195 1_565
Mg1 Mg7 3.496195 1_565
Mg2 Mg7 3.060484 1_554
Mg2 Mg6 3.060484 1_555
Mg2 Mg4 3.207679 1_555
Mg2 V0 3.255865 1_555
Mg2 V0 3.255865 1_655
Mg2 Mg4 3.303814 1_545
Mg3 Mg6 3.496195 1_555
Mg3 Mg7 3.496195 1_555
Mg4 Mg9 3.060484 1_554
Mg4 Mg8 3.060484 1_555
Mg4 V0 3.255865 1_665
Mg4 V0 3.255865 1_555
Mg5 Mg8 3.496195 1_555
Mg5 Mg9 3.496195 1_555
Mg6 V0 3.077186 1_555
Mg6 Mg8 3.207752 1_545
Mg6 Mg8 3.303741 1_555
Mg7 V0 3.077186 1_556
Mg7 Mg9 3.207752 1_545
Mg7 Mg9 3.303741 1_555
Mg8 V0 3.077193 1_555
Mg9 V0 3.077193 1_556
Mg10 Mg2 3.060477 1_555
Mg10 Mg4 3.060484 1_545
Mg10 V0 3.077193 1_655
Mg10 Mg8 3.207752 1_545
Mg10 Mg6 3.207752 1_555
Mg10 Mg12 3.275355 1_555
Mg10 Mg12 3.275355 1_545
Mg10 Mg8 3.303741 1_655
Mg10 Mg6 3.303742 1_655
Mg10 Mg3 3.496189 1_555
Mg10 Mg5 3.496195 1_545
Mg11 Mg2 3.060477 1_556
Mg11 Mg4 3.060484 1_546
Mg11 V0 3.077193 1_656
Mg11 Mg9 3.207752 1_545
Mg11 Mg7 3.207752 1_555
Mg11 Mg13 3.275355 1_555
Mg11 Mg13 3.275355 1_545
Mg11 Mg9 3.303741 1_655
Mg11 Mg7 3.303742 1_655
Mg11 Mg3 3.496189 1_555
Mg11 Mg5 3.496195 1_545
Mg12 Mg5 3.241204 1_555
Mg12 Mg3 3.241211 1_555
Mg12 Mg6 3.275355 1_555
Mg12 Mg6 3.275355 1_665
Mg12 Mg8 3.275355 1_655
Mg12 Mg8 3.275355 1_555
Mg12 Mg4 3.333307 1_555
Mg12 Mg2 3.333313 1_555
Mg13 Mg5 3.241204 1_555
Mg13 Mg3 3.241211 1_555
Mg13 Mg7 3.275355 1_555
Mg13 Mg7 3.275355 1_665
Mg13 Mg9 3.275355 1_655
Mg13 Mg9 3.275355 1_555
Mg13 Mg4 3.333307 1_556
Mg13 Mg2 3.333313 1_556
