# generated using pymatgen
data_PrYSi2O7
_symmetry_space_group_name_H-M   'P 1'
_cell_length_a   6.43618614
_cell_length_b   8.99028283
_cell_length_c   11.56487159
_cell_angle_alpha   89.07732782
_cell_angle_beta   95.28602198
_cell_angle_gamma   90.83018784
_symmetry_Int_Tables_number   1
_chemical_formula_structural   PrYSi2O7
_chemical_formula_sum   'Pr4 Y4 Si8 O28'
_cell_volume   666.19058422
_cell_formula_units_Z   4
loop_
 _symmetry_equiv_pos_site_id
 _symmetry_equiv_pos_as_xyz
  1  'x, y, z'
loop_
 _atom_site_type_symbol
 _atom_site_label
 _atom_site_symmetry_multiplicity
 _atom_site_fract_x
 _atom_site_fract_y
 _atom_site_fract_z
 _atom_site_occupancy
  Pr  Pr0  1  0.75405900  0.59645500  0.27255500  1
  Pr  Pr1  1  0.24594100  0.40354500  0.72744500  1
  Pr  Pr2  1  0.30944100  0.83140700  0.77986400  1
  Pr  Pr3  1  0.69055900  0.16859300  0.22013600  1
  Y  Y0  1  0.71111800  0.60476100  0.61496000  1
  Y  Y1  1  0.28888200  0.39523800  0.38504000  1
  Y  Y2  1  0.22464600  0.89158100  0.11846000  1
  Y  Y3  1  0.77535400  0.10841900  0.88154000  1
  Si  Si0  1  0.47943200  0.89562800  0.42482600  1
  Si  Si1  1  0.68775400  0.82638300  0.04252100  1
  Si  Si2  1  0.98389100  0.61507700  0.93972200  1
  Si  Si3  1  0.31224600  0.17361700  0.95747900  1
  Si  Si4  1  0.83360100  0.32234200  0.48644600  1
  Si  Si5  1  0.16639900  0.67765800  0.51355400  1
  Si  Si6  1  0.52056800  0.10437200  0.57517400  1
  Si  Si7  1  0.01610900  0.38492300  0.06027800  1
  O  O0  1  0.35038600  0.23487100  0.55928200  1
  O  O1  1  0.46283800  0.22554100  0.85794500  1
  O  O2  1  0.03303900  0.71886900  0.62145300  1
  O  O3  1  0.58044800  0.89889100  0.92125700  1
  O  O4  1  0.44696000  0.99223200  0.30605500  1
  O  O5  1  0.96696100  0.28113100  0.37854700  1
  O  O6  1  0.78258000  0.66390900  0.00568700  1
  O  O7  1  0.86362800  0.95490300  0.08471800  1
  O  O8  1  0.96570100  0.55235500  0.81063400  1
  O  O9  1  0.73342500  0.15726500  0.51841300  1
  O  O10  1  0.17228700  0.73569100  0.96263700  1
  O  O11  1  0.51135000  0.37068500  0.24937400  1
  O  O12  1  0.34310900  0.54924100  0.54755200  1
  O  O13  1  0.82771300  0.26430900  0.03736300  1
  O  O14  1  0.55304000  0.00776800  0.69394500  1
  O  O15  1  0.65689100  0.45075900  0.45244800  1
  O  O16  1  0.53716200  0.77445900  0.14205500  1
  O  O17  1  0.94113000  0.40011100  0.60374400  1
  O  O18  1  0.13637200  0.04509700  0.91528200  1
  O  O19  1  0.48865000  0.62931500  0.75062600  1
  O  O20  1  0.99785600  0.20659500  0.76829600  1
  O  O21  1  0.21742000  0.33609100  0.99431300  1
  O  O22  1  0.64961400  0.76513000  0.44071800  1
  O  O23  1  0.03429900  0.44764500  0.18936600  1
  O  O24  1  0.26657500  0.84273500  0.48158700  1
  O  O25  1  0.05887000  0.59988900  0.39625600  1
  O  O26  1  0.41955200  0.10110900  0.07874300  1
  O  O27  1  0.00214400  0.79340500  0.23170400  1
loop_
_geom_bond_atom_site_label_1
_geom_bond_atom_site_label_2
_geom_bond_distance
_geom_bond_site_symmetry_2
O0 Si6 1.613433 1_555
O0 Y1 2.464122 1_555
O0 Pr1 2.626600 1_555
O1 Si3 1.630189 1_555
O1 Y3 2.275950 1_555
O1 Pr1 2.527104 1_555
O2 Si5 1.628666 1_555
O2 Y0 2.294167 1_455
O2 Pr2 2.636599 1_555
O3 Si1 1.635173 1_556
O3 Y3 2.311458 1_565
O3 Pr2 2.357988 1_555
O4 Si0 1.612021 1_555
O4 Pr3 2.474605 1_565
O4 Y2 2.650786 1_555
O5 Si4 1.628666 1_555
O5 Y1 2.294163 1_655
O5 Pr3 2.636599 1_555
O6 Si2 1.631834 1_554
O6 Si1 1.667732 1_555
O7 Si1 1.653171 1_555
O7 Y2 2.395722 1_655
O7 Y3 2.724175 1_564
O7 Pr3 2.804375 1_565
O8 Si2 1.597930 1_555
O8 Pr1 2.529776 1_655
O8 Y0 2.707868 1_555
O9 Si6 1.634216 1_555
O9 Si4 1.659343 1_555
O10 Si2 1.621197 1_455
O10 Y2 2.298038 1_556
O10 Pr2 2.500173 1_555
O11 Pr3 2.213162 1_555
O11 Y1 2.234902 1_555
O11 Pr0 2.545663 1_555
O12 Si5 1.649863 1_555
O12 Y1 2.349454 1_555
O12 Y0 2.470842 1_555
O12 Pr1 2.561889 1_555
O13 Si7 1.621197 1_655
O13 Y3 2.298038 1_554
O13 Pr3 2.500173 1_555
O14 Si6 1.612021 1_555
O14 Pr2 2.474605 1_545
O14 Y3 2.650786 1_555
O15 Si4 1.649863 1_555
O15 Y0 2.349449 1_555
O15 Y1 2.470844 1_555
O15 Pr0 2.561889 1_555
O16 Si1 1.630189 1_555
O16 Y2 2.275950 1_555
O16 Pr0 2.527104 1_555
O17 Si4 1.628353 1_555
O17 Pr1 2.319227 1_655
O17 Y0 2.390710 1_555
O18 Si3 1.653171 1_555
O18 Y3 2.395722 1_455
O18 Y2 2.724175 1_546
O18 Pr2 2.804375 1_545
O19 Pr2 2.213162 1_555
O19 Y0 2.234903 1_555
O19 Pr1 2.545663 1_555
O20 Y3 2.194709 1_555
O20 Pr1 2.436800 1_655
O21 Si7 1.631834 1_556
O21 Si3 1.667732 1_555
O22 Si0 1.613426 1_555
O22 Y0 2.464132 1_555
O22 Pr0 2.626605 1_555
O23 Si7 1.597930 1_555
O23 Pr0 2.529776 1_455
O23 Y1 2.707869 1_555
O24 Si0 1.634216 1_555
O24 Si5 1.659343 1_555
O25 Si5 1.628353 1_555
O25 Pr0 2.319227 1_455
O25 Y1 2.390717 1_555
O26 Si3 1.635173 1_554
O26 Y2 2.311458 1_545
O26 Pr3 2.357988 1_555
O27 Y2 2.194709 1_555
O27 Pr0 2.436800 1_455
