# generated using pymatgen
data_Li4MnCo2NiO8
_symmetry_space_group_name_H-M   'P 1'
_cell_length_a   2.94898600
_cell_length_b   5.08396900
_cell_length_c   9.93243276
_cell_angle_alpha   79.13954930
_cell_angle_beta   90.00000000
_cell_angle_gamma   90.00000000
_symmetry_Int_Tables_number   1
_chemical_formula_structural   Li4MnCo2NiO8
_chemical_formula_sum   'Li4 Mn1 Co2 Ni1 O8'
_cell_volume   146.24535695
_cell_formula_units_Z   1
loop_
 _symmetry_equiv_pos_site_id
 _symmetry_equiv_pos_as_xyz
  1  'x, y, z'
loop_
 _atom_site_type_symbol
 _atom_site_label
 _atom_site_symmetry_multiplicity
 _atom_site_fract_x
 _atom_site_fract_y
 _atom_site_fract_z
 _atom_site_occupancy
  Li  Li0  1  0.00000000  0.74176400  0.26048800  1
  Li  Li1  1  0.00000000  0.25823600  0.73951200  1
  Li  Li2  1  0.50000000  0.24493800  0.26715000  1
  Li  Li3  1  0.50000000  0.75506200  0.73285000  1
  Mn  Mn0  1  0.50000000  0.00000000  0.00000000  1
  Co  Co0  1  0.50000000  0.50000000  0.50000000  1
  Co  Co1  1  0.00000000  0.50000000  0.00000000  1
  Ni  Ni0  1  0.00000000  0.00000000  0.50000000  1
  O  O0  1  0.50000000  0.64498400  0.11122200  1
  O  O1  1  0.50000000  0.14966600  0.61381000  1
  O  O2  1  0.00000000  0.10963800  0.10901300  1
  O  O3  1  0.00000000  0.62544500  0.61908100  1
  O  O4  1  0.50000000  0.35501600  0.88877800  1
  O  O5  1  0.50000000  0.85033400  0.38619000  1
  O  O6  1  0.00000000  0.89036200  0.89098700  1
  O  O7  1  0.00000000  0.37455500  0.38091900  1
loop_
_geom_bond_atom_site_label_1
_geom_bond_atom_site_label_2
_geom_bond_distance
_geom_bond_site_symmetry_2
Li0 O7 2.018552 1_555
Li0 O5 2.072995 1_455
Li0 O5 2.072995 1_555
Li0 O2 2.168199 1_565
Li0 O0 2.211139 1_555
Li0 O0 2.211139 1_455
Li1 O3 2.018552 1_555
Li1 O1 2.072995 1_455
Li1 O1 2.072995 1_555
Li1 O6 2.168199 1_545
Li1 O4 2.211139 1_455
Li1 O4 2.211139 1_555
Li2 O7 2.041049 1_655
Li2 O7 2.041049 1_555
Li2 O5 2.128092 1_545
Li2 O0 2.312587 1_555
Li2 O2 2.349781 1_555
Li2 O2 2.349781 1_655
Li3 O3 2.041049 1_555
Li3 O3 2.041049 1_655
Li3 O1 2.128092 1_565
Li3 O4 2.312587 1_555
Li3 O6 2.349781 1_555
Li3 O6 2.349781 1_655
Mn0 O0 1.930451 1_545
Mn0 O4 1.930451 1_554
Mn0 O2 1.970946 1_655
Mn0 O2 1.970946 1_555
Mn0 O6 1.970946 1_644
Mn0 O6 1.970946 1_544
Co0 O5 1.921300 1_555
Co0 O1 1.921300 1_555
Co0 O3 2.064958 1_555
Co0 O3 2.064958 1_655
Co0 O7 2.064958 1_555
Co0 O7 2.064958 1_655
Co1 O4 2.060256 1_454
Co1 O0 2.060256 1_455
Co1 O0 2.060256 1_555
Co1 O4 2.060256 1_554
Co1 O2 2.073936 1_555
Co1 O6 2.073936 1_554
Ni0 O7 2.043595 1_555
Ni0 O3 2.043595 1_545
Ni0 O1 2.086875 1_455
Ni0 O1 2.086875 1_555
Ni0 O5 2.086875 1_445
Ni0 O5 2.086875 1_545
