# generated using pymatgen
data_SiO2
_symmetry_space_group_name_H-M   'P 1'
_cell_length_a   7.13312616
_cell_length_b   7.13633683
_cell_length_c   7.15097335
_cell_angle_alpha   60.06770041
_cell_angle_beta   75.79472258
_cell_angle_gamma   60.54102574
_symmetry_Int_Tables_number   1
_chemical_formula_structural   SiO2
_chemical_formula_sum   'Si8 O16'
_cell_volume   274.67521532
_cell_formula_units_Z   8
loop_
 _symmetry_equiv_pos_site_id
 _symmetry_equiv_pos_as_xyz
  1  'x, y, z'
loop_
 _atom_site_type_symbol
 _atom_site_label
 _atom_site_symmetry_multiplicity
 _atom_site_fract_x
 _atom_site_fract_y
 _atom_site_fract_z
 _atom_site_occupancy
  Si  Si0  1  0.04113418  0.62343998  0.68413589  1
  Si  Si1  1  0.45886582  0.19242414  0.68413589  1
  Si  Si2  1  0.95886582  0.37656002  0.31586411  1
  Si  Si3  1  0.54113418  0.80757586  0.31586411  1
  Si  Si4  1  0.57252769  0.67583253  0.78291734  1
  Si  Si5  1  0.92747231  0.04125013  0.78291734  1
  Si  Si6  1  0.42747231  0.32416747  0.21708266  1
  Si  Si7  1  0.07252769  0.95874987  0.21708266  1
  O  O0  1  0.97653744  0.25392951  0.57648938  1
  O  O1  1  0.52346256  0.66958212  0.57648938  1
  O  O2  1  0.02346256  0.74607049  0.42351062  1
  O  O3  1  0.47653744  0.33041788  0.42351062  1
  O  O4  1  0.82783722  0.58738932  0.79263279  1
  O  O5  1  0.67216278  0.11997689  0.79263279  1
  O  O6  1  0.17216278  0.41261068  0.20736721  1
  O  O7  1  0.32783722  0.88002311  0.20736721  1
  O  O8  1  -0.00000000  0.00000000  0.00000000  1
  O  O9  1  0.50000000  0.50000000  0.00000000  1
  O  O10  1  0.75000000  0.63453882  0.23092236  1
  O  O11  1  0.25000000  0.36546118  0.76907764  1
  O  O12  1  0.93993768  0.20100269  0.24886339  1
  O  O13  1  0.56006232  0.05013392  0.24886339  1
  O  O14  1  0.06006232  0.79899731  0.75113661  1
  O  O15  1  0.43993768  0.94986608  0.75113661  1
loop_
_geom_bond_atom_site_label_1
_geom_bond_atom_site_label_2
_geom_bond_distance
_geom_bond_site_symmetry_2
O0 Si2 1.623067 1_555
O0 Si5 1.624246 1_555
O1 Si3 1.623066 1_555
O1 Si4 1.624241 1_555
O2 Si0 1.623067 1_555
O2 Si7 1.624246 1_555
O3 Si1 1.623066 1_555
O3 Si6 1.624241 1_555
O4 Si0 1.609188 1_655
O4 Si4 1.614789 1_555
O5 Si1 1.609185 1_555
O5 Si5 1.614790 1_555
O6 Si2 1.609188 1_455
O6 Si6 1.614789 1_555
O7 Si3 1.609185 1_555
O7 Si7 1.614790 1_555
O8 Si7 1.597633 1_545
O8 Si5 1.597633 1_454
O9 Si6 1.597633 1_555
O9 Si4 1.597633 1_554
O10 Si3 1.615023 1_555
O10 Si2 1.615024 1_555
O11 Si1 1.615023 1_555
O11 Si0 1.615024 1_555
O12 Si7 1.616551 1_645
O12 Si2 1.616955 1_555
O13 Si6 1.616551 1_555
O13 Si3 1.616955 1_545
O14 Si5 1.616551 1_465
O14 Si0 1.616955 1_555
O15 Si4 1.616551 1_555
O15 Si1 1.616955 1_565
