# generated using pymatgen
data_Na3Al(AsO4)2
_symmetry_space_group_name_H-M   'P 1'
_cell_length_a   12.01336700
_cell_length_b   6.71366300
_cell_length_c   9.60481459
_cell_angle_alpha   83.45654108
_cell_angle_beta   90.00000000
_cell_angle_gamma   90.00000000
_symmetry_Int_Tables_number   1
_chemical_formula_structural   Na3Al(AsO4)2
_chemical_formula_sum   'Na12 Al4 As8 O32'
_cell_volume   769.61742267
_cell_formula_units_Z   4
loop_
 _symmetry_equiv_pos_site_id
 _symmetry_equiv_pos_as_xyz
  1  'x, y, z'
loop_
 _atom_site_type_symbol
 _atom_site_label
 _atom_site_symmetry_multiplicity
 _atom_site_fract_x
 _atom_site_fract_y
 _atom_site_fract_z
 _atom_site_occupancy
  Na  Na0  1  0.84672900  0.76759800  0.63081200  1
  Na  Na1  1  0.34672900  0.23240200  0.86918800  1
  Na  Na2  1  0.15327100  0.23240200  0.36918800  1
  Na  Na3  1  0.65327100  0.76759800  0.13081200  1
  Na  Na4  1  0.91866400  0.09724000  0.21384300  1
  Na  Na5  1  0.41866400  0.90276000  0.28615700  1
  Na  Na6  1  0.08133600  0.90276000  0.78615700  1
  Na  Na7  1  0.58133600  0.09724000  0.71384300  1
  Na  Na8  1  0.39518800  0.37600200  0.52295200  1
  Na  Na9  1  0.89518800  0.62399800  0.97704800  1
  Na  Na10  1  0.60481200  0.62399800  0.47704800  1
  Na  Na11  1  0.10481200  0.37600200  0.02295200  1
  Al  Al0  1  0.14639200  0.71931700  0.43851100  1
  Al  Al1  1  0.64639200  0.28068300  0.06148900  1
  Al  Al2  1  0.85360800  0.28068300  0.56148900  1
  Al  Al3  1  0.35360800  0.71931700  0.93851100  1
  As  As0  1  0.67391700  0.13621900  0.37779300  1
  As  As1  1  0.17391700  0.86378100  0.12220700  1
  As  As2  1  0.32608300  0.86378100  0.62220700  1
  As  As3  1  0.82608300  0.13621900  0.87779300  1
  As  As4  1  0.41608300  0.39558500  0.17785800  1
  As  As5  1  0.91608300  0.60441500  0.32214200  1
  As  As6  1  0.58391700  0.60441500  0.82214200  1
  As  As7  1  0.08391700  0.39558500  0.67785800  1
  O  O0  1  0.59651100  0.27187300  0.47961300  1
  O  O1  1  0.09651100  0.72812700  0.02038700  1
  O  O2  1  0.40348900  0.72812700  0.52038700  1
  O  O3  1  0.90348900  0.27187300  0.97961300  1
  O  O4  1  0.80296200  0.08709300  0.46481600  1
  O  O5  1  0.30296200  0.91290700  0.03518400  1
  O  O6  1  0.19703800  0.91290700  0.53518400  1
  O  O7  1  0.69703800  0.08709300  0.96481600  1
  O  O8  1  0.48929100  0.59116400  0.22694500  1
  O  O9  1  0.98929100  0.40883600  0.27305500  1
  O  O10  1  0.51070900  0.40883600  0.77305500  1
  O  O11  1  0.01070900  0.59116400  0.72694500  1
  O  O12  1  0.00353300  0.76876600  0.40210800  1
  O  O13  1  0.50353300  0.23123400  0.09789200  1
  O  O14  1  0.99646700  0.23123400  0.59789200  1
  O  O15  1  0.49646700  0.76876600  0.90210800  1
  O  O16  1  0.61773400  0.92094600  0.33541300  1
  O  O17  1  0.11773400  0.07905400  0.16458700  1
  O  O18  1  0.38226600  0.07905400  0.66458700  1
  O  O19  1  0.88226600  0.92094600  0.83541300  1
  O  O20  1  0.32824700  0.47931400  0.03446500  1
  O  O21  1  0.82824700  0.52068600  0.46553500  1
  O  O22  1  0.67175300  0.52068600  0.96553500  1
  O  O23  1  0.17175300  0.47931400  0.53446500  1
  O  O24  1  0.34432900  0.25284900  0.30310000  1
  O  O25  1  0.84432900  0.74715100  0.19690000  1
  O  O26  1  0.65567100  0.74715100  0.69690000  1
  O  O27  1  0.15567100  0.25284900  0.80310000  1
  O  O28  1  0.71923100  0.27590200  0.22268300  1
  O  O29  1  0.21923100  0.72409800  0.27731700  1
  O  O30  1  0.28076900  0.72409800  0.77731700  1
  O  O31  1  0.78076900  0.27590200  0.72268300  1
loop_
_geom_bond_atom_site_label_1
_geom_bond_atom_site_label_2
_geom_bond_distance
_geom_bond_site_symmetry_2
Na0 O19 2.359052 1_555
Na0 O26 2.381193 1_555
Na0 O11 2.426330 1_655
Na0 O21 2.432485 1_555
Na0 O4 2.576810 1_565
Na0 O12 2.893085 1_655
Na1 O18 2.359052 1_555
Na1 O27 2.381193 1_555
Na1 O10 2.426330 1_555
Na1 O20 2.432485 1_556
Na1 O5 2.576810 1_546
Na1 O13 2.893085 1_556
Na2 O17 2.359052 1_555
Na2 O24 2.381193 1_555
Na2 O9 2.426330 1_455
Na2 O23 2.432485 1_555
Na2 O6 2.576810 1_545
Na2 O14 2.893085 1_455
Na3 O16 2.359052 1_555
Na3 O25 2.381193 1_555
Na3 O8 2.426330 1_555
Na3 O22 2.432485 1_554
Na3 O7 2.576810 1_564
Na3 O15 2.893085 1_554
Na4 O9 2.385530 1_555
Na4 O3 2.422390 1_554
Na4 O17 2.443597 1_655
Na4 O25 2.536812 1_545
Na4 O28 2.685017 1_555
Na4 O4 2.776685 1_555
Na4 O12 2.874652 1_645
Na5 O8 2.385530 1_555
Na5 O2 2.422390 1_555
Na5 O16 2.443597 1_555
Na5 O24 2.536812 1_565
Na5 O29 2.685017 1_555
Na5 O5 2.776685 1_555
Na5 O13 2.874652 1_565
Na6 O11 2.385530 1_555
Na6 O1 2.422390 1_556
Na6 O19 2.443597 1_455
Na6 O27 2.536812 1_565
Na6 O30 2.685017 1_555
Na6 O6 2.776685 1_555
Na6 O14 2.874652 1_465
Na7 O10 2.385530 1_555
Na7 O0 2.422390 1_555
Na7 O18 2.443597 1_555
Na7 O26 2.536812 1_545
Na7 O31 2.685017 1_555
Na7 O7 2.776685 1_555
Na7 O15 2.874652 1_545
Na8 O18 2.287157 1_555
Na8 O2 2.363473 1_555
Na8 O24 2.431841 1_555
Na8 O0 2.564720 1_555
Na8 O23 2.777725 1_555
Na8 O10 2.804601 1_555
Na9 O19 2.287157 1_555
Na9 O3 2.363473 1_555
Na9 O25 2.431841 1_556
Na9 O1 2.564720 1_656
Na9 O22 2.777725 1_555
Na9 O11 2.804601 1_655
Na10 O16 2.287157 1_555
Na10 O0 2.363473 1_555
Na10 O26 2.431841 1_555
Na10 O2 2.564720 1_555
Na10 O21 2.777725 1_555
Na10 O8 2.804601 1_555
Na11 O17 2.287157 1_555
Na11 O1 2.363473 1_555
Na11 O27 2.431841 1_554
Na11 O3 2.564720 1_454
Na11 O20 2.777725 1_555
Na11 O9 2.804601 1_455
Al0 O12 1.775222 1_555
Al0 O29 1.775512 1_555
Al0 O6 1.787906 1_555
Al0 O23 1.788866 1_555
Al1 O13 1.775222 1_555
Al1 O28 1.775512 1_555
Al1 O7 1.787906 1_554
Al1 O22 1.788866 1_554
Al2 O14 1.775222 1_555
Al2 O31 1.775512 1_555
Al2 O4 1.787906 1_555
Al2 O21 1.788866 1_555
Al3 O15 1.775222 1_555
Al3 O30 1.775512 1_555
Al3 O5 1.787906 1_556
Al3 O20 1.788866 1_556
As0 O16 1.686456 1_545
As0 O0 1.689251 1_555
As0 O28 1.754102 1_555
As0 O4 1.774232 1_555
As1 O17 1.686456 1_565
As1 O1 1.689251 1_555
As1 O29 1.754102 1_555
As1 O5 1.774232 1_555
As2 O18 1.686456 1_565
As2 O2 1.689251 1_555
As2 O30 1.754102 1_555
As2 O6 1.774232 1_555
As3 O19 1.686456 1_545
As3 O3 1.689251 1_555
As3 O31 1.754102 1_555
As3 O7 1.774232 1_555
As4 O24 1.686910 1_555
As4 O8 1.691437 1_555
As4 O13 1.761887 1_555
As4 O20 1.774782 1_555
As5 O25 1.686910 1_555
As5 O9 1.691437 1_555
As5 O12 1.761887 1_655
As5 O21 1.774782 1_555
As6 O26 1.686910 1_555
As6 O10 1.691437 1_555
As6 O15 1.761887 1_555
As6 O22 1.774782 1_555
As7 O27 1.686910 1_555
As7 O11 1.691437 1_555
As7 O14 1.761887 1_455
As7 O23 1.774782 1_555
