# generated using pymatgen
data_V2O5
_symmetry_space_group_name_H-M   'P 1'
_cell_length_a   12.84302420
_cell_length_b   12.72448223
_cell_length_c   12.33685888
_cell_angle_alpha   85.17139279
_cell_angle_beta   87.18698707
_cell_angle_gamma   93.72315082
_symmetry_Int_Tables_number   1
_chemical_formula_structural   V2O5
_chemical_formula_sum   'V30 O75'
_cell_volume   2001.68641653
_cell_formula_units_Z   15
loop_
 _symmetry_equiv_pos_site_id
 _symmetry_equiv_pos_as_xyz
  1  'x, y, z'
loop_
 _atom_site_type_symbol
 _atom_site_label
 _atom_site_symmetry_multiplicity
 _atom_site_fract_x
 _atom_site_fract_y
 _atom_site_fract_z
 _atom_site_occupancy
  V  V0  1  0.57939495  0.87384322  0.02076766  1
  V  V1  1  0.70151050  0.93813334  0.43262150  1
  V  V2  1  0.91806230  0.73992461  0.63586714  1
  V  V3  1  0.43400784  0.52338194  0.07222813  1
  V  V4  1  0.89351012  0.95854701  0.75026285  1
  V  V5  1  0.39956925  0.18275714  0.74189766  1
  V  V6  1  0.26303011  0.61532246  0.89457736  1
  V  V7  1  0.33009004  0.87381934  0.42027314  1
  V  V8  1  0.94877971  0.06641176  0.92863976  1
  V  V9  1  0.34408401  0.77756270  0.10050015  1
  V  V10  1  0.17543983  0.05978501  0.27728337  1
  V  V11  1  0.24780935  0.61259282  0.46353006  1
  V  V12  1  0.75798948  0.69005371  0.43361154  1
  V  V13  1  0.13356732  0.81819639  0.80852003  1
  V  V14  1  0.18203899  0.97242571  0.01194980  1
  V  V15  1  0.97230234  0.95660512  0.48228854  1
  V  V16  1  0.19517722  0.34245128  0.71243475  1
  V  V17  1  0.18922034  0.27358349  0.18915858  1
  V  V18  1  0.04714658  0.54349072  0.80296690  1
  V  V19  1  0.66828755  0.07589026  0.03559014  1
  V  V20  1  0.67884222  0.29258746  0.80065407  1
  V  V21  1  0.48816267  0.00625668  0.59377779  1
  V  V22  1  0.73179502  0.44773298  0.35077170  1
  V  V23  1  0.20155105  0.38306696  0.98388608  1
  V  V24  1  0.06159116  0.40166893  0.49858135  1
  V  V25  1  0.35877395  0.42927421  0.31544917  1
  V  V26  1  0.81948321  0.29863096  0.55570655  1
  V  V27  1  0.39854879  0.03613788  0.93441273  1
  V  V28  1  0.63216297  0.64354942  0.89018512  1
  V  V29  1  0.83499345  0.23297349  0.00058173  1
  O  O0  1  0.43005316  0.84881648  0.34550189  1
  O  O1  1  0.82928624  0.67029102  0.56054651  1
  O  O2  1  0.18042321  0.31231810  0.87395259  1
  O  O3  1  0.40258459  0.00925425  0.78436444  1
  O  O4  1  0.08660190  0.43722138  0.73184353  1
  O  O5  1  0.40372399  0.35295638  0.40982218  1
  O  O6  1  0.27523335  0.28353197  0.07023849  1
  O  O7  1  0.35120050  0.61577636  0.79767488  1
  O  O8  1  0.93191770  0.39372335  0.55914532  1
  O  O9  1  0.32339121  0.92779494  0.02987332  1
  O  O10  1  0.45670620  0.13296045  0.60311440  1
  O  O11  1  0.13607198  0.86232963  0.94840518  1
  O  O12  1  0.82619160  0.09516288  0.04719928  1
  O  O13  1  0.60880951  0.63644538  0.76200841  1
  O  O14  1  0.41764279  0.17094432  0.90130296  1
  O  O15  1  0.01889595  0.84973215  0.75302205  1
  O  O16  1  0.69082142  0.41559076  0.82049381  1
  O  O17  1  0.31712012  0.49174552  0.99464001  1
  O  O18  1  0.49686261  0.96679214  0.73937103  1
  O  O19  1  0.38846069  0.93047004  0.53916636  1
  O  O20  1  0.75715108  0.63724810  0.90602117  1
  O  O21  1  0.15062897  0.50449742  0.91369654  1
  O  O22  1  0.46605252  0.32290447  0.73021122  1
  O  O23  1  0.32918175  0.55383783  0.36299572  1
  O  O24  1  0.70591800  0.21467171  0.92949679  1
  O  O25  1  0.61431782  0.12549503  0.13779824  1
  O  O26  1  0.97832417  0.01037590  0.60034853  1
  O  O27  1  0.79677029  0.02341536  0.70856771  1
  O  O28  1  0.29555062  0.42339304  0.69094645  1
  O  O29  1  0.54398955  0.00391074  0.96019274  1
  O  O30  1  0.99673916  0.06563822  0.79484098  1
  O  O31  1  0.29440458  0.71795380  0.97369945  1
  O  O32  1  0.23898502  0.06576511  0.92060005  1
  O  O33  1  0.98637599  0.63944051  0.69923485  1
  O  O34  1  0.59216328  0.77752270  0.93143468  1
  O  O35  1  0.67444807  0.79983162  0.45257761  1
  O  O36  1  0.84440932  0.73110131  0.33757141  1
  O  O37  1  0.85069740  0.31226974  0.09384677  1
  O  O38  1  0.05369481  0.34847617  0.38526411  1
  O  O39  1  0.06558394  0.01728540  0.38371509  1
  O  O40  1  0.69083137  0.92422481  0.07277315  1
  O  O41  1  0.14430480  0.32048653  0.58018932  1
  O  O42  1  0.10849760  0.35979528  0.09264075  1
  O  O43  1  0.94858431  0.21547400  0.91820153  1
  O  O44  1  0.99080282  0.81970968  0.52337822  1
  O  O45  1  0.40819601  0.63784837  0.12184027  1
  O  O46  1  0.54400471  0.53959208  0.98736030  1
  O  O47  1  0.27488087  0.21543818  0.71847308  1
  O  O48  1  0.86268428  0.95364398  0.89862220  1
  O  O49  1  0.72321982  0.35140016  0.47838011  1
  O  O50  1  0.30155742  0.59561943  0.57746327  1
  O  O51  1  0.24538735  0.75636103  0.44716193  1
  O  O52  1  0.44159834  0.43408135  0.19035582  1
  O  O53  1  0.04541190  0.02928662  0.01207720  1
  O  O54  1  0.68855547  0.57709651  0.40120783  1
  O  O55  1  0.25637437  0.77100286  0.20054813  1
  O  O56  1  0.23609875  0.36930485  0.27577571  1
  O  O57  1  0.12464268  0.53638651  0.47358593  1
  O  O58  1  0.55185502  0.25872614  0.74636650  1
  O  O59  1  0.26134920  0.97540315  0.35524867  1
  O  O60  1  0.84112033  0.96252646  0.44238507  1
  O  O61  1  0.17273194  0.99134631  0.16170032  1
  O  O62  1  0.65999948  0.40989455  0.25310080  1
  O  O63  1  0.83915359  0.82468443  0.70141712  1
  O  O64  1  0.94590792  0.50256931  0.88004307  1
  O  O65  1  0.85524981  0.46639395  0.30889761  1
  O  O66  1  0.27126546  0.16507373  0.25802816  1
  O  O67  1  0.09021921  0.17169655  0.22109125  1
  O  O68  1  0.61112815  0.99619132  0.53052788  1
  O  O69  1  0.85557765  0.19260394  0.50502043  1
  O  O70  1  0.77086057  0.26431494  0.69840937  1
  O  O71  1  0.48435893  0.83630492  0.12088355  1
  O  O72  1  0.67195669  0.97718389  0.31196620  1
  O  O73  1  0.23089294  0.87464439  0.73208621  1
  O  O74  1  0.14400888  0.67417510  0.82091994  1
loop_
_geom_bond_atom_site_label_1
_geom_bond_atom_site_label_2
_geom_bond_distance
_geom_bond_site_symmetry_2
O0 V7 1.608275 1_555
O1 V2 1.749252 1_555
O1 V12 1.859657 1_555
O2 V23 1.712711 1_555
O2 V16 1.994580 1_555
O3 V27 1.909413 1_555
O3 V5 2.229000 1_555
O4 V18 1.760758 1_555
O4 V16 1.920990 1_555
O5 V25 1.606321 1_555
O6 V17 1.783311 1_555
O6 V23 1.913622 1_554
O7 V6 1.605171 1_555
O8 V24 1.784746 1_655
O8 V26 1.827231 1_555
O9 V27 1.913500 1_564
O9 V14 1.954278 1_555
O9 V9 2.071818 1_555
O10 V21 1.699142 1_555
O10 V5 1.997783 1_555
O11 V14 1.746011 1_556
O11 V13 1.860335 1_555
O12 V29 1.793497 1_555
O12 V19 2.040375 1_555
O12 V8 2.165824 1_554
O13 V28 1.632705 1_555
O14 V27 1.728283 1_555
O14 V5 1.985801 1_555
O15 V13 1.711196 1_555
O15 V4 2.190548 1_455
O15 V2 2.450918 1_455
O16 V20 1.603184 1_555
O17 V3 1.859913 1_556
O17 V23 1.979045 1_555
O17 V6 2.092444 1_555
O18 O3 1.461370 1_565
O18 V21 1.834665 1_565
O19 V21 1.748481 1_565
O19 V7 1.857086 1_555
O20 V28 1.632852 1_555
O21 V23 1.877912 1_555
O21 V6 1.942774 1_555
O21 V18 2.007072 1_555
O22 O58 1.425471 1_555
O22 V5 1.917522 1_555
O23 V25 1.792660 1_555
O23 V11 1.822019 1_555
O24 V20 1.861222 1_555
O24 V29 1.923089 1_556
O24 V19 2.122055 1_556
O25 V19 1.604307 1_555
O26 V15 1.663560 1_545
O26 V4 2.132045 1_545
O27 V4 1.616780 1_545
O28 V16 1.594018 1_555
O29 V0 1.851286 1_546
O29 V27 1.973371 1_555
O29 V19 2.086084 1_556
O30 V8 1.734324 1_555
O30 V4 1.969803 1_545
O31 V6 1.733636 1_555
O31 V9 1.914255 1_556
O32 V14 1.672280 1_546
O32 V27 2.120026 1_555
O33 V2 1.749419 1_555
O33 V18 1.922557 1_655
O34 V0 1.726099 1_556
O34 V28 1.913933 1_555
O35 V1 1.765672 1_555
O35 V12 1.839070 1_555
O36 V12 1.612437 1_555
O37 V29 1.604505 1_555
O38 V24 1.608432 1_555
O39 V15 1.757579 1_445
O39 V10 1.899113 1_555
O40 V0 1.706196 1_555
O40 V19 1.988768 1_565
O41 V24 1.811514 1_555
O41 V16 1.823303 1_555
O42 V23 1.745230 1_554
O42 V17 1.935200 1_555
O43 V29 1.773550 1_556
O43 V8 1.890434 1_555
O44 V15 1.806830 1_555
O44 V2 1.828029 1_555
O45 V3 1.672976 1_555
O45 V9 2.010080 1_555
O46 V3 1.707361 1_556
O46 V28 1.968305 1_555
O47 V5 1.712462 1_555
O47 V16 1.966590 1_555
O48 V8 1.828205 1_565
O48 V4 1.848521 1_555
O49 V26 1.733527 1_555
O49 V22 1.906210 1_555
O50 V11 1.600713 1_555
O51 V7 1.788074 1_555
O51 V11 1.825973 1_555
O52 V3 1.781581 1_555
O52 V25 1.825215 1_555
O53 V8 1.715402 1_454
O53 V14 1.940949 1_545
O54 V12 1.728054 1_555
O54 V22 1.913733 1_555
O55 V9 1.622742 1_555
O56 V17 1.781827 1_555
O56 V25 1.812882 1_555
O57 V11 1.794200 1_555
O57 V24 1.842706 1_555
O58 V20 1.832638 1_555
O58 V5 2.129952 1_555
O59 V7 1.771129 1_555
O59 V10 1.838347 1_565
O60 V15 1.782731 1_555
O60 V1 1.811342 1_555
O61 V10 1.732874 1_565
O61 V14 1.882091 1_555
O62 V22 1.637990 1_555
O63 V2 1.747156 1_555
O63 V4 1.952301 1_555
O64 V18 1.604125 1_655
O65 V22 1.639276 1_555
O66 V10 1.752010 1_555
O66 V17 1.953950 1_555
O67 V17 1.761652 1_555
O67 V10 1.953714 1_555
O68 V21 1.743974 1_565
O68 V1 1.864423 1_555
O69 V26 1.618910 1_555
O70 V20 1.761371 1_555
O70 V26 1.845876 1_555
O71 V0 1.708919 1_555
O71 V9 1.941330 1_555
O72 V1 1.600643 1_555
O73 V13 1.618997 1_555
O74 V13 1.840252 1_555
O74 V6 1.973216 1_555
O74 V18 2.045043 1_555
