# generated using pymatgen
data_Tm2Ni2Pb
_symmetry_space_group_name_H-M   'P 1'
_cell_length_a   7.26102860
_cell_length_b   7.26102860
_cell_length_c   3.59460868
_cell_angle_alpha   90.00000000
_cell_angle_beta   90.00000000
_cell_angle_gamma   148.38699072
_symmetry_Int_Tables_number   1
_chemical_formula_structural   Tm2Ni2Pb
_chemical_formula_sum   'Tm2 Ni2 Pb1'
_cell_volume   99.34082552
_cell_formula_units_Z   1
loop_
 _symmetry_equiv_pos_site_id
 _symmetry_equiv_pos_as_xyz
  1  'x, y, z'
loop_
 _atom_site_type_symbol
 _atom_site_label
 _atom_site_symmetry_multiplicity
 _atom_site_fract_x
 _atom_site_fract_y
 _atom_site_fract_z
 _atom_site_occupancy
  Tm  Tm0  1  0.64134045  0.35865955  0.50000000  1
  Tm  Tm1  1  0.35865955  0.64134045  0.50000000  1
  Ni  Ni0  1  0.79898505  0.20101495  0.00000000  1
  Ni  Ni1  1  0.20101495  0.79898505  -0.00000000  1
  Pb  Pb0  1  -0.00000000  0.00000000  0.00000000  1
loop_
_geom_bond_atom_site_label_1
_geom_bond_atom_site_label_2
_geom_bond_distance
_geom_bond_site_symmetry_2
Ni0 Ni1 2.405363 1_545
Ni0 Ni1 2.405363 1_655
Ni0 Tm1 2.799531 1_545
Ni0 Tm1 2.799531 1_544
Ni0 Tm1 2.799531 1_654
Ni0 Tm1 2.799531 1_655
Ni0 Pb0 2.808769 1_655
Ni0 Tm0 2.842964 1_554
Ni0 Tm0 2.842964 1_555
Ni1 Tm0 2.799531 1_455
Ni1 Tm0 2.799531 1_565
Ni1 Tm0 2.799531 1_564
Ni1 Tm0 2.799531 1_454
Ni1 Pb0 2.808769 1_565
Ni1 Tm1 2.842964 1_555
Ni1 Tm1 2.842964 1_554
Pb0 Tm0 3.323025 1_444
Pb0 Tm0 3.323025 1_445
Pb0 Tm1 3.323025 1_444
Pb0 Tm1 3.323025 1_445
Pb0 Tm1 3.323025 1_555
Pb0 Tm0 3.323025 1_555
Pb0 Tm0 3.323025 1_554
Pb0 Tm1 3.323025 1_554
