# generated using pymatgen
data_KNa2Pb
_symmetry_space_group_name_H-M   'P 1'
_cell_length_a   13.68432009
_cell_length_b   12.61009409
_cell_length_c   12.61009379
_cell_angle_alpha   55.53095635
_cell_angle_beta   57.13960988
_cell_angle_gamma   57.13961145
_symmetry_Int_Tables_number   1
_chemical_formula_structural   KNa2Pb
_chemical_formula_sum   'K1 Na2 Pb1'
_cell_volume   1417.11057933
_cell_formula_units_Z   1
loop_
 _symmetry_equiv_pos_site_id
 _symmetry_equiv_pos_as_xyz
  1  'x, y, z'
loop_
 _atom_site_type_symbol
 _atom_site_label
 _atom_site_symmetry_multiplicity
 _atom_site_fract_x
 _atom_site_fract_y
 _atom_site_fract_z
 _atom_site_occupancy
  K  K0  1  -0.00000000  -0.00000000  0.00000000  1
  Na  Na0  1  0.72202968  0.00000000  0.00000000  1
  Na  Na1  1  0.27797032  1.00000000  1.00000000  1
  Pb  Pb0  1  0.50000000  -0.00000000  0.00000000  1
loop_
_geom_bond_atom_site_label_1
_geom_bond_atom_site_label_2
_geom_bond_distance
_geom_bond_site_symmetry_2
K0 Na1 3.803835 1_544
K0 Na0 3.803835 1_455
Na0 Pb0 3.038325 1_555
Na1 Pb0 3.038325 1_566
