# generated using pymatgen
data_MgZn2
_symmetry_space_group_name_H-M   'P 1'
_cell_length_a   5.15681108
_cell_length_b   5.15681232
_cell_length_c   8.37285602
_cell_angle_alpha   90.00000000
_cell_angle_beta   90.00000000
_cell_angle_gamma   120.00001141
_symmetry_Int_Tables_number   1
_chemical_formula_structural   MgZn2
_chemical_formula_sum   'Mg4 Zn8'
_cell_volume   192.82651495
_cell_formula_units_Z   4
loop_
 _symmetry_equiv_pos_site_id
 _symmetry_equiv_pos_as_xyz
  1  'x, y, z'
loop_
 _atom_site_type_symbol
 _atom_site_label
 _atom_site_symmetry_multiplicity
 _atom_site_fract_x
 _atom_site_fract_y
 _atom_site_fract_z
 _atom_site_occupancy
  Mg  Mg0  1  0.33333300  0.66666700  0.06223443  1
  Mg  Mg1  1  0.66666700  0.33333300  0.56223443  1
  Mg  Mg2  1  0.66666700  0.33333300  0.93776557  1
  Mg  Mg3  1  0.33333300  0.66666700  0.43776557  1
  Zn  Zn0  1  0.00000000  0.00000000  0.00000000  1
  Zn  Zn1  1  0.00000000  0.00000000  0.50000000  1
  Zn  Zn2  1  0.16977898  0.33955996  0.75000000  1
  Zn  Zn3  1  0.83022102  0.16977898  0.25000000  1
  Zn  Zn4  1  0.33955996  0.16977898  0.25000000  1
  Zn  Zn5  1  0.66044004  0.83022102  0.75000000  1
  Zn  Zn6  1  0.16977898  0.83022102  0.75000000  1
  Zn  Zn7  1  0.83022102  0.66044004  0.25000000  1
loop_
_geom_bond_atom_site_label_1
_geom_bond_atom_site_label_2
_geom_bond_distance
_geom_bond_site_symmetry_2
Mg0 Zn5 2.994758 1_554
Mg0 Zn2 2.994758 1_554
Mg0 Zn6 2.994761 1_554
Mg0 Zn7 3.020019 1_455
Mg0 Zn4 3.020019 1_565
Mg0 Zn3 3.020025 1_455
Mg0 Zn3 3.020025 1_565
Mg0 Zn7 3.020032 1_555
Mg0 Zn4 3.020033 1_555
Mg0 Zn0 3.022539 1_565
Mg0 Zn0 3.022543 1_665
Mg0 Zn0 3.022543 1_555
Mg0 Mg3 3.144268 1_555
Mg0 Mg2 3.154411 1_454
Mg0 Mg2 3.154412 1_564
Mg0 Mg2 3.154421 1_554
Mg1 Zn4 2.994758 1_555
Mg1 Zn7 2.994758 1_555
Mg1 Zn3 2.994761 1_555
Mg1 Zn2 3.020019 1_655
Mg1 Zn5 3.020019 1_545
Mg1 Zn6 3.020025 1_655
Mg1 Zn6 3.020025 1_545
Mg1 Zn2 3.020032 1_555
Mg1 Zn5 3.020033 1_555
Mg1 Zn1 3.022539 1_655
Mg1 Zn1 3.022543 1_555
Mg1 Zn1 3.022543 1_665
Mg1 Mg2 3.144268 1_555
Mg1 Mg3 3.154411 1_655
Mg1 Mg3 3.154412 1_545
Mg1 Mg3 3.154421 1_555
Mg2 Zn4 2.994758 1_556
Mg2 Zn7 2.994758 1_556
Mg2 Zn3 2.994761 1_556
Mg2 Zn2 3.020019 1_655
Mg2 Zn5 3.020019 1_545
Mg2 Zn6 3.020025 1_655
Mg2 Zn6 3.020025 1_545
Mg2 Zn2 3.020032 1_555
Mg2 Zn5 3.020033 1_555
Mg2 Zn0 3.022539 1_656
Mg2 Zn0 3.022543 1_556
Mg2 Zn0 3.022543 1_666
Mg3 Zn5 2.994758 1_555
Mg3 Zn2 2.994758 1_555
Mg3 Zn6 2.994761 1_555
Mg3 Zn7 3.020019 1_455
Mg3 Zn4 3.020019 1_565
Mg3 Zn3 3.020025 1_455
Mg3 Zn3 3.020025 1_565
Mg3 Zn7 3.020032 1_555
Mg3 Zn4 3.020033 1_555
Mg3 Zn1 3.022539 1_565
Mg3 Zn1 3.022543 1_665
Mg3 Zn1 3.022543 1_555
Zn0 Zn6 2.584790 1_544
Zn0 Zn3 2.584790 1_455
Zn0 Zn5 2.584795 1_444
Zn0 Zn4 2.584795 1_555
Zn0 Zn7 2.584796 1_445
Zn0 Zn2 2.584796 1_554
Zn1 Zn6 2.584790 1_545
Zn1 Zn3 2.584790 1_455
Zn1 Zn5 2.584795 1_445
Zn1 Zn4 2.584795 1_555
Zn1 Zn7 2.584796 1_445
Zn1 Zn2 2.584796 1_555
Zn2 Zn5 2.530246 1_555
Zn2 Zn6 2.530247 1_555
Zn2 Zn5 2.626565 1_445
Zn2 Zn6 2.626565 1_545
Zn3 Zn4 2.530246 1_555
Zn3 Zn7 2.530247 1_555
Zn3 Zn4 2.626565 1_655
Zn3 Zn7 2.626565 1_545
Zn4 Zn7 2.530246 1_555
Zn4 Zn7 2.626565 1_445
Zn5 Zn6 2.530246 1_555
Zn5 Zn6 2.626565 1_655
