# generated using pymatgen
data_Pu2InPd2
_symmetry_space_group_name_H-M   'P 1'
_cell_length_a   7.68368650
_cell_length_b   7.68368650
_cell_length_c   3.86960957
_cell_angle_alpha   90.00000000
_cell_angle_beta   90.00000000
_cell_angle_gamma   90.00000000
_symmetry_Int_Tables_number   1
_chemical_formula_structural   Pu2InPd2
_chemical_formula_sum   'Pu4 In2 Pd4'
_cell_volume   228.45802734
_cell_formula_units_Z   2
loop_
 _symmetry_equiv_pos_site_id
 _symmetry_equiv_pos_as_xyz
  1  'x, y, z'
loop_
 _atom_site_type_symbol
 _atom_site_label
 _atom_site_symmetry_multiplicity
 _atom_site_fract_x
 _atom_site_fract_y
 _atom_site_fract_z
 _atom_site_occupancy
  Pu  Pu0  1  0.32331466  0.82331466  0.50000000  1
  Pu  Pu1  1  0.82331466  0.67668534  0.50000000  1
  Pu  Pu2  1  0.17668534  0.32331466  0.50000000  1
  Pu  Pu3  1  0.67668534  0.17668534  0.50000000  1
  In  In0  1  0.00000000  0.00000000  -0.00000000  1
  In  In1  1  0.50000000  0.50000000  -0.00000000  1
  Pd  Pd0  1  0.37283627  0.12716373  -0.00000000  1
  Pd  Pd1  1  0.87283627  0.37283627  -0.00000000  1
  Pd  Pd2  1  0.12716373  0.62716373  0.00000000  1
  Pd  Pd3  1  0.62716373  0.87283627  0.00000000  1
loop_
_geom_bond_atom_site_label_1
_geom_bond_atom_site_label_2
_geom_bond_distance
_geom_bond_site_symmetry_2
In0 Pd2 3.026802 1_545
In0 Pd3 3.026802 1_445
In0 Pd0 3.026802 1_555
In0 Pd1 3.026802 1_455
In0 Pu1 3.428997 1_445
In0 Pu3 3.428997 1_455
In0 Pu2 3.428997 1_555
In0 Pu2 3.428997 1_554
In0 Pu3 3.428997 1_454
In0 Pu1 3.428997 1_444
In0 Pu0 3.428997 1_545
In0 Pu0 3.428997 1_544
In1 Pd2 3.026802 1_555
In1 Pd1 3.026802 1_555
In1 Pd0 3.026802 1_555
In1 Pd3 3.026802 1_555
In1 Pu2 3.428997 1_555
In1 Pu2 3.428997 1_554
In1 Pu1 3.428997 1_554
In1 Pu3 3.428997 1_554
In1 Pu0 3.428997 1_555
In1 Pu0 3.428997 1_554
In1 Pu3 3.428997 1_555
In1 Pu1 3.428997 1_555
Pd0 Pd3 2.763617 1_545
Pd0 Pu2 2.878636 1_555
Pd0 Pu2 2.878636 1_554
Pd0 Pu3 3.055976 1_555
Pd0 Pu3 3.055976 1_554
Pd0 Pu0 3.055976 1_544
Pd0 Pu0 3.055976 1_545
Pd1 Pd2 2.763617 1_655
Pd1 Pu3 2.878636 1_555
Pd1 Pu3 2.878636 1_554
Pd1 Pu1 3.055976 1_554
Pd1 Pu2 3.055976 1_655
Pd1 Pu1 3.055976 1_555
Pd1 Pu2 3.055976 1_654
Pd2 Pu0 2.878636 1_554
Pd2 Pu0 2.878636 1_555
Pd2 Pu2 3.055976 1_555
Pd2 Pu2 3.055976 1_554
Pd2 Pu1 3.055976 1_455
Pd2 Pu1 3.055976 1_454
Pd3 Pu1 2.878636 1_554
Pd3 Pu1 2.878636 1_555
Pd3 Pu3 3.055976 1_565
Pd3 Pu0 3.055976 1_555
Pd3 Pu0 3.055976 1_554
Pd3 Pu3 3.055976 1_564
