# generated using pymatgen
data_Na16Al12Si12I3ClO48
_symmetry_space_group_name_H-M   'P 1'
_cell_length_a   9.08175161
_cell_length_b   9.08178956
_cell_length_c   18.16343075
_cell_angle_alpha   90.00000000
_cell_angle_beta   90.00000000
_cell_angle_gamma   90.00000000
_symmetry_Int_Tables_number   1
_chemical_formula_structural   Na16Al12Si12I3ClO48
_chemical_formula_sum   'Na16 Al12 Si12 I3 Cl1 O48'
_cell_volume   1498.09355767
_cell_formula_units_Z   1
loop_
 _symmetry_equiv_pos_site_id
 _symmetry_equiv_pos_as_xyz
  1  'x, y, z'
loop_
 _atom_site_type_symbol
 _atom_site_label
 _atom_site_symmetry_multiplicity
 _atom_site_fract_x
 _atom_site_fract_y
 _atom_site_fract_z
 _atom_site_occupancy
  Na  Na0  1  0.30409713  0.69590265  0.15205156  1
  Na  Na1  1  0.30411246  0.69588837  0.65205363  1
  Na  Na2  1  0.69590287  0.30409735  0.15205156  1
  Na  Na3  1  0.69588754  0.30411163  0.65205363  1
  Na  Na4  1  0.30411246  0.30411163  0.34794637  1
  Na  Na5  1  0.30409713  0.30409735  0.84794844  1
  Na  Na6  1  0.69588754  0.69588837  0.34794637  1
  Na  Na7  1  0.69590287  0.69590265  0.84794844  1
  Na  Na8  1  0.80406280  0.80406158  0.09797117  1
  Na  Na9  1  0.80926485  0.80925819  0.59537779  1
  Na  Na10  1  0.19073515  0.80925819  0.40462221  1
  Na  Na11  1  0.19593720  0.80406158  0.90202883  1
  Na  Na12  1  0.80926485  0.19074181  0.40462221  1
  Na  Na13  1  0.80406280  0.19593842  0.90202883  1
  Na  Na14  1  0.19593720  0.19593842  0.09797117  1
  Na  Na15  1  0.19073515  0.19074181  0.59537779  1
  Al  Al0  1  0.50000000  -0.00000000  0.12501666  1
  Al  Al1  1  0.50000000  -0.00000000  0.62502118  1
  Al  Al2  1  0.00005031  0.74995369  0.25002680  1
  Al  Al3  1  0.99994969  0.74995369  0.74997320  1
  Al  Al4  1  0.25000320  0.50000000  -0.00000000  1
  Al  Al5  1  0.25007317  0.50000000  0.50000000  1
  Al  Al6  1  0.99994969  0.25004631  0.25002680  1
  Al  Al7  1  0.00005031  0.25004631  0.74997320  1
  Al  Al8  1  0.74999680  0.50000000  -0.00000000  1
  Al  Al9  1  0.74992683  0.50000000  0.50000000  1
  Al  Al10  1  0.50000000  -0.00000000  0.37497882  1
  Al  Al11  1  0.50000000  -0.00000000  0.87498334  1
  Si  Si0  1  -0.00000000  0.50000000  0.12499472  1
  Si  Si1  1  -0.00000000  0.50000000  0.62491431  1
  Si  Si2  1  0.50000000  0.74998812  -0.00000000  1
  Si  Si3  1  0.50000000  0.75014883  0.50000000  1
  Si  Si4  1  0.24993119  0.99987366  0.25007498  1
  Si  Si5  1  0.24993119  0.00012634  0.74992502  1
  Si  Si6  1  0.50000000  0.25001188  -0.00000000  1
  Si  Si7  1  0.50000000  0.24985117  0.50000000  1
  Si  Si8  1  0.75006881  0.00012634  0.25007498  1
  Si  Si9  1  0.75006881  0.99987366  0.74992502  1
  Si  Si10  1  -0.00000000  0.50000000  0.37508569  1
  Si  Si11  1  -0.00000000  0.50000000  0.87500528  1
  I  I0  1  0.50000000  0.50000000  0.24997623  1
  I  I1  1  0.50000000  0.50000000  0.75002377  1
  I  I2  1  -0.00000000  -0.00000000  -0.00000000  1
  Cl  Cl0  1  -0.00000000  -0.00000000  0.50000000  1
  O  O0  1  0.34881427  0.94748205  0.17915843  1
  O  O1  1  0.34865710  0.94743513  0.67911523  1
  O  O2  1  0.05249652  0.64166770  0.17439540  1
  O  O3  1  0.05258977  0.64179287  0.67434392  1
  O  O4  1  0.35831577  0.65120655  0.02624568  1
  O  O5  1  0.35822708  0.65131734  0.52629829  1
  O  O6  1  0.65118573  0.05251795  0.17915843  1
  O  O7  1  0.65134290  0.05256487  0.67911523  1
  O  O8  1  0.94750348  0.35833230  0.17439540  1
  O  O9  1  0.94741023  0.35820713  0.67434392  1
  O  O10  1  0.64168423  0.34879345  0.02624568  1
  O  O11  1  0.64177292  0.34868266  0.52629829  1
  O  O12  1  0.34865710  0.05256487  0.32088477  1
  O  O13  1  0.34881427  0.05251795  0.82084157  1
  O  O14  1  0.05258977  0.35820713  0.32565608  1
  O  O15  1  0.05249652  0.35833230  0.82560460  1
  O  O16  1  0.35822708  0.34868266  0.47370171  1
  O  O17  1  0.35831577  0.34879345  0.97375432  1
  O  O18  1  0.65134290  0.94743513  0.32088477  1
  O  O19  1  0.65118573  0.94748205  0.82084157  1
  O  O20  1  0.94741023  0.64179287  0.32565608  1
  O  O21  1  0.94750348  0.64166770  0.82560460  1
  O  O22  1  0.64177292  0.65131734  0.47370171  1
  O  O23  1  0.64168423  0.65120655  0.97375432  1
  O  O24  1  0.84883522  0.85829956  0.22376652  1
  O  O25  1  0.84892976  0.85847654  0.72354072  1
  O  O26  1  0.55249520  0.84881419  0.07084348  1
  O  O27  1  0.55289597  0.84895304  0.57076960  1
  O  O28  1  0.85830423  0.55250121  0.07558893  1
  O  O29  1  0.85846109  0.55289017  0.57552414  1
  O  O30  1  0.15107024  0.85847654  0.27645928  1
  O  O31  1  0.15116478  0.85829956  0.77623348  1
  O  O32  1  0.44710403  0.84895304  0.42923040  1
  O  O33  1  0.44750480  0.84881419  0.92915652  1
  O  O34  1  0.14153891  0.55289017  0.42447586  1
  O  O35  1  0.14169577  0.55250121  0.92441107  1
  O  O36  1  0.84892976  0.14152346  0.27645928  1
  O  O37  1  0.84883522  0.14170044  0.77623348  1
  O  O38  1  0.55289597  0.15104696  0.42923040  1
  O  O39  1  0.55249520  0.15118581  0.92915652  1
  O  O40  1  0.85846109  0.44710983  0.42447586  1
  O  O41  1  0.85830423  0.44749879  0.92441107  1
  O  O42  1  0.15116478  0.14170044  0.22376652  1
  O  O43  1  0.15107024  0.14152346  0.72354072  1
  O  O44  1  0.44750480  0.15118581  0.07084348  1
  O  O45  1  0.44710403  0.15104696  0.57076960  1
  O  O46  1  0.14169577  0.44749879  0.07558893  1
  O  O47  1  0.14153891  0.44710983  0.57552414  1
loop_
_geom_bond_atom_site_label_1
_geom_bond_atom_site_label_2
_geom_bond_distance
_geom_bond_site_symmetry_2
Na0 O0 2.372258 1_555
Na0 O2 2.372429 1_555
Na0 O4 2.372500 1_555
Na1 O5 2.371226 1_555
Na1 O3 2.371319 1_555
Na1 O1 2.371534 1_555
Na2 O6 2.372258 1_555
Na2 O8 2.372429 1_555
Na2 O10 2.372500 1_555
Na3 O11 2.371226 1_555
Na3 O9 2.371319 1_555
Na3 O7 2.371534 1_555
Na4 O16 2.371226 1_555
Na4 O14 2.371319 1_555
Na4 O12 2.371534 1_555
Na5 O13 2.372258 1_555
Na5 O15 2.372429 1_555
Na5 O17 2.372500 1_555
Na6 O22 2.371226 1_555
Na6 O20 2.371319 1_555
Na6 O18 2.371534 1_555
Na7 O19 2.372258 1_555
Na7 O21 2.372429 1_555
Na7 O23 2.372500 1_555
Na8 O28 2.372218 1_555
Na8 O26 2.372280 1_555
Na8 O24 2.372471 1_555
Na9 O25 2.397620 1_555
Na9 O29 2.398030 1_555
Na9 O27 2.398046 1_555
Na10 O30 2.397620 1_555
Na10 O34 2.398030 1_555
Na10 O32 2.398046 1_555
Na11 O35 2.372218 1_555
Na11 O33 2.372280 1_555
Na11 O31 2.372471 1_555
Na12 O36 2.397620 1_555
Na12 O40 2.398030 1_555
Na12 O38 2.398046 1_555
Na13 O41 2.372218 1_555
Na13 O39 2.372280 1_555
Na13 O37 2.372471 1_555
Na14 O46 2.372218 1_555
Na14 O44 2.372280 1_555
Na14 O42 2.372471 1_555
Na15 O43 2.397620 1_555
Na15 O47 2.398030 1_555
Na15 O45 2.398046 1_555
Al0 O6 1.754930 1_555
Al0 O0 1.754930 1_545
Al0 O26 1.755198 1_545
Al0 O44 1.755198 1_555
Al1 O7 1.755677 1_555
Al1 O1 1.755677 1_545
Al1 O27 1.756003 1_545
Al1 O45 1.756003 1_555
Al2 O20 1.755125 1_455
Al2 O2 1.755313 1_555
Al2 O24 1.755466 1_455
Al2 O30 1.755834 1_555
Al3 O3 1.755125 1_655
Al3 O21 1.755313 1_555
Al3 O31 1.755466 1_655
Al3 O25 1.755834 1_555
Al4 O46 1.754952 1_555
Al4 O35 1.754952 1_554
Al4 O17 1.755166 1_554
Al4 O4 1.755166 1_555
Al5 O16 1.755406 1_555
Al5 O5 1.755406 1_555
Al5 O47 1.756151 1_555
Al5 O34 1.756151 1_555
Al6 O14 1.755125 1_655
Al6 O8 1.755313 1_555
Al6 O42 1.755466 1_655
Al6 O36 1.755834 1_555
Al7 O9 1.755125 1_455
Al7 O15 1.755313 1_555
Al7 O37 1.755466 1_455
Al7 O43 1.755834 1_555
Al8 O28 1.754952 1_555
Al8 O41 1.754952 1_554
Al8 O23 1.755166 1_554
Al8 O10 1.755166 1_555
Al9 O22 1.755406 1_555
Al9 O11 1.755406 1_555
Al9 O29 1.756151 1_555
Al9 O40 1.756151 1_555
Al10 O18 1.755677 1_545
Al10 O12 1.755677 1_555
Al10 O32 1.756003 1_545
Al10 O38 1.756003 1_555
Al11 O13 1.754930 1_555
Al11 O19 1.754930 1_545
Al11 O33 1.755198 1_545
Al11 O39 1.755198 1_555
I0 Na0 3.081281 1_555
I0 Na2 3.081281 1_555
I0 Na4 3.081603 1_555
I0 Na6 3.081603 1_555
I1 Na5 3.081281 1_555
I1 Na7 3.081281 1_555
I1 Na3 3.081603 1_555
I1 Na1 3.081603 1_555
I2 Na11 3.082137 1_544
I2 Na14 3.082137 1_555
I2 Na8 3.082137 1_445
I2 Na13 3.082137 1_454
Cl0 Na9 3.000417 1_445
Cl0 Na12 3.000417 1_455
Cl0 Na15 3.000417 1_555
Cl0 Na10 3.000417 1_545
O0 Si4 1.640739 1_555
O1 Si5 1.639228 1_565
O2 Si0 1.639437 1_555
O3 Si1 1.640863 1_555
O4 Si2 1.639442 1_555
O5 Si3 1.640600 1_555
O6 Si8 1.640739 1_555
O7 Si9 1.639228 1_545
O8 Si0 1.639437 1_655
O9 Si1 1.640863 1_655
O10 Si6 1.639442 1_555
O11 Si7 1.640600 1_555
O12 Si4 1.639228 1_545
O13 Si5 1.640739 1_555
O14 Si10 1.640863 1_555
O15 Si11 1.639437 1_555
O16 Si7 1.640600 1_555
O17 Si6 1.639442 1_556
O18 Si8 1.639228 1_565
O19 Si9 1.640739 1_555
O20 Si10 1.640863 1_655
O21 Si11 1.639437 1_655
O22 Si3 1.640600 1_555
O23 Si2 1.639442 1_556
O24 Si8 1.640717 1_565
O25 Si9 1.638528 1_555
O26 Si2 1.639689 1_555
O27 Si3 1.639590 1_555
O28 Si0 1.639696 1_655
O29 Si1 1.639454 1_655
O30 Si4 1.638528 1_555
O31 Si5 1.640717 1_565
O32 Si3 1.639590 1_555
O33 Si2 1.639689 1_556
O34 Si10 1.639454 1_555
O35 Si11 1.639696 1_555
O36 Si8 1.638528 1_555
O37 Si9 1.640717 1_545
O38 Si7 1.639590 1_555
O39 Si6 1.639689 1_556
O40 Si10 1.639454 1_655
O41 Si11 1.639696 1_655
O42 Si4 1.640717 1_545
O43 Si5 1.638528 1_555
O44 Si6 1.639689 1_555
O45 Si7 1.639590 1_555
O46 Si0 1.639696 1_555
O47 Si1 1.639454 1_555
