# generated using pymatgen
data_Sr2Ca14Mn14Al2O45
_symmetry_space_group_name_H-M   'P 1'
_cell_length_a   10.86981813
_cell_length_b   15.18712869
_cell_length_c   10.81214962
_cell_angle_alpha   89.93680763
_cell_angle_beta   91.06526242
_cell_angle_gamma   90.01743401
_symmetry_Int_Tables_number   1
_chemical_formula_structural   Sr2Ca14Mn14Al2O45
_chemical_formula_sum   'Sr4 Ca28 Mn28 Al4 O90'
_cell_volume   1784.57436104
_cell_formula_units_Z   2
loop_
 _symmetry_equiv_pos_site_id
 _symmetry_equiv_pos_as_xyz
  1  'x, y, z'
loop_
 _atom_site_type_symbol
 _atom_site_label
 _atom_site_symmetry_multiplicity
 _atom_site_fract_x
 _atom_site_fract_y
 _atom_site_fract_z
 _atom_site_occupancy
  Sr  Sr0  1  0.00231364  0.11945163  0.50068100  1
  Sr  Sr1  1  0.49867674  0.37165467  0.99096021  1
  Sr  Sr2  1  0.24460305  0.37671803  0.24799113  1
  Sr  Sr3  1  0.25708102  0.12297992  0.23757325  1
  Ca  Ca0  1  0.00712004  0.11088585  0.00467379  1
  Ca  Ca1  1  0.01714818  0.62924236  0.49908452  1
  Ca  Ca2  1  0.01926078  0.62684740  0.99609127  1
  Ca  Ca3  1  0.53499993  0.12523285  0.49564294  1
  Ca  Ca4  1  0.53043919  0.12373298  0.99517006  1
  Ca  Ca5  1  0.52435530  0.63410661  0.51073173  1
  Ca  Ca6  1  0.52387779  0.62478536  0.97963104  1
  Ca  Ca7  1  0.49639958  0.37140822  0.50904997  1
  Ca  Ca8  1  0.48088701  0.87327237  0.99890511  1
  Ca  Ca9  1  0.47898486  0.87349000  0.50890574  1
  Ca  Ca10  1  0.97366266  0.38301068  0.00459725  1
  Ca  Ca11  1  0.96148544  0.38438122  0.49903781  1
  Ca  Ca12  1  0.97872088  0.87365997  0.00634475  1
  Ca  Ca13  1  0.97386810  0.87258732  0.50303075  1
  Ca  Ca14  1  0.23417123  0.39111883  0.76336774  1
  Ca  Ca15  1  0.23315704  0.87577880  0.24540563  1
  Ca  Ca16  1  0.22775855  0.87202688  0.74817988  1
  Ca  Ca17  1  0.73826081  0.36462729  0.24478887  1
  Ca  Ca18  1  0.73347332  0.37442959  0.74919850  1
  Ca  Ca19  1  0.73323829  0.87434391  0.24534725  1
  Ca  Ca20  1  0.72880098  0.87606534  0.74181362  1
  Ca  Ca21  1  0.26443489  0.11444812  0.75831863  1
  Ca  Ca22  1  0.24041439  0.63403036  0.24227704  1
  Ca  Ca23  1  0.26883624  0.62847558  0.75539087  1
  Ca  Ca24  1  0.76729473  0.12047577  0.25505174  1
  Ca  Ca25  1  0.77810318  0.12215717  0.75602049  1
  Ca  Ca26  1  0.77726788  0.62676089  0.25490096  1
  Ca  Ca27  1  0.77209920  0.62540986  0.75507667  1
  Mn  Mn0  1  0.00203998  -0.00047543  0.25090203  1
  Mn  Mn1  1  0.99763231  0.99547275  0.75277819  1
  Mn  Mn2  1  0.00072583  0.49900985  0.25183832  1
  Mn  Mn3  1  0.99539783  0.49949772  0.75158238  1
  Mn  Mn4  1  0.49618471  0.00051616  0.74520507  1
  Mn  Mn5  1  0.51205532  0.49059978  0.24196681  1
  Mn  Mn6  1  0.49910830  0.50072243  0.74649384  1
  Mn  Mn7  1  0.25071714  0.00012703  -0.00076918  1
  Mn  Mn8  1  0.24924207  0.50193434  0.00241197  1
  Mn  Mn9  1  0.23745059  0.49924160  0.51173953  1
  Mn  Mn10  1  0.75057919  0.99655952  0.99539400  1
  Mn  Mn11  1  0.74568092  0.99837086  0.49658426  1
  Mn  Mn12  1  0.75335974  0.50248289  0.99954761  1
  Mn  Mn13  1  0.74423975  0.50406877  0.50055503  1
  Mn  Mn14  1  0.25226646  0.24039415  0.47843324  1
  Mn  Mn15  1  0.24955747  0.75136699  0.99870986  1
  Mn  Mn16  1  0.24987378  0.75055693  0.49877217  1
  Mn  Mn17  1  0.76284089  0.24628618  0.00563009  1
  Mn  Mn18  1  0.74945144  0.25054420  0.50317345  1
  Mn  Mn19  1  0.74905394  0.75019330  0.99896771  1
  Mn  Mn20  1  0.74838158  0.75077807  0.49853594  1
  Mn  Mn21  1  0.00429217  0.25121064  0.76282036  1
  Mn  Mn22  1  0.99840379  0.75249765  0.25037545  1
  Mn  Mn23  1  0.99825609  0.75007970  0.74952552  1
  Mn  Mn24  1  0.50164888  0.24282831  0.24788300  1
  Mn  Mn25  1  0.51532787  0.24261812  0.75168949  1
  Mn  Mn26  1  0.49714852  0.76006329  0.25403244  1
  Mn  Mn27  1  0.49927124  0.75202486  0.75107882  1
  Al  Al0  1  0.51565601  0.99898410  0.22870230  1
  Al  Al1  1  0.22737831  0.99296910  0.51602300  1
  Al  Al2  1  0.27517759  0.24701272  0.97518237  1
  Al  Al3  1  0.98325549  0.25088836  0.27021977  1
  O  O0  1  0.10647241  0.76990032  0.10607341  1
  O  O1  1  0.10477217  0.77119495  0.60456084  1
  O  O2  1  0.61636519  0.26486955  0.11660054  1
  O  O3  1  0.60621793  0.26273842  0.60380845  1
  O  O4  1  0.60158068  0.76609850  0.10560776  1
  O  O5  1  0.60311892  0.76822251  0.60437821  1
  O  O6  1  0.40385583  0.22301866  0.39366152  1
  O  O7  1  0.40885073  0.22816540  0.88666067  1
  O  O8  1  0.38989338  0.71755855  0.38843703  1
  O  O9  1  0.39430968  0.73235426  0.89581442  1
  O  O10  1  0.88608232  0.24043329  0.39898695  1
  O  O11  1  0.90864979  0.23218577  0.91141361  1
  O  O12  1  0.89160799  0.73076114  0.39283347  1
  O  O13  1  0.89343782  0.72878241  0.89452357  1
  O  O14  1  0.13189529  0.23686145  0.34878682  1
  O  O15  1  0.17405909  0.24702908  0.81698549  1
  O  O16  1  0.13974027  0.73204925  0.35921443  1
  O  O17  1  0.14501283  0.73267437  0.85244818  1
  O  O18  1  0.64734477  0.22747424  0.35547305  1
  O  O19  1  0.66125156  0.22957845  0.86152674  1
  O  O20  1  0.64030516  0.72832191  0.35393653  1
  O  O21  1  0.64382398  0.72811310  0.85473518  1
  O  O22  1  0.35987349  0.26033590  0.13471835  1
  O  O23  1  0.35245396  0.76127592  0.14741661  1
  O  O24  1  0.35603894  0.77028677  0.64407602  1
  O  O25  1  0.87692924  0.27233985  0.14269834  1
  O  O26  1  0.86805053  0.27446419  0.64014016  1
  O  O27  1  0.85421017  0.77071186  0.14536738  1
  O  O28  1  0.85490894  0.77284572  0.64299280  1
  O  O29  1  0.36117158  0.50805363  0.16106600  1
  O  O30  1  0.35741278  0.48522844  0.63968753  1
  O  O31  1  0.35944363  0.98493919  0.14245002  1
  O  O32  1  0.35573906  0.97907552  0.63355046  1
  O  O33  1  0.85271370  0.48069781  0.15056410  1
  O  O34  1  0.84878240  0.47950176  0.64671359  1
  O  O35  1  0.86086223  0.97560590  0.13935728  1
  O  O36  1  0.85467808  0.98042688  0.64341422  1
  O  O37  1  0.14644611  0.01450185  0.36496571  1
  O  O38  1  0.14303761  0.01271840  0.85541277  1
  O  O39  1  0.15473026  0.51560861  0.35688224  1
  O  O40  1  0.14727902  0.51877323  0.85336548  1
  O  O41  1  0.63341805  0.02359363  0.35953688  1
  O  O42  1  0.64190824  0.02473394  0.85270592  1
  O  O43  1  0.62370799  0.53290472  0.35958683  1
  O  O44  1  0.64509477  0.51666950  0.85149238  1
  O  O45  1  0.39263279  0.02258947  0.89292293  1
  O  O46  1  0.39259507  0.51256613  0.89519673  1
  O  O47  1  0.88495224  0.01448890  0.38418282  1
  O  O48  1  0.89083934  0.01711646  0.89089774  1
  O  O49  1  0.89349596  0.51923232  0.39628184  1
  O  O50  1  0.89676145  0.51927561  0.89961904  1
  O  O51  1  0.10485865  0.48353010  0.10721177  1
  O  O52  1  0.09415844  0.47569420  0.61226182  1
  O  O53  1  0.10924774  0.98261686  0.10786596  1
  O  O54  1  0.09886478  0.97553228  0.61355629  1
  O  O55  1  0.60986647  0.49187453  0.10097723  1
  O  O56  1  0.59902187  0.48796851  0.59977308  1
  O  O57  1  0.61363334  0.97668870  0.09997551  1
  O  O58  1  0.60294160  0.98126355  0.60247940  1
  O  O59  1  0.01196279  0.37478162  0.28309901  1
  O  O60  1  0.01053635  0.37603651  0.79272697  1
  O  O61  1  0.01132142  0.87511080  0.28931360  1
  O  O62  1  0.00675214  0.87315890  0.79340066  1
  O  O63  1  0.49405500  0.37292279  0.29355029  1
  O  O64  1  0.49731597  0.37076305  0.76144156  1
  O  O65  1  0.49395149  0.88996735  0.29453678  1
  O  O66  1  0.51102240  0.87637352  0.78752198  1
  O  O67  1  0.49301482  0.11875369  0.21527036  1
  O  O68  1  0.48026332  0.12497042  0.70111860  1
  O  O69  1  0.48724134  0.62646404  0.71993854  1
  O  O70  1  0.99274165  0.12800595  0.21917633  1
  O  O71  1  0.99915559  0.12632237  0.72482075  1
  O  O72  1  0.99814326  0.62578536  0.21394420  1
  O  O73  1  0.98821254  0.62508844  0.71154515  1
  O  O74  1  0.22062323  0.13695423  0.01558491  1
  O  O75  1  0.24142227  0.12222870  0.53577585  1
  O  O76  1  0.23580179  0.62614610  0.03017825  1
  O  O77  1  0.23832358  0.62491592  0.53965865  1
  O  O78  1  0.75063676  0.12149050  0.04170379  1
  O  O79  1  0.75179380  0.12539518  0.53992562  1
  O  O80  1  0.74067281  0.62668707  0.03900036  1
  O  O81  1  0.74308336  0.62729020  0.54024814  1
  O  O82  1  0.26898981  0.36295897  0.49950786  1
  O  O83  1  0.24813011  0.36904143  0.98546362  1
  O  O84  1  0.26294548  0.87734839  0.46123038  1
  O  O85  1  0.26427467  0.87588332  0.96321272  1
  O  O86  1  0.74178107  0.37877470  0.46104744  1
  O  O87  1  0.75482092  0.37619837  0.96597522  1
  O  O88  1  0.75329566  0.87417608  0.45915249  1
  O  O89  1  0.75867316  0.87362689  0.95576079  1
loop_
_geom_bond_atom_site_label_1
_geom_bond_atom_site_label_2
_geom_bond_distance
_geom_bond_site_symmetry_2
Ca0 O48 2.254740 1_454
Ca0 O70 2.342158 1_455
Ca0 O11 2.347994 1_454
Ca0 O74 2.354965 1_555
Ca0 O53 2.494497 1_545
Ca0 O38 2.665557 1_554
Ca1 O73 2.325159 1_455
Ca1 O12 2.344791 1_455
Ca1 O49 2.404279 1_455
Ca1 O77 2.436690 1_555
Ca1 O16 2.563003 1_555
Ca1 O1 2.611365 1_555
Ca1 O52 2.755532 1_555
Ca1 O39 2.769773 1_555
Ca2 O13 2.326973 1_455
Ca2 O50 2.341111 1_455
Ca2 O72 2.370897 1_456
Ca2 O76 2.375687 1_556
Ca2 O17 2.633576 1_555
Ca2 O0 2.644859 1_556
Ca2 O51 2.645862 1_556
Ca2 O40 2.664312 1_555
Ca3 O68 2.310584 1_555
Ca3 O6 2.322199 1_555
Ca3 O79 2.395920 1_555
Ca3 O41 2.399443 1_555
Ca3 O18 2.502323 1_555
Ca3 O3 2.509742 1_555
Ca3 O58 2.573737 1_545
Ca4 O7 2.361820 1_555
Ca4 O45 2.401304 1_555
Ca4 O67 2.422814 1_556
Ca4 O78 2.436886 1_556
Ca4 O42 2.485339 1_555
Ca4 O19 2.600704 1_555
Ca4 O57 2.654522 1_546
Ca4 O2 2.673937 1_556
Ca5 O69 2.307829 1_555
Ca5 O8 2.327330 1_555
Ca5 O81 2.395224 1_555
Ca5 O5 2.424487 1_555
Ca5 O43 2.504263 1_555
Ca5 O56 2.545330 1_555
Ca5 O20 2.565710 1_555
Ca6 O9 2.329021 1_555
Ca6 O46 2.393305 1_555
Ca6 O80 2.431015 1_556
Ca6 O21 2.458767 1_555
Ca6 O44 2.534925 1_555
Ca6 O55 2.572780 1_556
Ca6 O4 2.671540 1_556
Ca6 O69 2.828682 1_555
Ca7 O3 2.269444 1_555
Ca7 O56 2.302630 1_555
Ca7 O63 2.329769 1_555
Ca7 O82 2.475433 1_555
Ca7 O30 2.711432 1_555
Ca7 O64 2.728735 1_555
Ca7 O86 2.728972 1_555
Ca7 O6 2.757775 1_555
Ca8 O66 2.315307 1_555
Ca8 O4 2.375350 1_556
Ca8 O85 2.379197 1_555
Ca8 O57 2.384697 1_556
Ca8 O9 2.583268 1_555
Ca8 O31 2.666607 1_556
Ca8 O45 2.707493 1_565
Ca8 O23 2.737930 1_556
Ca9 O5 2.321201 1_555
Ca9 O58 2.338738 1_555
Ca9 O65 2.339648 1_555
Ca9 O84 2.395560 1_555
Ca9 O32 2.501094 1_555
Ca9 O24 2.538662 1_555
Ca9 O8 2.863745 1_555
Ca10 O60 2.335425 1_654
Ca10 O51 2.353453 1_655
Ca10 O87 2.409697 1_554
Ca10 O25 2.492372 1_555
Ca10 O50 2.496069 1_554
Ca10 O33 2.550238 1_555
Ca10 O11 2.595949 1_554
Ca10 O83 3.001996 1_654
Ca11 O52 2.332047 1_655
Ca11 O59 2.412851 1_655
Ca11 O86 2.417167 1_555
Ca11 O49 2.437253 1_555
Ca11 O26 2.489298 1_555
Ca11 O34 2.493189 1_555
Ca11 O10 2.567572 1_555
Ca12 O62 2.328087 1_654
Ca12 O0 2.348636 1_655
Ca12 O53 2.429137 1_655
Ca12 O89 2.443679 1_554
Ca12 O35 2.486213 1_555
Ca12 O27 2.569978 1_555
Ca12 O13 2.669318 1_554
Ca12 O48 2.677354 1_564
Ca13 O1 2.353809 1_655
Ca13 O61 2.354041 1_655
Ca13 O54 2.379266 1_655
Ca13 O88 2.435523 1_555
Ca13 O28 2.514589 1_555
Ca13 O36 2.597030 1_555
Ca13 O12 2.612166 1_555
Ca13 O47 2.679308 1_565
Ca14 O15 2.358418 1_555
Ca14 O40 2.374230 1_555
Ca14 O30 2.384700 1_555
Ca14 O83 2.426222 1_555
Ca14 O60 2.467905 1_555
Ca14 O52 2.557224 1_555
Ca14 O64 2.877550 1_555
Ca14 O46 2.882984 1_555
Ca14 O82 2.916860 1_555
Ca15 O84 2.350063 1_555
Ca15 O23 2.425807 1_555
Ca15 O31 2.433775 1_555
Ca15 O61 2.466262 1_555
Ca15 O53 2.565107 1_555
Ca15 O0 2.584224 1_555
Ca15 O37 2.655295 1_565
Ca15 O16 2.710947 1_555
Ca15 O65 2.882453 1_555
Ca16 O85 2.352111 1_555
Ca16 O24 2.379541 1_555
Ca16 O62 2.460510 1_555
Ca16 O32 2.484493 1_555
Ca16 O1 2.543671 1_555
Ca16 O54 2.544233 1_555
Ca16 O17 2.567140 1_555
Ca16 O38 2.608478 1_565
Ca17 O86 2.347909 1_555
Ca17 O25 2.349758 1_555
Ca17 O33 2.394755 1_555
Ca17 O2 2.430434 1_555
Ca17 O18 2.604754 1_555
Ca17 O63 2.718904 1_555
Ca17 O55 2.830985 1_555
Ca18 O34 2.322015 1_555
Ca18 O87 2.351166 1_555
Ca18 O26 2.429940 1_555
Ca18 O64 2.573437 1_555
Ca18 O44 2.618914 1_555
Ca18 O19 2.638042 1_555
Ca18 O3 2.680561 1_555
Ca18 O56 2.761699 1_555
Ca19 O88 2.317912 1_555
Ca19 O27 2.330788 1_555
Ca19 O35 2.378387 1_555
Ca19 O57 2.548822 1_555
Ca19 O4 2.637609 1_555
Ca19 O65 2.675158 1_555
Ca19 O20 2.711806 1_555
Ca19 O41 2.810143 1_565
Ca20 O89 2.330176 1_555
Ca20 O28 2.353187 1_555
Ca20 O36 2.359068 1_555
Ca20 O66 2.427236 1_555
Ca20 O58 2.571588 1_555
Ca20 O5 2.585622 1_555
Ca20 O21 2.725315 1_555
Ca20 O42 2.734395 1_565
Ca21 O38 2.297170 1_555
Ca21 O15 2.334282 1_555
Ca21 O75 2.417267 1_555
Ca21 O45 2.434626 1_555
Ca21 O68 2.442400 1_555
Ca21 O32 2.662473 1_545
Ca21 O7 2.700940 1_555
Ca21 O74 2.851732 1_556
Ca21 O71 2.905138 1_455
Ca22 O16 2.251372 1_555
Ca22 O76 2.296115 1_555
Ca22 O39 2.382104 1_555
Ca22 O29 2.490474 1_555
Ca22 O23 2.512027 1_555
Ca22 O8 2.579591 1_555
Ca22 O72 2.648478 1_455
Ca22 O0 2.908910 1_555
Ca23 O17 2.339766 1_555
Ca23 O77 2.350557 1_555
Ca23 O40 2.385493 1_555
Ca23 O69 2.412003 1_555
Ca23 O9 2.565382 1_555
Ca23 O24 2.649701 1_555
Ca23 O46 2.667083 1_555
Ca23 O30 2.697578 1_555
Ca24 O78 2.310522 1_555
Ca24 O18 2.361636 1_555
Ca24 O41 2.369590 1_555
Ca24 O47 2.470989 1_555
Ca24 O70 2.490761 1_555
Ca24 O35 2.737629 1_545
Ca25 O79 2.349066 1_555
Ca25 O42 2.350828 1_555
Ca25 O19 2.373896 1_555
Ca25 O71 2.433360 1_555
Ca25 O48 2.470389 1_555
Ca25 O36 2.617798 1_545
Ca25 O11 2.746792 1_555
Ca25 O26 2.813176 1_555
Ca26 O80 2.360699 1_555
Ca26 O20 2.409640 1_555
Ca26 O72 2.449508 1_555
Ca26 O43 2.482800 1_555
Ca26 O12 2.489699 1_555
Ca26 O49 2.554140 1_555
Ca26 O33 2.628107 1_555
Ca26 O27 2.628976 1_555
Ca27 O81 2.338400 1_555
Ca27 O21 2.366215 1_555
Ca27 O44 2.401702 1_555
Ca27 O73 2.404372 1_555
Ca27 O13 2.531305 1_555
Ca27 O50 2.606479 1_555
Ca27 O34 2.649717 1_555
Ca27 O28 2.706638 1_555
Mn0 O61 1.936402 1_545
Mn0 O47 1.953764 1_455
Mn0 O35 1.968050 1_445
Mn0 O53 1.970721 1_545
Mn0 O70 1.983094 1_455
Mn0 O37 1.991227 1_555
Mn1 O54 1.905579 1_655
Mn1 O62 1.910522 1_655
Mn1 O38 1.932170 1_665
Mn1 O48 1.936872 1_565
Mn1 O36 1.948602 1_555
Mn1 O71 2.009869 1_565
Mn2 O59 1.919865 1_555
Mn2 O33 1.949280 1_455
Mn2 O51 1.961758 1_555
Mn2 O72 1.968125 1_455
Mn2 O49 1.990197 1_455
Mn2 O39 2.021246 1_555
Mn3 O52 1.900995 1_655
Mn3 O60 1.932954 1_655
Mn3 O73 1.956665 1_555
Mn3 O34 1.962385 1_555
Mn3 O50 1.966397 1_555
Mn3 O40 1.988765 1_655
Mn4 O66 1.945639 1_545
Mn4 O68 1.955709 1_555
Mn4 O32 1.956023 1_545
Mn4 O58 1.970089 1_545
Mn4 O42 1.981768 1_555
Mn4 O45 1.999617 1_555
Mn5 O43 1.856597 1_555
Mn5 O29 1.863238 1_555
Mn5 O55 1.874761 1_555
Mn5 O63 1.882813 1_555
Mn6 O30 1.922348 1_555
Mn6 O69 1.934792 1_555
Mn6 O56 1.948957 1_555
Mn6 O44 1.949087 1_555
Mn6 O64 1.980258 1_555
Mn6 O46 2.006938 1_555
Mn7 O85 1.933316 1_544
Mn7 O38 1.938121 1_554
Mn7 O31 1.944003 1_545
Mn7 O53 1.970087 1_545
Mn7 O45 1.970250 1_554
Mn7 O74 2.111819 1_555
Mn8 O76 1.916533 1_555
Mn8 O40 1.955403 1_554
Mn8 O46 1.965841 1_554
Mn8 O51 1.972386 1_555
Mn8 O83 2.026777 1_554
Mn8 O29 2.086655 1_555
Mn9 O30 1.895216 1_555
Mn9 O39 1.901820 1_555
Mn9 O77 1.932678 1_555
Mn9 O52 1.948563 1_555
Mn9 O82 2.102754 1_555
Mn10 O57 1.909735 1_556
Mn10 O89 1.918411 1_555
Mn10 O48 1.939427 1_565
Mn10 O78 1.962830 1_566
Mn10 O42 1.972211 1_565
Mn10 O35 1.972536 1_556
Mn11 O88 1.931652 1_555
Mn11 O41 1.939916 1_565
Mn11 O58 1.962366 1_555
Mn11 O47 1.973869 1_565
Mn11 O36 1.981812 1_555
Mn11 O79 1.986538 1_565
Mn12 O50 1.929734 1_555
Mn12 O55 1.929900 1_556
Mn12 O80 1.939909 1_556
Mn12 O87 1.952465 1_555
Mn12 O33 1.968582 1_556
Mn12 O44 1.980712 1_555
Mn13 O81 1.920519 1_555
Mn13 O56 1.940203 1_555
Mn13 O86 1.950739 1_555
Mn13 O34 1.964692 1_555
Mn13 O49 2.005856 1_555
Mn13 O43 2.038632 1_555
Mn14 O82 1.883877 1_555
Mn14 O14 1.900440 1_555
Mn14 O75 1.902365 1_555
Mn14 O6 1.918790 1_555
Mn15 O85 1.936348 1_555
Mn15 O76 1.937795 1_556
Mn15 O23 1.947390 1_556
Mn15 O17 1.951093 1_555
Mn15 O9 1.965409 1_555
Mn15 O0 1.978347 1_556
Mn16 O16 1.929386 1_555
Mn16 O24 1.955274 1_555
Mn16 O77 1.962700 1_555
Mn16 O84 1.973102 1_555
Mn16 O1 1.990564 1_555
Mn16 O8 2.014956 1_555
Mn17 O19 1.909993 1_554
Mn17 O11 1.912133 1_554
Mn17 O78 1.939583 1_555
Mn17 O25 1.955364 1_555
Mn17 O87 2.020144 1_554
Mn17 O2 2.031325 1_555
Mn18 O10 1.887046 1_555
Mn18 O3 1.925054 1_555
Mn18 O79 1.941398 1_555
Mn18 O18 1.959583 1_555
Mn18 O26 1.979109 1_555
Mn18 O86 2.000927 1_555
Mn19 O80 1.927042 1_556
Mn19 O89 1.934701 1_555
Mn19 O21 1.946104 1_555
Mn19 O27 1.960300 1_556
Mn19 O13 1.977649 1_555
Mn19 O4 2.006734 1_556
Mn20 O88 1.922318 1_555
Mn20 O81 1.929501 1_555
Mn20 O28 1.956093 1_555
Mn20 O20 1.968084 1_555
Mn20 O12 1.972194 1_555
Mn20 O5 1.985216 1_555
Mn21 O60 1.924442 1_555
Mn21 O15 1.926675 1_555
Mn21 O71 1.941693 1_455
Mn21 O11 1.950996 1_455
Mn21 O26 2.000882 1_455
Mn22 O61 1.914133 1_655
Mn22 O27 1.937933 1_555
Mn22 O16 1.942614 1_655
Mn22 O72 1.964712 1_555
Mn22 O12 1.973356 1_555
Mn22 O0 1.987727 1_655
Mn23 O62 1.930744 1_655
Mn23 O73 1.945215 1_555
Mn23 O17 1.945908 1_655
Mn23 O28 1.951119 1_555
Mn23 O13 1.981321 1_555
Mn23 O1 1.991527 1_655
Mn24 O67 1.919374 1_555
Mn24 O2 1.935526 1_555
Mn24 O6 1.940583 1_555
Mn24 O18 1.961323 1_555
Mn24 O22 1.967767 1_555
Mn24 O63 2.039121 1_555
Mn25 O7 1.891905 1_555
Mn25 O68 1.905423 1_555
Mn25 O3 1.919226 1_555
Mn25 O64 1.959188 1_555
Mn25 O19 1.973602 1_555
Mn26 O23 1.932726 1_555
Mn26 O20 1.938397 1_555
Mn26 O4 1.984864 1_555
Mn26 O8 1.986998 1_555
Mn26 O65 2.021813 1_555
Mn27 O66 1.933294 1_555
Mn27 O69 1.940718 1_555
Mn27 O24 1.942152 1_555
Mn27 O21 1.946995 1_555
Mn27 O9 1.976107 1_555
Mn27 O5 1.978921 1_555
Al0 O57 1.800663 1_555
Al0 O65 1.818495 1_555
Al0 O67 1.840821 1_565
Al0 O41 1.926881 1_565
Al0 O31 1.933839 1_555
Al1 O54 1.785359 1_555
Al1 O37 1.869208 1_565
Al1 O32 1.881402 1_555
Al1 O84 1.896050 1_555
Al1 O75 1.980439 1_565
Al2 O7 1.778138 1_555
Al2 O74 1.828581 1_556
Al2 O83 1.880263 1_555
Al2 O22 1.950765 1_556
Al2 O15 2.015896 1_555
Al3 O10 1.770123 1_555
Al3 O25 1.811881 1_555
Al3 O14 1.823793 1_655
Al3 O59 1.911994 1_655
Al3 O70 1.950010 1_555
O2 Sr1 2.458402 1_554
O6 Sr3 2.757871 1_555
O7 Sr1 2.633839 1_555
O10 Sr0 2.475155 1_655
O14 Sr3 2.521047 1_555
O14 Sr2 2.691286 1_555
O14 Sr0 2.817560 1_555
O22 Sr2 2.501429 1_555
O22 Sr3 2.622291 1_555
O22 Sr1 2.762309 1_554
O29 Sr2 2.550663 1_555
O31 Sr3 2.596074 1_565
O37 Sr3 2.472435 1_555
O37 Sr0 2.690789 1_555
O39 Sr2 2.615212 1_555
O46 Sr1 2.633188 1_555
O47 Sr0 2.387159 1_655
O51 Sr2 2.676889 1_555
O53 Sr3 3.002311 1_565
O54 Sr0 2.704836 1_565
O55 Sr1 2.481777 1_554
O59 Sr2 2.564213 1_555
O63 Sr2 2.747464 1_555
O64 Sr1 2.481411 1_555
O67 Sr3 2.581153 1_555
O70 Sr3 2.877536 1_655
O71 Sr0 2.426674 1_655
O74 Sr3 2.434434 1_555
O75 Sr0 2.619964 1_555
O79 Sr0 2.765265 1_655
O82 Sr2 2.735186 1_555
O83 Sr1 2.723218 1_555
O83 Sr2 2.841980 1_556
O87 Sr1 2.803131 1_555
