# generated using pymatgen
data_Sm2Ga5Au3
_symmetry_space_group_name_H-M   'P 1'
_cell_length_a   4.34555700
_cell_length_b   4.34555700
_cell_length_c   11.04225400
_cell_angle_alpha   90.00000000
_cell_angle_beta   90.00000000
_cell_angle_gamma   90.00000000
_symmetry_Int_Tables_number   1
_chemical_formula_structural   Sm2Ga5Au3
_chemical_formula_sum   'Sm2 Ga5 Au3'
_cell_volume   208.52044090
_cell_formula_units_Z   1
loop_
 _symmetry_equiv_pos_site_id
 _symmetry_equiv_pos_as_xyz
  1  'x, y, z'
loop_
 _atom_site_type_symbol
 _atom_site_label
 _atom_site_symmetry_multiplicity
 _atom_site_fract_x
 _atom_site_fract_y
 _atom_site_fract_z
 _atom_site_occupancy
  Sm  Sm0  1  0.50000000  0.00000000  0.25519200  1
  Sm  Sm1  1  0.00000000  0.50000000  0.74480800  1
  Ga  Ga0  1  0.50000000  0.50000000  0.00000000  1
  Ga  Ga1  1  0.00000000  0.00000000  0.00000000  1
  Ga  Ga2  1  0.50000000  0.00000000  0.87099000  1
  Ga  Ga3  1  0.00000000  0.50000000  0.12901000  1
  Ga  Ga4  1  0.50000000  0.50000000  0.50000000  1
  Au  Au0  1  0.50000000  0.00000000  0.64886800  1
  Au  Au1  1  0.00000000  0.50000000  0.35113200  1
  Au  Au2  1  0.00000000  0.00000000  0.50000000  1
loop_
_geom_bond_atom_site_label_1
_geom_bond_atom_site_label_2
_geom_bond_distance
_geom_bond_site_symmetry_2
Ga0 Ga2 2.598142 1_554
Ga0 Ga2 2.598142 1_564
Ga0 Ga3 2.598142 1_655
Ga0 Ga3 2.598142 1_555
Ga0 Ga1 3.072773 1_565
Ga0 Ga1 3.072773 1_665
Ga0 Ga1 3.072773 1_655
Ga0 Ga1 3.072773 1_555
Ga0 Sm0 3.558300 1_565
Ga0 Sm0 3.558300 1_555
Ga0 Sm1 3.558300 1_554
Ga0 Sm1 3.558300 1_654
Ga1 Ga2 2.598142 1_554
Ga1 Ga2 2.598142 1_454
Ga1 Ga3 2.598142 1_545
Ga1 Ga3 2.598142 1_555
Ga1 Sm0 3.558300 1_455
Ga1 Sm0 3.558300 1_555
Ga1 Sm1 3.558300 1_554
Ga1 Sm1 3.558300 1_544
Ga2 Sm1 3.373916 1_555
Ga2 Sm1 3.373916 1_545
Ga2 Sm1 3.373916 1_645
Ga2 Sm1 3.373916 1_655
Ga3 Sm0 3.373916 1_565
Ga3 Sm0 3.373916 1_465
Ga3 Sm0 3.373916 1_555
Ga3 Sm0 3.373916 1_455
Ga4 Sm1 3.468203 1_655
Ga4 Sm1 3.468203 1_555
Ga4 Sm0 3.468203 1_565
Ga4 Sm0 3.468203 1_555
Au0 Ga2 2.452728 1_555
Au0 Ga4 2.724550 1_555
Au0 Ga4 2.724550 1_545
Au0 Au2 2.724550 1_655
Au0 Au2 2.724550 1_555
Au0 Sm1 3.250269 1_655
Au0 Sm1 3.250269 1_555
Au0 Sm1 3.250269 1_545
Au0 Sm1 3.250269 1_645
Au1 Ga3 2.452728 1_555
Au1 Ga4 2.724550 1_555
Au1 Au2 2.724550 1_565
Au1 Ga4 2.724550 1_455
Au1 Au2 2.724550 1_555
Au1 Sm0 3.250269 1_555
Au1 Sm0 3.250269 1_565
Au1 Sm0 3.250269 1_465
Au1 Sm0 3.250269 1_455
Au2 Ga4 3.072773 1_555
Au2 Ga4 3.072773 1_545
Au2 Ga4 3.072773 1_445
Au2 Ga4 3.072773 1_455
Au2 Sm1 3.468203 1_555
Au2 Sm1 3.468203 1_545
Au2 Sm0 3.468203 1_455
Au2 Sm0 3.468203 1_555
