# generated using pymatgen
data_Pr2Al
_symmetry_space_group_name_H-M   'P 1'
_cell_length_a   5.29691081
_cell_length_b   6.79900376
_cell_length_c   9.95200452
_cell_angle_alpha   89.99951653
_cell_angle_beta   90.00000000
_cell_angle_gamma   90.00000000
_symmetry_Int_Tables_number   1
_chemical_formula_structural   Pr2Al
_chemical_formula_sum   'Pr8 Al4'
_cell_volume   358.40866952
_cell_formula_units_Z   4
loop_
 _symmetry_equiv_pos_site_id
 _symmetry_equiv_pos_as_xyz
  1  'x, y, z'
loop_
 _atom_site_type_symbol
 _atom_site_label
 _atom_site_symmetry_multiplicity
 _atom_site_fract_x
 _atom_site_fract_y
 _atom_site_fract_z
 _atom_site_occupancy
  Pr  Pr0  1  0.25000000  0.80519620  0.92090302  1
  Pr  Pr1  1  0.25000000  0.30524635  0.57914369  1
  Pr  Pr2  1  0.75000000  0.19480634  0.07891186  1
  Pr  Pr3  1  0.75000000  0.69475518  0.42104403  1
  Pr  Pr4  1  0.25000000  0.97613977  0.29918129  1
  Pr  Pr5  1  0.25000000  0.47615362  0.20062616  1
  Pr  Pr6  1  0.75000000  0.02385581  0.70087717  1
  Pr  Pr7  1  0.75000000  0.52384144  0.79931253  1
  Al  Al0  1  0.25000000  0.28752531  0.89809889  1
  Al  Al1  1  0.25000000  0.78757050  0.60190521  1
  Al  Al2  1  0.75000000  0.71247642  0.10185304  1
  Al  Al3  1  0.75000000  0.21243106  0.39814211  1
loop_
_geom_bond_atom_site_label_1
_geom_bond_atom_site_label_2
_geom_bond_distance
_geom_bond_site_symmetry_2
Al0 Pr1 3.176528 1_555
Al0 Pr7 3.249977 1_555
Al0 Pr7 3.249977 1_455
Al0 Pr2 3.263391 1_556
Al0 Pr2 3.263391 1_456
Al0 Pr5 3.272532 1_556
Al0 Pr0 3.287199 1_545
Al0 Pr0 3.526957 1_555
Al0 Pr6 3.752400 1_455
Al0 Pr6 3.752400 1_555
Al1 Pr0 3.176930 1_555
Al1 Pr6 3.250441 1_565
Al1 Pr6 3.250441 1_465
Al1 Pr3 3.263788 1_455
Al1 Pr3 3.263788 1_555
Al1 Pr4 3.274155 1_555
Al1 Pr1 3.287140 1_555
Al1 Pr1 3.526960 1_565
Al1 Pr7 3.753544 1_555
Al1 Pr7 3.753544 1_455
Al2 Pr3 3.178873 1_555
Al2 Pr5 3.249959 1_655
Al2 Pr5 3.249959 1_555
Al2 Pr0 3.264145 1_554
Al2 Pr0 3.264145 1_654
Al2 Pr7 3.272671 1_554
Al2 Pr2 3.287299 1_565
Al2 Pr2 3.527040 1_555
Al2 Pr4 3.752935 1_555
Al2 Pr4 3.752935 1_655
Al3 Pr2 3.179241 1_555
Al3 Pr4 3.250427 1_545
Al3 Pr4 3.250427 1_645
Al3 Pr1 3.264559 1_555
Al3 Pr1 3.264559 1_655
Al3 Pr6 3.274273 1_555
Al3 Pr3 3.287236 1_555
Al3 Pr3 3.527050 1_545
Al3 Pr5 3.754089 1_555
Al3 Pr5 3.754089 1_655
