# generated using pymatgen
data_SrLiPrTeO6
_symmetry_space_group_name_H-M   'P 1'
_cell_length_a   5.79618700
_cell_length_b   5.65282700
_cell_length_c   7.98323110
_cell_angle_alpha   90.21639355
_cell_angle_beta   90.00000000
_cell_angle_gamma   90.00000000
_symmetry_Int_Tables_number   1
_chemical_formula_structural   SrLiPrTeO6
_chemical_formula_sum   'Sr2 Li2 Pr2 Te2 O12'
_cell_volume   261.56744316
_cell_formula_units_Z   2
loop_
 _symmetry_equiv_pos_site_id
 _symmetry_equiv_pos_as_xyz
  1  'x, y, z'
loop_
 _atom_site_type_symbol
 _atom_site_label
 _atom_site_symmetry_multiplicity
 _atom_site_fract_x
 _atom_site_fract_y
 _atom_site_fract_z
 _atom_site_occupancy
  Sr  Sr0  1  0.96179600  0.00606900  0.75221600  1
  Sr  Sr1  1  0.53820400  0.50606900  0.25221600  1
  Li  Li0  1  0.51028700  0.99823800  0.50022000  1
  Li  Li1  1  0.98971300  0.49823800  0.00022000  1
  Pr  Pr0  1  0.05630900  0.98919700  0.25398100  1
  Pr  Pr1  1  0.44369100  0.48919700  0.75398100  1
  Te  Te0  1  0.99495100  0.50015000  0.49950400  1
  Te  Te1  1  0.50504900  0.00015000  0.99950400  1
  O  O0  1  0.81105800  0.78251200  0.45608500  1
  O  O1  1  0.68894200  0.28251200  0.95608500  1
  O  O2  1  0.19703900  0.22716000  0.53336400  1
  O  O3  1  0.30296100  0.72716000  0.03336400  1
  O  O4  1  0.26610800  0.70018100  0.45864200  1
  O  O5  1  0.23389200  0.20018100  0.95864200  1
  O  O6  1  0.71443800  0.31995600  0.54471700  1
  O  O7  1  0.78556200  0.81995600  0.04471700  1
  O  O8  1  0.52031700  0.91117400  0.76245500  1
  O  O9  1  0.97968300  0.41117400  0.26245400  1
  O  O10  1  0.47345300  0.06536400  0.23881600  1
  O  O11  1  0.02654700  0.56536400  0.73881600  1
loop_
_geom_bond_atom_site_label_1
_geom_bond_atom_site_label_2
_geom_bond_distance
_geom_bond_site_symmetry_2
Li0 O10 2.133186 1_565
Li0 O8 2.153149 1_555
Li0 O0 2.155729 1_555
Li0 O6 2.197468 1_565
Li0 O4 2.224368 1_555
Li0 O2 2.244676 1_565
Li1 O11 2.133186 1_654
Li1 O9 2.153141 1_555
Li1 O1 2.155729 1_554
Li1 O7 2.197468 1_555
Li1 O5 2.224368 1_654
Li1 O3 2.244676 1_655
O0 Te0 1.951435 1_555
O0 Pr0 2.450145 1_655
O0 Sr1 2.751876 1_555
O0 Sr0 2.815438 1_565
O1 Te1 1.951435 1_555
O1 Pr1 2.450145 1_555
O1 Sr0 2.751876 1_555
O1 Sr1 2.815438 1_556
O2 Te0 1.956940 1_455
O2 Sr0 2.547578 1_455
O2 Pr1 2.705591 1_555
O2 Pr0 2.725208 1_545
O3 Te1 1.956940 1_564
O3 Sr1 2.547578 1_555
O3 Pr0 2.705591 1_555
O3 Pr1 2.725208 1_554
O4 Te0 1.964164 1_455
O4 Sr1 2.528518 1_555
O4 Pr0 2.614871 1_555
O4 Pr1 2.839395 1_555
O5 Te1 1.964164 1_555
O5 Sr0 2.528518 1_455
O5 Pr1 2.614871 1_555
O5 Pr0 2.839395 1_546
O6 Te0 1.952994 1_555
O6 Pr1 2.481290 1_555
O6 Sr1 2.760713 1_555
O6 Sr0 2.823144 1_555
O7 Te1 1.952994 1_564
O7 Pr0 2.481290 1_655
O7 Sr0 2.760713 1_564
O7 Sr1 2.823144 1_555
O8 Te1 1.958279 1_565
O8 Pr1 2.427050 1_555
O8 Sr0 2.615857 1_565
O9 Te0 1.958287 1_555
O9 Pr0 2.427050 1_645
O9 Sr1 2.615857 1_555
O10 Te1 1.952962 1_554
O10 Pr0 2.458944 1_545
O10 Sr1 2.521212 1_555
O11 Te0 1.952962 1_455
O11 Pr1 2.458944 1_555
O11 Sr0 2.521212 1_465
