# generated using pymatgen
data_Pr2Ge5Ir3
_symmetry_space_group_name_H-M   'P 1'
_cell_length_a   8.43656674
_cell_length_b   8.43656674
_cell_length_c   8.43656674
_cell_angle_alpha   137.53782277
_cell_angle_beta   105.42522451
_cell_angle_gamma   89.78779369
_symmetry_Int_Tables_number   1
_chemical_formula_structural   Pr2Ge5Ir3
_chemical_formula_sum   'Pr4 Ge10 Ir6'
_cell_volume   373.29206721
_cell_formula_units_Z   2
loop_
 _symmetry_equiv_pos_site_id
 _symmetry_equiv_pos_as_xyz
  1  'x, y, z'
loop_
 _atom_site_type_symbol
 _atom_site_label
 _atom_site_symmetry_multiplicity
 _atom_site_fract_x
 _atom_site_fract_y
 _atom_site_fract_z
 _atom_site_occupancy
  Pr  Pr0  1  0.86093182  0.63202874  0.22890308  1
  Pr  Pr1  1  0.13906818  0.36797126  0.77109692  1
  Pr  Pr2  1  0.40312566  0.13202874  0.27109692  1
  Pr  Pr3  1  0.59687434  0.86797126  0.72890308  1
  Ge  Ge0  1  0.50000000  0.75000000  0.25000000  1
  Ge  Ge1  1  0.50000000  0.25000000  0.75000000  1
  Ge  Ge2  1  0.22590785  0.97590785  0.75000000  1
  Ge  Ge3  1  0.77409215  0.52409215  0.75000000  1
  Ge  Ge4  1  0.77409215  0.02409215  0.25000000  1
  Ge  Ge5  1  0.22590785  0.47590785  0.25000000  1
  Ge  Ge6  1  0.05752483  0.89918701  0.15833782  1
  Ge  Ge7  1  0.94247517  0.10081299  0.84166218  1
  Ge  Ge8  1  0.74084920  0.39918701  0.34166218  1
  Ge  Ge9  1  0.25915080  0.60081299  0.65833782  1
  Ir  Ir0  1  -0.00000000  0.75000000  0.75000000  1
  Ir  Ir1  1  -0.00000000  0.25000000  0.25000000  1
  Ir  Ir2  1  0.24917135  0.85918171  0.38998964  1
  Ir  Ir3  1  0.75082865  0.14081829  0.61001036  1
  Ir  Ir4  1  0.46919206  0.35918171  0.11001036  1
  Ir  Ir5  1  0.53080794  0.64081829  0.88998964  1
loop_
_geom_bond_atom_site_label_1
_geom_bond_atom_site_label_2
_geom_bond_distance
_geom_bond_site_symmetry_2
Ge0 Ir4 2.535995 1_555
Ge0 Ir3 2.535995 1_565
Ge0 Ir2 2.535995 1_555
Ge0 Ir5 2.535995 1_554
Ge0 Pr2 3.209193 1_565
Ge0 Pr1 3.209193 1_554
Ge0 Pr0 3.209193 1_555
Ge0 Pr3 3.209193 1_555
Ge1 Ir5 2.535995 1_555
Ge1 Ir2 2.535995 1_545
Ge1 Ir3 2.535995 1_555
Ge1 Ir4 2.535995 1_556
Ge1 Pr2 3.209193 1_555
Ge1 Pr0 3.209193 1_556
Ge1 Pr3 3.209193 1_545
Ge1 Pr1 3.209193 1_555
Ge2 Ir4 2.477057 1_566
Ge2 Ir2 2.477058 1_555
Ge2 Ge9 2.681222 1_555
Ge2 Ge7 2.681222 1_465
Ge2 Ir0 2.700317 1_555
Ge2 Pr3 3.269846 1_555
Ge2 Pr1 3.269846 1_565
Ge2 Pr0 3.357370 1_455
Ge2 Pr2 3.357370 1_566
Ge3 Ir5 2.477057 1_555
Ge3 Ir3 2.477058 1_555
Ge3 Ge6 2.681222 1_656
Ge3 Ge8 2.681222 1_555
Ge3 Ir0 2.700317 1_655
Ge3 Pr2 3.269846 1_555
Ge3 Pr0 3.269846 1_556
Ge3 Pr1 3.357370 1_655
Ge3 Pr3 3.357370 1_555
Ge4 Ir5 2.477057 1_544
Ge4 Ir3 2.477058 1_555
Ge4 Ge8 2.681222 1_555
Ge4 Ge6 2.681222 1_645
Ge4 Ir1 2.700317 1_655
Ge4 Pr2 3.269846 1_555
Ge4 Pr0 3.269846 1_545
Ge4 Pr3 3.357370 1_544
Ge4 Pr1 3.357370 1_655
Ge5 Ir4 2.477057 1_555
Ge5 Ir2 2.477058 1_555
Ge5 Ge7 2.681222 1_454
Ge5 Ge9 2.681222 1_555
Ge5 Ir1 2.700317 1_555
Ge5 Pr3 3.269846 1_555
Ge5 Pr1 3.269846 1_554
Ge5 Pr0 3.357370 1_455
Ge5 Pr2 3.357370 1_555
Ge6 Ir2 2.415739 1_555
Ge6 Ir1 2.530849 1_565
Ge6 Ir0 2.530849 1_554
Ge6 Pr2 3.012430 1_565
Ge6 Pr0 3.273842 1_455
Ge6 Pr1 3.286582 1_565
Ge6 Pr1 3.286582 1_554
Ge7 Ir3 2.415739 1_555
Ge7 Ir1 2.530849 1_656
Ge7 Ir0 2.530849 1_645
Ge7 Pr3 3.012430 1_545
Ge7 Pr1 3.273842 1_655
Ge7 Pr0 3.286582 1_545
Ge7 Pr0 3.286582 1_556
Ge8 Ir4 2.415739 1_555
Ge8 Ir1 2.530849 1_655
Ge8 Ir0 2.530849 1_655
Ge8 Pr0 3.012429 1_555
Ge8 Pr2 3.273842 1_555
Ge8 Pr3 3.286582 1_544
Ge8 Pr3 3.286582 1_555
Ge9 Ir5 2.415739 1_555
Ge9 Ir0 2.530849 1_555
Ge9 Ir1 2.530849 1_555
Ge9 Pr1 3.012429 1_555
Ge9 Pr3 3.273842 1_555
Ge9 Pr2 3.286582 1_566
Ge9 Pr2 3.286582 1_555
Ir0 Pr0 3.536001 1_455
Ir0 Pr1 3.536001 1_555
Ir0 Pr2 3.536001 1_566
Ir0 Pr3 3.536001 1_455
Ir1 Pr0 3.536001 1_455
Ir1 Pr1 3.536001 1_555
Ir1 Pr3 3.536001 1_444
Ir1 Pr2 3.536001 1_555
Ir2 Pr0 3.175481 1_455
Ir2 Pr1 3.289665 1_565
Ir2 Pr1 3.289665 1_554
Ir2 Pr3 3.465955 1_555
Ir2 Pr2 3.480469 1_565
Ir3 Pr1 3.175481 1_655
Ir3 Pr0 3.289665 1_545
Ir3 Pr0 3.289665 1_556
Ir3 Pr2 3.465955 1_555
Ir3 Pr3 3.480469 1_545
Ir4 Pr2 3.175481 1_555
Ir4 Pr3 3.289665 1_555
Ir4 Pr3 3.289665 1_544
Ir4 Pr1 3.465955 1_554
Ir4 Pr0 3.480469 1_555
Ir5 Pr3 3.175481 1_555
Ir5 Pr2 3.289665 1_555
Ir5 Pr2 3.289665 1_566
Ir5 Pr0 3.465955 1_556
Ir5 Pr1 3.480469 1_555
