# generated using pymatgen
data_NpNi5
_symmetry_space_group_name_H-M   'P 1'
_cell_length_a   3.92352802
_cell_length_b   4.84442263
_cell_length_c   4.85663416
_cell_angle_alpha   120.07862994
_cell_angle_beta   90.00000000
_cell_angle_gamma   90.00000000
_symmetry_Int_Tables_number   1
_chemical_formula_structural   NpNi5
_chemical_formula_sum   'Np1 Ni5'
_cell_volume   79.88038620
_cell_formula_units_Z   1
loop_
 _symmetry_equiv_pos_site_id
 _symmetry_equiv_pos_as_xyz
  1  'x, y, z'
loop_
 _atom_site_type_symbol
 _atom_site_label
 _atom_site_symmetry_multiplicity
 _atom_site_fract_x
 _atom_site_fract_y
 _atom_site_fract_z
 _atom_site_occupancy
  Np  Np0  1  0.00000000  -0.00000000  -0.00000000  1
  Ni  Ni0  1  0.50000000  0.50000000  0.50000000  1
  Ni  Ni1  1  0.50000000  -0.00000000  0.50000000  1
  Ni  Ni2  1  0.50000000  0.50000000  -0.00000000  1
  Ni  Ni3  1  0.00000000  0.66613731  0.33306178  1
  Ni  Ni4  1  0.00000000  0.33386269  0.66693822  1
loop_
_geom_bond_atom_site_label_1
_geom_bond_atom_site_label_2
_geom_bond_distance
_geom_bond_site_symmetry_2
Ni0 Ni3 2.409916 1_555
Ni0 Ni3 2.409916 1_655
Ni0 Ni4 2.409916 1_655
Ni0 Ni4 2.409916 1_555
Ni0 Ni1 2.422211 1_555
Ni0 Ni1 2.422211 1_565
Ni0 Ni2 2.428317 1_556
Ni0 Ni2 2.428317 1_555
Ni0 Np0 3.117126 1_566
Ni0 Np0 3.117126 1_666
Ni0 Np0 3.117126 1_655
Ni0 Np0 3.117126 1_555
Ni1 Ni3 2.409839 1_545
Ni1 Ni4 2.409839 1_555
Ni1 Ni3 2.409839 1_645
Ni1 Ni4 2.409839 1_655
Ni1 Ni2 2.422387 1_556
Ni1 Ni2 2.422387 1_545
Ni1 Np0 3.121737 1_656
Ni1 Np0 3.121737 1_655
Ni1 Np0 3.121737 1_555
Ni1 Np0 3.121737 1_556
Ni2 Ni4 2.409941 1_654
Ni2 Ni3 2.409941 1_655
Ni2 Ni3 2.409941 1_555
Ni2 Ni4 2.409941 1_554
Ni2 Np0 3.116990 1_565
Ni2 Np0 3.116990 1_655
Ni2 Np0 3.116990 1_665
Ni2 Np0 3.116990 1_555
Ni3 Np0 2.792491 1_555
Ni3 Np0 2.802642 1_565
Ni3 Np0 2.802902 1_566
Ni4 Np0 2.792491 1_566
Ni4 Np0 2.802642 1_556
Ni4 Np0 2.802902 1_555
