# generated using pymatgen
data_ErAlNi4
_symmetry_space_group_name_H-M   'P 1'
_cell_length_a   5.02063882
_cell_length_b   5.02063882
_cell_length_c   3.84688800
_cell_angle_alpha   90.00000000
_cell_angle_beta   90.00000000
_cell_angle_gamma   120.00001083
_symmetry_Int_Tables_number   1
_chemical_formula_structural   ErAlNi4
_chemical_formula_sum   'Er1 Al1 Ni4'
_cell_volume   83.97656117
_cell_formula_units_Z   1
loop_
 _symmetry_equiv_pos_site_id
 _symmetry_equiv_pos_as_xyz
  1  'x, y, z'
loop_
 _atom_site_type_symbol
 _atom_site_label
 _atom_site_symmetry_multiplicity
 _atom_site_fract_x
 _atom_site_fract_y
 _atom_site_fract_z
 _atom_site_occupancy
  Er  Er0  1  0.66666700  0.33333300  0.00000000  1
  Al  Al0  1  0.00000000  0.00000000  0.00000000  1
  Ni  Ni0  1  0.33333300  0.66666700  0.00000000  1
  Ni  Ni1  1  0.66300700  0.83150300  0.50000000  1
  Ni  Ni2  1  0.16849700  0.83150300  0.50000000  1
  Ni  Ni3  1  0.16849700  0.33699300  0.50000000  1
loop_
_geom_bond_atom_site_label_1
_geom_bond_atom_site_label_2
_geom_bond_distance
_geom_bond_site_symmetry_2
Er0 Ni0 2.898664 1_545
Er0 Ni0 2.898664 1_655
Er0 Ni0 2.898673 1_555
Er0 Ni2 3.162529 1_654
Er0 Ni2 3.162529 1_655
Er0 Ni2 3.162529 1_545
Er0 Ni2 3.162529 1_544
Er0 Ni3 3.162530 1_654
Er0 Ni3 3.162530 1_655
Er0 Ni1 3.162530 1_544
Er0 Ni1 3.162530 1_545
Er0 Ni1 3.162530 1_554
Er0 Ni1 3.162530 1_555
Er0 Ni3 3.162530 1_555
Er0 Ni3 3.162530 1_554
Al0 Ni3 2.417971 1_555
Al0 Ni1 2.417971 1_444
Al0 Ni1 2.417971 1_445
Al0 Ni3 2.417971 1_554
Al0 Ni2 2.417973 1_545
Al0 Ni2 2.417973 1_544
Al0 Er0 2.898664 1_455
Al0 Ni0 2.898664 1_545
Al0 Ni0 2.898668 1_555
Al0 Er0 2.898668 1_445
Al0 Er0 2.898668 1_555
Al0 Ni0 2.898668 1_445
Ni0 Ni2 2.398815 1_555
Ni0 Ni2 2.398815 1_554
Ni0 Ni1 2.398820 1_555
Ni0 Ni3 2.398820 1_554
Ni0 Ni1 2.398820 1_554
Ni0 Ni3 2.398820 1_555
Ni1 Ni3 2.482756 1_555
Ni1 Ni2 2.482756 1_555
Ni1 Ni3 2.537882 1_665
Ni1 Ni2 2.537883 1_655
Ni2 Ni3 2.482756 1_555
Ni2 Ni3 2.537883 1_565
