# generated using pymatgen
data_FeSn4H24C8(Se5N)2
_symmetry_space_group_name_H-M   'P 1'
_cell_length_a   11.01614547
_cell_length_b   11.01614547
_cell_length_c   11.01614547
_cell_angle_alpha   123.33029273
_cell_angle_beta   123.33029273
_cell_angle_gamma   84.32248310
_symmetry_Int_Tables_number   1
_chemical_formula_structural   FeSn4H24C8(Se5N)2
_chemical_formula_sum   'Fe1 Sn4 H24 C8 Se10 N2'
_cell_volume   892.93066885
_cell_formula_units_Z   1
loop_
 _symmetry_equiv_pos_site_id
 _symmetry_equiv_pos_as_xyz
  1  'x, y, z'
loop_
 _atom_site_type_symbol
 _atom_site_label
 _atom_site_symmetry_multiplicity
 _atom_site_fract_x
 _atom_site_fract_y
 _atom_site_fract_z
 _atom_site_occupancy
  Fe  Fe0  1  0.50000000  0.50000000  0.00000000  1
  Sn  Sn0  1  0.40442000  0.65300000  0.37710500  1
  Sn  Sn1  1  0.27589600  0.02731500  0.62289500  1
  Sn  Sn2  1  0.34700000  0.72410400  0.75141900  1
  Sn  Sn3  1  0.97268500  0.59558000  0.24858100  1
  H  H0  1  0.95639600  0.42676200  0.70133200  1
  H  H1  1  0.72543000  0.25506300  0.29866800  1
  H  H2  1  0.57323800  0.27457000  0.52963400  1
  H  H3  1  0.74493700  0.04360400  0.47036600  1
  H  H4  1  0.79087600  0.47452600  0.58207800  1
  H  H5  1  0.89244800  0.20879800  0.41792200  1
  H  H6  1  0.52547400  0.10755200  0.31634900  1
  H  H7  1  0.79120200  0.20912400  0.68365100  1
  H  H8  1  0.81982000  0.45710200  0.74934800  1
  H  H9  1  0.70775400  0.07047200  0.25065200  1
  H  H10  1  0.54289800  0.29224600  0.36271800  1
  H  H11  1  0.92952800  0.18018000  0.63728200  1
  H  H12  1  0.89107100  0.76700000  0.83979300  1
  H  H13  1  0.92720600  0.05127700  0.16020700  1
  H  H14  1  0.23300000  0.07279400  0.12407100  1
  H  H15  1  0.94872300  0.10892900  0.87592900  1
  H  H16  1  0.08665000  0.81159000  0.92436800  1
  H  H17  1  0.88722200  0.16228200  0.07563200  1
  H  H18  1  0.18841000  0.11277800  0.27506000  1
  H  H19  1  0.83771800  0.91335000  0.72494000  1
  H  H20  1  0.04093900  0.85053100  0.07403600  1
  H  H21  1  0.77649500  0.96690300  0.92596400  1
  H  H22  1  0.14946900  0.22350500  0.19040800  1
  H  H23  1  0.03309700  0.95906100  0.80959200  1
  C  C0  1  0.83622900  0.41518300  0.64502400  1
  C  C1  1  0.77015900  0.19120500  0.35497600  1
  C  C2  1  0.58481700  0.22984100  0.42104600  1
  C  C3  1  0.80879500  0.16377100  0.57895400  1
  C  C4  1  0.00514300  0.84525200  0.95613900  1
  C  C5  1  0.88911300  0.04900400  0.04386100  1
  C  C6  1  0.15474800  0.11088700  0.15989100  1
  C  C7  1  0.95099600  0.99485700  0.84010900  1
  Se  Se0  1  0.12664400  0.48140500  0.11805400  1
  Se  Se1  1  0.36335100  0.00859000  0.88194600  1
  Se  Se2  1  0.51859500  0.63664900  0.64523900  1
  Se  Se3  1  0.99141000  0.87335600  0.35476100  1
  Se  Se4  1  0.43579900  0.93579900  0.50000000  1
  Se  Se5  1  0.06420100  0.56420100  0.50000000  1
  Se  Se6  1  0.57802200  0.55608300  0.28171500  1
  Se  Se7  1  0.27436800  0.29630700  0.71828500  1
  Se  Se8  1  0.44391700  0.72563200  0.02193900  1
  Se  Se9  1  0.70369300  0.42197800  0.97806100  1
  N  N0  1  0.75000000  0.25000000  0.50000000  1
  N  N1  1  0.00000000  0.00000000  0.00000000  1
loop_
_geom_bond_atom_site_label_1
_geom_bond_atom_site_label_2
_geom_bond_distance
_geom_bond_site_symmetry_2
Fe0 Se8 2.412133 1_555
Fe0 Se7 2.412133 1_554
Fe0 Se9 2.412133 1_554
Fe0 Se6 2.412133 1_555
C0 H8 1.093281 1_555
C0 H0 1.094310 1_555
C0 H4 1.100287 1_555
C0 N0 1.498488 1_555
C1 H9 1.093281 1_555
C1 H1 1.094300 1_555
C1 H5 1.100287 1_555
C1 N0 1.498488 1_555
C2 H10 1.093281 1_555
C2 H2 1.094310 1_555
C2 H6 1.100287 1_555
C2 N0 1.498488 1_555
C3 H11 1.093281 1_555
C3 H3 1.094308 1_555
C3 H7 1.100296 1_555
C3 N0 1.498488 1_555
C4 H12 1.093241 1_455
C4 H16 1.096841 1_555
C4 H20 1.097455 1_556
C4 N1 1.499521 1_566
C5 H13 1.093251 1_555
C5 H17 1.096841 1_555
C5 H21 1.097455 1_544
C5 N1 1.499521 1_655
C6 H14 1.093240 1_555
C6 H18 1.096841 1_555
C6 H22 1.097455 1_555
C6 N1 1.499521 1_555
C7 H15 1.093240 1_565
C7 H19 1.096841 1_555
C7 H23 1.097455 1_655
C7 N1 1.499521 1_666
Se0 Sn0 2.588591 1_555
Se0 Sn3 2.607017 1_455
Se1 Sn1 2.588594 1_555
Se1 Sn2 2.607018 1_545
Se2 Sn2 2.588583 1_555
Se2 Sn0 2.607010 1_555
Se3 Sn3 2.588594 1_555
Se3 Sn1 2.607017 1_665
Se4 Sn1 2.592607 1_565
Se4 Sn0 2.592617 1_555
Se5 Sn3 2.592607 1_455
Se5 Sn2 2.592615 1_555
Se6 Sn0 2.544217 1_555
Se7 Sn1 2.544218 1_555
Se8 Sn2 2.544220 1_554
Se9 Sn3 2.544218 1_556
