# generated using pymatgen
data_KHg11
_symmetry_space_group_name_H-M   'P 1'
_cell_length_a   10.15438128
_cell_length_b   10.15438128
_cell_length_c   10.15438128
_cell_angle_alpha   90.00000000
_cell_angle_beta   90.00000000
_cell_angle_gamma   90.00000000
_symmetry_Int_Tables_number   1
_chemical_formula_structural   KHg11
_chemical_formula_sum   'K3 Hg33'
_cell_volume   1047.03307085
_cell_formula_units_Z   3
loop_
 _symmetry_equiv_pos_site_id
 _symmetry_equiv_pos_as_xyz
  1  'x, y, z'
loop_
 _atom_site_type_symbol
 _atom_site_label
 _atom_site_symmetry_multiplicity
 _atom_site_fract_x
 _atom_site_fract_y
 _atom_site_fract_z
 _atom_site_occupancy
  K  K0  1  -0.00000000  0.50000000  0.00000000  1
  K  K1  1  -0.00000000  -0.00000000  0.50000000  1
  K  K2  1  0.50000000  -0.00000000  0.00000000  1
  Hg  Hg0  1  0.15260792  0.15260792  0.84739208  1
  Hg  Hg1  1  0.84739208  0.15260792  0.15260792  1
  Hg  Hg2  1  0.84739208  0.84739208  0.15260792  1
  Hg  Hg3  1  0.15260792  0.84739208  0.84739208  1
  Hg  Hg4  1  0.84739208  0.15260792  0.84739208  1
  Hg  Hg5  1  0.84739208  0.84739208  0.84739208  1
  Hg  Hg6  1  0.34448896  0.34448896  0.00000000  1
  Hg  Hg7  1  0.34448896  -0.00000000  0.34448896  1
  Hg  Hg8  1  0.34448896  -0.00000000  0.65551104  1
  Hg  Hg9  1  -0.00000000  0.34448896  0.65551104  1
  Hg  Hg10  1  -0.00000000  0.34448896  0.34448896  1
  Hg  Hg11  1  0.65551104  0.34448896  0.00000000  1
  Hg  Hg12  1  0.34448896  0.65551104  0.00000000  1
  Hg  Hg13  1  0.65551104  -0.00000000  0.34448896  1
  Hg  Hg14  1  -0.00000000  0.65551104  0.65551104  1
  Hg  Hg15  1  0.65551104  -0.00000000  0.65551104  1
  Hg  Hg16  1  -0.00000000  0.65551104  0.34448896  1
  Hg  Hg17  1  0.65551104  0.65551104  0.00000000  1
  Hg  Hg18  1  0.26627899  0.26627899  0.50000000  1
  Hg  Hg19  1  0.26627899  0.50000000  0.26627899  1
  Hg  Hg20  1  0.26627899  0.50000000  0.73372101  1
  Hg  Hg21  1  0.50000000  0.26627899  0.73372101  1
  Hg  Hg22  1  0.50000000  0.26627899  0.26627899  1
  Hg  Hg23  1  0.73372101  0.26627899  0.50000000  1
  Hg  Hg24  1  0.26627899  0.73372101  0.50000000  1
  Hg  Hg25  1  0.73372101  0.50000000  0.26627899  1
  Hg  Hg26  1  0.50000000  0.73372101  0.73372101  1
  Hg  Hg27  1  0.73372101  0.50000000  0.73372101  1
  Hg  Hg28  1  0.50000000  0.73372101  0.26627899  1
  Hg  Hg29  1  0.73372101  0.73372101  0.50000000  1
  Hg  Hg30  1  0.15260792  0.84739208  0.15260792  1
  Hg  Hg31  1  0.15260792  0.15260792  0.15260792  1
  Hg  Hg32  1  0.50000000  0.50000000  0.50000000  1
loop_
_geom_bond_atom_site_label_1
_geom_bond_atom_site_label_2
_geom_bond_distance
_geom_bond_site_symmetry_2
Hg0 Hg31 3.099278 1_556
Hg0 Hg4 3.099278 1_455
Hg0 Hg3 3.099278 1_545
Hg0 Hg8 3.161355 1_555
Hg0 Hg9 3.161355 1_555
Hg0 Hg6 3.161355 1_556
Hg1 Hg31 3.099278 1_655
Hg1 Hg2 3.099278 1_545
Hg1 Hg4 3.099278 1_554
Hg1 Hg13 3.161355 1_555
Hg1 Hg11 3.161355 1_555
Hg1 Hg10 3.161355 1_655
Hg2 Hg30 3.099278 1_655
Hg2 Hg5 3.099278 1_554
Hg3 Hg30 3.099278 1_556
Hg3 Hg5 3.099278 1_455
Hg3 Hg8 3.161355 1_565
Hg4 Hg5 3.099278 1_545
Hg4 Hg9 3.161355 1_655
Hg6 K2 3.837984 1_555
Hg6 K0 3.837984 1_555
Hg7 Hg8 3.158237 1_555
Hg7 K2 3.837984 1_555
Hg7 K1 3.837984 1_555
Hg8 K2 3.837984 1_556
Hg8 K1 3.837984 1_555
Hg9 K0 3.837984 1_556
Hg9 K1 3.837984 1_555
Hg10 Hg9 3.158237 1_555
Hg10 Hg16 3.158237 1_555
Hg10 Hg31 3.161355 1_555
Hg10 Hg23 3.230386 1_455
Hg10 Hg18 3.230386 1_555
Hg10 Hg19 3.230386 1_555
Hg10 Hg25 3.230386 1_455
Hg10 K0 3.837984 1_555
Hg10 K1 3.837984 1_555
Hg11 Hg17 3.158237 1_555
Hg11 Hg6 3.158237 1_555
Hg11 Hg4 3.161355 1_554
Hg11 Hg27 3.230386 1_554
Hg11 Hg25 3.230386 1_555
Hg11 Hg22 3.230386 1_555
Hg11 Hg21 3.230386 1_554
Hg11 K0 3.837984 1_655
Hg11 K2 3.837984 1_555
Hg12 Hg17 3.158237 1_555
Hg12 Hg6 3.158237 1_555
Hg12 Hg3 3.161355 1_554
Hg12 Hg30 3.161355 1_555
Hg12 Hg26 3.230386 1_554
Hg12 Hg28 3.230386 1_555
Hg12 Hg19 3.230386 1_555
Hg12 Hg20 3.230386 1_554
Hg12 K2 3.837984 1_565
Hg12 K0 3.837984 1_555
Hg13 Hg15 3.158237 1_555
Hg13 Hg7 3.158237 1_555
Hg13 Hg2 3.161355 1_545
Hg13 Hg29 3.230386 1_545
Hg13 Hg23 3.230386 1_555
Hg13 Hg22 3.230386 1_555
Hg13 Hg28 3.230386 1_545
Hg13 K1 3.837984 1_655
Hg13 K2 3.837984 1_555
Hg14 Hg9 3.158237 1_555
Hg14 Hg16 3.158237 1_555
Hg14 Hg3 3.161355 1_555
Hg14 Hg5 3.161355 1_455
Hg14 Hg27 3.230386 1_455
Hg14 Hg20 3.230386 1_555
Hg14 Hg24 3.230386 1_555
Hg14 Hg29 3.230386 1_455
Hg14 K1 3.837984 1_565
Hg14 K0 3.837984 1_556
Hg15 Hg8 3.158237 1_555
Hg15 Hg4 3.161355 1_555
Hg15 Hg5 3.161355 1_545
Hg15 Hg29 3.230386 1_545
Hg15 Hg21 3.230386 1_555
Hg15 Hg23 3.230386 1_555
Hg15 Hg26 3.230386 1_545
Hg15 K2 3.837984 1_556
Hg15 K1 3.837984 1_655
Hg16 Hg2 3.161355 1_455
Hg16 Hg30 3.161355 1_555
Hg16 Hg24 3.230386 1_555
Hg16 Hg29 3.230386 1_455
Hg16 Hg19 3.230386 1_555
Hg16 Hg25 3.230386 1_455
Hg16 K1 3.837984 1_565
Hg16 K0 3.837984 1_555
Hg17 Hg2 3.161355 1_555
Hg17 Hg5 3.161355 1_554
Hg17 Hg26 3.230386 1_554
Hg17 Hg27 3.230386 1_554
Hg17 Hg28 3.230386 1_555
Hg17 Hg25 3.230386 1_555
Hg17 K2 3.837984 1_565
Hg17 K0 3.837984 1_655
Hg18 Hg7 3.230386 1_555
Hg18 Hg9 3.230386 1_555
Hg18 Hg8 3.230386 1_555
Hg18 Hg19 3.356342 1_555
Hg18 Hg32 3.356342 1_555
Hg18 Hg22 3.356342 1_555
Hg18 Hg20 3.356342 1_555
Hg18 Hg21 3.356342 1_555
Hg18 K1 3.823890 1_555
Hg19 Hg6 3.230386 1_555
Hg19 Hg28 3.356342 1_555
Hg19 Hg32 3.356342 1_555
Hg19 Hg22 3.356342 1_555
Hg19 Hg24 3.356342 1_555
Hg19 K0 3.823890 1_555
Hg20 Hg9 3.230386 1_555
Hg20 Hg6 3.230386 1_556
Hg20 Hg32 3.356342 1_555
Hg20 Hg26 3.356342 1_555
Hg20 Hg24 3.356342 1_555
Hg20 Hg21 3.356342 1_555
Hg20 K0 3.823890 1_556
Hg21 Hg6 3.230386 1_556
Hg21 Hg8 3.230386 1_555
Hg21 Hg27 3.356342 1_555
Hg21 Hg32 3.356342 1_555
Hg21 Hg23 3.356342 1_555
Hg21 K2 3.823890 1_556
Hg22 Hg7 3.230386 1_555
Hg22 Hg6 3.230386 1_555
Hg22 Hg25 3.356342 1_555
Hg22 Hg32 3.356342 1_555
Hg22 Hg23 3.356342 1_555
Hg22 K2 3.823890 1_555
Hg23 Hg9 3.230386 1_655
Hg23 Hg27 3.356342 1_555
Hg23 Hg25 3.356342 1_555
Hg23 Hg32 3.356342 1_555
Hg23 K1 3.823890 1_655
Hg24 Hg7 3.230386 1_565
Hg24 Hg8 3.230386 1_565
Hg24 Hg28 3.356342 1_555
Hg24 Hg32 3.356342 1_555
Hg24 Hg26 3.356342 1_555
Hg24 K1 3.823890 1_565
Hg25 Hg28 3.356342 1_555
Hg25 Hg32 3.356342 1_555
Hg25 Hg29 3.356342 1_555
Hg25 K0 3.823890 1_655
Hg26 Hg8 3.230386 1_565
Hg26 Hg27 3.356342 1_555
Hg26 Hg32 3.356342 1_555
Hg26 Hg29 3.356342 1_555
Hg26 K2 3.823890 1_566
Hg27 Hg9 3.230386 1_655
Hg27 Hg32 3.356342 1_555
Hg27 Hg29 3.356342 1_555
Hg27 K0 3.823890 1_656
Hg28 Hg7 3.230386 1_565
Hg28 Hg32 3.356342 1_555
Hg28 Hg29 3.356342 1_555
Hg28 K2 3.823890 1_565
Hg29 Hg32 3.356342 1_555
Hg29 K1 3.823890 1_665
Hg30 Hg31 3.099278 1_565
Hg30 Hg7 3.161355 1_565
Hg31 Hg7 3.161355 1_555
Hg31 Hg6 3.161355 1_555
