# generated using pymatgen
data_Fe10CoN8
_symmetry_space_group_name_H-M   'P 1'
_cell_length_a   8.85331020
_cell_length_b   3.78833087
_cell_length_c   6.01752095
_cell_angle_alpha   89.99999835
_cell_angle_beta   69.51449993
_cell_angle_gamma   77.64606361
_symmetry_Int_Tables_number   1
_chemical_formula_structural   Fe10CoN8
_chemical_formula_sum   'Fe10 Co1 N8'
_cell_volume   184.06304169
_cell_formula_units_Z   1
loop_
 _symmetry_equiv_pos_site_id
 _symmetry_equiv_pos_as_xyz
  1  'x, y, z'
loop_
 _atom_site_type_symbol
 _atom_site_label
 _atom_site_symmetry_multiplicity
 _atom_site_fract_x
 _atom_site_fract_y
 _atom_site_fract_z
 _atom_site_occupancy
  Fe  Fe0  1  0.35532593  0.82233704  0.78038880  1
  Fe  Fe1  1  0.64467407  0.17766296  0.21961120  1
  Fe  Fe2  1  0.03465046  0.98267477  0.74892636  1
  Fe  Fe3  1  0.96534954  0.01732523  0.25107364  1
  Fe  Fe4  1  0.69661943  0.65169029  0.51134664  1
  Fe  Fe5  1  0.30338057  0.34830971  0.48865336  1
  Fe  Fe6  1  0.85164451  0.57417725  0.98704997  1
  Fe  Fe7  1  0.14835549  0.42582275  0.01295003  1
  Fe  Fe8  1  0.60414989  0.19792506  0.81913685  1
  Fe  Fe9  1  0.39585011  0.80207494  0.18086315  1
  Co  Co0  1  0.00000000  0.50000000  0.50000000  1
  N  N0  1  0.20521125  0.89739438  0.08630006  1
  N  N1  1  0.79478875  0.10260562  0.91369994  1
  N  N2  1  0.28316080  0.85841910  0.52796768  1
  N  N3  1  0.71683920  0.14158090  0.47203232  1
  N  N4  1  0.54895191  0.72552404  0.82979204  1
  N  N5  1  0.45104809  0.27447596  0.17020796  1
  N  N6  1  0.07427689  0.46286205  0.74338241  1
  N  N7  1  0.92572311  0.53713795  0.25661759  1
loop_
_geom_bond_atom_site_label_1
_geom_bond_atom_site_label_2
_geom_bond_distance
_geom_bond_site_symmetry_2
Fe0 N4 1.802541 1_555
Fe0 N0 1.833487 1_556
Fe0 N2 1.837384 1_555
Fe1 N5 1.802541 1_555
Fe1 N1 1.833487 1_554
Fe1 N3 1.837384 1_555
Fe2 N6 1.923076 1_555
Fe2 N6 1.923080 1_565
Fe2 N1 1.952556 1_465
Fe2 N2 2.083112 1_555
Fe3 N7 1.923076 1_555
Fe3 N7 1.923080 1_545
Fe3 N0 1.952556 1_645
Fe3 N3 2.083112 1_555
Fe4 N4 1.883997 1_555
Fe4 N3 1.909125 1_555
Fe4 N3 1.909129 1_565
Fe4 N7 2.024647 1_555
Fe5 N5 1.883997 1_555
Fe5 N2 1.909125 1_555
Fe5 N2 1.909129 1_545
Fe5 N6 2.024647 1_555
Fe6 N7 1.945862 1_556
Fe6 N6 1.958116 1_655
Fe6 N1 2.044496 1_555
Fe6 N1 2.044499 1_565
Fe7 N6 1.945862 1_554
Fe7 N7 1.958116 1_455
Fe7 N0 2.044496 1_555
Fe7 N0 2.044499 1_545
Fe8 N1 1.927240 1_555
Fe8 N4 1.948826 1_555
Fe8 N4 1.948826 1_545
Fe8 N3 1.963141 1_555
Fe8 N5 2.052282 1_556
Fe9 N0 1.927240 1_555
Fe9 N5 1.948826 1_555
Fe9 N5 1.948826 1_565
Fe9 N2 1.963141 1_555
Fe9 N4 2.052282 1_554
Co0 N7 1.797686 1_455
Co0 N6 1.797686 1_555
