# generated using pymatgen
data_BaCaSnWO6
_symmetry_space_group_name_H-M   'P 1'
_cell_length_a   8.40906183
_cell_length_b   8.49006723
_cell_length_c   8.41262214
_cell_angle_alpha   90.00000000
_cell_angle_beta   90.00000000
_cell_angle_gamma   90.00000000
_symmetry_Int_Tables_number   1
_chemical_formula_structural   BaCaSnWO6
_chemical_formula_sum   'Ba4 Ca4 Sn4 W4 O24'
_cell_volume   600.60654109
_cell_formula_units_Z   4
loop_
 _symmetry_equiv_pos_site_id
 _symmetry_equiv_pos_as_xyz
  1  'x, y, z'
loop_
 _atom_site_type_symbol
 _atom_site_label
 _atom_site_symmetry_multiplicity
 _atom_site_fract_x
 _atom_site_fract_y
 _atom_site_fract_z
 _atom_site_occupancy
  Ba  Ba0  1  0.00000000  0.00000000  -0.00000000  1
  Ba  Ba1  1  0.50000000  0.50000000  0.50000000  1
  Ba  Ba2  1  0.50000000  0.00000000  0.50000000  1
  Ba  Ba3  1  0.00000000  0.00000000  0.50000000  1
  Ca  Ca0  1  0.75005818  0.74495209  0.75425350  1
  Ca  Ca1  1  0.24994182  0.25504791  0.75425350  1
  Ca  Ca2  1  0.24994182  0.74495209  0.24574650  1
  Ca  Ca3  1  0.75005818  0.25504791  0.24574650  1
  Sn  Sn0  1  0.00000000  0.50000000  0.50000000  1
  Sn  Sn1  1  0.50000000  0.50000000  -0.00000000  1
  Sn  Sn2  1  0.50000000  0.00000000  -0.00000000  1
  Sn  Sn3  1  0.00000000  0.50000000  -0.00000000  1
  W  W0  1  0.24686252  0.25513167  0.24826587  1
  W  W1  1  0.75313748  0.74486833  0.24826587  1
  W  W2  1  0.75313748  0.25513167  0.75173413  1
  W  W3  1  0.24686252  0.74486833  0.75173413  1
  O  O0  1  0.02063259  0.21498125  0.27154566  1
  O  O1  1  0.97936741  0.78501875  0.27154566  1
  O  O2  1  0.97936741  0.21498125  0.72845434  1
  O  O3  1  0.02063259  0.78501875  0.72845434  1
  O  O4  1  0.28492556  0.02641325  0.21036062  1
  O  O5  1  0.28492556  0.97358675  0.78963938  1
  O  O6  1  0.71507444  0.97358675  0.21036062  1
  O  O7  1  0.71507444  0.02641325  0.78963938  1
  O  O8  1  0.20849189  0.29080332  0.02105614  1
  O  O9  1  0.79150811  0.29080332  0.97894386  1
  O  O10  1  0.20849189  0.70919668  0.97894386  1
  O  O11  1  0.79150811  0.70919668  0.02105614  1
  O  O12  1  0.47608541  0.29452764  0.21482253  1
  O  O13  1  0.52391459  0.70547236  0.21482253  1
  O  O14  1  0.52391459  0.29452764  0.78517747  1
  O  O15  1  0.47608541  0.70547236  0.78517747  1
  O  O16  1  0.21323010  0.47950356  0.29233138  1
  O  O17  1  0.21323010  0.52049644  0.70766862  1
  O  O18  1  0.78676990  0.52049644  0.29233138  1
  O  O19  1  0.78676990  0.47950356  0.70766862  1
  O  O20  1  0.27960842  0.22372692  0.47636398  1
  O  O21  1  0.72039158  0.22372692  0.52363602  1
  O  O22  1  0.27960842  0.77627308  0.52363602  1
  O  O23  1  0.72039158  0.77627308  0.47636398  1
loop_
_geom_bond_atom_site_label_1
_geom_bond_atom_site_label_2
_geom_bond_distance
_geom_bond_site_symmetry_2
Ba0 O2 2.929165 1_454
Ba0 O1 2.929165 1_445
Ba0 O3 2.929165 1_544
Ba0 O0 2.929165 1_555
Ba0 O6 2.987085 1_445
Ba0 O4 2.987085 1_555
Ba0 O5 2.987085 1_544
Ba0 O7 2.987085 1_454
Ba0 O9 3.033286 1_454
Ba0 O8 3.033286 1_555
Ba0 O11 3.033286 1_445
Ba0 O10 3.033286 1_544
Ba1 O14 2.973090 1_555
Ba1 O15 2.973090 1_555
Ba1 O13 2.973090 1_555
Ba1 O12 2.973090 1_555
Ba1 O18 2.982883 1_555
Ba1 O19 2.982883 1_555
Ba1 O16 2.982883 1_555
Ba1 O17 2.982883 1_555
Ba1 O20 2.995987 1_555
Ba1 O22 2.995987 1_555
Ba1 O21 2.995987 1_555
Ba1 O23 2.995987 1_555
Ba2 O22 2.661230 1_545
Ba2 O20 2.661230 1_555
Ba2 O23 2.661230 1_545
Ba2 O21 2.661230 1_555
Ba2 O4 3.042758 1_555
Ba2 O6 3.042758 1_545
Ba2 O7 3.042758 1_555
Ba2 O5 3.042758 1_545
Ba3 O3 2.656158 1_545
Ba3 O1 2.656158 1_445
Ba3 O0 2.656158 1_555
Ba3 O2 2.656158 1_455
Ba3 O21 3.029162 1_455
Ba3 O22 3.029162 1_545
Ba3 O23 3.029162 1_445
Ba3 O20 3.029162 1_555
Ca0 O11 2.291608 1_556
Ca0 O19 2.308234 1_555
Ca0 O3 2.310780 1_655
Ca0 O15 2.342599 1_555
Ca0 O23 2.366043 1_555
Ca0 O7 2.425998 1_565
Ca1 O8 2.291608 1_556
Ca1 O17 2.308234 1_555
Ca1 O2 2.310780 1_455
Ca1 O14 2.342599 1_555
Ca1 O20 2.366043 1_555
Ca1 O5 2.425998 1_545
Ca2 O10 2.291608 1_554
Ca2 O16 2.308234 1_555
Ca2 O1 2.310780 1_455
Ca2 O13 2.342599 1_555
Ca2 O22 2.366043 1_555
Ca2 O4 2.425998 1_565
Ca3 O9 2.291608 1_554
Ca3 O18 2.308234 1_555
Ca3 O0 2.310780 1_655
Ca3 O12 2.342599 1_555
Ca3 O21 2.366043 1_555
Ca3 O6 2.425998 1_545
O0 W0 1.942578 1_555
O1 W1 1.942578 1_555
O2 W2 1.942578 1_555
O3 W3 1.942578 1_555
O4 W0 1.993704 1_555
O4 Sn2 2.540278 1_555
O5 W3 1.993704 1_555
O5 Sn2 2.540278 1_566
O6 W1 1.993704 1_555
O6 Sn2 2.540278 1_565
O7 W2 1.993704 1_555
O7 Sn2 2.540278 1_556
O8 W0 1.961987 1_555
O8 Sn3 2.501934 1_555
O9 W2 1.961987 1_555
O9 Sn3 2.501934 1_656
O10 W3 1.961987 1_555
O10 Sn3 2.501934 1_556
O11 W1 1.961987 1_555
O11 Sn3 2.501934 1_655
O12 W0 1.976481 1_555
O12 Sn1 2.519857 1_555
O13 W1 1.976481 1_555
O13 Sn1 2.519857 1_555
O14 W2 1.976481 1_555
O14 Sn1 2.519857 1_556
O15 W3 1.976481 1_555
O15 Sn1 2.519857 1_556
O16 W0 1.961167 1_555
O16 Sn0 2.509483 1_555
O17 W3 1.961167 1_555
O17 Sn0 2.509483 1_555
O18 W1 1.961167 1_555
O18 Sn0 2.509483 1_655
O19 W2 1.961167 1_555
O19 Sn0 2.509483 1_655
O20 W0 1.956810 1_555
O21 W2 1.956810 1_555
O22 W3 1.956810 1_555
O23 W1 1.956810 1_555
