# generated using pymatgen
data_LaYbAl4
_symmetry_space_group_name_H-M   'P 1'
_cell_length_a   5.61453975
_cell_length_b   5.61453975
_cell_length_c   5.61453975
_cell_angle_alpha   60.00000000
_cell_angle_beta   60.00000000
_cell_angle_gamma   60.00000000
_symmetry_Int_Tables_number   1
_chemical_formula_structural   LaYbAl4
_chemical_formula_sum   'La1 Yb1 Al4'
_cell_volume   125.14902943
_cell_formula_units_Z   1
loop_
 _symmetry_equiv_pos_site_id
 _symmetry_equiv_pos_as_xyz
  1  'x, y, z'
loop_
 _atom_site_type_symbol
 _atom_site_label
 _atom_site_symmetry_multiplicity
 _atom_site_fract_x
 _atom_site_fract_y
 _atom_site_fract_z
 _atom_site_occupancy
  La  La0  1  0.25000000  0.25000000  0.25000000  1
  Yb  Yb0  1  0.00000000  0.00000000  0.00000000  1
  Al  Al0  1  0.62503748  0.62503748  0.12488757  1
  Al  Al1  1  0.62503748  0.12488757  0.62503748  1
  Al  Al2  1  0.12488757  0.62503748  0.62503748  1
  Al  Al3  1  0.62503748  0.62503748  0.62503748  1
loop_
_geom_bond_atom_site_label_1
_geom_bond_atom_site_label_2
_geom_bond_distance
_geom_bond_site_symmetry_2
La0 Yb0 3.438189 1_555
La0 Yb0 3.438189 1_556
La0 Yb0 3.438189 1_565
La0 Yb0 3.438189 1_655
Al0 Al1 2.806428 1_564
Al0 Al3 2.806428 1_554
Al0 Al2 2.806428 1_654
Al0 Al3 2.808112 1_555
Al0 Al1 2.808112 1_555
Al0 Al2 2.808112 1_555
Al0 Yb0 3.291726 1_665
Al0 Yb0 3.291726 1_655
Al0 Yb0 3.291726 1_565
Al0 La0 3.291905 1_655
Al0 La0 3.291905 1_565
Al0 La0 3.291905 1_555
Al1 Al3 2.806428 1_545
Al1 Al2 2.806428 1_645
Al1 Al3 2.808112 1_555
Al1 Al2 2.808112 1_555
Al1 Yb0 3.291726 1_656
Al1 Yb0 3.291726 1_556
Al1 Yb0 3.291726 1_655
Al1 La0 3.291905 1_556
Al1 La0 3.291905 1_655
Al1 La0 3.291905 1_555
Al2 Al3 2.806428 1_455
Al2 Al3 2.808112 1_555
Al2 Yb0 3.291726 1_566
Al2 Yb0 3.291726 1_556
Al2 Yb0 3.291726 1_565
Al2 La0 3.291905 1_556
Al2 La0 3.291905 1_565
Al2 La0 3.291905 1_555
Al3 Yb0 3.291726 1_665
Al3 Yb0 3.291726 1_566
Al3 Yb0 3.291726 1_656
Al3 La0 3.291905 1_655
Al3 La0 3.291905 1_556
Al3 La0 3.291905 1_565
