# generated using pymatgen
data_Tm
_symmetry_space_group_name_H-M   'P 1'
_cell_length_a   7.05161227
_cell_length_b   7.05160754
_cell_length_c   17.56758769
_cell_angle_alpha   78.42213356
_cell_angle_beta   78.42214394
_cell_angle_gamma   60.00000225
_symmetry_Int_Tables_number   1
_chemical_formula_structural   Tm
_chemical_formula_sum   Tm24
_cell_volume   735.92260478
_cell_formula_units_Z   24
loop_
 _symmetry_equiv_pos_site_id
 _symmetry_equiv_pos_as_xyz
  1  'x, y, z'
loop_
 _atom_site_type_symbol
 _atom_site_label
 _atom_site_symmetry_multiplicity
 _atom_site_fract_x
 _atom_site_fract_y
 _atom_site_fract_z
 _atom_site_occupancy
  Tm  Tm0_0  1  0.00000000  0.00000000  0.00000000  1
  Tm  Tm0_1  1  0.00000000  0.00000000  0.50000000  1
  Tm  Tm0_2  1  0.00000000  0.50000000  0.00000000  1
  Tm  Tm0_3  1  0.00000000  0.50000000  0.50000000  1
  Tm  Tm0_4  1  0.50000000  0.00000000  0.00000000  1
  Tm  Tm0_5  1  0.50000000  0.00000000  0.50000000  1
  Tm  Tm0_6  1  0.50000000  0.50000000  0.00000000  1
  Tm  Tm0_7  1  0.50000000  0.50000000  0.50000000  1
  Tm  Tm1_0  1  0.38914725  0.38914725  0.33255825  1
  Tm  Tm1_1  1  0.38914725  0.38914725  0.83255825  1
  Tm  Tm1_2  1  0.38914725  0.88914725  0.33255825  1
  Tm  Tm1_3  1  0.38914725  0.88914725  0.83255825  1
  Tm  Tm1_4  1  0.88914725  0.38914725  0.33255825  1
  Tm  Tm1_5  1  0.88914725  0.38914725  0.83255825  1
  Tm  Tm1_6  1  0.88914725  0.88914725  0.33255825  1
  Tm  Tm1_7  1  0.88914725  0.88914725  0.83255825  1
  Tm  Tm2_0  1  0.11085275  0.11085275  0.16744175  1
  Tm  Tm2_1  1  0.11085275  0.11085275  0.66744175  1
  Tm  Tm2_2  1  0.11085275  0.61085275  0.16744175  1
  Tm  Tm2_3  1  0.11085275  0.61085275  0.66744175  1
  Tm  Tm2_4  1  0.61085275  0.11085275  0.16744175  1
  Tm  Tm2_5  1  0.61085275  0.11085275  0.66744175  1
  Tm  Tm2_6  1  0.61085275  0.61085275  0.16744175  1
  Tm  Tm2_7  1  0.61085275  0.61085275  0.66744175  1
loop_
_geom_bond_atom_site_label_1
_geom_bond_atom_site_label_2
_geom_bond_distance
_geom_bond_site_symmetry_2
Tm0_0 Tm2_2 3.511660 1_545
Tm0_0 Tm1_5 3.511660 1_454
Tm0_0 Tm2_0 3.511660 1_555
Tm0_0 Tm1_7 3.511660 1_444
Tm0_0 Tm1_3 3.511661 1_544
Tm0_0 Tm2_4 3.511661 1_455
Tm0_0 Tm0_2 3.525804 1_555
Tm0_0 Tm0_2 3.525804 1_545
Tm0_0 Tm0_6 3.525805 1_545
Tm0_0 Tm0_6 3.525805 1_455
Tm0_0 Tm0_4 3.525806 1_555
Tm0_0 Tm0_4 3.525806 1_455
Tm0_1 Tm1_4 3.511660 1_455
Tm0_1 Tm2_3 3.511660 1_545
Tm0_1 Tm1_6 3.511660 1_445
Tm0_1 Tm2_1 3.511660 1_555
Tm0_1 Tm1_2 3.511661 1_545
Tm0_1 Tm2_5 3.511661 1_455
Tm0_1 Tm0_3 3.525804 1_555
Tm0_1 Tm0_3 3.525804 1_545
Tm0_1 Tm0_7 3.525805 1_545
Tm0_1 Tm0_7 3.525805 1_455
Tm0_1 Tm0_5 3.525806 1_555
Tm0_1 Tm0_5 3.525806 1_455
Tm0_2 Tm2_0 3.511660 1_555
Tm0_2 Tm1_7 3.511660 1_454
Tm0_2 Tm1_5 3.511660 1_454
Tm0_2 Tm2_2 3.511660 1_555
Tm0_2 Tm1_1 3.511661 1_554
Tm0_2 Tm2_6 3.511661 1_455
Tm0_2 Tm0_4 3.525805 1_555
Tm0_2 Tm0_4 3.525805 1_465
Tm0_2 Tm0_6 3.525806 1_555
Tm0_2 Tm0_6 3.525806 1_455
Tm0_3 Tm2_1 3.511660 1_555
Tm0_3 Tm1_6 3.511660 1_455
Tm0_3 Tm1_4 3.511660 1_455
Tm0_3 Tm2_3 3.511660 1_555
Tm0_3 Tm2_7 3.511661 1_455
Tm0_3 Tm1_0 3.511661 1_555
Tm0_3 Tm0_5 3.525805 1_555
Tm0_3 Tm0_5 3.525805 1_465
Tm0_3 Tm0_7 3.525806 1_555
Tm0_3 Tm0_7 3.525806 1_455
Tm0_4 Tm2_6 3.511660 1_545
Tm0_4 Tm1_1 3.511660 1_554
Tm0_4 Tm2_4 3.511660 1_555
Tm0_4 Tm1_3 3.511660 1_544
Tm0_4 Tm2_0 3.511661 1_555
Tm0_4 Tm1_7 3.511661 1_544
Tm0_4 Tm0_6 3.525804 1_545
Tm0_4 Tm0_6 3.525804 1_555
Tm0_5 Tm2_7 3.511660 1_545
Tm0_5 Tm1_0 3.511660 1_555
Tm0_5 Tm1_2 3.511660 1_545
Tm0_5 Tm2_5 3.511660 1_555
Tm0_5 Tm2_1 3.511661 1_555
Tm0_5 Tm1_6 3.511661 1_545
Tm0_5 Tm0_7 3.525804 1_545
Tm0_5 Tm0_7 3.525804 1_555
Tm0_6 Tm1_3 3.511660 1_554
Tm0_6 Tm2_4 3.511660 1_555
Tm0_6 Tm2_6 3.511660 1_555
Tm0_6 Tm1_1 3.511660 1_554
Tm0_6 Tm2_2 3.511661 1_555
Tm0_6 Tm1_5 3.511661 1_554
Tm0_7 Tm1_2 3.511660 1_555
Tm0_7 Tm2_5 3.511660 1_555
Tm0_7 Tm1_0 3.511660 1_555
Tm0_7 Tm2_7 3.511660 1_555
Tm0_7 Tm1_4 3.511661 1_555
Tm0_7 Tm2_3 3.511661 1_555
Tm1_0 Tm2_4 3.479357 1_555
Tm1_0 Tm2_6 3.479357 1_555
Tm1_0 Tm2_2 3.479357 1_555
Tm1_0 Tm1_2 3.525804 1_545
Tm1_0 Tm1_2 3.525804 1_555
Tm1_0 Tm1_6 3.525805 1_545
Tm1_0 Tm1_6 3.525805 1_455
Tm1_0 Tm1_4 3.525806 1_455
Tm1_0 Tm1_4 3.525806 1_555
Tm1_1 Tm2_5 3.479357 1_555
Tm1_1 Tm2_7 3.479357 1_555
Tm1_1 Tm2_3 3.479357 1_555
Tm1_1 Tm1_3 3.525804 1_555
Tm1_1 Tm1_3 3.525804 1_545
Tm1_1 Tm1_7 3.525805 1_545
Tm1_1 Tm1_7 3.525805 1_455
Tm1_1 Tm1_5 3.525806 1_555
Tm1_1 Tm1_5 3.525806 1_455
Tm1_2 Tm2_6 3.479357 1_555
Tm1_2 Tm2_4 3.479357 1_565
Tm1_2 Tm2_0 3.479357 1_565
Tm1_2 Tm1_4 3.525805 1_465
Tm1_2 Tm1_4 3.525805 1_555
Tm1_2 Tm1_6 3.525806 1_555
Tm1_2 Tm1_6 3.525806 1_455
Tm1_3 Tm2_7 3.479357 1_555
Tm1_3 Tm2_5 3.479357 1_565
Tm1_3 Tm2_1 3.479357 1_565
Tm1_3 Tm1_5 3.525805 1_555
Tm1_3 Tm1_5 3.525805 1_465
Tm1_3 Tm1_7 3.525806 1_555
Tm1_3 Tm1_7 3.525806 1_455
Tm1_4 Tm2_0 3.479357 1_655
Tm1_4 Tm2_2 3.479357 1_655
Tm1_4 Tm2_6 3.479357 1_555
Tm1_4 Tm1_6 3.525804 1_545
Tm1_4 Tm1_6 3.525804 1_555
Tm1_5 Tm2_1 3.479357 1_655
Tm1_5 Tm2_3 3.479357 1_655
Tm1_5 Tm2_7 3.479357 1_555
Tm1_5 Tm1_7 3.525804 1_555
Tm1_5 Tm1_7 3.525804 1_545
Tm1_6 Tm2_2 3.479357 1_655
Tm1_6 Tm2_0 3.479357 1_665
Tm1_6 Tm2_4 3.479357 1_565
Tm1_7 Tm2_3 3.479357 1_655
Tm1_7 Tm2_1 3.479357 1_665
Tm1_7 Tm2_5 3.479357 1_565
Tm2_0 Tm2_2 3.525804 1_545
Tm2_0 Tm2_2 3.525804 1_555
Tm2_0 Tm2_6 3.525805 1_545
Tm2_0 Tm2_6 3.525805 1_455
Tm2_0 Tm2_4 3.525806 1_555
Tm2_0 Tm2_4 3.525806 1_455
Tm2_1 Tm2_3 3.525804 1_555
Tm2_1 Tm2_3 3.525804 1_545
Tm2_1 Tm2_7 3.525805 1_545
Tm2_1 Tm2_7 3.525805 1_455
Tm2_1 Tm2_5 3.525806 1_555
Tm2_1 Tm2_5 3.525806 1_455
Tm2_2 Tm2_4 3.525805 1_465
Tm2_2 Tm2_4 3.525805 1_555
Tm2_2 Tm2_6 3.525806 1_555
Tm2_2 Tm2_6 3.525806 1_455
Tm2_3 Tm2_5 3.525805 1_555
Tm2_3 Tm2_5 3.525805 1_465
Tm2_3 Tm2_7 3.525806 1_555
Tm2_3 Tm2_7 3.525806 1_455
Tm2_4 Tm2_6 3.525804 1_545
Tm2_4 Tm2_6 3.525804 1_555
Tm2_5 Tm2_7 3.525804 1_545
Tm2_5 Tm2_7 3.525804 1_555
