# generated using pymatgen
data_SrZr7N10
_symmetry_space_group_name_H-M   'P 1'
_cell_length_a   6.65413725
_cell_length_b   6.90261300
_cell_length_c   13.72205632
_cell_angle_alpha   90.00000000
_cell_angle_beta   88.02659177
_cell_angle_gamma   90.00000000
_symmetry_Int_Tables_number   1
_chemical_formula_structural   SrZr7N10
_chemical_formula_sum   'Sr2 Zr14 N20'
_cell_volume   629.89306592
_cell_formula_units_Z   2
loop_
 _symmetry_equiv_pos_site_id
 _symmetry_equiv_pos_as_xyz
  1  'x, y, z'
loop_
 _atom_site_type_symbol
 _atom_site_label
 _atom_site_symmetry_multiplicity
 _atom_site_fract_x
 _atom_site_fract_y
 _atom_site_fract_z
 _atom_site_occupancy
  Sr  Sr0  1  0.88011400  0.05547700  0.61730200  1
  Sr  Sr1  1  0.88011400  0.94452300  0.11730200  1
  Zr  Zr0  1  0.59368800  0.04787500  0.82846700  1
  Zr  Zr1  1  0.59368800  0.95212500  0.32846700  1
  Zr  Zr2  1  0.40252600  0.96074500  0.03886800  1
  Zr  Zr3  1  0.40252600  0.03925500  0.53886800  1
  Zr  Zr4  1  0.12202600  0.41636300  0.07890600  1
  Zr  Zr5  1  0.12202600  0.58363700  0.57890600  1
  Zr  Zr6  1  0.69363500  0.40978300  0.98676000  1
  Zr  Zr7  1  0.69363500  0.59021700  0.48676000  1
  Zr  Zr8  1  0.88230600  0.60109400  0.78735300  1
  Zr  Zr9  1  0.88230600  0.39890600  0.28735300  1
  Zr  Zr10  1  0.30866500  0.59694800  0.87966700  1
  Zr  Zr11  1  0.30866500  0.40305200  0.37966700  1
  Zr  Zr12  1  0.49994300  0.41713100  0.68426000  1
  Zr  Zr13  1  0.49994300  0.58286900  0.18426000  1
  N  N0  1  0.82842800  0.88552900  0.78297900  1
  N  N1  1  0.82842800  0.11447100  0.28297900  1
  N  N2  1  0.65110400  0.11670700  0.98612600  1
  N  N3  1  0.65110400  0.88329300  0.48612600  1
  N  N4  1  0.36755200  0.88096500  0.88886800  1
  N  N5  1  0.36755200  0.11903500  0.38886800  1
  N  N6  1  0.16575400  0.13416400  0.06383600  1
  N  N7  1  0.16575400  0.86583600  0.56383600  1
  N  N8  1  0.20838500  0.53447200  0.73155800  1
  N  N9  1  0.20838500  0.46552800  0.23155800  1
  N  N10  1  0.51178300  0.12711800  0.68036700  1
  N  N11  1  0.51178300  0.87288200  0.18036700  1
  N  N12  1  0.80638300  0.47743300  0.13376500  1
  N  N13  1  0.80638300  0.52256700  0.63376500  1
  N  N14  1  0.00315300  0.52367700  0.93428200  1
  N  N15  1  0.00315300  0.47632300  0.43428200  1
  N  N16  1  0.60434200  0.44171400  0.83443000  1
  N  N17  1  0.60434200  0.55828600  0.33443000  1
  N  N18  1  0.41251200  0.55408700  0.03150600  1
  N  N19  1  0.41251200  0.44591300  0.53150600  1
loop_
_geom_bond_atom_site_label_1
_geom_bond_atom_site_label_2
_geom_bond_distance
_geom_bond_site_symmetry_2
N0 Zr8 1.997082 1_555
N0 Zr0 2.004508 1_565
N0 Sr0 2.570806 1_565
N1 Zr9 1.997082 1_555
N1 Zr1 2.004508 1_545
N1 Sr1 2.570806 1_545
N2 Zr6 2.042750 1_555
N2 Zr2 2.082364 1_546
N2 Zr0 2.260299 1_555
N2 Sr1 2.676503 1_546
N3 Zr7 2.042750 1_555
N3 Zr3 2.082364 1_565
N3 Zr1 2.260299 1_555
N3 Sr0 2.676503 1_565
N4 Zr10 2.004068 1_555
N4 Zr0 2.047601 1_565
N4 Zr2 2.151056 1_556
N5 Zr11 2.004068 1_555
N5 Zr1 2.047601 1_545
N5 Zr3 2.151056 1_555
N6 Zr4 1.979303 1_555
N6 Zr2 1.998841 1_545
N6 Sr1 2.401742 1_445
N7 Zr5 1.979303 1_555
N7 Zr3 1.998841 1_565
N7 Sr0 2.401742 1_465
N8 Zr12 2.180461 1_555
N8 Zr10 2.203434 1_555
N8 Zr5 2.217217 1_555
N8 Zr8 2.321888 1_455
N9 Zr13 2.180461 1_555
N9 Zr11 2.203434 1_555
N9 Zr4 2.217217 1_555
N9 Zr9 2.321888 1_455
N10 Zr12 2.004037 1_555
N10 Zr3 2.182572 1_555
N10 Zr0 2.191458 1_555
N10 Sr0 2.618088 1_555
N11 Zr13 2.004037 1_555
N11 Zr2 2.182572 1_555
N11 Zr1 2.191458 1_555
N11 Sr1 2.618088 1_555
N12 Zr6 2.225822 1_554
N12 Zr4 2.246525 1_655
N12 Zr9 2.250357 1_555
N12 Zr13 2.251748 1_555
N12 Sr1 3.267903 1_555
N13 Zr7 2.225822 1_555
N13 Zr5 2.246525 1_655
N13 Zr8 2.250357 1_555
N13 Zr12 2.251748 1_555
N13 Sr0 3.267903 1_555
N14 Zr10 2.201198 1_555
N14 Zr8 2.260262 1_455
N14 Zr4 2.284926 1_556
N14 Zr6 2.297023 1_455
N15 Zr11 2.201198 1_555
N15 Zr9 2.260262 1_455
N15 Zr5 2.284926 1_555
N15 Zr7 2.297023 1_455
N16 Zr12 2.203682 1_555
N16 Zr6 2.203730 1_555
N16 Zr8 2.228538 1_555
N16 Zr10 2.306583 1_555
N16 Zr0 2.720747 1_555
N17 Zr13 2.203682 1_555
N17 Zr7 2.203730 1_555
N17 Zr9 2.228538 1_555
N17 Zr11 2.306583 1_555
N17 Zr1 2.720747 1_555
N18 Zr6 2.188453 1_554
N18 Zr13 2.203532 1_555
N18 Zr4 2.230795 1_555
N18 Zr10 2.237261 1_554
N18 Zr2 2.809524 1_555
N19 Zr7 2.188453 1_555
N19 Zr12 2.203532 1_555
N19 Zr5 2.230795 1_555
N19 Zr11 2.237261 1_555
N19 Zr3 2.809524 1_555
