# generated using pymatgen
data_Li7Mn2(CoO4)3
_symmetry_space_group_name_H-M   'P 1'
_cell_length_a   7.89637132
_cell_length_b   7.89637132
_cell_length_c   10.34289771
_cell_angle_alpha   69.53578797
_cell_angle_beta   69.53578797
_cell_angle_gamma   21.41207300
_symmetry_Int_Tables_number   1
_chemical_formula_structural   Li7Mn2(CoO4)3
_chemical_formula_sum   'Li7 Mn2 Co3 O12'
_cell_volume   220.03025110
_cell_formula_units_Z   1
loop_
 _symmetry_equiv_pos_site_id
 _symmetry_equiv_pos_as_xyz
  1  'x, y, z'
loop_
 _atom_site_type_symbol
 _atom_site_label
 _atom_site_symmetry_multiplicity
 _atom_site_fract_x
 _atom_site_fract_y
 _atom_site_fract_z
 _atom_site_occupancy
  Li  Li0  1  0.49555500  0.49555500  0.72630800  1
  Li  Li1  1  0.49900600  0.49900600  0.27106000  1
  Li  Li2  1  0.16798700  0.16798700  0.57536600  1
  Li  Li3  1  0.17202800  0.17202800  0.09712000  1
  Li  Li4  1  0.83465900  0.83465900  0.91202900  1
  Li  Li5  1  0.83304300  0.83304300  0.41759600  1
  Li  Li6  1  0.00040000  0.00040000  0.49927200  1
  Mn  Mn0  1  0.99908500  0.99908500  0.00101600  1
  Mn  Mn1  1  0.66906300  0.66906300  0.83264800  1
  Co  Co0  1  0.65205800  0.65205800  0.35000100  1
  Co  Co1  1  0.34633000  0.34633000  0.64797800  1
  Co  Co2  1  0.32426900  0.32426900  0.17817200  1
  O  O0  1  0.43023100  0.43023100  0.96138800  1
  O  O1  1  0.40790000  0.40790000  0.46641100  1
  O  O2  1  0.09062400  0.09062400  0.80685000  1
  O  O3  1  0.08859500  0.08859500  0.29121500  1
  O  O4  1  0.75915200  0.75915200  0.12062400  1
  O  O5  1  0.74643200  0.74643200  0.64833800  1
  O  O6  1  0.59004900  0.59004900  0.53348100  1
  O  O7  1  0.57677800  0.57677800  0.02694100  1
  O  O8  1  0.25240400  0.25240400  0.36211900  1
  O  O9  1  0.23580900  0.23580900  0.87570300  1
  O  O10  1  0.90863200  0.90863200  0.71202600  1
  O  O11  1  0.91991000  0.91991000  0.18633700  1
loop_
_geom_bond_atom_site_label_1
_geom_bond_atom_site_label_2
_geom_bond_distance
_geom_bond_site_symmetry_2
Li0 O6 2.011620 1_555
Li0 O10 2.033434 1_545
Li0 O10 2.033434 1_455
Li0 O0 2.277138 1_555
Li0 O2 2.428322 1_565
Li0 O2 2.428322 1_655
Li1 O1 2.012053 1_555
Li1 O3 2.081887 1_655
Li1 O3 2.081887 1_565
Li1 O11 2.278507 1_545
Li1 O11 2.278507 1_455
Li1 O7 2.379734 1_555
Li2 O6 2.043299 1_455
Li2 O6 2.043299 1_545
Li2 O8 2.127103 1_555
Li2 O5 2.203879 1_455
Li2 O5 2.203879 1_545
Li2 O2 2.264522 1_555
Li3 O3 1.963851 1_555
Li3 O4 2.067039 1_545
Li3 O4 2.067039 1_455
Li3 O9 2.147355 1_554
Li3 O7 2.372104 1_455
Li3 O7 2.372104 1_545
Li4 O10 1.976617 1_555
Li4 O4 2.056367 1_556
Li4 O9 2.248574 1_655
Li4 O9 2.248574 1_565
Li4 O0 2.269526 1_655
Li4 O0 2.269526 1_565
Li5 O1 2.042905 1_655
Li5 O1 2.042905 1_565
Li5 O8 2.134920 1_565
Li5 O8 2.134920 1_655
Li5 O5 2.284592 1_555
Li5 O11 2.289920 1_555
Li6 O3 2.099513 1_555
Li6 O6 2.136028 1_545
Li6 O6 2.136028 1_455
Li6 O10 2.154089 1_445
Li6 O1 2.162150 1_455
Li6 O1 2.162150 1_545
Mn0 O11 1.872859 1_555
Mn0 O0 1.942442 1_654
Mn0 O0 1.942442 1_564
Mn0 O7 1.976693 1_655
Mn0 O7 1.976693 1_565
Mn0 O2 2.005181 1_664
Mn1 O5 1.856530 1_555
Mn1 O9 1.936787 1_565
Mn1 O9 1.936787 1_655
Mn1 O2 1.983868 1_565
Mn1 O2 1.983868 1_655
Mn1 O7 2.010266 1_556
Co0 O6 1.796594 1_555
Co0 O3 1.979260 1_655
Co0 O3 1.979260 1_565
Co0 O8 2.175120 1_655
Co0 O8 2.175120 1_565
Co0 O4 2.363150 1_555
Co1 O1 1.778380 1_555
Co1 O10 1.995270 1_455
Co1 O10 1.995270 1_545
Co1 O5 2.133273 1_545
Co1 O5 2.133273 1_455
Co1 O9 2.369462 1_555
Co2 O8 1.831245 1_555
Co2 O4 1.988762 1_455
Co2 O4 1.988762 1_545
Co2 O11 2.109698 1_545
Co2 O11 2.109698 1_455
Co2 O0 2.259961 1_554
