# generated using pymatgen
data_MgFe6Sb10(IO3)6
_symmetry_space_group_name_H-M   'P 1'
_cell_length_a   8.14955241
_cell_length_b   9.50371009
_cell_length_c   12.67209869
_cell_angle_alpha   85.22936902
_cell_angle_beta   86.03794020
_cell_angle_gamma   74.03007809
_symmetry_Int_Tables_number   1
_chemical_formula_structural   MgFe6Sb10(IO3)6
_chemical_formula_sum   'Mg1 Fe6 Sb10 I6 O18'
_cell_volume   939.22452668
_cell_formula_units_Z   1
loop_
 _symmetry_equiv_pos_site_id
 _symmetry_equiv_pos_as_xyz
  1  'x, y, z'
loop_
 _atom_site_type_symbol
 _atom_site_label
 _atom_site_symmetry_multiplicity
 _atom_site_fract_x
 _atom_site_fract_y
 _atom_site_fract_z
 _atom_site_occupancy
  Mg  Mg0  1  0.32024907  0.47493787  0.25828225  1
  Fe  Fe0  1  0.72267256  0.98927802  0.34493073  1
  Fe  Fe1  1  0.28758167  0.01134634  0.65545990  1
  Fe  Fe2  1  0.02662150  0.95965400  0.12303407  1
  Fe  Fe3  1  0.97870366  0.04039132  0.87563177  1
  Fe  Fe4  1  0.62292565  0.08495213  0.06311815  1
  Fe  Fe5  1  0.38173001  0.91618266  0.93135512  1
  Sb  Sb0  1  0.89973066  0.17498453  0.50970517  1
  Sb  Sb1  1  0.11693923  0.83087079  0.49002372  1
  Sb  Sb2  1  0.26141770  0.16011131  0.26601291  1
  Sb  Sb3  1  0.74070420  0.85332724  0.73351861  1
  Sb  Sb4  1  0.54121388  0.19743999  0.77624236  1
  Sb  Sb5  1  0.46328508  0.81143062  0.22150613  1
  Sb  Sb6  1  0.20736681  0.24892567  0.00188886  1
  Sb  Sb7  1  0.79721333  0.74973882  0.99408076  1
  Sb  Sb8  1  0.81726237  0.29600443  0.22384079  1
  Sb  Sb9  1  0.18561296  0.70637890  0.77251131  1
  I  I0  1  0.73791393  0.33541690  0.95965869  1
  I  I1  1  0.27350468  0.65510012  0.03194518  1
  I  I2  1  0.90518941  0.69931959  0.28209426  1
  I  I3  1  0.11316656  0.29946211  0.71823734  1
  I  I4  1  0.51766859  0.26616264  0.46053565  1
  I  I5  1  0.49431902  0.71675414  0.56958928  1
  O  O0  1  0.15126656  0.05613738  0.98691810  1
  O  O1  1  0.85418763  0.94188142  0.01174236  1
  O  O2  1  0.87198475  0.97716288  0.46806739  1
  O  O3  1  0.14976980  0.02633073  0.52668473  1
  O  O4  1  0.80141599  0.09387496  0.20228180  1
  O  O5  1  0.20750139  0.90642668  0.79810518  1
  O  O6  1  0.44949295  0.12897947  0.91807129  1
  O  O7  1  0.55619869  0.87136662  0.07746995  1
  O  O8  1  0.78230982  0.04775988  0.78055556  1
  O  O9  1  0.22470543  0.95107734  0.21415379  1
  O  O10  1  0.50326675  0.02636528  0.70921873  1
  O  O11  1  0.50614688  0.97884575  0.29039132  1
  O  O12  1  0.05624005  0.25608105  0.15571653  1
  O  O13  1  0.94666003  0.75220083  0.84238474  1
  O  O14  1  0.05059167  0.78277107  0.63970570  1
  O  O15  1  0.94782905  0.23658600  0.35950775  1
  O  O16  1  0.62357376  0.81134348  0.87816879  1
  O  O17  1  0.38042829  0.18378106  0.11723627  1
loop_
_geom_bond_atom_site_label_1
_geom_bond_atom_site_label_2
_geom_bond_distance
_geom_bond_site_symmetry_2
Mg0 Sb2 3.150520 1_555
Fe0 O11 1.969126 1_555
Fe0 O2 2.020937 1_555
Fe0 O4 2.135282 1_565
Fe0 I2 2.895877 1_555
Fe0 I4 3.121792 1_565
Fe1 O10 1.973272 1_555
Fe1 O3 2.017719 1_555
Fe1 O5 2.140770 1_545
Fe1 I3 2.866220 1_555
Fe1 I5 3.085273 1_545
Fe2 O9 2.028646 1_555
Fe2 O1 2.106260 1_455
Fe2 O4 2.161985 1_465
Fe2 O0 2.203446 1_564
Fe2 I1 3.284554 1_555
Fe2 I2 3.377221 1_455
Fe3 O8 2.051566 1_555
Fe3 O0 2.100911 1_655
Fe3 O5 2.170585 1_645
Fe3 O1 2.212117 1_546
Fe3 I0 3.166431 1_555
Fe4 O17 2.038747 1_555
Fe4 O1 2.095766 1_545
Fe4 O7 2.231910 1_545
Fe4 O6 2.335991 1_554
Fe4 O4 2.383329 1_555
Fe4 I0 2.966753 1_554
Fe5 O16 2.044274 1_555
Fe5 O0 2.095428 1_565
Fe5 O6 2.228972 1_565
Fe5 O5 2.303410 1_555
Fe5 O7 2.351765 1_556
Fe5 I1 3.013655 1_556
I0 Sb8 3.423907 1_556
I0 Sb4 3.445270 1_555
I1 Mg0 3.205991 1_555
I1 Sb9 3.380166 1_554
I2 Mg0 3.475186 1_655
I4 Sb0 3.086660 1_555
I4 Mg0 3.325890 1_555
I5 Sb1 3.172161 1_555
O0 Sb6 2.032911 1_556
O1 Sb7 2.036933 1_554
O2 Sb0 2.068693 1_565
O2 Sb1 2.116759 1_655
O3 Sb1 2.042615 1_545
O3 Sb0 2.149505 1_455
O4 Sb8 2.002537 1_555
O5 Sb9 2.012145 1_555
O6 Sb4 2.024769 1_555
O6 Sb6 2.235000 1_556
O7 Sb5 2.025520 1_555
O7 Sb7 2.231085 1_554
O8 Sb4 2.085903 1_555
O8 Sb3 2.107279 1_545
O9 Sb5 2.033460 1_555
O9 Sb2 2.244846 1_565
O10 Sb4 2.000756 1_555
O10 Sb3 2.188737 1_545
O11 Sb5 1.998615 1_555
O11 Sb2 2.268678 1_565
O12 Sb8 2.024285 1_455
O12 Sb2 2.202967 1_555
O12 Sb6 2.228349 1_555
O13 Sb9 2.031027 1_655
O13 Sb3 2.203600 1_555
O13 Sb7 2.205405 1_555
O14 Sb1 1.987253 1_555
O14 Sb9 2.045290 1_555
O14 Sb3 2.650779 1_455
O15 Sb0 1.989180 1_555
O15 Sb8 2.041416 1_555
O15 Sb2 2.676901 1_655
O16 Sb7 2.047208 1_555
O16 Sb3 2.067966 1_555
O17 Sb6 2.040315 1_555
O17 Sb2 2.083867 1_555
