# generated using pymatgen
data_La3Zn22
_symmetry_space_group_name_H-M   'P 1'
_cell_length_a   8.87000703
_cell_length_b   8.87000703
_cell_length_c   12.32326514
_cell_angle_alpha   111.05326687
_cell_angle_beta   111.05326687
_cell_angle_gamma   89.95736721
_symmetry_Int_Tables_number   1
_chemical_formula_structural   La3Zn22
_chemical_formula_sum   'La6 Zn44'
_cell_volume   835.22265823
_cell_formula_units_Z   2
loop_
 _symmetry_equiv_pos_site_id
 _symmetry_equiv_pos_as_xyz
  1  'x, y, z'
loop_
 _atom_site_type_symbol
 _atom_site_label
 _atom_site_symmetry_multiplicity
 _atom_site_fract_x
 _atom_site_fract_y
 _atom_site_fract_z
 _atom_site_occupancy
  La  La0  1  0.49655712  0.74668860  0.99297049  1
  La  La1  1  0.74668860  0.49655712  0.49297049  1
  La  La2  1  0.50344288  0.25331140  0.00702951  1
  La  La3  1  0.25331140  0.50344288  0.50702951  1
  La  La4  1  0.12510383  0.87489617  0.25000000  1
  La  La5  1  0.87489617  0.12510383  0.75000000  1
  Zn  Zn0  1  0.42220479  0.19463791  0.37712172  1
  Zn  Zn1  1  0.42194723  0.68235235  0.37693082  1
  Zn  Zn2  1  0.19463791  0.42220479  0.87712172  1
  Zn  Zn3  1  0.19468731  0.95495778  0.87705109  1
  Zn  Zn4  1  0.95495778  0.19468731  0.37705109  1
  Zn  Zn5  1  0.95506049  0.68262456  0.37709435  1
  Zn  Zn6  1  0.68235235  0.42194723  0.87693082  1
  Zn  Zn7  1  0.68262456  0.95506049  0.87709435  1
  Zn  Zn8  1  0.57779521  0.80536209  0.62287828  1
  Zn  Zn9  1  0.57805277  0.31764765  0.62306918  1
  Zn  Zn10  1  0.80536209  0.57779521  0.12287828  1
  Zn  Zn11  1  0.80531269  0.04504222  0.12294891  1
  Zn  Zn12  1  0.04504222  0.80531269  0.62294891  1
  Zn  Zn13  1  0.04493951  0.31737544  0.62290565  1
  Zn  Zn14  1  0.31764765  0.57805277  0.12306918  1
  Zn  Zn15  1  0.31737544  0.04493951  0.12290565  1
  Zn  Zn16  1  0.14512193  0.62277701  0.74584419  1
  Zn  Zn17  1  0.62277701  0.14512193  0.24584419  1
  Zn  Zn18  1  0.62269754  0.60050575  0.24560210  1
  Zn  Zn19  1  0.60050575  0.62269754  0.74560210  1
  Zn  Zn20  1  0.85487807  0.37722299  0.25415581  1
  Zn  Zn21  1  0.37722299  0.85487807  0.75415581  1
  Zn  Zn22  1  0.37730246  0.39949425  0.75439790  1
  Zn  Zn23  1  0.39949425  0.37730246  0.25439790  1
  Zn  Zn24  1  0.48856825  0.88430571  0.26893700  1
  Zn  Zn25  1  0.88430571  0.48856825  0.76893700  1
  Zn  Zn26  1  0.88460451  0.78016450  0.76882885  1
  Zn  Zn27  1  0.78016450  0.88460451  0.26882885  1
  Zn  Zn28  1  0.51143175  0.11569429  0.73106300  1
  Zn  Zn29  1  0.11569429  0.51143175  0.23106300  1
  Zn  Zn30  1  0.11539549  0.21983550  0.23117115  1
  Zn  Zn31  1  0.21983550  0.11539549  0.73117115  1
  Zn  Zn32  1  0.83601531  0.73531053  0.97090628  1
  Zn  Zn33  1  0.73531053  0.83601531  0.47090628  1
  Zn  Zn34  1  0.73549623  0.13465214  0.47089871  1
  Zn  Zn35  1  0.13465214  0.73549623  0.97089871  1
  Zn  Zn36  1  0.16398469  0.26468947  0.02909372  1
  Zn  Zn37  1  0.26468947  0.16398469  0.52909372  1
  Zn  Zn38  1  0.26450377  0.86534786  0.52910129  1
  Zn  Zn39  1  0.86534786  0.26450377  0.02910129  1
  Zn  Zn40  1  0.50000000  0.00000000  0.50000000  1
  Zn  Zn41  1  -0.00000000  0.50000000  -0.00000000  1
  Zn  Zn42  1  -0.00000000  0.00000000  -0.00000000  1
  Zn  Zn43  1  -0.00000000  0.00000000  0.50000000  1
loop_
_geom_bond_atom_site_label_1
_geom_bond_atom_site_label_2
_geom_bond_distance
_geom_bond_site_symmetry_2
La0 Zn32 3.117413 1_555
La0 Zn35 3.121270 1_555
La0 Zn24 3.201719 1_556
La0 Zn27 3.202145 1_556
La0 Zn21 3.239121 1_555
La0 Zn22 3.242209 1_555
La0 Zn15 3.296552 1_566
La0 Zn10 3.297919 1_556
La0 Zn14 3.298578 1_556
La0 Zn11 3.298924 1_566
La0 Zn19 3.310813 1_555
La0 Zn16 3.313496 1_555
La0 Zn3 3.429771 1_555
La0 Zn7 3.431194 1_555
La0 Zn6 3.432861 1_555
La0 Zn2 3.436021 1_555
La0 Zn18 3.608453 1_556
La0 Zn17 3.611219 1_566
La1 Zn33 3.117413 1_555
La1 Zn34 3.121270 1_555
La1 Zn25 3.201719 1_555
La1 Zn26 3.202145 1_555
La1 Zn20 3.239121 1_555
La1 Zn23 3.242209 1_555
La1 Zn13 3.296552 1_655
La1 Zn8 3.297919 1_555
La1 Zn9 3.298578 1_555
La1 Zn12 3.298924 1_655
La1 Zn18 3.310813 1_555
La1 Zn17 3.313496 1_555
La1 Zn4 3.429771 1_555
La1 Zn5 3.431194 1_555
La1 Zn1 3.432861 1_555
La1 Zn0 3.436021 1_555
La1 Zn19 3.608453 1_555
La1 Zn16 3.611219 1_655
La2 Zn36 3.117413 1_555
La2 Zn39 3.121270 1_555
La2 Zn28 3.201719 1_554
La2 Zn31 3.202145 1_554
La2 Zn17 3.239121 1_555
La2 Zn18 3.242209 1_555
La2 Zn7 3.296552 1_544
La2 Zn2 3.297919 1_554
La2 Zn6 3.298578 1_554
La2 Zn3 3.298924 1_544
La2 Zn23 3.310813 1_555
La2 Zn20 3.313496 1_555
La2 Zn11 3.429771 1_555
La2 Zn15 3.431194 1_555
La2 Zn14 3.432861 1_555
La2 Zn10 3.436021 1_555
La2 Zn22 3.608453 1_554
La2 Zn21 3.611219 1_544
La3 Zn37 3.117413 1_555
La3 Zn38 3.121270 1_555
La3 Zn29 3.201719 1_555
La3 Zn30 3.202145 1_555
La3 Zn16 3.239121 1_555
La3 Zn19 3.242209 1_555
La3 Zn5 3.296552 1_455
La3 Zn0 3.297919 1_555
La3 Zn1 3.298578 1_555
La3 Zn4 3.298924 1_455
La3 Zn22 3.310813 1_555
La3 Zn21 3.313496 1_555
La3 Zn12 3.429771 1_555
La3 Zn13 3.431194 1_555
La3 Zn9 3.432861 1_555
La3 Zn8 3.436021 1_555
La3 Zn23 3.608453 1_555
La3 Zn20 3.611219 1_455
La4 Zn29 3.146589 1_555
La4 Zn24 3.146589 1_555
La4 Zn27 3.149256 1_455
La4 Zn30 3.149256 1_565
La4 Zn38 3.243365 1_555
La4 Zn35 3.243365 1_554
La4 Zn37 3.247480 1_565
La4 Zn32 3.247480 1_454
La4 Zn1 3.354078 1_555
La4 Zn14 3.354078 1_555
La4 Zn5 3.355103 1_455
La4 Zn15 3.355103 1_565
La4 Zn4 3.357908 1_465
La4 Zn11 3.357908 1_465
La4 Zn10 3.360847 1_455
La4 Zn0 3.360847 1_565
La4 Zn43 3.457216 1_565
La4 Zn42 3.457216 1_565
La4 Zn41 3.459673 1_555
La4 Zn40 3.459673 1_565
La5 Zn28 3.146589 1_555
La5 Zn25 3.146589 1_555
La5 Zn26 3.149256 1_545
La5 Zn31 3.149256 1_655
La5 Zn34 3.243365 1_555
La5 Zn39 3.243365 1_556
La5 Zn33 3.247480 1_545
La5 Zn36 3.247480 1_656
La5 Zn6 3.354078 1_555
La5 Zn9 3.354078 1_555
La5 Zn7 3.355103 1_545
La5 Zn13 3.355103 1_655
La5 Zn3 3.357908 1_645
La5 Zn12 3.357908 1_645
La5 Zn2 3.360847 1_655
La5 Zn8 3.360847 1_545
La5 Zn43 3.457216 1_655
La5 Zn42 3.457216 1_656
La5 Zn41 3.459673 1_656
La5 Zn40 3.459673 1_555
Zn0 Zn23 2.548357 1_555
Zn0 Zn40 2.622121 1_555
Zn0 Zn9 2.627485 1_555
Zn0 Zn15 2.713347 1_555
Zn0 Zn30 2.731688 1_555
Zn0 Zn34 2.733706 1_555
Zn0 Zn17 2.744337 1_555
Zn0 Zn24 2.761476 1_545
Zn0 Zn37 2.789210 1_555
Zn1 Zn23 2.547614 1_555
Zn1 Zn40 2.626090 1_565
Zn1 Zn8 2.627485 1_555
Zn1 Zn14 2.709454 1_555
Zn1 Zn29 2.729231 1_555
Zn1 Zn33 2.735611 1_555
Zn1 Zn18 2.746166 1_555
Zn1 Zn24 2.758367 1_555
Zn1 Zn38 2.791549 1_555
Zn2 Zn22 2.548357 1_555
Zn2 Zn41 2.622121 1_556
Zn2 Zn31 2.731688 1_555
Zn2 Zn35 2.733706 1_555
Zn2 Zn25 2.761476 1_455
Zn2 Zn36 2.789210 1_556
Zn3 Zn42 2.623214 1_566
Zn3 Zn31 2.726419 1_565
Zn3 Zn35 2.733485 1_555
Zn3 Zn36 2.792790 1_566
Zn4 Zn43 2.623214 1_655
Zn6 Zn9 2.709454 1_555
Zn7 Zn8 2.713347 1_555
Zn10 Zn18 2.548357 1_555
Zn10 Zn41 2.622121 1_655
Zn10 Zn6 2.627485 1_554
Zn10 Zn5 2.713347 1_555
Zn10 Zn27 2.731688 1_555
Zn10 Zn39 2.733706 1_555
Zn10 Zn20 2.744337 1_555
Zn10 Zn29 2.761476 1_655
Zn10 Zn32 2.789210 1_554
Zn11 Zn17 2.548881 1_555
Zn11 Zn42 2.623214 1_655
Zn11 Zn7 2.625953 1_544
Zn11 Zn4 2.712797 1_555
Zn11 Zn27 2.726419 1_545
Zn11 Zn39 2.733485 1_555
Zn11 Zn20 2.749093 1_555
Zn11 Zn30 2.762722 1_655
Zn11 Zn32 2.792790 1_544
Zn12 Zn16 2.548881 1_555
Zn12 Zn43 2.623214 1_565
Zn12 Zn5 2.625953 1_455
Zn12 Zn3 2.712797 1_555
Zn12 Zn26 2.726419 1_455
Zn12 Zn38 2.733485 1_555
Zn12 Zn21 2.749093 1_555
Zn12 Zn31 2.762722 1_565
Zn12 Zn33 2.792790 1_455
Zn13 Zn16 2.551629 1_555
Zn13 Zn43 2.623416 1_555
Zn13 Zn4 2.625953 1_455
Zn13 Zn2 2.713347 1_555
Zn13 Zn25 2.729485 1_455
Zn13 Zn37 2.733484 1_555
Zn13 Zn22 2.751428 1_555
Zn13 Zn31 2.760890 1_555
Zn13 Zn34 2.792991 1_455
Zn14 Zn18 2.547614 1_555
Zn14 Zn41 2.626090 1_555
Zn14 Zn2 2.627485 1_554
Zn14 Zn24 2.729231 1_555
Zn14 Zn36 2.735611 1_555
Zn14 Zn23 2.746166 1_555
Zn14 Zn29 2.758367 1_555
Zn14 Zn35 2.791549 1_554
Zn15 Zn17 2.551629 1_555
Zn15 Zn42 2.623416 1_555
Zn15 Zn3 2.625953 1_544
Zn15 Zn24 2.729485 1_545
Zn15 Zn36 2.733484 1_555
Zn15 Zn23 2.751428 1_555
Zn15 Zn30 2.760890 1_555
Zn15 Zn35 2.792991 1_544
Zn16 Zn35 2.625396 1_555
Zn16 Zn2 2.744337 1_555
Zn16 Zn26 2.747769 1_455
Zn16 Zn3 2.749093 1_555
Zn16 Zn25 2.751479 1_455
Zn16 Zn22 2.857066 1_555
Zn16 Zn21 2.861922 1_555
Zn17 Zn34 2.625396 1_555
Zn17 Zn27 2.747769 1_545
Zn17 Zn4 2.749093 1_555
Zn17 Zn24 2.751479 1_545
Zn17 Zn23 2.857066 1_555
Zn17 Zn20 2.861922 1_555
Zn18 Zn33 2.629412 1_555
Zn18 Zn24 2.748862 1_555
Zn18 Zn5 2.751428 1_555
Zn18 Zn27 2.753681 1_555
Zn18 Zn20 2.857066 1_555
Zn18 Zn23 2.857495 1_555
Zn19 Zn9 2.547614 1_555
Zn19 Zn8 2.548357 1_555
Zn19 Zn32 2.629412 1_555
Zn19 Zn6 2.746166 1_555
Zn19 Zn25 2.748862 1_555
Zn19 Zn7 2.751428 1_555
Zn19 Zn26 2.753681 1_555
Zn19 Zn21 2.857066 1_555
Zn19 Zn22 2.857495 1_555
Zn20 Zn4 2.548881 1_555
Zn20 Zn5 2.551629 1_555
Zn20 Zn39 2.625396 1_555
Zn20 Zn30 2.747769 1_655
Zn20 Zn29 2.751479 1_655
Zn21 Zn3 2.548881 1_555
Zn21 Zn7 2.551629 1_555
Zn21 Zn38 2.625396 1_555
Zn21 Zn8 2.744337 1_555
Zn21 Zn31 2.747769 1_565
Zn21 Zn28 2.751479 1_565
Zn22 Zn6 2.547614 1_555
Zn22 Zn37 2.629412 1_555
Zn22 Zn9 2.746166 1_555
Zn22 Zn28 2.748862 1_555
Zn22 Zn31 2.753681 1_555
Zn23 Zn36 2.629412 1_555
Zn23 Zn29 2.748862 1_555
Zn23 Zn30 2.753681 1_555
Zn24 Zn27 2.586944 1_555
Zn24 Zn40 2.620046 1_565
Zn24 Zn33 2.831793 1_555
Zn24 Zn34 2.835918 1_565
Zn25 Zn26 2.586944 1_555
Zn25 Zn41 2.620046 1_656
Zn25 Zn9 2.729231 1_555
Zn25 Zn6 2.758367 1_555
Zn25 Zn32 2.831793 1_555
Zn25 Zn35 2.835918 1_655
Zn26 Zn42 2.623435 1_666
Zn26 Zn8 2.731688 1_555
Zn26 Zn7 2.760890 1_555
Zn26 Zn3 2.762722 1_655
Zn26 Zn35 2.831344 1_655
Zn26 Zn32 2.833479 1_555
Zn27 Zn43 2.623435 1_665
Zn27 Zn5 2.760890 1_555
Zn27 Zn4 2.762722 1_565
Zn27 Zn34 2.831344 1_565
Zn27 Zn33 2.833479 1_555
Zn28 Zn31 2.586944 1_555
Zn28 Zn40 2.620046 1_555
Zn28 Zn6 2.729231 1_555
Zn28 Zn7 2.729485 1_545
Zn28 Zn9 2.758367 1_555
Zn28 Zn8 2.761476 1_545
Zn28 Zn37 2.831793 1_555
Zn28 Zn38 2.835918 1_545
Zn29 Zn30 2.586944 1_555
Zn29 Zn41 2.620046 1_555
Zn29 Zn5 2.729485 1_455
Zn29 Zn36 2.831793 1_555
Zn29 Zn39 2.835918 1_455
Zn30 Zn42 2.623435 1_555
Zn30 Zn4 2.726419 1_455
Zn30 Zn39 2.831344 1_455
Zn30 Zn36 2.833479 1_555
Zn31 Zn43 2.623435 1_555
Zn31 Zn38 2.831344 1_545
Zn31 Zn37 2.833479 1_555
Zn32 Zn41 2.599832 1_656
Zn32 Zn42 2.604232 1_666
Zn32 Zn35 2.648946 1_655
Zn32 Zn7 2.733484 1_555
Zn32 Zn6 2.735611 1_555
Zn33 Zn40 2.599832 1_565
Zn33 Zn43 2.604232 1_665
Zn33 Zn34 2.648946 1_565
Zn33 Zn5 2.733484 1_555
Zn33 Zn8 2.789210 1_555
Zn34 Zn43 2.599731 1_655
Zn34 Zn40 2.601556 1_555
Zn34 Zn4 2.733485 1_555
Zn34 Zn9 2.791549 1_555
Zn35 Zn42 2.599731 1_566
Zn35 Zn41 2.601556 1_556
Zn36 Zn41 2.599832 1_555
Zn36 Zn42 2.604232 1_555
Zn36 Zn39 2.648946 1_455
Zn37 Zn40 2.599832 1_555
Zn37 Zn43 2.604232 1_555
Zn37 Zn38 2.648946 1_545
Zn37 Zn9 2.735611 1_555
Zn37 Zn4 2.792790 1_455
Zn38 Zn43 2.599731 1_565
Zn38 Zn40 2.601556 1_565
Zn38 Zn8 2.733706 1_555
Zn38 Zn5 2.792991 1_455
Zn39 Zn42 2.599731 1_655
Zn39 Zn41 2.601556 1_655
Zn39 Zn6 2.791549 1_554
Zn39 Zn7 2.792991 1_544
Zn40 Zn8 2.622121 1_545
Zn40 Zn9 2.626090 1_555
Zn41 Zn6 2.626090 1_454
Zn42 Zn7 2.623416 1_444
Zn43 Zn5 2.623416 1_445
