# generated using pymatgen
data_Sr3MgCr2S2O5
_symmetry_space_group_name_H-M   'P 1'
_cell_length_a   13.82063721
_cell_length_b   13.82063721
_cell_length_c   13.82063721
_cell_angle_alpha   163.50063230
_cell_angle_beta   163.50063230
_cell_angle_gamma   23.41570402
_symmetry_Int_Tables_number   1
_chemical_formula_structural   Sr3MgCr2S2O5
_chemical_formula_sum   'Sr3 Mg1 Cr2 S2 O5'
_cell_volume   212.88225960
_cell_formula_units_Z   1
loop_
 _symmetry_equiv_pos_site_id
 _symmetry_equiv_pos_as_xyz
  1  'x, y, z'
loop_
 _atom_site_type_symbol
 _atom_site_label
 _atom_site_symmetry_multiplicity
 _atom_site_fract_x
 _atom_site_fract_y
 _atom_site_fract_z
 _atom_site_occupancy
  Sr  Sr0  1  0.50000000  0.50000000  0.00000000  1
  Sr  Sr1  1  0.63728000  0.63728000  0.00000000  1
  Sr  Sr2  1  0.36272000  0.36272000  0.00000000  1
  Mg  Mg0  1  0.75000000  0.25000000  0.50000000  1
  Cr  Cr0  1  0.07071800  0.07071800  0.00000000  1
  Cr  Cr1  1  0.92928200  0.92928200  0.00000000  1
  S  S0  1  0.19296900  0.19296900  0.00000000  1
  S  S1  1  0.80703100  0.80703100  0.00000000  1
  O  O0  1  0.07914700  0.57914700  0.50000000  1
  O  O1  1  0.57983600  0.07983600  0.50000000  1
  O  O2  1  0.92016400  0.42016400  0.50000000  1
  O  O3  1  0.42085300  0.92085300  0.50000000  1
  O  O4  1  0.00000000  0.00000000  0.00000000  1
loop_
_geom_bond_atom_site_label_1
_geom_bond_atom_site_label_2
_geom_bond_distance
_geom_bond_site_symmetry_2
Mg0 S1 2.513038 1_545
Mg0 S1 2.513038 1_556
Mg0 S0 2.513038 1_656
Mg0 S0 2.513038 1_555
Cr0 O4 1.914067 1_555
Cr0 O0 1.996164 1_544
Cr0 O0 1.996164 1_555
Cr0 O1 1.998381 1_454
Cr0 O1 1.998381 1_555
Cr1 O4 1.914067 1_665
Cr1 O3 1.996164 1_554
Cr1 O3 1.996164 1_655
Cr1 O2 1.998381 1_565
Cr1 O2 1.998381 1_554
S0 Sr1 3.183892 1_455
S0 Sr1 3.183892 1_444
S0 Sr1 3.183892 1_545
S0 Sr1 3.183892 1_556
S1 Sr2 3.183892 1_666
S1 Sr2 3.183892 1_565
S1 Sr2 3.183892 1_655
S1 Sr2 3.183892 1_554
O0 Sr1 2.531469 1_455
O0 Sr1 2.531469 1_556
O0 Sr0 2.919191 1_556
O0 Sr0 2.919191 1_455
O1 Sr1 2.519920 1_545
O1 Sr1 2.519920 1_556
O1 Sr0 2.932904 1_545
O1 Sr0 2.932904 1_556
O2 Sr2 2.519920 1_555
O2 Sr2 2.519920 1_656
O2 Sr0 2.932904 1_555
O2 Sr0 2.932904 1_656
O3 Sr2 2.531469 1_555
O3 Sr2 2.531469 1_566
O3 Sr0 2.919191 1_555
O3 Sr0 2.919191 1_566
O4 Sr0 2.804504 1_455
O4 Sr0 2.804504 1_556
O4 Sr0 2.804504 1_444
O4 Sr0 2.804504 1_545
