# generated using pymatgen
data_MgAgPd2
_symmetry_space_group_name_H-M   'P 1'
_cell_length_a   10.82810197
_cell_length_b   10.82810197
_cell_length_c   10.82810197
_cell_angle_alpha   123.61874228
_cell_angle_beta   118.80553706
_cell_angle_gamma   87.96543830
_symmetry_Int_Tables_number   1
_chemical_formula_structural   MgAgPd2
_chemical_formula_sum   'Mg1 Ag1 Pd2'
_cell_volume   878.64036148
_cell_formula_units_Z   1
loop_
 _symmetry_equiv_pos_site_id
 _symmetry_equiv_pos_as_xyz
  1  'x, y, z'
loop_
 _atom_site_type_symbol
 _atom_site_label
 _atom_site_symmetry_multiplicity
 _atom_site_fract_x
 _atom_site_fract_y
 _atom_site_fract_z
 _atom_site_occupancy
  Mg  Mg0  1  0.00000000  0.00000000  0.00000000  1
  Ag  Ag0  1  0.00000000  0.50000000  0.50000000  1
  Pd  Pd0  1  0.00000000  0.23969300  0.23969300  1
  Pd  Pd1  1  0.00000000  0.76030700  0.76030700  1
loop_
_geom_bond_atom_site_label_1
_geom_bond_atom_site_label_2
_geom_bond_distance
_geom_bond_site_symmetry_2
Mg0 Pd0 2.452187 1_555
Mg0 Pd1 2.452187 1_544
Ag0 Pd1 2.663080 1_555
Ag0 Pd0 2.663080 1_555
