# generated using pymatgen
data_GdFe4B
_symmetry_space_group_name_H-M   'P 1'
_cell_length_a   5.09876926
_cell_length_b   5.09876926
_cell_length_c   7.03883569
_cell_angle_alpha   90.00000000
_cell_angle_beta   90.00000000
_cell_angle_gamma   119.99611896
_symmetry_Int_Tables_number   1
_chemical_formula_structural   GdFe4B
_chemical_formula_sum   'Gd2 Fe8 B2'
_cell_volume   158.48171406
_cell_formula_units_Z   2
loop_
 _symmetry_equiv_pos_site_id
 _symmetry_equiv_pos_as_xyz
  1  'x, y, z'
loop_
 _atom_site_type_symbol
 _atom_site_label
 _atom_site_symmetry_multiplicity
 _atom_site_fract_x
 _atom_site_fract_y
 _atom_site_fract_z
 _atom_site_occupancy
  Gd  Gd0  1  0.50000000  0.50000000  0.00000000  1
  Gd  Gd1  1  0.50000000  0.50000000  0.50000000  1
  Fe  Fe0  1  0.16666206  0.83333794  -0.00000000  1
  Fe  Fe1  1  0.83333794  0.16666206  0.00000000  1
  Fe  Fe2  1  -0.00000000  0.00000000  0.28517503  1
  Fe  Fe3  1  0.50000000  0.00000000  0.28512178  1
  Fe  Fe4  1  -0.00000000  0.50000000  0.28512178  1
  Fe  Fe5  1  -0.00000000  0.00000000  0.71482497  1
  Fe  Fe6  1  0.50000000  0.00000000  0.71487822  1
  Fe  Fe7  1  -0.00000000  0.50000000  0.71487822  1
  B  B0  1  0.16670054  0.83329946  0.50000000  1
  B  B1  1  0.83329946  0.16670054  0.50000000  1
loop_
_geom_bond_atom_site_label_1
_geom_bond_atom_site_label_2
_geom_bond_distance
_geom_bond_site_symmetry_2
Fe0 Fe6 2.488862 1_564
Fe0 Fe3 2.488862 1_565
Fe0 Fe4 2.488862 1_555
Fe0 Fe7 2.488862 1_554
Fe0 Fe5 2.489077 1_564
Fe0 Fe2 2.489077 1_565
Fe0 Gd0 2.943759 1_555
Fe0 Gd0 2.943871 1_455
Fe0 Gd0 2.943871 1_565
Fe1 Fe4 2.488862 1_655
Fe1 Fe7 2.488862 1_654
Fe1 Fe6 2.488862 1_554
Fe1 Fe3 2.488862 1_555
Fe1 Fe5 2.489077 1_654
Fe1 Fe2 2.489077 1_655
Fe1 Gd0 2.943759 1_555
Fe1 Gd0 2.943871 1_545
Fe1 Gd0 2.943871 1_655
Fe2 Gd1 2.964224 1_445
Fe2 Gd1 2.964224 1_555
Fe2 Gd0 3.244900 1_555
Fe2 Gd0 3.244900 1_445
Fe3 Gd1 2.964287 1_545
Fe3 Gd1 2.964287 1_555
Fe3 Gd0 3.244551 1_555
Fe3 Gd0 3.244551 1_545
Fe4 Gd1 2.964287 1_455
Fe4 Gd1 2.964287 1_555
Fe4 Gd0 3.244551 1_555
Fe4 Gd0 3.244551 1_455
Fe5 Gd1 2.964224 1_445
Fe5 Gd1 2.964224 1_555
Fe5 Gd0 3.244900 1_556
Fe5 Gd0 3.244900 1_446
Fe6 Gd1 2.964287 1_545
Fe6 Gd1 2.964287 1_555
Fe6 Gd0 3.244551 1_556
Fe6 Gd0 3.244551 1_546
Fe7 Gd1 2.964287 1_455
Fe7 Gd1 2.964287 1_555
Fe7 Gd0 3.244551 1_556
Fe7 Gd0 3.244551 1_456
B0 Fe2 2.110391 1_565
B0 Fe5 2.110391 1_565
B0 Fe4 2.110407 1_555
B0 Fe3 2.110407 1_565
B0 Fe7 2.110407 1_555
B0 Fe6 2.110407 1_565
B0 Gd1 2.943419 1_555
B0 Gd1 2.944041 1_565
B0 Gd1 2.944041 1_455
B1 Fe2 2.110391 1_655
B1 Fe5 2.110391 1_655
B1 Fe7 2.110407 1_655
B1 Fe4 2.110407 1_655
B1 Fe6 2.110407 1_555
B1 Fe3 2.110407 1_555
B1 Gd1 2.943419 1_555
B1 Gd1 2.944041 1_545
B1 Gd1 2.944041 1_655
