# generated using pymatgen
data_PrGa2Co3
_symmetry_space_group_name_H-M   'P 1'
_cell_length_a   10.71757953
_cell_length_b   10.71757953
_cell_length_c   7.47403200
_cell_angle_alpha   90.00000000
_cell_angle_beta   90.00000000
_cell_angle_gamma   119.99999708
_symmetry_Int_Tables_number   1
_chemical_formula_structural   PrGa2Co3
_chemical_formula_sum   'Pr8 Ga16 Co24'
_cell_volume   743.49666859
_cell_formula_units_Z   8
loop_
 _symmetry_equiv_pos_site_id
 _symmetry_equiv_pos_as_xyz
  1  'x, y, z'
loop_
 _atom_site_type_symbol
 _atom_site_label
 _atom_site_symmetry_multiplicity
 _atom_site_fract_x
 _atom_site_fract_y
 _atom_site_fract_z
 _atom_site_occupancy
  Pr  Pr0_0  1  0.00000000  0.00000000  0.00000000  1
  Pr  Pr0_1  1  0.00000000  0.00000000  0.50000000  1
  Pr  Pr0_2  1  0.00000000  0.50000000  0.00000000  1
  Pr  Pr0_3  1  0.00000000  0.50000000  0.50000000  1
  Pr  Pr0_4  1  0.50000000  0.00000000  0.00000000  1
  Pr  Pr0_5  1  0.50000000  0.00000000  0.50000000  1
  Pr  Pr0_6  1  0.50000000  0.50000000  0.00000000  1
  Pr  Pr0_7  1  0.50000000  0.50000000  0.50000000  1
  Ga  Ga0_0  1  0.33333350  0.16666650  0.00000000  1
  Ga  Ga0_1  1  0.33333350  0.16666650  0.50000000  1
  Ga  Ga0_2  1  0.33333350  0.66666650  0.00000000  1
  Ga  Ga0_3  1  0.33333350  0.66666650  0.50000000  1
  Ga  Ga0_4  1  0.83333350  0.16666650  0.00000000  1
  Ga  Ga0_5  1  0.83333350  0.16666650  0.50000000  1
  Ga  Ga0_6  1  0.83333350  0.66666650  0.00000000  1
  Ga  Ga0_7  1  0.83333350  0.66666650  0.50000000  1
  Ga  Ga1_0  1  0.16666650  0.33333350  0.00000000  1
  Ga  Ga1_1  1  0.16666650  0.33333350  0.50000000  1
  Ga  Ga1_2  1  0.16666650  0.83333350  0.00000000  1
  Ga  Ga1_3  1  0.16666650  0.83333350  0.50000000  1
  Ga  Ga1_4  1  0.66666650  0.33333350  0.00000000  1
  Ga  Ga1_5  1  0.66666650  0.33333350  0.50000000  1
  Ga  Ga1_6  1  0.66666650  0.83333350  0.00000000  1
  Ga  Ga1_7  1  0.66666650  0.83333350  0.50000000  1
  Co  Co0_0  1  0.25000000  0.25000000  0.25000000  1
  Co  Co0_1  1  0.25000000  0.25000000  0.75000000  1
  Co  Co0_2  1  0.25000000  0.75000000  0.25000000  1
  Co  Co0_3  1  0.25000000  0.75000000  0.75000000  1
  Co  Co0_4  1  0.75000000  0.25000000  0.25000000  1
  Co  Co0_5  1  0.75000000  0.25000000  0.75000000  1
  Co  Co0_6  1  0.75000000  0.75000000  0.25000000  1
  Co  Co0_7  1  0.75000000  0.75000000  0.75000000  1
  Co  Co1_0  1  0.25000000  0.00000000  0.25000000  1
  Co  Co1_1  1  0.25000000  0.00000000  0.75000000  1
  Co  Co1_2  1  0.25000000  0.50000000  0.25000000  1
  Co  Co1_3  1  0.25000000  0.50000000  0.75000000  1
  Co  Co1_4  1  0.75000000  0.00000000  0.25000000  1
  Co  Co1_5  1  0.75000000  0.00000000  0.75000000  1
  Co  Co1_6  1  0.75000000  0.50000000  0.25000000  1
  Co  Co1_7  1  0.75000000  0.50000000  0.75000000  1
  Co  Co2_0  1  0.00000000  0.25000000  0.25000000  1
  Co  Co2_1  1  0.00000000  0.25000000  0.75000000  1
  Co  Co2_2  1  0.00000000  0.75000000  0.25000000  1
  Co  Co2_3  1  0.00000000  0.75000000  0.75000000  1
  Co  Co2_4  1  0.50000000  0.25000000  0.25000000  1
  Co  Co2_5  1  0.50000000  0.25000000  0.75000000  1
  Co  Co2_6  1  0.50000000  0.75000000  0.25000000  1
  Co  Co2_7  1  0.50000000  0.75000000  0.75000000  1
loop_
_geom_bond_atom_site_label_1
_geom_bond_atom_site_label_2
_geom_bond_distance
_geom_bond_site_symmetry_2
Pr0_0 Pr0_1 3.737016 1_555
Pr0_0 Pr0_1 3.737016 1_554
Pr0_2 Pr0_3 3.737016 1_554
Pr0_2 Pr0_3 3.737016 1_555
Pr0_4 Pr0_5 3.737016 1_555
Pr0_4 Pr0_5 3.737016 1_554
Pr0_6 Pr0_7 3.737016 1_554
Pr0_6 Pr0_7 3.737016 1_555
Ga0_0 Pr0_4 3.093896 1_555
Ga0_0 Pr0_6 3.093900 1_555
Ga0_0 Pr0_0 3.093900 1_555
Ga0_1 Pr0_5 3.093896 1_555
Ga0_1 Pr0_7 3.093900 1_555
Ga0_1 Pr0_1 3.093900 1_555
Ga0_2 Pr0_6 3.093896 1_555
Ga0_2 Pr0_4 3.093900 1_565
Ga0_2 Pr0_2 3.093900 1_555
Ga0_3 Pr0_7 3.093896 1_555
Ga0_3 Pr0_5 3.093900 1_565
Ga0_3 Pr0_3 3.093900 1_555
Ga0_4 Pr0_0 3.093896 1_655
Ga0_4 Pr0_2 3.093900 1_655
Ga0_4 Pr0_4 3.093900 1_555
Ga0_5 Pr0_1 3.093896 1_655
Ga0_5 Pr0_3 3.093900 1_655
Ga0_5 Pr0_5 3.093900 1_555
Ga0_6 Pr0_2 3.093896 1_655
Ga0_6 Pr0_6 3.093900 1_555
Ga0_6 Pr0_0 3.093900 1_665
Ga0_7 Pr0_3 3.093896 1_655
Ga0_7 Pr0_7 3.093900 1_555
Ga0_7 Pr0_1 3.093900 1_665
Ga1_0 Pr0_2 3.093896 1_555
Ga1_0 Pr0_6 3.093900 1_555
Ga1_0 Pr0_0 3.093900 1_555
Ga1_1 Pr0_3 3.093896 1_555
Ga1_1 Pr0_7 3.093900 1_555
Ga1_1 Pr0_1 3.093900 1_555
Ga1_2 Pr0_0 3.093896 1_565
Ga1_2 Pr0_4 3.093900 1_565
Ga1_2 Pr0_2 3.093900 1_555
Ga1_3 Pr0_1 3.093896 1_565
Ga1_3 Pr0_5 3.093900 1_565
Ga1_3 Pr0_3 3.093900 1_555
Ga1_4 Pr0_6 3.093896 1_555
Ga1_4 Pr0_2 3.093900 1_655
Ga1_4 Pr0_4 3.093900 1_555
Ga1_5 Pr0_7 3.093896 1_555
Ga1_5 Pr0_3 3.093900 1_655
Ga1_5 Pr0_5 3.093900 1_555
Ga1_6 Pr0_4 3.093896 1_565
Ga1_6 Pr0_6 3.093900 1_555
Ga1_6 Pr0_0 3.093900 1_665
Ga1_7 Pr0_5 3.093896 1_565
Ga1_7 Pr0_7 3.093900 1_555
Ga1_7 Pr0_1 3.093900 1_665
Co0_0 Ga1_0 2.425775 1_555
Co0_0 Ga0_1 2.425775 1_555
Co0_0 Ga0_0 2.425775 1_555
Co0_0 Ga1_1 2.425775 1_555
Co0_0 Co1_2 2.679395 1_555
Co0_0 Co1_0 2.679395 1_555
Co0_0 Co2_0 2.679395 1_555
Co0_0 Co2_4 2.679395 1_555
Co0_0 Pr0_6 3.266570 1_555
Co0_0 Pr0_1 3.266570 1_555
Co0_0 Pr0_0 3.266570 1_555
Co0_0 Pr0_7 3.266570 1_555
Co0_1 Ga0_0 2.425775 1_556
Co0_1 Ga1_0 2.425775 1_556
Co0_1 Ga1_1 2.425775 1_555
Co0_1 Ga0_1 2.425775 1_555
Co0_1 Co2_5 2.679395 1_555
Co0_1 Co1_1 2.679395 1_555
Co0_1 Co1_3 2.679395 1_555
Co0_1 Co2_1 2.679395 1_555
Co0_1 Pr0_1 3.266570 1_555
Co0_1 Pr0_6 3.266570 1_556
Co0_1 Pr0_0 3.266570 1_556
Co0_1 Pr0_7 3.266570 1_555
Co0_2 Ga0_3 2.425775 1_555
Co0_2 Ga0_2 2.425775 1_555
Co0_2 Ga1_3 2.425775 1_555
Co0_2 Ga1_2 2.425775 1_555
Co0_2 Co1_2 2.679395 1_555
Co0_2 Co1_0 2.679395 1_565
Co0_2 Co2_2 2.679395 1_555
Co0_2 Co2_6 2.679395 1_555
Co0_2 Pr0_4 3.266570 1_565
Co0_2 Pr0_5 3.266570 1_565
Co0_2 Pr0_3 3.266570 1_555
Co0_2 Pr0_2 3.266570 1_555
Co0_3 Ga0_3 2.425775 1_555
Co0_3 Ga0_2 2.425775 1_556
Co0_3 Ga1_3 2.425775 1_555
Co0_3 Ga1_2 2.425775 1_556
Co0_3 Co2_7 2.679395 1_555
Co0_3 Co2_3 2.679395 1_555
Co0_3 Co1_1 2.679395 1_565
Co0_3 Co1_3 2.679395 1_555
Co0_3 Pr0_2 3.266570 1_556
Co0_3 Pr0_5 3.266570 1_565
Co0_3 Pr0_4 3.266570 1_566
Co0_3 Pr0_3 3.266570 1_555
Co0_4 Ga1_4 2.425775 1_555
Co0_4 Ga1_5 2.425775 1_555
Co0_4 Ga0_4 2.425775 1_555
Co0_4 Ga0_5 2.425775 1_555
Co0_4 Co1_6 2.679395 1_555
Co0_4 Co2_0 2.679395 1_655
Co0_4 Co1_4 2.679395 1_555
Co0_4 Co2_4 2.679395 1_555
Co0_4 Pr0_2 3.266570 1_655
Co0_4 Pr0_3 3.266570 1_655
Co0_4 Pr0_4 3.266570 1_555
Co0_4 Pr0_5 3.266570 1_555
Co0_5 Ga1_5 2.425775 1_555
Co0_5 Ga1_4 2.425775 1_556
Co0_5 Ga0_4 2.425775 1_556
Co0_5 Ga0_5 2.425775 1_555
Co0_5 Co2_1 2.679395 1_655
Co0_5 Co2_5 2.679395 1_555
Co0_5 Co1_5 2.679395 1_555
Co0_5 Co1_7 2.679395 1_555
Co0_5 Pr0_5 3.266570 1_555
Co0_5 Pr0_2 3.266570 1_656
Co0_5 Pr0_3 3.266570 1_655
Co0_5 Pr0_4 3.266570 1_556
Co0_6 Ga0_7 2.425775 1_555
Co0_6 Ga0_6 2.425775 1_555
Co0_6 Ga1_7 2.425775 1_555
Co0_6 Ga1_6 2.425775 1_555
Co0_6 Co1_6 2.679395 1_555
Co0_6 Co1_4 2.679395 1_565
Co0_6 Co2_2 2.679395 1_655
Co0_6 Co2_6 2.679395 1_555
Co0_6 Pr0_6 3.266570 1_555
Co0_6 Pr0_1 3.266570 1_665
Co0_6 Pr0_0 3.266570 1_665
Co0_6 Pr0_7 3.266570 1_555
Co0_7 Ga1_6 2.425775 1_556
Co0_7 Ga0_7 2.425775 1_555
Co0_7 Ga0_6 2.425775 1_556
Co0_7 Ga1_7 2.425775 1_555
Co0_7 Co1_7 2.679395 1_555
Co0_7 Co2_3 2.679395 1_655
Co0_7 Co2_7 2.679395 1_555
Co0_7 Co1_5 2.679395 1_565
Co0_7 Pr0_0 3.266570 1_666
Co0_7 Pr0_1 3.266570 1_665
Co0_7 Pr0_6 3.266570 1_556
Co0_7 Pr0_7 3.266570 1_555
Co1_0 Ga1_3 2.425772 1_545
Co1_0 Ga1_2 2.425772 1_545
Co1_0 Ga0_1 2.425772 1_555
Co1_0 Ga0_0 2.425772 1_555
Co1_0 Co2_4 2.679395 1_555
Co1_0 Co2_2 2.679395 1_545
Co1_0 Pr0_5 3.266570 1_555
Co1_0 Pr0_4 3.266570 1_555
Co1_0 Pr0_1 3.266570 1_555
Co1_0 Pr0_0 3.266570 1_555
Co1_1 Ga1_3 2.425772 1_545
Co1_1 Ga1_2 2.425772 1_546
Co1_1 Ga0_1 2.425772 1_555
Co1_1 Ga0_0 2.425772 1_556
Co1_1 Co2_3 2.679395 1_545
Co1_1 Co2_5 2.679395 1_555
Co1_1 Pr0_0 3.266570 1_556
Co1_1 Pr0_5 3.266570 1_555
Co1_1 Pr0_4 3.266570 1_556
Co1_1 Pr0_1 3.266570 1_555
Co1_2 Ga0_2 2.425772 1_555
Co1_2 Ga1_0 2.425772 1_555
Co1_2 Ga1_1 2.425772 1_555
Co1_2 Ga0_3 2.425772 1_555
Co1_2 Co2_0 2.679395 1_555
Co1_2 Co2_6 2.679395 1_555
Co1_2 Pr0_2 3.266570 1_555
Co1_2 Pr0_6 3.266570 1_555
Co1_2 Pr0_7 3.266570 1_555
Co1_2 Pr0_3 3.266570 1_555
Co1_3 Ga0_2 2.425772 1_556
Co1_3 Ga1_0 2.425772 1_556
Co1_3 Ga1_1 2.425772 1_555
Co1_3 Ga0_3 2.425772 1_555
Co1_3 Co2_7 2.679395 1_555
Co1_3 Co2_1 2.679395 1_555
Co1_3 Pr0_6 3.266570 1_556
Co1_3 Pr0_7 3.266570 1_555
Co1_3 Pr0_2 3.266570 1_556
Co1_3 Pr0_3 3.266570 1_555
Co1_4 Ga1_6 2.425772 1_545
Co1_4 Ga1_7 2.425772 1_545
Co1_4 Ga0_4 2.425772 1_555
Co1_4 Ga0_5 2.425772 1_555
Co1_4 Co2_6 2.679395 1_545
Co1_4 Co2_0 2.679395 1_655
Co1_4 Pr0_5 3.266570 1_555
Co1_4 Pr0_0 3.266570 1_655
Co1_4 Pr0_4 3.266570 1_555
Co1_4 Pr0_1 3.266570 1_655
Co1_5 Ga1_7 2.425772 1_545
Co1_5 Ga0_4 2.425772 1_556
Co1_5 Ga1_6 2.425772 1_546
Co1_5 Ga0_5 2.425772 1_555
Co1_5 Co2_7 2.679395 1_545
Co1_5 Co2_1 2.679395 1_655
Co1_5 Pr0_0 3.266570 1_656
Co1_5 Pr0_5 3.266570 1_555
Co1_5 Pr0_4 3.266570 1_556
Co1_5 Pr0_1 3.266570 1_655
Co1_6 Ga0_6 2.425772 1_555
Co1_6 Ga0_7 2.425772 1_555
Co1_6 Ga1_4 2.425772 1_555
Co1_6 Ga1_5 2.425772 1_555
Co1_6 Co2_2 2.679395 1_655
Co1_6 Co2_4 2.679395 1_555
Co1_6 Pr0_3 3.266570 1_655
Co1_6 Pr0_6 3.266570 1_555
Co1_6 Pr0_7 3.266570 1_555
Co1_6 Pr0_2 3.266570 1_655
Co1_7 Ga0_7 2.425772 1_555
Co1_7 Ga0_6 2.425772 1_556
Co1_7 Ga1_4 2.425772 1_556
Co1_7 Ga1_5 2.425772 1_555
Co1_7 Co2_3 2.679395 1_655
Co1_7 Co2_5 2.679395 1_555
Co1_7 Pr0_6 3.266570 1_556
Co1_7 Pr0_3 3.266570 1_655
Co1_7 Pr0_7 3.266570 1_555
Co1_7 Pr0_2 3.266570 1_656
Co2_0 Ga0_5 2.425772 1_455
Co2_0 Ga0_4 2.425772 1_455
Co2_0 Ga1_0 2.425772 1_555
Co2_0 Ga1_1 2.425772 1_555
Co2_0 Pr0_2 3.266570 1_555
Co2_0 Pr0_1 3.266570 1_555
Co2_0 Pr0_3 3.266570 1_555
Co2_0 Pr0_0 3.266570 1_555
Co2_1 Ga0_4 2.425772 1_456
Co2_1 Ga0_5 2.425772 1_455
Co2_1 Ga1_0 2.425772 1_556
Co2_1 Ga1_1 2.425772 1_555
Co2_1 Pr0_0 3.266570 1_556
Co2_1 Pr0_1 3.266570 1_555
Co2_1 Pr0_2 3.266570 1_556
Co2_1 Pr0_3 3.266570 1_555
Co2_2 Ga1_2 2.425772 1_555
Co2_2 Ga0_6 2.425772 1_455
Co2_2 Ga1_3 2.425772 1_555
Co2_2 Ga0_7 2.425772 1_455
Co2_2 Pr0_0 3.266570 1_565
Co2_2 Pr0_2 3.266570 1_555
Co2_2 Pr0_1 3.266570 1_565
Co2_2 Pr0_3 3.266570 1_555
Co2_3 Ga1_2 2.425772 1_556
Co2_3 Ga0_6 2.425772 1_456
Co2_3 Ga1_3 2.425772 1_555
Co2_3 Ga0_7 2.425772 1_455
Co2_3 Pr0_1 3.266570 1_565
Co2_3 Pr0_0 3.266570 1_566
Co2_3 Pr0_2 3.266570 1_556
Co2_3 Pr0_3 3.266570 1_555
Co2_4 Ga0_1 2.425772 1_555
Co2_4 Ga1_4 2.425772 1_555
Co2_4 Ga0_0 2.425772 1_555
Co2_4 Ga1_5 2.425772 1_555
Co2_4 Pr0_5 3.266570 1_555
Co2_4 Pr0_6 3.266570 1_555
Co2_4 Pr0_4 3.266570 1_555
Co2_4 Pr0_7 3.266570 1_555
Co2_5 Ga0_1 2.425772 1_555
Co2_5 Ga0_0 2.425772 1_556
Co2_5 Ga1_4 2.425772 1_556
Co2_5 Ga1_5 2.425772 1_555
Co2_5 Pr0_6 3.266570 1_556
Co2_5 Pr0_5 3.266570 1_555
Co2_5 Pr0_7 3.266570 1_555
Co2_5 Pr0_4 3.266570 1_556
Co2_6 Ga1_6 2.425772 1_555
Co2_6 Ga0_3 2.425772 1_555
Co2_6 Ga0_2 2.425772 1_555
Co2_6 Ga1_7 2.425772 1_555
Co2_6 Pr0_4 3.266570 1_565
Co2_6 Pr0_6 3.266570 1_555
Co2_6 Pr0_7 3.266570 1_555
Co2_6 Pr0_5 3.266570 1_565
Co2_7 Ga0_3 2.425772 1_555
Co2_7 Ga0_2 2.425772 1_556
Co2_7 Ga1_6 2.425772 1_556
Co2_7 Ga1_7 2.425772 1_555
Co2_7 Pr0_6 3.266570 1_556
Co2_7 Pr0_7 3.266570 1_555
Co2_7 Pr0_4 3.266570 1_566
Co2_7 Pr0_5 3.266570 1_565
