# generated using pymatgen
data_Ta2O5
_symmetry_space_group_name_H-M   'P 1'
_cell_length_a   11.73994397
_cell_length_b   12.54122971
_cell_length_c   12.03552768
_cell_angle_alpha   89.75424292
_cell_angle_beta   90.10335138
_cell_angle_gamma   93.89425927
_symmetry_Int_Tables_number   1
_chemical_formula_structural   Ta2O5
_chemical_formula_sum   'Ta30 O75'
_cell_volume   1767.92111227
_cell_formula_units_Z   15
loop_
 _symmetry_equiv_pos_site_id
 _symmetry_equiv_pos_as_xyz
  1  'x, y, z'
loop_
 _atom_site_type_symbol
 _atom_site_label
 _atom_site_symmetry_multiplicity
 _atom_site_fract_x
 _atom_site_fract_y
 _atom_site_fract_z
 _atom_site_occupancy
  Ta  Ta0  1  0.41929169  0.66068503  0.30705424  1
  Ta  Ta1  1  0.04146057  0.49754417  0.77429137  1
  Ta  Ta2  1  0.48390829  0.70899813  0.61296824  1
  Ta  Ta3  1  0.11531857  0.33220717  0.24750595  1
  Ta  Ta4  1  0.03708894  0.88450593  0.32130520  1
  Ta  Ta5  1  0.28394703  0.75744558  0.85840231  1
  Ta  Ta6  1  0.78135770  0.90330152  0.14676336  1
  Ta  Ta7  1  0.20865793  0.61293096  0.52542037  1
  Ta  Ta8  1  0.98481547  0.69180470  0.08943590  1
  Ta  Ta9  1  0.35468754  0.96916693  0.29152737  1
  Ta  Ta10  1  0.76761255  0.52179879  0.91014560  1
  Ta  Ta11  1  0.68295710  0.53418673  0.67243197  1
  Ta  Ta12  1  0.13021614  0.31005219  0.99920745  1
  Ta  Ta13  1  0.13729722  0.99025666  0.78192839  1
  Ta  Ta14  1  0.43168243  0.30169669  0.93840622  1
  Ta  Ta15  1  0.37005114  0.81585569  0.08693720  1
  Ta  Ta16  1  0.35073879  0.51665477  0.74764129  1
  Ta  Ta17  1  0.34944622  0.24659290  0.41762770  1
  Ta  Ta18  1  0.52839674  0.39763150  0.22744378  1
  Ta  Ta19  1  0.90810159  0.09099443  0.93981428  1
  Ta  Ta20  1  0.91479143  0.63824249  0.48356438  1
  Ta  Ta21  1  0.69528741  0.66355077  0.15534206  1
  Ta  Ta22  1  0.84864438  0.45644955  0.25141445  1
  Ta  Ta23  1  0.96025386  0.75772974  0.78623444  1
  Ta  Ta24  1  0.72645866  0.83103755  0.60834111  1
  Ta  Ta25  1  0.72925394  0.29274288  0.50309761  1
  Ta  Ta26  1  0.70869614  0.26367802  0.06893354  1
  Ta  Ta27  1  0.93895499  0.13878442  0.43596641  1
  Ta  Ta28  1  0.65799126  0.03671818  0.38524275  1
  Ta  Ta29  1  0.31399948  0.22581764  0.66647349  1
  O  O0  1  0.57200286  0.24070181  0.97258037  1
  O  O1  1  0.63314505  0.17416421  0.45575939  1
  O  O2  1  0.26059230  0.91578913  0.81923992  1
  O  O3  1  0.97600586  0.64164342  0.69246592  1
  O  O4  1  0.83298912  0.76561390  0.52040270  1
  O  O5  1  0.33367506  0.11962389  0.33957817  1
  O  O6  1  0.43249609  0.80478574  0.94600922  1
  O  O7  1  0.27620766  0.61289343  0.37745062  1
  O  O8  1  0.30473487  0.60439009  0.86878235  1
  O  O9  1  0.93475551  0.74607464  0.94503291  1
  O  O10  1  0.99552682  0.22927996  0.94932658  1
  O  O11  1  0.65034309  0.68080720  0.60045177  1
  O  O12  1  0.67744632  0.60419517  0.00710495  1
  O  O13  1  0.68338320  0.43930267  0.79847621  1
  O  O14  1  0.18451653  0.54208860  0.68832078  1
  O  O15  1  0.76519409  0.62469462  0.78218192  1
  O  O16  1  0.00959416  0.76649636  0.41026251  1
  O  O17  1  0.96781387  0.40090422  0.69319493  1
  O  O18  1  0.05133555  0.56400349  0.49168237  1
  O  O19  1  0.81569931  0.83345707  0.73675515  1
  O  O20  1  0.42505648  0.19738425  0.56025070  1
  O  O21  1  0.50065293  0.99277077  0.37510134  1
  O  O22  1  0.12713797  0.40974764  0.87638098  1
  O  O23  1  0.65509673  0.80260985  0.09531323  1
  O  O24  1  0.91075336  0.94293067  0.24389482  1
  O  O25  1  0.44742515  0.51470018  0.28103792  1
  O  O26  1  0.81005342  0.54660363  0.57254831  1
  O  O27  1  0.92917833  0.52750144  0.89170846  1
  O  O28  1  0.09781478  0.61362937  0.06085663  1
  O  O29  1  0.19501996  0.11254815  0.69893481  1
  O  O30  1  0.77577302  0.37445603  0.38204255  1
  O  O31  1  0.25960260  0.33277976  0.31498491  1
  O  O32  1  0.12337282  0.73496047  0.82496249  1
  O  O33  1  0.00256652  0.43740490  0.28486959  1
  O  O34  1  0.05558085  0.79706265  0.18905675  1
  O  O35  1  0.14725057  0.41594318  0.11257079  1
  O  O36  1  0.03593156  0.23548992  0.36204991  1
  O  O37  1  0.19397061  0.94225326  0.31813381  1
  O  O38  1  0.00217564  0.00528232  0.43881975  1
  O  O39  1  0.78577499  0.14243643  0.03862721  1
  O  O40  1  0.65420352  0.38694416  0.59312688  1
  O  O41  1  0.43402447  0.43200001  0.86510189  1
  O  O42  1  0.81283964  0.12041998  0.34688787  1
  O  O43  1  0.23004148  0.79646646  0.02007658  1
  O  O44  1  0.37571189  0.81978809  0.28481829  1
  O  O45  1  0.66829892  0.49147402  0.21008939  1
  O  O46  1  0.48539427  0.32691193  0.36867434  1
  O  O47  1  0.37795055  0.97190677  0.13728057  1
  O  O48  1  0.44880162  0.37129875  0.09459217  1
  O  O49  1  0.06136660  0.02714806  0.90972860  1
  O  O50  1  0.38794118  0.67717432  0.14653597  1
  O  O51  1  0.30971787  0.37471934  0.69828504  1
  O  O52  1  0.27431734  0.25473491  0.97929841  1
  O  O53  1  0.75222851  0.38871458  0.98721719  1
  O  O54  1  0.09912009  0.22077243  0.14520212  1
  O  O55  1  0.85083416  0.95205710  0.01543704  1
  O  O56  1  0.84933430  0.58851512  0.35312095  1
  O  O57  1  0.58953700  0.68347969  0.26939451  1
  O  O58  1  0.71899552  0.95310222  0.49670938  1
  O  O59  1  0.61542231  0.26683683  0.19740717  1
  O  O60  1  0.84710879  0.08989362  0.80719925  1
  O  O61  1  0.83413214  0.33175806  0.16698180  1
  O  O62  1  0.40152162  0.21669970  0.80332225  1
  O  O63  1  0.56516813  0.84873054  0.63765413  1
  O  O64  1  0.82981450  0.75783653  0.18845184  1
  O  O65  1  0.85991218  0.21895068  0.55064574  1
  O  O66  1  0.03227685  0.88911050  0.71681221  1
  O  O67  1  0.37347029  0.75040278  0.72301130  1
  O  O68  1  0.20745963  0.74986283  0.55229372  1
  O  O69  1  0.23173996  0.26391266  0.52618109  1
  O  O70  1  0.86480348  0.57269398  0.13268351  1
  O  O71  1  0.51639098  0.57221112  0.71148148  1
  O  O72  1  0.46918370  0.71687678  0.45782267  1
  O  O73  1  0.68160487  0.98350187  0.23670130  1
  O  O74  1  0.36189180  0.57594734  0.58863424  1
loop_
_geom_bond_atom_site_label_1
_geom_bond_atom_site_label_2
_geom_bond_distance
_geom_bond_site_symmetry_2
O0 Ta14 1.906336 1_555
O0 Ta26 1.984056 1_556
O1 Ta25 1.893743 1_555
O1 Ta28 1.964284 1_555
O2 Ta13 1.829405 1_555
O2 Ta5 2.075161 1_555
O3 Ta23 1.865152 1_555
O3 Ta1 2.235371 1_655
O3 Ta20 2.613412 1_555
O4 Ta24 1.873273 1_555
O4 Ta20 1.971423 1_555
O5 Ta17 1.850519 1_555
O5 Ta9 2.007201 1_545
O6 Ta15 1.858478 1_556
O6 Ta5 2.088952 1_555
O7 Ta0 1.939801 1_555
O7 Ta7 1.950803 1_555
O8 Ta16 1.930141 1_555
O8 Ta5 1.954770 1_555
O9 Ta23 1.938421 1_555
O9 Ta8 1.967143 1_556
O10 Ta12 1.916013 1_655
O10 Ta19 1.957992 1_555
O11 Ta2 2.015169 1_555
O11 Ta24 2.032191 1_555
O11 Ta11 2.087839 1_555
O12 Ta10 1.927046 1_554
O12 Ta21 1.941626 1_555
O13 Ta11 1.924227 1_555
O13 Ta10 1.929438 1_555
O14 Ta1 2.019202 1_555
O14 Ta16 2.120651 1_555
O14 Ta7 2.160197 1_555
O15 Ta11 1.955683 1_555
O15 Ta10 2.006428 1_555
O16 Ta4 1.834012 1_555
O16 Ta20 2.086241 1_455
O17 Ta1 1.741801 1_655
O18 Ta20 1.909830 1_455
O18 Ta7 1.948881 1_555
O19 Ta24 1.864796 1_555
O19 Ta23 2.084954 1_555
O20 Ta29 1.880043 1_555
O20 Ta17 2.043317 1_555
O21 Ta28 1.895280 1_565
O21 Ta9 1.990809 1_555
O22 Ta12 1.933900 1_555
O22 Ta1 1.966769 1_555
O23 Ta21 1.971237 1_555
O23 Ta6 1.981022 1_555
O24 Ta4 1.934287 1_655
O24 Ta6 1.953796 1_555
O25 Ta0 1.909580 1_555
O25 Ta18 1.917078 1_555
O26 Ta11 1.915489 1_555
O26 Ta20 1.944733 1_555
O27 Ta10 1.906583 1_555
O27 Ta1 1.988563 1_655
O28 Ta8 1.737991 1_455
O29 Ta13 1.912404 1_545
O29 Ta29 1.961974 1_555
O30 Ta25 1.839897 1_555
O30 Ta22 2.032861 1_555
O31 Ta3 1.876784 1_555
O31 Ta17 1.986367 1_555
O32 Ta5 1.929055 1_555
O32 Ta23 2.008973 1_455
O33 Ta22 1.881417 1_455
O33 Ta3 1.984801 1_555
O34 Ta8 1.931674 1_455
O34 Ta4 1.957490 1_555
O35 Ta12 1.908828 1_554
O35 Ta3 1.953170 1_555
O36 Ta27 1.834491 1_455
O36 Ta3 2.019194 1_555
O37 Ta9 1.921265 1_555
O37 Ta4 1.933120 1_555
O38 Ta27 1.877091 1_455
O38 Ta4 2.137160 1_545
O39 Ta26 1.859223 1_555
O39 Ta19 2.007875 1_554
O40 Ta25 1.871341 1_555
O40 Ta11 2.089069 1_555
O41 Ta14 1.852361 1_555
O41 Ta16 2.050579 1_555
O42 Ta27 1.828844 1_555
O42 Ta28 2.087937 1_555
O43 Ta15 1.830590 1_555
O43 Ta5 2.116821 1_554
O44 Ta9 1.908200 1_555
O44 Ta0 2.109119 1_555
O44 Ta15 2.383039 1_555
O45 Ta18 1.965429 1_555
O45 Ta22 2.245817 1_555
O45 Ta21 2.255534 1_555
O46 Ta17 1.920678 1_555
O46 Ta18 1.964712 1_555
O47 Ta9 1.876739 1_555
O47 Ta15 2.047236 1_555
O48 Ta18 1.869779 1_555
O48 Ta14 2.079615 1_554
O49 Ta13 1.855167 1_545
O49 Ta19 2.051914 1_455
O50 Ta15 1.903141 1_555
O50 Ta0 1.978610 1_555
O51 Ta16 1.909176 1_555
O51 Ta29 1.911881 1_555
O52 Ta12 1.887588 1_555
O52 Ta14 1.963464 1_555
O53 Ta26 1.888694 1_556
O53 Ta10 1.903977 1_555
O54 Ta3 1.866312 1_555
O54 Ta12 2.098654 1_554
O55 Ta6 1.861724 1_555
O55 Ta19 2.036172 1_564
O56 Ta20 1.839341 1_555
O56 Ta22 2.063301 1_555
O57 Ta21 1.881300 1_555
O57 Ta0 2.050950 1_555
O58 Ta28 1.870520 1_565
O58 Ta24 2.038730 1_555
O59 Ta26 1.898438 1_555
O59 Ta18 2.024656 1_555
O60 Ta19 1.747900 1_555
O61 Ta22 1.866524 1_555
O61 Ta26 2.030200 1_555
O62 Ta29 1.946752 1_555
O62 Ta14 1.966324 1_555
O63 Ta24 1.954317 1_555
O63 Ta2 1.961043 1_555
O64 Ta21 1.949213 1_555
O64 Ta6 2.008871 1_555
O64 Ta8 2.374500 1_555
O65 Ta25 1.929238 1_555
O65 Ta27 1.979943 1_555
O66 Ta13 1.880429 1_555
O66 Ta23 1.982272 1_455
O67 Ta5 1.946201 1_555
O67 Ta2 1.951484 1_555
O68 Ta7 1.749848 1_555
O69 Ta17 1.927014 1_555
O69 Ta29 2.015378 1_555
O70 Ta22 2.036875 1_555
O70 Ta8 2.048791 1_555
O70 Ta21 2.376111 1_555
O71 Ta16 2.067196 1_555
O71 Ta11 2.098591 1_555
O71 Ta2 2.136318 1_555
O72 Ta2 1.877731 1_555
O72 Ta0 2.020757 1_555
O73 Ta6 1.930990 1_555
O73 Ta28 1.937928 1_565
O74 Ta7 2.033613 1_555
O74 Ta16 2.051325 1_555
O74 Ta2 2.144770 1_555
