# generated using pymatgen
data_ZnS
_symmetry_space_group_name_H-M   'P 1'
_cell_length_a   12.40135765
_cell_length_b   13.56647482
_cell_length_c   13.62879606
_cell_angle_alpha   88.35193809
_cell_angle_beta   95.59955257
_cell_angle_gamma   92.88502403
_symmetry_Int_Tables_number   1
_chemical_formula_structural   ZnS
_chemical_formula_sum   'Zn50 S50'
_cell_volume   2278.45549850
_cell_formula_units_Z   50
loop_
 _symmetry_equiv_pos_site_id
 _symmetry_equiv_pos_as_xyz
  1  'x, y, z'
loop_
 _atom_site_type_symbol
 _atom_site_label
 _atom_site_symmetry_multiplicity
 _atom_site_fract_x
 _atom_site_fract_y
 _atom_site_fract_z
 _atom_site_occupancy
  Zn  Zn0  1  0.34063781  0.54097569  0.97811120  1
  Zn  Zn1  1  0.48762501  0.24663840  0.78575461  1
  Zn  Zn2  1  0.68484078  0.21374795  0.95932629  1
  Zn  Zn3  1  0.51369547  0.08203771  0.58084152  1
  Zn  Zn4  1  0.09411250  0.80733090  0.24192302  1
  Zn  Zn5  1  0.99764304  0.62541476  0.51276038  1
  Zn  Zn6  1  0.01838521  0.11958089  0.97212801  1
  Zn  Zn7  1  0.60027149  0.63613978  0.09812251  1
  Zn  Zn8  1  0.98788821  0.34572043  0.92556652  1
  Zn  Zn9  1  0.28122189  0.15927532  0.90861683  1
  Zn  Zn10  1  0.59313957  0.47281639  0.49679702  1
  Zn  Zn11  1  0.76888592  0.57425037  0.88077355  1
  Zn  Zn12  1  0.62990378  0.93248900  0.00763131  1
  Zn  Zn13  1  0.90028630  0.27151024  0.17793575  1
  Zn  Zn14  1  0.14363160  0.59738156  0.39888722  1
  Zn  Zn15  1  0.54574844  0.36818130  0.11453225  1
  Zn  Zn16  1  0.24553322  0.19856158  0.57529605  1
  Zn  Zn17  1  0.89752942  0.98960386  0.23264393  1
  Zn  Zn18  1  0.45494030  0.16747682  0.16910093  1
  Zn  Zn19  1  0.12503694  0.77564685  0.46037484  1
  Zn  Zn20  1  0.20412079  0.02071028  0.16822333  1
  Zn  Zn21  1  0.55001183  0.74014077  0.33490744  1
  Zn  Zn22  1  0.93405857  0.11991530  0.43540803  1
  Zn  Zn23  1  0.69153899  0.09739476  0.52737994  1
  Zn  Zn24  1  0.18816004  0.28977083  0.15002869  1
  Zn  Zn25  1  0.24752965  0.97941901  0.94982277  1
  Zn  Zn26  1  0.84650402  0.81561855  0.06711823  1
  Zn  Zn27  1  0.56051852  0.55045585  0.68304548  1
  Zn  Zn28  1  0.71818309  0.35902441  0.71028133  1
  Zn  Zn29  1  0.78397591  0.77025548  0.76502817  1
  Zn  Zn30  1  0.29176453  0.74385549  0.37093353  1
  Zn  Zn31  1  0.32723261  0.72594452  0.74337969  1
  Zn  Zn32  1  0.50277031  0.79061932  0.58594880  1
  Zn  Zn33  1  0.86619897  0.56837644  0.12617168  1
  Zn  Zn34  1  0.47179105  0.02860241  0.39125608  1
  Zn  Zn35  1  0.05979952  0.79591100  0.62355151  1
  Zn  Zn36  1  0.67087844  0.25044328  0.34164863  1
  Zn  Zn37  1  0.02552854  0.38910326  0.60010171  1
  Zn  Zn38  1  0.99457562  0.16722155  0.69987775  1
  Zn  Zn39  1  0.41589502  0.54543588  0.21096034  1
  Zn  Zn40  1  0.41284150  0.56078427  0.53958205  1
  Zn  Zn41  1  0.77930346  0.38786290  0.55125794  1
  Zn  Zn42  1  0.35647662  0.44579399  0.68365243  1
  Zn  Zn43  1  0.82256357  0.84356068  0.41671696  1
  Zn  Zn44  1  0.43954690  0.91497731  0.94935812  1
  Zn  Zn45  1  0.73762422  0.59677649  0.47634658  1
  Zn  Zn46  1  0.14531395  0.53408788  0.11342400  1
  Zn  Zn47  1  0.03509365  0.66164854  0.97062713  1
  Zn  Zn48  1  0.31592432  0.82094101  0.06956556  1
  Zn  Zn49  1  0.19043369  0.94396126  0.56453441  1
  S  S0  1  0.78398302  0.88321532  0.89127245  1
  S  S1  1  0.97320111  0.13758359  0.27192920  1
  S  S2  1  0.50801516  0.86727500  0.43619163  1
  S  S3  1  0.80206975  0.02073625  0.82620714  1
  S  S4  1  0.14156431  0.25580550  0.97795382  1
  S  S5  1  0.28584413  0.16055362  0.22421765  1
  S  S6  1  0.75360564  0.49953840  0.24001716  1
  S  S7  1  0.98620639  0.71853160  0.12671961  1
  S  S8  1  0.51341488  0.22380784  0.01759856  1
  S  S9  1  0.22205039  0.48169674  0.54132711  1
  S  S10  1  0.39606830  0.88948178  0.77183102  1
  S  S11  1  0.65330081  0.20378114  0.78735282  1
  S  S12  1  0.53104116  0.33627433  0.40134476  1
  S  S13  1  0.14566715  0.74474933  0.77545931  1
  S  S14  1  0.29433642  0.55364592  0.80433250  1
  S  S15  1  0.81552731  0.99349846  0.48447835  1
  S  S16  1  0.08653644  0.97440420  0.04015491  1
  S  S17  1  0.06806159  0.50656426  0.26025208  1
  S  S18  1  0.24120160  0.94284232  0.75121549  1
  S  S19  1  0.92429421  0.46647951  0.47464500  1
  S  S20  1  0.86846865  0.22491232  0.01001138  1
  S  S21  1  0.86436757  0.80062334  0.61152696  1
  S  S22  1  0.96872817  0.04195241  0.81689261  1
  S  S23  1  0.97677835  0.48797759  0.01744065  1
  S  S24  1  0.52120082  0.50474414  0.01275888  1
  S  S25  1  0.07719366  0.10636453  0.57251798  1
  S  S26  1  0.44848639  0.37509710  0.26444541  1
  S  S27  1  0.16080161  0.33829336  0.50333836  1
  S  S28  1  0.64418728  0.46305911  0.81481767  1
  S  S29  1  0.85849148  0.64540682  0.60943112  1
  S  S30  1  0.72883217  0.34990320  0.20067826  1
  S  S31  1  0.74345940  0.67153395  0.01439224  1
  S  S32  1  0.73302306  0.70915077  0.34830435  1
  S  S33  1  0.33326557  0.70638347  0.57821014  1
  S  S34  1  0.27085488  0.86595011  0.22871262  1
  S  S35  1  0.06116212  0.35060941  0.25759554  1
  S  S36  1  0.47502667  0.71533603  0.16945482  1
  S  S37  1  0.32082803  0.27771641  0.73030745  1
  S  S38  1  0.79951268  0.23279731  0.47494406  1
  S  S39  1  0.75140729  0.91813383  0.14925683  1
  S  S40  1  0.41422230  0.61083072  0.37326352  1
  S  S41  1  0.12703046  0.58499078  0.78245465  1
  S  S42  1  0.33581727  0.06492747  0.51158299  1
  S  S43  1  0.58133771  0.10080908  0.28144807  1
  S  S44  1  0.91533827  0.65951985  0.83111664  1
  S  S45  1  0.60060726  0.71869451  0.71505910  1
  S  S46  1  0.96429441  0.32386502  0.74322128  1
  S  S47  1  0.99401733  0.88289016  0.34857878  1
  S  S48  1  0.28918495  0.43612088  0.10917050  1
  S  S49  1  0.22390567  0.66753168  0.02204656  1
loop_
_geom_bond_atom_site_label_1
_geom_bond_atom_site_label_2
_geom_bond_distance
_geom_bond_site_symmetry_2
Zn12 Zn44 2.418374 1_554
Zn25 Zn9 2.511570 1_565
S0 S3 2.054002 1_565
S0 Zn29 2.336748 1_555
S0 Zn26 2.601578 1_556
S0 Zn12 2.719142 1_556
S1 Zn17 2.229744 1_545
S1 Zn22 2.329332 1_555
S1 Zn13 2.359086 1_555
S2 Zn32 2.269020 1_555
S2 Zn34 2.309807 1_565
S2 Zn21 2.349293 1_555
S4 Zn6 2.335775 1_555
S4 Zn8 2.355455 1_455
S4 Zn24 2.411840 1_556
S4 Zn9 2.495294 1_555
S5 Zn20 2.224322 1_555
S5 Zn18 2.292184 1_555
S5 Zn24 2.331466 1_555
S6 Zn33 2.331823 1_555
S7 Zn4 2.289908 1_655
S7 Zn26 2.299942 1_555
S7 Zn47 2.425270 1_654
S7 Zn33 2.461334 1_555
S8 Zn18 2.349237 1_555
S8 Zn2 2.352400 1_554
S8 Zn15 2.389295 1_555
S9 Zn42 2.485000 1_555
S9 Zn40 2.550296 1_555
S9 Zn14 2.605271 1_555
S9 Zn37 2.859049 1_555
S10 S18 2.077134 1_555
S10 Zn31 2.365505 1_555
S10 Zn44 2.457443 1_555
S11 Zn1 2.161184 1_555
S11 Zn2 2.344916 1_555
S11 Zn28 2.460391 1_555
S12 S26 2.105148 1_555
S12 Zn10 2.348674 1_555
S12 Zn36 2.357597 1_555
S13 S41 2.168397 1_555
S13 Zn35 2.337402 1_555
S13 Zn31 2.362742 1_555
S14 S41 2.129650 1_555
S14 Zn0 2.385303 1_555
S14 Zn42 2.437030 1_555
S14 Zn31 2.485719 1_555
S15 Zn23 2.265808 1_565
S15 Zn43 2.267112 1_555
S15 Zn22 2.328396 1_565
S16 Zn20 2.245364 1_565
S16 Zn6 2.315720 1_564
S16 Zn25 2.442870 1_554
S17 S35 2.114389 1_555
S17 Zn46 2.314466 1_555
S17 Zn14 2.374520 1_555
S18 Zn49 2.560451 1_555
S18 Zn25 2.758790 1_555
S19 Zn37 2.282995 1_655
S19 Zn5 2.349724 1_555
S19 Zn41 2.360115 1_555
S20 Zn2 2.313056 1_554
S20 Zn13 2.382212 1_555
S20 Zn8 2.486704 1_554
S20 Zn6 2.502449 1_654
S21 S29 2.104252 1_555
S21 Zn35 2.417099 1_655
S21 Zn29 2.419998 1_555
S21 Zn43 2.707411 1_555
S22 S3 2.088014 1_555
S22 Zn38 2.328785 1_555
S22 Zn6 2.402713 1_655
S23 Zn8 2.347526 1_554
S23 Zn46 2.419263 1_655
S23 Zn33 2.430290 1_555
S23 Zn47 2.512635 1_654
S24 Zn7 2.283272 1_555
S24 Zn15 2.296856 1_555
S24 Zn0 2.317287 1_554
S25 Zn38 2.293229 1_455
S25 Zn16 2.376676 1_555
S25 Zn22 2.458104 1_455
S25 Zn49 2.682036 1_545
S26 Zn39 2.444297 1_555
S26 Zn15 2.478190 1_555
S27 S9 2.112422 1_555
S27 Zn16 2.356259 1_555
S27 Zn37 2.372545 1_555
S28 Zn11 2.246522 1_555
S28 Zn27 2.312009 1_555
S28 Zn28 2.316255 1_555
S29 Zn5 2.301884 1_555
S29 Zn45 2.326058 1_555
S30 S6 2.114356 1_555
S30 Zn36 2.459911 1_555
S30 Zn15 2.472802 1_555
S30 Zn13 2.474539 1_555
S31 Zn7 2.228018 1_555
S31 Zn11 2.334471 1_554
S31 Zn26 2.370750 1_555
S31 Zn33 2.497106 1_555
S32 Zn43 2.262595 1_555
S32 Zn45 2.282315 1_555
S32 Zn21 2.317734 1_555
S33 Zn31 2.283096 1_555
S33 Zn32 2.336173 1_555
S33 Zn40 2.347367 1_555
S33 Zn30 2.857193 1_555
S34 Zn4 2.315674 1_555
S34 Zn20 2.390577 1_565
S34 Zn48 2.395171 1_555
S34 Zn30 2.515624 1_555
S35 Zn13 2.395695 1_455
S35 Zn24 2.441698 1_555
S36 Zn7 2.243808 1_555
S36 Zn21 2.380250 1_555
S36 Zn39 2.450778 1_555
S36 Zn48 2.728949 1_555
S37 Zn1 2.189055 1_555
S37 Zn42 2.380996 1_555
S37 Zn16 2.476451 1_555
S37 Zn9 2.942383 1_555
S38 Zn36 2.313054 1_555
S38 Zn23 2.354070 1_555
S38 Zn41 2.408292 1_555
S38 Zn22 2.428941 1_555
S39 Zn17 2.236078 1_555
S39 Zn26 2.256219 1_555
S39 Zn12 2.339734 1_555
S40 Zn40 2.348867 1_555
S40 Zn39 2.409177 1_555
S40 Zn30 2.413985 1_555
S40 Zn21 2.451163 1_555
S42 Zn3 2.316397 1_555
S42 Zn16 2.403952 1_555
S42 Zn49 2.520427 1_545
S42 Zn34 2.538784 1_555
S43 Zn18 2.283461 1_555
S43 Zn34 2.285461 1_555
S43 Zn36 2.391283 1_555
S44 Zn11 2.253478 1_555
S44 Zn47 2.295516 1_655
S44 Zn29 2.367321 1_555
S45 Zn32 2.263686 1_555
S45 Zn27 2.355340 1_555
S45 Zn29 2.385228 1_555
S46 Zn38 2.280757 1_555
S46 Zn37 2.299288 1_655
S46 Zn8 2.498244 1_555
S47 Zn4 2.295753 1_655
S47 Zn17 2.387076 1_555
S47 Zn43 2.431187 1_555
S47 Zn19 2.589526 1_655
S48 Zn46 2.283956 1_555
S48 Zn0 2.367705 1_554
S48 Zn24 2.375686 1_555
S48 Zn39 2.459967 1_555
S49 Zn47 2.375793 1_554
S49 Zn46 2.389110 1_555
S49 Zn48 2.397369 1_555
S49 Zn0 2.424974 1_554
