# generated using pymatgen
data_Sc2TlCu3S5
_symmetry_space_group_name_H-M   'P 1'
_cell_length_a   7.12427614
_cell_length_b   7.12427614
_cell_length_c   15.75548300
_cell_angle_alpha   90.00000000
_cell_angle_beta   90.00000000
_cell_angle_gamma   149.06739549
_symmetry_Int_Tables_number   1
_chemical_formula_structural   Sc2TlCu3S5
_chemical_formula_sum   'Sc4 Tl2 Cu6 S10'
_cell_volume   411.05621324
_cell_formula_units_Z   2
loop_
 _symmetry_equiv_pos_site_id
 _symmetry_equiv_pos_as_xyz
  1  'x, y, z'
loop_
 _atom_site_type_symbol
 _atom_site_label
 _atom_site_symmetry_multiplicity
 _atom_site_fract_x
 _atom_site_fract_y
 _atom_site_fract_z
 _atom_site_occupancy
  Sc  Sc0  1  0.69321000  0.30679000  0.59439900  1
  Sc  Sc1  1  0.30679000  0.69321000  0.40560100  1
  Sc  Sc2  1  0.30679000  0.69321000  0.09439900  1
  Sc  Sc3  1  0.69321000  0.30679000  0.90560100  1
  Tl  Tl0  1  0.56892900  0.43107100  0.25000000  1
  Tl  Tl1  1  0.43107100  0.56892900  0.75000000  1
  Cu  Cu0  1  0.91742300  0.08257700  0.54356000  1
  Cu  Cu1  1  0.08257700  0.91742300  0.45644000  1
  Cu  Cu2  1  0.08257700  0.91742300  0.04356000  1
  Cu  Cu3  1  0.91742300  0.08257700  0.95644000  1
  Cu  Cu4  1  0.85474100  0.14525900  0.25000000  1
  Cu  Cu5  1  0.14525900  0.85474100  0.75000000  1
  S  S0  1  0.25762000  0.74238000  0.25000000  1
  S  S1  1  0.74238000  0.25762000  0.75000000  1
  S  S2  1  0.67326400  0.32673600  0.06901300  1
  S  S3  1  0.32673600  0.67326400  0.93098700  1
  S  S4  1  0.32673600  0.67326400  0.56901300  1
  S  S5  1  0.67326400  0.32673600  0.43098700  1
  S  S6  1  0.93423000  0.06577000  0.11315300  1
  S  S7  1  0.06577000  0.93423000  0.88684700  1
  S  S8  1  0.06577000  0.93423000  0.61315300  1
  S  S9  1  0.93423000  0.06577000  0.38684700  1
loop_
_geom_bond_atom_site_label_1
_geom_bond_atom_site_label_2
_geom_bond_distance
_geom_bond_site_symmetry_2
Cu0 S4 2.306763 1_545
Cu0 S4 2.306763 1_655
Cu0 S8 2.313521 1_645
Cu0 S9 2.479853 1_555
Cu1 S5 2.306763 1_455
Cu1 S5 2.306763 1_565
Cu1 S9 2.313521 1_465
Cu1 S8 2.479853 1_555
Cu2 S2 2.306763 1_455
Cu2 S2 2.306763 1_565
Cu2 S6 2.313521 1_465
Cu2 S7 2.479853 1_554
Cu3 S3 2.306763 1_545
Cu3 S3 2.306763 1_655
Cu3 S7 2.313521 1_645
Cu3 S6 2.479853 1_556
Cu4 S0 2.321252 1_655
Cu4 S0 2.321252 1_545
Cu4 S9 2.416670 1_555
Cu4 S6 2.416670 1_555
Cu5 S1 2.321252 1_455
Cu5 S1 2.321252 1_565
Cu5 S8 2.416670 1_555
Cu5 S7 2.416670 1_555
S0 Sc2 2.542858 1_555
S0 Sc1 2.542858 1_555
S0 Tl0 3.213065 1_565
S0 Tl0 3.213065 1_455
S1 Sc3 2.542858 1_555
S1 Sc0 2.542858 1_555
S1 Tl1 3.213065 1_545
S1 Tl1 3.213065 1_655
S2 Sc3 2.589164 1_554
S2 Sc2 2.670518 1_655
S2 Sc2 2.670518 1_545
S2 Tl0 3.191261 1_555
S3 Sc2 2.589164 1_556
S3 Sc3 2.670518 1_565
S3 Sc3 2.670518 1_455
S3 Tl1 3.191261 1_555
S4 Sc1 2.589164 1_555
S4 Sc0 2.670518 1_565
S4 Sc0 2.670518 1_455
S4 Tl1 3.191261 1_555
S5 Sc0 2.589164 1_555
S5 Sc1 2.670518 1_655
S5 Sc1 2.670518 1_545
S5 Tl0 3.191261 1_555
S6 Sc2 2.599901 1_545
S6 Sc2 2.599901 1_655
S7 Sc3 2.599901 1_455
S7 Sc3 2.599901 1_565
S8 Sc0 2.599901 1_455
S8 Sc0 2.599901 1_565
S9 Sc1 2.599901 1_545
S9 Sc1 2.599901 1_655
