# generated using pymatgen
data_Si3Mo3W2
_symmetry_space_group_name_H-M   'P 1'
_cell_length_a   4.92780200
_cell_length_b   7.29171703
_cell_length_c   7.29171703
_cell_angle_alpha   96.75468427
_cell_angle_beta   109.74923119
_cell_angle_gamma   70.25076881
_symmetry_Int_Tables_number   1
_chemical_formula_structural   Si3Mo3W2
_chemical_formula_sum   'Si6 Mo6 W4'
_cell_volume   232.08949094
_cell_formula_units_Z   2
loop_
 _symmetry_equiv_pos_site_id
 _symmetry_equiv_pos_as_xyz
  1  'x, y, z'
loop_
 _atom_site_type_symbol
 _atom_site_label
 _atom_site_symmetry_multiplicity
 _atom_site_fract_x
 _atom_site_fract_y
 _atom_site_fract_z
 _atom_site_occupancy
  Si  Si0  1  0.25000000  0.00000000  0.00000000  1
  Si  Si1  1  0.75000000  0.00000000  0.00000000  1
  Si  Si2  1  0.33185300  0.50194200  0.16564900  1
  Si  Si3  1  0.66814700  0.49805800  0.83435100  1
  Si  Si4  1  0.83185300  0.83435100  0.49805800  1
  Si  Si5  1  0.16814700  0.16564900  0.50194200  1
  Mo  Mo0  1  0.72441000  0.69767700  0.14649800  1
  Mo  Mo1  1  0.27559000  0.30232300  0.85350200  1
  Mo  Mo2  1  0.77559000  0.14649800  0.69767700  1
  Mo  Mo3  1  0.22441000  0.85350200  0.30232300  1
  Mo  Mo4  1  0.25000000  0.50000000  0.50000000  1
  Mo  Mo5  1  0.75000000  0.50000000  0.50000000  1
  W  W0  1  0.42403600  0.85061100  0.69868300  1
  W  W1  1  0.57596400  0.14938900  0.30131700  1
  W  W2  1  0.92403600  0.30131700  0.14938900  1
  W  W3  1  0.07596400  0.69868300  0.85061100  1
loop_
_geom_bond_atom_site_label_1
_geom_bond_atom_site_label_2
_geom_bond_distance
_geom_bond_site_symmetry_2
Si0 Si1 2.463901 1_455
Si0 Si1 2.463901 1_555
Si0 W0 2.613137 1_544
Si0 W3 2.613137 1_544
Si0 W2 2.613137 1_455
Si0 W1 2.613137 1_555
Si1 W0 2.613137 1_544
Si1 W3 2.613137 1_644
Si1 W2 2.613137 1_555
Si1 W1 2.613137 1_555
Si2 W3 2.553461 1_554
Si2 W1 2.595842 1_555
Si2 W2 2.824497 1_455
Si2 W2 2.824501 1_555
Si3 W2 2.553461 1_556
Si3 W0 2.595842 1_555
Si3 W3 2.824497 1_655
Si3 W3 2.824501 1_555
Si4 W1 2.553461 1_565
Si4 W3 2.595842 1_655
Si4 W0 2.824497 1_555
Si4 W0 2.824501 1_655
Si5 W0 2.553461 1_545
Si5 W2 2.595842 1_455
Si5 W1 2.824497 1_555
Si5 W1 2.824501 1_455
Mo0 Si3 2.538313 1_554
Mo0 Si4 2.585209 1_555
Mo0 Si0 2.617146 1_565
Mo0 Si1 2.617148 1_565
Mo0 W2 2.720298 1_555
Mo0 Si2 2.809607 1_655
Mo0 Si2 2.809607 1_555
Mo0 Mo5 3.044545 1_555
Mo0 Mo4 3.044547 1_655
Mo1 Si2 2.538313 1_556
Mo1 Si5 2.585209 1_555
Mo1 Si1 2.617146 1_556
Mo1 Si0 2.617148 1_556
Mo1 W3 2.720298 1_555
Mo1 Si3 2.809607 1_455
Mo1 Si3 2.809607 1_555
Mo1 Mo4 3.044545 1_555
Mo1 Mo5 3.044547 1_455
Mo2 Si4 2.538313 1_545
Mo2 Si3 2.585209 1_555
Mo2 Si0 2.617146 1_656
Mo2 Si1 2.617148 1_556
Mo2 W1 2.720298 1_555
Mo2 Si5 2.809607 1_555
Mo2 Si5 2.809607 1_655
Mo2 Mo5 3.044545 1_555
Mo2 Mo4 3.044547 1_555
Mo3 Si5 2.538313 1_565
Mo3 Si2 2.585209 1_555
Mo3 Si1 2.617146 1_465
Mo3 Si0 2.617148 1_565
Mo3 W0 2.720298 1_555
Mo3 Si4 2.809607 1_555
Mo3 Si4 2.809607 1_455
Mo3 Mo4 3.044545 1_555
Mo3 Mo5 3.044547 1_555
Mo4 Mo5 2.463901 1_555
Mo4 Mo5 2.463901 1_455
Mo4 Si5 2.604469 1_555
Mo4 Si2 2.604469 1_555
Mo4 Si4 2.604472 1_455
Mo4 Si3 2.604472 1_555
Mo4 W2 3.023431 1_455
Mo4 W1 3.023431 1_555
Mo4 W0 3.023431 1_555
Mo4 W3 3.023431 1_555
Mo5 Si4 2.604469 1_555
Mo5 Si3 2.604469 1_555
Mo5 Si2 2.604472 1_555
Mo5 Si5 2.604472 1_655
Mo5 W2 3.023431 1_555
Mo5 W1 3.023431 1_555
Mo5 W3 3.023431 1_655
Mo5 W0 3.023431 1_555
