# generated using pymatgen
data_Ho5(In2Pd)2
_symmetry_space_group_name_H-M   'P 1'
_cell_length_a   7.23580000
_cell_length_b   16.23131400
_cell_length_c   36.48430200
_cell_angle_alpha   90.00000000
_cell_angle_beta   90.00000000
_cell_angle_gamma   90.00000000
_symmetry_Int_Tables_number   1
_chemical_formula_structural   Ho5(In2Pd)2
_chemical_formula_sum   'Ho80 In64 Pd32'
_cell_volume   4284.95510139
_cell_formula_units_Z   16
loop_
 _symmetry_equiv_pos_site_id
 _symmetry_equiv_pos_as_xyz
  1  'x, y, z'
loop_
 _atom_site_type_symbol
 _atom_site_label
 _atom_site_symmetry_multiplicity
 _atom_site_fract_x
 _atom_site_fract_y
 _atom_site_fract_z
 _atom_site_occupancy
  Ho  Ho0_0  1  0.00000000  0.25000000  0.25000000  1
  Ho  Ho0_1  1  0.00000000  0.25000000  0.75000000  1
  Ho  Ho0_2  1  0.00000000  0.75000000  0.25000000  1
  Ho  Ho0_3  1  0.00000000  0.75000000  0.75000000  1
  Ho  Ho0_4  1  0.50000000  0.25000000  0.25000000  1
  Ho  Ho0_5  1  0.50000000  0.25000000  0.75000000  1
  Ho  Ho0_6  1  0.50000000  0.75000000  0.25000000  1
  Ho  Ho0_7  1  0.50000000  0.75000000  0.75000000  1
  Ho  Ho1_0  1  0.00000000  0.00000000  0.00000000  1
  Ho  Ho1_1  1  0.00000000  0.00000000  0.50000000  1
  Ho  Ho1_2  1  0.00000000  0.50000000  0.00000000  1
  Ho  Ho1_3  1  0.00000000  0.50000000  0.50000000  1
  Ho  Ho1_4  1  0.50000000  0.00000000  0.00000000  1
  Ho  Ho1_5  1  0.50000000  0.00000000  0.50000000  1
  Ho  Ho1_6  1  0.50000000  0.50000000  0.00000000  1
  Ho  Ho1_7  1  0.50000000  0.50000000  0.50000000  1
  Ho  Ho2_0  1  0.00000000  0.37007250  0.14002000  1
  Ho  Ho2_1  1  0.00000000  0.37007250  0.64002000  1
  Ho  Ho2_2  1  0.00000000  0.87007250  0.14002000  1
  Ho  Ho2_3  1  0.00000000  0.87007250  0.64002000  1
  Ho  Ho2_4  1  0.50000000  0.37007250  0.14002000  1
  Ho  Ho2_5  1  0.50000000  0.37007250  0.64002000  1
  Ho  Ho2_6  1  0.50000000  0.87007250  0.14002000  1
  Ho  Ho2_7  1  0.50000000  0.87007250  0.64002000  1
  Ho  Ho3_0  1  0.00000000  0.12992750  0.35998000  1
  Ho  Ho3_1  1  0.00000000  0.12992750  0.85998000  1
  Ho  Ho3_2  1  0.00000000  0.62992750  0.35998000  1
  Ho  Ho3_3  1  0.00000000  0.62992750  0.85998000  1
  Ho  Ho3_4  1  0.50000000  0.12992750  0.35998000  1
  Ho  Ho3_5  1  0.50000000  0.12992750  0.85998000  1
  Ho  Ho3_6  1  0.50000000  0.62992750  0.35998000  1
  Ho  Ho3_7  1  0.50000000  0.62992750  0.85998000  1
  Ho  Ho4_0  1  0.00000000  0.37992750  0.39002000  1
  Ho  Ho4_1  1  0.00000000  0.37992750  0.89002000  1
  Ho  Ho4_2  1  0.00000000  0.87992750  0.39002000  1
  Ho  Ho4_3  1  0.00000000  0.87992750  0.89002000  1
  Ho  Ho4_4  1  0.50000000  0.37992750  0.39002000  1
  Ho  Ho4_5  1  0.50000000  0.37992750  0.89002000  1
  Ho  Ho4_6  1  0.50000000  0.87992750  0.39002000  1
  Ho  Ho4_7  1  0.50000000  0.87992750  0.89002000  1
  Ho  Ho5_0  1  0.00000000  0.12007250  0.10998000  1
  Ho  Ho5_1  1  0.00000000  0.12007250  0.60998000  1
  Ho  Ho5_2  1  0.00000000  0.62007250  0.10998000  1
  Ho  Ho5_3  1  0.00000000  0.62007250  0.60998000  1
  Ho  Ho5_4  1  0.50000000  0.12007250  0.10998000  1
  Ho  Ho5_5  1  0.50000000  0.12007250  0.60998000  1
  Ho  Ho5_6  1  0.50000000  0.62007250  0.10998000  1
  Ho  Ho5_7  1  0.50000000  0.62007250  0.60998000  1
  Ho  Ho6_0  1  0.00000000  0.30652000  0.04106100  1
  Ho  Ho6_1  1  0.00000000  0.30652000  0.54106100  1
  Ho  Ho6_2  1  0.00000000  0.80652000  0.04106100  1
  Ho  Ho6_3  1  0.00000000  0.80652000  0.54106100  1
  Ho  Ho6_4  1  0.50000000  0.30652000  0.04106100  1
  Ho  Ho6_5  1  0.50000000  0.30652000  0.54106100  1
  Ho  Ho6_6  1  0.50000000  0.80652000  0.04106100  1
  Ho  Ho6_7  1  0.50000000  0.80652000  0.54106100  1
  Ho  Ho7_0  1  0.00000000  0.19348000  0.45893900  1
  Ho  Ho7_1  1  0.00000000  0.19348000  0.95893900  1
  Ho  Ho7_2  1  0.00000000  0.69348000  0.45893900  1
  Ho  Ho7_3  1  0.00000000  0.69348000  0.95893900  1
  Ho  Ho7_4  1  0.50000000  0.19348000  0.45893900  1
  Ho  Ho7_5  1  0.50000000  0.19348000  0.95893900  1
  Ho  Ho7_6  1  0.50000000  0.69348000  0.45893900  1
  Ho  Ho7_7  1  0.50000000  0.69348000  0.95893900  1
  Ho  Ho8_0  1  0.00000000  0.44348000  0.29106100  1
  Ho  Ho8_1  1  0.00000000  0.44348000  0.79106100  1
  Ho  Ho8_2  1  0.00000000  0.94348000  0.29106100  1
  Ho  Ho8_3  1  0.00000000  0.94348000  0.79106100  1
  Ho  Ho8_4  1  0.50000000  0.44348000  0.29106100  1
  Ho  Ho8_5  1  0.50000000  0.44348000  0.79106100  1
  Ho  Ho8_6  1  0.50000000  0.94348000  0.29106100  1
  Ho  Ho8_7  1  0.50000000  0.94348000  0.79106100  1
  Ho  Ho9_0  1  0.00000000  0.05652000  0.20893900  1
  Ho  Ho9_1  1  0.00000000  0.05652000  0.70893900  1
  Ho  Ho9_2  1  0.00000000  0.55652000  0.20893900  1
  Ho  Ho9_3  1  0.00000000  0.55652000  0.70893900  1
  Ho  Ho9_4  1  0.50000000  0.05652000  0.20893900  1
  Ho  Ho9_5  1  0.50000000  0.05652000  0.70893900  1
  Ho  Ho9_6  1  0.50000000  0.55652000  0.20893900  1
  Ho  Ho9_7  1  0.50000000  0.55652000  0.70893900  1
  In  In0_0  1  0.25000000  0.35638300  0.46545200  1
  In  In0_1  1  0.25000000  0.35638300  0.96545200  1
  In  In0_2  1  0.25000000  0.85638300  0.46545200  1
  In  In0_3  1  0.25000000  0.85638300  0.96545200  1
  In  In0_4  1  0.75000000  0.35638300  0.46545200  1
  In  In0_5  1  0.75000000  0.35638300  0.96545200  1
  In  In0_6  1  0.75000000  0.85638300  0.46545200  1
  In  In0_7  1  0.75000000  0.85638300  0.96545200  1
  In  In1_0  1  0.25000000  0.14361700  0.03454800  1
  In  In1_1  1  0.25000000  0.14361700  0.53454800  1
  In  In1_2  1  0.25000000  0.64361700  0.03454800  1
  In  In1_3  1  0.25000000  0.64361700  0.53454800  1
  In  In1_4  1  0.75000000  0.14361700  0.03454800  1
  In  In1_5  1  0.75000000  0.14361700  0.53454800  1
  In  In1_6  1  0.75000000  0.64361700  0.03454800  1
  In  In1_7  1  0.75000000  0.64361700  0.53454800  1
  In  In2_0  1  0.25000000  0.39361700  0.21545200  1
  In  In2_1  1  0.25000000  0.39361700  0.71545200  1
  In  In2_2  1  0.25000000  0.89361700  0.21545200  1
  In  In2_3  1  0.25000000  0.89361700  0.71545200  1
  In  In2_4  1  0.75000000  0.39361700  0.21545200  1
  In  In2_5  1  0.75000000  0.39361700  0.71545200  1
  In  In2_6  1  0.75000000  0.89361700  0.21545200  1
  In  In2_7  1  0.75000000  0.89361700  0.71545200  1
  In  In3_0  1  0.25000000  0.10638300  0.28454800  1
  In  In3_1  1  0.25000000  0.10638300  0.78454800  1
  In  In3_2  1  0.25000000  0.60638300  0.28454800  1
  In  In3_3  1  0.25000000  0.60638300  0.78454800  1
  In  In3_4  1  0.75000000  0.10638300  0.28454800  1
  In  In3_5  1  0.75000000  0.10638300  0.78454800  1
  In  In3_6  1  0.75000000  0.60638300  0.28454800  1
  In  In3_7  1  0.75000000  0.60638300  0.78454800  1
  In  In4_0  1  0.25000000  0.29055100  0.32447850  1
  In  In4_1  1  0.25000000  0.29055100  0.82447850  1
  In  In4_2  1  0.25000000  0.79055100  0.32447850  1
  In  In4_3  1  0.25000000  0.79055100  0.82447850  1
  In  In4_4  1  0.75000000  0.29055100  0.32447850  1
  In  In4_5  1  0.75000000  0.29055100  0.82447850  1
  In  In4_6  1  0.75000000  0.79055100  0.32447850  1
  In  In4_7  1  0.75000000  0.79055100  0.82447850  1
  In  In5_0  1  0.25000000  0.20944900  0.17552150  1
  In  In5_1  1  0.25000000  0.20944900  0.67552150  1
  In  In5_2  1  0.25000000  0.70944900  0.17552150  1
  In  In5_3  1  0.25000000  0.70944900  0.67552150  1
  In  In5_4  1  0.75000000  0.20944900  0.17552150  1
  In  In5_5  1  0.75000000  0.20944900  0.67552150  1
  In  In5_6  1  0.75000000  0.70944900  0.17552150  1
  In  In5_7  1  0.75000000  0.70944900  0.67552150  1
  In  In6_0  1  0.25000000  0.45944900  0.07447850  1
  In  In6_1  1  0.25000000  0.45944900  0.57447850  1
  In  In6_2  1  0.25000000  0.95944900  0.07447850  1
  In  In6_3  1  0.25000000  0.95944900  0.57447850  1
  In  In6_4  1  0.75000000  0.45944900  0.07447850  1
  In  In6_5  1  0.75000000  0.45944900  0.57447850  1
  In  In6_6  1  0.75000000  0.95944900  0.07447850  1
  In  In6_7  1  0.75000000  0.95944900  0.57447850  1
  In  In7_0  1  0.25000000  0.04055100  0.42552150  1
  In  In7_1  1  0.25000000  0.04055100  0.92552150  1
  In  In7_2  1  0.25000000  0.54055100  0.42552150  1
  In  In7_3  1  0.25000000  0.54055100  0.92552150  1
  In  In7_4  1  0.75000000  0.04055100  0.42552150  1
  In  In7_5  1  0.75000000  0.04055100  0.92552150  1
  In  In7_6  1  0.75000000  0.54055100  0.42552150  1
  In  In7_7  1  0.75000000  0.54055100  0.92552150  1
  Pd  Pd0_0  1  0.25000000  0.26239800  0.09810000  1
  Pd  Pd0_1  1  0.25000000  0.26239800  0.59810000  1
  Pd  Pd0_2  1  0.25000000  0.76239800  0.09810000  1
  Pd  Pd0_3  1  0.25000000  0.76239800  0.59810000  1
  Pd  Pd0_4  1  0.75000000  0.26239800  0.09810000  1
  Pd  Pd0_5  1  0.75000000  0.26239800  0.59810000  1
  Pd  Pd0_6  1  0.75000000  0.76239800  0.09810000  1
  Pd  Pd0_7  1  0.75000000  0.76239800  0.59810000  1
  Pd  Pd1_0  1  0.25000000  0.23760200  0.40190000  1
  Pd  Pd1_1  1  0.25000000  0.23760200  0.90190000  1
  Pd  Pd1_2  1  0.25000000  0.73760200  0.40190000  1
  Pd  Pd1_3  1  0.25000000  0.73760200  0.90190000  1
  Pd  Pd1_4  1  0.75000000  0.23760200  0.40190000  1
  Pd  Pd1_5  1  0.75000000  0.23760200  0.90190000  1
  Pd  Pd1_6  1  0.75000000  0.73760200  0.40190000  1
  Pd  Pd1_7  1  0.75000000  0.73760200  0.90190000  1
  Pd  Pd2_0  1  0.25000000  0.48760200  0.34810000  1
  Pd  Pd2_1  1  0.25000000  0.48760200  0.84810000  1
  Pd  Pd2_2  1  0.25000000  0.98760200  0.34810000  1
  Pd  Pd2_3  1  0.25000000  0.98760200  0.84810000  1
  Pd  Pd2_4  1  0.75000000  0.48760200  0.34810000  1
  Pd  Pd2_5  1  0.75000000  0.48760200  0.84810000  1
  Pd  Pd2_6  1  0.75000000  0.98760200  0.34810000  1
  Pd  Pd2_7  1  0.75000000  0.98760200  0.84810000  1
  Pd  Pd3_0  1  0.25000000  0.01239800  0.15190000  1
  Pd  Pd3_1  1  0.25000000  0.01239800  0.65190000  1
  Pd  Pd3_2  1  0.25000000  0.51239800  0.15190000  1
  Pd  Pd3_3  1  0.25000000  0.51239800  0.65190000  1
  Pd  Pd3_4  1  0.75000000  0.01239800  0.15190000  1
  Pd  Pd3_5  1  0.75000000  0.01239800  0.65190000  1
  Pd  Pd3_6  1  0.75000000  0.51239800  0.15190000  1
  Pd  Pd3_7  1  0.75000000  0.51239800  0.65190000  1
loop_
_geom_bond_atom_site_label_1
_geom_bond_atom_site_label_2
_geom_bond_distance
_geom_bond_site_symmetry_2
Ho0_0 In3_0 3.208590 1_555
Ho0_0 In3_4 3.208590 1_455
Ho0_0 In2_0 3.208590 1_555
Ho0_0 In2_4 3.208590 1_455
Ho0_0 In5_0 3.330048 1_555
Ho0_0 In5_4 3.330048 1_455
Ho0_0 In4_0 3.330048 1_555
Ho0_0 In4_4 3.330048 1_455
Ho0_0 Ho8_0 3.479451 1_555
Ho0_0 Ho9_0 3.479451 1_555
Ho0_0 Ho0_4 3.617900 1_555
Ho0_0 Ho0_4 3.617900 1_455
Ho0_1 In3_1 3.208590 1_555
Ho0_1 In3_5 3.208590 1_455
Ho0_1 In2_1 3.208590 1_555
Ho0_1 In2_5 3.208590 1_455
Ho0_1 In5_1 3.330048 1_555
Ho0_1 In5_5 3.330048 1_455
Ho0_1 In4_1 3.330048 1_555
Ho0_1 In4_5 3.330048 1_455
Ho0_1 Ho8_1 3.479451 1_555
Ho0_1 Ho9_1 3.479451 1_555
Ho0_1 Ho0_5 3.617900 1_455
Ho0_1 Ho0_5 3.617900 1_555
Ho0_2 In3_2 3.208590 1_555
Ho0_2 In3_6 3.208590 1_455
Ho0_2 In2_2 3.208590 1_555
Ho0_2 In2_6 3.208590 1_455
Ho0_2 In4_2 3.330048 1_555
Ho0_2 In5_2 3.330048 1_555
Ho0_2 In4_6 3.330048 1_455
Ho0_2 In5_6 3.330048 1_455
Ho0_2 Ho8_2 3.479451 1_555
Ho0_2 Ho9_2 3.479451 1_555
Ho0_2 Ho0_6 3.617900 1_555
Ho0_2 Ho0_6 3.617900 1_455
Ho0_3 In3_3 3.208590 1_555
Ho0_3 In3_7 3.208590 1_455
Ho0_3 In2_3 3.208590 1_555
Ho0_3 In2_7 3.208590 1_455
Ho0_3 In5_3 3.330048 1_555
Ho0_3 In5_7 3.330048 1_455
Ho0_3 In4_3 3.330048 1_555
Ho0_3 In4_7 3.330048 1_455
Ho0_3 Ho8_3 3.479451 1_555
Ho0_3 Ho9_3 3.479451 1_555
Ho0_3 Ho0_7 3.617900 1_455
Ho0_3 Ho0_7 3.617900 1_555
Ho0_4 In3_4 3.208590 1_555
Ho0_4 In3_0 3.208590 1_555
Ho0_4 In2_4 3.208590 1_555
Ho0_4 In2_0 3.208590 1_555
Ho0_4 In5_4 3.330048 1_555
Ho0_4 In5_0 3.330048 1_555
Ho0_4 In4_4 3.330048 1_555
Ho0_4 In4_0 3.330048 1_555
Ho0_4 Ho8_4 3.479451 1_555
Ho0_4 Ho9_4 3.479451 1_555
Ho0_5 In3_5 3.208590 1_555
Ho0_5 In3_1 3.208590 1_555
Ho0_5 In2_5 3.208590 1_555
Ho0_5 In2_1 3.208590 1_555
Ho0_5 In5_5 3.330048 1_555
Ho0_5 In5_1 3.330048 1_555
Ho0_5 In4_5 3.330048 1_555
Ho0_5 In4_1 3.330048 1_555
Ho0_5 Ho8_5 3.479451 1_555
Ho0_5 Ho9_5 3.479451 1_555
Ho0_6 In3_6 3.208590 1_555
Ho0_6 In3_2 3.208590 1_555
Ho0_6 In2_6 3.208590 1_555
Ho0_6 In2_2 3.208590 1_555
Ho0_6 In5_6 3.330048 1_555
Ho0_6 In4_6 3.330048 1_555
Ho0_6 In4_2 3.330048 1_555
Ho0_6 In5_2 3.330048 1_555
Ho0_6 Ho8_6 3.479451 1_555
Ho0_6 Ho9_6 3.479451 1_555
Ho0_7 In3_7 3.208590 1_555
Ho0_7 In3_3 3.208590 1_555
Ho0_7 In2_7 3.208590 1_555
Ho0_7 In2_3 3.208590 1_555
Ho0_7 In5_7 3.330048 1_555
Ho0_7 In5_3 3.330048 1_555
Ho0_7 In4_7 3.330048 1_555
Ho0_7 In4_3 3.330048 1_555
Ho0_7 Ho8_7 3.479451 1_555
Ho0_7 Ho9_7 3.479451 1_555
Ho1_0 In1_0 3.208590 1_555
Ho1_0 In1_4 3.208590 1_455
Ho1_0 In0_3 3.208590 1_544
Ho1_0 In0_7 3.208590 1_444
Ho1_0 In7_1 3.330048 1_554
Ho1_0 In7_5 3.330048 1_454
Ho1_0 In6_2 3.330048 1_545
Ho1_0 In6_6 3.330048 1_445
Ho1_0 Ho7_1 3.479451 1_554
Ho1_0 Ho6_2 3.479451 1_545
Ho1_0 Ho1_4 3.617900 1_555
Ho1_0 Ho1_4 3.617900 1_455
Ho1_1 In1_5 3.208590 1_455
Ho1_1 In1_1 3.208590 1_555
Ho1_1 In0_2 3.208590 1_545
Ho1_1 In0_6 3.208590 1_445
Ho1_1 In7_0 3.330048 1_555
Ho1_1 In7_4 3.330048 1_455
Ho1_1 In6_7 3.330048 1_445
Ho1_1 In6_3 3.330048 1_545
Ho1_1 Ho7_0 3.479451 1_555
Ho1_1 Ho6_3 3.479451 1_545
Ho1_1 Ho1_5 3.617900 1_555
Ho1_1 Ho1_5 3.617900 1_455
Ho1_2 In1_2 3.208590 1_555
Ho1_2 In1_6 3.208590 1_455
Ho1_2 In0_1 3.208590 1_554
Ho1_2 In0_5 3.208590 1_454
Ho1_2 In7_3 3.330048 1_554
Ho1_2 In7_7 3.330048 1_454
Ho1_2 In6_0 3.330048 1_555
Ho1_2 In6_4 3.330048 1_455
Ho1_2 Ho7_3 3.479451 1_554
Ho1_2 Ho6_0 3.479451 1_555
Ho1_2 Ho1_6 3.617900 1_455
Ho1_2 Ho1_6 3.617900 1_555
Ho1_3 In1_3 3.208590 1_555
Ho1_3 In1_7 3.208590 1_455
Ho1_3 In0_0 3.208590 1_555
Ho1_3 In0_4 3.208590 1_455
Ho1_3 In7_2 3.330048 1_555
Ho1_3 In7_6 3.330048 1_455
Ho1_3 In6_1 3.330048 1_555
Ho1_3 In6_5 3.330048 1_455
Ho1_3 Ho7_2 3.479451 1_555
Ho1_3 Ho6_1 3.479451 1_555
Ho1_3 Ho1_7 3.617900 1_555
Ho1_3 Ho1_7 3.617900 1_455
Ho1_4 In1_4 3.208590 1_555
Ho1_4 In1_0 3.208590 1_555
Ho1_4 In0_7 3.208590 1_544
Ho1_4 In0_3 3.208590 1_544
Ho1_4 In7_5 3.330048 1_554
Ho1_4 In7_1 3.330048 1_554
Ho1_4 In6_6 3.330048 1_545
Ho1_4 In6_2 3.330048 1_545
Ho1_4 Ho7_5 3.479451 1_554
Ho1_4 Ho6_6 3.479451 1_545
Ho1_5 In1_5 3.208590 1_555
Ho1_5 In1_1 3.208590 1_555
Ho1_5 In0_6 3.208590 1_545
Ho1_5 In0_2 3.208590 1_545
Ho1_5 In7_4 3.330048 1_555
Ho1_5 In7_0 3.330048 1_555
Ho1_5 In6_7 3.330048 1_545
Ho1_5 In6_3 3.330048 1_545
Ho1_5 Ho7_4 3.479451 1_555
Ho1_5 Ho6_7 3.479451 1_545
Ho1_6 In1_6 3.208590 1_555
Ho1_6 In1_2 3.208590 1_555
Ho1_6 In0_5 3.208590 1_554
Ho1_6 In0_1 3.208590 1_554
Ho1_6 In7_7 3.330048 1_554
Ho1_6 In7_3 3.330048 1_554
Ho1_6 In6_4 3.330048 1_555
Ho1_6 In6_0 3.330048 1_555
Ho1_6 Ho7_7 3.479451 1_554
Ho1_6 Ho6_4 3.479451 1_555
Ho1_7 In1_7 3.208590 1_555
Ho1_7 In1_3 3.208590 1_555
Ho1_7 In0_4 3.208590 1_555
Ho1_7 In0_0 3.208590 1_555
Ho1_7 In7_6 3.330048 1_555
Ho1_7 In7_2 3.330048 1_555
Ho1_7 In6_5 3.330048 1_555
Ho1_7 In6_1 3.330048 1_555
Ho1_7 Ho7_6 3.479451 1_555
Ho1_7 Ho6_5 3.479451 1_555
Ho2_0 Pd0_0 2.943787 1_555
Ho2_0 Pd0_4 2.943787 1_455
Ho2_0 Pd3_2 2.965951 1_555
Ho2_0 Pd3_6 2.965951 1_455
Ho2_0 In2_0 3.315465 1_555
Ho2_0 In2_4 3.315465 1_455
Ho2_0 In6_0 3.330891 1_555
Ho2_0 In6_4 3.330891 1_455
Ho2_0 In5_0 3.427404 1_555
Ho2_0 In5_4 3.427404 1_455
Ho2_1 Pd0_1 2.943787 1_555
Ho2_1 Pd0_5 2.943787 1_455
Ho2_1 Pd3_3 2.965951 1_555
Ho2_1 Pd3_7 2.965951 1_455
Ho2_1 In2_1 3.315465 1_555
Ho2_1 In2_5 3.315465 1_455
Ho2_1 In6_5 3.330891 1_455
Ho2_1 In6_1 3.330891 1_555
Ho2_1 In5_1 3.427404 1_555
Ho2_1 In5_5 3.427404 1_455
Ho2_2 Pd0_2 2.943787 1_555
Ho2_2 Pd0_6 2.943787 1_455
Ho2_2 Pd3_0 2.965951 1_565
Ho2_2 Pd3_4 2.965951 1_465
Ho2_2 In2_2 3.315465 1_555
Ho2_2 In2_6 3.315465 1_455
Ho2_2 In6_2 3.330891 1_555
Ho2_2 In6_6 3.330891 1_455
Ho2_2 In5_2 3.427404 1_555
Ho2_2 In5_6 3.427404 1_455
Ho2_3 Pd0_3 2.943787 1_555
Ho2_3 Pd0_7 2.943787 1_455
Ho2_3 Pd3_1 2.965951 1_565
Ho2_3 Pd3_5 2.965951 1_465
Ho2_3 In2_3 3.315465 1_555
Ho2_3 In2_7 3.315465 1_455
Ho2_3 In6_7 3.330891 1_455
Ho2_3 In6_3 3.330891 1_555
Ho2_3 In5_3 3.427404 1_555
Ho2_3 In5_7 3.427404 1_455
Ho2_4 Pd0_4 2.943787 1_555
Ho2_4 Pd0_0 2.943787 1_555
Ho2_4 Pd3_6 2.965951 1_555
Ho2_4 Pd3_2 2.965951 1_555
Ho2_4 In2_4 3.315465 1_555
Ho2_4 In2_0 3.315465 1_555
Ho2_4 In6_4 3.330891 1_555
Ho2_4 In6_0 3.330891 1_555
Ho2_4 In5_4 3.427404 1_555
Ho2_4 In5_0 3.427404 1_555
Ho2_5 Pd0_5 2.943787 1_555
Ho2_5 Pd0_1 2.943787 1_555
Ho2_5 Pd3_7 2.965951 1_555
Ho2_5 Pd3_3 2.965951 1_555
Ho2_5 In2_5 3.315465 1_555
Ho2_5 In2_1 3.315465 1_555
Ho2_5 In6_5 3.330891 1_555
Ho2_5 In6_1 3.330891 1_555
Ho2_5 In5_5 3.427404 1_555
Ho2_5 In5_1 3.427404 1_555
Ho2_6 Pd0_6 2.943787 1_555
Ho2_6 Pd0_2 2.943787 1_555
Ho2_6 Pd3_4 2.965951 1_565
Ho2_6 Pd3_0 2.965951 1_565
Ho2_6 In2_6 3.315465 1_555
Ho2_6 In2_2 3.315465 1_555
Ho2_6 In6_6 3.330891 1_555
Ho2_6 In6_2 3.330891 1_555
Ho2_6 In5_6 3.427404 1_555
Ho2_6 In5_2 3.427404 1_555
Ho2_7 Pd0_7 2.943787 1_555
Ho2_7 Pd0_3 2.943787 1_555
Ho2_7 Pd3_5 2.965951 1_565
Ho2_7 Pd3_1 2.965951 1_565
Ho2_7 In2_7 3.315465 1_555
Ho2_7 In2_3 3.315465 1_555
Ho2_7 In6_7 3.330891 1_555
Ho2_7 In6_3 3.330891 1_555
Ho2_7 In5_7 3.427404 1_555
Ho2_7 In5_3 3.427404 1_555
Ho3_0 Pd1_0 2.943787 1_555
Ho3_0 Pd1_4 2.943787 1_455
Ho3_0 Pd2_2 2.965951 1_545
Ho3_0 Pd2_6 2.965951 1_445
Ho3_0 In3_0 3.315465 1_555
Ho3_0 In3_4 3.315465 1_455
Ho3_0 In7_0 3.330891 1_555
Ho3_0 In7_4 3.330891 1_455
Ho3_0 In4_0 3.427404 1_555
Ho3_0 In4_4 3.427404 1_455
Ho3_1 Pd1_1 2.943787 1_555
Ho3_1 Pd1_5 2.943787 1_455
Ho3_1 Pd2_3 2.965951 1_545
Ho3_1 Pd2_7 2.965951 1_445
Ho3_1 In3_1 3.315465 1_555
Ho3_1 In3_5 3.315465 1_455
Ho3_1 In7_1 3.330891 1_555
Ho3_1 In7_5 3.330891 1_455
Ho3_1 In4_5 3.427404 1_455
Ho3_1 In4_1 3.427404 1_555
Ho3_2 Pd1_2 2.943787 1_555
Ho3_2 Pd1_6 2.943787 1_455
Ho3_2 Pd2_0 2.965951 1_555
Ho3_2 Pd2_4 2.965951 1_455
Ho3_2 In3_2 3.315465 1_555
Ho3_2 In3_6 3.315465 1_455
Ho3_2 In7_2 3.330891 1_555
Ho3_2 In7_6 3.330891 1_455
Ho3_2 In4_2 3.427404 1_555
Ho3_2 In4_6 3.427404 1_455
Ho3_3 Pd1_3 2.943787 1_555
Ho3_3 Pd1_7 2.943787 1_455
Ho3_3 Pd2_1 2.965951 1_555
Ho3_3 Pd2_5 2.965951 1_455
Ho3_3 In3_3 3.315465 1_555
Ho3_3 In3_7 3.315465 1_455
Ho3_3 In7_7 3.330891 1_455
Ho3_3 In7_3 3.330891 1_555
Ho3_3 In4_3 3.427404 1_555
Ho3_3 In4_7 3.427404 1_455
Ho3_4 Pd1_4 2.943787 1_555
Ho3_4 Pd1_0 2.943787 1_555
Ho3_4 Pd2_6 2.965951 1_545
Ho3_4 Pd2_2 2.965951 1_545
Ho3_4 In3_4 3.315465 1_555
Ho3_4 In3_0 3.315465 1_555
Ho3_4 In7_4 3.330891 1_555
Ho3_4 In7_0 3.330891 1_555
Ho3_4 In4_4 3.427404 1_555
Ho3_4 In4_0 3.427404 1_555
Ho3_5 Pd1_5 2.943787 1_555
Ho3_5 Pd1_1 2.943787 1_555
Ho3_5 Pd2_7 2.965951 1_545
Ho3_5 Pd2_3 2.965951 1_545
Ho3_5 In3_5 3.315465 1_555
Ho3_5 In3_1 3.315465 1_555
Ho3_5 In7_5 3.330891 1_555
Ho3_5 In7_1 3.330891 1_555
Ho3_5 In4_5 3.427404 1_555
Ho3_5 In4_1 3.427404 1_555
Ho3_6 Pd1_6 2.943787 1_555
Ho3_6 Pd1_2 2.943787 1_555
Ho3_6 Pd2_4 2.965951 1_555
Ho3_6 Pd2_0 2.965951 1_555
Ho3_6 In3_6 3.315465 1_555
Ho3_6 In3_2 3.315465 1_555
Ho3_6 In7_6 3.330891 1_555
Ho3_6 In7_2 3.330891 1_555
Ho3_6 In4_6 3.427404 1_555
Ho3_6 In4_2 3.427404 1_555
Ho3_7 Pd1_7 2.943787 1_555
Ho3_7 Pd1_3 2.943787 1_555
Ho3_7 Pd2_5 2.965951 1_555
Ho3_7 Pd2_1 2.965951 1_555
Ho3_7 In3_7 3.315465 1_555
Ho3_7 In3_3 3.315465 1_555
Ho3_7 In7_7 3.330891 1_555
Ho3_7 In7_3 3.330891 1_555
Ho3_7 In4_7 3.427404 1_555
Ho3_7 In4_3 3.427404 1_555
Ho4_0 Pd2_0 2.943787 1_555
Ho4_0 Pd2_4 2.943787 1_455
Ho4_0 Pd1_0 2.965951 1_555
Ho4_0 Pd1_4 2.965951 1_455
Ho4_0 In0_0 3.315465 1_555
Ho4_0 In0_4 3.315465 1_455
Ho4_0 In4_0 3.330891 1_555
Ho4_0 In4_4 3.330891 1_455
Ho4_0 In7_2 3.427404 1_555
Ho4_0 In7_6 3.427404 1_455
Ho4_1 Pd2_1 2.943787 1_555
Ho4_1 Pd2_5 2.943787 1_455
Ho4_1 Pd1_1 2.965951 1_555
Ho4_1 Pd1_5 2.965951 1_455
Ho4_1 In0_1 3.315465 1_555
Ho4_1 In0_5 3.315465 1_455
Ho4_1 In4_1 3.330891 1_555
Ho4_1 In4_5 3.330891 1_455
Ho4_1 In7_3 3.427404 1_555
Ho4_1 In7_7 3.427404 1_455
Ho4_2 Pd2_2 2.943787 1_555
Ho4_2 Pd2_6 2.943787 1_455
Ho4_2 Pd1_2 2.965951 1_555
Ho4_2 Pd1_6 2.965951 1_455
Ho4_2 In0_6 3.315465 1_455
Ho4_2 In0_2 3.315465 1_555
Ho4_2 In4_2 3.330891 1_555
Ho4_2 In4_6 3.330891 1_455
Ho4_2 In7_4 3.427404 1_465
Ho4_2 In7_0 3.427404 1_565
Ho4_3 Pd2_3 2.943787 1_555
Ho4_3 Pd2_7 2.943787 1_455
Ho4_3 Pd1_3 2.965951 1_555
Ho4_3 Pd1_7 2.965951 1_455
Ho4_3 In0_3 3.315465 1_555
Ho4_3 In0_7 3.315465 1_455
Ho4_3 In4_3 3.330891 1_555
Ho4_3 In4_7 3.330891 1_455
Ho4_3 In7_1 3.427404 1_565
Ho4_3 In7_5 3.427404 1_465
Ho4_4 Pd2_4 2.943787 1_555
Ho4_4 Pd2_0 2.943787 1_555
Ho4_4 Pd1_4 2.965951 1_555
Ho4_4 Pd1_0 2.965951 1_555
Ho4_4 In0_4 3.315465 1_555
Ho4_4 In0_0 3.315465 1_555
Ho4_4 In4_4 3.330891 1_555
Ho4_4 In4_0 3.330891 1_555
Ho4_4 In7_6 3.427404 1_555
Ho4_4 In7_2 3.427404 1_555
Ho4_5 Pd2_5 2.943787 1_555
Ho4_5 Pd2_1 2.943787 1_555
Ho4_5 Pd1_5 2.965951 1_555
Ho4_5 Pd1_1 2.965951 1_555
Ho4_5 In0_5 3.315465 1_555
Ho4_5 In0_1 3.315465 1_555
Ho4_5 In4_5 3.330891 1_555
Ho4_5 In4_1 3.330891 1_555
Ho4_5 In7_7 3.427404 1_555
Ho4_5 In7_3 3.427404 1_555
Ho4_6 Pd2_6 2.943787 1_555
Ho4_6 Pd2_2 2.943787 1_555
Ho4_6 Pd1_6 2.965951 1_555
Ho4_6 Pd1_2 2.965951 1_555
Ho4_6 In0_6 3.315465 1_555
Ho4_6 In0_2 3.315465 1_555
Ho4_6 In4_6 3.330891 1_555
Ho4_6 In4_2 3.330891 1_555
Ho4_6 In7_4 3.427404 1_565
Ho4_6 In7_0 3.427404 1_565
Ho4_7 Pd2_7 2.943787 1_555
Ho4_7 Pd2_3 2.943787 1_555
Ho4_7 Pd1_7 2.965951 1_555
Ho4_7 Pd1_3 2.965951 1_555
Ho4_7 In0_7 3.315465 1_555
Ho4_7 In0_3 3.315465 1_555
Ho4_7 In4_7 3.330891 1_555
Ho4_7 In4_3 3.330891 1_555
Ho4_7 In7_5 3.427404 1_565
Ho4_7 In7_1 3.427404 1_565
Ho5_0 Pd3_0 2.943787 1_555
Ho5_0 Pd3_4 2.943787 1_455
Ho5_0 Pd0_0 2.965951 1_555
Ho5_0 Pd0_4 2.965951 1_455
Ho5_0 In1_4 3.315465 1_455
Ho5_0 In1_0 3.315465 1_555
Ho5_0 In5_0 3.330891 1_555
Ho5_0 In5_4 3.330891 1_455
Ho5_0 In6_2 3.427404 1_545
Ho5_0 In6_6 3.427404 1_445
Ho5_1 Pd3_1 2.943787 1_555
Ho5_1 Pd3_5 2.943787 1_455
Ho5_1 Pd0_1 2.965951 1_555
Ho5_1 Pd0_5 2.965951 1_455
Ho5_1 In1_1 3.315465 1_555
Ho5_1 In1_5 3.315465 1_455
Ho5_1 In5_1 3.330891 1_555
Ho5_1 In5_5 3.330891 1_455
Ho5_1 In6_3 3.427404 1_545
Ho5_1 In6_7 3.427404 1_445
Ho5_2 Pd3_2 2.943787 1_555
Ho5_2 Pd3_6 2.943787 1_455
Ho5_2 Pd0_2 2.965951 1_555
Ho5_2 Pd0_6 2.965951 1_455
Ho5_2 In1_6 3.315465 1_455
Ho5_2 In1_2 3.315465 1_555
Ho5_2 In5_2 3.330891 1_555
Ho5_2 In5_6 3.330891 1_455
Ho5_2 In6_4 3.427404 1_455
Ho5_2 In6_0 3.427404 1_555
Ho5_3 Pd3_3 2.943787 1_555
Ho5_3 Pd3_7 2.943787 1_455
Ho5_3 Pd0_3 2.965951 1_555
Ho5_3 Pd0_7 2.965951 1_455
Ho5_3 In1_7 3.315465 1_455
Ho5_3 In1_3 3.315465 1_555
Ho5_3 In5_7 3.330891 1_455
Ho5_3 In5_3 3.330891 1_555
Ho5_3 In6_1 3.427404 1_555
Ho5_3 In6_5 3.427404 1_455
Ho5_4 Pd3_4 2.943787 1_555
Ho5_4 Pd3_0 2.943787 1_555
Ho5_4 Pd0_4 2.965951 1_555
Ho5_4 Pd0_0 2.965951 1_555
Ho5_4 In1_4 3.315465 1_555
Ho5_4 In1_0 3.315465 1_555
Ho5_4 In5_4 3.330891 1_555
Ho5_4 In5_0 3.330891 1_555
Ho5_4 In6_6 3.427404 1_545
Ho5_4 In6_2 3.427404 1_545
Ho5_5 Pd3_5 2.943787 1_555
Ho5_5 Pd3_1 2.943787 1_555
Ho5_5 Pd0_5 2.965951 1_555
Ho5_5 Pd0_1 2.965951 1_555
Ho5_5 In1_5 3.315465 1_555
Ho5_5 In1_1 3.315465 1_555
Ho5_5 In5_5 3.330891 1_555
Ho5_5 In5_1 3.330891 1_555
Ho5_5 In6_7 3.427404 1_545
Ho5_5 In6_3 3.427404 1_545
Ho5_6 Pd3_6 2.943787 1_555
Ho5_6 Pd3_2 2.943787 1_555
Ho5_6 Pd0_6 2.965951 1_555
Ho5_6 Pd0_2 2.965951 1_555
Ho5_6 In1_6 3.315465 1_555
Ho5_6 In1_2 3.315465 1_555
Ho5_6 In5_6 3.330891 1_555
Ho5_6 In5_2 3.330891 1_555
Ho5_6 In6_4 3.427404 1_555
Ho5_6 In6_0 3.427404 1_555
Ho5_7 Pd3_7 2.943787 1_555
Ho5_7 Pd3_3 2.943787 1_555
Ho5_7 Pd0_7 2.965951 1_555
Ho5_7 Pd0_3 2.965951 1_555
Ho5_7 In1_7 3.315465 1_555
Ho5_7 In1_3 3.315465 1_555
Ho5_7 In5_7 3.330891 1_555
Ho5_7 In5_3 3.330891 1_555
Ho5_7 In6_5 3.427404 1_555
Ho5_7 In6_1 3.427404 1_555
Ho6_0 Pd0_0 2.848835 1_555
Ho6_0 Pd0_4 2.848835 1_455
Ho6_0 In1_0 3.212505 1_555
Ho6_0 In1_4 3.212505 1_455
Ho6_0 In6_0 3.304586 1_555
Ho6_0 In6_4 3.304586 1_455
Ho6_0 In0_1 3.396599 1_554
Ho6_0 In0_5 3.396599 1_454
Ho6_1 Pd0_1 2.848835 1_555
Ho6_1 Pd0_5 2.848835 1_455
Ho6_1 In1_1 3.212505 1_555
Ho6_1 In1_5 3.212505 1_455
Ho6_1 In6_1 3.304586 1_555
Ho6_1 In6_5 3.304586 1_455
Ho6_1 In0_0 3.396599 1_555
Ho6_1 In0_4 3.396599 1_455
Ho6_2 Pd0_2 2.848835 1_555
Ho6_2 Pd0_6 2.848835 1_455
Ho6_2 In1_2 3.212505 1_555
Ho6_2 In1_6 3.212505 1_455
Ho6_2 In6_2 3.304586 1_555
Ho6_2 In6_6 3.304586 1_455
Ho6_2 In0_3 3.396599 1_554
Ho6_2 In0_7 3.396599 1_454
Ho6_3 Pd0_3 2.848835 1_555
Ho6_3 Pd0_7 2.848835 1_455
Ho6_3 In1_3 3.212505 1_555
Ho6_3 In1_7 3.212505 1_455
Ho6_3 In6_3 3.304586 1_555
Ho6_3 In6_7 3.304586 1_455
Ho6_3 In0_6 3.396599 1_455
Ho6_3 In0_2 3.396599 1_555
Ho6_4 Pd0_4 2.848835 1_555
Ho6_4 Pd0_0 2.848835 1_555
Ho6_4 In1_4 3.212505 1_555
Ho6_4 In1_0 3.212505 1_555
Ho6_4 In6_4 3.304586 1_555
Ho6_4 In6_0 3.304586 1_555
Ho6_4 In0_5 3.396599 1_554
Ho6_4 In0_1 3.396599 1_554
Ho6_5 Pd0_5 2.848835 1_555
Ho6_5 Pd0_1 2.848835 1_555
Ho6_5 In1_5 3.212505 1_555
Ho6_5 In1_1 3.212505 1_555
Ho6_5 In6_5 3.304586 1_555
Ho6_5 In6_1 3.304586 1_555
Ho6_5 In0_4 3.396599 1_555
Ho6_5 In0_0 3.396599 1_555
Ho6_6 Pd0_6 2.848835 1_555
Ho6_6 Pd0_2 2.848835 1_555
Ho6_6 In1_6 3.212505 1_555
Ho6_6 In1_2 3.212505 1_555
Ho6_6 In6_6 3.304586 1_555
Ho6_6 In6_2 3.304586 1_555
Ho6_6 In0_7 3.396599 1_554
Ho6_6 In0_3 3.396599 1_554
Ho6_7 Pd0_7 2.848835 1_555
Ho6_7 Pd0_3 2.848835 1_555
Ho6_7 In1_7 3.212505 1_555
Ho6_7 In1_3 3.212505 1_555
Ho6_7 In6_7 3.304586 1_555
Ho6_7 In6_3 3.304586 1_555
Ho6_7 In0_6 3.396599 1_555
Ho6_7 In0_2 3.396599 1_555
Ho7_0 Pd1_0 2.848835 1_555
Ho7_0 Pd1_4 2.848835 1_455
Ho7_0 In0_0 3.212505 1_555
Ho7_0 In0_4 3.212505 1_455
Ho7_0 In7_0 3.304586 1_555
Ho7_0 In7_4 3.304586 1_455
Ho7_0 In1_1 3.396599 1_555
Ho7_0 In1_5 3.396599 1_455
Ho7_1 Pd1_1 2.848835 1_555
Ho7_1 Pd1_5 2.848835 1_455
Ho7_1 In0_1 3.212505 1_555
Ho7_1 In0_5 3.212505 1_455
Ho7_1 In7_1 3.304586 1_555
Ho7_1 In7_5 3.304586 1_455
Ho7_1 In1_0 3.396599 1_556
Ho7_1 In1_4 3.396599 1_456
Ho7_2 Pd1_2 2.848835 1_555
Ho7_2 Pd1_6 2.848835 1_455
Ho7_2 In0_2 3.212505 1_555
Ho7_2 In0_6 3.212505 1_455
Ho7_2 In7_2 3.304586 1_555
Ho7_2 In7_6 3.304586 1_455
Ho7_2 In1_3 3.396599 1_555
Ho7_2 In1_7 3.396599 1_455
Ho7_3 Pd1_7 2.848835 1_455
Ho7_3 Pd1_3 2.848835 1_555
Ho7_3 In0_3 3.212505 1_555
Ho7_3 In0_7 3.212505 1_455
Ho7_3 In7_3 3.304586 1_555
Ho7_3 In7_7 3.304586 1_455
Ho7_3 In1_2 3.396599 1_556
Ho7_3 In1_6 3.396599 1_456
Ho7_4 Pd1_4 2.848835 1_555
Ho7_4 Pd1_0 2.848835 1_555
Ho7_4 In0_4 3.212505 1_555
Ho7_4 In0_0 3.212505 1_555
Ho7_4 In7_4 3.304586 1_555
Ho7_4 In7_0 3.304586 1_555
Ho7_4 In1_5 3.396599 1_555
Ho7_4 In1_1 3.396599 1_555
Ho7_5 Pd1_5 2.848835 1_555
Ho7_5 Pd1_1 2.848835 1_555
Ho7_5 In0_5 3.212505 1_555
Ho7_5 In0_1 3.212505 1_555
Ho7_5 In7_5 3.304586 1_555
Ho7_5 In7_1 3.304586 1_555
Ho7_5 In1_4 3.396599 1_556
Ho7_5 In1_0 3.396599 1_556
Ho7_6 Pd1_6 2.848835 1_555
Ho7_6 Pd1_2 2.848835 1_555
Ho7_6 In0_6 3.212505 1_555
Ho7_6 In0_2 3.212505 1_555
Ho7_6 In7_6 3.304586 1_555
Ho7_6 In7_2 3.304586 1_555
Ho7_6 In1_7 3.396599 1_555
Ho7_6 In1_3 3.396599 1_555
Ho7_7 Pd1_7 2.848835 1_555
Ho7_7 Pd1_3 2.848835 1_555
Ho7_7 In0_7 3.212505 1_555
Ho7_7 In0_3 3.212505 1_555
Ho7_7 In7_7 3.304586 1_555
Ho7_7 In7_3 3.304586 1_555
Ho7_7 In1_6 3.396599 1_556
Ho7_7 In1_2 3.396599 1_556
Ho8_0 Pd2_0 2.848835 1_555
Ho8_0 Pd2_4 2.848835 1_455
Ho8_0 In3_2 3.212505 1_555
Ho8_0 In3_6 3.212505 1_455
Ho8_0 In4_0 3.304586 1_555
Ho8_0 In4_4 3.304586 1_455
Ho8_0 In2_0 3.396599 1_555
Ho8_0 In2_4 3.396599 1_455
Ho8_1 Pd2_1 2.848835 1_555
Ho8_1 Pd2_5 2.848835 1_455
Ho8_1 In3_7 3.212505 1_455
Ho8_1 In3_3 3.212505 1_555
Ho8_1 In4_1 3.304586 1_555
Ho8_1 In4_5 3.304586 1_455
Ho8_1 In2_5 3.396599 1_455
Ho8_1 In2_1 3.396599 1_555
Ho8_2 Pd2_2 2.848835 1_555
Ho8_2 Pd2_6 2.848835 1_455
Ho8_2 In3_0 3.212505 1_565
Ho8_2 In3_4 3.212505 1_465
Ho8_2 In4_2 3.304586 1_555
Ho8_2 In4_6 3.304586 1_455
Ho8_2 In2_2 3.396599 1_555
Ho8_2 In2_6 3.396599 1_455
Ho8_3 Pd2_3 2.848835 1_555
Ho8_3 Pd2_7 2.848835 1_455
Ho8_3 In3_5 3.212505 1_465
Ho8_3 In3_1 3.212505 1_565
Ho8_3 In4_3 3.304586 1_555
Ho8_3 In4_7 3.304586 1_455
Ho8_3 In2_3 3.396599 1_555
Ho8_3 In2_7 3.396599 1_455
Ho8_4 Pd2_4 2.848835 1_555
Ho8_4 Pd2_0 2.848835 1_555
Ho8_4 In3_6 3.212505 1_555
Ho8_4 In3_2 3.212505 1_555
Ho8_4 In4_4 3.304586 1_555
Ho8_4 In4_0 3.304586 1_555
Ho8_4 In2_4 3.396599 1_555
Ho8_4 In2_0 3.396599 1_555
Ho8_5 Pd2_5 2.848835 1_555
Ho8_5 Pd2_1 2.848835 1_555
Ho8_5 In3_7 3.212505 1_555
Ho8_5 In3_3 3.212505 1_555
Ho8_5 In4_5 3.304586 1_555
Ho8_5 In4_1 3.304586 1_555
Ho8_5 In2_5 3.396599 1_555
Ho8_5 In2_1 3.396599 1_555
Ho8_6 Pd2_6 2.848835 1_555
Ho8_6 Pd2_2 2.848835 1_555
Ho8_6 In3_4 3.212505 1_565
Ho8_6 In3_0 3.212505 1_565
Ho8_6 In4_6 3.304586 1_555
Ho8_6 In4_2 3.304586 1_555
Ho8_6 In2_6 3.396599 1_555
Ho8_6 In2_2 3.396599 1_555
Ho8_7 Pd2_7 2.848835 1_555
Ho8_7 Pd2_3 2.848835 1_555
Ho8_7 In3_5 3.212505 1_565
Ho8_7 In3_1 3.212505 1_565
Ho8_7 In4_7 3.304586 1_555
Ho8_7 In4_3 3.304586 1_555
Ho8_7 In2_7 3.396599 1_555
Ho8_7 In2_3 3.396599 1_555
Ho9_0 Pd3_4 2.848835 1_455
Ho9_0 Pd3_0 2.848835 1_555
Ho9_0 In2_2 3.212505 1_545
Ho9_0 In2_6 3.212505 1_445
Ho9_0 In5_0 3.304586 1_555
Ho9_0 In5_4 3.304586 1_455
Ho9_0 In3_0 3.396599 1_555
Ho9_0 In3_4 3.396599 1_455
Ho9_1 Pd3_5 2.848835 1_455
Ho9_1 Pd3_1 2.848835 1_555
Ho9_1 In2_3 3.212505 1_545
Ho9_1 In2_7 3.212505 1_445
Ho9_1 In5_1 3.304586 1_555
Ho9_1 In5_5 3.304586 1_455
Ho9_1 In3_1 3.396599 1_555
Ho9_1 In3_5 3.396599 1_455
Ho9_2 Pd3_2 2.848835 1_555
Ho9_2 Pd3_6 2.848835 1_455
Ho9_2 In2_0 3.212505 1_555
Ho9_2 In2_4 3.212505 1_455
Ho9_2 In5_2 3.304586 1_555
Ho9_2 In5_6 3.304586 1_455
Ho9_2 In3_2 3.396599 1_555
Ho9_2 In3_6 3.396599 1_455
Ho9_3 Pd3_3 2.848835 1_555
Ho9_3 Pd3_7 2.848835 1_455
Ho9_3 In2_1 3.212505 1_555
Ho9_3 In2_5 3.212505 1_455
Ho9_3 In5_3 3.304586 1_555
Ho9_3 In5_7 3.304586 1_455
Ho9_3 In3_3 3.396599 1_555
Ho9_3 In3_7 3.396599 1_455
Ho9_4 Pd3_4 2.848835 1_555
Ho9_4 Pd3_0 2.848835 1_555
Ho9_4 In2_6 3.212505 1_545
Ho9_4 In2_2 3.212505 1_545
Ho9_4 In5_4 3.304586 1_555
Ho9_4 In5_0 3.304586 1_555
Ho9_4 In3_4 3.396599 1_555
Ho9_4 In3_0 3.396599 1_555
Ho9_5 Pd3_5 2.848835 1_555
Ho9_5 Pd3_1 2.848835 1_555
Ho9_5 In2_7 3.212505 1_545
Ho9_5 In2_3 3.212505 1_545
Ho9_5 In5_5 3.304586 1_555
Ho9_5 In5_1 3.304586 1_555
Ho9_5 In3_5 3.396599 1_555
Ho9_5 In3_1 3.396599 1_555
Ho9_6 Pd3_6 2.848835 1_555
Ho9_6 Pd3_2 2.848835 1_555
Ho9_6 In2_4 3.212505 1_555
Ho9_6 In2_0 3.212505 1_555
Ho9_6 In5_6 3.304586 1_555
Ho9_6 In5_2 3.304586 1_555
Ho9_6 In3_6 3.396599 1_555
Ho9_6 In3_2 3.396599 1_555
Ho9_7 Pd3_7 2.848835 1_555
Ho9_7 Pd3_3 2.848835 1_555
Ho9_7 In2_5 3.212505 1_555
Ho9_7 In2_1 3.212505 1_555
Ho9_7 In5_7 3.304586 1_555
Ho9_7 In5_3 3.304586 1_555
Ho9_7 In3_7 3.396599 1_555
Ho9_7 In3_3 3.396599 1_555
In0_0 Pd1_0 3.015496 1_555
In0_0 In7_2 3.325390 1_555
In0_1 Pd1_1 3.015496 1_555
In0_1 In7_3 3.325390 1_555
In0_2 Pd1_2 3.015496 1_555
In0_2 In7_0 3.325390 1_565
In0_3 Pd1_3 3.015496 1_555
In0_3 In7_1 3.325390 1_565
In0_4 Pd1_4 3.015496 1_555
In0_4 In7_6 3.325390 1_555
In0_5 Pd1_5 3.015496 1_555
In0_5 In7_7 3.325390 1_555
In0_6 Pd1_6 3.015496 1_555
In0_6 In7_4 3.325390 1_565
In0_7 Pd1_7 3.015496 1_555
In0_7 In7_5 3.325390 1_565
In1_0 Pd0_0 3.015496 1_555
In1_0 In6_2 3.325390 1_545
In1_1 Pd0_1 3.015496 1_555
In1_1 In6_3 3.325390 1_545
In1_2 Pd0_2 3.015496 1_555
In1_2 In6_0 3.325390 1_555
In1_3 Pd0_3 3.015496 1_555
In1_3 In6_1 3.325390 1_555
In1_4 Pd0_4 3.015496 1_555
In1_4 In6_6 3.325390 1_545
In1_5 Pd0_5 3.015496 1_555
In1_5 In6_7 3.325390 1_545
In1_6 Pd0_6 3.015496 1_555
In1_6 In6_4 3.325390 1_555
In1_7 Pd0_7 3.015496 1_555
In1_7 In6_5 3.325390 1_555
In2_0 Pd3_2 3.015496 1_555
In2_0 In5_0 3.325390 1_555
In2_1 Pd3_3 3.015496 1_555
In2_1 In5_1 3.325390 1_555
In2_2 Pd3_0 3.015496 1_565
In2_2 In5_2 3.325390 1_555
In2_3 Pd3_1 3.015496 1_565
In2_3 In5_3 3.325390 1_555
In2_4 Pd3_6 3.015496 1_555
In2_4 In5_4 3.325390 1_555
In2_5 Pd3_7 3.015496 1_555
In2_5 In5_5 3.325390 1_555
In2_6 Pd3_4 3.015496 1_565
In2_6 In5_6 3.325390 1_555
In2_7 Pd3_5 3.015496 1_565
In2_7 In5_7 3.325390 1_555
In3_0 Pd2_2 3.015496 1_545
In3_0 In4_0 3.325390 1_555
In3_1 Pd2_3 3.015496 1_545
In3_1 In4_1 3.325390 1_555
In3_2 Pd2_0 3.015496 1_555
In3_2 In4_2 3.325390 1_555
In3_3 Pd2_1 3.015496 1_555
In3_3 In4_3 3.325390 1_555
In3_4 Pd2_6 3.015496 1_545
In3_4 In4_4 3.325390 1_555
In3_5 Pd2_7 3.015496 1_545
In3_5 In4_5 3.325390 1_555
In3_6 Pd2_4 3.015496 1_555
In3_6 In4_6 3.325390 1_555
In3_7 Pd2_5 3.015496 1_555
In3_7 In4_7 3.325390 1_555
In4_0 Pd1_0 2.952521 1_555
In4_0 Pd2_0 3.312471 1_555
In4_1 Pd1_1 2.952521 1_555
In4_1 Pd2_1 3.312471 1_555
In4_2 Pd1_2 2.952521 1_555
In4_2 Pd2_2 3.312471 1_555
In4_3 Pd1_3 2.952521 1_555
In4_3 Pd2_3 3.312471 1_555
In4_4 Pd1_4 2.952521 1_555
In4_4 Pd2_4 3.312471 1_555
In4_5 Pd1_5 2.952521 1_555
In4_5 Pd2_5 3.312471 1_555
In4_6 Pd1_6 2.952521 1_555
In4_6 Pd2_6 3.312471 1_555
In4_7 Pd1_7 2.952521 1_555
In4_7 Pd2_7 3.312471 1_555
In5_0 Pd0_0 2.952521 1_555
In5_0 Pd3_0 3.312471 1_555
In5_1 Pd0_1 2.952521 1_555
In5_1 Pd3_1 3.312471 1_555
In5_2 Pd0_2 2.952521 1_555
In5_2 Pd3_2 3.312471 1_555
In5_3 Pd0_3 2.952521 1_555
In5_3 Pd3_3 3.312471 1_555
In5_4 Pd0_4 2.952521 1_555
In5_4 Pd3_4 3.312471 1_555
In5_5 Pd0_5 2.952521 1_555
In5_5 Pd3_5 3.312471 1_555
In5_6 Pd0_6 2.952521 1_555
In5_6 Pd3_6 3.312471 1_555
In5_7 Pd0_7 2.952521 1_555
In5_7 Pd3_7 3.312471 1_555
In6_0 Pd3_2 2.952521 1_555
In6_0 Pd0_0 3.312471 1_555
In6_1 Pd3_3 2.952521 1_555
In6_1 Pd0_1 3.312471 1_555
In6_2 Pd3_0 2.952521 1_565
In6_2 Pd0_2 3.312471 1_555
In6_3 Pd3_1 2.952521 1_565
In6_3 Pd0_3 3.312471 1_555
In6_4 Pd3_6 2.952521 1_555
In6_4 Pd0_4 3.312471 1_555
In6_5 Pd3_7 2.952521 1_555
In6_5 Pd0_5 3.312471 1_555
In6_6 Pd3_4 2.952521 1_565
In6_6 Pd0_6 3.312471 1_555
In6_7 Pd3_5 2.952521 1_565
In6_7 Pd0_7 3.312471 1_555
In7_0 Pd2_2 2.952521 1_545
In7_0 Pd1_0 3.312471 1_555
In7_1 Pd2_3 2.952521 1_545
In7_1 Pd1_1 3.312471 1_555
In7_2 Pd2_0 2.952521 1_555
In7_2 Pd1_2 3.312471 1_555
In7_3 Pd2_1 2.952521 1_555
In7_3 Pd1_3 3.312471 1_555
In7_4 Pd2_6 2.952521 1_545
In7_4 Pd1_4 3.312471 1_555
In7_5 Pd2_7 2.952521 1_545
In7_5 Pd1_5 3.312471 1_555
In7_6 Pd2_4 2.952521 1_555
In7_6 Pd1_6 3.312471 1_555
In7_7 Pd2_5 2.952521 1_555
In7_7 Pd1_7 3.312471 1_555
