# generated using pymatgen
data_Y3Tl5
_symmetry_space_group_name_H-M   'P 1'
_cell_length_a   6.44244673
_cell_length_b   6.44244673
_cell_length_c   10.50658173
_cell_angle_alpha   90.00000000
_cell_angle_beta   90.00000000
_cell_angle_gamma   101.71986490
_symmetry_Int_Tables_number   1
_chemical_formula_structural   Y3Tl5
_chemical_formula_sum   'Y6 Tl10'
_cell_volume   426.98579584
_cell_formula_units_Z   2
loop_
 _symmetry_equiv_pos_site_id
 _symmetry_equiv_pos_as_xyz
  1  'x, y, z'
loop_
 _atom_site_type_symbol
 _atom_site_label
 _atom_site_symmetry_multiplicity
 _atom_site_fract_x
 _atom_site_fract_y
 _atom_site_fract_z
 _atom_site_occupancy
  Y  Y0  1  0.20429152  0.79570848  0.00000000  1
  Y  Y1  1  0.79570848  0.20429152  0.00000000  1
  Y  Y2  1  0.79570848  0.20429152  0.50000000  1
  Y  Y3  1  0.20429152  0.79570848  0.50000000  1
  Y  Y4  1  0.61728257  0.61728257  0.25000000  1
  Y  Y5  1  0.38271743  0.38271743  0.75000000  1
  Tl  Tl0  1  0.51383160  0.07315041  0.25000000  1
  Tl  Tl1  1  0.48616840  0.92684959  0.75000000  1
  Tl  Tl2  1  0.07315041  0.51383160  0.25000000  1
  Tl  Tl3  1  0.92684959  0.48616840  0.75000000  1
  Tl  Tl4  1  0.00622916  0.00622916  0.25000000  1
  Tl  Tl5  1  0.99377084  0.99377084  0.75000000  1
  Tl  Tl6  1  0.30500113  0.30500113  0.03874083  1
  Tl  Tl7  1  0.69499887  0.69499887  0.96125917  1
  Tl  Tl8  1  0.69499887  0.69499887  0.53874083  1
  Tl  Tl9  1  0.30500113  0.30500113  0.46125917  1
loop_
_geom_bond_atom_site_label_1
_geom_bond_atom_site_label_2
_geom_bond_distance
_geom_bond_site_symmetry_2
Tl0 Tl6 3.127973 1_555
Tl0 Tl9 3.127973 1_555
Tl0 Y4 3.140827 1_545
Tl0 Y1 3.207420 1_555
Tl0 Y2 3.207420 1_555
Tl0 Tl4 3.210501 1_555
Tl0 Tl4 3.287041 1_655
Tl0 Y4 3.432763 1_555
Tl0 Y3 3.552863 1_545
Tl0 Y0 3.552863 1_545
Tl1 Tl8 3.127973 1_555
Tl1 Tl7 3.127973 1_555
Tl1 Y5 3.140827 1_565
Tl1 Y3 3.207420 1_555
Tl1 Y0 3.207420 1_556
Tl1 Tl5 3.210501 1_555
Tl1 Tl5 3.287041 1_455
Tl1 Y5 3.432763 1_555
Tl1 Y2 3.552863 1_565
Tl1 Y1 3.552863 1_566
Tl2 Tl6 3.127973 1_555
Tl2 Tl9 3.127973 1_555
Tl2 Y4 3.140827 1_455
Tl2 Y3 3.207420 1_555
Tl2 Y0 3.207420 1_555
Tl2 Tl4 3.210501 1_555
Tl2 Tl4 3.287041 1_565
Tl2 Y4 3.432763 1_555
Tl2 Y1 3.552863 1_455
Tl2 Y2 3.552863 1_455
Tl3 Tl8 3.127973 1_555
Tl3 Tl7 3.127973 1_555
Tl3 Y5 3.140827 1_655
Tl3 Y1 3.207420 1_556
Tl3 Y2 3.207420 1_555
Tl3 Tl5 3.210501 1_555
Tl3 Tl5 3.287041 1_545
Tl3 Y5 3.432763 1_555
Tl3 Y0 3.552863 1_656
Tl3 Y3 3.552863 1_655
Tl4 Y4 3.163373 1_445
Tl4 Tl9 3.291111 1_555
Tl4 Tl6 3.291111 1_555
Tl4 Y0 3.327159 1_545
Tl4 Y2 3.327159 1_455
Tl4 Y3 3.327159 1_545
Tl4 Y1 3.327159 1_455
Tl5 Y5 3.163373 1_665
Tl5 Tl8 3.291111 1_555
Tl5 Tl7 3.291111 1_555
Tl5 Y3 3.327159 1_655
Tl5 Y0 3.327159 1_656
Tl5 Y2 3.327159 1_565
Tl5 Y1 3.327159 1_566
Tl6 Y5 3.098828 1_554
Tl6 Y0 3.238418 1_545
Tl6 Y1 3.238418 1_455
Tl6 Tl7 3.274721 1_554
Tl6 Y4 3.373051 1_555
Tl6 Y1 3.378475 1_555
Tl6 Y0 3.378475 1_555
Tl7 Y4 3.098828 1_556
Tl7 Y1 3.238418 1_566
Tl7 Y0 3.238418 1_656
Tl7 Y5 3.373051 1_555
Tl7 Y0 3.378475 1_556
Tl7 Y1 3.378475 1_556
Tl8 Y4 3.098828 1_555
Tl8 Y2 3.238418 1_565
Tl8 Y3 3.238418 1_655
Tl8 Tl9 3.274721 1_555
Tl8 Y5 3.373051 1_555
Tl8 Y3 3.378475 1_555
Tl8 Y2 3.378475 1_555
Tl9 Y5 3.098828 1_555
Tl9 Y3 3.238418 1_545
Tl9 Y2 3.238418 1_455
Tl9 Y4 3.373051 1_555
Tl9 Y2 3.378475 1_555
Tl9 Y3 3.378475 1_555
