# generated using pymatgen
data_H3CN5O4
_symmetry_space_group_name_H-M   'P 1'
_cell_length_a   5.25509600
_cell_length_b   10.02381000
_cell_length_c   11.56918300
_cell_angle_alpha   90.00000000
_cell_angle_beta   90.00000000
_cell_angle_gamma   90.00000000
_symmetry_Int_Tables_number   1
_chemical_formula_structural   H3CN5O4
_chemical_formula_sum   'H12 C4 N20 O16'
_cell_volume   609.41925362
_cell_formula_units_Z   4
loop_
 _symmetry_equiv_pos_site_id
 _symmetry_equiv_pos_as_xyz
  1  'x, y, z'
loop_
 _atom_site_type_symbol
 _atom_site_label
 _atom_site_symmetry_multiplicity
 _atom_site_fract_x
 _atom_site_fract_y
 _atom_site_fract_z
 _atom_site_occupancy
  H  H0  1  0.99281200  0.34640100  0.05943500  1
  H  H1  1  0.49281200  0.15359900  0.94056500  1
  H  H2  1  0.00718800  0.84640100  0.44056500  1
  H  H3  1  0.50718800  0.65359900  0.55943500  1
  H  H4  1  0.24003000  0.39969800  0.15569700  1
  H  H5  1  0.74003000  0.10030200  0.84430300  1
  H  H6  1  0.75997000  0.89969800  0.34430300  1
  H  H7  1  0.25997000  0.60030200  0.65569700  1
  H  H8  1  0.07693900  0.74581000  0.12367100  1
  H  H9  1  0.57693900  0.75419000  0.87632900  1
  H  H10  1  0.92306100  0.24581000  0.37632900  1
  H  H11  1  0.42306100  0.25419000  0.62367100  1
  C  C0  1  0.01740000  0.54337900  0.08554600  1
  C  C1  1  0.51740000  0.95662100  0.91445400  1
  C  C2  1  0.98260000  0.04337900  0.41445400  1
  C  C3  1  0.48260000  0.45662100  0.58554600  1
  N  N0  1  0.83207500  0.59273400  0.01745800  1
  N  N1  1  0.33207500  0.90726600  0.98254200  1
  N  N2  1  0.16792500  0.09273400  0.48254200  1
  N  N3  1  0.66792500  0.40726600  0.51745800  1
  N  N4  1  0.09104400  0.41917600  0.10165200  1
  N  N5  1  0.59104400  0.08082400  0.89834800  1
  N  N6  1  0.90895600  0.91917600  0.39834800  1
  N  N7  1  0.40895600  0.58082400  0.60165200  1
  N  N8  1  0.13321500  0.64896200  0.14286700  1
  N  N9  1  0.63321500  0.85103800  0.85713300  1
  N  N10  1  0.86678500  0.14896200  0.35713300  1
  N  N11  1  0.36678500  0.35103800  0.64286700  1
  N  N12  1  0.67996700  0.50764000  0.95865300  1
  N  N13  1  0.17996700  0.99236000  0.04134700  1
  N  N14  1  0.32003300  0.00764000  0.54134700  1
  N  N15  1  0.82003300  0.49236000  0.45865300  1
  N  N16  1  0.34549200  0.64298700  0.21361500  1
  N  N17  1  0.84549200  0.85701300  0.78638500  1
  N  N18  1  0.65450800  0.14298700  0.28638500  1
  N  N19  1  0.15450800  0.35701300  0.71361500  1
  O  O0  1  0.69501400  0.38279300  0.96653400  1
  O  O1  1  0.19501400  0.11720700  0.03346600  1
  O  O2  1  0.30498600  0.88279300  0.53346600  1
  O  O3  1  0.80498600  0.61720700  0.46653400  1
  O  O4  1  0.51614100  0.56336200  0.89593000  1
  O  O5  1  0.01614100  0.93663800  0.10407000  1
  O  O6  1  0.48385900  0.06336200  0.60407000  1
  O  O7  1  0.98385900  0.43663800  0.39593000  1
  O  O8  1  0.45110100  0.53413100  0.22937900  1
  O  O9  1  0.95110100  0.96586900  0.77062100  1
  O  O10  1  0.54889900  0.03413100  0.27062100  1
  O  O11  1  0.04889900  0.46586900  0.72937900  1
  O  O12  1  0.41077800  0.75090900  0.25556100  1
  O  O13  1  0.91077800  0.74909100  0.74443900  1
  O  O14  1  0.58922200  0.25090900  0.24443900  1
  O  O15  1  0.08922200  0.24909100  0.75556100  1
loop_
_geom_bond_atom_site_label_1
_geom_bond_atom_site_label_2
_geom_bond_distance
_geom_bond_site_symmetry_2
H0 N4 1.018419 1_655
H1 N5 1.018419 1_555
H2 N6 1.018419 1_455
H3 N7 1.018419 1_555
H4 N4 1.020811 1_555
H5 N5 1.020811 1_555
H6 N6 1.020811 1_555
H7 N7 1.020811 1_555
H8 N8 1.038848 1_555
H9 N9 1.038848 1_555
H10 N10 1.038848 1_555
H11 N11 1.038848 1_555
C0 N4 1.316999 1_555
C0 N0 1.346752 1_455
C0 N8 1.389347 1_555
C1 N5 1.316999 1_565
C1 N1 1.346752 1_555
C1 N9 1.389347 1_555
C2 N6 1.316999 1_545
C2 N2 1.346752 1_655
C2 N10 1.389347 1_555
C3 N7 1.316999 1_555
C3 N3 1.346752 1_555
C3 N11 1.389347 1_555
N0 N12 1.352532 1_554
N1 N13 1.352532 1_556
N10 N18 1.384899 1_555
N11 N19 1.384899 1_555
N12 O4 1.256875 1_555
N12 O0 1.257249 1_555
N13 O5 1.256875 1_555
N13 O1 1.257249 1_565
N14 O6 1.256875 1_555
N14 O2 1.257249 1_545
N14 N2 1.352532 1_555
N15 O7 1.256875 1_555
N15 O3 1.257249 1_555
N15 N3 1.352532 1_555
N16 O12 1.234291 1_555
N16 O8 1.237692 1_555
N16 N8 1.384899 1_555
N17 O13 1.234291 1_555
N17 O9 1.237692 1_555
N17 N9 1.384899 1_555
N18 O14 1.234291 1_555
N18 O10 1.237692 1_555
N19 O15 1.234291 1_555
N19 O11 1.237692 1_555
