# generated using pymatgen
data_VGa
_symmetry_space_group_name_H-M   'P 1'
_cell_length_a   5.55274455
_cell_length_b   5.55274455
_cell_length_c   8.70967200
_cell_angle_alpha   90.00000000
_cell_angle_beta   90.00000000
_cell_angle_gamma   120.00000656
_symmetry_Int_Tables_number   1
_chemical_formula_structural   VGa
_chemical_formula_sum   'V8 Ga8'
_cell_volume   232.56684013
_cell_formula_units_Z   8
loop_
 _symmetry_equiv_pos_site_id
 _symmetry_equiv_pos_as_xyz
  1  'x, y, z'
loop_
 _atom_site_type_symbol
 _atom_site_label
 _atom_site_symmetry_multiplicity
 _atom_site_fract_x
 _atom_site_fract_y
 _atom_site_fract_z
 _atom_site_occupancy
  V  V0_0  1  0.00000000  0.00000000  0.00000000  1
  V  V0_1  1  0.00000000  0.00000000  0.50000000  1
  V  V0_2  1  0.00000000  0.50000000  0.00000000  1
  V  V0_3  1  0.00000000  0.50000000  0.50000000  1
  V  V0_4  1  0.50000000  0.00000000  0.00000000  1
  V  V0_5  1  0.50000000  0.00000000  0.50000000  1
  V  V0_6  1  0.50000000  0.50000000  0.00000000  1
  V  V0_7  1  0.50000000  0.50000000  0.50000000  1
  Ga  Ga0_0  1  0.16666650  0.33333350  0.25000000  1
  Ga  Ga0_1  1  0.16666650  0.33333350  0.75000000  1
  Ga  Ga0_2  1  0.16666650  0.83333350  0.25000000  1
  Ga  Ga0_3  1  0.16666650  0.83333350  0.75000000  1
  Ga  Ga0_4  1  0.66666650  0.33333350  0.25000000  1
  Ga  Ga0_5  1  0.66666650  0.33333350  0.75000000  1
  Ga  Ga0_6  1  0.66666650  0.83333350  0.25000000  1
  Ga  Ga0_7  1  0.66666650  0.83333350  0.75000000  1
loop_
_geom_bond_atom_site_label_1
_geom_bond_atom_site_label_2
_geom_bond_distance
_geom_bond_site_symmetry_2
V0_0 V0_6 2.776372 1_445
V0_0 V0_6 2.776372 1_555
V0_0 V0_4 2.776372 1_555
V0_0 V0_2 2.776372 1_545
V0_0 V0_2 2.776372 1_555
V0_0 V0_4 2.776372 1_455
V0_1 V0_7 2.776372 1_555
V0_1 V0_7 2.776372 1_445
V0_1 V0_3 2.776372 1_545
V0_1 V0_3 2.776372 1_555
V0_1 V0_5 2.776372 1_555
V0_1 V0_5 2.776372 1_455
V0_2 V0_4 2.776372 1_455
V0_2 V0_4 2.776372 1_565
V0_2 V0_6 2.776372 1_555
V0_2 V0_6 2.776372 1_455
V0_3 V0_5 2.776372 1_455
V0_3 V0_5 2.776372 1_565
V0_3 V0_7 2.776372 1_455
V0_3 V0_7 2.776372 1_555
V0_4 V0_6 2.776372 1_545
V0_4 V0_6 2.776372 1_555
V0_5 V0_7 2.776372 1_545
V0_5 V0_7 2.776372 1_555
Ga0_0 V0_2 2.703804 1_555
Ga0_0 V0_3 2.703804 1_555
Ga0_0 V0_1 2.703806 1_555
Ga0_0 V0_7 2.703806 1_555
Ga0_0 V0_6 2.703806 1_555
Ga0_0 V0_0 2.703806 1_555
Ga0_0 Ga0_6 2.776372 1_555
Ga0_0 Ga0_6 2.776372 1_445
Ga0_0 Ga0_4 2.776372 1_455
Ga0_0 Ga0_2 2.776372 1_545
Ga0_0 Ga0_4 2.776372 1_555
Ga0_0 Ga0_2 2.776372 1_555
Ga0_1 V0_3 2.703804 1_555
Ga0_1 V0_2 2.703804 1_556
Ga0_1 V0_0 2.703806 1_556
Ga0_1 V0_1 2.703806 1_555
Ga0_1 V0_6 2.703806 1_556
Ga0_1 V0_7 2.703806 1_555
Ga0_1 Ga0_7 2.776372 1_555
Ga0_1 Ga0_7 2.776372 1_445
Ga0_1 Ga0_5 2.776372 1_455
Ga0_1 Ga0_3 2.776372 1_545
Ga0_1 Ga0_3 2.776372 1_555
Ga0_1 Ga0_5 2.776372 1_555
Ga0_2 V0_0 2.703804 1_565
Ga0_2 V0_1 2.703804 1_565
Ga0_2 V0_4 2.703806 1_565
Ga0_2 V0_3 2.703806 1_555
Ga0_2 V0_5 2.703806 1_565
Ga0_2 V0_2 2.703806 1_555
Ga0_2 Ga0_4 2.776372 1_455
Ga0_2 Ga0_4 2.776372 1_565
Ga0_2 Ga0_6 2.776372 1_555
Ga0_2 Ga0_6 2.776372 1_455
Ga0_3 V0_0 2.703804 1_566
Ga0_3 V0_1 2.703804 1_565
Ga0_3 V0_2 2.703806 1_556
Ga0_3 V0_3 2.703806 1_555
Ga0_3 V0_5 2.703806 1_565
Ga0_3 V0_4 2.703806 1_566
Ga0_3 Ga0_5 2.776372 1_455
Ga0_3 Ga0_5 2.776372 1_565
Ga0_3 Ga0_7 2.776372 1_555
Ga0_3 Ga0_7 2.776372 1_455
Ga0_4 V0_6 2.703804 1_555
Ga0_4 V0_7 2.703804 1_555
Ga0_4 V0_4 2.703806 1_555
Ga0_4 V0_2 2.703806 1_655
Ga0_4 V0_5 2.703806 1_555
Ga0_4 V0_3 2.703806 1_655
Ga0_4 Ga0_6 2.776372 1_545
Ga0_4 Ga0_6 2.776372 1_555
Ga0_5 V0_6 2.703804 1_556
Ga0_5 V0_7 2.703804 1_555
Ga0_5 V0_5 2.703806 1_555
Ga0_5 V0_2 2.703806 1_656
Ga0_5 V0_3 2.703806 1_655
Ga0_5 V0_4 2.703806 1_556
Ga0_5 Ga0_7 2.776372 1_545
Ga0_5 Ga0_7 2.776372 1_555
Ga0_6 V0_4 2.703804 1_565
Ga0_6 V0_5 2.703804 1_565
Ga0_6 V0_6 2.703806 1_555
Ga0_6 V0_7 2.703806 1_555
Ga0_6 V0_0 2.703806 1_665
Ga0_6 V0_1 2.703806 1_665
Ga0_7 V0_4 2.703804 1_566
Ga0_7 V0_5 2.703804 1_565
Ga0_7 V0_6 2.703806 1_556
Ga0_7 V0_7 2.703806 1_555
Ga0_7 V0_1 2.703806 1_665
Ga0_7 V0_0 2.703806 1_666
