# generated using pymatgen
data_MgInWS4
_symmetry_space_group_name_H-M   'P 1'
_cell_length_a   7.54634853
_cell_length_b   7.57007150
_cell_length_c   7.56918750
_cell_angle_alpha   59.98645377
_cell_angle_beta   60.10538005
_cell_angle_gamma   60.08512534
_symmetry_Int_Tables_number   1
_chemical_formula_structural   MgInWS4
_chemical_formula_sum   'Mg2 In2 W2 S8'
_cell_volume   306.16126662
_cell_formula_units_Z   2
loop_
 _symmetry_equiv_pos_site_id
 _symmetry_equiv_pos_as_xyz
  1  'x, y, z'
loop_
 _atom_site_type_symbol
 _atom_site_label
 _atom_site_symmetry_multiplicity
 _atom_site_fract_x
 _atom_site_fract_y
 _atom_site_fract_z
 _atom_site_occupancy
  Mg  Mg0  1  0.87373200  0.87620100  0.87623200  1
  Mg  Mg1  1  0.12618000  0.12380000  0.12379400  1
  In  In0  1  0.49997400  0.50012300  0.49989800  1
  In  In1  1  0.99994200  0.49996100  0.50011000  1
  W  W0  1  0.49998400  0.50001300  0.99998700  1
  W  W1  1  0.50008100  0.99982300  0.50000800  1
  S  S0  1  0.72227900  0.74728200  0.74744300  1
  S  S1  1  0.26769000  0.23935100  0.72528500  1
  S  S2  1  0.26771800  0.72527500  0.23927500  1
  S  S3  1  0.71705700  0.25261700  0.25259500  1
  S  S4  1  0.73225600  0.27479700  0.76073600  1
  S  S5  1  0.28299100  0.74734600  0.74744100  1
  S  S6  1  0.27774400  0.25269400  0.25262200  1
  S  S7  1  0.73237500  0.76071200  0.27457500  1
loop_
_geom_bond_atom_site_label_1
_geom_bond_atom_site_label_2
_geom_bond_distance
_geom_bond_site_symmetry_2
Mg0 S7 2.465826 1_556
Mg0 S4 2.467193 1_565
Mg0 S0 2.526630 1_555
Mg0 S5 2.526945 1_655
Mg1 S2 2.466752 1_545
Mg1 S1 2.466849 1_554
Mg1 S3 2.526092 1_455
Mg1 S6 2.527416 1_555
In0 S2 2.640399 1_555
In0 S4 2.641691 1_555
In0 S7 2.641844 1_555
In0 S1 2.642231 1_555
In0 S5 2.662265 1_555
In0 S3 2.662443 1_555
In1 S1 2.640561 1_655
In1 S4 2.641159 1_555
In1 S7 2.641411 1_555
In1 S2 2.642454 1_655
In1 S0 2.661562 1_555
In1 S6 2.662159 1_655
S0 W1 2.514995 1_555
S0 W0 2.515517 1_555
S1 W1 2.492294 1_545
S2 W0 2.490919 1_554
S3 W0 2.515259 1_554
S3 W1 2.516690 1_545
S4 W0 2.490475 1_555
S5 W0 2.514508 1_555
S5 W1 2.515554 1_555
S6 W0 2.515545 1_554
S6 W1 2.515566 1_545
S7 W1 2.490850 1_555
