# generated using pymatgen
data_YEr3
_symmetry_space_group_name_H-M   'P 1'
_cell_length_a   7.22076552
_cell_length_b   7.22073516
_cell_length_c   5.55537996
_cell_angle_alpha   90.00000000
_cell_angle_beta   90.00000000
_cell_angle_gamma   120.00274791
_symmetry_Int_Tables_number   1
_chemical_formula_structural   YEr3
_chemical_formula_sum   'Y2 Er6'
_cell_volume   250.84013861
_cell_formula_units_Z   2
loop_
 _symmetry_equiv_pos_site_id
 _symmetry_equiv_pos_as_xyz
  1  'x, y, z'
loop_
 _atom_site_type_symbol
 _atom_site_label
 _atom_site_symmetry_multiplicity
 _atom_site_fract_x
 _atom_site_fract_y
 _atom_site_fract_z
 _atom_site_occupancy
  Y  Y0  1  0.33334003  0.66669584  0.75000100  1
  Y  Y1  1  0.66665762  0.33330455  0.25000100  1
  Er  Er0  1  0.16558533  0.33111959  0.25000100  1
  Er  Er1  1  0.66887127  0.83441883  0.25000100  1
  Er  Er2  1  0.16559155  0.83443148  0.25000100  1
  Er  Er3  1  0.83440788  0.66886743  0.75000100  1
  Er  Er4  1  0.33114216  0.16558836  0.75000100  1
  Er  Er5  1  0.83440316  0.16556991  0.75000100  1
loop_
_geom_bond_atom_site_label_1
_geom_bond_atom_site_label_2
_geom_bond_distance
_geom_bond_site_symmetry_2
Er0 Er4 3.464431 1_554
Er0 Er4 3.464431 1_555
Er0 Er5 3.464734 1_454
Er0 Er5 3.464734 1_455
Er0 Y0 3.481222 1_554
Er0 Y0 3.481222 1_555
Er0 Er1 3.586451 1_445
Er0 Er2 3.586476 1_545
Er0 Y1 3.610262 1_555
Er0 Y1 3.610555 1_455
Er0 Er1 3.633999 1_555
Er0 Er2 3.634259 1_555
Er1 Er3 3.464431 1_554
Er1 Er3 3.464431 1_555
Er1 Er5 3.464612 1_564
Er1 Er5 3.464612 1_565
Er1 Y0 3.481057 1_554
Er1 Y0 3.481057 1_555
Er1 Er2 3.586655 1_655
Er1 Y1 3.610341 1_565
Er1 Y1 3.610447 1_555
Er1 Er2 3.634111 1_555
Er2 Er4 3.464634 1_564
Er2 Er4 3.464634 1_565
Er2 Er3 3.464739 1_455
Er2 Er3 3.464739 1_454
Er2 Y0 3.480930 1_554
Er2 Y0 3.480930 1_555
Er2 Y1 3.610032 1_565
Er2 Y1 3.610471 1_455
Er3 Y1 3.481171 1_556
Er3 Y1 3.481171 1_555
Er3 Er5 3.586574 1_565
Er3 Er4 3.586597 1_665
Er3 Y0 3.610278 1_555
Er3 Y0 3.610538 1_655
Er3 Er4 3.633853 1_555
Er3 Er5 3.634161 1_555
Er4 Y1 3.480998 1_556
Er4 Y1 3.480998 1_555
Er4 Er5 3.586769 1_455
Er4 Y0 3.610333 1_545
Er4 Y0 3.610455 1_555
Er4 Er5 3.633996 1_555
Er5 Y1 3.480915 1_556
Er5 Y1 3.480915 1_555
Er5 Y0 3.610025 1_545
Er5 Y0 3.610478 1_655
