# generated using pymatgen
data_Gd2CuAu
_symmetry_space_group_name_H-M   'P 1'
_cell_length_a   5.03823580
_cell_length_b   5.03823580
_cell_length_c   5.03823580
_cell_angle_alpha   60.00000000
_cell_angle_beta   60.00000000
_cell_angle_gamma   60.00000000
_symmetry_Int_Tables_number   1
_chemical_formula_structural   Gd2CuAu
_chemical_formula_sum   'Gd2 Cu1 Au1'
_cell_volume   90.43165333
_cell_formula_units_Z   1
loop_
 _symmetry_equiv_pos_site_id
 _symmetry_equiv_pos_as_xyz
  1  'x, y, z'
loop_
 _atom_site_type_symbol
 _atom_site_label
 _atom_site_symmetry_multiplicity
 _atom_site_fract_x
 _atom_site_fract_y
 _atom_site_fract_z
 _atom_site_occupancy
  Gd  Gd0  1  0.25000000  0.25000000  0.25000000  1
  Gd  Gd1  1  0.75000000  0.75000000  0.75000000  1
  Cu  Cu0  1  0.00000000  0.00000000  0.00000000  1
  Au  Au0  1  0.50000000  0.50000000  0.50000000  1
loop_
_geom_bond_atom_site_label_1
_geom_bond_atom_site_label_2
_geom_bond_distance
_geom_bond_site_symmetry_2
Cu0 Gd1 3.085277 1_445
Cu0 Gd0 3.085277 1_555
Cu0 Gd1 3.085277 1_454
Cu0 Gd0 3.085277 1_545
Cu0 Gd1 3.085277 1_444
Cu0 Gd1 3.085277 1_544
Cu0 Gd0 3.085277 1_455
Cu0 Gd0 3.085277 1_554
Au0 Gd0 3.085277 1_555
Au0 Gd0 3.085277 1_556
Au0 Gd1 3.085277 1_545
Au0 Gd1 3.085277 1_554
Au0 Gd0 3.085277 1_565
Au0 Gd0 3.085277 1_655
Au0 Gd1 3.085277 1_455
Au0 Gd1 3.085277 1_555
