# generated using pymatgen
data_Ho2Ni(B2O5)2
_symmetry_space_group_name_H-M   'P 1'
_cell_length_a   7.27133100
_cell_length_b   4.54005600
_cell_length_c   9.41735189
_cell_angle_alpha   88.74088053
_cell_angle_beta   90.00000000
_cell_angle_gamma   90.00000000
_symmetry_Int_Tables_number   1
_chemical_formula_structural   Ho2Ni(B2O5)2
_chemical_formula_sum   'Ho4 Ni2 B8 O20'
_cell_volume   310.81290809
_cell_formula_units_Z   2
loop_
 _symmetry_equiv_pos_site_id
 _symmetry_equiv_pos_as_xyz
  1  'x, y, z'
loop_
 _atom_site_type_symbol
 _atom_site_label
 _atom_site_symmetry_multiplicity
 _atom_site_fract_x
 _atom_site_fract_y
 _atom_site_fract_z
 _atom_site_occupancy
  Ho  Ho0  1  0.39879800  0.00425600  0.83519400  1
  Ho  Ho1  1  0.89879800  0.99574400  0.66480600  1
  Ho  Ho2  1  0.10120200  0.00425600  0.33519400  1
  Ho  Ho3  1  0.60120200  0.99574400  0.16480600  1
  Ni  Ni0  1  0.00000000  0.00000000  0.00000000  1
  Ni  Ni1  1  0.50000000  0.00000000  0.50000000  1
  B  B0  1  0.26460200  0.52946100  0.08497800  1
  B  B1  1  0.76460200  0.47053900  0.41502200  1
  B  B2  1  0.73539800  0.47053900  0.91502200  1
  B  B3  1  0.23539800  0.52946100  0.58497800  1
  B  B4  1  0.59603000  0.53528500  0.66111300  1
  B  B5  1  0.09603000  0.46471500  0.83888700  1
  B  B6  1  0.40397000  0.46471500  0.33888700  1
  B  B7  1  0.90397000  0.53528500  0.16111300  1
  O  O0  1  0.40433400  0.77780900  0.33331200  1
  O  O1  1  0.59566600  0.22219100  0.66668800  1
  O  O2  1  0.09201800  0.67864100  0.14285800  1
  O  O3  1  0.59201800  0.32135900  0.35714200  1
  O  O4  1  0.90798200  0.32135900  0.85714200  1
  O  O5  1  0.09566600  0.77780900  0.83331200  1
  O  O6  1  0.79291600  0.66627100  0.03754500  1
  O  O7  1  0.29291600  0.33372900  0.46245500  1
  O  O8  1  0.20708400  0.33372900  0.96245500  1
  O  O9  1  0.70708400  0.66627100  0.53754500  1
  O  O10  1  0.82991700  0.67192400  0.29512100  1
  O  O11  1  0.32991700  0.32807600  0.20487900  1
  O  O12  1  0.17008300  0.32807600  0.70487900  1
  O  O13  1  0.67008300  0.67192400  0.79512100  1
  O  O14  1  0.10877900  0.75144600  0.53935300  1
  O  O15  1  0.60877900  0.24855400  0.96064700  1
  O  O16  1  0.89122100  0.24855400  0.46064700  1
  O  O17  1  0.39122100  0.75144600  0.03935300  1
  O  O18  1  0.40798200  0.67864100  0.64285800  1
  O  O19  1  0.90433400  0.22219100  0.16668800  1
loop_
_geom_bond_atom_site_label_1
_geom_bond_atom_site_label_2
_geom_bond_distance
_geom_bond_site_symmetry_2
Ho0 O17 2.218100 1_546
Ho0 O15 2.239371 1_555
Ho0 O1 2.340372 1_555
Ho0 O18 2.363965 1_545
Ho0 O8 2.386602 1_555
Ho0 O5 2.432375 1_545
Ho0 O13 2.516962 1_545
Ho0 O12 2.520701 1_555
Ho1 O16 2.218100 1_565
Ho1 O14 2.239371 1_655
Ho1 O5 2.340372 1_655
Ho1 O4 2.363965 1_565
Ho1 O9 2.386602 1_555
Ho1 O1 2.432375 1_565
Ho1 O12 2.516962 1_665
Ho1 O13 2.520701 1_555
Ho2 O14 2.218100 1_545
Ho2 O16 2.239371 1_455
Ho2 O19 2.340372 1_455
Ho2 O2 2.363965 1_545
Ho2 O7 2.386602 1_555
Ho2 O0 2.432375 1_545
Ho2 O10 2.516962 1_445
Ho2 O11 2.520701 1_555
Ho3 O15 2.218100 1_564
Ho3 O17 2.239371 1_555
Ho3 O0 2.340372 1_555
Ho3 O3 2.363965 1_565
Ho3 O6 2.386602 1_555
Ho3 O19 2.432375 1_565
Ho3 O11 2.516962 1_565
Ho3 O10 2.520701 1_555
Ni0 O5 2.008785 1_544
Ni0 O19 2.008785 1_455
Ni0 O2 2.073649 1_545
Ni0 O4 2.073649 1_454
Ni0 O8 2.159747 1_554
Ni0 O6 2.159747 1_445
Ni1 O1 2.008785 1_555
Ni1 O0 2.008785 1_545
Ni1 O18 2.073649 1_545
Ni1 O3 2.073649 1_555
Ni1 O7 2.159747 1_555
Ni1 O9 2.159747 1_545
B0 O17 1.424416 1_555
B0 O11 1.513640 1_555
B0 O8 1.530034 1_554
B0 O2 1.531947 1_555
B1 O16 1.424416 1_555
B1 O10 1.513640 1_555
B1 O9 1.530034 1_555
B1 O3 1.531947 1_555
B2 O15 1.424416 1_555
B2 O13 1.513640 1_555
B2 O6 1.530034 1_556
B2 O4 1.531947 1_555
B3 O14 1.424416 1_555
B3 O12 1.513640 1_555
B3 O7 1.530034 1_555
B3 O18 1.531947 1_555
B4 O1 1.421283 1_555
B4 O13 1.517177 1_555
B4 O18 1.522467 1_555
B4 O9 1.526259 1_555
B5 O5 1.421283 1_555
B5 O12 1.517177 1_555
B5 O4 1.522467 1_455
B5 O8 1.526259 1_555
B6 O0 1.421283 1_555
B6 O11 1.517177 1_555
B6 O3 1.522467 1_555
B6 O7 1.526259 1_555
B7 O19 1.421283 1_555
B7 O10 1.517177 1_555
B7 O2 1.522467 1_655
B7 O6 1.526259 1_555
