# generated using pymatgen
data_CsSnPS4
_symmetry_space_group_name_H-M   'P 1'
_cell_length_a   6.32534300
_cell_length_b   6.92179500
_cell_length_c   18.45750500
_cell_angle_alpha   90.00000000
_cell_angle_beta   90.00000000
_cell_angle_gamma   90.00000000
_symmetry_Int_Tables_number   1
_chemical_formula_structural   CsSnPS4
_chemical_formula_sum   'Cs4 Sn4 P4 S16'
_cell_volume   808.11991268
_cell_formula_units_Z   4
loop_
 _symmetry_equiv_pos_site_id
 _symmetry_equiv_pos_as_xyz
  1  'x, y, z'
loop_
 _atom_site_type_symbol
 _atom_site_label
 _atom_site_symmetry_multiplicity
 _atom_site_fract_x
 _atom_site_fract_y
 _atom_site_fract_z
 _atom_site_occupancy
  Cs  Cs0  1  0.42742800  0.25000000  0.70093000  1
  Cs  Cs1  1  0.57257200  0.75000000  0.29907000  1
  Cs  Cs2  1  0.92742800  0.75000000  0.79907000  1
  Cs  Cs3  1  0.07257200  0.25000000  0.20093000  1
  Sn  Sn0  1  0.71569900  0.25000000  0.97857800  1
  Sn  Sn1  1  0.28430100  0.75000000  0.02142200  1
  Sn  Sn2  1  0.21569900  0.75000000  0.52142200  1
  Sn  Sn3  1  0.78430100  0.25000000  0.47857800  1
  P  P0  1  0.71920500  0.75000000  0.59475300  1
  P  P1  1  0.28079500  0.25000000  0.40524700  1
  P  P2  1  0.78079500  0.75000000  0.09475300  1
  P  P3  1  0.21920500  0.25000000  0.90524700  1
  S  S0  1  0.64880700  0.75000000  0.48531600  1
  S  S1  1  0.35119300  0.25000000  0.51468400  1
  S  S2  1  0.89363900  0.50932800  0.61809200  1
  S  S3  1  0.10636100  0.00932800  0.38190800  1
  S  S4  1  0.10636100  0.49067200  0.38190800  1
  S  S5  1  0.89363900  0.99067200  0.61809200  1
  S  S6  1  0.85119300  0.75000000  0.98531600  1
  S  S7  1  0.14880700  0.25000000  0.01468400  1
  S  S8  1  0.43670900  0.75000000  0.65063900  1
  S  S9  1  0.56329100  0.25000000  0.34936100  1
  S  S10  1  0.06329100  0.75000000  0.15063900  1
  S  S11  1  0.93670900  0.25000000  0.84936100  1
  S  S12  1  0.60636100  0.50932800  0.11809200  1
  S  S13  1  0.39363900  0.00932800  0.88190800  1
  S  S14  1  0.39363900  0.49067200  0.88190800  1
  S  S15  1  0.60636100  0.99067200  0.11809200  1
loop_
_geom_bond_atom_site_label_1
_geom_bond_atom_site_label_2
_geom_bond_distance
_geom_bond_site_symmetry_2
Cs0 S1 3.471293 1_555
Cs0 S8 3.583699 1_545
Cs0 S8 3.583699 1_555
Cs0 S13 3.738868 1_555
Cs0 S14 3.738868 1_555
Cs0 S2 3.775731 1_555
Cs0 S5 3.775731 1_545
Cs1 S0 3.471293 1_555
Cs1 S9 3.583699 1_555
Cs1 S9 3.583699 1_565
Cs1 S15 3.738868 1_555
Cs1 S12 3.738868 1_555
Cs1 S4 3.775731 1_555
Cs1 S3 3.775731 1_565
Cs2 S6 3.471293 1_555
Cs2 S11 3.583699 1_555
Cs2 S11 3.583699 1_565
Cs2 S5 3.738868 1_555
Cs2 S2 3.738868 1_555
Cs2 S13 3.775731 1_665
Cs2 S14 3.775731 1_655
Cs3 S7 3.471293 1_555
Cs3 S10 3.583699 1_545
Cs3 S10 3.583699 1_555
Cs3 S3 3.738868 1_555
Cs3 S4 3.738868 1_555
Cs3 S12 3.775731 1_455
Cs3 S15 3.775731 1_445
P0 S5 2.044047 1_555
P0 S2 2.044047 1_555
P0 S8 2.063245 1_555
P0 S0 2.068434 1_555
P1 S4 2.044047 1_555
P1 S3 2.044047 1_555
P1 S9 2.063245 1_555
P1 S1 2.068434 1_555
P2 S15 2.044047 1_555
P2 S12 2.044047 1_555
P2 S10 2.063245 1_655
P2 S6 2.068434 1_554
P3 S14 2.044047 1_555
P3 S13 2.044047 1_555
P3 S11 2.063245 1_455
P3 S7 2.068434 1_556
S0 Sn2 2.819449 1_555
S1 Sn3 2.819449 1_555
S6 Sn1 2.819449 1_656
S7 Sn0 2.819449 1_454
S8 Sn2 2.764533 1_555
S9 Sn3 2.764533 1_555
S10 Sn1 2.764533 1_555
S11 Sn0 2.764533 1_555
