# generated using pymatgen
data_NaLaScSbO6
_symmetry_space_group_name_H-M   'P 1'
_cell_length_a   5.70402700
_cell_length_b   5.68707600
_cell_length_c   9.80458884
_cell_angle_alpha   54.72140937
_cell_angle_beta   90.00000000
_cell_angle_gamma   90.00000000
_symmetry_Int_Tables_number   1
_chemical_formula_structural   NaLaScSbO6
_chemical_formula_sum   'Na2 La2 Sc2 Sb2 O12'
_cell_volume   259.64396177
_cell_formula_units_Z   2
loop_
 _symmetry_equiv_pos_site_id
 _symmetry_equiv_pos_as_xyz
  1  'x, y, z'
loop_
 _atom_site_type_symbol
 _atom_site_label
 _atom_site_symmetry_multiplicity
 _atom_site_fract_x
 _atom_site_fract_y
 _atom_site_fract_z
 _atom_site_occupancy
  Na  Na0  1  0.24567400  0.25655300  0.74974900  1
  Na  Na1  1  0.75432600  0.25655300  0.24974900  1
  La  La0  1  0.26033300  0.73515800  0.25014400  1
  La  La1  1  0.73966700  0.73515800  0.75014400  1
  Sc  Sc0  1  0.24899000  0.99647700  0.50226300  1
  Sc  Sc1  1  0.75101000  0.99647700  0.00226300  1
  Sb  Sb0  1  0.75134700  0.50049700  0.49893200  1
  Sb  Sb1  1  0.24865300  0.50049700  0.99893200  1
  O  O0  1  0.75483500  0.16282300  0.74169000  1
  O  O1  1  0.24516500  0.16282300  0.24169000  1
  O  O2  1  0.74275500  0.82530900  0.25618400  1
  O  O3  1  0.25724500  0.82530900  0.75618400  1
  O  O4  1  0.98005700  0.70934800  0.54841800  1
  O  O5  1  0.01994300  0.70934800  0.04841800  1
  O  O6  1  0.50792000  0.30129400  0.45260200  1
  O  O7  1  0.49208000  0.30129400  0.95260200  1
  O  O8  1  0.50156700  0.69138700  0.54788600  1
  O  O9  1  0.49843300  0.69138700  0.04788600  1
  O  O10  1  0.01123500  0.32115400  0.45213200  1
  O  O11  1  0.98876500  0.32115400  0.95213200  1
loop_
_geom_bond_atom_site_label_1
_geom_bond_atom_site_label_2
_geom_bond_distance
_geom_bond_site_symmetry_2
Na0 O3 2.417528 1_545
Na0 O8 2.551377 1_555
Na0 O7 2.565235 1_555
Na0 O4 2.636575 1_455
Na0 O11 2.657419 1_455
Na1 O2 2.417528 1_545
Na1 O9 2.551377 1_555
Na1 O6 2.565235 1_555
Na1 O5 2.636575 1_655
Na1 O10 2.657419 1_655
La0 O1 2.386820 1_565
La0 O10 2.469486 1_555
La0 O5 2.479699 1_555
La0 O6 2.522959 1_555
La0 O9 2.531640 1_555
La1 O0 2.386820 1_565
La1 O11 2.469486 1_555
La1 O4 2.479699 1_555
La1 O7 2.522959 1_555
La1 O8 2.531640 1_555
O0 Sb0 2.018316 1_555
O0 Sc1 2.151909 1_546
O1 Sb1 2.018316 1_554
O1 Sc0 2.151909 1_545
O2 Sb0 2.000216 1_555
O2 Sc1 2.085306 1_555
O3 Sb1 2.000216 1_555
O3 Sc0 2.085306 1_555
O4 Sb0 2.003430 1_555
O4 Sc0 2.090651 1_655
O5 Sb1 2.003430 1_554
O5 Sc1 2.090651 1_455
O6 Sb0 2.003038 1_555
O6 Sc0 2.109157 1_545
O7 Sb1 2.003038 1_555
O7 Sc1 2.109157 1_546
O8 Sb0 2.010153 1_555
O8 Sc0 2.095159 1_555
O9 Sb1 2.010153 1_554
O9 Sc1 2.095159 1_555
O10 Sb0 1.997235 1_455
O10 Sc0 2.107571 1_545
O11 Sb1 1.997235 1_655
O11 Sc1 2.107571 1_546
