# generated using pymatgen
data_Na3RuN2
_symmetry_space_group_name_H-M   'P 1'
_cell_length_a   9.89652736
_cell_length_b   9.01607197
_cell_length_c   15.13888674
_cell_angle_alpha   89.99999782
_cell_angle_beta   139.89441453
_cell_angle_gamma   117.09819951
_symmetry_Int_Tables_number   1
_chemical_formula_structural   Na3RuN2
_chemical_formula_sum   'Na12 Ru4 N8'
_cell_volume   615.31663028
_cell_formula_units_Z   4
loop_
 _symmetry_equiv_pos_site_id
 _symmetry_equiv_pos_as_xyz
  1  'x, y, z'
loop_
 _atom_site_type_symbol
 _atom_site_label
 _atom_site_symmetry_multiplicity
 _atom_site_fract_x
 _atom_site_fract_y
 _atom_site_fract_z
 _atom_site_occupancy
  Na  Na0  1  0.00000000  0.50000000  0.62571300  1
  Na  Na1  1  0.00000000  0.00000000  0.62428700  1
  Na  Na2  1  0.00000000  0.50000000  0.87428700  1
  Na  Na3  1  0.00000000  0.00000000  0.37571300  1
  Na  Na4  1  0.45212600  0.50000000  0.47606300  1
  Na  Na5  1  0.54787400  0.50000000  0.02393700  1
  Na  Na6  1  0.45212600  0.00000000  0.22606300  1
  Na  Na7  1  0.54787400  0.00000000  0.77393700  1
  Na  Na8  1  0.54787400  0.04787400  0.02393700  1
  Na  Na9  1  0.45212600  0.95212600  0.47606300  1
  Na  Na10  1  0.54787400  0.54787400  0.77393700  1
  Na  Na11  1  0.45212600  0.45212600  0.22606300  1
  Ru  Ru0  1  0.00000000  0.50000000  0.32530900  1
  Ru  Ru1  1  0.00000000  0.00000000  0.92469100  1
  Ru  Ru2  1  0.00000000  0.50000000  0.17469100  1
  Ru  Ru3  1  0.00000000  0.00000000  0.07530900  1
  N  N0  1  0.36854400  0.68427200  0.57192600  1
  N  N1  1  0.63145600  0.31572800  0.20338200  1
  N  N2  1  0.36854400  0.18427200  0.04661800  1
  N  N3  1  0.63145600  0.81572800  0.67807400  1
  N  N4  1  0.00000000  0.31572800  0.11234500  1
  N  N5  1  0.00000000  0.68427200  0.11234500  1
  N  N6  1  0.00000000  0.81572800  0.13765500  1
  N  N7  1  0.00000000  0.18427200  0.13765500  1
loop_
_geom_bond_atom_site_label_1
_geom_bond_atom_site_label_2
_geom_bond_distance
_geom_bond_site_symmetry_2
Na0 Na11 3.725096 1_455
Na0 Na6 3.725097 1_455
Na0 Na10 3.725097 1_555
Na0 Na7 3.725097 1_565
Na0 Na2 3.763134 1_555
Na0 Na5 3.967426 1_556
Na0 Na4 3.967426 1_455
Na0 Na8 3.967426 1_566
Na0 Na9 3.967426 1_445
Na1 Na8 3.725096 1_556
Na1 Na5 3.725097 1_556
Na1 Na9 3.725097 1_445
Na1 Na4 3.725097 1_445
Na1 Na3 3.763134 1_555
Na1 Na6 3.967426 1_455
Na1 Na7 3.967426 1_555
Na1 Na11 3.967426 1_445
Na1 Na10 3.967426 1_555
Na2 Na6 3.725097 1_566
Na2 Na7 3.725097 1_455
Na2 Na4 3.967426 1_455
Na2 Na5 3.967426 1_556
Na2 Na9 3.967426 1_445
Na2 Na8 3.967426 1_566
Na3 Na8 3.725097 1_455
Na3 Na9 3.725097 1_545
Na3 Na5 3.725097 1_445
Na3 Na4 3.725097 1_555
Na3 Na7 3.967426 1_555
Na3 Na6 3.967426 1_455
Na10 Na2 3.725097 1_655
Na10 Na3 3.967426 1_555
Na11 Na2 3.725097 1_554
Na11 Na3 3.967426 1_665
N0 N3 1.245605 1_555
N0 Ru0 1.910786 1_555
N0 Na10 2.774979 1_555
N0 Na7 2.774980 1_565
N1 N2 1.245605 1_555
N1 Ru0 1.910786 1_655
N1 Na11 2.774980 1_555
N1 Na6 2.774980 1_555
N2 Ru1 1.910786 1_554
N2 Na8 2.774980 1_555
N2 Na5 2.774980 1_555
N3 Ru1 1.910786 1_665
N3 Na9 2.774979 1_555
N3 Na4 2.774980 1_555
N4 N7 1.245614 1_555
N4 Ru2 1.910794 1_555
N4 Na7 2.774970 1_454
N4 Na11 2.774970 1_555
N5 N6 1.245614 1_555
N5 Ru2 1.910794 1_555
N5 Na10 2.774970 1_454
N5 Na6 2.774970 1_565
N6 Ru3 1.910794 1_565
N6 Na9 2.774970 1_555
N6 Na5 2.774970 1_455
N7 Ru3 1.910794 1_555
N7 Na4 2.774970 1_555
N7 Na8 2.774970 1_455
