# generated using pymatgen
data_SrNdCoO4
_symmetry_space_group_name_H-M   'P 1'
_cell_length_a   6.82019141
_cell_length_b   6.82019141
_cell_length_c   6.82019141
_cell_angle_alpha   147.44695863
_cell_angle_beta   147.44695863
_cell_angle_gamma   46.70243975
_symmetry_Int_Tables_number   1
_chemical_formula_structural   SrNdCoO4
_chemical_formula_sum   'Sr1 Nd1 Co1 O4'
_cell_volume   91.51657069
_cell_formula_units_Z   1
loop_
 _symmetry_equiv_pos_site_id
 _symmetry_equiv_pos_as_xyz
  1  'x, y, z'
loop_
 _atom_site_type_symbol
 _atom_site_label
 _atom_site_symmetry_multiplicity
 _atom_site_fract_x
 _atom_site_fract_y
 _atom_site_fract_z
 _atom_site_occupancy
  Sr  Sr0  1  0.64277300  0.64277300  0.00000000  1
  Nd  Nd0  1  0.36071800  0.36071800  0.00000000  1
  Co  Co0  1  0.00194700  0.00194700  0.00000000  1
  O  O0  1  0.83712800  0.83712800  0.00000000  1
  O  O1  1  0.17342600  0.17342600  0.00000000  1
  O  O2  1  0.99200400  0.49200400  0.50000000  1
  O  O3  1  0.49200400  0.99200400  0.50000000  1
loop_
_geom_bond_atom_site_label_1
_geom_bond_atom_site_label_2
_geom_bond_distance
_geom_bond_site_symmetry_2
Nd0 O1 2.345482 1_555
Nd0 O2 2.521310 1_454
Nd0 O3 2.521310 1_544
Nd0 O3 2.521310 1_555
Nd0 O2 2.521310 1_555
Nd0 O0 2.719389 1_545
Nd0 O0 2.719389 1_444
Nd0 O0 2.719389 1_455
Nd0 O0 2.719389 1_556
Co0 O3 1.915569 1_444
Co0 O3 1.915569 1_545
Co0 O2 1.915569 1_455
Co0 O2 1.915569 1_444
Co0 O0 2.064050 1_445
Co0 O1 2.147454 1_555
O0 Sr0 2.433933 1_555
O1 Sr0 2.730414 1_455
O1 Sr0 2.730414 1_556
O1 Sr0 2.730414 1_444
O1 Sr0 2.730414 1_545
O2 Sr0 2.686787 1_555
O2 Sr0 2.686787 1_656
O3 Sr0 2.686787 1_555
O3 Sr0 2.686787 1_566
