# generated using pymatgen
data_BaMg14CO16
_symmetry_space_group_name_H-M   'P 1'
_cell_length_a   8.74625757
_cell_length_b   8.74625757
_cell_length_c   4.46059180
_cell_angle_alpha   90.00000000
_cell_angle_beta   90.00000000
_cell_angle_gamma   90.00000000
_symmetry_Int_Tables_number   1
_chemical_formula_structural   BaMg14CO16
_chemical_formula_sum   'Ba1 Mg14 C1 O16'
_cell_volume   341.22198674
_cell_formula_units_Z   1
loop_
 _symmetry_equiv_pos_site_id
 _symmetry_equiv_pos_as_xyz
  1  'x, y, z'
loop_
 _atom_site_type_symbol
 _atom_site_label
 _atom_site_symmetry_multiplicity
 _atom_site_fract_x
 _atom_site_fract_y
 _atom_site_fract_z
 _atom_site_occupancy
  Ba  Ba0  1  -0.00000000  -0.00000000  -0.00000000  1
  Mg  Mg0  1  -0.00000000  0.50000000  -0.00000000  1
  Mg  Mg1  1  0.50000000  -0.00000000  -0.00000000  1
  Mg  Mg2  1  -0.00000000  0.26637894  0.50000000  1
  Mg  Mg3  1  -0.00000000  0.73362106  0.50000000  1
  Mg  Mg4  1  0.50000000  0.25661958  0.50000000  1
  Mg  Mg5  1  0.50000000  0.74338042  0.50000000  1
  Mg  Mg6  1  0.26637894  -0.00000000  0.50000000  1
  Mg  Mg7  1  0.25661958  0.50000000  0.50000000  1
  Mg  Mg8  1  0.73362106  -0.00000000  0.50000000  1
  Mg  Mg9  1  0.74338042  0.50000000  0.50000000  1
  Mg  Mg10  1  0.26188086  0.26188086  0.00000000  1
  Mg  Mg11  1  0.26188086  0.73811914  -0.00000000  1
  Mg  Mg12  1  0.73811914  0.26188086  0.00000000  1
  Mg  Mg13  1  0.73811914  0.73811914  -0.00000000  1
  C  C0  1  0.50000000  0.50000000  -0.00000000  1
  O  O0  1  0.28064388  -0.00000000  -0.00000000  1
  O  O1  1  0.25454889  0.50000000  0.00000000  1
  O  O2  1  0.71935612  -0.00000000  -0.00000000  1
  O  O3  1  0.74545111  0.50000000  -0.00000000  1
  O  O4  1  0.25146314  0.25146314  0.50000000  1
  O  O5  1  0.25146314  0.74853686  0.50000000  1
  O  O6  1  0.74853686  0.25146314  0.50000000  1
  O  O7  1  0.74853686  0.74853686  0.50000000  1
  O  O8  1  -0.00000000  -0.00000000  0.50000000  1
  O  O9  1  -0.00000000  0.50000000  0.50000000  1
  O  O10  1  0.50000000  -0.00000000  0.50000000  1
  O  O11  1  0.50000000  0.50000000  0.50000000  1
  O  O12  1  -0.00000000  0.28064388  -0.00000000  1
  O  O13  1  -0.00000000  0.71935612  0.00000000  1
  O  O14  1  0.50000000  0.25454889  -0.00000000  1
  O  O15  1  0.50000000  0.74545111  -0.00000000  1
loop_
_geom_bond_atom_site_label_1
_geom_bond_atom_site_label_2
_geom_bond_distance
_geom_bond_site_symmetry_2
Ba0 O8 2.230296 1_555
Ba0 O8 2.230296 1_554
Ba0 O13 2.454584 1_545
Ba0 O2 2.454584 1_455
Ba0 O12 2.454584 1_555
Ba0 O0 2.454584 1_555
Mg0 O12 1.918545 1_555
Mg0 O13 1.918545 1_555
Mg0 O1 2.226350 1_555
Mg0 O3 2.226350 1_455
Mg0 O9 2.230296 1_554
Mg0 O9 2.230296 1_555
Mg1 O0 1.918545 1_555
Mg1 O2 1.918545 1_555
Mg1 O15 2.226350 1_545
Mg1 O14 2.226350 1_555
Mg1 O10 2.230296 1_554
Mg1 O10 2.230296 1_555
Mg2 O9 2.043310 1_555
Mg2 O4 2.203227 1_555
Mg2 O6 2.203227 1_455
Mg2 O12 2.233783 1_556
Mg2 O12 2.233783 1_555
Mg2 O8 2.329819 1_555
Mg3 O9 2.043310 1_555
Mg3 O5 2.203227 1_555
Mg3 O7 2.203227 1_455
Mg3 O13 2.233783 1_555
Mg3 O13 2.233783 1_556
Mg3 O8 2.329819 1_565
Mg4 O11 2.128668 1_555
Mg4 O4 2.174235 1_555
Mg4 O6 2.174235 1_555
Mg4 O14 2.230369 1_556
Mg4 O14 2.230369 1_555
Mg4 O10 2.244461 1_555
Mg5 O11 2.128668 1_555
Mg5 O5 2.174235 1_555
Mg5 O7 2.174235 1_555
Mg5 O15 2.230369 1_556
Mg5 O15 2.230369 1_555
Mg5 O10 2.244461 1_565
Mg6 O10 2.043310 1_555
Mg6 O4 2.203227 1_555
Mg6 O5 2.203227 1_545
Mg6 O0 2.233783 1_556
Mg6 O0 2.233783 1_555
Mg6 O8 2.329819 1_555
Mg7 O11 2.128668 1_555
Mg7 O4 2.174235 1_555
Mg7 O5 2.174235 1_555
Mg7 O1 2.230369 1_555
Mg7 O1 2.230369 1_556
Mg7 O9 2.244461 1_555
Mg8 O10 2.043310 1_555
Mg8 O6 2.203227 1_555
Mg8 O7 2.203227 1_545
Mg8 O2 2.233783 1_556
Mg8 O2 2.233783 1_555
Mg8 O8 2.329819 1_655
Mg9 O11 2.128668 1_555
Mg9 O7 2.174235 1_555
Mg9 O6 2.174235 1_555
Mg9 O3 2.230369 1_556
Mg9 O3 2.230369 1_555
Mg9 O9 2.244461 1_655
Mg10 O14 2.083638 1_555
Mg10 O1 2.083638 1_555
Mg10 O4 2.234015 1_554
Mg10 O4 2.234015 1_555
Mg10 O12 2.296349 1_555
Mg10 O0 2.296349 1_555
Mg11 O15 2.083638 1_555
Mg11 O1 2.083638 1_555
Mg11 O5 2.234015 1_555
Mg11 O5 2.234015 1_554
Mg11 O0 2.296349 1_565
Mg11 O13 2.296349 1_555
Mg12 O14 2.083638 1_555
Mg12 O3 2.083638 1_555
Mg12 O6 2.234015 1_555
Mg12 O6 2.234015 1_554
Mg12 O2 2.296349 1_555
Mg12 O12 2.296349 1_655
Mg13 O15 2.083638 1_555
Mg13 O3 2.083638 1_555
Mg13 O7 2.234015 1_555
Mg13 O7 2.234015 1_554
Mg13 O2 2.296349 1_565
Mg13 O13 2.296349 1_655
