# generated using pymatgen
data_Mg6NbMo
_symmetry_space_group_name_H-M   'P 1'
_cell_length_a   4.98007700
_cell_length_b   5.75918100
_cell_length_c   11.06608800
_cell_angle_alpha   90.00000000
_cell_angle_beta   90.00000000
_cell_angle_gamma   90.00000000
_symmetry_Int_Tables_number   1
_chemical_formula_structural   Mg6NbMo
_chemical_formula_sum   'Mg12 Nb2 Mo2'
_cell_volume   317.38829403
_cell_formula_units_Z   2
loop_
 _symmetry_equiv_pos_site_id
 _symmetry_equiv_pos_as_xyz
  1  'x, y, z'
loop_
 _atom_site_type_symbol
 _atom_site_label
 _atom_site_symmetry_multiplicity
 _atom_site_fract_x
 _atom_site_fract_y
 _atom_site_fract_z
 _atom_site_occupancy
  Mg  Mg0  1  0.50000000  0.24967600  0.42314800  1
  Mg  Mg1  1  0.50000000  0.75032400  0.42314800  1
  Mg  Mg2  1  0.00000000  0.74659900  0.08625200  1
  Mg  Mg3  1  0.00000000  0.25340100  0.08625200  1
  Mg  Mg4  1  0.00000000  0.00000000  0.31981200  1
  Mg  Mg5  1  0.00000000  0.50000000  0.31571000  1
  Mg  Mg6  1  0.50000000  0.74967600  0.92314800  1
  Mg  Mg7  1  0.50000000  0.25032400  0.92314800  1
  Mg  Mg8  1  0.00000000  0.24659900  0.58625200  1
  Mg  Mg9  1  0.00000000  0.75340100  0.58625200  1
  Mg  Mg10  1  0.00000000  0.50000000  0.81981200  1
  Mg  Mg11  1  0.00000000  0.00000000  0.81571000  1
  Nb  Nb0  1  0.50000000  0.00000000  0.17234200  1
  Nb  Nb1  1  0.50000000  0.50000000  0.67234200  1
  Mo  Mo0  1  0.50000000  0.50000000  0.17333200  1
  Mo  Mo1  1  0.50000000  0.00000000  0.67333200  1
loop_
_geom_bond_atom_site_label_1
_geom_bond_atom_site_label_2
_geom_bond_distance
_geom_bond_site_symmetry_2
Mg0 Mg1 2.875859 1_545
Mg0 Mg1 2.883322 1_555
Mg0 Mg8 3.075444 1_655
Mg0 Mg8 3.075444 1_555
Mg0 Mg4 3.094444 1_655
Mg0 Mg4 3.094444 1_555
Mg0 Nb1 3.111713 1_555
Mg0 Mg5 3.113231 1_655
Mg0 Mg5 3.113231 1_555
Mg0 Mo0 3.117815 1_555
Mg0 Mo1 3.119704 1_555
Mg0 Nb0 3.125814 1_555
Mg1 Mg9 3.075444 1_655
Mg1 Mg9 3.075444 1_555
Mg1 Mg4 3.094444 1_565
Mg1 Mg4 3.094444 1_665
Mg1 Nb1 3.111713 1_555
Mg1 Mg5 3.113231 1_655
Mg1 Mg5 3.113231 1_555
Mg1 Mo0 3.117815 1_555
Mg1 Mo1 3.119704 1_565
Mg1 Nb0 3.125814 1_565
Mg2 Mg3 2.840417 1_555
Mg2 Mg5 2.909388 1_555
Mg2 Mg3 2.918764 1_565
Mg2 Mg4 2.968153 1_565
Mg2 Mo0 3.024215 1_555
Mg2 Mo0 3.024215 1_455
Mg2 Nb0 3.039356 1_465
Mg2 Nb0 3.039356 1_565
Mg2 Mg6 3.075444 1_554
Mg2 Mg6 3.075444 1_454
Mg3 Mg5 2.909388 1_555
Mg3 Mg4 2.968153 1_555
Mg3 Mo0 3.024215 1_555
Mg3 Mo0 3.024215 1_455
Mg3 Nb0 3.039356 1_455
Mg3 Nb0 3.039356 1_555
Mg3 Mg7 3.075444 1_554
Mg3 Mg7 3.075444 1_454
Mg4 Mg5 2.879948 1_545
Mg4 Mg5 2.879948 1_555
Mg4 Nb0 2.977153 1_455
Mg4 Nb0 2.977153 1_555
Mg4 Mg8 3.272666 1_555
Mg4 Mg9 3.272666 1_545
Mg5 Mo0 2.946643 1_555
Mg5 Mo0 2.946643 1_455
Mg5 Mg8 3.330598 1_555
Mg5 Mg9 3.330598 1_555
Mg6 Mg7 2.875859 1_555
Mg6 Mg7 2.883322 1_565
Mg6 Nb0 3.111713 1_566
Mg6 Mo1 3.117815 1_565
Mg6 Mo0 3.119704 1_556
Mg6 Nb1 3.125814 1_555
Mg7 Nb0 3.111713 1_556
Mg7 Mo1 3.117815 1_555
Mg7 Mo0 3.119704 1_556
Mg7 Nb1 3.125814 1_555
Mg8 Mg9 2.840417 1_545
Mg8 Mg9 2.918764 1_555
Mg8 Mo1 3.024215 1_555
Mg8 Mo1 3.024215 1_455
Mg8 Nb1 3.039356 1_455
Mg8 Nb1 3.039356 1_555
Mg9 Mo1 3.024215 1_565
Mg9 Mo1 3.024215 1_465
Mg9 Nb1 3.039356 1_455
Mg9 Nb1 3.039356 1_555
Mg10 Mg11 2.879948 1_555
Mg10 Mg11 2.879948 1_565
Mg10 Mg8 2.968153 1_555
Mg10 Mg9 2.968153 1_555
Mg10 Nb1 2.977153 1_555
Mg10 Nb1 2.977153 1_455
Mg10 Mg6 3.094444 1_455
Mg10 Mg6 3.094444 1_555
Mg10 Mg7 3.094444 1_455
Mg10 Mg7 3.094444 1_555
Mg10 Mg3 3.272666 1_556
Mg10 Mg2 3.272666 1_556
Mg11 Mg9 2.909388 1_545
Mg11 Mg8 2.909388 1_555
Mg11 Mo1 2.946643 1_555
Mg11 Mo1 2.946643 1_455
Mg11 Mg6 3.113231 1_445
Mg11 Mg7 3.113231 1_455
Mg11 Mg6 3.113231 1_545
Mg11 Mg7 3.113231 1_555
Mg11 Mg3 3.330598 1_556
Mg11 Mg2 3.330598 1_546
Mo0 Nb0 2.879611 1_555
Mo0 Nb0 2.879611 1_565
Mo1 Nb1 2.879611 1_545
Mo1 Nb1 2.879611 1_555
