# generated using pymatgen
data_ErB4Os
_symmetry_space_group_name_H-M   'P 1'
_cell_length_a   3.54783567
_cell_length_b   5.92973117
_cell_length_c   11.47140096
_cell_angle_alpha   90.00000000
_cell_angle_beta   90.00000000
_cell_angle_gamma   90.00000000
_symmetry_Int_Tables_number   1
_chemical_formula_structural   ErB4Os
_chemical_formula_sum   'Er4 B16 Os4'
_cell_volume   241.33202686
_cell_formula_units_Z   4
loop_
 _symmetry_equiv_pos_site_id
 _symmetry_equiv_pos_as_xyz
  1  'x, y, z'
loop_
 _atom_site_type_symbol
 _atom_site_label
 _atom_site_symmetry_multiplicity
 _atom_site_fract_x
 _atom_site_fract_y
 _atom_site_fract_z
 _atom_site_occupancy
  Er  Er0  1  -0.00000000  0.62831579  0.34988566  1
  Er  Er1  1  -0.00000000  0.37168421  0.65011434  1
  Er  Er2  1  -0.00000000  0.12831579  0.15011434  1
  Er  Er3  1  -0.00000000  0.87168421  0.84988566  1
  B  B0  1  0.50000000  0.79001690  0.18595787  1
  B  B1  1  0.50000000  0.20998310  0.81404213  1
  B  B2  1  0.50000000  0.29001690  0.31404213  1
  B  B3  1  0.50000000  0.70998310  0.68595787  1
  B  B4  1  0.50000000  0.86412965  0.02985085  1
  B  B5  1  0.50000000  0.13587035  0.97014915  1
  B  B6  1  0.50000000  0.36412965  0.47014915  1
  B  B7  1  0.50000000  0.63587035  0.52985085  1
  B  B8  1  0.50000000  0.88707721  0.45296372  1
  B  B9  1  0.50000000  0.11292279  0.54703628  1
  B  B10  1  0.50000000  0.38707721  0.04703628  1
  B  B11  1  0.50000000  0.61292279  0.95296372  1
  B  B12  1  0.50000000  0.97503341  0.30827336  1
  B  B13  1  0.50000000  0.02496659  0.69172664  1
  B  B14  1  0.50000000  0.47503341  0.19172664  1
  B  B15  1  0.50000000  0.52496659  0.80827336  1
  Os  Os0  1  -0.00000000  0.64166076  0.09390854  1
  Os  Os1  1  -0.00000000  0.35833924  0.90609146  1
  Os  Os2  1  0.00000000  0.14166076  0.40609146  1
  Os  Os3  1  0.00000000  0.85833924  0.59390854  1
loop_
_geom_bond_atom_site_label_1
_geom_bond_atom_site_label_2
_geom_bond_distance
_geom_bond_site_symmetry_2
Er0 Os0 2.937482 1_555
Er0 Os2 2.956886 1_555
Er0 Os2 3.111533 1_565
Er0 Os3 3.113909 1_555
Er1 Os1 2.937482 1_555
Er1 Os3 2.956886 1_555
Er1 Os3 3.111533 1_545
Er1 Os2 3.113909 1_555
Er2 Os2 2.937482 1_555
Er2 Os0 2.956886 1_545
Er2 Os0 3.111533 1_555
Er2 Os1 3.113909 1_554
Er3 Os3 2.937482 1_555
Er3 Os1 2.956886 1_565
Er3 Os1 3.111533 1_555
Er3 Os0 3.113909 1_556
B0 B12 1.781123 1_555
B0 B4 1.843902 1_555
B0 B14 1.868939 1_555
B0 Os0 2.244031 1_555
B0 Os0 2.244031 1_655
B0 Er2 2.709238 1_565
B0 Er2 2.709238 1_665
B0 Er0 2.757241 1_555
B0 Er0 2.757241 1_655
B1 B13 1.781123 1_555
B1 B5 1.843902 1_555
B1 B15 1.868939 1_555
B1 Os1 2.244031 1_655
B1 Os1 2.244031 1_555
B1 Er3 2.709238 1_545
B1 Er3 2.709238 1_645
B1 Er1 2.757241 1_555
B1 Er1 2.757241 1_655
B2 B6 1.843902 1_555
B2 Os2 2.244031 1_655
B2 Os2 2.244031 1_555
B2 Er0 2.709238 1_655
B2 Er0 2.709238 1_555
B2 Er2 2.757241 1_555
B2 Er2 2.757241 1_655
B3 B7 1.843902 1_555
B3 Os3 2.244031 1_555
B3 Os3 2.244031 1_655
B3 Er1 2.709238 1_655
B3 Er1 2.709238 1_555
B3 Er3 2.757241 1_655
B3 Er3 2.757241 1_555
B4 B5 1.750852 1_564
B4 Os0 2.329592 1_555
B4 Os0 2.329592 1_655
B4 Er3 2.722271 1_554
B4 Er3 2.722271 1_654
B4 Er2 2.739369 1_665
B4 Er2 2.739369 1_565
B5 Os1 2.329592 1_555
B5 Os1 2.329592 1_655
B5 Er2 2.722271 1_556
B5 Er2 2.722271 1_656
B5 Er3 2.739369 1_645
B5 Er3 2.739369 1_545
B6 B9 1.731128 1_555
B6 B7 1.750852 1_555
B6 Os2 2.329592 1_655
B6 Os2 2.329592 1_555
B6 Er1 2.722271 1_655
B6 Er1 2.722271 1_555
B6 Er0 2.739369 1_555
B6 Er0 2.739369 1_655
B7 B8 1.731128 1_555
B7 Os3 2.329592 1_655
B7 Os3 2.329592 1_555
B7 Er0 2.722271 1_655
B7 Er0 2.722271 1_555
B7 Er1 2.739369 1_655
B7 Er1 2.739369 1_555
B8 B9 1.719889 1_565
B8 Os2 2.390570 1_665
B8 Os2 2.390570 1_565
B8 Os3 2.406237 1_555
B8 Os3 2.406237 1_655
B8 Er0 2.626654 1_555
B8 Er0 2.626654 1_655
B9 Os3 2.390570 1_545
B9 Os3 2.390570 1_645
B9 Os2 2.406237 1_555
B9 Os2 2.406237 1_655
B9 Er1 2.626654 1_555
B9 Er1 2.626654 1_655
B10 B11 1.719889 1_554
B10 B5 1.731128 1_554
B10 B14 1.739816 1_555
B10 Os0 2.390570 1_555
B10 Os0 2.390570 1_655
B10 Os1 2.406237 1_654
B10 Os1 2.406237 1_554
B10 Er2 2.626654 1_655
B10 Er2 2.626654 1_555
B11 B4 1.731128 1_556
B11 B15 1.739816 1_555
B11 Os1 2.390570 1_655
B11 Os1 2.390570 1_555
B11 Os0 2.406237 1_556
B11 Os0 2.406237 1_656
B11 Er3 2.626654 1_555
B11 Er3 2.626654 1_655
B12 B8 1.739816 1_555
B12 B2 1.868939 1_565
B12 Os2 2.319950 1_665
B12 Os2 2.319950 1_565
B12 Er2 2.695298 1_565
B12 Er2 2.695298 1_665
B12 Er0 2.757090 1_555
B12 Er0 2.757090 1_655
B13 B9 1.739816 1_555
B13 B3 1.868939 1_545
B13 Os3 2.319950 1_545
B13 Os3 2.319950 1_645
B13 Er3 2.695298 1_645
B13 Er3 2.695298 1_545
B13 Er1 2.757090 1_655
B13 Er1 2.757090 1_555
B14 B2 1.781123 1_555
B14 Os0 2.319950 1_555
B14 Os0 2.319950 1_655
B14 Er0 2.695298 1_555
B14 Er0 2.695298 1_655
B14 Er2 2.757090 1_655
B14 Er2 2.757090 1_555
B15 B3 1.781123 1_555
B15 Os1 2.319950 1_555
B15 Os1 2.319950 1_655
B15 Er1 2.695298 1_655
B15 Er1 2.695298 1_555
B15 Er3 2.757090 1_555
B15 Er3 2.757090 1_655
Os0 Os1 2.732114 1_554
Os2 Os3 2.732114 1_545
