# generated using pymatgen
data_Sr4Ca4Co7CuO24
_symmetry_space_group_name_H-M   'P 1'
_cell_length_a   7.64939635
_cell_length_b   7.64939635
_cell_length_c   7.61197913
_cell_angle_alpha   89.87515496
_cell_angle_beta   89.87515496
_cell_angle_gamma   89.98839030
_symmetry_Int_Tables_number   1
_chemical_formula_structural   Sr4Ca4Co7CuO24
_chemical_formula_sum   'Sr4 Ca4 Co7 Cu1 O24'
_cell_volume   445.39962458
_cell_formula_units_Z   1
loop_
 _symmetry_equiv_pos_site_id
 _symmetry_equiv_pos_as_xyz
  1  'x, y, z'
loop_
 _atom_site_type_symbol
 _atom_site_label
 _atom_site_symmetry_multiplicity
 _atom_site_fract_x
 _atom_site_fract_y
 _atom_site_fract_z
 _atom_site_occupancy
  Sr  Sr0  1  0.24861700  0.75109700  0.74950000  1
  Sr  Sr1  1  0.24860600  0.24860600  0.74966500  1
  Sr  Sr2  1  0.75109700  0.24861700  0.74950000  1
  Sr  Sr3  1  0.75156400  0.75156400  0.25026700  1
  Ca  Ca0  1  0.24738200  0.75347700  0.25024200  1
  Ca  Ca1  1  0.24693100  0.24693100  0.25026900  1
  Ca  Ca2  1  0.75262000  0.75262000  0.74956600  1
  Ca  Ca3  1  0.75347700  0.24738200  0.25024200  1
  Co  Co0  1  0.99998000  0.50022000  0.00161900  1
  Co  Co1  1  0.99993100  0.99993100  0.49837700  1
  Co  Co2  1  0.99994500  0.50006800  0.49856100  1
  Co  Co3  1  0.50022000  0.99998000  0.00161900  1
  Co  Co4  1  0.50008700  0.50008700  0.00157300  1
  Co  Co5  1  0.50006800  0.99994500  0.49856100  1
  Co  Co6  1  0.49994800  0.49994800  0.49796600  1
  Cu  Cu0  1  0.00006900  0.00006900  0.00025200  1
  O  O0  1  0.25473600  0.99985800  0.00762100  1
  O  O1  1  0.25456700  0.49999300  0.00680400  1
  O  O2  1  0.25093900  0.00000200  0.49330800  1
  O  O3  1  0.24378800  0.49973800  0.49569400  1
  O  O4  1  0.74520000  0.00025600  0.00170000  1
  O  O5  1  0.74547500  0.49974500  0.00173600  1
  O  O6  1  0.74899400  0.00039200  0.49717000  1
  O  O7  1  0.75622800  0.49952000  0.49762200  1
  O  O8  1  0.99690300  0.99690300  0.74446500  1
  O  O9  1  0.99734600  0.50202300  0.74835900  1
  O  O10  1  0.00253900  0.00253900  0.25386100  1
  O  O11  1  0.00214900  0.49859100  0.25149100  1
  O  O12  1  0.50202300  0.99734600  0.74835900  1
  O  O13  1  0.50107400  0.50107400  0.74268200  1
  O  O14  1  0.49859100  0.00214900  0.25149100  1
  O  O15  1  0.49940400  0.49940400  0.25820000  1
  O  O16  1  0.00025600  0.74520000  0.00170000  1
  O  O17  1  0.99985800  0.25473600  0.00762100  1
  O  O18  1  0.00039200  0.74899400  0.49717000  1
  O  O19  1  0.00000200  0.25093900  0.49330800  1
  O  O20  1  0.49974500  0.74547500  0.00173600  1
  O  O21  1  0.49999300  0.25456700  0.00680400  1
  O  O22  1  0.49952000  0.75622800  0.49762200  1
  O  O23  1  0.49973800  0.24378800  0.49569400  1
loop_
_geom_bond_atom_site_label_1
_geom_bond_atom_site_label_2
_geom_bond_distance
_geom_bond_site_symmetry_2
Ca0 O0 2.636346 1_555
Ca0 O2 2.644918 1_565
Ca0 O18 2.662316 1_555
Ca0 O10 2.671472 1_565
Ca0 O16 2.678230 1_555
Ca0 O1 2.685458 1_555
Ca0 O3 2.691257 1_555
Ca0 O22 2.698562 1_555
Ca0 O20 2.700567 1_555
Ca0 O14 2.704181 1_565
Ca0 O11 2.705879 1_555
Ca0 O15 2.737852 1_555
Ca1 O19 2.641259 1_555
Ca1 O2 2.641259 1_555
Ca1 O10 2.644128 1_555
Ca1 O17 2.646077 1_455
Ca1 O0 2.646077 1_545
Ca1 O1 2.677518 1_555
Ca1 O21 2.677518 1_555
Ca1 O11 2.685227 1_555
Ca1 O14 2.685227 1_555
Ca1 O3 2.691808 1_555
Ca1 O23 2.691808 1_555
Ca1 O15 2.732352 1_555
Ca2 O8 2.643058 1_555
Ca2 O9 2.679105 1_555
Ca2 O12 2.679105 1_555
Ca2 O18 2.696003 1_655
Ca2 O6 2.696003 1_565
Ca2 O16 2.700050 1_656
Ca2 O4 2.700050 1_566
Ca2 O13 2.722136 1_555
Ca2 O20 2.722608 1_556
Ca2 O5 2.722608 1_556
Ca2 O22 2.728178 1_555
Ca2 O7 2.728178 1_555
Ca3 O17 2.636346 1_555
Ca3 O19 2.644918 1_655
Ca3 O6 2.662316 1_555
Ca3 O10 2.671472 1_655
Ca3 O4 2.678230 1_555
Ca3 O21 2.685458 1_555
Ca3 O23 2.691257 1_555
Ca3 O7 2.698562 1_555
Ca3 O5 2.700567 1_555
Ca3 O11 2.704181 1_655
Ca3 O14 2.705879 1_555
Ca3 O15 2.737852 1_555
Co0 O16 1.873952 1_655
Co0 O17 1.878261 1_555
Co0 O11 1.902143 1_655
Co0 O9 1.927978 1_554
Co0 O5 1.946812 1_555
Co0 O1 1.947923 1_655
Co1 O10 1.861378 1_665
Co1 O8 1.873402 1_555
Co1 O18 1.919561 1_655
Co1 O6 1.919561 1_565
Co1 O2 1.920363 1_665
Co1 O19 1.920363 1_665
Co2 O7 1.864323 1_555
Co2 O3 1.865333 1_655
Co2 O11 1.880789 1_655
Co2 O9 1.901609 1_555
Co2 O18 1.904144 1_655
Co2 O19 1.906193 1_655
Co3 O4 1.873952 1_565
Co3 O0 1.878261 1_555
Co3 O14 1.902143 1_565
Co3 O12 1.927978 1_554
Co3 O20 1.946812 1_555
Co3 O21 1.947923 1_565
Co4 O5 1.877074 1_555
Co4 O20 1.877074 1_555
Co4 O1 1.878415 1_555
Co4 O21 1.878415 1_555
Co4 O15 1.953431 1_555
Co4 O13 1.970669 1_554
Co5 O22 1.864323 1_555
Co5 O23 1.865333 1_565
Co5 O14 1.880789 1_565
Co5 O12 1.901609 1_555
Co5 O6 1.904144 1_565
Co5 O2 1.906193 1_565
Co6 O15 1.825121 1_555
Co6 O13 1.862850 1_555
Co6 O23 1.959584 1_555
Co6 O3 1.959584 1_555
Co6 O7 1.960385 1_555
Co6 O22 1.960385 1_555
Cu0 O10 1.930734 1_555
Cu0 O8 1.947452 1_444
Cu0 O17 1.948979 1_455
Cu0 O0 1.948979 1_545
Cu0 O4 1.949601 1_455
Cu0 O16 1.949601 1_545
O0 Sr1 2.731735 1_564
O0 Sr0 2.738672 1_554
O1 Sr0 2.740723 1_554
O1 Sr1 2.747334 1_554
O2 Sr0 2.722519 1_545
O2 Sr1 2.727742 1_555
O3 Sr1 2.722696 1_555
O3 Sr0 2.728980 1_555
O4 Sr3 2.680663 1_545
O4 Sr2 2.698238 1_554
O5 Sr3 2.703316 1_555
O5 Sr2 2.719217 1_554
O6 Sr3 2.677852 1_545
O6 Sr2 2.703856 1_555
O7 Sr3 2.692212 1_555
O7 Sr2 2.710121 1_555
O8 Sr0 2.691247 1_655
O8 Sr2 2.691247 1_565
O8 Sr1 2.723578 1_665
O9 Sr2 2.703142 1_555
O9 Sr0 2.706677 1_655
O9 Sr1 2.729534 1_655
O10 Sr3 2.715515 1_445
O11 Sr3 2.723485 1_455
O12 Sr0 2.703142 1_555
O12 Sr2 2.706677 1_565
O12 Sr1 2.729534 1_565
O13 Sr0 2.718135 1_555
O13 Sr2 2.718135 1_555
O13 Sr1 2.731799 1_555
O14 Sr3 2.723485 1_545
O15 Sr3 2.728595 1_555
O16 Sr3 2.680663 1_455
O16 Sr0 2.698238 1_554
O17 Sr1 2.731735 1_654
O17 Sr2 2.738672 1_554
O18 Sr3 2.677852 1_455
O18 Sr0 2.703856 1_555
O19 Sr2 2.722519 1_455
O19 Sr1 2.727742 1_555
O20 Sr3 2.703316 1_555
O20 Sr0 2.719217 1_554
O21 Sr2 2.740723 1_554
O21 Sr1 2.747334 1_554
O22 Sr3 2.692212 1_555
O22 Sr0 2.710121 1_555
O23 Sr1 2.722696 1_555
O23 Sr2 2.728980 1_555
