# generated using pymatgen
data_Li2TiCrO4
_symmetry_space_group_name_H-M   'P 1'
_cell_length_a   5.14813293
_cell_length_b   7.89417293
_cell_length_c   7.89485825
_cell_angle_alpha   97.59651413
_cell_angle_beta   102.22483532
_cell_angle_gamma   102.23660182
_symmetry_Int_Tables_number   1
_chemical_formula_structural   Li2TiCrO4
_chemical_formula_sum   'Li8 Ti4 Cr4 O16'
_cell_volume   301.13667387
_cell_formula_units_Z   4
loop_
 _symmetry_equiv_pos_site_id
 _symmetry_equiv_pos_as_xyz
  1  'x, y, z'
loop_
 _atom_site_type_symbol
 _atom_site_label
 _atom_site_symmetry_multiplicity
 _atom_site_fract_x
 _atom_site_fract_y
 _atom_site_fract_z
 _atom_site_occupancy
  Li  Li0  1  0.00094600  0.99914600  0.00078500  1
  Li  Li1  1  0.99631200  0.75122500  0.24971100  1
  Li  Li2  1  0.99908000  0.49920200  0.50085900  1
  Li  Li3  1  0.00370000  0.25027300  0.74877700  1
  Li  Li4  1  0.50201700  0.37352400  0.62399800  1
  Li  Li5  1  0.50269300  0.12296600  0.87252100  1
  Li  Li6  1  0.49792300  0.87603000  0.12648700  1
  Li  Li7  1  0.49734900  0.62750200  0.37704300  1
  Ti  Ti0  1  0.50001800  0.74834800  0.75173400  1
  Ti  Ti1  1  0.49999500  0.49645000  0.00355300  1
  Ti  Ti2  1  0.49997600  0.25611000  0.24387900  1
  Ti  Ti3  1  0.49999000  0.00063500  0.49927000  1
  Cr  Cr0  1  0.00002300  0.62351800  0.87638100  1
  Cr  Cr1  1  0.99996700  0.37504700  0.12495100  1
  Cr  Cr2  1  0.99997400  0.12691900  0.37310000  1
  Cr  Cr3  1  0.00003900  0.87274200  0.62726500  1
  O  O0  1  0.24256700  0.36399300  0.36147900  1
  O  O1  1  0.25987400  0.12342600  0.60657100  1
  O  O2  1  0.26259300  0.85791200  0.87661300  1
  O  O3  1  0.23886400  0.61194000  0.11442100  1
  O  O4  1  0.73989900  0.89346300  0.37638500  1
  O  O5  1  0.73768300  0.62358800  0.64206500  1
  O  O6  1  0.76108300  0.38554600  0.88805100  1
  O  O7  1  0.75747500  0.13851700  0.13608100  1
  O  O8  1  0.74692300  0.73876500  0.99009100  1
  O  O9  1  0.75032900  0.49560200  0.24471300  1
  O  O10  1  0.74620900  0.24001500  0.48694500  1
  O  O11  1  0.73946900  0.99029500  0.74088400  1
  O  O12  1  0.25319000  0.50986900  0.76121400  1
  O  O13  1  0.24960600  0.25528000  0.00442200  1
  O  O14  1  0.25370200  0.01306400  0.26003200  1
  O  O15  1  0.26053200  0.75908800  0.50972100  1
loop_
_geom_bond_atom_site_label_1
_geom_bond_atom_site_label_2
_geom_bond_distance
_geom_bond_site_symmetry_2
Li0 O13 2.144711 1_565
Li0 O14 2.155545 1_565
Li0 O8 2.170315 1_454
Li0 O7 2.182505 1_465
Li0 O11 2.186236 1_454
Li0 O2 2.219309 1_554
Li1 O9 2.133497 1_555
Li1 O8 2.153573 1_554
Li1 O3 2.178387 1_655
Li1 O14 2.187163 1_665
Li1 O15 2.194511 1_655
Li1 O4 2.212230 1_555
Li2 O9 2.145425 1_555
Li2 O10 2.155016 1_555
Li2 O12 2.170755 1_655
Li2 O0 2.182235 1_655
Li2 O15 2.185680 1_655
Li2 O5 2.218992 1_555
Li3 O13 2.133848 1_556
Li3 O12 2.153275 1_555
Li3 O6 2.178527 1_455
Li3 O10 2.187821 1_455
Li3 O11 2.193887 1_445
Li3 O1 2.211796 1_555
Li4 O5 2.055772 1_555
Li4 O1 2.069565 1_555
Li4 O10 2.167516 1_555
Li4 O0 2.197497 1_555
Li4 O12 2.199283 1_555
Li4 O6 2.202310 1_555
Li5 O11 2.110137 1_545
Li5 O13 2.176445 1_556
Li5 O7 2.184830 1_556
Li5 O6 2.185439 1_555
Li5 O2 2.201230 1_545
Li5 O1 2.205345 1_555
Li6 O2 2.054176 1_554
Li6 O4 2.068297 1_555
Li6 O14 2.167705 1_565
Li6 O7 2.197003 1_565
Li6 O8 2.200421 1_554
Li6 O3 2.202069 1_555
Li7 O15 2.110112 1_555
Li7 O9 2.176068 1_555
Li7 O0 2.184094 1_555
Li7 O3 2.186238 1_555
Li7 O5 2.201483 1_555
Li7 O4 2.204908 1_555
Cr0 O12 2.027841 1_555
Cr0 O8 2.028137 1_455
Cr0 O6 2.040814 1_455
Cr0 O3 2.041183 1_556
Cr0 O5 2.046617 1_455
Cr0 O2 2.046657 1_555
Cr1 O3 2.031289 1_655
Cr1 O6 2.031598 1_554
Cr1 O7 2.038229 1_555
Cr1 O0 2.038644 1_655
Cr1 O13 2.060618 1_655
Cr1 O9 2.060703 1_555
Cr2 O14 2.022431 1_655
Cr2 O10 2.022663 1_555
Cr2 O4 2.042334 1_545
Cr2 O7 2.042758 1_555
Cr2 O1 2.042817 1_655
Cr2 O0 2.042995 1_655
Cr3 O15 2.069180 1_555
Cr3 O11 2.069409 1_455
Cr3 O5 2.169780 1_455
Cr3 O2 2.171890 1_555
Cr3 O1 2.188186 1_565
Cr3 O4 2.190547 1_455
O0 Ti2 2.033170 1_555
O1 Ti3 1.979797 1_555
O2 Ti0 1.986735 1_555
O3 Ti1 2.052180 1_555
O4 Ti3 1.978836 1_565
O5 Ti0 1.987624 1_555
O6 Ti1 2.052186 1_556
O7 Ti2 2.033198 1_555
O8 Ti0 2.056207 1_555
O8 Ti1 2.089634 1_556
O9 Ti2 2.048346 1_555
O9 Ti1 2.062463 1_555
O10 Ti3 2.067042 1_555
O10 Ti2 2.099538 1_555
O11 Ti3 2.062305 1_565
O11 Ti0 2.065154 1_555
O12 Ti0 2.056191 1_555
O12 Ti1 2.089788 1_556
O13 Ti2 2.048541 1_555
O13 Ti1 2.062320 1_555
O14 Ti3 2.066925 1_555
O14 Ti2 2.099267 1_555
O15 Ti3 2.061719 1_565
O15 Ti0 2.065765 1_555
