# generated using pymatgen
data_CsFe(OF2)2
_symmetry_space_group_name_H-M   'P 1'
_cell_length_a   7.00200118
_cell_length_b   7.00200118
_cell_length_c   7.79299973
_cell_angle_alpha   64.04388639
_cell_angle_beta   64.04388639
_cell_angle_gamma   57.95725714
_symmetry_Int_Tables_number   1
_chemical_formula_structural   CsFe(OF2)2
_chemical_formula_sum   'Cs2 Fe2 O4 F8'
_cell_volume   280.41679743
_cell_formula_units_Z   2
loop_
 _symmetry_equiv_pos_site_id
 _symmetry_equiv_pos_as_xyz
  1  'x, y, z'
loop_
 _atom_site_type_symbol
 _atom_site_label
 _atom_site_symmetry_multiplicity
 _atom_site_fract_x
 _atom_site_fract_y
 _atom_site_fract_z
 _atom_site_occupancy
  Cs  Cs0  1  0.76647600  0.23352400  0.75000000  1
  Cs  Cs1  1  0.23352400  0.76647600  0.25000000  1
  Fe  Fe0  1  0.50000000  0.00000000  0.50000000  1
  Fe  Fe1  1  0.00000000  0.50000000  0.00000000  1
  O  O0  1  0.49454800  0.80723000  0.75518500  1
  O  O1  1  0.50545200  0.19277000  0.24481500  1
  O  O2  1  0.19277000  0.50545200  0.74481500  1
  O  O3  1  0.80723000  0.49454800  0.25518500  1
  F  F0  1  0.72548100  0.73628300  0.89975100  1
  F  F1  1  0.27451900  0.26371700  0.10024900  1
  F  F2  1  0.26371700  0.27451900  0.60024900  1
  F  F3  1  0.73628300  0.72548100  0.39975100  1
  F  F4  1  0.26470000  0.93835700  0.52039900  1
  F  F5  1  0.73530000  0.06164300  0.47960100  1
  F  F6  1  0.06164300  0.73530000  0.97960100  1
  F  F7  1  0.93835700  0.26470000  0.02039900  1
loop_
_geom_bond_atom_site_label_1
_geom_bond_atom_site_label_2
_geom_bond_distance
_geom_bond_site_symmetry_2
Cs0 F7 2.972857 1_556
Cs0 F5 2.972857 1_555
Cs0 F4 3.124994 1_645
Cs0 F6 3.124994 1_645
Cs0 F2 3.282820 1_655
Cs0 F0 3.282820 1_545
Cs0 F3 3.295854 1_555
Cs0 F1 3.295854 1_556
Cs0 O1 3.422306 1_556
Cs0 O3 3.422306 1_555
Cs0 O0 3.423842 1_555
Cs0 O2 3.423842 1_555
Cs1 F4 2.972857 1_555
Cs1 F6 2.972857 1_554
Cs1 F7 3.124994 1_465
Cs1 F5 3.124994 1_465
Cs1 F1 3.282820 1_565
Cs1 F3 3.282820 1_455
Cs1 F2 3.295854 1_555
Cs1 F0 3.295854 1_554
Cs1 O2 3.422306 1_555
Cs1 O0 3.422306 1_554
Cs1 O1 3.423842 1_555
Cs1 O3 3.423842 1_555
Fe0 O0 1.848415 1_545
Fe0 O1 1.848415 1_555
Fe1 O2 1.848415 1_554
Fe1 O3 1.848415 1_455
F0 Fe1 1.962384 1_656
F1 Fe1 1.962384 1_555
F2 Fe0 1.962384 1_555
F3 Fe0 1.962384 1_565
F4 Fe0 1.841552 1_565
F5 Fe0 1.841552 1_555
F6 Fe1 1.841552 1_556
F7 Fe1 1.841552 1_655
