# generated using pymatgen
data_YMg14Co
_symmetry_space_group_name_H-M   'P 1'
_cell_length_a   6.38592800
_cell_length_b   6.38592748
_cell_length_c   10.26691766
_cell_angle_alpha   90.00000000
_cell_angle_beta   90.00000000
_cell_angle_gamma   120.00000267
_symmetry_Int_Tables_number   1
_chemical_formula_structural   YMg14Co
_chemical_formula_sum   'Y1 Mg14 Co1'
_cell_volume   362.59240196
_cell_formula_units_Z   1
loop_
 _symmetry_equiv_pos_site_id
 _symmetry_equiv_pos_as_xyz
  1  'x, y, z'
loop_
 _atom_site_type_symbol
 _atom_site_label
 _atom_site_symmetry_multiplicity
 _atom_site_fract_x
 _atom_site_fract_y
 _atom_site_fract_z
 _atom_site_occupancy
  Y  Y0  1  0.16666700  0.33333300  0.12500000  1
  Mg  Mg0  1  0.17859075  0.83929487  0.12500000  1
  Mg  Mg1  1  0.15950625  0.82975263  0.62500000  1
  Mg  Mg2  1  0.66070513  0.32140925  0.12500000  1
  Mg  Mg3  1  0.67024737  0.34049375  0.62500000  1
  Mg  Mg4  1  0.66070513  0.83929487  0.12500000  1
  Mg  Mg5  1  0.67024737  0.82975263  0.62500000  1
  Mg  Mg6  1  0.32592391  0.17407609  0.39633774  1
  Mg  Mg7  1  0.32592391  0.17407609  0.85366226  1
  Mg  Mg8  1  0.32592391  0.65184881  0.39633774  1
  Mg  Mg9  1  0.32592391  0.65184881  0.85366226  1
  Mg  Mg10  1  0.84815119  0.17407609  0.39633774  1
  Mg  Mg11  1  0.84815119  0.17407609  0.85366226  1
  Mg  Mg12  1  0.83333300  0.66666700  0.36444054  1
  Mg  Mg13  1  0.83333300  0.66666700  0.88555946  1
  Co  Co0  1  0.16666700  0.33333300  0.62500000  1
loop_
_geom_bond_atom_site_label_1
_geom_bond_atom_site_label_2
_geom_bond_distance
_geom_bond_site_symmetry_2
Mg0 Mg2 3.078747 1_565
Mg0 Mg4 3.078748 1_555
Mg0 Mg12 3.112739 1_455
Mg0 Mg13 3.112739 1_454
Mg0 Y0 3.193645 1_555
Mg0 Y0 3.193645 1_565
Mg0 Mg2 3.307180 1_455
Mg0 Mg4 3.307180 1_455
Mg0 Mg9 3.347385 1_554
Mg0 Mg8 3.347385 1_555
Mg0 Mg7 3.347391 1_564
Mg0 Mg6 3.347391 1_565
Mg1 Mg8 3.023064 1_555
Mg1 Mg9 3.023064 1_555
Mg1 Mg7 3.023071 1_565
Mg1 Mg6 3.023071 1_565
Mg1 Mg3 3.124372 1_455
Mg1 Mg5 3.124372 1_455
Mg1 Mg13 3.226500 1_455
Mg1 Mg12 3.226500 1_455
Mg1 Mg3 3.261556 1_565
Mg1 Mg5 3.261556 1_555
Mg2 Mg4 3.078747 1_545
Mg2 Y0 3.193645 1_655
Mg2 Y0 3.193645 1_555
Mg2 Mg4 3.307180 1_555
Mg2 Mg6 3.347391 1_555
Mg2 Mg7 3.347391 1_554
Mg3 Mg6 3.023071 1_555
Mg3 Mg7 3.023071 1_555
Mg3 Mg5 3.124372 1_555
Mg3 Mg5 3.261556 1_545
Mg4 Y0 3.193645 1_555
Mg4 Y0 3.193645 1_665
Mg4 Mg8 3.347390 1_555
Mg4 Mg9 3.347390 1_554
Mg5 Mg8 3.023071 1_555
Mg5 Mg9 3.023071 1_555
Mg6 Y0 3.295995 1_555
Mg7 Y0 3.295995 1_556
Mg8 Y0 3.296000 1_555
Mg9 Y0 3.296000 1_556
Mg10 Mg3 3.023064 1_555
Mg10 Mg5 3.023071 1_545
Mg10 Mg12 3.210760 1_545
Mg10 Mg12 3.210760 1_555
Mg10 Y0 3.296000 1_655
Mg10 Mg2 3.347385 1_555
Mg10 Mg4 3.347390 1_545
Mg11 Mg3 3.023064 1_555
Mg11 Mg5 3.023071 1_545
Mg11 Mg13 3.210760 1_545
Mg11 Mg13 3.210760 1_555
Mg11 Y0 3.296000 1_656
Mg11 Mg2 3.347385 1_556
Mg11 Mg4 3.347390 1_546
Mg12 Mg4 3.112733 1_555
Mg12 Mg2 3.112739 1_555
Mg12 Mg6 3.210760 1_665
Mg12 Mg6 3.210760 1_555
Mg12 Mg8 3.210760 1_555
Mg12 Mg8 3.210760 1_655
Mg12 Mg5 3.226494 1_555
Mg12 Mg3 3.226500 1_555
Mg13 Mg4 3.112733 1_556
Mg13 Mg2 3.112739 1_556
Mg13 Mg7 3.210760 1_665
Mg13 Mg7 3.210760 1_555
Mg13 Mg9 3.210760 1_555
Mg13 Mg9 3.210760 1_655
Mg13 Mg5 3.226494 1_555
Mg13 Mg3 3.226500 1_555
Co0 Mg6 2.935026 1_555
Co0 Mg7 2.935026 1_555
Co0 Mg8 2.935033 1_555
Co0 Mg9 2.935033 1_555
Co0 Mg11 2.935033 1_455
Co0 Mg10 2.935033 1_455
Co0 Mg1 3.193209 1_545
Co0 Mg5 3.193209 1_445
Co0 Mg5 3.193209 1_555
Co0 Mg1 3.193209 1_555
Co0 Mg3 3.193210 1_555
Co0 Mg3 3.193210 1_455
