# generated using pymatgen
data_Mg149Tl
_symmetry_space_group_name_H-M   'P 1'
_cell_length_a   15.91453119
_cell_length_b   15.91453457
_cell_length_c   15.56078085
_cell_angle_alpha   90.00000000
_cell_angle_beta   90.00000000
_cell_angle_gamma   120.00071538
_symmetry_Int_Tables_number   1
_chemical_formula_structural   Mg149Tl
_chemical_formula_sum   'Mg149 Tl1'
_cell_volume   3413.08165954
_cell_formula_units_Z   1
loop_
 _symmetry_equiv_pos_site_id
 _symmetry_equiv_pos_as_xyz
  1  'x, y, z'
loop_
 _atom_site_type_symbol
 _atom_site_label
 _atom_site_symmetry_multiplicity
 _atom_site_fract_x
 _atom_site_fract_y
 _atom_site_fract_z
 _atom_site_occupancy
  Mg  Mg0  1  0.79899477  0.00068813  -0.00000000  1
  Mg  Mg1  1  0.20169259  0.00068661  -0.00000000  1
  Mg  Mg2  1  0.40012954  0.20006470  -0.00000000  1
  Mg  Mg3  1  0.79993534  0.20006527  -0.00000000  1
  Mg  Mg4  1  0.60002763  0.20005756  -0.00000000  1
  Mg  Mg5  1  0.20169190  0.20100451  -0.00000000  1
  Mg  Mg6  1  0.99931122  0.20100598  -0.00000000  1
  Mg  Mg7  1  0.19975101  0.39950150  -0.00000000  1
  Mg  Mg8  1  0.79994237  0.39997242  -0.00000000  1
  Mg  Mg9  1  0.60002817  0.39997136  -0.00000000  1
  Mg  Mg10  1  0.40035282  0.40039839  -0.00000000  1
  Mg  Mg11  1  0.00004687  0.40039982  -0.00000000  1
  Mg  Mg12  1  0.59960131  0.59964798  -0.00000000  1
  Mg  Mg13  1  0.00004558  0.59964699  -0.00000000  1
  Mg  Mg14  1  0.79993429  0.59986926  -0.00000000  1
  Mg  Mg15  1  0.19998017  0.59998836  -0.00000000  1
  Mg  Mg16  1  0.40000886  0.59999133  -0.00000000  1
  Mg  Mg17  1  0.99931288  0.79830823  -0.00000000  1
  Mg  Mg18  1  0.79899570  0.79830820  -0.00000000  1
  Mg  Mg19  1  0.40001036  0.80001863  -0.00000000  1
  Mg  Mg20  1  0.60050074  0.80024980  -0.00000000  1
  Mg  Mg21  1  0.19975018  0.80024966  -0.00000000  1
  Mg  Mg22  1  0.40035402  0.99995520  -0.00000000  1
  Mg  Mg23  1  0.59960181  0.99995345  -0.00000000  1
  Mg  Mg24  1  0.06646890  0.33323998  0.16655853  1
  Mg  Mg25  1  0.26677161  0.33323994  0.16655877  1
  Mg  Mg26  1  0.06646881  0.73322787  0.16655941  1
  Mg  Mg27  1  0.66676011  0.73322987  0.16655880  1
  Mg  Mg28  1  0.66675962  0.93353071  0.16655887  1
  Mg  Mg29  1  0.26677068  0.93353096  0.16655992  1
  Mg  Mg30  1  0.46677890  0.13331193  0.16661112  1
  Mg  Mg31  1  0.66653338  0.13331282  0.16661130  1
  Mg  Mg32  1  0.86668852  0.33346584  0.16661052  1
  Mg  Mg33  1  0.46677893  0.33346766  0.16661080  1
  Mg  Mg34  1  0.66653311  0.53322187  0.16661029  1
  Mg  Mg35  1  0.86668845  0.53322200  0.16661132  1
  Mg  Mg36  1  0.66666736  0.33333264  0.16676100  1
  Mg  Mg37  1  0.26665073  0.53330135  0.16673377  1
  Mg  Mg38  1  0.46669929  0.73334901  0.16673382  1
  Mg  Mg39  1  0.26664955  0.73334844  0.16673431  1
  Mg  Mg40  1  0.06676553  0.53338328  0.16667588  1
  Mg  Mg41  1  0.46661645  0.53338360  0.16667637  1
  Mg  Mg42  1  0.46661664  0.93323392  0.16667595  1
  Mg  Mg43  1  0.86640837  0.13359016  0.16713228  1
  Mg  Mg44  1  0.26718077  0.13359074  0.16713240  1
  Mg  Mg45  1  0.86640940  0.73281719  0.16713234  1
  Mg  Mg46  1  0.06701200  0.13402351  0.16805107  1
  Mg  Mg47  1  0.86597648  0.93298771  0.16805143  1
  Mg  Mg48  1  0.06701138  0.93298731  0.16805165  1
  Mg  Mg49  1  0.19993552  0.39987204  0.33318143  1
  Mg  Mg50  1  0.60012665  0.80006387  0.33318206  1
  Mg  Mg51  1  0.19993640  0.80006435  0.33318199  1
  Mg  Mg52  1  0.60005666  0.20011331  0.33327205  1
  Mg  Mg53  1  0.79988691  0.39994241  0.33327174  1
  Mg  Mg54  1  0.60005611  0.39994445  0.33327233  1
  Mg  Mg55  1  0.60007969  0.00004217  0.33330947  1
  Mg  Mg56  1  0.39996110  0.00004158  0.33331042  1
  Mg  Mg57  1  0.39996183  0.39992009  0.33330982  1
  Mg  Mg58  1  0.99995832  0.39991969  0.33331087  1
  Mg  Mg59  1  0.60008019  0.60003764  0.33331014  1
  Mg  Mg60  1  0.99995778  0.60003843  0.33331045  1
  Mg  Mg61  1  0.40014661  0.20007409  0.33333662  1
  Mg  Mg62  1  0.79992617  0.20007338  0.33333656  1
  Mg  Mg63  1  0.79992719  0.59985390  0.33333584  1
  Mg  Mg64  1  -0.00000039  0.00000016  0.33344116  1
  Mg  Mg65  1  0.20006111  0.60003034  0.33339114  1
  Mg  Mg66  1  0.39996833  0.60003037  0.33339179  1
  Mg  Mg67  1  0.39996873  0.79993830  0.33339177  1
  Mg  Mg68  1  0.20005025  0.00009000  0.33381636  1
  Mg  Mg69  1  0.80004075  0.00009151  0.33381666  1
  Mg  Mg70  1  0.99991097  0.19996028  0.33381636  1
  Mg  Mg71  1  0.20005109  0.19995969  0.33381576  1
  Mg  Mg72  1  0.80004131  0.79994974  0.33381658  1
  Mg  Mg73  1  0.99990970  0.79994984  0.33381641  1
  Mg  Mg74  1  0.06661706  0.13323377  0.50000000  1
  Mg  Mg75  1  0.46673393  0.13327114  0.50000000  1
  Mg  Mg76  1  0.66653842  0.13327070  0.50000000  1
  Mg  Mg77  1  0.86666432  0.13333546  0.50000000  1
  Mg  Mg78  1  0.26667323  0.13333626  0.50000000  1
  Mg  Mg79  1  0.66666783  0.33333329  0.50000000  1
  Mg  Mg80  1  0.26675349  0.33333611  0.50000000  1
  Mg  Mg81  1  0.06658377  0.33333780  0.50000000  1
  Mg  Mg82  1  0.86672840  0.33346136  0.50000000  1
  Mg  Mg83  1  0.46673331  0.33346194  0.50000000  1
  Mg  Mg84  1  0.66653925  0.53326645  0.50000000  1
  Mg  Mg85  1  0.86672879  0.53326639  0.50000000  1
  Mg  Mg86  1  0.06659551  0.53329721  0.50000000  1
  Mg  Mg87  1  0.46670213  0.53329776  0.50000000  1
  Mg  Mg88  1  0.26659625  0.53319260  0.50000000  1
  Mg  Mg89  1  0.86666373  0.73332737  0.50000000  1
  Mg  Mg90  1  0.66666293  0.73324743  0.50000000  1
  Mg  Mg91  1  0.06658301  0.73324737  0.50000000  1
  Mg  Mg92  1  0.46680922  0.73340454  0.50000000  1
  Mg  Mg93  1  0.26659493  0.73340275  0.50000000  1
  Mg  Mg94  1  0.26675333  0.93341683  0.50000000  1
  Mg  Mg95  1  0.66666340  0.93341683  0.50000000  1
  Mg  Mg96  1  0.86676632  0.93338200  0.50000000  1
  Mg  Mg97  1  0.06661548  0.93338337  0.50000000  1
  Mg  Mg98  1  0.46670280  0.93340396  0.50000000  1
  Mg  Mg99  1  0.20005025  0.00009000  0.66618364  1
  Mg  Mg100  1  0.80004075  0.00009151  0.66618334  1
  Mg  Mg101  1  0.99991097  0.19996028  0.66618364  1
  Mg  Mg102  1  0.20005109  0.19995969  0.66618424  1
  Mg  Mg103  1  0.80004131  0.79994974  0.66618342  1
  Mg  Mg104  1  0.99990970  0.79994984  0.66618359  1
  Mg  Mg105  1  0.20006111  0.60003034  0.66660886  1
  Mg  Mg106  1  0.39996833  0.60003037  0.66660821  1
  Mg  Mg107  1  0.39996873  0.79993830  0.66660823  1
  Mg  Mg108  1  -0.00000039  0.00000016  0.66655884  1
  Mg  Mg109  1  0.40014661  0.20007409  0.66666338  1
  Mg  Mg110  1  0.79992617  0.20007338  0.66666344  1
  Mg  Mg111  1  0.79992719  0.59985390  0.66666416  1
  Mg  Mg112  1  0.60007969  0.00004217  0.66669053  1
  Mg  Mg113  1  0.39996110  0.00004158  0.66668958  1
  Mg  Mg114  1  0.39996183  0.39992009  0.66669018  1
  Mg  Mg115  1  0.99995832  0.39991969  0.66668913  1
  Mg  Mg116  1  0.60008019  0.60003764  0.66668986  1
  Mg  Mg117  1  0.99995778  0.60003843  0.66668955  1
  Mg  Mg118  1  0.60005666  0.20011331  0.66672795  1
  Mg  Mg119  1  0.79988691  0.39994241  0.66672826  1
  Mg  Mg120  1  0.60005611  0.39994445  0.66672767  1
  Mg  Mg121  1  0.19993552  0.39987204  0.66681857  1
  Mg  Mg122  1  0.60012665  0.80006387  0.66681794  1
  Mg  Mg123  1  0.19993640  0.80006435  0.66681801  1
  Mg  Mg124  1  0.06701200  0.13402351  0.83194893  1
  Mg  Mg125  1  0.86597648  0.93298771  0.83194857  1
  Mg  Mg126  1  0.06701138  0.93298731  0.83194835  1
  Mg  Mg127  1  0.86640837  0.13359016  0.83286772  1
  Mg  Mg128  1  0.26718077  0.13359074  0.83286760  1
  Mg  Mg129  1  0.86640940  0.73281719  0.83286766  1
  Mg  Mg130  1  0.06676553  0.53338328  0.83332412  1
  Mg  Mg131  1  0.46661645  0.53338360  0.83332363  1
  Mg  Mg132  1  0.46661664  0.93323392  0.83332405  1
  Mg  Mg133  1  0.26665073  0.53330135  0.83326623  1
  Mg  Mg134  1  0.46669929  0.73334901  0.83326618  1
  Mg  Mg135  1  0.26664955  0.73334844  0.83326569  1
  Mg  Mg136  1  0.66666736  0.33333264  0.83323900  1
  Mg  Mg137  1  0.46677890  0.13331193  0.83338888  1
  Mg  Mg138  1  0.66653338  0.13331282  0.83338870  1
  Mg  Mg139  1  0.86668852  0.33346584  0.83338948  1
  Mg  Mg140  1  0.46677893  0.33346766  0.83338920  1
  Mg  Mg141  1  0.66653311  0.53322187  0.83338971  1
  Mg  Mg142  1  0.86668845  0.53322200  0.83338868  1
  Mg  Mg143  1  0.06646890  0.33323998  0.83344147  1
  Mg  Mg144  1  0.26677161  0.33323994  0.83344123  1
  Mg  Mg145  1  0.06646881  0.73322787  0.83344059  1
  Mg  Mg146  1  0.66676011  0.73322987  0.83344120  1
  Mg  Mg147  1  0.66675962  0.93353071  0.83344113  1
  Mg  Mg148  1  0.26677068  0.93353096  0.83344008  1
  Tl  Tl0  1  0.00000007  0.00000006  -0.00000000  1
loop_
_geom_bond_atom_site_label_1
_geom_bond_atom_site_label_2
_geom_bond_distance
_geom_bond_site_symmetry_2
Mg0 Mg3 3.165536 1_555
Mg0 Mg23 3.167415 1_545
Mg0 Mg147 3.168461 1_544
Mg0 Mg28 3.168461 1_545
Mg0 Mg20 3.174490 1_545
Mg0 Mg43 3.181042 1_555
Mg0 Mg127 3.181042 1_554
Mg0 Mg6 3.187919 1_555
Mg0 Tl0 3.204394 1_655
Mg0 Mg47 3.206864 1_545
Mg0 Mg125 3.206864 1_544
Mg0 Mg18 3.220790 1_545
Mg1 Mg2 3.165513 1_555
Mg1 Mg22 3.167440 1_545
Mg1 Mg148 3.168475 1_544
Mg1 Mg29 3.168475 1_545
Mg1 Mg21 3.174517 1_545
Mg1 Mg44 3.181060 1_555
Mg1 Mg128 3.181060 1_554
Mg1 Mg5 3.187972 1_555
Mg1 Tl0 3.204393 1_555
Mg1 Mg48 3.206847 1_545
Mg1 Mg126 3.206847 1_544
Mg1 Mg17 3.220733 1_445
Mg2 Mg5 3.165547 1_555
Mg2 Mg33 3.178363 1_555
Mg2 Mg30 3.178372 1_555
Mg2 Mg9 3.181323 1_555
Mg2 Mg4 3.181341 1_555
Mg2 Mg44 3.181377 1_555
Mg2 Mg22 3.186437 1_545
Mg3 Mg6 3.165515 1_555
Mg3 Mg32 3.178340 1_555
Mg3 Mg31 3.178361 1_555
Mg3 Mg8 3.181373 1_555
Mg3 Mg4 3.181376 1_555
Mg3 Mg43 3.181382 1_555
Mg4 Mg8 3.181516 1_555
Mg4 Mg9 3.181531 1_555
Mg5 Mg7 3.174544 1_555
Mg5 Tl0 3.204341 1_555
Mg5 Mg6 3.220805 1_455
Mg6 Mg7 3.174513 1_655
Mg6 Tl0 3.204411 1_655
Mg8 Mg9 3.181532 1_555
Mg10 Mg5 3.167410 1_555
Mg10 Mg12 3.170921 1_555
Mg10 Mg41 3.175871 1_555
Mg10 Mg131 3.175871 1_554
Mg10 Mg33 3.178009 1_555
Mg10 Mg140 3.178009 1_554
Mg10 Mg144 3.179129 1_554
Mg10 Mg25 3.179129 1_555
Mg10 Mg16 3.179169 1_555
Mg10 Mg9 3.181143 1_555
Mg10 Mg7 3.185371 1_555
Mg10 Mg2 3.186442 1_555
Mg11 Mg6 3.167422 1_455
Mg11 Mg13 3.170936 1_555
Mg11 Mg130 3.175851 1_554
Mg11 Mg40 3.175851 1_555
Mg11 Mg139 3.178006 1_454
Mg11 Mg32 3.178006 1_455
Mg11 Mg15 3.179071 1_555
Mg11 Mg143 3.179143 1_554
Mg11 Mg24 3.179143 1_555
Mg11 Mg8 3.181174 1_455
Mg11 Mg7 3.185370 1_555
Mg11 Mg3 3.186423 1_455
Mg12 Mg18 3.167409 1_555
Mg12 Mg41 3.175868 1_555
Mg12 Mg131 3.175868 1_554
Mg12 Mg141 3.178011 1_554
Mg12 Mg34 3.178011 1_555
Mg12 Mg27 3.179135 1_555
Mg12 Mg146 3.179135 1_554
Mg12 Mg16 3.179156 1_555
Mg12 Mg9 3.181163 1_555
Mg12 Mg20 3.185352 1_555
Mg12 Mg14 3.186446 1_555
Mg13 Mg17 3.167448 1_455
Mg13 Mg130 3.175864 1_554
Mg13 Mg40 3.175864 1_555
Mg13 Mg35 3.178006 1_455
Mg13 Mg142 3.178006 1_454
Mg13 Mg145 3.179135 1_554
Mg13 Mg26 3.179135 1_555
Mg13 Mg15 3.179152 1_555
Mg13 Mg8 3.181109 1_455
Mg13 Mg21 3.185341 1_555
Mg13 Mg14 3.186448 1_455
Mg14 Mg17 3.165533 1_555
Mg14 Mg18 3.165559 1_555
Mg14 Mg141 3.178342 1_554
Mg14 Mg34 3.178342 1_555
Mg14 Mg142 3.178368 1_554
Mg14 Mg35 3.178368 1_555
Mg14 Mg9 3.181313 1_555
Mg14 Mg8 3.181329 1_555
Mg14 Mg45 3.181370 1_555
Mg15 Mg40 3.177688 1_555
Mg15 Mg37 3.179573 1_555
Mg15 Mg39 3.179589 1_555
Mg15 Mg16 3.183339 1_555
Mg15 Mg19 3.183353 1_555
Mg15 Mg7 3.188833 1_555
Mg15 Mg21 3.188897 1_555
Mg16 Mg41 3.177711 1_555
Mg16 Mg38 3.179564 1_555
Mg16 Mg37 3.179566 1_555
Mg16 Mg19 3.183329 1_555
Mg16 Mg7 3.188823 1_555
Mg16 Mg20 3.188844 1_555
Mg17 Mg26 3.168488 1_655
Mg17 Mg21 3.174530 1_655
Mg17 Mg45 3.181054 1_555
Mg17 Mg18 3.187954 1_555
Mg17 Tl0 3.204377 1_665
Mg17 Mg48 3.206831 1_655
Mg18 Mg27 3.168464 1_555
Mg18 Mg20 3.174517 1_555
Mg18 Mg45 3.181075 1_555
Mg18 Tl0 3.204341 1_665
Mg18 Mg47 3.206831 1_555
Mg19 Mg42 3.177694 1_555
Mg19 Mg23 3.179106 1_555
Mg19 Mg22 3.179166 1_555
Mg19 Mg38 3.179582 1_555
Mg19 Mg39 3.179594 1_555
Mg19 Mg20 3.188872 1_555
Mg19 Mg21 3.188887 1_555
Mg20 Mg27 3.176734 1_555
Mg20 Mg28 3.176736 1_555
Mg20 Mg38 3.183103 1_555
Mg20 Mg23 3.185368 1_555
Mg21 Mg26 3.176747 1_555
Mg21 Mg29 3.176753 1_555
Mg21 Mg39 3.183114 1_555
Mg21 Mg22 3.185358 1_555
Mg22 Mg23 3.170949 1_555
Mg22 Mg42 3.175866 1_555
Mg22 Mg30 3.178001 1_565
Mg22 Mg29 3.179161 1_555
Mg22 Mg4 3.181095 1_565
Mg23 Mg42 3.175865 1_555
Mg23 Mg31 3.178024 1_565
Mg23 Mg28 3.179137 1_555
Mg23 Mg4 3.181181 1_565
Mg23 Mg3 3.186417 1_565
Mg24 Mg6 3.168448 1_455
Mg24 Mg46 3.174853 1_555
Mg24 Mg7 3.176741 1_555
Mg24 Mg58 3.178477 1_455
Mg24 Mg49 3.179024 1_555
Mg24 Mg43 3.180585 1_455
Mg24 Mg32 3.181210 1_455
Mg24 Mg40 3.182830 1_555
Mg24 Mg37 3.184809 1_555
Mg24 Mg70 3.185601 1_455
Mg24 Mg25 3.187724 1_555
Mg25 Mg5 3.168462 1_555
Mg25 Mg46 3.174818 1_555
Mg25 Mg7 3.176756 1_555
Mg25 Mg57 3.178449 1_555
Mg25 Mg49 3.179045 1_555
Mg25 Mg44 3.180597 1_555
Mg25 Mg33 3.181212 1_555
Mg25 Mg41 3.182784 1_555
Mg25 Mg37 3.184848 1_555
Mg25 Mg71 3.185595 1_555
Mg26 Mg48 3.174855 1_555
Mg26 Mg60 3.178443 1_455
Mg26 Mg51 3.179028 1_555
Mg26 Mg45 3.180601 1_455
Mg26 Mg35 3.181173 1_455
Mg26 Mg40 3.182798 1_555
Mg26 Mg39 3.184825 1_555
Mg26 Mg73 3.185613 1_455
Mg26 Mg29 3.187686 1_555
Mg27 Mg47 3.174803 1_555
Mg27 Mg59 3.178469 1_555
Mg27 Mg50 3.179047 1_555
Mg27 Mg45 3.180626 1_555
Mg27 Mg34 3.181230 1_555
Mg27 Mg41 3.182795 1_555
Mg27 Mg38 3.184824 1_555
Mg27 Mg72 3.185612 1_555
Mg27 Mg28 3.187699 1_555
Mg28 Mg47 3.174858 1_555
Mg28 Mg55 3.178464 1_565
Mg28 Mg50 3.179030 1_555
Mg28 Mg43 3.180568 1_565
Mg28 Mg31 3.181241 1_565
Mg28 Mg42 3.182823 1_555
Mg28 Mg38 3.184800 1_555
Mg28 Mg69 3.185612 1_565
Mg29 Mg48 3.174843 1_555
Mg29 Mg56 3.178443 1_565
Mg29 Mg51 3.179014 1_555
Mg29 Mg44 3.180613 1_565
Mg29 Mg30 3.181196 1_565
Mg29 Mg42 3.182822 1_555
Mg29 Mg39 3.184849 1_555
Mg29 Mg68 3.185593 1_565
Mg30 Mg4 3.177138 1_555
Mg30 Mg52 3.178002 1_555
Mg30 Mg56 3.178431 1_555
Mg30 Mg44 3.178742 1_555
Mg30 Mg31 3.178992 1_555
Mg30 Mg61 3.179762 1_555
Mg30 Mg36 3.182151 1_555
Mg30 Mg42 3.182858 1_545
Mg30 Mg33 3.185385 1_555
Mg31 Mg4 3.177166 1_555
Mg31 Mg52 3.178007 1_555
Mg31 Mg55 3.178419 1_555
Mg31 Mg43 3.178722 1_555
Mg31 Mg62 3.179735 1_555
Mg31 Mg36 3.182158 1_555
Mg31 Mg42 3.182838 1_545
Mg31 Mg32 3.185324 1_555
Mg32 Mg8 3.177174 1_555
Mg32 Mg53 3.178021 1_555
Mg32 Mg58 3.178440 1_555
Mg32 Mg43 3.178712 1_555
Mg32 Mg35 3.179027 1_555
Mg32 Mg62 3.179742 1_555
Mg32 Mg36 3.182184 1_555
Mg32 Mg40 3.182829 1_655
Mg33 Mg9 3.177138 1_555
Mg33 Mg54 3.178005 1_555
Mg33 Mg57 3.178432 1_555
Mg33 Mg44 3.178708 1_555
Mg33 Mg34 3.178960 1_555
Mg33 Mg61 3.179748 1_555
Mg33 Mg36 3.182206 1_555
Mg33 Mg41 3.182863 1_555
Mg34 Mg9 3.177142 1_555
Mg34 Mg54 3.178014 1_555
Mg34 Mg59 3.178436 1_555
Mg34 Mg45 3.178680 1_555
Mg34 Mg63 3.179748 1_555
Mg34 Mg36 3.182214 1_555
Mg34 Mg41 3.182868 1_555
Mg34 Mg35 3.185377 1_555
Mg35 Mg8 3.177147 1_555
Mg35 Mg53 3.178010 1_555
Mg35 Mg60 3.178420 1_555
Mg35 Mg45 3.178698 1_555
Mg35 Mg63 3.179740 1_555
Mg35 Mg36 3.182161 1_555
Mg35 Mg40 3.182850 1_655
Mg36 Mg53 3.175630 1_555
Mg36 Mg52 3.175633 1_555
Mg36 Mg54 3.175677 1_555
Mg36 Mg8 3.179250 1_555
Mg36 Mg4 3.179251 1_555
Mg36 Mg9 3.179285 1_555
Mg37 Mg49 3.176502 1_555
Mg37 Mg66 3.178282 1_555
Mg37 Mg65 3.178293 1_555
Mg37 Mg41 3.181707 1_555
Mg37 Mg40 3.181732 1_555
Mg37 Mg7 3.183090 1_555
Mg37 Mg38 3.183638 1_555
Mg37 Mg39 3.183666 1_555
Mg38 Mg50 3.176494 1_555
Mg38 Mg66 3.178290 1_555
Mg38 Mg67 3.178310 1_555
Mg38 Mg41 3.181698 1_555
Mg38 Mg42 3.181733 1_555
Mg38 Mg39 3.183693 1_555
Mg39 Mg51 3.176512 1_555
Mg39 Mg65 3.178271 1_555
Mg39 Mg67 3.178287 1_555
Mg39 Mg40 3.181672 1_555
Mg39 Mg42 3.181699 1_555
Mg40 Mg65 3.178833 1_555
Mg40 Mg58 3.179153 1_455
Mg40 Mg60 3.179154 1_455
Mg41 Mg66 3.178841 1_555
Mg41 Mg57 3.179133 1_555
Mg41 Mg59 3.179139 1_555
Mg42 Mg67 3.178841 1_555
Mg42 Mg55 3.179130 1_565
Mg42 Mg56 3.179155 1_565
Mg43 Mg62 3.169726 1_555
Mg43 Mg69 3.180065 1_555
Mg43 Mg70 3.180093 1_555
Mg43 Mg6 3.181048 1_555
Mg43 Mg47 3.189096 1_545
Mg43 Mg46 3.189102 1_655
Mg44 Mg61 3.169717 1_555
Mg44 Mg71 3.180064 1_555
Mg44 Mg68 3.180077 1_555
Mg44 Mg5 3.181059 1_555
Mg44 Mg48 3.189059 1_545
Mg44 Mg46 3.189073 1_555
Mg45 Mg63 3.169688 1_555
Mg45 Mg73 3.180074 1_555
Mg45 Mg72 3.180091 1_555
Mg45 Mg48 3.189054 1_655
Mg45 Mg47 3.189103 1_555
Mg46 Mg71 3.164737 1_555
Mg46 Mg70 3.164746 1_455
Mg46 Mg64 3.167865 1_555
Mg46 Mg47 3.199354 1_445
Mg46 Mg48 3.199393 1_545
Mg46 Tl0 3.201596 1_555
Mg46 Mg5 3.206830 1_555
Mg46 Mg6 3.206868 1_455
Mg47 Mg72 3.164735 1_555
Mg47 Mg69 3.164759 1_565
Mg47 Mg64 3.167859 1_665
Mg47 Mg48 3.199379 1_655
Mg47 Tl0 3.201602 1_665
Mg48 Mg73 3.164725 1_455
Mg48 Mg68 3.164736 1_565
Mg48 Mg64 3.167880 1_565
Mg48 Tl0 3.201620 1_565
Mg49 Mg88 3.180344 1_555
Mg49 Mg81 3.180593 1_555
Mg49 Mg80 3.180622 1_555
Mg49 Mg70 3.182381 1_455
Mg49 Mg71 3.182447 1_555
Mg49 Mg58 3.182923 1_455
Mg49 Mg57 3.182943 1_555
Mg49 Mg66 3.184395 1_555
Mg49 Mg65 3.184429 1_555
Mg50 Mg92 3.180311 1_555
Mg50 Mg95 3.180595 1_555
Mg50 Mg90 3.180604 1_555
Mg50 Mg69 3.182424 1_565
Mg50 Mg72 3.182472 1_555
Mg50 Mg55 3.182936 1_565
Mg50 Mg59 3.182955 1_555
Mg50 Mg66 3.184401 1_555
Mg50 Mg67 3.184422 1_555
Mg51 Mg93 3.180345 1_555
Mg51 Mg94 3.180592 1_555
Mg51 Mg91 3.180599 1_555
Mg51 Mg68 3.182425 1_565
Mg51 Mg73 3.182436 1_455
Mg51 Mg56 3.182888 1_565
Mg51 Mg60 3.182909 1_455
Mg51 Mg67 3.184426 1_555
Mg51 Mg65 3.184443 1_555
Mg52 Mg79 3.178392 1_555
Mg52 Mg75 3.179212 1_555
Mg52 Mg76 3.179236 1_555
Mg52 Mg53 3.180162 1_555
Mg52 Mg54 3.180224 1_555
Mg52 Mg62 3.181147 1_555
Mg52 Mg61 3.181163 1_555
Mg52 Mg56 3.184203 1_555
Mg52 Mg55 3.184222 1_555
Mg53 Mg79 3.178389 1_555
Mg53 Mg82 3.179226 1_555
Mg53 Mg85 3.179226 1_555
Mg53 Mg54 3.180230 1_555
Mg53 Mg62 3.181135 1_555
Mg53 Mg63 3.181178 1_555
Mg53 Mg60 3.184200 1_555
Mg53 Mg58 3.184224 1_555
Mg54 Mg79 3.178423 1_555
Mg54 Mg84 3.179202 1_555
Mg54 Mg83 3.179209 1_555
Mg54 Mg61 3.181121 1_555
Mg54 Mg63 3.181126 1_555
Mg54 Mg59 3.184198 1_555
Mg54 Mg57 3.184213 1_555
Mg55 Mg95 3.177841 1_545
Mg55 Mg76 3.177986 1_555
Mg55 Mg98 3.179167 1_545
Mg55 Mg62 3.181900 1_555
Mg55 Mg69 3.181904 1_555
Mg55 Mg67 3.184582 1_545
Mg55 Mg56 3.184789 1_555
Mg56 Mg94 3.177808 1_545
Mg56 Mg75 3.177982 1_555
Mg56 Mg98 3.179186 1_545
Mg56 Mg68 3.181883 1_555
Mg56 Mg61 3.181949 1_555
Mg56 Mg67 3.184612 1_545
Mg57 Mg80 3.177820 1_555
Mg57 Mg83 3.178002 1_555
Mg57 Mg87 3.179169 1_555
Mg57 Mg71 3.181857 1_555
Mg57 Mg61 3.181927 1_555
Mg57 Mg66 3.184611 1_555
Mg57 Mg59 3.184749 1_555
Mg58 Mg81 3.177810 1_655
Mg58 Mg82 3.177979 1_555
Mg58 Mg86 3.179154 1_655
Mg58 Mg70 3.181894 1_555
Mg58 Mg62 3.181906 1_555
Mg58 Mg65 3.184571 1_655
Mg58 Mg60 3.184801 1_555
Mg59 Mg90 3.177827 1_555
Mg59 Mg84 3.178003 1_555
Mg59 Mg87 3.179168 1_555
Mg59 Mg72 3.181873 1_555
Mg59 Mg63 3.181934 1_555
Mg59 Mg66 3.184629 1_555
Mg60 Mg91 3.177817 1_655
Mg60 Mg85 3.177977 1_555
Mg60 Mg86 3.179182 1_655
Mg60 Mg73 3.181889 1_555
Mg60 Mg63 3.181926 1_555
Mg60 Mg65 3.184615 1_655
Mg61 Mg83 3.178910 1_555
Mg61 Mg75 3.178941 1_555
Mg61 Mg78 3.179591 1_555
Mg61 Mg68 3.183521 1_555
Mg61 Mg71 3.183525 1_555
Mg62 Mg76 3.178910 1_555
Mg62 Mg82 3.178912 1_555
Mg62 Mg77 3.179625 1_555
Mg62 Mg69 3.183539 1_555
Mg62 Mg70 3.183573 1_555
Mg63 Mg84 3.178920 1_555
Mg63 Mg85 3.178941 1_555
Mg63 Mg89 3.179602 1_555
Mg63 Mg73 3.183506 1_555
Mg63 Mg72 3.183533 1_555
Mg64 Mg96 3.176350 1_445
Mg64 Mg74 3.176353 1_555
Mg64 Mg97 3.176357 1_545
Mg64 Mg72 3.182947 1_445
Mg64 Mg71 3.182965 1_555
Mg64 Mg70 3.182983 1_455
Mg64 Mg69 3.182984 1_455
Mg64 Mg73 3.182998 1_445
Mg64 Mg68 3.183003 1_555
Mg65 Mg93 3.178095 1_555
Mg65 Mg88 3.178110 1_555
Mg65 Mg86 3.178837 1_555
Mg65 Mg67 3.181405 1_555
Mg65 Mg66 3.181429 1_555
Mg66 Mg88 3.178084 1_555
Mg66 Mg92 3.178101 1_555
Mg66 Mg87 3.178847 1_555
Mg66 Mg67 3.181438 1_555
Mg67 Mg93 3.178098 1_555
Mg67 Mg92 3.178113 1_555
Mg67 Mg98 3.178830 1_555
Mg68 Mg78 3.171692 1_555
Mg68 Mg94 3.172741 1_545
Mg68 Mg97 3.173197 1_545
Mg68 Mg71 3.180826 1_555
Mg68 Mg73 3.185106 1_445
Mg69 Mg77 3.171670 1_555
Mg69 Mg95 3.172734 1_545
Mg69 Mg96 3.173207 1_545
Mg69 Mg70 3.180795 1_555
Mg69 Mg72 3.185168 1_545
Mg70 Mg77 3.171695 1_555
Mg70 Mg81 3.172740 1_655
Mg70 Mg74 3.173191 1_655
Mg70 Mg71 3.185141 1_655
Mg71 Mg78 3.171706 1_555
Mg71 Mg80 3.172739 1_555
Mg71 Mg74 3.173199 1_555
Mg72 Mg89 3.171689 1_555
Mg72 Mg90 3.172744 1_555
Mg72 Mg96 3.173174 1_555
Mg72 Mg73 3.180811 1_555
Mg73 Mg89 3.171689 1_555
Mg73 Mg91 3.172737 1_655
Mg73 Mg97 3.173187 1_655
Mg74 Mg96 3.180505 1_445
Mg74 Mg97 3.180514 1_545
Mg74 Mg77 3.182964 1_455
Mg74 Mg78 3.182985 1_555
Mg74 Mg80 3.184772 1_555
Mg74 Mg81 3.184827 1_555
Mg75 Mg76 3.179798 1_555
Mg75 Mg98 3.180545 1_545
Mg75 Mg94 3.181559 1_545
Mg75 Mg79 3.182841 1_555
Mg75 Mg78 3.184391 1_555
Mg75 Mg83 3.185948 1_555
Mg76 Mg98 3.180504 1_545
Mg76 Mg95 3.181576 1_545
Mg76 Mg79 3.182874 1_555
Mg76 Mg77 3.184395 1_555
Mg76 Mg82 3.185901 1_555
Mg77 Mg95 3.182232 1_545
Mg77 Mg81 3.182250 1_655
Mg77 Mg96 3.182978 1_545
Mg77 Mg82 3.184401 1_555
Mg78 Mg99 3.171692 1_555
Mg78 Mg94 3.182262 1_545
Mg78 Mg80 3.182266 1_555
Mg78 Mg97 3.182957 1_545
Mg78 Mg83 3.184350 1_555
Mg79 Mg85 3.182825 1_555
Mg79 Mg82 3.182852 1_555
Mg79 Mg84 3.182867 1_555
Mg79 Mg83 3.182888 1_555
Mg80 Mg83 3.181584 1_555
Mg80 Mg88 3.181875 1_555
Mg80 Mg87 3.182158 1_555
Mg80 Mg81 3.185621 1_555
Mg81 Mg82 3.181588 1_455
Mg81 Mg88 3.181817 1_555
Mg81 Mg86 3.182168 1_555
Mg82 Mg85 3.179801 1_555
Mg82 Mg86 3.180509 1_655
Mg83 Mg84 3.179772 1_555
Mg83 Mg87 3.180542 1_555
Mg84 Mg87 3.180563 1_555
Mg84 Mg90 3.181621 1_555
Mg84 Mg89 3.184348 1_555
Mg84 Mg85 3.185923 1_555
Mg85 Mg86 3.180540 1_655
Mg85 Mg91 3.181561 1_655
Mg85 Mg89 3.184395 1_555
Mg86 Mg91 3.182213 1_555
Mg86 Mg93 3.183708 1_555
Mg86 Mg88 3.183751 1_555
Mg87 Mg90 3.182160 1_555
Mg87 Mg92 3.183754 1_555
Mg87 Mg88 3.183755 1_555
Mg88 Mg92 3.186253 1_555
Mg88 Mg93 3.186262 1_555
Mg89 Mg91 3.182258 1_655
Mg89 Mg90 3.182283 1_555
Mg89 Mg97 3.182934 1_655
Mg89 Mg96 3.182960 1_555
Mg90 Mg92 3.181829 1_555
Mg90 Mg96 3.184766 1_555
Mg90 Mg95 3.185599 1_555
Mg91 Mg93 3.181860 1_555
Mg91 Mg97 3.184813 1_555
Mg91 Mg94 3.185576 1_555
Mg92 Mg95 3.181810 1_555
Mg92 Mg98 3.183745 1_555
Mg92 Mg93 3.186302 1_555
Mg93 Mg94 3.181871 1_555
Mg93 Mg98 3.183740 1_555
Mg94 Mg99 3.172741 1_565
Mg94 Mg98 3.182204 1_555
Mg94 Mg97 3.184834 1_555
Mg95 Mg98 3.182177 1_555
Mg95 Mg96 3.184821 1_555
Mg96 Mg97 3.180495 1_655
Mg97 Mg99 3.173197 1_565
Mg100 Mg125 3.164759 1_545
Mg100 Mg77 3.171670 1_555
Mg100 Mg95 3.172734 1_545
Mg100 Mg96 3.173207 1_545
Mg100 Mg127 3.180065 1_555
Mg100 Mg101 3.180795 1_555
Mg100 Mg112 3.181904 1_555
Mg100 Mg122 3.182424 1_545
Mg100 Mg108 3.182984 1_655
Mg100 Mg110 3.183539 1_555
Mg100 Mg103 3.185168 1_545
Mg100 Mg147 3.185612 1_545
Mg101 Mg124 3.164746 1_655
Mg101 Mg77 3.171695 1_555
Mg101 Mg81 3.172740 1_655
Mg101 Mg74 3.173191 1_655
Mg101 Mg127 3.180093 1_555
Mg101 Mg115 3.181894 1_555
Mg101 Mg121 3.182381 1_655
Mg101 Mg108 3.182983 1_655
Mg101 Mg110 3.183573 1_555
Mg101 Mg102 3.185141 1_655
Mg101 Mg143 3.185601 1_655
Mg102 Mg124 3.164737 1_555
Mg102 Mg78 3.171706 1_555
Mg102 Mg80 3.172739 1_555
Mg102 Mg74 3.173199 1_555
Mg102 Mg128 3.180064 1_555
Mg102 Mg99 3.180826 1_555
Mg102 Mg114 3.181857 1_555
Mg102 Mg121 3.182447 1_555
Mg102 Mg108 3.182965 1_555
Mg102 Mg109 3.183525 1_555
Mg102 Mg144 3.185595 1_555
Mg103 Mg125 3.164735 1_555
Mg103 Mg89 3.171689 1_555
Mg103 Mg90 3.172744 1_555
Mg103 Mg96 3.173174 1_555
Mg103 Mg129 3.180091 1_555
Mg103 Mg104 3.180811 1_555
Mg103 Mg116 3.181873 1_555
Mg103 Mg122 3.182472 1_555
Mg103 Mg108 3.182947 1_665
Mg103 Mg111 3.183533 1_555
Mg103 Mg146 3.185612 1_555
Mg104 Mg126 3.164725 1_655
Mg104 Mg89 3.171689 1_555
Mg104 Mg91 3.172737 1_655
Mg104 Mg97 3.173187 1_655
Mg104 Mg129 3.180074 1_555
Mg104 Mg117 3.181889 1_555
Mg104 Mg123 3.182436 1_655
Mg104 Mg108 3.182998 1_665
Mg104 Mg111 3.183506 1_555
Mg104 Mg99 3.185106 1_665
Mg104 Mg145 3.185613 1_655
Mg105 Mg93 3.178095 1_555
Mg105 Mg88 3.178110 1_555
Mg105 Mg135 3.178271 1_555
Mg105 Mg133 3.178293 1_555
Mg105 Mg130 3.178833 1_555
Mg105 Mg86 3.178837 1_555
Mg105 Mg107 3.181405 1_555
Mg105 Mg106 3.181429 1_555
Mg105 Mg121 3.184429 1_555
Mg105 Mg123 3.184443 1_555
Mg105 Mg115 3.184571 1_455
Mg105 Mg117 3.184615 1_455
Mg106 Mg88 3.178084 1_555
Mg106 Mg92 3.178101 1_555
Mg106 Mg133 3.178282 1_555
Mg106 Mg134 3.178290 1_555
Mg106 Mg131 3.178841 1_555
Mg106 Mg87 3.178847 1_555
Mg106 Mg107 3.181438 1_555
Mg106 Mg121 3.184395 1_555
Mg106 Mg122 3.184401 1_555
Mg106 Mg114 3.184611 1_555
Mg106 Mg116 3.184629 1_555
Mg107 Mg93 3.178098 1_555
Mg107 Mg92 3.178113 1_555
Mg107 Mg135 3.178287 1_555
Mg107 Mg134 3.178310 1_555
Mg107 Mg98 3.178830 1_555
Mg107 Mg132 3.178841 1_555
Mg107 Mg122 3.184422 1_555
Mg107 Mg123 3.184426 1_555
Mg107 Mg112 3.184582 1_565
Mg107 Mg113 3.184612 1_565
Mg108 Mg125 3.167859 1_445
Mg108 Mg124 3.167865 1_555
Mg108 Mg126 3.167880 1_545
Mg108 Mg96 3.176350 1_445
Mg108 Mg74 3.176353 1_555
Mg108 Mg97 3.176357 1_545
Mg108 Mg99 3.183003 1_555
Mg109 Mg128 3.169717 1_555
Mg109 Mg83 3.178910 1_555
Mg109 Mg75 3.178941 1_555
Mg109 Mg78 3.179591 1_555
Mg109 Mg140 3.179748 1_555
Mg109 Mg137 3.179762 1_555
Mg109 Mg120 3.181121 1_555
Mg109 Mg118 3.181163 1_555
Mg109 Mg114 3.181927 1_555
Mg109 Mg113 3.181949 1_555
Mg109 Mg99 3.183521 1_555
Mg110 Mg127 3.169726 1_555
Mg110 Mg76 3.178910 1_555
Mg110 Mg82 3.178912 1_555
Mg110 Mg77 3.179625 1_555
Mg110 Mg138 3.179735 1_555
Mg110 Mg139 3.179742 1_555
Mg110 Mg119 3.181135 1_555
Mg110 Mg118 3.181147 1_555
Mg110 Mg112 3.181900 1_555
Mg110 Mg115 3.181906 1_555
Mg111 Mg129 3.169688 1_555
Mg111 Mg84 3.178920 1_555
Mg111 Mg85 3.178941 1_555
Mg111 Mg89 3.179602 1_555
Mg111 Mg142 3.179740 1_555
Mg111 Mg141 3.179748 1_555
Mg111 Mg120 3.181126 1_555
Mg111 Mg119 3.181178 1_555
Mg111 Mg117 3.181926 1_555
Mg111 Mg116 3.181934 1_555
Mg112 Mg95 3.177841 1_545
Mg112 Mg76 3.177986 1_555
Mg112 Mg138 3.178419 1_555
Mg112 Mg147 3.178464 1_545
Mg112 Mg132 3.179130 1_545
Mg112 Mg98 3.179167 1_545
Mg112 Mg122 3.182936 1_545
Mg112 Mg118 3.184222 1_555
Mg112 Mg113 3.184789 1_555
Mg113 Mg94 3.177808 1_545
Mg113 Mg75 3.177982 1_555
Mg113 Mg137 3.178431 1_555
Mg113 Mg148 3.178443 1_545
Mg113 Mg132 3.179155 1_545
Mg113 Mg98 3.179186 1_545
Mg113 Mg99 3.181883 1_555
Mg113 Mg123 3.182888 1_545
Mg113 Mg118 3.184203 1_555
Mg114 Mg80 3.177820 1_555
Mg114 Mg83 3.178002 1_555
Mg114 Mg140 3.178432 1_555
Mg114 Mg144 3.178449 1_555
Mg114 Mg131 3.179133 1_555
Mg114 Mg87 3.179169 1_555
Mg114 Mg121 3.182943 1_555
Mg114 Mg120 3.184213 1_555
Mg114 Mg116 3.184749 1_555
Mg115 Mg81 3.177810 1_655
Mg115 Mg82 3.177979 1_555
Mg115 Mg139 3.178440 1_555
Mg115 Mg143 3.178477 1_655
Mg115 Mg130 3.179153 1_655
Mg115 Mg86 3.179154 1_655
Mg115 Mg121 3.182923 1_655
Mg115 Mg119 3.184224 1_555
Mg115 Mg117 3.184801 1_555
Mg116 Mg90 3.177827 1_555
Mg116 Mg84 3.178003 1_555
Mg116 Mg141 3.178436 1_555
Mg116 Mg146 3.178469 1_555
Mg116 Mg131 3.179139 1_555
Mg116 Mg87 3.179168 1_555
Mg116 Mg122 3.182955 1_555
Mg116 Mg120 3.184198 1_555
Mg117 Mg91 3.177817 1_655
Mg117 Mg85 3.177977 1_555
Mg117 Mg142 3.178420 1_555
Mg117 Mg145 3.178443 1_655
Mg117 Mg130 3.179154 1_655
Mg117 Mg86 3.179182 1_655
Mg117 Mg123 3.182909 1_655
Mg117 Mg119 3.184200 1_555
Mg118 Mg136 3.175633 1_555
Mg118 Mg137 3.178002 1_555
Mg118 Mg138 3.178007 1_555
Mg118 Mg79 3.178392 1_555
Mg118 Mg75 3.179212 1_555
Mg118 Mg76 3.179236 1_555
Mg118 Mg119 3.180162 1_555
Mg118 Mg120 3.180224 1_555
Mg119 Mg136 3.175630 1_555
Mg119 Mg142 3.178010 1_555
Mg119 Mg139 3.178021 1_555
Mg119 Mg79 3.178389 1_555
Mg119 Mg82 3.179226 1_555
Mg119 Mg85 3.179226 1_555
Mg119 Mg120 3.180230 1_555
Mg120 Mg136 3.175677 1_555
Mg120 Mg140 3.178005 1_555
Mg120 Mg141 3.178014 1_555
Mg120 Mg79 3.178423 1_555
Mg120 Mg84 3.179202 1_555
Mg120 Mg83 3.179209 1_555
Mg121 Mg133 3.176502 1_555
Mg121 Mg143 3.179024 1_555
Mg121 Mg144 3.179045 1_555
Mg121 Mg88 3.180344 1_555
Mg121 Mg81 3.180593 1_555
Mg121 Mg80 3.180622 1_555
Mg122 Mg134 3.176494 1_555
Mg122 Mg147 3.179030 1_555
Mg122 Mg146 3.179047 1_555
Mg122 Mg92 3.180311 1_555
Mg122 Mg95 3.180595 1_555
Mg122 Mg90 3.180604 1_555
Mg123 Mg135 3.176512 1_555
Mg123 Mg148 3.179014 1_555
Mg123 Mg145 3.179028 1_555
Mg123 Mg93 3.180345 1_555
Mg123 Mg94 3.180592 1_555
Mg123 Mg91 3.180599 1_555
Mg123 Mg99 3.182425 1_565
Mg124 Mg144 3.174818 1_555
Mg124 Mg143 3.174853 1_555
Mg124 Mg128 3.189073 1_555
Mg124 Mg127 3.189102 1_455
Mg124 Mg125 3.199354 1_445
Mg124 Mg126 3.199393 1_545
Mg124 Tl0 3.201596 1_556
Mg124 Mg5 3.206830 1_556
Mg124 Mg6 3.206868 1_456
Mg125 Mg146 3.174803 1_555
Mg125 Mg147 3.174858 1_555
Mg125 Mg127 3.189096 1_565
Mg125 Mg129 3.189103 1_555
Mg125 Mg126 3.199379 1_655
Mg125 Tl0 3.201602 1_666
Mg125 Mg18 3.206831 1_556
Mg126 Mg99 3.164736 1_565
Mg126 Mg148 3.174843 1_555
Mg126 Mg145 3.174855 1_555
Mg126 Mg129 3.189054 1_455
Mg126 Mg128 3.189059 1_565
Mg126 Tl0 3.201620 1_566
Mg126 Mg17 3.206831 1_456
Mg127 Mg139 3.178712 1_555
Mg127 Mg138 3.178722 1_555
Mg127 Mg147 3.180568 1_545
Mg127 Mg143 3.180585 1_655
Mg127 Mg6 3.181048 1_556
Mg127 Mg3 3.181382 1_556
Mg128 Mg140 3.178708 1_555
Mg128 Mg137 3.178742 1_555
Mg128 Mg99 3.180077 1_555
Mg128 Mg144 3.180597 1_555
Mg128 Mg148 3.180613 1_545
Mg128 Mg5 3.181059 1_556
Mg128 Mg2 3.181377 1_556
Mg129 Mg141 3.178680 1_555
Mg129 Mg142 3.178698 1_555
Mg129 Mg145 3.180601 1_655
Mg129 Mg146 3.180626 1_555
Mg129 Mg17 3.181054 1_556
Mg129 Mg18 3.181075 1_556
Mg129 Mg14 3.181370 1_556
Mg130 Mg15 3.177688 1_556
Mg130 Mg135 3.181672 1_555
Mg130 Mg133 3.181732 1_555
Mg130 Mg145 3.182798 1_555
Mg130 Mg139 3.182829 1_455
Mg130 Mg143 3.182830 1_555
Mg130 Mg142 3.182850 1_455
Mg131 Mg16 3.177711 1_556
Mg131 Mg134 3.181698 1_555
Mg131 Mg133 3.181707 1_555
Mg131 Mg144 3.182784 1_555
Mg131 Mg146 3.182795 1_555
Mg131 Mg140 3.182863 1_555
Mg131 Mg141 3.182868 1_555
Mg132 Mg23 3.175865 1_556
Mg132 Mg22 3.175866 1_556
Mg132 Mg19 3.177694 1_556
Mg132 Mg135 3.181699 1_555
Mg132 Mg134 3.181733 1_555
Mg132 Mg148 3.182822 1_555
Mg132 Mg147 3.182823 1_555
Mg132 Mg138 3.182838 1_565
Mg132 Mg137 3.182858 1_565
Mg133 Mg16 3.179566 1_556
Mg133 Mg15 3.179573 1_556
Mg133 Mg7 3.183090 1_556
Mg133 Mg134 3.183638 1_555
Mg133 Mg135 3.183666 1_555
Mg133 Mg143 3.184809 1_555
Mg133 Mg144 3.184848 1_555
Mg134 Mg16 3.179564 1_556
Mg134 Mg19 3.179582 1_556
Mg134 Mg20 3.183103 1_556
Mg134 Mg135 3.183693 1_555
Mg134 Mg147 3.184800 1_555
Mg134 Mg146 3.184824 1_555
Mg135 Mg15 3.179589 1_556
Mg135 Mg19 3.179594 1_556
Mg135 Mg21 3.183114 1_556
Mg135 Mg145 3.184825 1_555
Mg135 Mg148 3.184849 1_555
Mg136 Mg8 3.179250 1_556
Mg136 Mg4 3.179251 1_556
Mg136 Mg9 3.179285 1_556
Mg136 Mg137 3.182151 1_555
Mg136 Mg138 3.182158 1_555
Mg136 Mg142 3.182161 1_555
Mg136 Mg139 3.182184 1_555
Mg136 Mg140 3.182206 1_555
Mg136 Mg141 3.182214 1_555
Mg137 Mg4 3.177138 1_556
Mg137 Mg22 3.178001 1_546
Mg137 Mg2 3.178372 1_556
Mg137 Mg138 3.178992 1_555
Mg137 Mg148 3.181196 1_545
Mg137 Mg140 3.185385 1_555
Mg138 Mg4 3.177166 1_556
Mg138 Mg23 3.178024 1_546
Mg138 Mg3 3.178361 1_556
Mg138 Mg147 3.181241 1_545
Mg138 Mg139 3.185324 1_555
Mg139 Mg8 3.177174 1_556
Mg139 Mg3 3.178340 1_556
Mg139 Mg142 3.179027 1_555
Mg139 Mg143 3.181210 1_655
Mg140 Mg9 3.177138 1_556
Mg140 Mg2 3.178363 1_556
Mg140 Mg141 3.178960 1_555
Mg140 Mg144 3.181212 1_555
Mg141 Mg9 3.177142 1_556
Mg141 Mg146 3.181230 1_555
Mg141 Mg142 3.185377 1_555
Mg142 Mg8 3.177147 1_556
Mg142 Mg145 3.181173 1_655
Mg143 Mg6 3.168448 1_456
Mg143 Mg7 3.176741 1_556
Mg143 Mg144 3.187724 1_555
Mg144 Mg5 3.168462 1_556
Mg144 Mg7 3.176756 1_556
Mg145 Mg17 3.168488 1_456
Mg145 Mg21 3.176747 1_556
Mg145 Mg148 3.187686 1_555
Mg146 Mg18 3.168464 1_556
Mg146 Mg20 3.176734 1_556
Mg146 Mg147 3.187699 1_555
Mg147 Mg20 3.176736 1_556
Mg147 Mg23 3.179137 1_556
Mg148 Mg21 3.176753 1_556
Mg148 Mg22 3.179161 1_556
Mg148 Mg99 3.185593 1_565
