# generated using pymatgen
data_Pr4GaSbS9
_symmetry_space_group_name_H-M   'P 1'
_cell_length_a   10.22667985
_cell_length_b   10.22667985
_cell_length_c   13.92757400
_cell_angle_alpha   90.00000000
_cell_angle_beta   90.00000000
_cell_angle_gamma   90.69151314
_symmetry_Int_Tables_number   1
_chemical_formula_structural   Pr4GaSbS9
_chemical_formula_sum   'Pr16 Ga4 Sb4 S36'
_cell_volume   1456.50897028
_cell_formula_units_Z   4
loop_
 _symmetry_equiv_pos_site_id
 _symmetry_equiv_pos_as_xyz
  1  'x, y, z'
loop_
 _atom_site_type_symbol
 _atom_site_label
 _atom_site_symmetry_multiplicity
 _atom_site_fract_x
 _atom_site_fract_y
 _atom_site_fract_z
 _atom_site_occupancy
  Pr  Pr0  1  0.08995100  0.12723300  0.18506500  1
  Pr  Pr1  1  0.87276700  0.91004900  0.81493500  1
  Pr  Pr2  1  0.58995100  0.62723300  0.31493500  1
  Pr  Pr3  1  0.37276700  0.41004900  0.68506500  1
  Pr  Pr4  1  0.32267400  0.33347100  0.39893300  1
  Pr  Pr5  1  0.66652900  0.67732600  0.60106700  1
  Pr  Pr6  1  0.82267400  0.83347100  0.10106700  1
  Pr  Pr7  1  0.16652900  0.17732600  0.89893300  1
  Pr  Pr8  1  0.04341900  0.62472000  0.32064400  1
  Pr  Pr9  1  0.37528000  0.95658100  0.67935600  1
  Pr  Pr10  1  0.54341900  0.12472000  0.17935600  1
  Pr  Pr11  1  0.87528000  0.45658100  0.82064400  1
  Pr  Pr12  1  0.32315700  0.45115000  0.10406300  1
  Pr  Pr13  1  0.54885000  0.67684300  0.89593700  1
  Pr  Pr14  1  0.82315700  0.95115000  0.39593700  1
  Pr  Pr15  1  0.04885000  0.17684300  0.60406300  1
  Ga  Ga0  1  0.82427800  0.38343800  0.09325800  1
  Ga  Ga1  1  0.61656200  0.17572200  0.90674200  1
  Ga  Ga2  1  0.32427800  0.88343800  0.40674200  1
  Ga  Ga3  1  0.11656200  0.67572200  0.59325800  1
  Sb  Sb0  1  0.82904900  0.32381100  0.38617300  1
  Sb  Sb1  1  0.67618900  0.17095100  0.61382700  1
  Sb  Sb2  1  0.32904900  0.82381100  0.11382700  1
  Sb  Sb3  1  0.17618900  0.67095100  0.88617300  1
  S  S0  1  0.01091900  0.16619100  0.39954900  1
  S  S1  1  0.83380900  0.98908100  0.60045100  1
  S  S2  1  0.51091900  0.66619100  0.10045100  1
  S  S3  1  0.33380900  0.48908100  0.89954900  1
  S  S4  1  0.14610100  0.66890000  0.07897800  1
  S  S5  1  0.33110000  0.85389900  0.92102200  1
  S  S6  1  0.64610100  0.16890000  0.42102200  1
  S  S7  1  0.83110000  0.35389900  0.57897800  1
  S  S8  1  0.81729000  0.20909800  0.20088600  1
  S  S9  1  0.79090200  0.18271000  0.79911400  1
  S  S10  1  0.31729000  0.70909800  0.29911400  1
  S  S11  1  0.29090200  0.68271000  0.70088600  1
  S  S12  1  0.82067800  0.56914600  0.18946100  1
  S  S13  1  0.43085400  0.17932200  0.81053900  1
  S  S14  1  0.32067800  0.06914600  0.31053900  1
  S  S15  1  0.93085400  0.67932200  0.68946100  1
  S  S16  1  0.13348900  0.86651100  0.50000000  1
  S  S17  1  0.63348900  0.36651100  0.00000000  1
  S  S18  1  0.12268700  0.49174000  0.49808400  1
  S  S19  1  0.50826000  0.87731300  0.50191600  1
  S  S20  1  0.62268700  0.99174000  0.00191600  1
  S  S21  1  0.00826000  0.37731300  0.99808400  1
  S  S22  1  0.81502800  0.68070600  0.43146500  1
  S  S23  1  0.31929400  0.18497200  0.56853500  1
  S  S24  1  0.31502800  0.18070600  0.06853500  1
  S  S25  1  0.81929400  0.68497200  0.93146500  1
  S  S26  1  0.00312900  0.88118700  0.25054800  1
  S  S27  1  0.11881300  0.99687100  0.74945200  1
  S  S28  1  0.50312900  0.38118700  0.24945200  1
  S  S29  1  0.61881300  0.49687100  0.75054800  1
  S  S30  1  0.49924700  0.50075300  0.50000000  1
  S  S31  1  0.99924700  0.00075300  0.00000000  1
  S  S32  1  0.14105500  0.38956100  0.24832800  1
  S  S33  1  0.61043900  0.85894500  0.75167200  1
  S  S34  1  0.64105500  0.88956100  0.25167200  1
  S  S35  1  0.11043900  0.35894500  0.74832800  1
loop_
_geom_bond_atom_site_label_1
_geom_bond_atom_site_label_2
_geom_bond_distance
_geom_bond_site_symmetry_2
Pr0 S26 2.810276 1_545
Pr0 S24 2.863733 1_555
Pr0 S32 2.865789 1_555
Pr0 S8 2.929349 1_455
Pr0 S14 3.001369 1_555
Pr0 S31 3.024581 1_455
Pr0 S0 3.121436 1_555
Pr1 S27 2.810276 1_655
Pr1 S25 2.863733 1_555
Pr1 S33 2.865789 1_555
Pr1 S9 2.929349 1_565
Pr1 S15 3.001369 1_555
Pr1 S31 3.024581 1_566
Pr1 S1 3.121436 1_555
Pr2 S28 2.810276 1_555
Pr2 S22 2.863733 1_555
Pr2 S34 2.865789 1_555
Pr2 S10 2.929349 1_555
Pr2 S12 3.001369 1_555
Pr2 S30 3.024581 1_555
Pr2 S2 3.121436 1_555
Pr3 S29 2.810276 1_555
Pr3 S23 2.863733 1_555
Pr3 S35 2.865789 1_555
Pr3 S11 2.929349 1_555
Pr3 S13 3.001369 1_555
Pr3 S30 3.024581 1_555
Pr3 S3 3.121436 1_555
Pr4 S23 2.808195 1_555
Pr4 S28 2.820714 1_555
Pr4 S30 2.845032 1_555
Pr4 S32 2.864315 1_555
Pr4 S18 2.964708 1_555
Pr4 S14 2.970158 1_555
Pr4 S0 3.599961 1_555
Pr5 S22 2.808195 1_555
Pr5 S29 2.820714 1_555
Pr5 S30 2.845032 1_555
Pr5 S33 2.864315 1_555
Pr5 S19 2.964708 1_555
Pr5 S15 2.970158 1_555
Pr5 S1 3.599961 1_555
Pr6 S25 2.808195 1_554
Pr6 S26 2.820714 1_655
Pr6 S31 2.845032 1_565
Pr6 S34 2.864315 1_555
Pr6 S20 2.964708 1_555
Pr6 S12 2.970158 1_555
Pr6 S2 3.599961 1_555
Pr7 S24 2.808195 1_556
Pr7 S27 2.820714 1_545
Pr7 S31 2.845032 1_456
Pr7 S35 2.864315 1_555
Pr7 S21 2.964708 1_555
Pr7 S13 2.970158 1_555
Pr7 S3 3.599961 1_555
Pr8 S32 2.802302 1_555
Pr8 S26 2.833384 1_555
Pr8 S22 2.863179 1_455
Pr8 S10 2.936089 1_555
Pr8 S18 2.939486 1_555
Pr8 S12 2.969637 1_455
Pr9 S33 2.802302 1_555
Pr9 S27 2.833384 1_555
Pr9 S23 2.863179 1_565
Pr9 S11 2.936089 1_555
Pr9 S19 2.939486 1_555
Pr9 S13 2.969637 1_565
Pr10 S34 2.802302 1_545
Pr10 S28 2.833384 1_555
Pr10 S24 2.863179 1_555
Pr10 S8 2.936089 1_555
Pr10 S20 2.939486 1_545
Pr10 S14 2.969637 1_555
Pr11 S35 2.802302 1_655
Pr11 S29 2.833384 1_555
Pr11 S25 2.863179 1_555
Pr11 S9 2.936089 1_555
Pr11 S21 2.939486 1_655
Pr11 S15 2.969637 1_555
Pr12 S32 2.806009 1_555
Pr12 S24 2.809902 1_555
Pr12 S28 2.833989 1_555
Pr12 S3 2.876562 1_554
Pr12 S2 2.902410 1_555
Pr12 S4 2.908077 1_555
Pr13 S33 2.806009 1_555
Pr13 S25 2.809902 1_555
Pr13 S29 2.833989 1_555
Pr13 S2 2.876562 1_556
Pr13 S3 2.902410 1_555
Pr13 S5 2.908077 1_555
Pr14 S34 2.806009 1_555
Pr14 S22 2.809902 1_555
Pr14 S26 2.833989 1_655
Pr14 S1 2.876562 1_555
Pr14 S0 2.902410 1_665
Pr14 S6 2.908077 1_565
Pr15 S35 2.806009 1_555
Pr15 S23 2.809902 1_555
Pr15 S27 2.833989 1_545
Pr15 S0 2.876562 1_555
Pr15 S1 2.902410 1_445
Pr15 S7 2.908077 1_455
Ga0 S21 2.303035 1_654
Ga0 S12 2.324904 1_555
Ga0 S8 2.329769 1_555
Ga0 S17 2.348571 1_555
Ga1 S20 2.303035 1_546
Ga1 S13 2.324904 1_555
Ga1 S9 2.329769 1_555
Ga1 S17 2.348571 1_556
Ga2 S19 2.303035 1_555
Ga2 S14 2.324904 1_565
Ga2 S10 2.329769 1_555
Ga2 S16 2.348571 1_555
Ga3 S18 2.303035 1_555
Ga3 S15 2.324904 1_455
Ga3 S11 2.329769 1_555
Ga3 S16 2.348571 1_555
S0 Sb0 2.482884 1_455
S1 Sb1 2.482884 1_565
S2 Sb2 2.482884 1_555
S3 Sb3 2.482884 1_555
S4 Sb2 2.484805 1_555
S4 Sb3 2.702930 1_554
S5 Sb3 2.484805 1_555
S5 Sb2 2.702930 1_556
S6 Sb0 2.484805 1_555
S6 Sb1 2.702930 1_555
S7 Sb1 2.484805 1_555
S7 Sb0 2.702930 1_555
S8 Sb0 2.836686 1_555
S9 Sb1 2.836686 1_555
S10 Sb2 2.836686 1_555
S11 Sb3 2.836686 1_555
