# generated using pymatgen
data_MgGa2
_symmetry_space_group_name_H-M   'P 1'
_cell_length_a   7.46434567
_cell_length_b   7.46434567
_cell_length_c   4.89321800
_cell_angle_alpha   90.00000000
_cell_angle_beta   90.00000000
_cell_angle_gamma   155.02704710
_symmetry_Int_Tables_number   1
_chemical_formula_structural   MgGa2
_chemical_formula_sum   'Mg2 Ga4'
_cell_volume   115.10293211
_cell_formula_units_Z   2
loop_
 _symmetry_equiv_pos_site_id
 _symmetry_equiv_pos_as_xyz
  1  'x, y, z'
loop_
 _atom_site_type_symbol
 _atom_site_label
 _atom_site_symmetry_multiplicity
 _atom_site_fract_x
 _atom_site_fract_y
 _atom_site_fract_z
 _atom_site_occupancy
  Mg  Mg0  1  0.10928900  0.89071100  0.25000000  1
  Mg  Mg1  1  0.89071100  0.10928900  0.75000000  1
  Ga  Ga0  1  0.44225700  0.55774300  0.25000000  1
  Ga  Ga1  1  0.77789800  0.22210200  0.25000000  1
  Ga  Ga2  1  0.22210200  0.77789800  0.75000000  1
  Ga  Ga3  1  0.55774300  0.44225700  0.75000000  1
loop_
_geom_bond_atom_site_label_1
_geom_bond_atom_site_label_2
_geom_bond_distance
_geom_bond_site_symmetry_2
Ga0 Ga1 2.888526 1_565
Ga0 Ga1 2.888526 1_455
Ga0 Mg0 2.920919 1_545
Ga0 Mg0 2.920919 1_655
Ga0 Ga3 2.969733 1_555
Ga0 Ga3 2.969733 1_554
Ga0 Mg1 3.025708 1_455
Ga0 Mg1 3.025708 1_454
Ga0 Mg1 3.025708 1_564
Ga0 Mg1 3.025708 1_565
Ga1 Mg0 2.940105 1_655
Ga1 Mg0 2.940105 1_545
Ga1 Mg1 2.947824 1_555
Ga1 Mg1 2.947824 1_554
Ga2 Ga3 2.888526 1_455
Ga2 Ga3 2.888526 1_565
Ga2 Mg1 2.940105 1_455
Ga2 Mg1 2.940105 1_565
Ga2 Mg0 2.947824 1_555
Ga2 Mg0 2.947824 1_556
Ga3 Mg1 2.920919 1_455
Ga3 Mg1 2.920919 1_565
Ga3 Mg0 3.025708 1_656
Ga3 Mg0 3.025708 1_655
Ga3 Mg0 3.025708 1_546
Ga3 Mg0 3.025708 1_545
