# generated using pymatgen
data_ErZnPd
_symmetry_space_group_name_H-M   'P 1'
_cell_length_a   7.17909115
_cell_length_b   7.17909115
_cell_length_c   3.82608700
_cell_angle_alpha   90.00000000
_cell_angle_beta   90.00000000
_cell_angle_gamma   120.00001078
_symmetry_Int_Tables_number   1
_chemical_formula_structural   ErZnPd
_chemical_formula_sum   'Er3 Zn3 Pd3'
_cell_volume   170.77502613
_cell_formula_units_Z   3
loop_
 _symmetry_equiv_pos_site_id
 _symmetry_equiv_pos_as_xyz
  1  'x, y, z'
loop_
 _atom_site_type_symbol
 _atom_site_label
 _atom_site_symmetry_multiplicity
 _atom_site_fract_x
 _atom_site_fract_y
 _atom_site_fract_z
 _atom_site_occupancy
  Er  Er0  1  0.59643551  0.00000000  -0.00000000  1
  Er  Er1  1  0.00000000  0.59643551  -0.00000000  1
  Er  Er2  1  0.40356449  0.40356449  0.00000000  1
  Zn  Zn0  1  0.25157180  0.00000000  0.50000000  1
  Zn  Zn1  1  0.00000000  0.25157180  0.50000000  1
  Zn  Zn2  1  0.74842820  0.74842820  0.50000000  1
  Pd  Pd0  1  0.00000000  0.00000000  -0.00000000  1
  Pd  Pd1  1  0.33333300  0.66666700  0.50000000  1
  Pd  Pd2  1  0.66666700  0.33333300  0.50000000  1
loop_
_geom_bond_atom_site_label_1
_geom_bond_atom_site_label_2
_geom_bond_distance
_geom_bond_site_symmetry_2
Er0 Pd0 2.897226 1_655
Er0 Pd2 2.904130 1_555
Er0 Pd2 2.904130 1_554
Er0 Pd1 2.904132 1_544
Er0 Pd1 2.904132 1_545
Er0 Zn0 3.128795 1_555
Er0 Zn0 3.128795 1_554
Er0 Zn1 3.175365 1_654
Er0 Zn1 3.175365 1_655
Er0 Zn2 3.175365 1_544
Er0 Zn2 3.175365 1_545
Er1 Pd0 2.897226 1_565
Er1 Pd1 2.904130 1_554
Er1 Pd1 2.904130 1_555
Er1 Pd2 2.904132 1_454
Er1 Pd2 2.904132 1_455
Er1 Zn1 3.128795 1_555
Er1 Zn1 3.128795 1_554
Er1 Zn0 3.175365 1_564
Er1 Zn0 3.175365 1_565
Er1 Zn2 3.175365 1_454
Er1 Zn2 3.175365 1_455
Er2 Pd0 2.897226 1_555
Er2 Pd1 2.904136 1_554
Er2 Pd2 2.904136 1_554
Er2 Pd1 2.904136 1_555
Er2 Pd2 2.904136 1_555
Er2 Zn2 3.128795 1_554
Er2 Zn2 3.128795 1_555
Er2 Zn0 3.175365 1_555
Er2 Zn1 3.175365 1_555
Er2 Zn0 3.175365 1_554
Er2 Zn1 3.175365 1_554
Pd0 Zn2 2.630889 1_445
Pd0 Zn2 2.630889 1_444
Pd0 Zn0 2.630889 1_555
Pd0 Zn1 2.630889 1_555
Pd0 Zn0 2.630889 1_554
Pd0 Zn1 2.630889 1_554
Pd1 Zn0 2.734183 1_565
Pd1 Zn1 2.734187 1_555
Pd1 Zn2 2.734190 1_555
Pd2 Zn1 2.734183 1_655
Pd2 Zn0 2.734187 1_555
Pd2 Zn2 2.734190 1_555
