# generated using pymatgen
data_Mn4FeC2
_symmetry_space_group_name_H-M   'P 1'
_cell_length_a   4.48907000
_cell_length_b   5.00345238
_cell_length_c   6.21442024
_cell_angle_alpha   96.86863492
_cell_angle_beta   68.82721268
_cell_angle_gamma   90.00000000
_symmetry_Int_Tables_number   1
_chemical_formula_structural   Mn4FeC2
_chemical_formula_sum   'Mn8 Fe2 C4'
_cell_volume   129.08390284
_cell_formula_units_Z   2
loop_
 _symmetry_equiv_pos_site_id
 _symmetry_equiv_pos_as_xyz
  1  'x, y, z'
loop_
 _atom_site_type_symbol
 _atom_site_label
 _atom_site_symmetry_multiplicity
 _atom_site_fract_x
 _atom_site_fract_y
 _atom_site_fract_z
 _atom_site_occupancy
  Mn  Mn0  1  0.80507900  0.18944200  0.56433900  1
  Mn  Mn1  1  0.36941800  0.31055800  0.43566100  1
  Mn  Mn2  1  0.42555800  0.75000000  0.00000000  1
  Mn  Mn3  1  0.57182200  0.25000000  0.00000000  1
  Mn  Mn4  1  0.81020000  0.92021800  0.19775000  1
  Mn  Mn5  1  0.00795000  0.57978200  0.80225000  1
  Mn  Mn6  1  0.18239500  0.08501600  0.80555200  1
  Mn  Mn7  1  0.98794700  0.41498400  0.19444800  1
  Fe  Fe0  1  0.20352000  0.81139400  0.43362900  1
  Fe  Fe1  1  0.63714900  0.68860600  0.56637100  1
  C  C0  1  0.57052400  0.58030200  0.22663600  1
  C  C1  1  0.79716000  0.91969800  0.77336400  1
  C  C2  1  0.43016000  0.42158700  0.77096100  1
  C  C3  1  0.20112000  0.07841300  0.22903900  1
loop_
_geom_bond_atom_site_label_1
_geom_bond_atom_site_label_2
_geom_bond_distance
_geom_bond_site_symmetry_2
C0 Fe0 1.954292 1_555
C0 Mn1 1.973859 1_555
C0 Mn7 1.981200 1_555
C0 Mn4 2.003972 1_555
C0 Mn2 2.018948 1_555
C0 Mn3 2.037706 1_555
C0 Fe1 2.241202 1_555
C1 Fe1 1.954292 1_555
C1 Mn0 1.973859 1_565
C1 Mn6 1.981200 1_665
C1 Mn5 2.003972 1_655
C1 Mn2 2.018948 1_556
C1 Mn3 2.037706 1_566
C1 Fe0 2.241202 1_655
C2 Fe1 1.953897 1_555
C2 Mn0 1.978052 1_555
C2 Mn5 1.988357 1_555
C2 Mn6 2.008249 1_555
C2 Mn3 2.028180 1_556
C2 Mn2 2.036119 1_556
C2 Mn1 2.204156 1_555
C3 Fe0 1.953898 1_545
C3 Mn1 1.978055 1_555
C3 Mn4 1.988353 1_445
C3 Mn7 2.008247 1_455
C3 Mn3 2.028183 1_555
C3 Mn2 2.036120 1_545
C3 Mn0 2.204154 1_455
