# generated using pymatgen
data_CrPt4
_symmetry_space_group_name_H-M   'P 1'
_cell_length_a   22.81150804
_cell_length_b   22.81150804
_cell_length_c   22.81150911
_cell_angle_alpha   13.96188200
_cell_angle_beta   13.96188200
_cell_angle_gamma   13.96188280
_symmetry_Int_Tables_number   1
_chemical_formula_structural   CrPt4
_chemical_formula_sum   'Cr8 Pt32'
_cell_volume   601.40310413
_cell_formula_units_Z   8
loop_
 _symmetry_equiv_pos_site_id
 _symmetry_equiv_pos_as_xyz
  1  'x, y, z'
loop_
 _atom_site_type_symbol
 _atom_site_label
 _atom_site_symmetry_multiplicity
 _atom_site_fract_x
 _atom_site_fract_y
 _atom_site_fract_z
 _atom_site_occupancy
  Cr  Cr0_0  1  0.00000000  0.00000000  0.00000000  1
  Cr  Cr0_1  1  0.00000000  0.00000000  0.50000000  1
  Cr  Cr0_2  1  0.00000000  0.50000000  0.00000000  1
  Cr  Cr0_3  1  0.00000000  0.50000000  0.50000000  1
  Cr  Cr0_4  1  0.50000000  0.00000000  0.00000000  1
  Cr  Cr0_5  1  0.50000000  0.00000000  0.50000000  1
  Cr  Cr0_6  1  0.50000000  0.50000000  0.00000000  1
  Cr  Cr0_7  1  0.50000000  0.50000000  0.50000000  1
  Pt  Pt0_0  1  0.30288900  0.30288900  0.30288900  1
  Pt  Pt0_1  1  0.30288900  0.30288900  0.80288900  1
  Pt  Pt0_2  1  0.30288900  0.80288900  0.30288900  1
  Pt  Pt0_3  1  0.30288900  0.80288900  0.80288900  1
  Pt  Pt0_4  1  0.80288900  0.30288900  0.30288900  1
  Pt  Pt0_5  1  0.80288900  0.30288900  0.80288900  1
  Pt  Pt0_6  1  0.80288900  0.80288900  0.30288900  1
  Pt  Pt0_7  1  0.80288900  0.80288900  0.80288900  1
  Pt  Pt1_0  1  0.10081250  0.10081250  0.10081250  1
  Pt  Pt1_1  1  0.10081250  0.10081250  0.60081250  1
  Pt  Pt1_2  1  0.10081250  0.60081250  0.10081250  1
  Pt  Pt1_3  1  0.10081250  0.60081250  0.60081250  1
  Pt  Pt1_4  1  0.60081250  0.10081250  0.10081250  1
  Pt  Pt1_5  1  0.60081250  0.10081250  0.60081250  1
  Pt  Pt1_6  1  0.60081250  0.60081250  0.10081250  1
  Pt  Pt1_7  1  0.60081250  0.60081250  0.60081250  1
  Pt  Pt2_0  1  0.39918750  0.39918750  0.39918750  1
  Pt  Pt2_1  1  0.39918750  0.39918750  0.89918750  1
  Pt  Pt2_2  1  0.39918750  0.89918750  0.39918750  1
  Pt  Pt2_3  1  0.39918750  0.89918750  0.89918750  1
  Pt  Pt2_4  1  0.89918750  0.39918750  0.39918750  1
  Pt  Pt2_5  1  0.89918750  0.39918750  0.89918750  1
  Pt  Pt2_6  1  0.89918750  0.89918750  0.39918750  1
  Pt  Pt2_7  1  0.89918750  0.89918750  0.89918750  1
  Pt  Pt3_0  1  0.19711100  0.19711100  0.19711100  1
  Pt  Pt3_1  1  0.19711100  0.19711100  0.69711100  1
  Pt  Pt3_2  1  0.19711100  0.69711100  0.19711100  1
  Pt  Pt3_3  1  0.19711100  0.69711100  0.69711100  1
  Pt  Pt3_4  1  0.69711100  0.19711100  0.19711100  1
  Pt  Pt3_5  1  0.69711100  0.19711100  0.69711100  1
  Pt  Pt3_6  1  0.69711100  0.69711100  0.19711100  1
  Pt  Pt3_7  1  0.69711100  0.69711100  0.69711100  1
loop_
_geom_bond_atom_site_label_1
_geom_bond_atom_site_label_2
_geom_bond_distance
_geom_bond_site_symmetry_2
Cr0_0 Pt3_1 2.611030 1_554
Cr0_0 Pt0_6 2.611030 1_445
Cr0_0 Pt3_4 2.611031 1_455
Cr0_0 Pt3_2 2.611031 1_545
Cr0_0 Pt0_5 2.611031 1_454
Cr0_0 Pt0_3 2.611031 1_544
Cr0_0 Cr0_5 2.772492 1_554
Cr0_0 Cr0_3 2.772492 1_554
Cr0_0 Cr0_5 2.772492 1_455
Cr0_0 Cr0_3 2.772492 1_545
Cr0_0 Cr0_6 2.772492 1_455
Cr0_0 Cr0_6 2.772492 1_545
Cr0_1 Pt3_0 2.611030 1_555
Cr0_1 Pt0_7 2.611030 1_445
Cr0_1 Pt3_3 2.611031 1_545
Cr0_1 Pt3_5 2.611031 1_455
Cr0_1 Pt0_4 2.611031 1_455
Cr0_1 Pt0_2 2.611031 1_545
Cr0_1 Cr0_4 2.772492 1_555
Cr0_1 Cr0_2 2.772492 1_555
Cr0_1 Cr0_2 2.772492 1_546
Cr0_1 Cr0_4 2.772492 1_456
Cr0_1 Cr0_7 2.772492 1_545
Cr0_1 Cr0_7 2.772492 1_455
Cr0_2 Pt3_3 2.611030 1_554
Cr0_2 Pt0_4 2.611030 1_455
Cr0_2 Pt3_6 2.611031 1_455
Cr0_2 Pt3_0 2.611031 1_555
Cr0_2 Pt0_1 2.611031 1_554
Cr0_2 Pt0_7 2.611031 1_454
Cr0_2 Cr0_7 2.772492 1_455
Cr0_2 Cr0_7 2.772492 1_554
Cr0_2 Cr0_4 2.772492 1_465
Cr0_2 Cr0_4 2.772492 1_555
Cr0_3 Pt3_2 2.611030 1_555
Cr0_3 Pt0_5 2.611030 1_455
Cr0_3 Pt3_1 2.611031 1_555
Cr0_3 Pt3_7 2.611031 1_455
Cr0_3 Pt0_6 2.611031 1_455
Cr0_3 Pt0_0 2.611031 1_555
Cr0_3 Cr0_6 2.772492 1_555
Cr0_3 Cr0_6 2.772492 1_456
Cr0_3 Cr0_5 2.772492 1_555
Cr0_3 Cr0_5 2.772492 1_465
Cr0_4 Pt3_5 2.611030 1_554
Cr0_4 Pt0_2 2.611030 1_545
Cr0_4 Pt3_6 2.611031 1_545
Cr0_4 Pt3_0 2.611031 1_555
Cr0_4 Pt0_1 2.611031 1_554
Cr0_4 Pt0_7 2.611031 1_544
Cr0_4 Cr0_7 2.772492 1_554
Cr0_4 Cr0_7 2.772492 1_545
Cr0_5 Pt3_4 2.611030 1_555
Cr0_5 Pt0_3 2.611030 1_545
Cr0_5 Pt3_1 2.611031 1_555
Cr0_5 Pt3_7 2.611031 1_545
Cr0_5 Pt0_6 2.611031 1_545
Cr0_5 Pt0_0 2.611031 1_555
Cr0_5 Cr0_6 2.772492 1_555
Cr0_5 Cr0_6 2.772492 1_546
Cr0_6 Pt3_7 2.611030 1_554
Cr0_6 Pt0_0 2.611030 1_555
Cr0_6 Pt3_2 2.611031 1_555
Cr0_6 Pt3_4 2.611031 1_555
Cr0_6 Pt0_3 2.611031 1_554
Cr0_6 Pt0_5 2.611031 1_554
Cr0_7 Pt3_6 2.611030 1_555
Cr0_7 Pt0_1 2.611030 1_555
Cr0_7 Pt3_3 2.611031 1_555
Cr0_7 Pt3_5 2.611031 1_555
Cr0_7 Pt0_4 2.611031 1_555
Cr0_7 Pt0_2 2.611031 1_555
Pt0_0 Pt0_5 2.772492 1_455
Pt0_0 Pt0_3 2.772492 1_545
Pt0_0 Pt0_3 2.772492 1_554
Pt0_0 Pt0_5 2.772492 1_554
Pt0_0 Pt0_6 2.772492 1_455
Pt0_0 Pt0_6 2.772492 1_545
Pt0_0 Pt1_1 2.884223 1_555
Pt0_0 Pt1_4 2.884224 1_555
Pt0_0 Pt1_2 2.884224 1_555
Pt0_1 Pt0_4 2.772492 1_555
Pt0_1 Pt0_2 2.772492 1_555
Pt0_1 Pt0_4 2.772492 1_456
Pt0_1 Pt0_2 2.772492 1_546
Pt0_1 Pt0_7 2.772492 1_545
Pt0_1 Pt0_7 2.772492 1_455
Pt0_1 Pt1_0 2.884223 1_556
Pt0_1 Pt1_3 2.884224 1_555
Pt0_1 Pt1_5 2.884224 1_555
Pt0_2 Pt0_7 2.772492 1_554
Pt0_2 Pt0_7 2.772492 1_455
Pt0_2 Pt0_4 2.772492 1_555
Pt0_2 Pt0_4 2.772492 1_465
Pt0_2 Pt1_3 2.884223 1_555
Pt0_2 Pt1_6 2.884224 1_555
Pt0_2 Pt1_0 2.884224 1_565
Pt0_3 Pt0_6 2.772492 1_555
Pt0_3 Pt0_6 2.772492 1_456
Pt0_3 Pt0_5 2.772492 1_555
Pt0_3 Pt0_5 2.772492 1_465
Pt0_3 Pt1_2 2.884223 1_556
Pt0_3 Pt1_1 2.884224 1_565
Pt0_3 Pt1_7 2.884224 1_555
Pt0_4 Pt0_7 2.772492 1_554
Pt0_4 Pt0_7 2.772492 1_545
Pt0_4 Pt1_5 2.884223 1_555
Pt0_4 Pt1_6 2.884224 1_555
Pt0_4 Pt1_0 2.884224 1_655
Pt0_5 Pt0_6 2.772492 1_555
Pt0_5 Pt0_6 2.772492 1_546
Pt0_5 Pt1_4 2.884223 1_556
Pt0_5 Pt1_7 2.884224 1_555
Pt0_5 Pt1_1 2.884224 1_655
Pt0_6 Pt1_7 2.884223 1_555
Pt0_6 Pt1_4 2.884224 1_565
Pt0_6 Pt1_2 2.884224 1_655
Pt0_7 Pt1_6 2.884223 1_556
Pt0_7 Pt1_5 2.884224 1_565
Pt0_7 Pt1_3 2.884224 1_655
Pt1_0 Pt1_5 2.772492 1_554
Pt1_0 Pt1_3 2.772492 1_554
Pt1_0 Pt1_5 2.772492 1_455
Pt1_0 Pt1_3 2.772492 1_545
Pt1_0 Pt1_6 2.772492 1_545
Pt1_0 Pt1_6 2.772492 1_455
Pt1_0 Pt2_6 2.858825 1_445
Pt1_0 Pt2_5 2.858826 1_454
Pt1_0 Pt2_3 2.858826 1_544
Pt1_1 Pt1_2 2.772492 1_546
Pt1_1 Pt1_4 2.772492 1_456
Pt1_1 Pt1_2 2.772492 1_555
Pt1_1 Pt1_4 2.772492 1_555
Pt1_1 Pt1_7 2.772492 1_455
Pt1_1 Pt1_7 2.772492 1_545
Pt1_1 Pt2_7 2.858825 1_445
Pt1_1 Pt2_2 2.858826 1_545
Pt1_1 Pt2_4 2.858826 1_455
Pt1_2 Pt1_7 2.772492 1_554
Pt1_2 Pt1_7 2.772492 1_455
Pt1_2 Pt1_4 2.772492 1_465
Pt1_2 Pt1_4 2.772492 1_555
Pt1_2 Pt2_4 2.858825 1_455
Pt1_2 Pt2_7 2.858826 1_454
Pt1_2 Pt2_1 2.858826 1_554
Pt1_3 Pt1_6 2.772492 1_456
Pt1_3 Pt1_6 2.772492 1_555
Pt1_3 Pt1_5 2.772492 1_465
Pt1_3 Pt1_5 2.772492 1_555
Pt1_3 Pt2_5 2.858825 1_455
Pt1_3 Pt2_6 2.858826 1_455
Pt1_3 Pt2_0 2.858826 1_555
Pt1_4 Pt1_7 2.772492 1_554
Pt1_4 Pt1_7 2.772492 1_545
Pt1_4 Pt2_2 2.858825 1_545
Pt1_4 Pt2_7 2.858826 1_544
Pt1_4 Pt2_1 2.858826 1_554
Pt1_5 Pt1_6 2.772492 1_546
Pt1_5 Pt1_6 2.772492 1_555
Pt1_5 Pt2_3 2.858825 1_545
Pt1_5 Pt2_6 2.858826 1_545
Pt1_5 Pt2_0 2.858826 1_555
Pt1_6 Pt2_0 2.858825 1_555
Pt1_6 Pt2_3 2.858826 1_554
Pt1_6 Pt2_5 2.858826 1_554
Pt1_7 Pt2_1 2.858825 1_555
Pt1_7 Pt2_2 2.858826 1_555
Pt1_7 Pt2_4 2.858826 1_555
Pt2_0 Pt2_5 2.772492 1_455
Pt2_0 Pt2_3 2.772492 1_545
Pt2_0 Pt2_3 2.772492 1_554
Pt2_0 Pt2_5 2.772492 1_554
Pt2_0 Pt2_6 2.772492 1_545
Pt2_0 Pt2_6 2.772492 1_455
Pt2_0 Pt3_1 2.884223 1_555
Pt2_0 Pt3_2 2.884224 1_555
Pt2_0 Pt3_4 2.884224 1_555
Pt2_1 Pt2_4 2.772492 1_555
Pt2_1 Pt2_2 2.772492 1_555
Pt2_1 Pt2_2 2.772492 1_546
Pt2_1 Pt2_4 2.772492 1_456
Pt2_1 Pt2_7 2.772492 1_545
Pt2_1 Pt2_7 2.772492 1_455
Pt2_1 Pt3_0 2.884223 1_556
Pt2_1 Pt3_5 2.884224 1_555
Pt2_1 Pt3_3 2.884224 1_555
Pt2_2 Pt2_7 2.772492 1_455
Pt2_2 Pt2_7 2.772492 1_554
Pt2_2 Pt2_4 2.772492 1_465
Pt2_2 Pt2_4 2.772492 1_555
Pt2_2 Pt3_3 2.884223 1_555
Pt2_2 Pt3_0 2.884224 1_565
Pt2_2 Pt3_6 2.884224 1_555
Pt2_3 Pt2_6 2.772492 1_555
Pt2_3 Pt2_6 2.772492 1_456
Pt2_3 Pt2_5 2.772492 1_555
Pt2_3 Pt2_5 2.772492 1_465
Pt2_3 Pt3_2 2.884223 1_556
Pt2_3 Pt3_7 2.884224 1_555
Pt2_3 Pt3_1 2.884224 1_565
Pt2_4 Pt2_7 2.772492 1_545
Pt2_4 Pt2_7 2.772492 1_554
Pt2_4 Pt3_5 2.884223 1_555
Pt2_4 Pt3_0 2.884224 1_655
Pt2_4 Pt3_6 2.884224 1_555
Pt2_5 Pt2_6 2.772492 1_555
Pt2_5 Pt2_6 2.772492 1_546
Pt2_5 Pt3_4 2.884223 1_556
Pt2_5 Pt3_7 2.884224 1_555
Pt2_5 Pt3_1 2.884224 1_655
Pt2_6 Pt3_7 2.884223 1_555
Pt2_6 Pt3_2 2.884224 1_655
Pt2_6 Pt3_4 2.884224 1_565
Pt2_7 Pt3_6 2.884223 1_556
Pt2_7 Pt3_5 2.884224 1_565
Pt2_7 Pt3_3 2.884224 1_655
Pt3_0 Pt3_3 2.772492 1_554
Pt3_0 Pt3_5 2.772492 1_554
Pt3_0 Pt3_5 2.772492 1_455
Pt3_0 Pt3_3 2.772492 1_545
Pt3_0 Pt3_6 2.772492 1_455
Pt3_0 Pt3_6 2.772492 1_545
Pt3_1 Pt3_4 2.772492 1_456
Pt3_1 Pt3_2 2.772492 1_546
Pt3_1 Pt3_4 2.772492 1_555
Pt3_1 Pt3_2 2.772492 1_555
Pt3_1 Pt3_7 2.772492 1_545
Pt3_1 Pt3_7 2.772492 1_455
Pt3_2 Pt3_7 2.772492 1_455
Pt3_2 Pt3_7 2.772492 1_554
Pt3_2 Pt3_4 2.772492 1_555
Pt3_2 Pt3_4 2.772492 1_465
Pt3_3 Pt3_6 2.772492 1_456
Pt3_3 Pt3_6 2.772492 1_555
Pt3_3 Pt3_5 2.772492 1_465
Pt3_3 Pt3_5 2.772492 1_555
Pt3_4 Pt3_7 2.772492 1_554
Pt3_4 Pt3_7 2.772492 1_545
Pt3_5 Pt3_6 2.772492 1_546
Pt3_5 Pt3_6 2.772492 1_555
