# generated using pymatgen
data_K2LiLa4O7
_symmetry_space_group_name_H-M   'P 1'
_cell_length_a   6.19314600
_cell_length_b   6.19299725
_cell_length_c   8.89050401
_cell_angle_alpha   89.99408804
_cell_angle_beta   90.00003758
_cell_angle_gamma   119.99873137
_symmetry_Int_Tables_number   1
_chemical_formula_structural   K2LiLa4O7
_chemical_formula_sum   'K2 Li1 La4 O7'
_cell_volume   295.30769827
_cell_formula_units_Z   1
loop_
 _symmetry_equiv_pos_site_id
 _symmetry_equiv_pos_as_xyz
  1  'x, y, z'
loop_
 _atom_site_type_symbol
 _atom_site_label
 _atom_site_symmetry_multiplicity
 _atom_site_fract_x
 _atom_site_fract_y
 _atom_site_fract_z
 _atom_site_occupancy
  K  K0  1  0.33315100  0.66641700  0.99719100  1
  K  K1  1  0.66649000  0.33298500  0.89553300  1
  Li  Li0  1  0.66669500  0.33338700  0.24431900  1
  La  La0  1  0.00002300  0.00003400  0.25762400  1
  La  La1  1  0.99997300  0.99994200  0.74755400  1
  La  La2  1  0.33335700  0.66666100  0.49536200  1
  La  La3  1  0.66669900  0.33335300  0.53500500  1
  O  O0  1  0.97417300  0.62922000  0.35062500  1
  O  O1  1  0.00914900  0.36148700  0.66905900  1
  O  O2  1  0.00024700  0.00038300  0.00170000  1
  O  O3  1  0.37082000  0.34496900  0.35061000  1
  O  O4  1  0.63846400  0.64760300  0.66907600  1
  O  O5  1  0.35234900  0.99080900  0.66905700  1
  O  O6  1  0.65508100  0.02588200  0.35061800  1
loop_
_geom_bond_atom_site_label_1
_geom_bond_atom_site_label_2
_geom_bond_distance
_geom_bond_site_symmetry_2
K1 O5 2.864966 1_545
K1 O1 2.866014 1_655
K1 O4 2.866585 1_555
Li0 O3 2.094578 1_555
Li0 O6 2.094662 1_555
Li0 O0 2.094686 1_555
La0 O2 2.275294 1_555
La0 O6 2.369562 1_455
La0 O0 2.369585 1_445
La0 O3 2.369634 1_555
La1 O2 2.259488 1_666
La1 O4 2.318585 1_555
La1 O1 2.318623 1_665
La1 O5 2.318658 1_655
La2 O3 2.478253 1_555
La2 O6 2.478316 1_565
La2 O0 2.478340 1_455
La2 O4 2.488487 1_555
La2 O5 2.488549 1_555
La2 O1 2.488559 1_555
La3 O1 2.362048 1_655
La3 O4 2.362121 1_555
La3 O5 2.362286 1_545
La3 O0 2.486142 1_555
La3 O6 2.486353 1_555
La3 O3 2.486413 1_555
