# generated using pymatgen
data_Mg14GaW
_symmetry_space_group_name_H-M   'P 1'
_cell_length_a   6.23925880
_cell_length_b   6.23925831
_cell_length_c   9.92612628
_cell_angle_alpha   90.00000000
_cell_angle_beta   90.00000000
_cell_angle_gamma   120.00000258
_symmetry_Int_Tables_number   1
_chemical_formula_structural   Mg14GaW
_chemical_formula_sum   'Mg14 Ga1 W1'
_cell_volume   334.63886841
_cell_formula_units_Z   1
loop_
 _symmetry_equiv_pos_site_id
 _symmetry_equiv_pos_as_xyz
  1  'x, y, z'
loop_
 _atom_site_type_symbol
 _atom_site_label
 _atom_site_symmetry_multiplicity
 _atom_site_fract_x
 _atom_site_fract_y
 _atom_site_fract_z
 _atom_site_occupancy
  Mg  Mg0  1  0.16762065  0.83380982  0.12500000  1
  Mg  Mg1  1  0.16698749  0.83349324  0.62500000  1
  Mg  Mg2  1  0.66619018  0.33237935  0.12500000  1
  Mg  Mg3  1  0.66650676  0.33301251  0.62500000  1
  Mg  Mg4  1  0.66619018  0.83380982  0.12500000  1
  Mg  Mg5  1  0.66650676  0.83349324  0.62500000  1
  Mg  Mg6  1  0.32570885  0.17429115  0.37005488  1
  Mg  Mg7  1  0.32570885  0.17429115  0.87994512  1
  Mg  Mg8  1  0.32570885  0.65141870  0.37005488  1
  Mg  Mg9  1  0.32570885  0.65141870  0.87994512  1
  Mg  Mg10  1  0.84858130  0.17429115  0.37005488  1
  Mg  Mg11  1  0.84858130  0.17429115  0.87994512  1
  Mg  Mg12  1  0.83333300  0.66666700  0.37397295  1
  Mg  Mg13  1  0.83333300  0.66666700  0.87602705  1
  Ga  Ga0  1  0.16666700  0.33333300  0.62500000  1
  W  W0  1  0.16666700  0.33333300  0.12500000  1
loop_
_geom_bond_atom_site_label_1
_geom_bond_atom_site_label_2
_geom_bond_distance
_geom_bond_site_symmetry_2
Mg0 Mg13 3.061068 1_454
Mg0 Mg12 3.061068 1_455
Mg0 W0 3.119633 1_555
Mg0 W0 3.119633 1_565
Mg1 Mg13 3.075546 1_455
Mg1 Mg12 3.075546 1_455
Mg1 Mg3 3.116630 1_565
Mg1 Mg5 3.116630 1_555
Mg1 Mg3 3.122629 1_455
Mg1 Mg5 3.122629 1_455
Mg1 Mg8 3.130533 1_555
Mg1 Mg9 3.130533 1_555
Mg1 Mg6 3.130540 1_565
Mg1 Mg7 3.130540 1_565
Mg2 W0 3.119634 1_655
Mg2 W0 3.119634 1_555
Mg3 Mg5 3.116630 1_545
Mg3 Mg5 3.122629 1_555
Mg3 Mg6 3.130540 1_555
Mg3 Mg7 3.130540 1_555
Mg4 W0 3.119633 1_555
Mg4 W0 3.119633 1_665
Mg5 Mg8 3.130540 1_555
Mg5 Mg9 3.130540 1_555
Mg6 W0 2.978387 1_555
Mg7 W0 2.978387 1_556
Mg8 W0 2.978393 1_555
Mg9 W0 2.978393 1_556
Mg10 W0 2.978393 1_655
Mg10 Mg12 3.120959 1_545
Mg10 Mg12 3.120959 1_555
Mg10 Mg3 3.130533 1_555
Mg10 Mg5 3.130540 1_545
Mg11 W0 2.978393 1_656
Mg11 Mg13 3.120959 1_545
Mg11 Mg13 3.120959 1_555
Mg11 Mg3 3.130533 1_555
Mg11 Mg5 3.130540 1_545
Mg12 Mg4 3.061062 1_555
Mg12 Mg2 3.061068 1_555
Mg12 Mg5 3.075540 1_555
Mg12 Mg3 3.075546 1_555
Mg12 Mg6 3.120959 1_665
Mg12 Mg6 3.120959 1_555
Mg12 Mg8 3.120960 1_655
Mg12 Mg8 3.120960 1_555
Mg13 Mg4 3.061062 1_556
Mg13 Mg2 3.061068 1_556
Mg13 Mg5 3.075540 1_555
Mg13 Mg3 3.075546 1_555
Mg13 Mg7 3.120959 1_665
Mg13 Mg7 3.120959 1_555
Mg13 Mg9 3.120960 1_555
Mg13 Mg9 3.120960 1_655
Ga0 Mg6 3.059088 1_555
Ga0 Mg7 3.059088 1_555
Ga0 Mg8 3.059094 1_555
Ga0 Mg9 3.059094 1_555
Ga0 Mg10 3.059094 1_455
Ga0 Mg11 3.059094 1_455
Ga0 Mg1 3.119630 1_555
Ga0 Mg5 3.119630 1_555
Ga0 Mg5 3.119630 1_445
Ga0 Mg1 3.119630 1_545
Ga0 Mg3 3.119630 1_455
Ga0 Mg3 3.119630 1_555
