# generated using pymatgen
data_SrAl2
_symmetry_space_group_name_H-M   'P 1'
_cell_length_a   4.46548261
_cell_length_b   4.46548261
_cell_length_c   7.90132248
_cell_angle_alpha   90.00000000
_cell_angle_beta   90.00000000
_cell_angle_gamma   90.00000000
_symmetry_Int_Tables_number   1
_chemical_formula_structural   SrAl2
_chemical_formula_sum   'Sr2 Al4'
_cell_volume   157.55659699
_cell_formula_units_Z   2
loop_
 _symmetry_equiv_pos_site_id
 _symmetry_equiv_pos_as_xyz
  1  'x, y, z'
loop_
 _atom_site_type_symbol
 _atom_site_label
 _atom_site_symmetry_multiplicity
 _atom_site_fract_x
 _atom_site_fract_y
 _atom_site_fract_z
 _atom_site_occupancy
  Sr  Sr0  1  0.50000000  0.00000000  0.32551742  1
  Sr  Sr1  1  0.00000000  0.50000000  0.67448258  1
  Al  Al0  1  -0.00000000  -0.00000000  -0.00000000  1
  Al  Al1  1  0.50000000  0.50000000  -0.00000000  1
  Al  Al2  1  -0.00000000  0.50000000  0.20209307  1
  Al  Al3  1  0.50000000  0.00000000  0.79790693  1
loop_
_geom_bond_atom_site_label_1
_geom_bond_atom_site_label_2
_geom_bond_distance
_geom_bond_site_symmetry_2
Al0 Al3 2.744979 1_554
Al0 Al3 2.744979 1_454
Al0 Al2 2.744979 1_555
Al0 Al2 2.744979 1_545
Al0 Sr1 3.405938 1_554
Al0 Sr1 3.405938 1_544
Al0 Sr0 3.405938 1_555
Al0 Sr0 3.405938 1_455
Al1 Al3 2.744979 1_554
Al1 Al3 2.744979 1_564
Al1 Al2 2.744979 1_555
Al1 Al2 2.744979 1_655
Al1 Sr1 3.405938 1_554
Al1 Sr1 3.405938 1_654
Al1 Sr0 3.405938 1_555
Al1 Sr0 3.405938 1_565
Al2 Sr0 3.304741 1_565
Al2 Sr0 3.304741 1_555
Al2 Sr0 3.304741 1_455
Al2 Sr0 3.304741 1_465
Al2 Sr1 3.732502 1_555
Al3 Sr1 3.304741 1_655
Al3 Sr1 3.304741 1_555
Al3 Sr1 3.304741 1_545
Al3 Sr1 3.304741 1_645
Al3 Sr0 3.732502 1_555
