# generated using pymatgen
data_LiC6
_symmetry_space_group_name_H-M   'P 1'
_cell_length_a   3.64950390
_cell_length_b   4.30693209
_cell_length_c   4.30693209
_cell_angle_alpha   119.99999794
_cell_angle_beta   90.00000000
_cell_angle_gamma   90.00000000
_symmetry_Int_Tables_number   1
_chemical_formula_structural   LiC6
_chemical_formula_sum   'Li1 C6'
_cell_volume   58.62738454
_cell_formula_units_Z   1
loop_
 _symmetry_equiv_pos_site_id
 _symmetry_equiv_pos_as_xyz
  1  'x, y, z'
loop_
 _atom_site_type_symbol
 _atom_site_label
 _atom_site_symmetry_multiplicity
 _atom_site_fract_x
 _atom_site_fract_y
 _atom_site_fract_z
 _atom_site_occupancy
  Li  Li0  1  0.00000000  -0.00000000  -0.00000000  1
  C  C0  1  0.50000000  0.00000000  0.33361240  1
  C  C1  1  0.50000000  0.33361240  0.00000000  1
  C  C2  1  0.50000000  0.66638760  0.66638760  1
  C  C3  1  0.50000000  -0.00000000  0.66638760  1
  C  C4  1  0.50000000  0.66638760  -0.00000000  1
  C  C5  1  0.50000000  0.33361240  0.33361240  1
loop_
_geom_bond_atom_site_label_1
_geom_bond_atom_site_label_2
_geom_bond_distance
_geom_bond_site_symmetry_2
C0 C3 1.433240 1_555
C0 C5 1.436846 1_555
C0 C4 1.436846 1_545
C0 Li0 2.322552 1_555
C0 Li0 2.322552 1_655
C1 C4 1.433240 1_555
C1 C5 1.436846 1_555
C1 C3 1.436846 1_554
C1 Li0 2.322552 1_555
C1 Li0 2.322552 1_655
C2 C5 1.433240 1_555
C2 C4 1.436846 1_556
C2 C3 1.436846 1_565
C2 Li0 2.322552 1_566
C2 Li0 2.322552 1_666
C3 Li0 2.322552 1_556
C3 Li0 2.322552 1_656
C4 Li0 2.322552 1_565
C4 Li0 2.322552 1_665
C5 Li0 2.322552 1_555
C5 Li0 2.322552 1_655
