# generated using pymatgen
data_Y2BeIr
_symmetry_space_group_name_H-M   'P 1'
_cell_length_a   11.35068254
_cell_length_b   11.35068254
_cell_length_c   11.35068254
_cell_angle_alpha   126.61097609
_cell_angle_beta   117.92344863
_cell_angle_gamma   86.29208743
_symmetry_Int_Tables_number   1
_chemical_formula_structural   Y2BeIr
_chemical_formula_sum   'Y2 Be1 Ir1'
_cell_volume   988.58118594
_cell_formula_units_Z   1
loop_
 _symmetry_equiv_pos_site_id
 _symmetry_equiv_pos_as_xyz
  1  'x, y, z'
loop_
 _atom_site_type_symbol
 _atom_site_label
 _atom_site_symmetry_multiplicity
 _atom_site_fract_x
 _atom_site_fract_y
 _atom_site_fract_z
 _atom_site_occupancy
  Y  Y0  1  0.00000000  0.26052800  0.26052800  1
  Y  Y1  1  0.00000000  0.73947200  0.73947200  1
  Be  Be0  1  0.00000000  0.00000000  0.00000000  1
  Ir  Ir0  1  0.00000000  0.50000000  0.50000000  1
loop_
_geom_bond_atom_site_label_1
_geom_bond_atom_site_label_2
_geom_bond_distance
_geom_bond_site_symmetry_2
Be0 Y0 2.656920 1_555
Be0 Y1 2.656920 1_544
Ir0 Y0 2.442186 1_555
Ir0 Y1 2.442186 1_555
