# generated using pymatgen
data_RbYb(MoO4)2
_symmetry_space_group_name_H-M   'P 1'
_cell_length_a   7.59616710
_cell_length_b   7.59616710
_cell_length_c   7.78746807
_cell_angle_alpha   62.07981140
_cell_angle_beta   62.07981140
_cell_angle_gamma   88.38071377
_symmetry_Int_Tables_number   1
_chemical_formula_structural   RbYb(MoO4)2
_chemical_formula_sum   'Rb2 Yb2 Mo4 O16'
_cell_volume   340.17145169
_cell_formula_units_Z   2
loop_
 _symmetry_equiv_pos_site_id
 _symmetry_equiv_pos_as_xyz
  1  'x, y, z'
loop_
 _atom_site_type_symbol
 _atom_site_label
 _atom_site_symmetry_multiplicity
 _atom_site_fract_x
 _atom_site_fract_y
 _atom_site_fract_z
 _atom_site_occupancy
  Rb  Rb0  1  0.19834500  0.80165500  0.75000000  1
  Rb  Rb1  1  0.80165500  0.19834500  0.25000000  1
  Yb  Yb0  1  0.77056700  0.22943300  0.75000000  1
  Yb  Yb1  1  0.22943300  0.77056700  0.25000000  1
  Mo  Mo0  1  0.69745200  0.69807300  0.75973000  1
  Mo  Mo1  1  0.30254800  0.30192700  0.24027000  1
  Mo  Mo2  1  0.30192700  0.30254800  0.74027000  1
  Mo  Mo3  1  0.69807300  0.69745200  0.25973000  1
  O  O0  1  0.61612900  0.76489400  0.55950800  1
  O  O1  1  0.38387100  0.23510600  0.44049200  1
  O  O2  1  0.23510600  0.38387100  0.94049200  1
  O  O3  1  0.76489400  0.61612900  0.05950800  1
  O  O4  1  0.38327300  0.07106500  0.86923300  1
  O  O5  1  0.61672700  0.92893500  0.13076700  1
  O  O6  1  0.92893500  0.61672700  0.63076700  1
  O  O7  1  0.07106500  0.38327300  0.36923300  1
  O  O8  1  0.58108900  0.36984400  0.97274700  1
  O  O9  1  0.41891100  0.63015600  0.02725300  1
  O  O10  1  0.63015600  0.41891100  0.52725300  1
  O  O11  1  0.36984400  0.58108900  0.47274700  1
  O  O12  1  0.79126600  0.94900600  0.69357600  1
  O  O13  1  0.20873400  0.05099400  0.30642400  1
  O  O14  1  0.05099400  0.20873400  0.80642400  1
  O  O15  1  0.94900600  0.79126600  0.19357600  1
loop_
_geom_bond_atom_site_label_1
_geom_bond_atom_site_label_2
_geom_bond_distance
_geom_bond_site_symmetry_2
Mo0 O0 1.792639 1_555
Mo0 O12 1.794413 1_555
Mo0 O6 1.829843 1_555
Mo0 O9 2.002587 1_556
Mo0 O8 2.151204 1_555
Mo0 O3 2.416815 1_556
Mo1 O1 1.792639 1_555
Mo1 O13 1.794413 1_555
Mo1 O7 1.829843 1_555
Mo1 O8 2.002587 1_554
Mo1 O9 2.151204 1_555
Mo1 O2 2.416815 1_554
Mo2 O2 1.792639 1_555
Mo2 O14 1.794413 1_555
Mo2 O4 1.829843 1_555
Mo2 O11 2.002587 1_555
Mo2 O10 2.151204 1_555
Mo2 O1 2.416815 1_555
Mo3 O3 1.792639 1_555
Mo3 O15 1.794413 1_555
Mo3 O5 1.829843 1_555
Mo3 O10 2.002587 1_555
Mo3 O11 2.151204 1_555
Mo3 O0 2.416815 1_555
O0 Rb0 2.877347 1_555
O0 Rb1 2.878511 1_565
O1 Rb1 2.877347 1_555
O1 Rb0 2.878511 1_545
O2 Rb0 2.877347 1_555
O2 Rb1 2.878511 1_456
O3 Rb1 2.877347 1_555
O3 Rb0 2.878511 1_654
O4 Yb1 2.436320 1_546
O4 Yb0 2.749584 1_555
O4 Rb0 3.191712 1_545
O5 Yb0 2.436320 1_564
O5 Yb1 2.749584 1_555
O5 Rb1 3.191712 1_565
O6 Yb1 2.436320 1_655
O6 Yb0 2.749584 1_555
O6 Rb0 3.191712 1_655
O7 Yb0 2.436320 1_455
O7 Yb1 2.749584 1_555
O7 Rb1 3.191712 1_455
O8 Yb0 2.350731 1_555
O8 Rb1 3.129896 1_556
O9 Yb1 2.350731 1_555
O9 Rb0 3.129896 1_554
O10 Yb0 2.350731 1_555
O10 Rb1 3.129896 1_555
O11 Yb1 2.350731 1_555
O11 Rb0 3.129896 1_555
O12 Yb0 2.355491 1_565
O12 Rb1 3.025246 1_565
O12 Rb0 3.409413 1_655
O13 Yb1 2.355491 1_545
O13 Rb0 3.025246 1_545
O13 Rb1 3.409413 1_455
O14 Yb0 2.355491 1_455
O14 Rb1 3.025246 1_456
O14 Rb0 3.409413 1_545
O15 Yb1 2.355491 1_655
O15 Rb0 3.025246 1_654
O15 Rb1 3.409413 1_565
