# generated using pymatgen
data_Ca5(MnN3)2
_symmetry_space_group_name_H-M   'P 1'
_cell_length_a   4.96343300
_cell_length_b   6.36669100
_cell_length_c   6.84875546
_cell_angle_alpha   76.95069268
_cell_angle_beta   90.00000000
_cell_angle_gamma   90.00000000
_symmetry_Int_Tables_number   1
_chemical_formula_structural   Ca5(MnN3)2
_chemical_formula_sum   'Ca5 Mn2 N6'
_cell_volume   210.83614850
_cell_formula_units_Z   1
loop_
 _symmetry_equiv_pos_site_id
 _symmetry_equiv_pos_as_xyz
  1  'x, y, z'
loop_
 _atom_site_type_symbol
 _atom_site_label
 _atom_site_symmetry_multiplicity
 _atom_site_fract_x
 _atom_site_fract_y
 _atom_site_fract_z
 _atom_site_occupancy
  Ca  Ca0  1  0.00000000  0.69452700  0.07338100  1
  Ca  Ca1  1  0.50000000  0.37677700  0.40486900  1
  Ca  Ca2  1  0.50000000  0.89663500  0.34195900  1
  Ca  Ca3  1  0.00000000  0.60808500  0.60908600  1
  Ca  Ca4  1  0.50000000  0.29438600  0.90248600  1
  Mn  Mn0  1  0.50000000  0.79589900  0.79696600  1
  Mn  Mn1  1  0.00000000  0.20918600  0.21029800  1
  N  N0  1  0.50000000  0.70051700  0.05387000  1
  N  N1  1  0.00000000  0.39452000  0.36227300  1
  N  N2  1  0.50000000  0.60934200  0.63322400  1
  N  N3  1  0.00000000  0.93264000  0.30276600  1
  N  N4  1  0.00000000  0.33954200  0.96336000  1
  N  N5  1  0.50000000  0.05226800  0.67399600  1
loop_
_geom_bond_atom_site_label_1
_geom_bond_atom_site_label_2
_geom_bond_distance
_geom_bond_site_symmetry_2
Ca0 N3 2.416975 1_555
Ca0 N1 2.419997 1_555
Ca0 N0 2.485141 1_555
Ca0 N0 2.485141 1_455
Ca0 N4 2.538654 1_554
Ca1 N2 2.384121 1_555
Ca1 N5 2.438488 1_555
Ca1 N1 2.498380 1_555
Ca1 N1 2.498380 1_655
Ca1 N0 2.790990 1_555
Ca2 N2 2.382685 1_555
Ca2 N3 2.501146 1_655
Ca2 N3 2.501146 1_555
Ca2 N0 2.562128 1_555
Ca2 N5 2.677799 1_565
Ca3 N1 2.396668 1_555
Ca3 N2 2.487349 1_555
Ca3 N2 2.487349 1_455
Ca3 N3 2.591023 1_555
Ca3 N4 2.633811 1_555
Ca4 N2 2.398291 1_555
Ca4 N5 2.431940 1_555
Ca4 N4 2.543523 1_555
Ca4 N4 2.543523 1_655
Ca4 N0 2.995238 1_556
Mn0 N5 1.659119 1_565
Mn0 N0 1.726852 1_556
Mn0 N2 1.808272 1_555
Mn1 N4 1.707388 1_554
Mn1 N3 1.731341 1_545
Mn1 N1 1.740767 1_555
