# generated using pymatgen
data_Hf3Pb
_symmetry_space_group_name_H-M   'P 1'
_cell_length_a   5.65038982
_cell_length_b   5.65038982
_cell_length_c   5.65038982
_cell_angle_alpha   134.96554055
_cell_angle_beta   134.96554055
_cell_angle_gamma   65.58374639
_symmetry_Int_Tables_number   1
_chemical_formula_structural   Hf3Pb
_chemical_formula_sum   'Hf3 Pb1'
_cell_volume   88.96448879
_cell_formula_units_Z   1
loop_
 _symmetry_equiv_pos_site_id
 _symmetry_equiv_pos_as_xyz
  1  'x, y, z'
loop_
 _atom_site_type_symbol
 _atom_site_label
 _atom_site_symmetry_multiplicity
 _atom_site_fract_x
 _atom_site_fract_y
 _atom_site_fract_z
 _atom_site_occupancy
  Hf  Hf0  1  0.75000000  0.25000100  0.49999900  1
  Hf  Hf1  1  0.25000100  0.75000000  0.49999900  1
  Hf  Hf2  1  0.50000000  0.50000000  -0.00000000  1
  Pb  Pb0  1  -0.00000000  0.00000000  0.00000000  1
loop_
_geom_bond_atom_site_label_1
_geom_bond_atom_site_label_2
_geom_bond_distance
_geom_bond_site_symmetry_2
Hf0 Hf1 3.060183 1_555
Hf0 Hf1 3.060189 1_656
Hf0 Hf1 3.060189 1_544
Hf0 Hf1 3.060195 1_645
Hf0 Hf2 3.212919 1_555
Hf0 Pb0 3.212922 1_655
Hf0 Pb0 3.212922 1_666
Hf0 Hf2 3.212925 1_656
Hf0 Pb0 3.212933 1_555
Hf0 Hf2 3.212936 1_545
Hf0 Hf2 3.212936 1_556
Hf0 Pb0 3.212939 1_656
Hf1 Hf2 3.212919 1_555
Hf1 Pb0 3.212922 1_565
Hf1 Pb0 3.212922 1_666
Hf1 Hf2 3.212925 1_566
Hf1 Pb0 3.212933 1_555
Hf1 Hf2 3.212936 1_455
Hf1 Hf2 3.212936 1_556
Hf1 Pb0 3.212939 1_566
Hf2 Pb0 3.060189 1_554
Hf2 Pb0 3.060189 1_666
Hf2 Pb0 3.060189 1_565
Hf2 Pb0 3.060189 1_655
