# generated using pymatgen
data_Sm2Mo2O7
_symmetry_space_group_name_H-M   'P 1'
_cell_length_a   7.41625189
_cell_length_b   7.41625189
_cell_length_c   7.41625189
_cell_angle_alpha   60.00000000
_cell_angle_beta   60.00000000
_cell_angle_gamma   60.00000000
_symmetry_Int_Tables_number   1
_chemical_formula_structural   Sm2Mo2O7
_chemical_formula_sum   'Sm4 Mo4 O14'
_cell_volume   288.42866355
_cell_formula_units_Z   2
loop_
 _symmetry_equiv_pos_site_id
 _symmetry_equiv_pos_as_xyz
  1  'x, y, z'
loop_
 _atom_site_type_symbol
 _atom_site_label
 _atom_site_symmetry_multiplicity
 _atom_site_fract_x
 _atom_site_fract_y
 _atom_site_fract_z
 _atom_site_occupancy
  Sm  Sm0  1  0.62500000  0.12500000  0.12500000  1
  Sm  Sm1  1  0.12500000  0.62500000  0.12500000  1
  Sm  Sm2  1  0.12500000  0.12500000  0.62500000  1
  Sm  Sm3  1  0.12500000  0.12500000  0.12500000  1
  Mo  Mo0  1  0.12500000  0.62500000  0.62500000  1
  Mo  Mo1  1  0.62500000  0.12500000  0.62500000  1
  Mo  Mo2  1  0.62500000  0.62500000  0.12500000  1
  Mo  Mo3  1  0.62500000  0.62500000  0.62500000  1
  O  O0  1  0.74146600  0.74146600  0.25853400  1
  O  O1  1  0.25853400  0.25853400  0.74146600  1
  O  O2  1  0.74146600  0.25853400  0.74146600  1
  O  O3  1  0.25853400  0.74146600  0.25853400  1
  O  O4  1  0.25853400  0.74146600  0.74146600  1
  O  O5  1  0.74146600  0.25853400  0.25853400  1
  O  O6  1  0.50853400  0.50853400  0.99146600  1
  O  O7  1  0.99146600  0.99146600  0.50853400  1
  O  O8  1  0.50853400  0.99146600  0.50853400  1
  O  O9  1  0.99146600  0.50853400  0.99146600  1
  O  O10  1  0.99146600  0.50853400  0.50853400  1
  O  O11  1  0.50853400  0.99146600  0.99146600  1
  O  O12  1  0.50000000  0.50000000  0.50000000  1
  O  O13  1  0.75000000  0.75000000  0.75000000  1
loop_
_geom_bond_atom_site_label_1
_geom_bond_atom_site_label_2
_geom_bond_distance
_geom_bond_site_symmetry_2
Mo0 O4 2.220281 1_555
Mo0 O3 2.220281 1_555
Mo0 O7 2.220281 1_455
Mo0 O1 2.220281 1_555
Mo0 O9 2.220281 1_455
Mo0 O10 2.220281 1_455
Mo0 O13 2.270754 1_455
Mo0 O12 2.270754 1_555
Mo1 O7 2.220281 1_545
Mo1 O2 2.220281 1_555
Mo1 O5 2.220281 1_555
Mo1 O11 2.220281 1_545
Mo1 O1 2.220281 1_555
Mo1 O8 2.220281 1_545
Mo1 O13 2.270754 1_545
Mo1 O12 2.270754 1_555
Mo2 O0 2.220281 1_555
Mo2 O9 2.220281 1_554
Mo2 O5 2.220281 1_555
Mo2 O11 2.220281 1_554
Mo2 O3 2.220281 1_555
Mo2 O6 2.220281 1_554
Mo2 O12 2.270754 1_555
Mo2 O13 2.270754 1_554
Mo3 O10 2.220281 1_555
Mo3 O8 2.220281 1_555
Mo3 O6 2.220281 1_555
Mo3 O2 2.220281 1_555
Mo3 O0 2.220281 1_555
Mo3 O4 2.220281 1_555
Mo3 O12 2.270754 1_555
Mo3 O13 2.270754 1_555
O0 Sm0 2.323580 1_565
O0 Sm1 2.323580 1_655
O1 Sm2 2.323580 1_555
O1 Sm3 2.323580 1_556
O2 Sm2 2.323580 1_655
O2 Sm0 2.323580 1_556
O3 Sm1 2.323580 1_555
O3 Sm3 2.323580 1_565
O4 Sm2 2.323580 1_565
O4 Sm1 2.323580 1_556
O5 Sm0 2.323580 1_555
O5 Sm3 2.323580 1_655
O6 Sm0 2.323580 1_556
O6 Sm1 2.323580 1_556
O7 Sm3 2.323580 1_665
O7 Sm2 2.323580 1_665
O8 Sm2 2.323580 1_565
O8 Sm0 2.323580 1_565
O9 Sm3 2.323580 1_656
O9 Sm1 2.323580 1_656
O10 Sm1 2.323580 1_655
O10 Sm2 2.323580 1_655
O11 Sm3 2.323580 1_566
O11 Sm0 2.323580 1_566
