# generated using pymatgen
data_CsVC6
_symmetry_space_group_name_H-M   'P 1'
_cell_length_a   5.29977900
_cell_length_b   5.29977900
_cell_length_c   5.29977900
_cell_angle_alpha   90.00000000
_cell_angle_beta   90.00000000
_cell_angle_gamma   90.00000000
_symmetry_Int_Tables_number   1
_chemical_formula_structural   CsVC6
_chemical_formula_sum   'Cs1 V1 C6'
_cell_volume   148.85837711
_cell_formula_units_Z   1
loop_
 _symmetry_equiv_pos_site_id
 _symmetry_equiv_pos_as_xyz
  1  'x, y, z'
loop_
 _atom_site_type_symbol
 _atom_site_label
 _atom_site_symmetry_multiplicity
 _atom_site_fract_x
 _atom_site_fract_y
 _atom_site_fract_z
 _atom_site_occupancy
  Cs  Cs0  1  0.50000000  0.50000000  0.50000000  1
  V  V0  1  0.00000000  0.00000000  0.00000000  1
  C  C0  1  0.61980000  0.00000000  0.00000000  1
  C  C1  1  0.38020000  0.00000000  0.00000000  1
  C  C2  1  0.00000000  0.61980000  0.00000000  1
  C  C3  1  0.00000000  0.00000000  0.61980000  1
  C  C4  1  0.00000000  0.38020000  0.00000000  1
  C  C5  1  0.00000000  0.00000000  0.38020000  1
loop_
_geom_bond_atom_site_label_1
_geom_bond_atom_site_label_2
_geom_bond_distance
_geom_bond_site_symmetry_2
C0 C1 1.269827 1_555
C0 V0 2.014976 1_655
C0 Cs0 3.800914 1_544
C0 Cs0 3.800914 1_555
C0 Cs0 3.800914 1_545
C0 Cs0 3.800914 1_554
C1 V0 2.014976 1_555
C1 Cs0 3.800914 1_544
C1 Cs0 3.800914 1_555
C1 Cs0 3.800914 1_545
C1 Cs0 3.800914 1_554
C2 C4 1.269827 1_555
C2 V0 2.014976 1_565
C2 Cs0 3.800914 1_455
C2 Cs0 3.800914 1_454
C2 Cs0 3.800914 1_555
C2 Cs0 3.800914 1_554
C3 C5 1.269827 1_555
C3 V0 2.014976 1_556
C3 Cs0 3.800914 1_455
C3 Cs0 3.800914 1_445
C3 Cs0 3.800914 1_555
C3 Cs0 3.800914 1_545
C4 V0 2.014976 1_555
C4 Cs0 3.800914 1_455
C4 Cs0 3.800914 1_454
C4 Cs0 3.800914 1_555
C4 Cs0 3.800914 1_554
C5 V0 2.014976 1_555
C5 Cs0 3.800914 1_455
C5 Cs0 3.800914 1_445
C5 Cs0 3.800914 1_555
C5 Cs0 3.800914 1_545
