# generated using pymatgen
data_Pr4MgRh
_symmetry_space_group_name_H-M   'P 1'
_cell_length_a   10.07630925
_cell_length_b   10.07638800
_cell_length_c   10.07651649
_cell_angle_alpha   60.00082424
_cell_angle_beta   60.00020400
_cell_angle_gamma   60.00002342
_symmetry_Int_Tables_number   1
_chemical_formula_structural   Pr4MgRh
_chemical_formula_sum   'Pr16 Mg4 Rh4'
_cell_volume   723.44454067
_cell_formula_units_Z   4
loop_
 _symmetry_equiv_pos_site_id
 _symmetry_equiv_pos_as_xyz
  1  'x, y, z'
loop_
 _atom_site_type_symbol
 _atom_site_label
 _atom_site_symmetry_multiplicity
 _atom_site_fract_x
 _atom_site_fract_y
 _atom_site_fract_z
 _atom_site_occupancy
  Pr  Pr0  1  0.34638427  0.34634016  0.34629405  1
  Pr  Pr1  1  0.34637250  0.34632965  0.96097926  1
  Pr  Pr2  1  0.34638871  0.96097481  0.34629984  1
  Pr  Pr3  1  0.96097730  0.34636236  0.34631147  1
  Pr  Pr4  1  0.81155121  0.18842022  0.18837888  1
  Pr  Pr5  1  0.18842569  0.81157557  0.81164204  1
  Pr  Pr6  1  0.18844205  0.81159608  0.18834795  1
  Pr  Pr7  1  0.81153357  0.18840219  0.81167749  1
  Pr  Pr8  1  0.18841692  0.18836444  0.81163327  1
  Pr  Pr9  1  0.81156066  0.81164004  0.18838559  1
  Pr  Pr10  1  0.93750873  0.56245439  0.56247653  1
  Pr  Pr11  1  0.56242589  0.93753578  0.93757086  1
  Pr  Pr12  1  0.56242397  0.93754137  0.56248034  1
  Pr  Pr13  1  0.93750474  0.56245381  0.93758112  1
  Pr  Pr14  1  0.56242592  0.56246301  0.93756648  1
  Pr  Pr15  1  0.93751087  0.93755051  0.56247702  1
  Mg  Mg0  1  0.57874443  0.57875433  0.57876227  1
  Mg  Mg1  1  0.57872983  0.57874032  0.26377694  1
  Mg  Mg2  1  0.57873082  0.26376618  0.57874939  1
  Mg  Mg3  1  0.26376220  0.57873899  0.57874749  1
  Rh  Rh0  1  0.14185058  0.14176594  0.14170742  1
  Rh  Rh1  1  0.14182639  0.14174844  0.57469029  1
  Rh  Rh2  1  0.14185674  0.57467135  0.14171343  1
  Rh  Rh3  1  0.57464401  0.14181005  0.14174754  1
loop_
_geom_bond_atom_site_label_1
_geom_bond_atom_site_label_2
_geom_bond_distance
_geom_bond_site_symmetry_2
Pr0 Rh3 2.924493 1_555
Pr0 Rh2 2.924782 1_555
Pr0 Rh1 2.925106 1_555
Pr0 Pr14 3.640068 1_554
Pr0 Pr12 3.640627 1_545
Pr0 Pr10 3.641229 1_455
Pr1 Rh3 2.924267 1_556
Pr1 Rh2 2.924554 1_556
Pr1 Rh0 2.924636 1_556
Pr1 Pr14 3.640317 1_555
Pr1 Pr11 3.640489 1_545
Pr1 Pr13 3.641075 1_455
Pr2 Rh3 2.924586 1_565
Pr2 Rh0 2.924935 1_565
Pr2 Rh1 2.925191 1_565
Pr3 Rh2 2.925292 1_655
Pr3 Rh0 2.925380 1_655
Pr3 Rh1 2.925628 1_655
Pr4 Rh3 2.933149 1_555
Pr4 Rh0 2.934340 1_655
Pr5 Rh2 2.932714 1_556
Pr5 Rh1 2.933512 1_565
Pr6 Rh2 2.933192 1_555
Pr6 Rh0 2.933410 1_565
Pr7 Rh3 2.932630 1_556
Pr7 Rh1 2.934365 1_655
Pr8 Rh0 2.932737 1_556
Pr8 Rh1 2.933310 1_555
Pr9 Rh3 2.933336 1_565
Pr9 Rh2 2.934310 1_655
Pr10 Rh1 3.637115 1_655
Pr10 Rh2 3.637659 1_655
Pr10 Pr3 3.640654 1_555
Pr10 Pr7 3.775648 1_555
Pr10 Pr9 3.775871 1_555
Pr10 Pr8 3.775970 1_655
Pr10 Pr6 3.776162 1_655
Pr10 Pr12 3.779497 1_555
Pr10 Pr14 3.779537 1_555
Pr10 Pr15 3.779627 1_555
Pr10 Pr13 3.779725 1_555
Pr11 Rh0 3.635968 1_566
Pr11 Rh3 3.636787 1_566
Pr11 Pr2 3.640077 1_556
Pr11 Pr6 3.774861 1_556
Pr11 Pr8 3.775059 1_565
Pr11 Pr9 3.775248 1_556
Pr11 Pr7 3.775438 1_565
Pr11 Pr14 3.779401 1_555
Pr11 Pr13 3.779442 1_555
Pr11 Pr15 3.779567 1_555
Pr11 Pr12 3.779587 1_555
Pr12 Rh1 3.636149 1_565
Pr12 Rh3 3.637407 1_565
Pr12 Pr2 3.640480 1_555
Pr12 Pr5 3.775114 1_555
Pr12 Pr8 3.775204 1_565
Pr12 Pr9 3.775637 1_555
Pr12 Pr4 3.775723 1_565
Pr12 Pr15 3.779521 1_555
Pr12 Pr14 3.779545 1_555
Pr13 Rh0 3.636980 1_656
Pr13 Rh2 3.637071 1_656
Pr13 Pr3 3.640226 1_556
Pr13 Pr4 3.775383 1_556
Pr13 Pr9 3.775428 1_556
Pr13 Pr8 3.775791 1_655
Pr13 Pr5 3.775862 1_655
Pr13 Pr14 3.779438 1_555
Pr13 Pr15 3.779728 1_555
Pr14 Rh2 3.635912 1_556
Pr14 Rh3 3.636669 1_556
Pr14 Pr6 3.774816 1_556
Pr14 Pr5 3.774919 1_555
Pr14 Pr4 3.775169 1_556
Pr14 Pr7 3.775254 1_555
Pr15 Rh1 3.637281 1_665
Pr15 Rh0 3.637731 1_665
Pr15 Pr3 3.640871 1_565
Pr15 Pr2 3.641256 1_655
Pr15 Pr7 3.775833 1_565
Pr15 Pr4 3.775991 1_565
Pr15 Pr5 3.776078 1_655
Pr15 Pr6 3.776194 1_655
Mg0 Mg3 3.174010 1_555
Mg0 Mg2 3.174076 1_555
Mg0 Mg1 3.174099 1_555
Mg0 Pr10 3.458648 1_555
Mg0 Pr12 3.458831 1_555
Mg0 Pr14 3.459018 1_555
Mg0 Pr1 3.639616 1_555
Mg0 Pr2 3.639707 1_555
Mg0 Pr3 3.639825 1_555
Mg0 Pr5 3.678008 1_555
Mg0 Pr7 3.678211 1_555
Mg0 Pr9 3.678327 1_555
Mg1 Mg3 3.173768 1_555
Mg1 Mg2 3.173853 1_555
Mg1 Pr13 3.458826 1_554
Mg1 Pr14 3.459011 1_554
Mg1 Pr11 3.459035 1_554
Mg1 Pr0 3.639378 1_555
Mg1 Pr2 3.639463 1_555
Mg1 Pr3 3.639613 1_555
Mg1 Pr6 3.677934 1_555
Mg1 Pr4 3.678094 1_555
Mg1 Pr9 3.678221 1_555
Mg2 Mg3 3.173756 1_555
Mg2 Pr15 3.458917 1_545
Mg2 Pr12 3.459086 1_545
Mg2 Pr11 3.459296 1_545
Mg2 Pr1 3.639644 1_555
Mg2 Pr0 3.639646 1_555
Mg2 Pr3 3.639879 1_555
Mg2 Pr8 3.678048 1_555
Mg2 Pr4 3.678351 1_555
Mg2 Pr7 3.678367 1_555
Mg3 Pr10 3.459238 1_455
Mg3 Pr15 3.459259 1_455
Mg3 Pr13 3.459443 1_455
Mg3 Pr0 3.639876 1_555
Mg3 Pr1 3.639894 1_555
Mg3 Pr2 3.639962 1_555
Mg3 Pr8 3.678372 1_555
Mg3 Pr5 3.678488 1_555
Mg3 Pr6 3.678519 1_555
