# generated using pymatgen
data_SrCr9Ga3O19
_symmetry_space_group_name_H-M   'P 1'
_cell_length_a   5.91251818
_cell_length_b   5.91251818
_cell_length_c   23.04082500
_cell_angle_alpha   90.00000000
_cell_angle_beta   90.00000000
_cell_angle_gamma   120.00000205
_symmetry_Int_Tables_number   1
_chemical_formula_structural   SrCr9Ga3O19
_chemical_formula_sum   'Sr2 Cr18 Ga6 O38'
_cell_volume   697.54724350
_cell_formula_units_Z   2
loop_
 _symmetry_equiv_pos_site_id
 _symmetry_equiv_pos_as_xyz
  1  'x, y, z'
loop_
 _atom_site_type_symbol
 _atom_site_label
 _atom_site_symmetry_multiplicity
 _atom_site_fract_x
 _atom_site_fract_y
 _atom_site_fract_z
 _atom_site_occupancy
  Sr  Sr0  1  0.66666700  0.33333300  0.24940600  1
  Sr  Sr1  1  0.33333300  0.66666700  0.74940600  1
  Cr  Cr0  1  0.83166100  0.66332100  0.39228400  1
  Cr  Cr1  1  0.83166100  0.16833900  0.39228400  1
  Cr  Cr2  1  0.33667900  0.16833900  0.39228400  1
  Cr  Cr3  1  0.16769000  0.33537900  0.60805300  1
  Cr  Cr4  1  0.16769000  0.83231000  0.60805300  1
  Cr  Cr5  1  0.66462100  0.83231000  0.60805300  1
  Cr  Cr6  1  0.16833900  0.33667900  0.89228400  1
  Cr  Cr7  1  0.16833900  0.83166100  0.89228400  1
  Cr  Cr8  1  0.66332100  0.83166100  0.89228400  1
  Cr  Cr9  1  0.83231000  0.66462100  0.10805300  1
  Cr  Cr10  1  0.83231000  0.16769000  0.10805300  1
  Cr  Cr11  1  0.33537900  0.16769000  0.10805300  1
  Cr  Cr12  1  0.66666700  0.33333300  0.69123600  1
  Cr  Cr13  1  0.33333300  0.66666700  0.30877100  1
  Cr  Cr14  1  0.33333300  0.66666700  0.19123600  1
  Cr  Cr15  1  0.66666700  0.33333300  0.80877100  1
  Cr  Cr16  1  0.00000000  0.00000000  0.50006300  1
  Cr  Cr17  1  0.00000000  0.00000000  0.00006300  1
  Ga  Ga0  1  0.66666700  0.33333300  0.52785800  1
  Ga  Ga1  1  0.33333300  0.66666700  0.47265800  1
  Ga  Ga2  1  0.33333300  0.66666700  0.02785800  1
  Ga  Ga3  1  0.66666700  0.33333300  0.97265800  1
  Ga  Ga4  1  0.00000000  0.00000000  0.75430500  1
  Ga  Ga5  1  0.00000000  0.00000000  0.25430500  1
  O  O0  1  0.00000000  0.00000000  0.65153700  1
  O  O1  1  0.00000000  0.00000000  0.34792200  1
  O  O2  1  0.00000000  0.00000000  0.15153700  1
  O  O3  1  0.00000000  0.00000000  0.84792200  1
  O  O4  1  0.66666700  0.33333300  0.44478600  1
  O  O5  1  0.33333300  0.66666700  0.55524700  1
  O  O6  1  0.33333300  0.66666700  0.94478600  1
  O  O7  1  0.66666700  0.33333300  0.05524700  1
  O  O8  1  0.84288900  0.68577700  0.55268400  1
  O  O9  1  0.84288900  0.15711100  0.55268400  1
  O  O10  1  0.31422300  0.15711100  0.55268400  1
  O  O11  1  0.15711000  0.31422100  0.44717700  1
  O  O12  1  0.15711000  0.84289000  0.44717700  1
  O  O13  1  0.68577900  0.84289000  0.44717700  1
  O  O14  1  0.15711100  0.31422300  0.05268400  1
  O  O15  1  0.15711100  0.84288900  0.05268400  1
  O  O16  1  0.68577700  0.84288900  0.05268400  1
  O  O17  1  0.84289000  0.68577900  0.94717700  1
  O  O18  1  0.84289000  0.15711000  0.94717700  1
  O  O19  1  0.31422100  0.15711000  0.94717700  1
  O  O20  1  0.81840600  0.63681300  0.75033700  1
  O  O21  1  0.81840600  0.18159400  0.75033700  1
  O  O22  1  0.36318700  0.18159400  0.75033700  1
  O  O23  1  0.18159400  0.36318700  0.25033700  1
  O  O24  1  0.18159400  0.81840600  0.25033700  1
  O  O25  1  0.63681300  0.81840600  0.25033700  1
  O  O26  1  0.49289600  0.98579200  0.65154000  1
  O  O27  1  0.49289600  0.50710400  0.65154000  1
  O  O28  1  0.01420800  0.50710400  0.65154000  1
  O  O29  1  0.50766000  0.01532100  0.34855700  1
  O  O30  1  0.50766000  0.49234000  0.34855700  1
  O  O31  1  0.98467900  0.49234000  0.34855700  1
  O  O32  1  0.50710400  0.01420800  0.15154000  1
  O  O33  1  0.50710400  0.49289600  0.15154000  1
  O  O34  1  0.98579200  0.49289600  0.15154000  1
  O  O35  1  0.49234000  0.98467900  0.84855700  1
  O  O36  1  0.49234000  0.50766000  0.84855700  1
  O  O37  1  0.01532100  0.50766000  0.84855700  1
loop_
_geom_bond_atom_site_label_1
_geom_bond_atom_site_label_2
_geom_bond_distance
_geom_bond_site_symmetry_2
Cr0 O31 1.941694 1_555
Cr0 O30 1.941702 1_555
Cr0 O1 2.004169 1_665
Cr0 O4 2.078058 1_555
Cr0 O12 2.094412 1_655
Cr0 O13 2.094420 1_555
Cr1 O29 1.941703 1_555
Cr1 O31 1.941703 1_555
Cr1 O1 2.004164 1_655
Cr1 O4 2.078058 1_555
Cr1 O13 2.094412 1_545
Cr1 O11 2.094412 1_655
Cr2 O29 1.941694 1_555
Cr2 O30 1.941702 1_555
Cr2 O1 2.004169 1_555
Cr2 O4 2.078058 1_555
Cr2 O12 2.094412 1_545
Cr2 O11 2.094420 1_555
Cr3 O27 1.944144 1_555
Cr3 O28 1.944148 1_555
Cr3 O0 1.988175 1_555
Cr3 O5 2.087549 1_555
Cr3 O9 2.098157 1_455
Cr3 O10 2.098157 1_555
Cr4 O26 1.944144 1_555
Cr4 O28 1.944144 1_555
Cr4 O0 1.988179 1_565
Cr4 O5 2.087540 1_555
Cr4 O10 2.098157 1_565
Cr4 O8 2.098157 1_455
Cr5 O27 1.944144 1_555
Cr5 O26 1.944148 1_555
Cr5 O0 1.988175 1_665
Cr5 O5 2.087549 1_555
Cr5 O9 2.098157 1_565
Cr5 O8 2.098157 1_555
Cr6 O37 1.941694 1_555
Cr6 O36 1.941702 1_555
Cr6 O3 2.004169 1_555
Cr6 O6 2.078058 1_555
Cr6 O18 2.094412 1_455
Cr6 O19 2.094420 1_555
Cr7 O37 1.941703 1_555
Cr7 O35 1.941703 1_555
Cr7 O3 2.004164 1_565
Cr7 O6 2.078058 1_555
Cr7 O17 2.094412 1_455
Cr7 O19 2.094412 1_565
Cr8 O35 1.941694 1_555
Cr8 O36 1.941702 1_555
Cr8 O3 2.004169 1_665
Cr8 O6 2.078058 1_555
Cr8 O18 2.094412 1_565
Cr8 O17 2.094420 1_555
Cr9 O33 1.944144 1_555
Cr9 O34 1.944148 1_555
Cr9 O2 1.988175 1_665
Cr9 O7 2.087549 1_555
Cr9 O15 2.098157 1_655
Cr9 O16 2.098157 1_555
Cr10 O34 1.944144 1_555
Cr10 O32 1.944144 1_555
Cr10 O2 1.988179 1_655
Cr10 O7 2.087540 1_555
Cr10 O14 2.098157 1_655
Cr10 O16 2.098157 1_545
Cr11 O33 1.944144 1_555
Cr11 O32 1.944148 1_555
Cr11 O2 1.988175 1_555
Cr11 O7 2.087549 1_555
Cr11 O15 2.098157 1_545
Cr11 O14 2.098157 1_555
Cr12 O26 2.000832 1_545
Cr12 O28 2.000832 1_655
Cr12 O27 2.000837 1_555
Cr12 O21 2.066158 1_555
Cr12 O20 2.066166 1_555
Cr12 O22 2.066166 1_555
Cr13 O29 2.006849 1_565
Cr13 O31 2.006849 1_455
Cr13 O30 2.006849 1_555
Cr13 O24 2.056062 1_555
Cr13 O25 2.056070 1_555
Cr13 O23 2.056070 1_555
Cr14 O34 2.000832 1_455
Cr14 O32 2.000832 1_565
Cr14 O33 2.000837 1_555
Cr14 O24 2.066158 1_555
Cr14 O25 2.066166 1_555
Cr14 O23 2.066166 1_555
Cr15 O37 2.006849 1_655
Cr15 O35 2.006849 1_545
Cr15 O36 2.006849 1_555
Cr15 O21 2.056062 1_555
Cr15 O20 2.056070 1_555
Cr15 O22 2.056070 1_555
Cr16 O9 2.014616 1_455
Cr16 O10 2.014620 1_555
Cr16 O8 2.014620 1_445
Cr16 O12 2.018288 1_545
Cr16 O11 2.018292 1_555
Cr16 O13 2.018292 1_445
Cr17 O15 2.014616 1_545
Cr17 O14 2.014620 1_555
Cr17 O16 2.014620 1_445
Cr17 O18 2.018288 1_454
Cr17 O19 2.018292 1_554
Cr17 O17 2.018292 1_444
Ga0 O8 1.893136 1_555
Ga0 O10 1.893136 1_555
Ga0 O9 1.893136 1_555
Ga0 O4 1.914047 1_555
Ga1 O13 1.897760 1_555
Ga1 O11 1.897760 1_555
Ga1 O12 1.897760 1_555
Ga1 O5 1.902919 1_555
Ga2 O16 1.893136 1_555
Ga2 O14 1.893136 1_555
Ga2 O15 1.893136 1_555
Ga2 O6 1.914047 1_554
Ga3 O17 1.897760 1_555
Ga3 O19 1.897760 1_555
Ga3 O18 1.897760 1_555
Ga3 O7 1.902919 1_556
Ga4 O22 1.861905 1_555
Ga4 O20 1.861905 1_445
Ga4 O21 1.861911 1_455
Ga4 O3 2.157013 1_555
Ga4 O0 2.367860 1_555
Ga5 O23 1.861905 1_555
Ga5 O25 1.861905 1_445
Ga5 O24 1.861911 1_545
Ga5 O1 2.157013 1_555
Ga5 O2 2.367860 1_555
O20 Sr1 2.960286 1_655
O20 Sr1 2.960286 1_555
O21 Sr1 2.960286 1_545
O21 Sr1 2.960286 1_655
O22 Sr1 2.960286 1_545
O22 Sr1 2.960286 1_555
O23 Sr0 2.960286 1_455
O23 Sr0 2.960286 1_555
O24 Sr0 2.960286 1_455
O24 Sr0 2.960286 1_565
O25 Sr0 2.960286 1_565
O25 Sr0 2.960286 1_555
O26 Sr1 2.784733 1_555
O27 Sr1 2.784736 1_555
O28 Sr1 2.784733 1_555
O29 Sr0 2.805449 1_555
O30 Sr0 2.805455 1_555
O31 Sr0 2.805449 1_555
O32 Sr0 2.784733 1_555
O33 Sr0 2.784736 1_555
O34 Sr0 2.784733 1_555
O35 Sr1 2.805449 1_555
O36 Sr1 2.805455 1_555
O37 Sr1 2.805449 1_555
