# generated using pymatgen
data_ZrNiP2
_symmetry_space_group_name_H-M   'P 1'
_cell_length_a   3.59305445
_cell_length_b   3.59305445
_cell_length_c   8.95212443
_cell_angle_alpha   90.00000000
_cell_angle_beta   90.00000000
_cell_angle_gamma   90.00000000
_symmetry_Int_Tables_number   1
_chemical_formula_structural   ZrNiP2
_chemical_formula_sum   'Zr2 Ni2 P4'
_cell_volume   115.57228699
_cell_formula_units_Z   2
loop_
 _symmetry_equiv_pos_site_id
 _symmetry_equiv_pos_as_xyz
  1  'x, y, z'
loop_
 _atom_site_type_symbol
 _atom_site_label
 _atom_site_symmetry_multiplicity
 _atom_site_fract_x
 _atom_site_fract_y
 _atom_site_fract_z
 _atom_site_occupancy
  Zr  Zr0  1  -0.00000000  0.50000000  0.76963251  1
  Zr  Zr1  1  0.50000000  0.00000000  0.23036749  1
  Ni  Ni0  1  0.50000000  0.50000000  0.50000000  1
  Ni  Ni1  1  0.00000000  0.00000000  0.50000000  1
  P  P0  1  0.50000000  0.50000000  -0.00000000  1
  P  P1  1  -0.00000000  -0.00000000  0.00000000  1
  P  P2  1  -0.00000000  0.50000000  0.34685064  1
  P  P3  1  0.50000000  -0.00000000  0.65314936  1
loop_
_geom_bond_atom_site_label_1
_geom_bond_atom_site_label_2
_geom_bond_distance
_geom_bond_site_symmetry_2
Ni0 P2 2.259908 1_555
Ni0 P2 2.259908 1_655
Ni0 P3 2.259908 1_555
Ni0 P3 2.259908 1_565
Ni1 P2 2.259908 1_545
Ni1 P2 2.259908 1_555
Ni1 P3 2.259908 1_555
Ni1 P3 2.259908 1_455
P0 P1 2.540673 1_655
P0 P1 2.540673 1_565
P0 P1 2.540673 1_555
P0 P1 2.540673 1_665
P0 Zr0 2.735051 1_654
P0 Zr1 2.735051 1_565
P0 Zr0 2.735051 1_554
P0 Zr1 2.735051 1_555
P1 Zr0 2.735051 1_554
P1 Zr1 2.735051 1_555
P1 Zr1 2.735051 1_455
P1 Zr0 2.735051 1_544
P2 Zr1 2.746342 1_565
P2 Zr1 2.746342 1_465
P2 Zr1 2.746342 1_555
P2 Zr1 2.746342 1_455
P3 Zr0 2.746342 1_655
P3 Zr0 2.746342 1_545
P3 Zr0 2.746342 1_645
P3 Zr0 2.746342 1_555
