# generated using pymatgen
data_Lu4CrS7
_symmetry_space_group_name_H-M   'P 1'
_cell_length_a   3.71921000
_cell_length_b   6.40350313
_cell_length_c   11.20539801
_cell_angle_alpha   104.46272057
_cell_angle_beta   90.00000000
_cell_angle_gamma   73.11784548
_symmetry_Int_Tables_number   1
_chemical_formula_structural   Lu4CrS7
_chemical_formula_sum   'Lu4 Cr1 S7'
_cell_volume   246.51538558
_cell_formula_units_Z   1
loop_
 _symmetry_equiv_pos_site_id
 _symmetry_equiv_pos_as_xyz
  1  'x, y, z'
loop_
 _atom_site_type_symbol
 _atom_site_label
 _atom_site_symmetry_multiplicity
 _atom_site_fract_x
 _atom_site_fract_y
 _atom_site_fract_z
 _atom_site_occupancy
  Lu  Lu0  1  0.69430600  0.61138700  0.20292200  1
  Lu  Lu1  1  0.30606300  0.38787400  0.80402900  1
  Lu  Lu2  1  0.99930400  0.00139200  0.00529600  1
  Lu  Lu3  1  0.11361500  0.77277000  0.56645300  1
  Cr  Cr0  1  0.88537700  0.22924600  0.42342600  1
  S  S0  1  0.74680100  0.50639800  0.63686900  1
  S  S1  1  0.26751800  0.46496300  0.35352300  1
  S  S2  1  0.33808100  0.32383800  0.05141900  1
  S  S3  1  0.65952600  0.68094800  0.94794300  1
  S  S4  1  0.03200500  0.93599000  0.22700700  1
  S  S5  1  0.96347200  0.07305500  0.78471700  1
  S  S6  1  0.49393200  0.01213600  0.49639500  1
loop_
_geom_bond_atom_site_label_1
_geom_bond_atom_site_label_2
_geom_bond_distance
_geom_bond_site_symmetry_2
Lu0 S4 2.684575 1_555
Lu0 S4 2.684577 1_655
Lu0 S2 2.807717 1_555
Lu0 S2 2.807720 1_655
Lu0 S1 2.810923 1_555
Lu0 S1 2.810923 1_655
Lu0 S3 2.996770 1_554
Lu1 S5 2.647327 1_555
Lu1 S5 2.647329 1_455
Lu1 S3 2.787821 1_555
Lu1 S3 2.787821 1_455
Lu1 S0 2.864292 1_555
Lu1 S0 2.864292 1_455
Lu1 S2 2.899364 1_556
Lu2 S4 2.617700 1_645
Lu2 S5 2.620793 1_554
Lu2 S3 2.658553 1_544
Lu2 S3 2.658554 1_644
Lu2 S2 2.663830 1_655
Lu2 S2 2.663831 1_555
Lu3 S6 2.612798 1_565
Lu3 S6 2.612799 1_465
Lu3 S1 2.627001 1_555
Lu3 S5 2.649184 1_465
Lu3 S0 2.723430 1_455
Lu3 S0 2.723430 1_555
Cr0 S4 2.451264 1_645
Cr0 S6 2.542501 1_555
Cr0 S6 2.542501 1_655
Cr0 S0 2.546402 1_555
Cr0 S1 2.597773 1_655
Cr0 S1 2.597776 1_555
