# generated using pymatgen
data_TaSiGe
_symmetry_space_group_name_H-M   'P 1'
_cell_length_a   4.91063108
_cell_length_b   4.91063108
_cell_length_c   6.70063900
_cell_angle_alpha   90.00000000
_cell_angle_beta   90.00000000
_cell_angle_gamma   119.99998762
_symmetry_Int_Tables_number   1
_chemical_formula_structural   TaSiGe
_chemical_formula_sum   'Ta3 Si3 Ge3'
_cell_volume   139.93344409
_cell_formula_units_Z   3
loop_
 _symmetry_equiv_pos_site_id
 _symmetry_equiv_pos_as_xyz
  1  'x, y, z'
loop_
 _atom_site_type_symbol
 _atom_site_label
 _atom_site_symmetry_multiplicity
 _atom_site_fract_x
 _atom_site_fract_y
 _atom_site_fract_z
 _atom_site_occupancy
  Ta  Ta0  1  0.33704800  0.16852400  0.50000000  1
  Ta  Ta1  1  0.83147600  0.16852400  0.16666700  1
  Ta  Ta2  1  0.83147600  0.66295200  0.83333300  1
  Si  Si0  1  0.00873300  0.50436600  0.50000000  1
  Si  Si1  1  0.49563400  0.50436600  0.16666700  1
  Si  Si2  1  0.49563400  0.99126700  0.83333300  1
  Ge  Ge0  1  0.65631000  0.82815500  0.50000000  1
  Ge  Ge1  1  0.17184500  0.82815500  0.16666700  1
  Ge  Ge2  1  0.17184500  0.34369000  0.83333300  1
loop_
_geom_bond_atom_site_label_1
_geom_bond_atom_site_label_2
_geom_bond_distance
_geom_bond_site_symmetry_2
Si0 Ta1 2.651548 1_455
Si0 Ta2 2.651550 1_455
Si0 Ta0 2.824542 1_555
Si0 Ta0 2.824546 1_565
Si0 Ta0 2.856496 1_455
Si1 Ta0 2.651548 1_555
Si1 Ta2 2.651554 1_554
Si1 Ta1 2.824546 1_565
Si1 Ta1 2.824546 1_455
Si1 Ta1 2.856491 1_555
Si2 Ta0 2.651550 1_565
Si2 Ta1 2.651554 1_566
Si2 Ta2 2.824542 1_555
Si2 Ta2 2.824546 1_455
Si2 Ta2 2.856496 1_565
Ge0 Si2 2.623897 1_555
Ge0 Si1 2.623900 1_555
Ge0 Ta2 2.661685 1_555
Ge0 Ta1 2.661685 1_565
Ge0 Si0 2.753971 1_555
Ge0 Ta0 2.805712 1_565
Ge0 Ta0 2.805712 1_555
Ge0 Si0 2.876603 1_665
Ge0 Si0 2.876607 1_655
Ge0 Ta0 2.894996 1_665
Ge1 Si0 2.623900 1_555
Ge1 Si2 2.623906 1_554
Ge1 Ta0 2.661685 1_565
Ge1 Ta2 2.661691 1_454
Ge1 Si1 2.753975 1_555
Ge1 Ta1 2.805712 1_565
Ge1 Ta1 2.805712 1_455
Ge1 Si1 2.876603 1_565
Ge1 Si1 2.876603 1_455
Ge1 Ta1 2.894996 1_465
Ge2 Si0 2.623897 1_555
Ge2 Si1 2.623906 1_556
Ge2 Ta0 2.661685 1_555
Ge2 Ta1 2.661691 1_456
Ge2 Si2 2.753971 1_555
Ge2 Ta2 2.805712 1_455
Ge2 Ta2 2.805712 1_555
Ge2 Si2 2.876603 1_445
Ge2 Si2 2.876607 1_545
Ge2 Ta2 2.894996 1_445
