# generated using pymatgen
data_SrZn5
_symmetry_space_group_name_H-M   'P 1'
_cell_length_a   5.26916317
_cell_length_b   6.61929882
_cell_length_c   12.91665022
_cell_angle_alpha   90.00000000
_cell_angle_beta   90.00000000
_cell_angle_gamma   90.00000000
_symmetry_Int_Tables_number   1
_chemical_formula_structural   SrZn5
_chemical_formula_sum   'Sr4 Zn20'
_cell_volume   450.50906477
_cell_formula_units_Z   4
loop_
 _symmetry_equiv_pos_site_id
 _symmetry_equiv_pos_as_xyz
  1  'x, y, z'
loop_
 _atom_site_type_symbol
 _atom_site_label
 _atom_site_symmetry_multiplicity
 _atom_site_fract_x
 _atom_site_fract_y
 _atom_site_fract_z
 _atom_site_occupancy
  Sr  Sr0  1  0.25000000  0.64298303  0.91114292  1
  Sr  Sr1  1  0.75000000  0.35701697  0.08885708  1
  Sr  Sr2  1  0.75000000  0.14298303  0.58885708  1
  Sr  Sr3  1  0.25000000  0.85701697  0.41114292  1
  Zn  Zn0  1  0.25000000  0.40578526  0.51974846  1
  Zn  Zn1  1  0.75000000  0.59421474  0.48025154  1
  Zn  Zn2  1  0.75000000  0.90578526  0.98025154  1
  Zn  Zn3  1  0.25000000  0.09421474  0.01974846  1
  Zn  Zn4  1  0.25000000  0.16227058  0.21278253  1
  Zn  Zn5  1  0.75000000  0.83772942  0.78721747  1
  Zn  Zn6  1  0.75000000  0.66227058  0.28721747  1
  Zn  Zn7  1  0.25000000  0.33772942  0.71278253  1
  Zn  Zn8  1  0.25000000  0.54600998  0.20639128  1
  Zn  Zn9  1  0.75000000  0.45399002  0.79360872  1
  Zn  Zn10  1  0.75000000  0.04600998  0.29360872  1
  Zn  Zn11  1  0.25000000  0.95399002  0.70639128  1
  Zn  Zn12  1  0.99988830  0.34903909  0.35524188  1
  Zn  Zn13  1  0.49988830  0.65096091  0.64475812  1
  Zn  Zn14  1  0.00011170  0.84903909  0.14475812  1
  Zn  Zn15  1  0.50011170  0.15096091  0.85524188  1
  Zn  Zn16  1  0.00011170  0.65096091  0.64475812  1
  Zn  Zn17  1  0.50011170  0.34903909  0.35524188  1
  Zn  Zn18  1  0.99988830  0.15096091  0.85524188  1
  Zn  Zn19  1  0.49988830  0.84903909  0.14475812  1
loop_
_geom_bond_atom_site_label_1
_geom_bond_atom_site_label_2
_geom_bond_distance
_geom_bond_site_symmetry_2
Sr0 Zn7 3.263021 1_555
Sr0 Zn2 3.280844 1_555
Sr0 Zn2 3.280844 1_455
Sr0 Zn9 3.287978 1_455
Sr0 Zn9 3.287978 1_555
Sr0 Zn3 3.299864 1_566
Sr0 Zn5 3.341408 1_555
Sr0 Zn5 3.341408 1_455
Sr0 Zn11 3.351492 1_555
Sr0 Zn19 3.563638 1_556
Sr0 Zn14 3.563638 1_556
Sr0 Zn15 3.586807 1_555
Sr0 Zn18 3.586807 1_455
Sr0 Zn15 3.682973 1_565
Sr0 Zn18 3.682973 1_465
Sr0 Zn13 3.684507 1_555
Sr0 Zn16 3.684507 1_555
Sr0 Zn8 3.867263 1_556
Sr0 Zn3 3.893928 1_556
Sr0 Sr1 3.974074 1_456
Sr0 Sr1 3.974074 1_556
Sr1 Zn6 3.263021 1_555
Sr1 Zn3 3.280844 1_655
Sr1 Zn3 3.280844 1_555
Sr1 Zn8 3.287978 1_655
Sr1 Zn8 3.287978 1_555
Sr1 Zn2 3.299864 1_544
Sr1 Zn4 3.341408 1_555
Sr1 Zn4 3.341408 1_655
Sr1 Zn10 3.351492 1_555
Sr1 Zn18 3.563638 1_554
Sr1 Zn15 3.563638 1_554
Sr1 Zn14 3.586807 1_655
Sr1 Zn19 3.586807 1_555
Sr1 Zn14 3.682973 1_645
Sr1 Zn19 3.682973 1_545
Sr1 Zn12 3.684507 1_555
Sr1 Zn17 3.684507 1_555
Sr1 Zn9 3.867263 1_554
Sr1 Zn2 3.893928 1_554
Sr2 Zn5 3.263021 1_545
Sr2 Zn0 3.280844 1_655
Sr2 Zn0 3.280844 1_555
Sr2 Zn11 3.287978 1_645
Sr2 Zn11 3.287978 1_545
Sr2 Zn1 3.299864 1_555
Sr2 Zn7 3.341408 1_555
Sr2 Zn7 3.341408 1_655
Sr2 Zn9 3.351492 1_555
Sr2 Zn12 3.563638 1_555
Sr2 Zn17 3.563638 1_555
Sr2 Zn16 3.586807 1_645
Sr2 Zn13 3.586807 1_545
Sr2 Zn16 3.682973 1_655
Sr2 Zn13 3.682973 1_555
Sr2 Zn18 3.684507 1_555
Sr2 Zn15 3.684507 1_555
Sr2 Zn10 3.867263 1_555
Sr2 Zn1 3.893928 1_545
Sr2 Sr3 3.974074 1_545
Sr2 Sr3 3.974074 1_645
Sr3 Zn4 3.263021 1_565
Sr3 Zn1 3.280844 1_455
Sr3 Zn1 3.280844 1_555
Sr3 Zn10 3.287978 1_565
Sr3 Zn10 3.287978 1_465
Sr3 Zn0 3.299864 1_555
Sr3 Zn6 3.341408 1_555
Sr3 Zn6 3.341408 1_455
Sr3 Zn8 3.351492 1_555
Sr3 Zn13 3.563638 1_555
Sr3 Zn16 3.563638 1_555
Sr3 Zn17 3.586807 1_565
Sr3 Zn12 3.586807 1_465
Sr3 Zn17 3.682973 1_555
Sr3 Zn12 3.682973 1_455
Sr3 Zn19 3.684507 1_555
Sr3 Zn14 3.684507 1_555
Sr3 Zn11 3.867263 1_555
Sr3 Zn0 3.893928 1_565
Zn0 Zn17 2.528435 1_555
Zn0 Zn12 2.528435 1_455
Zn0 Zn7 2.533722 1_555
Zn0 Zn13 2.640976 1_555
Zn0 Zn16 2.640976 1_555
Zn0 Zn1 2.959219 1_555
Zn0 Zn1 2.959219 1_455
Zn1 Zn16 2.528435 1_655
Zn1 Zn13 2.528435 1_555
Zn1 Zn6 2.533722 1_555
Zn1 Zn12 2.640976 1_555
Zn1 Zn17 2.640976 1_555
Zn2 Zn5 2.533722 1_555
Zn2 Zn3 2.959219 1_666
Zn2 Zn3 2.959219 1_566
Zn3 Zn4 2.533722 1_555
Zn4 Zn8 2.541427 1_555
Zn5 Zn9 2.541427 1_555
Zn6 Zn8 2.936527 1_655
Zn6 Zn8 2.936527 1_555
Zn7 Zn9 2.936527 1_555
Zn7 Zn9 2.936527 1_455
Zn10 Zn12 2.528016 1_555
Zn10 Zn17 2.528016 1_555
Zn10 Zn6 2.541427 1_545
Zn10 Zn14 2.670826 1_645
Zn10 Zn19 2.670826 1_545
Zn10 Zn4 2.936527 1_555
Zn10 Zn4 2.936527 1_655
Zn11 Zn13 2.528016 1_555
Zn11 Zn16 2.528016 1_555
Zn11 Zn7 2.541427 1_565
Zn11 Zn15 2.670826 1_565
Zn11 Zn18 2.670826 1_465
Zn11 Zn5 2.936527 1_455
Zn11 Zn5 2.936527 1_555
Zn12 Zn4 2.578981 1_655
Zn12 Zn6 2.608563 1_555
Zn12 Zn17 2.633404 1_555
Zn12 Zn17 2.635759 1_655
Zn12 Zn8 2.670826 1_655
Zn13 Zn5 2.578981 1_555
Zn13 Zn7 2.608563 1_555
Zn13 Zn16 2.633404 1_555
Zn13 Zn16 2.635759 1_655
Zn13 Zn9 2.670826 1_555
Zn14 Zn8 2.528016 1_555
Zn14 Zn2 2.528435 1_454
Zn14 Zn6 2.578981 1_455
Zn14 Zn4 2.608563 1_565
Zn14 Zn19 2.633404 1_555
Zn14 Zn19 2.635759 1_455
Zn14 Zn3 2.640976 1_565
Zn15 Zn9 2.528016 1_555
Zn15 Zn3 2.528435 1_556
Zn15 Zn7 2.578981 1_555
Zn15 Zn5 2.608563 1_545
Zn15 Zn18 2.633404 1_555
Zn15 Zn18 2.635759 1_455
Zn15 Zn2 2.640976 1_545
Zn16 Zn5 2.578981 1_455
Zn16 Zn7 2.608563 1_555
Zn16 Zn9 2.670826 1_455
Zn17 Zn4 2.578981 1_555
Zn17 Zn6 2.608563 1_555
Zn17 Zn8 2.670826 1_555
Zn18 Zn9 2.528016 1_555
Zn18 Zn3 2.528435 1_656
Zn18 Zn7 2.578981 1_655
Zn18 Zn5 2.608563 1_545
Zn18 Zn2 2.640976 1_545
Zn19 Zn8 2.528016 1_555
Zn19 Zn2 2.528435 1_554
Zn19 Zn6 2.578981 1_555
Zn19 Zn4 2.608563 1_565
Zn19 Zn3 2.640976 1_565
