# generated using pymatgen
data_Ti2Cr4Si5
_symmetry_space_group_name_H-M   'P 1'
_cell_length_a   8.98858872
_cell_length_b   8.98839236
_cell_length_c   8.98846330
_cell_angle_alpha   149.32368146
_cell_angle_beta   131.50930330
_cell_angle_gamma   58.48026183
_symmetry_Int_Tables_number   1
_chemical_formula_structural   Ti2Cr4Si5
_chemical_formula_sum   'Ti4 Cr8 Si10'
_cell_volume   275.32244025
_cell_formula_units_Z   2
loop_
 _symmetry_equiv_pos_site_id
 _symmetry_equiv_pos_as_xyz
  1  'x, y, z'
loop_
 _atom_site_type_symbol
 _atom_site_label
 _atom_site_symmetry_multiplicity
 _atom_site_fract_x
 _atom_site_fract_y
 _atom_site_fract_z
 _atom_site_occupancy
  Ti  Ti0  1  0.74278855  0.35826198  0.38462124  1
  Ti  Ti1  1  0.25723987  0.64172786  0.61541753  1
  Ti  Ti2  1  0.97365924  0.85824999  0.11546883  1
  Ti  Ti3  1  0.02631970  0.14174516  0.88451349  1
  Cr  Cr0  1  0.30799611  0.55797874  0.25001275  1
  Cr  Cr1  1  0.69198419  0.44201319  0.74996346  1
  Cr  Cr2  1  0.69201919  0.94196501  0.24995379  1
  Cr  Cr3  1  0.30796378  0.05803756  0.75003598  1
  Cr  Cr4  1  0.31541865  0.06404756  0.25146983  1
  Cr  Cr5  1  0.68462067  0.93595926  0.74856296  1
  Cr  Cr6  1  0.81258371  0.56403546  0.24861927  1
  Cr  Cr7  1  0.18740337  0.43597772  0.75136058  1
  Si  Si0  1  0.42066203  0.21262447  0.20798680  1
  Si  Si1  1  0.57935617  0.78736885  0.79203814  1
  Si  Si2  1  0.00466314  0.71261766  0.29195444  1
  Si  Si3  1  0.99529541  0.28737629  0.70800727  1
  Si  Si4  1  0.99997472  0.24999723  0.24997502  1
  Si  Si5  1  0.00004208  0.75000270  0.75004179  1
  Si  Si6  1  0.51735482  0.43589409  0.08152924  1
  Si  Si7  1  0.48265139  0.56410915  0.91847231  1
  Si  Si8  1  0.35438082  0.93588147  0.41853215  1
  Si  Si9  1  0.64562138  0.06412960  0.58146013  1
loop_
_geom_bond_atom_site_label_1
_geom_bond_atom_site_label_2
_geom_bond_distance
_geom_bond_site_symmetry_2
Cr0 Cr3 2.377306 1_554
Cr0 Cr3 2.377849 1_565
Cr0 Si6 2.408041 1_555
Cr0 Si8 2.408204 1_555
Cr0 Si2 2.450850 1_555
Cr0 Si0 2.450983 1_555
Cr0 Si1 2.482887 1_555
Cr0 Si3 2.483085 1_454
Cr1 Cr2 2.377357 1_556
Cr1 Cr2 2.377798 1_545
Cr1 Si7 2.407939 1_555
Cr1 Si9 2.408043 1_555
Cr1 Si3 2.450726 1_555
Cr1 Si1 2.450755 1_555
Cr1 Si0 2.482590 1_555
Cr1 Si2 2.482968 1_656
Cr2 Si7 2.407946 1_554
Cr2 Si9 2.408048 1_565
Cr2 Si1 2.450703 1_554
Cr2 Si3 2.450816 1_565
Cr2 Si0 2.482884 1_565
Cr2 Si2 2.482886 1_655
Cr3 Si6 2.408044 1_556
Cr3 Si8 2.408210 1_545
Cr3 Si0 2.450920 1_556
Cr3 Si2 2.450956 1_545
Cr3 Si3 2.483018 1_455
Cr3 Si1 2.483159 1_545
Cr4 Si0 2.353715 1_555
Cr4 Si8 2.358263 1_545
Cr4 Si5 2.421801 1_544
Cr4 Si4 2.422034 1_455
Cr4 Si9 2.436531 1_555
Cr4 Si7 2.678106 1_555
Cr4 Si7 2.678878 1_544
Cr5 Si1 2.353916 1_555
Cr5 Si9 2.358472 1_565
Cr5 Si4 2.421668 1_566
Cr5 Si5 2.421901 1_655
Cr5 Si8 2.436834 1_555
Cr5 Si6 2.678213 1_555
Cr5 Si6 2.678977 1_566
Cr6 Si2 2.353910 1_655
Cr6 Si6 2.358354 1_555
Cr6 Si4 2.421910 1_555
Cr6 Si5 2.422068 1_655
Cr6 Si7 2.436686 1_554
Cr6 Si9 2.678376 1_565
Cr6 Si9 2.678750 1_554
Cr7 Si3 2.354154 1_455
Cr7 Si7 2.358369 1_555
Cr7 Si5 2.421610 1_555
Cr7 Si4 2.421782 1_455
Cr7 Si6 2.436874 1_556
Cr7 Si8 2.678437 1_545
Cr7 Si8 2.678790 1_556
Si0 Ti0 2.629216 1_555
Si0 Ti3 2.634034 1_554
Si0 Ti1 2.712090 1_555
Si0 Ti1 2.712182 1_544
Si1 Ti1 2.629214 1_555
Si1 Ti2 2.633771 1_556
Si1 Ti0 2.712093 1_555
Si1 Ti0 2.712185 1_566
Si2 Ti2 2.629082 1_455
Si2 Ti1 2.634081 1_555
Si2 Ti3 2.712130 1_554
Si2 Ti3 2.712281 1_565
Si3 Ti3 2.629148 1_655
Si3 Ti0 2.633539 1_555
Si3 Ti2 2.712099 1_556
Si3 Ti2 2.712244 1_545
Si4 Si5 2.377566 1_644
Si4 Si5 2.377589 1_655
Si4 Ti2 2.661834 1_545
Si4 Ti1 2.661837 1_655
Si4 Ti3 2.661915 1_654
Si4 Ti0 2.662008 1_555
Si5 Ti3 2.661859 1_565
Si5 Ti2 2.661887 1_456
Si5 Ti0 2.661919 1_455
Si5 Ti1 2.661926 1_555
Si6 Si7 2.344579 1_554
Si6 Ti0 2.547406 1_555
Si6 Si8 2.664616 1_555
Si6 Si8 2.664709 1_544
Si7 Ti1 2.547064 1_555
Si7 Si9 2.664576 1_555
Si7 Si9 2.664679 1_566
Si8 Si9 2.344445 1_565
Si8 Ti2 2.547413 1_455
Si9 Ti3 2.547248 1_655
