# generated using pymatgen
data_KMg6C
_symmetry_space_group_name_H-M   'P 1'
_cell_length_a   6.22319200
_cell_length_b   17.23039800
_cell_length_c   30.02112800
_cell_angle_alpha   90.00000000
_cell_angle_beta   90.00000000
_cell_angle_gamma   90.00000000
_symmetry_Int_Tables_number   1
_chemical_formula_structural   KMg6C
_chemical_formula_sum   'K16 Mg96 C16'
_cell_volume   3219.10776448
_cell_formula_units_Z   16
loop_
 _symmetry_equiv_pos_site_id
 _symmetry_equiv_pos_as_xyz
  1  'x, y, z'
loop_
 _atom_site_type_symbol
 _atom_site_label
 _atom_site_symmetry_multiplicity
 _atom_site_fract_x
 _atom_site_fract_y
 _atom_site_fract_z
 _atom_site_occupancy
  K  K0_0  1  0.25000000  0.00000000  0.09004600  1
  K  K0_1  1  0.25000000  0.00000000  0.59004600  1
  K  K0_2  1  0.25000000  0.50000000  0.09004600  1
  K  K0_3  1  0.25000000  0.50000000  0.59004600  1
  K  K0_4  1  0.75000000  0.00000000  0.09004600  1
  K  K0_5  1  0.75000000  0.00000000  0.59004600  1
  K  K0_6  1  0.75000000  0.50000000  0.09004600  1
  K  K0_7  1  0.75000000  0.50000000  0.59004600  1
  K  K1_0  1  0.25000000  0.25000000  0.34004600  1
  K  K1_1  1  0.25000000  0.25000000  0.84004600  1
  K  K1_2  1  0.25000000  0.75000000  0.34004600  1
  K  K1_3  1  0.25000000  0.75000000  0.84004600  1
  K  K1_4  1  0.75000000  0.25000000  0.34004600  1
  K  K1_5  1  0.75000000  0.25000000  0.84004600  1
  K  K1_6  1  0.75000000  0.75000000  0.34004600  1
  K  K1_7  1  0.75000000  0.75000000  0.84004600  1
  Mg  Mg0_0  1  0.25000000  0.16100150  0.21218200  1
  Mg  Mg0_1  1  0.25000000  0.16100150  0.71218200  1
  Mg  Mg0_2  1  0.25000000  0.66100150  0.21218200  1
  Mg  Mg0_3  1  0.25000000  0.66100150  0.71218200  1
  Mg  Mg0_4  1  0.75000000  0.16100150  0.21218200  1
  Mg  Mg0_5  1  0.75000000  0.16100150  0.71218200  1
  Mg  Mg0_6  1  0.75000000  0.66100150  0.21218200  1
  Mg  Mg0_7  1  0.75000000  0.66100150  0.71218200  1
  Mg  Mg1_0  1  0.25000000  0.33899850  0.21218200  1
  Mg  Mg1_1  1  0.25000000  0.33899850  0.71218200  1
  Mg  Mg1_2  1  0.25000000  0.83899850  0.21218200  1
  Mg  Mg1_3  1  0.25000000  0.83899850  0.71218200  1
  Mg  Mg1_4  1  0.75000000  0.33899850  0.21218200  1
  Mg  Mg1_5  1  0.75000000  0.33899850  0.71218200  1
  Mg  Mg1_6  1  0.75000000  0.83899850  0.21218200  1
  Mg  Mg1_7  1  0.75000000  0.83899850  0.71218200  1
  Mg  Mg2_0  1  0.00000000  0.32886400  0.04221850  1
  Mg  Mg2_1  1  0.00000000  0.32886400  0.54221850  1
  Mg  Mg2_2  1  0.00000000  0.82886400  0.04221850  1
  Mg  Mg2_3  1  0.00000000  0.82886400  0.54221850  1
  Mg  Mg2_4  1  0.50000000  0.32886400  0.04221850  1
  Mg  Mg2_5  1  0.50000000  0.32886400  0.54221850  1
  Mg  Mg2_6  1  0.50000000  0.82886400  0.04221850  1
  Mg  Mg2_7  1  0.50000000  0.82886400  0.54221850  1
  Mg  Mg3_0  1  0.00000000  0.17113600  0.04221850  1
  Mg  Mg3_1  1  0.00000000  0.17113600  0.54221850  1
  Mg  Mg3_2  1  0.00000000  0.67113600  0.04221850  1
  Mg  Mg3_3  1  0.00000000  0.67113600  0.54221850  1
  Mg  Mg3_4  1  0.50000000  0.17113600  0.04221850  1
  Mg  Mg3_5  1  0.50000000  0.17113600  0.54221850  1
  Mg  Mg3_6  1  0.50000000  0.67113600  0.04221850  1
  Mg  Mg3_7  1  0.50000000  0.67113600  0.54221850  1
  Mg  Mg4_0  1  0.00000000  0.00000000  0.19827300  1
  Mg  Mg4_1  1  0.00000000  0.00000000  0.69827300  1
  Mg  Mg4_2  1  0.00000000  0.50000000  0.19827300  1
  Mg  Mg4_3  1  0.00000000  0.50000000  0.69827300  1
  Mg  Mg4_4  1  0.50000000  0.00000000  0.19827300  1
  Mg  Mg4_5  1  0.50000000  0.00000000  0.69827300  1
  Mg  Mg4_6  1  0.50000000  0.50000000  0.19827300  1
  Mg  Mg4_7  1  0.50000000  0.50000000  0.69827300  1
  Mg  Mg5_0  1  0.00000000  0.25000000  0.12885050  1
  Mg  Mg5_1  1  0.00000000  0.25000000  0.62885050  1
  Mg  Mg5_2  1  0.00000000  0.75000000  0.12885050  1
  Mg  Mg5_3  1  0.00000000  0.75000000  0.62885050  1
  Mg  Mg5_4  1  0.50000000  0.25000000  0.12885050  1
  Mg  Mg5_5  1  0.50000000  0.25000000  0.62885050  1
  Mg  Mg5_6  1  0.50000000  0.75000000  0.12885050  1
  Mg  Mg5_7  1  0.50000000  0.75000000  0.62885050  1
  Mg  Mg6_0  1  0.25000000  0.41100150  0.46218200  1
  Mg  Mg6_1  1  0.25000000  0.41100150  0.96218200  1
  Mg  Mg6_2  1  0.25000000  0.91100150  0.46218200  1
  Mg  Mg6_3  1  0.25000000  0.91100150  0.96218200  1
  Mg  Mg6_4  1  0.75000000  0.41100150  0.46218200  1
  Mg  Mg6_5  1  0.75000000  0.41100150  0.96218200  1
  Mg  Mg6_6  1  0.75000000  0.91100150  0.46218200  1
  Mg  Mg6_7  1  0.75000000  0.91100150  0.96218200  1
  Mg  Mg7_0  1  0.25000000  0.08899850  0.46218200  1
  Mg  Mg7_1  1  0.25000000  0.08899850  0.96218200  1
  Mg  Mg7_2  1  0.25000000  0.58899850  0.46218200  1
  Mg  Mg7_3  1  0.25000000  0.58899850  0.96218200  1
  Mg  Mg7_4  1  0.75000000  0.08899850  0.46218200  1
  Mg  Mg7_5  1  0.75000000  0.08899850  0.96218200  1
  Mg  Mg7_6  1  0.75000000  0.58899850  0.46218200  1
  Mg  Mg7_7  1  0.75000000  0.58899850  0.96218200  1
  Mg  Mg8_0  1  0.00000000  0.07886400  0.29221850  1
  Mg  Mg8_1  1  0.00000000  0.07886400  0.79221850  1
  Mg  Mg8_2  1  0.00000000  0.57886400  0.29221850  1
  Mg  Mg8_3  1  0.00000000  0.57886400  0.79221850  1
  Mg  Mg8_4  1  0.50000000  0.07886400  0.29221850  1
  Mg  Mg8_5  1  0.50000000  0.07886400  0.79221850  1
  Mg  Mg8_6  1  0.50000000  0.57886400  0.29221850  1
  Mg  Mg8_7  1  0.50000000  0.57886400  0.79221850  1
  Mg  Mg9_0  1  0.00000000  0.42113600  0.29221850  1
  Mg  Mg9_1  1  0.00000000  0.42113600  0.79221850  1
  Mg  Mg9_2  1  0.00000000  0.92113600  0.29221850  1
  Mg  Mg9_3  1  0.00000000  0.92113600  0.79221850  1
  Mg  Mg9_4  1  0.50000000  0.42113600  0.29221850  1
  Mg  Mg9_5  1  0.50000000  0.42113600  0.79221850  1
  Mg  Mg9_6  1  0.50000000  0.92113600  0.29221850  1
  Mg  Mg9_7  1  0.50000000  0.92113600  0.79221850  1
  Mg  Mg10_0  1  0.00000000  0.25000000  0.44827300  1
  Mg  Mg10_1  1  0.00000000  0.25000000  0.94827300  1
  Mg  Mg10_2  1  0.00000000  0.75000000  0.44827300  1
  Mg  Mg10_3  1  0.00000000  0.75000000  0.94827300  1
  Mg  Mg10_4  1  0.50000000  0.25000000  0.44827300  1
  Mg  Mg10_5  1  0.50000000  0.25000000  0.94827300  1
  Mg  Mg10_6  1  0.50000000  0.75000000  0.44827300  1
  Mg  Mg10_7  1  0.50000000  0.75000000  0.94827300  1
  Mg  Mg11_0  1  0.00000000  0.00000000  0.37885050  1
  Mg  Mg11_1  1  0.00000000  0.00000000  0.87885050  1
  Mg  Mg11_2  1  0.00000000  0.50000000  0.37885050  1
  Mg  Mg11_3  1  0.00000000  0.50000000  0.87885050  1
  Mg  Mg11_4  1  0.50000000  0.00000000  0.37885050  1
  Mg  Mg11_5  1  0.50000000  0.00000000  0.87885050  1
  Mg  Mg11_6  1  0.50000000  0.50000000  0.37885050  1
  Mg  Mg11_7  1  0.50000000  0.50000000  0.87885050  1
  C  C0_0  1  0.25000000  0.25000000  0.07402700  1
  C  C0_1  1  0.25000000  0.25000000  0.57402700  1
  C  C0_2  1  0.25000000  0.75000000  0.07402700  1
  C  C0_3  1  0.25000000  0.75000000  0.57402700  1
  C  C0_4  1  0.75000000  0.25000000  0.07402700  1
  C  C0_5  1  0.75000000  0.25000000  0.57402700  1
  C  C0_6  1  0.75000000  0.75000000  0.07402700  1
  C  C0_7  1  0.75000000  0.75000000  0.57402700  1
  C  C1_0  1  0.25000000  0.00000000  0.32402700  1
  C  C1_1  1  0.25000000  0.00000000  0.82402700  1
  C  C1_2  1  0.25000000  0.50000000  0.32402700  1
  C  C1_3  1  0.25000000  0.50000000  0.82402700  1
  C  C1_4  1  0.75000000  0.00000000  0.32402700  1
  C  C1_5  1  0.75000000  0.00000000  0.82402700  1
  C  C1_6  1  0.75000000  0.50000000  0.32402700  1
  C  C1_7  1  0.75000000  0.50000000  0.82402700  1
loop_
_geom_bond_atom_site_label_1
_geom_bond_atom_site_label_2
_geom_bond_distance
_geom_bond_site_symmetry_2
K0_0 K0_4 3.111596 1_455
K0_0 K0_4 3.111596 1_555
K0_0 Mg4_0 3.602379 1_555
K0_0 Mg4_4 3.602379 1_555
K0_0 Mg3_0 3.630042 1_555
K0_0 Mg3_4 3.630042 1_555
K0_0 Mg2_6 3.630042 1_545
K0_0 Mg2_2 3.630042 1_545
K0_0 Mg7_1 4.133591 1_554
K0_0 Mg6_3 4.133591 1_544
K0_1 K0_5 3.111596 1_455
K0_1 K0_5 3.111596 1_555
K0_1 Mg4_5 3.602379 1_555
K0_1 Mg4_1 3.602379 1_555
K0_1 Mg3_1 3.630042 1_555
K0_1 Mg3_5 3.630042 1_555
K0_1 Mg2_3 3.630042 1_545
K0_1 Mg2_7 3.630042 1_545
K0_1 Mg7_0 4.133591 1_555
K0_1 Mg6_2 4.133591 1_545
K0_2 K0_6 3.111596 1_555
K0_2 K0_6 3.111596 1_455
K0_2 Mg4_2 3.602379 1_555
K0_2 Mg4_6 3.602379 1_555
K0_2 Mg3_2 3.630042 1_555
K0_2 Mg3_6 3.630042 1_555
K0_2 Mg2_0 3.630042 1_555
K0_2 Mg2_4 3.630042 1_555
K0_2 Mg7_3 4.133591 1_554
K0_2 Mg6_1 4.133591 1_554
K0_3 K0_7 3.111596 1_555
K0_3 K0_7 3.111596 1_455
K0_3 Mg4_3 3.602379 1_555
K0_3 Mg4_7 3.602379 1_555
K0_3 Mg3_7 3.630042 1_555
K0_3 Mg3_3 3.630042 1_555
K0_3 Mg2_5 3.630042 1_555
K0_3 Mg2_1 3.630042 1_555
K0_3 Mg7_2 4.133591 1_555
K0_3 Mg6_0 4.133591 1_555
K0_4 Mg4_0 3.602379 1_655
K0_4 Mg4_4 3.602379 1_555
K0_4 Mg3_4 3.630042 1_555
K0_4 Mg3_0 3.630042 1_655
K0_4 Mg2_6 3.630042 1_545
K0_4 Mg2_2 3.630042 1_645
K0_4 Mg7_5 4.133591 1_554
K0_4 Mg6_7 4.133591 1_544
K0_5 Mg4_1 3.602379 1_655
K0_5 Mg4_5 3.602379 1_555
K0_5 Mg3_1 3.630042 1_655
K0_5 Mg3_5 3.630042 1_555
K0_5 Mg2_3 3.630042 1_645
K0_5 Mg2_7 3.630042 1_545
K0_5 Mg7_4 4.133591 1_555
K0_5 Mg6_6 4.133591 1_545
K0_6 Mg4_2 3.602379 1_655
K0_6 Mg4_6 3.602379 1_555
K0_6 Mg3_2 3.630042 1_655
K0_6 Mg3_6 3.630042 1_555
K0_6 Mg2_0 3.630042 1_655
K0_6 Mg2_4 3.630042 1_555
K0_6 Mg7_7 4.133591 1_554
K0_6 Mg6_5 4.133591 1_554
K0_7 Mg4_3 3.602379 1_655
K0_7 Mg4_7 3.602379 1_555
K0_7 Mg3_7 3.630042 1_555
K0_7 Mg3_3 3.630042 1_655
K0_7 Mg2_5 3.630042 1_555
K0_7 Mg2_1 3.630042 1_655
K0_7 Mg7_6 4.133591 1_555
K0_7 Mg6_4 4.133591 1_555
K1_0 K1_4 3.111596 1_455
K1_0 K1_4 3.111596 1_555
K1_0 Mg10_0 3.602379 1_555
K1_0 Mg10_4 3.602379 1_555
K1_0 Mg9_0 3.630042 1_555
K1_0 Mg9_4 3.630042 1_555
K1_0 Mg8_0 3.630042 1_555
K1_0 Mg8_4 3.630042 1_555
K1_0 Mg1_0 4.133591 1_555
K1_0 Mg0_0 4.133591 1_555
K1_1 K1_5 3.111596 1_455
K1_1 K1_5 3.111596 1_555
K1_1 Mg10_5 3.602379 1_555
K1_1 Mg10_1 3.602379 1_555
K1_1 Mg9_1 3.630042 1_555
K1_1 Mg9_5 3.630042 1_555
K1_1 Mg8_1 3.630042 1_555
K1_1 Mg8_5 3.630042 1_555
K1_1 Mg1_1 4.133591 1_555
K1_1 Mg0_1 4.133591 1_555
K1_2 K1_6 3.111596 1_555
K1_2 K1_6 3.111596 1_455
K1_2 Mg10_2 3.602379 1_555
K1_2 Mg10_6 3.602379 1_555
K1_2 Mg9_2 3.630042 1_555
K1_2 Mg9_6 3.630042 1_555
K1_2 Mg8_2 3.630042 1_555
K1_2 Mg8_6 3.630042 1_555
K1_2 Mg0_2 4.133591 1_555
K1_2 Mg1_2 4.133591 1_555
K1_3 K1_7 3.111596 1_455
K1_3 K1_7 3.111596 1_555
K1_3 Mg10_3 3.602379 1_555
K1_3 Mg10_7 3.602379 1_555
K1_3 Mg9_3 3.630042 1_555
K1_3 Mg9_7 3.630042 1_555
K1_3 Mg8_3 3.630042 1_555
K1_3 Mg8_7 3.630042 1_555
K1_3 Mg1_3 4.133591 1_555
K1_3 Mg0_3 4.133591 1_555
K1_4 Mg10_0 3.602379 1_655
K1_4 Mg10_4 3.602379 1_555
K1_4 Mg9_0 3.630042 1_655
K1_4 Mg9_4 3.630042 1_555
K1_4 Mg8_4 3.630042 1_555
K1_4 Mg8_0 3.630042 1_655
K1_4 Mg1_4 4.133591 1_555
K1_4 Mg0_4 4.133591 1_555
K1_5 Mg10_5 3.602379 1_555
K1_5 Mg10_1 3.602379 1_655
K1_5 Mg9_1 3.630042 1_655
K1_5 Mg9_5 3.630042 1_555
K1_5 Mg8_1 3.630042 1_655
K1_5 Mg8_5 3.630042 1_555
K1_5 Mg1_5 4.133591 1_555
K1_5 Mg0_5 4.133591 1_555
K1_6 Mg10_2 3.602379 1_655
K1_6 Mg10_6 3.602379 1_555
K1_6 Mg9_2 3.630042 1_655
K1_6 Mg9_6 3.630042 1_555
K1_6 Mg8_6 3.630042 1_555
K1_6 Mg8_2 3.630042 1_655
K1_6 Mg0_6 4.133591 1_555
K1_6 Mg1_6 4.133591 1_555
K1_7 Mg10_3 3.602379 1_655
K1_7 Mg10_7 3.602379 1_555
K1_7 Mg9_3 3.630042 1_655
K1_7 Mg9_7 3.630042 1_555
K1_7 Mg8_7 3.630042 1_555
K1_7 Mg8_3 3.630042 1_655
K1_7 Mg0_7 4.133591 1_555
K1_7 Mg1_7 4.133591 1_555
Mg0_0 Mg1_0 3.066959 1_555
Mg0_0 Mg0_4 3.111596 1_455
Mg0_0 Mg0_4 3.111596 1_555
Mg0_0 Mg8_0 3.193251 1_555
Mg0_0 Mg8_4 3.193251 1_555
Mg0_0 Mg4_0 3.207898 1_555
Mg0_0 Mg4_4 3.207898 1_555
Mg0_0 Mg5_4 3.321234 1_555
Mg0_0 Mg5_0 3.321234 1_555
Mg0_1 Mg1_1 3.066959 1_555
Mg0_1 Mg0_5 3.111596 1_555
Mg0_1 Mg0_5 3.111596 1_455
Mg0_1 Mg8_1 3.193251 1_555
Mg0_1 Mg8_5 3.193251 1_555
Mg0_1 Mg4_5 3.207898 1_555
Mg0_1 Mg4_1 3.207898 1_555
Mg0_1 Mg5_5 3.321234 1_555
Mg0_1 Mg5_1 3.321234 1_555
Mg0_2 Mg1_2 3.066959 1_555
Mg0_2 Mg0_6 3.111596 1_455
Mg0_2 Mg0_6 3.111596 1_555
Mg0_2 Mg8_6 3.193251 1_555
Mg0_2 Mg8_2 3.193251 1_555
Mg0_2 Mg4_6 3.207898 1_555
Mg0_2 Mg4_2 3.207898 1_555
Mg0_2 Mg5_2 3.321234 1_555
Mg0_2 Mg5_6 3.321234 1_555
Mg0_3 Mg1_3 3.066959 1_555
Mg0_3 Mg0_7 3.111596 1_555
Mg0_3 Mg0_7 3.111596 1_455
Mg0_3 Mg8_7 3.193251 1_555
Mg0_3 Mg8_3 3.193251 1_555
Mg0_3 Mg4_7 3.207898 1_555
Mg0_3 Mg4_3 3.207898 1_555
Mg0_3 Mg5_3 3.321234 1_555
Mg0_3 Mg5_7 3.321234 1_555
Mg0_4 Mg1_4 3.066959 1_555
Mg0_4 Mg8_0 3.193251 1_655
Mg0_4 Mg8_4 3.193251 1_555
Mg0_4 Mg4_0 3.207898 1_655
Mg0_4 Mg4_4 3.207898 1_555
Mg0_4 Mg5_4 3.321234 1_555
Mg0_4 Mg5_0 3.321234 1_655
Mg0_5 Mg1_5 3.066959 1_555
Mg0_5 Mg8_1 3.193251 1_655
Mg0_5 Mg8_5 3.193251 1_555
Mg0_5 Mg4_5 3.207898 1_555
Mg0_5 Mg4_1 3.207898 1_655
Mg0_5 Mg5_5 3.321234 1_555
Mg0_5 Mg5_1 3.321234 1_655
Mg0_6 Mg1_6 3.066959 1_555
Mg0_6 Mg8_6 3.193251 1_555
Mg0_6 Mg8_2 3.193251 1_655
Mg0_6 Mg4_2 3.207898 1_655
Mg0_6 Mg4_6 3.207898 1_555
Mg0_6 Mg5_2 3.321234 1_655
Mg0_6 Mg5_6 3.321234 1_555
Mg0_7 Mg1_7 3.066959 1_555
Mg0_7 Mg8_7 3.193251 1_555
Mg0_7 Mg8_3 3.193251 1_655
Mg0_7 Mg4_7 3.207898 1_555
Mg0_7 Mg4_3 3.207898 1_655
Mg0_7 Mg5_7 3.321234 1_555
Mg0_7 Mg5_3 3.321234 1_655
Mg1_0 Mg1_4 3.111596 1_555
Mg1_0 Mg1_4 3.111596 1_455
Mg1_0 Mg9_4 3.193251 1_555
Mg1_0 Mg9_0 3.193251 1_555
Mg1_0 Mg4_6 3.207898 1_555
Mg1_0 Mg4_2 3.207898 1_555
Mg1_0 Mg5_4 3.321234 1_555
Mg1_0 Mg5_0 3.321234 1_555
Mg1_1 Mg1_5 3.111596 1_555
Mg1_1 Mg1_5 3.111596 1_455
Mg1_1 Mg9_1 3.193251 1_555
Mg1_1 Mg9_5 3.193251 1_555
Mg1_1 Mg4_7 3.207898 1_555
Mg1_1 Mg4_3 3.207898 1_555
Mg1_1 Mg5_1 3.321234 1_555
Mg1_1 Mg5_5 3.321234 1_555
Mg1_2 Mg1_6 3.111596 1_555
Mg1_2 Mg1_6 3.111596 1_455
Mg1_2 Mg9_6 3.193251 1_555
Mg1_2 Mg9_2 3.193251 1_555
Mg1_2 Mg4_4 3.207898 1_565
Mg1_2 Mg4_0 3.207898 1_565
Mg1_2 Mg5_2 3.321234 1_555
Mg1_2 Mg5_6 3.321234 1_555
Mg1_3 Mg1_7 3.111596 1_555
Mg1_3 Mg1_7 3.111596 1_455
Mg1_3 Mg9_7 3.193251 1_555
Mg1_3 Mg9_3 3.193251 1_555
Mg1_3 Mg4_5 3.207898 1_565
Mg1_3 Mg4_1 3.207898 1_565
Mg1_3 Mg5_3 3.321234 1_555
Mg1_3 Mg5_7 3.321234 1_555
Mg1_4 Mg9_0 3.193251 1_655
Mg1_4 Mg9_4 3.193251 1_555
Mg1_4 Mg4_2 3.207898 1_655
Mg1_4 Mg4_6 3.207898 1_555
Mg1_4 Mg5_4 3.321234 1_555
Mg1_4 Mg5_0 3.321234 1_655
Mg1_5 Mg9_1 3.193251 1_655
Mg1_5 Mg9_5 3.193251 1_555
Mg1_5 Mg4_7 3.207898 1_555
Mg1_5 Mg4_3 3.207898 1_655
Mg1_5 Mg5_5 3.321234 1_555
Mg1_5 Mg5_1 3.321234 1_655
Mg1_6 Mg9_6 3.193251 1_555
Mg1_6 Mg9_2 3.193251 1_655
Mg1_6 Mg4_4 3.207898 1_565
Mg1_6 Mg4_0 3.207898 1_665
Mg1_6 Mg5_2 3.321234 1_655
Mg1_6 Mg5_6 3.321234 1_555
Mg1_7 Mg9_3 3.193251 1_655
Mg1_7 Mg9_7 3.193251 1_555
Mg1_7 Mg4_5 3.207898 1_565
Mg1_7 Mg4_1 3.207898 1_665
Mg1_7 Mg5_7 3.321234 1_555
Mg1_7 Mg5_3 3.321234 1_655
Mg2_0 Mg6_5 3.193251 1_454
Mg2_0 Mg6_1 3.193251 1_554
Mg2_1 Mg6_4 3.193251 1_455
Mg2_1 Mg6_0 3.193251 1_555
Mg2_2 Mg6_3 3.193251 1_554
Mg2_2 Mg6_7 3.193251 1_454
Mg2_3 Mg6_2 3.193251 1_555
Mg2_3 Mg6_6 3.193251 1_455
Mg2_4 Mg6_1 3.193251 1_554
Mg2_4 Mg6_5 3.193251 1_554
Mg2_5 Mg6_4 3.193251 1_555
Mg2_5 Mg6_0 3.193251 1_555
Mg2_6 Mg6_3 3.193251 1_554
Mg2_6 Mg6_7 3.193251 1_554
Mg2_7 Mg6_6 3.193251 1_555
Mg2_7 Mg6_2 3.193251 1_555
Mg3_0 Mg7_5 3.193251 1_454
Mg3_0 Mg7_1 3.193251 1_554
Mg3_1 Mg7_0 3.193251 1_555
Mg3_1 Mg7_4 3.193251 1_455
Mg3_2 Mg7_7 3.193251 1_454
Mg3_2 Mg7_3 3.193251 1_554
Mg3_3 Mg7_6 3.193251 1_455
Mg3_3 Mg7_2 3.193251 1_555
Mg3_4 Mg7_5 3.193251 1_554
Mg3_4 Mg7_1 3.193251 1_554
Mg3_5 Mg7_0 3.193251 1_555
Mg3_5 Mg7_4 3.193251 1_555
Mg3_6 Mg7_7 3.193251 1_554
Mg3_6 Mg7_3 3.193251 1_554
Mg3_7 Mg7_2 3.193251 1_555
Mg3_7 Mg7_6 3.193251 1_555
Mg4_0 Mg4_4 3.111596 1_455
Mg4_0 Mg4_4 3.111596 1_555
Mg4_0 Mg8_0 3.130634 1_555
Mg4_0 Mg9_2 3.130634 1_545
Mg4_1 Mg4_5 3.111596 1_555
Mg4_1 Mg4_5 3.111596 1_455
Mg4_1 Mg8_1 3.130634 1_555
Mg4_1 Mg9_3 3.130634 1_545
Mg4_2 Mg4_6 3.111596 1_455
Mg4_2 Mg4_6 3.111596 1_555
Mg4_2 Mg8_2 3.130634 1_555
Mg4_2 Mg9_0 3.130634 1_555
Mg4_3 Mg4_7 3.111596 1_555
Mg4_3 Mg4_7 3.111596 1_455
Mg4_3 Mg8_3 3.130634 1_555
Mg4_3 Mg9_1 3.130634 1_555
Mg4_4 Mg8_4 3.130634 1_555
Mg4_4 Mg9_6 3.130634 1_545
Mg4_5 Mg8_5 3.130634 1_555
Mg4_5 Mg9_7 3.130634 1_545
Mg4_6 Mg8_6 3.130634 1_555
Mg4_6 Mg9_4 3.130634 1_555
Mg4_7 Mg8_7 3.130634 1_555
Mg4_7 Mg9_5 3.130634 1_555
Mg6_0 Mg7_2 3.066959 1_555
Mg6_0 Mg6_4 3.111596 1_455
Mg6_0 Mg6_4 3.111596 1_555
Mg6_1 Mg7_3 3.066959 1_555
Mg6_1 Mg6_5 3.111596 1_555
Mg6_1 Mg6_5 3.111596 1_455
Mg6_2 Mg7_0 3.066959 1_565
Mg6_2 Mg6_6 3.111596 1_455
Mg6_2 Mg6_6 3.111596 1_555
Mg6_3 Mg7_1 3.066959 1_565
Mg6_3 Mg6_7 3.111596 1_455
Mg6_3 Mg6_7 3.111596 1_555
Mg6_4 Mg7_6 3.066959 1_555
Mg6_5 Mg7_7 3.066959 1_555
Mg6_6 Mg7_4 3.066959 1_565
Mg6_7 Mg7_5 3.066959 1_565
Mg7_0 Mg7_4 3.111596 1_555
Mg7_0 Mg7_4 3.111596 1_455
Mg7_1 Mg7_5 3.111596 1_555
Mg7_1 Mg7_5 3.111596 1_455
Mg7_2 Mg7_6 3.111596 1_555
Mg7_2 Mg7_6 3.111596 1_455
Mg7_3 Mg7_7 3.111596 1_455
Mg7_3 Mg7_7 3.111596 1_555
Mg10_0 Mg10_4 3.111596 1_555
Mg10_0 Mg10_4 3.111596 1_455
Mg10_0 Mg2_1 3.130634 1_555
Mg10_0 Mg3_1 3.130634 1_555
Mg10_0 Mg6_0 3.207898 1_555
Mg10_0 Mg6_4 3.207898 1_455
Mg10_0 Mg7_0 3.207898 1_555
Mg10_0 Mg7_4 3.207898 1_455
Mg10_1 Mg10_5 3.111596 1_455
Mg10_1 Mg10_5 3.111596 1_555
Mg10_1 Mg2_0 3.130634 1_556
Mg10_1 Mg3_0 3.130634 1_556
Mg10_1 Mg6_1 3.207898 1_555
Mg10_1 Mg6_5 3.207898 1_455
Mg10_1 Mg7_5 3.207898 1_455
Mg10_1 Mg7_1 3.207898 1_555
Mg10_2 Mg10_6 3.111596 1_455
Mg10_2 Mg10_6 3.111596 1_555
Mg10_2 Mg2_3 3.130634 1_555
Mg10_2 Mg3_3 3.130634 1_555
Mg10_2 Mg6_2 3.207898 1_555
Mg10_2 Mg6_6 3.207898 1_455
Mg10_2 Mg7_6 3.207898 1_455
Mg10_2 Mg7_2 3.207898 1_555
Mg10_3 Mg10_7 3.111596 1_555
Mg10_3 Mg10_7 3.111596 1_455
Mg10_3 Mg2_2 3.130634 1_556
Mg10_3 Mg3_2 3.130634 1_556
Mg10_3 Mg6_7 3.207898 1_455
Mg10_3 Mg6_3 3.207898 1_555
Mg10_3 Mg7_7 3.207898 1_455
Mg10_3 Mg7_3 3.207898 1_555
Mg10_4 Mg2_5 3.130634 1_555
Mg10_4 Mg3_5 3.130634 1_555
Mg10_4 Mg6_0 3.207898 1_555
Mg10_4 Mg6_4 3.207898 1_555
Mg10_4 Mg7_0 3.207898 1_555
Mg10_4 Mg7_4 3.207898 1_555
Mg10_5 Mg2_4 3.130634 1_556
Mg10_5 Mg3_4 3.130634 1_556
Mg10_5 Mg6_1 3.207898 1_555
Mg10_5 Mg6_5 3.207898 1_555
Mg10_5 Mg7_5 3.207898 1_555
Mg10_5 Mg7_1 3.207898 1_555
Mg10_6 Mg2_7 3.130634 1_555
Mg10_6 Mg3_7 3.130634 1_555
Mg10_6 Mg6_2 3.207898 1_555
Mg10_6 Mg6_6 3.207898 1_555
Mg10_6 Mg7_6 3.207898 1_555
Mg10_6 Mg7_2 3.207898 1_555
Mg10_7 Mg2_6 3.130634 1_556
Mg10_7 Mg3_6 3.130634 1_556
Mg10_7 Mg6_7 3.207898 1_555
Mg10_7 Mg6_3 3.207898 1_555
Mg10_7 Mg7_7 3.207898 1_555
Mg10_7 Mg7_3 3.207898 1_555
Mg11_0 Mg7_4 3.321234 1_455
Mg11_0 Mg7_0 3.321234 1_555
Mg11_0 Mg6_6 3.321234 1_445
Mg11_0 Mg6_2 3.321234 1_545
Mg11_1 Mg7_1 3.321234 1_555
Mg11_1 Mg7_5 3.321234 1_455
Mg11_1 Mg6_3 3.321234 1_545
Mg11_1 Mg6_7 3.321234 1_445
Mg11_2 Mg7_6 3.321234 1_455
Mg11_2 Mg7_2 3.321234 1_555
Mg11_2 Mg6_4 3.321234 1_455
Mg11_2 Mg6_0 3.321234 1_555
Mg11_3 Mg7_7 3.321234 1_455
Mg11_3 Mg7_3 3.321234 1_555
Mg11_3 Mg6_5 3.321234 1_455
Mg11_3 Mg6_1 3.321234 1_555
Mg11_4 Mg7_0 3.321234 1_555
Mg11_4 Mg7_4 3.321234 1_555
Mg11_4 Mg6_6 3.321234 1_545
Mg11_4 Mg6_2 3.321234 1_545
Mg11_5 Mg7_1 3.321234 1_555
Mg11_5 Mg7_5 3.321234 1_555
Mg11_5 Mg6_3 3.321234 1_545
Mg11_5 Mg6_7 3.321234 1_545
Mg11_6 Mg7_2 3.321234 1_555
Mg11_6 Mg7_6 3.321234 1_555
Mg11_6 Mg6_4 3.321234 1_555
Mg11_6 Mg6_0 3.321234 1_555
Mg11_7 Mg7_3 3.321234 1_555
Mg11_7 Mg7_7 3.321234 1_555
Mg11_7 Mg6_1 3.321234 1_555
Mg11_7 Mg6_5 3.321234 1_555
C0_0 Mg5_0 2.264812 1_555
C0_0 Mg5_4 2.264812 1_555
C0_0 Mg2_4 2.275717 1_555
C0_0 Mg2_0 2.275717 1_555
C0_0 Mg3_4 2.275717 1_555
C0_0 Mg3_0 2.275717 1_555
C0_1 Mg5_1 2.264812 1_555
C0_1 Mg5_5 2.264812 1_555
C0_1 Mg2_1 2.275717 1_555
C0_1 Mg2_5 2.275717 1_555
C0_1 Mg3_5 2.275717 1_555
C0_1 Mg3_1 2.275717 1_555
C0_2 Mg5_2 2.264812 1_555
C0_2 Mg5_6 2.264812 1_555
C0_2 Mg2_2 2.275717 1_555
C0_2 Mg2_6 2.275717 1_555
C0_2 Mg3_2 2.275717 1_555
C0_2 Mg3_6 2.275717 1_555
C0_3 Mg5_3 2.264812 1_555
C0_3 Mg5_7 2.264812 1_555
C0_3 Mg2_3 2.275717 1_555
C0_3 Mg2_7 2.275717 1_555
C0_3 Mg3_3 2.275717 1_555
C0_3 Mg3_7 2.275717 1_555
C0_4 Mg5_0 2.264812 1_655
C0_4 Mg5_4 2.264812 1_555
C0_4 Mg2_4 2.275717 1_555
C0_4 Mg2_0 2.275717 1_655
C0_4 Mg3_4 2.275717 1_555
C0_4 Mg3_0 2.275717 1_655
C0_5 Mg5_5 2.264812 1_555
C0_5 Mg5_1 2.264812 1_655
C0_5 Mg2_1 2.275717 1_655
C0_5 Mg2_5 2.275717 1_555
C0_5 Mg3_5 2.275717 1_555
C0_5 Mg3_1 2.275717 1_655
C0_6 Mg5_2 2.264812 1_655
C0_6 Mg5_6 2.264812 1_555
C0_6 Mg2_2 2.275717 1_655
C0_6 Mg2_6 2.275717 1_555
C0_6 Mg3_2 2.275717 1_655
C0_6 Mg3_6 2.275717 1_555
C0_7 Mg5_3 2.264812 1_655
C0_7 Mg5_7 2.264812 1_555
C0_7 Mg2_3 2.275717 1_655
C0_7 Mg2_7 2.275717 1_555
C0_7 Mg3_7 2.275717 1_555
C0_7 Mg3_3 2.275717 1_655
C1_0 Mg11_4 2.264812 1_555
C1_0 Mg11_0 2.264812 1_555
C1_0 Mg8_0 2.275717 1_555
C1_0 Mg8_4 2.275717 1_555
C1_0 Mg9_2 2.275717 1_545
C1_0 Mg9_6 2.275717 1_545
C1_1 Mg11_1 2.264812 1_555
C1_1 Mg11_5 2.264812 1_555
C1_1 Mg8_1 2.275717 1_555
C1_1 Mg8_5 2.275717 1_555
C1_1 Mg9_3 2.275717 1_545
C1_1 Mg9_7 2.275717 1_545
C1_2 Mg11_6 2.264812 1_555
C1_2 Mg11_2 2.264812 1_555
C1_2 Mg8_2 2.275717 1_555
C1_2 Mg8_6 2.275717 1_555
C1_2 Mg9_4 2.275717 1_555
C1_2 Mg9_0 2.275717 1_555
C1_3 Mg11_7 2.264812 1_555
C1_3 Mg11_3 2.264812 1_555
C1_3 Mg8_7 2.275717 1_555
C1_3 Mg8_3 2.275717 1_555
C1_3 Mg9_1 2.275717 1_555
C1_3 Mg9_5 2.275717 1_555
C1_4 Mg11_0 2.264812 1_655
C1_4 Mg11_4 2.264812 1_555
C1_4 Mg8_0 2.275717 1_655
C1_4 Mg8_4 2.275717 1_555
C1_4 Mg9_2 2.275717 1_645
C1_4 Mg9_6 2.275717 1_545
C1_5 Mg11_1 2.264812 1_655
C1_5 Mg11_5 2.264812 1_555
C1_5 Mg8_1 2.275717 1_655
C1_5 Mg8_5 2.275717 1_555
C1_5 Mg9_3 2.275717 1_645
C1_5 Mg9_7 2.275717 1_545
C1_6 Mg11_6 2.264812 1_555
C1_6 Mg11_2 2.264812 1_655
C1_6 Mg8_6 2.275717 1_555
C1_6 Mg8_2 2.275717 1_655
C1_6 Mg9_4 2.275717 1_555
C1_6 Mg9_0 2.275717 1_655
C1_7 Mg11_7 2.264812 1_555
C1_7 Mg11_3 2.264812 1_655
C1_7 Mg8_7 2.275717 1_555
C1_7 Mg8_3 2.275717 1_655
C1_7 Mg9_1 2.275717 1_655
C1_7 Mg9_5 2.275717 1_555
