# generated using pymatgen
data_KAlCl2O
_symmetry_space_group_name_H-M   'P 1'
_cell_length_a   5.80115700
_cell_length_b   6.38308100
_cell_length_c   6.80262229
_cell_angle_alpha   84.62071271
_cell_angle_beta   90.00000000
_cell_angle_gamma   90.00000000
_symmetry_Int_Tables_number   1
_chemical_formula_structural   KAlCl2O
_chemical_formula_sum   'K2 Al2 Cl4 O2'
_cell_volume   250.78666542
_cell_formula_units_Z   2
loop_
 _symmetry_equiv_pos_site_id
 _symmetry_equiv_pos_as_xyz
  1  'x, y, z'
loop_
 _atom_site_type_symbol
 _atom_site_label
 _atom_site_symmetry_multiplicity
 _atom_site_fract_x
 _atom_site_fract_y
 _atom_site_fract_z
 _atom_site_occupancy
  K  K0  1  0.50635600  0.60090400  0.78305800  1
  K  K1  1  0.00635600  0.39909600  0.21694200  1
  Al  Al0  1  0.49604900  0.96901600  0.37421500  1
  Al  Al1  1  0.99604900  0.03098400  0.62578500  1
  Cl  Cl0  1  0.00393100  0.84317900  0.91493700  1
  Cl  Cl1  1  0.50393100  0.15682100  0.08506300  1
  Cl  Cl2  1  0.00348900  0.36762000  0.70209700  1
  Cl  Cl3  1  0.50348900  0.63238000  0.29790300  1
  O  O0  1  0.24017500  0.99972200  0.49131100  1
  O  O1  1  0.74017500  0.00027800  0.50868900  1
loop_
_geom_bond_atom_site_label_1
_geom_bond_atom_site_label_2
_geom_bond_distance
_geom_bond_site_symmetry_2
K0 O1 3.306045 1_565
K1 O0 3.306045 1_545
Al0 O0 1.704563 1_555
Al0 O1 1.707782 1_565
Al0 Cl1 2.205923 1_565
Al0 Cl3 2.257816 1_555
Al1 O1 1.704563 1_555
Al1 O0 1.707782 1_645
Al1 Cl0 2.205923 1_645
Al1 Cl2 2.257816 1_655
Cl0 K1 3.341262 1_556
Cl0 K0 3.433430 1_455
Cl0 K0 3.457117 1_555
Cl1 K0 3.341262 1_554
Cl1 K1 3.433430 1_555
Cl1 K1 3.457117 1_655
Cl2 K1 3.287624 1_555
Cl2 K0 3.315353 1_455
Cl2 K0 3.344329 1_555
Cl2 K1 3.526848 1_556
Cl3 K0 3.287624 1_555
Cl3 K1 3.315353 1_555
Cl3 K1 3.344329 1_655
Cl3 K0 3.526848 1_554
