# generated using pymatgen
data_Cs2NaAlF6
_symmetry_space_group_name_H-M   'P 1'
_cell_length_a   6.18734131
_cell_length_b   6.18734131
_cell_length_c   6.18734131
_cell_angle_alpha   60.00000000
_cell_angle_beta   60.00000000
_cell_angle_gamma   60.00000000
_symmetry_Int_Tables_number   1
_chemical_formula_structural   Cs2NaAlF6
_chemical_formula_sum   'Cs2 Na1 Al1 F6'
_cell_volume   167.49321673
_cell_formula_units_Z   1
loop_
 _symmetry_equiv_pos_site_id
 _symmetry_equiv_pos_as_xyz
  1  'x, y, z'
loop_
 _atom_site_type_symbol
 _atom_site_label
 _atom_site_symmetry_multiplicity
 _atom_site_fract_x
 _atom_site_fract_y
 _atom_site_fract_z
 _atom_site_occupancy
  Cs  Cs0  1  0.75000000  0.75000000  0.75000000  1
  Cs  Cs1  1  0.25000000  0.25000000  0.25000000  1
  Na  Na0  1  0.50000000  0.50000000  0.50000000  1
  Al  Al0  1  0.00000000  0.00000000  0.00000000  1
  F  F0  1  0.78718600  0.21281400  0.21281400  1
  F  F1  1  0.21281400  0.21281400  0.78718600  1
  F  F2  1  0.21281400  0.78718600  0.78718600  1
  F  F3  1  0.21281400  0.78718600  0.21281400  1
  F  F4  1  0.78718600  0.21281400  0.78718600  1
  F  F5  1  0.78718600  0.78718600  0.21281400  1
loop_
_geom_bond_atom_site_label_1
_geom_bond_atom_site_label_2
_geom_bond_distance
_geom_bond_site_symmetry_2
Cs0 F2 3.110735 1_555
Cs0 F4 3.110735 1_555
Cs0 F5 3.110735 1_555
Cs0 F1 3.110735 1_655
Cs0 F0 3.110735 1_565
Cs0 F3 3.110735 1_655
Cs0 F3 3.110735 1_556
Cs0 F0 3.110735 1_556
Cs0 F1 3.110735 1_565
Cs0 F4 3.110735 1_565
Cs0 F5 3.110735 1_556
Cs0 F2 3.110735 1_655
Cs1 F1 3.110735 1_554
Cs1 F2 3.110735 1_554
Cs1 F5 3.110735 1_455
Cs1 F0 3.110735 1_455
Cs1 F4 3.110735 1_554
Cs1 F5 3.110735 1_545
Cs1 F0 3.110735 1_555
Cs1 F3 3.110735 1_545
Cs1 F3 3.110735 1_555
Cs1 F2 3.110735 1_545
Cs1 F4 3.110735 1_455
Cs1 F1 3.110735 1_555
Al0 F4 1.862170 1_454
Al0 F2 1.862170 1_544
Al0 F5 1.862170 1_445
Al0 F0 1.862170 1_455
Al0 F3 1.862170 1_545
Al0 F1 1.862170 1_554
F0 Na0 2.512941 1_555
F1 Na0 2.512941 1_555
F2 Na0 2.512941 1_555
F3 Na0 2.512941 1_555
F4 Na0 2.512941 1_555
F5 Na0 2.512941 1_555
