# generated using pymatgen
data_SrSmHfCrO6
_symmetry_space_group_name_H-M   'P 1'
_cell_length_a   5.66844116
_cell_length_b   5.66844116
_cell_length_c   5.66844116
_cell_angle_alpha   60.00000000
_cell_angle_beta   60.00000000
_cell_angle_gamma   60.00000000
_symmetry_Int_Tables_number   1
_chemical_formula_structural   SrSmHfCrO6
_chemical_formula_sum   'Sr1 Sm1 Hf1 Cr1 O6'
_cell_volume   128.78815746
_cell_formula_units_Z   1
loop_
 _symmetry_equiv_pos_site_id
 _symmetry_equiv_pos_as_xyz
  1  'x, y, z'
loop_
 _atom_site_type_symbol
 _atom_site_label
 _atom_site_symmetry_multiplicity
 _atom_site_fract_x
 _atom_site_fract_y
 _atom_site_fract_z
 _atom_site_occupancy
  Sr  Sr0  1  0.25000000  0.25000000  0.25000000  1
  Sm  Sm0  1  0.75000000  0.75000000  0.75000000  1
  Hf  Hf0  1  0.50000000  0.50000000  0.50000000  1
  Cr  Cr0  1  0.00000000  -0.00000000  -0.00000000  1
  O  O0  1  0.75435737  0.24564263  0.24564263  1
  O  O1  1  0.24564263  0.75435737  0.75435737  1
  O  O2  1  0.75435737  0.24564263  0.75435737  1
  O  O3  1  0.24564263  0.75435737  0.24564263  1
  O  O4  1  0.75435737  0.75435737  0.24564263  1
  O  O5  1  0.24564263  0.24564263  0.75435737  1
loop_
_geom_bond_atom_site_label_1
_geom_bond_atom_site_label_2
_geom_bond_distance
_geom_bond_site_symmetry_2
Hf0 O3 2.039027 1_555
Hf0 O0 2.039027 1_555
Hf0 O2 2.039027 1_555
Hf0 O1 2.039027 1_555
Hf0 O4 2.039027 1_555
Hf0 O5 2.039027 1_555
Cr0 O4 1.969166 1_445
Cr0 O2 1.969166 1_454
Cr0 O1 1.969166 1_544
Cr0 O3 1.969166 1_545
Cr0 O5 1.969166 1_554
Cr0 O0 1.969166 1_455
O0 Sm0 2.834436 1_554
O0 Sr0 2.834436 1_655
O0 Sm0 2.834436 1_545
O0 Sr0 2.834436 1_555
O1 Sm0 2.834436 1_555
O1 Sm0 2.834436 1_455
O1 Sr0 2.834436 1_556
O1 Sr0 2.834436 1_565
O2 Sr0 2.834436 1_655
O2 Sm0 2.834436 1_555
O2 Sm0 2.834436 1_545
O2 Sr0 2.834436 1_556
O3 Sm0 2.834436 1_554
O3 Sm0 2.834436 1_455
O3 Sr0 2.834436 1_555
O3 Sr0 2.834436 1_565
O4 Sm0 2.834436 1_554
O4 Sr0 2.834436 1_655
O4 Sm0 2.834436 1_555
O4 Sr0 2.834436 1_565
O5 Sm0 2.834436 1_545
O5 Sm0 2.834436 1_455
O5 Sr0 2.834436 1_555
O5 Sr0 2.834436 1_556
