# generated using pymatgen
data_CeMg6Nb
_symmetry_space_group_name_H-M   'P 1'
_cell_length_a   6.57429073
_cell_length_b   5.86914128
_cell_length_c   5.18564905
_cell_angle_alpha   90.00000000
_cell_angle_beta   90.00000000
_cell_angle_gamma   116.51107383
_symmetry_Int_Tables_number   1
_chemical_formula_structural   CeMg6Nb
_chemical_formula_sum   'Ce1 Mg6 Nb1'
_cell_volume   179.05065519
_cell_formula_units_Z   1
loop_
 _symmetry_equiv_pos_site_id
 _symmetry_equiv_pos_as_xyz
  1  'x, y, z'
loop_
 _atom_site_type_symbol
 _atom_site_label
 _atom_site_symmetry_multiplicity
 _atom_site_fract_x
 _atom_site_fract_y
 _atom_site_fract_z
 _atom_site_occupancy
  Ce  Ce0  1  0.14809180  0.32404540  0.25000000  1
  Mg  Mg0  1  0.65240939  0.32730226  0.25000000  1
  Mg  Mg1  1  0.65240939  0.82510613  0.25000000  1
  Mg  Mg2  1  0.33848966  0.16148925  0.75000000  1
  Mg  Mg3  1  0.33848966  0.67700141  0.75000000  1
  Mg  Mg4  1  0.82652927  0.16326514  0.75000000  1
  Mg  Mg5  1  0.87862584  0.68931342  0.75000000  1
  Nb  Nb0  1  0.16495498  0.83247699  0.25000000  1
loop_
_geom_bond_atom_site_label_1
_geom_bond_atom_site_label_2
_geom_bond_distance
_geom_bond_site_symmetry_2
Ce0 Nb0 2.936247 1_555
Ce0 Nb0 2.936247 1_545
Ce0 Mg2 3.204052 1_555
Ce0 Mg2 3.204052 1_554
Ce0 Mg3 3.204058 1_554
Ce0 Mg3 3.204058 1_555
Ce0 Mg4 3.209588 1_455
Ce0 Mg4 3.209588 1_454
Ce0 Mg1 3.267337 1_445
Ce0 Mg0 3.267337 1_455
Ce0 Mg1 3.307042 1_555
Ce0 Mg0 3.307042 1_555
Mg0 Mg1 2.921681 1_555
Mg0 Mg1 2.947460 1_545
Mg0 Mg4 3.153393 1_554
Mg0 Mg4 3.153393 1_555
Mg0 Mg2 3.183718 1_555
Mg0 Mg2 3.183718 1_554
Mg0 Nb0 3.224209 1_545
Mg0 Mg5 3.260049 1_554
Mg0 Mg5 3.260049 1_555
Mg0 Nb0 3.350537 1_655
Mg1 Mg4 3.153398 1_564
Mg1 Mg4 3.153398 1_565
Mg1 Mg3 3.183718 1_554
Mg1 Mg3 3.183718 1_555
Mg1 Nb0 3.224210 1_555
Mg1 Mg5 3.260044 1_554
Mg1 Mg5 3.260044 1_555
Mg1 Nb0 3.350537 1_655
Mg2 Mg3 2.843528 1_545
Mg2 Mg3 3.025614 1_555
Mg2 Mg5 3.056217 1_445
Mg2 Nb0 3.128324 1_545
Mg2 Nb0 3.128324 1_546
Mg2 Mg4 3.203875 1_555
Mg2 Mg4 3.370442 1_455
Mg2 Mg5 3.519351 1_555
Mg3 Mg5 3.056218 1_455
Mg3 Nb0 3.128319 1_556
Mg3 Nb0 3.128319 1_555
Mg3 Mg4 3.203875 1_565
Mg3 Mg4 3.370442 1_455
Mg3 Mg5 3.519351 1_555
Mg4 Mg5 2.950532 1_555
Mg4 Mg5 2.950532 1_545
Mg5 Nb0 3.091955 1_655
Mg5 Nb0 3.091955 1_656
