# generated using pymatgen
data_Ce2SnSe4
_symmetry_space_group_name_H-M   'P 1'
_cell_length_a   4.29976500
_cell_length_b   12.27405000
_cell_length_c   15.31692100
_cell_angle_alpha   90.00000000
_cell_angle_beta   90.00000000
_cell_angle_gamma   90.00000000
_symmetry_Int_Tables_number   1
_chemical_formula_structural   Ce2SnSe4
_chemical_formula_sum   'Ce8 Sn4 Se16'
_cell_volume   808.35863291
_cell_formula_units_Z   4
loop_
 _symmetry_equiv_pos_site_id
 _symmetry_equiv_pos_as_xyz
  1  'x, y, z'
loop_
 _atom_site_type_symbol
 _atom_site_label
 _atom_site_symmetry_multiplicity
 _atom_site_fract_x
 _atom_site_fract_y
 _atom_site_fract_z
 _atom_site_occupancy
  Ce  Ce0  1  0.25000000  0.60385800  0.09603700  1
  Ce  Ce1  1  0.75000000  0.89614200  0.59603700  1
  Ce  Ce2  1  0.25000000  0.06212600  0.89710800  1
  Ce  Ce3  1  0.75000000  0.43787400  0.39710800  1
  Ce  Ce4  1  0.25000000  0.56212600  0.60289200  1
  Ce  Ce5  1  0.75000000  0.93787400  0.10289200  1
  Ce  Ce6  1  0.75000000  0.39614200  0.90396300  1
  Ce  Ce7  1  0.25000000  0.10385800  0.40396300  1
  Sn  Sn0  1  0.75000000  0.26352600  0.66187200  1
  Sn  Sn1  1  0.25000000  0.23647400  0.16187200  1
  Sn  Sn2  1  0.75000000  0.76352600  0.83812800  1
  Sn  Sn3  1  0.25000000  0.73647400  0.33812800  1
  Se  Se0  1  0.75000000  0.94289500  0.40962300  1
  Se  Se1  1  0.25000000  0.55710500  0.90962300  1
  Se  Se2  1  0.75000000  0.44289500  0.09037700  1
  Se  Se3  1  0.25000000  0.05710500  0.59037700  1
  Se  Se4  1  0.75000000  0.48227800  0.71202100  1
  Se  Se5  1  0.25000000  0.01772200  0.21202100  1
  Se  Se6  1  0.75000000  0.98227800  0.78797900  1
  Se  Se7  1  0.25000000  0.51772200  0.28797900  1
  Se  Se8  1  0.75000000  0.65819500  0.48846000  1
  Se  Se9  1  0.25000000  0.84180500  0.98846000  1
  Se  Se10  1  0.75000000  0.15819500  0.01154000  1
  Se  Se11  1  0.25000000  0.34180500  0.51154000  1
  Se  Se12  1  0.75000000  0.73394100  0.19620800  1
  Se  Se13  1  0.25000000  0.76605900  0.69620800  1
  Se  Se14  1  0.75000000  0.23394100  0.30379200  1
  Se  Se15  1  0.25000000  0.26605900  0.80379200  1
loop_
_geom_bond_atom_site_label_1
_geom_bond_atom_site_label_2
_geom_bond_distance
_geom_bond_site_symmetry_2
Ce0 Se1 2.912383 1_554
Ce0 Se2 2.921091 1_555
Ce0 Se2 2.921091 1_455
Ce0 Se12 3.086322 1_555
Ce0 Se12 3.086322 1_455
Ce0 Se7 3.124279 1_555
Ce0 Se9 3.353330 1_554
Ce1 Se0 2.912383 1_555
Ce1 Se3 2.921091 1_565
Ce1 Se3 2.921091 1_665
Ce1 Se13 3.086322 1_655
Ce1 Se13 3.086322 1_555
Ce1 Se6 3.124279 1_555
Ce1 Se8 3.353330 1_555
Ce2 Se15 2.882424 1_555
Ce2 Se6 2.894216 1_445
Ce2 Se6 2.894216 1_545
Ce2 Se10 3.014054 1_456
Ce2 Se10 3.014054 1_556
Ce2 Se9 3.044785 1_545
Ce3 Se14 2.882424 1_555
Ce3 Se7 2.894216 1_655
Ce3 Se7 2.894216 1_555
Ce3 Se11 3.014054 1_655
Ce3 Se11 3.014054 1_555
Ce3 Se8 3.044785 1_555
Ce4 Se13 2.882424 1_555
Ce4 Se4 2.894216 1_455
Ce4 Se4 2.894216 1_555
Ce4 Se8 3.014054 1_455
Ce4 Se8 3.014054 1_555
Ce4 Se11 3.044785 1_555
Ce5 Se12 2.882424 1_555
Ce5 Se5 2.894216 1_665
Ce5 Se5 2.894216 1_565
Ce5 Se9 3.014054 1_654
Ce5 Se9 3.014054 1_554
Ce5 Se10 3.044785 1_565
Ce6 Se2 2.912383 1_556
Ce6 Se1 2.921091 1_655
Ce6 Se1 2.921091 1_555
Ce6 Se15 3.086322 1_555
Ce6 Se15 3.086322 1_655
Ce6 Se4 3.124279 1_555
Ce6 Se10 3.353330 1_556
Ce7 Se3 2.912383 1_555
Ce7 Se0 2.921091 1_445
Ce7 Se0 2.921091 1_545
Ce7 Se14 3.086322 1_555
Ce7 Se14 3.086322 1_455
Ce7 Se5 3.124279 1_555
Ce7 Se11 3.353330 1_555
Se4 Sn0 2.792687 1_555
Se5 Sn1 2.792687 1_555
Se6 Sn2 2.792687 1_555
Se7 Sn3 2.792687 1_555
Se8 Sn3 3.293510 1_655
Se8 Sn3 3.293510 1_555
Se9 Sn2 3.293510 1_455
Se9 Sn2 3.293510 1_555
Se10 Sn1 3.293510 1_555
Se10 Sn1 3.293510 1_655
Se11 Sn0 3.293510 1_455
Se11 Sn0 3.293510 1_555
Se12 Sn3 3.057494 1_555
Se12 Sn3 3.057494 1_655
Se13 Sn2 3.057494 1_555
Se13 Sn2 3.057494 1_455
Se14 Sn1 3.057494 1_555
Se14 Sn1 3.057494 1_655
Se15 Sn0 3.057494 1_455
Se15 Sn0 3.057494 1_555
