# generated using pymatgen
data_Y3Ga(FeO3)4
_symmetry_space_group_name_H-M   'P 1'
_cell_length_a   10.84081452
_cell_length_b   10.84081452
_cell_length_c   10.84081452
_cell_angle_alpha   109.48494516
_cell_angle_beta   109.48494516
_cell_angle_gamma   109.44377507
_symmetry_Int_Tables_number   1
_chemical_formula_structural   Y3Ga(FeO3)4
_chemical_formula_sum   'Y12 Ga4 Fe16 O48'
_cell_volume   980.76232839
_cell_formula_units_Z   4
loop_
 _symmetry_equiv_pos_site_id
 _symmetry_equiv_pos_as_xyz
  1  'x, y, z'
loop_
 _atom_site_type_symbol
 _atom_site_label
 _atom_site_symmetry_multiplicity
 _atom_site_fract_x
 _atom_site_fract_y
 _atom_site_fract_z
 _atom_site_occupancy
  Y  Y0  1  0.37500000  0.50019900  0.62519900  1
  Y  Y1  1  0.87500000  0.74980100  0.37480100  1
  Y  Y2  1  0.74958500  0.62500000  0.62458500  1
  Y  Y3  1  0.00041500  0.12500000  0.37541500  1
  Y  Y4  1  0.99958000  0.49958000  0.50000000  1
  Y  Y5  1  0.75042000  0.75042000  0.00000000  1
  Y  Y6  1  0.87500000  0.25041500  0.87541500  1
  Y  Y7  1  0.37500000  0.99958500  0.12458500  1
  Y  Y8  1  0.49980100  0.12500000  0.87480100  1
  Y  Y9  1  0.25019900  0.62500000  0.12519900  1
  Y  Y10  1  0.24958000  0.24958000  0.00000000  1
  Y  Y11  1  0.50042000  0.00042000  0.50000000  1
  Ga  Ga0  1  0.37500000  0.24981500  0.37481500  1
  Ga  Ga1  1  0.87500000  0.00018500  0.62518500  1
  Ga  Ga2  1  0.99981500  0.62500000  0.87481500  1
  Ga  Ga3  1  0.75018500  0.12500000  0.12518500  1
  Fe  Fe0  1  0.62612400  0.87582100  0.75073200  1
  Fe  Fe1  1  0.12387600  0.37460800  0.74969700  1
  Fe  Fe2  1  0.62491100  0.37417900  0.25030300  1
  Fe  Fe3  1  0.12508900  0.87539200  0.24926800  1
  Fe  Fe4  1  0.62539200  0.37508900  0.74926800  1
  Fe  Fe5  1  0.12417900  0.87491100  0.75030300  1
  Fe  Fe6  1  0.12460800  0.37387600  0.24969700  1
  Fe  Fe7  1  0.62582100  0.87612400  0.25073200  1
  Fe  Fe8  1  0.25000000  0.75000000  0.50000000  1
  Fe  Fe9  1  0.50000000  0.50000000  0.00000000  1
  Fe  Fe10  1  0.87500000  0.50010700  0.12510700  1
  Fe  Fe11  1  0.37500000  0.74989300  0.87489300  1
  Fe  Fe12  1  0.25010700  0.12500000  0.62510700  1
  Fe  Fe13  1  0.49989300  0.62500000  0.37489300  1
  Fe  Fe14  1  0.00000000  0.00000000  0.00000000  1
  Fe  Fe15  1  0.75000000  0.25000000  0.50000000  1
  O  O0  1  0.53236000  0.75020400  0.83414700  1
  O  O1  1  0.21764000  0.55178700  0.71784400  1
  O  O2  1  0.83394300  0.49979600  0.28215600  1
  O  O3  1  0.91605700  0.69821300  0.16585300  1
  O  O4  1  0.65726100  0.58399900  0.37478000  1
  O  O5  1  0.54078100  0.66600100  0.57326200  1
  O  O6  1  0.20921900  0.28248100  0.62522000  1
  O  O7  1  0.09273900  0.96751900  0.42673800  1
  O  O8  1  0.94811000  0.29081400  0.54089000  1
  O  O9  1  0.74992400  0.40722100  0.45911000  1
  O  O10  1  0.80189000  0.84277900  0.84270300  1
  O  O11  1  0.00007600  0.95918600  0.15729700  1
  O  O12  1  0.71990400  0.99863800  0.66574800  1
  O  O13  1  0.03009600  0.19584400  0.77873400  1
  O  O14  1  0.41711000  0.25136200  0.22126600  1
  O  O15  1  0.33289000  0.05415600  0.33425200  1
  O  O16  1  0.59631500  0.16676000  0.12676600  1
  O  O17  1  0.71000600  0.08324000  0.92955400  1
  O  O18  1  0.03999400  0.46954800  0.87323400  1
  O  O19  1  0.15368500  0.78045200  0.07044600  1
  O  O20  1  0.30095200  0.45834600  0.95793800  1
  O  O21  1  0.50040700  0.34301400  0.04206200  1
  O  O22  1  0.44904800  0.90698600  0.65739300  1
  O  O23  1  0.24959300  0.79165400  0.34260700  1
  O  O24  1  0.44821300  0.16605700  0.66585300  1
  O  O25  1  0.24979600  0.08394300  0.78215600  1
  O  O26  1  0.30178700  0.46764000  0.21784400  1
  O  O27  1  0.50020400  0.78236000  0.33414700  1
  O  O28  1  0.03248100  0.45921900  0.12522000  1
  O  O29  1  0.71751900  0.34273900  0.92673800  1
  O  O30  1  0.33399900  0.90726100  0.87478000  1
  O  O31  1  0.41600100  0.79078100  0.07326200  1
  O  O32  1  0.15722100  0.99992400  0.95911000  1
  O  O33  1  0.04081400  0.19811000  0.04089000  1
  O  O34  1  0.70918600  0.25007600  0.65729700  1
  O  O35  1  0.59277900  0.05189000  0.34270300  1
  O  O36  1  0.80415600  0.58289000  0.83425200  1
  O  O37  1  0.00136200  0.66711000  0.72126600  1
  O  O38  1  0.94584400  0.28009600  0.27873400  1
  O  O39  1  0.74863800  0.96990400  0.16574800  1
  O  O40  1  0.21954800  0.28999400  0.37323400  1
  O  O41  1  0.53045200  0.40368500  0.57044600  1
  O  O42  1  0.91676000  0.84631500  0.62676600  1
  O  O43  1  0.83324000  0.96000600  0.42955400  1
  O  O44  1  0.09301400  0.75040700  0.54206200  1
  O  O45  1  0.20834600  0.55095200  0.45793800  1
  O  O46  1  0.54165400  0.49959300  0.84260700  1
  O  O47  1  0.65698600  0.69904800  0.15739300  1
loop_
_geom_bond_atom_site_label_1
_geom_bond_atom_site_label_2
_geom_bond_distance
_geom_bond_site_symmetry_2
Ga0 O15 1.870837 1_555
Ga0 O14 1.870837 1_555
Ga0 O41 1.872006 1_555
Ga0 O40 1.872008 1_555
Ga1 O13 1.870837 1_655
Ga1 O12 1.870837 1_545
Ga1 O42 1.871997 1_545
Ga1 O43 1.872008 1_545
Ga2 O36 1.870837 1_555
Ga2 O37 1.870837 1_655
Ga2 O19 1.872006 1_656
Ga2 O18 1.872008 1_655
Ga3 O38 1.870837 1_555
Ga3 O39 1.870837 1_545
Ga3 O16 1.871997 1_555
Ga3 O17 1.872008 1_554
Fe0 O10 2.044112 1_555
Fe0 O22 2.046239 1_555
Fe0 O17 2.048364 1_565
Fe0 O12 2.048676 1_555
Fe0 O0 2.053922 1_555
Fe0 O5 2.055084 1_555
Fe1 O8 2.044107 1_455
Fe1 O20 2.046236 1_555
Fe1 O18 2.048364 1_555
Fe1 O13 2.048676 1_555
Fe1 O1 2.053922 1_555
Fe1 O6 2.055084 1_555
Fe2 O9 2.044103 1_555
Fe2 O21 2.046239 1_555
Fe2 O16 2.048369 1_555
Fe2 O14 2.048676 1_555
Fe2 O2 2.053922 1_555
Fe2 O4 2.055084 1_555
Fe3 O11 2.044103 1_555
Fe3 O23 2.046248 1_555
Fe3 O19 2.048357 1_555
Fe3 O15 2.048676 1_565
Fe3 O3 2.053922 1_455
Fe3 O7 2.055084 1_555
Fe4 O34 2.044103 1_555
Fe4 O46 2.046248 1_555
Fe4 O41 2.048357 1_555
Fe4 O36 2.048676 1_555
Fe4 O24 2.053922 1_555
Fe4 O29 2.055084 1_555
Fe5 O32 2.044103 1_555
Fe5 O44 2.046239 1_555
Fe5 O42 2.048369 1_455
Fe5 O37 2.048676 1_555
Fe5 O25 2.053922 1_565
Fe5 O30 2.055084 1_555
Fe6 O33 2.044107 1_555
Fe6 O45 2.046236 1_555
Fe6 O40 2.048364 1_555
Fe6 O38 2.048676 1_455
Fe6 O26 2.053922 1_555
Fe6 O28 2.055084 1_555
Fe7 O35 2.044112 1_565
Fe7 O47 2.046239 1_555
Fe7 O43 2.048364 1_555
Fe7 O39 2.048676 1_555
Fe7 O27 2.053922 1_555
Fe7 O31 2.055084 1_555
Fe8 O23 1.904099 1_555
Fe8 O22 1.904104 1_555
Fe8 O44 1.904104 1_555
Fe8 O45 1.904107 1_555
Fe9 O46 1.904099 1_554
Fe9 O47 1.904104 1_555
Fe9 O21 1.904104 1_555
Fe9 O20 1.904107 1_554
Fe10 O3 1.898715 1_555
Fe10 O2 1.898715 1_555
Fe10 O28 1.901017 1_655
Fe10 O29 1.901017 1_554
Fe11 O1 1.898715 1_555
Fe11 O0 1.898715 1_555
Fe11 O31 1.901017 1_556
Fe11 O30 1.901017 1_555
Fe12 O24 1.898715 1_555
Fe12 O25 1.898715 1_555
Fe12 O7 1.901017 1_545
Fe12 O6 1.901017 1_555
Fe13 O26 1.898715 1_555
Fe13 O27 1.898715 1_555
Fe13 O4 1.901017 1_555
Fe13 O5 1.901017 1_555
Fe14 O33 1.898992 1_555
Fe14 O10 1.898996 1_444
Fe14 O32 1.899002 1_544
Fe14 O11 1.899002 1_545
Fe15 O8 1.898992 1_555
Fe15 O35 1.898996 1_555
Fe15 O9 1.899002 1_555
Fe15 O34 1.899002 1_555
O0 Y0 2.373827 1_555
O0 Y5 2.445204 1_556
O1 Y0 2.373827 1_555
O1 Y4 2.445204 1_455
O2 Y1 2.373827 1_555
O2 Y4 2.445204 1_555
O3 Y1 2.373827 1_555
O3 Y5 2.445204 1_555
O4 Y2 2.371851 1_555
O4 Y1 2.444841 1_555
O5 Y2 2.371851 1_555
O5 Y0 2.444841 1_555
O6 Y3 2.371851 1_555
O6 Y0 2.444841 1_555
O7 Y3 2.371851 1_565
O7 Y1 2.444841 1_455
O8 Y4 2.371377 1_555
O8 Y3 2.444736 1_655
O9 Y4 2.371377 1_555
O9 Y2 2.444728 1_555
O10 Y5 2.371381 1_556
O10 Y2 2.444724 1_555
O11 Y5 2.371377 1_455
O11 Y3 2.444728 1_565
O12 Y6 2.387404 1_565
O12 Y11 2.468211 1_565
O13 Y6 2.387404 1_455
O13 Y10 2.468211 1_556
O14 Y7 2.387404 1_545
O14 Y10 2.468211 1_555
O15 Y7 2.387404 1_545
O15 Y11 2.468211 1_555
O16 Y8 2.390378 1_554
O16 Y7 2.465783 1_545
O17 Y8 2.390378 1_555
O17 Y6 2.465775 1_555
O18 Y9 2.390378 1_556
O18 Y6 2.465775 1_455
O19 Y9 2.390384 1_555
O19 Y7 2.465782 1_555
O20 Y10 2.378836 1_556
O20 Y9 2.448783 1_556
O21 Y10 2.378825 1_555
O21 Y8 2.448789 1_554
O22 Y11 2.378825 1_565
O22 Y8 2.448789 1_565
O23 Y11 2.378829 1_565
O23 Y9 2.448784 1_555
O24 Y8 2.373827 1_555
O24 Y11 2.445204 1_555
O25 Y8 2.373827 1_555
O25 Y10 2.445204 1_556
O26 Y9 2.373827 1_555
O26 Y10 2.445204 1_555
O27 Y9 2.373827 1_555
O27 Y11 2.445204 1_565
O28 Y6 2.371851 1_454
O28 Y9 2.444841 1_555
O29 Y6 2.371851 1_555
O29 Y8 2.444841 1_555
O30 Y7 2.371851 1_556
O30 Y8 2.444841 1_565
O31 Y7 2.371851 1_555
O31 Y9 2.444841 1_555
O32 Y10 2.371377 1_566
O32 Y7 2.444728 1_556
O33 Y10 2.371377 1_555
O33 Y6 2.444736 1_454
O34 Y11 2.371377 1_555
O34 Y6 2.444728 1_555
O35 Y11 2.371381 1_555
O35 Y7 2.444724 1_545
O36 Y2 2.387404 1_555
O36 Y5 2.468211 1_556
O37 Y2 2.387404 1_455
O37 Y4 2.468211 1_455
O38 Y3 2.387404 1_655
O38 Y4 2.468211 1_555
O39 Y3 2.387404 1_665
O39 Y5 2.468211 1_555
O40 Y0 2.390378 1_555
O40 Y3 2.465775 1_555
O41 Y0 2.390384 1_555
O41 Y2 2.465782 1_555
O42 Y1 2.390378 1_555
O42 Y2 2.465783 1_555
O43 Y1 2.390378 1_555
O43 Y3 2.465775 1_665
O44 Y4 2.378825 1_455
O44 Y1 2.448789 1_455
O45 Y4 2.378836 1_455
O45 Y0 2.448783 1_555
O46 Y5 2.378829 1_556
O46 Y0 2.448784 1_555
O47 Y5 2.378825 1_555
O47 Y1 2.448789 1_555
