# generated using pymatgen
data_MgTi
_symmetry_space_group_name_H-M   'P 1'
_cell_length_a   4.84060600
_cell_length_b   5.32225200
_cell_length_c   12.29703700
_cell_angle_alpha   90.00000000
_cell_angle_beta   90.00000000
_cell_angle_gamma   90.00000000
_symmetry_Int_Tables_number   1
_chemical_formula_structural   MgTi
_chemical_formula_sum   'Mg8 Ti8'
_cell_volume   316.80764152
_cell_formula_units_Z   8
loop_
 _symmetry_equiv_pos_site_id
 _symmetry_equiv_pos_as_xyz
  1  'x, y, z'
loop_
 _atom_site_type_symbol
 _atom_site_label
 _atom_site_symmetry_multiplicity
 _atom_site_fract_x
 _atom_site_fract_y
 _atom_site_fract_z
 _atom_site_occupancy
  Mg  Mg0  1  0.00000000  0.67135400  0.12060400  1
  Mg  Mg1  1  0.00000000  0.17405200  0.24978200  1
  Mg  Mg2  1  0.00000000  0.17405200  0.75021800  1
  Mg  Mg3  1  0.00000000  0.67135400  0.87939600  1
  Mg  Mg4  1  0.50000000  0.82594800  0.25021800  1
  Mg  Mg5  1  0.50000000  0.32864600  0.37939600  1
  Mg  Mg6  1  0.50000000  0.32864600  0.62060400  1
  Mg  Mg7  1  0.50000000  0.82594800  0.74978200  1
  Ti  Ti0  1  0.00000000  0.17784400  0.00000000  1
  Ti  Ti1  1  0.00000000  0.67538600  0.39500400  1
  Ti  Ti2  1  0.00000000  0.13385100  0.50000000  1
  Ti  Ti3  1  0.00000000  0.67538600  0.60499600  1
  Ti  Ti4  1  0.50000000  0.86614900  0.00000000  1
  Ti  Ti5  1  0.50000000  0.32461400  0.10499600  1
  Ti  Ti6  1  0.50000000  0.82215600  0.50000000  1
  Ti  Ti7  1  0.50000000  0.32461400  0.89500400  1
loop_
_geom_bond_atom_site_label_1
_geom_bond_atom_site_label_2
_geom_bond_distance
_geom_bond_site_symmetry_2
Mg0 Mg3 2.966144 1_554
Mg0 Mg4 3.012518 1_455
Mg0 Mg4 3.012518 1_555
Mg0 Ti0 3.016363 1_555
Mg0 Ti4 3.021956 1_455
Mg0 Ti4 3.021956 1_555
Mg0 Ti5 3.049647 1_455
Mg0 Ti5 3.049647 1_555
Mg0 Ti0 3.076707 1_565
Mg0 Mg1 3.086864 1_555
Mg0 Mg1 3.111523 1_565
Mg0 Ti1 3.374375 1_555
Mg1 Mg5 3.012518 1_555
Mg1 Mg5 3.012518 1_455
Mg1 Mg4 3.048013 1_445
Mg1 Mg4 3.048013 1_545
Mg1 Ti0 3.071645 1_555
Mg1 Ti2 3.084370 1_555
Mg1 Ti5 3.109655 1_455
Mg1 Ti5 3.109655 1_555
Mg1 Ti1 3.198896 1_545
Mg1 Ti1 3.210687 1_555
Mg2 Mg6 3.012518 1_555
Mg2 Mg6 3.012518 1_455
Mg2 Mg7 3.048013 1_445
Mg2 Mg7 3.048013 1_545
Mg2 Ti0 3.071645 1_556
Mg2 Ti2 3.084370 1_555
Mg2 Mg3 3.086864 1_555
Mg2 Ti7 3.109655 1_455
Mg2 Ti7 3.109655 1_555
Mg2 Mg3 3.111523 1_545
Mg2 Ti3 3.198896 1_545
Mg2 Ti3 3.210687 1_555
Mg3 Mg7 3.012518 1_455
Mg3 Mg7 3.012518 1_555
Mg3 Ti0 3.016363 1_556
Mg3 Ti4 3.021956 1_456
Mg3 Ti4 3.021956 1_556
Mg3 Ti7 3.049647 1_555
Mg3 Ti7 3.049647 1_455
Mg3 Ti0 3.076707 1_566
Mg3 Ti3 3.374375 1_555
Mg4 Ti6 3.071645 1_555
Mg4 Ti4 3.084370 1_555
Mg4 Mg5 3.086864 1_555
Mg4 Ti1 3.109655 1_655
Mg4 Ti1 3.109655 1_555
Mg4 Mg5 3.111523 1_565
Mg4 Ti5 3.198896 1_565
Mg4 Ti5 3.210687 1_555
Mg5 Mg6 2.966144 1_555
Mg5 Ti6 3.016363 1_555
Mg5 Ti2 3.021956 1_655
Mg5 Ti2 3.021956 1_555
Mg5 Ti1 3.049647 1_655
Mg5 Ti1 3.049647 1_555
Mg5 Ti6 3.076707 1_545
Mg5 Ti5 3.374375 1_555
Mg6 Ti6 3.016363 1_555
Mg6 Ti2 3.021956 1_655
Mg6 Ti2 3.021956 1_555
Mg6 Ti3 3.049647 1_655
Mg6 Ti3 3.049647 1_555
Mg6 Ti6 3.076707 1_545
Mg6 Mg7 3.086864 1_555
Mg6 Mg7 3.111523 1_545
Mg6 Ti7 3.374375 1_555
Mg7 Ti6 3.071645 1_555
Mg7 Ti4 3.084370 1_556
Mg7 Ti3 3.109655 1_555
Mg7 Ti3 3.109655 1_655
Mg7 Ti7 3.198896 1_565
Mg7 Ti7 3.210687 1_555
Ti0 Ti5 2.852209 1_455
Ti0 Ti5 2.852209 1_555
Ti0 Ti7 2.852209 1_554
Ti0 Ti7 2.852209 1_454
Ti0 Ti4 2.934260 1_445
Ti0 Ti4 2.934260 1_545
Ti1 Ti3 2.582279 1_555
Ti1 Ti2 2.760610 1_565
Ti1 Ti6 2.852209 1_455
Ti1 Ti6 2.852209 1_555
Ti1 Ti2 3.158170 1_555
Ti2 Ti3 2.760610 1_545
Ti2 Ti6 2.934260 1_545
Ti2 Ti6 2.934260 1_445
Ti2 Ti3 3.158170 1_555
Ti3 Ti6 2.852209 1_555
Ti3 Ti6 2.852209 1_455
Ti4 Ti7 2.760610 1_564
Ti4 Ti5 2.760610 1_565
Ti4 Ti5 3.158170 1_555
Ti4 Ti7 3.158170 1_554
Ti5 Ti7 2.582279 1_554
