# generated using pymatgen
data_RbCu(PO3)3
_symmetry_space_group_name_H-M   'P 1'
_cell_length_a   11.54229400
_cell_length_b   5.37689000
_cell_length_c   13.30162883
_cell_angle_alpha   80.02102719
_cell_angle_beta   90.00000000
_cell_angle_gamma   90.00000000
_symmetry_Int_Tables_number   1
_chemical_formula_structural   RbCu(PO3)3
_chemical_formula_sum   'Rb4 Cu4 P12 O36'
_cell_volume   813.03200422
_cell_formula_units_Z   4
loop_
 _symmetry_equiv_pos_site_id
 _symmetry_equiv_pos_as_xyz
  1  'x, y, z'
loop_
 _atom_site_type_symbol
 _atom_site_label
 _atom_site_symmetry_multiplicity
 _atom_site_fract_x
 _atom_site_fract_y
 _atom_site_fract_z
 _atom_site_occupancy
  Rb  Rb0  1  0.18041000  0.93745700  0.25351600  1
  Rb  Rb1  1  0.81959000  0.06254300  0.74648400  1
  Rb  Rb2  1  0.68041000  0.06254300  0.24648400  1
  Rb  Rb3  1  0.31959000  0.93745700  0.75351600  1
  Cu  Cu0  1  0.00000000  0.00000000  0.50000000  1
  Cu  Cu1  1  0.50000000  0.00000000  0.00000000  1
  Cu  Cu2  1  0.00000000  0.00000000  0.00000000  1
  Cu  Cu3  1  0.50000000  0.00000000  0.50000000  1
  P  P0  1  0.91129500  0.51600500  0.37055300  1
  P  P1  1  0.08870500  0.48399500  0.62944700  1
  P  P2  1  0.41129500  0.48399500  0.12944700  1
  P  P3  1  0.58870500  0.51600500  0.87055300  1
  P  P4  1  0.92397800  0.48630900  0.14924300  1
  P  P5  1  0.07602200  0.51369100  0.85075700  1
  P  P6  1  0.42397800  0.51369100  0.35075700  1
  P  P7  1  0.57602200  0.48630900  0.64924300  1
  P  P8  1  0.75259000  0.74668100  0.50867900  1
  P  P9  1  0.24741000  0.25331900  0.49132100  1
  P  P10  1  0.25259000  0.25331900  0.99132100  1
  P  P11  1  0.74741000  0.74668100  0.00867900  1
  O  O0  1  0.01160900  0.67423200  0.39071500  1
  O  O1  1  0.98839100  0.32576800  0.60928500  1
  O  O2  1  0.51160900  0.32576800  0.10928500  1
  O  O3  1  0.48839100  0.67423200  0.89071500  1
  O  O4  1  0.41039600  0.76771500  0.10033800  1
  O  O5  1  0.58960400  0.23228500  0.89966200  1
  O  O6  1  0.91039600  0.23228500  0.39966200  1
  O  O7  1  0.08960400  0.76771500  0.60033800  1
  O  O8  1  0.45643600  0.78432300  0.32908800  1
  O  O9  1  0.54356400  0.21567700  0.67091200  1
  O  O10  1  0.95643600  0.21567700  0.17091200  1
  O  O11  1  0.04356400  0.78432300  0.82908800  1
  O  O12  1  0.66057500  0.93803500  0.46958200  1
  O  O13  1  0.33942500  0.06196500  0.53041800  1
  O  O14  1  0.16057500  0.06196500  0.03041800  1
  O  O15  1  0.83942500  0.93803500  0.96958200  1
  O  O16  1  0.80311000  0.51124300  0.08436700  1
  O  O17  1  0.19689000  0.48875700  0.91563300  1
  O  O18  1  0.30311000  0.48875700  0.41563300  1
  O  O19  1  0.69689000  0.51124300  0.58436700  1
  O  O20  1  0.64533300  0.83903700  0.06246100  1
  O  O21  1  0.35466700  0.16096300  0.93753900  1
  O  O22  1  0.14533300  0.16096300  0.43753900  1
  O  O23  1  0.85466700  0.83903700  0.56246100  1
  O  O24  1  0.87275800  0.58044000  0.25105800  1
  O  O25  1  0.12724200  0.41956000  0.74894200  1
  O  O26  1  0.37275800  0.41956000  0.24894200  1
  O  O27  1  0.62724200  0.58044000  0.75105800  1
  O  O28  1  0.79091100  0.62168600  0.41328800  1
  O  O29  1  0.20908900  0.37831400  0.58671200  1
  O  O30  1  0.29091100  0.37831400  0.08671200  1
  O  O31  1  0.70908900  0.62168600  0.91328800  1
  O  O32  1  0.48849600  0.67912700  0.59926700  1
  O  O33  1  0.51150400  0.32087300  0.40073300  1
  O  O34  1  0.98849600  0.32087300  0.90073300  1
  O  O35  1  0.01150400  0.67912700  0.09926700  1
loop_
_geom_bond_atom_site_label_1
_geom_bond_atom_site_label_2
_geom_bond_distance
_geom_bond_site_symmetry_2
Cu0 O6 1.957847 1_455
Cu0 O7 1.957847 1_545
Cu0 O22 2.001014 1_555
Cu0 O23 2.001014 1_445
Cu0 O1 2.466120 1_455
Cu0 O0 2.466120 1_545
Cu1 O4 1.957847 1_545
Cu1 O5 1.957847 1_554
Cu1 O21 2.001014 1_554
Cu1 O20 2.001014 1_545
Cu1 O3 2.466120 1_544
Cu1 O2 2.466120 1_555
Cu2 O14 1.938180 1_555
Cu2 O15 1.938180 1_444
Cu2 O35 1.987019 1_545
Cu2 O34 1.987019 1_454
Cu3 O13 1.938180 1_555
Cu3 O12 1.938180 1_545
Cu3 O32 1.987019 1_545
Cu3 O33 1.987019 1_555
O0 P0 1.488433 1_455
O0 Rb0 2.869595 1_555
O1 P1 1.488433 1_655
O1 Rb1 2.869595 1_555
O2 P2 1.488433 1_555
O2 Rb2 2.869595 1_555
O3 P3 1.488433 1_555
O3 Rb3 2.869595 1_555
O4 P2 1.507501 1_555
O5 P3 1.507501 1_555
O6 P0 1.507501 1_555
O7 P1 1.507501 1_555
O8 P6 1.481742 1_555
O8 Rb2 3.091705 1_565
O8 Rb0 3.398826 1_555
O9 P7 1.481742 1_555
O9 Rb3 3.091705 1_545
O9 Rb1 3.398826 1_555
O10 P4 1.481742 1_555
O10 Rb0 3.091705 1_645
O10 Rb2 3.398826 1_555
O11 P5 1.481742 1_555
O11 Rb1 3.091705 1_465
O11 Rb3 3.398826 1_555
O12 P8 1.507185 1_555
O12 Rb2 2.935731 1_565
O13 P9 1.507185 1_555
O13 Rb3 2.935731 1_545
O14 P10 1.507185 1_554
O14 Rb0 2.935731 1_545
O15 P11 1.507185 1_556
O15 Rb1 2.935731 1_565
O16 P11 1.608657 1_555
O16 P4 1.633664 1_555
O16 Rb2 3.267030 1_555
O17 P10 1.608657 1_555
O17 P5 1.633664 1_555
O17 Rb3 3.267030 1_555
O18 P9 1.608657 1_555
O18 P6 1.633664 1_555
O18 Rb0 3.267030 1_555
O19 P8 1.608657 1_555
O19 P7 1.633664 1_555
O19 Rb1 3.267030 1_555
O20 P11 1.506540 1_555
O20 Rb2 2.935886 1_565
O21 P10 1.506540 1_555
O21 Rb3 2.935886 1_545
O22 P9 1.506540 1_555
O22 Rb0 2.935886 1_545
O23 P8 1.506540 1_555
O23 Rb1 2.935886 1_565
O24 P0 1.628948 1_555
O24 P4 1.636272 1_555
O24 Rb2 3.405529 1_565
O25 P1 1.628948 1_555
O25 P5 1.636272 1_555
O25 Rb3 3.405529 1_545
O26 P2 1.628948 1_555
O26 P6 1.636272 1_555
O26 Rb0 3.405529 1_545
O27 P3 1.628948 1_555
O27 P7 1.636272 1_555
O27 Rb1 3.405529 1_565
O28 P8 1.597774 1_555
O28 P0 1.639725 1_555
O28 Rb2 3.216497 1_565
O29 P9 1.597774 1_555
O29 P1 1.639725 1_555
O29 Rb3 3.216497 1_545
O30 P10 1.597774 1_554
O30 P2 1.639725 1_555
O30 Rb0 3.216497 1_545
O31 P11 1.597774 1_556
O31 P3 1.639725 1_555
O31 Rb1 3.216497 1_565
O32 P7 1.516091 1_555
O32 Rb3 3.305690 1_555
O33 P6 1.516091 1_555
O33 Rb2 3.305690 1_555
O34 P5 1.516091 1_655
O34 Rb1 3.305690 1_555
O35 P4 1.516091 1_455
O35 Rb0 3.305690 1_555
