# generated using pymatgen
data_Ti2Sb2Pb4O13
_symmetry_space_group_name_H-M   'P 1'
_cell_length_a   7.47085714
_cell_length_b   7.47085714
_cell_length_c   7.47085714
_cell_angle_alpha   120.15950758
_cell_angle_beta   119.77329924
_cell_angle_gamma   90.05852593
_symmetry_Int_Tables_number   1
_chemical_formula_structural   Ti2Sb2Pb4O13
_chemical_formula_sum   'Ti2 Sb2 Pb4 O13'
_cell_volume   294.99209465
_cell_formula_units_Z   1
loop_
 _symmetry_equiv_pos_site_id
 _symmetry_equiv_pos_as_xyz
  1  'x, y, z'
loop_
 _atom_site_type_symbol
 _atom_site_label
 _atom_site_symmetry_multiplicity
 _atom_site_fract_x
 _atom_site_fract_y
 _atom_site_fract_z
 _atom_site_occupancy
  Ti  Ti0  1  0.62600500  0.87720500  0.25120000  1
  Ti  Ti1  1  0.62600500  0.37480500  0.74880000  1
  Sb  Sb0  1  0.62533800  0.37502900  0.25030900  1
  Sb  Sb1  1  0.12471900  0.37502900  0.74969100  1
  Pb  Pb0  1  0.12715900  0.38176900  0.25461100  1
  Pb  Pb1  1  0.12715900  0.87254800  0.74538900  1
  Pb  Pb2  1  0.12658100  0.87327700  0.25330500  1
  Pb  Pb3  1  0.61997200  0.87327700  0.74669500  1
  O  O0  1  0.55623500  0.44218400  0.50000100  1
  O  O1  1  0.94218200  0.44218400  0.88594900  1
  O  O2  1  0.94671800  0.44671800  0.50000000  1
  O  O3  1  0.94218200  0.05623400  0.49999900  1
  O  O4  1  0.55623500  0.05623400  0.11405100  1
  O  O5  1  0.56182900  0.06182900  0.50000000  1
  O  O6  1  0.00044300  0.00044300  0.00000000  1
  O  O7  1  0.30380200  0.69564300  0.99944300  1
  O  O8  1  0.69620000  0.69564300  0.39184000  1
  O  O9  1  0.69115000  0.69115000  0.00000000  1
  O  O10  1  0.69620000  0.30436000  0.00055700  1
  O  O11  1  0.30380200  0.30436000  0.60816000  1
  O  O12  1  0.30036900  0.30036900  0.00000000  1
loop_
_geom_bond_atom_site_label_1
_geom_bond_atom_site_label_2
_geom_bond_distance
_geom_bond_site_symmetry_2
O0 Ti1 1.989596 1_555
O0 Sb0 2.003636 1_555
O0 Pb3 2.675248 1_555
O0 Pb0 2.677594 1_555
O1 Ti1 1.989589 1_555
O1 Sb1 2.003636 1_655
O1 Pb2 2.675248 1_656
O1 Pb0 2.677600 1_656
O2 Sb1 2.019086 1_655
O2 Sb0 2.019088 1_555
O2 Pb0 2.641103 1_655
O2 Pb1 2.641104 1_655
O3 Ti0 1.989591 1_545
O3 Sb1 2.003636 1_655
O3 Pb2 2.675248 1_645
O3 Pb1 2.677596 1_645
O4 Ti0 1.989596 1_545
O4 Sb0 2.003636 1_555
O4 Pb3 2.675248 1_544
O4 Pb1 2.677595 1_544
O5 Ti0 1.974228 1_545
O5 Ti1 1.974228 1_555
O5 Pb3 2.717452 1_545
O5 Pb2 2.717459 1_545
O6 Pb0 2.321923 1_555
O6 Pb1 2.321929 1_544
O6 Pb2 2.325741 1_545
O6 Pb3 2.325741 1_444
O7 Sb1 2.008029 1_555
O7 Ti0 2.026126 1_556
O7 Pb2 2.660722 1_556
O7 Pb1 2.669683 1_555
O8 Sb0 2.008029 1_555
O8 Ti0 2.026120 1_555
O8 Pb3 2.660722 1_555
O8 Pb1 2.669684 1_655
O9 Ti1 1.994544 1_554
O9 Ti0 1.994544 1_555
O9 Pb2 2.702714 1_655
O9 Pb3 2.702720 1_554
O10 Sb0 2.008029 1_555
O10 Ti1 2.026120 1_554
O10 Pb3 2.660722 1_544
O10 Pb0 2.669686 1_655
O11 Sb1 2.008029 1_555
O11 Ti1 2.026127 1_555
O11 Pb2 2.660722 1_545
O11 Pb0 2.669679 1_555
O12 Sb0 2.035330 1_555
O12 Sb1 2.035331 1_554
O12 Pb1 2.635599 1_544
O12 Pb0 2.635600 1_555
