# generated using pymatgen
data_Er5Pt4
_symmetry_space_group_name_H-M   'P 1'
_cell_length_a   7.40376177
_cell_length_b   7.48532013
_cell_length_c   14.38797694
_cell_angle_alpha   90.00000000
_cell_angle_beta   90.00000000
_cell_angle_gamma   90.00000000
_symmetry_Int_Tables_number   1
_chemical_formula_structural   Er5Pt4
_chemical_formula_sum   'Er20 Pt16'
_cell_volume   797.37487671
_cell_formula_units_Z   4
loop_
 _symmetry_equiv_pos_site_id
 _symmetry_equiv_pos_as_xyz
  1  'x, y, z'
loop_
 _atom_site_type_symbol
 _atom_site_label
 _atom_site_symmetry_multiplicity
 _atom_site_fract_x
 _atom_site_fract_y
 _atom_site_fract_z
 _atom_site_occupancy
  Er  Er0  1  0.34890507  0.83241713  0.87735592  1
  Er  Er1  1  0.84890507  0.66758287  0.62264408  1
  Er  Er2  1  0.65109493  0.16758287  0.37735592  1
  Er  Er3  1  0.15109493  0.33241713  0.12264408  1
  Er  Er4  1  0.65109493  0.16758287  0.12264408  1
  Er  Er5  1  0.15109493  0.33241713  0.37735592  1
  Er  Er6  1  0.34890507  0.83241713  0.62264408  1
  Er  Er7  1  0.84890507  0.66758287  0.87735592  1
  Er  Er8  1  0.50320226  0.32027554  0.90703029  1
  Er  Er9  1  0.00320226  0.17972446  0.59296971  1
  Er  Er10  1  0.49679774  0.67972446  0.40703029  1
  Er  Er11  1  0.99679774  0.82027554  0.09296971  1
  Er  Er12  1  0.49679774  0.67972446  0.09296971  1
  Er  Er13  1  0.99679774  0.82027554  0.40703029  1
  Er  Er14  1  0.50320226  0.32027554  0.59296971  1
  Er  Er15  1  0.00320226  0.17972446  0.90703029  1
  Er  Er16  1  0.18747688  0.48895221  0.75000000  1
  Er  Er17  1  0.68747588  0.01104679  0.75000000  1
  Er  Er18  1  0.81252412  0.51104779  0.25000000  1
  Er  Er19  1  0.31252412  0.98895221  0.25000000  1
  Pt  Pt0  1  0.31266692  0.03310281  0.04077244  1
  Pt  Pt1  1  0.81266592  0.46689719  0.45922756  1
  Pt  Pt2  1  0.68733408  0.96689719  0.54077244  1
  Pt  Pt3  1  0.18733308  0.53310281  0.95922756  1
  Pt  Pt4  1  0.68733408  0.96689719  0.95922756  1
  Pt  Pt5  1  0.18733308  0.53310281  0.54077244  1
  Pt  Pt6  1  0.31266692  0.03310281  0.45922756  1
  Pt  Pt7  1  0.81266592  0.46689719  0.04077244  1
  Pt  Pt8  1  0.55301110  0.61101362  0.75000000  1
  Pt  Pt9  1  0.05301110  0.88898638  0.75000000  1
  Pt  Pt10  1  0.44698890  0.38898638  0.25000000  1
  Pt  Pt11  1  0.94698890  0.11101362  0.25000000  1
  Pt  Pt12  1  0.32461855  0.14310295  0.75000000  1
  Pt  Pt13  1  0.82461855  0.35689705  0.75000000  1
  Pt  Pt14  1  0.67538145  0.85689705  0.25000000  1
  Pt  Pt15  1  0.17538145  0.64310295  0.25000000  1
loop_
_geom_bond_atom_site_label_1
_geom_bond_atom_site_label_2
_geom_bond_distance
_geom_bond_site_symmetry_2
Er0 Pt3 2.799692 1_555
Er0 Pt0 2.803012 1_566
Er0 Pt9 2.887258 1_555
Er0 Pt8 2.896172 1_555
Er0 Pt4 2.946044 1_555
Er0 Pt12 2.966199 1_565
Er1 Pt2 2.799689 1_555
Er1 Pt1 2.803013 1_555
Er1 Pt8 2.887258 1_555
Er1 Pt9 2.896172 1_655
Er1 Pt5 2.946038 1_655
Er1 Pt13 2.966199 1_555
Er2 Pt1 2.799689 1_555
Er2 Pt2 2.803013 1_545
Er2 Pt11 2.887258 1_555
Er2 Pt10 2.896172 1_555
Er2 Pt6 2.946038 1_555
Er2 Pt14 2.966199 1_545
Er3 Pt0 2.799692 1_555
Er3 Pt3 2.803012 1_554
Er3 Pt10 2.887258 1_555
Er3 Pt11 2.896172 1_455
Er3 Pt7 2.946044 1_455
Er3 Pt15 2.966199 1_555
Er4 Pt7 2.799689 1_555
Er4 Pt4 2.803013 1_544
Er4 Pt11 2.887258 1_555
Er4 Pt10 2.896172 1_555
Er4 Pt0 2.946038 1_555
Er4 Pt14 2.966199 1_545
Er5 Pt6 2.799692 1_555
Er5 Pt5 2.803012 1_555
Er5 Pt10 2.887258 1_555
Er5 Pt11 2.896172 1_455
Er5 Pt1 2.946044 1_455
Er5 Pt15 2.966199 1_555
Er6 Pt5 2.799692 1_555
Er6 Pt6 2.803012 1_565
Er6 Pt9 2.887258 1_555
Er6 Pt8 2.896172 1_555
Er6 Pt2 2.946044 1_555
Er6 Pt12 2.966199 1_565
Er7 Pt4 2.799689 1_555
Er7 Pt7 2.803013 1_556
Er7 Pt8 2.887258 1_555
Er7 Pt9 2.896172 1_655
Er7 Pt3 2.946038 1_655
Er7 Pt13 2.966199 1_555
Er8 Pt3 2.927639 1_555
Er8 Pt12 2.934558 1_555
Er8 Pt4 3.069094 1_545
Er8 Pt8 3.158605 1_555
Er8 Pt7 3.186998 1_556
Er8 Pt0 3.211473 1_556
Er8 Pt13 3.292829 1_555
Er9 Pt2 2.927633 1_445
Er9 Pt13 2.934558 1_455
Er9 Pt5 3.069091 1_555
Er9 Pt9 3.158605 1_545
Er9 Pt6 3.187003 1_555
Er9 Pt1 3.211476 1_455
Er9 Pt12 3.292829 1_555
Er10 Pt1 2.927633 1_555
Er10 Pt14 2.934558 1_555
Er10 Pt6 3.069091 1_565
Er10 Pt10 3.158605 1_555
Er10 Pt5 3.187003 1_555
Er10 Pt2 3.211476 1_555
Er10 Pt15 3.292829 1_555
Er11 Pt0 2.927639 1_665
Er11 Pt15 2.934558 1_655
Er11 Pt7 3.069094 1_555
Er11 Pt11 3.158605 1_565
Er11 Pt4 3.186998 1_554
Er11 Pt3 3.211473 1_654
Er11 Pt14 3.292829 1_555
Er12 Pt7 2.927633 1_555
Er12 Pt14 2.934558 1_555
Er12 Pt0 3.069091 1_565
Er12 Pt10 3.158605 1_555
Er12 Pt3 3.187003 1_554
Er12 Pt4 3.211476 1_554
Er12 Pt15 3.292829 1_555
Er13 Pt6 2.927639 1_665
Er13 Pt15 2.934558 1_655
Er13 Pt1 3.069094 1_555
Er13 Pt11 3.158605 1_565
Er13 Pt2 3.186998 1_555
Er13 Pt5 3.211473 1_655
Er13 Pt14 3.292829 1_555
Er14 Pt5 2.927639 1_555
Er14 Pt12 2.934558 1_555
Er14 Pt2 3.069094 1_545
Er14 Pt8 3.158605 1_555
Er14 Pt1 3.186998 1_555
Er14 Pt6 3.211473 1_555
Er14 Pt13 3.292829 1_555
Er15 Pt4 2.927633 1_445
Er15 Pt13 2.934558 1_455
Er15 Pt3 3.069091 1_555
Er15 Pt9 3.158605 1_545
Er15 Pt0 3.187003 1_556
Er15 Pt7 3.211476 1_456
Er15 Pt12 3.292829 1_555
Er16 Pt12 2.780793 1_555
Er16 Pt8 2.856397 1_555
Er16 Pt13 2.862596 1_455
Er16 Pt5 3.028448 1_555
Er16 Pt3 3.028448 1_555
Er16 Pt9 3.155544 1_555
Er17 Pt13 2.780803 1_555
Er17 Pt9 2.856402 1_645
Er17 Pt12 2.862591 1_555
Er17 Pt4 3.028447 1_545
Er17 Pt2 3.028447 1_545
Er17 Pt8 3.155535 1_545
Er18 Pt14 2.780796 1_555
Er18 Pt10 2.856404 1_555
Er18 Pt15 2.862589 1_655
Er18 Pt1 3.028447 1_555
Er18 Pt7 3.028447 1_555
Er18 Pt11 3.155542 1_555
Er19 Pt15 2.780796 1_555
Er19 Pt11 2.856404 1_465
Er19 Pt14 2.862589 1_555
Er19 Pt6 3.028448 1_565
Er19 Pt0 3.028448 1_565
Er19 Pt10 3.155542 1_565
Pt10 Pt15 2.768021 1_555
Pt11 Pt14 2.768021 1_545
Pt12 Pt9 2.768021 1_545
Pt13 Pt8 2.768021 1_555
