# generated using pymatgen
data_Sc4Ge6Ru7
_symmetry_space_group_name_H-M   'P 1'
_cell_length_a   7.06873490
_cell_length_b   7.06873490
_cell_length_c   7.06873490
_cell_angle_alpha   109.47122063
_cell_angle_beta   109.47122063
_cell_angle_gamma   109.47122063
_symmetry_Int_Tables_number   1
_chemical_formula_structural   Sc4Ge6Ru7
_chemical_formula_sum   'Sc4 Ge6 Ru7'
_cell_volume   271.89623491
_cell_formula_units_Z   1
loop_
 _symmetry_equiv_pos_site_id
 _symmetry_equiv_pos_as_xyz
  1  'x, y, z'
loop_
 _atom_site_type_symbol
 _atom_site_label
 _atom_site_symmetry_multiplicity
 _atom_site_fract_x
 _atom_site_fract_y
 _atom_site_fract_z
 _atom_site_occupancy
  Sc  Sc0  1  0.00000000  0.00000000  0.50000000  1
  Sc  Sc1  1  0.00000000  0.50000000  0.00000000  1
  Sc  Sc2  1  0.50000000  0.00000000  0.00000000  1
  Sc  Sc3  1  0.50000000  0.50000000  0.50000000  1
  Ge  Ge0  1  0.69093900  0.69093900  0.00000000  1
  Ge  Ge1  1  0.30906100  0.00000000  0.30906100  1
  Ge  Ge2  1  0.00000000  0.30906100  0.30906100  1
  Ge  Ge3  1  0.30906100  0.30906100  0.00000000  1
  Ge  Ge4  1  0.69093800  0.00000000  0.69093900  1
  Ge  Ge5  1  0.00000000  0.69093900  0.69093900  1
  Ru  Ru0  1  0.75000000  0.25000000  0.50000000  1
  Ru  Ru1  1  0.75000000  0.50000000  0.25000000  1
  Ru  Ru2  1  0.50000000  0.25000000  0.75000000  1
  Ru  Ru3  1  0.25000000  0.50000000  0.75000000  1
  Ru  Ru4  1  0.25000000  0.75000000  0.50000000  1
  Ru  Ru5  1  0.50000000  0.75000000  0.25000000  1
  Ru  Ru6  1  0.00000000  0.00000000  0.00000000  1
loop_
_geom_bond_atom_site_label_1
_geom_bond_atom_site_label_2
_geom_bond_distance
_geom_bond_site_symmetry_2
Ge0 Ru6 2.522640 1_665
Ge0 Ru1 2.567650 1_555
Ge0 Ru5 2.567650 1_555
Ge0 Ru2 2.567650 1_554
Ge0 Ru3 2.567650 1_554
Ge0 Sc1 2.925787 1_655
Ge0 Sc0 2.925787 1_665
Ge0 Sc2 2.925787 1_565
Ge0 Sc3 2.925787 1_554
Ge1 Ru6 2.522640 1_555
Ge1 Ru5 2.567650 1_545
Ge1 Ru0 2.567650 1_555
Ge1 Ru4 2.567650 1_545
Ge1 Ru2 2.567650 1_555
Ge1 Sc0 2.925787 1_555
Ge1 Sc2 2.925787 1_555
Ge1 Sc3 2.925787 1_555
Ge1 Sc1 2.925787 1_545
Ge2 Ru6 2.522640 1_555
Ge2 Ru3 2.567650 1_555
Ge2 Ru4 2.567650 1_555
Ge2 Ru0 2.567650 1_455
Ge2 Ru1 2.567650 1_455
Ge2 Sc0 2.925787 1_555
Ge2 Sc2 2.925787 1_455
Ge2 Sc1 2.925787 1_555
Ge2 Sc3 2.925787 1_555
Ge3 Ru6 2.522640 1_555
Ge3 Ru2 2.567650 1_554
Ge3 Ru3 2.567650 1_554
Ge3 Ru5 2.567650 1_555
Ge3 Ru1 2.567650 1_555
Ge3 Sc3 2.925787 1_555
Ge3 Sc0 2.925787 1_554
Ge3 Sc2 2.925787 1_555
Ge3 Sc1 2.925787 1_555
Ge4 Ru6 2.522644 1_656
Ge4 Ru4 2.567645 1_545
Ge4 Ru2 2.567645 1_555
Ge4 Ru0 2.567651 1_555
Ge4 Ru5 2.567651 1_545
Ge4 Sc2 2.925782 1_556
Ge4 Sc1 2.925788 1_656
Ge4 Sc3 2.925788 1_545
Ge4 Sc0 2.925793 1_655
Ge5 Ru6 2.522640 1_566
Ge5 Ru3 2.567650 1_555
Ge5 Ru4 2.567650 1_555
Ge5 Ru0 2.567650 1_455
Ge5 Ru1 2.567650 1_455
Ge5 Sc3 2.925787 1_455
Ge5 Sc1 2.925787 1_556
Ge5 Sc0 2.925787 1_565
Ge5 Sc2 2.925787 1_566
Ru0 Sc0 2.885799 1_655
Ru0 Sc1 2.885799 1_656
Ru0 Sc2 2.885799 1_555
Ru0 Sc3 2.885799 1_555
Ru1 Sc2 2.885799 1_555
Ru1 Sc1 2.885799 1_655
Ru1 Sc0 2.885799 1_665
Ru1 Sc3 2.885799 1_555
Ru2 Sc2 2.885799 1_556
Ru2 Sc0 2.885799 1_555
Ru2 Sc1 2.885799 1_656
Ru2 Sc3 2.885799 1_555
Ru3 Sc1 2.885799 1_556
Ru3 Sc2 2.885799 1_566
Ru3 Sc0 2.885799 1_555
Ru3 Sc3 2.885799 1_555
Ru4 Sc0 2.885799 1_565
Ru4 Sc2 2.885799 1_566
Ru4 Sc1 2.885799 1_555
Ru4 Sc3 2.885799 1_555
Ru5 Sc2 2.885799 1_565
Ru5 Sc1 2.885799 1_555
Ru5 Sc0 2.885799 1_665
Ru5 Sc3 2.885799 1_555
