# generated using pymatgen
data_Fe2P3O13
_symmetry_space_group_name_H-M   'P 1'
_cell_length_a   7.29588244
_cell_length_b   8.36468449
_cell_length_c   11.21387500
_cell_angle_alpha   90.00000000
_cell_angle_beta   90.00000000
_cell_angle_gamma   109.80935342
_symmetry_Int_Tables_number   1
_chemical_formula_structural   Fe2P3O13
_chemical_formula_sum   'Fe4 P6 O26'
_cell_volume   643.86106440
_cell_formula_units_Z   2
loop_
 _symmetry_equiv_pos_site_id
 _symmetry_equiv_pos_as_xyz
  1  'x, y, z'
loop_
 _atom_site_type_symbol
 _atom_site_label
 _atom_site_symmetry_multiplicity
 _atom_site_fract_x
 _atom_site_fract_y
 _atom_site_fract_z
 _atom_site_occupancy
  Fe  Fe0  1  0.95111200  0.61740400  0.38136400  1
  Fe  Fe1  1  0.04888800  0.38259600  0.88136400  1
  Fe  Fe2  1  0.60216700  0.98539400  0.62455900  1
  Fe  Fe3  1  0.39783300  0.01460600  0.12455900  1
  P  P0  1  0.90446100  0.40393700  0.61781700  1
  P  P1  1  0.09553900  0.59606300  0.11781700  1
  P  P2  1  0.61915500  0.76304500  0.40785800  1
  P  P3  1  0.38084500  0.23695500  0.90785800  1
  P  P4  1  0.35465200  0.95916600  0.39132200  1
  P  P5  1  0.64534800  0.04083500  0.89132200  1
  O  O0  1  0.77778600  0.73639900  0.32717100  1
  O  O1  1  0.22221400  0.26360100  0.82717100  1
  O  O2  1  0.66923200  0.93130800  0.78788100  1
  O  O3  1  0.33076800  0.06869200  0.28788100  1
  O  O4  1  0.71746600  0.86820400  0.51681000  1
  O  O5  1  0.28253400  0.13179600  0.01681000  1
  O  O6  1  0.49128000  0.12929500  0.83488800  1
  O  O7  1  0.50872000  0.87070500  0.33488800  1
  O  O8  1  0.01053500  0.46763300  0.50121600  1
  O  O9  1  0.98946500  0.53236700  0.00121600  1
  O  O10  1  0.16682400  0.81259300  0.42037900  1
  O  O11  1  0.83317600  0.18740700  0.92037900  1
  O  O12  1  0.99022400  0.51690200  0.23233200  1
  O  O13  1  0.00977600  0.48309800  0.73233200  1
  O  O14  1  0.44802900  0.05910500  0.50190900  1
  O  O15  1  0.55197100  0.94089500  0.00190900  1
  O  O16  1  0.79937500  0.21638900  0.63029200  1
  O  O17  1  0.20062500  0.78361100  0.13029200  1
  O  O18  1  0.71544900  0.48840700  0.60827800  1
  O  O19  1  0.28455100  0.51159300  0.10827800  1
  O  O20  1  0.67521000  0.49372600  0.49022300  1
  O  O21  1  0.32479000  0.50627400  0.99022300  1
  O  O22  1  0.35595900  0.81221000  0.66530100  1
  O  O23  1  0.64404100  0.18779000  0.16530100  1
  O  O24  1  0.45173000  0.59551000  0.43460100  1
  O  O25  1  0.54827000  0.40449000  0.93460100  1
loop_
_geom_bond_atom_site_label_1
_geom_bond_atom_site_label_2
_geom_bond_distance
_geom_bond_site_symmetry_2
Fe0 O10 1.895359 1_655
Fe0 O12 1.934875 1_555
Fe0 O0 1.952510 1_555
Fe0 O8 1.982906 1_655
Fe0 O20 2.280558 1_555
Fe1 O11 1.895359 1_455
Fe1 O13 1.934875 1_555
Fe1 O1 1.952510 1_555
Fe1 O9 1.982906 1_456
Fe1 O21 2.280558 1_555
Fe2 O4 1.920257 1_555
Fe2 O22 1.941716 1_555
Fe2 O16 1.980761 1_565
Fe2 O2 1.987063 1_555
Fe2 O14 2.001613 1_565
Fe3 O5 1.920257 1_555
Fe3 O23 1.941716 1_555
Fe3 O17 1.980761 1_545
Fe3 O3 1.987063 1_555
Fe3 O15 2.001613 1_545
O0 P2 1.543590 1_555
O1 P3 1.543590 1_555
O2 P5 1.524289 1_565
O3 P4 1.524284 1_545
O4 P2 1.534050 1_555
O5 P3 1.534050 1_554
O6 P3 1.619113 1_555
O6 P5 1.665910 1_555
O7 P2 1.619113 1_555
O7 P4 1.665916 1_555
O8 P0 1.520859 1_455
O9 P1 1.520859 1_655
O10 P4 1.532480 1_555
O11 P5 1.532476 1_555
O12 P1 1.527434 1_655
O13 P0 1.527434 1_455
O14 P4 1.521452 1_545
O15 P5 1.521455 1_564
O16 P0 1.501080 1_555
O17 P1 1.501080 1_555
O18 O20 1.360004 1_555
O18 P0 1.752925 1_555
O19 O21 1.360004 1_554
O19 P1 1.752925 1_555
O24 P2 1.544558 1_555
O25 P3 1.544558 1_555
