# generated using pymatgen
data_Yb2NiSb2
_symmetry_space_group_name_H-M   'P 1'
_cell_length_a   7.83897708
_cell_length_b   7.83897708
_cell_length_c   7.83897725
_cell_angle_alpha   33.83452218
_cell_angle_beta   33.83452218
_cell_angle_gamma   33.83451707
_symmetry_Int_Tables_number   1
_chemical_formula_structural   Yb2NiSb2
_chemical_formula_sum   'Yb2 Ni1 Sb2'
_cell_volume   133.07986345
_cell_formula_units_Z   1
loop_
 _symmetry_equiv_pos_site_id
 _symmetry_equiv_pos_as_xyz
  1  'x, y, z'
loop_
 _atom_site_type_symbol
 _atom_site_label
 _atom_site_symmetry_multiplicity
 _atom_site_fract_x
 _atom_site_fract_y
 _atom_site_fract_z
 _atom_site_occupancy
  Yb  Yb0  1  0.99618700  0.99618700  0.99618700  1
  Yb  Yb1  1  0.50510800  0.50510800  0.50510800  1
  Ni  Ni0  1  0.37252200  0.37252200  0.37252200  1
  Sb  Sb0  1  0.74608600  0.74608600  0.74608600  1
  Sb  Sb1  1  0.25509700  0.25509700  0.25509700  1
loop_
_geom_bond_atom_site_label_1
_geom_bond_atom_site_label_2
_geom_bond_distance
_geom_bond_site_symmetry_2
Ni0 Sb1 2.600922 1_555
Ni0 Sb0 2.780601 1_545
Ni0 Sb0 2.780601 1_455
Ni0 Sb0 2.780601 1_554
Ni0 Yb0 2.800873 1_544
Ni0 Yb0 2.800873 1_454
Ni0 Yb0 2.800874 1_445
Ni0 Yb1 2.936733 1_555
Sb0 Yb0 3.215032 1_455
Sb0 Yb0 3.215032 1_545
Sb0 Yb0 3.215032 1_554
Sb0 Yb1 3.335015 1_655
Sb0 Yb1 3.335015 1_565
Sb0 Yb1 3.335015 1_556
Sb1 Yb0 3.107262 1_454
Sb1 Yb0 3.107262 1_544
Sb1 Yb0 3.107263 1_445
Sb1 Yb1 3.216175 1_455
Sb1 Yb1 3.216175 1_545
Sb1 Yb1 3.216175 1_554
