# generated using pymatgen
data_Al4B2O9
_symmetry_space_group_name_H-M   'P 1'
_cell_length_a   7.57743164
_cell_length_b   8.46791215
_cell_length_c   10.66258786
_cell_angle_alpha   89.88011434
_cell_angle_beta   81.68252101
_cell_angle_gamma   109.48000435
_symmetry_Int_Tables_number   1
_chemical_formula_structural   Al4B2O9
_chemical_formula_sum   'Al16 B8 O36'
_cell_volume   637.28817159
_cell_formula_units_Z   4
loop_
 _symmetry_equiv_pos_site_id
 _symmetry_equiv_pos_as_xyz
  1  'x, y, z'
loop_
 _atom_site_type_symbol
 _atom_site_label
 _atom_site_symmetry_multiplicity
 _atom_site_fract_x
 _atom_site_fract_y
 _atom_site_fract_z
 _atom_site_occupancy
  Al  Al0  1  0.00000000  0.50000000  0.00000000  1
  Al  Al1  1  0.00000000  0.50000000  0.50000000  1
  Al  Al2  1  0.17237800  0.95943200  0.77777900  1
  Al  Al3  1  0.23082600  0.20864800  0.55809400  1
  Al  Al4  1  0.21871900  0.36127100  0.82117600  1
  Al  Al5  1  0.31796000  0.71347800  0.61300300  1
  Al  Al6  1  0.38922400  0.80742100  0.90142800  1
  Al  Al7  1  0.15780600  0.87440100  0.12421200  1
  Al  Al8  1  0.50000000  0.50000000  0.50000000  1
  Al  Al9  1  0.50000000  0.50000000  0.00000000  1
  Al  Al10  1  0.84219400  0.12559900  0.87578800  1
  Al  Al11  1  0.61077600  0.19257900  0.09857200  1
  Al  Al12  1  0.68204000  0.28652200  0.38699700  1
  Al  Al13  1  0.78128100  0.63872900  0.17882300  1
  Al  Al14  1  0.76917400  0.79135200  0.44190600  1
  Al  Al15  1  0.82762200  0.04056800  0.22222100  1
  B  B0  1  0.25174000  0.24151500  0.16648100  1
  B  B1  1  0.04729700  0.30056400  0.34759300  1
  B  B2  1  0.48509700  0.76815200  0.15176500  1
  B  B3  1  0.28420800  0.77301200  0.34246000  1
  B  B4  1  0.71579200  0.22698800  0.65754000  1
  B  B5  1  0.51490300  0.23184800  0.84823500  1
  B  B6  1  0.95270300  0.69943600  0.65240700  1
  B  B7  1  0.74826000  0.75848500  0.83351900  1
  O  O0  1  0.05377400  0.59049300  0.66305000  1
  O  O1  1  0.19302900  0.89296500  0.94113900  1
  O  O2  1  0.01815100  0.63764800  0.11805600  1
  O  O3  1  0.16548400  0.83425500  0.29914200  1
  O  O4  1  0.07232700  0.19458600  0.25167800  1
  O  O5  1  0.09204600  0.13046200  0.82536700  1
  O  O6  1  0.31650400  0.40342100  0.13121500  1
  O  O7  1  0.11276200  0.31372600  0.46163600  1
  O  O8  1  0.30829500  0.40954000  0.64573700  1
  O  O9  1  0.29352200  0.57333800  0.91952900  1
  O  O10  1  0.23539700  0.66722700  0.45549500  1
  O  O11  1  0.34989300  0.84198500  0.73945800  1
  O  O12  1  0.39839700  0.83743300  0.07626800  1
  O  O13  1  0.46469500  0.78325700  0.28095000  1
  O  O14  1  0.33051000  0.12085400  0.13539100  1
  O  O15  1  0.45293500  0.29570100  0.44585700  1
  O  O16  1  0.20612800  0.00942800  0.60598200  1
  O  O17  1  0.59468200  0.67676800  0.10305800  1
  O  O18  1  0.40531800  0.32323200  0.89694200  1
  O  O19  1  0.79387200  0.99057200  0.39401800  1
  O  O20  1  0.54706500  0.70429900  0.55414300  1
  O  O21  1  0.66949000  0.87914600  0.86460900  1
  O  O22  1  0.53530500  0.21674300  0.71905000  1
  O  O23  1  0.60160300  0.16256700  0.92373200  1
  O  O24  1  0.65010700  0.15801500  0.26054200  1
  O  O25  1  0.76460300  0.33277300  0.54450500  1
  O  O26  1  0.70647800  0.42666200  0.08047100  1
  O  O27  1  0.69170500  0.59046000  0.35426300  1
  O  O28  1  0.88723800  0.68627400  0.53836400  1
  O  O29  1  0.68349600  0.59657900  0.86878500  1
  O  O30  1  0.90795400  0.86953800  0.17463300  1
  O  O31  1  0.92767300  0.80541400  0.74832200  1
  O  O32  1  0.83451600  0.16574500  0.70085800  1
  O  O33  1  0.98184900  0.36235200  0.88194400  1
  O  O34  1  0.80697100  0.10703500  0.05886100  1
  O  O35  1  0.94622600  0.40950700  0.33695000  1
loop_
_geom_bond_atom_site_label_1
_geom_bond_atom_site_label_2
_geom_bond_distance
_geom_bond_site_symmetry_2
Al0 O2 1.706271 1_555
Al0 O33 1.706271 1_454
Al0 O9 2.143155 1_554
Al0 O26 2.143155 1_455
Al1 O10 1.865396 1_555
Al1 O25 1.865396 1_455
Al1 O0 1.943710 1_555
Al1 O35 1.943710 1_455
Al1 O28 2.045953 1_455
Al1 O7 2.045953 1_555
Al2 O5 1.796429 1_565
Al2 O16 1.840962 1_565
Al2 O1 1.873173 1_555
Al2 O11 1.923609 1_555
Al2 O31 1.948104 1_455
Al3 O16 1.702886 1_555
Al3 O15 1.842350 1_555
Al3 O7 1.855575 1_555
Al3 O8 1.900286 1_555
Al4 O33 1.820982 1_455
Al4 O18 1.840863 1_555
Al4 O5 1.865284 1_555
Al4 O8 1.889832 1_555
Al4 O9 2.036369 1_555
Al5 O11 1.727897 1_555
Al5 O20 1.785692 1_555
Al5 O10 1.873133 1_555
Al5 O0 1.917002 1_555
Al6 O11 1.833590 1_555
Al6 O1 1.857838 1_555
Al6 O9 1.868535 1_555
Al6 O12 1.890112 1_556
Al6 O21 1.982578 1_555
Al7 O30 1.878432 1_455
Al7 O3 1.907847 1_555
Al7 O1 1.930382 1_554
Al7 O2 1.936250 1_555
Al7 O12 1.947960 1_555
Al7 O14 2.075275 1_565
Al8 O20 1.762264 1_555
Al8 O15 1.762264 1_555
Al8 O27 1.926505 1_555
Al8 O8 1.926505 1_555
Al9 O6 1.798212 1_555
Al9 O29 1.798212 1_554
Al9 O17 1.865886 1_555
Al9 O18 1.865886 1_554
Al9 O26 2.145685 1_555
Al9 O9 2.145685 1_554
Al10 O5 1.878432 1_655
Al10 O32 1.907847 1_555
Al10 O34 1.930382 1_556
Al10 O33 1.936250 1_555
Al10 O23 1.947960 1_555
Al10 O21 2.075275 1_545
Al11 O24 1.833590 1_555
Al11 O34 1.857838 1_555
Al11 O26 1.868535 1_555
Al11 O23 1.890112 1_554
Al11 O14 1.982578 1_555
Al12 O24 1.727897 1_555
Al12 O15 1.785692 1_555
Al12 O25 1.873133 1_555
Al12 O35 1.917002 1_555
Al13 O2 1.820980 1_655
Al13 O17 1.840857 1_555
Al13 O30 1.865284 1_555
Al13 O27 1.889842 1_555
Al13 O26 2.036363 1_555
Al14 O19 1.702886 1_555
Al14 O20 1.842350 1_555
Al14 O28 1.855575 1_555
Al14 O27 1.900286 1_555
Al15 O30 1.796429 1_545
Al15 O19 1.840962 1_545
Al15 O34 1.873173 1_555
Al15 O24 1.923609 1_555
Al15 O4 1.948104 1_655
B0 O6 1.325745 1_555
B0 O14 1.364198 1_555
B0 O4 1.453350 1_555
B1 O7 1.369432 1_555
B1 O35 1.395129 1_455
B1 O4 1.395881 1_555
B2 O12 1.353468 1_555
B2 O17 1.365112 1_555
B2 O13 1.374749 1_555
B3 O3 1.312243 1_555
B3 O13 1.403283 1_555
B3 O10 1.427366 1_555
B4 O32 1.312243 1_555
B4 O22 1.403283 1_555
B4 O25 1.427366 1_555
B5 O23 1.353468 1_555
B5 O18 1.365112 1_555
B5 O22 1.374749 1_555
B6 O28 1.369432 1_555
B6 O0 1.395129 1_655
B6 O31 1.395881 1_555
B7 O29 1.325745 1_555
B7 O21 1.364198 1_555
B7 O31 1.453350 1_555
