# generated using pymatgen
data_Mg6MnO8
_symmetry_space_group_name_H-M   'P 1'
_cell_length_a   8.35808273
_cell_length_b   8.35808547
_cell_length_c   10.23393995
_cell_angle_alpha   114.08976422
_cell_angle_beta   65.91021928
_cell_angle_gamma   89.98999310
_symmetry_Int_Tables_number   1
_chemical_formula_structural   Mg6MnO8
_chemical_formula_sum   'Mg24 Mn4 O32'
_cell_volume   583.76049973
_cell_formula_units_Z   4
loop_
 _symmetry_equiv_pos_site_id
 _symmetry_equiv_pos_as_xyz
  1  'x, y, z'
loop_
 _atom_site_type_symbol
 _atom_site_label
 _atom_site_symmetry_multiplicity
 _atom_site_fract_x
 _atom_site_fract_y
 _atom_site_fract_z
 _atom_site_occupancy
  Mg  Mg0  1  0.37500394  0.37499653  0.24999317  1
  Mg  Mg1  1  0.62500010  0.62500027  0.74999972  1
  Mg  Mg2  1  0.87499638  0.87500317  0.25000661  1
  Mg  Mg3  1  0.12499996  0.12499991  0.75000024  1
  Mg  Mg4  1  0.50000334  0.50000341  0.50000000  1
  Mg  Mg5  1  0.74999727  0.74999737  -0.00000003  1
  Mg  Mg6  1  -0.00000327  -0.00000325  0.49999995  1
  Mg  Mg7  1  0.25000259  0.25000275  0.00000002  1
  Mg  Mg8  1  0.74999985  0.25000029  -0.00000273  1
  Mg  Mg9  1  -0.00000089  0.50000080  0.49999725  1
  Mg  Mg10  1  0.25000033  0.74999977  0.00000267  1
  Mg  Mg11  1  0.50000082  -0.00000083  0.50000271  1
  Mg  Mg12  1  0.87500174  0.37500186  0.25000449  1
  Mg  Mg13  1  0.12499961  0.62500069  0.75000015  1
  Mg  Mg14  1  0.37499812  0.87499860  0.24999541  1
  Mg  Mg15  1  0.62500035  0.12499912  0.74999979  1
  Mg  Mg16  1  0.62500084  0.12499957  0.24999982  1
  Mg  Mg17  1  0.87499839  0.37499821  0.75000450  1
  Mg  Mg18  1  0.12499908  0.62500039  0.25000018  1
  Mg  Mg19  1  0.37500193  0.87500177  0.74999548  1
  Mg  Mg20  1  0.62500010  0.62500021  0.25000028  1
  Mg  Mg21  1  0.87500298  0.87499642  0.74999351  1
  Mg  Mg22  1  0.12499959  0.12500004  0.24999987  1
  Mg  Mg23  1  0.37499648  0.37500399  0.75000692  1
  Mn  Mn0  1  0.50000042  0.50000004  -0.00000055  1
  Mn  Mn1  1  0.75000036  0.74999995  0.50000001  1
  Mn  Mn2  1  -0.00000008  0.00000000  -0.00000028  1
  Mn  Mn3  1  0.25000071  0.25000000  0.49999977  1
  O  O0  1  0.87500405  0.12500085  0.75000088  1
  O  O1  1  0.12499873  0.37499611  0.25000093  1
  O  O2  1  0.37499359  0.62500176  0.75000125  1
  O  O3  1  0.62499875  0.87500632  0.25000103  1
  O  O4  1  0.62500163  0.37499375  0.24999876  1
  O  O5  1  0.87500649  0.62499866  0.74999872  1
  O  O6  1  0.12500090  0.87500404  0.24999904  1
  O  O7  1  0.37499603  0.12499892  0.74999908  1
  O  O8  1  0.02133890  0.24999518  0.49999111  1
  O  O9  1  0.27133037  0.50000110  0.00000130  1
  O  O10  1  0.52133575  0.74999651  0.49999306  1
  O  O11  1  0.77133316  0.00000179  0.00000359  1
  O  O12  1  0.88567689  0.11432333  0.22864039  1
  O  O13  1  0.13567668  0.36432343  0.72864061  1
  O  O14  1  0.38567587  0.61432414  0.22864146  1
  O  O15  1  0.63567615  0.86432418  0.72864159  1
  O  O16  1  0.61432376  0.38567565  0.77135846  1
  O  O17  1  0.86432412  0.63567605  0.27135837  1
  O  O18  1  0.11432311  0.88567678  0.77135962  1
  O  O19  1  0.36432329  0.13567649  0.27135939  1
  O  O20  1  0.74999652  0.52133570  0.50000706  1
  O  O21  1  0.00000163  0.77133324  -0.00000363  1
  O  O22  1  0.24999526  0.02133884  0.50000864  1
  O  O23  1  0.50000085  0.27133038  -0.00000131  1
  O  O24  1  0.74999932  0.97866991  0.50000137  1
  O  O25  1  0.00000481  0.22866099  -0.00000891  1
  O  O26  1  0.24999858  0.47866741  0.50000345  1
  O  O27  1  0.50000356  0.72866493  -0.00000823  1
  O  O28  1  0.47866722  0.24999828  0.49999645  1
  O  O29  1  0.72866470  0.50000354  0.00000799  1
  O  O30  1  0.97866962  0.74999893  0.49999867  1
  O  O31  1  0.22866066  0.00000476  0.00000889  1
loop_
_geom_bond_atom_site_label_1
_geom_bond_atom_site_label_2
_geom_bond_distance
_geom_bond_site_symmetry_2
Mg0 O4 2.089525 1_555
Mg0 O1 2.089532 1_555
Mg0 O23 2.096633 1_555
Mg0 O26 2.096767 1_555
Mg0 O14 2.097130 1_555
Mg0 O19 2.097137 1_555
Mg1 O2 2.089569 1_555
Mg1 O5 2.089570 1_555
Mg1 O27 2.096613 1_556
Mg1 O20 2.096618 1_555
Mg1 O15 2.097130 1_555
Mg1 O16 2.097139 1_555
Mg2 O3 2.089524 1_555
Mg2 O6 2.089527 1_655
Mg2 O24 2.096635 1_555
Mg2 O21 2.096767 1_655
Mg2 O17 2.097126 1_555
Mg2 O12 2.097138 1_565
Mg3 O7 2.089483 1_555
Mg3 O0 2.089484 1_455
Mg3 O25 2.096605 1_556
Mg3 O22 2.096612 1_555
Mg3 O18 2.097130 1_545
Mg3 O13 2.097134 1_555
Mg4 O4 2.089120 1_555
Mg4 O2 2.089120 1_555
Mg4 O10 2.097115 1_555
Mg4 O20 2.097115 1_555
Mg4 O26 2.097174 1_555
Mg4 O28 2.097178 1_555
Mg5 O3 2.089119 1_555
Mg5 O5 2.089120 1_554
Mg5 O27 2.097124 1_555
Mg5 O29 2.097125 1_555
Mg5 O21 2.097170 1_655
Mg5 O11 2.097171 1_565
Mg6 O6 2.089117 1_545
Mg6 O0 2.089118 1_455
Mg6 O24 2.097114 1_445
Mg6 O30 2.097119 1_445
Mg6 O22 2.097173 1_555
Mg6 O8 2.097173 1_555
Mg7 O1 2.089117 1_555
Mg7 O7 2.089118 1_554
Mg7 O23 2.097122 1_555
Mg7 O9 2.097124 1_555
Mg7 O25 2.097167 1_555
Mg7 O31 2.097169 1_555
Mg8 O0 2.089080 1_554
Mg8 O4 2.089122 1_555
Mg8 O29 2.097064 1_555
Mg8 O23 2.097067 1_555
Mg8 O11 2.097100 1_555
Mg8 O25 2.097101 1_655
Mg9 O1 2.089079 1_555
Mg9 O5 2.089122 1_455
Mg9 O30 2.097060 1_455
Mg9 O20 2.097062 1_455
Mg9 O26 2.097107 1_555
Mg9 O8 2.097108 1_555
Mg10 O6 2.089079 1_555
Mg10 O2 2.089122 1_554
Mg10 O27 2.097062 1_555
Mg10 O9 2.097065 1_555
Mg10 O21 2.097101 1_555
Mg10 O31 2.097102 1_565
Mg11 O7 2.089079 1_555
Mg11 O3 2.089124 1_545
Mg11 O24 2.097062 1_545
Mg11 O10 2.097064 1_545
Mg11 O28 2.097105 1_555
Mg11 O22 2.097108 1_555
Mg12 O1 2.089481 1_655
Mg12 O4 2.089546 1_555
Mg12 O20 2.096751 1_555
Mg12 O25 2.096842 1_655
Mg12 O17 2.097129 1_555
Mg12 O12 2.097129 1_555
Mg13 O5 2.089469 1_455
Mg13 O2 2.089475 1_555
Mg13 O21 2.096699 1_556
Mg13 O26 2.096703 1_555
Mg13 O18 2.097125 1_555
Mg13 O13 2.097135 1_555
Mg14 O6 2.089482 1_555
Mg14 O3 2.089549 1_555
Mg14 O27 2.096759 1_555
Mg14 O22 2.096840 1_565
Mg14 O19 2.097124 1_565
Mg14 O14 2.097131 1_555
Mg15 O0 2.089556 1_555
Mg15 O7 2.089560 1_555
Mg15 O24 2.096714 1_545
Mg15 O23 2.096719 1_556
Mg15 O15 2.097120 1_545
Mg15 O16 2.097131 1_555
Mg16 O3 2.089470 1_545
Mg16 O4 2.089477 1_555
Mg16 O11 2.096699 1_555
Mg16 O28 2.096703 1_555
Mg16 O12 2.097124 1_555
Mg16 O19 2.097136 1_555
Mg17 O0 2.089484 1_555
Mg17 O5 2.089549 1_555
Mg17 O29 2.096758 1_556
Mg17 O8 2.096841 1_655
Mg17 O13 2.097127 1_655
Mg17 O16 2.097131 1_555
Mg18 O6 2.089557 1_555
Mg18 O1 2.089560 1_555
Mg18 O30 2.096715 1_455
Mg18 O9 2.096719 1_555
Mg18 O17 2.097119 1_455
Mg18 O14 2.097133 1_555
Mg19 O7 2.089483 1_565
Mg19 O2 2.089546 1_555
Mg19 O10 2.096749 1_555
Mg19 O31 2.096842 1_566
Mg19 O15 2.097128 1_555
Mg19 O18 2.097131 1_555
Mg20 O4 2.089569 1_555
Mg20 O3 2.089569 1_555
Mg20 O29 2.096615 1_555
Mg20 O10 2.096620 1_555
Mg20 O17 2.097130 1_555
Mg20 O14 2.097136 1_555
Mg21 O5 2.089524 1_555
Mg21 O0 2.089528 1_565
Mg21 O30 2.096636 1_555
Mg21 O11 2.096766 1_566
Mg21 O15 2.097124 1_555
Mg21 O18 2.097137 1_655
Mg22 O1 2.089484 1_555
Mg22 O6 2.089484 1_545
Mg22 O31 2.096606 1_555
Mg22 O8 2.096609 1_555
Mg22 O12 2.097126 1_455
Mg22 O19 2.097135 1_555
Mg23 O2 2.089526 1_555
Mg23 O7 2.089531 1_555
Mg23 O9 2.096632 1_556
Mg23 O28 2.096769 1_555
Mg23 O16 2.097126 1_555
Mg23 O13 2.097135 1_555
Mn0 O16 1.910624 1_554
Mn0 O14 1.910633 1_555
Mn0 O29 1.911231 1_555
Mn0 O27 1.911233 1_555
Mn0 O9 1.911235 1_555
Mn0 O23 1.911237 1_555
Mn1 O15 1.910629 1_555
Mn1 O17 1.910630 1_555
Mn1 O20 1.911225 1_555
Mn1 O10 1.911227 1_555
Mn1 O30 1.911231 1_555
Mn1 O24 1.911237 1_555
Mn2 O18 1.910617 1_544
Mn2 O12 1.910622 1_455
Mn2 O11 1.911200 1_455
Mn2 O21 1.911202 1_545
Mn2 O31 1.911204 1_555
Mn2 O25 1.911204 1_555
Mn3 O19 1.910619 1_555
Mn3 O13 1.910623 1_555
Mn3 O28 1.911200 1_555
Mn3 O26 1.911206 1_555
Mn3 O22 1.911207 1_555
Mn3 O8 1.911211 1_555
