# generated using pymatgen
data_KMn2O4
_symmetry_space_group_name_H-M   'P 1'
_cell_length_a   5.86350800
_cell_length_b   9.82005100
_cell_length_c   14.50308561
_cell_angle_alpha   64.00646231
_cell_angle_beta   90.00000000
_cell_angle_gamma   90.00000000
_symmetry_Int_Tables_number   1
_chemical_formula_structural   KMn2O4
_chemical_formula_sum   'K8 Mn16 O32'
_cell_volume   750.61242722
_cell_formula_units_Z   8
loop_
 _symmetry_equiv_pos_site_id
 _symmetry_equiv_pos_as_xyz
  1  'x, y, z'
loop_
 _atom_site_type_symbol
 _atom_site_label
 _atom_site_symmetry_multiplicity
 _atom_site_fract_x
 _atom_site_fract_y
 _atom_site_fract_z
 _atom_site_occupancy
  K  K0  1  0.87499100  0.36486700  0.37581200  1
  K  K1  1  0.37499500  0.35812100  0.36458300  1
  K  K2  1  0.12500900  0.36486700  0.87581200  1
  K  K3  1  0.62500500  0.35812100  0.86458300  1
  K  K4  1  0.87499100  0.63513300  0.12418800  1
  K  K5  1  0.37499500  0.64187900  0.13541700  1
  K  K6  1  0.62500500  0.64187900  0.63541700  1
  K  K7  1  0.12500900  0.63513300  0.62418800  1
  Mn  Mn0  1  0.87499900  0.02094400  0.58279500  1
  Mn  Mn1  1  0.37493600  0.02107000  0.58275800  1
  Mn  Mn2  1  0.87499400  0.74366800  0.32229300  1
  Mn  Mn3  1  0.37529500  0.74263600  0.32372100  1
  Mn  Mn4  1  0.37529500  0.25736400  0.17627900  1
  Mn  Mn5  1  0.87499400  0.25633200  0.17770700  1
  Mn  Mn6  1  0.37493600  0.97893000  0.91724200  1
  Mn  Mn7  1  0.87499900  0.97905600  0.91720500  1
  Mn  Mn8  1  0.62506400  0.02107000  0.08275800  1
  Mn  Mn9  1  0.12500100  0.02094400  0.08279500  1
  Mn  Mn10  1  0.62470500  0.74263600  0.82372100  1
  Mn  Mn11  1  0.12500600  0.74366800  0.82229300  1
  Mn  Mn12  1  0.62470500  0.25736400  0.67627900  1
  Mn  Mn13  1  0.12500600  0.25633200  0.67770700  1
  Mn  Mn14  1  0.62506400  0.97893000  0.41724200  1
  Mn  Mn15  1  0.12500100  0.97905600  0.41720500  1
  O  O0  1  0.62505300  0.08223800  0.82750700  1
  O  O1  1  0.12485000  0.08194000  0.82771800  1
  O  O2  1  0.62557500  0.19242800  0.11381300  1
  O  O3  1  0.12465600  0.19299600  0.11328800  1
  O  O4  1  0.62557500  0.80757200  0.38618700  1
  O  O5  1  0.12465600  0.80700400  0.38671200  1
  O  O6  1  0.62505300  0.91776200  0.67249300  1
  O  O7  1  0.12485000  0.91806000  0.67228200  1
  O  O8  1  0.37494700  0.08223800  0.32750700  1
  O  O9  1  0.87515000  0.08194000  0.32771800  1
  O  O10  1  0.37442500  0.19242800  0.61381300  1
  O  O11  1  0.87534400  0.19299600  0.61328800  1
  O  O12  1  0.87534400  0.80700400  0.88671200  1
  O  O13  1  0.37442500  0.80757200  0.88618700  1
  O  O14  1  0.87515000  0.91806000  0.17228200  1
  O  O15  1  0.37494700  0.91776200  0.17249300  1
  O  O16  1  0.87498000  0.11652600  0.98294100  1
  O  O17  1  0.37504700  0.11647900  0.98298800  1
  O  O18  1  0.37505600  0.62748700  0.80283200  1
  O  O19  1  0.87464200  0.62735700  0.80301300  1
  O  O20  1  0.37504700  0.88352100  0.51701200  1
  O  O21  1  0.87498000  0.88347400  0.51705900  1
  O  O22  1  0.87464200  0.37264300  0.69698700  1
  O  O23  1  0.37505600  0.37251300  0.69716800  1
  O  O24  1  0.62495300  0.11647900  0.48298800  1
  O  O25  1  0.12502000  0.11652600  0.48294100  1
  O  O26  1  0.62494400  0.62748700  0.30283200  1
  O  O27  1  0.12535800  0.62735700  0.30301300  1
  O  O28  1  0.62495300  0.88352100  0.01701200  1
  O  O29  1  0.12502000  0.88347400  0.01705900  1
  O  O30  1  0.62494400  0.37251300  0.19716800  1
  O  O31  1  0.12535800  0.37264300  0.19698700  1
loop_
_geom_bond_atom_site_label_1
_geom_bond_atom_site_label_2
_geom_bond_distance
_geom_bond_site_symmetry_2
K0 O25 2.681305 1_655
K0 O24 2.681760 1_555
K0 O26 2.743755 1_555
K0 O27 2.743844 1_655
K0 O30 2.949141 1_555
K0 O31 2.951892 1_655
K0 O11 3.100870 1_555
K0 O9 3.147137 1_555
K1 O25 2.674673 1_555
K1 O24 2.675070 1_555
K1 O30 2.786118 1_555
K1 O31 2.786964 1_555
K1 O27 2.803708 1_555
K1 O26 2.805441 1_555
K1 O8 2.984249 1_555
K1 O10 3.249249 1_555
K2 O16 2.681305 1_455
K2 O17 2.681760 1_555
K2 O18 2.743755 1_555
K2 O19 2.743844 1_455
K2 O23 2.949141 1_555
K2 O22 2.951892 1_455
K2 O3 3.100870 1_556
K2 O1 3.147137 1_555
K3 O16 2.674673 1_555
K3 O17 2.675070 1_555
K3 O23 2.786118 1_555
K3 O22 2.786964 1_555
K3 O19 2.803708 1_555
K3 O18 2.805441 1_555
K3 O0 2.984249 1_555
K3 O2 3.249249 1_556
K4 O29 2.681305 1_655
K4 O28 2.681760 1_555
K4 O30 2.743755 1_555
K4 O31 2.743844 1_655
K4 O26 2.949141 1_555
K4 O27 2.951892 1_655
K4 O12 3.100870 1_554
K4 O14 3.147137 1_555
K5 O29 2.674673 1_555
K5 O28 2.675070 1_555
K5 O26 2.786118 1_555
K5 O27 2.786964 1_555
K5 O31 2.803708 1_555
K5 O30 2.805441 1_555
K5 O15 2.984249 1_555
K5 O13 3.249249 1_554
K6 O21 2.674673 1_555
K6 O20 2.675070 1_555
K6 O18 2.786118 1_555
K6 O19 2.786964 1_555
K6 O22 2.803708 1_555
K6 O23 2.805441 1_555
K6 O6 2.984249 1_555
K6 O4 3.249249 1_555
K7 O21 2.681305 1_455
K7 O20 2.681760 1_555
K7 O23 2.743755 1_555
K7 O22 2.743844 1_455
K7 O18 2.949141 1_555
K7 O19 2.951892 1_455
K7 O5 3.100870 1_555
K7 O7 3.147137 1_555
Mn0 O7 1.924064 1_645
Mn0 O11 1.924874 1_555
Mn0 O6 1.926521 1_545
Mn0 O21 1.964547 1_545
Mn0 O24 1.983602 1_555
Mn0 O25 1.983920 1_655
Mn1 O10 1.923231 1_555
Mn1 O7 1.925636 1_545
Mn1 O6 1.927807 1_545
Mn1 O20 1.965360 1_545
Mn1 O25 1.982996 1_555
Mn1 O24 1.983007 1_555
Mn2 O26 1.952751 1_555
Mn2 O27 1.953910 1_655
Mn2 O4 1.975107 1_555
Mn2 O5 1.977887 1_655
Mn2 O14 2.097684 1_555
Mn3 O26 1.952809 1_555
Mn3 O27 1.953830 1_555
Mn3 O4 1.971640 1_555
Mn3 O5 1.974869 1_555
Mn3 O15 2.112293 1_555
Mn4 O30 1.952809 1_555
Mn4 O31 1.953830 1_555
Mn4 O2 1.971640 1_555
Mn4 O3 1.974869 1_555
Mn4 O8 2.112293 1_555
Mn5 O30 1.952751 1_555
Mn5 O31 1.953910 1_655
Mn5 O2 1.975107 1_555
Mn5 O3 1.977887 1_655
Mn5 O9 2.097684 1_555
Mn6 O13 1.923231 1_555
Mn6 O1 1.925636 1_565
Mn6 O0 1.927807 1_565
Mn6 O17 1.965360 1_565
Mn6 O29 1.982996 1_556
Mn6 O28 1.983007 1_556
Mn7 O1 1.924064 1_665
Mn7 O12 1.924874 1_555
Mn7 O0 1.926521 1_565
Mn7 O16 1.964547 1_565
Mn7 O28 1.983602 1_556
Mn7 O29 1.983920 1_656
Mn8 O2 1.923231 1_555
Mn8 O14 1.925636 1_545
Mn8 O15 1.927807 1_545
Mn8 O28 1.965360 1_545
Mn8 O16 1.982996 1_554
Mn8 O17 1.983007 1_554
Mn9 O14 1.924064 1_445
Mn9 O3 1.924874 1_555
Mn9 O15 1.926521 1_545
Mn9 O29 1.964547 1_545
Mn9 O17 1.983602 1_554
Mn9 O16 1.983920 1_454
Mn10 O18 1.952809 1_555
Mn10 O19 1.953830 1_555
Mn10 O13 1.971640 1_555
Mn10 O12 1.974869 1_555
Mn10 O6 2.112293 1_555
Mn11 O18 1.952751 1_555
Mn11 O19 1.953910 1_455
Mn11 O13 1.975107 1_555
Mn11 O12 1.977887 1_455
Mn11 O7 2.097684 1_555
Mn12 O23 1.952809 1_555
Mn12 O22 1.953830 1_555
Mn12 O10 1.971640 1_555
Mn12 O11 1.974869 1_555
Mn12 O0 2.112293 1_555
Mn13 O23 1.952751 1_555
Mn13 O22 1.953910 1_455
Mn13 O10 1.975107 1_555
Mn13 O11 1.977887 1_455
Mn13 O1 2.097684 1_555
Mn14 O4 1.923231 1_555
Mn14 O9 1.925636 1_565
Mn14 O8 1.927807 1_565
Mn14 O24 1.965360 1_565
Mn14 O21 1.982996 1_555
Mn14 O20 1.983007 1_555
Mn15 O9 1.924064 1_465
Mn15 O5 1.924874 1_555
Mn15 O8 1.926521 1_565
Mn15 O25 1.964547 1_565
Mn15 O20 1.983602 1_555
Mn15 O21 1.983920 1_455
