# generated using pymatgen
data_Cs11Tl6Cl29
_symmetry_space_group_name_H-M   'P 1'
_cell_length_a   22.14457755
_cell_length_b   22.14457755
_cell_length_c   9.64793651
_cell_angle_alpha   88.88823093
_cell_angle_beta   88.88823093
_cell_angle_gamma   20.13651895
_symmetry_Int_Tables_number   1
_chemical_formula_structural   Cs11Tl6Cl29
_chemical_formula_sum   'Cs11 Tl6 Cl29'
_cell_volume   1628.43025633
_cell_formula_units_Z   1
loop_
 _symmetry_equiv_pos_site_id
 _symmetry_equiv_pos_as_xyz
  1  'x, y, z'
loop_
 _atom_site_type_symbol
 _atom_site_label
 _atom_site_symmetry_multiplicity
 _atom_site_fract_x
 _atom_site_fract_y
 _atom_site_fract_z
 _atom_site_occupancy
  Cs  Cs0  1  0.00000000  0.00000000  0.00000000  1
  Cs  Cs1  1  0.68121300  0.68121300  0.54719800  1
  Cs  Cs2  1  0.31878700  0.31878700  0.45280200  1
  Cs  Cs3  1  0.21949600  0.21949600  0.19086200  1
  Cs  Cs4  1  0.78050400  0.78050400  0.80913800  1
  Cs  Cs5  1  0.09636200  0.09636200  0.66773700  1
  Cs  Cs6  1  0.90363800  0.90363800  0.33226300  1
  Cs  Cs7  1  0.64593200  0.64593200  0.01500900  1
  Cs  Cs8  1  0.35406800  0.35406800  0.98499100  1
  Cs  Cs9  1  0.54779900  0.54779900  0.33637200  1
  Cs  Cs10  1  0.45220100  0.45220100  0.66362800  1
  Tl  Tl0  1  0.22767200  0.22767200  0.69498700  1
  Tl  Tl1  1  0.77232800  0.77232800  0.30501300  1
  Tl  Tl2  1  0.10432600  0.10432600  0.19265000  1
  Tl  Tl3  1  0.89567400  0.89567400  0.80735000  1
  Tl  Tl4  1  0.55220200  0.55220200  0.82818100  1
  Tl  Tl5  1  0.44779800  0.44779800  0.17181900  1
  Cl  Cl0  1  0.17957500  0.17957500  0.55125600  1
  Cl  Cl1  1  0.82042500  0.82042500  0.44874400  1
  Cl  Cl2  1  0.23488700  0.70937700  0.31922000  1
  Cl  Cl3  1  0.70937700  0.23488700  0.31922000  1
  Cl  Cl4  1  0.76511300  0.29062300  0.68078000  1
  Cl  Cl5  1  0.29062300  0.76511300  0.68078000  1
  Cl  Cl6  1  0.14259200  0.14259200  0.99904300  1
  Cl  Cl7  1  0.85740800  0.85740800  0.00095700  1
  Cl  Cl8  1  0.95721200  0.46460600  0.85214700  1
  Cl  Cl9  1  0.46460600  0.95721200  0.85214700  1
  Cl  Cl10  1  0.04278800  0.53539400  0.14785300  1
  Cl  Cl11  1  0.53539400  0.04278800  0.14785300  1
  Cl  Cl12  1  0.81175700  0.33439500  0.00018500  1
  Cl  Cl13  1  0.33439500  0.81175700  0.00018500  1
  Cl  Cl14  1  0.18824300  0.66560500  0.99981500  1
  Cl  Cl15  1  0.66560500  0.18824300  0.99981500  1
  Cl  Cl16  1  0.86589100  0.38402000  0.32523500  1
  Cl  Cl17  1  0.38402000  0.86589100  0.32523500  1
  Cl  Cl18  1  0.13410900  0.61598000  0.67476500  1
  Cl  Cl19  1  0.61598000  0.13410900  0.67476500  1
  Cl  Cl20  1  0.71680700  0.71680700  0.21939500  1
  Cl  Cl21  1  0.28319300  0.28319300  0.78060500  1
  Cl  Cl22  1  0.50000000  0.50000000  0.00000000  1
  Cl  Cl23  1  0.60494400  0.60494400  0.69161800  1
  Cl  Cl24  1  0.39505600  0.39505600  0.30838200  1
  Cl  Cl25  1  0.05249000  0.05249000  0.30447200  1
  Cl  Cl26  1  0.94751000  0.94751000  0.69552800  1
  Cl  Cl27  1  0.00000000  0.50000000  0.50000000  1
  Cl  Cl28  1  0.50000000  0.00000000  0.50000000  1
loop_
_geom_bond_atom_site_label_1
_geom_bond_atom_site_label_2
_geom_bond_distance
_geom_bond_site_symmetry_2
Cl0 Tl0 2.537036 1_555
Cl0 Cs5 3.777501 1_555
Cl0 Cs3 3.857706 1_555
Cl0 Cs1 3.872187 1_545
Cl0 Cs1 3.872187 1_455
Cl1 Tl1 2.537036 1_555
Cl1 Cs6 3.777501 1_555
Cl1 Cs4 3.857706 1_555
Cl1 Cs2 3.872187 1_655
Cl1 Cs2 3.872187 1_565
Cl2 Tl5 2.565570 1_555
Cl2 Cs6 3.614008 1_455
Cl2 Cs9 3.782941 1_555
Cl2 Cs0 3.866971 1_565
Cl2 Cs10 3.880335 1_555
Cl3 Tl5 2.565570 1_555
Cl3 Cs6 3.614008 1_545
Cl3 Cs9 3.782941 1_555
Cl3 Cs0 3.866971 1_655
Cl3 Cs10 3.880335 1_555
Cl4 Tl4 2.565570 1_555
Cl4 Cs5 3.614008 1_655
Cl4 Cs10 3.782941 1_555
Cl4 Cs0 3.866971 1_656
Cl4 Cs9 3.880335 1_555
Cl5 Tl4 2.565570 1_555
Cl5 Cs5 3.614008 1_565
Cl5 Cs10 3.782941 1_555
Cl5 Cs0 3.866971 1_566
Cl5 Cs9 3.880335 1_555
Cl6 Tl2 2.480059 1_556
Cl6 Cs5 3.812499 1_555
Cl6 Cs3 3.862112 1_556
Cl6 Cs7 3.877258 1_546
Cl6 Cs7 3.877258 1_456
Cl7 Tl3 2.480059 1_554
Cl7 Cs6 3.812499 1_555
Cl7 Cs4 3.862112 1_554
Cl7 Cs8 3.877258 1_564
Cl7 Cs8 3.877258 1_654
Cl8 Tl0 2.578409 1_655
Cl8 Cs4 3.601335 1_555
Cl8 Cs7 3.736145 1_556
Cl8 Cs1 3.757662 1_555
Cl8 Cs3 3.837458 1_656
Cl9 Tl0 2.578409 1_565
Cl9 Cs4 3.601335 1_555
Cl9 Cs7 3.736145 1_556
Cl9 Cs1 3.757662 1_555
Cl9 Cs3 3.837458 1_566
Cl10 Tl1 2.578409 1_455
Cl10 Cs3 3.601335 1_555
Cl10 Cs8 3.736145 1_554
Cl10 Cs2 3.757662 1_555
Cl10 Cs4 3.837458 1_454
Cl11 Tl1 2.578409 1_545
Cl11 Cs3 3.601335 1_555
Cl11 Cs8 3.736145 1_554
Cl11 Cs2 3.757662 1_555
Cl11 Cs4 3.837458 1_544
Cl12 Tl4 2.656541 1_554
Cl12 Tl2 3.081975 1_655
Cl12 Cs7 3.680648 1_555
Cl12 Cs0 3.774738 1_655
Cl12 Cs9 3.874229 1_555
Cl12 Cs5 3.909500 1_654
Cl13 Tl4 2.656541 1_554
Cl13 Tl2 3.081975 1_565
Cl13 Cs7 3.680648 1_555
Cl13 Cs0 3.774738 1_565
Cl13 Cs9 3.874229 1_555
Cl13 Cs5 3.909500 1_564
Cl14 Tl5 2.656541 1_556
Cl14 Tl3 3.081975 1_455
Cl14 Cs8 3.680648 1_555
Cl14 Cs0 3.774738 1_566
Cl14 Cs10 3.874229 1_555
Cl14 Cs6 3.909500 1_456
Cl15 Tl5 2.656541 1_556
Cl15 Tl3 3.081975 1_545
Cl15 Cs8 3.680648 1_555
Cl15 Cs0 3.774738 1_656
Cl15 Cs10 3.874229 1_555
Cl15 Cs6 3.909500 1_546
Cl16 Tl2 2.552324 1_655
Cl16 Cs7 3.628658 1_555
Cl16 Cs1 3.780395 1_555
Cl16 Cs9 3.846776 1_555
Cl16 Cs5 4.041669 1_655
Cl17 Tl2 2.552324 1_565
Cl17 Cs7 3.628658 1_555
Cl17 Cs1 3.780395 1_555
Cl17 Cs9 3.846776 1_555
Cl17 Cs5 4.041669 1_565
Cl18 Tl3 2.552324 1_455
Cl18 Cs8 3.628658 1_555
Cl18 Cs2 3.780395 1_555
Cl18 Cs10 3.846776 1_555
Cl18 Cs6 4.041669 1_455
Cl19 Tl3 2.552324 1_545
Cl19 Cs8 3.628658 1_555
Cl19 Cs2 3.780395 1_555
Cl19 Cs10 3.846776 1_555
Cl19 Cs6 4.041669 1_545
Cl20 Tl1 2.573506 1_555
Cl20 Cs1 3.495409 1_555
Cl20 Cs7 3.698749 1_555
Cl20 Cs3 3.882726 1_655
Cl20 Cs3 3.882726 1_565
Cl21 Tl0 2.573506 1_555
Cl21 Cs2 3.495409 1_555
Cl21 Cs8 3.698749 1_555
Cl21 Cs4 3.882726 1_455
Cl21 Cs4 3.882726 1_545
Cl22 Tl4 2.789469 1_554
Cl22 Tl5 2.789469 1_555
Cl22 Cs0 3.871344 1_565
Cl22 Cs0 3.871344 1_655
Cl22 Cs9 3.891423 1_555
Cl22 Cs10 3.891423 1_554
Cl23 Tl4 2.627959 1_555
Cl23 Cs1 3.580532 1_555
Cl23 Cs7 3.626186 1_556
Cl23 Cs5 3.896645 1_655
Cl23 Cs5 3.896645 1_565
Cl24 Tl5 2.627959 1_555
Cl24 Cs2 3.580532 1_555
Cl24 Cs8 3.626186 1_554
Cl24 Cs6 3.896645 1_455
Cl24 Cs6 3.896645 1_545
Cl25 Tl2 2.485417 1_555
Cl25 Cs0 3.759428 1_555
Cl25 Cs9 3.888623 1_455
Cl25 Cs9 3.888623 1_545
Cl25 Cs5 4.025874 1_555
Cl26 Tl3 2.485417 1_555
Cl26 Cs0 3.759428 1_666
Cl26 Cs10 3.888623 1_655
Cl26 Cs10 3.888623 1_565
Cl26 Cs6 4.025874 1_555
Cl27 Tl1 2.856859 1_455
Cl27 Tl0 2.856859 1_555
Cl27 Cs2 3.591373 1_555
Cl27 Cs1 3.591373 1_455
Cl27 Cs4 3.816827 1_455
Cl27 Cs3 3.816827 1_555
Cl28 Tl1 2.856859 1_545
Cl28 Tl0 2.856859 1_555
Cl28 Cs2 3.591373 1_555
Cl28 Cs1 3.591373 1_545
Cl28 Cs4 3.816827 1_545
Cl28 Cs3 3.816827 1_555
