# generated using pymatgen
data_ZnCr2CoO7
_symmetry_space_group_name_H-M   'P 1'
_cell_length_a   14.52070800
_cell_length_b   6.48188700
_cell_length_c   11.80018866
_cell_angle_alpha   77.79986322
_cell_angle_beta   90.00000000
_cell_angle_gamma   90.00000000
_symmetry_Int_Tables_number   1
_chemical_formula_structural   ZnCr2CoO7
_chemical_formula_sum   'Zn8 Cr16 Co8 O56'
_cell_volume   1085.56884661
_cell_formula_units_Z   8
loop_
 _symmetry_equiv_pos_site_id
 _symmetry_equiv_pos_as_xyz
  1  'x, y, z'
loop_
 _atom_site_type_symbol
 _atom_site_label
 _atom_site_symmetry_multiplicity
 _atom_site_fract_x
 _atom_site_fract_y
 _atom_site_fract_z
 _atom_site_occupancy
  Zn  Zn0  1  0.51275500  0.95340700  0.76951300  1
  Zn  Zn1  1  0.88542800  0.69472900  0.91316700  1
  Zn  Zn2  1  0.38542800  0.30527100  0.58683300  1
  Zn  Zn3  1  0.11457200  0.30527100  0.08683300  1
  Zn  Zn4  1  0.61457200  0.69472900  0.41316700  1
  Zn  Zn5  1  0.98724500  0.95340700  0.26951300  1
  Zn  Zn6  1  0.48724500  0.04659300  0.23048700  1
  Zn  Zn7  1  0.01275500  0.04659300  0.73048700  1
  Cr  Cr0  1  0.89423000  0.17000400  0.99424400  1
  Cr  Cr1  1  0.01793400  0.56917400  0.68689200  1
  Cr  Cr2  1  0.48206600  0.56917400  0.18689200  1
  Cr  Cr3  1  0.98206600  0.43082600  0.31310800  1
  Cr  Cr4  1  0.70640100  0.50512300  0.77566300  1
  Cr  Cr5  1  0.20640100  0.49487700  0.72433700  1
  Cr  Cr6  1  0.29359900  0.49487700  0.22433700  1
  Cr  Cr7  1  0.79359900  0.50512300  0.27566300  1
  Cr  Cr8  1  0.51793400  0.43082600  0.81310800  1
  Cr  Cr9  1  0.13980500  0.13190900  0.48627600  1
  Cr  Cr10  1  0.63980500  0.86809100  0.01372400  1
  Cr  Cr11  1  0.86019500  0.86809100  0.51372400  1
  Cr  Cr12  1  0.39423000  0.82999600  0.50575600  1
  Cr  Cr13  1  0.60577000  0.17000400  0.49424400  1
  Cr  Cr14  1  0.10577000  0.82999600  0.00575600  1
  Cr  Cr15  1  0.36019500  0.13190900  0.98627600  1
  Co  Co0  1  0.66045400  0.36575800  0.07065600  1
  Co  Co1  1  0.16045400  0.63424200  0.42934400  1
  Co  Co2  1  0.33954600  0.63424200  0.92934400  1
  Co  Co3  1  0.83954600  0.36575800  0.57065600  1
  Co  Co4  1  0.76407900  0.00816600  0.23836000  1
  Co  Co5  1  0.26407900  0.99183400  0.26164000  1
  Co  Co6  1  0.23592100  0.99183400  0.76164000  1
  Co  Co7  1  0.73592100  0.00816600  0.73836000  1
  O  O0  1  0.00244300  0.24301000  0.97999800  1
  O  O1  1  0.50244300  0.75699000  0.52000200  1
  O  O2  1  0.99755700  0.75699000  0.02000200  1
  O  O3  1  0.49755700  0.24301000  0.47999800  1
  O  O4  1  0.86288100  0.01532200  0.90113900  1
  O  O5  1  0.36288100  0.98467800  0.59886100  1
  O  O6  1  0.13711900  0.98467800  0.09886100  1
  O  O7  1  0.63711900  0.01532200  0.40113900  1
  O  O8  1  0.87842300  0.03621000  0.13212900  1
  O  O9  1  0.37842300  0.96379000  0.36787100  1
  O  O10  1  0.12157700  0.96379000  0.86787100  1
  O  O11  1  0.62157700  0.03621000  0.63212900  1
  O  O12  1  0.28531000  0.33830200  0.95655600  1
  O  O13  1  0.78531000  0.66169800  0.54344400  1
  O  O14  1  0.71469000  0.66169800  0.04344400  1
  O  O15  1  0.21469000  0.33830200  0.45655600  1
  O  O16  1  0.36730900  0.03759800  0.13684200  1
  O  O17  1  0.86730900  0.96240200  0.36315800  1
  O  O18  1  0.63269100  0.96240200  0.86315800  1
  O  O19  1  0.13269100  0.03759800  0.63684200  1
  O  O20  1  0.32916000  0.94767400  0.90274500  1
  O  O21  1  0.45613700  0.66788200  0.82159400  1
  O  O22  1  0.82916000  0.05232600  0.59725500  1
  O  O23  1  0.17084000  0.94767400  0.40274500  1
  O  O24  1  0.47395300  0.25442300  0.72241500  1
  O  O25  1  0.97395300  0.74557700  0.77758500  1
  O  O26  1  0.52604700  0.74557700  0.27758500  1
  O  O27  1  0.02604700  0.25442300  0.22241500  1
  O  O28  1  0.46729600  0.23494900  0.94790900  1
  O  O29  1  0.96729600  0.76505100  0.55209100  1
  O  O30  1  0.53270400  0.76505100  0.05209100  1
  O  O31  1  0.03270400  0.23494900  0.44790900  1
  O  O32  1  0.89307300  0.57891800  0.19648900  1
  O  O33  1  0.39307300  0.42108200  0.30351100  1
  O  O34  1  0.10692700  0.42108200  0.80351100  1
  O  O35  1  0.60692700  0.57891800  0.69648900  1
  O  O36  1  0.74014900  0.30919100  0.22340700  1
  O  O37  1  0.24014900  0.69080900  0.27659300  1
  O  O38  1  0.25985100  0.69080900  0.77659300  1
  O  O39  1  0.75985100  0.30919100  0.72340700  1
  O  O40  1  0.66781300  0.39429000  0.46699200  1
  O  O41  1  0.16781300  0.60571000  0.03300800  1
  O  O42  1  0.33218700  0.60571000  0.53300800  1
  O  O43  1  0.83218700  0.39429000  0.96699200  1
  O  O44  1  0.72842200  0.71454200  0.29585500  1
  O  O45  1  0.22842200  0.28545800  0.20414500  1
  O  O46  1  0.27157800  0.28545800  0.70414500  1
  O  O47  1  0.77157800  0.71454200  0.79585500  1
  O  O48  1  0.87024400  0.40555700  0.39754300  1
  O  O49  1  0.37024400  0.59444300  0.10245700  1
  O  O50  1  0.12975600  0.59444300  0.60245700  1
  O  O51  1  0.62975600  0.40555700  0.89754300  1
  O  O52  1  0.04386300  0.66788200  0.32159400  1
  O  O53  1  0.54386300  0.33211800  0.17840600  1
  O  O54  1  0.95613700  0.33211800  0.67840600  1
  O  O55  1  0.67084000  0.05232600  0.09725500  1
loop_
_geom_bond_atom_site_label_1
_geom_bond_atom_site_label_2
_geom_bond_distance
_geom_bond_site_symmetry_2
Cr0 O0 1.639405 1_655
Cr0 O43 1.682551 1_555
Cr0 O8 1.689896 1_556
Cr0 O4 1.698560 1_555
Cr1 O54 1.800367 1_455
Cr1 O25 1.837876 1_455
Cr1 O50 1.893958 1_555
Cr1 O29 1.956870 1_455
Cr1 O34 1.981600 1_555
Cr2 O53 1.800367 1_555
Cr2 O26 1.837876 1_555
Cr2 O49 1.893958 1_555
Cr2 O30 1.956870 1_555
Cr2 O33 1.981600 1_555
Cr3 O52 1.800367 1_655
Cr3 O27 1.837876 1_655
Cr3 O48 1.893958 1_555
Cr3 O31 1.956870 1_655
Cr3 O32 1.981600 1_555
Cr4 O39 1.710710 1_555
Cr4 O47 1.712248 1_555
Cr4 O35 1.731809 1_555
Cr4 O51 1.825180 1_555
Cr5 O38 1.710710 1_555
Cr5 O46 1.712248 1_555
Cr5 O34 1.731809 1_555
Cr5 O50 1.825180 1_555
Cr6 O37 1.710710 1_555
Cr6 O45 1.712248 1_555
Cr6 O33 1.731809 1_555
Cr6 O49 1.825180 1_555
Cr7 O36 1.710710 1_555
Cr7 O44 1.712248 1_555
Cr7 O32 1.731809 1_555
Cr7 O48 1.825180 1_555
Cr8 O21 1.800367 1_555
Cr8 O24 1.837876 1_555
Cr8 O51 1.893958 1_555
Cr8 O28 1.956870 1_555
Cr8 O35 1.981600 1_555
Cr9 O15 1.702013 1_555
Cr9 O31 1.715180 1_555
Cr9 O19 1.755565 1_555
Cr9 O23 1.760184 1_545
Cr10 O14 1.702013 1_555
Cr10 O30 1.715180 1_555
Cr10 O18 1.755565 1_554
Cr10 O55 1.760184 1_565
Cr11 O13 1.702013 1_555
Cr11 O29 1.715180 1_555
Cr11 O17 1.755565 1_555
Cr11 O22 1.760184 1_565
Cr12 O1 1.639405 1_555
Cr12 O42 1.682551 1_555
Cr12 O9 1.689896 1_555
Cr12 O5 1.698560 1_555
Cr13 O3 1.639405 1_555
Cr13 O40 1.682551 1_555
Cr13 O11 1.689896 1_555
Cr13 O7 1.698560 1_555
Cr14 O2 1.639405 1_455
Cr14 O41 1.682551 1_555
Cr14 O10 1.689896 1_554
Cr14 O6 1.698560 1_555
Cr15 O12 1.702013 1_555
Cr15 O28 1.715180 1_555
Cr15 O16 1.755565 1_556
Cr15 O20 1.760184 1_545
Co0 O55 1.994810 1_555
Co0 O14 2.035357 1_555
Co0 O51 2.053147 1_554
Co0 O53 2.100761 1_555
Co0 O36 2.107903 1_555
Co1 O23 1.994810 1_555
Co1 O15 2.035357 1_555
Co1 O50 2.053147 1_555
Co1 O52 2.100761 1_555
Co1 O37 2.107903 1_555
Co2 O20 1.994810 1_555
Co2 O12 2.035357 1_555
Co2 O49 2.053147 1_556
Co2 O21 2.100761 1_555
Co2 O38 2.107903 1_555
Co3 O22 1.994810 1_555
Co3 O13 2.035357 1_555
Co3 O48 2.053147 1_555
Co3 O54 2.100761 1_555
Co3 O39 2.107903 1_555
Co4 O44 1.950625 1_545
Co4 O36 1.952840 1_555
Co4 O8 2.065162 1_555
Co4 O17 2.078208 1_545
Co4 O55 2.118011 1_555
Co5 O45 1.950625 1_565
Co5 O37 1.952840 1_555
Co5 O9 2.065162 1_555
Co5 O16 2.078208 1_565
Co5 O23 2.118011 1_555
Co6 O46 1.950625 1_565
Co6 O38 1.952840 1_555
Co6 O10 2.065162 1_555
Co6 O19 2.078208 1_565
Co6 O20 2.118011 1_555
Co7 O47 1.950625 1_545
Co7 O39 1.952840 1_555
Co7 O11 2.065162 1_555
Co7 O18 2.078208 1_545
Co7 O22 2.118011 1_555
O0 Zn3 2.149002 1_556
O1 Zn4 2.149002 1_555
O2 Zn1 2.149002 1_554
O3 Zn2 2.149002 1_555
O4 Zn1 2.078691 1_545
O5 Zn2 2.078691 1_565
O6 Zn3 2.078691 1_565
O7 Zn4 2.078691 1_545
O8 Zn5 2.246199 1_545
O9 Zn6 2.246199 1_565
O10 Zn7 2.246199 1_565
O11 Zn0 2.246199 1_545
O16 Zn6 2.069960 1_555
O17 Zn5 2.069960 1_555
O18 Zn0 2.069960 1_555
O19 Zn7 2.069960 1_555
O21 Zn0 1.999527 1_555
O24 Zn0 1.993742 1_545
O24 Zn2 2.024300 1_555
O25 Zn7 1.993742 1_665
O25 Zn1 2.024300 1_555
O26 Zn6 1.993742 1_565
O26 Zn4 2.024300 1_555
O27 Zn5 1.993742 1_445
O27 Zn3 2.024300 1_555
O40 Zn4 2.066573 1_555
O41 Zn3 2.066573 1_555
O42 Zn2 2.066573 1_555
O43 Zn1 2.066573 1_555
O44 Zn4 2.142583 1_555
O45 Zn3 2.142583 1_555
O46 Zn2 2.142583 1_555
O47 Zn1 2.142583 1_555
O52 Zn5 1.999527 1_455
O53 Zn6 1.999527 1_555
O54 Zn7 1.999527 1_655
