# generated using pymatgen
data_Cr2H28C10N6O7
_symmetry_space_group_name_H-M   'P 1'
_cell_length_a   12.12409700
_cell_length_b   8.36594600
_cell_length_c   11.23486272
_cell_angle_alpha   69.47507716
_cell_angle_beta   90.00000000
_cell_angle_gamma   90.00000000
_symmetry_Int_Tables_number   1
_chemical_formula_structural   Cr2H28C10N6O7
_chemical_formula_sum   'Cr4 H56 C20 N12 O14'
_cell_volume   1067.20825799
_cell_formula_units_Z   2
loop_
 _symmetry_equiv_pos_site_id
 _symmetry_equiv_pos_as_xyz
  1  'x, y, z'
loop_
 _atom_site_type_symbol
 _atom_site_label
 _atom_site_symmetry_multiplicity
 _atom_site_fract_x
 _atom_site_fract_y
 _atom_site_fract_z
 _atom_site_occupancy
  Cr  Cr0  1  0.60444400  0.84145600  0.31108500  1
  Cr  Cr1  1  0.90114000  0.36538500  0.80210000  1
  Cr  Cr2  1  0.40114000  0.63461500  0.19790000  1
  Cr  Cr3  1  0.10444400  0.15854400  0.68891500  1
  H  H0  1  0.74342300  0.80530100  0.77287100  1
  H  H1  1  0.75740100  0.30536800  0.27336600  1
  H  H2  1  0.25740100  0.69463200  0.72663400  1
  H  H3  1  0.24342300  0.19469900  0.22712900  1
  H  H4  1  0.36271200  0.96464800  0.58999100  1
  H  H5  1  0.13753200  0.46464300  0.08990100  1
  H  H6  1  0.63753200  0.53535700  0.91009900  1
  H  H7  1  0.86271200  0.03535200  0.41000900  1
  H  H8  1  0.77373300  0.02487100  0.69106800  1
  H  H9  1  0.72685300  0.52506900  0.19128800  1
  H  H10  1  0.22685300  0.47493100  0.80871200  1
  H  H11  1  0.27373300  0.97512900  0.30893200  1
  H  H12  1  0.42189700  0.08407900  0.43837100  1
  H  H13  1  0.07814500  0.58433700  0.93865800  1
  H  H14  1  0.57814500  0.41566300  0.06134200  1
  H  H15  1  0.92189700  0.91592100  0.56162900  1
  H  H16  1  0.65539300  0.23531700  0.57756000  1
  H  H17  1  0.84485400  0.73567100  0.07792300  1
  H  H18  1  0.34485400  0.26432900  0.92207700  1
  H  H19  1  0.15539300  0.76468300  0.42244000  1
  H  H20  1  0.42455600  0.90710200  0.88634100  1
  H  H21  1  0.07828100  0.40657300  0.38495900  1
  H  H22  1  0.57828100  0.59342700  0.61504100  1
  H  H23  1  0.92455600  0.09289800  0.11365900  1
  H  H24  1  0.59740700  0.07238300  0.92672600  1
  H  H25  1  0.90249300  0.57263200  0.42662900  1
  H  H26  1  0.40249300  0.42736800  0.57337100  1
  H  H27  1  0.09740700  0.92761700  0.07327400  1
  H  H28  1  0.34759000  0.19073700  0.52585600  1
  H  H29  1  0.15219800  0.69140500  0.02591300  1
  H  H30  1  0.65219800  0.30859500  0.97408700  1
  H  H31  1  0.84759000  0.80926300  0.47414400  1
  H  H32  1  0.63140500  0.14966600  0.45356900  1
  H  H33  1  0.86875400  0.65038500  0.95320700  1
  H  H34  1  0.36875400  0.34961500  0.04679300  1
  H  H35  1  0.13140500  0.85033400  0.54643100  1
  H  H36  1  0.72368800  0.96550200  0.92612400  1
  H  H37  1  0.77678000  0.46485700  0.42634800  1
  H  H38  1  0.27678000  0.53514300  0.57365200  1
  H  H39  1  0.22368800  0.03449800  0.07387600  1
  H  H40  1  0.55466700  0.32911500  0.45760100  1
  H  H41  1  0.94540100  0.82893200  0.95739000  1
  H  H42  1  0.44540100  0.17106800  0.04261000  1
  H  H43  1  0.05466700  0.67088500  0.54239900  1
  H  H44  1  0.35391000  0.06360300  0.76324200  1
  H  H45  1  0.14657400  0.56411100  0.26217400  1
  H  H46  1  0.64657400  0.43588900  0.73782600  1
  H  H47  1  0.85391000  0.93639700  0.23675800  1
  H  H48  1  0.59955300  0.84499300  0.97986200  1
  H  H49  1  0.90057400  0.34457900  0.48018100  1
  H  H50  1  0.40057400  0.65542100  0.51981900  1
  H  H51  1  0.09955300  0.15500700  0.02013800  1
  H  H52  1  0.67869300  0.91350200  0.62506500  1
  H  H53  1  0.82153900  0.41414400  0.12502100  1
  H  H54  1  0.32153900  0.58585600  0.87497900  1
  H  H55  1  0.17869300  0.08649800  0.37493500  1
  C  C0  1  0.59271600  0.20801900  0.51712000  1
  C  C1  1  0.90715900  0.70821000  0.01718600  1
  C  C2  1  0.40715900  0.29179000  0.98281400  1
  C  C3  1  0.09271600  0.79198100  0.48288000  1
  C  C4  1  0.40386200  0.08415600  0.53400800  1
  C  C5  1  0.09631000  0.58429500  0.03425800  1
  C  C6  1  0.59631000  0.41570500  0.96574200  1
  C  C7  1  0.90386200  0.91584400  0.46599200  1
  C  C8  1  0.63469900  0.96218900  0.91067500  1
  C  C9  1  0.86576800  0.46189300  0.41091100  1
  C  C10  1  0.36576800  0.53810700  0.58908900  1
  C  C11  1  0.13469900  0.03781100  0.08932500  1
  C  C12  1  0.70804300  0.92816000  0.71284500  1
  C  C13  1  0.79255100  0.42829300  0.21306900  1
  C  C14  1  0.29255100  0.57170700  0.78693100  1
  C  C15  1  0.20804300  0.07184000  0.28715500  1
  C  C16  1  0.51711500  0.02292600  0.72375000  1
  C  C17  1  0.98337200  0.52383400  0.22371000  1
  C  C18  1  0.48337200  0.47616600  0.77629000  1
  C  C19  1  0.01711500  0.97707400  0.27625000  1
  N  N0  1  0.50766400  0.09671700  0.59615900  1
  N  N1  1  0.99243300  0.59672800  0.09628900  1
  N  N2  1  0.49243300  0.40327200  0.90371100  1
  N  N3  1  0.00766400  0.90328300  0.40384100  1
  N  N4  1  0.61662700  0.97524100  0.77880500  1
  N  N5  1  0.88409700  0.47483300  0.27912500  1
  N  N6  1  0.38409700  0.52516700  0.72087500  1
  N  N7  1  0.11662700  0.02475900  0.22119500  1
  N  N8  1  0.42603800  0.99640600  0.79610900  1
  N  N9  1  0.07447100  0.49978700  0.29640600  1
  N  N10  1  0.57447100  0.50021300  0.70359400  1
  N  N11  1  0.92603800  0.00359400  0.20389100  1
  O  O0  1  0.56065400  0.03687300  0.25126900  1
  O  O1  1  0.90843000  0.57070300  0.76559600  1
  O  O2  1  0.40843000  0.42929700  0.23440400  1
  O  O3  1  0.06065400  0.96312700  0.74873100  1
  O  O4  1  0.60918500  0.78057400  0.46701500  1
  O  O5  1  0.90782400  0.27235500  0.95746300  1
  O  O6  1  0.40782400  0.72764500  0.04253700  1
  O  O7  1  0.10918500  0.21942600  0.53298500  1
  O  O8  1  0.72887200  0.82794100  0.25696600  1
  O  O9  1  0.78400900  0.31943000  0.74765300  1
  O  O10  1  0.28400900  0.68057000  0.25234700  1
  O  O11  1  0.22887200  0.17205900  0.74303400  1
  O  O12  1  0.51581100  0.70024700  0.26918500  1
  O  O13  1  0.01581100  0.29975300  0.73081500  1
loop_
_geom_bond_atom_site_label_1
_geom_bond_atom_site_label_2
_geom_bond_distance
_geom_bond_site_symmetry_2
Cr0 O0 1.623516 1_565
Cr0 O4 1.644998 1_555
Cr0 O8 1.645139 1_555
Cr0 O12 1.778171 1_555
Cr1 O1 1.622482 1_555
Cr1 O9 1.644265 1_555
Cr1 O5 1.645112 1_555
Cr1 O13 1.784413 1_655
Cr2 O2 1.622482 1_555
Cr2 O10 1.644265 1_555
Cr2 O6 1.645112 1_555
Cr2 O12 1.784413 1_555
Cr3 O3 1.623516 1_545
Cr3 O7 1.644998 1_555
Cr3 O11 1.645139 1_555
Cr3 O13 1.778171 1_555
H20 N8 1.027170 1_555
H21 N9 1.027624 1_555
H22 N10 1.027624 1_555
H23 N11 1.027170 1_555
H44 N8 1.035155 1_545
H45 N9 1.027894 1_555
H46 N10 1.027894 1_555
H47 N11 1.035155 1_565
C0 H16 1.095188 1_555
C0 H40 1.100567 1_555
C0 H32 1.101152 1_555
C0 N0 1.462560 1_555
C1 H17 1.094969 1_555
C1 H41 1.100235 1_554
C1 H33 1.100606 1_554
C1 N1 1.465372 1_555
C2 H18 1.094969 1_555
C2 H42 1.100235 1_556
C2 H34 1.100606 1_556
C2 N2 1.465372 1_555
C3 H19 1.095188 1_555
C3 H43 1.100567 1_555
C3 H35 1.101152 1_555
C3 N3 1.462560 1_555
C4 H12 1.096713 1_555
C4 H4 1.096877 1_545
C4 H28 1.100739 1_555
C4 N0 1.460786 1_555
C5 H13 1.096279 1_554
C5 H5 1.097169 1_555
C5 H29 1.100891 1_555
C5 N1 1.460636 1_455
C6 H14 1.096279 1_556
C6 H6 1.097169 1_555
C6 H30 1.100891 1_555
C6 N2 1.460636 1_555
C7 H15 1.096713 1_555
C7 H7 1.096877 1_565
C7 H31 1.100739 1_555
C7 N3 1.460786 1_655
C8 H36 1.094677 1_555
C8 H24 1.096984 1_565
C8 H48 1.101206 1_555
C8 N4 1.463371 1_555
C9 H37 1.094410 1_555
C9 H25 1.096560 1_555
C9 H49 1.100620 1_555
C9 N5 1.463173 1_555
C10 H38 1.094410 1_555
C10 H26 1.096560 1_555
C10 H50 1.100620 1_555
C10 N6 1.463173 1_555
C11 H39 1.094677 1_555
C11 H27 1.096984 1_545
C11 H51 1.101206 1_555
C11 N7 1.463371 1_555
C12 H52 1.095010 1_555
C12 H0 1.099623 1_555
C12 H8 1.099983 1_565
C12 N4 1.461979 1_555
C13 H53 1.094610 1_555
C13 H1 1.099809 1_555
C13 H9 1.100410 1_555
C13 N5 1.461806 1_555
C14 H54 1.094610 1_555
C14 H2 1.099809 1_555
C14 H10 1.100410 1_555
C14 N6 1.461806 1_555
C15 H55 1.095010 1_555
C15 H3 1.099623 1_555
C15 H11 1.099983 1_545
C15 N7 1.461979 1_555
C16 N8 1.342736 1_545
C16 N4 1.350676 1_545
C16 N0 1.352228 1_555
C17 N9 1.346183 1_655
C17 N1 1.349496 1_555
C17 N5 1.351070 1_555
C18 N10 1.346183 1_555
C18 N2 1.349496 1_555
C18 N6 1.351070 1_555
C19 N11 1.342736 1_465
C19 N7 1.350676 1_565
C19 N3 1.352228 1_555
