# generated using pymatgen
data_LiTl3
_symmetry_space_group_name_H-M   'P 1'
_cell_length_a   5.84370077
_cell_length_b   5.84370077
_cell_length_c   5.84370077
_cell_angle_alpha   133.09546644
_cell_angle_beta   133.09546644
_cell_angle_gamma   68.50426333
_symmetry_Int_Tables_number   1
_chemical_formula_structural   LiTl3
_chemical_formula_sum   'Li1 Tl3'
_cell_volume   104.50478114
_cell_formula_units_Z   1
loop_
 _symmetry_equiv_pos_site_id
 _symmetry_equiv_pos_as_xyz
  1  'x, y, z'
loop_
 _atom_site_type_symbol
 _atom_site_label
 _atom_site_symmetry_multiplicity
 _atom_site_fract_x
 _atom_site_fract_y
 _atom_site_fract_z
 _atom_site_occupancy
  Li  Li0  1  0.00000000  -0.00000000  0.00000000  1
  Tl  Tl0  1  0.75000000  0.25000000  0.50000000  1
  Tl  Tl1  1  0.25000000  0.75000000  0.50000000  1
  Tl  Tl2  1  0.50000000  0.50000000  0.00000000  1
loop_
_geom_bond_atom_site_label_1
_geom_bond_atom_site_label_2
_geom_bond_distance
_geom_bond_site_symmetry_2
Li0 Tl2 3.289043 1_444
Li0 Tl2 3.289043 1_556
Li0 Tl2 3.289043 1_455
Li0 Tl2 3.289043 1_545
Li0 Tl0 3.352859 1_555
Li0 Tl1 3.352859 1_444
Li0 Tl0 3.352859 1_455
Li0 Tl0 3.352859 1_454
Li0 Tl0 3.352859 1_444
Li0 Tl1 3.352859 1_544
Li0 Tl1 3.352859 1_545
Li0 Tl1 3.352859 1_555
Tl0 Tl1 3.289043 1_544
Tl0 Tl1 3.289043 1_645
Tl0 Tl1 3.289043 1_555
Tl0 Tl1 3.289043 1_656
Tl0 Tl2 3.352859 1_656
Tl0 Tl2 3.352859 1_556
Tl0 Tl2 3.352859 1_545
Tl0 Tl2 3.352859 1_555
Tl1 Tl2 3.352859 1_455
Tl1 Tl2 3.352859 1_556
Tl1 Tl2 3.352859 1_566
Tl1 Tl2 3.352859 1_555
