# generated using pymatgen
data_NaPu
_symmetry_space_group_name_H-M   'P 1'
_cell_length_a   7.76834092
_cell_length_b   7.76834092
_cell_length_c   7.76834135
_cell_angle_alpha   107.01856601
_cell_angle_beta   107.01856601
_cell_angle_gamma   107.01857305
_symmetry_Int_Tables_number   1
_chemical_formula_structural   NaPu
_chemical_formula_sum   'Na6 Pu6'
_cell_volume   390.22073052
_cell_formula_units_Z   6
loop_
 _symmetry_equiv_pos_site_id
 _symmetry_equiv_pos_as_xyz
  1  'x, y, z'
loop_
 _atom_site_type_symbol
 _atom_site_label
 _atom_site_symmetry_multiplicity
 _atom_site_fract_x
 _atom_site_fract_y
 _atom_site_fract_z
 _atom_site_occupancy
  Na  Na0  1  0.45644400  0.16703500  0.40260400  1
  Na  Na1  1  0.40260400  0.45644400  0.16703500  1
  Na  Na2  1  0.16703500  0.40260400  0.45644400  1
  Na  Na3  1  0.54355600  0.83296500  0.59739600  1
  Na  Na4  1  0.59739600  0.54355600  0.83296500  1
  Na  Na5  1  0.83296500  0.59739600  0.54355600  1
  Pu  Pu0  1  0.20660000  0.04675200  0.69616300  1
  Pu  Pu1  1  0.69616300  0.20660000  0.04675200  1
  Pu  Pu2  1  0.04675200  0.69616300  0.20660000  1
  Pu  Pu3  1  0.79340000  0.95324800  0.30383700  1
  Pu  Pu4  1  0.30383700  0.79340000  0.95324800  1
  Pu  Pu5  1  0.95324800  0.30383700  0.79340000  1
loop_
_geom_bond_atom_site_label_1
_geom_bond_atom_site_label_2
_geom_bond_distance
_geom_bond_site_symmetry_2
Na0 Na1 3.330014 1_555
Na0 Na2 3.330014 1_555
Na0 Na5 3.345076 1_555
Na0 Na4 3.345077 1_555
Na0 Pu4 3.412902 1_544
Na0 Na3 3.494280 1_545
Na0 Pu0 3.552075 1_555
Na0 Pu2 3.593909 1_545
Na0 Pu3 3.629468 1_545
Na0 Pu5 3.754005 1_555
Na0 Pu1 3.792072 1_555
Na1 Na2 3.330014 1_555
Na1 Na5 3.345077 1_555
Na1 Na3 3.345077 1_555
Na1 Pu5 3.412902 1_454
Na1 Na4 3.494280 1_554
Na1 Pu1 3.552075 1_555
Na1 Pu0 3.593909 1_554
Na1 Pu4 3.629468 1_554
Na1 Pu3 3.754004 1_555
Na1 Pu2 3.792072 1_555
Na2 Na3 3.345076 1_555
Na2 Na4 3.345077 1_555
Na2 Pu3 3.412902 1_445
Na2 Na5 3.494280 1_455
Na2 Pu2 3.552075 1_555
Na2 Pu1 3.593909 1_455
Na2 Pu5 3.629468 1_455
Na2 Pu4 3.754005 1_555
Na2 Pu0 3.792072 1_555
Na3 Na4 3.330014 1_555
Na3 Na5 3.330014 1_555
Na3 Pu1 3.412902 1_566
Na3 Pu3 3.552075 1_555
Na3 Pu5 3.593909 1_565
Na3 Pu0 3.629468 1_565
Na3 Pu2 3.754005 1_555
Na3 Pu4 3.792072 1_555
Na4 Na5 3.330014 1_555
Na4 Pu2 3.412902 1_656
Na4 Pu4 3.552075 1_555
Na4 Pu3 3.593909 1_556
Na4 Pu1 3.629468 1_556
Na4 Pu0 3.754004 1_555
Na4 Pu5 3.792072 1_555
Na5 Pu0 3.412902 1_665
Na5 Pu5 3.552075 1_555
Na5 Pu4 3.593909 1_655
Na5 Pu2 3.629468 1_655
Na5 Pu1 3.754005 1_555
Na5 Pu3 3.792072 1_555
Pu0 Pu4 3.274233 1_545
Pu0 Pu5 3.274233 1_455
Pu0 Pu3 3.425255 1_445
Pu0 Pu1 3.551879 1_556
Pu0 Pu2 3.551879 1_545
Pu1 Pu5 3.274233 1_554
Pu1 Pu3 3.274233 1_545
Pu1 Pu4 3.425254 1_544
Pu1 Pu2 3.551879 1_655
Pu2 Pu4 3.274233 1_554
Pu2 Pu3 3.274233 1_455
Pu2 Pu5 3.425255 1_454
Pu3 Pu4 3.551879 1_554
Pu3 Pu5 3.551879 1_565
Pu4 Pu5 3.551879 1_455
