# generated using pymatgen
data_Mg3MoN4
_symmetry_space_group_name_H-M   'P 1'
_cell_length_a   5.33629643
_cell_length_b   6.14110908
_cell_length_c   6.22458026
_cell_angle_alpha   60.46489420
_cell_angle_beta   74.60684150
_cell_angle_gamma   72.98009279
_symmetry_Int_Tables_number   1
_chemical_formula_structural   Mg3MoN4
_chemical_formula_sum   'Mg6 Mo2 N8'
_cell_volume   167.89538224
_cell_formula_units_Z   2
loop_
 _symmetry_equiv_pos_site_id
 _symmetry_equiv_pos_as_xyz
  1  'x, y, z'
loop_
 _atom_site_type_symbol
 _atom_site_label
 _atom_site_symmetry_multiplicity
 _atom_site_fract_x
 _atom_site_fract_y
 _atom_site_fract_z
 _atom_site_occupancy
  Mg  Mg0  1  0.24020500  0.37877600  0.62222900  1
  Mg  Mg1  1  0.75979500  0.62122400  0.37777100  1
  Mg  Mg2  1  0.74806300  0.63414300  0.86254700  1
  Mg  Mg3  1  0.25193700  0.36585700  0.13745300  1
  Mg  Mg4  1  0.26554100  0.86331900  0.14644000  1
  Mg  Mg5  1  0.73445900  0.13668100  0.85356000  1
  Mo  Mo0  1  0.75911100  0.14811400  0.31656400  1
  Mo  Mo1  1  0.24088900  0.85188600  0.68343600  1
  N  N0  1  0.00005400  0.77229000  0.49881600  1
  N  N1  1  0.99994600  0.22771000  0.50118400  1
  N  N2  1  0.52193400  0.47410600  0.26203400  1
  N  N3  1  0.47806600  0.52589400  0.73796600  1
  N  N4  1  0.47547600  0.99510900  0.74869600  1
  N  N5  1  0.52452400  0.00489100  0.25130400  1
  N  N6  1  0.01103700  0.75426300  0.98609000  1
  N  N7  1  0.98896300  0.24573700  0.01391000  1
loop_
_geom_bond_atom_site_label_1
_geom_bond_atom_site_label_2
_geom_bond_distance
_geom_bond_site_symmetry_2
Mg0 N4 2.170638 1_545
Mg0 N3 2.178266 1_555
Mg0 N0 2.225266 1_555
Mg0 N1 2.229434 1_455
Mg0 N2 2.249770 1_555
Mg0 N7 2.313259 1_456
Mg1 N5 2.170638 1_565
Mg1 N2 2.178266 1_555
Mg1 N1 2.225266 1_555
Mg1 N0 2.229434 1_655
Mg1 N3 2.249770 1_555
Mg1 N6 2.313259 1_654
Mg2 N4 2.154718 1_555
Mg2 N3 2.186596 1_555
Mg2 N0 2.193587 1_655
Mg2 N6 2.200676 1_655
Mg2 N7 2.204982 1_556
Mg2 N2 2.301569 1_556
Mg3 N5 2.154718 1_555
Mg3 N2 2.186596 1_555
Mg3 N1 2.193587 1_455
Mg3 N7 2.200676 1_455
Mg3 N6 2.204982 1_554
Mg3 N3 2.301569 1_554
Mg4 N0 2.176153 1_555
Mg4 N5 2.198562 1_565
Mg4 N2 2.239493 1_555
Mg4 N7 2.254184 1_465
Mg4 N4 2.263271 1_554
Mg4 N6 2.280429 1_554
Mg5 N1 2.176153 1_555
Mg5 N4 2.198562 1_545
Mg5 N3 2.239493 1_555
Mg5 N6 2.254184 1_645
Mg5 N5 2.263271 1_556
Mg5 N7 2.280429 1_556
Mo0 N7 1.871676 1_555
Mo0 N5 1.942281 1_555
Mo0 N2 1.949287 1_555
Mo0 N0 2.173162 1_645
Mo0 N1 2.217393 1_555
Mo0 N4 2.566782 1_545
Mo1 N6 1.871676 1_555
Mo1 N4 1.942281 1_555
Mo1 N3 1.949287 1_555
Mo1 N1 2.173162 1_465
Mo1 N0 2.217393 1_555
Mo1 N5 2.566782 1_565
