# generated using pymatgen
data_CsBePO4
_symmetry_space_group_name_H-M   'P 1'
_cell_length_a   5.19321900
_cell_length_b   8.85049100
_cell_length_c   8.94763500
_cell_angle_alpha   90.00000000
_cell_angle_beta   90.00000000
_cell_angle_gamma   90.00000000
_symmetry_Int_Tables_number   1
_chemical_formula_structural   CsBePO4
_chemical_formula_sum   'Cs4 Be4 P4 O16'
_cell_volume   411.25601388
_cell_formula_units_Z   4
loop_
 _symmetry_equiv_pos_site_id
 _symmetry_equiv_pos_as_xyz
  1  'x, y, z'
loop_
 _atom_site_type_symbol
 _atom_site_label
 _atom_site_symmetry_multiplicity
 _atom_site_fract_x
 _atom_site_fract_y
 _atom_site_fract_z
 _atom_site_occupancy
  Cs  Cs0  1  0.25000000  0.50804600  0.69402400  1
  Cs  Cs1  1  0.75000000  0.49195400  0.30597600  1
  Cs  Cs2  1  0.25000000  0.00804600  0.80597600  1
  Cs  Cs3  1  0.75000000  0.99195400  0.19402400  1
  Be  Be0  1  0.75000000  0.17275200  0.59044000  1
  Be  Be1  1  0.25000000  0.82724800  0.40956000  1
  Be  Be2  1  0.75000000  0.67275200  0.90956000  1
  Be  Be3  1  0.25000000  0.32724800  0.09044000  1
  P  P0  1  0.75000000  0.31777900  0.91605000  1
  P  P1  1  0.25000000  0.68222100  0.08395000  1
  P  P2  1  0.75000000  0.81777900  0.58395000  1
  P  P3  1  0.25000000  0.18222100  0.41605000  1
  O  O0  1  0.75000000  0.49018000  0.89652500  1
  O  O1  1  0.25000000  0.50982000  0.10347500  1
  O  O2  1  0.75000000  0.99018000  0.60347500  1
  O  O3  1  0.25000000  0.00982000  0.39652500  1
  O  O4  1  0.99226500  0.76494300  0.49666100  1
  O  O5  1  0.49226500  0.23505700  0.50333900  1
  O  O6  1  0.50773500  0.26494300  0.00333900  1
  O  O7  1  0.00773500  0.73505700  0.99666100  1
  O  O8  1  0.00773500  0.23505700  0.50333900  1
  O  O9  1  0.50773500  0.76494300  0.49666100  1
  O  O10  1  0.49226500  0.73505700  0.99666100  1
  O  O11  1  0.99226500  0.26494300  0.00333900  1
  O  O12  1  0.25000000  0.25882300  0.26156100  1
  O  O13  1  0.75000000  0.74117700  0.73843900  1
  O  O14  1  0.25000000  0.75882300  0.23843900  1
  O  O15  1  0.75000000  0.24117700  0.76156100  1
loop_
_geom_bond_atom_site_label_1
_geom_bond_atom_site_label_2
_geom_bond_distance
_geom_bond_site_symmetry_2
Cs0 O0 3.170234 1_555
Cs0 O0 3.170234 1_455
Cs0 O9 3.174835 1_555
Cs0 O4 3.174835 1_455
Cs0 O5 3.214254 1_555
Cs0 O8 3.214254 1_555
Cs0 O13 3.340302 1_555
Cs0 O13 3.340302 1_455
Cs1 O1 3.170234 1_655
Cs1 O1 3.170234 1_555
Cs1 O8 3.174835 1_655
Cs1 O5 3.174835 1_555
Cs1 O4 3.214254 1_555
Cs1 O9 3.214254 1_555
Cs1 O12 3.340302 1_555
Cs1 O12 3.340302 1_655
Cs2 O2 3.170234 1_445
Cs2 O2 3.170234 1_545
Cs2 O6 3.174835 1_556
Cs2 O11 3.174835 1_456
Cs2 O10 3.214254 1_545
Cs2 O7 3.214254 1_545
Cs2 O15 3.340302 1_555
Cs2 O15 3.340302 1_455
Cs3 O3 3.170234 1_665
Cs3 O3 3.170234 1_565
Cs3 O7 3.174835 1_654
Cs3 O10 3.174835 1_554
Cs3 O11 3.214254 1_565
Cs3 O6 3.214254 1_565
Cs3 O14 3.340302 1_555
Cs3 O14 3.340302 1_655
Be0 O2 1.620056 1_545
Be0 O8 1.644072 1_655
Be0 O5 1.644072 1_555
Be0 O15 1.646541 1_555
Be1 O3 1.620056 1_565
Be1 O9 1.644072 1_555
Be1 O4 1.644072 1_455
Be1 O14 1.646541 1_555
Be2 O0 1.620056 1_555
Be2 O7 1.644072 1_655
Be2 O10 1.644072 1_555
Be2 O13 1.646541 1_555
Be3 O1 1.620056 1_555
Be3 O6 1.644072 1_555
Be3 O11 1.644072 1_455
Be3 O12 1.646541 1_555
O0 P0 1.535802 1_555
O1 P1 1.535802 1_555
O2 P2 1.535802 1_555
O3 P3 1.535802 1_555
O4 P2 1.552928 1_555
O5 P3 1.552928 1_555
O6 P0 1.552928 1_554
O7 P1 1.552928 1_556
O8 P3 1.552928 1_555
O9 P2 1.552928 1_555
O10 P1 1.552928 1_556
O11 P0 1.552928 1_554
O12 P3 1.539617 1_555
O13 P2 1.539617 1_555
O14 P1 1.539617 1_555
O15 P0 1.539617 1_555
