# generated using pymatgen
data_LiCo6(OF5)2
_symmetry_space_group_name_H-M   'P 1'
_cell_length_a   4.83599806
_cell_length_b   4.83599806
_cell_length_c   9.67379264
_cell_angle_alpha   88.49086278
_cell_angle_beta   88.49086278
_cell_angle_gamma   90.34113016
_symmetry_Int_Tables_number   1
_chemical_formula_structural   LiCo6(OF5)2
_chemical_formula_sum   'Li1 Co6 O2 F10'
_cell_volume   226.07787788
_cell_formula_units_Z   1
loop_
 _symmetry_equiv_pos_site_id
 _symmetry_equiv_pos_as_xyz
  1  'x, y, z'
loop_
 _atom_site_type_symbol
 _atom_site_label
 _atom_site_symmetry_multiplicity
 _atom_site_fract_x
 _atom_site_fract_y
 _atom_site_fract_z
 _atom_site_occupancy
  Li  Li0  1  0.77747400  0.77747400  0.19134700  1
  Co  Co0  1  0.95694800  0.95694800  0.98184500  1
  Co  Co1  1  0.06201400  0.06201400  0.34827900  1
  Co  Co2  1  0.00948200  0.00948200  0.66488000  1
  Co  Co3  1  0.43685200  0.43685200  0.14023000  1
  Co  Co4  1  0.50436800  0.50436800  0.83593200  1
  Co  Co5  1  0.51417300  0.51417300  0.49689800  1
  O  O0  1  0.34461300  0.34461300  0.31714000  1
  O  O1  1  0.65712900  0.65712900  0.01838400  1
  F  F0  1  0.16521300  0.79403700  0.16155600  1
  F  F1  1  0.18428900  0.78738000  0.82764900  1
  F  F2  1  0.23960600  0.84086300  0.50479000  1
  F  F3  1  0.26382800  0.26382800  0.98337700  1
  F  F4  1  0.31559400  0.31559400  0.66523900  1
  F  F5  1  0.70580900  0.70580900  0.66958400  1
  F  F6  1  0.75977200  0.75977200  0.37030600  1
  F  F7  1  0.79403700  0.16521300  0.16155600  1
  F  F8  1  0.78738000  0.18428900  0.82764900  1
  F  F9  1  0.84086300  0.23960600  0.50479000  1
loop_
_geom_bond_atom_site_label_1
_geom_bond_atom_site_label_2
_geom_bond_distance
_geom_bond_site_symmetry_2
Li0 O1 1.890925 1_555
Co0 F1 2.023613 1_655
Co0 F8 2.023613 1_565
Co0 O1 2.061669 1_556
Co0 F3 2.093142 1_665
Co0 F0 2.164936 1_656
Co0 F7 2.164936 1_566
Co1 O0 1.939223 1_555
Co1 F2 2.041543 1_545
Co1 F9 2.041543 1_455
Co1 F6 2.063964 1_445
Co1 F7 2.296700 1_455
Co1 F0 2.296700 1_545
Co2 F5 2.069468 1_445
Co2 F9 2.070843 1_455
Co2 F2 2.070843 1_545
Co2 F8 2.083144 1_455
Co2 F1 2.083144 1_545
Co2 F4 2.087432 1_555
Co3 O0 1.801117 1_555
Co3 O1 1.874335 1_555
Co3 F3 1.956550 1_554
Co3 F0 2.187113 1_555
Co3 F7 2.187113 1_555
Co4 F8 2.074028 1_555
Co4 F1 2.074028 1_555
Co4 F5 2.076328 1_555
Co4 O1 2.082692 1_556
Co4 F4 2.131270 1_555
Co4 F3 2.133046 1_555
Co5 F6 2.037406 1_555
Co5 F2 2.071445 1_555
Co5 F9 2.071445 1_555
Co5 F4 2.078636 1_555
Co5 O0 2.123888 1_555
Co5 F5 2.158997 1_555
F0 Li0 1.890508 1_455
F6 Li0 1.730911 1_555
F7 Li0 1.890508 1_545
