# generated using pymatgen
data_Li7Mn5O12
_symmetry_space_group_name_H-M   'P 1'
_cell_length_a   5.09479425
_cell_length_b   8.99416790
_cell_length_c   10.11605815
_cell_angle_alpha   103.47766151
_cell_angle_beta   79.02270411
_cell_angle_gamma   88.64681241
_symmetry_Int_Tables_number   1
_chemical_formula_structural   Li7Mn5O12
_chemical_formula_sum   'Li14 Mn10 O24'
_cell_volume   441.41460764
_cell_formula_units_Z   2
loop_
 _symmetry_equiv_pos_site_id
 _symmetry_equiv_pos_as_xyz
  1  'x, y, z'
loop_
 _atom_site_type_symbol
 _atom_site_label
 _atom_site_symmetry_multiplicity
 _atom_site_fract_x
 _atom_site_fract_y
 _atom_site_fract_z
 _atom_site_occupancy
  Li  Li0  1  0.49999300  0.16669300  0.00003600  1
  Li  Li1  1  0.00001500  0.66666800  0.50003000  1
  Li  Li2  1  0.25003200  0.41670400  0.25141100  1
  Li  Li3  1  0.74998700  0.91662600  0.74860100  1
  Li  Li4  1  0.25378800  0.41719500  0.75327100  1
  Li  Li5  1  0.74622200  0.91616200  0.24676300  1
  Li  Li6  1  0.50584400  0.49868400  0.99592800  1
  Li  Li7  1  0.00378100  0.01208300  0.50077700  1
  Li  Li8  1  0.49420700  0.83464500  0.00409700  1
  Li  Li9  1  0.99612300  0.32126700  0.49923500  1
  Li  Li10  1  0.73437400  0.25537600  0.75278100  1
  Li  Li11  1  0.23828000  0.75453800  0.24700900  1
  Li  Li12  1  0.76179900  0.57871400  0.75298900  1
  Li  Li13  1  0.26563600  0.07789700  0.24718400  1
  Mn  Mn0  1  0.50025400  0.16659600  0.49997200  1
  Mn  Mn1  1  0.00000300  0.66654800  0.99991900  1
  Mn  Mn2  1  0.98868500  0.99625100  0.99931500  1
  Mn  Mn3  1  0.49963600  0.49703100  0.50101900  1
  Mn  Mn4  1  0.01133100  0.33707800  0.00064700  1
  Mn  Mn5  1  0.50032200  0.83627900  0.49900700  1
  Mn  Mn6  1  0.24891100  0.74405900  0.74649500  1
  Mn  Mn7  1  0.75094600  0.24192500  0.24898500  1
  Mn  Mn8  1  0.75093100  0.58923900  0.25358000  1
  Mn  Mn9  1  0.24888400  0.09141800  0.75104100  1
  O  O0  1  0.85654800  0.47117000  0.37660900  1
  O  O1  1  0.34031100  0.94530600  0.86050400  1
  O  O2  1  0.65973100  0.38804700  0.13948100  1
  O  O3  1  0.14350100  0.86216700  0.62335400  1
  O  O4  1  0.10738700  0.21599500  0.12893200  1
  O  O5  1  0.60064000  0.72058400  0.63019800  1
  O  O6  1  0.39948600  0.61277300  0.36976600  1
  O  O7  1  0.89259600  0.11738200  0.87101700  1
  O  O8  1  0.36138900  0.29459500  0.88746100  1
  O  O9  1  0.84384400  0.77515200  0.37033600  1
  O  O10  1  0.15619700  0.55819800  0.62968500  1
  O  O11  1  0.63857900  0.03876500  0.11253800  1
  O  O12  1  0.10436300  0.56142500  0.13140600  1
  O  O13  1  0.60681900  0.05687300  0.62648500  1
  O  O14  1  0.89577400  0.77194800  0.86856600  1
  O  O15  1  0.39305500  0.27648300  0.37350700  1
  O  O16  1  0.35024100  0.63648500  0.87531000  1
  O  O17  1  0.84980100  0.13003400  0.37722700  1
  O  O18  1  0.64981000  0.69690700  0.12472400  1
  O  O19  1  0.14999200  0.20328900  0.62278300  1
  O  O20  1  0.10568300  0.86051900  0.10557200  1
  O  O21  1  0.61322600  0.36074000  0.60631800  1
  O  O22  1  0.89437100  0.47289500  0.89443800  1
  O  O23  1  0.38667300  0.97259500  0.39369100  1
loop_
_geom_bond_atom_site_label_1
_geom_bond_atom_site_label_2
_geom_bond_distance
_geom_bond_site_symmetry_2
Li0 O11 1.998922 1_555
Li0 O8 1.999369 1_554
Li0 O4 2.143157 1_555
Li0 O7 2.143624 1_554
Li0 O2 2.412574 1_555
Li0 O1 2.413049 1_544
Li1 O10 2.064583 1_555
Li1 O9 2.064955 1_455
Li1 O3 2.137313 1_555
Li1 O0 2.137709 1_455
Li1 O5 2.178207 1_455
Li1 O6 2.178958 1_555
Li2 O6 2.132971 1_555
Li2 O0 2.135507 1_455
Li2 O2 2.154976 1_555
Li2 O15 2.161601 1_555
Li2 O4 2.164344 1_555
Li2 O12 2.180109 1_555
Li3 O5 2.132748 1_555
Li3 O3 2.135807 1_655
Li3 O1 2.154783 1_555
Li3 O13 2.162242 1_565
Li3 O7 2.164277 1_565
Li3 O14 2.179783 1_555
Li4 O22 2.066578 1_455
Li4 O8 2.076482 1_555
Li4 O10 2.089157 1_555
Li4 O21 2.094932 1_555
Li4 O16 2.190321 1_555
Li4 O19 2.203097 1_555
Li5 O20 2.066828 1_655
Li5 O11 2.076874 1_565
Li5 O9 2.089153 1_555
Li5 O23 2.095213 1_555
Li5 O18 2.190004 1_555
Li5 O17 2.202350 1_565
Li6 O22 2.029653 1_555
Li6 O8 2.132508 1_555
Li6 O16 2.163413 1_555
Li6 O18 2.181067 1_556
Li6 O2 2.187257 1_556
Li6 O12 2.213145 1_556
Li7 O23 2.021938 1_545
Li7 O17 2.062798 1_455
Li7 O19 2.111152 1_555
Li7 O13 2.147777 1_455
Li7 O3 2.220946 1_545
Li7 O9 2.475296 1_445
Li8 O20 2.029575 1_555
Li8 O11 2.132421 1_565
Li8 O18 2.163088 1_555
Li8 O16 2.180636 1_554
Li8 O1 2.187748 1_554
Li8 O14 2.213666 1_554
Li9 O21 2.021947 1_555
Li9 O19 2.062666 1_655
Li9 O17 2.111601 1_555
Li9 O15 2.147724 1_655
Li9 O0 2.220934 1_555
Li9 O10 2.475647 1_655
Li10 O8 2.085676 1_555
Li10 O21 2.109358 1_555
Li10 O13 2.133055 1_555
Li10 O7 2.152388 1_555
Li10 O19 2.244571 1_655
Li10 O22 2.399764 1_555
Li11 O12 2.064687 1_555
Li11 O20 2.094172 1_555
Li11 O9 2.132835 1_455
Li11 O18 2.203849 1_555
Li11 O6 2.217988 1_555
Li11 O23 2.400122 1_555
Li12 O14 2.065488 1_555
Li12 O22 2.093335 1_555
Li12 O10 2.132649 1_655
Li12 O16 2.204191 1_555
Li12 O5 2.218798 1_555
Li12 O21 2.399975 1_555
Li13 O11 2.085361 1_555
Li13 O23 2.109169 1_545
Li13 O15 2.133403 1_555
Li13 O4 2.153228 1_555
Li13 O17 2.245671 1_455
Li13 O20 2.398576 1_545
Mn0 O13 1.932523 1_555
Mn0 O15 1.934366 1_555
Mn0 O17 1.939407 1_555
Mn0 O19 1.942577 1_555
Mn0 O21 1.986293 1_555
Mn0 O23 1.986344 1_545
Mn1 O12 1.943635 1_556
Mn1 O14 1.943817 1_455
Mn1 O16 1.951373 1_555
Mn1 O18 1.951977 1_456
Mn1 O22 1.964323 1_455
Mn1 O20 1.967289 1_556
Mn2 O11 1.904025 1_566
Mn2 O20 1.955094 1_656
Mn2 O7 1.996741 1_565
Mn2 O1 2.023460 1_655
Mn2 O14 2.254601 1_555
Mn2 O4 2.267531 1_666
Mn3 O21 1.944777 1_555
Mn3 O10 1.952393 1_555
Mn3 O0 1.979037 1_555
Mn3 O6 1.996048 1_555
Mn3 O15 2.240204 1_555
Mn3 O5 2.257320 1_555
Mn4 O8 1.903673 1_554
Mn4 O22 1.955222 1_454
Mn4 O4 1.996274 1_555
Mn4 O2 2.023480 1_455
Mn4 O12 2.255157 1_555
Mn4 O7 2.267333 1_454
Mn5 O23 1.945191 1_555
Mn5 O9 1.952699 1_555
Mn5 O3 1.978379 1_555
Mn5 O5 1.995557 1_555
Mn5 O13 2.240215 1_565
Mn5 O6 2.256951 1_555
Mn6 O5 1.924402 1_555
Mn6 O16 1.928998 1_555
Mn6 O10 1.934683 1_555
Mn6 O14 1.952688 1_455
Mn6 O3 1.952766 1_555
Mn6 O1 2.023495 1_555
Mn7 O17 1.944965 1_555
Mn7 O4 1.958364 1_655
Mn7 O15 1.980932 1_555
Mn7 O2 2.004032 1_555
Mn7 O11 2.178653 1_555
Mn7 O0 2.298625 1_555
Mn8 O6 1.922739 1_555
Mn8 O18 1.929490 1_555
Mn8 O9 1.935161 1_555
Mn8 O0 1.952005 1_555
Mn8 O12 1.954360 1_655
Mn8 O2 2.023119 1_555
Mn9 O19 1.945051 1_555
Mn9 O7 1.957397 1_455
Mn9 O13 1.981257 1_555
Mn9 O1 2.003999 1_545
Mn9 O8 2.178910 1_555
Mn9 O3 2.298516 1_545
