# generated using pymatgen
data_Nd2Mg
_symmetry_space_group_name_H-M   'P 1'
_cell_length_a   13.91565124
_cell_length_b   13.91565124
_cell_length_c   13.91565124
_cell_angle_alpha   147.80398269
_cell_angle_beta   147.80398269
_cell_angle_gamma   46.17481143
_symmetry_Int_Tables_number   1
_chemical_formula_structural   Nd2Mg
_chemical_formula_sum   'Nd16 Mg8'
_cell_volume   762.35262487
_cell_formula_units_Z   8
loop_
 _symmetry_equiv_pos_site_id
 _symmetry_equiv_pos_as_xyz
  1  'x, y, z'
loop_
 _atom_site_type_symbol
 _atom_site_label
 _atom_site_symmetry_multiplicity
 _atom_site_fract_x
 _atom_site_fract_y
 _atom_site_fract_z
 _atom_site_occupancy
  Nd  Nd0_0  1  0.32753192  0.32753192  0.00000000  1
  Nd  Nd0_1  1  0.32753191  0.32753192  0.50000000  1
  Nd  Nd0_2  1  0.32753192  0.82753192  0.00000000  1
  Nd  Nd0_3  1  0.32753191  0.82753192  0.50000000  1
  Nd  Nd0_4  1  0.82753192  0.32753192  0.00000000  1
  Nd  Nd0_5  1  0.82753191  0.32753192  0.50000000  1
  Nd  Nd0_6  1  0.82753192  0.82753192  0.00000000  1
  Nd  Nd0_7  1  0.82753192  0.82753192  0.50000000  1
  Nd  Nd1_0  1  0.17246808  0.17246809  0.00000000  1
  Nd  Nd1_1  1  0.17246808  0.17246808  0.50000000  1
  Nd  Nd1_2  1  0.17246808  0.67246808  0.00000000  1
  Nd  Nd1_3  1  0.17246808  0.67246808  0.50000000  1
  Nd  Nd1_4  1  0.67246808  0.17246809  0.00000000  1
  Nd  Nd1_5  1  0.67246808  0.17246809  0.50000000  1
  Nd  Nd1_6  1  0.67246808  0.67246809  0.00000000  1
  Nd  Nd1_7  1  0.67246808  0.67246808  0.50000000  1
  Mg  Mg0_0  1  0.00000000  0.00000000  0.00000000  1
  Mg  Mg0_1  1  0.00000000  0.00000000  0.50000000  1
  Mg  Mg0_2  1  0.00000000  0.50000000  0.00000000  1
  Mg  Mg0_3  1  0.00000000  0.50000000  0.50000000  1
  Mg  Mg0_4  1  0.50000000  0.00000000  0.00000000  1
  Mg  Mg0_5  1  0.50000000  0.00000000  0.50000000  1
  Mg  Mg0_6  1  0.50000000  0.50000000  0.00000000  1
  Mg  Mg0_7  1  0.50000000  0.50000000  0.50000000  1
loop_
_geom_bond_atom_site_label_1
_geom_bond_atom_site_label_2
_geom_bond_distance
_geom_bond_site_symmetry_2
Nd0_0 Nd1_7 3.654026 1_555
Nd0_0 Nd1_2 3.654026 1_555
Nd0_0 Nd1_1 3.654026 1_554
Nd0_0 Nd1_4 3.654026 1_555
Nd0_0 Nd0_5 3.858549 1_555
Nd0_0 Nd0_3 3.858549 1_544
Nd0_0 Nd0_3 3.858549 1_555
Nd0_0 Nd0_5 3.858549 1_454
Nd0_0 Nd1_0 3.969980 1_555
Nd0_1 Nd1_5 3.654026 1_555
Nd0_1 Nd1_3 3.654026 1_555
Nd0_1 Nd1_0 3.654026 1_555
Nd0_1 Nd1_6 3.654026 1_556
Nd0_1 Nd0_4 3.858549 1_556
Nd0_1 Nd0_2 3.858549 1_556
Nd0_1 Nd0_4 3.858549 1_455
Nd0_1 Nd0_2 3.858549 1_545
Nd0_1 Nd1_1 3.969980 1_555
Nd0_2 Nd1_3 3.654026 1_554
Nd0_2 Nd1_5 3.654026 1_565
Nd0_2 Nd1_0 3.654026 1_565
Nd0_2 Nd1_6 3.654026 1_555
Nd0_2 Nd0_7 3.858549 1_555
Nd0_2 Nd0_7 3.858549 1_454
Nd0_2 Nd1_2 3.969980 1_555
Nd0_3 Nd1_7 3.654026 1_555
Nd0_3 Nd1_2 3.654026 1_555
Nd0_3 Nd1_1 3.654026 1_565
Nd0_3 Nd1_4 3.654026 1_566
Nd0_3 Nd0_6 3.858549 1_556
Nd0_3 Nd0_6 3.858549 1_455
Nd0_3 Nd1_3 3.969980 1_555
Nd0_4 Nd1_5 3.654026 1_554
Nd0_4 Nd1_6 3.654026 1_555
Nd0_4 Nd1_0 3.654026 1_655
Nd0_4 Nd1_3 3.654026 1_655
Nd0_4 Nd0_7 3.858549 1_555
Nd0_4 Nd0_7 3.858549 1_544
Nd0_4 Nd1_4 3.969980 1_555
Nd0_5 Nd1_7 3.654026 1_555
Nd0_5 Nd1_4 3.654026 1_555
Nd0_5 Nd1_2 3.654026 1_656
Nd0_5 Nd1_1 3.654026 1_655
Nd0_5 Nd0_6 3.858549 1_556
Nd0_5 Nd0_6 3.858549 1_545
Nd0_5 Nd1_5 3.969980 1_555
Nd0_6 Nd1_7 3.654026 1_554
Nd0_6 Nd1_1 3.654026 1_665
Nd0_6 Nd1_2 3.654026 1_655
Nd0_6 Nd1_4 3.654026 1_565
Nd0_6 Nd1_6 3.969980 1_555
Nd0_7 Nd1_5 3.654026 1_565
Nd0_7 Nd1_6 3.654026 1_555
Nd0_7 Nd1_0 3.654026 1_666
Nd0_7 Nd1_3 3.654026 1_655
Nd0_7 Nd1_7 3.969980 1_555
Nd1_0 Nd1_5 3.858549 1_555
Nd1_0 Nd1_3 3.858549 1_555
Nd1_0 Nd1_3 3.858549 1_544
Nd1_0 Nd1_5 3.858549 1_454
Nd1_1 Nd1_4 3.858549 1_556
Nd1_1 Nd1_2 3.858549 1_556
Nd1_1 Nd1_4 3.858549 1_455
Nd1_1 Nd1_2 3.858549 1_545
Nd1_2 Nd1_7 3.858549 1_555
Nd1_2 Nd1_7 3.858549 1_454
Nd1_3 Nd1_6 3.858549 1_556
Nd1_3 Nd1_6 3.858549 1_455
Nd1_4 Nd1_7 3.858549 1_555
Nd1_4 Nd1_7 3.858549 1_544
Nd1_5 Nd1_6 3.858549 1_556
Nd1_5 Nd1_6 3.858549 1_545
Mg0_0 Nd1_1 3.374076 1_555
Mg0_0 Nd0_2 3.374076 1_545
Mg0_0 Nd1_4 3.374076 1_455
Mg0_0 Nd1_2 3.374076 1_545
Mg0_0 Nd1_7 3.374076 1_444
Mg0_0 Nd0_7 3.374076 1_444
Mg0_0 Nd0_1 3.374076 1_555
Mg0_0 Nd0_4 3.374076 1_455
Mg0_1 Nd0_3 3.374076 1_545
Mg0_1 Nd0_6 3.374076 1_445
Mg0_1 Nd1_6 3.374076 1_445
Mg0_1 Nd1_0 3.374076 1_556
Mg0_1 Nd1_3 3.374076 1_545
Mg0_1 Nd0_0 3.374076 1_556
Mg0_1 Nd0_5 3.374076 1_455
Mg0_1 Nd1_5 3.374076 1_455
Mg0_2 Nd1_0 3.374076 1_555
Mg0_2 Nd1_3 3.374076 1_555
Mg0_2 Nd1_6 3.374076 1_455
Mg0_2 Nd0_5 3.374076 1_454
Mg0_2 Nd0_0 3.374076 1_555
Mg0_2 Nd1_5 3.374076 1_454
Mg0_2 Nd0_3 3.374076 1_555
Mg0_2 Nd0_6 3.374076 1_455
Mg0_3 Nd1_1 3.374076 1_555
Mg0_3 Nd0_1 3.374076 1_555
Mg0_3 Nd1_2 3.374076 1_556
Mg0_3 Nd1_4 3.374076 1_455
Mg0_3 Nd0_2 3.374076 1_556
Mg0_3 Nd0_4 3.374076 1_455
Mg0_3 Nd1_7 3.374076 1_455
Mg0_3 Nd0_7 3.374076 1_455
Mg0_4 Nd0_3 3.374076 1_544
Mg0_4 Nd1_6 3.374076 1_545
Mg0_4 Nd0_5 3.374076 1_555
Mg0_4 Nd1_0 3.374076 1_555
Mg0_4 Nd0_6 3.374076 1_545
Mg0_4 Nd0_0 3.374076 1_555
Mg0_4 Nd1_3 3.374076 1_544
Mg0_4 Nd1_5 3.374076 1_555
Mg0_5 Nd1_4 3.374076 1_556
Mg0_5 Nd0_2 3.374076 1_545
Mg0_5 Nd1_1 3.374076 1_555
Mg0_5 Nd0_7 3.374076 1_545
Mg0_5 Nd0_1 3.374076 1_555
Mg0_5 Nd1_2 3.374076 1_545
Mg0_5 Nd1_7 3.374076 1_545
Mg0_5 Nd0_4 3.374076 1_556
Mg0_6 Nd1_4 3.374076 1_555
Mg0_6 Nd1_7 3.374076 1_555
Mg0_6 Nd0_2 3.374076 1_555
Mg0_6 Nd1_1 3.374076 1_554
Mg0_6 Nd0_1 3.374076 1_554
Mg0_6 Nd1_2 3.374076 1_555
Mg0_6 Nd0_4 3.374076 1_555
Mg0_6 Nd0_7 3.374076 1_555
Mg0_7 Nd1_6 3.374076 1_556
Mg0_7 Nd1_5 3.374076 1_555
Mg0_7 Nd1_0 3.374076 1_555
Mg0_7 Nd0_5 3.374076 1_555
Mg0_7 Nd1_3 3.374076 1_555
Mg0_7 Nd0_0 3.374076 1_555
Mg0_7 Nd0_3 3.374076 1_555
Mg0_7 Nd0_6 3.374076 1_556
