# generated using pymatgen
data_HoMg(FeO3)2
_symmetry_space_group_name_H-M   'P 1'
_cell_length_a   5.18843100
_cell_length_b   5.45249200
_cell_length_c   7.56881000
_cell_angle_alpha   90.00000000
_cell_angle_beta   90.00000000
_cell_angle_gamma   90.00000000
_symmetry_Int_Tables_number   1
_chemical_formula_structural   HoMg(FeO3)2
_chemical_formula_sum   'Ho2 Mg2 Fe4 O12'
_cell_volume   214.12071544
_cell_formula_units_Z   2
loop_
 _symmetry_equiv_pos_site_id
 _symmetry_equiv_pos_as_xyz
  1  'x, y, z'
loop_
 _atom_site_type_symbol
 _atom_site_label
 _atom_site_symmetry_multiplicity
 _atom_site_fract_x
 _atom_site_fract_y
 _atom_site_fract_z
 _atom_site_occupancy
  Ho  Ho0  1  0.01664500  0.68214000  0.00000000  1
  Ho  Ho1  1  0.51664500  0.31786000  0.50000000  1
  Mg  Mg0  1  0.48464100  0.18931500  0.00000000  1
  Mg  Mg1  1  0.98464100  0.81068500  0.50000000  1
  Fe  Fe0  1  0.00081900  0.24343200  0.75112100  1
  Fe  Fe1  1  0.00081900  0.24343200  0.24887900  1
  Fe  Fe2  1  0.50081900  0.75656800  0.25112100  1
  Fe  Fe3  1  0.50081900  0.75656800  0.74887900  1
  O  O0  1  0.10753400  0.19844800  0.50000000  1
  O  O1  1  0.19799900  0.94710800  0.81122300  1
  O  O2  1  0.19799900  0.94710800  0.18877700  1
  O  O3  1  0.31095000  0.43790600  0.81078400  1
  O  O4  1  0.31095000  0.43790600  0.18921600  1
  O  O5  1  0.37205700  0.71226800  0.50000000  1
  O  O6  1  0.60753400  0.80155200  0.00000000  1
  O  O7  1  0.69799900  0.05289200  0.31122300  1
  O  O8  1  0.69799900  0.05289200  0.68877700  1
  O  O9  1  0.81095000  0.56209400  0.68921600  1
  O  O10  1  0.81095000  0.56209400  0.31078400  1
  O  O11  1  0.87205700  0.28773200  0.00000000  1
loop_
_geom_bond_atom_site_label_1
_geom_bond_atom_site_label_2
_geom_bond_distance
_geom_bond_site_symmetry_2
Ho0 O6 2.220257 1_455
Ho0 O2 2.239231 1_555
Ho0 O1 2.239231 1_554
Ho0 O11 2.277599 1_455
Ho0 O3 2.481145 1_554
Ho0 O4 2.481145 1_555
Ho0 O10 2.664690 1_455
Ho0 O9 2.664690 1_454
Ho1 O0 2.220257 1_555
Ho1 O8 2.239231 1_555
Ho1 O7 2.239231 1_555
Ho1 O5 2.277599 1_555
Ho1 O9 2.481145 1_555
Ho1 O10 2.481145 1_555
Ho1 O3 2.664690 1_555
Ho1 O4 2.664690 1_555
Mg0 O11 2.080477 1_555
Mg0 O3 2.168035 1_554
Mg0 O4 2.168035 1_555
Mg0 O6 2.208329 1_545
Mg0 O2 2.448962 1_545
Mg0 O1 2.448962 1_544
Mg0 O7 2.706942 1_555
Mg0 O8 2.706942 1_554
Mg1 O5 2.080477 1_655
Mg1 O9 2.168035 1_555
Mg1 O10 2.168035 1_555
Mg1 O0 2.208329 1_665
Mg1 O8 2.448962 1_565
Mg1 O7 2.448962 1_565
Mg1 O1 2.706942 1_655
Mg1 O2 2.706942 1_655
Fe0 O8 1.941792 1_455
Fe0 O1 1.965725 1_545
Fe0 O3 1.979263 1_555
Fe0 O0 1.994827 1_555
Fe0 O11 2.013221 1_456
Fe0 O9 2.051564 1_455
Fe1 O7 1.941792 1_455
Fe1 O2 1.965725 1_545
Fe1 O4 1.979263 1_555
Fe1 O0 1.994827 1_555
Fe1 O11 2.013221 1_455
Fe1 O10 2.051564 1_455
Fe2 O2 1.941792 1_555
Fe2 O7 1.965725 1_565
Fe2 O10 1.979263 1_555
Fe2 O6 1.994827 1_555
Fe2 O5 2.013221 1_555
Fe2 O4 2.051564 1_555
Fe3 O1 1.941792 1_555
Fe3 O8 1.965725 1_565
Fe3 O9 1.979263 1_555
Fe3 O6 1.994827 1_556
Fe3 O5 2.013221 1_555
Fe3 O3 2.051564 1_555
