# generated using pymatgen
data_Ta2Fe4O9
_symmetry_space_group_name_H-M   'P 1'
_cell_length_a   5.33515049
_cell_length_b   5.33515049
_cell_length_c   14.24487800
_cell_angle_alpha   90.00000000
_cell_angle_beta   90.00000000
_cell_angle_gamma   120.00000609
_symmetry_Int_Tables_number   1
_chemical_formula_structural   Ta2Fe4O9
_chemical_formula_sum   'Ta4 Fe8 O18'
_cell_volume   351.14192664
_cell_formula_units_Z   2
loop_
 _symmetry_equiv_pos_site_id
 _symmetry_equiv_pos_as_xyz
  1  'x, y, z'
loop_
 _atom_site_type_symbol
 _atom_site_label
 _atom_site_symmetry_multiplicity
 _atom_site_fract_x
 _atom_site_fract_y
 _atom_site_fract_z
 _atom_site_occupancy
  Ta  Ta0  1  0.00000000  0.00000000  0.64236500  1
  Ta  Ta1  1  0.00000000  0.00000000  0.35763500  1
  Ta  Ta2  1  0.00000000  0.00000000  0.85763500  1
  Ta  Ta3  1  0.00000000  0.00000000  0.14236500  1
  Fe  Fe0  1  0.33333300  0.66666700  0.51574200  1
  Fe  Fe1  1  0.66666700  0.33333300  0.48425800  1
  Fe  Fe2  1  0.66666700  0.33333300  0.98425800  1
  Fe  Fe3  1  0.33333300  0.66666700  0.01574200  1
  Fe  Fe4  1  0.33333300  0.66666700  0.80775800  1
  Fe  Fe5  1  0.66666700  0.33333300  0.19224200  1
  Fe  Fe6  1  0.66666700  0.33333300  0.69224200  1
  Fe  Fe7  1  0.33333300  0.66666700  0.30775800  1
  O  O0  1  0.33597600  0.31196500  0.58435900  1
  O  O1  1  0.66402400  0.68803500  0.41564100  1
  O  O2  1  0.68803500  0.02401000  0.58435900  1
  O  O3  1  0.31196500  0.33597600  0.91564100  1
  O  O4  1  0.31196500  0.97599000  0.41564100  1
  O  O5  1  0.68803500  0.66402400  0.08435900  1
  O  O6  1  0.97599000  0.66402400  0.58435900  1
  O  O7  1  0.02401000  0.68803500  0.91564100  1
  O  O8  1  0.02401000  0.33597600  0.41564100  1
  O  O9  1  0.97599000  0.31196500  0.08435900  1
  O  O10  1  0.66402400  0.97599000  0.91564100  1
  O  O11  1  0.33597600  0.02401000  0.08435900  1
  O  O12  1  0.28039100  0.00000000  0.75000000  1
  O  O13  1  0.71960900  0.00000000  0.25000000  1
  O  O14  1  0.00000000  0.28039100  0.75000000  1
  O  O15  1  0.00000000  0.71960900  0.25000000  1
  O  O16  1  0.71960900  0.71960900  0.75000000  1
  O  O17  1  0.28039100  0.28039100  0.25000000  1
loop_
_geom_bond_atom_site_label_1
_geom_bond_atom_site_label_2
_geom_bond_distance
_geom_bond_site_symmetry_2
Fe0 O6 2.136204 1_455
Fe0 O2 2.136209 1_565
Fe0 O0 2.136213 1_555
Fe0 O8 2.226620 1_555
Fe0 O1 2.226620 1_555
Fe0 O4 2.226620 1_555
Fe1 O8 2.136204 1_655
Fe1 O4 2.136209 1_545
Fe1 O1 2.136213 1_555
Fe1 O6 2.226620 1_555
Fe1 O0 2.226620 1_555
Fe1 O2 2.226620 1_555
Fe2 O10 2.136204 1_545
Fe2 O7 2.136209 1_655
Fe2 O3 2.136213 1_555
Fe2 O11 2.226620 1_556
Fe2 O5 2.226620 1_556
Fe2 O9 2.226620 1_556
Fe3 O11 2.136204 1_565
Fe3 O9 2.136209 1_455
Fe3 O5 2.136213 1_555
Fe3 O10 2.226620 1_554
Fe3 O3 2.226620 1_554
Fe3 O7 2.226620 1_554
Fe4 O12 2.102774 1_565
Fe4 O14 2.102777 1_555
Fe4 O16 2.102779 1_555
Fe4 O10 2.299188 1_555
Fe4 O3 2.299188 1_555
Fe4 O7 2.299188 1_555
Fe5 O13 2.102774 1_555
Fe5 O15 2.102777 1_655
Fe5 O17 2.102779 1_555
Fe5 O11 2.299188 1_555
Fe5 O5 2.299188 1_555
Fe5 O9 2.299188 1_555
Fe6 O14 2.102774 1_655
Fe6 O12 2.102777 1_555
Fe6 O16 2.102779 1_555
Fe6 O6 2.299188 1_555
Fe6 O0 2.299188 1_555
Fe6 O2 2.299188 1_555
Fe7 O15 2.102774 1_555
Fe7 O13 2.102777 1_565
Fe7 O17 2.102779 1_555
Fe7 O8 2.299188 1_555
Fe7 O1 2.299188 1_555
Fe7 O4 2.299188 1_555
O0 Ta0 1.918993 1_555
O1 Ta1 1.918993 1_665
O2 Ta0 1.918991 1_655
O3 Ta2 1.918993 1_555
O4 Ta1 1.918991 1_565
O5 Ta3 1.918993 1_665
O6 Ta0 1.918995 1_665
O7 Ta2 1.918991 1_565
O8 Ta1 1.918995 1_555
O9 Ta3 1.918991 1_655
O10 Ta2 1.918995 1_665
O11 Ta3 1.918995 1_555
O12 Ta2 2.142113 1_555
O12 Ta0 2.142113 1_555
O13 Ta1 2.142113 1_655
O13 Ta3 2.142113 1_655
O14 Ta2 2.142113 1_555
O14 Ta0 2.142113 1_555
O15 Ta1 2.142113 1_565
O15 Ta3 2.142113 1_565
O16 Ta2 2.142113 1_665
O16 Ta0 2.142113 1_665
O17 Ta1 2.142113 1_555
O17 Ta3 2.142113 1_555
