# generated using pymatgen
data_Zr2NiS4
_symmetry_space_group_name_H-M   'P 1'
_cell_length_a   6.86774004
_cell_length_b   6.86774004
_cell_length_c   6.31375882
_cell_angle_alpha   62.69008794
_cell_angle_beta   62.69008794
_cell_angle_gamma   31.14100407
_symmetry_Int_Tables_number   1
_chemical_formula_structural   Zr2NiS4
_chemical_formula_sum   'Zr2 Ni1 S4'
_cell_volume   135.41355691
_cell_formula_units_Z   1
loop_
 _symmetry_equiv_pos_site_id
 _symmetry_equiv_pos_as_xyz
  1  'x, y, z'
loop_
 _atom_site_type_symbol
 _atom_site_label
 _atom_site_symmetry_multiplicity
 _atom_site_fract_x
 _atom_site_fract_y
 _atom_site_fract_z
 _atom_site_occupancy
  Zr  Zr0  1  0.49881003  0.49881003  0.50627106  1
  Zr  Zr1  1  0.00341919  0.00341919  0.99010382  1
  Ni  Ni0  1  0.67578786  0.67578786  0.65634270  1
  S  S0  1  0.37383866  0.37383866  0.95949343  1
  S  S1  1  0.87280818  0.87280818  0.46285073  1
  S  S2  1  0.62637970  0.62637970  0.04459160  1
  S  S3  1  0.13141537  0.13141537  0.53119767  1
loop_
_geom_bond_atom_site_label_1
_geom_bond_atom_site_label_2
_geom_bond_distance
_geom_bond_site_symmetry_2
Ni0 S3 2.193005 1_565
Ni0 S3 2.193005 1_655
Ni0 S2 2.215805 1_556
Ni0 S1 2.292274 1_555
S0 Zr0 2.532859 1_555
S0 Zr1 2.586693 1_565
S0 Zr1 2.586693 1_655
S1 Zr0 2.586191 1_655
S1 Zr0 2.586191 1_565
S1 Zr1 2.642363 1_664
S2 Zr0 2.580528 1_555
S2 Zr1 2.587819 1_654
S2 Zr1 2.587819 1_564
S3 Zr1 2.566907 1_555
S3 Zr0 2.600890 1_455
S3 Zr0 2.600890 1_545
