# generated using pymatgen
data_Al2Mo2O7
_symmetry_space_group_name_H-M   'P 1'
_cell_length_a   6.68159100
_cell_length_b   6.75080020
_cell_length_c   6.76726541
_cell_angle_alpha   66.10967557
_cell_angle_beta   65.96916970
_cell_angle_gamma   65.33208670
_symmetry_Int_Tables_number   1
_chemical_formula_structural   Al2Mo2O7
_chemical_formula_sum   'Al4 Mo4 O14'
_cell_volume   242.97681736
_cell_formula_units_Z   2
loop_
 _symmetry_equiv_pos_site_id
 _symmetry_equiv_pos_as_xyz
  1  'x, y, z'
loop_
 _atom_site_type_symbol
 _atom_site_label
 _atom_site_symmetry_multiplicity
 _atom_site_fract_x
 _atom_site_fract_y
 _atom_site_fract_z
 _atom_site_occupancy
  Al  Al0  1  0.50000000  0.00000000  0.50000000  1
  Al  Al1  1  0.50000000  0.00000000  0.00000000  1
  Al  Al2  1  0.00000000  0.00000000  0.50000000  1
  Al  Al3  1  0.50000000  0.50000000  0.50000000  1
  Mo  Mo0  1  0.00000000  0.50000000  0.00000000  1
  Mo  Mo1  1  0.00000000  0.50000000  0.50000000  1
  Mo  Mo2  1  0.50000000  0.50000000  0.00000000  1
  Mo  Mo3  1  0.00000000  0.00000000  0.00000000  1
  O  O0  1  0.61095000  0.15287400  0.60687500  1
  O  O1  1  0.38905000  0.84712600  0.39312500  1
  O  O2  1  0.88254600  0.84377200  0.40518100  1
  O  O3  1  0.67984400  0.68425100  0.98807400  1
  O  O4  1  0.99131400  0.83659300  0.82111300  1
  O  O5  1  0.34592600  0.88270300  0.89575000  1
  O  O6  1  0.82885400  0.50576300  0.31758800  1
  O  O7  1  0.35588300  0.47814700  0.31959900  1
  O  O8  1  0.32015600  0.31574900  0.01192600  1
  O  O9  1  0.17114600  0.49423700  0.68241200  1
  O  O10  1  0.65407400  0.11729700  0.10425000  1
  O  O11  1  0.11745400  0.15622800  0.59481900  1
  O  O12  1  0.64411700  0.52185300  0.68040100  1
  O  O13  1  0.00868600  0.16340700  0.17888700  1
loop_
_geom_bond_atom_site_label_1
_geom_bond_atom_site_label_2
_geom_bond_distance
_geom_bond_site_symmetry_2
Al0 O1 1.953864 1_545
Al0 O0 1.953864 1_555
Al0 O11 2.240410 1_555
Al0 O2 2.240410 1_545
Al0 O10 2.361466 1_555
Al0 O5 2.361466 1_545
Al1 O5 1.977110 1_544
Al1 O10 1.977110 1_555
Al1 O3 1.978973 1_544
Al1 O8 1.978973 1_555
Al1 O1 2.345368 1_545
Al1 O0 2.345368 1_554
Al2 O2 1.946557 1_445
Al2 O11 1.946557 1_555
Al2 O13 1.987843 1_555
Al2 O4 1.987843 1_445
Al2 O0 2.275841 1_455
Al2 O1 2.275841 1_545
Al3 O7 1.913454 1_555
Al3 O12 1.913454 1_555
Al3 O9 2.043689 1_555
Al3 O6 2.043689 1_555
Al3 O0 2.043991 1_555
Al3 O1 2.043991 1_555
Mo0 O9 1.989262 1_554
Mo0 O6 1.989262 1_455
Mo0 O8 1.991969 1_555
Mo0 O3 1.991969 1_454
Mo0 O13 2.085949 1_555
Mo0 O4 2.085949 1_454
Mo1 O9 1.976523 1_555
Mo1 O6 1.976523 1_455
Mo1 O2 2.024144 1_455
Mo1 O11 2.024144 1_555
Mo1 O12 2.157579 1_455
Mo1 O7 2.157579 1_555
Mo2 O12 1.946965 1_554
Mo2 O7 1.946965 1_555
Mo2 O8 2.021119 1_555
Mo2 O3 2.021119 1_554
Mo2 O10 2.264372 1_555
Mo2 O5 2.264372 1_554
Mo3 O4 1.969282 1_444
Mo3 O13 1.969282 1_555
Mo3 O5 2.015863 1_544
Mo3 O10 2.015863 1_455
Mo3 O2 2.417137 1_445
Mo3 O11 2.417137 1_554
