# generated using pymatgen
data_Li4Co2OF7
_symmetry_space_group_name_H-M   'P 1'
_cell_length_a   6.02902369
_cell_length_b   10.31328410
_cell_length_c   5.96933783
_cell_angle_alpha   88.90068130
_cell_angle_beta   120.33409427
_cell_angle_gamma   106.98489745
_symmetry_Int_Tables_number   1
_chemical_formula_structural   Li4Co2OF7
_chemical_formula_sum   'Li8 Co4 O2 F14'
_cell_volume   302.65355778
_cell_formula_units_Z   2
loop_
 _symmetry_equiv_pos_site_id
 _symmetry_equiv_pos_as_xyz
  1  'x, y, z'
loop_
 _atom_site_type_symbol
 _atom_site_label
 _atom_site_symmetry_multiplicity
 _atom_site_fract_x
 _atom_site_fract_y
 _atom_site_fract_z
 _atom_site_occupancy
  Li  Li0  1  0.98941300  0.99995300  0.98022300  1
  Li  Li1  1  0.99077200  0.49994700  0.48021100  1
  Li  Li2  1  0.76390400  0.12554600  0.39335300  1
  Li  Li3  1  0.75505400  0.62554500  0.89337800  1
  Li  Li4  1  0.37341300  0.31141500  0.43604000  1
  Li  Li5  1  0.37409100  0.81140100  0.93604500  1
  Li  Li6  1  0.37820600  0.06192300  0.69495100  1
  Li  Li7  1  0.37871200  0.56192400  0.19500300  1
  Co  Co0  1  0.39459500  0.82376200  0.42713900  1
  Co  Co1  1  0.85633700  0.32376900  0.92714700  1
  Co  Co2  1  0.38023100  0.31649800  0.93241600  1
  Co  Co3  1  0.86870800  0.81648000  0.43242400  1
  O  O0  1  0.63579000  0.42018800  0.82818900  1
  O  O1  1  0.61268300  0.92018900  0.32827500  1
  F  F0  1  0.62712300  0.18499200  0.05199300  1
  F  F1  1  0.60979700  0.68496500  0.55204000  1
  F  F2  1  0.12501400  0.43645400  0.82470400  1
  F  F3  1  0.13609400  0.93643400  0.32453800  1
  F  F4  1  0.11259700  0.20493200  0.04724800  1
  F  F5  1  0.13943200  0.70490500  0.54715400  1
  F  F6  1  0.12686200  0.42722800  0.29437400  1
  F  F7  1  0.12740200  0.92957400  0.79468700  1
  F  F8  1  0.59687500  0.42955800  0.29470400  1
  F  F9  1  0.59468200  0.92721600  0.79441200  1
  F  F10  1  0.15543100  0.19047500  0.58425800  1
  F  F11  1  0.14820600  0.69215500  0.08541900  1
  F  F12  1  0.62925100  0.19216500  0.58535800  1
  F  F13  1  0.61933200  0.69041100  0.08431500  1
loop_
_geom_bond_atom_site_label_1
_geom_bond_atom_site_label_2
_geom_bond_distance
_geom_bond_site_symmetry_2
Li2 O1 2.003336 1_545
Li3 O0 2.003310 1_555
Li4 O0 2.136387 1_555
Li5 O1 2.136795 1_556
Co0 O1 1.750269 1_555
Co0 F9 2.016562 1_555
Co0 F11 2.019268 1_555
Co0 F3 2.054496 1_555
Co0 F1 2.086949 1_555
Co0 F5 2.088124 1_555
Co1 O0 1.749972 1_555
Co1 F6 2.016335 1_656
Co1 F12 2.019499 1_555
Co1 F2 2.054737 1_655
Co1 F4 2.087307 1_656
Co1 F0 2.087436 1_556
Co2 O0 1.970980 1_555
Co2 F10 2.018596 1_555
Co2 F8 2.023940 1_556
Co2 F2 2.096156 1_555
Co2 F4 2.097532 1_556
Co2 F0 2.152613 1_556
Co3 O1 1.970505 1_555
Co3 F13 2.018622 1_555
Co3 F7 2.023977 1_655
Co3 F5 2.096474 1_655
Co3 F3 2.096884 1_655
Co3 F1 2.153572 1_555
F0 Li2 1.938615 1_555
F0 Li6 2.041033 1_554
F1 Li3 1.938398 1_555
F1 Li7 2.040894 1_555
F2 Li1 1.972166 1_455
F2 Li7 2.106740 1_556
F3 Li0 1.971408 1_454
F3 Li6 2.107300 1_565
F4 Li0 1.998929 1_444
F4 Li4 2.113669 1_555
F5 Li1 1.998720 1_455
F5 Li5 2.114118 1_555
F6 Li1 1.943465 1_455
F6 Li4 2.019936 1_555
F6 Li7 2.057425 1_555
F7 Li0 1.939048 1_455
F7 Li5 2.039932 1_555
F7 Li6 2.043600 1_565
F8 Li1 1.939155 1_555
F8 Li4 2.039882 1_555
F8 Li7 2.043278 1_555
F9 Li0 1.944040 1_555
F9 Li5 2.019689 1_555
F9 Li6 2.056929 1_565
F10 Li2 1.925561 1_455
F10 Li6 2.026969 1_555
F10 Li4 2.059166 1_555
F11 Li3 1.933581 1_454
F11 Li7 2.074064 1_555
F11 Li5 2.090018 1_554
F12 Li2 1.934088 1_555
F12 Li6 2.074059 1_555
F12 Li4 2.088954 1_555
F13 Li3 1.925433 1_554
F13 Li7 2.026954 1_555
F13 Li5 2.059177 1_554
