# generated using pymatgen
data_Cs5U2S4ICl8
_symmetry_space_group_name_H-M   'P 1'
_cell_length_a   11.01864625
_cell_length_b   11.01864625
_cell_length_c   11.01864625
_cell_angle_alpha   138.92431599
_cell_angle_beta   121.15439275
_cell_angle_gamma   74.26501080
_symmetry_Int_Tables_number   1
_chemical_formula_structural   Cs5U2S4ICl8
_chemical_formula_sum   'Cs5 U2 S4 I1 Cl8'
_cell_volume   735.24034291
_cell_formula_units_Z   1
loop_
 _symmetry_equiv_pos_site_id
 _symmetry_equiv_pos_as_xyz
  1  'x, y, z'
loop_
 _atom_site_type_symbol
 _atom_site_label
 _atom_site_symmetry_multiplicity
 _atom_site_fract_x
 _atom_site_fract_y
 _atom_site_fract_z
 _atom_site_occupancy
  Cs  Cs0  1  0.07527800  0.83637400  0.23890400  1
  Cs  Cs1  1  0.92472200  0.16362600  0.76109600  1
  Cs  Cs2  1  0.40252900  0.16362600  0.23890400  1
  Cs  Cs3  1  0.59747100  0.83637400  0.76109600  1
  Cs  Cs4  1  0.00000000  0.50000000  0.50000000  1
  U  U0  1  0.60698000  0.60698000  0.00000000  1
  U  U1  1  0.39302000  0.39302000  0.00000000  1
  S  S0  1  0.40433000  0.26667500  0.67100500  1
  S  S1  1  0.59567000  0.26667500  0.86234500  1
  S  S2  1  0.40433000  0.73332500  0.13765500  1
  S  S3  1  0.59567000  0.73332500  0.32899500  1
  I  I0  1  0.00000000  0.00000000  0.00000000  1
  Cl  Cl0  1  0.71711100  0.95780900  0.24069900  1
  Cl  Cl1  1  0.28288900  0.52358800  0.24069900  1
  Cl  Cl2  1  0.28288900  0.04219100  0.75930100  1
  Cl  Cl3  1  0.71711100  0.47641200  0.75930100  1
  Cl  Cl4  1  0.88852100  0.63679400  0.25172700  1
  Cl  Cl5  1  0.11147900  0.36320600  0.74827300  1
  Cl  Cl6  1  0.61493400  0.36320600  0.25172700  1
  Cl  Cl7  1  0.38506600  0.63679400  0.74827300  1
loop_
_geom_bond_atom_site_label_1
_geom_bond_atom_site_label_2
_geom_bond_distance
_geom_bond_site_symmetry_2
Cs0 I0 3.866953 1_565
Cs0 S2 3.965119 1_555
Cs0 S0 3.965119 1_565
Cs1 I0 3.866953 1_656
Cs1 S3 3.965119 1_545
Cs1 S1 3.965119 1_555
Cs2 I0 3.866943 1_555
Cs2 S0 3.965113 1_555
Cs2 S2 3.965117 1_545
Cs3 I0 3.866943 1_666
Cs3 S3 3.965113 1_555
Cs3 S1 3.965117 1_565
Cs4 I0 3.865627 1_555
Cs4 I0 3.865627 1_566
S0 S1 2.071414 1_555
S0 U0 2.803459 1_556
S0 U1 2.803459 1_556
S1 U0 2.803459 1_556
S1 U1 2.803459 1_556
S2 S3 2.071414 1_555
S2 U0 2.803459 1_555
S2 U1 2.803459 1_555
S3 U0 2.803459 1_555
S3 U1 2.803459 1_555
Cl0 U0 2.684538 1_555
Cl0 Cs1 3.590465 1_565
Cl0 Cs2 3.590482 1_565
Cl0 Cs0 3.813466 1_655
Cl0 Cs3 3.813477 1_554
Cl1 U1 2.684547 1_555
Cl1 Cs0 3.590469 1_555
Cl1 Cs3 3.590474 1_555
Cl1 Cs2 3.813466 1_555
Cl1 Cs1 3.813467 1_454
Cl2 U1 2.684538 1_556
Cl2 Cs0 3.590465 1_545
Cl2 Cs3 3.590482 1_545
Cl2 Cs1 3.813466 1_455
Cl2 Cs2 3.813477 1_556
Cl3 U0 2.684547 1_556
Cl3 Cs1 3.590469 1_555
Cl3 Cs2 3.590474 1_555
Cl3 Cs3 3.813466 1_555
Cl3 Cs0 3.813467 1_656
Cl4 U0 2.775037 1_555
Cl4 Cs0 3.509177 1_655
Cl4 Cs4 3.605566 1_655
Cl4 Cs1 3.895586 1_554
Cl4 Cs1 3.895586 1_565
Cl5 U1 2.775037 1_556
Cl5 Cs1 3.509177 1_455
Cl5 Cs4 3.605566 1_555
Cl5 Cs0 3.895586 1_545
Cl5 Cs0 3.895586 1_556
Cl6 U1 2.775041 1_555
Cl6 Cs2 3.509195 1_555
Cl6 Cs4 3.605556 1_655
Cl6 Cs3 3.895586 1_544
Cl6 Cs3 3.895586 1_555
Cl7 U0 2.775041 1_556
Cl7 Cs3 3.509195 1_555
Cl7 Cs4 3.605556 1_555
Cl7 Cs2 3.895586 1_555
Cl7 Cs2 3.895586 1_566
