# generated using pymatgen
data_Mg15Si
_symmetry_space_group_name_H-M   'P 1'
_cell_length_a   6.31760439
_cell_length_b   6.31760439
_cell_length_c   10.23417600
_cell_angle_alpha   90.00000000
_cell_angle_beta   90.00000000
_cell_angle_gamma   120.00000404
_symmetry_Int_Tables_number   1
_chemical_formula_structural   Mg15Si
_chemical_formula_sum   'Mg15 Si1'
_cell_volume   353.74340215
_cell_formula_units_Z   1
loop_
 _symmetry_equiv_pos_site_id
 _symmetry_equiv_pos_as_xyz
  1  'x, y, z'
loop_
 _atom_site_type_symbol
 _atom_site_label
 _atom_site_symmetry_multiplicity
 _atom_site_fract_x
 _atom_site_fract_y
 _atom_site_fract_z
 _atom_site_occupancy
  Mg  Mg0  1  0.66666700  0.33333300  0.50000000  1
  Mg  Mg1  1  0.16505500  0.33011000  0.00000000  1
  Mg  Mg2  1  0.16718400  0.33436900  0.50000000  1
  Mg  Mg3  1  0.16505500  0.83494500  0.00000000  1
  Mg  Mg4  1  0.16718400  0.83281600  0.50000000  1
  Mg  Mg5  1  0.66989000  0.83494500  0.00000000  1
  Mg  Mg6  1  0.66563100  0.83281600  0.50000000  1
  Mg  Mg7  1  0.99609600  0.49804800  0.24459000  1
  Mg  Mg8  1  0.99609600  0.49804800  0.75541000  1
  Mg  Mg9  1  0.50195200  0.49804800  0.24459000  1
  Mg  Mg10  1  0.50195200  0.49804800  0.75541000  1
  Mg  Mg11  1  0.50195200  0.00390400  0.24459000  1
  Mg  Mg12  1  0.50195200  0.00390400  0.75541000  1
  Mg  Mg13  1  0.00000000  0.00000000  0.25054600  1
  Mg  Mg14  1  0.00000000  0.00000000  0.74945400  1
  Si  Si0  1  0.66666700  0.33333300  0.00000000  1
loop_
_geom_bond_atom_site_label_1
_geom_bond_atom_site_label_2
_geom_bond_distance
_geom_bond_site_symmetry_2
Mg0 Mg6 3.158801 1_545
Mg0 Mg2 3.158801 1_655
Mg0 Mg4 3.158807 1_545
Mg0 Mg4 3.158807 1_655
Mg0 Mg2 3.158814 1_555
Mg0 Mg6 3.158814 1_555
Mg0 Mg7 3.175072 1_555
Mg0 Mg11 3.175072 1_555
Mg0 Mg12 3.175072 1_555
Mg0 Mg8 3.175072 1_555
Mg0 Mg9 3.175075 1_555
Mg0 Mg10 3.175075 1_555
Mg1 Mg10 3.108603 1_554
Mg1 Mg9 3.108603 1_555
Mg1 Mg8 3.108603 1_454
Mg1 Mg7 3.108603 1_455
Mg1 Mg5 3.128256 1_445
Mg1 Mg3 3.128257 1_545
Mg1 Mg13 3.136362 1_555
Mg1 Mg14 3.136362 1_554
Mg1 Si0 3.158848 1_455
Mg1 Si0 3.158855 1_555
Mg1 Mg5 3.189348 1_555
Mg1 Mg3 3.189348 1_555
Mg2 Mg6 3.148991 1_555
Mg2 Mg4 3.148991 1_555
Mg2 Mg6 3.168613 1_445
Mg2 Mg4 3.168613 1_545
Mg2 Mg8 3.191827 1_455
Mg2 Mg7 3.191827 1_455
Mg2 Mg9 3.191830 1_555
Mg3 Mg8 3.108603 1_454
Mg3 Mg7 3.108603 1_455
Mg3 Mg5 3.128257 1_455
Mg3 Si0 3.158851 1_455
Mg3 Si0 3.158851 1_565
Mg3 Mg5 3.189348 1_555
Mg4 Mg6 3.148991 1_555
Mg4 Mg6 3.168613 1_455
Mg4 Mg7 3.191830 1_455
Mg4 Mg8 3.191830 1_455
Mg5 Mg9 3.108603 1_555
Mg5 Si0 3.158848 1_565
Mg5 Si0 3.158855 1_555
Mg6 Mg9 3.191830 1_555
Mg7 Si0 3.084550 1_555
Mg7 Mg9 3.121806 1_555
Mg7 Mg9 3.195798 1_655
Mg8 Si0 3.084550 1_556
Mg9 Si0 3.084553 1_555
Mg10 Si0 3.084553 1_556
Mg10 Mg5 3.108603 1_556
Mg10 Mg12 3.121806 1_555
Mg10 Mg8 3.121806 1_555
Mg10 Mg14 3.159462 1_665
Mg10 Mg14 3.159462 1_555
Mg10 Mg6 3.191830 1_555
Mg10 Mg2 3.191830 1_555
Mg10 Mg12 3.195798 1_565
Mg10 Mg8 3.195798 1_455
Mg11 Si0 3.084550 1_555
Mg11 Mg3 3.108603 1_545
Mg11 Mg5 3.108603 1_545
Mg11 Mg7 3.121806 1_555
Mg11 Mg9 3.121806 1_555
Mg11 Mg13 3.159462 1_555
Mg11 Mg13 3.159462 1_655
Mg11 Mg6 3.191827 1_545
Mg11 Mg4 3.191830 1_545
Mg11 Mg7 3.195798 1_445
Mg11 Mg9 3.195798 1_545
Mg12 Si0 3.084550 1_556
Mg12 Mg3 3.108603 1_546
Mg12 Mg5 3.108603 1_546
Mg12 Mg8 3.121806 1_555
Mg12 Mg14 3.159462 1_555
Mg12 Mg14 3.159462 1_655
Mg12 Mg6 3.191827 1_545
Mg12 Mg4 3.191830 1_545
Mg12 Mg8 3.195798 1_445
Mg13 Mg5 3.136362 1_445
Mg13 Mg3 3.136362 1_545
Mg13 Mg4 3.140744 1_545
Mg13 Mg2 3.140748 1_555
Mg13 Mg6 3.140748 1_445
Mg13 Mg9 3.159462 1_555
Mg13 Mg9 3.159462 1_445
Mg13 Mg7 3.159462 1_445
Mg13 Mg7 3.159462 1_455
Mg14 Mg5 3.136362 1_446
Mg14 Mg3 3.136362 1_546
Mg14 Mg4 3.140744 1_545
Mg14 Mg2 3.140748 1_555
Mg14 Mg6 3.140748 1_445
Mg14 Mg8 3.159462 1_445
Mg14 Mg8 3.159462 1_455
