# generated using pymatgen
data_Na9U3Si4(O10F)2
_symmetry_space_group_name_H-M   'P 1'
_cell_length_a   5.94670200
_cell_length_b   7.48353605
_cell_length_c   12.04553321
_cell_angle_alpha   89.95161405
_cell_angle_beta   84.72313459
_cell_angle_gamma   89.99330844
_symmetry_Int_Tables_number   1
_chemical_formula_structural   Na9U3Si4(O10F)2
_chemical_formula_sum   'Na9 U3 Si4 O20 F2'
_cell_volume   533.78260446
_cell_formula_units_Z   1
loop_
 _symmetry_equiv_pos_site_id
 _symmetry_equiv_pos_as_xyz
  1  'x, y, z'
loop_
 _atom_site_type_symbol
 _atom_site_label
 _atom_site_symmetry_multiplicity
 _atom_site_fract_x
 _atom_site_fract_y
 _atom_site_fract_z
 _atom_site_occupancy
  Na  Na0  1  0.00000000  0.50000000  0.00000000  1
  Na  Na1  1  0.28574200  0.00013500  0.28066500  1
  Na  Na2  1  0.71425800  0.99986500  0.71933500  1
  Na  Na3  1  0.50005500  0.26073400  0.00003300  1
  Na  Na4  1  0.49994500  0.73926600  0.99996700  1
  Na  Na5  1  0.99985100  0.76746500  0.49991100  1
  Na  Na6  1  0.00014900  0.23253500  0.50008900  1
  Na  Na7  1  0.50007600  0.23103300  0.49996800  1
  Na  Na8  1  0.49992400  0.76896700  0.50003200  1
  U  U0  1  0.00000000  0.00000000  0.00000000  1
  U  U1  1  0.71386800  0.50021900  0.71695100  1
  U  U2  1  0.28613200  0.49978100  0.28304900  1
  Si  Si0  1  0.20263200  0.21500800  0.76464300  1
  Si  Si1  1  0.79736800  0.78499200  0.23535700  1
  Si  Si2  1  0.20243800  0.78537900  0.76469100  1
  Si  Si3  1  0.79756200  0.21462100  0.23530900  1
  O  O0  1  0.17164200  0.23588700  0.90063800  1
  O  O1  1  0.82835800  0.76411300  0.09936200  1
  O  O2  1  0.98859700  0.29403900  0.70337700  1
  O  O3  1  0.01140300  0.70596100  0.29662300  1
  O  O4  1  0.44844600  0.28695700  0.70992700  1
  O  O5  1  0.55155400  0.71304300  0.29007300  1
  O  O6  1  0.20073800  0.00024200  0.73676700  1
  O  O7  1  0.79926200  0.99975800  0.26323300  1
  O  O8  1  0.98836000  0.70663400  0.70342800  1
  O  O9  1  0.01164000  0.29336600  0.29657200  1
  O  O10  1  0.17123000  0.76409000  0.90067900  1
  O  O11  1  0.82877000  0.23591000  0.09932100  1
  O  O12  1  0.44829400  0.71351000  0.71007400  1
  O  O13  1  0.55170600  0.28649000  0.28992600  1
  O  O14  1  0.25313100  0.99971500  0.08520100  1
  O  O15  1  0.74686900  0.00028500  0.91479900  1
  O  O16  1  0.73696300  0.50066100  0.55787600  1
  O  O17  1  0.26303700  0.49933900  0.44212400  1
  O  O18  1  0.68712900  0.49993600  0.87573800  1
  O  O19  1  0.31287100  0.50006400  0.12426200  1
  F  F0  1  0.25619400  0.99982400  0.46664900  1
  F  F1  1  0.74380600  0.00017600  0.53335100  1
loop_
_geom_bond_atom_site_label_1
_geom_bond_atom_site_label_2
_geom_bond_distance
_geom_bond_site_symmetry_2
Na0 O10 2.479198 1_554
Na0 O11 2.479198 1_455
Na0 O0 2.481874 1_554
Na0 O1 2.481874 1_455
Na0 O18 2.492851 1_454
Na0 O19 2.492851 1_555
Na1 O14 2.380155 1_545
Na1 O13 2.672041 1_555
Na1 O5 2.675651 1_545
Na1 O9 2.729737 1_555
Na1 O3 2.736299 1_545
Na2 O15 2.380155 1_565
Na2 O12 2.672041 1_555
Na2 O4 2.675651 1_565
Na2 O8 2.729737 1_555
Na2 O2 2.736299 1_565
Na3 O0 2.390121 1_554
Na3 O11 2.390723 1_555
Na3 O18 2.524510 1_554
Na3 O19 2.526611 1_555
Na3 O15 2.594758 1_554
Na3 O14 2.596992 1_545
Na4 O1 2.390121 1_556
Na4 O10 2.390723 1_555
Na4 O19 2.524510 1_556
Na4 O18 2.526611 1_555
Na4 O14 2.594758 1_556
Na4 O15 2.596992 1_565
Na5 O3 2.486707 1_655
Na5 O8 2.487755 1_555
Na5 O16 2.591453 1_555
Na5 O17 2.600275 1_655
Na6 O2 2.486707 1_455
Na6 O9 2.487755 1_555
Na6 O17 2.591453 1_555
Na6 O16 2.600275 1_455
Na7 O13 2.554040 1_555
Na7 O4 2.554317 1_555
Na7 O17 2.584889 1_555
Na7 O16 2.593483 1_555
Na8 O12 2.554040 1_555
Na8 O5 2.554317 1_555
Na8 O16 2.584889 1_555
Na8 O17 2.593483 1_555
O0 Si0 1.639131 1_555
O0 U0 2.315740 1_556
O1 Si1 1.639131 1_555
O1 U0 2.315740 1_665
O2 Si0 1.638992 1_655
O2 U1 2.242148 1_555
O3 Si1 1.638992 1_455
O3 U2 2.242148 1_555
O4 Si0 1.638134 1_555
O4 U1 2.251868 1_555
O5 Si1 1.638134 1_555
O5 U2 2.251868 1_555
O6 Si0 1.642440 1_555
O6 Si2 1.642682 1_545
O7 Si1 1.642440 1_555
O7 Si3 1.642682 1_565
O8 Si2 1.638967 1_655
O8 U1 2.242411 1_555
O9 Si3 1.638967 1_455
O9 U2 2.242411 1_555
O10 Si2 1.639108 1_555
O10 U0 2.316033 1_566
O11 Si3 1.639108 1_555
O11 U0 2.316033 1_655
O12 Si2 1.638022 1_555
O12 U1 2.252117 1_555
O13 Si3 1.638022 1_555
O13 U2 2.252117 1_555
O14 U0 1.898248 1_565
O15 U0 1.898248 1_656
O16 U1 1.908419 1_555
O17 U2 1.908419 1_555
O18 U1 1.904642 1_555
O19 U2 1.904642 1_555
F0 Na1 2.230987 1_565
F0 Na8 2.313561 1_555
F0 Na7 2.316691 1_565
F0 Na5 2.322728 1_455
F0 Na6 2.324051 1_565
F1 Na2 2.230987 1_545
F1 Na7 2.313561 1_555
F1 Na8 2.316691 1_545
F1 Na6 2.322728 1_655
F1 Na5 2.324051 1_545
