# generated using pymatgen
data_NaMg6Co
_symmetry_space_group_name_H-M   'P 1'
_cell_length_a   4.95727700
_cell_length_b   6.29915900
_cell_length_c   10.79730500
_cell_angle_alpha   90.00000000
_cell_angle_beta   90.00000000
_cell_angle_gamma   90.00000000
_symmetry_Int_Tables_number   1
_chemical_formula_structural   NaMg6Co
_chemical_formula_sum   'Na2 Mg12 Co2'
_cell_volume   337.16394523
_cell_formula_units_Z   2
loop_
 _symmetry_equiv_pos_site_id
 _symmetry_equiv_pos_as_xyz
  1  'x, y, z'
loop_
 _atom_site_type_symbol
 _atom_site_label
 _atom_site_symmetry_multiplicity
 _atom_site_fract_x
 _atom_site_fract_y
 _atom_site_fract_z
 _atom_site_occupancy
  Na  Na0  1  0.50000000  0.50000000  0.16642900  1
  Na  Na1  1  0.50000000  0.00000000  0.66642900  1
  Mg  Mg0  1  0.00000000  0.24105300  0.07683100  1
  Mg  Mg1  1  0.00000000  0.75894700  0.07683100  1
  Mg  Mg2  1  0.00000000  0.50000000  0.83470700  1
  Mg  Mg3  1  0.50000000  0.23012700  0.90563700  1
  Mg  Mg4  1  0.50000000  0.76987300  0.90563700  1
  Mg  Mg5  1  0.50000000  0.50000000  0.66370200  1
  Mg  Mg6  1  0.00000000  0.74105300  0.57683100  1
  Mg  Mg7  1  0.00000000  0.25894700  0.57683100  1
  Mg  Mg8  1  0.00000000  0.00000000  0.33470700  1
  Mg  Mg9  1  0.50000000  0.73012700  0.40563700  1
  Mg  Mg10  1  0.50000000  0.26987300  0.40563700  1
  Mg  Mg11  1  0.50000000  0.00000000  0.16370200  1
  Co  Co0  1  0.00000000  0.50000000  0.37022500  1
  Co  Co1  1  0.00000000  0.00000000  0.87022500  1
loop_
_geom_bond_atom_site_label_1
_geom_bond_atom_site_label_2
_geom_bond_distance
_geom_bond_site_symmetry_2
Mg0 Mg11 3.054353 1_555
Mg0 Mg11 3.054353 1_455
Mg0 Mg2 3.081418 1_554
Mg0 Mg3 3.092748 1_454
Mg0 Mg3 3.092748 1_554
Mg0 Na0 3.120928 1_455
Mg0 Na0 3.120928 1_555
Mg0 Mg8 3.171486 1_555
Mg1 Mg11 3.054353 1_465
Mg1 Mg11 3.054353 1_565
Mg1 Mg2 3.081418 1_554
Mg1 Mg4 3.092748 1_554
Mg1 Mg4 3.092748 1_454
Mg1 Na0 3.120928 1_455
Mg1 Na0 3.120928 1_555
Mg1 Mg8 3.171486 1_565
Mg2 Mg5 3.090763 1_455
Mg2 Mg5 3.090763 1_555
Mg2 Mg3 3.101627 1_455
Mg2 Mg4 3.101627 1_455
Mg2 Mg3 3.101627 1_555
Mg2 Mg4 3.101627 1_555
Mg2 Mg6 3.171486 1_555
Mg2 Mg7 3.171486 1_555
Mg3 Mg4 2.899213 1_545
Mg3 Na1 2.961794 1_555
Mg3 Mg5 3.116687 1_555
Mg3 Na0 3.289213 1_556
Mg3 Mg4 3.399946 1_555
Mg4 Na1 2.961794 1_565
Mg4 Mg5 3.116687 1_555
Mg4 Na0 3.289213 1_556
Mg5 Mg6 3.054353 1_655
Mg5 Mg7 3.054353 1_555
Mg5 Mg7 3.054353 1_655
Mg5 Mg6 3.054353 1_555
Mg5 Mg9 3.140927 1_555
Mg5 Na1 3.149717 1_555
Mg5 Na1 3.149717 1_565
Mg6 Mg8 3.081418 1_565
Mg6 Mg9 3.092748 1_555
Mg6 Mg9 3.092748 1_455
Mg6 Na1 3.120928 1_465
Mg6 Na1 3.120928 1_565
Mg7 Mg8 3.081418 1_555
Mg7 Na1 3.120928 1_555
Mg7 Na1 3.120928 1_455
Mg8 Mg9 3.101627 1_545
Mg8 Mg9 3.101627 1_445
Mg9 Na0 2.961794 1_555
Mg9 Na1 3.289213 1_565
Mg10 Mg9 2.899213 1_555
Mg10 Na0 2.961794 1_555
Mg10 Mg7 3.092748 1_555
Mg10 Mg7 3.092748 1_655
Mg10 Mg8 3.101627 1_655
Mg10 Mg8 3.101627 1_555
Mg10 Mg11 3.116687 1_555
Mg10 Mg5 3.140927 1_555
Mg10 Na1 3.289213 1_555
Mg10 Mg9 3.399946 1_545
Mg11 Mg8 3.090763 1_555
Mg11 Mg8 3.090763 1_655
Mg11 Mg9 3.116687 1_545
Mg11 Mg4 3.140927 1_544
Mg11 Mg3 3.140927 1_554
Mg11 Na0 3.149717 1_545
Mg11 Na0 3.149717 1_555
Co0 Mg6 2.698527 1_555
Co0 Mg7 2.698527 1_555
Co0 Mg9 2.896757 1_455
Co0 Mg9 2.896757 1_555
Co0 Mg10 2.896757 1_455
Co0 Mg10 2.896757 1_555
Co0 Mg8 3.172841 1_555
Co0 Mg8 3.172841 1_565
Co0 Na0 3.314456 1_455
Co0 Na0 3.314456 1_555
Co1 Mg1 2.698527 1_546
Co1 Mg0 2.698527 1_556
Co1 Mg3 2.896757 1_455
Co1 Mg4 2.896757 1_445
Co1 Mg3 2.896757 1_555
Co1 Mg4 2.896757 1_545
Co1 Mg2 3.172841 1_545
Co1 Mg2 3.172841 1_555
Co1 Na1 3.314456 1_555
Co1 Na1 3.314456 1_455
