# generated using pymatgen
data_Li2TiV3O8
_symmetry_space_group_name_H-M   'P 1'
_cell_length_a   6.03942385
_cell_length_b   10.28703669
_cell_length_c   6.00371486
_cell_angle_alpha   106.50170986
_cell_angle_beta   120.37358963
_cell_angle_gamma   89.58071485
_symmetry_Int_Tables_number   1
_chemical_formula_structural   Li2TiV3O8
_chemical_formula_sum   'Li4 Ti2 V6 O16'
_cell_volume   304.33016589
_cell_formula_units_Z   2
loop_
 _symmetry_equiv_pos_site_id
 _symmetry_equiv_pos_as_xyz
  1  'x, y, z'
loop_
 _atom_site_type_symbol
 _atom_site_label
 _atom_site_symmetry_multiplicity
 _atom_site_fract_x
 _atom_site_fract_y
 _atom_site_fract_z
 _atom_site_occupancy
  Li  Li0  1  0.06632500  0.18753000  0.12553400  1
  Li  Li1  1  0.56277900  0.68945800  0.12056600  1
  Li  Li2  1  0.43713300  0.31057000  0.87943100  1
  Li  Li3  1  0.93369400  0.81247500  0.87444900  1
  Ti  Ti0  1  0.25201700  0.74998600  0.49239600  1
  Ti  Ti1  1  0.74781300  0.25002300  0.50764700  1
  V  V0  1  0.49997400  0.99997700  0.49984700  1
  V  V1  1  0.00015900  0.99999300  0.50011500  1
  V  V2  1  0.99993900  0.50002800  0.00004600  1
  V  V3  1  0.99997000  0.49999000  0.50002300  1
  V  V4  1  0.49996800  0.50000200  0.49997400  1
  V  V5  1  0.50011300  0.99994000  0.99999300  1
  O  O0  1  0.12966000  0.39505400  0.24446600  1
  O  O1  1  0.63668100  0.89494900  0.26620100  1
  O  O2  1  0.36355400  0.10506000  0.73390400  1
  O  O3  1  0.87026000  0.60492400  0.75555500  1
  O  O4  1  0.35193900  0.62217900  0.70766700  1
  O  O5  1  0.86428600  0.11915200  0.71574000  1
  O  O6  1  0.90665100  0.61928900  0.25787000  1
  O  O7  1  0.41525300  0.12618800  0.26671100  1
  O  O8  1  0.34623700  0.62494000  0.25357900  1
  O  O9  1  0.87500100  0.12012600  0.28362700  1
  O  O10  1  0.12517300  0.87992400  0.71646900  1
  O  O11  1  0.65363400  0.37504300  0.74635200  1
  O  O12  1  0.58481200  0.87376700  0.73311600  1
  O  O13  1  0.09326200  0.38071700  0.74219800  1
  O  O14  1  0.13573100  0.88091100  0.28428300  1
  O  O15  1  0.64798300  0.37780400  0.29224200  1
loop_
_geom_bond_atom_site_label_1
_geom_bond_atom_site_label_2
_geom_bond_distance
_geom_bond_site_symmetry_2
Li0 O5 2.007545 1_454
Li0 O7 2.008860 1_555
Li0 O0 2.020732 1_555
Li0 O9 2.052194 1_455
Li1 O1 2.000354 1_555
Li1 O4 2.022778 1_554
Li1 O6 2.024461 1_555
Li1 O8 2.039230 1_555
Li2 O2 2.000503 1_555
Li2 O15 2.022351 1_556
Li2 O13 2.024355 1_555
Li2 O11 2.039137 1_555
Li3 O14 2.007746 1_656
Li3 O12 2.008392 1_555
Li3 O3 2.021018 1_555
Li3 O10 2.052589 1_655
O0 V2 1.912714 1_455
O0 V4 2.036058 1_555
O0 V3 2.096386 1_455
O1 V1 2.003452 1_655
O1 V5 2.008893 1_554
O1 V0 2.028264 1_555
O2 V1 2.003166 1_545
O2 V5 2.009373 1_545
O2 V0 2.028990 1_545
O3 V2 1.912391 1_556
O3 V4 2.035923 1_555
O3 V3 2.096353 1_555
O4 Ti0 1.981940 1_555
O4 V3 2.030199 1_455
O4 V4 2.038215 1_555
O5 Ti1 1.980153 1_555
O5 V1 2.002471 1_645
O5 V0 2.068042 1_545
O6 V2 2.002888 1_555
O6 V3 2.027849 1_555
O6 Ti0 2.033819 1_655
O7 Ti1 1.949811 1_555
O7 V5 2.037708 1_544
O7 V0 2.050607 1_545
O8 Ti0 1.949579 1_555
O8 V2 2.012721 1_455
O8 V4 2.091849 1_555
O9 V1 1.921765 1_645
O9 Ti1 2.047752 1_555
O9 V5 2.121444 1_544
O10 V1 1.920646 1_555
O10 Ti0 2.046699 1_555
O10 V5 2.120955 1_555
O11 Ti1 1.948828 1_555
O11 V2 2.013121 1_556
O11 V4 2.091925 1_555
O12 Ti0 1.950453 1_555
O12 V5 2.037463 1_555
O12 V0 2.051116 1_555
O13 V2 2.003337 1_456
O13 V3 2.027746 1_455
O13 Ti1 2.034143 1_455
O14 Ti0 1.980671 1_555
O14 V1 2.001648 1_555
O14 V0 2.067413 1_555
O15 Ti1 1.982283 1_555
O15 V3 2.030191 1_555
O15 V4 2.038401 1_555
