# generated using pymatgen
data_EuMg5
_symmetry_space_group_name_H-M   'P 1'
_cell_length_a   10.51672114
_cell_length_b   10.51672114
_cell_length_c   10.84446900
_cell_angle_alpha   90.00000000
_cell_angle_beta   90.00000000
_cell_angle_gamma   120.00000717
_symmetry_Int_Tables_number   1
_chemical_formula_structural   EuMg5
_chemical_formula_sum   'Eu6 Mg30'
_cell_volume   1038.72266639
_cell_formula_units_Z   6
loop_
 _symmetry_equiv_pos_site_id
 _symmetry_equiv_pos_as_xyz
  1  'x, y, z'
loop_
 _atom_site_type_symbol
 _atom_site_label
 _atom_site_symmetry_multiplicity
 _atom_site_fract_x
 _atom_site_fract_y
 _atom_site_fract_z
 _atom_site_occupancy
  Eu  Eu0  1  0.19507300  0.80492700  0.25000000  1
  Eu  Eu1  1  0.19507300  0.39014600  0.25000000  1
  Eu  Eu2  1  0.60985400  0.80492700  0.25000000  1
  Eu  Eu3  1  0.80492700  0.19507300  0.75000000  1
  Eu  Eu4  1  0.80492700  0.60985400  0.75000000  1
  Eu  Eu5  1  0.39014600  0.19507300  0.75000000  1
  Mg  Mg0  1  0.00000000  0.00000000  0.50000000  1
  Mg  Mg1  1  0.00000000  0.00000000  0.00000000  1
  Mg  Mg2  1  0.33333300  0.66666700  0.50310000  1
  Mg  Mg3  1  0.66666700  0.33333300  0.49690000  1
  Mg  Mg4  1  0.66666700  0.33333300  0.00310000  1
  Mg  Mg5  1  0.33333300  0.66666700  0.99690000  1
  Mg  Mg6  1  0.50000000  0.50000000  0.50000000  1
  Mg  Mg7  1  0.50000000  0.00000000  0.50000000  1
  Mg  Mg8  1  0.00000000  0.50000000  0.50000000  1
  Mg  Mg9  1  0.50000000  0.50000000  0.00000000  1
  Mg  Mg10  1  0.50000000  0.00000000  0.00000000  1
  Mg  Mg11  1  0.00000000  0.50000000  0.00000000  1
  Mg  Mg12  1  0.56849400  0.43150600  0.25000000  1
  Mg  Mg13  1  0.56849400  0.13698900  0.25000000  1
  Mg  Mg14  1  0.86301100  0.43150600  0.25000000  1
  Mg  Mg15  1  0.43150600  0.56849400  0.75000000  1
  Mg  Mg16  1  0.43150600  0.86301100  0.75000000  1
  Mg  Mg17  1  0.13698900  0.56849400  0.75000000  1
  Mg  Mg18  1  0.83844000  0.16156000  0.40997800  1
  Mg  Mg19  1  0.83844000  0.67687900  0.40997800  1
  Mg  Mg20  1  0.32312100  0.16156000  0.40997800  1
  Mg  Mg21  1  0.16156000  0.83844000  0.59002200  1
  Mg  Mg22  1  0.16156000  0.32312100  0.59002200  1
  Mg  Mg23  1  0.67687900  0.83844000  0.59002200  1
  Mg  Mg24  1  0.16156000  0.83844000  0.90997800  1
  Mg  Mg25  1  0.16156000  0.32312100  0.90997800  1
  Mg  Mg26  1  0.67687900  0.83844000  0.90997800  1
  Mg  Mg27  1  0.83844000  0.16156000  0.09002200  1
  Mg  Mg28  1  0.83844000  0.67687900  0.09002200  1
  Mg  Mg29  1  0.32312100  0.16156000  0.09002200  1
loop_
_geom_bond_atom_site_label_1
_geom_bond_atom_site_label_2
_geom_bond_distance
_geom_bond_site_symmetry_2
Eu0 Mg29 3.720159 1_565
Eu0 Mg20 3.720159 1_565
Eu0 Mg19 3.720159 1_455
Eu0 Mg28 3.720159 1_455
Eu0 Mg5 3.725089 1_554
Eu0 Mg2 3.725089 1_555
Eu0 Mg14 3.728759 1_455
Eu0 Mg13 3.728759 1_565
Eu0 Mg24 3.737548 1_554
Eu0 Mg21 3.737548 1_555
Eu0 Mg11 3.906890 1_555
Eu0 Mg7 3.906890 1_565
Eu0 Mg8 3.906890 1_555
Eu0 Mg10 3.906890 1_565
Eu1 Mg18 3.720160 1_455
Eu1 Mg27 3.720160 1_455
Eu1 Mg29 3.720168 1_555
Eu1 Mg20 3.720168 1_555
Eu1 Mg5 3.725094 1_554
Eu1 Mg2 3.725094 1_555
Eu1 Mg12 3.728755 1_555
Eu1 Mg14 3.728766 1_455
Eu1 Mg25 3.737547 1_554
Eu1 Mg22 3.737547 1_555
Eu1 Mg6 3.906890 1_555
Eu1 Mg9 3.906890 1_555
Eu1 Mg11 3.906890 1_555
Eu1 Mg8 3.906890 1_555
Eu2 Mg27 3.720160 1_565
Eu2 Mg18 3.720160 1_565
Eu2 Mg28 3.720168 1_555
Eu2 Mg19 3.720168 1_555
Eu2 Mg5 3.725094 1_554
Eu2 Mg2 3.725094 1_555
Eu2 Mg12 3.728755 1_555
Eu2 Mg13 3.728766 1_565
Eu2 Mg23 3.737547 1_555
Eu2 Mg26 3.737547 1_554
Eu2 Mg6 3.906890 1_555
Eu2 Mg9 3.906890 1_555
Eu2 Mg7 3.906890 1_565
Eu2 Mg10 3.906890 1_565
Eu3 Mg22 3.720159 1_655
Eu3 Mg25 3.720159 1_655
Eu3 Mg26 3.720159 1_545
Eu3 Mg23 3.720159 1_545
Eu3 Mg3 3.725089 1_555
Eu3 Mg4 3.725089 1_556
Eu3 Mg16 3.728759 1_545
Eu3 Mg17 3.728759 1_655
Eu3 Mg18 3.737548 1_555
Eu3 Mg27 3.737548 1_556
Eu3 Mg10 3.906890 1_556
Eu3 Mg7 3.906890 1_555
Eu3 Mg11 3.906890 1_656
Eu3 Mg8 3.906890 1_655
Eu4 Mg24 3.720160 1_655
Eu4 Mg21 3.720160 1_655
Eu4 Mg26 3.720168 1_555
Eu4 Mg23 3.720168 1_555
Eu4 Mg3 3.725094 1_555
Eu4 Mg4 3.725094 1_556
Eu4 Mg15 3.728755 1_555
Eu4 Mg17 3.728766 1_655
Eu4 Mg28 3.737547 1_556
Eu4 Mg19 3.737547 1_555
Eu4 Mg6 3.906890 1_555
Eu4 Mg9 3.906890 1_556
Eu4 Mg8 3.906890 1_655
Eu4 Mg11 3.906890 1_656
Eu5 Mg21 3.720160 1_545
Eu5 Mg24 3.720160 1_545
Eu5 Mg25 3.720168 1_555
Eu5 Mg22 3.720168 1_555
Eu5 Mg3 3.725094 1_555
Eu5 Mg4 3.725094 1_556
Eu5 Mg15 3.728755 1_555
Eu5 Mg16 3.728766 1_545
Eu5 Mg20 3.737547 1_555
Eu5 Mg29 3.737547 1_556
Eu5 Mg6 3.906890 1_555
Eu5 Mg9 3.906890 1_556
Eu5 Mg10 3.906890 1_556
Eu5 Mg7 3.906890 1_555
Mg0 Mg21 3.100594 1_545
Mg0 Mg18 3.100594 1_455
Mg0 Mg23 3.100602 1_445
Mg0 Mg19 3.100602 1_445
Mg0 Mg20 3.100602 1_555
Mg0 Mg22 3.100602 1_555
Mg1 Mg27 3.100594 1_455
Mg1 Mg24 3.100594 1_544
Mg1 Mg26 3.100602 1_444
Mg1 Mg29 3.100602 1_555
Mg1 Mg25 3.100602 1_554
Mg1 Mg28 3.100602 1_445
Mg2 Mg8 3.036099 1_555
Mg2 Mg7 3.036099 1_565
Mg2 Mg6 3.036108 1_555
Mg2 Mg23 3.267834 1_555
Mg2 Mg22 3.267834 1_555
Mg2 Mg21 3.267835 1_555
Mg3 Mg7 3.036099 1_555
Mg3 Mg8 3.036099 1_655
Mg3 Mg6 3.036108 1_555
Mg4 Mg9 3.036108 1_555
Mg5 Mg9 3.036108 1_556
Mg10 Mg13 2.984429 1_555
Mg10 Mg16 2.984429 1_544
Mg10 Mg4 3.036099 1_555
Mg10 Mg5 3.036099 1_544
Mg10 Mg29 3.234321 1_555
Mg10 Mg26 3.234321 1_544
Mg10 Mg27 3.234329 1_555
Mg10 Mg24 3.234329 1_544
Mg11 Mg17 2.984429 1_554
Mg11 Mg14 2.984429 1_455
Mg11 Mg4 3.036099 1_455
Mg11 Mg5 3.036099 1_554
Mg11 Mg25 3.234321 1_554
Mg11 Mg28 3.234321 1_455
Mg11 Mg27 3.234329 1_455
Mg11 Mg24 3.234329 1_554
Mg12 Mg6 2.984425 1_555
Mg12 Mg9 2.984425 1_555
Mg12 Mg14 3.097353 1_555
Mg12 Mg13 3.097353 1_555
Mg12 Mg3 3.219769 1_555
Mg12 Mg4 3.219769 1_555
Mg12 Mg28 3.225296 1_555
Mg12 Mg19 3.225296 1_555
Mg12 Mg29 3.225296 1_555
Mg12 Mg20 3.225296 1_555
Mg13 Mg7 2.984429 1_555
Mg13 Mg14 3.097353 1_555
Mg13 Mg4 3.219759 1_555
Mg13 Mg3 3.219759 1_555
Mg13 Mg20 3.225287 1_555
Mg13 Mg29 3.225287 1_555
Mg13 Mg27 3.225304 1_555
Mg13 Mg18 3.225304 1_555
Mg14 Mg8 2.984429 1_655
Mg14 Mg4 3.219759 1_555
Mg14 Mg3 3.219759 1_555
Mg14 Mg28 3.225287 1_555
Mg14 Mg19 3.225287 1_555
Mg14 Mg27 3.225304 1_555
Mg14 Mg18 3.225304 1_555
Mg15 Mg6 2.984425 1_555
Mg15 Mg9 2.984425 1_556
Mg15 Mg16 3.097353 1_555
Mg15 Mg17 3.097353 1_555
Mg15 Mg2 3.219769 1_555
Mg15 Mg5 3.219769 1_555
Mg15 Mg26 3.225296 1_555
Mg15 Mg23 3.225296 1_555
Mg15 Mg22 3.225296 1_555
Mg15 Mg25 3.225296 1_555
Mg16 Mg7 2.984429 1_565
Mg16 Mg17 3.097353 1_555
Mg16 Mg2 3.219759 1_555
Mg16 Mg5 3.219759 1_555
Mg16 Mg26 3.225287 1_555
Mg16 Mg23 3.225287 1_555
Mg16 Mg24 3.225304 1_555
Mg16 Mg21 3.225304 1_555
Mg17 Mg8 2.984429 1_555
Mg17 Mg2 3.219759 1_555
Mg17 Mg5 3.219759 1_555
Mg17 Mg25 3.225287 1_555
Mg17 Mg22 3.225287 1_555
Mg17 Mg24 3.225304 1_555
Mg17 Mg21 3.225304 1_555
Mg18 Mg7 3.234329 1_555
Mg18 Mg8 3.234329 1_655
Mg18 Mg3 3.267835 1_555
Mg18 Mg27 3.469753 1_555
Mg18 Mg22 3.531687 1_655
Mg18 Mg23 3.531687 1_545
Mg19 Mg8 3.234321 1_655
Mg19 Mg6 3.234329 1_555
Mg19 Mg3 3.267834 1_555
Mg19 Mg28 3.469753 1_555
Mg19 Mg21 3.531687 1_655
Mg19 Mg23 3.531703 1_555
Mg20 Mg7 3.234321 1_555
Mg20 Mg6 3.234329 1_555
Mg20 Mg3 3.267834 1_555
Mg20 Mg29 3.469753 1_555
Mg20 Mg21 3.531687 1_545
Mg20 Mg22 3.531703 1_555
Mg21 Mg7 3.234329 1_565
Mg21 Mg8 3.234329 1_555
Mg21 Mg24 3.469753 1_555
Mg22 Mg8 3.234321 1_555
Mg22 Mg6 3.234329 1_555
Mg22 Mg25 3.469753 1_555
Mg23 Mg7 3.234321 1_565
Mg23 Mg6 3.234329 1_555
Mg23 Mg26 3.469753 1_555
Mg24 Mg5 3.267835 1_555
Mg24 Mg29 3.531687 1_566
Mg24 Mg28 3.531687 1_456
Mg25 Mg9 3.234329 1_556
Mg25 Mg5 3.267834 1_555
Mg25 Mg27 3.531687 1_456
Mg25 Mg29 3.531703 1_556
Mg26 Mg9 3.234329 1_556
Mg26 Mg5 3.267834 1_555
Mg26 Mg27 3.531687 1_566
Mg26 Mg28 3.531703 1_556
Mg27 Mg4 3.267835 1_555
Mg28 Mg9 3.234329 1_555
Mg28 Mg4 3.267834 1_555
Mg29 Mg9 3.234329 1_555
Mg29 Mg4 3.267834 1_555
