# generated using pymatgen
data_Mg5Si6
_symmetry_space_group_name_H-M   'P 1'
_cell_length_a   4.73697300
_cell_length_b   5.66295092
_cell_length_c   16.65065927
_cell_angle_alpha   86.79491062
_cell_angle_beta   82.39176225
_cell_angle_gamma   66.87775517
_symmetry_Int_Tables_number   1
_chemical_formula_structural   Mg5Si6
_chemical_formula_sum   'Mg10 Si12'
_cell_volume   407.15755018
_cell_formula_units_Z   2
loop_
 _symmetry_equiv_pos_site_id
 _symmetry_equiv_pos_as_xyz
  1  'x, y, z'
loop_
 _atom_site_type_symbol
 _atom_site_label
 _atom_site_symmetry_multiplicity
 _atom_site_fract_x
 _atom_site_fract_y
 _atom_site_fract_z
 _atom_site_occupancy
  Mg  Mg0  1  0.07928800  0.61564000  0.05075000  1
  Mg  Mg1  1  0.91471300  0.42741100  0.35650300  1
  Mg  Mg2  1  0.42175000  0.22580500  0.68439500  1
  Mg  Mg3  1  0.35934700  0.88389300  0.34327600  1
  Mg  Mg4  1  0.90701200  0.86065900  0.22723400  1
  Mg  Mg5  1  0.23628200  0.43302600  0.86260100  1
  Mg  Mg6  1  0.20481300  0.68307600  0.55260200  1
  Mg  Mg7  1  0.91987100  0.26562100  0.53800800  1
  Mg  Mg8  1  0.75966300  0.21375200  0.08620200  1
  Mg  Mg9  1  0.55511000  0.83734800  0.81971800  1
  Si  Si0  1  0.38474600  0.01019800  0.97967300  1
  Si  Si1  1  0.65767100  0.54274500  0.95957800  1
  Si  Si2  1  0.81785500  0.92829100  0.41282500  1
  Si  Si3  1  0.56454100  0.94990800  0.55049600  1
  Si  Si4  1  0.87439000  0.09073100  0.92063900  1
  Si  Si5  1  0.41894400  0.89128800  0.13106900  1
  Si  Si6  1  0.55949200  0.49367600  0.22621200  1
  Si  Si7  1  0.72560600  0.60189200  0.66919100  1
  Si  Si8  1  0.14575600  0.73199400  0.71991800  1
  Si  Si9  1  0.41049200  0.34643600  0.43125500  1
  Si  Si10  1  0.17069100  0.30668600  0.20158900  1
  Si  Si11  1  0.90849500  0.16371500  0.77276300  1
loop_
_geom_bond_atom_site_label_1
_geom_bond_atom_site_label_2
_geom_bond_distance
_geom_bond_site_symmetry_2
Mg0 Si1 2.825620 1_454
Mg0 Si1 2.839338 1_554
Mg0 Si10 2.959417 1_555
Mg0 Si5 3.049688 1_455
Mg0 Si5 3.096713 1_555
Mg0 Mg8 3.173702 1_465
Mg0 Mg8 3.184307 1_455
Mg0 Mg4 3.187169 1_455
Mg0 Mg8 3.241606 1_555
Mg0 Mg5 3.252428 1_554
Mg0 Si4 3.275361 1_464
Mg1 Si9 2.671947 1_655
Mg1 Si10 2.703519 1_655
Mg1 Si9 2.733769 1_555
Mg1 Si6 2.838716 1_555
Mg1 Si2 2.880430 1_555
Mg1 Si2 3.112429 1_545
Mg1 Mg4 3.164441 1_555
Mg2 Si3 2.651315 1_545
Mg2 Si8 2.705092 1_555
Mg2 Si11 2.794391 1_555
Mg2 Si11 2.804636 1_455
Mg2 Si7 2.987064 1_555
Mg2 Mg9 3.007734 1_545
Mg2 Mg5 3.137328 1_555
Mg2 Si7 3.181056 1_455
Mg2 Si7 3.260166 1_545
Mg3 Si2 2.592904 1_455
Mg3 Si2 2.692405 1_555
Mg3 Si6 2.815707 1_555
Mg3 Mg4 2.985615 1_555
Mg3 Mg4 3.112539 1_455
Mg3 Si9 3.176026 1_565
Mg3 Si10 3.216058 1_565
Mg3 Si9 3.237962 1_555
Mg4 Si5 2.783114 1_655
Mg4 Si10 2.918060 1_655
Mg4 Si5 2.928037 1_555
Mg4 Mg8 2.968605 1_565
Mg4 Si6 2.969413 1_655
Mg4 Si2 3.087747 1_555
Mg4 Si6 3.118889 1_555
Mg4 Si10 3.215308 1_665
Mg4 Si6 3.305527 1_565
Mg5 Si8 2.818570 1_555
Mg5 Si1 2.847542 1_455
Mg5 Si0 2.923423 1_555
Mg5 Si1 2.986238 1_555
Mg5 Si4 3.097042 1_455
Mg5 Si11 3.115191 1_455
Mg5 Si4 3.128939 1_555
Mg5 Si11 3.143682 1_555
Mg5 Mg9 3.186288 1_545
Mg5 Mg9 3.206373 1_555
Mg5 Mg9 3.284619 1_455
Mg6 Si9 2.667706 1_555
Mg6 Si3 2.681183 1_555
Mg6 Si8 2.781262 1_555
Mg6 Si3 2.811787 1_455
Mg6 Si7 2.947161 1_455
Mg6 Si2 3.078000 1_455
Mg6 Si7 3.216136 1_555
Mg7 Si7 2.792989 1_555
Mg7 Si3 2.881331 1_545
Mg7 Si3 2.898938 1_645
Mg7 Si9 2.901848 1_655
Mg7 Si9 3.060817 1_555
Mg7 Si2 3.108751 1_545
Mg8 Si1 2.696896 1_554
Mg8 Si6 2.737534 1_555
Mg8 Si4 2.810863 1_554
Mg8 Si5 2.888009 1_545
Mg8 Si10 3.048367 1_555
Mg8 Si0 3.065903 1_654
Mg8 Si5 3.103563 1_645
Mg8 Si10 3.109269 1_655
Mg8 Si0 3.209323 1_554
Mg9 Si1 2.769664 1_555
Mg9 Si7 2.775606 1_555
Mg9 Si0 2.793712 1_565
Mg9 Si8 2.917899 1_655
Mg9 Si8 2.958064 1_555
Mg9 Si11 2.958214 1_565
Mg9 Si11 3.071725 1_465
Mg9 Si4 3.133227 1_565
Mg9 Si4 3.237484 1_465
Si0 Si1 2.467282 1_545
Si0 Si5 2.582050 1_546
Si0 Si4 2.594394 1_555
Si0 Si4 2.594591 1_455
Si1 Si4 2.443764 1_555
Si2 Si9 2.400137 1_565
Si2 Si3 2.428413 1_555
Si3 Si7 2.674867 1_555
Si3 Si9 2.848683 1_565
Si5 Si6 2.593440 1_555
Si7 Si8 2.581986 1_555
Si7 Si8 2.623669 1_655
Si10 Si5 2.462911 1_545
Si10 Si6 2.541966 1_555
Si10 Si6 2.645401 1_455
Si11 Si8 2.415606 1_645
Si11 Si4 2.468365 1_555
Si11 Si7 2.847905 1_555
