# generated using pymatgen
data_ZnSiNi2
_symmetry_space_group_name_H-M   'P 1'
_cell_length_a   2.73694000
_cell_length_b   2.73694000
_cell_length_c   6.21638800
_cell_angle_alpha   90.00000000
_cell_angle_beta   90.00000000
_cell_angle_gamma   90.00000000
_symmetry_Int_Tables_number   1
_chemical_formula_structural   ZnSiNi2
_chemical_formula_sum   'Zn1 Si1 Ni2'
_cell_volume   46.56597139
_cell_formula_units_Z   1
loop_
 _symmetry_equiv_pos_site_id
 _symmetry_equiv_pos_as_xyz
  1  'x, y, z'
loop_
 _atom_site_type_symbol
 _atom_site_label
 _atom_site_symmetry_multiplicity
 _atom_site_fract_x
 _atom_site_fract_y
 _atom_site_fract_z
 _atom_site_occupancy
  Zn  Zn0  1  0.50000000  0.50000000  0.50000000  1
  Si  Si0  1  0.50000000  0.50000000  0.00000000  1
  Ni  Ni0  1  0.00000000  0.00000000  0.78569700  1
  Ni  Ni1  1  0.00000000  0.00000000  0.21430300  1
loop_
_geom_bond_atom_site_label_1
_geom_bond_atom_site_label_2
_geom_bond_distance
_geom_bond_site_symmetry_2
Ni0 Si0 2.349500 1_556
Ni0 Si0 2.349500 1_446
Ni0 Si0 2.349500 1_456
Ni0 Si0 2.349500 1_546
Ni0 Zn0 2.626711 1_555
Ni0 Zn0 2.626711 1_455
Ni0 Zn0 2.626711 1_445
Ni0 Zn0 2.626711 1_545
Ni1 Si0 2.349500 1_545
Ni1 Si0 2.349500 1_555
Ni1 Si0 2.349500 1_445
Ni1 Si0 2.349500 1_455
Ni1 Zn0 2.626711 1_555
Ni1 Zn0 2.626711 1_455
Ni1 Zn0 2.626711 1_445
Ni1 Zn0 2.626711 1_545
