# generated using pymatgen
data_Li7Mn2(CoO4)3
_symmetry_space_group_name_H-M   'P 1'
_cell_length_a   3.02427600
_cell_length_b   6.00546372
_cell_length_c   12.41069062
_cell_angle_alpha   76.68138182
_cell_angle_beta   88.50739380
_cell_angle_gamma   86.38736408
_symmetry_Int_Tables_number   1
_chemical_formula_structural   Li7Mn2(CoO4)3
_chemical_formula_sum   'Li7 Mn2 Co3 O12'
_cell_volume   218.89141127
_cell_formula_units_Z   1
loop_
 _symmetry_equiv_pos_site_id
 _symmetry_equiv_pos_as_xyz
  1  'x, y, z'
loop_
 _atom_site_type_symbol
 _atom_site_label
 _atom_site_symmetry_multiplicity
 _atom_site_fract_x
 _atom_site_fract_y
 _atom_site_fract_z
 _atom_site_occupancy
  Li  Li0  1  0.99917700  0.49834600  0.00271600  1
  Li  Li1  1  0.49799500  0.33616800  0.82986600  1
  Li  Li2  1  0.50046700  0.66296300  0.16966700  1
  Li  Li3  1  0.00344400  0.82263400  0.33673300  1
  Li  Li4  1  0.50000100  0.00010600  0.49995200  1
  Li  Li5  1  0.99801600  0.17836600  0.66127200  1
  Li  Li6  1  0.49915100  0.49980300  0.49937600  1
  Mn  Mn0  1  0.01048000  0.00186500  0.00122600  1
  Mn  Mn1  1  0.49676000  0.83287100  0.82926200  1
  Co  Co0  1  0.98892000  0.65869700  0.65765900  1
  Co  Co1  1  0.99948100  0.34161200  0.34041900  1
  Co  Co2  1  0.50634600  0.16482700  0.17258000  1
  O  O0  1  0.54216900  0.24276500  0.00979100  1
  O  O1  1  0.03012600  0.07273000  0.83926800  1
  O  O2  1  0.99156100  0.39748600  0.18184100  1
  O  O3  1  0.52391600  0.56265900  0.33412000  1
  O  O4  1  0.99954800  0.74488400  0.51473500  1
  O  O5  1  0.52520900  0.90372500  0.66963900  1
  O  O6  1  0.46791800  0.75770900  0.99283000  1
  O  O7  1  0.96951100  0.59822800  0.81782100  1
  O  O8  1  0.01894500  0.93252000  0.16222900  1
  O  O9  1  0.46503400  0.09627200  0.32887600  1
  O  O10  1  0.99839500  0.25514500  0.48355300  1
  O  O11  1  0.46743200  0.43762100  0.66456800  1
loop_
_geom_bond_atom_site_label_1
_geom_bond_atom_site_label_2
_geom_bond_distance
_geom_bond_site_symmetry_2
Li0 O0 2.114888 1_555
Li0 O6 2.151605 1_554
Li0 O6 2.152186 1_654
Li0 O0 2.165187 1_655
Li0 O2 2.165210 1_555
Li0 O7 2.236775 1_554
Li1 O11 2.003788 1_555
Li1 O7 2.154237 1_455
Li1 O7 2.167014 1_555
Li1 O1 2.169592 1_555
Li1 O1 2.170325 1_655
Li1 O0 2.178935 1_556
Li2 O3 1.992281 1_555
Li2 O2 2.091123 1_555
Li2 O8 2.095431 1_555
Li2 O6 2.139830 1_554
Li2 O2 2.262639 1_455
Li2 O8 2.308953 1_655
Li3 O8 2.113799 1_555
Li3 O4 2.149999 1_455
Li3 O3 2.151098 1_555
Li3 O3 2.202926 1_455
Li3 O9 2.206115 1_565
Li3 O9 2.226795 1_465
Li4 O5 2.053530 1_545
Li4 O4 2.063588 1_545
Li4 O10 2.065971 1_455
Li4 O9 2.071625 1_555
Li4 O10 2.188728 1_555
Li4 O4 2.195890 1_445
Li5 O10 2.146793 1_555
Li5 O1 2.156279 1_655
Li5 O11 2.170641 1_555
Li5 O11 2.179921 1_655
Li5 O5 2.207144 1_645
Li5 O5 2.233003 1_545
Li6 O11 1.998322 1_555
Li6 O3 1.998331 1_555
Li6 O10 2.077242 1_555
Li6 O4 2.078350 1_455
Li6 O4 2.217607 1_555
Li6 O10 2.218036 1_455
Mn0 O8 1.945419 1_545
Mn0 O1 1.956435 1_554
Mn0 O6 1.970255 1_544
Mn0 O0 1.978634 1_455
Mn0 O0 2.250064 1_555
Mn0 O6 2.288169 1_444
Mn1 O5 1.928810 1_555
Mn1 O7 1.969182 1_555
Mn1 O1 1.974598 1_565
Mn1 O6 1.976307 1_555
Mn1 O7 2.221612 1_455
Mn1 O1 2.253429 1_665
Co0 O4 1.729561 1_555
Co0 O11 1.891079 1_655
Co0 O7 1.936593 1_555
Co0 O5 1.995999 1_555
Co0 O11 2.112284 1_555
Co0 O5 2.287374 1_655
Co1 O10 1.732091 1_555
Co1 O3 1.885288 1_555
Co1 O2 1.919276 1_555
Co1 O9 1.999760 1_655
Co1 O3 2.120120 1_655
Co1 O9 2.283259 1_555
Co2 O9 1.890403 1_555
Co2 O0 1.967697 1_555
Co2 O8 2.041012 1_645
Co2 O2 2.044449 1_455
Co2 O2 2.111857 1_555
Co2 O8 2.118304 1_545
