# generated using pymatgen
data_Nb3Cr8Si
_symmetry_space_group_name_H-M   'P 1'
_cell_length_a   4.84924580
_cell_length_b   4.84924580
_cell_length_c   7.95927900
_cell_angle_alpha   90.00000000
_cell_angle_beta   90.00000000
_cell_angle_gamma   119.99999734
_symmetry_Int_Tables_number   1
_chemical_formula_structural   Nb3Cr8Si
_chemical_formula_sum   'Nb3 Cr8 Si1'
_cell_volume   162.08871129
_cell_formula_units_Z   1
loop_
 _symmetry_equiv_pos_site_id
 _symmetry_equiv_pos_as_xyz
  1  'x, y, z'
loop_
 _atom_site_type_symbol
 _atom_site_label
 _atom_site_symmetry_multiplicity
 _atom_site_fract_x
 _atom_site_fract_y
 _atom_site_fract_z
 _atom_site_occupancy
  Nb  Nb0  1  0.66666700  0.33333300  0.44466100  1
  Nb  Nb1  1  0.66666700  0.33333300  0.05961800  1
  Nb  Nb2  1  0.33333300  0.66666700  0.93263200  1
  Cr  Cr0  1  0.00000000  0.00000000  0.49949600  1
  Cr  Cr1  1  0.00000000  0.00000000  0.00057900  1
  Cr  Cr2  1  0.83109300  0.16890700  0.74644500  1
  Cr  Cr3  1  0.33781300  0.16890700  0.74644500  1
  Cr  Cr4  1  0.83109300  0.66218700  0.74644500  1
  Cr  Cr5  1  0.17120500  0.82879500  0.25342200  1
  Cr  Cr6  1  0.65759100  0.82879500  0.25342200  1
  Cr  Cr7  1  0.17120500  0.34240900  0.25342200  1
  Si  Si0  1  0.33333300  0.66666700  0.56338000  1
loop_
_geom_bond_atom_site_label_1
_geom_bond_atom_site_label_2
_geom_bond_distance
_geom_bond_site_symmetry_2
Nb0 Si0 2.954869 1_545
Nb0 Si0 2.954869 1_655
Nb0 Si0 2.954877 1_555
Nb0 Nb1 3.064665 1_555
Nb1 Nb2 2.976563 1_544
Nb1 Nb2 2.976563 1_654
Nb1 Nb2 2.976571 1_554
Nb2 Si0 2.938980 1_555
Cr0 Cr3 2.424037 1_555
Cr0 Cr4 2.424037 1_445
Cr0 Cr2 2.424039 1_455
Cr0 Cr7 2.429766 1_555
Cr0 Cr6 2.429766 1_445
Cr0 Cr5 2.429768 1_545
Cr0 Nb0 2.833525 1_455
Cr0 Nb0 2.833529 1_555
Cr0 Nb0 2.833529 1_445
Cr0 Si0 2.845509 1_545
Cr0 Si0 2.845513 1_555
Cr0 Si0 2.845513 1_445
Cr1 Cr3 2.470634 1_554
Cr1 Cr4 2.470634 1_444
Cr1 Cr2 2.470636 1_454
Cr1 Cr7 2.473400 1_555
Cr1 Cr6 2.473400 1_445
Cr1 Cr5 2.473402 1_545
Cr1 Nb1 2.838872 1_455
Cr1 Nb1 2.838876 1_445
Cr1 Nb1 2.838876 1_555
Cr1 Nb2 2.851465 1_544
Cr1 Nb2 2.851469 1_554
Cr1 Nb2 2.851469 1_444
Cr2 Cr4 2.392036 1_555
Cr2 Cr3 2.392036 1_555
Cr2 Cr3 2.457210 1_655
Cr2 Cr4 2.457210 1_545
Cr2 Nb0 2.770701 1_555
Cr2 Si0 2.828814 1_545
Cr2 Si0 2.828814 1_655
Cr2 Nb2 2.841693 1_545
Cr2 Nb2 2.841693 1_655
Cr2 Nb1 2.849645 1_556
Cr3 Cr4 2.392036 1_555
Cr3 Cr4 2.457210 1_445
Cr3 Nb0 2.770706 1_555
Cr3 Si0 2.828814 1_555
Cr3 Si0 2.828814 1_545
Cr3 Nb2 2.841693 1_555
Cr3 Nb2 2.841693 1_545
Cr3 Nb1 2.849649 1_556
Cr4 Nb0 2.770706 1_555
Cr4 Si0 2.828814 1_555
Cr4 Si0 2.828814 1_655
Cr4 Nb2 2.841693 1_555
Cr4 Nb2 2.841693 1_655
Cr4 Nb1 2.849649 1_556
Cr5 Cr6 2.358605 1_555
Cr5 Cr7 2.358605 1_555
Cr5 Cr7 2.490641 1_565
Cr5 Cr6 2.490641 1_455
Cr5 Si0 2.817911 1_555
Cr5 Nb0 2.863060 1_455
Cr5 Nb0 2.863060 1_565
Cr5 Nb1 2.873966 1_455
Cr5 Nb1 2.873966 1_565
Cr5 Nb2 2.893691 1_554
Cr6 Cr7 2.358605 1_555
Cr6 Cr7 2.490641 1_665
Cr6 Si0 2.817915 1_555
Cr6 Nb0 2.863060 1_555
Cr6 Nb0 2.863060 1_565
Cr6 Nb1 2.873966 1_555
Cr6 Nb1 2.873966 1_565
Cr6 Nb2 2.893695 1_554
Cr7 Si0 2.817915 1_555
Cr7 Nb0 2.863060 1_555
Cr7 Nb0 2.863060 1_455
Cr7 Nb1 2.873966 1_555
Cr7 Nb1 2.873966 1_455
Cr7 Nb2 2.893695 1_554
