# generated using pymatgen
data_TbMnO3
_symmetry_space_group_name_H-M   'P 1'
_cell_length_a   3.40710200
_cell_length_b   6.03771500
_cell_length_c   13.16520800
_cell_angle_alpha   90.00000000
_cell_angle_beta   90.00000000
_cell_angle_gamma   90.00000000
_symmetry_Int_Tables_number   1
_chemical_formula_structural   TbMnO3
_chemical_formula_sum   'Tb4 Mn4 O12'
_cell_volume   270.82295316
_cell_formula_units_Z   4
loop_
 _symmetry_equiv_pos_site_id
 _symmetry_equiv_pos_as_xyz
  1  'x, y, z'
loop_
 _atom_site_type_symbol
 _atom_site_label
 _atom_site_symmetry_multiplicity
 _atom_site_fract_x
 _atom_site_fract_y
 _atom_site_fract_z
 _atom_site_occupancy
  Tb  Tb0  1  0.74639500  0.74422700  0.25000000  1
  Tb  Tb1  1  0.75360500  0.24422700  0.25000000  1
  Tb  Tb2  1  0.25360500  0.25577300  0.75000000  1
  Tb  Tb3  1  0.24639500  0.75577300  0.75000000  1
  Mn  Mn0  1  0.50000000  0.50000000  0.00000000  1
  Mn  Mn1  1  0.00000000  0.00000000  0.50000000  1
  Mn  Mn2  1  0.50000000  0.50000000  0.50000000  1
  Mn  Mn3  1  0.00000000  0.00000000  0.00000000  1
  O  O0  1  0.24518700  0.99284900  0.25000000  1
  O  O1  1  0.25481300  0.49284900  0.25000000  1
  O  O2  1  0.75481300  0.00715100  0.75000000  1
  O  O3  1  0.74518700  0.50715100  0.75000000  1
  O  O4  1  0.77093400  0.74011400  0.07678000  1
  O  O5  1  0.72906600  0.24011400  0.42322000  1
  O  O6  1  0.22906600  0.25988600  0.57678000  1
  O  O7  1  0.27093400  0.75988600  0.92322000  1
  O  O8  1  0.22906600  0.25988600  0.92322000  1
  O  O9  1  0.27093400  0.75988600  0.57678000  1
  O  O10  1  0.77093400  0.74011400  0.42322000  1
  O  O11  1  0.72906600  0.24011400  0.07678000  1
loop_
_geom_bond_atom_site_label_1
_geom_bond_atom_site_label_2
_geom_bond_distance
_geom_bond_site_symmetry_2
Mn0 O8 1.993897 1_554
Mn0 O4 1.993897 1_555
Mn0 O7 2.023117 1_554
Mn0 O11 2.023117 1_555
Mn1 O9 1.993897 1_545
Mn1 O5 1.993897 1_455
Mn1 O10 2.023117 1_445
Mn1 O6 2.023117 1_555
Mn2 O6 1.993897 1_555
Mn2 O10 1.993897 1_555
Mn2 O9 2.023117 1_555
Mn2 O5 2.023117 1_555
Mn3 O11 1.993897 1_455
Mn3 O7 1.993897 1_544
Mn3 O4 2.023117 1_445
Mn3 O8 2.023117 1_554
O0 Tb1 2.260255 1_465
O0 Tb0 2.267467 1_455
O0 Tb0 2.273643 1_555
O0 Tb1 2.303082 1_565
O1 Tb0 2.260255 1_555
O1 Tb1 2.267467 1_555
O1 Tb1 2.273643 1_455
O1 Tb0 2.303082 1_455
O2 Tb3 2.260255 1_645
O2 Tb2 2.267467 1_655
O2 Tb2 2.273643 1_555
O2 Tb3 2.303082 1_545
O3 Tb2 2.260255 1_555
O3 Tb3 2.267467 1_555
O3 Tb3 2.273643 1_655
O3 Tb2 2.303082 1_655
O4 Tb0 2.282145 1_555
O5 Tb1 2.282145 1_555
O6 Tb2 2.282145 1_555
O7 Tb3 2.282145 1_555
O8 Tb2 2.282145 1_555
O9 Tb3 2.282145 1_555
O10 Tb0 2.282145 1_555
O11 Tb1 2.282145 1_555
