# generated using pymatgen
data_Pr5CoSb2
_symmetry_space_group_name_H-M   'P 1'
_cell_length_a   8.23733417
_cell_length_b   9.23350372
_cell_length_c   12.64050202
_cell_angle_alpha   90.00000000
_cell_angle_beta   90.00053517
_cell_angle_gamma   90.00000000
_symmetry_Int_Tables_number   1
_chemical_formula_structural   Pr5CoSb2
_chemical_formula_sum   'Pr20 Co4 Sb8'
_cell_volume   961.42970342
_cell_formula_units_Z   4
loop_
 _symmetry_equiv_pos_site_id
 _symmetry_equiv_pos_as_xyz
  1  'x, y, z'
loop_
 _atom_site_type_symbol
 _atom_site_label
 _atom_site_symmetry_multiplicity
 _atom_site_fract_x
 _atom_site_fract_y
 _atom_site_fract_z
 _atom_site_occupancy
  Pr  Pr0  1  0.84980089  0.75000000  0.79600136  1
  Pr  Pr1  1  0.15022922  0.25000000  0.20409478  1
  Pr  Pr2  1  0.34981939  0.25000000  0.70403409  1
  Pr  Pr3  1  0.65022670  0.75000000  0.29591732  1
  Pr  Pr4  1  0.37732550  0.75000000  0.69735876  1
  Pr  Pr5  1  0.62266587  0.25000000  0.30259344  1
  Pr  Pr6  1  0.87739280  0.25000000  0.80264321  1
  Pr  Pr7  1  0.12269451  0.75000000  0.19739303  1
  Pr  Pr8  1  0.95760525  0.75000000  0.50259175  1
  Pr  Pr9  1  0.04251648  0.25000000  0.49741900  1
  Pr  Pr10  1  0.45741103  0.25000000  0.99739878  1
  Pr  Pr11  1  0.54244031  0.75000000  0.00258393  1
  Pr  Pr12  1  0.68336688  0.03430753  0.56290778  1
  Pr  Pr13  1  0.31656493  0.96546682  0.43696700  1
  Pr  Pr14  1  0.18335428  0.96547968  0.93707108  1
  Pr  Pr15  1  0.31656493  0.53453318  0.43696700  1
  Pr  Pr16  1  0.81663948  0.03434607  0.06301543  1
  Pr  Pr17  1  0.68336688  0.46569247  0.56290778  1
  Pr  Pr18  1  0.81663948  0.46565393  0.06301543  1
  Pr  Pr19  1  0.18335428  0.53452032  0.93707108  1
  Co  Co0  1  0.56268020  0.75000000  0.50984465  1
  Co  Co1  1  0.43710769  0.25000000  0.49005929  1
  Co  Co2  1  0.06282027  0.25000000  0.99014737  1
  Co  Co3  1  0.93725262  0.75000000  0.00992933  1
  Sb  Sb0  1  0.57768029  0.49341300  0.82729208  1
  Sb  Sb1  1  0.42231366  0.50657107  0.17269862  1
  Sb  Sb2  1  0.07771330  0.50657201  0.67270926  1
  Sb  Sb3  1  0.42231366  0.99342893  0.17269862  1
  Sb  Sb4  1  0.92237281  0.49343387  0.32733271  1
  Sb  Sb5  1  0.57768029  0.00658700  0.82729208  1
  Sb  Sb6  1  0.92237281  0.00656613  0.32733271  1
  Sb  Sb7  1  0.07771330  0.99342799  0.67270926  1
loop_
_geom_bond_atom_site_label_1
_geom_bond_atom_site_label_2
_geom_bond_distance
_geom_bond_site_symmetry_2
Pr0 Sb5 3.285437 1_565
Pr0 Sb0 3.285437 1_555
Pr0 Sb7 3.317471 1_655
Pr0 Sb2 3.317471 1_655
Pr1 Sb1 3.285288 1_555
Pr1 Sb3 3.285288 1_545
Pr1 Sb6 3.316926 1_455
Pr1 Sb4 3.316926 1_455
Pr2 Sb2 3.285302 1_555
Pr2 Sb7 3.285302 1_545
Pr2 Sb5 3.316919 1_555
Pr2 Sb0 3.316919 1_555
Pr3 Sb6 3.285626 1_565
Pr3 Sb4 3.285626 1_555
Pr3 Sb1 3.317028 1_555
Pr3 Sb3 3.317028 1_555
Pr4 Sb5 3.321804 1_565
Pr4 Sb0 3.321804 1_555
Pr4 Sb2 3.352648 1_555
Pr4 Sb7 3.352648 1_555
Pr5 Sb1 3.321448 1_555
Pr5 Sb3 3.321448 1_545
Pr5 Sb6 3.353364 1_555
Pr5 Sb4 3.353364 1_555
Pr6 Sb7 3.321584 1_645
Pr6 Sb2 3.321584 1_655
Pr6 Sb5 3.353167 1_555
Pr6 Sb0 3.353167 1_555
Pr7 Sb6 3.321586 1_465
Pr7 Sb4 3.321586 1_455
Pr7 Sb1 3.352753 1_555
Pr7 Sb3 3.352753 1_555
Pr8 Sb6 3.256413 1_565
Pr8 Sb4 3.256413 1_555
Pr8 Sb7 3.264205 1_655
Pr8 Sb2 3.264205 1_655
Pr9 Sb7 3.256695 1_545
Pr9 Sb2 3.256695 1_555
Pr9 Sb6 3.264071 1_455
Pr9 Sb4 3.264071 1_455
Pr10 Sb1 3.256702 1_556
Pr10 Sb3 3.256702 1_546
Pr10 Sb0 3.264434 1_555
Pr10 Sb5 3.264434 1_555
Pr11 Sb5 3.256845 1_564
Pr11 Sb0 3.256845 1_554
Pr11 Sb3 3.264246 1_555
Pr11 Sb1 3.264246 1_555
Pr12 Sb5 3.462962 1_555
Pr12 Sb7 3.552555 1_645
Pr12 Sb6 3.578966 1_555
Pr13 Sb3 3.461842 1_555
Pr13 Sb6 3.550784 1_465
Pr13 Sb7 3.580172 1_555
Pr14 Sb7 3.462733 1_555
Pr14 Sb5 3.552539 1_565
Pr14 Sb3 3.579415 1_556
Pr15 Sb1 3.461842 1_555
Pr15 Sb4 3.550784 1_455
Pr15 Sb2 3.580172 1_555
Pr16 Sb6 3.462266 1_555
Pr16 Sb3 3.551877 1_545
Pr16 Sb5 3.580295 1_554
Pr17 Sb0 3.462962 1_555
Pr17 Sb2 3.552555 1_655
Pr17 Sb4 3.578966 1_555
Pr18 Sb4 3.462266 1_555
Pr18 Sb1 3.551877 1_555
Pr18 Sb0 3.580295 1_554
Pr19 Sb2 3.462733 1_555
Pr19 Sb0 3.552539 1_555
Pr19 Sb1 3.579415 1_556
Co0 Pr3 2.798663 1_555
Co0 Pr4 2.819480 1_555
Co0 Pr12 2.886110 1_565
Co0 Pr17 2.886110 1_555
Co0 Pr15 2.986108 1_555
Co0 Pr13 2.986108 1_555
Co0 Pr8 3.254422 1_555
Co1 Pr2 2.798696 1_555
Co1 Pr5 2.819875 1_555
Co1 Pr13 2.887683 1_545
Co1 Pr15 2.887683 1_555
Co1 Pr17 2.988187 1_555
Co1 Pr12 2.988187 1_555
Co1 Pr9 3.251712 1_555
Co2 Pr1 2.798603 1_556
Co2 Pr6 2.819674 1_455
Co2 Pr14 2.887507 1_545
Co2 Pr19 2.887507 1_555
Co2 Pr16 2.987600 1_456
Co2 Pr18 2.987600 1_456
Co2 Pr10 3.251667 1_555
Co3 Pr0 2.798457 1_554
Co3 Pr7 2.819309 1_655
Co3 Pr16 2.886297 1_565
Co3 Pr18 2.886297 1_555
Co3 Pr19 2.986047 1_654
Co3 Pr14 2.986047 1_654
Co3 Pr11 3.253525 1_555
