# generated using pymatgen
data_Cs2NaMoF6
_symmetry_space_group_name_H-M   'P 1'
_cell_length_a   6.23700120
_cell_length_b   6.23700215
_cell_length_c   6.23700070
_cell_angle_alpha   59.99987187
_cell_angle_beta   59.99986764
_cell_angle_gamma   59.99987564
_symmetry_Int_Tables_number   1
_chemical_formula_structural   Cs2NaMoF6
_chemical_formula_sum   'Cs2 Na1 Mo1 F6'
_cell_volume   171.55810986
_cell_formula_units_Z   1
loop_
 _symmetry_equiv_pos_site_id
 _symmetry_equiv_pos_as_xyz
  1  'x, y, z'
loop_
 _atom_site_type_symbol
 _atom_site_label
 _atom_site_symmetry_multiplicity
 _atom_site_fract_x
 _atom_site_fract_y
 _atom_site_fract_z
 _atom_site_occupancy
  Cs  Cs0  1  0.25000000  0.25000000  0.25000000  1
  Cs  Cs1  1  0.75000000  0.75000000  0.75000000  1
  Na  Na0  1  0.50000000  0.50000000  0.50000000  1
  Mo  Mo0  1  0.00000000  -0.00000000  -0.00000000  1
  F  F0  1  0.23485130  0.76514970  0.23485130  1
  F  F1  1  0.76514870  0.76514870  0.23485030  1
  F  F2  1  0.76514870  0.23485030  0.76514870  1
  F  F3  1  0.76514970  0.23485130  0.23485130  1
  F  F4  1  0.23485030  0.76514870  0.76514970  1
  F  F5  1  0.23485130  0.23485130  0.76514970  1
loop_
_geom_bond_atom_site_label_1
_geom_bond_atom_site_label_2
_geom_bond_distance
_geom_bond_site_symmetry_2
Cs0 F4 3.121353 1_554
Cs0 F2 3.121355 1_455
Cs0 F2 3.121356 1_554
Cs0 F5 3.121356 1_554
Cs0 F3 3.121356 1_455
Cs0 F1 3.121356 1_545
Cs0 F1 3.121356 1_455
Cs0 F0 3.121356 1_545
Cs0 F4 3.121359 1_545
Cs0 F5 3.121367 1_555
Cs0 F3 3.121368 1_555
Cs0 F0 3.121368 1_555
Cs1 F0 3.121355 1_655
Cs1 F0 3.121356 1_556
Cs1 F1 3.121356 1_556
Cs1 F3 3.121356 1_565
Cs1 F3 3.121356 1_556
Cs1 F5 3.121356 1_565
Cs1 F5 3.121356 1_655
Cs1 F2 3.121356 1_565
Cs1 F4 3.121359 1_655
Cs1 F4 3.121365 1_555
Cs1 F1 3.121367 1_555
Cs1 F2 3.121368 1_555
F0 Mo0 2.071493 1_565
F0 Na0 2.338729 1_555
F1 Mo0 2.071493 1_665
F1 Na0 2.338729 1_555
F2 Mo0 2.071493 1_656
F2 Na0 2.338729 1_555
F3 Mo0 2.071493 1_655
F3 Na0 2.338729 1_555
F4 Mo0 2.071488 1_566
F4 Na0 2.338734 1_555
F5 Mo0 2.071493 1_556
F5 Na0 2.338729 1_555
