# generated using pymatgen
data_Li7Mn2(CoO4)3
_symmetry_space_group_name_H-M   'P 1'
_cell_length_a   5.82043000
_cell_length_b   5.91737771
_cell_length_c   7.73660143
_cell_angle_alpha   67.54706918
_cell_angle_beta   78.77783175
_cell_angle_gamma   60.61216829
_symmetry_Int_Tables_number   1
_chemical_formula_structural   Li7Mn2(CoO4)3
_chemical_formula_sum   'Li7 Mn2 Co3 O12'
_cell_volume   214.56402598
_cell_formula_units_Z   1
loop_
 _symmetry_equiv_pos_site_id
 _symmetry_equiv_pos_as_xyz
  1  'x, y, z'
loop_
 _atom_site_type_symbol
 _atom_site_label
 _atom_site_symmetry_multiplicity
 _atom_site_fract_x
 _atom_site_fract_y
 _atom_site_fract_z
 _atom_site_occupancy
  Li  Li0  1  0.50100300  0.49405100  0.00532300  1
  Li  Li1  1  0.99986900  0.50252800  0.00149900  1
  Li  Li2  1  0.83211500  0.17193100  0.32827600  1
  Li  Li3  1  0.33706900  0.15924600  0.32695800  1
  Li  Li4  1  0.16729700  0.83186000  0.66837300  1
  Li  Li5  1  0.66500400  0.83584000  0.67235900  1
  Li  Li6  1  0.50120600  0.00187700  0.99995700  1
  Mn  Mn0  1  0.99915200  0.00033300  0.00051200  1
  Mn  Mn1  1  0.17223200  0.32583500  0.66785500  1
  Co  Co0  1  0.33531300  0.67891400  0.32579100  1
  Co  Co1  1  0.82149100  0.67692600  0.32628300  1
  Co  Co2  1  0.66189000  0.32693400  0.67229900  1
  O  O0  1  0.30724000  0.94807900  0.83162800  1
  O  O1  1  0.84106300  0.93187200  0.83991700  1
  O  O2  1  0.66079800  0.58337200  0.18713900  1
  O  O3  1  0.15490900  0.61602900  0.15488800  1
  O  O4  1  0.99195200  0.26581900  0.51281500  1
  O  O5  1  0.48076900  0.25672100  0.51022400  1
  O  O6  1  0.69114300  0.07067500  0.16217800  1
  O  O7  1  0.15834600  0.06926600  0.16382200  1
  O  O8  1  0.01708600  0.71274500  0.49873900  1
  O  O9  1  0.50743500  0.73663000  0.49762400  1
  O  O10  1  0.33834200  0.41090400  0.81150400  1
  O  O11  1  0.85727600  0.39161500  0.83404000  1
loop_
_geom_bond_atom_site_label_1
_geom_bond_atom_site_label_2
_geom_bond_distance
_geom_bond_site_symmetry_2
Li0 O3 2.054629 1_555
Li0 O6 2.110257 1_555
Li0 O2 2.163935 1_555
Li0 O11 2.175749 1_554
Li0 O10 2.227154 1_554
Li0 O0 2.270294 1_554
Li1 O3 2.072231 1_655
Li1 O11 2.097777 1_554
Li1 O1 2.142606 1_554
Li1 O7 2.161360 1_655
Li1 O2 2.163661 1_555
Li1 O10 2.183818 1_654
Li2 O7 2.027626 1_655
Li2 O2 2.030917 1_555
Li2 O6 2.040734 1_555
Li2 O5 2.197100 1_555
Li2 O4 2.200595 1_555
Li2 O8 2.285999 1_645
Li3 O7 2.127552 1_555
Li3 O9 2.129371 1_545
Li3 O6 2.138867 1_555
Li3 O5 2.145299 1_555
Li3 O4 2.196683 1_455
Li3 O3 2.278272 1_555
Li4 O1 2.057506 1_455
Li4 O10 2.076171 1_555
Li4 O0 2.084550 1_555
Li4 O9 2.106611 1_555
Li4 O4 2.151609 1_465
Li4 O8 2.177514 1_555
Li5 O5 2.107648 1_565
Li5 O0 2.136503 1_555
Li5 O9 2.151849 1_555
Li5 O1 2.169037 1_555
Li5 O8 2.178372 1_655
Li5 O11 2.207482 1_555
Li6 O1 2.062000 1_545
Li6 O0 2.076906 1_545
Li6 O6 2.082076 1_556
Li6 O7 2.090227 1_556
Li6 O10 2.114981 1_555
Li6 O2 2.149267 1_546
Mn0 O3 1.934736 1_645
Mn0 O6 1.934970 1_555
Mn0 O1 1.936435 1_544
Mn0 O7 1.959986 1_655
Mn0 O0 1.967443 1_644
Mn0 O11 1.990286 1_554
Mn1 O5 1.920210 1_555
Mn1 O0 1.928670 1_545
Mn1 O10 1.935581 1_555
Mn1 O4 1.961360 1_455
Mn1 O8 1.977813 1_555
Mn1 O11 1.982342 1_455
Co0 O2 1.918433 1_555
Co0 O7 1.980667 1_565
Co0 O9 2.022028 1_555
Co0 O8 2.034004 1_555
Co0 O3 2.070979 1_555
Co0 O5 2.159997 1_555
Co1 O2 1.922339 1_555
Co1 O6 1.999172 1_565
Co1 O9 2.001041 1_555
Co1 O8 2.040879 1_655
Co1 O3 2.081176 1_655
Co1 O4 2.119384 1_555
Co2 O10 1.911585 1_555
Co2 O1 2.013027 1_545
Co2 O4 2.019953 1_555
Co2 O5 2.049042 1_555
Co2 O9 2.084021 1_555
Co2 O11 2.086267 1_555
