# generated using pymatgen
data_KGaF4
_symmetry_space_group_name_H-M   'P 1'
_cell_length_a   7.49043534
_cell_length_b   7.66117070
_cell_length_c   12.13140172
_cell_angle_alpha   90.00015724
_cell_angle_beta   90.00018583
_cell_angle_gamma   89.99988436
_symmetry_Int_Tables_number   1
_chemical_formula_structural   KGaF4
_chemical_formula_sum   'K8 Ga8 F32'
_cell_volume   696.16659898
_cell_formula_units_Z   8
loop_
 _symmetry_equiv_pos_site_id
 _symmetry_equiv_pos_as_xyz
  1  'x, y, z'
loop_
 _atom_site_type_symbol
 _atom_site_label
 _atom_site_symmetry_multiplicity
 _atom_site_fract_x
 _atom_site_fract_y
 _atom_site_fract_z
 _atom_site_occupancy
  K  K0  1  0.24999814  0.37440759  0.47278836  1
  K  K1  1  0.75001034  0.62558719  0.52721081  1
  K  K2  1  0.75000202  0.87440683  0.02721153  1
  K  K3  1  0.24999012  0.12558625  0.97278889  1
  K  K4  1  0.74999482  0.37548661  0.01393780  1
  K  K5  1  0.24999326  0.62449317  0.98606160  1
  K  K6  1  0.25000061  0.87548868  0.48606058  1
  K  K7  1  0.75000535  0.12449652  0.51394212  1
  Ga  Ga0  1  0.50068576  0.62518895  0.25157738  1
  Ga  Ga1  1  0.00068486  0.37481661  0.74842069  1
  Ga  Ga2  1  0.49931340  0.12518879  0.24842639  1
  Ga  Ga3  1  0.99931534  0.87481831  0.75157716  1
  Ga  Ga4  1  0.49931391  0.37481705  0.74841852  1
  Ga  Ga5  1  0.99931409  0.62518911  0.25157743  1
  Ga  Ga6  1  0.50068765  0.87481804  0.75157740  1
  Ga  Ga7  1  0.00068697  0.12518852  0.24842493  1
  F  F0  1  0.54737550  0.61505510  0.10294171  1
  F  F1  1  0.04737528  0.38494221  0.89705630  1
  F  F2  1  0.45262189  0.11505602  0.39705780  1
  F  F3  1  0.95262678  0.88494198  0.60295006  1
  F  F4  1  0.45262135  0.38494031  0.89705611  1
  F  F5  1  0.95262474  0.61505271  0.10294093  1
  F  F6  1  0.54738299  0.88493711  0.60294835  1
  F  F7  1  0.04737434  0.11505354  0.39705684  1
  F  F8  1  0.45531837  0.63452366  0.40052890  1
  F  F9  1  0.95530840  0.36547429  0.59946950  1
  F  F10  1  0.54468380  0.13452484  0.09946541  1
  F  F11  1  0.04469384  0.86547029  0.90053691  1
  F  F12  1  0.54469095  0.36547716  0.59946634  1
  F  F13  1  0.04468280  0.63452596  0.40052798  1
  F  F14  1  0.45530755  0.86547553  0.90053824  1
  F  F15  1  0.95531025  0.13453169  0.09946654  1
  F  F16  1  0.04198744  0.12488925  0.75422906  1
  F  F17  1  0.54198738  0.87511223  0.24577121  1
  F  F18  1  0.95801709  0.62489051  0.74577359  1
  F  F19  1  0.45801014  0.37511371  0.25422668  1
  F  F20  1  0.95801057  0.87511442  0.24577015  1
  F  F21  1  0.45801738  0.12489070  0.75422707  1
  F  F22  1  0.04198970  0.37511425  0.25422792  1
  F  F23  1  0.54198375  0.62488965  0.74577433  1
  F  F24  1  0.75000010  0.16258652  0.28286341  1
  F  F25  1  0.24999865  0.83742640  0.71713210  1
  F  F26  1  0.24999867  0.66258027  0.21712886  1
  F  F27  1  0.75000320  0.33742653  0.78286930  1
  F  F28  1  0.24999942  0.08726158  0.21255181  1
  F  F29  1  0.75000228  0.91274059  0.78745233  1
  F  F30  1  0.75000075  0.58726147  0.28744518  1
  F  F31  1  0.24999901  0.41274028  0.71254949  1
loop_
_geom_bond_atom_site_label_1
_geom_bond_atom_site_label_2
_geom_bond_distance
_geom_bond_site_symmetry_2
F0 Ga0 1.838402 1_555
F0 K4 2.614932 1_555
F0 K5 2.641507 1_554
F0 K2 2.663754 1_555
F1 Ga1 1.838397 1_555
F1 K5 2.614839 1_555
F1 K4 2.641517 1_456
F1 K3 2.663730 1_555
F2 Ga2 1.838354 1_555
F2 K6 2.614937 1_545
F2 K7 2.641543 1_555
F2 K0 2.663735 1_555
F3 Ga3 1.838293 1_555
F3 K7 2.614886 1_565
F3 K6 2.641526 1_655
F3 K1 2.663759 1_555
F4 Ga4 1.838425 1_555
F4 K5 2.614894 1_555
F4 K4 2.641465 1_556
F4 K3 2.663798 1_555
F5 Ga5 1.838410 1_555
F5 K4 2.614961 1_555
F5 K5 2.641424 1_654
F5 K2 2.663740 1_555
F6 Ga6 1.838327 1_555
F6 K7 2.614916 1_565
F6 K6 2.641560 1_555
F6 K1 2.663770 1_555
F7 Ga7 1.838352 1_555
F7 K6 2.614942 1_545
F7 K7 2.641466 1_455
F7 K0 2.663754 1_555
F8 Ga0 1.840058 1_555
F8 K6 2.617218 1_555
F8 K0 2.665512 1_555
F8 K1 2.690538 1_555
F9 Ga1 1.840066 1_655
F9 K7 2.617201 1_555
F9 K1 2.665387 1_555
F9 K0 2.690527 1_655
F10 Ga2 1.840175 1_555
F10 K4 2.617159 1_555
F10 K2 2.665484 1_545
F10 K3 2.690512 1_554
F11 Ga3 1.840173 1_455
F11 K5 2.617169 1_555
F11 K3 2.665371 1_565
F11 K2 2.690495 1_456
F12 Ga4 1.840080 1_555
F12 K7 2.617251 1_555
F12 K1 2.665458 1_555
F12 K0 2.690515 1_555
F13 Ga5 1.840046 1_455
F13 K6 2.617210 1_555
F13 K0 2.665499 1_555
F13 K1 2.690434 1_455
F14 Ga6 1.840189 1_555
F14 K5 2.617264 1_555
F14 K3 2.665426 1_565
F14 K2 2.690493 1_556
F15 Ga7 1.840153 1_655
F15 K4 2.617139 1_555
F15 K2 2.665486 1_545
F15 K3 2.690444 1_654
F16 Ga1 1.940848 1_555
F16 Ga3 1.942583 1_445
F16 K3 3.075318 1_555
F17 Ga0 1.940816 1_555
F17 Ga2 1.942628 1_565
F17 K2 3.075370 1_555
F18 Ga3 1.940845 1_555
F18 Ga1 1.942598 1_655
F18 K1 3.075364 1_555
F19 Ga2 1.940826 1_555
F19 Ga0 1.942620 1_555
F19 K0 3.075381 1_555
F20 Ga5 1.940833 1_555
F20 Ga7 1.942613 1_665
F20 K2 3.075328 1_555
F21 Ga4 1.940834 1_555
F21 Ga6 1.942592 1_545
F21 K3 3.075441 1_555
F22 Ga7 1.940834 1_555
F22 Ga5 1.942616 1_455
F22 K0 3.075346 1_555
F23 Ga6 1.940845 1_555
F23 Ga4 1.942592 1_555
F23 K1 3.075456 1_555
F24 Ga2 1.944883 1_555
F24 Ga7 1.944890 1_655
F24 K7 2.818457 1_555
F25 Ga3 1.944874 1_455
F25 Ga6 1.944914 1_555
F25 K6 2.818348 1_555
F26 Ga5 1.944893 1_455
F26 Ga0 1.944908 1_555
F26 K5 2.818315 1_554
F27 Ga1 1.944871 1_655
F27 Ga4 1.944929 1_555
F27 K4 2.818308 1_556
F28 Ga7 1.939388 1_555
F28 Ga2 1.939401 1_555
F28 K3 2.923443 1_554
F29 Ga3 1.939392 1_555
F29 Ga6 1.939402 1_555
F29 K2 2.923405 1_556
F30 Ga5 1.939382 1_555
F30 Ga0 1.939390 1_555
F30 K1 2.923475 1_555
F31 Ga4 1.939387 1_555
F31 Ga1 1.939392 1_555
F31 K0 2.923426 1_555
