# generated using pymatgen
data_Li9Mn2Co5O16
_symmetry_space_group_name_H-M   'P 1'
_cell_length_a   2.90687500
_cell_length_b   10.14779203
_cell_length_c   10.22707124
_cell_angle_alpha   108.93043115
_cell_angle_beta   90.66000673
_cell_angle_gamma   90.77529977
_symmetry_Int_Tables_number   1
_chemical_formula_structural   Li9Mn2Co5O16
_chemical_formula_sum   'Li9 Mn2 Co5 O16'
_cell_volume   285.29835767
_cell_formula_units_Z   1
loop_
 _symmetry_equiv_pos_site_id
 _symmetry_equiv_pos_as_xyz
  1  'x, y, z'
loop_
 _atom_site_type_symbol
 _atom_site_label
 _atom_site_symmetry_multiplicity
 _atom_site_fract_x
 _atom_site_fract_y
 _atom_site_fract_z
 _atom_site_occupancy
  Li  Li0  1  0.99882400  0.00303400  0.25145100  1
  Li  Li1  1  0.49388500  0.25821200  0.75528000  1
  Li  Li2  1  0.99653800  0.50684300  0.24203700  1
  Li  Li3  1  0.50239400  0.24938900  0.24984600  1
  Li  Li4  1  0.00346200  0.49315700  0.75796300  1
  Li  Li5  1  0.50611500  0.74178800  0.24472000  1
  Li  Li6  1  0.49760600  0.75061100  0.75015400  1
  Li  Li7  1  0.00117600  0.99696600  0.74854900  1
  Li  Li8  1  0.50000000  0.50000000  0.00000000  1
  Mn  Mn0  1  0.99990900  0.74610300  0.00237200  1
  Mn  Mn1  1  0.00009100  0.25389700  0.99762800  1
  Co  Co0  1  0.50000000  0.00000000  0.50000000  1
  Co  Co1  1  0.50000000  0.50000000  0.50000000  1
  Co  Co2  1  0.99714400  0.24990600  0.50001700  1
  Co  Co3  1  0.00285600  0.75009400  0.49998300  1
  Co  Co4  1  0.50000000  0.00000000  0.00000000  1
  O  O0  1  0.50481700  0.87187100  0.10613200  1
  O  O1  1  0.97882500  0.11864900  0.61420700  1
  O  O2  1  0.50549500  0.35712200  0.11135200  1
  O  O3  1  0.00744000  0.11486100  0.10563800  1
  O  O4  1  0.48647800  0.37058200  0.61610800  1
  O  O5  1  0.00047600  0.64080000  0.11666300  1
  O  O6  1  0.98622300  0.62059000  0.61569300  1
  O  O7  1  0.49079600  0.86975500  0.61793600  1
  O  O8  1  0.50920400  0.13024500  0.38206400  1
  O  O9  1  0.99952400  0.35920000  0.88333700  1
  O  O10  1  0.51352200  0.62941800  0.38389200  1
  O  O11  1  0.01377700  0.37941000  0.38430700  1
  O  O12  1  0.49450500  0.64287800  0.88864800  1
  O  O13  1  0.02117500  0.88135100  0.38579300  1
  O  O14  1  0.99256000  0.88513900  0.89436200  1
  O  O15  1  0.49518300  0.12812900  0.89386800  1
loop_
_geom_bond_atom_site_label_1
_geom_bond_atom_site_label_2
_geom_bond_distance
_geom_bond_site_symmetry_2
Li0 O8 2.106074 1_655
Li0 O8 2.109771 1_555
Li0 O13 2.125454 1_645
Li0 O3 2.147157 1_655
Li0 O0 2.158266 1_545
Li0 O0 2.227920 1_645
Li1 O9 1.992451 1_555
Li1 O9 2.010693 1_455
Li1 O4 2.092762 1_555
Li1 O1 2.202177 1_555
Li1 O1 2.212705 1_455
Li1 O15 2.228321 1_555
Li2 O10 2.132285 1_555
Li2 O5 2.150096 1_655
Li2 O10 2.153755 1_655
Li2 O2 2.170705 1_555
Li2 O11 2.238912 1_655
Li2 O2 2.252190 1_655
Li3 O2 2.050895 1_555
Li3 O8 2.086013 1_555
Li3 O11 2.136407 1_655
Li3 O11 2.137230 1_555
Li3 O3 2.168049 1_555
Li3 O3 2.234250 1_655
Li4 O4 2.132285 1_555
Li4 O9 2.150096 1_455
Li4 O4 2.153755 1_455
Li4 O12 2.170705 1_555
Li4 O6 2.238912 1_455
Li4 O12 2.252190 1_455
Li5 O5 1.992451 1_555
Li5 O5 2.010693 1_655
Li5 O10 2.092762 1_555
Li5 O13 2.202177 1_555
Li5 O13 2.212705 1_655
Li5 O0 2.228321 1_555
Li6 O12 2.050895 1_555
Li6 O7 2.086013 1_555
Li6 O6 2.136407 1_455
Li6 O6 2.137230 1_555
Li6 O14 2.168049 1_555
Li6 O14 2.234250 1_455
Li7 O7 2.106074 1_455
Li7 O7 2.109771 1_555
Li7 O1 2.125454 1_465
Li7 O14 2.147157 1_455
Li7 O15 2.158266 1_565
Li7 O15 2.227920 1_465
Li8 O5 2.092652 1_655
Li8 O9 2.092652 1_454
Li8 O2 2.114443 1_555
Li8 O12 2.114443 1_554
Li8 O5 2.136223 1_555
Li8 O9 2.136223 1_554
Mn0 O5 1.821692 1_655
Mn0 O12 1.933099 1_554
Mn0 O12 1.950856 1_654
Mn0 O0 1.985891 1_655
Mn0 O0 2.008055 1_555
Mn0 O14 2.054951 1_554
Mn1 O9 1.821692 1_455
Mn1 O2 1.933099 1_556
Mn1 O2 1.950856 1_456
Mn1 O15 1.985891 1_455
Mn1 O15 2.008055 1_555
Mn1 O3 2.054951 1_556
Co0 O1 1.938034 1_555
Co0 O13 1.938034 1_545
Co0 O7 2.058280 1_545
Co0 O8 2.058280 1_555
Co0 O1 2.070451 1_455
Co0 O13 2.070451 1_645
Co1 O6 1.967317 1_555
Co1 O11 1.967317 1_555
Co1 O10 2.036633 1_555
Co1 O4 2.036633 1_555
Co1 O6 2.068494 1_455
Co1 O11 2.068494 1_655
Co2 O4 1.975639 1_655
Co2 O8 1.976119 1_555
Co2 O11 2.034314 1_655
Co2 O1 2.037055 1_555
Co2 O4 2.063794 1_555
Co2 O8 2.070065 1_655
Co3 O10 1.975639 1_455
Co3 O7 1.976119 1_555
Co3 O6 2.034314 1_455
Co3 O13 2.037055 1_555
Co3 O10 2.063794 1_555
Co3 O7 2.070065 1_455
Co4 O0 1.945447 1_545
Co4 O15 1.945447 1_554
Co4 O3 1.949692 1_655
Co4 O14 1.949692 1_444
Co4 O3 1.959492 1_555
Co4 O14 1.959492 1_544
