# generated using pymatgen
data_Sr2YAlNi2O7
_symmetry_space_group_name_H-M   'P 1'
_cell_length_a   11.66899648
_cell_length_b   11.66899648
_cell_length_c   11.66899648
_cell_angle_alpha   152.62246385
_cell_angle_beta   151.97852059
_cell_angle_gamma   39.57716010
_symmetry_Int_Tables_number   1
_chemical_formula_structural   Sr2YAlNi2O7
_chemical_formula_sum   'Sr4 Y2 Al2 Ni4 O14'
_cell_volume   342.63369512
_cell_formula_units_Z   2
loop_
 _symmetry_equiv_pos_site_id
 _symmetry_equiv_pos_as_xyz
  1  'x, y, z'
loop_
 _atom_site_type_symbol
 _atom_site_label
 _atom_site_symmetry_multiplicity
 _atom_site_fract_x
 _atom_site_fract_y
 _atom_site_fract_z
 _atom_site_occupancy
  Sr  Sr0  1  0.83057400  0.83287500  0.96431300  1
  Sr  Sr1  1  0.16942600  0.13373900  0.00230100  1
  Sr  Sr2  1  0.63143800  0.63373900  0.96431300  1
  Sr  Sr3  1  0.36856200  0.33287500  0.00230100  1
  Y  Y0  1  0.50000000  0.48280900  0.98280900  1
  Y  Y1  1  0.00000000  0.98280900  0.98280900  1
  Al  Al0  1  0.17058900  0.76124300  0.43183200  1
  Al  Al1  1  0.82941100  0.26124300  0.59065500  1
  Ni  Ni0  1  0.91661600  0.39577900  0.48098700  1
  Ni  Ni1  1  0.08338400  0.56437100  0.47916400  1
  Ni  Ni2  1  0.58520700  0.06437100  0.48098700  1
  Ni  Ni3  1  0.41479300  0.89577900  0.47916400  1
  O  O0  1  0.90681900  0.57798200  0.98480100  1
  O  O1  1  0.09318100  0.07798200  0.67116300  1
  O  O2  1  0.69587400  0.67500400  0.49865300  1
  O  O3  1  0.30412600  0.80277900  0.97913000  1
  O  O4  1  0.32365000  0.30277900  0.49865300  1
  O  O5  1  0.67635000  0.17500400  0.97913000  1
  O  O6  1  0.17339100  0.15269200  0.46336000  1
  O  O7  1  0.82660900  0.28996900  0.97930200  1
  O  O8  1  0.81066800  0.78996900  0.46336000  1
  O  O9  1  0.18933200  0.65269200  0.97930200  1
  O  O10  1  0.37493500  0.77682800  0.50886300  1
  O  O11  1  0.62506500  0.13392900  0.40189300  1
  O  O12  1  0.23203500  0.63392900  0.50886300  1
  O  O13  1  0.76796500  0.27682800  0.40189300  1
loop_
_geom_bond_atom_site_label_1
_geom_bond_atom_site_label_2
_geom_bond_distance
_geom_bond_site_symmetry_2
Al0 O12 1.766593 1_555
Al0 O10 1.766604 1_555
Al0 O0 1.801547 1_454
Al0 O1 1.803160 1_565
Al1 O11 1.766587 1_555
Al1 O13 1.766615 1_555
Al1 O1 1.801546 1_655
Al1 O0 1.803157 1_555
Ni0 O9 2.000790 1_655
Ni0 O6 2.004083 1_655
Ni0 O2 2.025000 1_555
Ni0 O5 2.035796 1_554
Ni0 O13 2.096940 1_555
Ni1 O8 2.000786 1_455
Ni1 O7 2.004083 1_454
Ni1 O3 2.024994 1_555
Ni1 O4 2.035797 1_555
Ni1 O12 2.096961 1_555
Ni2 O7 2.000792 1_555
Ni2 O8 2.004085 1_545
Ni2 O4 2.024987 1_555
Ni2 O3 2.035795 1_544
Ni2 O11 2.096961 1_555
Ni3 O6 2.000792 1_565
Ni3 O9 2.004081 1_554
Ni3 O5 2.024994 1_565
Ni3 O2 2.035794 1_555
Ni3 O10 2.096939 1_555
O0 Sr2 2.550190 1_555
O0 Sr0 2.550190 1_555
O1 Sr3 2.550190 1_556
O1 Sr1 2.550190 1_556
O2 Y1 2.371831 1_655
O2 Y0 2.474418 1_554
O2 Sr0 2.645143 1_555
O2 Sr3 2.730399 1_555
O3 Y1 2.371831 1_555
O3 Y0 2.474418 1_555
O3 Sr1 2.645143 1_566
O3 Sr2 2.730399 1_555
O4 Y0 2.371837 1_555
O4 Y1 2.474425 1_544
O4 Sr2 2.645135 1_555
O4 Sr1 2.730392 1_555
O5 Y0 2.371834 1_555
O5 Y1 2.474428 1_645
O5 Sr3 2.645133 1_556
O5 Sr0 2.730395 1_545
O6 Y1 2.424331 1_544
O6 Y0 2.545969 1_555
O6 Sr0 2.670112 1_444
O6 Sr3 2.787220 1_556
O7 Y1 2.424324 1_645
O7 Y0 2.545963 1_555
O7 Sr1 2.670119 1_656
O7 Sr2 2.787227 1_555
O8 Y0 2.424331 1_554
O8 Y1 2.545969 1_655
O8 Sr2 2.670112 1_554
O8 Sr1 2.787220 1_666
O9 Y0 2.424338 1_555
O9 Y1 2.545976 1_555
O9 Sr3 2.670104 1_556
O9 Sr0 2.787213 1_455
O10 Sr0 2.498022 1_555
O10 Sr3 2.686391 1_555
O10 Sr3 2.986719 1_566
O11 Sr1 2.498022 1_555
O11 Sr2 2.686396 1_544
O11 Sr2 2.986719 1_555
O12 Sr2 2.498027 1_555
O12 Sr1 2.686396 1_555
O12 Sr1 2.986718 1_566
O13 Sr3 2.498022 1_555
O13 Sr0 2.686391 1_544
O13 Sr0 2.986719 1_555
