# generated using pymatgen
data_Er(SiPt)2
_symmetry_space_group_name_H-M   'P 1'
_cell_length_a   4.12643946
_cell_length_b   4.12643687
_cell_length_c   9.93047737
_cell_angle_alpha   89.99998201
_cell_angle_beta   90.00003112
_cell_angle_gamma   89.99995668
_symmetry_Int_Tables_number   1
_chemical_formula_structural   Er(SiPt)2
_chemical_formula_sum   'Er2 Si4 Pt4'
_cell_volume   169.09112327
_cell_formula_units_Z   2
loop_
 _symmetry_equiv_pos_site_id
 _symmetry_equiv_pos_as_xyz
  1  'x, y, z'
loop_
 _atom_site_type_symbol
 _atom_site_label
 _atom_site_symmetry_multiplicity
 _atom_site_fract_x
 _atom_site_fract_y
 _atom_site_fract_z
 _atom_site_occupancy
  Er  Er0  1  0.99999810  0.49999874  0.25324465  1
  Er  Er1  1  0.50000779  0.00001236  0.74675728  1
  Si  Si0  1  -0.00000084  -0.00000059  0.49998289  1
  Si  Si1  1  0.50000035  0.49999879  0.49998279  1
  Si  Si2  1  -0.00000172  0.49999658  0.86422448  1
  Si  Si3  1  0.49999938  -0.00000059  0.13578712  1
  Pt  Pt0  1  -0.00000160  0.00000012  0.00003150  1
  Pt  Pt1  1  0.50000109  0.49999850  0.00003035  1
  Pt  Pt2  1  -0.00000110  0.49999622  0.62614726  1
  Pt  Pt3  1  0.50000055  0.00000086  0.37381269  1
loop_
_geom_bond_atom_site_label_1
_geom_bond_atom_site_label_2
_geom_bond_distance
_geom_bond_site_symmetry_2
Er0 Si3 3.142329 1_555
Er0 Si3 3.142330 1_565
Er0 Si3 3.142334 1_655
Er0 Si3 3.142339 1_665
Er0 Pt3 3.153918 1_555
Er0 Pt3 3.153928 1_565
Er0 Pt3 3.153928 1_655
Er0 Pt3 3.153942 1_665
Er0 Si1 3.203195 1_555
Er0 Si0 3.203198 1_655
Er0 Si0 3.203202 1_665
Er0 Si1 3.203205 1_655
Er0 Pt0 3.252645 1_655
Er0 Pt1 3.252649 1_555
Er0 Pt0 3.252651 1_665
Er0 Pt1 3.252666 1_655
Er1 Si2 3.142301 1_655
Er1 Si2 3.142351 1_555
Er1 Si2 3.142384 1_645
Er1 Si2 3.142438 1_545
Er1 Pt2 3.154021 1_655
Er1 Pt2 3.154066 1_555
Er1 Pt2 3.154107 1_645
Er1 Pt2 3.154156 1_545
Er1 Si1 3.203439 1_555
Er1 Si0 3.203453 1_655
Er1 Si0 3.203497 1_555
Er1 Si1 3.203512 1_545
Er1 Pt1 3.253072 1_556
Er1 Pt0 3.253092 1_656
Er1 Pt0 3.253143 1_556
Er1 Pt1 3.253144 1_546
Pt0 Si3 2.464606 1_455
Pt0 Si3 2.464612 1_555
Pt0 Si2 2.464875 1_554
Pt0 Si2 2.464900 1_544
Pt1 Si3 2.464611 1_555
Pt1 Si3 2.464618 1_565
Pt1 Si2 2.464873 1_654
Pt1 Si2 2.464891 1_554
Pt2 Si2 2.364220 1_555
Pt2 Si0 2.413816 1_555
Pt2 Si1 2.413823 1_455
Pt2 Si1 2.413834 1_555
Pt2 Si0 2.413838 1_565
Pt3 Si3 2.363708 1_555
Pt3 Si1 2.413849 1_555
Pt3 Si0 2.413852 1_655
Pt3 Si1 2.413863 1_545
Pt3 Si0 2.413863 1_555
