# generated using pymatgen
data_Ba5Sm8Mn4O21
_symmetry_space_group_name_H-M   'P 1'
_cell_length_a   5.89146472
_cell_length_b   10.50518018
_cell_length_c   10.50518047
_cell_angle_alpha   85.49026967
_cell_angle_beta   73.71546208
_cell_angle_gamma   73.71546505
_symmetry_Int_Tables_number   1
_chemical_formula_structural   Ba5Sm8Mn4O21
_chemical_formula_sum   'Ba5 Sm8 Mn4 O21'
_cell_volume   599.05279736
_cell_formula_units_Z   1
loop_
 _symmetry_equiv_pos_site_id
 _symmetry_equiv_pos_as_xyz
  1  'x, y, z'
loop_
 _atom_site_type_symbol
 _atom_site_label
 _atom_site_symmetry_multiplicity
 _atom_site_fract_x
 _atom_site_fract_y
 _atom_site_fract_z
 _atom_site_occupancy
  Ba  Ba0  1  0.46790700  0.39533900  0.66884800  1
  Ba  Ba1  1  0.13675500  0.33115200  0.39533900  1
  Ba  Ba2  1  0.86324500  0.66884800  0.60466100  1
  Ba  Ba3  1  0.53209500  0.60466100  0.33115200  1
  Ba  Ba4  1  0.00000000  0.00000000  0.00000000  1
  Sm  Sm0  1  0.58899000  0.05342300  0.76859800  1
  Sm  Sm1  1  0.35758700  0.23140200  0.05342300  1
  Sm  Sm2  1  0.64241200  0.76859800  0.94657700  1
  Sm  Sm3  1  0.41101100  0.94657700  0.23140200  1
  Sm  Sm4  1  0.75257600  0.07830100  0.41654500  1
  Sm  Sm5  1  0.16912300  0.58345400  0.07830100  1
  Sm  Sm6  1  0.83087800  0.41654500  0.92169900  1
  Sm  Sm7  1  0.24742400  0.92169900  0.58345500  1
  Mn  Mn0  1  0.95988300  0.78928500  0.29094900  1
  Mn  Mn1  1  0.25083200  0.70905100  0.78928600  1
  Mn  Mn2  1  0.74916800  0.29094900  0.21071500  1
  Mn  Mn3  1  0.04011700  0.21071500  0.70905100  1
  O  O0  1  0.09951500  0.89009300  0.40650900  1
  O  O1  1  0.50602500  0.59349100  0.89009400  1
  O  O2  1  0.98960900  0.40650900  0.10990700  1
  O  O3  1  0.39611900  0.10990600  0.59349200  1
  O  O4  1  0.90048400  0.10990600  0.59349100  1
  O  O5  1  0.49397500  0.40650900  0.10990600  1
  O  O6  1  0.01039100  0.59349100  0.89009300  1
  O  O7  1  0.60388300  0.89009300  0.40650800  1
  O  O8  1  0.92953000  0.86879200  0.77443300  1
  O  O9  1  0.70396300  0.22556700  0.86879200  1
  O  O10  1  0.79832200  0.77443300  0.13120800  1
  O  O11  1  0.57275400  0.13120800  0.22556700  1
  O  O12  1  0.07047100  0.13120800  0.22556700  1
  O  O13  1  0.29603800  0.77443300  0.13120800  1
  O  O14  1  0.20167900  0.22556700  0.86879200  1
  O  O15  1  0.42724600  0.86879200  0.77443300  1
  O  O16  1  0.37590000  0.65842500  0.58977700  1
  O  O17  1  0.50000100  0.00000000  0.00000000  1
  O  O18  1  0.62410100  0.34157600  0.41022300  1
  O  O19  1  0.96567700  0.41022300  0.65842500  1
  O  O20  1  0.03432300  0.58977700  0.34157500  1
loop_
_geom_bond_atom_site_label_1
_geom_bond_atom_site_label_2
_geom_bond_distance
_geom_bond_site_symmetry_2
Ba0 O18 2.663656 1_555
Ba0 O16 2.770116 1_555
Ba0 O19 2.951422 1_455
Ba0 O19 2.951428 1_555
Ba0 O14 3.030660 1_555
Ba0 O9 3.030660 1_555
Ba0 O3 3.327006 1_555
Ba0 O4 3.327007 1_555
Ba0 O6 3.331862 1_555
Ba0 O1 3.331868 1_555
Ba1 O20 2.663658 1_555
Ba1 O19 2.770116 1_455
Ba1 O18 2.951426 1_455
Ba1 O18 2.951426 1_555
Ba1 O11 3.030657 1_555
Ba1 O12 3.030660 1_555
Ba1 O2 3.327003 1_455
Ba1 O5 3.327007 1_555
Ba1 O4 3.331871 1_455
Ba1 O3 3.331876 1_555
Ba2 O19 2.663658 1_555
Ba2 O20 2.770116 1_655
Ba2 O16 2.951417 1_555
Ba2 O16 2.951434 1_655
Ba2 O15 3.030657 1_555
Ba2 O8 3.030663 1_555
Ba2 O6 3.327003 1_655
Ba2 O1 3.327007 1_555
Ba2 O0 3.331860 1_655
Ba2 O7 3.331865 1_555
Ba3 O16 2.663658 1_555
Ba3 O18 2.770106 1_555
Ba3 O20 2.951411 1_655
Ba3 O20 2.951440 1_555
Ba3 O10 3.030657 1_555
Ba3 O13 3.030663 1_555
Ba3 O7 3.326996 1_555
Ba3 O0 3.327008 1_555
Ba3 O2 3.331857 1_555
Ba3 O5 3.331873 1_555
Ba4 O17 2.945726 1_455
Ba4 O17 2.945738 1_555
Ba4 O10 3.012251 1_445
Ba4 O8 3.012251 1_444
Ba4 O9 3.012251 1_454
Ba4 O11 3.012253 1_455
Ba4 O15 3.012253 1_544
Ba4 O14 3.012254 1_554
Ba4 O12 3.012254 1_555
Ba4 O13 3.012254 1_545
Mn0 O20 2.075544 1_655
Mn0 O7 2.126678 1_555
Mn0 O0 2.126682 1_655
Mn0 O10 2.183256 1_555
Mn0 O13 2.183260 1_655
Mn1 O16 2.075553 1_555
Mn1 O6 2.126683 1_555
Mn1 O1 2.126686 1_555
Mn1 O8 2.183259 1_455
Mn1 O15 2.183259 1_555
Mn2 O18 2.075546 1_555
Mn2 O2 2.126686 1_555
Mn2 O5 2.126693 1_555
Mn2 O12 2.183260 1_655
Mn2 O11 2.183260 1_555
Mn3 O19 2.075544 1_455
Mn3 O3 2.126689 1_555
Mn3 O4 2.126693 1_455
Mn3 O9 2.183256 1_455
Mn3 O14 2.183260 1_555
O0 Sm7 2.343636 1_555
O0 Sm3 2.376894 1_555
O0 Sm4 2.396590 1_465
O1 Sm6 2.343625 1_555
O1 Sm2 2.376882 1_555
O1 Sm5 2.396582 1_556
O2 Sm5 2.343623 1_655
O2 Sm1 2.376886 1_655
O2 Sm6 2.396590 1_554
O3 Sm4 2.343627 1_555
O3 Sm0 2.376877 1_555
O3 Sm7 2.396582 1_545
O4 Sm4 2.343629 1_555
O4 Sm0 2.376882 1_555
O4 Sm7 2.396587 1_645
O5 Sm5 2.343616 1_555
O5 Sm1 2.376886 1_555
O5 Sm6 2.396584 1_554
O6 Sm6 2.343628 1_455
O6 Sm2 2.376890 1_455
O6 Sm5 2.396592 1_556
O7 Sm7 2.343634 1_555
O7 Sm3 2.376881 1_555
O7 Sm4 2.396585 1_565
O8 Sm0 2.378832 1_565
O8 Sm7 2.478463 1_655
O8 Sm2 2.494627 1_555
O9 Sm1 2.378835 1_556
O9 Sm6 2.478460 1_555
O9 Sm0 2.494624 1_555
O10 Sm2 2.378836 1_554
O10 Sm5 2.478469 1_655
O10 Sm3 2.494623 1_555
O11 Sm3 2.378828 1_545
O11 Sm4 2.478460 1_555
O11 Sm1 2.494624 1_555
O12 Sm3 2.378832 1_545
O12 Sm4 2.478466 1_455
O12 Sm1 2.494620 1_555
O13 Sm2 2.378828 1_554
O13 Sm5 2.478469 1_555
O13 Sm3 2.494624 1_555
O14 Sm1 2.378828 1_556
O14 Sm6 2.478463 1_455
O14 Sm0 2.494623 1_555
O15 Sm0 2.378832 1_565
O15 Sm7 2.478460 1_555
O15 Sm2 2.494620 1_555
O16 Sm7 2.655547 1_555
O17 Sm1 2.394771 1_555
O17 Sm2 2.394771 1_544
O17 Sm3 2.394771 1_545
O17 Sm0 2.394771 1_554
O18 Sm4 2.655557 1_555
O19 Sm6 2.655547 1_555
O20 Sm5 2.655548 1_555
