# generated using pymatgen
data_Pr3Si11Pt23
_symmetry_space_group_name_H-M   'P 1'
_cell_length_a   12.06951372
_cell_length_b   12.06951372
_cell_length_c   12.06951372
_cell_angle_alpha   60.00000000
_cell_angle_beta   60.00000000
_cell_angle_gamma   60.00000000
_symmetry_Int_Tables_number   1
_chemical_formula_structural   Pr3Si11Pt23
_chemical_formula_sum   'Pr6 Si22 Pt46'
_cell_volume   1243.23812839
_cell_formula_units_Z   2
loop_
 _symmetry_equiv_pos_site_id
 _symmetry_equiv_pos_as_xyz
  1  'x, y, z'
loop_
 _atom_site_type_symbol
 _atom_site_label
 _atom_site_symmetry_multiplicity
 _atom_site_fract_x
 _atom_site_fract_y
 _atom_site_fract_z
 _atom_site_occupancy
  Pr  Pr0  1  0.00000000  0.00000000  0.50000000  1
  Pr  Pr1  1  0.50000000  0.00000000  0.50000000  1
  Pr  Pr2  1  0.00000000  0.50000000  0.50000000  1
  Pr  Pr3  1  0.50000000  0.50000000  0.00000000  1
  Pr  Pr4  1  0.00000000  0.50000000  0.00000000  1
  Pr  Pr5  1  0.50000000  0.00000000  0.00000000  1
  Si  Si0  1  0.82877700  0.82877700  0.17122300  1
  Si  Si1  1  0.17122300  0.82877700  0.17122300  1
  Si  Si2  1  0.82877700  0.17122300  0.17122300  1
  Si  Si3  1  0.17122300  0.17122300  0.82877700  1
  Si  Si4  1  0.82877700  0.17122300  0.82877700  1
  Si  Si5  1  0.17122300  0.82877700  0.82877700  1
  Si  Si6  1  0.83455500  0.83455500  0.49633600  1
  Si  Si7  1  0.83455500  0.49633600  0.83455500  1
  Si  Si8  1  0.49633600  0.83455500  0.83455500  1
  Si  Si9  1  0.83455500  0.83455500  0.83455500  1
  Si  Si10  1  0.16544500  0.16544500  0.50366400  1
  Si  Si11  1  0.16544500  0.50366400  0.16544500  1
  Si  Si12  1  0.50366400  0.16544500  0.16544500  1
  Si  Si13  1  0.16544500  0.16544500  0.16544500  1
  Si  Si14  1  0.60655600  0.60655600  0.18033300  1
  Si  Si15  1  0.60655600  0.18033300  0.60655600  1
  Si  Si16  1  0.18033300  0.60655600  0.60655600  1
  Si  Si17  1  0.60655600  0.60655600  0.60655600  1
  Si  Si18  1  0.39344400  0.39344400  0.81966700  1
  Si  Si19  1  0.39344400  0.81966700  0.39344400  1
  Si  Si20  1  0.81966700  0.39344400  0.39344400  1
  Si  Si21  1  0.39344400  0.39344400  0.39344400  1
  Pt  Pt0  1  0.91715900  0.91715900  0.24852400  1
  Pt  Pt1  1  0.91715900  0.24852400  0.91715900  1
  Pt  Pt2  1  0.24852400  0.91715900  0.91715900  1
  Pt  Pt3  1  0.91715900  0.91715900  0.91715900  1
  Pt  Pt4  1  0.08284100  0.08284100  0.75147600  1
  Pt  Pt5  1  0.08284100  0.75147600  0.08284100  1
  Pt  Pt6  1  0.75147600  0.08284100  0.08284100  1
  Pt  Pt7  1  0.08284100  0.08284100  0.08284100  1
  Pt  Pt8  1  0.69171100  0.69171100  0.92486800  1
  Pt  Pt9  1  0.69171100  0.92486800  0.69171100  1
  Pt  Pt10  1  0.92486800  0.69171100  0.69171100  1
  Pt  Pt11  1  0.69171100  0.69171100  0.69171100  1
  Pt  Pt12  1  0.30828900  0.30828900  0.07513200  1
  Pt  Pt13  1  0.30828900  0.07513200  0.30828900  1
  Pt  Pt14  1  0.07513200  0.30828900  0.30828900  1
  Pt  Pt15  1  0.30828900  0.30828900  0.30828900  1
  Pt  Pt16  1  0.62571000  0.62571000  0.37429000  1
  Pt  Pt17  1  0.37429000  0.62571000  0.37429000  1
  Pt  Pt18  1  0.62571000  0.37429000  0.37429000  1
  Pt  Pt19  1  0.37429000  0.37429000  0.62571000  1
  Pt  Pt20  1  0.62571000  0.37429000  0.62571000  1
  Pt  Pt21  1  0.37429000  0.62571000  0.62571000  1
  Pt  Pt22  1  0.74797600  0.08309000  0.42095900  1
  Pt  Pt23  1  0.74797600  0.74797600  0.42095900  1
  Pt  Pt24  1  0.08309000  0.74797600  0.42095900  1
  Pt  Pt25  1  0.74797600  0.42095900  0.08309000  1
  Pt  Pt26  1  0.08309000  0.42095900  0.74797600  1
  Pt  Pt27  1  0.74797600  0.42095900  0.74797600  1
  Pt  Pt28  1  0.42095900  0.74797600  0.74797600  1
  Pt  Pt29  1  0.42095900  0.08309000  0.74797600  1
  Pt  Pt30  1  0.42095900  0.74797600  0.08309000  1
  Pt  Pt31  1  0.08309000  0.74797600  0.74797600  1
  Pt  Pt32  1  0.74797600  0.74797600  0.08309000  1
  Pt  Pt33  1  0.74797600  0.08309000  0.74797600  1
  Pt  Pt34  1  0.25202400  0.91691000  0.57904100  1
  Pt  Pt35  1  0.25202400  0.25202400  0.57904100  1
  Pt  Pt36  1  0.91691000  0.25202400  0.57904100  1
  Pt  Pt37  1  0.25202400  0.57904100  0.91691000  1
  Pt  Pt38  1  0.91691000  0.57904100  0.25202400  1
  Pt  Pt39  1  0.25202400  0.57904100  0.25202400  1
  Pt  Pt40  1  0.57904100  0.25202400  0.25202400  1
  Pt  Pt41  1  0.57904100  0.91691000  0.25202400  1
  Pt  Pt42  1  0.57904100  0.25202400  0.91691000  1
  Pt  Pt43  1  0.91691000  0.25202400  0.25202400  1
  Pt  Pt44  1  0.25202400  0.25202400  0.91691000  1
  Pt  Pt45  1  0.25202400  0.91691000  0.25202400  1
loop_
_geom_bond_atom_site_label_1
_geom_bond_atom_site_label_2
_geom_bond_distance
_geom_bond_site_symmetry_2
Pr0 Pt36 3.172229 1_455
Pr0 Pt34 3.172229 1_545
Pr0 Pt22 3.172229 1_455
Pr0 Pt24 3.172229 1_545
Pr0 Pt33 3.172237 1_455
Pr0 Pt31 3.172237 1_545
Pr0 Pt43 3.172237 1_455
Pr0 Pt45 3.172237 1_545
Pr1 Pt35 3.172233 1_555
Pr1 Pt40 3.172233 1_555
Pr1 Pt23 3.172233 1_545
Pr1 Pt28 3.172233 1_545
Pr1 Pt22 3.172241 1_555
Pr1 Pt29 3.172241 1_555
Pr1 Pt34 3.172241 1_545
Pr1 Pt41 3.172241 1_545
Pr2 Pt35 3.172233 1_555
Pr2 Pt39 3.172233 1_555
Pr2 Pt23 3.172233 1_455
Pr2 Pt27 3.172233 1_455
Pr2 Pt26 3.172241 1_555
Pr2 Pt24 3.172241 1_555
Pr2 Pt38 3.172241 1_455
Pr2 Pt36 3.172241 1_455
Pr3 Pt39 3.172233 1_555
Pr3 Pt40 3.172233 1_555
Pr3 Pt28 3.172233 1_554
Pr3 Pt27 3.172233 1_554
Pr3 Pt30 3.172241 1_555
Pr3 Pt25 3.172241 1_555
Pr3 Pt37 3.172241 1_554
Pr3 Pt42 3.172241 1_554
Pr4 Pt37 3.172229 1_554
Pr4 Pt38 3.172229 1_455
Pr4 Pt26 3.172229 1_554
Pr4 Pt25 3.172229 1_455
Pr4 Pt31 3.172237 1_554
Pr4 Pt32 3.172237 1_455
Pr4 Pt44 3.172237 1_554
Pr4 Pt43 3.172237 1_455
Pr5 Pt42 3.172229 1_554
Pr5 Pt41 3.172229 1_545
Pr5 Pt29 3.172229 1_554
Pr5 Pt30 3.172229 1_545
Pr5 Pt32 3.172237 1_545
Pr5 Pt33 3.172237 1_554
Pr5 Pt44 3.172237 1_554
Pr5 Pt45 3.172237 1_545
Pt0 Si6 2.442117 1_555
Pt0 Si2 2.504919 1_565
Pt0 Si1 2.504919 1_655
Pt0 Si0 2.504929 1_555
Pt1 Si7 2.442117 1_555
Pt1 Si3 2.504919 1_655
Pt1 Si2 2.504919 1_556
Pt1 Si4 2.504929 1_555
Pt2 Si8 2.442117 1_555
Pt2 Si1 2.504919 1_556
Pt2 Si3 2.504919 1_565
Pt2 Si5 2.504929 1_555
Pt3 Si9 2.442117 1_555
Pt3 Si4 2.504919 1_565
Pt3 Si0 2.504919 1_556
Pt3 Si5 2.504919 1_655
Pt4 Si10 2.442117 1_555
Pt4 Si5 2.504919 1_545
Pt4 Si4 2.504919 1_455
Pt4 Si3 2.504929 1_555
Pt5 Si11 2.442117 1_555
Pt5 Si0 2.504919 1_455
Pt5 Si5 2.504919 1_554
Pt5 Si1 2.504929 1_555
Pt6 Si12 2.442117 1_555
Pt6 Si0 2.504919 1_545
Pt6 Si4 2.504919 1_554
Pt6 Si2 2.504929 1_555
Pt7 Si13 2.442117 1_555
Pt7 Si1 2.504919 1_545
Pt7 Si3 2.504919 1_554
Pt7 Si2 2.504919 1_455
Pt8 Si14 2.517535 1_556
Pt8 Si9 2.519273 1_555
Pt8 Si7 2.519273 1_555
Pt8 Si8 2.519273 1_555
Pt9 Si15 2.517535 1_565
Pt9 Si9 2.519273 1_555
Pt9 Si8 2.519273 1_555
Pt9 Si6 2.519273 1_555
Pt10 Si16 2.517535 1_655
Pt10 Si9 2.519273 1_555
Pt10 Si6 2.519273 1_555
Pt10 Si7 2.519273 1_555
Pt11 Si17 2.517535 1_555
Pt11 Si7 2.519273 1_555
Pt11 Si8 2.519273 1_555
Pt11 Si6 2.519273 1_555
Pt12 Si18 2.517535 1_554
Pt12 Si11 2.519273 1_555
Pt12 Si12 2.519273 1_555
Pt12 Si13 2.519273 1_555
Pt13 Si19 2.517535 1_545
Pt13 Si10 2.519273 1_555
Pt13 Si12 2.519273 1_555
Pt13 Si13 2.519273 1_555
Pt14 Si20 2.517535 1_455
Pt14 Si10 2.519273 1_555
Pt14 Si11 2.519273 1_555
Pt14 Si13 2.519273 1_555
Pt15 Si21 2.517535 1_555
Pt15 Si11 2.519273 1_555
Pt15 Si10 2.519273 1_555
Pt15 Si12 2.519273 1_555
Pt16 Si14 2.592841 1_555
Pt16 Si20 2.592848 1_555
Pt16 Si19 2.592848 1_555
Pt16 Si17 2.592853 1_555
Pt17 Si19 2.592841 1_555
Pt17 Si14 2.592848 1_555
Pt17 Si16 2.592848 1_555
Pt17 Si21 2.592853 1_555
Pt18 Si20 2.592841 1_555
Pt18 Si15 2.592848 1_555
Pt18 Si14 2.592848 1_555
Pt18 Si21 2.592853 1_555
Pt19 Si18 2.592841 1_555
Pt19 Si15 2.592848 1_555
Pt19 Si16 2.592848 1_555
Pt19 Si21 2.592853 1_555
Pt20 Si15 2.592841 1_555
Pt20 Si18 2.592848 1_555
Pt20 Si20 2.592848 1_555
Pt20 Si17 2.592853 1_555
Pt21 Si16 2.592841 1_555
Pt21 Si18 2.592848 1_555
Pt21 Si19 2.592848 1_555
Pt21 Si17 2.592853 1_555
Pt22 Si6 2.450486 1_545
Pt22 Si2 2.461608 1_555
Pt22 Si15 2.472066 1_555
Pt23 Si6 2.450486 1_555
Pt23 Si0 2.461608 1_555
Pt23 Si17 2.472066 1_555
Pt24 Si6 2.450486 1_455
Pt24 Si1 2.461608 1_555
Pt24 Si16 2.472066 1_555
Pt25 Si7 2.450486 1_554
Pt25 Si2 2.461608 1_555
Pt25 Si14 2.472066 1_555
Pt26 Si7 2.450486 1_455
Pt26 Si3 2.461608 1_555
Pt26 Si16 2.472066 1_555
Pt27 Si7 2.450486 1_555
Pt27 Si4 2.461608 1_555
Pt27 Si17 2.472066 1_555
Pt28 Si8 2.450486 1_555
Pt28 Si5 2.461608 1_555
Pt28 Si17 2.472066 1_555
Pt29 Si8 2.450486 1_545
Pt29 Si3 2.461608 1_555
Pt29 Si15 2.472066 1_555
Pt30 Si8 2.450486 1_554
Pt30 Si1 2.461608 1_555
Pt30 Si14 2.472066 1_555
Pt31 Si9 2.450486 1_455
Pt31 Si5 2.461598 1_555
Pt31 Si16 2.472066 1_555
Pt32 Si9 2.450486 1_554
Pt32 Si0 2.461598 1_555
Pt32 Si14 2.472066 1_555
Pt33 Si9 2.450486 1_545
Pt33 Si4 2.461598 1_555
Pt33 Si15 2.472066 1_555
Pt34 Si10 2.450486 1_565
Pt34 Si5 2.461608 1_555
Pt34 Si19 2.472066 1_555
Pt35 Si10 2.450486 1_555
Pt35 Si3 2.461608 1_555
Pt35 Si21 2.472066 1_555
Pt36 Si10 2.450486 1_655
Pt36 Si4 2.461608 1_555
Pt36 Si20 2.472066 1_555
Pt37 Si11 2.450486 1_556
Pt37 Si5 2.461608 1_555
Pt37 Si18 2.472066 1_555
Pt38 Si11 2.450486 1_655
Pt38 Si0 2.461608 1_555
Pt38 Si20 2.472066 1_555
Pt39 Si11 2.450486 1_555
Pt39 Si1 2.461608 1_555
Pt39 Si21 2.472066 1_555
Pt40 Si12 2.450486 1_555
Pt40 Si2 2.461608 1_555
Pt40 Si21 2.472066 1_555
Pt41 Si12 2.450486 1_565
Pt41 Si0 2.461608 1_555
Pt41 Si19 2.472066 1_555
Pt42 Si12 2.450486 1_556
Pt42 Si4 2.461608 1_555
Pt42 Si18 2.472066 1_555
Pt43 Si13 2.450486 1_655
Pt43 Si2 2.461598 1_555
Pt43 Si20 2.472066 1_555
Pt44 Si13 2.450486 1_556
Pt44 Si3 2.461598 1_555
Pt44 Si18 2.472066 1_555
Pt45 Si13 2.450486 1_565
Pt45 Si1 2.461598 1_555
Pt45 Si19 2.472066 1_555
