# generated using pymatgen
data_Ta3V3(Ni10B3)4
_symmetry_space_group_name_H-M   'P 1'
_cell_length_a   12.85237057
_cell_length_b   12.85237057
_cell_length_c   12.85237057
_cell_angle_alpha   33.68626377
_cell_angle_beta   33.68626377
_cell_angle_gamma   33.68626427
_symmetry_Int_Tables_number   1
_chemical_formula_structural   Ta3V3(Ni10B3)4
_chemical_formula_sum   'Ta3 V3 Ni40 B12'
_cell_volume   581.85537255
_cell_formula_units_Z   1
loop_
 _symmetry_equiv_pos_site_id
 _symmetry_equiv_pos_as_xyz
  1  'x, y, z'
loop_
 _atom_site_type_symbol
 _atom_site_label
 _atom_site_symmetry_multiplicity
 _atom_site_fract_x
 _atom_site_fract_y
 _atom_site_fract_z
 _atom_site_occupancy
  Ta  Ta0  1  0.99999600  0.99999600  0.99999600  1
  Ta  Ta1  1  0.49999100  0.49999100  0.49999100  1
  Ta  Ta2  1  0.37504100  0.37504100  0.37504100  1
  V  V0  1  0.87492800  0.87492800  0.87492800  1
  V  V1  1  0.12505600  0.12505600  0.12505600  1
  V  V2  1  0.62506900  0.62506900  0.62506900  1
  Ni  Ni0  1  0.65692400  0.34294900  0.99965100  1
  Ni  Ni1  1  0.15716100  0.84277500  0.50062200  1
  Ni  Ni2  1  0.82807200  0.17172200  0.17172200  1
  Ni  Ni3  1  0.32775100  0.67162000  0.67162000  1
  Ni  Ni4  1  0.65692400  0.99965100  0.34294900  1
  Ni  Ni5  1  0.15716100  0.50062200  0.84277500  1
  Ni  Ni6  1  0.17172200  0.17172200  0.82807200  1
  Ni  Ni7  1  0.67162000  0.67162000  0.32775100  1
  Ni  Ni8  1  0.99965100  0.34294900  0.65692400  1
  Ni  Ni9  1  0.50062200  0.84277500  0.15716100  1
  Ni  Ni10  1  0.84277500  0.50062200  0.15716100  1
  Ni  Ni11  1  0.34294900  0.99965100  0.65692400  1
  Ni  Ni12  1  0.32826800  0.32826800  0.67241900  1
  Ni  Ni13  1  0.82853900  0.82853900  0.17128800  1
  Ni  Ni14  1  0.67241900  0.32826800  0.32826800  1
  Ni  Ni15  1  0.17128800  0.82853900  0.82853900  1
  Ni  Ni16  1  0.32826800  0.67241900  0.32826800  1
  Ni  Ni17  1  0.82853900  0.17128800  0.82853900  1
  Ni  Ni18  1  0.34294900  0.65692400  0.99965100  1
  Ni  Ni19  1  0.84277500  0.15716100  0.50062200  1
  Ni  Ni20  1  0.99965100  0.65692400  0.34294900  1
  Ni  Ni21  1  0.50062200  0.15716100  0.84277500  1
  Ni  Ni22  1  0.17172200  0.82807200  0.17172200  1
  Ni  Ni23  1  0.67162000  0.32775100  0.67162000  1
  Ni  Ni24  1  0.03468900  0.57912500  0.57912500  1
  Ni  Ni25  1  0.54499700  0.07300700  0.07300700  1
  Ni  Ni26  1  0.57912500  0.57912500  0.03468900  1
  Ni  Ni27  1  0.07300700  0.07300700  0.54499700  1
  Ni  Ni28  1  0.80903700  0.80903700  0.80903700  1
  Ni  Ni29  1  0.30690100  0.30690100  0.30690100  1
  Ni  Ni30  1  0.57912500  0.03468900  0.57912500  1
  Ni  Ni31  1  0.07300700  0.54499700  0.07300700  1
  Ni  Ni32  1  0.45313400  0.92871800  0.92871800  1
  Ni  Ni33  1  0.95215500  0.42812400  0.42812400  1
  Ni  Ni34  1  0.92871800  0.92871800  0.45313400  1
  Ni  Ni35  1  0.42812400  0.42812400  0.95215500  1
  Ni  Ni36  1  0.69000600  0.69000600  0.69000600  1
  Ni  Ni37  1  0.19105700  0.19105700  0.19105700  1
  Ni  Ni38  1  0.92871800  0.45313400  0.92871800  1
  Ni  Ni39  1  0.42812400  0.95215500  0.42812400  1
  B  B0  1  0.86677900  0.86677900  0.40013000  1
  B  B1  1  0.36649500  0.36649500  0.90105000  1
  B  B2  1  0.09917200  0.63382500  0.63382500  1
  B  B3  1  0.59956400  0.13294500  0.13294500  1
  B  B4  1  0.86677900  0.40013000  0.86677900  1
  B  B5  1  0.36649500  0.90105000  0.36649500  1
  B  B6  1  0.63382500  0.63382500  0.09917200  1
  B  B7  1  0.13294500  0.13294500  0.59956400  1
  B  B8  1  0.40013000  0.86677900  0.86677900  1
  B  B9  1  0.90105000  0.36649500  0.36649500  1
  B  B10  1  0.63382500  0.09917200  0.63382500  1
  B  B11  1  0.13294500  0.59956400  0.13294500  1
loop_
_geom_bond_atom_site_label_1
_geom_bond_atom_site_label_2
_geom_bond_distance
_geom_bond_site_symmetry_2
Ni0 Ta0 2.554767 1_545
Ni0 Ta2 2.882575 1_556
Ni1 Ta1 2.553241 1_555
Ni2 Ta0 2.549443 1_544
Ni2 Ta2 2.877767 1_555
Ni3 Ta1 2.544959 1_555
Ni4 Ta0 2.554767 1_554
Ni4 Ta2 2.882575 1_565
Ni5 Ta1 2.553241 1_555
Ni6 Ta0 2.549443 1_445
Ni6 Ta2 2.877767 1_555
Ni7 Ta1 2.544959 1_555
Ni8 Ta0 2.554767 1_545
Ni8 Ta2 2.882575 1_655
Ni9 Ta1 2.553241 1_555
Ni10 Ta1 2.553241 1_555
Ni11 Ta0 2.554767 1_455
Ni11 Ta2 2.882575 1_565
Ni12 Ta1 2.545664 1_555
Ni12 Ta2 2.878328 1_555
Ni13 Ta0 2.548128 1_554
Ni14 Ta1 2.545664 1_555
Ni14 Ta2 2.878328 1_555
Ni15 Ta0 2.548128 1_455
Ni16 Ta1 2.545664 1_555
Ni16 Ta2 2.878328 1_555
Ni17 Ta0 2.548128 1_545
Ni18 Ta0 2.554767 1_455
Ni18 Ta2 2.882575 1_556
Ni19 Ta1 2.553241 1_555
Ni20 Ta0 2.554767 1_554
Ni20 Ta2 2.882575 1_655
Ni21 Ta1 2.553241 1_555
Ni22 Ta0 2.549443 1_454
Ni22 Ta2 2.877767 1_555
Ni23 Ta1 2.544959 1_555
Ni24 Ta2 2.481039 1_555
Ni25 V0 2.408022 1_544
Ni26 Ta2 2.481039 1_555
Ni27 V0 2.408022 1_445
Ni28 V0 2.394150 1_555
Ni29 Ta2 2.475867 1_555
Ni30 Ta2 2.481039 1_555
Ni31 V0 2.408022 1_454
Ni32 V1 2.386916 1_566
Ni33 V2 2.394249 1_555
Ni34 V1 2.386916 1_665
Ni35 V2 2.394249 1_555
Ni36 V2 2.359486 1_555
Ni37 V1 2.398146 1_555
Ni38 V1 2.386916 1_656
Ni39 V2 2.394249 1_555
B0 Ni22 2.065059 1_655
B0 Ni2 2.065059 1_565
B0 Ni4 2.067826 1_555
B0 Ni20 2.067826 1_555
B0 Ni24 2.109082 1_655
B0 Ni30 2.109082 1_565
B0 Ni34 2.142680 1_555
B0 Ni36 2.149717 1_555
B1 Ni5 2.063385 1_555
B1 Ni21 2.063385 1_555
B1 Ni3 2.066783 1_555
B1 Ni23 2.066783 1_555
B1 Ni35 2.112311 1_555
B1 Ni31 2.130517 1_556
B1 Ni25 2.130517 1_556
B1 Ni37 2.132923 1_556
B2 Ni1 2.062682 1_555
B2 Ni5 2.062682 1_555
B2 Ni16 2.069724 1_555
B2 Ni12 2.069724 1_555
B2 Ni24 2.106433 1_555
B2 Ni28 2.130110 1_455
B2 Ni38 2.135035 1_455
B2 Ni34 2.135036 1_455
B3 Ni17 2.062568 1_554
B3 Ni13 2.062568 1_545
B3 Ni0 2.068299 1_554
B3 Ni4 2.068299 1_545
B3 Ni25 2.112922 1_555
B3 Ni29 2.115152 1_555
B3 Ni39 2.141458 1_545
B3 Ni35 2.141458 1_554
B4 Ni2 2.065059 1_556
B4 Ni6 2.065059 1_655
B4 Ni0 2.067826 1_555
B4 Ni8 2.067826 1_555
B4 Ni24 2.109082 1_655
B4 Ni26 2.109082 1_556
B4 Ni38 2.142680 1_555
B4 Ni36 2.149718 1_555
B5 Ni1 2.063385 1_555
B5 Ni9 2.063385 1_555
B5 Ni3 2.066783 1_555
B5 Ni7 2.066783 1_555
B5 Ni39 2.112311 1_555
B5 Ni25 2.130517 1_565
B5 Ni27 2.130517 1_565
B5 Ni37 2.132924 1_565
B6 Ni9 2.062682 1_555
B6 Ni10 2.062682 1_555
B6 Ni16 2.069724 1_555
B6 Ni14 2.069724 1_555
B6 Ni26 2.106433 1_555
B6 Ni28 2.130110 1_554
B6 Ni32 2.135036 1_554
B6 Ni38 2.135036 1_554
B7 Ni17 2.062568 1_455
B7 Ni15 2.062568 1_545
B7 Ni11 2.068299 1_545
B7 Ni8 2.068299 1_455
B7 Ni27 2.112922 1_555
B7 Ni29 2.115152 1_555
B7 Ni33 2.141458 1_455
B7 Ni39 2.141458 1_545
B8 Ni22 2.065059 1_556
B8 Ni6 2.065059 1_565
B8 Ni18 2.067826 1_555
B8 Ni11 2.067826 1_555
B8 Ni30 2.109082 1_565
B8 Ni26 2.109082 1_556
B8 Ni32 2.142680 1_555
B8 Ni36 2.149718 1_555
B9 Ni19 2.063385 1_555
B9 Ni10 2.063385 1_555
B9 Ni23 2.066783 1_555
B9 Ni7 2.066783 1_555
B9 Ni33 2.112311 1_555
B9 Ni31 2.130517 1_655
B9 Ni27 2.130517 1_655
B9 Ni37 2.132924 1_655
B10 Ni19 2.062682 1_555
B10 Ni21 2.062682 1_555
B10 Ni14 2.069724 1_555
B10 Ni12 2.069724 1_555
B10 Ni30 2.106433 1_555
B10 Ni28 2.130110 1_545
B10 Ni32 2.135035 1_545
B10 Ni34 2.135036 1_545
B11 Ni15 2.062568 1_554
B11 Ni13 2.062568 1_455
B11 Ni18 2.068299 1_554
B11 Ni20 2.068299 1_455
B11 Ni31 2.112922 1_555
B11 Ni29 2.115152 1_555
B11 Ni33 2.141458 1_455
B11 Ni35 2.141458 1_554
