# generated using pymatgen
data_Na3B6BrO10
_symmetry_space_group_name_H-M   'P 1'
_cell_length_a   7.57983700
_cell_length_b   9.99154600
_cell_length_c   12.87883600
_cell_angle_alpha   90.00000000
_cell_angle_beta   90.00000000
_cell_angle_gamma   90.00000000
_symmetry_Int_Tables_number   1
_chemical_formula_structural   Na3B6BrO10
_chemical_formula_sum   'Na12 B24 Br4 O40'
_cell_volume   975.36950123
_cell_formula_units_Z   4
loop_
 _symmetry_equiv_pos_site_id
 _symmetry_equiv_pos_as_xyz
  1  'x, y, z'
loop_
 _atom_site_type_symbol
 _atom_site_label
 _atom_site_symmetry_multiplicity
 _atom_site_fract_x
 _atom_site_fract_y
 _atom_site_fract_z
 _atom_site_occupancy
  Na  Na0  1  0.50000000  0.00000000  0.50000000  1
  Na  Na1  1  0.00000000  0.50000000  0.00000000  1
  Na  Na2  1  0.50000000  0.50000000  0.50000000  1
  Na  Na3  1  0.00000000  0.00000000  0.00000000  1
  Na  Na4  1  0.85265500  0.75000000  0.20331200  1
  Na  Na5  1  0.64734500  0.75000000  0.70331200  1
  Na  Na6  1  0.14734500  0.25000000  0.79668800  1
  Na  Na7  1  0.35265500  0.25000000  0.29668800  1
  Na  Na8  1  0.50000000  0.50000000  0.00000000  1
  Na  Na9  1  0.00000000  0.00000000  0.50000000  1
  Na  Na10  1  0.50000000  0.00000000  0.00000000  1
  Na  Na11  1  0.00000000  0.50000000  0.50000000  1
  B  B0  1  0.48787200  0.51782700  0.23061300  1
  B  B1  1  0.01212800  0.98217300  0.73061300  1
  B  B2  1  0.51212800  0.01782700  0.76938700  1
  B  B3  1  0.98787200  0.48217300  0.26938700  1
  B  B4  1  0.51212800  0.48217300  0.76938700  1
  B  B5  1  0.98787200  0.01782700  0.26938700  1
  B  B6  1  0.48787200  0.98217300  0.23061300  1
  B  B7  1  0.01212800  0.51782700  0.73061300  1
  B  B8  1  0.24918200  0.88066700  0.33713000  1
  B  B9  1  0.25081800  0.61933300  0.83713000  1
  B  B10  1  0.75081800  0.38066700  0.66287000  1
  B  B11  1  0.74918200  0.11933300  0.16287000  1
  B  B12  1  0.75081800  0.11933300  0.66287000  1
  B  B13  1  0.74918200  0.38066700  0.16287000  1
  B  B14  1  0.24918200  0.61933300  0.33713000  1
  B  B15  1  0.25081800  0.88066700  0.83713000  1
  B  B16  1  0.39487400  0.75000000  0.18383200  1
  B  B17  1  0.10512600  0.75000000  0.68383200  1
  B  B18  1  0.60512600  0.25000000  0.81616800  1
  B  B19  1  0.89487400  0.25000000  0.31616800  1
  B  B20  1  0.25728900  0.75000000  0.00494100  1
  B  B21  1  0.24271100  0.75000000  0.50494100  1
  B  B22  1  0.74271100  0.25000000  0.99505900  1
  B  B23  1  0.75728900  0.25000000  0.49505900  1
  Br  Br0  1  0.78787200  0.75000000  0.95618200  1
  Br  Br1  1  0.71212800  0.75000000  0.45618200  1
  Br  Br2  1  0.21212800  0.25000000  0.04381800  1
  Br  Br3  1  0.28787200  0.25000000  0.54381800  1
  O  O0  1  0.24849300  0.75000000  0.11051700  1
  O  O1  1  0.25150700  0.75000000  0.61051700  1
  O  O2  1  0.75150700  0.25000000  0.88948300  1
  O  O3  1  0.74849300  0.25000000  0.38948300  1
  O  O4  1  0.32118900  0.75000000  0.29414100  1
  O  O5  1  0.17881100  0.75000000  0.79414100  1
  O  O6  1  0.67881100  0.25000000  0.70585900  1
  O  O7  1  0.82118900  0.25000000  0.20585900  1
  O  O8  1  0.37247500  0.51070100  0.31347600  1
  O  O9  1  0.12752500  0.98929900  0.81347600  1
  O  O10  1  0.62752500  0.01070100  0.68652400  1
  O  O11  1  0.87247500  0.48929900  0.18652400  1
  O  O12  1  0.62752500  0.48929900  0.68652400  1
  O  O13  1  0.87247500  0.01070100  0.18652400  1
  O  O14  1  0.37247500  0.98929900  0.31347600  1
  O  O15  1  0.12752500  0.51070100  0.81347600  1
  O  O16  1  0.57571100  0.40178300  0.20811600  1
  O  O17  1  0.92428900  0.09821700  0.70811600  1
  O  O18  1  0.42428900  0.90178300  0.79188400  1
  O  O19  1  0.07571100  0.59821700  0.29188400  1
  O  O20  1  0.42428900  0.59821700  0.79188400  1
  O  O21  1  0.07571100  0.90178300  0.29188400  1
  O  O22  1  0.57571100  0.09821700  0.20811600  1
  O  O23  1  0.92428900  0.40178300  0.70811600  1
  O  O24  1  0.50660100  0.63036900  0.17053300  1
  O  O25  1  0.99339900  0.86963100  0.67053300  1
  O  O26  1  0.49339900  0.13036900  0.82946700  1
  O  O27  1  0.00660100  0.36963100  0.32946700  1
  O  O28  1  0.49339900  0.36963100  0.82946700  1
  O  O29  1  0.00660100  0.13036900  0.32946700  1
  O  O30  1  0.50660100  0.86963100  0.17053300  1
  O  O31  1  0.99339900  0.63036900  0.67053300  1
  O  O32  1  0.24089300  0.87020800  0.45170800  1
  O  O33  1  0.25910700  0.62979200  0.95170800  1
  O  O34  1  0.75910700  0.37020800  0.54829200  1
  O  O35  1  0.74089300  0.12979200  0.04829200  1
  O  O36  1  0.75910700  0.12979200  0.54829200  1
  O  O37  1  0.74089300  0.37020800  0.04829200  1
  O  O38  1  0.24089300  0.62979200  0.45170800  1
  O  O39  1  0.25910700  0.87020800  0.95170800  1
loop_
_geom_bond_atom_site_label_1
_geom_bond_atom_site_label_2
_geom_bond_distance
_geom_bond_site_symmetry_2
Na0 O36 2.434300 1_555
Na0 O32 2.434300 1_545
Na0 O10 2.591603 1_555
Na0 O14 2.591603 1_545
Na1 O33 2.434300 1_554
Na1 O37 2.434300 1_455
Na1 O11 2.591603 1_455
Na1 O15 2.591603 1_554
Na2 O34 2.434300 1_555
Na2 O38 2.434300 1_555
Na2 O12 2.591603 1_555
Na2 O8 2.591603 1_555
Na3 O39 2.434300 1_544
Na3 O35 2.434300 1_455
Na3 O13 2.591603 1_455
Na3 O9 2.591603 1_544
Na4 O19 2.541590 1_655
Na4 O21 2.541590 1_655
Na4 O13 2.618078 1_565
Na4 O11 2.618078 1_555
Na4 O30 2.913289 1_555
Na4 O24 2.913289 1_555
Na5 O20 2.541590 1_555
Na5 O18 2.541590 1_555
Na5 O10 2.618078 1_565
Na5 O12 2.618078 1_555
Na5 O25 2.913289 1_555
Na5 O31 2.913289 1_555
Na6 O17 2.541590 1_455
Na6 O23 2.541590 1_455
Na6 O15 2.618078 1_555
Na6 O9 2.618078 1_545
Na6 O28 2.913289 1_555
Na6 O26 2.913289 1_555
Na7 O22 2.541590 1_555
Na7 O16 2.541590 1_555
Na7 O8 2.618078 1_555
Na7 O14 2.618078 1_545
Na7 O27 2.913289 1_555
Na7 O29 2.913289 1_555
Na8 O37 2.324346 1_555
Na8 O33 2.324346 1_554
Na8 O24 2.553982 1_555
Na8 O28 2.553982 1_554
Na9 O32 2.324346 1_545
Na9 O36 2.324346 1_455
Na9 O29 2.553982 1_555
Na9 O25 2.553982 1_445
Na10 O35 2.324346 1_555
Na10 O39 2.324346 1_544
Na10 O26 2.553982 1_554
Na10 O30 2.553982 1_545
Na11 O34 2.324346 1_455
Na11 O38 2.324346 1_555
Na11 O31 2.553982 1_455
Na11 O27 2.553982 1_555
B0 O16 1.368060 1_555
B0 O24 1.372329 1_555
B0 O8 1.381674 1_555
B1 O17 1.368060 1_465
B1 O25 1.372329 1_455
B1 O9 1.381674 1_555
B2 O18 1.368060 1_545
B2 O26 1.372329 1_555
B2 O10 1.381674 1_555
B3 O19 1.368060 1_655
B3 O27 1.372329 1_655
B3 O11 1.381674 1_555
B4 O20 1.368060 1_555
B4 O28 1.372329 1_555
B4 O12 1.381674 1_555
B5 O21 1.368060 1_645
B5 O29 1.372329 1_655
B5 O13 1.381674 1_555
B6 O22 1.368060 1_565
B6 O30 1.372329 1_555
B6 O14 1.381674 1_555
B7 O23 1.368060 1_455
B7 O31 1.372329 1_455
B7 O15 1.381674 1_555
B8 O21 1.453611 1_555
B8 O14 1.464331 1_555
B8 O32 1.480661 1_555
B8 O4 1.519515 1_555
B9 O20 1.453611 1_555
B9 O15 1.464331 1_555
B9 O33 1.480661 1_555
B9 O5 1.519515 1_555
B10 O23 1.453611 1_555
B10 O12 1.464331 1_555
B10 O34 1.480661 1_555
B10 O6 1.519515 1_555
B11 O22 1.453611 1_555
B11 O13 1.464331 1_555
B11 O35 1.480661 1_555
B11 O7 1.519515 1_555
B12 O17 1.453611 1_555
B12 O10 1.464331 1_555
B12 O36 1.480661 1_555
B12 O6 1.519515 1_555
B13 O16 1.453611 1_555
B13 O11 1.464331 1_555
B13 O37 1.480661 1_555
B13 O7 1.519515 1_555
B14 O19 1.453611 1_555
B14 O8 1.464331 1_555
B14 O38 1.480661 1_555
B14 O4 1.519515 1_555
B15 O18 1.453611 1_555
B15 O9 1.464331 1_555
B15 O39 1.480661 1_555
B15 O5 1.519515 1_555
B16 O0 1.456923 1_555
B16 O30 1.474879 1_555
B16 O24 1.474879 1_555
B16 O4 1.526498 1_555
B17 O1 1.456923 1_555
B17 O25 1.474879 1_455
B17 O31 1.474879 1_455
B17 O5 1.526498 1_555
B18 O2 1.456923 1_555
B18 O28 1.474879 1_555
B18 O26 1.474879 1_555
B18 O6 1.526498 1_555
B19 O3 1.456923 1_555
B19 O27 1.474879 1_655
B19 O29 1.474879 1_655
B19 O7 1.526498 1_555
B20 O0 1.361330 1_555
B20 O39 1.383027 1_554
B20 O33 1.383027 1_554
B21 O1 1.361330 1_555
B21 O32 1.383027 1_555
B21 O38 1.383027 1_555
B22 O2 1.361330 1_555
B22 O37 1.383027 1_556
B22 O35 1.383027 1_556
B23 O3 1.361330 1_555
B23 O34 1.383027 1_555
B23 O36 1.383027 1_555
Br0 Na3 3.023777 1_666
Br0 Na1 3.023777 1_656
Br0 Na4 3.220404 1_556
Br0 Na8 3.364390 1_556
Br0 Na10 3.364390 1_566
Br0 Na5 3.426441 1_555
Br1 Na2 3.023777 1_555
Br1 Na0 3.023777 1_565
Br1 Na5 3.220404 1_555
Br1 Na11 3.364390 1_655
Br1 Na9 3.364390 1_665
Br1 Na4 3.426441 1_555
Br2 Na1 3.023777 1_555
Br2 Na3 3.023777 1_555
Br2 Na6 3.220404 1_554
Br2 Na10 3.364390 1_555
Br2 Na8 3.364390 1_555
Br2 Na7 3.426441 1_555
Br3 Na2 3.023777 1_555
Br3 Na0 3.023777 1_555
Br3 Na7 3.220404 1_555
Br3 Na11 3.364390 1_555
Br3 Na9 3.364390 1_555
Br3 Na6 3.426441 1_555
