# generated using pymatgen
data_Li3SbN2
_symmetry_space_group_name_H-M   'P 1'
_cell_length_a   9.16075700
_cell_length_b   10.57793123
_cell_length_c   10.57793020
_cell_angle_alpha   89.99999804
_cell_angle_beta   125.26439070
_cell_angle_gamma   54.73561327
_symmetry_Int_Tables_number   1
_chemical_formula_structural   Li3SbN2
_chemical_formula_sum   'Li24 Sb8 N16'
_cell_volume   591.79620753
_cell_formula_units_Z   8
loop_
 _symmetry_equiv_pos_site_id
 _symmetry_equiv_pos_as_xyz
  1  'x, y, z'
loop_
 _atom_site_type_symbol
 _atom_site_label
 _atom_site_symmetry_multiplicity
 _atom_site_fract_x
 _atom_site_fract_y
 _atom_site_fract_z
 _atom_site_occupancy
  Li  Li0  1  0.28566200  0.96854400  0.05181000  1
  Li  Li1  1  0.71433800  0.75420600  0.44819000  1
  Li  Li2  1  0.71433800  0.53145600  0.76614700  1
  Li  Li3  1  0.28566200  0.74579400  0.73385300  1
  Li  Li4  1  0.18204300  0.76614700  0.20239700  1
  Li  Li5  1  0.81795700  0.73385300  0.02035400  1
  Li  Li6  1  0.18204300  0.05181000  0.47964600  1
  Li  Li7  1  0.81795700  0.44819000  0.29760300  1
  Li  Li8  1  0.77725000  0.02035400  0.74579400  1
  Li  Li9  1  0.77725000  0.20239700  0.53145600  1
  Li  Li10  1  0.22275000  0.29760300  0.75420600  1
  Li  Li11  1  0.22275000  0.47964600  0.96854400  1
  Li  Li12  1  0.71433800  0.03145600  0.94819000  1
  Li  Li13  1  0.28566200  0.24579400  0.55181000  1
  Li  Li14  1  0.28566200  0.46854400  0.23385300  1
  Li  Li15  1  0.71433800  0.25420600  0.26614700  1
  Li  Li16  1  0.81795700  0.23385300  0.79760300  1
  Li  Li17  1  0.18204300  0.26614700  0.97964600  1
  Li  Li18  1  0.81795700  0.94819000  0.52035400  1
  Li  Li19  1  0.18204300  0.55181000  0.70239700  1
  Li  Li20  1  0.22275000  0.97964600  0.25420600  1
  Li  Li21  1  0.22275000  0.79760300  0.46854400  1
  Li  Li22  1  0.77725000  0.70239700  0.24579400  1
  Li  Li23  1  0.77725000  0.52035400  0.03145600  1
  Sb  Sb0  1  0.28880100  0.00000000  0.78880100  1
  Sb  Sb1  1  0.71119900  0.78880100  0.71119900  1
  Sb  Sb2  1  0.71119900  0.50000000  0.50000000  1
  Sb  Sb3  1  0.28880100  0.71119900  0.00000000  1
  Sb  Sb4  1  0.71119900  0.00000000  0.21119900  1
  Sb  Sb5  1  0.28880100  0.21119900  0.28880100  1
  Sb  Sb6  1  0.28880100  0.50000000  0.50000000  1
  Sb  Sb7  1  0.71119900  0.28880100  0.00000000  1
  N  N0  1  0.00000000  0.00000000  0.50000000  1
  N  N1  1  0.00000000  0.50000000  0.00000000  1
  N  N2  1  0.00000000  0.50000000  0.50000000  1
  N  N3  1  0.00000000  0.00000000  0.00000000  1
  N  N4  1  0.50000000  0.00446300  0.75000000  1
  N  N5  1  0.50000000  0.49553700  0.25000000  1
  N  N6  1  0.00000000  0.25000000  0.75446300  1
  N  N7  1  0.00000000  0.75000000  0.74553700  1
  N  N8  1  0.49107300  0.75446300  0.49553700  1
  N  N9  1  0.50892700  0.74553700  0.00446300  1
  N  N10  1  0.50000000  0.99553700  0.25000000  1
  N  N11  1  0.50000000  0.50446300  0.75000000  1
  N  N12  1  0.00000000  0.75000000  0.24553700  1
  N  N13  1  0.00000000  0.25000000  0.25446300  1
  N  N14  1  0.50892700  0.24553700  0.50446300  1
  N  N15  1  0.49107300  0.25446300  0.99553700  1
loop_
_geom_bond_atom_site_label_1
_geom_bond_atom_site_label_2
_geom_bond_distance
_geom_bond_site_symmetry_2
Li0 N10 2.055754 1_555
Li0 N3 2.144215 1_565
Li0 N9 2.368620 1_555
Li0 Sb3 2.763917 1_555
Li0 Sb0 2.820460 1_564
Li1 N10 2.055754 1_555
Li1 N2 2.144215 1_655
Li1 N8 2.368625 1_555
Li1 Sb2 2.763917 1_555
Li1 Sb1 2.820460 1_555
Li2 N11 2.055759 1_555
Li2 N1 2.144220 1_656
Li2 N8 2.368605 1_555
Li2 Sb1 2.763915 1_555
Li2 Sb2 2.820450 1_555
Li3 N11 2.055759 1_555
Li3 N0 2.144220 1_565
Li3 N9 2.368610 1_556
Li3 Sb0 2.763915 1_565
Li3 Sb3 2.820450 1_556
Li4 N12 2.055750 1_555
Li4 N3 2.144224 1_565
Li4 N5 2.368613 1_555
Li4 Sb3 2.763921 1_555
Li4 Sb2 2.820455 1_555
Li5 N12 2.055750 1_655
Li5 N1 2.144224 1_655
Li5 N4 2.368612 1_564
Li5 Sb1 2.763921 1_554
Li5 Sb0 2.820455 1_564
Li6 N13 2.055750 1_555
Li6 N0 2.144224 1_555
Li6 N4 2.368612 1_555
Li6 Sb0 2.763921 1_555
Li6 Sb1 2.820455 1_545
Li7 N13 2.055750 1_655
Li7 N2 2.144224 1_655
Li7 N5 2.368612 1_555
Li7 Sb2 2.763921 1_555
Li7 Sb3 2.820455 1_555
Li8 N14 2.055755 1_555
Li8 N3 2.144215 1_656
Li8 N7 2.368616 1_645
Li8 Sb3 2.763917 1_646
Li8 Sb1 2.820461 1_545
Li9 N14 2.055750 1_555
Li9 N0 2.144220 1_655
Li9 N6 2.368609 1_655
Li9 Sb0 2.763915 1_655
Li9 Sb2 2.820450 1_555
Li10 N15 2.055755 1_555
Li10 N2 2.144219 1_555
Li10 N6 2.368609 1_555
Li10 Sb2 2.763915 1_455
Li10 Sb0 2.820450 1_555
Li11 N15 2.055750 1_555
Li11 N1 2.144215 1_556
Li11 N7 2.368616 1_555
Li11 Sb1 2.763917 1_455
Li11 Sb3 2.820461 1_556
Li12 N4 2.055754 1_555
Li12 N3 2.144215 1_656
Li12 N15 2.368620 1_555
Li12 Sb7 2.763917 1_556
Li12 Sb4 2.820460 1_556
Li13 N4 2.055754 1_555
Li13 N2 2.144215 1_555
Li13 N14 2.368625 1_555
Li13 Sb6 2.763917 1_555
Li13 Sb5 2.820460 1_555
Li14 N5 2.055759 1_555
Li14 N1 2.144220 1_555
Li14 N14 2.368605 1_555
Li14 Sb5 2.763915 1_555
Li14 Sb6 2.820450 1_555
Li15 N5 2.055759 1_555
Li15 N0 2.144220 1_655
Li15 N15 2.368610 1_554
Li15 Sb4 2.763915 1_555
Li15 Sb7 2.820450 1_555
Li16 N6 2.055750 1_655
Li16 N3 2.144224 1_656
Li16 N11 2.368613 1_555
Li16 Sb7 2.763921 1_556
Li16 Sb6 2.820455 1_555
Li17 N6 2.055750 1_555
Li17 N1 2.144224 1_556
Li17 N10 2.368612 1_546
Li17 Sb5 2.763921 1_556
Li17 Sb4 2.820455 1_556
Li18 N7 2.055750 1_655
Li18 N0 2.144224 1_665
Li18 N10 2.368612 1_555
Li18 Sb4 2.763921 1_565
Li18 Sb5 2.820455 1_565
Li19 N7 2.055750 1_555
Li19 N2 2.144224 1_555
Li19 N11 2.368612 1_555
Li19 Sb6 2.763921 1_555
Li19 Sb7 2.820455 1_556
Li20 N8 2.055755 1_555
Li20 N3 2.144215 1_565
Li20 N13 2.368616 1_565
Li20 Sb7 2.763917 1_465
Li20 Sb5 2.820461 1_565
Li21 N8 2.055750 1_555
Li21 N0 2.144220 1_565
Li21 N12 2.368609 1_555
Li21 Sb4 2.763915 1_465
Li21 Sb6 2.820450 1_555
Li22 N9 2.055755 1_555
Li22 N2 2.144219 1_655
Li22 N12 2.368609 1_655
Li22 Sb6 2.763915 1_655
Li22 Sb4 2.820450 1_565
Li23 N9 2.055750 1_555
Li23 N1 2.144215 1_655
Li23 N13 2.368616 1_655
Li23 Sb5 2.763917 1_655
Li23 Sb7 2.820461 1_555
N0 Sb0 2.645636 1_555
N0 Sb4 2.645636 1_455
N1 Sb5 2.645636 1_555
N1 Sb1 2.645636 1_454
N2 Sb6 2.645636 1_555
N2 Sb2 2.645636 1_455
N3 Sb7 2.645636 1_455
N3 Sb3 2.645636 1_545
N4 Sb0 2.221781 1_555
N4 Sb1 2.221781 1_545
N5 Sb2 2.221781 1_555
N5 Sb3 2.221781 1_555
N6 Sb2 2.221781 1_455
N6 Sb0 2.221782 1_555
N7 Sb3 2.221781 1_556
N7 Sb1 2.221781 1_455
N8 Sb2 2.221783 1_555
N8 Sb1 2.221785 1_555
N9 Sb0 2.221778 1_564
N9 Sb3 2.221790 1_555
N10 Sb4 2.221781 1_565
N10 Sb5 2.221781 1_565
N11 Sb6 2.221781 1_555
N11 Sb7 2.221781 1_556
N12 Sb6 2.221781 1_555
N12 Sb4 2.221782 1_465
N13 Sb7 2.221781 1_455
N13 Sb5 2.221781 1_555
N14 Sb6 2.221783 1_555
N14 Sb5 2.221785 1_555
N15 Sb4 2.221778 1_556
N15 Sb7 2.221790 1_556
