# generated using pymatgen
data_NbRh
_symmetry_space_group_name_H-M   'P 1'
_cell_length_a   2.83114241
_cell_length_b   4.57884757
_cell_length_c   4.91734870
_cell_angle_alpha   90.00000000
_cell_angle_beta   90.00000000
_cell_angle_gamma   90.00000000
_symmetry_Int_Tables_number   1
_chemical_formula_structural   NbRh
_chemical_formula_sum   'Nb2 Rh2'
_cell_volume   63.74540838
_cell_formula_units_Z   2
loop_
 _symmetry_equiv_pos_site_id
 _symmetry_equiv_pos_as_xyz
  1  'x, y, z'
loop_
 _atom_site_type_symbol
 _atom_site_label
 _atom_site_symmetry_multiplicity
 _atom_site_fract_x
 _atom_site_fract_y
 _atom_site_fract_z
 _atom_site_occupancy
  Nb  Nb0  1  0.00000000  0.75000000  0.79963255  1
  Nb  Nb1  1  0.00000000  0.25000000  0.20036745  1
  Rh  Rh0  1  0.50000000  0.75000000  0.31152003  1
  Rh  Rh1  1  0.50000000  0.25000000  0.68847997  1
loop_
_geom_bond_atom_site_label_1
_geom_bond_atom_site_label_2
_geom_bond_distance
_geom_bond_site_symmetry_2
Nb0 Rh1 2.746643 1_555
Nb0 Rh1 2.746643 1_465
Nb0 Rh1 2.746643 1_565
Nb0 Rh1 2.746643 1_455
Nb0 Rh0 2.786556 1_555
Nb0 Rh0 2.786556 1_455
Nb0 Rh0 2.887868 1_556
Nb0 Rh0 2.887868 1_456
Nb1 Rh0 2.746643 1_545
Nb1 Rh0 2.746643 1_455
Nb1 Rh0 2.746643 1_555
Nb1 Rh0 2.746643 1_445
Nb1 Rh1 2.786556 1_455
Nb1 Rh1 2.786556 1_555
Nb1 Rh1 2.887868 1_454
Nb1 Rh1 2.887868 1_554
