# generated using pymatgen
data_Mg4AlZn11
_symmetry_space_group_name_H-M   'P 1'
_cell_length_a   5.23815061
_cell_length_b   5.23815061
_cell_length_c   11.81563500
_cell_angle_alpha   90.00000000
_cell_angle_beta   90.00000000
_cell_angle_gamma   118.67358187
_symmetry_Int_Tables_number   1
_chemical_formula_structural   Mg4AlZn11
_chemical_formula_sum   'Mg4 Al1 Zn11'
_cell_volume   284.44255343
_cell_formula_units_Z   1
loop_
 _symmetry_equiv_pos_site_id
 _symmetry_equiv_pos_as_xyz
  1  'x, y, z'
loop_
 _atom_site_type_symbol
 _atom_site_label
 _atom_site_symmetry_multiplicity
 _atom_site_fract_x
 _atom_site_fract_y
 _atom_site_fract_z
 _atom_site_occupancy
  Mg  Mg0  1  0.33446400  0.66553600  0.16459000  1
  Mg  Mg1  1  0.33446400  0.66553600  0.83541000  1
  Mg  Mg2  1  0.00091700  0.99908300  0.11700200  1
  Mg  Mg3  1  0.00091700  0.99908300  0.88299800  1
  Al  Al0  1  0.66253900  0.33746100  0.50000000  1
  Zn  Zn0  1  0.66406000  0.33594000  0.11291100  1
  Zn  Zn1  1  0.66406000  0.33594000  0.88708900  1
  Zn  Zn2  1  0.33328100  0.66671900  0.39685900  1
  Zn  Zn3  1  0.33328100  0.66671900  0.60314100  1
  Zn  Zn4  1  0.00267900  0.99732100  0.50000000  1
  Zn  Zn5  1  0.83351700  0.16648300  0.31123800  1
  Zn  Zn6  1  0.33363500  0.16583300  0.31049600  1
  Zn  Zn7  1  0.83416700  0.66636500  0.31049600  1
  Zn  Zn8  1  0.83351700  0.16648300  0.68876200  1
  Zn  Zn9  1  0.33363500  0.16583300  0.68950400  1
  Zn  Zn10  1  0.83416700  0.66636500  0.68950400  1
loop_
_geom_bond_atom_site_label_1
_geom_bond_atom_site_label_2
_geom_bond_distance
_geom_bond_site_symmetry_2
Mg0 Zn2 2.744426 1_555
Mg0 Zn0 3.032273 1_555
Mg0 Mg2 3.057900 1_555
Mg0 Mg2 3.114893 1_545
Mg0 Mg2 3.114893 1_655
Mg0 Zn6 3.132507 1_555
Mg0 Zn7 3.132507 1_555
Mg0 Zn7 3.138587 1_455
Mg0 Zn6 3.138587 1_565
Mg0 Zn0 3.141231 1_565
Mg0 Zn0 3.141231 1_455
Mg0 Zn5 3.184161 1_565
Mg0 Zn5 3.184161 1_455
Mg1 Zn3 2.744426 1_555
Mg1 Zn1 3.032273 1_555
Mg1 Mg3 3.057900 1_555
Mg1 Mg3 3.114893 1_545
Mg1 Mg3 3.114893 1_655
Mg1 Zn9 3.132507 1_555
Mg1 Zn10 3.132507 1_555
Mg1 Zn10 3.138587 1_455
Mg1 Zn9 3.138587 1_565
Mg1 Zn1 3.141231 1_565
Mg1 Zn1 3.141231 1_455
Mg1 Zn8 3.184161 1_565
Mg1 Zn8 3.184161 1_455
Mg2 Zn5 2.746411 1_465
Mg2 Zn7 2.750726 1_455
Mg2 Zn6 2.750726 1_565
Mg2 Mg3 2.764906 1_554
Mg2 Zn0 3.035973 1_465
Mg2 Zn0 3.049613 1_455
Mg2 Zn0 3.049613 1_565
Mg3 Zn8 2.746411 1_465
Mg3 Zn9 2.750726 1_565
Mg3 Zn10 2.750726 1_455
Mg3 Zn1 3.035973 1_465
Mg3 Zn1 3.049613 1_455
Mg3 Zn1 3.049613 1_565
Al0 Zn9 2.702535 1_555
Al0 Zn6 2.702535 1_555
Al0 Zn7 2.702535 1_555
Al0 Zn10 2.702535 1_555
Al0 Zn5 2.710793 1_555
Al0 Zn8 2.710793 1_555
Al0 Zn4 3.035076 1_655
Al0 Zn4 3.035076 1_545
Al0 Zn4 3.065173 1_645
Zn0 Zn1 2.668230 1_554
Zn0 Zn7 2.785681 1_555
Zn0 Zn6 2.785681 1_555
Zn0 Zn5 2.797008 1_555
Zn1 Zn10 2.785681 1_555
Zn1 Zn9 2.785681 1_555
Zn1 Zn8 2.797008 1_555
Zn2 Zn3 2.437353 1_555
Zn2 Zn7 2.805691 1_455
Zn2 Zn6 2.805691 1_565
Zn2 Zn7 2.815998 1_555
Zn2 Zn6 2.815998 1_555
Zn2 Zn5 2.856553 1_565
Zn2 Zn5 2.856553 1_455
Zn3 Zn9 2.805691 1_565
Zn3 Zn9 2.815998 1_555
Zn3 Zn8 2.856553 1_565
Zn3 Zn8 2.856553 1_455
Zn4 Zn5 2.701525 1_465
Zn4 Zn8 2.701525 1_465
Zn4 Zn9 2.707333 1_565
Zn4 Zn6 2.707333 1_565
Zn4 Zn7 2.707333 1_455
Zn5 Zn6 2.616840 1_555
Zn5 Zn7 2.616840 1_555
Zn5 Zn7 2.621343 1_545
Zn5 Zn6 2.621343 1_655
Zn6 Zn7 2.668566 1_445
Zn6 Zn7 2.674250 1_555
Zn8 Zn9 2.616840 1_555
Zn8 Zn9 2.621343 1_655
Zn10 Zn8 2.616840 1_555
Zn10 Zn8 2.621343 1_565
Zn10 Zn9 2.668566 1_665
Zn10 Zn9 2.674250 1_555
Zn10 Zn4 2.707333 1_655
Zn10 Zn3 2.805691 1_655
Zn10 Zn3 2.815998 1_555
