# generated using pymatgen
data_CsMg14Al
_symmetry_space_group_name_H-M   'P 1'
_cell_length_a   6.55850984
_cell_length_b   6.73005087
_cell_length_c   10.61245053
_cell_angle_alpha   90.00000000
_cell_angle_beta   90.00000000
_cell_angle_gamma   120.86906087
_symmetry_Int_Tables_number   1
_chemical_formula_structural   CsMg14Al
_chemical_formula_sum   'Cs1 Mg14 Al1'
_cell_volume   402.06809144
_cell_formula_units_Z   1
loop_
 _symmetry_equiv_pos_site_id
 _symmetry_equiv_pos_as_xyz
  1  'x, y, z'
loop_
 _atom_site_type_symbol
 _atom_site_label
 _atom_site_symmetry_multiplicity
 _atom_site_fract_x
 _atom_site_fract_y
 _atom_site_fract_z
 _atom_site_occupancy
  Cs  Cs0  1  0.16220811  0.83110355  0.12500000  1
  Mg  Mg0  1  0.16579629  0.33289764  0.62500000  1
  Mg  Mg1  1  0.17149349  0.83574625  0.62500000  1
  Mg  Mg2  1  0.65615812  0.33672643  0.12500000  1
  Mg  Mg3  1  0.66968523  0.32922778  0.62500000  1
  Mg  Mg4  1  0.65615812  0.81943069  0.12500000  1
  Mg  Mg5  1  0.66968523  0.84045645  0.62500000  1
  Mg  Mg6  1  0.33428090  0.18162320  0.38875313  1
  Mg  Mg7  1  0.33428090  0.18162320  0.86124687  1
  Mg  Mg8  1  0.33428090  0.65265870  0.38875313  1
  Mg  Mg9  1  0.33428090  0.65265870  0.86124687  1
  Mg  Mg10  1  0.83577837  0.16788969  0.36399100  1
  Mg  Mg11  1  0.83577837  0.16788969  0.88600900  1
  Mg  Mg12  1  0.81727342  0.65863721  0.39554488  1
  Mg  Mg13  1  0.81727342  0.65863721  0.85445512  1
  Al  Al0  1  0.20558821  0.35279361  0.12500000  1
loop_
_geom_bond_atom_site_label_1
_geom_bond_atom_site_label_2
_geom_bond_distance
_geom_bond_site_symmetry_2
Cs0 Mg2 3.279320 1_455
Cs0 Mg4 3.279320 1_455
Cs0 Mg2 3.280576 1_565
Cs0 Mg4 3.280576 1_555
Cs0 Mg9 3.455634 1_554
Cs0 Mg8 3.455634 1_555
Cs0 Mg6 3.455641 1_565
Cs0 Mg7 3.455641 1_564
Cs0 Mg13 3.466125 1_454
Cs0 Mg12 3.466125 1_455
Mg0 Mg6 3.114129 1_555
Mg0 Mg7 3.114129 1_555
Mg0 Mg8 3.114136 1_555
Mg0 Mg9 3.114136 1_555
Mg0 Mg5 3.241146 1_445
Mg0 Mg3 3.241146 1_455
Mg0 Mg5 3.317500 1_555
Mg0 Mg3 3.317500 1_555
Mg0 Mg11 3.335278 1_455
Mg0 Mg10 3.335278 1_455
Mg0 Mg1 3.365178 1_545
Mg0 Mg1 3.365178 1_555
Mg1 Mg13 3.147365 1_455
Mg1 Mg12 3.147365 1_455
Mg1 Mg8 3.208417 1_555
Mg1 Mg9 3.208417 1_555
Mg1 Mg6 3.208424 1_565
Mg1 Mg7 3.208424 1_565
Mg1 Mg3 3.251244 1_565
Mg1 Mg5 3.251245 1_555
Mg1 Mg3 3.307491 1_455
Mg1 Mg5 3.307491 1_455
Mg2 Mg4 3.248624 1_555
Mg2 Mg7 3.334610 1_554
Mg2 Mg6 3.334610 1_555
Mg2 Mg4 3.481427 1_545
Mg3 Mg6 3.141530 1_555
Mg3 Mg7 3.141530 1_555
Mg3 Mg5 3.289456 1_545
Mg3 Mg5 3.440595 1_555
Mg4 Mg8 3.334610 1_555
Mg4 Mg9 3.334610 1_554
Mg5 Mg8 3.141529 1_555
Mg5 Mg9 3.141529 1_555
Mg6 Mg8 3.170093 1_555
Mg6 Mg8 3.559958 1_545
Mg7 Mg9 3.170093 1_555
Mg7 Mg9 3.559958 1_545
Mg10 Mg8 3.233683 1_655
Mg10 Mg6 3.233683 1_655
Mg10 Mg2 3.238090 1_555
Mg10 Mg4 3.238097 1_545
Mg10 Mg8 3.347771 1_545
Mg10 Mg6 3.347771 1_555
Mg10 Mg3 3.354393 1_555
Mg10 Mg5 3.354399 1_545
Mg10 Mg12 3.383250 1_555
Mg10 Mg12 3.383250 1_545
Mg11 Mg9 3.233683 1_655
Mg11 Mg7 3.233683 1_655
Mg11 Mg2 3.238090 1_556
Mg11 Mg4 3.238097 1_546
Mg11 Mg9 3.347771 1_545
Mg11 Mg7 3.347771 1_555
Mg11 Mg3 3.354393 1_555
Mg11 Mg5 3.354399 1_545
Mg11 Mg13 3.383250 1_555
Mg11 Mg13 3.383250 1_545
Mg12 Mg5 3.095047 1_555
Mg12 Mg3 3.095054 1_555
Mg12 Mg6 3.148082 1_555
Mg12 Mg8 3.148082 1_555
Mg12 Mg6 3.412378 1_665
Mg12 Mg8 3.412379 1_655
Mg12 Mg4 3.421179 1_555
Mg12 Mg2 3.421186 1_555
Mg13 Mg5 3.095047 1_555
Mg13 Mg3 3.095054 1_555
Mg13 Mg7 3.148082 1_555
Mg13 Mg9 3.148082 1_555
Mg13 Mg7 3.412378 1_665
Mg13 Mg9 3.412379 1_655
Mg13 Mg4 3.421179 1_556
Mg13 Mg2 3.421186 1_556
Al0 Mg4 3.011978 1_555
Al0 Mg2 3.011978 1_555
Al0 Mg10 3.281266 1_455
Al0 Mg11 3.281266 1_454
Al0 Mg6 3.297269 1_555
Al0 Mg7 3.297269 1_554
Al0 Mg9 3.297275 1_554
Al0 Mg8 3.297275 1_555
Al0 Cs0 3.373875 1_555
Al0 Cs0 3.373875 1_545
