# generated using pymatgen
data_TlCuS2
_symmetry_space_group_name_H-M   'P 1'
_cell_length_a   5.62320129
_cell_length_b   5.62320219
_cell_length_c   6.89036806
_cell_angle_alpha   114.08226612
_cell_angle_beta   114.08226730
_cell_angle_gamma   90.00000251
_symmetry_Int_Tables_number   1
_chemical_formula_structural   TlCuS2
_chemical_formula_sum   'Tl2 Cu2 S4'
_cell_volume   177.93879448
_cell_formula_units_Z   2
loop_
 _symmetry_equiv_pos_site_id
 _symmetry_equiv_pos_as_xyz
  1  'x, y, z'
loop_
 _atom_site_type_symbol
 _atom_site_label
 _atom_site_symmetry_multiplicity
 _atom_site_fract_x
 _atom_site_fract_y
 _atom_site_fract_z
 _atom_site_occupancy
  Tl  Tl0  1  0.50000000  0.50000000  0.00000000  1
  Tl  Tl1  1  0.75000000  0.25000000  0.50000000  1
  Cu  Cu0  1  0.25000000  0.75000000  0.50000000  1
  Cu  Cu1  1  0.00000000  0.00000000  0.00000000  1
  S  S0  1  0.92157007  0.87500000  0.25000000  1
  S  S1  1  0.62500000  0.07842993  0.75000000  1
  S  S2  1  0.32842993  0.37500000  0.25000000  1
  S  S3  1  0.12500000  0.67157007  0.75000000  1
loop_
_geom_bond_atom_site_label_1
_geom_bond_atom_site_label_2
_geom_bond_distance
_geom_bond_site_symmetry_2
Cu0 S3 2.294348 1_555
Cu0 S0 2.294348 1_455
Cu0 S1 2.294348 1_565
Cu0 S2 2.294348 1_555
Cu1 S0 2.294348 1_445
Cu1 S1 2.294348 1_454
Cu1 S3 2.294348 1_544
Cu1 S2 2.294348 1_555
S0 Tl0 2.595495 1_555
S0 Tl1 2.595495 1_565
S1 Tl1 2.595495 1_555
S1 Tl0 2.595495 1_556
S2 Tl0 2.595495 1_555
S2 Tl1 2.595495 1_555
S3 Tl0 2.595495 1_556
S3 Tl1 2.595495 1_455
