# generated using pymatgen
data_MnV2O10
_symmetry_space_group_name_H-M   'P 1'
_cell_length_a   6.97769080
_cell_length_b   8.39474903
_cell_length_c   8.39474903
_cell_angle_alpha   67.66936653
_cell_angle_beta   72.66802189
_cell_angle_gamma   72.66802189
_symmetry_Int_Tables_number   1
_chemical_formula_structural   MnV2O10
_chemical_formula_sum   'Mn2 V4 O20'
_cell_volume   424.59439303
_cell_formula_units_Z   2
loop_
 _symmetry_equiv_pos_site_id
 _symmetry_equiv_pos_as_xyz
  1  'x, y, z'
loop_
 _atom_site_type_symbol
 _atom_site_label
 _atom_site_symmetry_multiplicity
 _atom_site_fract_x
 _atom_site_fract_y
 _atom_site_fract_z
 _atom_site_occupancy
  Mn  Mn0  1  0.30299400  0.89335100  0.36510600  1
  Mn  Mn1  1  0.80299400  0.36510600  0.89335100  1
  V  V0  1  0.09427700  0.52433000  0.45585200  1
  V  V1  1  0.59427700  0.45585200  0.52433000  1
  V  V2  1  0.97295500  0.32672500  0.25593200  1
  V  V3  1  0.47295500  0.25593200  0.32672500  1
  O  O0  1  0.44086700  0.04774500  0.42805400  1
  O  O1  1  0.94086700  0.42805400  0.04774500  1
  O  O2  1  0.47460700  0.01667800  0.95373500  1
  O  O3  1  0.97460700  0.95373500  0.01667800  1
  O  O4  1  0.12556200  0.73310800  0.35475100  1
  O  O5  1  0.62556200  0.35475100  0.73310800  1
  O  O6  1  0.01595300  0.89795600  0.66218100  1
  O  O7  1  0.51595300  0.66218100  0.89795600  1
  O  O8  1  0.47360700  0.66944700  0.50126200  1
  O  O9  1  0.97360700  0.50126200  0.66944700  1
  O  O10  1  0.36040200  0.39430100  0.49897400  1
  O  O11  1  0.86040200  0.49897400  0.39430100  1
  O  O12  1  0.84006700  0.88445700  0.67709600  1
  O  O13  1  0.34006700  0.67709600  0.88445700  1
  O  O14  1  0.01429800  0.09408000  0.90471000  1
  O  O15  1  0.51429800  0.90471000  0.09408000  1
  O  O16  1  0.20760100  0.38662000  0.28301200  1
  O  O17  1  0.70760100  0.28301200  0.38662000  1
  O  O18  1  0.09680900  0.11521400  0.27132400  1
  O  O19  1  0.59680900  0.27132400  0.11521400  1
loop_
_geom_bond_atom_site_label_1
_geom_bond_atom_site_label_2
_geom_bond_distance
_geom_bond_site_symmetry_2
Mn0 O8 2.025239 1_555
Mn0 O18 2.030417 1_565
Mn0 O0 2.109715 1_565
Mn0 O4 2.120190 1_555
Mn0 O15 2.297759 1_555
Mn0 O6 2.698795 1_555
Mn1 O9 2.025239 1_555
Mn1 O19 2.030417 1_556
Mn1 O1 2.109715 1_556
Mn1 O5 2.120190 1_555
Mn1 O14 2.297759 1_655
Mn1 O7 2.698795 1_555
O0 V3 1.678708 1_555
O1 V2 1.678708 1_555
O4 V0 1.681350 1_555
O5 V1 1.681350 1_555
O8 V1 1.701567 1_555
O9 V0 1.701567 1_655
O10 V0 1.913979 1_555
O10 V1 1.941226 1_555
O10 V3 2.028081 1_555
O11 V1 1.913979 1_555
O11 V0 1.941226 1_655
O11 V2 2.028081 1_555
O12 O6 1.230957 1_655
O13 O7 1.230957 1_555
O14 O3 1.243402 1_446
O15 O2 1.243402 1_564
O16 V3 1.911842 1_555
O16 V2 1.945332 1_455
O16 V0 2.028135 1_555
O17 V2 1.911842 1_555
O17 V3 1.945332 1_555
O17 V1 2.028135 1_555
O18 V2 1.701228 1_455
O19 V3 1.701228 1_555
