# generated using pymatgen
data_La3Bi4Pt3
_symmetry_space_group_name_H-M   'P 1'
_cell_length_a   8.88982871
_cell_length_b   8.88982871
_cell_length_c   8.88982871
_cell_angle_alpha   109.47122063
_cell_angle_beta   109.47122063
_cell_angle_gamma   109.47122063
_symmetry_Int_Tables_number   1
_chemical_formula_structural   La3Bi4Pt3
_chemical_formula_sum   'La6 Bi8 Pt6'
_cell_volume   540.82690492
_cell_formula_units_Z   2
loop_
 _symmetry_equiv_pos_site_id
 _symmetry_equiv_pos_as_xyz
  1  'x, y, z'
loop_
 _atom_site_type_symbol
 _atom_site_label
 _atom_site_symmetry_multiplicity
 _atom_site_fract_x
 _atom_site_fract_y
 _atom_site_fract_z
 _atom_site_occupancy
  La  La0  1  0.62500000  0.37500000  0.25000000  1
  La  La1  1  0.87500000  0.12500000  0.75000000  1
  La  La2  1  0.37500000  0.25000000  0.62500000  1
  La  La3  1  0.12500000  0.75000000  0.87500000  1
  La  La4  1  0.25000000  0.62500000  0.37500000  1
  La  La5  1  0.75000000  0.87500000  0.12500000  1
  Bi  Bi0  1  0.17082500  0.17082500  0.17082500  1
  Bi  Bi1  1  0.32917500  0.50000000  0.00000000  1
  Bi  Bi2  1  0.00000000  0.32917500  0.50000000  1
  Bi  Bi3  1  0.67082500  0.67082500  0.67082500  1
  Bi  Bi4  1  0.50000000  0.00000000  0.32917500  1
  Bi  Bi5  1  0.82917500  0.50000000  0.00000000  1
  Bi  Bi6  1  0.50000000  0.00000000  0.82917500  1
  Bi  Bi7  1  0.00000000  0.82917500  0.50000000  1
  Pt  Pt0  1  0.12500000  0.87500000  0.25000000  1
  Pt  Pt1  1  0.37500000  0.62500000  0.75000000  1
  Pt  Pt2  1  0.87500000  0.25000000  0.12500000  1
  Pt  Pt3  1  0.62500000  0.75000000  0.37500000  1
  Pt  Pt4  1  0.25000000  0.12500000  0.87500000  1
  Pt  Pt5  1  0.75000000  0.37500000  0.62500000  1
loop_
_geom_bond_atom_site_label_1
_geom_bond_atom_site_label_2
_geom_bond_distance
_geom_bond_site_symmetry_2
La0 Pt2 3.143029 1_555
La0 Pt3 3.143029 1_555
La0 Pt4 3.143029 1_554
La0 Pt5 3.143029 1_555
La1 Pt4 3.143029 1_655
La1 Pt3 3.143029 1_545
La1 Pt5 3.143029 1_555
La1 Pt2 3.143029 1_556
La2 Pt0 3.143029 1_545
La2 Pt4 3.143029 1_555
La2 Pt1 3.143029 1_555
La2 Pt5 3.143029 1_555
La3 Pt4 3.143029 1_565
La3 Pt0 3.143029 1_556
La3 Pt1 3.143029 1_555
La3 Pt5 3.143029 1_455
La4 Pt3 3.143029 1_555
La4 Pt0 3.143029 1_555
La4 Pt1 3.143029 1_555
La4 Pt2 3.143029 1_455
La5 Pt3 3.143029 1_555
La5 Pt2 3.143029 1_565
La5 Pt1 3.143029 1_554
La5 Pt0 3.143029 1_655
Bi0 Pt4 2.878946 1_554
Bi0 Pt0 2.878946 1_545
Bi0 Pt2 2.878946 1_455
Bi0 La2 3.529837 1_555
Bi0 La4 3.529837 1_555
Bi0 La0 3.529837 1_555
Bi0 La3 3.576084 1_544
Bi0 La1 3.576084 1_454
Bi0 La5 3.576084 1_445
Bi1 Pt3 2.878946 1_555
Bi1 Pt4 2.878946 1_554
Bi1 Pt1 2.878946 1_554
Bi1 La3 3.529837 1_554
Bi1 La4 3.529837 1_555
Bi1 La1 3.529837 1_454
Bi1 La0 3.576084 1_555
Bi1 La2 3.576084 1_554
Bi1 La5 3.576084 1_555
Bi2 Pt1 2.878946 1_555
Bi2 Pt5 2.878946 1_455
Bi2 Pt2 2.878946 1_455
Bi2 La2 3.529837 1_555
Bi2 La5 3.529837 1_445
Bi2 La1 3.529837 1_455
Bi2 La0 3.576084 1_455
Bi2 La3 3.576084 1_555
Bi2 La4 3.576084 1_555
Bi3 Pt5 2.878946 1_555
Bi3 Pt3 2.878946 1_555
Bi3 Pt1 2.878946 1_555
Bi3 La3 3.529837 1_655
Bi3 La1 3.529837 1_565
Bi3 La5 3.529837 1_556
Bi3 La2 3.576084 1_555
Bi3 La0 3.576084 1_555
Bi3 La4 3.576084 1_555
Bi4 Pt5 2.878946 1_555
Bi4 Pt3 2.878946 1_545
Bi4 Pt0 2.878946 1_545
Bi4 La3 3.529837 1_544
Bi4 La5 3.529837 1_545
Bi4 La0 3.529837 1_555
Bi4 La2 3.576084 1_555
Bi4 La4 3.576084 1_545
Bi4 La1 3.576084 1_555
Bi5 Pt5 2.878946 1_554
Bi5 Pt2 2.878946 1_555
Bi5 Pt0 2.878946 1_655
Bi5 La5 3.529837 1_555
Bi5 La0 3.529837 1_555
Bi5 La2 3.529837 1_554
Bi5 La1 3.576084 1_554
Bi5 La4 3.576084 1_655
Bi5 La3 3.576084 1_654
Bi6 Pt2 2.878946 1_556
Bi6 Pt1 2.878946 1_545
Bi6 Pt4 2.878946 1_555
Bi6 La4 3.529837 1_545
Bi6 La1 3.529837 1_555
Bi6 La2 3.529837 1_555
Bi6 La0 3.576084 1_556
Bi6 La3 3.576084 1_545
Bi6 La5 3.576084 1_546
Bi7 Pt4 2.878946 1_565
Bi7 Pt3 2.878946 1_455
Bi7 Pt0 2.878946 1_555
Bi7 La0 3.529837 1_455
Bi7 La4 3.529837 1_555
Bi7 La3 3.529837 1_555
Bi7 La5 3.576084 1_455
Bi7 La1 3.576084 1_465
Bi7 La2 3.576084 1_565
