# generated using pymatgen
data_SmMgS3
_symmetry_space_group_name_H-M   'P 1'
_cell_length_a   6.85568700
_cell_length_b   6.85568666
_cell_length_c   17.75438900
_cell_angle_alpha   90.00000000
_cell_angle_beta   90.00000000
_cell_angle_gamma   119.99999681
_symmetry_Int_Tables_number   1
_chemical_formula_structural   SmMgS3
_chemical_formula_sum   'Sm6 Mg6 S18'
_cell_volume   722.66715752
_cell_formula_units_Z   6
loop_
 _symmetry_equiv_pos_site_id
 _symmetry_equiv_pos_as_xyz
  1  'x, y, z'
loop_
 _atom_site_type_symbol
 _atom_site_label
 _atom_site_symmetry_multiplicity
 _atom_site_fract_x
 _atom_site_fract_y
 _atom_site_fract_z
 _atom_site_occupancy
  Sm  Sm0  1  0.00000000  0.00000000  0.35499200  1
  Sm  Sm1  1  0.00000000  0.00000000  0.64500800  1
  Sm  Sm2  1  0.66666700  0.33333300  0.68832500  1
  Sm  Sm3  1  0.66666700  0.33333300  0.97834100  1
  Sm  Sm4  1  0.33333300  0.66666700  0.02165900  1
  Sm  Sm5  1  0.33333300  0.66666700  0.31167500  1
  Mg  Mg0  1  0.00000000  0.00000000  0.15347900  1
  Mg  Mg1  1  0.00000000  0.00000000  0.84652100  1
  Mg  Mg2  1  0.66666700  0.33333300  0.48681200  1
  Mg  Mg3  1  0.66666700  0.33333300  0.17985400  1
  Mg  Mg4  1  0.33333300  0.66666700  0.82014600  1
  Mg  Mg5  1  0.33333300  0.66666700  0.51318800  1
  S  S0  1  0.98394200  0.36055800  0.58135800  1
  S  S1  1  0.01605800  0.63944200  0.41864200  1
  S  S2  1  0.63944200  0.62338400  0.58135800  1
  S  S3  1  0.36055800  0.37661600  0.41864200  1
  S  S4  1  0.37661600  0.01605800  0.58135800  1
  S  S5  1  0.62338400  0.98394200  0.41864200  1
  S  S6  1  0.65060900  0.69389100  0.91469100  1
  S  S7  1  0.68272500  0.97277500  0.75197500  1
  S  S8  1  0.30610900  0.95671700  0.91469100  1
  S  S9  1  0.02722500  0.70994900  0.75197500  1
  S  S10  1  0.04328300  0.34939100  0.91469100  1
  S  S11  1  0.29005100  0.31727500  0.75197500  1
  S  S12  1  0.31727500  0.02722500  0.24802500  1
  S  S13  1  0.34939100  0.30610900  0.08530900  1
  S  S14  1  0.97277500  0.29005100  0.24802500  1
  S  S15  1  0.69389100  0.04328300  0.08530900  1
  S  S16  1  0.70994900  0.68272500  0.24802500  1
  S  S17  1  0.95671700  0.65060900  0.08530900  1
loop_
_geom_bond_atom_site_label_1
_geom_bond_atom_site_label_2
_geom_bond_distance
_geom_bond_site_symmetry_2
Mg0 S17 2.565089 1_445
Mg0 S13 2.565091 1_555
Mg0 S15 2.565095 1_455
Mg0 S12 2.679142 1_555
Mg0 S16 2.679144 1_445
Mg0 S14 2.679147 1_455
Mg1 S10 2.565089 1_555
Mg1 S6 2.565091 1_445
Mg1 S8 2.565095 1_545
Mg1 S7 2.679142 1_445
Mg1 S11 2.679144 1_555
Mg1 S9 2.679147 1_545
Mg2 S5 2.565089 1_545
Mg2 S1 2.565091 1_655
Mg2 S3 2.565095 1_555
Mg2 S0 2.679142 1_555
Mg2 S4 2.679144 1_555
Mg2 S2 2.679147 1_555
Mg3 S14 2.565094 1_555
Mg3 S12 2.565101 1_555
Mg3 S16 2.565105 1_555
Mg3 S15 2.679128 1_555
Mg3 S17 2.679134 1_555
Mg3 S13 2.679138 1_555
Mg4 S9 2.565094 1_555
Mg4 S7 2.565101 1_555
Mg4 S11 2.565105 1_555
Mg4 S8 2.679128 1_555
Mg4 S10 2.679134 1_555
Mg4 S6 2.679138 1_555
Mg5 S4 2.565089 1_565
Mg5 S0 2.565091 1_455
Mg5 S2 2.565095 1_555
Mg5 S1 2.679142 1_555
Mg5 S5 2.679144 1_555
Mg5 S3 2.679147 1_555
S0 Sm1 2.769738 1_655
S0 Sm2 2.822550 1_555
S1 Sm0 2.769738 1_565
S1 Sm5 2.822550 1_555
S2 Sm1 2.769738 1_665
S2 Sm2 2.822555 1_555
S3 Sm0 2.769738 1_555
S3 Sm5 2.822555 1_555
S4 Sm1 2.769738 1_555
S4 Sm2 2.822553 1_555
S5 Sm0 2.769738 1_665
S5 Sm5 2.822553 1_555
S6 Sm3 2.769738 1_555
S6 Sm4 2.822570 1_556
S7 Sm2 2.769738 1_565
S7 Sm1 2.822550 1_665
S8 Sm3 2.769738 1_565
S8 Sm4 2.822559 1_556
S9 Sm2 2.769738 1_455
S9 Sm1 2.822555 1_565
S10 Sm3 2.769738 1_455
S10 Sm4 2.822565 1_556
S11 Sm2 2.769738 1_555
S11 Sm1 2.822553 1_555
S12 Sm5 2.769738 1_545
S12 Sm0 2.822550 1_555
S13 Sm4 2.769738 1_555
S13 Sm3 2.822570 1_554
S14 Sm5 2.769738 1_655
S14 Sm0 2.822555 1_655
S15 Sm4 2.769738 1_545
S15 Sm3 2.822559 1_554
S16 Sm5 2.769738 1_555
S16 Sm0 2.822553 1_665
S17 Sm4 2.769738 1_655
S17 Sm3 2.822565 1_554
