# generated using pymatgen
data_Cs2Hg3S4
_symmetry_space_group_name_H-M   'P 1'
_cell_length_a   6.34535900
_cell_length_b   9.89419761
_cell_length_c   9.89419761
_cell_angle_alpha   73.10887030
_cell_angle_beta   71.29711917
_cell_angle_gamma   71.29711917
_symmetry_Int_Tables_number   1
_chemical_formula_structural   Cs2Hg3S4
_chemical_formula_sum   'Cs4 Hg6 S8'
_cell_volume   544.97099417
_cell_formula_units_Z   2
loop_
 _symmetry_equiv_pos_site_id
 _symmetry_equiv_pos_as_xyz
  1  'x, y, z'
loop_
 _atom_site_type_symbol
 _atom_site_label
 _atom_site_symmetry_multiplicity
 _atom_site_fract_x
 _atom_site_fract_y
 _atom_site_fract_z
 _atom_site_occupancy
  Cs  Cs0  1  0.74224841  0.62097035  0.37902965  1
  Cs  Cs1  1  0.25775159  0.37902965  0.62097035  1
  Cs  Cs2  1  0.75775159  0.12097035  0.87902965  1
  Cs  Cs3  1  0.24224841  0.87902965  0.12097035  1
  Hg  Hg0  1  0.75000000  0.75000000  0.75000000  1
  Hg  Hg1  1  0.25000000  0.25000000  0.25000000  1
  Hg  Hg2  1  0.25000000  0.90573068  0.59426932  1
  Hg  Hg3  1  0.25000000  0.59426932  0.90573068  1
  Hg  Hg4  1  0.75000000  0.09426932  0.40573068  1
  Hg  Hg5  1  0.75000000  0.40573068  0.09426932  1
  S  S0  1  0.07906611  0.77516346  0.51145170  1
  S  S1  1  0.63431974  0.51145170  0.77516346  1
  S  S2  1  0.42093389  0.98854830  0.72483654  1
  S  S3  1  0.86568026  0.72483654  0.98854830  1
  S  S4  1  0.92093389  0.22483654  0.48854830  1
  S  S5  1  0.36568026  0.48854830  0.22483654  1
  S  S6  1  0.57906611  0.01145170  0.27516346  1
  S  S7  1  0.13431974  0.27516346  0.01145170  1
loop_
_geom_bond_atom_site_label_1
_geom_bond_atom_site_label_2
_geom_bond_distance
_geom_bond_site_symmetry_2
Cs0 S6 3.586713 1_565
Cs0 S3 3.586713 1_554
Cs0 S4 3.645761 1_555
Cs0 S1 3.645761 1_555
Cs0 S5 3.695992 1_655
Cs0 S0 3.695998 1_655
Cs0 S0 3.906514 1_555
Cs0 S5 3.906520 1_555
Cs0 Hg5 3.975748 1_555
Cs0 Hg2 3.975748 1_555
Cs1 S2 3.586713 1_545
Cs1 S7 3.586713 1_556
Cs1 S0 3.645761 1_555
Cs1 S5 3.645761 1_555
Cs1 S1 3.695992 1_455
Cs1 S4 3.695998 1_455
Cs1 S4 3.906514 1_555
Cs1 S1 3.906520 1_555
Cs1 Hg3 3.975748 1_555
Cs1 Hg4 3.975748 1_555
Cs2 S4 3.586713 1_555
Cs2 S1 3.586713 1_555
Cs2 S6 3.645761 1_556
Cs2 S3 3.645761 1_545
Cs2 S7 3.695992 1_556
Cs2 S2 3.695998 1_545
Cs2 S2 3.906514 1_645
Cs2 S7 3.906520 1_656
Cs2 Hg5 3.975748 1_556
Cs2 Hg2 3.975748 1_645
Cs3 S0 3.586713 1_555
Cs3 S5 3.586713 1_555
Cs3 S2 3.645761 1_554
Cs3 S7 3.645761 1_565
Cs3 S3 3.695992 1_554
Cs3 S6 3.695998 1_565
Cs3 S6 3.906514 1_465
Cs3 S3 3.906520 1_454
Cs3 Hg3 3.975748 1_554
Cs3 Hg4 3.975748 1_465
Hg0 S1 2.612268 1_555
Hg0 S3 2.612268 1_555
Hg0 S0 2.612272 1_655
Hg0 S2 2.612272 1_555
Hg1 S7 2.612268 1_555
Hg1 S5 2.612268 1_555
Hg1 S6 2.612272 1_555
Hg1 S4 2.612272 1_455
Hg2 S2 2.366541 1_555
Hg2 S0 2.366541 1_555
Hg3 S3 2.366546 1_455
Hg3 S1 2.366546 1_555
Hg4 S4 2.366541 1_555
Hg4 S6 2.366541 1_555
Hg5 S5 2.366546 1_555
Hg5 S7 2.366546 1_655
