# generated using pymatgen
data_Mn3B4Mo3
_symmetry_space_group_name_H-M   'P 1'
_cell_length_a   5.74834880
_cell_length_b   5.74835430
_cell_length_c   3.13508802
_cell_angle_alpha   90.00000000
_cell_angle_beta   90.00000000
_cell_angle_gamma   90.10931325
_symmetry_Int_Tables_number   1
_chemical_formula_structural   Mn3B4Mo3
_chemical_formula_sum   'Mn3 B4 Mo3'
_cell_volume   103.59423511
_cell_formula_units_Z   1
loop_
 _symmetry_equiv_pos_site_id
 _symmetry_equiv_pos_as_xyz
  1  'x, y, z'
loop_
 _atom_site_type_symbol
 _atom_site_label
 _atom_site_symmetry_multiplicity
 _atom_site_fract_x
 _atom_site_fract_y
 _atom_site_fract_z
 _atom_site_occupancy
  Mn  Mn0  1  0.50170996  0.99590029  0.00000000  1
  Mn  Mn1  1  0.99590258  0.50170593  -0.00000000  1
  Mn  Mn2  1  0.67485334  0.67488233  0.50000000  1
  B  B0  1  0.11027175  0.11026767  -0.00000000  1
  B  B1  1  0.88153698  0.88154191  -0.00000000  1
  B  B2  1  0.61742909  0.39581313  -0.00000000  1
  B  B3  1  0.39581554  0.61743204  -0.00000000  1
  Mo  Mo0  1  0.32402477  0.32400296  0.50000000  1
  Mo  Mo1  1  0.17722513  0.82125347  0.50000000  1
  Mo  Mo2  1  0.82123185  0.17720026  0.50000000  1
loop_
_geom_bond_atom_site_label_1
_geom_bond_atom_site_label_2
_geom_bond_distance
_geom_bond_site_symmetry_2
Mn0 Mo2 2.628607 1_565
Mn0 Mo2 2.628607 1_564
Mn0 Mo1 2.633836 1_555
Mn0 Mo1 2.633836 1_554
Mn0 Mo0 2.658003 1_565
Mn0 Mo0 2.658003 1_564
Mn1 Mo1 2.628762 1_655
Mn1 Mo1 2.628762 1_654
Mn1 Mo2 2.633974 1_555
Mn1 Mo2 2.633974 1_554
Mn1 Mo0 2.658122 1_655
Mn1 Mo0 2.658122 1_654
B0 B1 1.857664 1_445
B0 Mo1 2.316865 1_545
B0 Mo1 2.316865 1_544
B0 Mo2 2.316950 1_455
B0 Mo2 2.316950 1_454
B0 Mo0 2.338958 1_555
B0 Mo0 2.338958 1_554
B0 Mn0 2.345401 1_545
B0 Mn1 2.345406 1_455
B1 Mn0 2.281393 1_555
B1 Mn1 2.281457 1_555
B1 Mn2 2.296649 1_554
B1 Mn2 2.296649 1_555
B1 Mo2 2.338392 1_565
B1 Mo2 2.338392 1_564
B1 Mo1 2.338501 1_654
B1 Mo1 2.338501 1_655
B2 B3 1.803324 1_555
B2 Mn1 2.258030 1_555
B2 Mn2 2.266618 1_554
B2 Mn2 2.266618 1_555
B2 Mo2 2.326907 1_555
B2 Mo2 2.326907 1_554
B2 Mo0 2.338701 1_555
B2 Mo0 2.338701 1_554
B2 Mn0 2.391927 1_545
B3 Mn0 2.258005 1_555
B3 Mn2 2.266511 1_555
B3 Mn2 2.266511 1_554
B3 Mo1 2.326892 1_555
B3 Mo1 2.326892 1_554
B3 Mo0 2.338785 1_555
B3 Mo0 2.338785 1_554
B3 Mn1 2.391937 1_455
