# generated using pymatgen
data_YAsS
_symmetry_space_group_name_H-M   'P 1'
_cell_length_a   3.83528300
_cell_length_b   3.85285900
_cell_length_c   17.06443800
_cell_angle_alpha   90.00000000
_cell_angle_beta   90.00000000
_cell_angle_gamma   90.00000000
_symmetry_Int_Tables_number   1
_chemical_formula_structural   YAsS
_chemical_formula_sum   'Y4 As4 S4'
_cell_volume   252.15786635
_cell_formula_units_Z   4
loop_
 _symmetry_equiv_pos_site_id
 _symmetry_equiv_pos_as_xyz
  1  'x, y, z'
loop_
 _atom_site_type_symbol
 _atom_site_label
 _atom_site_symmetry_multiplicity
 _atom_site_fract_x
 _atom_site_fract_y
 _atom_site_fract_z
 _atom_site_occupancy
  Y  Y0  1  0.25000000  0.78236800  0.14580900  1
  Y  Y1  1  0.25000000  0.71763200  0.64580900  1
  Y  Y2  1  0.75000000  0.21763200  0.85419100  1
  Y  Y3  1  0.75000000  0.28236800  0.35419100  1
  As  As0  1  0.75000000  0.78153600  0.49797600  1
  As  As1  1  0.75000000  0.71846400  0.99797600  1
  As  As2  1  0.25000000  0.21846400  0.50202400  1
  As  As3  1  0.25000000  0.28153600  0.00202400  1
  S  S0  1  0.25000000  0.78170700  0.31326200  1
  S  S1  1  0.25000000  0.71829300  0.81326200  1
  S  S2  1  0.75000000  0.21829300  0.68673800  1
  S  S3  1  0.75000000  0.28170700  0.18673800  1
loop_
_geom_bond_atom_site_label_1
_geom_bond_atom_site_label_2
_geom_bond_distance
_geom_bond_site_symmetry_2
As0 As2 2.552652 1_565
As0 As2 2.552652 1_665
As0 As2 2.896304 1_555
As0 As2 2.896304 1_655
As0 Y3 3.117530 1_555
As0 Y3 3.121489 1_565
As0 Y1 3.178352 1_655
As0 Y1 3.178352 1_555
As1 As3 2.552652 1_656
As1 As3 2.552652 1_556
As1 As3 2.896304 1_566
As1 As3 2.896304 1_666
As1 Y2 3.117530 1_565
As1 Y2 3.121489 1_555
As1 Y0 3.178352 1_556
As1 Y0 3.178352 1_656
As2 Y1 3.117530 1_555
As2 Y1 3.121489 1_545
As2 Y3 3.178352 1_455
As2 Y3 3.178352 1_555
As3 Y0 3.117530 1_545
As3 Y0 3.121489 1_555
As3 Y2 3.178352 1_554
As3 Y2 3.178352 1_454
S0 Y3 2.804724 1_455
S0 Y3 2.804724 1_555
S0 Y3 2.808221 1_565
S0 Y3 2.808221 1_465
S0 Y0 2.857492 1_555
S1 Y2 2.804724 1_565
S1 Y2 2.804724 1_465
S1 Y2 2.808221 1_455
S1 Y2 2.808221 1_555
S1 Y1 2.857492 1_555
S2 Y1 2.804724 1_555
S2 Y1 2.804724 1_655
S2 Y1 2.808221 1_645
S2 Y1 2.808221 1_545
S2 Y2 2.857492 1_555
S3 Y0 2.804724 1_545
S3 Y0 2.804724 1_645
S3 Y0 2.808221 1_655
S3 Y0 2.808221 1_555
S3 Y3 2.857492 1_555
