# generated using pymatgen
data_Bi5(PO5)3
_symmetry_space_group_name_H-M   'P 1'
_cell_length_a   10.19066800
_cell_length_b   12.00150472
_cell_length_c   12.21397895
_cell_angle_alpha   111.02241660
_cell_angle_beta   93.04298585
_cell_angle_gamma   107.84259142
_symmetry_Int_Tables_number   1
_chemical_formula_structural   Bi5(PO5)3
_chemical_formula_sum   'Bi20 P12 O60'
_cell_volume   1304.79007700
_cell_formula_units_Z   4
loop_
 _symmetry_equiv_pos_site_id
 _symmetry_equiv_pos_as_xyz
  1  'x, y, z'
loop_
 _atom_site_type_symbol
 _atom_site_label
 _atom_site_symmetry_multiplicity
 _atom_site_fract_x
 _atom_site_fract_y
 _atom_site_fract_z
 _atom_site_occupancy
  Bi  Bi0  1  0.81093400  0.48842700  0.49170700  1
  Bi  Bi1  1  0.14602700  0.82549500  0.15210100  1
  Bi  Bi2  1  0.47869600  0.15308600  0.82706300  1
  Bi  Bi3  1  0.85397300  0.17450500  0.84789900  1
  Bi  Bi4  1  0.18906600  0.51157300  0.50829300  1
  Bi  Bi5  1  0.52130400  0.84691400  0.17293700  1
  Bi  Bi6  1  0.66014900  0.14698600  0.47015300  1
  Bi  Bi7  1  0.99266600  0.48101600  0.13768000  1
  Bi  Bi8  1  0.32483100  0.81638900  0.80715700  1
  Bi  Bi9  1  0.00733400  0.51898400  0.86232000  1
  Bi  Bi10  1  0.33985100  0.85301400  0.52984700  1
  Bi  Bi11  1  0.67516900  0.18361100  0.19284300  1
  Bi  Bi12  1  0.77660900  0.69455800  0.01396000  1
  Bi  Bi13  1  0.09607100  0.01186000  0.69413000  1
  Bi  Bi14  1  0.43731300  0.34668200  0.34877000  1
  Bi  Bi15  1  0.90392900  0.98814000  0.30587000  1
  Bi  Bi16  1  0.22339100  0.30544200  0.98604000  1
  Bi  Bi17  1  0.56268700  0.65331800  0.65123000  1
  Bi  Bi18  1  0.32954300  0.33014700  0.66929400  1
  Bi  Bi19  1  0.67045700  0.66985300  0.33070600  1
  P  P0  1  0.00292100  0.25784800  0.60374600  1
  P  P1  1  0.33737900  0.59119300  0.27017900  1
  P  P2  1  0.67318900  0.92454100  0.93642100  1
  P  P3  1  0.66262100  0.40880700  0.72982100  1
  P  P4  1  0.99707900  0.74215200  0.39625400  1
  P  P5  1  0.32681100  0.07545900  0.06357900  1
  P  P6  1  0.69377900  0.93360600  0.57454400  1
  P  P7  1  0.02656600  0.26463000  0.24088600  1
  P  P8  1  0.36137700  0.59961000  0.90684300  1
  P  P9  1  0.97343400  0.73537000  0.75911400  1
  P  P10  1  0.30622100  0.06639400  0.42545600  1
  P  P11  1  0.63862300  0.40039000  0.09315700  1
  O  O0  1  0.72122400  0.96153000  0.46142100  1
  O  O1  1  0.05713900  0.29840500  0.12990800  1
  O  O2  1  0.39004100  0.62902600  0.79403700  1
  O  O3  1  0.94286100  0.70159500  0.87009200  1
  O  O4  1  0.27877600  0.03847000  0.53857900  1
  O  O5  1  0.60995900  0.37097400  0.20596300  1
  O  O6  1  0.96821900  0.11984300  0.20547200  1
  O  O7  1  0.30570900  0.45152100  0.86584200  1
  O  O8  1  0.63806500  0.78521900  0.53441800  1
  O  O9  1  0.69429100  0.54847900  0.13415800  1
  O  O10  1  0.03178100  0.88015700  0.79452800  1
  O  O11  1  0.36193500  0.21478100  0.46558200  1
  O  O12  1  0.90638400  0.21536700  0.48299300  1
  O  O13  1  0.24025500  0.54811800  0.15025800  1
  O  O14  1  0.57083800  0.87803400  0.81545900  1
  O  O15  1  0.75974500  0.45188200  0.84974200  1
  O  O16  1  0.09361600  0.78463300  0.51700700  1
  O  O17  1  0.42916200  0.12196600  0.18454100  1
  O  O18  1  0.08857100  0.16880700  0.59736300  1
  O  O19  1  0.42100800  0.50075300  0.26461400  1
  O  O20  1  0.74216800  0.82439200  0.92478200  1
  O  O21  1  0.57899200  0.49924700  0.73538600  1
  O  O22  1  0.91142900  0.83119300  0.40263700  1
  O  O23  1  0.25783200  0.17560800  0.07521800  1
  O  O24  1  0.91473300  0.32646300  0.29032400  1
  O  O25  1  0.24746600  0.65668500  0.95591900  1
  O  O26  1  0.58023800  0.99044400  0.62491400  1
  O  O27  1  0.75253400  0.34331500  0.04408100  1
  O  O28  1  0.08526700  0.67353700  0.70967600  1
  O  O29  1  0.41976200  0.00955600  0.37508600  1
  O  O30  1  0.04669900  0.14360700  0.85771500  1
  O  O31  1  0.37707200  0.47157000  0.53584000  1
  O  O32  1  0.70729300  0.80538000  0.20124600  1
  O  O33  1  0.62292800  0.52843000  0.46416000  1
  O  O34  1  0.95330100  0.85639300  0.14228500  1
  O  O35  1  0.29270700  0.19462000  0.79875400  1
  O  O36  1  0.82753300  0.99345000  0.67236300  1
  O  O37  1  0.16277000  0.32863100  0.33893600  1
  O  O38  1  0.49374800  0.66054500  0.00578200  1
  O  O39  1  0.83723000  0.67136900  0.66106400  1
  O  O40  1  0.17246700  0.00655000  0.32763700  1
  O  O41  1  0.50625200  0.33945500  0.99421800  1
  O  O42  1  0.12011100  0.39090500  0.63269300  1
  O  O43  1  0.45379000  0.72414400  0.30028300  1
  O  O44  1  0.77713200  0.06006200  0.96612600  1
  O  O45  1  0.54621000  0.27585600  0.69971700  1
  O  O46  1  0.87988900  0.60909500  0.36730700  1
  O  O47  1  0.22286800  0.93993800  0.03387400  1
  O  O48  1  0.01631500  0.38097400  0.95433000  1
  O  O49  1  0.35302600  0.71541800  0.61973700  1
  O  O50  1  0.68485700  0.04913500  0.28526500  1
  O  O51  1  0.64697400  0.28458200  0.38026300  1
  O  O52  1  0.98368500  0.61902600  0.04567000  1
  O  O53  1  0.31514300  0.95086500  0.71473500  1
  O  O54  1  0.91533100  0.26840200  0.70418400  1
  O  O55  1  0.25039200  0.60264000  0.37175600  1
  O  O56  1  0.58525100  0.93718800  0.03978100  1
  O  O57  1  0.74960800  0.39736000  0.62824400  1
  O  O58  1  0.08466900  0.73159800  0.29581600  1
  O  O59  1  0.41474900  0.06281200  0.96021900  1
loop_
_geom_bond_atom_site_label_1
_geom_bond_atom_site_label_2
_geom_bond_distance
_geom_bond_site_symmetry_2
Bi0 O33 2.150702 1_555
Bi0 O57 2.316452 1_555
Bi0 O39 2.343782 1_555
Bi0 O51 2.343943 1_555
Bi0 O46 2.442982 1_555
Bi1 O34 2.112441 1_455
Bi1 O47 2.338547 1_555
Bi1 O52 2.348491 1_455
Bi1 O40 2.372409 1_565
Bi1 O58 2.417855 1_555
Bi2 O35 2.143229 1_555
Bi2 O59 2.277632 1_555
Bi2 O53 2.332337 1_545
Bi2 O41 2.351141 1_555
Bi2 O45 2.490035 1_555
Bi3 O30 2.112441 1_655
Bi3 O44 2.338547 1_555
Bi3 O48 2.348491 1_655
Bi3 O36 2.372409 1_545
Bi3 O54 2.417855 1_555
Bi4 O31 2.150702 1_555
Bi4 O55 2.316452 1_555
Bi4 O37 2.343782 1_555
Bi4 O49 2.343943 1_555
Bi4 O42 2.442982 1_555
Bi5 O32 2.143229 1_555
Bi5 O56 2.277632 1_555
Bi5 O50 2.332337 1_565
Bi5 O38 2.351141 1_555
Bi5 O43 2.490035 1_555
Bi6 O50 2.209286 1_555
Bi6 O51 2.317639 1_555
Bi6 O12 2.366136 1_555
Bi6 O29 2.432621 1_555
Bi6 O0 2.457310 1_545
Bi6 O57 2.749603 1_555
Bi7 O48 2.195500 1_654
Bi7 O52 2.330709 1_555
Bi7 O13 2.379723 1_655
Bi7 O27 2.428090 1_555
Bi7 O1 2.446138 1_655
Bi7 O58 2.750673 1_655
Bi8 O49 2.254808 1_555
Bi8 O53 2.298189 1_555
Bi8 O14 2.371740 1_555
Bi8 O28 2.445178 1_555
Bi8 O2 2.488402 1_555
Bi8 O59 2.696621 1_565
Bi9 O52 2.195500 1_456
Bi9 O48 2.330709 1_555
Bi9 O15 2.379723 1_455
Bi9 O25 2.428090 1_555
Bi9 O3 2.446138 1_455
Bi9 O54 2.750673 1_455
Bi10 O53 2.209286 1_555
Bi10 O49 2.317639 1_555
Bi10 O16 2.366136 1_555
Bi10 O26 2.432621 1_555
Bi10 O4 2.457310 1_565
Bi10 O55 2.749603 1_555
Bi11 O51 2.254808 1_555
Bi11 O50 2.298189 1_555
Bi11 O17 2.371740 1_555
Bi11 O24 2.445178 1_555
Bi11 O5 2.488402 1_555
Bi11 O56 2.696621 1_545
Bi12 O34 2.200975 1_555
Bi12 O20 2.291251 1_554
Bi12 O32 2.462736 1_555
Bi12 O3 2.510007 1_554
Bi12 O52 2.600432 1_555
Bi12 O9 2.647404 1_555
Bi12 O38 2.775746 1_555
Bi12 O15 2.828525 1_554
Bi13 O30 2.252318 1_555
Bi13 O10 2.296233 1_545
Bi13 O35 2.341602 1_555
Bi13 O18 2.574216 1_555
Bi13 O53 2.580160 1_545
Bi13 O36 2.668045 1_445
Bi13 O4 2.761290 1_555
Bi13 O16 2.799525 1_545
Bi14 O33 2.303269 1_555
Bi14 O19 2.457040 1_555
Bi14 O31 2.469764 1_555
Bi14 O11 2.474507 1_555
Bi14 O51 2.522433 1_555
Bi14 O5 2.568875 1_555
Bi14 O17 2.695857 1_555
Bi14 O37 2.731875 1_555
Bi15 O34 2.252318 1_555
Bi15 O6 2.296233 1_565
Bi15 O32 2.341602 1_555
Bi15 O22 2.574216 1_555
Bi15 O50 2.580160 1_565
Bi15 O40 2.668045 1_665
Bi15 O0 2.761290 1_555
Bi15 O12 2.799525 1_565
Bi16 O30 2.200975 1_555
Bi16 O23 2.291251 1_556
Bi16 O35 2.462736 1_555
Bi16 O1 2.510007 1_556
Bi16 O48 2.600432 1_555
Bi16 O7 2.647404 1_555
Bi16 O41 2.775746 1_555
Bi16 O13 2.828525 1_556
Bi17 O31 2.303269 1_555
Bi17 O21 2.457040 1_555
Bi17 O33 2.469764 1_555
Bi17 O8 2.474507 1_555
Bi17 O49 2.522433 1_555
Bi17 O2 2.568875 1_555
Bi17 O14 2.695857 1_555
Bi17 O39 2.731875 1_555
Bi18 O7 2.390336 1_555
Bi18 O11 2.472329 1_555
Bi18 O18 2.487578 1_555
Bi18 O42 2.524454 1_555
Bi18 O45 2.531014 1_555
Bi18 O21 2.584112 1_555
Bi18 O35 2.611681 1_555
Bi18 O31 2.708741 1_555
Bi19 O9 2.390336 1_555
Bi19 O8 2.472329 1_555
Bi19 O22 2.487578 1_555
Bi19 O46 2.524454 1_555
Bi19 O43 2.531014 1_555
Bi19 O19 2.584112 1_555
Bi19 O32 2.611681 1_555
Bi19 O33 2.708741 1_555
O0 P6 1.554151 1_555
O1 P7 1.568556 1_555
O2 P8 1.561039 1_555
O3 P9 1.568556 1_555
O4 P10 1.554151 1_555
O5 P11 1.561039 1_555
O6 P7 1.536355 1_655
O7 P8 1.563578 1_555
O8 P6 1.568017 1_555
O9 P11 1.563578 1_555
O10 P9 1.536355 1_455
O11 P10 1.568017 1_555
O12 P0 1.549871 1_655
O13 P1 1.543217 1_555
O14 P2 1.571693 1_555
O15 P3 1.543217 1_555
O16 P4 1.549871 1_455
O17 P5 1.571693 1_555
O18 P0 1.558495 1_555
O19 P1 1.558568 1_555
O20 P2 1.537780 1_555
O21 P3 1.558568 1_555
O22 P4 1.558495 1_555
O23 P5 1.537780 1_555
O24 P7 1.576056 1_655
O25 P8 1.562879 1_555
O26 P6 1.562290 1_555
O27 P11 1.562879 1_555
O28 P9 1.576056 1_455
O29 P10 1.562290 1_555
O36 P6 1.553288 1_555
O37 P7 1.568746 1_555
O38 P8 1.550207 1_554
O39 P9 1.568746 1_555
O40 P10 1.553288 1_555
O41 P11 1.550207 1_556
O42 P0 1.575657 1_555
O43 P1 1.568848 1_555
O44 P2 1.542422 1_545
O45 P3 1.568848 1_555
O46 P4 1.575657 1_555
O47 P5 1.542422 1_565
O54 P0 1.546527 1_655
O55 P1 1.553390 1_555
O56 P2 1.576659 1_554
O57 P3 1.553390 1_555
O58 P4 1.546527 1_455
O59 P5 1.576659 1_556
