# generated using pymatgen
data_Na2ScIn(SiO3)4
_symmetry_space_group_name_H-M   'P 1'
_cell_length_a   6.80580482
_cell_length_b   6.80580482
_cell_length_c   5.42202543
_cell_angle_alpha   77.35294403
_cell_angle_beta   77.35294403
_cell_angle_gamma   85.13256952
_symmetry_Int_Tables_number   1
_chemical_formula_structural   Na2ScIn(SiO3)4
_chemical_formula_sum   'Na2 Sc1 In1 Si4 O12'
_cell_volume   238.92392478
_cell_formula_units_Z   1
loop_
 _symmetry_equiv_pos_site_id
 _symmetry_equiv_pos_as_xyz
  1  'x, y, z'
loop_
 _atom_site_type_symbol
 _atom_site_label
 _atom_site_symmetry_multiplicity
 _atom_site_fract_x
 _atom_site_fract_y
 _atom_site_fract_z
 _atom_site_occupancy
  Na  Na0  1  0.30300200  0.69699800  0.50000000  1
  Na  Na1  1  0.69662900  0.30337100  0.00000000  1
  Sc  Sc0  1  0.89145500  0.10854500  0.50000000  1
  In  In0  1  0.10427600  0.89572400  0.00000000  1
  Si  Si0  1  0.79614200  0.62165500  0.49582900  1
  Si  Si1  1  0.37834500  0.20385800  0.50417100  1
  Si  Si2  1  0.20530400  0.37663600  0.00479800  1
  Si  Si3  1  0.62336400  0.79469600  0.99520200  1
  O  O0  1  0.88474800  0.39268900  0.56039600  1
  O  O1  1  0.60731100  0.11525200  0.43960400  1
  O  O2  1  0.11167800  0.60108500  0.93338400  1
  O  O3  1  0.39891500  0.88832200  0.06661600  1
  O  O4  1  0.66215600  0.64082100  0.26799100  1
  O  O5  1  0.35917900  0.33784400  0.73200900  1
  O  O6  1  0.34092600  0.35844300  0.23123400  1
  O  O7  1  0.64155700  0.65907400  0.76876600  1
  O  O8  1  0.95842800  0.80250700  0.40391900  1
  O  O9  1  0.19749300  0.04157200  0.59608100  1
  O  O10  1  0.03830000  0.19920700  0.10631400  1
  O  O11  1  0.80079300  0.96170000  0.89368600  1
loop_
_geom_bond_atom_site_label_1
_geom_bond_atom_site_label_2
_geom_bond_distance
_geom_bond_site_symmetry_2
Na0 O2 2.403331 1_555
Na0 O3 2.403331 1_555
Na0 O9 2.524266 1_565
Na0 O8 2.524266 1_455
Na0 O4 2.531591 1_555
Na0 O5 2.531591 1_555
Na0 O6 2.950247 1_555
Na0 O7 2.950247 1_555
Na1 O1 2.418945 1_555
Na1 O0 2.418945 1_554
Na1 O6 2.509106 1_555
Na1 O7 2.509106 1_554
Na1 O11 2.523954 1_544
Na1 O10 2.523954 1_655
Na1 O4 2.943031 1_555
Na1 O5 2.943031 1_554
In0 O2 2.108576 1_554
In0 O3 2.108576 1_555
In0 O8 2.175009 1_455
In0 O9 2.175009 1_564
In0 O10 2.247352 1_565
In0 O11 2.247352 1_454
O0 Si0 1.615114 1_555
O0 Sc0 2.026028 1_555
O1 Si1 1.615114 1_555
O1 Sc0 2.026028 1_555
O2 Si2 1.604132 1_556
O3 Si3 1.604132 1_554
O4 Si0 1.666478 1_555
O4 Si3 1.673281 1_554
O5 Si1 1.666478 1_555
O5 Si2 1.673281 1_556
O6 Si2 1.668804 1_555
O6 Si1 1.673180 1_555
O7 Si3 1.668804 1_555
O7 Si0 1.673180 1_555
O8 Si0 1.644475 1_555
O8 Sc0 2.242187 1_565
O9 Si1 1.644475 1_555
O9 Sc0 2.242187 1_455
O10 Si2 1.649517 1_555
O10 Sc0 2.128308 1_455
O11 Si3 1.649517 1_555
O11 Sc0 2.128308 1_565
