# generated using pymatgen
data_LuZn5
_symmetry_space_group_name_H-M   'P 1'
_cell_length_a   8.71279829
_cell_length_b   8.71279829
_cell_length_c   8.85668365
_cell_angle_alpha   90.00000000
_cell_angle_beta   90.00000000
_cell_angle_gamma   119.99999554
_symmetry_Int_Tables_number   1
_chemical_formula_structural   LuZn5
_chemical_formula_sum   'Lu6 Zn30'
_cell_volume   582.26019778
_cell_formula_units_Z   6
loop_
 _symmetry_equiv_pos_site_id
 _symmetry_equiv_pos_as_xyz
  1  'x, y, z'
loop_
 _atom_site_type_symbol
 _atom_site_label
 _atom_site_symmetry_multiplicity
 _atom_site_fract_x
 _atom_site_fract_y
 _atom_site_fract_z
 _atom_site_occupancy
  Lu  Lu0  1  0.19177366  0.80822634  0.25000000  1
  Lu  Lu1  1  0.19177366  0.38354632  0.25000000  1
  Lu  Lu2  1  0.61645368  0.80822634  0.25000000  1
  Lu  Lu3  1  0.80822634  0.19177366  0.75000000  1
  Lu  Lu4  1  0.80822634  0.61645368  0.75000000  1
  Lu  Lu5  1  0.38354632  0.19177366  0.75000000  1
  Zn  Zn0  1  0.00000000  0.00000000  0.50000000  1
  Zn  Zn1  1  0.00000000  0.00000000  0.00000000  1
  Zn  Zn2  1  0.33333300  0.66666700  0.48424509  1
  Zn  Zn3  1  0.66666700  0.33333300  0.51575491  1
  Zn  Zn4  1  0.66666700  0.33333300  0.98424509  1
  Zn  Zn5  1  0.33333300  0.66666700  0.01575491  1
  Zn  Zn6  1  0.50000000  0.50000000  0.50000000  1
  Zn  Zn7  1  0.50000000  0.00000000  0.50000000  1
  Zn  Zn8  1  0.00000000  0.50000000  0.50000000  1
  Zn  Zn9  1  0.50000000  0.50000000  0.00000000  1
  Zn  Zn10  1  0.50000000  0.00000000  0.00000000  1
  Zn  Zn11  1  0.00000000  0.50000000  0.00000000  1
  Zn  Zn12  1  0.56752355  0.43247645  0.25000000  1
  Zn  Zn13  1  0.56752355  0.13504809  0.25000000  1
  Zn  Zn14  1  0.86495191  0.43247645  0.25000000  1
  Zn  Zn15  1  0.43247645  0.56752355  0.75000000  1
  Zn  Zn16  1  0.43247645  0.86495191  0.75000000  1
  Zn  Zn17  1  0.13504809  0.56752355  0.75000000  1
  Zn  Zn18  1  0.84004530  0.15995470  0.40679016  1
  Zn  Zn19  1  0.84004530  0.68008959  0.40679016  1
  Zn  Zn20  1  0.31991041  0.15995470  0.40679016  1
  Zn  Zn21  1  0.15995470  0.84004530  0.59320984  1
  Zn  Zn22  1  0.15995470  0.31991041  0.59320984  1
  Zn  Zn23  1  0.68008959  0.84004530  0.59320984  1
  Zn  Zn24  1  0.15995470  0.84004530  0.90679016  1
  Zn  Zn25  1  0.15995470  0.31991041  0.90679016  1
  Zn  Zn26  1  0.68008959  0.84004530  0.90679016  1
  Zn  Zn27  1  0.84004530  0.15995470  0.09320984  1
  Zn  Zn28  1  0.84004530  0.68008959  0.09320984  1
  Zn  Zn29  1  0.31991041  0.15995470  0.09320984  1
loop_
_geom_bond_atom_site_label_1
_geom_bond_atom_site_label_2
_geom_bond_distance
_geom_bond_site_symmetry_2
Lu0 Zn5 2.977881 1_555
Lu0 Zn2 2.977881 1_555
Lu0 Zn28 3.024036 1_455
Lu0 Zn19 3.024036 1_455
Lu0 Zn29 3.024036 1_565
Lu0 Zn20 3.024036 1_565
Lu0 Zn21 3.077394 1_555
Lu0 Zn24 3.077394 1_554
Lu0 Zn13 3.082868 1_565
Lu0 Zn14 3.082868 1_455
Lu0 Zn7 3.227880 1_565
Lu0 Zn10 3.227880 1_565
Lu0 Zn11 3.227880 1_555
Lu0 Zn8 3.227880 1_555
Lu1 Zn5 2.977891 1_555
Lu1 Zn2 2.977891 1_555
Lu1 Zn29 3.024036 1_555
Lu1 Zn20 3.024036 1_555
Lu1 Zn27 3.024036 1_455
Lu1 Zn18 3.024036 1_455
Lu1 Zn25 3.077392 1_554
Lu1 Zn22 3.077392 1_555
Lu1 Zn12 3.082861 1_555
Lu1 Zn14 3.082879 1_455
Lu1 Zn9 3.227879 1_555
Lu1 Zn6 3.227879 1_555
Lu1 Zn8 3.227885 1_555
Lu1 Zn11 3.227885 1_555
Lu2 Zn5 2.977891 1_555
Lu2 Zn2 2.977891 1_555
Lu2 Zn28 3.024036 1_555
Lu2 Zn19 3.024036 1_555
Lu2 Zn27 3.024036 1_565
Lu2 Zn18 3.024036 1_565
Lu2 Zn23 3.077392 1_555
Lu2 Zn26 3.077392 1_554
Lu2 Zn12 3.082861 1_555
Lu2 Zn13 3.082879 1_565
Lu2 Zn6 3.227879 1_555
Lu2 Zn9 3.227879 1_555
Lu2 Zn10 3.227885 1_565
Lu2 Zn7 3.227885 1_565
Lu3 Zn4 2.977881 1_555
Lu3 Zn3 2.977881 1_555
Lu3 Zn25 3.024036 1_655
Lu3 Zn23 3.024036 1_545
Lu3 Zn22 3.024036 1_655
Lu3 Zn26 3.024036 1_545
Lu3 Zn18 3.077394 1_555
Lu3 Zn27 3.077394 1_556
Lu3 Zn17 3.082868 1_655
Lu3 Zn16 3.082868 1_545
Lu3 Zn11 3.227880 1_656
Lu3 Zn8 3.227880 1_655
Lu3 Zn10 3.227880 1_556
Lu3 Zn7 3.227880 1_555
Lu4 Zn4 2.977891 1_555
Lu4 Zn3 2.977891 1_555
Lu4 Zn26 3.024036 1_555
Lu4 Zn23 3.024036 1_555
Lu4 Zn21 3.024036 1_655
Lu4 Zn24 3.024036 1_655
Lu4 Zn19 3.077392 1_555
Lu4 Zn28 3.077392 1_556
Lu4 Zn15 3.082861 1_555
Lu4 Zn17 3.082879 1_655
Lu4 Zn9 3.227879 1_556
Lu4 Zn6 3.227879 1_555
Lu4 Zn11 3.227885 1_656
Lu4 Zn8 3.227885 1_655
Lu5 Zn4 2.977891 1_555
Lu5 Zn3 2.977891 1_555
Lu5 Zn25 3.024036 1_555
Lu5 Zn22 3.024036 1_555
Lu5 Zn21 3.024036 1_545
Lu5 Zn24 3.024036 1_545
Lu5 Zn20 3.077392 1_555
Lu5 Zn29 3.077392 1_556
Lu5 Zn15 3.082861 1_555
Lu5 Zn16 3.082879 1_545
Lu5 Zn9 3.227879 1_556
Lu5 Zn6 3.227879 1_555
Lu5 Zn7 3.227885 1_555
Lu5 Zn10 3.227885 1_556
Zn0 Zn18 2.551138 1_455
Zn0 Zn21 2.551138 1_545
Zn0 Zn19 2.551146 1_445
Zn0 Zn22 2.551146 1_555
Zn0 Zn23 2.551146 1_445
Zn0 Zn20 2.551146 1_555
Zn1 Zn24 2.551138 1_544
Zn1 Zn27 2.551138 1_455
Zn1 Zn25 2.551146 1_554
Zn1 Zn28 2.551146 1_445
Zn1 Zn29 2.551146 1_555
Zn1 Zn26 2.551146 1_444
Zn2 Zn7 2.519033 1_565
Zn2 Zn8 2.519033 1_555
Zn2 Zn6 2.519041 1_555
Zn2 Zn21 2.788760 1_555
Zn2 Zn23 2.788760 1_555
Zn2 Zn22 2.788760 1_555
Zn3 Zn8 2.519033 1_655
Zn3 Zn7 2.519033 1_555
Zn3 Zn6 2.519041 1_555
Zn4 Zn9 2.519041 1_556
Zn5 Zn9 2.519041 1_555
Zn10 Zn16 2.437402 1_544
Zn10 Zn13 2.437402 1_555
Zn10 Zn5 2.519033 1_545
Zn10 Zn4 2.519033 1_554
Zn10 Zn26 2.696767 1_544
Zn10 Zn29 2.696767 1_555
Zn10 Zn24 2.696775 1_544
Zn10 Zn27 2.696775 1_555
Zn11 Zn14 2.437402 1_455
Zn11 Zn17 2.437402 1_554
Zn11 Zn4 2.519033 1_454
Zn11 Zn5 2.519033 1_555
Zn11 Zn25 2.696767 1_554
Zn11 Zn28 2.696767 1_455
Zn11 Zn27 2.696775 1_455
Zn11 Zn24 2.696775 1_554
Zn12 Zn6 2.437398 1_555
Zn12 Zn9 2.437398 1_555
Zn12 Zn13 2.591433 1_555
Zn12 Zn14 2.591433 1_555
Zn12 Zn20 2.664211 1_555
Zn12 Zn29 2.664211 1_555
Zn12 Zn28 2.664211 1_555
Zn12 Zn19 2.664211 1_555
Zn12 Zn4 2.788992 1_554
Zn12 Zn3 2.788992 1_555
Zn13 Zn7 2.437402 1_555
Zn13 Zn14 2.591433 1_555
Zn13 Zn29 2.664202 1_555
Zn13 Zn20 2.664202 1_555
Zn13 Zn18 2.664217 1_555
Zn13 Zn27 2.664217 1_555
Zn13 Zn3 2.788984 1_555
Zn13 Zn4 2.788984 1_554
Zn14 Zn8 2.437402 1_655
Zn14 Zn19 2.664202 1_555
Zn14 Zn28 2.664202 1_555
Zn14 Zn18 2.664217 1_555
Zn14 Zn27 2.664217 1_555
Zn14 Zn3 2.788984 1_555
Zn14 Zn4 2.788984 1_554
Zn15 Zn9 2.437398 1_556
Zn15 Zn6 2.437398 1_555
Zn15 Zn17 2.591433 1_555
Zn15 Zn16 2.591433 1_555
Zn15 Zn23 2.664211 1_555
Zn15 Zn26 2.664211 1_555
Zn15 Zn25 2.664211 1_555
Zn15 Zn22 2.664211 1_555
Zn15 Zn5 2.788992 1_556
Zn15 Zn2 2.788992 1_555
Zn16 Zn7 2.437402 1_565
Zn16 Zn17 2.591433 1_555
Zn16 Zn26 2.664202 1_555
Zn16 Zn23 2.664202 1_555
Zn16 Zn21 2.664217 1_555
Zn16 Zn24 2.664217 1_555
Zn16 Zn2 2.788984 1_555
Zn16 Zn5 2.788984 1_556
Zn17 Zn8 2.437402 1_555
Zn17 Zn25 2.664202 1_555
Zn17 Zn22 2.664202 1_555
Zn17 Zn21 2.664217 1_555
Zn17 Zn24 2.664217 1_555
Zn17 Zn5 2.788984 1_556
Zn17 Zn2 2.788984 1_555
Zn18 Zn8 2.696775 1_655
Zn18 Zn7 2.696775 1_555
Zn18 Zn27 2.777282 1_555
Zn18 Zn3 2.788760 1_555
Zn18 Zn23 2.924518 1_545
Zn18 Zn22 2.924518 1_655
Zn19 Zn8 2.696767 1_655
Zn19 Zn6 2.696774 1_555
Zn19 Zn28 2.777282 1_555
Zn19 Zn3 2.788760 1_555
Zn19 Zn21 2.924518 1_655
Zn19 Zn23 2.924531 1_555
Zn20 Zn7 2.696767 1_555
Zn20 Zn6 2.696774 1_555
Zn20 Zn29 2.777282 1_555
Zn20 Zn3 2.788760 1_555
Zn20 Zn21 2.924518 1_545
Zn20 Zn22 2.924531 1_555
Zn21 Zn7 2.696775 1_565
Zn21 Zn8 2.696775 1_555
Zn21 Zn24 2.777282 1_555
Zn22 Zn8 2.696767 1_555
Zn22 Zn6 2.696774 1_555
Zn22 Zn25 2.777282 1_555
Zn23 Zn7 2.696767 1_565
Zn23 Zn6 2.696774 1_555
Zn23 Zn26 2.777282 1_555
Zn24 Zn5 2.788760 1_556
Zn24 Zn28 2.924518 1_456
Zn24 Zn29 2.924518 1_566
Zn25 Zn9 2.696774 1_556
Zn25 Zn5 2.788760 1_556
Zn25 Zn27 2.924518 1_456
Zn25 Zn29 2.924531 1_556
Zn26 Zn9 2.696774 1_556
Zn26 Zn5 2.788760 1_556
Zn26 Zn27 2.924518 1_566
Zn26 Zn28 2.924531 1_556
Zn27 Zn4 2.788760 1_554
Zn28 Zn9 2.696774 1_555
Zn28 Zn4 2.788760 1_554
Zn29 Zn9 2.696774 1_555
Zn29 Zn4 2.788760 1_554
