# generated using pymatgen
data_SmY(Co2Ni3)2
_symmetry_space_group_name_H-M   'P 1'
_cell_length_a   3.97350600
_cell_length_b   4.90313200
_cell_length_c   8.48001700
_cell_angle_alpha   90.00000000
_cell_angle_beta   90.00000000
_cell_angle_gamma   90.00000000
_symmetry_Int_Tables_number   1
_chemical_formula_structural   SmY(Co2Ni3)2
_chemical_formula_sum   'Sm1 Y1 Co4 Ni6'
_cell_volume   165.21298629
_cell_formula_units_Z   1
loop_
 _symmetry_equiv_pos_site_id
 _symmetry_equiv_pos_as_xyz
  1  'x, y, z'
loop_
 _atom_site_type_symbol
 _atom_site_label
 _atom_site_symmetry_multiplicity
 _atom_site_fract_x
 _atom_site_fract_y
 _atom_site_fract_z
 _atom_site_occupancy
  Sm  Sm0  1  0.00000000  0.50000000  0.00000000  1
  Y  Y0  1  0.00000000  0.00000000  0.50000000  1
  Co  Co0  1  0.00000000  0.50000000  0.33410800  1
  Co  Co1  1  0.00000000  0.00000000  0.83323100  1
  Co  Co2  1  0.00000000  0.00000000  0.16676900  1
  Co  Co3  1  0.00000000  0.50000000  0.66589200  1
  Ni  Ni0  1  0.50000000  0.00000000  0.00000000  1
  Ni  Ni1  1  0.50000000  0.50000000  0.50000000  1
  Ni  Ni2  1  0.50000000  0.75045400  0.25057500  1
  Ni  Ni3  1  0.50000000  0.24954600  0.74942500  1
  Ni  Ni4  1  0.50000000  0.24954600  0.25057500  1
  Ni  Ni5  1  0.50000000  0.75045400  0.74942500  1
loop_
_geom_bond_atom_site_label_1
_geom_bond_atom_site_label_2
_geom_bond_distance
_geom_bond_site_symmetry_2
Co0 Ni1 2.434375 1_555
Co0 Ni1 2.434375 1_455
Co0 Ni4 2.440690 1_555
Co0 Ni2 2.440690 1_455
Co0 Ni4 2.440690 1_455
Co0 Ni2 2.440690 1_555
Co0 Y0 2.826512 1_565
Co0 Y0 2.826512 1_555
Co0 Sm0 2.833242 1_555
Co1 Ni0 2.438680 1_556
Co1 Ni0 2.438680 1_456
Co1 Ni3 2.439127 1_555
Co1 Ni5 2.439127 1_545
Co1 Ni5 2.439127 1_445
Co1 Ni3 2.439127 1_455
Co1 Y0 2.825805 1_555
Co1 Sm0 2.830221 1_546
Co1 Sm0 2.830221 1_556
Co2 Ni0 2.438680 1_555
Co2 Ni0 2.438680 1_455
Co2 Ni2 2.439127 1_445
Co2 Ni4 2.439127 1_555
Co2 Ni4 2.439127 1_455
Co2 Ni2 2.439127 1_545
Co2 Y0 2.825805 1_555
Co2 Sm0 2.830221 1_545
Co2 Sm0 2.830221 1_555
Co3 Ni1 2.434375 1_455
Co3 Ni1 2.434375 1_555
Co3 Ni5 2.440690 1_555
Co3 Ni5 2.440690 1_455
Co3 Ni3 2.440690 1_555
Co3 Ni3 2.440690 1_455
Co3 Y0 2.826512 1_565
Co3 Y0 2.826512 1_555
Co3 Sm0 2.833242 1_556
Ni0 Ni4 2.451980 1_555
Ni0 Ni5 2.451980 1_544
Ni0 Ni3 2.451980 1_554
Ni0 Ni2 2.451980 1_545
Ni0 Sm0 3.155529 1_645
Ni0 Sm0 3.155529 1_555
Ni0 Sm0 3.155529 1_545
Ni0 Sm0 3.155529 1_655
Ni1 Ni3 2.445766 1_555
Ni1 Ni2 2.445766 1_555
Ni1 Ni4 2.445766 1_555
Ni1 Ni5 2.445766 1_555
Ni1 Y0 3.155529 1_565
Ni1 Y0 3.155529 1_665
Ni1 Y0 3.155529 1_555
Ni1 Y0 3.155529 1_655
Ni2 Ni4 2.447114 1_565
Ni2 Ni4 2.456018 1_555
Ni2 Y0 3.149293 1_565
Ni2 Y0 3.149293 1_665
Ni2 Sm0 3.157580 1_555
Ni2 Sm0 3.157580 1_655
Ni3 Ni5 2.447114 1_545
Ni3 Ni5 2.456018 1_555
Ni3 Y0 3.149293 1_555
Ni3 Y0 3.149293 1_655
Ni3 Sm0 3.157580 1_556
Ni3 Sm0 3.157580 1_656
Ni4 Y0 3.149293 1_555
Ni4 Y0 3.149293 1_655
Ni4 Sm0 3.157580 1_555
Ni4 Sm0 3.157580 1_655
Ni5 Y0 3.149293 1_565
Ni5 Y0 3.149293 1_665
Ni5 Sm0 3.157580 1_556
Ni5 Sm0 3.157580 1_656
