# generated using pymatgen
data_NbTe4Cl4O
_symmetry_space_group_name_H-M   'P 1'
_cell_length_a   8.14173400
_cell_length_b   12.49183738
_cell_length_c   12.94292707
_cell_angle_alpha   81.24996728
_cell_angle_beta   82.18012861
_cell_angle_gamma   78.71799485
_symmetry_Int_Tables_number   1
_chemical_formula_structural   NbTe4Cl4O
_chemical_formula_sum   'Nb4 Te16 Cl16 O4'
_cell_volume   1268.20545152
_cell_formula_units_Z   4
loop_
 _symmetry_equiv_pos_site_id
 _symmetry_equiv_pos_as_xyz
  1  'x, y, z'
loop_
 _atom_site_type_symbol
 _atom_site_label
 _atom_site_symmetry_multiplicity
 _atom_site_fract_x
 _atom_site_fract_y
 _atom_site_fract_z
 _atom_site_occupancy
  Nb  Nb0  1  0.55744400  0.75929600  0.26824800  1
  Nb  Nb1  1  0.44255600  0.24070400  0.73175200  1
  Nb  Nb2  1  0.05571800  0.75790400  0.27354700  1
  Nb  Nb3  1  0.94428200  0.24209600  0.72645300  1
  Te  Te0  1  0.56471800  0.57848500  0.72013600  1
  Te  Te1  1  0.43528200  0.42151500  0.27986400  1
  Te  Te2  1  0.75736500  0.87317500  0.75869100  1
  Te  Te3  1  0.24263500  0.12682500  0.24130900  1
  Te  Te4  1  0.25123600  0.65890700  0.64156100  1
  Te  Te5  1  0.74876400  0.34109300  0.35843900  1
  Te  Te6  1  0.77714600  0.73224000  0.61580300  1
  Te  Te7  1  0.22285400  0.26776000  0.38419700  1
  Te  Te8  1  0.23095400  0.84346400  0.87660800  1
  Te  Te9  1  0.76904600  0.15653600  0.12339200  1
  Te  Te10  1  0.48238500  0.65038700  0.91549000  1
  Te  Te11  1  0.51761500  0.34961300  0.08451000  1
  Te  Te12  1  0.27541500  0.86801800  0.65582800  1
  Te  Te13  1  0.72458500  0.13198200  0.34417200  1
  Te  Te14  1  0.93326400  0.75379100  0.91738900  1
  Te  Te15  1  0.06673600  0.24620900  0.08261100  1
  Cl  Cl0  1  0.14871600  0.64168700  0.13328200  1
  Cl  Cl1  1  0.85128400  0.35831300  0.86671800  1
  Cl  Cl2  1  0.56952100  0.89869100  0.12094200  1
  Cl  Cl3  1  0.43047900  0.10130900  0.87905800  1
  Cl  Cl4  1  0.09300000  0.59580600  0.39878600  1
  Cl  Cl5  1  0.90700000  0.40419400  0.60121400  1
  Cl  Cl6  1  0.51284200  0.89444300  0.38845100  1
  Cl  Cl7  1  0.48715800  0.10555700  0.61154900  1
  Cl  Cl8  1  0.61767700  0.61284500  0.41349600  1
  Cl  Cl9  1  0.38232300  0.38715500  0.58650400  1
  Cl  Cl10  1  0.03992200  0.87036500  0.41021100  1
  Cl  Cl11  1  0.96007800  0.12963500  0.58978900  1
  Cl  Cl12  1  0.67432400  0.62053500  0.15327600  1
  Cl  Cl13  1  0.32567600  0.37946500  0.84672400  1
  Cl  Cl14  1  0.08227000  0.91685300  0.14135400  1
  Cl  Cl15  1  0.91773000  0.08314700  0.85864600  1
  O  O0  1  0.83588600  0.76775600  0.27077300  1
  O  O1  1  0.16411400  0.23224400  0.72922700  1
  O  O2  1  0.34112300  0.74946400  0.27022700  1
  O  O3  1  0.65887700  0.25053600  0.72977300  1
loop_
_geom_bond_atom_site_label_1
_geom_bond_atom_site_label_2
_geom_bond_distance
_geom_bond_site_symmetry_2
Nb0 O2 1.785797 1_555
Nb0 O0 2.294882 1_555
Nb1 O3 1.785797 1_555
Nb1 O1 2.294882 1_555
Nb2 O0 1.774774 1_455
Nb2 O2 2.300186 1_555
Nb3 O1 1.774774 1_655
Nb3 O3 2.300186 1_555
Te0 Te10 2.764655 1_555
Te0 Te4 2.819559 1_555
Te0 Te6 2.894640 1_555
Te1 Te11 2.764655 1_555
Te1 Te5 2.819559 1_555
Te1 Te7 2.894640 1_555
Te2 Te6 2.710034 1_555
Te3 Te7 2.710034 1_555
Te10 Te8 2.870573 1_555
Te11 Te9 2.870573 1_555
Te12 Te4 2.693361 1_555
Te12 Te8 2.808193 1_555
Te13 Te5 2.693361 1_555
Te13 Te9 2.808193 1_555
Te14 Te2 2.743507 1_555
Te14 Te8 2.818172 1_655
Te15 Te3 2.743507 1_555
Te15 Te9 2.818172 1_455
Cl0 Nb2 2.444271 1_555
Cl1 Nb3 2.444271 1_555
Cl2 Nb0 2.383843 1_555
Cl3 Nb1 2.383843 1_555
Cl4 Nb2 2.390532 1_555
Cl5 Nb3 2.390532 1_555
Cl6 Nb0 2.409969 1_555
Cl7 Nb1 2.409969 1_555
Cl8 Nb0 2.444373 1_555
Cl9 Nb1 2.444373 1_555
Cl10 Nb2 2.396317 1_555
Cl11 Nb3 2.396317 1_555
Cl12 Nb0 2.424573 1_555
Cl13 Nb1 2.424573 1_555
Cl14 Nb2 2.439324 1_555
Cl15 Nb3 2.439324 1_555
