# generated using pymatgen
data_SiH14(OF)6
_symmetry_space_group_name_H-M   'P 1'
_cell_length_a   5.50917664
_cell_length_b   5.90535585
_cell_length_c   13.83814657
_cell_angle_alpha   90.00000000
_cell_angle_beta   90.00000000
_cell_angle_gamma   108.90746147
_symmetry_Int_Tables_number   1
_chemical_formula_structural   SiH14(OF)6
_chemical_formula_sum   'Si2 H28 O12 F12'
_cell_volume   425.91373895
_cell_formula_units_Z   2
loop_
 _symmetry_equiv_pos_site_id
 _symmetry_equiv_pos_as_xyz
  1  'x, y, z'
loop_
 _atom_site_type_symbol
 _atom_site_label
 _atom_site_symmetry_multiplicity
 _atom_site_fract_x
 _atom_site_fract_y
 _atom_site_fract_z
 _atom_site_occupancy
  Si  Si0  1  -0.00000000  -0.00000000  -0.00000000  1
  Si  Si1  1  -0.00000000  0.50000000  0.50000000  1
  H  H0  1  0.88043838  0.00110565  0.28436907  1
  H  H1  1  0.11956162  -0.00110565  0.71563093  1
  H  H2  1  0.11956162  0.49889435  0.78436907  1
  H  H3  1  0.88043838  0.50110565  0.21563093  1
  H  H4  1  0.44877571  0.56904957  0.84348877  1
  H  H5  1  0.55122429  0.43095043  0.15651123  1
  H  H6  1  0.55122429  0.93095043  0.34348877  1
  H  H7  1  0.44877571  0.06904957  0.65651123  1
  H  H8  1  0.72458825  -0.01048845  0.55200619  1
  H  H9  1  0.27541175  0.01048845  0.44799381  1
  H  H10  1  0.27541175  0.51048845  0.05200619  1
  H  H11  1  0.72458825  0.48951155  0.94799381  1
  H  H12  1  0.80150872  0.87210301  0.68483704  1
  H  H13  1  0.19849128  0.12789699  0.31516296  1
  H  H14  1  0.19849128  0.62789699  0.18483704  1
  H  H15  1  0.80150872  0.37210301  0.81516296  1
  H  H16  1  0.32541616  0.77607121  0.85279849  1
  H  H17  1  0.67458384  0.22392879  0.14720151  1
  H  H18  1  0.67458384  0.72392879  0.35279849  1
  H  H19  1  0.32541616  0.27607121  0.64720151  1
  H  H20  1  0.49994500  0.75227648  0.58506412  1
  H  H21  1  0.50005500  0.24772352  0.41493588  1
  H  H22  1  0.50005500  0.74772352  0.08506412  1
  H  H23  1  0.49994500  0.25227648  0.91493588  1
  H  H24  1  0.87849866  0.91050497  0.79951714  1
  H  H25  1  0.12150134  0.08949503  0.20048286  1
  H  H26  1  0.12150134  0.58949503  0.29951714  1
  H  H27  1  0.87849866  0.41050497  0.70048286  1
  O  O0  1  0.93344337  0.86768487  0.73582122  1
  O  O1  1  0.06655663  0.13231513  0.26417878  1
  O  O2  1  0.06655663  0.63231513  0.23582122  1
  O  O3  1  0.93344337  0.36768487  0.76417878  1
  O  O4  1  0.61829185  0.90649451  0.60643138  1
  O  O5  1  0.38170815  0.09350549  0.39356862  1
  O  O6  1  0.38170815  0.59350549  0.10643138  1
  O  O7  1  0.61829185  0.40649451  0.89356862  1
  O  O8  1  0.34617797  0.65400599  0.80893520  1
  O  O9  1  0.65382203  0.34599401  0.19106480  1
  O  O10  1  0.65382203  0.84599401  0.30893520  1
  O  O11  1  0.34617797  0.15400599  0.69106480  1
  F  F0  1  0.23958653  0.98802676  0.92295793  1
  F  F1  1  0.76041347  0.01197324  0.07704207  1
  F  F2  1  0.76041347  0.51197324  0.42295793  1
  F  F3  1  0.23958653  0.48802676  0.57704207  1
  F  F4  1  0.78966051  0.94550350  0.90652322  1
  F  F5  1  0.21033949  0.05449650  0.09347678  1
  F  F6  1  0.21033949  0.55449650  0.40652322  1
  F  F7  1  0.78966051  0.44550350  0.59347678  1
  F  F8  1  0.92030029  0.20301429  0.47944156  1
  F  F9  1  0.07969971  0.79698571  0.52055844  1
  F  F10  1  0.07969971  0.29698571  0.97944156  1
  F  F11  1  0.92030029  0.70301429  0.02055844  1
loop_
_geom_bond_atom_site_label_1
_geom_bond_atom_site_label_2
_geom_bond_distance
_geom_bond_site_symmetry_2
H0 O1 1.102227 1_655
H0 O10 1.331218 1_545
H1 O0 1.102227 1_445
H1 O11 1.331218 1_555
H2 O3 1.102227 1_455
H2 O8 1.331218 1_555
H3 O2 1.102227 1_655
H3 O9 1.331218 1_555
H4 O8 0.991765 1_555
H5 O9 0.991765 1_555
H6 O10 0.991765 1_555
H7 O11 0.991765 1_555
H8 O4 0.982060 1_545
H9 O5 0.982060 1_555
H10 O6 0.982060 1_555
H11 O7 0.982060 1_555
H12 O0 1.019339 1_555
H12 O4 1.539526 1_555
H13 O1 1.019339 1_555
H13 O5 1.539526 1_555
H14 O2 1.019339 1_555
H14 O6 1.539526 1_555
H15 O3 1.019339 1_555
H15 O7 1.539526 1_555
H16 O8 0.977015 1_555
H17 O9 0.977015 1_555
H18 O10 0.977015 1_555
H19 O11 0.977015 1_555
H20 O4 0.978317 1_555
H21 O5 0.978317 1_555
H22 O6 0.978317 1_555
H23 O7 0.978317 1_555
H24 O0 0.991010 1_555
H25 O1 0.991010 1_555
H26 O2 0.991010 1_555
H27 O3 0.991010 1_555
F0 Si0 1.715895 1_566
F1 Si0 1.715895 1_655
F2 Si1 1.715895 1_655
F3 Si1 1.715895 1_555
F4 H24 1.593887 1_555
F4 Si0 1.696453 1_666
F5 H25 1.593887 1_555
F5 Si0 1.696453 1_555
F6 H26 1.593887 1_555
F6 Si1 1.696453 1_555
F7 H27 1.593887 1_555
F7 Si1 1.696453 1_655
F8 Si1 1.688343 1_655
F9 Si1 1.688343 1_555
F10 Si0 1.688343 1_556
F11 Si0 1.688343 1_665
