# generated using pymatgen
data_YbZnCuP2
_symmetry_space_group_name_H-M   'P 1'
_cell_length_a   3.91683907
_cell_length_b   3.91683907
_cell_length_c   6.45624191
_cell_angle_alpha   90.00000000
_cell_angle_beta   90.00000000
_cell_angle_gamma   120.00001461
_symmetry_Int_Tables_number   1
_chemical_formula_structural   YbZnCuP2
_chemical_formula_sum   'Yb1 Zn1 Cu1 P2'
_cell_volume   85.77916605
_cell_formula_units_Z   1
loop_
 _symmetry_equiv_pos_site_id
 _symmetry_equiv_pos_as_xyz
  1  'x, y, z'
loop_
 _atom_site_type_symbol
 _atom_site_label
 _atom_site_symmetry_multiplicity
 _atom_site_fract_x
 _atom_site_fract_y
 _atom_site_fract_z
 _atom_site_occupancy
  Yb  Yb0  1  0.33333300  0.66666700  0.98366761  1
  Zn  Zn0  1  0.00000000  0.00000000  0.37738886  1
  Cu  Cu0  1  0.66666700  0.33333300  0.64003471  1
  P  P0  1  0.66666700  0.33333300  0.25076962  1
  P  P1  1  0.00000000  0.00000000  0.74813920  1
loop_
_geom_bond_atom_site_label_1
_geom_bond_atom_site_label_2
_geom_bond_distance
_geom_bond_site_symmetry_2
Cu0 P1 2.366643 1_655
Cu0 P1 2.366646 1_555
Cu0 P1 2.366646 1_665
Cu0 P0 2.513190 1_555
Cu0 Zn0 2.826532 1_655
Cu0 Zn0 2.826534 1_555
Cu0 Zn0 2.826534 1_665
Cu0 Yb0 3.167957 1_655
Cu0 Yb0 3.167957 1_545
Cu0 Yb0 3.167962 1_555
P0 Zn0 2.404610 1_655
P0 Zn0 2.404612 1_555
P0 Zn0 2.404612 1_665
P0 Yb0 2.843885 1_654
P0 Yb0 2.843885 1_544
P0 Yb0 2.843890 1_554
P1 Zn0 2.393654 1_555
P1 Yb0 2.725101 1_545
P1 Yb0 2.725104 1_555
P1 Yb0 2.725104 1_445
