# generated using pymatgen
data_Be3ZnO4
_symmetry_space_group_name_H-M   'P 1'
_cell_length_a   4.89703553
_cell_length_b   4.89703553
_cell_length_c   4.89703553
_cell_angle_alpha   131.00271413
_cell_angle_beta   131.00271413
_cell_angle_gamma   71.80876690
_symmetry_Int_Tables_number   1
_chemical_formula_structural   Be3ZnO4
_chemical_formula_sum   'Be3 Zn1 O4'
_cell_volume   65.42621875
_cell_formula_units_Z   1
loop_
 _symmetry_equiv_pos_site_id
 _symmetry_equiv_pos_as_xyz
  1  'x, y, z'
loop_
 _atom_site_type_symbol
 _atom_site_label
 _atom_site_symmetry_multiplicity
 _atom_site_fract_x
 _atom_site_fract_y
 _atom_site_fract_z
 _atom_site_occupancy
  Be  Be0  1  0.00000000  0.00000000  0.00000000  1
  Be  Be1  1  0.75000000  0.25000000  0.50000000  1
  Be  Be2  1  0.25000000  0.75000000  0.50000000  1
  Zn  Zn0  1  0.50000000  0.50000000  0.00000000  1
  O  O0  1  0.08212700  0.08212700  0.43918900  1
  O  O1  1  0.64293900  0.64293900  0.56081100  1
  O  O2  1  0.35706100  0.91787300  0.00000000  1
  O  O3  1  0.91787300  0.35706100  0.00000000  1
loop_
_geom_bond_atom_site_label_1
_geom_bond_atom_site_label_2
_geom_bond_distance
_geom_bond_site_symmetry_2
Be0 O1 1.667351 1_444
Be0 O2 1.667352 1_545
Be0 O3 1.667352 1_455
Be0 O0 1.667356 1_555
Be1 O0 1.699787 1_655
Be1 O3 1.699789 1_556
Be1 O2 1.699789 1_545
Be1 O1 1.699791 1_555
Be2 O0 1.699787 1_565
Be2 O2 1.699789 1_556
Be2 O3 1.699789 1_455
Be2 O1 1.699791 1_555
O0 Zn0 1.945023 1_556
O1 Zn0 1.945019 1_555
O2 Zn0 1.945023 1_555
O3 Zn0 1.945023 1_555
