# generated using pymatgen
data_AlCuO3
_symmetry_space_group_name_H-M   'P 1'
_cell_length_a   4.56359500
_cell_length_b   4.87081500
_cell_length_c   8.70290600
_cell_angle_alpha   90.00000000
_cell_angle_beta   90.00000000
_cell_angle_gamma   90.00000000
_symmetry_Int_Tables_number   1
_chemical_formula_structural   AlCuO3
_chemical_formula_sum   'Al4 Cu4 O12'
_cell_volume   193.45191053
_cell_formula_units_Z   4
loop_
 _symmetry_equiv_pos_site_id
 _symmetry_equiv_pos_as_xyz
  1  'x, y, z'
loop_
 _atom_site_type_symbol
 _atom_site_label
 _atom_site_symmetry_multiplicity
 _atom_site_fract_x
 _atom_site_fract_y
 _atom_site_fract_z
 _atom_site_occupancy
  Al  Al0  1  0.04200600  0.55499900  0.25000000  1
  Al  Al1  1  0.54200600  0.94500100  0.75000000  1
  Al  Al2  1  0.45799400  0.05499900  0.25000000  1
  Al  Al3  1  0.95799400  0.44500100  0.75000000  1
  Cu  Cu0  1  0.00000000  0.00000000  0.50000000  1
  Cu  Cu1  1  0.50000000  0.50000000  0.50000000  1
  Cu  Cu2  1  0.50000000  0.50000000  0.00000000  1
  Cu  Cu3  1  0.00000000  0.00000000  0.00000000  1
  O  O0  1  0.71707800  0.22359400  0.60416400  1
  O  O1  1  0.21707800  0.27640600  0.39583600  1
  O  O2  1  0.78292200  0.72359400  0.89583600  1
  O  O3  1  0.28292200  0.77640600  0.10416400  1
  O  O4  1  0.28292200  0.77640600  0.39583600  1
  O  O5  1  0.78292200  0.72359400  0.60416400  1
  O  O6  1  0.21707800  0.27640600  0.10416400  1
  O  O7  1  0.71707800  0.22359400  0.89583600  1
  O  O8  1  0.20621800  0.13963500  0.75000000  1
  O  O9  1  0.70621800  0.36036500  0.25000000  1
  O  O10  1  0.29378200  0.63963500  0.75000000  1
  O  O11  1  0.79378200  0.86036500  0.25000000  1
loop_
_geom_bond_atom_site_label_1
_geom_bond_atom_site_label_2
_geom_bond_distance
_geom_bond_site_symmetry_2
Al0 O9 1.801945 1_455
Al0 O11 1.869632 1_455
Al0 O4 1.995658 1_555
Al0 O3 1.995658 1_555
Al0 O6 2.022517 1_555
Al0 O1 2.022517 1_555
Al1 O8 1.801945 1_565
Al1 O10 1.869632 1_555
Al1 O5 1.995658 1_555
Al1 O2 1.995658 1_555
Al1 O0 2.022517 1_565
Al1 O7 2.022517 1_565
Al2 O11 1.801945 1_545
Al2 O9 1.869632 1_555
Al2 O6 1.995658 1_555
Al2 O1 1.995658 1_555
Al2 O3 2.022517 1_545
Al2 O4 2.022517 1_545
Al3 O10 1.801945 1_655
Al3 O8 1.869632 1_655
Al3 O0 1.995658 1_555
Al3 O7 1.995658 1_555
Al3 O5 2.022517 1_555
Al3 O2 2.022517 1_555
Cu0 O1 1.901520 1_555
Cu0 O5 1.901520 1_445
Cu0 O4 1.917015 1_545
Cu0 O0 1.917015 1_455
Cu0 O8 2.466178 1_555
Cu0 O11 2.466178 1_445
Cu1 O4 1.901520 1_555
Cu1 O0 1.901520 1_555
Cu1 O5 1.917015 1_555
Cu1 O1 1.917015 1_555
Cu1 O9 2.466178 1_555
Cu1 O10 2.466178 1_555
Cu2 O7 1.901520 1_554
Cu2 O3 1.901520 1_555
Cu2 O6 1.917015 1_555
Cu2 O2 1.917015 1_554
Cu2 O9 2.466178 1_555
Cu2 O10 2.466178 1_554
Cu3 O6 1.901520 1_555
Cu3 O2 1.901520 1_444
Cu3 O7 1.917015 1_454
Cu3 O3 1.917015 1_545
Cu3 O8 2.466178 1_554
Cu3 O11 2.466178 1_445
