# generated using pymatgen
data_Mg6VC
_symmetry_space_group_name_H-M   'P 1'
_cell_length_a   14.34398797
_cell_length_b   14.34398797
_cell_length_c   6.18346400
_cell_angle_alpha   90.00000000
_cell_angle_beta   90.00000000
_cell_angle_gamma   93.41479845
_symmetry_Int_Tables_number   1
_chemical_formula_structural   Mg6VC
_chemical_formula_sum   'Mg48 V8 C8'
_cell_volume   1269.98875655
_cell_formula_units_Z   8
loop_
 _symmetry_equiv_pos_site_id
 _symmetry_equiv_pos_as_xyz
  1  'x, y, z'
loop_
 _atom_site_type_symbol
 _atom_site_label
 _atom_site_symmetry_multiplicity
 _atom_site_fract_x
 _atom_site_fract_y
 _atom_site_fract_z
 _atom_site_occupancy
  Mg  Mg0_0  1  0.38997950  0.26817900  0.00000000  1
  Mg  Mg0_1  1  0.38997950  0.26817900  0.50000000  1
  Mg  Mg0_2  1  0.38997950  0.76817900  0.00000000  1
  Mg  Mg0_3  1  0.38997950  0.76817900  0.50000000  1
  Mg  Mg0_4  1  0.88997950  0.26817900  0.00000000  1
  Mg  Mg0_5  1  0.88997950  0.26817900  0.50000000  1
  Mg  Mg0_6  1  0.88997950  0.76817900  0.00000000  1
  Mg  Mg0_7  1  0.88997950  0.76817900  0.50000000  1
  Mg  Mg1_0  1  0.23182100  0.11002050  0.00000000  1
  Mg  Mg1_1  1  0.23182100  0.11002050  0.50000000  1
  Mg  Mg1_2  1  0.23182100  0.61002050  0.00000000  1
  Mg  Mg1_3  1  0.23182100  0.61002050  0.50000000  1
  Mg  Mg1_4  1  0.73182100  0.11002050  0.00000000  1
  Mg  Mg1_5  1  0.73182100  0.11002050  0.50000000  1
  Mg  Mg1_6  1  0.73182100  0.61002050  0.00000000  1
  Mg  Mg1_7  1  0.73182100  0.61002050  0.50000000  1
  Mg  Mg2_0  1  0.17180050  0.32819950  0.00000000  1
  Mg  Mg2_1  1  0.17180050  0.32819950  0.50000000  1
  Mg  Mg2_2  1  0.17180050  0.82819950  0.00000000  1
  Mg  Mg2_3  1  0.17180050  0.82819950  0.50000000  1
  Mg  Mg2_4  1  0.67180050  0.32819950  0.00000000  1
  Mg  Mg2_5  1  0.67180050  0.32819950  0.50000000  1
  Mg  Mg2_6  1  0.67180050  0.82819950  0.00000000  1
  Mg  Mg2_7  1  0.67180050  0.82819950  0.50000000  1
  Mg  Mg3_0  1  0.31880000  0.44300000  0.25000000  1
  Mg  Mg3_1  1  0.31880000  0.44300000  0.75000000  1
  Mg  Mg3_2  1  0.31880000  0.94300000  0.25000000  1
  Mg  Mg3_3  1  0.31880000  0.94300000  0.75000000  1
  Mg  Mg3_4  1  0.81880000  0.44300000  0.25000000  1
  Mg  Mg3_5  1  0.81880000  0.44300000  0.75000000  1
  Mg  Mg3_6  1  0.81880000  0.94300000  0.25000000  1
  Mg  Mg3_7  1  0.81880000  0.94300000  0.75000000  1
  Mg  Mg4_0  1  0.05700000  0.18120000  0.25000000  1
  Mg  Mg4_1  1  0.05700000  0.18120000  0.75000000  1
  Mg  Mg4_2  1  0.05700000  0.68120000  0.25000000  1
  Mg  Mg4_3  1  0.05700000  0.68120000  0.75000000  1
  Mg  Mg4_4  1  0.55700000  0.18120000  0.25000000  1
  Mg  Mg4_5  1  0.55700000  0.18120000  0.75000000  1
  Mg  Mg4_6  1  0.55700000  0.68120000  0.25000000  1
  Mg  Mg4_7  1  0.55700000  0.68120000  0.75000000  1
  Mg  Mg5_0  1  0.04433500  0.45566500  0.25000000  1
  Mg  Mg5_1  1  0.04433500  0.45566500  0.75000000  1
  Mg  Mg5_2  1  0.04433500  0.95566500  0.25000000  1
  Mg  Mg5_3  1  0.04433500  0.95566500  0.75000000  1
  Mg  Mg5_4  1  0.54433500  0.45566500  0.25000000  1
  Mg  Mg5_5  1  0.54433500  0.45566500  0.75000000  1
  Mg  Mg5_6  1  0.54433500  0.95566500  0.25000000  1
  Mg  Mg5_7  1  0.54433500  0.95566500  0.75000000  1
  V  V0_0  1  0.42036300  0.07963700  0.00000000  1
  V  V0_1  1  0.42036300  0.07963700  0.50000000  1
  V  V0_2  1  0.42036300  0.57963700  0.00000000  1
  V  V0_3  1  0.42036300  0.57963700  0.50000000  1
  V  V0_4  1  0.92036300  0.07963700  0.00000000  1
  V  V0_5  1  0.92036300  0.07963700  0.50000000  1
  V  V0_6  1  0.92036300  0.57963700  0.00000000  1
  V  V0_7  1  0.92036300  0.57963700  0.50000000  1
  C  C0_0  1  0.36590200  0.13409800  0.25000000  1
  C  C0_1  1  0.36590200  0.13409800  0.75000000  1
  C  C0_2  1  0.36590200  0.63409800  0.25000000  1
  C  C0_3  1  0.36590200  0.63409800  0.75000000  1
  C  C0_4  1  0.86590200  0.13409800  0.25000000  1
  C  C0_5  1  0.86590200  0.13409800  0.75000000  1
  C  C0_6  1  0.86590200  0.63409800  0.25000000  1
  C  C0_7  1  0.86590200  0.63409800  0.75000000  1
loop_
_geom_bond_atom_site_label_1
_geom_bond_atom_site_label_2
_geom_bond_distance
_geom_bond_site_symmetry_2
Mg0_0 Mg2_0 3.294891 1_555
Mg0_1 Mg2_1 3.294891 1_555
Mg0_2 Mg2_2 3.294891 1_555
Mg0_3 Mg2_3 3.294891 1_555
Mg0_4 Mg2_4 3.294891 1_555
Mg0_5 Mg2_5 3.294891 1_555
Mg0_6 Mg2_6 3.294891 1_555
Mg0_7 Mg2_7 3.294891 1_555
Mg1_0 Mg2_0 3.294891 1_555
Mg1_1 Mg2_1 3.294891 1_555
Mg1_2 Mg2_2 3.294891 1_555
Mg1_3 Mg2_3 3.294891 1_555
Mg1_4 Mg2_4 3.294891 1_555
Mg1_5 Mg2_5 3.294891 1_555
Mg1_6 Mg2_6 3.294891 1_555
Mg1_7 Mg2_7 3.294891 1_555
Mg2_0 Mg4_0 3.022201 1_555
Mg2_0 Mg4_1 3.022201 1_554
Mg2_0 Mg3_0 3.022201 1_555
Mg2_0 Mg3_1 3.022201 1_554
Mg2_0 Mg5_0 3.077948 1_555
Mg2_0 Mg5_1 3.077948 1_554
Mg2_0 Mg2_1 3.091732 1_555
Mg2_0 Mg2_1 3.091732 1_554
Mg2_1 Mg4_0 3.022201 1_555
Mg2_1 Mg4_1 3.022201 1_555
Mg2_1 Mg3_0 3.022201 1_555
Mg2_1 Mg3_1 3.022201 1_555
Mg2_1 Mg5_0 3.077948 1_555
Mg2_1 Mg5_1 3.077948 1_555
Mg2_2 Mg4_2 3.022201 1_555
Mg2_2 Mg4_3 3.022201 1_554
Mg2_2 Mg3_3 3.022201 1_554
Mg2_2 Mg3_2 3.022201 1_555
Mg2_2 Mg5_2 3.077948 1_555
Mg2_2 Mg5_3 3.077948 1_554
Mg2_2 Mg2_3 3.091732 1_555
Mg2_2 Mg2_3 3.091732 1_554
Mg2_3 Mg4_2 3.022201 1_555
Mg2_3 Mg3_3 3.022201 1_555
Mg2_3 Mg4_3 3.022201 1_555
Mg2_3 Mg3_2 3.022201 1_555
Mg2_3 Mg5_2 3.077948 1_555
Mg2_3 Mg5_3 3.077948 1_555
Mg2_4 Mg3_4 3.022201 1_555
Mg2_4 Mg4_5 3.022201 1_554
Mg2_4 Mg4_4 3.022201 1_555
Mg2_4 Mg3_5 3.022201 1_554
Mg2_4 Mg5_4 3.077948 1_555
Mg2_4 Mg5_5 3.077948 1_554
Mg2_4 Mg2_5 3.091732 1_555
Mg2_4 Mg2_5 3.091732 1_554
Mg2_5 Mg3_4 3.022201 1_555
Mg2_5 Mg3_5 3.022201 1_555
Mg2_5 Mg4_5 3.022201 1_555
Mg2_5 Mg4_4 3.022201 1_555
Mg2_5 Mg5_4 3.077948 1_555
Mg2_5 Mg5_5 3.077948 1_555
Mg2_6 Mg3_7 3.022201 1_554
Mg2_6 Mg3_6 3.022201 1_555
Mg2_6 Mg4_6 3.022201 1_555
Mg2_6 Mg4_7 3.022201 1_554
Mg2_6 Mg5_6 3.077948 1_555
Mg2_6 Mg5_7 3.077948 1_554
Mg2_6 Mg2_7 3.091732 1_555
Mg2_6 Mg2_7 3.091732 1_554
Mg2_7 Mg3_7 3.022201 1_555
Mg2_7 Mg4_7 3.022201 1_555
Mg2_7 Mg3_6 3.022201 1_555
Mg2_7 Mg4_6 3.022201 1_555
Mg2_7 Mg5_6 3.077948 1_555
Mg2_7 Mg5_7 3.077948 1_555
Mg3_0 V0_3 2.830753 1_555
Mg3_0 V0_2 2.830753 1_555
Mg3_0 Mg5_4 3.229346 1_555
Mg3_1 V0_3 2.830753 1_555
Mg3_1 V0_2 2.830753 1_556
Mg3_1 Mg5_5 3.229346 1_555
Mg3_2 V0_0 2.830753 1_565
Mg3_2 V0_1 2.830753 1_565
Mg3_2 Mg5_6 3.229346 1_555
Mg3_3 V0_1 2.830753 1_565
Mg3_3 V0_0 2.830753 1_566
Mg3_3 Mg5_7 3.229346 1_555
Mg3_4 V0_6 2.830753 1_555
Mg3_4 V0_7 2.830753 1_555
Mg3_4 Mg5_0 3.229346 1_655
Mg3_5 V0_7 2.830753 1_555
Mg3_5 V0_6 2.830753 1_556
Mg3_5 Mg5_1 3.229346 1_655
Mg3_6 V0_5 2.830753 1_565
Mg3_6 V0_4 2.830753 1_565
Mg3_6 Mg5_2 3.229346 1_655
Mg3_7 V0_5 2.830753 1_565
Mg3_7 V0_4 2.830753 1_566
Mg3_7 Mg5_3 3.229346 1_655
Mg4_0 V0_4 2.830753 1_455
Mg4_0 V0_5 2.830753 1_455
Mg4_0 Mg5_2 3.229346 1_545
Mg4_1 V0_5 2.830753 1_455
Mg4_1 V0_4 2.830753 1_456
Mg4_1 Mg5_3 3.229346 1_545
Mg4_2 V0_7 2.830753 1_455
Mg4_2 V0_6 2.830753 1_455
Mg4_2 Mg5_0 3.229346 1_555
Mg4_3 V0_7 2.830753 1_455
Mg4_3 V0_6 2.830753 1_456
Mg4_3 Mg5_1 3.229346 1_555
Mg4_4 V0_0 2.830753 1_555
Mg4_4 V0_1 2.830753 1_555
Mg4_4 Mg5_6 3.229346 1_545
Mg4_5 V0_1 2.830753 1_555
Mg4_5 V0_0 2.830753 1_556
Mg4_5 Mg5_7 3.229346 1_545
Mg4_6 V0_3 2.830753 1_555
Mg4_6 V0_2 2.830753 1_555
Mg4_6 Mg5_4 3.229346 1_555
Mg4_7 V0_3 2.830753 1_555
Mg4_7 V0_2 2.830753 1_556
Mg4_7 Mg5_5 3.229346 1_555
Mg5_0 V0_7 3.015091 1_455
Mg5_0 V0_6 3.015091 1_455
Mg5_0 Mg5_1 3.091732 1_555
Mg5_0 Mg5_1 3.091732 1_554
Mg5_1 V0_7 3.015091 1_455
Mg5_1 V0_6 3.015091 1_456
Mg5_2 V0_4 3.015091 1_465
Mg5_2 V0_5 3.015091 1_465
Mg5_2 Mg5_3 3.091732 1_555
Mg5_2 Mg5_3 3.091732 1_554
Mg5_3 V0_5 3.015091 1_465
Mg5_3 V0_4 3.015091 1_466
Mg5_4 V0_3 3.015091 1_555
Mg5_4 V0_2 3.015091 1_555
Mg5_4 Mg5_5 3.091732 1_555
Mg5_4 Mg5_5 3.091732 1_554
Mg5_5 V0_3 3.015091 1_555
Mg5_5 V0_2 3.015091 1_556
Mg5_6 V0_0 3.015091 1_565
Mg5_6 V0_1 3.015091 1_565
Mg5_6 Mg5_7 3.091732 1_555
Mg5_6 Mg5_7 3.091732 1_554
Mg5_7 V0_1 3.015091 1_565
Mg5_7 V0_0 3.015091 1_566
C0_0 V0_0 1.919091 1_555
C0_0 V0_1 1.919091 1_555
C0_0 Mg1_1 2.475635 1_555
C0_0 Mg1_0 2.475635 1_555
C0_0 Mg0_1 2.475635 1_555
C0_0 Mg0_0 2.475635 1_555
C0_0 Mg3_2 2.783797 1_545
C0_0 Mg4_4 2.783797 1_555
C0_1 V0_1 1.919091 1_555
C0_1 V0_0 1.919091 1_556
C0_1 Mg1_1 2.475635 1_555
C0_1 Mg0_1 2.475635 1_555
C0_1 Mg1_0 2.475635 1_556
C0_1 Mg0_0 2.475635 1_556
C0_1 Mg3_3 2.783797 1_545
C0_1 Mg4_5 2.783797 1_555
C0_2 V0_2 1.919091 1_555
C0_2 V0_3 1.919091 1_555
C0_2 Mg1_2 2.475635 1_555
C0_2 Mg1_3 2.475635 1_555
C0_2 Mg0_2 2.475635 1_555
C0_2 Mg0_3 2.475635 1_555
C0_2 Mg3_0 2.783797 1_555
C0_2 Mg4_6 2.783797 1_555
C0_3 V0_3 1.919091 1_555
C0_3 V0_2 1.919091 1_556
C0_3 Mg1_3 2.475635 1_555
C0_3 Mg1_2 2.475635 1_556
C0_3 Mg0_3 2.475635 1_555
C0_3 Mg0_2 2.475635 1_556
C0_3 Mg4_7 2.783797 1_555
C0_3 Mg3_1 2.783797 1_555
C0_4 V0_4 1.919091 1_555
C0_4 V0_5 1.919091 1_555
C0_4 Mg1_5 2.475635 1_555
C0_4 Mg1_4 2.475635 1_555
C0_4 Mg0_5 2.475635 1_555
C0_4 Mg0_4 2.475635 1_555
C0_4 Mg4_0 2.783797 1_655
C0_4 Mg3_6 2.783797 1_545
C0_5 V0_5 1.919091 1_555
C0_5 V0_4 1.919091 1_556
C0_5 Mg0_5 2.475635 1_555
C0_5 Mg1_5 2.475635 1_555
C0_5 Mg1_4 2.475635 1_556
C0_5 Mg0_4 2.475635 1_556
C0_5 Mg4_1 2.783797 1_655
C0_5 Mg3_7 2.783797 1_545
C0_6 V0_6 1.919091 1_555
C0_6 V0_7 1.919091 1_555
C0_6 Mg1_7 2.475635 1_555
C0_6 Mg1_6 2.475635 1_555
C0_6 Mg0_6 2.475635 1_555
C0_6 Mg0_7 2.475635 1_555
C0_6 Mg4_2 2.783797 1_655
C0_6 Mg3_4 2.783797 1_555
C0_7 V0_7 1.919091 1_555
C0_7 V0_6 1.919091 1_556
C0_7 Mg1_7 2.475635 1_555
C0_7 Mg1_6 2.475635 1_556
C0_7 Mg0_7 2.475635 1_555
C0_7 Mg0_6 2.475635 1_556
C0_7 Mg4_3 2.783797 1_655
C0_7 Mg3_5 2.783797 1_555
