# generated using pymatgen
data_Ca3Ni3(AsO4)4
_symmetry_space_group_name_H-M   'P 1'
_cell_length_a   5.12181900
_cell_length_b   9.19281600
_cell_length_c   17.23072410
_cell_angle_alpha   63.57698883
_cell_angle_beta   90.00000000
_cell_angle_gamma   90.00000000
_symmetry_Int_Tables_number   1
_chemical_formula_structural   Ca3Ni3(AsO4)4
_chemical_formula_sum   'Ca6 Ni6 As8 O32'
_cell_volume   726.53739425
_cell_formula_units_Z   2
loop_
 _symmetry_equiv_pos_site_id
 _symmetry_equiv_pos_as_xyz
  1  'x, y, z'
loop_
 _atom_site_type_symbol
 _atom_site_label
 _atom_site_symmetry_multiplicity
 _atom_site_fract_x
 _atom_site_fract_y
 _atom_site_fract_z
 _atom_site_occupancy
  Ca  Ca0  1  0.53548800  0.31066900  0.22963500  1
  Ca  Ca1  1  0.03548800  0.68933100  0.27036500  1
  Ca  Ca2  1  0.46451200  0.68933100  0.77036500  1
  Ca  Ca3  1  0.96451200  0.31066900  0.72963500  1
  Ca  Ca4  1  0.50000000  0.00000000  0.50000000  1
  Ca  Ca5  1  0.00000000  0.00000000  0.00000000  1
  Ni  Ni0  1  0.48225500  0.19740800  0.62192500  1
  Ni  Ni1  1  0.51774500  0.80259200  0.37807500  1
  Ni  Ni2  1  0.98225500  0.80259200  0.87807500  1
  Ni  Ni3  1  0.01774500  0.19740800  0.12192500  1
  Ni  Ni4  1  0.00000000  0.50000000  0.50000000  1
  Ni  Ni5  1  0.50000000  0.50000000  0.00000000  1
  As  As0  1  0.00969000  0.03926400  0.34118600  1
  As  As1  1  0.48820000  0.43587400  0.40542600  1
  As  As2  1  0.98820000  0.56412600  0.09457400  1
  As  As3  1  0.01180000  0.43587400  0.90542600  1
  As  As4  1  0.99031000  0.96073600  0.65881400  1
  As  As5  1  0.51180000  0.56412600  0.59457400  1
  As  As6  1  0.49031000  0.03926400  0.84118600  1
  As  As7  1  0.50969000  0.96073600  0.15881400  1
  O  O0  1  0.45222000  0.80785200  0.26231400  1
  O  O1  1  0.93674000  0.74654000  0.00599500  1
  O  O2  1  0.38810200  0.43584500  0.31216300  1
  O  O3  1  0.40016600  0.14422200  0.15178800  1
  O  O4  1  0.61189800  0.56415500  0.68783700  1
  O  O5  1  0.04778000  0.80785200  0.76231400  1
  O  O6  1  0.88810200  0.56415500  0.18783700  1
  O  O7  1  0.69526500  0.50830000  0.89902800  1
  O  O8  1  0.64671800  0.10129700  0.90728800  1
  O  O9  1  0.54778000  0.19214800  0.73768600  1
  O  O10  1  0.09983400  0.14422200  0.65178800  1
  O  O11  1  0.30473500  0.49170000  0.10097200  1
  O  O12  1  0.29856800  0.58271700  0.41836100  1
  O  O13  1  0.35328200  0.89870300  0.09271200  1
  O  O14  1  0.65301200  0.97696200  0.64189900  1
  O  O15  1  0.15301200  0.02303800  0.85810100  1
  O  O16  1  0.79856800  0.41728300  0.08163900  1
  O  O17  1  0.11189800  0.43584500  0.81216300  1
  O  O18  1  0.14671800  0.89870300  0.59271200  1
  O  O19  1  0.19526500  0.49170000  0.60097200  1
  O  O20  1  0.84698800  0.97696200  0.14189900  1
  O  O21  1  0.34698800  0.02303800  0.35810100  1
  O  O22  1  0.06326000  0.25346000  0.99400500  1
  O  O23  1  0.43674000  0.25346000  0.49400500  1
  O  O24  1  0.70143200  0.41728300  0.58163900  1
  O  O25  1  0.95222000  0.19214800  0.23768600  1
  O  O26  1  0.59983400  0.85577800  0.84821200  1
  O  O27  1  0.85328200  0.10129700  0.40728800  1
  O  O28  1  0.56326000  0.74654000  0.50599500  1
  O  O29  1  0.80473500  0.50830000  0.39902800  1
  O  O30  1  0.20143200  0.58271700  0.91836100  1
  O  O31  1  0.90016600  0.85577800  0.34821200  1
loop_
_geom_bond_atom_site_label_1
_geom_bond_atom_site_label_2
_geom_bond_distance
_geom_bond_site_symmetry_2
Ca0 O2 2.317859 1_555
Ca0 O25 2.372257 1_555
Ca0 O11 2.407838 1_555
Ca0 O3 2.539199 1_555
Ca0 O16 2.656076 1_555
Ca0 O21 2.759414 1_555
Ca0 O6 2.777922 1_555
Ca1 O6 2.317859 1_455
Ca1 O0 2.372257 1_555
Ca1 O29 2.407838 1_455
Ca1 O31 2.539199 1_455
Ca1 O12 2.656076 1_555
Ca1 O20 2.759414 1_455
Ca1 O2 2.777922 1_555
Ca2 O4 2.317859 1_555
Ca2 O5 2.372257 1_555
Ca2 O7 2.407838 1_555
Ca2 O26 2.539199 1_555
Ca2 O30 2.656076 1_555
Ca2 O14 2.759414 1_555
Ca2 O17 2.777922 1_555
Ca3 O17 2.317859 1_655
Ca3 O9 2.372257 1_555
Ca3 O19 2.407838 1_655
Ca3 O10 2.539199 1_655
Ca3 O24 2.656076 1_555
Ca3 O15 2.759414 1_655
Ca3 O4 2.777922 1_555
Ca4 O23 2.308765 1_555
Ca4 O28 2.308765 1_545
Ca4 O27 2.317172 1_555
Ca4 O18 2.317172 1_545
Ca4 O14 2.485221 1_545
Ca4 O21 2.485221 1_555
Ca5 O22 2.308765 1_554
Ca5 O1 2.308765 1_445
Ca5 O8 2.317172 1_454
Ca5 O13 2.317172 1_545
Ca5 O15 2.485221 1_554
Ca5 O20 2.485221 1_445
Ni0 O9 2.001935 1_555
Ni0 O10 2.028889 1_555
Ni0 O23 2.041408 1_555
Ni0 O14 2.090311 1_545
Ni0 O24 2.139827 1_555
Ni1 O0 2.001935 1_555
Ni1 O31 2.028889 1_555
Ni1 O28 2.041408 1_555
Ni1 O21 2.090311 1_565
Ni1 O12 2.139827 1_555
Ni2 O5 2.001935 1_655
Ni2 O26 2.028889 1_555
Ni2 O1 2.041408 1_556
Ni2 O15 2.090311 1_665
Ni2 O30 2.139827 1_655
Ni3 O25 2.001935 1_455
Ni3 O3 2.028889 1_555
Ni3 O22 2.041408 1_554
Ni3 O20 2.090311 1_445
Ni3 O16 2.139827 1_455
Ni4 O19 1.978605 1_555
Ni4 O29 1.978605 1_455
Ni4 O12 1.985829 1_555
Ni4 O24 1.985829 1_455
Ni5 O11 1.978605 1_555
Ni5 O7 1.978605 1_554
Ni5 O30 1.985829 1_554
Ni5 O16 1.985829 1_555
As0 O27 1.685911 1_455
As0 O31 1.729951 1_445
As0 O25 1.735408 1_455
As0 O21 1.747294 1_555
As1 O2 1.686902 1_555
As1 O23 1.712639 1_555
As1 O29 1.737389 1_555
As1 O12 1.755853 1_555
As2 O6 1.686902 1_555
As2 O1 1.712639 1_555
As2 O11 1.737389 1_655
As2 O16 1.755853 1_555
As3 O17 1.686902 1_555
As3 O22 1.712639 1_555
As3 O7 1.737389 1_455
As3 O30 1.755853 1_555
As4 O18 1.685911 1_655
As4 O10 1.729951 1_665
As4 O5 1.735408 1_655
As4 O14 1.747294 1_555
As5 O4 1.686902 1_555
As5 O28 1.712639 1_555
As5 O19 1.737389 1_555
As5 O24 1.755853 1_555
As6 O8 1.685911 1_555
As6 O26 1.729951 1_545
As6 O9 1.735408 1_555
As6 O15 1.747294 1_555
As7 O13 1.685911 1_555
As7 O3 1.729951 1_565
As7 O0 1.735408 1_555
As7 O20 1.747294 1_555
