# generated using pymatgen
data_CsMg14WO16
_symmetry_space_group_name_H-M   'P 1'
_cell_length_a   8.84732900
_cell_length_b   8.84732900
_cell_length_c   4.50755900
_cell_angle_alpha   90.00000000
_cell_angle_beta   90.00000000
_cell_angle_gamma   90.00000000
_symmetry_Int_Tables_number   1
_chemical_formula_structural   CsMg14WO16
_chemical_formula_sum   'Cs1 Mg14 W1 O16'
_cell_volume   352.83021942
_cell_formula_units_Z   1
loop_
 _symmetry_equiv_pos_site_id
 _symmetry_equiv_pos_as_xyz
  1  'x, y, z'
loop_
 _atom_site_type_symbol
 _atom_site_label
 _atom_site_symmetry_multiplicity
 _atom_site_fract_x
 _atom_site_fract_y
 _atom_site_fract_z
 _atom_site_occupancy
  Cs  Cs0  1  0.00000000  0.00000000  0.00000000  1
  Mg  Mg0  1  0.50000000  0.00000000  0.00000000  1
  Mg  Mg1  1  0.00000000  0.50000000  0.00000000  1
  Mg  Mg2  1  0.25942600  0.00000000  0.50000000  1
  Mg  Mg3  1  0.74057400  0.00000000  0.50000000  1
  Mg  Mg4  1  0.24215700  0.50000000  0.50000000  1
  Mg  Mg5  1  0.75784300  0.50000000  0.50000000  1
  Mg  Mg6  1  0.00000000  0.25942600  0.50000000  1
  Mg  Mg7  1  0.50000000  0.24215700  0.50000000  1
  Mg  Mg8  1  0.00000000  0.74057400  0.50000000  1
  Mg  Mg9  1  0.50000000  0.75784300  0.50000000  1
  Mg  Mg10  1  0.24872200  0.24872200  0.00000000  1
  Mg  Mg11  1  0.75127800  0.24872200  0.00000000  1
  Mg  Mg12  1  0.24872200  0.75127800  0.00000000  1
  Mg  Mg13  1  0.75127800  0.75127800  0.00000000  1
  W  W0  1  0.50000000  0.50000000  0.00000000  1
  O  O0  1  0.00000000  0.28661800  0.00000000  1
  O  O1  1  0.50000000  0.25347600  0.00000000  1
  O  O2  1  0.00000000  0.71338200  0.00000000  1
  O  O3  1  0.50000000  0.74652400  0.00000000  1
  O  O4  1  0.25061900  0.25061900  0.50000000  1
  O  O5  1  0.74938100  0.25061900  0.50000000  1
  O  O6  1  0.25061900  0.74938100  0.50000000  1
  O  O7  1  0.74938100  0.74938100  0.50000000  1
  O  O8  1  0.00000000  0.00000000  0.50000000  1
  O  O9  1  0.50000000  0.00000000  0.50000000  1
  O  O10  1  0.00000000  0.50000000  0.50000000  1
  O  O11  1  0.50000000  0.50000000  0.50000000  1
  O  O12  1  0.28661800  0.00000000  0.00000000  1
  O  O13  1  0.71338200  0.00000000  0.00000000  1
  O  O14  1  0.25347600  0.50000000  0.00000000  1
  O  O15  1  0.74652400  0.50000000  0.00000000  1
loop_
_geom_bond_atom_site_label_1
_geom_bond_atom_site_label_2
_geom_bond_distance
_geom_bond_site_symmetry_2
Cs0 O8 2.253779 1_554
Cs0 O8 2.253779 1_555
Cs0 O12 2.535804 1_555
Cs0 O0 2.535804 1_555
Cs0 O13 2.535804 1_455
Cs0 O2 2.535804 1_545
Mg0 O13 1.887861 1_555
Mg0 O12 1.887861 1_555
Mg0 O1 2.242586 1_555
Mg0 O3 2.242586 1_545
Mg0 O9 2.253779 1_554
Mg0 O9 2.253779 1_555
Mg1 O2 1.887861 1_555
Mg1 O0 1.887861 1_555
Mg1 O14 2.242586 1_555
Mg1 O15 2.242586 1_455
Mg1 O10 2.253779 1_555
Mg1 O10 2.253779 1_554
Mg2 O9 2.128437 1_555
Mg2 O4 2.218677 1_555
Mg2 O6 2.218677 1_545
Mg2 O12 2.266583 1_556
Mg2 O12 2.266583 1_555
Mg2 O8 2.295227 1_555
Mg3 O9 2.128437 1_555
Mg3 O5 2.218677 1_555
Mg3 O7 2.218677 1_545
Mg3 O13 2.266583 1_555
Mg3 O13 2.266583 1_556
Mg3 O8 2.295227 1_655
Mg4 O10 2.142443 1_555
Mg4 O6 2.207626 1_555
Mg4 O4 2.207626 1_555
Mg4 O14 2.256003 1_556
Mg4 O14 2.256003 1_555
Mg4 O11 2.281222 1_555
Mg5 O10 2.142443 1_655
Mg5 O7 2.207626 1_555
Mg5 O5 2.207626 1_555
Mg5 O15 2.256003 1_556
Mg5 O15 2.256003 1_555
Mg5 O11 2.281222 1_555
Mg6 O10 2.128437 1_555
Mg6 O4 2.218677 1_555
Mg6 O5 2.218677 1_455
Mg6 O0 2.266583 1_555
Mg6 O0 2.266583 1_556
Mg6 O8 2.295227 1_555
Mg7 O9 2.142443 1_555
Mg7 O5 2.207626 1_555
Mg7 O4 2.207626 1_555
Mg7 O1 2.256003 1_556
Mg7 O1 2.256003 1_555
Mg7 O11 2.281222 1_555
Mg8 O10 2.128437 1_555
Mg8 O7 2.218677 1_455
Mg8 O6 2.218677 1_555
Mg8 O2 2.266583 1_556
Mg8 O2 2.266583 1_555
Mg8 O8 2.295227 1_565
Mg9 O9 2.142443 1_565
Mg9 O7 2.207626 1_555
Mg9 O6 2.207626 1_555
Mg9 O3 2.256003 1_556
Mg9 O3 2.256003 1_555
Mg9 O11 2.281222 1_555
Mg10 O1 2.223537 1_555
Mg10 O14 2.223537 1_555
Mg10 O12 2.225921 1_555
Mg10 O0 2.225921 1_555
Mg10 O4 2.253904 1_554
Mg10 O4 2.253904 1_555
Mg11 O1 2.223537 1_555
Mg11 O15 2.223537 1_555
Mg11 O0 2.225921 1_655
Mg11 O13 2.225921 1_555
Mg11 O5 2.253904 1_554
Mg11 O5 2.253904 1_555
Mg12 O3 2.223537 1_555
Mg12 O14 2.223537 1_555
Mg12 O2 2.225921 1_555
Mg12 O12 2.225921 1_565
Mg12 O6 2.253904 1_555
Mg12 O6 2.253904 1_554
Mg13 O3 2.223537 1_555
Mg13 O15 2.223537 1_555
Mg13 O13 2.225921 1_565
Mg13 O2 2.225921 1_655
Mg13 O7 2.253904 1_555
Mg13 O7 2.253904 1_554
O1 W0 2.181079 1_555
O3 W0 2.181079 1_555
O11 W0 2.253779 1_555
O11 W0 2.253779 1_556
O14 W0 2.181079 1_555
O15 W0 2.181079 1_555
