# generated using pymatgen
data_Li2VFeP2(HO5)2
_symmetry_space_group_name_H-M   'P 1'
_cell_length_a   5.44924534
_cell_length_b   7.40171005
_cell_length_c   10.15677539
_cell_angle_alpha   75.49462072
_cell_angle_beta   79.21752219
_cell_angle_gamma   106.21359231
_symmetry_Int_Tables_number   1
_chemical_formula_structural   Li2VFeP2(HO5)2
_chemical_formula_sum   'Li4 V2 Fe2 P4 H4 O20'
_cell_volume   365.98416469
_cell_formula_units_Z   2
loop_
 _symmetry_equiv_pos_site_id
 _symmetry_equiv_pos_as_xyz
  1  'x, y, z'
loop_
 _atom_site_type_symbol
 _atom_site_label
 _atom_site_symmetry_multiplicity
 _atom_site_fract_x
 _atom_site_fract_y
 _atom_site_fract_z
 _atom_site_occupancy
  Li  Li0  1  0.02244600  0.45181900  0.37370100  1
  Li  Li1  1  0.52232100  0.95237400  0.87315200  1
  Li  Li2  1  0.47767600  0.04762100  0.12686400  1
  Li  Li3  1  0.97757000  0.54819200  0.62631200  1
  V  V0  1  0.50003100  0.00006600  0.49993500  1
  V  V1  1  0.00009200  0.49993200  0.00003300  1
  Fe  Fe0  1  0.99996700  0.99998400  0.00006800  1
  Fe  Fe1  1  0.50002300  0.50005900  0.49988300  1
  P  P0  1  0.02325200  0.89258300  0.33677100  1
  P  P1  1  0.52211900  0.39290800  0.83750800  1
  P  P2  1  0.47778400  0.60712200  0.16253000  1
  P  P3  1  0.97672400  0.10739500  0.66320500  1
  H  H0  1  0.87956400  0.15738500  0.18019700  1
  H  H1  1  0.37982000  0.66053000  0.68066800  1
  H  H2  1  0.62022100  0.33951300  0.31933900  1
  H  H3  1  0.12045700  0.84261800  0.81977400  1
  O  O0  1  0.62626300  0.30237800  0.41945400  1
  O  O1  1  0.13051300  0.80649100  0.91923000  1
  O  O2  1  0.86954700  0.19354700  0.08075100  1
  O  O3  1  0.37368900  0.69761500  0.58055400  1
  O  O4  1  0.84246500  0.01489800  0.36220700  1
  O  O5  1  0.34158400  0.51660700  0.86269400  1
  O  O6  1  0.65822200  0.48353200  0.13737500  1
  O  O7  1  0.15756100  0.98506500  0.63777900  1
  O  O8  1  0.19348300  0.50799000  0.15313900  1
  O  O9  1  0.69180100  0.00830800  0.65464800  1
  O  O10  1  0.30810000  0.99162300  0.34536200  1
  O  O11  1  0.80653600  0.49197700  0.84679900  1
  O  O12  1  0.06530800  0.88527100  0.18277800  1
  O  O13  1  0.56502200  0.38755900  0.68309700  1
  O  O14  1  0.43512000  0.61233200  0.31698500  1
  O  O15  1  0.93459800  0.11465400  0.81719700  1
  O  O16  1  0.89800100  0.67492900  0.44157700  1
  O  O17  1  0.39839000  0.17608600  0.94192300  1
  O  O18  1  0.60167400  0.82386800  0.05810400  1
  O  O19  1  0.10205500  0.32517100  0.55840800  1
loop_
_geom_bond_atom_site_label_1
_geom_bond_atom_site_label_2
_geom_bond_distance
_geom_bond_site_symmetry_2
Li0 O0 2.033193 1_455
Li0 O19 2.058409 1_555
Li0 O14 2.116784 1_555
Li0 O8 2.143789 1_555
Li0 O16 2.164025 1_455
Li1 O1 2.007235 1_555
Li1 O18 2.063749 1_556
Li1 O15 2.118094 1_565
Li1 O9 2.123424 1_565
Li1 O17 2.170983 1_565
Li2 O2 2.007556 1_555
Li2 O17 2.063382 1_554
Li2 O12 2.118652 1_545
Li2 O10 2.123376 1_545
Li2 O18 2.171384 1_545
Li3 O3 2.032860 1_655
Li3 O16 2.058725 1_555
Li3 O13 2.116325 1_555
Li3 O11 2.143027 1_555
Li3 O19 2.163642 1_655
Fe0 O12 1.979452 1_655
Fe0 O15 1.980860 1_564
Fe0 O2 2.041588 1_565
Fe0 O1 2.042250 1_654
Fe0 O18 2.076966 1_555
Fe0 O17 2.077441 1_664
Fe1 O14 1.975646 1_555
Fe1 O13 1.979075 1_555
Fe1 O0 2.057188 1_555
Fe1 O3 2.057848 1_555
Fe1 O19 2.072797 1_555
Fe1 O16 2.072954 1_555
H0 O2 0.994073 1_555
H1 O3 0.994198 1_555
H2 O0 0.994072 1_555
H3 O1 0.994231 1_555
O0 V0 2.040128 1_555
O1 V1 2.067760 1_556
O2 V1 2.066524 1_655
O3 V0 2.041118 1_565
O4 P0 1.541726 1_645
O4 V0 2.069510 1_555
O5 P1 1.548459 1_555
O5 V1 2.058676 1_556
O6 P2 1.547337 1_555
O6 V1 2.060996 1_655
O7 P3 1.542006 1_465
O7 V0 2.069781 1_565
O8 P2 1.550204 1_555
O8 V1 2.038842 1_555
O9 P3 1.550028 1_555
O9 V0 2.047397 1_555
O10 P0 1.549721 1_555
O10 V0 2.046844 1_565
O11 P1 1.550290 1_555
O11 V1 2.040497 1_656
O12 P0 1.554666 1_555
O13 P1 1.554005 1_555
O14 P2 1.554158 1_555
O15 P3 1.554516 1_555
O16 P0 1.565054 1_655
O17 P1 1.558993 1_555
O18 P2 1.558632 1_555
O19 P3 1.565698 1_455
