# generated using pymatgen
data_Lu5Ge3C
_symmetry_space_group_name_H-M   'P 1'
_cell_length_a   8.23580277
_cell_length_b   8.23580277
_cell_length_c   6.27731558
_cell_angle_alpha   90.00000000
_cell_angle_beta   90.00000000
_cell_angle_gamma   120.00000038
_symmetry_Int_Tables_number   1
_chemical_formula_structural   Lu5Ge3C
_chemical_formula_sum   'Lu10 Ge6 C2'
_cell_volume   368.73678732
_cell_formula_units_Z   2
loop_
 _symmetry_equiv_pos_site_id
 _symmetry_equiv_pos_as_xyz
  1  'x, y, z'
loop_
 _atom_site_type_symbol
 _atom_site_label
 _atom_site_symmetry_multiplicity
 _atom_site_fract_x
 _atom_site_fract_y
 _atom_site_fract_z
 _atom_site_occupancy
  Lu  Lu0  1  0.66666700  0.33333300  0.50000000  1
  Lu  Lu1  1  0.33333300  0.66666700  0.50000000  1
  Lu  Lu2  1  0.33333300  0.66666700  0.00000000  1
  Lu  Lu3  1  0.66666700  0.33333300  0.00000000  1
  Lu  Lu4  1  0.78096484  0.78096484  0.24999900  1
  Lu  Lu5  1  0.21903516  0.00000000  0.24999900  1
  Lu  Lu6  1  0.00000000  0.21903516  0.24999900  1
  Lu  Lu7  1  0.21903516  0.21903516  0.75000100  1
  Lu  Lu8  1  0.78096484  -0.00000000  0.75000100  1
  Lu  Lu9  1  -0.00000000  0.78096484  0.75000100  1
  Ge  Ge0  1  0.40882999  0.40882999  0.25000000  1
  Ge  Ge1  1  0.59117001  0.00000000  0.25000000  1
  Ge  Ge2  1  0.00000000  0.59117001  0.25000000  1
  Ge  Ge3  1  0.59117001  0.59117001  0.75000000  1
  Ge  Ge4  1  0.40882999  -0.00000000  0.75000000  1
  Ge  Ge5  1  -0.00000000  0.40882999  0.75000000  1
  C  C0  1  -0.00000000  -0.00000000  0.50000000  1
  C  C1  1  -0.00000000  -0.00000000  0.00000000  1
loop_
_geom_bond_atom_site_label_1
_geom_bond_atom_site_label_2
_geom_bond_distance
_geom_bond_site_symmetry_2
Ge0 Lu5 2.918430 1_555
Ge0 Lu6 2.918430 1_555
Ge0 Lu2 2.946010 1_555
Ge0 Lu3 2.946010 1_555
Ge0 Lu0 2.946010 1_555
Ge0 Lu1 2.946010 1_555
Ge0 Lu4 3.064829 1_555
Ge0 Lu7 3.506345 1_554
Ge0 Lu7 3.506356 1_555
Ge1 Lu6 2.918430 1_655
Ge1 Lu4 2.918430 1_545
Ge1 Lu0 2.946003 1_555
Ge1 Lu3 2.946003 1_555
Ge1 Lu1 2.946005 1_545
Ge1 Lu2 2.946005 1_545
Ge1 Lu5 3.064829 1_555
Ge1 Lu8 3.506345 1_554
Ge1 Lu8 3.506356 1_555
Ge2 Lu5 2.918430 1_565
Ge2 Lu4 2.918430 1_455
Ge2 Lu1 2.946003 1_555
Ge2 Lu2 2.946003 1_555
Ge2 Lu0 2.946005 1_455
Ge2 Lu3 2.946005 1_455
Ge2 Lu6 3.064829 1_555
Ge2 Lu9 3.506345 1_554
Ge2 Lu9 3.506356 1_555
Ge3 Lu8 2.918430 1_565
Ge3 Lu9 2.918430 1_655
Ge3 Lu0 2.946010 1_555
Ge3 Lu3 2.946010 1_556
Ge3 Lu1 2.946010 1_555
Ge3 Lu2 2.946010 1_556
Ge3 Lu7 3.064829 1_555
Ge3 Lu4 3.506345 1_556
Ge3 Lu4 3.506356 1_555
Ge4 Lu9 2.918430 1_545
Ge4 Lu7 2.918430 1_555
Ge4 Lu2 2.946003 1_546
Ge4 Lu1 2.946003 1_545
Ge4 Lu0 2.946005 1_555
Ge4 Lu3 2.946005 1_556
Ge4 Lu8 3.064829 1_555
Ge4 Lu5 3.506345 1_556
Ge4 Lu5 3.506356 1_555
Ge5 Lu8 2.918430 1_455
Ge5 Lu7 2.918430 1_555
Ge5 Lu3 2.946003 1_456
Ge5 Lu0 2.946003 1_455
Ge5 Lu1 2.946005 1_555
Ge5 Lu2 2.946005 1_556
Ge5 Lu9 3.064829 1_555
Ge5 Lu6 3.506345 1_556
Ge5 Lu6 3.506356 1_555
C0 Lu7 2.391020 1_555
C0 Lu4 2.391020 1_445
C0 Lu5 2.391020 1_555
C0 Lu6 2.391020 1_555
C0 Lu9 2.391020 1_545
C0 Lu8 2.391020 1_455
C1 Lu4 2.391012 1_445
C1 Lu7 2.391012 1_554
C1 Lu8 2.391012 1_454
C1 Lu9 2.391012 1_544
C1 Lu5 2.391012 1_555
C1 Lu6 2.391012 1_555
