# generated using pymatgen
data_DyNiGe
_symmetry_space_group_name_H-M   'P 1'
_cell_length_a   4.20233006
_cell_length_b   6.89762118
_cell_length_c   7.22148970
_cell_angle_alpha   90.00000000
_cell_angle_beta   90.00000000
_cell_angle_gamma   90.00000000
_symmetry_Int_Tables_number   1
_chemical_formula_structural   DyNiGe
_chemical_formula_sum   'Dy4 Ni4 Ge4'
_cell_volume   209.32268414
_cell_formula_units_Z   4
loop_
 _symmetry_equiv_pos_site_id
 _symmetry_equiv_pos_as_xyz
  1  'x, y, z'
loop_
 _atom_site_type_symbol
 _atom_site_label
 _atom_site_symmetry_multiplicity
 _atom_site_fract_x
 _atom_site_fract_y
 _atom_site_fract_z
 _atom_site_occupancy
  Dy  Dy0  1  0.25000000  0.99147538  0.29255188  1
  Dy  Dy1  1  0.25000000  0.49160766  0.20743931  1
  Dy  Dy2  1  0.75000000  0.00839234  0.70743931  1
  Dy  Dy3  1  0.75000000  0.50852462  0.79255188  1
  Ni  Ni0  1  0.25000000  0.19151279  0.91858545  1
  Ni  Ni1  1  0.25000000  0.69127937  0.58141485  1
  Ni  Ni2  1  0.75000000  0.80872063  0.08141485  1
  Ni  Ni3  1  0.75000000  0.30848721  0.41858545  1
  Ge  Ge0  1  0.25000000  0.30202231  0.58831080  1
  Ge  Ge1  1  0.25000000  0.80230380  0.91169670  1
  Ge  Ge2  1  0.75000000  0.69769620  0.41169670  1
  Ge  Ge3  1  0.75000000  0.19797769  0.08831080  1
loop_
_geom_bond_atom_site_label_1
_geom_bond_atom_site_label_2
_geom_bond_distance
_geom_bond_site_symmetry_2
Dy0 Ni2 2.885952 1_455
Dy0 Ni2 2.885952 1_555
Dy0 Ge3 2.935837 1_565
Dy0 Ge3 2.935837 1_465
Dy0 Ni1 2.939222 1_555
Dy0 Ge0 3.024904 1_565
Dy0 Ni0 3.032657 1_564
Dy0 Ge2 3.043254 1_555
Dy0 Ge2 3.043254 1_455
Dy0 Ge1 3.044170 1_554
Dy0 Ni3 3.166166 1_565
Dy0 Ni3 3.166166 1_465
Dy1 Ni3 2.887090 1_455
Dy1 Ni3 2.887090 1_555
Dy1 Ge2 2.934513 1_555
Dy1 Ge2 2.934513 1_455
Dy1 Ni0 2.938684 1_554
Dy1 Ge1 3.025549 1_554
Dy1 Ni1 3.031569 1_555
Dy1 Ge3 3.042535 1_455
Dy1 Ge3 3.042535 1_555
Dy1 Ge0 3.045501 1_555
Dy1 Ni2 3.166629 1_455
Dy1 Ni2 3.166629 1_555
Dy2 Ni0 2.887090 1_655
Dy2 Ni0 2.887090 1_555
Dy2 Ge1 2.934513 1_545
Dy2 Ge1 2.934513 1_645
Dy2 Ni3 2.938684 1_555
Dy2 Ge2 3.025549 1_545
Dy2 Ni2 3.031569 1_546
Dy2 Ge0 3.042535 1_555
Dy2 Ge0 3.042535 1_655
Dy2 Ge3 3.045501 1_556
Dy2 Ni1 3.166629 1_645
Dy2 Ni1 3.166629 1_545
Dy3 Ni1 2.885952 1_555
Dy3 Ni1 2.885952 1_655
Dy3 Ge0 2.935837 1_655
Dy3 Ge0 2.935837 1_555
Dy3 Ni2 2.939222 1_556
Dy3 Ge3 3.024904 1_556
Dy3 Ni3 3.032657 1_555
Dy3 Ge1 3.043254 1_655
Dy3 Ge1 3.043254 1_555
Dy3 Ge2 3.044170 1_555
Dy3 Ni0 3.166166 1_655
Dy3 Ni0 3.166166 1_555
Ge0 Ni3 2.432930 1_455
Ge0 Ni3 2.432930 1_555
Ge0 Ni0 2.503919 1_555
Ge0 Ni1 2.685410 1_555
Ge1 Ni2 2.432898 1_556
Ge1 Ni2 2.432898 1_456
Ge1 Ni1 2.505052 1_555
Ge1 Ni0 2.685077 1_565
Ge2 Ni1 2.432898 1_655
Ge2 Ni1 2.432898 1_555
Ge2 Ni2 2.505052 1_555
Ge2 Ni3 2.685077 1_555
Ge3 Ni0 2.432930 1_654
Ge3 Ni0 2.432930 1_554
Ge3 Ni3 2.503919 1_555
Ge3 Ni2 2.685410 1_545
