# generated using pymatgen
data_Li4Fe3Sn3(SbO8)2
_symmetry_space_group_name_H-M   'P 1'
_cell_length_a   6.23263926
_cell_length_b   11.65850442
_cell_length_c   10.76032838
_cell_angle_alpha   116.87773206
_cell_angle_beta   90.08174167
_cell_angle_gamma   74.98540377
_symmetry_Int_Tables_number   1
_chemical_formula_structural   Li4Fe3Sn3(SbO8)2
_chemical_formula_sum   'Li8 Fe6 Sn6 Sb4 O32'
_cell_volume   667.50512748
_cell_formula_units_Z   2
loop_
 _symmetry_equiv_pos_site_id
 _symmetry_equiv_pos_as_xyz
  1  'x, y, z'
loop_
 _atom_site_type_symbol
 _atom_site_label
 _atom_site_symmetry_multiplicity
 _atom_site_fract_x
 _atom_site_fract_y
 _atom_site_fract_z
 _atom_site_occupancy
  Li  Li0  1  0.04759700  0.90011100  0.62076300  1
  Li  Li1  1  0.54804800  0.89964800  0.11802500  1
  Li  Li2  1  0.48900800  0.98148300  0.49873300  1
  Li  Li3  1  0.99030000  0.98001600  0.99472600  1
  Li  Li4  1  0.74269600  0.49482300  0.25471500  1
  Li  Li5  1  0.23733000  0.49771900  0.75251800  1
  Li  Li6  1  0.78582100  0.41165700  0.54244100  1
  Li  Li7  1  0.28818800  0.40963600  0.04057300  1
  Fe  Fe0  1  0.64996200  0.71366300  0.52797200  1
  Fe  Fe1  1  0.14698200  0.71030700  0.02413300  1
  Fe  Fe2  1  0.89158300  0.71170900  0.76805000  1
  Fe  Fe3  1  0.63898400  0.21275900  0.19177300  1
  Fe  Fe4  1  0.13665000  0.21516200  0.69283500  1
  Fe  Fe5  1  0.38983000  0.71223300  0.26854500  1
  Sn  Sn0  1  0.40222100  0.71374800  0.76991100  1
  Sn  Sn1  1  0.90162200  0.71171700  0.26975800  1
  Sn  Sn2  1  0.14914400  0.21311200  0.18942600  1
  Sn  Sn3  1  0.64558600  0.21382400  0.69099500  1
  Sn  Sn4  1  0.39483300  0.21452800  0.43856000  1
  Sn  Sn5  1  0.89382200  0.21323700  0.93767800  1
  Sb  Sb0  1  0.26346200  0.49133000  0.40698700  1
  Sb  Sb1  1  0.76065400  0.49068000  0.90772000  1
  Sb  Sb2  1  0.52450400  0.98022100  0.81878200  1
  Sb  Sb3  1  0.02579800  0.98096000  0.31981300  1
  O  O0  1  0.10449200  0.34669300  0.41316300  1
  O  O1  1  0.60225500  0.34667400  0.91458500  1
  O  O2  1  0.44541700  0.10424100  0.22030300  1
  O  O3  1  0.94422900  0.10504200  0.72037600  1
  O  O4  1  0.34359200  0.31212700  0.65622500  1
  O  O5  1  0.84533100  0.30968400  0.15455400  1
  O  O6  1  0.10727900  0.79774800  0.89662600  1
  O  O7  1  0.59988200  0.79680000  0.39423600  1
  O  O8  1  0.69736100  0.09731100  0.46807700  1
  O  O9  1  0.20258900  0.09882300  0.96477700  1
  O  O10  1  0.44846800  0.59047800  0.37014800  1
  O  O11  1  0.95514900  0.58482400  0.87808900  1
  O  O12  1  0.69337800  0.60673300  0.63709900  1
  O  O13  1  0.20119800  0.60698500  0.14027500  1
  O  O14  1  0.79758600  0.85513700  0.68444700  1
  O  O15  1  0.30806700  0.84652900  0.19026300  1
  O  O16  1  0.96350200  0.58765000  0.37348900  1
  O  O17  1  0.46469200  0.58806500  0.87510100  1
  O  O18  1  0.21499500  0.58939900  0.62006000  1
  O  O19  1  0.69988500  0.59366400  0.12724400  1
  O  O20  1  0.31653200  0.35000100  0.19448700  1
  O  O21  1  0.81536200  0.34953100  0.69540400  1
  O  O22  1  0.54089900  0.35071900  0.41698300  1
  O  O23  1  0.03520400  0.35222100  0.92216300  1
  O  O24  1  0.34855500  0.85598000  0.68969000  1
  O  O25  1  0.85170800  0.85177700  0.18973500  1
  O  O26  1  0.56644900  0.85522500  0.90921300  1
  O  O27  1  0.08457600  0.84359900  0.40395500  1
  O  O28  1  0.96780700  0.08930800  0.20701600  1
  O  O29  1  0.45928800  0.09364000  0.71373900  1
  O  O30  1  0.21322400  0.09245200  0.46082800  1
  O  O31  1  0.70827400  0.09234200  0.95976100  1
loop_
_geom_bond_atom_site_label_1
_geom_bond_atom_site_label_2
_geom_bond_distance
_geom_bond_site_symmetry_2
Li0 O14 1.980865 1_455
Li0 O3 2.039885 1_465
Li0 O24 2.043111 1_555
Li0 O27 2.112544 1_555
Li1 O15 2.035530 1_555
Li1 O2 2.036595 1_565
Li1 O26 2.060987 1_554
Li1 O25 2.080086 1_555
Li2 O7 1.849346 1_555
Li2 O30 2.029165 1_565
Li2 O29 2.058397 1_565
Li2 O8 2.220642 1_565
Li3 O6 1.825555 1_655
Li3 O28 2.034185 1_566
Li3 O31 2.048694 1_565
Li3 O9 2.264378 1_665
Li4 O5 1.847389 1_555
Li4 O10 1.960559 1_555
Li4 O16 2.052954 1_555
Li4 O19 2.132889 1_555
Li5 O4 1.851027 1_555
Li5 O11 1.947007 1_455
Li5 O17 2.090259 1_555
Li5 O18 2.119685 1_555
Li6 O12 1.941662 1_555
Li6 O21 2.067739 1_555
Li6 O22 2.084764 1_555
Li6 O0 2.174719 1_655
Li7 O13 1.965214 1_555
Li7 O20 2.057697 1_555
Li7 O23 2.080292 1_554
Li7 O1 2.138145 1_554
Fe0 O12 2.038158 1_555
Fe0 O7 2.052031 1_555
Fe0 O14 2.161671 1_555
Fe0 O16 2.248112 1_555
Fe0 O24 2.256948 1_555
Fe0 O10 2.290603 1_555
Fe1 O6 2.028764 1_554
Fe1 O13 2.067861 1_555
Fe1 O11 2.204883 1_454
Fe1 O15 2.231553 1_555
Fe1 O17 2.237014 1_554
Fe1 O25 2.249823 1_455
Fe2 O6 2.041124 1_655
Fe2 O12 2.056337 1_555
Fe2 O14 2.190807 1_555
Fe2 O11 2.241867 1_555
Fe2 O18 2.258096 1_655
Fe2 O26 2.273168 1_555
Fe3 O5 2.062754 1_555
Fe3 O2 2.072057 1_555
Fe3 O22 2.191756 1_555
Fe3 O20 2.211735 1_555
Fe3 O31 2.215850 1_554
Fe3 O28 2.232200 1_555
Fe4 O4 2.063078 1_555
Fe4 O3 2.077771 1_455
Fe4 O21 2.190973 1_455
Fe4 O29 2.216349 1_555
Fe4 O30 2.219726 1_555
Fe4 O23 2.226678 1_555
Fe5 O7 1.993301 1_555
Fe5 O13 2.001093 1_555
Fe5 O15 2.049013 1_555
Fe5 O10 2.115895 1_555
Fe5 O27 2.137461 1_555
Fe5 O19 2.163549 1_555
O0 Sn4 2.158269 1_555
O0 Sn2 2.164739 1_555
O0 Sb0 2.190142 1_555
O1 Sn5 2.160480 1_555
O1 Sn3 2.162416 1_555
O1 Sb1 2.184016 1_555
O2 Sn2 2.072775 1_555
O2 Sn4 2.080845 1_555
O3 Sn5 2.070540 1_555
O3 Sn3 2.076219 1_555
O4 Sn3 2.064994 1_555
O4 Sn4 2.070401 1_555
O5 Sn5 2.062761 1_554
O5 Sn2 2.066233 1_655
O6 Sn0 2.016050 1_555
O7 Sn1 2.038163 1_555
O8 Sn3 2.128838 1_555
O8 Sn4 2.139941 1_555
O8 Sb3 2.278037 1_645
O9 Sn5 2.141914 1_455
O9 Sn2 2.142369 1_556
O9 Sb2 2.238950 1_545
O10 Sb0 1.982185 1_555
O11 Sb1 1.944917 1_555
O12 Sn0 2.028338 1_555
O13 Sn1 2.050935 1_455
O14 Sb2 1.981912 1_555
O15 Sb3 2.024250 1_555
O16 Sb0 2.040201 1_655
O16 Sn1 2.157843 1_555
O17 Sb1 2.021935 1_555
O17 Sn0 2.186896 1_555
O18 Sb0 2.026809 1_555
O18 Sn0 2.195658 1_555
O19 Sb1 2.089821 1_554
O19 Sn1 2.193082 1_555
O20 Sb0 2.089480 1_555
O20 Sn2 2.102919 1_555
O21 Sb1 2.087062 1_555
O21 Sn3 2.103455 1_555
O22 Sb0 2.092633 1_555
O22 Sn4 2.118164 1_555
O23 Sb1 2.086352 1_455
O23 Sn5 2.101114 1_455
O24 Sb2 2.056600 1_555
O24 Sn0 2.147716 1_555
O25 Sb3 2.083516 1_655
O25 Sn1 2.124123 1_555
O26 Sb2 2.054957 1_555
O26 Sn0 2.156385 1_555
O27 Sb3 2.127104 1_555
O27 Sn1 2.155386 1_455
O28 Sb3 2.085146 1_645
O28 Sn2 2.118812 1_655
O29 Sb2 2.064663 1_545
O29 Sn3 2.127253 1_555
O30 Sb3 2.086842 1_545
O30 Sn4 2.123201 1_555
O31 Sb2 2.073556 1_545
O31 Sn5 2.128040 1_555
