# generated using pymatgen
data_Li4Mn3O7
_symmetry_space_group_name_H-M   'P 1'
_cell_length_a   5.07510900
_cell_length_b   5.09273951
_cell_length_c   10.48890892
_cell_angle_alpha   101.81642980
_cell_angle_beta   95.47486998
_cell_angle_gamma   100.68732895
_symmetry_Int_Tables_number   1
_chemical_formula_structural   Li4Mn3O7
_chemical_formula_sum   'Li8 Mn6 O14'
_cell_volume   258.23122268
_cell_formula_units_Z   2
loop_
 _symmetry_equiv_pos_site_id
 _symmetry_equiv_pos_as_xyz
  1  'x, y, z'
loop_
 _atom_site_type_symbol
 _atom_site_label
 _atom_site_symmetry_multiplicity
 _atom_site_fract_x
 _atom_site_fract_y
 _atom_site_fract_z
 _atom_site_occupancy
  Li  Li0  1  0.23404600  0.42814700  0.93528200  1
  Li  Li1  1  0.35931300  0.71253100  0.20941800  1
  Li  Li2  1  0.76595400  0.57185300  0.06471800  1
  Li  Li3  1  0.92039900  0.85866300  0.35120800  1
  Li  Li4  1  0.50000000  0.00000000  0.50000000  1
  Li  Li5  1  0.07960100  0.14133700  0.64879200  1
  Li  Li6  1  0.64068700  0.28746900  0.79058200  1
  Li  Li7  1  0.50000000  0.00000000  0.00000000  1
  Mn  Mn0  1  0.93503200  0.85315900  0.86613000  1
  Mn  Mn1  1  0.06496800  0.14684100  0.13387000  1
  Mn  Mn2  1  0.20848200  0.42889100  0.42633400  1
  Mn  Mn3  1  0.36709900  0.71196300  0.72536100  1
  Mn  Mn4  1  0.63290100  0.28803700  0.27463900  1
  Mn  Mn5  1  0.79151800  0.57110900  0.57366600  1
  O  O0  1  0.02071100  0.52372500  0.76032600  1
  O  O1  1  0.11871300  0.81152300  0.02731100  1
  O  O2  1  0.60215100  0.65126500  0.89409500  1
  O  O3  1  0.72835000  0.95842300  0.18413800  1
  O  O4  1  0.27129600  0.09543400  0.30429200  1
  O  O5  1  0.87028100  0.23676900  0.47130200  1
  O  O6  1  0.44694400  0.37835700  0.61107400  1
  O  O7  1  0.39784900  0.34873500  0.10590500  1
  O  O8  1  0.55305600  0.62164300  0.38892600  1
  O  O9  1  0.97928900  0.47627500  0.23967400  1
  O  O10  1  0.12971900  0.76323100  0.52869800  1
  O  O11  1  0.72870400  0.90456600  0.69570800  1
  O  O12  1  0.27165000  0.04157700  0.81586200  1
  O  O13  1  0.88128700  0.18847700  0.97268900  1
loop_
_geom_bond_atom_site_label_1
_geom_bond_atom_site_label_2
_geom_bond_distance
_geom_bond_site_symmetry_2
Li0 O7 2.048102 1_556
Li0 O13 2.090116 1_455
Li0 O2 2.129683 1_555
Li0 O12 2.157822 1_555
Li0 O1 2.201408 1_556
Li0 O0 2.226862 1_555
Li1 O7 2.000177 1_555
Li1 O3 2.122994 1_555
Li1 O4 2.146058 1_565
Li1 O9 2.163471 1_455
Li1 O8 2.213284 1_555
Li1 O1 2.360363 1_555
Li2 O2 2.048102 1_554
Li2 O1 2.090116 1_655
Li2 O7 2.129683 1_555
Li2 O3 2.157822 1_555
Li2 O13 2.201408 1_554
Li2 O9 2.226862 1_555
Li3 O4 2.116915 1_665
Li3 O3 2.121630 1_555
Li3 O8 2.142629 1_555
Li3 O9 2.144724 1_555
Li3 O5 2.146797 1_565
Li3 O10 2.239475 1_655
Li4 O6 2.115554 1_555
Li4 O8 2.115554 1_545
Li4 O5 2.119474 1_555
Li4 O10 2.119474 1_545
Li4 O11 2.441405 1_545
Li4 O4 2.441405 1_555
Li5 O11 2.116915 1_445
Li5 O12 2.121630 1_555
Li5 O6 2.142629 1_555
Li5 O0 2.144724 1_555
Li5 O10 2.146797 1_545
Li5 O5 2.239475 1_455
Li6 O2 2.000177 1_555
Li6 O12 2.122994 1_555
Li6 O11 2.146058 1_545
Li6 O0 2.163471 1_655
Li6 O6 2.213284 1_555
Li6 O13 2.360363 1_555
Li7 O1 2.068184 1_545
Li7 O13 2.068184 1_554
Li7 O2 2.073727 1_544
Li7 O7 2.073727 1_555
Li7 O3 2.224772 1_545
Li7 O12 2.224772 1_554
Mn0 O2 1.889743 1_555
Mn0 O13 1.920692 1_565
Mn0 O1 1.921337 1_656
Mn0 O0 1.958452 1_655
Mn0 O12 1.971897 1_665
Mn0 O11 2.072802 1_555
Mn1 O7 1.889743 1_555
Mn1 O1 1.920692 1_545
Mn1 O13 1.921337 1_454
Mn1 O9 1.958452 1_455
Mn1 O3 1.971897 1_445
Mn1 O4 2.072802 1_555
Mn2 O10 1.948692 1_555
Mn2 O8 1.956443 1_555
Mn2 O5 1.961236 1_455
Mn2 O4 2.003127 1_555
Mn2 O9 2.259974 1_455
Mn2 O6 2.271102 1_555
Mn3 O12 1.921017 1_565
Mn3 O0 1.945732 1_555
Mn3 O11 1.998243 1_555
Mn3 O6 2.000405 1_555
Mn3 O2 2.146831 1_555
Mn3 O10 2.374373 1_555
Mn4 O3 1.921017 1_545
Mn4 O9 1.945732 1_555
Mn4 O4 1.998243 1_555
Mn4 O8 2.000405 1_555
Mn4 O7 2.146831 1_555
Mn4 O5 2.374373 1_555
Mn5 O5 1.948692 1_555
Mn5 O6 1.956443 1_555
Mn5 O10 1.961236 1_655
Mn5 O11 2.003127 1_555
Mn5 O0 2.259974 1_655
Mn5 O8 2.271102 1_555
