# generated using pymatgen
data_K3Na9Sr4(BO2)20
_symmetry_space_group_name_H-M   'P 1'
_cell_length_a   7.48808300
_cell_length_b   9.88297946
_cell_length_c   13.70146177
_cell_angle_alpha   92.01297591
_cell_angle_beta   90.91549019
_cell_angle_gamma   108.94269664
_symmetry_Int_Tables_number   1
_chemical_formula_structural   K3Na9Sr4(BO2)20
_chemical_formula_sum   'K3 Na9 Sr4 B20 O40'
_cell_volume   958.06389338
_cell_formula_units_Z   1
loop_
 _symmetry_equiv_pos_site_id
 _symmetry_equiv_pos_as_xyz
  1  'x, y, z'
loop_
 _atom_site_type_symbol
 _atom_site_label
 _atom_site_symmetry_multiplicity
 _atom_site_fract_x
 _atom_site_fract_y
 _atom_site_fract_z
 _atom_site_occupancy
  K  K0  1  0.89361300  0.43729900  0.87463400  1
  K  K1  1  0.10628700  0.56232000  0.12533200  1
  K  K2  1  0.60584600  0.56229900  0.62474300  1
  Na  Na0  1  0.03934800  0.88894200  0.24237100  1
  Na  Na1  1  0.53952900  0.88857100  0.74247600  1
  Na  Na2  1  0.46062200  0.11245400  0.25761500  1
  Na  Na3  1  0.96048300  0.11138200  0.75748100  1
  Na  Na4  1  0.34233900  0.83711900  0.50072400  1
  Na  Na5  1  0.84217700  0.83746000  0.00041600  1
  Na  Na6  1  0.15789100  0.16258600  0.99963900  1
  Na  Na7  1  0.65704900  0.16287700  0.49954900  1
  Na  Na8  1  0.40164100  0.45005800  0.37541500  1
  Sr  Sr0  1  0.93751700  0.21768800  0.28210700  1
  Sr  Sr1  1  0.43585900  0.21661100  0.78169200  1
  Sr  Sr2  1  0.56398400  0.78202600  0.21875600  1
  Sr  Sr3  1  0.06422400  0.78325100  0.71826800  1
  B  B0  1  0.30714200  0.86705000  0.07550800  1
  B  B1  1  0.80738600  0.86687900  0.57516700  1
  B  B2  1  0.19612800  0.13538000  0.42387300  1
  B  B3  1  0.69283400  0.13272700  0.92461700  1
  B  B4  1  0.80143400  0.45847900  0.37697100  1
  B  B5  1  0.30742200  0.45869500  0.87774100  1
  B  B6  1  0.69257600  0.54119300  0.12245500  1
  B  B7  1  0.19297600  0.54163300  0.62210200  1
  B  B8  1  0.87653800  0.72067900  0.43030600  1
  B  B9  1  0.37744600  0.72106700  0.93110800  1
  B  B10  1  0.62245400  0.27890300  0.06894400  1
  B  B11  1  0.12434400  0.28032000  0.56814000  1
  B  B12  1  0.13141300  0.62939800  0.35766100  1
  B  B13  1  0.63162200  0.63456400  0.85583200  1
  B  B14  1  0.36875600  0.36536100  0.14510700  1
  B  B15  1  0.86883400  0.36526400  0.64387500  1
  B  B16  1  0.72285800  0.91557200  0.40807800  1
  B  B17  1  0.22251000  0.91543000  0.90809700  1
  B  B18  1  0.77746900  0.08455500  0.09203100  1
  B  B19  1  0.27734100  0.08473800  0.59167000  1
  O  O0  1  0.06860500  0.73842600  0.39583300  1
  O  O1  1  0.56804600  0.74120700  0.89666200  1
  O  O2  1  0.43186000  0.25896200  0.10337200  1
  O  O3  1  0.93274100  0.25905700  0.60239600  1
  O  O4  1  0.98984400  0.49234400  0.34154200  1
  O  O5  1  0.49503100  0.49480400  0.84081000  1
  O  O6  1  0.50539000  0.50520700  0.15986200  1
  O  O7  1  0.00528100  0.50502400  0.65908800  1
  O  O8  1  0.66256600  0.99941600  0.35076000  1
  O  O9  1  0.16307700  0.99965600  0.85082100  1
  O  O10  1  0.83674600  0.00012200  0.14928100  1
  O  O11  1  0.33674900  0.00047100  0.64912900  1
  O  O12  1  0.79501200  0.81145800  0.36985100  1
  O  O13  1  0.29353500  0.81047500  0.87015500  1
  O  O14  1  0.70648800  0.18954300  0.12990400  1
  O  O15  1  0.20636900  0.18983000  0.62942600  1
  O  O16  1  0.74912200  0.56962900  0.42075900  1
  O  O17  1  0.25574100  0.56926100  0.92265100  1
  O  O18  1  0.74422300  0.43077400  0.07740000  1
  O  O19  1  0.24541700  0.43186900  0.57703400  1
  O  O20  1  0.31211400  0.64950400  0.33691700  1
  O  O21  1  0.81136700  0.66204100  0.83223700  1
  O  O22  1  0.18905100  0.33810700  0.16868700  1
  O  O23  1  0.68913200  0.33775900  0.66781400  1
  O  O24  1  0.39201500  0.77167700  0.03525300  1
  O  O25  1  0.89186900  0.77109300  0.53460400  1
  O  O26  1  0.11445600  0.23339200  0.46340500  1
  O  O27  1  0.60796400  0.22825600  0.96481100  1
  O  O28  1  0.20560100  0.92713900  0.01104800  1
  O  O29  1  0.70564700  0.92707400  0.51085500  1
  O  O30  1  0.29401700  0.07286100  0.48888300  1
  O  O31  1  0.79462300  0.07287900  0.98913800  1
  O  O32  1  0.68450600  0.32338200  0.36640700  1
  O  O33  1  0.19258300  0.32298400  0.86711300  1
  O  O34  1  0.80734500  0.67707500  0.13288500  1
  O  O35  1  0.30744900  0.67748200  0.63307200  1
  O  O36  1  0.31688900  0.89277800  0.17184100  1
  O  O37  1  0.81740500  0.89337400  0.67128000  1
  O  O38  1  0.18339100  0.10646000  0.32800600  1
  O  O39  1  0.68284500  0.10631900  0.82850800  1
loop_
_geom_bond_atom_site_label_1
_geom_bond_atom_site_label_2
_geom_bond_distance
_geom_bond_site_symmetry_2
K0 O21 2.572437 1_555
K0 O17 2.659589 1_655
K0 O27 2.786527 1_555
K0 O33 2.817823 1_655
K0 O18 3.006481 1_556
K1 O22 2.572826 1_555
K1 O18 2.658313 1_455
K1 O24 2.787774 1_555
K1 O34 2.820505 1_455
K1 O17 3.005307 1_554
K2 O23 2.576914 1_555
K2 O19 2.645524 1_555
K2 O35 2.819915 1_555
Na0 O36 2.295652 1_555
Na0 O38 2.332028 1_565
Na0 O10 2.500930 1_465
Na0 O12 2.504227 1_455
Na0 O34 2.643313 1_455
Na0 O0 2.664308 1_555
Na1 O37 2.299430 1_555
Na1 O39 2.335431 1_565
Na1 O11 2.508392 1_565
Na1 O13 2.514738 1_555
Na1 O35 2.638654 1_555
Na1 O1 2.652036 1_555
Na2 O38 2.287209 1_555
Na2 O36 2.348678 1_545
Na2 O8 2.509725 1_545
Na2 O14 2.513523 1_555
Na2 O32 2.609768 1_555
Na2 O2 2.648029 1_555
Na3 O39 2.296138 1_555
Na3 O37 2.338177 1_545
Na3 O9 2.506185 1_645
Na3 O15 2.518249 1_655
Na3 O33 2.643194 1_655
Na3 O3 2.662511 1_555
Na4 O0 2.393242 1_555
Na4 O35 2.407104 1_555
Na4 O30 2.481407 1_565
Na4 O11 2.560978 1_565
Na4 O29 2.572871 1_555
Na4 O20 2.818781 1_555
Na5 O1 2.383994 1_554
Na5 O34 2.413220 1_555
Na5 O31 2.474940 1_564
Na5 O10 2.561440 1_565
Na5 O28 2.573872 1_655
Na5 O21 2.794868 1_554
Na6 O2 2.383075 1_556
Na6 O33 2.414008 1_555
Na6 O28 2.475905 1_546
Na6 O9 2.562118 1_545
Na6 O31 2.572719 1_455
Na6 O22 2.804642 1_556
Na7 O3 2.385359 1_555
Na7 O32 2.426912 1_555
Na7 O29 2.482240 1_545
Na7 O8 2.565569 1_545
Na7 O30 2.571113 1_555
Na7 O23 2.791584 1_555
Na8 O20 2.352154 1_555
Na8 O16 2.540305 1_555
B0 O36 1.331698 1_555
B0 O24 1.400055 1_555
B0 O28 1.421048 1_555
B1 O37 1.329757 1_555
B1 O25 1.402968 1_555
B1 O29 1.421401 1_555
B2 O38 1.329677 1_555
B2 O26 1.401433 1_555
B2 O30 1.422781 1_555
B3 O39 1.329585 1_555
B3 O27 1.400969 1_555
B3 O31 1.421341 1_555
B4 O32 1.339259 1_555
B4 O16 1.400236 1_555
B4 O4 1.436952 1_555
B5 O33 1.339044 1_555
B5 O17 1.399056 1_555
B5 O5 1.437658 1_555
B6 O34 1.340044 1_555
B6 O18 1.398507 1_555
B6 O6 1.437341 1_555
B7 O35 1.339565 1_555
B7 O19 1.396259 1_555
B7 O7 1.438251 1_555
B8 O0 1.478537 1_655
B8 O25 1.486999 1_555
B8 O16 1.487789 1_555
B8 O12 1.501779 1_555
B9 O1 1.463910 1_555
B9 O17 1.480394 1_555
B9 O24 1.485830 1_556
B9 O13 1.506183 1_555
B10 O2 1.464118 1_555
B10 O18 1.481051 1_555
B10 O27 1.485807 1_554
B10 O14 1.506437 1_555
B11 O3 1.468208 1_455
B11 O19 1.477197 1_555
B11 O26 1.485741 1_555
B11 O15 1.508329 1_555
B12 O20 1.338974 1_555
B12 O0 1.397525 1_555
B12 O4 1.430555 1_455
B13 O21 1.331390 1_555
B13 O1 1.394007 1_555
B13 O5 1.432625 1_555
B14 O22 1.331308 1_555
B14 O2 1.394632 1_555
B14 O6 1.433017 1_555
B15 O23 1.332315 1_555
B15 O3 1.395219 1_555
B15 O7 1.432456 1_655
B16 O8 1.335845 1_555
B16 O12 1.398973 1_555
B16 O29 1.420074 1_555
B17 O9 1.334937 1_555
B17 O13 1.399340 1_555
B17 O28 1.422290 1_556
B18 O10 1.335648 1_555
B18 O14 1.399079 1_555
B18 O31 1.421720 1_554
B19 O11 1.336660 1_555
B19 O15 1.399351 1_555
B19 O30 1.419962 1_555
O4 Sr0 2.707166 1_555
O5 Sr1 2.729956 1_555
O6 Sr2 2.717078 1_555
O7 Sr3 2.730785 1_555
O8 Sr2 2.662082 1_555
O8 Sr0 2.664217 1_565
O9 Sr1 2.651006 1_565
O9 Sr3 2.660239 1_555
O10 Sr2 2.659274 1_545
O10 Sr0 2.670700 1_555
O11 Sr3 2.651571 1_545
O11 Sr1 2.658537 1_555
O12 Sr2 2.622924 1_555
O13 Sr3 2.626446 1_555
O14 Sr0 2.636400 1_555
O15 Sr1 2.631909 1_555
O20 Sr2 2.556624 1_555
O21 Sr3 2.492336 1_655
O22 Sr0 2.479325 1_455
O23 Sr1 2.493276 1_555
O24 Sr2 2.789829 1_555
O25 Sr3 2.790519 1_655
O26 Sr0 2.772051 1_455
O27 Sr1 2.783748 1_555
O32 Sr0 2.699009 1_555
O33 Sr1 2.649255 1_555
O34 Sr2 2.644029 1_555
O35 Sr3 2.643982 1_555
O36 Sr2 2.522110 1_555
O37 Sr3 2.516340 1_655
O38 Sr0 2.513797 1_455
O39 Sr1 2.517955 1_555
