# generated using pymatgen
data_Pr3SiN3O2
_symmetry_space_group_name_H-M   'P 1'
_cell_length_a   6.74174337
_cell_length_b   6.74174337
_cell_length_c   7.34403099
_cell_angle_alpha   62.20685214
_cell_angle_beta   62.20685214
_cell_angle_gamma   89.09044694
_symmetry_Int_Tables_number   1
_chemical_formula_structural   Pr3SiN3O2
_chemical_formula_sum   'Pr6 Si2 N6 O4'
_cell_volume   252.41007597
_cell_formula_units_Z   2
loop_
 _symmetry_equiv_pos_site_id
 _symmetry_equiv_pos_as_xyz
  1  'x, y, z'
loop_
 _atom_site_type_symbol
 _atom_site_label
 _atom_site_symmetry_multiplicity
 _atom_site_fract_x
 _atom_site_fract_y
 _atom_site_fract_z
 _atom_site_occupancy
  Pr  Pr0  1  0.24311500  0.25688500  0.50000000  1
  Pr  Pr1  1  0.74311500  0.75688500  0.50000000  1
  Pr  Pr2  1  0.32414000  0.17586000  0.00000000  1
  Pr  Pr3  1  0.66661200  0.83338800  0.00000000  1
  Pr  Pr4  1  0.17899000  0.67558100  0.00000000  1
  Pr  Pr5  1  0.82441900  0.32101000  0.00000000  1
  Si  Si0  1  0.75122300  0.24413000  0.50464700  1
  Si  Si1  1  0.25587000  0.74877700  0.49535300  1
  N  N0  1  0.99204100  0.20744800  0.30051100  1
  N  N1  1  0.49147700  0.99041600  0.30162500  1
  N  N2  1  0.20795800  0.70689700  0.30162500  1
  N  N3  1  0.29255200  0.50795900  0.69948900  1
  N  N4  1  0.50958400  0.00852300  0.69837500  1
  N  N5  1  0.79310300  0.29204200  0.69837500  1
  O  O0  1  0.50866300  0.50648800  0.00000000  1
  O  O1  1  0.99351200  0.99133700  0.00000000  1
  O  O2  1  0.71026800  0.48664200  0.30309000  1
  O  O3  1  0.01335800  0.78973200  0.69691000  1
loop_
_geom_bond_atom_site_label_1
_geom_bond_atom_site_label_2
_geom_bond_distance
_geom_bond_site_symmetry_2
N0 Si0 1.734282 1_555
N0 Pr2 2.396661 1_655
N0 Pr5 2.730662 1_555
N0 Pr4 2.730662 1_655
N0 Pr1 2.812208 1_545
N0 Pr0 2.812208 1_655
N1 Si1 1.736176 1_555
N1 Pr5 2.414639 1_565
N1 Pr3 2.670172 1_555
N1 Pr2 2.728673 1_565
N1 Pr1 2.749604 1_555
N1 Pr0 2.867701 1_565
N2 Si1 1.736184 1_555
N2 Pr4 2.414632 1_555
N2 Pr3 2.670176 1_555
N2 Pr2 2.728678 1_565
N2 Pr0 2.749601 1_555
N2 Pr1 2.867698 1_455
N3 Si1 1.734282 1_555
N3 Pr2 2.396661 1_556
N3 Pr4 2.730662 1_556
N3 Pr5 2.730662 1_456
N3 Pr1 2.812208 1_555
N3 Pr0 2.812208 1_555
N4 Si0 1.736176 1_555
N4 Pr4 2.414639 1_546
N4 Pr3 2.670172 1_546
N4 Pr2 2.728673 1_556
N4 Pr1 2.749604 1_545
N4 Pr0 2.867701 1_555
N5 Si0 1.736184 1_555
N5 Pr5 2.414632 1_556
N5 Pr3 2.670176 1_546
N5 Pr2 2.728678 1_556
N5 Pr0 2.749601 1_655
N5 Pr1 2.867698 1_555
O0 Pr5 2.451665 1_555
O0 Pr3 2.462820 1_555
O0 Pr4 2.481721 1_555
O0 Pr2 2.569838 1_555
O0 Pr1 2.779048 1_554
O0 Pr0 2.779048 1_555
O1 Pr4 2.451665 1_655
O1 Pr3 2.462820 1_555
O1 Pr5 2.481721 1_565
O1 Pr2 2.569838 1_665
O1 Pr0 2.779048 1_664
O1 Pr1 2.779048 1_555
O2 Si0 1.746516 1_555
O2 Pr3 2.498511 1_555
O2 Pr5 2.736231 1_555
O2 Pr4 2.736231 1_655
O2 Pr1 2.868465 1_555
O2 Pr0 2.868465 1_555
O3 Si1 1.746516 1_555
O3 Pr3 2.498511 1_456
O3 Pr4 2.736231 1_556
O3 Pr5 2.736231 1_456
O3 Pr1 2.868465 1_455
O3 Pr0 2.868465 1_565
