# generated using pymatgen
data_TbMgSe3
_symmetry_space_group_name_H-M   'P 1'
_cell_length_a   7.35132272
_cell_length_b   7.35132272
_cell_length_c   6.88420953
_cell_angle_alpha   76.43907756
_cell_angle_beta   76.43907756
_cell_angle_gamma   118.68289775
_symmetry_Int_Tables_number   1
_chemical_formula_structural   TbMgSe3
_chemical_formula_sum   'Tb2 Mg2 Se6'
_cell_volume   289.82991342
_cell_formula_units_Z   2
loop_
 _symmetry_equiv_pos_site_id
 _symmetry_equiv_pos_as_xyz
  1  'x, y, z'
loop_
 _atom_site_type_symbol
 _atom_site_label
 _atom_site_symmetry_multiplicity
 _atom_site_fract_x
 _atom_site_fract_y
 _atom_site_fract_z
 _atom_site_occupancy
  Tb  Tb0  1  0.80396100  0.80396100  0.31395500  1
  Tb  Tb1  1  0.19603900  0.19603900  0.68604500  1
  Mg  Mg0  1  0.33459200  0.66540800  0.00000000  1
  Mg  Mg1  1  0.66540800  0.33459200  0.00000000  1
  Se  Se0  1  0.22580200  0.88304300  0.21603000  1
  Se  Se1  1  0.77419800  0.11695700  0.78397000  1
  Se  Se2  1  0.11695700  0.77419800  0.78397000  1
  Se  Se3  1  0.88304300  0.22580200  0.21603000  1
  Se  Se4  1  0.53280200  0.53280200  0.74573100  1
  Se  Se5  1  0.46719800  0.46719800  0.25426900  1
loop_
_geom_bond_atom_site_label_1
_geom_bond_atom_site_label_2
_geom_bond_distance
_geom_bond_site_symmetry_2
Mg0 Se4 2.665540 1_554
Mg0 Se5 2.665540 1_555
Mg0 Se0 2.682787 1_555
Mg0 Se2 2.682787 1_554
Mg0 Se1 2.967812 1_564
Mg0 Se3 2.967812 1_455
Mg1 Se5 2.665540 1_555
Mg1 Se4 2.665540 1_554
Mg1 Se3 2.682787 1_555
Mg1 Se1 2.682787 1_554
Mg1 Se2 2.967812 1_654
Mg1 Se0 2.967812 1_545
Se0 Tb0 2.741245 1_455
Se1 Tb1 2.741245 1_655
Se2 Tb1 2.741245 1_565
Se3 Tb0 2.741245 1_545
Se4 Tb0 2.722287 1_555
Se4 Tb1 2.738136 1_555
Se5 Tb1 2.722287 1_555
Se5 Tb0 2.738136 1_555
