# generated using pymatgen
data_Rb2Mo3Se3O16
_symmetry_space_group_name_H-M   'P 1'
_cell_length_a   13.90471500
_cell_length_b   8.32269000
_cell_length_c   14.05995555
_cell_angle_alpha   90.00000000
_cell_angle_beta   92.17750577
_cell_angle_gamma   90.00000000
_symmetry_Int_Tables_number   1
_chemical_formula_structural   Rb2Mo3Se3O16
_chemical_formula_sum   'Rb8 Mo12 Se12 O64'
_cell_volume   1625.90828864
_cell_formula_units_Z   4
loop_
 _symmetry_equiv_pos_site_id
 _symmetry_equiv_pos_as_xyz
  1  'x, y, z'
loop_
 _atom_site_type_symbol
 _atom_site_label
 _atom_site_symmetry_multiplicity
 _atom_site_fract_x
 _atom_site_fract_y
 _atom_site_fract_z
 _atom_site_occupancy
  Rb  Rb0  1  0.09430300  0.22799300  0.82507800  1
  Rb  Rb1  1  0.90569700  0.72799300  0.67492200  1
  Rb  Rb2  1  0.90569700  0.77200700  0.17492200  1
  Rb  Rb3  1  0.09430300  0.27200700  0.32507800  1
  Rb  Rb4  1  0.38933700  0.01558300  0.32620100  1
  Rb  Rb5  1  0.61066300  0.51558300  0.17379900  1
  Rb  Rb6  1  0.61066300  0.98441700  0.67379900  1
  Rb  Rb7  1  0.38933700  0.48441700  0.82620100  1
  Mo  Mo0  1  0.14943000  0.78481800  0.90255400  1
  Mo  Mo1  1  0.85057000  0.28481800  0.59744600  1
  Mo  Mo2  1  0.85057000  0.21518200  0.09744600  1
  Mo  Mo3  1  0.14943000  0.71518200  0.40255400  1
  Mo  Mo4  1  0.35880000  0.70058200  0.09169200  1
  Mo  Mo5  1  0.64120000  0.20058200  0.40830800  1
  Mo  Mo6  1  0.64120000  0.29941800  0.90830800  1
  Mo  Mo7  1  0.35880000  0.79941800  0.59169200  1
  Mo  Mo8  1  0.33210200  0.29641900  0.09579700  1
  Mo  Mo9  1  0.66789800  0.79641900  0.40420300  1
  Mo  Mo10  1  0.66789800  0.70358100  0.90420300  1
  Mo  Mo11  1  0.33210200  0.20358100  0.59579700  1
  Se  Se0  1  0.35224200  0.97858800  0.82135500  1
  Se  Se1  1  0.64775800  0.47858800  0.67864500  1
  Se  Se2  1  0.64775800  0.02141200  0.17864500  1
  Se  Se3  1  0.35224200  0.52141200  0.32135500  1
  Se  Se4  1  0.11565600  0.49442400  0.07000900  1
  Se  Se5  1  0.88434400  0.99442400  0.42999100  1
  Se  Se6  1  0.88434400  0.50557600  0.92999100  1
  Se  Se7  1  0.11565600  0.00557600  0.57000900  1
  Se  Se8  1  0.17205500  0.98128400  0.12062600  1
  Se  Se9  1  0.82794500  0.48128400  0.37937400  1
  Se  Se10  1  0.82794500  0.01871600  0.87937400  1
  Se  Se11  1  0.17205500  0.51871600  0.62062600  1
  O  O0  1  0.03797000  0.85025500  0.85755200  1
  O  O1  1  0.96203000  0.35025500  0.64244800  1
  O  O2  1  0.96203000  0.14974500  0.14244800  1
  O  O3  1  0.03797000  0.64974500  0.35755200  1
  O  O4  1  0.16814600  0.59970400  0.84793000  1
  O  O5  1  0.83185400  0.09970400  0.65207000  1
  O  O6  1  0.83185400  0.40029600  0.15207000  1
  O  O7  1  0.16814600  0.90029600  0.34793000  1
  O  O8  1  0.22606900  0.93076900  0.82388100  1
  O  O9  1  0.77393100  0.43076900  0.67611900  1
  O  O10  1  0.77393100  0.06923100  0.17611900  1
  O  O11  1  0.22606900  0.56923100  0.32388100  1
  O  O12  1  0.10051100  0.69703900  0.02617100  1
  O  O13  1  0.89948900  0.19703900  0.47382900  1
  O  O14  1  0.89948900  0.30296100  0.97382900  1
  O  O15  1  0.10051100  0.80296100  0.52617100  1
  O  O16  1  0.16912800  0.99150100  0.99983600  1
  O  O17  1  0.83087200  0.49150100  0.50016400  1
  O  O18  1  0.83087200  0.00849900  0.00016400  1
  O  O19  1  0.16912800  0.50849900  0.49983600  1
  O  O20  1  0.30109100  0.73394900  0.97681600  1
  O  O21  1  0.69890900  0.23394900  0.52318400  1
  O  O22  1  0.69890900  0.26605100  0.02318400  1
  O  O23  1  0.30109100  0.76605100  0.47681600  1
  O  O24  1  0.46580500  0.80183900  0.08378800  1
  O  O25  1  0.53419500  0.30183900  0.41621200  1
  O  O26  1  0.53419500  0.19816100  0.91621200  1
  O  O27  1  0.46580500  0.69816100  0.58378800  1
  O  O28  1  0.41278900  0.48666000  0.07921500  1
  O  O29  1  0.58721100  0.98666000  0.42078500  1
  O  O30  1  0.58721100  0.51334000  0.92078500  1
  O  O31  1  0.41278900  0.01334000  0.57921500  1
  O  O32  1  0.27442100  0.86696700  0.15258600  1
  O  O33  1  0.72557900  0.36696700  0.34741400  1
  O  O34  1  0.72557900  0.13303300  0.84741400  1
  O  O35  1  0.27442100  0.63303300  0.65258600  1
  O  O36  1  0.38905500  0.83430600  0.74256000  1
  O  O37  1  0.61094500  0.33430600  0.75744000  1
  O  O38  1  0.61094500  0.16569400  0.25744000  1
  O  O39  1  0.38905500  0.66569400  0.24256000  1
  O  O40  1  0.23562500  0.50986400  0.11475500  1
  O  O41  1  0.76437500  0.00986400  0.38524500  1
  O  O42  1  0.76437500  0.49013600  0.88524500  1
  O  O43  1  0.23562500  0.99013600  0.61475500  1
  O  O44  1  0.41861000  0.15043400  0.11666400  1
  O  O45  1  0.58139000  0.65043400  0.38333600  1
  O  O46  1  0.58139000  0.84956600  0.88333600  1
  O  O47  1  0.41861000  0.34956600  0.61666400  1
  O  O48  1  0.29453100  0.27001700  0.97679800  1
  O  O49  1  0.70546900  0.77001700  0.52320200  1
  O  O50  1  0.70546900  0.72998300  0.02320200  1
  O  O51  1  0.29453100  0.22998300  0.47679800  1
  O  O52  1  0.21590400  0.17335200  0.15125300  1
  O  O53  1  0.78409600  0.67335200  0.34874700  1
  O  O54  1  0.78409600  0.82664800  0.84874700  1
  O  O55  1  0.21590400  0.32664800  0.65125300  1
  O  O56  1  0.34828300  0.14932200  0.75528900  1
  O  O57  1  0.65171700  0.64932200  0.74471100  1
  O  O58  1  0.65171700  0.85067800  0.24471100  1
  O  O59  1  0.34828300  0.35067800  0.25528900  1
  O  O60  1  0.04923300  0.50537300  0.16458200  1
  O  O61  1  0.95076700  0.00537300  0.33541800  1
  O  O62  1  0.95076700  0.49462700  0.83541800  1
  O  O63  1  0.04923300  0.99462700  0.66458200  1
loop_
_geom_bond_atom_site_label_1
_geom_bond_atom_site_label_2
_geom_bond_distance
_geom_bond_site_symmetry_2
Mo0 O0 1.739071 1_555
Mo0 O4 1.745378 1_555
Mo0 O8 1.980965 1_555
Mo0 O12 2.026585 1_556
Mo0 O16 2.208239 1_555
Mo0 O20 2.355665 1_555
Mo1 O1 1.739071 1_555
Mo1 O5 1.745378 1_555
Mo1 O9 1.980965 1_555
Mo1 O13 2.026585 1_555
Mo1 O17 2.208239 1_555
Mo1 O21 2.355665 1_555
Mo2 O2 1.739071 1_555
Mo2 O6 1.745378 1_555
Mo2 O10 1.980965 1_555
Mo2 O14 2.026585 1_554
Mo2 O18 2.208239 1_555
Mo2 O22 2.355665 1_555
Mo3 O3 1.739071 1_555
Mo3 O7 1.745378 1_555
Mo3 O11 1.980965 1_555
Mo3 O15 2.026585 1_555
Mo3 O19 2.208239 1_555
Mo3 O23 2.355665 1_555
Mo4 O24 1.717230 1_555
Mo4 O20 1.797564 1_554
Mo4 O28 1.942725 1_555
Mo4 O32 2.025709 1_555
Mo4 O39 2.166323 1_555
Mo4 O40 2.366478 1_555
Mo5 O25 1.717230 1_555
Mo5 O21 1.797564 1_555
Mo5 O29 1.942725 1_545
Mo5 O33 2.025709 1_555
Mo5 O38 2.166323 1_555
Mo5 O41 2.366478 1_555
Mo6 O26 1.717230 1_555
Mo6 O22 1.797564 1_556
Mo6 O30 1.942725 1_555
Mo6 O34 2.025709 1_555
Mo6 O37 2.166323 1_555
Mo6 O42 2.366478 1_555
Mo7 O27 1.717230 1_555
Mo7 O23 1.797564 1_555
Mo7 O31 1.942725 1_565
Mo7 O35 2.025709 1_555
Mo7 O36 2.166323 1_555
Mo7 O43 2.366478 1_555
Mo8 O44 1.726948 1_555
Mo8 O48 1.747602 1_554
Mo8 O28 1.959554 1_555
Mo8 O52 2.088839 1_555
Mo8 O40 2.248006 1_555
Mo8 O59 2.290151 1_555
Mo9 O45 1.726948 1_555
Mo9 O49 1.747602 1_555
Mo9 O29 1.959554 1_555
Mo9 O53 2.088839 1_555
Mo9 O41 2.248006 1_565
Mo9 O58 2.290151 1_555
Mo10 O46 1.726948 1_555
Mo10 O50 1.747602 1_556
Mo10 O30 1.959554 1_555
Mo10 O54 2.088839 1_555
Mo10 O42 2.248006 1_555
Mo10 O57 2.290151 1_555
Mo11 O47 1.726948 1_555
Mo11 O51 1.747602 1_555
Mo11 O31 1.959554 1_555
Mo11 O55 2.088839 1_555
Mo11 O43 2.248006 1_545
Mo11 O56 2.290151 1_555
O0 Rb1 3.263846 1_455
O0 Rb0 3.276072 1_565
O1 Rb0 3.263846 1_655
O1 Rb1 3.276072 1_555
O2 Rb3 3.263846 1_655
O2 Rb2 3.276072 1_545
O3 Rb2 3.263846 1_455
O3 Rb3 3.276072 1_555
O4 Rb7 3.247257 1_555
O4 Rb0 3.271543 1_555
O5 Rb6 3.247257 1_545
O5 Rb1 3.271543 1_545
O6 Rb5 3.247257 1_555
O6 Rb2 3.271543 1_555
O7 Rb4 3.247257 1_565
O7 Rb3 3.271543 1_565
O8 Se0 1.800640 1_555
O8 Rb0 3.078746 1_565
O9 Se1 1.800640 1_555
O9 Rb1 3.078746 1_555
O10 Se2 1.800640 1_555
O10 Rb2 3.078746 1_545
O11 Se3 1.800640 1_555
O11 Rb3 3.078746 1_555
O12 Se4 1.804992 1_555
O12 Rb2 3.540011 1_455
O13 Se5 1.804992 1_545
O13 Rb3 3.540011 1_655
O14 Se6 1.804992 1_555
O14 Rb0 3.540011 1_655
O15 Se7 1.804992 1_565
O15 Rb1 3.540011 1_455
O16 Se8 1.699372 1_556
O16 Rb0 3.286260 1_565
O17 Se9 1.699372 1_555
O17 Rb1 3.286260 1_555
O18 Se10 1.699372 1_554
O18 Rb2 3.286260 1_545
O19 Se11 1.699372 1_555
O19 Rb3 3.286260 1_555
O20 Rb7 3.240444 1_555
O21 Rb6 3.240444 1_545
O22 Rb5 3.240444 1_555
O23 Rb4 3.240444 1_565
O24 Rb5 3.337795 1_555
O25 Rb4 3.337795 1_555
O26 Rb7 3.337795 1_555
O27 Rb6 3.337795 1_555
O28 Rb5 3.019684 1_555
O29 Rb4 3.019684 1_565
O30 Rb7 3.019684 1_555
O31 Rb6 3.019684 1_545
O32 Se8 1.756277 1_555
O32 Rb4 3.121740 1_565
O33 Se9 1.756277 1_555
O33 Rb5 3.121740 1_555
O34 Se10 1.756277 1_555
O34 Rb6 3.121740 1_545
O35 Se11 1.756277 1_555
O35 Rb7 3.121740 1_555
O36 Se0 1.724646 1_555
O36 Rb7 3.140456 1_555
O37 Se1 1.724646 1_555
O37 Rb6 3.140456 1_545
O38 Se2 1.724646 1_555
O38 Rb5 3.140456 1_555
O39 Se3 1.724646 1_555
O39 Rb4 3.140456 1_565
O40 Se4 1.765003 1_555
O41 Se5 1.765003 1_545
O42 Se6 1.765003 1_555
O43 Se7 1.765003 1_565
O44 Rb4 3.193087 1_555
O45 Rb5 3.193087 1_555
O46 Rb6 3.193087 1_555
O47 Rb7 3.193087 1_555
O48 Rb7 3.101169 1_555
O48 Rb0 3.460165 1_555
O49 Rb6 3.101169 1_555
O49 Rb1 3.460165 1_555
O50 Rb5 3.101169 1_555
O50 Rb2 3.460165 1_555
O51 Rb4 3.101169 1_555
O51 Rb3 3.460165 1_555
O52 Se8 1.758549 1_545
O52 Rb3 3.133701 1_555
O53 Se9 1.758549 1_555
O53 Rb2 3.133701 1_555
O54 Se10 1.758549 1_565
O54 Rb1 3.133701 1_555
O55 Se11 1.758549 1_555
O55 Rb0 3.133701 1_555
O56 Se0 1.697385 1_545
O56 Rb7 3.009083 1_555
O57 Se1 1.697385 1_555
O57 Rb6 3.009083 1_555
O58 Se2 1.697385 1_565
O58 Rb5 3.009083 1_555
O59 Se3 1.697385 1_555
O59 Rb4 3.009083 1_555
O60 Se4 1.650071 1_555
O60 Rb2 2.991817 1_455
O60 Rb3 3.024836 1_555
O61 Se5 1.650071 1_545
O61 Rb3 2.991817 1_655
O61 Rb2 3.024836 1_545
O62 Se6 1.650071 1_555
O62 Rb0 2.991817 1_655
O62 Rb1 3.024836 1_555
O63 Se7 1.650071 1_565
O63 Rb1 2.991817 1_455
O63 Rb0 3.024836 1_565
