# generated using pymatgen
data_Rb3Bi2
_symmetry_space_group_name_H-M   'P 1'
_cell_length_a   7.06018458
_cell_length_b   7.06017262
_cell_length_c   9.85098955
_cell_angle_alpha   79.60000575
_cell_angle_beta   79.60041391
_cell_angle_gamma   92.09400977
_symmetry_Int_Tables_number   1
_chemical_formula_structural   Rb3Bi2
_chemical_formula_sum   'Rb6 Bi4'
_cell_volume   473.81865682
_cell_formula_units_Z   2
loop_
 _symmetry_equiv_pos_site_id
 _symmetry_equiv_pos_as_xyz
  1  'x, y, z'
loop_
 _atom_site_type_symbol
 _atom_site_label
 _atom_site_symmetry_multiplicity
 _atom_site_fract_x
 _atom_site_fract_y
 _atom_site_fract_z
 _atom_site_occupancy
  Rb  Rb0  1  0.65938594  0.76240576  0.51565311  1
  Rb  Rb1  1  0.34048059  0.23751648  0.48469923  1
  Rb  Rb2  1  0.23759461  0.34061311  0.98434720  1
  Rb  Rb3  1  0.76248321  0.65952091  0.01529814  1
  Rb  Rb4  1  0.84217817  0.15781996  0.75000118  1
  Rb  Rb5  1  0.15789046  0.84211370  0.24999830  1
  Bi  Bi0  1  0.31498891  0.88164467  0.84285751  1
  Bi  Bi1  1  0.68508803  0.11844458  0.15717293  1
  Bi  Bi2  1  0.11835549  0.68500981  0.65714057  1
  Bi  Bi3  1  0.88155559  0.31491203  0.34282984  1
loop_
_geom_bond_atom_site_label_1
_geom_bond_atom_site_label_2
_geom_bond_distance
_geom_bond_site_symmetry_2
Rb0 Rb5 3.943432 1_655
Rb0 Rb1 4.104221 1_565
Rb0 Rb4 4.234104 1_565
Rb0 Rb1 4.352181 1_555
Rb0 Rb5 4.760300 1_555
Rb0 Rb4 4.809924 1_555
Rb1 Rb4 3.940681 1_455
Rb1 Rb5 4.236004 1_545
Rb1 Rb4 4.759203 1_555
Rb1 Rb5 4.810717 1_555
Rb2 Rb5 3.943368 1_546
Rb2 Rb3 4.104239 1_456
Rb2 Rb4 4.234101 1_455
Rb2 Rb3 4.352179 1_556
Rb2 Rb5 4.760316 1_556
Rb2 Rb4 4.809930 1_555
Rb3 Rb4 3.940621 1_564
Rb3 Rb5 4.236026 1_655
Rb3 Rb4 4.759201 1_554
Rb3 Rb5 4.810720 1_555
Bi0 Bi2 2.982403 1_555
Bi0 Rb2 3.771807 1_565
Bi0 Rb2 3.805562 1_555
Bi0 Rb0 3.912835 1_555
Bi0 Rb1 3.915435 1_565
Bi0 Rb5 3.919357 1_556
Bi0 Rb4 4.011089 1_565
Bi0 Rb3 4.082229 1_556
Bi0 Rb4 4.088501 1_465
Bi0 Rb3 4.093904 1_456
Bi1 Bi3 2.980626 1_555
Bi1 Rb3 3.773405 1_545
Bi1 Rb3 3.806463 1_555
Bi1 Rb1 3.915473 1_555
Bi1 Rb0 3.918254 1_545
Bi1 Rb4 3.919780 1_554
Bi1 Rb5 4.011600 1_545
Bi1 Rb2 4.084177 1_554
Bi1 Rb5 4.088875 1_645
Bi1 Rb2 4.094656 1_654
Bi2 Rb0 3.771799 1_455
Bi2 Rb0 3.805566 1_555
Bi2 Rb2 3.912830 1_555
Bi2 Rb3 3.915451 1_456
Bi2 Rb5 3.919365 1_555
Bi2 Rb4 4.011091 1_455
Bi2 Rb1 4.082240 1_555
Bi2 Rb4 4.088521 1_465
Bi2 Rb1 4.093902 1_565
Bi3 Rb1 3.773383 1_655
Bi3 Rb1 3.806460 1_555
Bi3 Rb3 3.915499 1_555
Bi3 Rb2 3.918292 1_654
Bi3 Rb4 3.919769 1_555
Bi3 Rb5 4.011628 1_655
Bi3 Rb0 4.084180 1_555
Bi3 Rb5 4.088885 1_645
Bi3 Rb0 4.094641 1_545
