# generated using pymatgen
data_Cu2C3NCl5
_symmetry_space_group_name_H-M   'P 1'
_cell_length_a   9.67797200
_cell_length_b   5.98941900
_cell_length_c   20.33472563
_cell_angle_alpha   78.45714314
_cell_angle_beta   90.00000000
_cell_angle_gamma   90.00000000
_symmetry_Int_Tables_number   1
_chemical_formula_structural   Cu2C3NCl5
_chemical_formula_sum   'Cu8 C12 N4 Cl20'
_cell_volume   1154.87202953
_cell_formula_units_Z   4
loop_
 _symmetry_equiv_pos_site_id
 _symmetry_equiv_pos_as_xyz
  1  'x, y, z'
loop_
 _atom_site_type_symbol
 _atom_site_label
 _atom_site_symmetry_multiplicity
 _atom_site_fract_x
 _atom_site_fract_y
 _atom_site_fract_z
 _atom_site_occupancy
  Cu  Cu0  1  0.88806400  0.82019200  0.97500700  1
  Cu  Cu1  1  0.38806400  0.17980800  0.52499300  1
  Cu  Cu2  1  0.11193600  0.17980800  0.02499300  1
  Cu  Cu3  1  0.61193600  0.82019200  0.47500700  1
  Cu  Cu4  1  0.70344800  0.42468600  0.92792600  1
  Cu  Cu5  1  0.20344800  0.57531400  0.57207400  1
  Cu  Cu6  1  0.29655200  0.57531400  0.07207400  1
  Cu  Cu7  1  0.79655200  0.42468600  0.42792600  1
  C  C0  1  0.90701000  0.84402500  0.70490800  1
  C  C1  1  0.40701000  0.15597500  0.79509200  1
  C  C2  1  0.09299000  0.15597500  0.29509200  1
  C  C3  1  0.59299000  0.84402500  0.20490800  1
  C  C4  1  0.06902100  0.39946700  0.62568100  1
  C  C5  1  0.56902100  0.60053300  0.87431900  1
  C  C6  1  0.93097900  0.60053300  0.37431900  1
  C  C7  1  0.43097900  0.39946700  0.12568100  1
  C  C8  1  0.99283100  0.01835800  0.68705200  1
  C  C9  1  0.49283100  0.98164200  0.81294800  1
  C  C10  1  0.00716900  0.98164200  0.31294800  1
  C  C11  1  0.50716900  0.01835800  0.18705200  1
  N  N0  1  0.01861900  0.22828300  0.65536100  1
  N  N1  1  0.51861900  0.77171700  0.84463900  1
  N  N2  1  0.98138100  0.77171700  0.34463900  1
  N  N3  1  0.48138100  0.22828300  0.15536100  1
  Cl  Cl0  1  0.87093600  0.67253100  0.87777100  1
  Cl  Cl1  1  0.37093600  0.32746900  0.62222900  1
  Cl  Cl2  1  0.12906400  0.32746900  0.12222900  1
  Cl  Cl3  1  0.62906400  0.67253100  0.37777100  1
  Cl  Cl4  1  0.78023900  0.49691500  0.03001900  1
  Cl  Cl5  1  0.28023900  0.50308500  0.46998100  1
  Cl  Cl6  1  0.21976100  0.50308500  0.96998100  1
  Cl  Cl7  1  0.71976100  0.49691500  0.53001900  1
  Cl  Cl8  1  0.62064200  0.17814400  0.76979300  1
  Cl  Cl9  1  0.12064200  0.82185600  0.73020700  1
  Cl  Cl10  1  0.37935800  0.82185600  0.23020700  1
  Cl  Cl11  1  0.87935800  0.17814400  0.26979300  1
  Cl  Cl12  1  0.67123800  0.05396200  0.95766500  1
  Cl  Cl13  1  0.17123800  0.94603800  0.54233500  1
  Cl  Cl14  1  0.32876200  0.94603800  0.04233500  1
  Cl  Cl15  1  0.82876200  0.05396200  0.45766500  1
  Cl  Cl16  1  0.04418300  0.08698300  0.92489300  1
  Cl  Cl17  1  0.54418300  0.91301700  0.57510700  1
  Cl  Cl18  1  0.95581700  0.91301700  0.07510700  1
  Cl  Cl19  1  0.45581700  0.08698300  0.42489300  1
loop_
_geom_bond_atom_site_label_1
_geom_bond_atom_site_label_2
_geom_bond_distance
_geom_bond_site_symmetry_2
C0 C8 1.326733 1_565
C0 Cl9 2.128288 1_655
C1 C9 1.326733 1_545
C1 Cl8 2.128288 1_555
C2 Cl11 2.128288 1_455
C3 Cl10 2.128288 1_555
C4 N0 1.185653 1_555
C4 Cu5 1.878999 1_555
C5 N1 1.185653 1_555
C5 Cu4 1.878999 1_555
C6 N2 1.185653 1_555
C6 Cu7 1.878999 1_555
C7 N3 1.185653 1_555
C7 Cu6 1.878999 1_555
C8 N0 1.316884 1_655
C8 Cl9 1.808859 1_645
C9 N1 1.316884 1_555
C9 Cl8 1.808859 1_565
C10 N2 1.316884 1_455
C10 C2 1.326733 1_565
C10 Cl11 1.808859 1_465
C11 N3 1.316884 1_555
C11 C3 1.326733 1_545
C11 Cl10 1.808859 1_545
Cl0 Cu4 2.294629 1_555
Cl0 Cu0 2.327889 1_555
Cl1 Cu5 2.294629 1_555
Cl1 Cu1 2.327889 1_555
Cl2 Cu6 2.294629 1_555
Cl2 Cu2 2.327889 1_555
Cl3 Cu7 2.294629 1_555
Cl3 Cu3 2.327889 1_555
Cl4 Cu0 2.285287 1_554
Cl4 Cu4 2.325685 1_554
Cl5 Cu1 2.285287 1_555
Cl5 Cu5 2.325685 1_555
Cl6 Cu2 2.285287 1_556
Cl6 Cu6 2.325685 1_556
Cl7 Cu3 2.285287 1_555
Cl7 Cu7 2.325685 1_555
Cl12 Cu4 2.203582 1_555
Cl12 Cu0 2.508107 1_545
Cl13 Cu5 2.203582 1_555
Cl13 Cu1 2.508107 1_565
Cl14 Cu6 2.203582 1_555
Cl14 Cu2 2.508107 1_565
Cl15 Cu7 2.203582 1_555
Cl15 Cu3 2.508107 1_545
Cl16 Cu0 2.285392 1_445
Cl16 Cu2 2.309814 1_556
Cl17 Cu1 2.285392 1_565
Cl17 Cu3 2.309814 1_555
Cl18 Cu2 2.285392 1_665
Cl18 Cu0 2.309814 1_554
Cl19 Cu3 2.285392 1_545
Cl19 Cu1 2.309814 1_555
