# generated using pymatgen
data_KCeSiS4
_symmetry_space_group_name_H-M   'P 1'
_cell_length_a   6.60657300
_cell_length_b   6.57774400
_cell_length_c   8.83689193
_cell_angle_alpha   73.03354528
_cell_angle_beta   90.00000000
_cell_angle_gamma   90.00000000
_symmetry_Int_Tables_number   1
_chemical_formula_structural   KCeSiS4
_chemical_formula_sum   'K2 Ce2 Si2 S8'
_cell_volume   367.30489922
_cell_formula_units_Z   2
loop_
 _symmetry_equiv_pos_site_id
 _symmetry_equiv_pos_as_xyz
  1  'x, y, z'
loop_
 _atom_site_type_symbol
 _atom_site_label
 _atom_site_symmetry_multiplicity
 _atom_site_fract_x
 _atom_site_fract_y
 _atom_site_fract_z
 _atom_site_occupancy
  K  K0  1  0.75000000  0.27382300  0.93392100  1
  K  K1  1  0.25000000  0.72617700  0.06607900  1
  Ce  Ce0  1  0.75000000  0.23210300  0.44891300  1
  Ce  Ce1  1  0.25000000  0.76789700  0.55108700  1
  Si  Si0  1  0.75000000  0.78363500  0.31844000  1
  Si  Si1  1  0.25000000  0.21636500  0.68156000  1
  S  S0  1  0.50142200  0.00379800  0.72088200  1
  S  S1  1  0.00142200  0.99620200  0.27911800  1
  S  S2  1  0.49857800  0.99620200  0.27911800  1
  S  S3  1  0.99857800  0.00379800  0.72088200  1
  S  S4  1  0.75000000  0.58577400  0.16832900  1
  S  S5  1  0.25000000  0.41422600  0.83167100  1
  S  S6  1  0.75000000  0.60210900  0.56269600  1
  S  S7  1  0.25000000  0.39789100  0.43730400  1
loop_
_geom_bond_atom_site_label_1
_geom_bond_atom_site_label_2
_geom_bond_distance
_geom_bond_site_symmetry_2
K0 S4 3.313903 1_556
K0 S6 3.360086 1_555
K0 S3 3.368593 1_555
K0 S0 3.368593 1_555
K0 S5 3.477648 1_555
K0 S5 3.477648 1_655
K0 S1 3.485403 1_646
K0 S2 3.485403 1_546
K1 S5 3.313903 1_554
K1 S7 3.360086 1_555
K1 S2 3.368593 1_555
K1 S1 3.368593 1_555
K1 S4 3.477648 1_555
K1 S4 3.477648 1_455
K1 S0 3.485403 1_564
K1 S3 3.485403 1_464
Ce0 S4 2.862406 1_555
Ce0 S6 2.891822 1_555
Ce0 S3 2.936308 1_555
Ce0 S0 2.936308 1_555
Ce0 S1 2.962603 1_645
Ce0 S2 2.962603 1_545
Ce0 S7 3.470756 1_555
Ce0 S7 3.470756 1_655
Ce1 S5 2.862406 1_555
Ce1 S7 2.891822 1_555
Ce1 S2 2.936308 1_555
Ce1 S1 2.936308 1_555
Ce1 S0 2.962603 1_565
Ce1 S3 2.962603 1_465
Ce1 S6 3.470756 1_455
Ce1 S6 3.470756 1_555
S0 Si1 2.133361 1_555
S1 Si0 2.133361 1_455
S2 Si0 2.133361 1_555
S3 Si1 2.133361 1_655
S4 Si0 2.112126 1_555
S5 Si1 2.112126 1_555
S6 Si0 2.140215 1_555
S7 Si1 2.140215 1_555
