# generated using pymatgen
data_Mn6O5F7
_symmetry_space_group_name_H-M   'P 1'
_cell_length_a   5.30105700
_cell_length_b   5.36043611
_cell_length_c   14.86352376
_cell_angle_alpha   93.38253932
_cell_angle_beta   92.50213450
_cell_angle_gamma   93.74787594
_symmetry_Int_Tables_number   1
_chemical_formula_structural   Mn6O5F7
_chemical_formula_sum   'Mn12 O10 F14'
_cell_volume   420.24515617
_cell_formula_units_Z   2
loop_
 _symmetry_equiv_pos_site_id
 _symmetry_equiv_pos_as_xyz
  1  'x, y, z'
loop_
 _atom_site_type_symbol
 _atom_site_label
 _atom_site_symmetry_multiplicity
 _atom_site_fract_x
 _atom_site_fract_y
 _atom_site_fract_z
 _atom_site_occupancy
  Mn  Mn0  1  0.09909600  0.01367900  0.00216200  1
  Mn  Mn1  1  0.55457600  0.04942500  0.16521600  1
  Mn  Mn2  1  0.92839000  0.01111600  0.32458400  1
  Mn  Mn3  1  0.38975200  0.10708300  0.49148400  1
  Mn  Mn4  1  0.98457800  0.88854700  0.67012900  1
  Mn  Mn5  1  0.49393300  0.03984600  0.82873200  1
  Mn  Mn6  1  0.88071300  0.53938600  0.16955100  1
  Mn  Mn7  1  0.45036700  0.54486100  0.00392800  1
  Mn  Mn8  1  0.52610900  0.44898400  0.66949900  1
  Mn  Mn9  1  0.98331100  0.46551400  0.50271800  1
  Mn  Mn10  1  0.44992400  0.49327900  0.31962200  1
  Mn  Mn11  1  0.02374800  0.37296600  0.83367100  1
  O  O0  1  0.75914800  0.25268500  0.25570700  1
  O  O1  1  0.14123100  0.26124600  0.40758400  1
  O  O2  1  0.17905100  0.13598300  0.75107800  1
  O  O3  1  0.59323800  0.37799500  0.10110100  1
  O  O4  1  0.27246800  0.35992700  0.57043900  1
  O  O5  1  0.30044500  0.24540100  0.92860200  1
  O  O6  1  0.69232100  0.31987900  0.77215400  1
  O  O7  1  0.80572700  0.61400400  0.60109500  1
  O  O8  1  0.69309900  0.77110400  0.24330300  1
  O  O9  1  0.36046500  0.85898400  0.06942800  1
  F  F0  1  0.08655000  0.36004500  0.08554900  1
  F  F1  1  0.70190400  0.11682000  0.58489700  1
  F  F2  1  0.81536700  0.07381200  0.92127700  1
  F  F3  1  0.26075700  0.14790500  0.24373200  1
  F  F4  1  0.65534300  0.36409000  0.43338800  1
  F  F5  1  0.87805300  0.57786700  0.92883300  1
  F  F6  1  0.48942800  0.85469700  0.40784500  1
  F  F7  1  0.22656400  0.62735300  0.73481600  1
  F  F8  1  0.98570700  0.76801500  0.41426000  1
  F  F9  1  0.86474400  0.86759200  0.08571700  1
  F  F10  1  0.72056400  0.81803200  0.75406200  1
  F  F11  1  0.23363600  0.86123200  0.57756500  1
  F  F12  1  0.35275600  0.73270000  0.89961100  1
  F  F13  1  0.16693800  0.65794600  0.24665800  1
loop_
_geom_bond_atom_site_label_1
_geom_bond_atom_site_label_2
_geom_bond_distance
_geom_bond_site_symmetry_2
Mn0 O9 1.932364 1_545
Mn0 O5 1.991588 1_554
Mn1 O9 1.921265 1_545
Mn1 O0 1.928077 1_555
Mn1 O3 2.054311 1_555
Mn1 O8 2.094111 1_545
Mn2 O0 1.938530 1_555
Mn2 O1 2.019463 1_655
Mn2 O8 2.036118 1_545
Mn3 O4 1.893918 1_555
Mn3 O1 2.023396 1_555
Mn4 O7 1.916251 1_555
Mn4 O2 1.947897 1_665
Mn5 O6 2.021459 1_555
Mn5 O2 2.097250 1_555
Mn5 O5 2.134790 1_555
Mn6 O3 1.922057 1_555
Mn6 O8 1.956955 1_555
Mn6 O0 2.142866 1_555
Mn7 O3 1.898761 1_555
Mn7 O9 1.990534 1_555
Mn7 O5 2.001343 1_554
Mn8 O6 1.915812 1_555
Mn8 O4 1.965692 1_555
Mn8 O7 2.019811 1_555
Mn9 O4 1.931077 1_655
Mn9 O7 1.933569 1_555
Mn9 O1 1.984871 1_655
Mn10 O8 2.289649 1_555
Mn10 O0 2.349594 1_555
Mn10 O1 2.459026 1_555
Mn11 O6 1.940991 1_455
Mn11 O2 1.959469 1_555
Mn11 O5 2.162006 1_555
F0 Mn6 1.946321 1_455
F0 Mn0 2.177067 1_555
F0 Mn7 2.503829 1_555
F1 Mn3 2.109078 1_555
F1 Mn4 2.367384 1_545
F1 Mn8 2.382240 1_555
F1 Mn9 2.697228 1_555
F2 Mn0 1.939771 1_656
F2 Mn5 2.133993 1_555
F2 Mn11 2.372281 1_655
F3 Mn1 2.063998 1_555
F3 Mn10 2.262203 1_555
F3 Mn2 2.281685 1_455
F4 Mn9 2.008489 1_555
F4 Mn10 2.144926 1_555
F4 Mn3 2.149140 1_555
F5 Mn11 1.956145 1_655
F5 Mn7 2.570819 1_556
F6 Mn3 1.899300 1_565
F6 Mn10 2.267141 1_555
F7 Mn8 2.145162 1_555
F7 Mn4 2.194596 1_455
F7 Mn11 2.314529 1_555
F8 Mn2 1.946395 1_565
F8 Mn9 2.146762 1_555
F9 Mn0 1.954798 1_665
F9 Mn6 2.219018 1_555
F9 Mn1 2.300653 1_565
F10 Mn4 1.948568 1_555
F10 Mn5 2.058233 1_565
F10 Mn8 2.425441 1_555
F11 Mn4 1.953857 1_455
F11 Mn3 2.051231 1_565
F12 Mn7 1.966720 1_556
F12 Mn5 2.119708 1_565
F12 Mn11 2.628490 1_555
F13 Mn6 1.912000 1_455
F13 Mn10 2.085588 1_555
