# generated using pymatgen
data_Mg2Rh
_symmetry_space_group_name_H-M   'P 1'
_cell_length_a   6.34380255
_cell_length_b   6.34380118
_cell_length_c   11.05918196
_cell_angle_alpha   106.66719456
_cell_angle_beta   106.66717731
_cell_angle_gamma   89.99997679
_symmetry_Int_Tables_number   1
_chemical_formula_structural   Mg2Rh
_chemical_formula_sum   'Mg16 Rh8'
_cell_volume   406.80821332
_cell_formula_units_Z   8
loop_
 _symmetry_equiv_pos_site_id
 _symmetry_equiv_pos_as_xyz
  1  'x, y, z'
loop_
 _atom_site_type_symbol
 _atom_site_label
 _atom_site_symmetry_multiplicity
 _atom_site_fract_x
 _atom_site_fract_y
 _atom_site_fract_z
 _atom_site_occupancy
  Mg  Mg0_0  1  0.32140885  0.32140885  0.14281769  1
  Mg  Mg0_1  1  0.32140885  0.32140885  0.64281769  1
  Mg  Mg0_2  1  0.32140885  0.82140885  0.14281769  1
  Mg  Mg0_3  1  0.32140885  0.82140885  0.64281769  1
  Mg  Mg0_4  1  0.82140885  0.32140885  0.14281769  1
  Mg  Mg0_5  1  0.82140885  0.32140885  0.64281769  1
  Mg  Mg0_6  1  0.82140885  0.82140885  0.14281769  1
  Mg  Mg0_7  1  0.82140885  0.82140885  0.64281770  1
  Mg  Mg1_0  1  0.17859115  0.17859115  0.35718231  1
  Mg  Mg1_1  1  0.17859115  0.17859115  0.85718231  1
  Mg  Mg1_2  1  0.17859115  0.67859115  0.35718230  1
  Mg  Mg1_3  1  0.17859115  0.67859115  0.85718231  1
  Mg  Mg1_4  1  0.67859115  0.17859115  0.35718230  1
  Mg  Mg1_5  1  0.67859115  0.17859115  0.85718231  1
  Mg  Mg1_6  1  0.67859115  0.67859115  0.35718230  1
  Mg  Mg1_7  1  0.67859115  0.67859115  0.85718231  1
  Rh  Rh0_0  1  0.00000000  0.00000000  0.00000000  1
  Rh  Rh0_1  1  0.00000000  0.00000000  0.50000000  1
  Rh  Rh0_2  1  0.00000000  0.50000000  0.00000000  1
  Rh  Rh0_3  1  0.00000000  0.50000000  0.50000000  1
  Rh  Rh0_4  1  0.50000000  0.00000000  0.00000000  1
  Rh  Rh0_5  1  0.50000000  0.00000000  0.50000000  1
  Rh  Rh0_6  1  0.50000000  0.50000000  0.00000000  1
  Rh  Rh0_7  1  0.50000000  0.50000000  0.50000000  1
loop_
_geom_bond_atom_site_label_1
_geom_bond_atom_site_label_2
_geom_bond_distance
_geom_bond_site_symmetry_2
Mg0_0 Rh0_4 2.667340 1_555
Mg0_0 Rh0_0 2.667340 1_555
Mg0_0 Rh0_2 2.667340 1_555
Mg0_0 Rh0_6 2.667341 1_555
Mg0_0 Mg1_1 2.887370 1_554
Mg0_0 Mg1_2 3.118658 1_555
Mg0_0 Mg1_6 3.118659 1_555
Mg0_0 Mg1_4 3.118659 1_555
Mg0_0 Mg1_0 3.118660 1_555
Mg0_0 Mg0_2 3.171901 1_545
Mg0_0 Mg0_2 3.171901 1_555
Mg0_0 Mg0_4 3.171901 1_455
Mg0_0 Mg0_4 3.171901 1_555
Mg0_1 Rh0_5 2.667340 1_555
Mg0_1 Rh0_1 2.667340 1_555
Mg0_1 Rh0_3 2.667340 1_555
Mg0_1 Rh0_7 2.667341 1_555
Mg0_1 Mg1_0 2.887370 1_555
Mg0_1 Mg1_3 3.118658 1_555
Mg0_1 Mg1_7 3.118659 1_555
Mg0_1 Mg1_5 3.118659 1_555
Mg0_1 Mg1_1 3.118660 1_555
Mg0_1 Mg0_3 3.171901 1_555
Mg0_1 Mg0_3 3.171901 1_545
Mg0_1 Mg0_5 3.171901 1_555
Mg0_1 Mg0_5 3.171901 1_455
Mg0_2 Rh0_6 2.667340 1_555
Mg0_2 Rh0_2 2.667340 1_555
Mg0_2 Rh0_0 2.667340 1_565
Mg0_2 Rh0_4 2.667341 1_565
Mg0_2 Mg1_3 2.887370 1_554
Mg0_2 Mg1_0 3.118658 1_565
Mg0_2 Mg1_4 3.118659 1_565
Mg0_2 Mg1_6 3.118659 1_555
Mg0_2 Mg1_2 3.118660 1_555
Mg0_2 Mg0_6 3.171901 1_555
Mg0_2 Mg0_6 3.171901 1_455
Mg0_3 Rh0_7 2.667340 1_555
Mg0_3 Rh0_3 2.667340 1_555
Mg0_3 Rh0_1 2.667340 1_565
Mg0_3 Rh0_5 2.667341 1_565
Mg0_3 Mg1_2 2.887370 1_555
Mg0_3 Mg1_1 3.118658 1_565
Mg0_3 Mg1_5 3.118659 1_565
Mg0_3 Mg1_7 3.118659 1_555
Mg0_3 Mg1_3 3.118660 1_555
Mg0_3 Mg0_7 3.171901 1_455
Mg0_3 Mg0_7 3.171901 1_555
Mg0_4 Rh0_0 2.667340 1_655
Mg0_4 Rh0_4 2.667340 1_555
Mg0_4 Rh0_6 2.667340 1_555
Mg0_4 Rh0_2 2.667341 1_655
Mg0_4 Mg1_5 2.887370 1_554
Mg0_4 Mg1_6 3.118658 1_555
Mg0_4 Mg1_2 3.118659 1_655
Mg0_4 Mg1_0 3.118659 1_655
Mg0_4 Mg1_4 3.118660 1_555
Mg0_4 Mg0_6 3.171901 1_545
Mg0_4 Mg0_6 3.171901 1_555
Mg0_5 Rh0_1 2.667340 1_655
Mg0_5 Rh0_5 2.667340 1_555
Mg0_5 Rh0_7 2.667340 1_555
Mg0_5 Rh0_3 2.667341 1_655
Mg0_5 Mg1_4 2.887370 1_555
Mg0_5 Mg1_7 3.118658 1_555
Mg0_5 Mg1_3 3.118659 1_655
Mg0_5 Mg1_1 3.118659 1_655
Mg0_5 Mg1_5 3.118660 1_555
Mg0_5 Mg0_7 3.171901 1_555
Mg0_5 Mg0_7 3.171901 1_545
Mg0_6 Rh0_2 2.667340 1_655
Mg0_6 Rh0_6 2.667340 1_555
Mg0_6 Rh0_4 2.667340 1_565
Mg0_6 Rh0_0 2.667341 1_665
Mg0_6 Mg1_7 2.887370 1_554
Mg0_6 Mg1_4 3.118658 1_565
Mg0_6 Mg1_0 3.118659 1_665
Mg0_6 Mg1_2 3.118659 1_655
Mg0_6 Mg1_6 3.118660 1_555
Mg0_7 Rh0_3 2.667340 1_655
Mg0_7 Rh0_7 2.667340 1_555
Mg0_7 Rh0_5 2.667340 1_565
Mg0_7 Rh0_1 2.667341 1_665
Mg0_7 Mg1_6 2.887370 1_555
Mg0_7 Mg1_5 3.118658 1_565
Mg0_7 Mg1_1 3.118659 1_665
Mg0_7 Mg1_3 3.118659 1_655
Mg0_7 Mg1_7 3.118660 1_555
Mg1_0 Rh0_3 2.667340 1_555
Mg1_0 Rh0_7 2.667340 1_555
Mg1_0 Rh0_5 2.667340 1_555
Mg1_0 Rh0_1 2.667341 1_555
Mg1_0 Mg1_2 3.171901 1_555
Mg1_0 Mg1_2 3.171901 1_545
Mg1_0 Mg1_4 3.171901 1_455
Mg1_0 Mg1_4 3.171901 1_555
Mg1_1 Rh0_2 2.667340 1_556
Mg1_1 Rh0_6 2.667340 1_556
Mg1_1 Rh0_4 2.667340 1_556
Mg1_1 Rh0_0 2.667341 1_556
Mg1_1 Mg1_3 3.171901 1_555
Mg1_1 Mg1_3 3.171901 1_545
Mg1_1 Mg1_5 3.171901 1_455
Mg1_1 Mg1_5 3.171901 1_555
Mg1_2 Rh0_1 2.667340 1_565
Mg1_2 Rh0_5 2.667340 1_565
Mg1_2 Rh0_7 2.667340 1_555
Mg1_2 Rh0_3 2.667341 1_555
Mg1_2 Mg1_6 3.171901 1_555
Mg1_2 Mg1_6 3.171901 1_455
Mg1_3 Rh0_0 2.667340 1_566
Mg1_3 Rh0_4 2.667340 1_566
Mg1_3 Rh0_6 2.667340 1_556
Mg1_3 Rh0_2 2.667341 1_556
Mg1_3 Mg1_7 3.171901 1_455
Mg1_3 Mg1_7 3.171901 1_555
Mg1_4 Rh0_7 2.667340 1_555
Mg1_4 Rh0_3 2.667340 1_655
Mg1_4 Rh0_1 2.667340 1_655
Mg1_4 Rh0_5 2.667341 1_555
Mg1_4 Mg1_6 3.171901 1_555
Mg1_4 Mg1_6 3.171901 1_545
Mg1_5 Rh0_6 2.667340 1_556
Mg1_5 Rh0_2 2.667340 1_656
Mg1_5 Rh0_0 2.667340 1_656
Mg1_5 Rh0_4 2.667341 1_556
Mg1_5 Mg1_7 3.171901 1_555
Mg1_5 Mg1_7 3.171901 1_545
Mg1_6 Rh0_5 2.667340 1_565
Mg1_6 Rh0_1 2.667340 1_665
Mg1_6 Rh0_3 2.667340 1_655
Mg1_6 Rh0_7 2.667341 1_555
Mg1_7 Rh0_4 2.667340 1_566
Mg1_7 Rh0_0 2.667340 1_666
Mg1_7 Rh0_2 2.667340 1_656
Mg1_7 Rh0_6 2.667341 1_556
