# generated using pymatgen
data_PrSiGe
_symmetry_space_group_name_H-M   'P 1'
_cell_length_a   8.27479431
_cell_length_b   8.27479431
_cell_length_c   8.27479431
_cell_angle_alpha   151.04385401
_cell_angle_beta   150.35975068
_cell_angle_gamma   41.91486541
_symmetry_Int_Tables_number   1
_chemical_formula_structural   PrSiGe
_chemical_formula_sum   'Pr2 Si2 Ge2'
_cell_volume   135.34405213
_cell_formula_units_Z   2
loop_
 _symmetry_equiv_pos_site_id
 _symmetry_equiv_pos_as_xyz
  1  'x, y, z'
loop_
 _atom_site_type_symbol
 _atom_site_label
 _atom_site_symmetry_multiplicity
 _atom_site_fract_x
 _atom_site_fract_y
 _atom_site_fract_z
 _atom_site_occupancy
  Pr  Pr0  1  0.38093200  0.63093200  0.75000000  1
  Pr  Pr1  1  0.61906800  0.36906800  0.25000000  1
  Si  Si0  1  0.96177400  0.21177400  0.75000000  1
  Si  Si1  1  0.03822600  0.78822600  0.25000000  1
  Ge  Ge0  1  0.79791000  0.04791000  0.75000000  1
  Ge  Ge1  1  0.20209000  0.95209000  0.25000000  1
loop_
_geom_bond_atom_site_label_1
_geom_bond_atom_site_label_2
_geom_bond_distance
_geom_bond_site_symmetry_2
Pr0 Si0 3.212584 1_555
Pr0 Si0 3.212584 1_566
Pr0 Si0 3.212584 1_454
Pr0 Si0 3.212584 1_465
Pr0 Si1 3.223253 1_656
Pr0 Si1 3.223253 1_555
Pr1 Si1 3.212584 1_645
Pr1 Si1 3.212584 1_656
Pr1 Si1 3.212584 1_544
Pr1 Si1 3.212584 1_555
Pr1 Si0 3.223253 1_555
Pr1 Si0 3.223253 1_454
Si0 Si1 2.382414 1_645
Si0 Si1 2.382414 1_656
Ge0 Si0 2.532481 1_555
Ge0 Ge1 2.583189 1_646
Ge0 Ge1 2.583189 1_545
Ge0 Pr0 3.225837 1_555
Ge0 Pr0 3.225837 1_656
Ge0 Pr0 3.225837 1_544
Ge0 Pr0 3.225837 1_645
Ge0 Pr1 3.452438 1_556
Ge0 Pr1 3.452438 1_545
Ge1 Si1 2.532481 1_555
Ge1 Pr1 3.225837 1_454
Ge1 Pr1 3.225837 1_465
Ge1 Pr1 3.225837 1_555
Ge1 Pr1 3.225837 1_566
Ge1 Pr0 3.452438 1_565
Ge1 Pr0 3.452438 1_554
