# generated using pymatgen
data_Fe4CN4
_symmetry_space_group_name_H-M   'P 1'
_cell_length_a   9.98304800
_cell_length_b   2.70846500
_cell_length_c   11.33401200
_cell_angle_alpha   90.00000000
_cell_angle_beta   90.00000000
_cell_angle_gamma   90.00000000
_symmetry_Int_Tables_number   1
_chemical_formula_structural   Fe4CN4
_chemical_formula_sum   'Fe16 C4 N16'
_cell_volume   306.45735944
_cell_formula_units_Z   4
loop_
 _symmetry_equiv_pos_site_id
 _symmetry_equiv_pos_as_xyz
  1  'x, y, z'
loop_
 _atom_site_type_symbol
 _atom_site_label
 _atom_site_symmetry_multiplicity
 _atom_site_fract_x
 _atom_site_fract_y
 _atom_site_fract_z
 _atom_site_occupancy
  Fe  Fe0  1  0.11436500  0.25000000  0.13882300  1
  Fe  Fe1  1  0.61436500  0.25000000  0.36117700  1
  Fe  Fe2  1  0.88563500  0.75000000  0.86117700  1
  Fe  Fe3  1  0.38563500  0.75000000  0.63882300  1
  Fe  Fe4  1  0.88336400  0.25000000  0.07285100  1
  Fe  Fe5  1  0.38336400  0.25000000  0.42714900  1
  Fe  Fe6  1  0.11663600  0.75000000  0.92714900  1
  Fe  Fe7  1  0.61663600  0.75000000  0.57285100  1
  Fe  Fe8  1  0.43731700  0.25000000  0.85074000  1
  Fe  Fe9  1  0.93731700  0.25000000  0.64926000  1
  Fe  Fe10  1  0.56268300  0.75000000  0.14926000  1
  Fe  Fe11  1  0.06268300  0.75000000  0.35074000  1
  Fe  Fe12  1  0.18260100  0.25000000  0.73207600  1
  Fe  Fe13  1  0.68260100  0.25000000  0.76792400  1
  Fe  Fe14  1  0.81739900  0.75000000  0.26792400  1
  Fe  Fe15  1  0.31739900  0.75000000  0.23207600  1
  C  C0  1  0.36082300  0.25000000  0.00457300  1
  C  C1  1  0.86082300  0.25000000  0.49542700  1
  C  C2  1  0.63917700  0.75000000  0.99542700  1
  C  C3  1  0.13917700  0.75000000  0.50457300  1
  N  N0  1  0.69698500  0.25000000  0.21513900  1
  N  N1  1  0.19698500  0.25000000  0.28486100  1
  N  N2  1  0.30301500  0.75000000  0.78486100  1
  N  N3  1  0.80301500  0.75000000  0.71513900  1
  N  N4  1  0.02109500  0.25000000  0.83029400  1
  N  N5  1  0.52109500  0.25000000  0.66970600  1
  N  N6  1  0.97890500  0.75000000  0.16970600  1
  N  N7  1  0.47890500  0.75000000  0.33029400  1
  N  N8  1  0.22563800  0.25000000  0.00631400  1
  N  N9  1  0.72563800  0.25000000  0.49368600  1
  N  N10  1  0.77436200  0.75000000  0.99368600  1
  N  N11  1  0.27436200  0.75000000  0.50631400  1
  N  N12  1  0.42435900  0.25000000  0.11186600  1
  N  N13  1  0.92435900  0.25000000  0.38813400  1
  N  N14  1  0.57564100  0.75000000  0.88813400  1
  N  N15  1  0.07564100  0.75000000  0.61186600  1
loop_
_geom_bond_atom_site_label_1
_geom_bond_atom_site_label_2
_geom_bond_distance
_geom_bond_site_symmetry_2
Fe0 N1 1.849316 1_555
Fe0 N8 1.868035 1_555
Fe0 N6 1.945557 1_445
Fe0 N6 1.945557 1_455
Fe1 N0 1.849316 1_555
Fe1 N9 1.868035 1_555
Fe1 N7 1.945557 1_545
Fe1 N7 1.945557 1_555
Fe2 N3 1.849316 1_555
Fe2 N10 1.868035 1_555
Fe2 N4 1.945557 1_665
Fe2 N4 1.945557 1_655
Fe3 N2 1.849316 1_555
Fe3 N11 1.868035 1_555
Fe3 N5 1.945557 1_565
Fe3 N5 1.945557 1_555
Fe4 N10 1.955284 1_544
Fe4 N10 1.955284 1_554
Fe4 N6 1.987141 1_555
Fe4 N6 1.987141 1_545
Fe4 N0 2.462261 1_555
Fe5 N11 1.955284 1_545
Fe5 N11 1.955284 1_555
Fe5 N7 1.987141 1_545
Fe5 N7 1.987141 1_555
Fe5 N1 2.462261 1_555
Fe6 N8 1.955284 1_566
Fe6 N8 1.955284 1_556
Fe6 N4 1.987141 1_565
Fe6 N4 1.987141 1_555
Fe6 N2 2.462261 1_555
Fe7 N9 1.955284 1_565
Fe7 N9 1.955284 1_555
Fe7 N5 1.987141 1_555
Fe7 N5 1.987141 1_565
Fe7 N3 2.462261 1_555
Fe8 N14 1.980011 1_555
Fe8 N14 1.980011 1_545
Fe8 N2 2.046719 1_545
Fe8 N2 2.046719 1_555
Fe8 N5 2.215751 1_555
Fe9 N15 1.980011 1_645
Fe9 N15 1.980011 1_655
Fe9 N3 2.046719 1_545
Fe9 N3 2.046719 1_555
Fe9 N4 2.215751 1_655
Fe10 N12 1.980011 1_555
Fe10 N12 1.980011 1_565
Fe10 N0 2.046719 1_555
Fe10 N0 2.046719 1_565
Fe10 N7 2.215751 1_555
Fe11 N13 1.980011 1_465
Fe11 N13 1.980011 1_455
Fe11 N1 2.046719 1_565
Fe11 N1 2.046719 1_555
Fe11 N6 2.215751 1_455
Fe12 N2 1.907068 1_545
Fe12 N2 1.907068 1_555
Fe12 N4 1.959287 1_555
Fe12 N15 2.197821 1_555
Fe12 N15 2.197821 1_545
Fe13 N3 1.907068 1_545
Fe13 N3 1.907068 1_555
Fe13 N5 1.959287 1_555
Fe13 N14 2.197821 1_545
Fe13 N14 2.197821 1_555
Fe14 N0 1.907068 1_565
Fe14 N0 1.907068 1_555
Fe14 N6 1.959287 1_555
Fe14 N13 2.197821 1_555
Fe14 N13 2.197821 1_565
Fe15 N1 1.907068 1_565
Fe15 N1 1.907068 1_555
Fe15 N7 1.959287 1_555
Fe15 N12 2.197821 1_555
Fe15 N12 2.197821 1_565
C0 N8 1.349703 1_555
C0 N12 1.371538 1_555
C0 Fe8 1.903444 1_554
C1 N9 1.349703 1_555
C1 N13 1.371538 1_555
C1 Fe9 1.903444 1_555
C2 N10 1.349703 1_555
C2 N14 1.371538 1_555
C2 Fe10 1.903444 1_556
C3 N11 1.349703 1_555
C3 N15 1.371538 1_555
C3 Fe11 1.903444 1_555
