# generated using pymatgen
data_Li9Mn2Co5O16
_symmetry_space_group_name_H-M   'P 1'
_cell_length_a   5.90466800
_cell_length_b   6.46337010
_cell_length_c   7.87747409
_cell_angle_alpha   87.50197932
_cell_angle_beta   104.15058887
_cell_angle_gamma   103.63834989
_symmetry_Int_Tables_number   1
_chemical_formula_structural   Li9Mn2Co5O16
_chemical_formula_sum   'Li9 Mn2 Co5 O16'
_cell_volume   283.26276390
_cell_formula_units_Z   1
loop_
 _symmetry_equiv_pos_site_id
 _symmetry_equiv_pos_as_xyz
  1  'x, y, z'
loop_
 _atom_site_type_symbol
 _atom_site_label
 _atom_site_symmetry_multiplicity
 _atom_site_fract_x
 _atom_site_fract_y
 _atom_site_fract_z
 _atom_site_occupancy
  Li  Li0  1  0.85661900  0.85566900  0.61642300  1
  Li  Li1  1  0.88238900  0.38628700  0.13301700  1
  Li  Li2  1  0.14452200  0.13667400  0.37869500  1
  Li  Li3  1  0.12455100  0.61888200  0.87464200  1
  Li  Li4  1  0.37202900  0.38495200  0.14178300  1
  Li  Li5  1  0.37905600  0.86391000  0.61087800  1
  Li  Li6  1  0.62336700  0.62393000  0.86646600  1
  Li  Li7  1  0.61124000  0.12948600  0.38007000  1
  Li  Li8  1  0.49756400  0.50172000  0.49738600  1
  Mn  Mn0  1  0.00476300  0.00021100  0.00172400  1
  Mn  Mn1  1  0.74705500  0.25287100  0.74420100  1
  Co  Co0  1  0.99579300  0.50028900  0.49832800  1
  Co  Co1  1  0.25207100  0.25303400  0.74257300  1
  Co  Co2  1  0.25432300  0.74927300  0.25421500  1
  Co  Co3  1  0.50455300  0.99737900  0.99970600  1
  Co  Co4  1  0.74472900  0.74791700  0.25667900  1
  O  O0  1  0.71102400  0.94928000  0.81677600  1
  O  O1  1  0.70649600  0.45328900  0.31601000  1
  O  O2  1  0.93575400  0.20495600  0.57961800  1
  O  O3  1  0.96086200  0.70793400  0.06979300  1
  O  O4  1  0.18714900  0.45815000  0.31432000  1
  O  O5  1  0.19067200  0.96209600  0.83463200  1
  O  O6  1  0.46137700  0.70651000  0.06368200  1
  O  O7  1  0.44861700  0.18338300  0.57658400  1
  O  O8  1  0.03680000  0.79698500  0.43560000  1
  O  O9  1  0.04547400  0.29499200  0.93464500  1
  O  O10  1  0.30243000  0.05284100  0.17984300  1
  O  O11  1  0.28550200  0.54113100  0.68424200  1
  O  O12  1  0.56183800  0.28846800  0.91603400  1
  O  O13  1  0.54720500  0.81238500  0.42129700  1
  O  O14  1  0.80605300  0.54174000  0.69459100  1
  O  O15  1  0.81812200  0.04337600  0.16554600  1
loop_
_geom_bond_atom_site_label_1
_geom_bond_atom_site_label_2
_geom_bond_distance
_geom_bond_site_symmetry_2
Li0 O13 2.049925 1_555
Li0 O14 2.068962 1_555
Li0 O8 2.069574 1_655
Li0 O0 2.141972 1_555
Li0 O2 2.216019 1_565
Li0 O5 2.263623 1_655
Li1 O4 1.975042 1_655
Li1 O1 2.083924 1_555
Li1 O3 2.086380 1_555
Li1 O15 2.173322 1_555
Li1 O9 2.191237 1_654
Li1 O12 2.202698 1_554
Li2 O7 2.040126 1_555
Li2 O4 2.088485 1_555
Li2 O10 2.154782 1_555
Li2 O8 2.195666 1_545
Li2 O15 2.203473 1_455
Li2 O2 2.343267 1_455
Li3 O14 2.027884 1_455
Li3 O9 2.093930 1_555
Li3 O11 2.096000 1_555
Li3 O6 2.141982 1_556
Li3 O3 2.166730 1_456
Li3 O5 2.182543 1_555
Li4 O4 2.070728 1_555
Li4 O1 2.072499 1_555
Li4 O10 2.110597 1_555
Li4 O6 2.122861 1_555
Li4 O9 2.175819 1_554
Li4 O12 2.491632 1_554
Li5 O7 2.027573 1_565
Li5 O13 2.061857 1_555
Li5 O8 2.110245 1_555
Li5 O11 2.121099 1_555
Li5 O0 2.188812 1_555
Li5 O5 2.477075 1_555
Li6 O14 2.079899 1_555
Li6 O0 2.087380 1_555
Li6 O11 2.119007 1_555
Li6 O12 2.147020 1_555
Li6 O6 2.157065 1_556
Li6 O3 2.199182 1_556
Li7 O13 2.021292 1_545
Li7 O10 2.072196 1_555
Li7 O7 2.090782 1_555
Li7 O1 2.107762 1_555
Li7 O2 2.129289 1_555
Li7 O15 2.463682 1_555
Li8 O4 2.004512 1_555
Li8 O13 2.044616 1_555
Li8 O14 2.056071 1_555
Li8 O7 2.098099 1_555
Li8 O1 2.178142 1_555
Li8 O11 2.209910 1_555
Mn0 O3 1.916279 1_445
Mn0 O9 1.930143 1_554
Mn0 O10 1.930689 1_555
Mn0 O0 1.943263 1_444
Mn0 O15 1.956914 1_455
Mn0 O5 1.964821 1_544
Mn1 O14 1.859101 1_555
Mn1 O7 1.895056 1_555
Mn1 O2 1.980481 1_555
Mn1 O9 1.986583 1_655
Mn1 O12 1.987682 1_555
Mn1 O0 1.996806 1_545
Co0 O1 1.914864 1_555
Co0 O11 1.933034 1_655
Co0 O8 1.933167 1_655
Co0 O2 1.965898 1_555
Co0 O4 2.105296 1_655
Co0 O14 2.177573 1_555
Co1 O11 1.874530 1_555
Co1 O2 1.954904 1_455
Co1 O12 1.967946 1_555
Co1 O5 1.970171 1_545
Co1 O7 2.073384 1_555
Co1 O9 2.223781 1_555
Co2 O13 1.868334 1_555
Co2 O4 1.893214 1_555
Co2 O3 1.941436 1_455
Co2 O10 1.997995 1_565
Co2 O8 2.215610 1_555
Co2 O6 2.217339 1_555
Co3 O6 1.899359 1_556
Co3 O12 1.946634 1_565
Co3 O15 1.953151 1_566
Co3 O5 1.956034 1_555
Co3 O10 2.154217 1_566
Co3 O0 2.176300 1_555
Co4 O8 1.911508 1_655
Co4 O1 1.914941 1_555
Co4 O6 1.939817 1_555
Co4 O15 1.998080 1_565
Co4 O13 2.057016 1_555
Co4 O3 2.229375 1_555
