# generated using pymatgen
data_UH6C2(SO4)2
_symmetry_space_group_name_H-M   'P 1'
_cell_length_a   10.34117600
_cell_length_b   13.36240600
_cell_length_c   15.86635087
_cell_angle_alpha   67.60759396
_cell_angle_beta   90.00000000
_cell_angle_gamma   90.00000000
_symmetry_Int_Tables_number   1
_chemical_formula_structural   UH6C2(SO4)2
_chemical_formula_sum   'U8 H48 C16 S16 O64'
_cell_volume   2027.14076507
_cell_formula_units_Z   8
loop_
 _symmetry_equiv_pos_site_id
 _symmetry_equiv_pos_as_xyz
  1  'x, y, z'
loop_
 _atom_site_type_symbol
 _atom_site_label
 _atom_site_symmetry_multiplicity
 _atom_site_fract_x
 _atom_site_fract_y
 _atom_site_fract_z
 _atom_site_occupancy
  U  U0  1  0.77774400  0.92423300  0.30008200  1
  U  U1  1  0.27774400  0.07576700  0.19991800  1
  U  U2  1  0.22225600  0.07576700  0.69991800  1
  U  U3  1  0.72225600  0.92423300  0.80008200  1
  U  U4  1  0.44500300  0.56767000  0.21993300  1
  U  U5  1  0.94500300  0.43233000  0.28006700  1
  U  U6  1  0.55499700  0.43233000  0.78006700  1
  U  U7  1  0.05499700  0.56767000  0.71993300  1
  H  H0  1  0.60850700  0.32254300  0.16197200  1
  H  H1  1  0.10850700  0.67745700  0.33802800  1
  H  H2  1  0.39149300  0.67745700  0.83802800  1
  H  H3  1  0.89149300  0.32254300  0.66197200  1
  H  H4  1  0.63067100  0.34519400  0.04328000  1
  H  H5  1  0.13067100  0.65480600  0.45672000  1
  H  H6  1  0.36932900  0.65480600  0.95672000  1
  H  H7  1  0.86932900  0.34519400  0.54328000  1
  H  H8  1  0.76420000  0.29918600  0.12127500  1
  H  H9  1  0.26420000  0.70081400  0.37872500  1
  H  H10  1  0.23580000  0.70081400  0.87872500  1
  H  H11  1  0.73580000  0.29918600  0.62127500  1
  H  H12  1  0.62485400  0.17566300  0.34669100  1
  H  H13  1  0.12485400  0.82433700  0.15330900  1
  H  H14  1  0.37514600  0.82433700  0.65330900  1
  H  H15  1  0.87514600  0.17566300  0.84669100  1
  H  H16  1  0.48116100  0.18667700  0.40698600  1
  H  H17  1  0.98116100  0.81332300  0.09301400  1
  H  H18  1  0.51883900  0.81332300  0.59301400  1
  H  H19  1  0.01883900  0.18667700  0.90698600  1
  H  H20  1  0.63273700  0.14832700  0.46702800  1
  H  H21  1  0.13273700  0.85167300  0.03297200  1
  H  H22  1  0.36726300  0.85167300  0.53297200  1
  H  H23  1  0.86726300  0.14832700  0.96702800  1
  H  H24  1  0.79855700  0.61290700  0.49396600  1
  H  H25  1  0.29855700  0.38709300  0.00603400  1
  H  H26  1  0.20144300  0.38709300  0.50603400  1
  H  H27  1  0.70144300  0.61290700  0.99396600  1
  H  H28  1  0.68101800  0.51210700  0.49472000  1
  H  H29  1  0.18101800  0.48789300  0.00528000  1
  H  H30  1  0.31898200  0.48789300  0.50528000  1
  H  H31  1  0.81898200  0.51210700  0.99472000  1
  H  H32  1  0.63149500  0.64995200  0.46526800  1
  H  H33  1  0.13149500  0.35004800  0.03473200  1
  H  H34  1  0.36850500  0.35004800  0.53473200  1
  H  H35  1  0.86850500  0.64995200  0.96526800  1
  H  H36  1  0.62161000  0.95857200  0.05357300  1
  H  H37  1  0.12161000  0.04142800  0.44642700  1
  H  H38  1  0.37839000  0.04142800  0.94642700  1
  H  H39  1  0.87839000  0.95857200  0.55357300  1
  H  H40  1  0.52670500  0.85368800  0.03630800  1
  H  H41  1  0.02670500  0.14631200  0.46369200  1
  H  H42  1  0.47329500  0.14631200  0.96369200  1
  H  H43  1  0.97329500  0.85368800  0.53630800  1
  H  H44  1  0.66656100  0.81850400  0.10955600  1
  H  H45  1  0.16656100  0.18149600  0.39044400  1
  H  H46  1  0.33343900  0.18149600  0.89044400  1
  H  H47  1  0.83343900  0.81850400  0.60955600  1
  C  C0  1  0.65921500  0.29618300  0.11347200  1
  C  C1  1  0.15921500  0.70381700  0.38652800  1
  C  C2  1  0.34078500  0.70381700  0.88652800  1
  C  C3  1  0.84078500  0.29618300  0.61347200  1
  C  C4  1  0.58640400  0.19668900  0.40206600  1
  C  C5  1  0.08640400  0.80331100  0.09793400  1
  C  C6  1  0.41359600  0.80331100  0.59793400  1
  C  C7  1  0.91359600  0.19668900  0.90206600  1
  C  C8  1  0.71080900  0.59690400  0.46233600  1
  C  C9  1  0.21080900  0.40309600  0.03766400  1
  C  C10  1  0.28919100  0.40309600  0.53766400  1
  C  C11  1  0.78919100  0.59690400  0.96233600  1
  C  C12  1  0.58588500  0.87521700  0.08410700  1
  C  C13  1  0.08588500  0.12478300  0.41589300  1
  C  C14  1  0.41411500  0.12478300  0.91589300  1
  C  C15  1  0.91411500  0.87521700  0.58410700  1
  S  S0  1  0.61729800  0.16067800  0.13382100  1
  S  S1  1  0.11729800  0.83932200  0.36617900  1
  S  S2  1  0.38270200  0.83932200  0.86617900  1
  S  S3  1  0.88270200  0.16067800  0.63382100  1
  S  S4  1  0.62050200  0.33386400  0.38062500  1
  S  S5  1  0.12050200  0.66613600  0.11937500  1
  S  S6  1  0.37949800  0.66613600  0.61937500  1
  S  S7  1  0.87949800  0.33386400  0.88062500  1
  S  S8  1  0.74452000  0.62491700  0.34682100  1
  S  S9  1  0.24452000  0.37508300  0.15317900  1
  S  S10  1  0.25548000  0.37508300  0.65317900  1
  S  S11  1  0.75548000  0.62491700  0.84682100  1
  S  S12  1  0.48991200  0.86288400  0.17923400  1
  S  S13  1  0.98991200  0.13711600  0.32076600  1
  S  S14  1  0.51008800  0.13711600  0.82076600  1
  S  S15  1  0.01008800  0.86288400  0.67923400  1
  O  O0  1  0.70082400  0.88197100  0.40961500  1
  O  O1  1  0.20082400  0.11802900  0.09038500  1
  O  O2  1  0.29917600  0.11802900  0.59038500  1
  O  O3  1  0.79917600  0.88197100  0.90961500  1
  O  O4  1  0.85677900  0.96199100  0.19206400  1
  O  O5  1  0.35677900  0.03800900  0.30793600  1
  O  O6  1  0.14322100  0.03800900  0.80793600  1
  O  O7  1  0.64322100  0.96199100  0.69206400  1
  O  O8  1  0.34249300  0.52515200  0.31821700  1
  O  O9  1  0.84249300  0.47484800  0.18178300  1
  O  O10  1  0.65750700  0.47484800  0.68178300  1
  O  O11  1  0.15750700  0.52515200  0.81821700  1
  O  O12  1  0.54517200  0.61423000  0.11954500  1
  O  O13  1  0.04517200  0.38577000  0.38045500  1
  O  O14  1  0.45482800  0.38577000  0.88045500  1
  O  O15  1  0.95482800  0.61423000  0.61954500  1
  O  O16  1  0.67428300  0.13013100  0.06376400  1
  O  O17  1  0.17428300  0.86986900  0.43623600  1
  O  O18  1  0.32571700  0.86986900  0.93623600  1
  O  O19  1  0.82571700  0.13013100  0.56376400  1
  O  O20  1  0.47253400  0.15904400  0.13048100  1
  O  O21  1  0.97253400  0.84095600  0.36951900  1
  O  O22  1  0.52746600  0.84095600  0.86951900  1
  O  O23  1  0.02746600  0.15904400  0.63048100  1
  O  O24  1  0.66288600  0.09480200  0.22841500  1
  O  O25  1  0.16288600  0.90519800  0.27158500  1
  O  O26  1  0.33711400  0.90519800  0.77158500  1
  O  O27  1  0.83711400  0.09480200  0.72841500  1
  O  O28  1  0.57393700  0.35861200  0.45653200  1
  O  O29  1  0.07393700  0.64138800  0.04346800  1
  O  O30  1  0.42606300  0.64138800  0.54346800  1
  O  O31  1  0.92606300  0.35861200  0.95653200  1
  O  O32  1  0.76429600  0.34573700  0.36950300  1
  O  O33  1  0.26429600  0.65426300  0.13049700  1
  O  O34  1  0.23570400  0.65426300  0.63049700  1
  O  O35  1  0.73570400  0.34573700  0.86950300  1
  O  O36  1  0.55686600  0.39845700  0.29131700  1
  O  O37  1  0.05686600  0.60154300  0.20868300  1
  O  O38  1  0.44313400  0.60154300  0.70868300  1
  O  O39  1  0.94313400  0.39845700  0.79131700  1
  O  O40  1  0.62778900  0.59979900  0.30553200  1
  O  O41  1  0.12778900  0.40020100  0.19446800  1
  O  O42  1  0.37221100  0.40020100  0.69446800  1
  O  O43  1  0.87221100  0.59979900  0.80553200  1
  O  O44  1  0.78005200  0.74029300  0.30331700  1
  O  O45  1  0.28005200  0.25970700  0.19668300  1
  O  O46  1  0.21994800  0.25970700  0.69668300  1
  O  O47  1  0.71994800  0.74029300  0.80331700  1
  O  O48  1  0.85579700  0.55654800  0.34392200  1
  O  O49  1  0.35579700  0.44345200  0.15607800  1
  O  O50  1  0.14420300  0.44345200  0.65607800  1
  O  O51  1  0.64420300  0.55654800  0.84392200  1
  O  O52  1  0.43586600  0.75238700  0.21623800  1
  O  O53  1  0.93586600  0.24761300  0.28376200  1
  O  O54  1  0.56413400  0.24761300  0.78376200  1
  O  O55  1  0.06413400  0.75238700  0.71623800  1
  O  O56  1  0.57377100  0.88302200  0.24639900  1
  O  O57  1  0.07377100  0.11697800  0.25360100  1
  O  O58  1  0.42622900  0.11697800  0.75360100  1
  O  O59  1  0.92622900  0.88302200  0.74639900  1
  O  O60  1  0.38516500  0.94415400  0.14843200  1
  O  O61  1  0.88516500  0.05584600  0.35156800  1
  O  O62  1  0.61483500  0.05584600  0.85156800  1
  O  O63  1  0.11483500  0.94415400  0.64843200  1
loop_
_geom_bond_atom_site_label_1
_geom_bond_atom_site_label_2
_geom_bond_distance
_geom_bond_site_symmetry_2
C0 H0 1.094400 1_555
C0 H8 1.095171 1_555
C0 H4 1.095738 1_555
C1 H1 1.094400 1_555
C1 H9 1.095171 1_555
C1 H5 1.095738 1_555
C2 H2 1.094400 1_555
C2 H10 1.095171 1_555
C2 H6 1.095738 1_555
C3 H3 1.094400 1_555
C3 H11 1.095171 1_555
C3 H7 1.095738 1_555
C4 H12 1.094097 1_555
C4 H16 1.095678 1_555
C4 H20 1.096390 1_555
C5 H13 1.094097 1_555
C5 H17 1.095678 1_455
C5 H21 1.096390 1_555
C6 H14 1.094097 1_555
C6 H18 1.095678 1_555
C6 H22 1.096390 1_555
C7 H15 1.094097 1_555
C7 H19 1.095678 1_655
C7 H23 1.096390 1_555
C8 H28 1.095097 1_555
C8 H32 1.096578 1_555
C8 H24 1.096701 1_555
C8 S8 1.760143 1_555
C9 H29 1.095097 1_555
C9 H33 1.096578 1_555
C9 H25 1.096701 1_555
C9 S9 1.760143 1_555
C10 H30 1.095097 1_555
C10 H34 1.096578 1_555
C10 H26 1.096701 1_555
C10 S10 1.760143 1_555
C11 H31 1.095097 1_555
C11 H35 1.096578 1_555
C11 H27 1.096701 1_555
C11 S11 1.760143 1_555
C12 H40 1.094844 1_555
C12 H44 1.095550 1_555
C12 H36 1.095750 1_555
C13 H41 1.094844 1_555
C13 H45 1.095550 1_555
C13 H37 1.095750 1_555
C14 H42 1.094844 1_555
C14 H46 1.095550 1_555
C14 H38 1.095750 1_555
C15 H43 1.094844 1_555
C15 H47 1.095550 1_555
C15 H39 1.095750 1_555
O0 U0 1.795594 1_555
O1 U1 1.795594 1_555
O2 U2 1.795594 1_555
O3 U3 1.795594 1_555
O4 U0 1.789144 1_555
O5 U1 1.789144 1_555
O6 U2 1.789144 1_555
O7 U3 1.789144 1_555
O8 U4 1.789772 1_555
O9 U5 1.789772 1_555
O10 U6 1.789772 1_555
O11 U7 1.789772 1_555
O12 U4 1.800574 1_555
O13 U5 1.800574 1_455
O14 U6 1.800574 1_555
O15 U7 1.800574 1_655
O16 S0 1.447446 1_555
O17 S1 1.447446 1_555
O18 S2 1.447446 1_555
O19 S3 1.447446 1_555
O20 S0 1.498421 1_555
O20 U1 2.361277 1_555
O21 S1 1.498421 1_655
O21 U0 2.361277 1_555
O22 S2 1.498421 1_555
O22 U3 2.361277 1_555
O23 S3 1.498421 1_455
O23 U2 2.361277 1_555
O24 S0 1.497704 1_555
O24 U0 2.433925 1_545
O25 S1 1.497704 1_555
O25 U1 2.433925 1_565
O26 S2 1.497704 1_555
O26 U2 2.433925 1_565
O27 S3 1.497704 1_555
O27 U3 2.433925 1_545
O28 S4 1.447474 1_555
O29 S5 1.447474 1_555
O30 S6 1.447474 1_555
O31 S7 1.447474 1_555
O32 S4 1.498715 1_555
O32 U5 2.365085 1_555
O33 S5 1.498715 1_555
O33 U4 2.365085 1_555
O34 S6 1.498715 1_555
O34 U7 2.365085 1_555
O35 S7 1.498715 1_555
O35 U6 2.365085 1_555
O36 S4 1.501358 1_555
O36 U4 2.404652 1_555
O37 S5 1.501358 1_555
O37 U5 2.404652 1_455
O38 S6 1.501358 1_555
O38 U6 2.404652 1_555
O39 S7 1.501358 1_555
O39 U7 2.404652 1_655
O40 S8 1.471909 1_555
O40 U4 2.458873 1_555
O41 S9 1.471909 1_555
O41 U5 2.458873 1_455
O42 S10 1.471909 1_555
O42 U6 2.458873 1_555
O43 S11 1.471909 1_555
O43 U7 2.458873 1_655
O44 S8 1.475643 1_555
O44 U0 2.438906 1_555
O45 S9 1.475643 1_555
O45 U1 2.438906 1_555
O46 S10 1.475643 1_555
O46 U2 2.438906 1_555
O47 S11 1.475643 1_555
O47 U3 2.438906 1_555
O48 S8 1.480858 1_555
O48 U5 2.431836 1_555
O49 S9 1.480858 1_555
O49 U4 2.431836 1_555
O50 S10 1.480858 1_555
O50 U7 2.431836 1_555
O51 S11 1.480858 1_555
O51 U6 2.431836 1_555
O52 S12 1.475354 1_555
O52 U4 2.448355 1_555
O53 S13 1.475354 1_555
O53 U5 2.448355 1_555
O54 S14 1.475354 1_555
O54 U6 2.448355 1_555
O55 S15 1.475354 1_555
O55 U7 2.448355 1_555
O56 S12 1.475998 1_555
O56 U0 2.415642 1_555
O57 S13 1.475998 1_455
O57 U1 2.415642 1_555
O58 S14 1.475998 1_555
O58 U2 2.415642 1_555
O59 S15 1.475998 1_655
O59 U3 2.415642 1_555
O60 S12 1.478897 1_555
O60 U1 2.467551 1_565
O61 S13 1.478897 1_555
O61 U0 2.467551 1_545
O62 S14 1.478897 1_555
O62 U3 2.467551 1_545
O63 S15 1.478897 1_555
O63 U2 2.467551 1_565
