# generated using pymatgen
data_Pr4MgNi
_symmetry_space_group_name_H-M   'P 1'
_cell_length_a   9.98954408
_cell_length_b   9.98959830
_cell_length_c   9.98966166
_cell_angle_alpha   60.00166638
_cell_angle_beta   60.00155140
_cell_angle_gamma   60.00133095
_symmetry_Int_Tables_number   1
_chemical_formula_structural   Pr4MgNi
_chemical_formula_sum   'Pr16 Mg4 Ni4'
_cell_volume   704.92741864
_cell_formula_units_Z   4
loop_
 _symmetry_equiv_pos_site_id
 _symmetry_equiv_pos_as_xyz
  1  'x, y, z'
loop_
 _atom_site_type_symbol
 _atom_site_label
 _atom_site_symmetry_multiplicity
 _atom_site_fract_x
 _atom_site_fract_y
 _atom_site_fract_z
 _atom_site_occupancy
  Pr  Pr0  1  0.81026765  0.18970945  0.18970436  1
  Pr  Pr1  1  0.18971529  0.81025100  0.81032573  1
  Pr  Pr2  1  0.18971544  0.81030552  0.18970459  1
  Pr  Pr3  1  0.81021302  0.18970897  0.81037008  1
  Pr  Pr4  1  0.18971414  0.18970905  0.81034148  1
  Pr  Pr5  1  0.81025282  0.81033426  0.18970462  1
  Pr  Pr6  1  0.93686635  0.56313961  0.56311943  1
  Pr  Pr7  1  0.56310978  0.93689026  0.93690763  1
  Pr  Pr8  1  0.56313923  0.93688516  0.56309569  1
  Pr  Pr9  1  0.93687083  0.56311011  0.93690243  1
  Pr  Pr10  1  0.56311697  0.56309269  0.93690692  1
  Pr  Pr11  1  0.93686626  0.93688231  0.56311338  1
  Pr  Pr12  1  0.34553597  0.34547400  0.34541662  1
  Pr  Pr13  1  0.34550082  0.34543691  0.96359906  1
  Pr  Pr14  1  0.34552626  0.96358208  0.34540299  1
  Pr  Pr15  1  0.96355999  0.34549110  0.34543111  1
  Mg  Mg0  1  0.57855663  0.57855894  0.57856175  1
  Mg  Mg1  1  0.57856634  0.57856736  0.26430706  1
  Mg  Mg2  1  0.57856285  0.26431271  0.57856753  1
  Mg  Mg3  1  0.26432061  0.57856116  0.57856500  1
  Ni  Ni0  1  0.14214549  0.14213000  0.14211647  1
  Ni  Ni1  1  0.14214321  0.14213041  0.57358700  1
  Ni  Ni2  1  0.14215052  0.57359012  0.14211875  1
  Ni  Ni3  1  0.57358254  0.14214583  0.14212631  1
loop_
_geom_bond_atom_site_label_1
_geom_bond_atom_site_label_2
_geom_bond_distance
_geom_bond_site_symmetry_2
Pr0 Pr10 3.740668 1_554
Pr0 Pr8 3.740733 1_545
Pr0 Pr9 3.740983 1_554
Pr0 Pr11 3.741043 1_545
Pr1 Pr10 3.740857 1_555
Pr1 Pr9 3.740859 1_455
Pr1 Pr8 3.741313 1_555
Pr1 Pr11 3.741316 1_455
Pr2 Pr7 3.740822 1_554
Pr2 Pr6 3.741122 1_455
Pr3 Pr7 3.740461 1_545
Pr3 Pr6 3.741481 1_555
Pr4 Pr7 3.740733 1_545
Pr4 Pr9 3.740767 1_455
Pr4 Pr8 3.741406 1_545
Pr4 Pr6 3.741433 1_455
Pr5 Pr7 3.740556 1_554
Pr5 Pr8 3.740653 1_555
Pr5 Pr9 3.741076 1_554
Pr5 Pr6 3.741165 1_555
Pr6 Pr8 3.733541 1_555
Pr6 Pr9 3.733841 1_555
Pr7 Pr9 3.733883 1_555
Pr7 Pr8 3.734133 1_555
Pr10 Pr12 3.617744 1_556
Pr10 Pr13 3.618224 1_555
Pr10 Pr9 3.733695 1_555
Pr10 Pr6 3.733886 1_555
Pr10 Pr7 3.734055 1_555
Pr10 Pr8 3.734236 1_555
Pr10 Pr3 3.740500 1_555
Pr10 Pr2 3.741032 1_556
Pr11 Pr15 3.618568 1_565
Pr11 Pr14 3.619008 1_655
Pr11 Pr8 3.733437 1_555
Pr11 Pr6 3.733509 1_555
Pr11 Pr7 3.733955 1_555
Pr11 Pr9 3.734024 1_555
Pr11 Pr2 3.740931 1_655
Pr11 Pr3 3.741433 1_565
Pr12 Pr8 3.618417 1_545
Pr12 Pr6 3.619119 1_455
Pr13 Pr7 3.618011 1_545
Pr13 Pr9 3.618730 1_455
Pr14 Pr7 3.617599 1_554
Pr14 Pr8 3.618498 1_555
Pr15 Pr9 3.617882 1_554
Pr15 Pr6 3.618793 1_555
Mg0 Mg3 3.139047 1_555
Mg0 Mg2 3.139134 1_555
Mg0 Mg1 3.139207 1_555
Mg0 Pr6 3.432140 1_555
Mg0 Pr8 3.432225 1_555
Mg0 Pr10 3.432336 1_555
Mg0 Pr15 3.625967 1_555
Mg0 Pr14 3.626019 1_555
Mg0 Pr13 3.626047 1_555
Mg0 Pr1 3.630574 1_555
Mg0 Pr3 3.630658 1_555
Mg0 Pr5 3.630735 1_555
Mg1 Mg3 3.139325 1_555
Mg1 Mg2 3.139396 1_555
Mg1 Pr9 3.432006 1_554
Mg1 Pr10 3.432027 1_554
Mg1 Pr7 3.432099 1_554
Mg1 Pr15 3.625536 1_555
Mg1 Pr12 3.625603 1_555
Mg1 Pr14 3.625609 1_555
Mg1 Pr5 3.630517 1_555
Mg1 Pr2 3.630563 1_555
Mg1 Pr0 3.630639 1_555
Mg2 Mg3 3.139239 1_555
Mg2 Pr11 3.432096 1_545
Mg2 Pr8 3.432125 1_545
Mg2 Pr7 3.432301 1_545
Mg2 Pr15 3.625810 1_555
Mg2 Pr12 3.625855 1_555
Mg2 Pr13 3.625899 1_555
Mg2 Pr3 3.630514 1_555
Mg2 Pr4 3.630558 1_555
Mg2 Pr0 3.630712 1_555
Mg3 Pr6 3.432220 1_455
Mg3 Pr11 3.432304 1_455
Mg3 Pr9 3.432396 1_455
Mg3 Pr12 3.626129 1_555
Mg3 Pr14 3.626149 1_555
Mg3 Pr13 3.626167 1_555
Mg3 Pr1 3.630497 1_555
Mg3 Pr4 3.630619 1_555
Mg3 Pr2 3.630701 1_555
Ni0 Pr13 2.883244 1_554
Ni0 Pr14 2.883257 1_545
Ni0 Pr15 2.883292 1_455
Ni0 Pr4 2.917570 1_554
Ni0 Pr2 2.917994 1_545
Ni0 Pr0 2.918464 1_455
Ni0 Pr7 3.612624 1_544
Ni0 Pr9 3.612843 1_454
Ni0 Pr11 3.613070 1_445
Ni1 Pr14 2.883756 1_545
Ni1 Pr15 2.883775 1_455
Ni1 Pr12 2.883775 1_555
Ni1 Pr1 2.918636 1_545
Ni1 Pr4 2.918765 1_555
Ni1 Pr3 2.919092 1_455
Ni1 Pr8 3.612929 1_545
Ni1 Pr11 3.612934 1_445
Ni1 Pr6 3.613127 1_455
Ni2 Pr13 2.883332 1_554
Ni2 Pr12 2.883376 1_555
Ni2 Pr15 2.883397 1_455
Ni2 Pr1 2.917836 1_554
Ni2 Pr2 2.918382 1_555
Ni2 Pr5 2.918743 1_455
Ni2 Pr10 3.612664 1_554
Ni2 Pr9 3.612728 1_454
Ni2 Pr6 3.613130 1_455
Ni3 Pr13 2.882843 1_554
Ni3 Pr12 2.882888 1_555
Ni3 Pr14 2.882897 1_545
Ni3 Pr3 2.917491 1_554
Ni3 Pr5 2.917955 1_545
Ni3 Pr0 2.918018 1_555
Ni3 Pr7 3.612504 1_544
Ni3 Pr10 3.612605 1_554
Ni3 Pr8 3.612883 1_545
