# generated using pymatgen
data_Ba2NaTl
_symmetry_space_group_name_H-M   'P 1'
_cell_length_a   14.38645977
_cell_length_b   14.49022516
_cell_length_c   14.49022476
_cell_angle_alpha   60.18894624
_cell_angle_beta   60.23660616
_cell_angle_gamma   60.23660439
_symmetry_Int_Tables_number   1
_chemical_formula_structural   Ba2NaTl
_chemical_formula_sum   'Ba2 Na1 Tl1'
_cell_volume   2146.61353764
_cell_formula_units_Z   1
loop_
 _symmetry_equiv_pos_site_id
 _symmetry_equiv_pos_as_xyz
  1  'x, y, z'
loop_
 _atom_site_type_symbol
 _atom_site_label
 _atom_site_symmetry_multiplicity
 _atom_site_fract_x
 _atom_site_fract_y
 _atom_site_fract_z
 _atom_site_occupancy
  Ba  Ba0  1  0.73131567  0.00000000  1.00000000  1
  Ba  Ba1  1  0.26868433  1.00000000  0.00000000  1
  Na  Na0  1  0.00000000  0.00000000  0.00000000  1
  Tl  Tl0  1  0.50000000  0.00000000  0.00000000  1
loop_
_geom_bond_atom_site_label_1
_geom_bond_atom_site_label_2
_geom_bond_distance
_geom_bond_site_symmetry_2
Ba0 Tl0 3.327814 1_556
Ba0 Na0 3.865416 1_656
Ba1 Tl0 3.327814 1_565
Ba1 Na0 3.865416 1_565
