# generated using pymatgen
data_Y2Fe17N3
_symmetry_space_group_name_H-M   'P 1'
_cell_length_a   8.64851105
_cell_length_b   8.64851105
_cell_length_c   8.38377400
_cell_angle_alpha   90.00000000
_cell_angle_beta   90.00000000
_cell_angle_gamma   119.99999273
_symmetry_Int_Tables_number   1
_chemical_formula_structural   Y2Fe17N3
_chemical_formula_sum   'Y4 Fe34 N6'
_cell_volume   543.06637741
_cell_formula_units_Z   2
loop_
 _symmetry_equiv_pos_site_id
 _symmetry_equiv_pos_as_xyz
  1  'x, y, z'
loop_
 _atom_site_type_symbol
 _atom_site_label
 _atom_site_symmetry_multiplicity
 _atom_site_fract_x
 _atom_site_fract_y
 _atom_site_fract_z
 _atom_site_occupancy
  Y  Y0  1  0.33333300  0.66666700  0.25000000  1
  Y  Y1  1  0.66666700  0.33333300  0.75000000  1
  Y  Y2  1  0.00000000  0.00000000  0.25000000  1
  Y  Y3  1  0.00000000  0.00000000  0.75000000  1
  Fe  Fe0  1  0.38146000  0.05288000  0.25000000  1
  Fe  Fe1  1  0.61854000  0.94712000  0.75000000  1
  Fe  Fe2  1  0.94712000  0.32858000  0.25000000  1
  Fe  Fe3  1  0.05288000  0.38146000  0.75000000  1
  Fe  Fe4  1  0.05288000  0.67142000  0.75000000  1
  Fe  Fe5  1  0.94712000  0.61854000  0.25000000  1
  Fe  Fe6  1  0.67142000  0.61854000  0.25000000  1
  Fe  Fe7  1  0.32858000  0.94712000  0.75000000  1
  Fe  Fe8  1  0.32858000  0.38146000  0.75000000  1
  Fe  Fe9  1  0.67142000  0.05288000  0.25000000  1
  Fe  Fe10  1  0.61854000  0.67142000  0.75000000  1
  Fe  Fe11  1  0.38146000  0.32858000  0.25000000  1
  Fe  Fe12  1  0.33333300  0.66666700  0.60796300  1
  Fe  Fe13  1  0.66666700  0.33333300  0.39203700  1
  Fe  Fe14  1  0.66666700  0.33333300  0.10796300  1
  Fe  Fe15  1  0.33333300  0.66666700  0.89203700  1
  Fe  Fe16  1  0.16925600  0.33851100  0.02071000  1
  Fe  Fe17  1  0.83074400  0.66148900  0.97929000  1
  Fe  Fe18  1  0.66148900  0.83074400  0.02071000  1
  Fe  Fe19  1  0.83074400  0.66148900  0.52071000  1
  Fe  Fe20  1  0.33851100  0.16925600  0.97929000  1
  Fe  Fe21  1  0.16925600  0.33851100  0.47929000  1
  Fe  Fe22  1  0.16925600  0.83074400  0.02071000  1
  Fe  Fe23  1  0.33851100  0.16925600  0.52071000  1
  Fe  Fe24  1  0.83074400  0.16925600  0.97929000  1
  Fe  Fe25  1  0.66148900  0.83074400  0.47929000  1
  Fe  Fe26  1  0.83074400  0.16925600  0.52071000  1
  Fe  Fe27  1  0.16925600  0.83074400  0.47929000  1
  Fe  Fe28  1  0.50000000  0.00000000  0.00000000  1
  Fe  Fe29  1  0.00000000  0.50000000  0.00000000  1
  Fe  Fe30  1  0.50000000  0.00000000  0.50000000  1
  Fe  Fe31  1  0.50000000  0.50000000  0.00000000  1
  Fe  Fe32  1  0.00000000  0.50000000  0.50000000  1
  Fe  Fe33  1  0.50000000  0.50000000  0.50000000  1
  N  N0  1  0.16404400  0.32808800  0.25000000  1
  N  N1  1  0.83595600  0.67191200  0.75000000  1
  N  N2  1  0.67191200  0.83595600  0.25000000  1
  N  N3  1  0.32808800  0.16404400  0.75000000  1
  N  N4  1  0.16404400  0.83595600  0.25000000  1
  N  N5  1  0.83595600  0.16404400  0.75000000  1
loop_
_geom_bond_atom_site_label_1
_geom_bond_atom_site_label_2
_geom_bond_distance
_geom_bond_site_symmetry_2
Fe0 N4 1.878201 1_545
Fe0 Fe30 2.474270 1_555
Fe0 Fe28 2.474270 1_555
Fe0 Fe13 2.720752 1_555
Fe0 Fe14 2.720752 1_555
Fe1 N5 1.878201 1_565
Fe1 Fe30 2.474270 1_565
Fe1 Fe28 2.474270 1_566
Fe1 Fe15 2.720752 1_555
Fe1 Fe12 2.720752 1_555
Fe2 N0 1.878201 1_655
Fe2 Fe32 2.474270 1_655
Fe2 Fe29 2.474270 1_655
Fe3 N5 1.878201 1_455
Fe3 Fe32 2.474270 1_555
Fe4 N1 1.878201 1_455
Fe5 N4 1.878201 1_655
Fe6 N2 1.878201 1_555
Fe7 N3 1.878201 1_565
Fe8 N3 1.878201 1_555
Fe9 N2 1.878201 1_545
Fe10 N1 1.878201 1_555
Fe10 Fe33 2.474270 1_555
Fe10 Fe31 2.474270 1_556
Fe10 Fe15 2.720755 1_555
Fe10 Fe12 2.720755 1_555
Fe11 N0 1.878201 1_555
Fe11 Fe33 2.474270 1_555
Fe11 Fe31 2.474270 1_555
Fe11 Fe13 2.720755 1_555
Fe11 Fe14 2.720755 1_555
Fe12 Fe15 2.381612 1_555
Fe12 Fe30 2.655621 1_565
Fe12 Fe32 2.655621 1_555
Fe12 Fe33 2.655628 1_555
Fe12 Fe27 2.684139 1_555
Fe12 Fe21 2.684153 1_555
Fe12 Fe25 2.684153 1_555
Fe12 Fe4 2.720747 1_555
Fe12 Fe7 2.720747 1_555
Fe12 Fe3 2.720752 1_555
Fe12 Fe8 2.720755 1_555
Fe12 Y0 3.001081 1_555
Fe13 Fe14 2.381612 1_555
Fe13 Fe32 2.655621 1_655
Fe13 Fe30 2.655621 1_555
Fe13 Fe33 2.655628 1_555
Fe13 Fe26 2.684139 1_555
Fe13 Fe19 2.684153 1_555
Fe13 Fe23 2.684153 1_555
Fe13 Fe2 2.720747 1_555
Fe13 Fe9 2.720747 1_555
Fe13 Fe5 2.720752 1_555
Fe13 Fe6 2.720755 1_555
Fe13 Y1 3.001081 1_555
Fe14 Fe29 2.655621 1_655
Fe14 Fe28 2.655621 1_555
Fe14 Fe31 2.655628 1_555
Fe14 Fe24 2.684139 1_554
Fe14 Fe20 2.684153 1_554
Fe14 Fe17 2.684153 1_554
Fe14 Fe9 2.720747 1_555
Fe14 Fe2 2.720747 1_555
Fe14 Fe5 2.720752 1_555
Fe14 Fe6 2.720755 1_555
Fe14 Y1 3.001081 1_554
Fe15 Fe29 2.655621 1_556
Fe15 Fe28 2.655621 1_566
Fe15 Fe31 2.655628 1_556
Fe15 Fe22 2.684139 1_556
Fe15 Fe16 2.684153 1_556
Fe15 Fe18 2.684153 1_556
Fe15 Fe4 2.720747 1_555
Fe15 Fe7 2.720747 1_555
Fe15 Fe3 2.720752 1_555
Fe15 Fe8 2.720755 1_555
Fe15 Y0 3.001081 1_556
Fe16 N0 1.923900 1_555
Fe16 Fe31 2.483521 1_555
Fe16 Fe29 2.483528 1_555
Fe17 N1 1.923900 1_555
Fe17 Fe31 2.483521 1_556
Fe17 Fe29 2.483528 1_656
Fe18 N2 1.923900 1_555
Fe18 Fe31 2.483521 1_555
Fe18 Fe28 2.483528 1_565
Fe19 N1 1.923900 1_555
Fe19 Fe33 2.483521 1_555
Fe19 Fe32 2.483528 1_655
Fe20 N3 1.923900 1_555
Fe20 Fe31 2.483521 1_556
Fe20 Fe28 2.483528 1_556
Fe21 N0 1.923900 1_555
Fe21 Fe33 2.483521 1_555
Fe21 Fe32 2.483528 1_555
Fe22 N4 1.923900 1_555
Fe22 Fe29 2.483521 1_555
Fe22 Fe28 2.483521 1_565
Fe23 N3 1.923900 1_555
Fe23 Fe33 2.483521 1_555
Fe23 Fe30 2.483528 1_555
Fe24 N5 1.923900 1_555
Fe24 Fe28 2.483521 1_556
Fe24 Fe29 2.483521 1_656
Fe25 N2 1.923900 1_555
Fe25 Fe33 2.483521 1_555
Fe25 Fe30 2.483528 1_565
Fe26 N5 1.923900 1_555
Fe26 Fe30 2.483521 1_555
Fe26 Fe32 2.483521 1_655
Fe27 N4 1.923900 1_555
Fe27 Fe32 2.483521 1_555
Fe27 Fe30 2.483521 1_565
Fe28 Fe9 2.474270 1_555
Fe28 Fe7 2.474270 1_544
Fe28 Y0 3.259759 1_545
Fe28 Y1 3.259759 1_554
Fe29 Fe5 2.474270 1_455
Fe29 Fe3 2.474270 1_554
Fe29 Fe4 2.474270 1_554
Fe29 Y0 3.259759 1_555
Fe29 Y1 3.259759 1_454
Fe30 Fe7 2.474270 1_545
Fe30 Fe9 2.474270 1_555
Fe30 Y0 3.259759 1_545
Fe30 Y1 3.259759 1_555
Fe31 Fe8 2.474270 1_554
Fe31 Fe6 2.474270 1_555
Fe31 Y0 3.259765 1_555
Fe31 Y1 3.259765 1_554
Fe32 Fe5 2.474270 1_455
Fe32 Fe4 2.474270 1_555
Fe32 Y0 3.259759 1_555
Fe32 Y1 3.259759 1_455
Fe33 Fe8 2.474270 1_555
Fe33 Fe6 2.474270 1_555
Fe33 Y0 3.259765 1_555
Fe33 Y1 3.259765 1_555
N0 Y2 2.457324 1_555
N0 Y0 2.535899 1_555
N1 Y3 2.457324 1_665
N1 Y1 2.535899 1_555
N2 Y2 2.457324 1_665
N2 Y0 2.535899 1_555
N3 Y3 2.457324 1_555
N3 Y1 2.535899 1_555
N4 Y2 2.457323 1_565
N4 Y0 2.535892 1_555
N5 Y3 2.457323 1_655
N5 Y1 2.535892 1_555
