# generated using pymatgen
data_Dy2Si3Pd
_symmetry_space_group_name_H-M   'P 1'
_cell_length_a   8.21604912
_cell_length_b   8.21604912
_cell_length_c   7.88133900
_cell_angle_alpha   90.00000000
_cell_angle_beta   90.00000000
_cell_angle_gamma   119.99999290
_symmetry_Int_Tables_number   1
_chemical_formula_structural   Dy2Si3Pd
_chemical_formula_sum   'Dy8 Si12 Pd4'
_cell_volume   460.74085601
_cell_formula_units_Z   4
loop_
 _symmetry_equiv_pos_site_id
 _symmetry_equiv_pos_as_xyz
  1  'x, y, z'
loop_
 _atom_site_type_symbol
 _atom_site_label
 _atom_site_symmetry_multiplicity
 _atom_site_fract_x
 _atom_site_fract_y
 _atom_site_fract_z
 _atom_site_occupancy
  Dy  Dy0  1  0.51178000  0.02356000  0.25000000  1
  Dy  Dy1  1  0.48822000  0.97644000  0.75000000  1
  Dy  Dy2  1  0.97644000  0.48822000  0.25000000  1
  Dy  Dy3  1  0.02356000  0.51178000  0.75000000  1
  Dy  Dy4  1  0.51178000  0.48822000  0.25000000  1
  Dy  Dy5  1  0.48822000  0.51178000  0.75000000  1
  Dy  Dy6  1  0.00000000  0.00000000  0.25000000  1
  Dy  Dy7  1  0.00000000  0.00000000  0.75000000  1
  Si  Si0  1  0.16566300  0.33132600  0.00162400  1
  Si  Si1  1  0.83433700  0.66867400  0.99837600  1
  Si  Si2  1  0.66867400  0.83433700  0.00162400  1
  Si  Si3  1  0.83433700  0.66867400  0.50162400  1
  Si  Si4  1  0.33132600  0.16566300  0.99837600  1
  Si  Si5  1  0.16566300  0.33132600  0.49837600  1
  Si  Si6  1  0.16566300  0.83433700  0.00162400  1
  Si  Si7  1  0.33132600  0.16566300  0.50162400  1
  Si  Si8  1  0.83433700  0.16566300  0.99837600  1
  Si  Si9  1  0.66867400  0.83433700  0.49837600  1
  Si  Si10  1  0.83433700  0.16566300  0.50162400  1
  Si  Si11  1  0.16566300  0.83433700  0.49837600  1
  Pd  Pd0  1  0.33333300  0.66666700  0.04447200  1
  Pd  Pd1  1  0.66666700  0.33333300  0.95552800  1
  Pd  Pd2  1  0.66666700  0.33333300  0.54447200  1
  Pd  Pd3  1  0.33333300  0.66666700  0.45552800  1
loop_
_geom_bond_atom_site_label_1
_geom_bond_atom_site_label_2
_geom_bond_distance
_geom_bond_site_symmetry_2
Dy0 Pd3 3.012049 1_545
Dy0 Pd0 3.012049 1_545
Dy0 Si7 3.037283 1_555
Dy0 Si4 3.037283 1_554
Dy0 Si10 3.037283 1_555
Dy0 Si8 3.037283 1_554
Dy0 Si9 3.148748 1_545
Dy0 Si2 3.148748 1_545
Dy0 Si11 3.148749 1_545
Dy0 Si6 3.148749 1_545
Dy0 Pd2 3.200697 1_555
Dy0 Pd1 3.200697 1_554
Dy1 Pd1 3.012049 1_565
Dy1 Pd2 3.012049 1_565
Dy1 Si9 3.037283 1_555
Dy1 Si2 3.037283 1_556
Dy1 Si6 3.037283 1_556
Dy1 Si11 3.037283 1_555
Dy1 Si4 3.148748 1_565
Dy1 Si7 3.148748 1_565
Dy1 Si8 3.148749 1_565
Dy1 Si10 3.148749 1_565
Dy1 Pd3 3.200697 1_555
Dy1 Pd0 3.200697 1_556
Dy2 Pd3 3.012049 1_655
Dy2 Pd0 3.012049 1_655
Dy2 Si3 3.037283 1_555
Dy2 Si1 3.037283 1_554
Dy2 Si10 3.037283 1_555
Dy2 Si8 3.037283 1_554
Dy2 Si5 3.148748 1_655
Dy2 Si0 3.148748 1_655
Dy2 Si11 3.148749 1_655
Dy2 Si6 3.148749 1_655
Dy2 Pd2 3.200697 1_555
Dy2 Pd1 3.200697 1_554
Dy3 Pd1 3.012049 1_455
Dy3 Pd2 3.012049 1_455
Dy3 Si5 3.037283 1_555
Dy3 Si0 3.037283 1_556
Dy3 Si11 3.037283 1_555
Dy3 Si6 3.037283 1_556
Dy3 Si1 3.148748 1_455
Dy3 Si3 3.148748 1_455
Dy3 Si8 3.148749 1_455
Dy3 Si10 3.148749 1_455
Dy3 Pd3 3.200697 1_555
Dy3 Pd0 3.200697 1_556
Dy4 Pd3 3.012055 1_555
Dy4 Pd0 3.012055 1_555
Dy4 Si3 3.037283 1_555
Dy4 Si7 3.037283 1_555
Dy4 Si1 3.037283 1_554
Dy4 Si4 3.037283 1_554
Dy4 Si5 3.148748 1_555
Dy4 Si9 3.148748 1_555
Dy4 Si2 3.148748 1_555
Dy4 Si0 3.148748 1_555
Dy4 Pd2 3.200701 1_555
Dy4 Pd1 3.200701 1_554
Dy5 Pd1 3.012055 1_555
Dy5 Pd2 3.012055 1_555
Dy5 Si9 3.037283 1_555
Dy5 Si5 3.037283 1_555
Dy5 Si2 3.037283 1_556
Dy5 Si0 3.037283 1_556
Dy5 Si4 3.148748 1_555
Dy5 Si1 3.148748 1_555
Dy5 Si3 3.148748 1_555
Dy5 Si7 3.148748 1_555
Dy5 Pd3 3.200701 1_555
Dy5 Pd0 3.200701 1_556
Dy6 Si6 3.064259 1_545
Dy6 Si11 3.064259 1_545
Dy6 Si9 3.064260 1_445
Dy6 Si0 3.064260 1_555
Dy6 Si5 3.064260 1_555
Dy6 Si2 3.064260 1_445
Dy6 Si10 3.080676 1_455
Dy6 Si8 3.080676 1_454
Dy6 Si3 3.080676 1_445
Dy6 Si7 3.080676 1_555
Dy6 Si4 3.080676 1_554
Dy6 Si1 3.080676 1_444
Dy7 Si8 3.064259 1_455
Dy7 Si10 3.064259 1_455
Dy7 Si4 3.064260 1_555
Dy7 Si1 3.064260 1_445
Dy7 Si3 3.064260 1_445
Dy7 Si7 3.064260 1_555
Dy7 Si6 3.080676 1_546
Dy7 Si11 3.080676 1_545
Dy7 Si5 3.080676 1_555
Dy7 Si9 3.080676 1_445
Dy7 Si0 3.080676 1_556
Dy7 Si2 3.080676 1_446
Si0 Si4 2.357625 1_554
Si0 Si8 2.357625 1_454
Si1 Si2 2.357625 1_556
Si1 Si6 2.357625 1_656
Si2 Si8 2.357625 1_564
Si3 Si9 2.357625 1_555
Si4 Si6 2.357625 1_546
Si5 Si7 2.357625 1_555
Si10 Si5 2.357625 1_655
Si10 Si9 2.357625 1_545
Si11 Si7 2.357625 1_565
Si11 Si3 2.357625 1_455
Pd0 Si6 2.409826 1_555
Pd0 Si2 2.409833 1_555
Pd0 Si0 2.409833 1_555
Pd1 Si8 2.409826 1_555
Pd1 Si4 2.409833 1_555
Pd1 Si1 2.409833 1_555
Pd2 Si10 2.409826 1_555
Pd2 Si7 2.409833 1_555
Pd2 Si3 2.409833 1_555
Pd3 Si11 2.409826 1_555
Pd3 Si9 2.409833 1_555
Pd3 Si5 2.409833 1_555
