# generated using pymatgen
data_Ca3Al2(GeO4)3
_symmetry_space_group_name_H-M   'P 1'
_cell_length_a   10.60807719
_cell_length_b   10.60807719
_cell_length_c   10.60807719
_cell_angle_alpha   109.47122063
_cell_angle_beta   109.47122063
_cell_angle_gamma   109.47122063
_symmetry_Int_Tables_number   1
_chemical_formula_structural   Ca3Al2(GeO4)3
_chemical_formula_sum   'Ca12 Al8 Ge12 O48'
_cell_volume   918.94204524
_cell_formula_units_Z   4
loop_
 _symmetry_equiv_pos_site_id
 _symmetry_equiv_pos_as_xyz
  1  'x, y, z'
loop_
 _atom_site_type_symbol
 _atom_site_label
 _atom_site_symmetry_multiplicity
 _atom_site_fract_x
 _atom_site_fract_y
 _atom_site_fract_z
 _atom_site_occupancy
  Ca  Ca0  1  0.87500000  0.62500000  0.75000000  1
  Ca  Ca1  1  0.12500000  0.37500000  0.25000000  1
  Ca  Ca2  1  0.62500000  0.87500000  0.25000000  1
  Ca  Ca3  1  0.62500000  0.75000000  0.87500000  1
  Ca  Ca4  1  0.87500000  0.25000000  0.62500000  1
  Ca  Ca5  1  0.37500000  0.12500000  0.75000000  1
  Ca  Ca6  1  0.37500000  0.25000000  0.12500000  1
  Ca  Ca7  1  0.12500000  0.75000000  0.37500000  1
  Ca  Ca8  1  0.75000000  0.87500000  0.62500000  1
  Ca  Ca9  1  0.25000000  0.12500000  0.37500000  1
  Ca  Ca10  1  0.25000000  0.62500000  0.87500000  1
  Ca  Ca11  1  0.75000000  0.37500000  0.12500000  1
  Al  Al0  1  -0.00000000  -0.00000000  -0.00000000  1
  Al  Al1  1  0.50000000  -0.00000000  0.50000000  1
  Al  Al2  1  0.50000000  0.50000000  -0.00000000  1
  Al  Al3  1  -0.00000000  -0.00000000  0.50000000  1
  Al  Al4  1  -0.00000000  0.50000000  0.50000000  1
  Al  Al5  1  0.50000000  0.50000000  0.50000000  1
  Al  Al6  1  0.50000000  -0.00000000  -0.00000000  1
  Al  Al7  1  -0.00000000  0.50000000  -0.00000000  1
  Ge  Ge0  1  0.62500000  0.37500000  0.75000000  1
  Ge  Ge1  1  0.37500000  0.62500000  0.25000000  1
  Ge  Ge2  1  0.87500000  0.12500000  0.25000000  1
  Ge  Ge3  1  0.37500000  0.75000000  0.62500000  1
  Ge  Ge4  1  0.62500000  0.25000000  0.37500000  1
  Ge  Ge5  1  0.12500000  0.87500000  0.75000000  1
  Ge  Ge6  1  0.12500000  0.25000000  0.87500000  1
  Ge  Ge7  1  0.87500000  0.75000000  0.12500000  1
  Ge  Ge8  1  0.75000000  0.62500000  0.37500000  1
  Ge  Ge9  1  0.25000000  0.37500000  0.62500000  1
  Ge  Ge10  1  0.25000000  0.87500000  0.12500000  1
  Ge  Ge11  1  0.75000000  0.12500000  0.87500000  1
  O  O0  1  0.69485869  0.61542486  0.51479609  1
  O  O1  1  0.30514131  0.38457514  0.48520391  1
  O  O2  1  0.80514131  0.81993740  0.42056617  1
  O  O3  1  0.39937124  0.88457514  0.07943383  1
  O  O4  1  0.61542486  0.51479609  0.69485869  1
  O  O5  1  0.69485869  0.07943383  0.68006260  1
  O  O6  1  0.19485869  0.18006260  0.57943383  1
  O  O7  1  0.60062876  0.11542486  0.92056617  1
  O  O8  1  0.38457514  0.48520391  0.30514131  1
  O  O9  1  0.30514131  0.92056617  0.31993740  1
  O  O10  1  0.10062876  0.68006260  0.98520391  1
  O  O11  1  0.81993740  0.42056617  0.80514131  1
  O  O12  1  0.80514131  0.98520391  0.88457514  1
  O  O13  1  0.89937124  0.31993740  0.01479609  1
  O  O14  1  0.18006260  0.57943383  0.19485869  1
  O  O15  1  0.19485869  0.01479609  0.11542486  1
  O  O16  1  0.88457514  0.07943383  0.39937124  1
  O  O17  1  0.39937124  0.51479609  0.81993740  1
  O  O18  1  0.11542486  0.92056617  0.60062876  1
  O  O19  1  0.60062876  0.48520391  0.18006260  1
  O  O20  1  0.68006260  0.98520391  0.10062876  1
  O  O21  1  0.10062876  0.42056617  0.61542486  1
  O  O22  1  0.31993740  0.01479609  0.89937124  1
  O  O23  1  0.89937124  0.57943383  0.38457514  1
  O  O24  1  0.51479609  0.69485869  0.61542486  1
  O  O25  1  0.61542486  0.10062876  0.42056617  1
  O  O26  1  0.48520391  0.30514131  0.38457514  1
  O  O27  1  0.38457514  0.89937124  0.57943383  1
  O  O28  1  0.07943383  0.39937124  0.88457514  1
  O  O29  1  0.88457514  0.80514131  0.98520391  1
  O  O30  1  0.92056617  0.60062876  0.11542486  1
  O  O31  1  0.11542486  0.19485869  0.01479609  1
  O  O32  1  0.98520391  0.10062876  0.68006260  1
  O  O33  1  0.68006260  0.69485869  0.07943383  1
  O  O34  1  0.01479609  0.89937124  0.31993740  1
  O  O35  1  0.31993740  0.30514131  0.92056617  1
  O  O36  1  0.42056617  0.80514131  0.81993740  1
  O  O37  1  0.81993740  0.39937124  0.51479609  1
  O  O38  1  0.57943383  0.19485869  0.18006260  1
  O  O39  1  0.18006260  0.60062876  0.48520391  1
  O  O40  1  0.07943383  0.68006260  0.69485869  1
  O  O41  1  0.92056617  0.31993740  0.30514131  1
  O  O42  1  0.98520391  0.88457514  0.80514131  1
  O  O43  1  0.01479609  0.11542486  0.19485869  1
  O  O44  1  0.42056617  0.61542486  0.10062876  1
  O  O45  1  0.57943383  0.38457514  0.89937124  1
  O  O46  1  0.51479609  0.81993740  0.39937124  1
  O  O47  1  0.48520391  0.18006260  0.60062876  1
loop_
_geom_bond_atom_site_label_1
_geom_bond_atom_site_label_2
_geom_bond_distance
_geom_bond_site_symmetry_2
Ca0 O40 2.369677 1_655
Ca0 O4 2.369677 1_555
Ca0 O11 2.369677 1_555
Ca0 O42 2.369677 1_555
Ca0 O37 2.531877 1_555
Ca0 O10 2.531877 1_655
Ca0 O0 2.531877 1_555
Ca0 O29 2.531877 1_555
Ca1 O41 2.369677 1_455
Ca1 O8 2.369677 1_555
Ca1 O43 2.369677 1_555
Ca1 O14 2.369677 1_555
Ca1 O13 2.531877 1_455
Ca1 O39 2.531877 1_555
Ca1 O31 2.531877 1_555
Ca1 O1 2.531877 1_555
Ca2 O16 2.369677 1_565
Ca2 O44 2.369677 1_555
Ca2 O20 2.369677 1_555
Ca2 O46 2.369677 1_555
Ca2 O25 2.531877 1_565
Ca2 O3 2.531877 1_555
Ca2 O33 2.531877 1_555
Ca2 O2 2.531877 1_555
Ca3 O33 2.369677 1_556
Ca3 O36 2.369677 1_555
Ca3 O29 2.369677 1_555
Ca3 O24 2.369677 1_555
Ca3 O17 2.531877 1_555
Ca3 O20 2.531877 1_556
Ca3 O4 2.531877 1_555
Ca3 O12 2.531877 1_555
Ca4 O28 2.369677 1_655
Ca4 O25 2.369677 1_555
Ca4 O32 2.369677 1_555
Ca4 O37 2.369677 1_555
Ca4 O16 2.531877 1_555
Ca4 O21 2.531877 1_655
Ca4 O5 2.531877 1_555
Ca4 O11 2.531877 1_555
Ca5 O18 2.369677 1_545
Ca5 O45 2.369677 1_555
Ca5 O47 2.369677 1_555
Ca5 O22 2.369677 1_555
Ca5 O27 2.531877 1_545
Ca5 O7 2.531877 1_555
Ca5 O6 2.531877 1_555
Ca5 O35 2.531877 1_555
Ca6 O35 2.369677 1_554
Ca6 O31 2.369677 1_555
Ca6 O26 2.369677 1_555
Ca6 O38 2.369677 1_555
Ca6 O19 2.531877 1_555
Ca6 O22 2.531877 1_554
Ca6 O15 2.531877 1_555
Ca6 O8 2.531877 1_555
Ca7 O30 2.369677 1_455
Ca7 O27 2.369677 1_555
Ca7 O39 2.369677 1_555
Ca7 O34 2.369677 1_555
Ca7 O23 2.531877 1_455
Ca7 O18 2.531877 1_555
Ca7 O14 2.531877 1_555
Ca7 O9 2.531877 1_555
Ca8 O5 2.369677 1_565
Ca8 O2 2.369677 1_555
Ca8 O0 2.369677 1_555
Ca8 O12 2.369677 1_555
Ca8 O46 2.531877 1_555
Ca8 O32 2.531877 1_565
Ca8 O24 2.531877 1_555
Ca8 O42 2.531877 1_555
Ca9 O9 2.369677 1_545
Ca9 O15 2.369677 1_555
Ca9 O6 2.369677 1_555
Ca9 O1 2.369677 1_555
Ca9 O34 2.531877 1_545
Ca9 O47 2.531877 1_555
Ca9 O43 2.531877 1_555
Ca9 O26 2.531877 1_555
Ca10 O3 2.369677 1_556
Ca10 O21 2.369677 1_555
Ca10 O10 2.369677 1_555
Ca10 O17 2.369677 1_555
Ca10 O44 2.531877 1_556
Ca10 O28 2.531877 1_555
Ca10 O40 2.531877 1_555
Ca10 O36 2.531877 1_555
Ca11 O7 2.369677 1_554
Ca11 O23 2.369677 1_555
Ca11 O13 2.369677 1_555
Ca11 O19 2.369677 1_555
Ca11 O45 2.531877 1_554
Ca11 O30 2.531877 1_555
Ca11 O38 2.531877 1_555
Ca11 O41 2.531877 1_555
Al0 O31 1.940342 1_555
Al0 O15 1.940342 1_555
Al0 O29 1.940342 1_444
Al0 O43 1.940342 1_555
Al0 O42 1.940342 1_444
Al0 O12 1.940342 1_444
Al1 O25 1.940342 1_555
Al1 O27 1.940342 1_545
Al1 O47 1.940342 1_555
Al1 O46 1.940342 1_545
Al1 O5 1.940342 1_555
Al1 O9 1.940342 1_545
Al2 O44 1.940342 1_555
Al2 O45 1.940342 1_554
Al2 O19 1.940342 1_555
Al2 O17 1.940342 1_554
Al2 O33 1.940342 1_555
Al2 O35 1.940342 1_554
Al3 O18 1.940342 1_545
Al3 O16 1.940342 1_455
Al3 O32 1.940342 1_455
Al3 O34 1.940342 1_545
Al3 O6 1.940342 1_555
Al3 O2 1.940342 1_445
Al4 O21 1.940342 1_555
Al4 O23 1.940342 1_455
Al4 O39 1.940342 1_555
Al4 O37 1.940342 1_455
Al4 O40 1.940342 1_555
Al4 O41 1.940342 1_455
Al5 O4 1.940342 1_555
Al5 O0 1.940342 1_555
Al5 O24 1.940342 1_555
Al5 O8 1.940342 1_555
Al5 O26 1.940342 1_555
Al5 O1 1.940342 1_555
Al6 O7 1.940342 1_554
Al6 O3 1.940342 1_545
Al6 O20 1.940342 1_545
Al6 O22 1.940342 1_554
Al6 O38 1.940342 1_555
Al6 O36 1.940342 1_544
Al7 O30 1.940342 1_455
Al7 O28 1.940342 1_554
Al7 O10 1.940342 1_554
Al7 O13 1.940342 1_455
Al7 O14 1.940342 1_555
Al7 O11 1.940342 1_454
Ge0 O11 1.786276 1_555
Ge0 O4 1.786276 1_555
Ge0 O47 1.786276 1_555
Ge0 O45 1.786276 1_555
Ge1 O8 1.786276 1_555
Ge1 O14 1.786276 1_555
Ge1 O46 1.786276 1_555
Ge1 O44 1.786276 1_555
Ge2 O43 1.786276 1_655
Ge2 O41 1.786276 1_555
Ge2 O20 1.786276 1_545
Ge2 O16 1.786276 1_555
Ge3 O36 1.786276 1_555
Ge3 O24 1.786276 1_555
Ge3 O39 1.786276 1_555
Ge3 O27 1.786276 1_555
Ge4 O26 1.786276 1_555
Ge4 O38 1.786276 1_555
Ge4 O37 1.786276 1_555
Ge4 O25 1.786276 1_555
Ge5 O42 1.786276 1_455
Ge5 O40 1.786276 1_555
Ge5 O22 1.786276 1_565
Ge5 O18 1.786276 1_555
Ge6 O31 1.786276 1_556
Ge6 O35 1.786276 1_555
Ge6 O32 1.786276 1_455
Ge6 O28 1.786276 1_555
Ge7 O29 1.786276 1_554
Ge7 O33 1.786276 1_555
Ge7 O34 1.786276 1_655
Ge7 O30 1.786276 1_555
Ge8 O2 1.786276 1_555
Ge8 O0 1.786276 1_555
Ge8 O19 1.786276 1_555
Ge8 O23 1.786276 1_555
Ge9 O1 1.786276 1_555
Ge9 O6 1.786276 1_555
Ge9 O17 1.786276 1_555
Ge9 O21 1.786276 1_555
Ge10 O15 1.786276 1_565
Ge10 O9 1.786276 1_555
Ge10 O10 1.786276 1_554
Ge10 O3 1.786276 1_555
Ge11 O12 1.786276 1_545
Ge11 O5 1.786276 1_555
Ge11 O13 1.786276 1_556
Ge11 O7 1.786276 1_555
