# generated using pymatgen
data_CsMg6Al
_symmetry_space_group_name_H-M   'P 1'
_cell_length_a   5.09770500
_cell_length_b   7.25712800
_cell_length_c   12.32987100
_cell_angle_alpha   90.00000000
_cell_angle_beta   90.00000000
_cell_angle_gamma   90.00000000
_symmetry_Int_Tables_number   1
_chemical_formula_structural   CsMg6Al
_chemical_formula_sum   'Cs2 Mg12 Al2'
_cell_volume   456.13985022
_cell_formula_units_Z   2
loop_
 _symmetry_equiv_pos_site_id
 _symmetry_equiv_pos_as_xyz
  1  'x, y, z'
loop_
 _atom_site_type_symbol
 _atom_site_label
 _atom_site_symmetry_multiplicity
 _atom_site_fract_x
 _atom_site_fract_y
 _atom_site_fract_z
 _atom_site_occupancy
  Cs  Cs0  1  0.50000000  0.50000000  0.16441100  1
  Cs  Cs1  1  0.50000000  0.00000000  0.66441100  1
  Mg  Mg0  1  0.00000000  0.20703700  0.06887800  1
  Mg  Mg1  1  0.00000000  0.79296300  0.06887800  1
  Mg  Mg2  1  0.00000000  0.50000000  0.83462600  1
  Mg  Mg3  1  0.50000000  0.23127400  0.91498600  1
  Mg  Mg4  1  0.50000000  0.76872600  0.91498600  1
  Mg  Mg5  1  0.50000000  0.50000000  0.66645200  1
  Mg  Mg6  1  0.00000000  0.70703700  0.56887800  1
  Mg  Mg7  1  0.00000000  0.29296300  0.56887800  1
  Mg  Mg8  1  0.00000000  0.00000000  0.33462600  1
  Mg  Mg9  1  0.50000000  0.73127400  0.41498600  1
  Mg  Mg10  1  0.50000000  0.26872600  0.41498600  1
  Mg  Mg11  1  0.50000000  0.00000000  0.16645200  1
  Al  Al0  1  0.00000000  0.50000000  0.36678200  1
  Al  Al1  1  0.00000000  0.00000000  0.86678200  1
loop_
_geom_bond_atom_site_label_1
_geom_bond_atom_site_label_2
_geom_bond_distance
_geom_bond_site_symmetry_2
Cs0 Mg9 3.516012 1_555
Cs0 Mg10 3.516012 1_555
Cs0 Mg1 3.521973 1_655
Cs0 Mg0 3.521973 1_555
Cs0 Mg1 3.521973 1_555
Cs0 Mg0 3.521973 1_655
Cs0 Mg11 3.628651 1_555
Cs0 Mg11 3.628651 1_565
Cs0 Mg4 3.641586 1_554
Cs0 Mg3 3.641586 1_554
Cs1 Mg3 3.516012 1_555
Cs1 Mg4 3.516012 1_545
Cs1 Mg7 3.521973 1_655
Cs1 Mg6 3.521973 1_545
Cs1 Mg6 3.521973 1_645
Cs1 Mg7 3.521973 1_555
Cs1 Mg5 3.628651 1_555
Cs1 Mg5 3.628651 1_545
Cs1 Mg9 3.641586 1_545
Cs1 Mg10 3.641586 1_555
Mg0 Mg1 3.004988 1_545
Mg0 Mg3 3.182448 1_454
Mg0 Mg3 3.182448 1_554
Mg0 Mg11 3.193983 1_555
Mg0 Mg11 3.193983 1_455
Mg1 Mg4 3.182448 1_554
Mg1 Mg4 3.182448 1_454
Mg1 Mg11 3.193983 1_465
Mg1 Mg11 3.193983 1_565
Mg2 Mg5 3.285775 1_555
Mg2 Mg5 3.285775 1_455
Mg2 Mg3 3.358808 1_555
Mg2 Mg4 3.358808 1_555
Mg2 Mg3 3.358808 1_455
Mg2 Mg4 3.358808 1_455
Mg3 Mg4 3.356770 1_545
Mg5 Mg7 3.193983 1_555
Mg5 Mg6 3.193983 1_655
Mg5 Mg7 3.193983 1_655
Mg5 Mg6 3.193983 1_555
Mg6 Mg7 3.004988 1_555
Mg6 Mg9 3.182448 1_455
Mg6 Mg9 3.182448 1_555
Mg8 Mg9 3.358808 1_445
Mg8 Mg9 3.358808 1_545
Mg10 Mg7 3.182448 1_655
Mg10 Mg7 3.182448 1_555
Mg10 Mg9 3.356770 1_555
Mg10 Mg8 3.358808 1_555
Mg10 Mg8 3.358808 1_655
Mg11 Mg8 3.285775 1_555
Mg11 Mg8 3.285775 1_655
Al0 Mg6 2.909750 1_555
Al0 Mg7 2.909750 1_555
Al0 Mg9 3.109160 1_455
Al0 Mg9 3.109160 1_555
Al0 Mg10 3.109160 1_455
Al0 Mg10 3.109160 1_555
Al0 Cs0 3.566891 1_555
Al0 Cs0 3.566891 1_455
Al1 Mg0 2.909750 1_556
Al1 Mg1 2.909750 1_546
Al1 Mg4 3.109160 1_545
Al1 Mg3 3.109160 1_455
Al1 Mg4 3.109160 1_445
Al1 Mg3 3.109160 1_555
Al1 Cs1 3.566891 1_455
Al1 Cs1 3.566891 1_555
