# generated using pymatgen
data_Li4MnCo2O7
_symmetry_space_group_name_H-M   'P 1'
_cell_length_a   5.15096300
_cell_length_b   7.62826038
_cell_length_c   7.69725040
_cell_angle_alpha   114.46068693
_cell_angle_beta   108.60117281
_cell_angle_gamma   96.87955702
_symmetry_Int_Tables_number   1
_chemical_formula_structural   Li4MnCo2O7
_chemical_formula_sum   'Li8 Mn2 Co4 O14'
_cell_volume   249.55287406
_cell_formula_units_Z   2
loop_
 _symmetry_equiv_pos_site_id
 _symmetry_equiv_pos_as_xyz
  1  'x, y, z'
loop_
 _atom_site_type_symbol
 _atom_site_label
 _atom_site_symmetry_multiplicity
 _atom_site_fract_x
 _atom_site_fract_y
 _atom_site_fract_z
 _atom_site_occupancy
  Li  Li0  1  0.57625300  0.21581900  0.07120900  1
  Li  Li1  1  0.00668600  0.50751000  0.50405300  1
  Li  Li2  1  0.42050100  0.77762900  0.91620700  1
  Li  Li3  1  0.85955900  0.07674000  0.36234100  1
  Li  Li4  1  0.28319500  0.35522100  0.78464800  1
  Li  Li5  1  0.71387500  0.63994600  0.22364300  1
  Li  Li6  1  0.14158600  0.92374500  0.63993400  1
  Li  Li7  1  0.56965400  0.71464600  0.57274000  1
  Mn  Mn0  1  0.00087500  0.99965000  0.99564500  1
  Mn  Mn1  1  0.28554300  0.85903000  0.29030900  1
  Co  Co0  1  0.43236000  0.29862200  0.43143400  1
  Co  Co1  1  0.84161700  0.56967300  0.84751800  1
  Co  Co2  1  0.71244600  0.14199700  0.71220700  1
  Co  Co3  1  0.15095000  0.43310300  0.14805000  1
  O  O0  1  0.14532000  0.17358100  0.90491600  1
  O  O1  1  0.56086300  0.45177100  0.32289400  1
  O  O2  1  0.99984900  0.75741600  0.77125100  1
  O  O3  1  0.39243700  0.02477000  0.17330600  1
  O  O4  1  0.83551700  0.31664300  0.61143600  1
  O  O5  1  0.28594500  0.61810600  0.05829200  1
  O  O6  1  0.67428200  0.90700400  0.46348400  1
  O  O7  1  0.01143800  0.24172100  0.23370300  1
  O  O8  1  0.43826100  0.52648900  0.68160700  1
  O  O9  1  0.88486700  0.82859800  0.10651700  1
  O  O10  1  0.27823400  0.09610700  0.51312800  1
  O  O11  1  0.73732800  0.38473200  0.95071400  1
  O  O12  1  0.14188800  0.68186300  0.37779800  1
  O  O13  1  0.61867400  0.97786800  0.83101800  1
loop_
_geom_bond_atom_site_label_1
_geom_bond_atom_site_label_2
_geom_bond_distance
_geom_bond_site_symmetry_2
Li0 O1 2.059977 1_555
Li0 O13 2.081884 1_544
Li0 O0 2.084203 1_554
Li0 O11 2.105556 1_554
Li0 O7 2.128116 1_655
Li0 O3 2.174992 1_555
Li1 O12 2.116273 1_555
Li1 O1 2.151969 1_455
Li1 O8 2.156719 1_555
Li1 O2 2.163500 1_455
Li1 O4 2.175879 1_455
Li1 O7 2.234300 1_555
Li2 O2 2.049081 1_455
Li2 O8 2.054706 1_555
Li2 O5 2.130949 1_556
Li2 O3 2.156268 1_566
Li2 O13 2.165199 1_555
Li2 O9 2.255785 1_556
Li3 O10 2.050514 1_655
Li3 O6 2.050883 1_545
Li3 O4 2.083409 1_555
Li3 O7 2.113431 1_655
Li3 O9 2.147941 1_545
Li3 O3 2.263637 1_555
Li4 O8 1.996548 1_555
Li4 O0 2.127712 1_555
Li4 O4 2.175505 1_455
Li4 O10 2.192780 1_555
Li4 O11 2.210100 1_555
Li4 O5 2.221345 1_556
Li5 O12 2.053975 1_655
Li5 O1 2.070408 1_555
Li5 O5 2.110221 1_555
Li5 O6 2.196603 1_555
Li5 O9 2.221908 1_555
Li5 O11 2.247082 1_554
Li6 O12 2.096498 1_555
Li6 O10 2.110981 1_565
Li6 O2 2.115534 1_455
Li6 O0 2.130654 1_565
Li6 O13 2.306742 1_555
Li6 O6 2.313443 1_455
Li7 O6 2.066987 1_555
Li7 O13 2.073720 1_555
Li7 O8 2.084592 1_555
Li7 O1 2.109661 1_555
Li7 O2 2.146017 1_555
Li7 O12 2.148740 1_555
Mn0 O0 1.914158 1_565
Mn0 O13 1.914391 1_455
Mn0 O2 1.935593 1_455
Mn0 O9 1.961804 1_456
Mn0 O7 1.969942 1_566
Mn0 O3 1.976253 1_566
Mn1 O6 1.907343 1_555
Mn1 O12 1.912997 1_555
Mn1 O10 1.924171 1_565
Mn1 O3 1.950706 1_565
Mn1 O5 1.962708 1_555
Mn1 O9 2.016278 1_455
Co0 O1 1.864614 1_555
Co0 O8 1.976998 1_555
Co0 O4 2.046790 1_555
Co0 O10 2.059453 1_555
Co0 O7 2.080383 1_555
Co0 O3 2.133798 1_555
Co1 O2 1.944695 1_555
Co1 O8 1.962413 1_555
Co1 O11 1.982046 1_555
Co1 O4 2.018190 1_555
Co1 O9 2.067744 1_556
Co1 O5 2.222395 1_656
Co2 O13 1.929336 1_545
Co2 O4 1.935339 1_555
Co2 O6 1.936666 1_545
Co2 O11 1.947633 1_555
Co2 O10 2.157506 1_555
Co2 O0 2.166868 1_655
Co3 O5 1.957375 1_555
Co3 O7 1.982532 1_555
Co3 O12 2.006305 1_555
Co3 O1 2.060615 1_555
Co3 O11 2.065324 1_454
Co3 O0 2.075056 1_554
