# generated using pymatgen
data_Pb
_symmetry_space_group_name_H-M   'P 1'
_cell_length_a   7.69109200
_cell_length_b   7.27326700
_cell_length_c   7.27326700
_cell_angle_alpha   90.00000000
_cell_angle_beta   90.00000000
_cell_angle_gamma   90.00000000
_symmetry_Int_Tables_number   1
_chemical_formula_structural   Pb
_chemical_formula_sum   Pb12
_cell_volume   406.86194209
_cell_formula_units_Z   12
loop_
 _symmetry_equiv_pos_site_id
 _symmetry_equiv_pos_as_xyz
  1  'x, y, z'
loop_
 _atom_site_type_symbol
 _atom_site_label
 _atom_site_symmetry_multiplicity
 _atom_site_fract_x
 _atom_site_fract_y
 _atom_site_fract_z
 _atom_site_occupancy
  Pb  Pb0  1  0.75000000  0.34115600  0.34256400  1
  Pb  Pb1  1  0.75000000  0.15884400  0.84256400  1
  Pb  Pb2  1  0.75000000  0.65884400  0.65743600  1
  Pb  Pb3  1  0.75000000  0.84115600  0.15743600  1
  Pb  Pb4  1  0.25000000  0.65743600  0.34115600  1
  Pb  Pb5  1  0.25000000  0.84256400  0.84115600  1
  Pb  Pb6  1  0.25000000  0.34256400  0.65884400  1
  Pb  Pb7  1  0.25000000  0.15743600  0.15884400  1
  Pb  Pb8  1  0.00000000  0.00000000  0.50000000  1
  Pb  Pb9  1  0.00000000  0.50000000  0.00000000  1
  Pb  Pb10  1  0.50000000  0.00000000  0.50000000  1
  Pb  Pb11  1  0.50000000  0.50000000  0.00000000  1
loop_
_geom_bond_atom_site_label_1
_geom_bond_atom_site_label_2
_geom_bond_distance
_geom_bond_site_symmetry_2
Pb0 Pb2 3.253273 1_555
Pb0 Pb10 3.341436 1_555
Pb0 Pb8 3.341436 1_655
Pb0 Pb11 3.352563 1_555
Pb0 Pb9 3.352563 1_655
Pb1 Pb3 3.253273 1_546
Pb1 Pb9 3.341436 1_656
Pb1 Pb11 3.341436 1_556
Pb1 Pb8 3.352563 1_655
Pb1 Pb10 3.352563 1_555
Pb2 Pb8 3.341436 1_665
Pb2 Pb9 3.352563 1_656
Pb3 Pb9 3.341436 1_655
Pb3 Pb8 3.352563 1_665
Pb4 Pb6 3.253273 1_555
Pb4 Pb9 3.341436 1_555
Pb4 Pb8 3.352563 1_565
Pb5 Pb7 3.253273 1_566
Pb5 Pb8 3.341436 1_565
Pb5 Pb9 3.352563 1_556
Pb6 Pb9 3.341436 1_556
Pb6 Pb8 3.352563 1_555
Pb7 Pb8 3.341436 1_555
Pb7 Pb9 3.352563 1_555
Pb10 Pb2 3.341436 1_545
Pb10 Pb5 3.341436 1_545
Pb10 Pb7 3.341436 1_555
Pb10 Pb3 3.352563 1_545
Pb10 Pb6 3.352563 1_555
Pb10 Pb4 3.352563 1_545
Pb11 Pb4 3.341436 1_555
Pb11 Pb3 3.341436 1_555
Pb11 Pb6 3.341436 1_554
Pb11 Pb7 3.352563 1_555
Pb11 Pb5 3.352563 1_554
Pb11 Pb2 3.352563 1_554
