# generated using pymatgen
data_Sm2UTe5
_symmetry_space_group_name_H-M   'P 1'
_cell_length_a   4.37681935
_cell_length_b   4.41872650
_cell_length_c   26.78199067
_cell_angle_alpha   90.00000000
_cell_angle_beta   90.00000000
_cell_angle_gamma   90.00000000
_symmetry_Int_Tables_number   1
_chemical_formula_structural   Sm2UTe5
_chemical_formula_sum   'Sm4 U2 Te10'
_cell_volume   517.96283309
_cell_formula_units_Z   2
loop_
 _symmetry_equiv_pos_site_id
 _symmetry_equiv_pos_as_xyz
  1  'x, y, z'
loop_
 _atom_site_type_symbol
 _atom_site_label
 _atom_site_symmetry_multiplicity
 _atom_site_fract_x
 _atom_site_fract_y
 _atom_site_fract_z
 _atom_site_occupancy
  Sm  Sm0  1  0.50000000  0.50000000  0.09287915  1
  Sm  Sm1  1  0.50000000  0.50000000  0.42178430  1
  Sm  Sm2  1  0.50000000  0.50000000  0.75080155  1
  Sm  Sm3  1  -0.00000000  -0.00000000  0.24903166  1
  U  U0  1  0.00000000  -0.00000000  0.57772356  1
  U  U1  1  0.00000000  0.00000000  0.90756829  1
  Te  Te0  1  0.50000000  0.50000000  0.21477213  1
  Te  Te1  1  0.50000000  0.50000000  0.54501814  1
  Te  Te2  1  0.50000000  0.50000000  0.87337104  1
  Te  Te3  1  -0.00000000  -0.00000000  0.12681868  1
  Te  Te4  1  -0.00000000  0.00000000  0.45489679  1
  Te  Te5  1  0.00000000  0.00000000  0.78501686  1
  Te  Te6  1  -0.00000000  0.50000000  0.99994475  1
  Te  Te7  1  -0.00000000  0.50000000  0.33514022  1
  Te  Te8  1  0.00000000  0.50000000  0.66504986  1
  Te  Te9  1  0.50000000  -0.00000000  0.00018504  1
loop_
_geom_bond_atom_site_label_1
_geom_bond_atom_site_label_2
_geom_bond_distance
_geom_bond_site_symmetry_2
Sm0 Te3 3.239853 1_555
Sm0 Te3 3.239853 1_565
Sm0 Te3 3.239853 1_655
Sm0 Te3 3.239853 1_665
Sm0 Te0 3.264537 1_555
Sm0 Te6 3.314227 1_554
Sm0 Te6 3.314227 1_654
Sm0 Te9 3.323290 1_565
Sm0 Te9 3.323290 1_555
Sm1 Te7 3.189649 1_555
Sm1 Te7 3.189649 1_655
Sm1 Te4 3.233708 1_565
Sm1 Te4 3.233708 1_555
Sm1 Te4 3.233708 1_655
Sm1 Te4 3.233708 1_665
Sm1 Te1 3.300448 1_555
Sm2 Te8 3.172304 1_655
Sm2 Te8 3.172304 1_555
Sm2 Te5 3.241933 1_565
Sm2 Te5 3.241933 1_665
Sm2 Te5 3.241933 1_555
Sm2 Te5 3.241933 1_655
Sm2 Te2 3.282655 1_555
Sm3 Te7 3.193690 1_545
Sm3 Te7 3.193690 1_555
Sm3 Te0 3.242268 1_555
Sm3 Te0 3.242268 1_455
Sm3 Te0 3.242268 1_445
Sm3 Te0 3.242268 1_545
Sm3 Te3 3.273107 1_555
Te1 U0 3.230736 1_555
Te1 U0 3.230736 1_655
Te1 U0 3.230736 1_665
Te1 U0 3.230736 1_565
Te2 U1 3.241796 1_565
Te2 U1 3.241796 1_655
Te2 U1 3.241796 1_665
Te2 U1 3.241796 1_555
Te4 U0 3.289545 1_555
Te5 U1 3.282171 1_555
Te6 Te9 3.109737 1_566
Te6 Te9 3.109737 1_456
Te6 Te9 3.109737 1_556
Te6 Te9 3.109737 1_466
Te6 U1 3.316940 1_555
Te6 U1 3.316940 1_565
Te8 U0 3.217319 1_555
Te8 U0 3.217319 1_565
Te9 U1 3.307843 1_554
Te9 U1 3.307843 1_654
