# generated using pymatgen
data_La(Al5Ru)2
_symmetry_space_group_name_H-M   'P 1'
_cell_length_a   6.86797254
_cell_length_b   6.86797254
_cell_length_c   9.16754248
_cell_angle_alpha   90.00000000
_cell_angle_beta   90.00000000
_cell_angle_gamma   97.01280556
_symmetry_Int_Tables_number   1
_chemical_formula_structural   La(Al5Ru)2
_chemical_formula_sum   'La2 Al20 Ru4'
_cell_volume   429.18922695
_cell_formula_units_Z   2
loop_
 _symmetry_equiv_pos_site_id
 _symmetry_equiv_pos_as_xyz
  1  'x, y, z'
loop_
 _atom_site_type_symbol
 _atom_site_label
 _atom_site_symmetry_multiplicity
 _atom_site_fract_x
 _atom_site_fract_y
 _atom_site_fract_z
 _atom_site_occupancy
  La  La0  1  0.87812054  0.12187946  0.75000000  1
  La  La1  1  0.12187946  0.87812054  0.25000000  1
  Al  Al0  1  0.62172579  0.37827421  0.55193901  1
  Al  Al1  1  0.37827421  0.62172579  0.44806099  1
  Al  Al2  1  0.37827421  0.62172579  0.05193901  1
  Al  Al3  1  0.62172579  0.37827421  0.94806099  1
  Al  Al4  1  0.22952581  0.22952581  0.50000000  1
  Al  Al5  1  0.77047419  0.77047419  0.50000000  1
  Al  Al6  1  0.77047419  0.77047419  -0.00000000  1
  Al  Al7  1  0.22952581  0.22952581  -0.00000000  1
  Al  Al8  1  0.83607744  0.16392256  0.10213049  1
  Al  Al9  1  0.16392256  0.83607744  0.89786951  1
  Al  Al10  1  0.16392256  0.83607744  0.60213049  1
  Al  Al11  1  0.83607744  0.16392256  0.39786951  1
  Al  Al12  1  0.86237627  0.59242247  0.75000000  1
  Al  Al13  1  0.13762373  0.40757753  0.25000000  1
  Al  Al14  1  0.40757753  0.13762373  0.75000000  1
  Al  Al15  1  0.59242247  0.86237627  0.25000000  1
  Al  Al16  1  0.22090279  0.48242711  0.75000000  1
  Al  Al17  1  0.77909721  0.51757289  0.25000000  1
  Al  Al18  1  0.51757289  0.77909721  0.75000000  1
  Al  Al19  1  0.48242711  0.22090279  0.25000000  1
  Ru  Ru0  1  -0.00000000  0.50000000  0.50000000  1
  Ru  Ru1  1  -0.00000000  0.50000000  -0.00000000  1
  Ru  Ru2  1  0.50000000  0.00000000  -0.00000000  1
  Ru  Ru3  1  0.50000000  0.00000000  0.50000000  1
loop_
_geom_bond_atom_site_label_1
_geom_bond_atom_site_label_2
_geom_bond_distance
_geom_bond_site_symmetry_2
La0 Ru1 3.488068 1_656
La0 Ru0 3.488068 1_655
La0 Ru3 3.488068 1_555
La0 Ru2 3.488068 1_556
La1 Ru2 3.488068 1_565
La1 Ru3 3.488068 1_565
La1 Ru1 3.488068 1_555
La1 Ru0 3.488068 1_555
Al0 Al11 2.618913 1_555
Al0 Ru3 2.672970 1_555
Al0 Ru0 2.672970 1_655
Al0 Al1 2.679707 1_555
Al0 Al14 2.756474 1_555
Al0 Al12 2.756474 1_555
Al0 Al4 2.802504 1_555
Al0 Al5 2.802504 1_555
Al0 Al17 3.081071 1_555
Al0 Al19 3.081071 1_555
Al0 La0 3.202448 1_555
Al1 Al10 2.618913 1_555
Al1 Ru3 2.672970 1_565
Al1 Ru0 2.672970 1_555
Al1 Al15 2.756474 1_555
Al1 Al13 2.756474 1_555
Al1 Al4 2.802504 1_555
Al1 Al5 2.802504 1_555
Al1 Al18 3.081071 1_555
Al1 Al16 3.081071 1_555
Al1 La1 3.202448 1_555
Al2 Al9 2.618913 1_554
Al2 Ru2 2.672970 1_565
Al2 Ru1 2.672970 1_555
Al2 Al3 2.679707 1_554
Al2 Al7 2.802504 1_555
Al2 Al6 2.802504 1_555
Al2 La1 3.202448 1_555
Al3 Al8 2.618913 1_556
Al3 Ru2 2.672970 1_556
Al3 Ru1 2.672970 1_656
Al3 Al6 2.802504 1_556
Al3 Al7 2.802504 1_556
Al3 La0 3.202448 1_555
Al4 Ru3 2.578898 1_555
Al4 Ru0 2.578898 1_555
Al4 La0 3.344896 1_455
Al4 La1 3.344896 1_545
Al5 Ru0 2.578898 1_655
Al5 Ru3 2.578898 1_565
Al5 La1 3.344896 1_655
Al5 La0 3.344896 1_565
Al6 Ru2 2.578898 1_565
Al6 Ru1 2.578898 1_655
Al6 Al9 2.843271 1_654
Al6 Al8 2.843271 1_565
Al6 La1 3.344896 1_655
Al6 La0 3.344896 1_564
Al7 Ru1 2.578898 1_555
Al7 Ru2 2.578898 1_555
Al7 Al9 2.843271 1_544
Al7 Al8 2.843271 1_455
Al7 La0 3.344896 1_454
Al7 La1 3.344896 1_545
Al8 Ru1 2.614807 1_655
Al8 Ru2 2.614807 1_555
Al8 La1 3.237941 1_645
Al8 La0 3.257024 1_554
Al9 Ru2 2.614807 1_566
Al9 Ru1 2.614807 1_556
Al9 La0 3.237941 1_465
Al9 La1 3.257024 1_556
Al10 Ru3 2.614807 1_565
Al10 Ru0 2.614807 1_555
Al10 Al9 2.711200 1_555
Al10 Al12 2.842676 1_455
Al10 Al14 2.842676 1_565
Al10 Al4 2.843271 1_565
Al10 Al5 2.843271 1_455
Al10 Al16 2.849958 1_555
Al10 Al18 2.849958 1_555
Al10 La0 3.237941 1_465
Al10 La1 3.257024 1_555
Al11 Ru0 2.614807 1_655
Al11 Ru3 2.614807 1_555
Al11 Al8 2.711200 1_555
Al11 Al13 2.842676 1_655
Al11 Al15 2.842676 1_545
Al11 Al5 2.843271 1_545
Al11 Al4 2.843271 1_655
Al11 Al19 2.849958 1_555
Al11 Al17 2.849958 1_555
Al11 La1 3.237941 1_645
Al11 La0 3.257024 1_555
Al12 Ru1 2.587576 1_656
Al12 Ru0 2.587576 1_655
Al12 Al16 2.662346 1_655
Al12 Al5 2.708315 1_555
Al12 Al6 2.708315 1_556
Al12 Al3 2.756474 1_555
Al12 Al18 2.827186 1_555
Al12 Al9 2.842676 1_655
Al12 La0 3.246653 1_555
Al12 La0 3.624683 1_565
Al13 Ru0 2.587576 1_555
Al13 Ru1 2.587576 1_555
Al13 Al17 2.662346 1_455
Al13 Al7 2.708315 1_555
Al13 Al4 2.708315 1_555
Al13 Al2 2.756474 1_555
Al13 Al19 2.827186 1_555
Al13 Al8 2.842676 1_455
Al13 La1 3.246653 1_555
Al13 La1 3.624683 1_545
Al14 Ru3 2.587576 1_555
Al14 Ru2 2.587576 1_556
Al14 Al18 2.662346 1_545
Al14 Al7 2.708315 1_556
Al14 Al4 2.708315 1_555
Al14 Al3 2.756474 1_555
Al14 Al16 2.827186 1_555
Al14 Al9 2.842676 1_545
Al14 La0 3.246653 1_555
Al14 La0 3.624683 1_455
Al15 Ru3 2.587576 1_565
Al15 Ru2 2.587576 1_565
Al15 Al19 2.662346 1_565
Al15 Al6 2.708315 1_555
Al15 Al5 2.708315 1_555
Al15 Al2 2.756474 1_555
Al15 Al17 2.827186 1_555
Al15 Al8 2.842676 1_565
Al15 La1 3.246653 1_555
Al15 La1 3.624683 1_655
Al16 Al18 2.699865 1_555
Al16 Ru0 2.759307 1_555
Al16 Ru1 2.759307 1_556
Al16 Al9 2.849958 1_555
Al16 Al7 2.880669 1_556
Al16 Al4 2.880669 1_555
Al16 Al2 3.081071 1_556
Al16 La0 3.201654 1_455
Al17 Al19 2.699865 1_555
Al17 Ru0 2.759307 1_655
Al17 Ru1 2.759307 1_655
Al17 Al8 2.849958 1_555
Al17 Al6 2.880669 1_555
Al17 Al5 2.880669 1_555
Al17 Al3 3.081071 1_554
Al17 La1 3.201654 1_655
Al18 Ru3 2.759307 1_565
Al18 Ru2 2.759307 1_566
Al18 Al9 2.849958 1_555
Al18 Al6 2.880669 1_556
Al18 Al5 2.880669 1_555
Al18 Al2 3.081071 1_556
Al18 La0 3.201654 1_565
Al19 Ru3 2.759307 1_555
Al19 Ru2 2.759307 1_555
Al19 Al8 2.849958 1_555
Al19 Al7 2.880669 1_555
Al19 Al4 2.880669 1_555
Al19 Al3 3.081071 1_554
Al19 La1 3.201654 1_545
