# generated using pymatgen
data_Gd4Mo4O11
_symmetry_space_group_name_H-M   'P 1'
_cell_length_a   5.76441645
_cell_length_b   10.92635581
_cell_length_c   16.18142939
_cell_angle_alpha   90.00000000
_cell_angle_beta   90.00000000
_cell_angle_gamma   90.00000000
_symmetry_Int_Tables_number   1
_chemical_formula_structural   Gd4Mo4O11
_chemical_formula_sum   'Gd16 Mo16 O44'
_cell_volume   1019.17220324
_cell_formula_units_Z   4
loop_
 _symmetry_equiv_pos_site_id
 _symmetry_equiv_pos_as_xyz
  1  'x, y, z'
loop_
 _atom_site_type_symbol
 _atom_site_label
 _atom_site_symmetry_multiplicity
 _atom_site_fract_x
 _atom_site_fract_y
 _atom_site_fract_z
 _atom_site_occupancy
  Gd  Gd0  1  0.50000000  0.81469690  0.22331559  1
  Gd  Gd1  1  0.50000000  0.18530310  0.77668441  1
  Gd  Gd2  1  0.50000000  0.31469690  0.27668441  1
  Gd  Gd3  1  0.50000000  0.68530310  0.72331559  1
  Gd  Gd4  1  0.50000000  0.58017509  0.40139357  1
  Gd  Gd5  1  0.50000000  0.41982491  0.59860643  1
  Gd  Gd6  1  0.50000000  0.08017509  0.09860643  1
  Gd  Gd7  1  0.50000000  0.91982491  0.90139357  1
  Gd  Gd8  1  -0.00000000  0.59820357  0.26207652  1
  Gd  Gd9  1  0.00000000  0.40179643  0.73792348  1
  Gd  Gd10  1  -0.00000000  0.09820357  0.23792348  1
  Gd  Gd11  1  0.00000000  0.90179643  0.76207652  1
  Gd  Gd12  1  0.00000000  0.38112921  0.42301364  1
  Gd  Gd13  1  -0.00000000  0.61887079  0.57698636  1
  Gd  Gd14  1  0.00000000  0.88112921  0.07698636  1
  Gd  Gd15  1  0.00000000  0.11887079  0.92301364  1
  Mo  Mo0  1  0.27486248  0.86776749  0.41561837  1
  Mo  Mo1  1  0.27486248  0.13223251  0.58438163  1
  Mo  Mo2  1  0.72513752  0.36776749  0.08438163  1
  Mo  Mo3  1  0.72513752  0.63223251  0.91561837  1
  Mo  Mo4  1  0.72513752  0.13223251  0.58438163  1
  Mo  Mo5  1  0.72513752  0.86776749  0.41561837  1
  Mo  Mo6  1  0.27486248  0.63223251  0.91561837  1
  Mo  Mo7  1  0.27486248  0.36776749  0.08438163  1
  Mo  Mo8  1  0.50000000  0.09114333  0.43228435  1
  Mo  Mo9  1  0.50000000  0.90885667  0.56771565  1
  Mo  Mo10  1  0.50000000  0.59114333  0.06771565  1
  Mo  Mo11  1  0.50000000  0.40885667  0.93228435  1
  Mo  Mo12  1  0.00000000  0.08199637  0.44113067  1
  Mo  Mo13  1  -0.00000000  0.91800363  0.55886933  1
  Mo  Mo14  1  0.00000000  0.58199637  0.05886933  1
  Mo  Mo15  1  -0.00000000  0.41800363  0.94113067  1
  O  O0  1  0.26242247  0.72797405  0.32649690  1
  O  O1  1  0.26242247  0.27202595  0.67350310  1
  O  O2  1  0.73757753  0.22797405  0.17350310  1
  O  O3  1  0.73757753  0.77202595  0.82649690  1
  O  O4  1  0.73757753  0.27202595  0.67350310  1
  O  O5  1  0.73757753  0.72797405  0.32649690  1
  O  O6  1  0.26242247  0.77202595  0.82649690  1
  O  O7  1  0.26242247  0.22797405  0.17350310  1
  O  O8  1  0.24101878  0.68463413  0.13533794  1
  O  O9  1  0.24101878  0.31536587  0.86466206  1
  O  O10  1  0.75898122  0.18463413  0.36466206  1
  O  O11  1  0.75898122  0.81536587  0.63533794  1
  O  O12  1  0.75898122  0.31536587  0.86466206  1
  O  O13  1  0.75898122  0.68463413  0.13533794  1
  O  O14  1  0.24101878  0.81536587  0.63533794  1
  O  O15  1  0.24101878  0.18463413  0.36466206  1
  O  O16  1  0.24665842  0.96025562  0.17349474  1
  O  O17  1  0.24665842  0.03974438  0.82650526  1
  O  O18  1  0.75334158  0.46025562  0.32650526  1
  O  O19  1  0.75334158  0.53974438  0.67349474  1
  O  O20  1  0.75334158  0.03974438  0.82650526  1
  O  O21  1  0.75334158  0.96025562  0.17349474  1
  O  O22  1  0.24665842  0.53974438  0.67349474  1
  O  O23  1  0.24665842  0.46025562  0.32650526  1
  O  O24  1  0.50000000  0.96067501  0.33540922  1
  O  O25  1  0.50000000  0.03932499  0.66459078  1
  O  O26  1  0.50000000  0.46067501  0.16459078  1
  O  O27  1  0.50000000  0.53932499  0.83540922  1
  O  O28  1  0.50000000  0.75719274  0.48642566  1
  O  O29  1  0.50000000  0.24280726  0.51357434  1
  O  O30  1  0.50000000  0.25719274  0.01357434  1
  O  O31  1  0.50000000  0.74280726  0.98642566  1
  O  O32  1  -0.00000000  0.95129493  0.34809783  1
  O  O33  1  0.00000000  0.04870507  0.65190217  1
  O  O34  1  -0.00000000  0.45129493  0.15190217  1
  O  O35  1  0.00000000  0.54870507  0.84809783  1
  O  O36  1  -0.00000000  0.77222476  0.47515347  1
  O  O37  1  0.00000000  0.22777524  0.52484653  1
  O  O38  1  -0.00000000  0.27222476  0.02484653  1
  O  O39  1  0.00000000  0.72777524  0.97515347  1
  O  O40  1  0.24527788  -0.00000000  0.00000000  1
  O  O41  1  0.75472212  0.50000000  0.50000000  1
  O  O42  1  0.75472212  -0.00000000  0.00000000  1
  O  O43  1  0.24527788  0.50000000  0.50000000  1
loop_
_geom_bond_atom_site_label_1
_geom_bond_atom_site_label_2
_geom_bond_distance
_geom_bond_site_symmetry_2
Gd0 O16 2.304786 1_555
Gd0 O21 2.304786 1_555
Gd0 O0 2.358184 1_555
Gd0 O5 2.358184 1_555
Gd0 O24 2.415378 1_555
Gd0 O8 2.504972 1_555
Gd0 O13 2.504972 1_555
Gd1 O20 2.304786 1_555
Gd1 O17 2.304786 1_555
Gd1 O4 2.358184 1_555
Gd1 O1 2.358184 1_555
Gd1 O25 2.415378 1_555
Gd1 O12 2.504972 1_555
Gd1 O9 2.504972 1_555
Gd2 O18 2.304786 1_555
Gd2 O23 2.304786 1_555
Gd2 O7 2.358184 1_555
Gd2 O2 2.358184 1_555
Gd2 O26 2.415378 1_555
Gd2 O10 2.504972 1_555
Gd2 O15 2.504972 1_555
Gd3 O19 2.304786 1_555
Gd3 O22 2.304786 1_555
Gd3 O6 2.358184 1_555
Gd3 O3 2.358184 1_555
Gd3 O27 2.415378 1_555
Gd3 O14 2.504972 1_555
Gd3 O11 2.504972 1_555
Gd4 O23 2.306072 1_555
Gd4 O18 2.306072 1_555
Gd4 O43 2.338655 1_555
Gd4 O41 2.338655 1_555
Gd4 O28 2.373643 1_555
Gd4 O5 2.439717 1_555
Gd4 O0 2.439717 1_555
Gd5 O22 2.306072 1_555
Gd5 O19 2.306072 1_555
Gd5 O43 2.338655 1_555
Gd5 O41 2.338655 1_555
Gd5 O29 2.373643 1_555
Gd5 O4 2.439717 1_555
Gd5 O1 2.439717 1_555
Gd6 O16 2.306072 1_545
Gd6 O21 2.306072 1_545
Gd6 O42 2.338655 1_555
Gd6 O40 2.338655 1_555
Gd6 O30 2.373643 1_555
Gd6 O7 2.439717 1_555
Gd6 O2 2.439717 1_555
Gd7 O20 2.306072 1_565
Gd7 O17 2.306072 1_565
Gd7 O40 2.338655 1_566
Gd7 O42 2.338655 1_566
Gd7 O31 2.373643 1_555
Gd7 O3 2.439717 1_555
Gd7 O6 2.439717 1_555
Gd8 O23 2.319569 1_555
Gd8 O18 2.319569 1_455
Gd8 O0 2.320650 1_555
Gd8 O5 2.320650 1_455
Gd8 O34 2.398935 1_555
Gd8 O8 2.651020 1_555
Gd8 O13 2.651020 1_455
Gd9 O22 2.319569 1_555
Gd9 O19 2.319569 1_455
Gd9 O4 2.320650 1_455
Gd9 O1 2.320650 1_555
Gd9 O35 2.398935 1_555
Gd9 O9 2.651020 1_555
Gd9 O12 2.651020 1_455
Gd10 O16 2.319569 1_545
Gd10 O21 2.319569 1_445
Gd10 O7 2.320650 1_555
Gd10 O2 2.320650 1_455
Gd10 O32 2.398935 1_545
Gd10 O10 2.651020 1_455
Gd10 O15 2.651020 1_555
Gd11 O20 2.319569 1_465
Gd11 O17 2.319569 1_565
Gd11 O6 2.320650 1_555
Gd11 O3 2.320650 1_455
Gd11 O33 2.398935 1_565
Gd11 O11 2.651020 1_455
Gd11 O14 2.651020 1_555
Gd12 O23 2.282068 1_555
Gd12 O18 2.282068 1_455
Gd12 O43 2.288647 1_555
Gd12 O41 2.288647 1_455
Gd12 O37 2.350082 1_555
Gd12 O15 2.726038 1_555
Gd12 O10 2.726038 1_455
Gd13 O22 2.282068 1_555
Gd13 O19 2.282068 1_455
Gd13 O41 2.288647 1_455
Gd13 O43 2.288647 1_555
Gd13 O36 2.350082 1_555
Gd13 O11 2.726038 1_455
Gd13 O14 2.726038 1_555
Gd14 O16 2.282068 1_555
Gd14 O21 2.282068 1_455
Gd14 O42 2.288647 1_465
Gd14 O40 2.288647 1_565
Gd14 O39 2.350082 1_554
Gd14 O8 2.726038 1_555
Gd14 O13 2.726038 1_455
Gd15 O20 2.282068 1_455
Gd15 O17 2.282068 1_555
Gd15 O42 2.288647 1_456
Gd15 O40 2.288647 1_556
Gd15 O38 2.350082 1_556
Gd15 O9 2.726038 1_555
Gd15 O12 2.726038 1_455
Mo0 O24 2.097451 1_555
Mo0 O0 2.101876 1_555
Mo0 O28 2.111094 1_555
Mo0 O36 2.127971 1_555
Mo0 O32 2.130036 1_555
Mo1 O25 2.097451 1_555
Mo1 O1 2.101876 1_555
Mo1 O29 2.111094 1_555
Mo1 O37 2.127971 1_555
Mo1 O33 2.130036 1_555
Mo2 O26 2.097451 1_555
Mo2 O2 2.101876 1_555
Mo2 O30 2.111094 1_555
Mo2 O38 2.127971 1_655
Mo2 O34 2.130036 1_655
Mo3 O27 2.097451 1_555
Mo3 O3 2.101876 1_555
Mo3 O31 2.111094 1_555
Mo3 O39 2.127971 1_655
Mo3 O35 2.130036 1_655
Mo4 O25 2.097451 1_555
Mo4 O4 2.101876 1_555
Mo4 O29 2.111094 1_555
Mo4 O37 2.127971 1_655
Mo4 O33 2.130036 1_655
Mo5 O24 2.097451 1_555
Mo5 O5 2.101876 1_555
Mo5 O28 2.111094 1_555
Mo5 O36 2.127971 1_655
Mo5 O32 2.130036 1_655
Mo6 O27 2.097451 1_555
Mo6 O6 2.101876 1_555
Mo6 O31 2.111094 1_555
Mo6 O39 2.127971 1_555
Mo6 O35 2.130036 1_555
Mo7 O26 2.097451 1_555
Mo7 O7 2.101876 1_555
Mo7 O30 2.111094 1_555
Mo7 O38 2.127971 1_555
Mo7 O34 2.130036 1_555
Mo8 O15 2.114118 1_555
Mo8 O10 2.114118 1_555
Mo8 O29 2.115736 1_555
Mo8 O24 2.118838 1_545
Mo9 O14 2.114118 1_555
Mo9 O11 2.114118 1_555
Mo9 O28 2.115736 1_555
Mo9 O25 2.118838 1_565
Mo10 O8 2.114118 1_555
Mo10 O13 2.114118 1_555
Mo10 O31 2.115736 1_554
Mo10 O26 2.118838 1_555
Mo11 O12 2.114118 1_555
Mo11 O9 2.114118 1_555
Mo11 O30 2.115736 1_556
Mo11 O27 2.118838 1_555
Mo12 O32 2.075014 1_545
Mo12 O37 2.090973 1_555
Mo12 O15 2.172326 1_555
Mo12 O10 2.172326 1_455
Mo13 O33 2.075014 1_565
Mo13 O36 2.090973 1_555
Mo13 O11 2.172326 1_455
Mo13 O14 2.172326 1_555
Mo14 O34 2.075014 1_555
Mo14 O39 2.090973 1_554
Mo14 O13 2.172326 1_455
Mo14 O8 2.172326 1_555
Mo15 O35 2.075014 1_555
Mo15 O38 2.090973 1_556
Mo15 O9 2.172326 1_555
Mo15 O12 2.172326 1_455
