# generated using pymatgen
data_VCr(CuO2)2
_symmetry_space_group_name_H-M   'P 1'
_cell_length_a   3.06497800
_cell_length_b   10.68977468
_cell_length_c   5.99822525
_cell_angle_alpha   80.80100882
_cell_angle_beta   75.20125084
_cell_angle_gamma   89.99785606
_symmetry_Int_Tables_number   1
_chemical_formula_structural   VCr(CuO2)2
_chemical_formula_sum   'V2 Cr2 Cu4 O8'
_cell_volume   187.39135842
_cell_formula_units_Z   2
loop_
 _symmetry_equiv_pos_site_id
 _symmetry_equiv_pos_as_xyz
  1  'x, y, z'
loop_
 _atom_site_type_symbol
 _atom_site_label
 _atom_site_symmetry_multiplicity
 _atom_site_fract_x
 _atom_site_fract_y
 _atom_site_fract_z
 _atom_site_occupancy
  V  V0  1  0.24999300  0.37588400  0.50001600  1
  V  V1  1  0.25001100  0.87412100  0.49998100  1
  Cr  Cr0  1  0.74999800  0.62499800  0.50000800  1
  Cr  Cr1  1  0.74996900  0.12500400  0.50001000  1
  Cu  Cu0  1  0.50038900  0.24958000  0.99911500  1
  Cu  Cu1  1  0.50035300  0.74920100  0.99917200  1
  Cu  Cu2  1  0.99962300  0.00042300  0.00087100  1
  Cu  Cu3  1  0.99965400  0.50077700  0.00084300  1
  O  O0  1  0.16118600  0.02806500  0.67770700  1
  O  O1  1  0.16070500  0.52937000  0.67870600  1
  O  O2  1  0.33879400  0.22193600  0.32229600  1
  O  O3  1  0.33931200  0.72063900  0.32128300  1
  O  O4  1  0.66264600  0.27468700  0.67474200  1
  O  O5  1  0.66206500  0.77407900  0.67589800  1
  O  O6  1  0.83794700  0.47592700  0.32409700  1
  O  O7  1  0.83735500  0.97531100  0.32525700  1
loop_
_geom_bond_atom_site_label_1
_geom_bond_atom_site_label_2
_geom_bond_distance
_geom_bond_site_symmetry_2
Cr0 O1 2.029027 1_555
Cr0 O1 2.029122 1_655
Cr0 O3 2.029169 1_655
Cr0 O6 2.029195 1_555
Cr0 O5 2.029211 1_555
Cr0 O3 2.029230 1_555
Cr1 O4 2.030569 1_555
Cr1 O7 2.030739 1_545
Cr1 O0 2.032461 1_555
Cr1 O2 2.032532 1_555
Cr1 O2 2.032548 1_655
Cr1 O0 2.032600 1_655
Cu0 O2 1.848471 1_556
Cu0 O4 1.855722 1_555
Cu1 O3 1.842299 1_556
Cu1 O5 1.849471 1_555
Cu2 O0 1.848374 1_654
Cu2 O7 1.855796 1_545
Cu3 O1 1.842447 1_654
Cu3 O6 1.849363 1_555
O0 V1 2.081166 1_545
O1 V0 2.080404 1_555
O2 V0 2.081182 1_555
O3 V1 2.080396 1_555
O4 V0 2.045199 1_555
O4 V0 2.045290 1_655
O5 V1 2.042544 1_555
O5 V1 2.042651 1_655
O6 V0 2.042538 1_655
O6 V0 2.042676 1_555
O7 V1 2.045166 1_655
O7 V1 2.045247 1_555
