# generated using pymatgen
data_LiTiRhO4
_symmetry_space_group_name_H-M   'P 1'
_cell_length_a   5.98083756
_cell_length_b   5.98083756
_cell_length_c   5.98083756
_cell_angle_alpha   120.22608256
_cell_angle_beta   117.91812924
_cell_angle_gamma   91.62611422
_symmetry_Int_Tables_number   1
_chemical_formula_structural   LiTiRhO4
_chemical_formula_sum   'Li2 Ti2 Rh2 O8'
_cell_volume   153.25607684
_cell_formula_units_Z   2
loop_
 _symmetry_equiv_pos_site_id
 _symmetry_equiv_pos_as_xyz
  1  'x, y, z'
loop_
 _atom_site_type_symbol
 _atom_site_label
 _atom_site_symmetry_multiplicity
 _atom_site_fract_x
 _atom_site_fract_y
 _atom_site_fract_z
 _atom_site_occupancy
  Li  Li0  1  0.62112200  0.37112200  0.25000000  1
  Li  Li1  1  0.37887800  0.62887800  0.75000000  1
  Ti  Ti0  1  0.00000000  0.00000000  0.50000000  1
  Ti  Ti1  1  0.00000000  0.50000000  0.00000000  1
  Rh  Rh0  1  0.00000000  0.00000000  0.00000000  1
  Rh  Rh1  1  0.50000000  0.00000000  0.50000000  1
  O  O0  1  0.78202400  0.24865300  0.53337200  1
  O  O1  1  0.21528100  0.24865300  0.96662800  1
  O  O2  1  0.76301100  0.24502800  0.98201700  1
  O  O3  1  0.76301100  0.78099400  0.51798300  1
  O  O4  1  0.21797600  0.75134700  0.46662800  1
  O  O5  1  0.78471900  0.75134700  0.03337200  1
  O  O6  1  0.23698900  0.75497200  0.01798300  1
  O  O7  1  0.23698900  0.21900600  0.48201700  1
loop_
_geom_bond_atom_site_label_1
_geom_bond_atom_site_label_2
_geom_bond_distance
_geom_bond_site_symmetry_2
Li0 O3 1.987646 1_555
Li0 O2 1.987646 1_554
Li0 O0 2.024240 1_555
Li0 O1 2.024240 1_554
Li1 O7 1.987646 1_555
Li1 O6 1.987646 1_556
Li1 O4 2.024240 1_555
Li1 O5 2.024240 1_556
O0 Ti1 2.001466 1_656
O0 Ti0 2.001471 1_655
O0 Rh1 2.083286 1_555
O1 Ti0 2.001466 1_555
O1 Ti1 2.001466 1_556
O1 Rh0 2.083291 1_556
O2 Ti1 1.978755 1_656
O2 Rh1 2.074128 1_555
O2 Rh0 2.074128 1_656
O3 Ti0 1.978755 1_665
O3 Rh1 2.074128 1_565
O3 Rh0 2.074128 1_666
O4 Ti1 2.001466 1_555
O4 Ti0 2.001471 1_565
O4 Rh1 2.083286 1_565
O5 Ti0 2.001466 1_665
O5 Ti1 2.001466 1_655
O5 Rh0 2.083291 1_665
O6 Ti1 1.978755 1_555
O6 Rh0 2.074128 1_565
O6 Rh1 2.074128 1_565
O7 Ti0 1.978755 1_555
O7 Rh1 2.074128 1_555
O7 Rh0 2.074128 1_555
