# generated using pymatgen
data_Th(GePt)2
_symmetry_space_group_name_H-M   'P 1'
_cell_length_a   4.38901871
_cell_length_b   4.38901871
_cell_length_c   9.90181561
_cell_angle_alpha   90.00000000
_cell_angle_beta   90.00000000
_cell_angle_gamma   90.00000000
_symmetry_Int_Tables_number   1
_chemical_formula_structural   Th(GePt)2
_chemical_formula_sum   'Th2 Ge4 Pt4'
_cell_volume   190.74347882
_cell_formula_units_Z   2
loop_
 _symmetry_equiv_pos_site_id
 _symmetry_equiv_pos_as_xyz
  1  'x, y, z'
loop_
 _atom_site_type_symbol
 _atom_site_label
 _atom_site_symmetry_multiplicity
 _atom_site_fract_x
 _atom_site_fract_y
 _atom_site_fract_z
 _atom_site_occupancy
  Th  Th0  1  0.00000000  0.50000000  0.24509215  1
  Th  Th1  1  0.50000000  -0.00000000  0.75490785  1
  Ge  Ge0  1  0.00000000  0.00000000  0.50000000  1
  Ge  Ge1  1  0.50000000  0.50000000  0.50000000  1
  Ge  Ge2  1  -0.00000000  0.50000000  0.86864569  1
  Ge  Ge3  1  0.50000000  -0.00000000  0.13135431  1
  Pt  Pt0  1  -0.00000000  -0.00000000  -0.00000000  1
  Pt  Pt1  1  0.50000000  0.50000000  -0.00000000  1
  Pt  Pt2  1  0.00000000  0.50000000  0.62063609  1
  Pt  Pt3  1  0.50000000  0.00000000  0.37936391  1
loop_
_geom_bond_atom_site_label_1
_geom_bond_atom_site_label_2
_geom_bond_distance
_geom_bond_site_symmetry_2
Ge0 Pt3 2.498548 1_555
Ge0 Pt2 2.498548 1_545
Ge0 Pt2 2.498548 1_555
Ge0 Pt3 2.498548 1_455
Ge0 Th1 3.344653 1_455
Ge0 Th0 3.344653 1_555
Ge0 Th0 3.344653 1_545
Ge0 Th1 3.344653 1_555
Ge1 Pt3 2.498548 1_555
Ge1 Pt3 2.498548 1_565
Ge1 Pt2 2.498548 1_555
Ge1 Pt2 2.498548 1_655
Ge1 Th0 3.344653 1_555
Ge1 Th1 3.344653 1_565
Ge1 Th0 3.344653 1_655
Ge1 Th1 3.344653 1_555
Ge2 Pt2 2.455745 1_555
Ge2 Pt1 2.550990 1_456
Ge2 Pt0 2.550990 1_556
Ge2 Pt0 2.550990 1_566
Ge2 Pt1 2.550990 1_556
Ge2 Th1 3.301529 1_455
Ge2 Th1 3.301529 1_565
Ge2 Th1 3.301529 1_555
Ge2 Th1 3.301529 1_465
Ge3 Pt3 2.455745 1_555
Ge3 Pt0 2.550990 1_655
Ge3 Pt1 2.550990 1_555
Ge3 Pt1 2.550990 1_545
Ge3 Pt0 2.550990 1_555
Ge3 Th0 3.301529 1_655
Ge3 Th0 3.301529 1_645
Ge3 Th0 3.301529 1_555
Ge3 Th0 3.301529 1_545
Pt0 Th1 3.271927 1_454
Pt0 Th1 3.271927 1_554
Pt0 Th0 3.271927 1_555
Pt0 Th0 3.271927 1_545
Pt1 Th1 3.271927 1_564
Pt1 Th1 3.271927 1_554
Pt1 Th0 3.271927 1_555
Pt1 Th0 3.271927 1_655
Pt2 Th1 3.376300 1_555
Pt2 Th1 3.376300 1_465
Pt2 Th1 3.376300 1_455
Pt2 Th1 3.376300 1_565
Pt3 Th0 3.376300 1_645
Pt3 Th0 3.376300 1_555
Pt3 Th0 3.376300 1_545
Pt3 Th0 3.376300 1_655
