# generated using pymatgen
data_Tb(CuTe)3
_symmetry_space_group_name_H-M   'P 1'
_cell_length_a   8.21067560
_cell_length_b   8.21067560
_cell_length_c   8.21067591
_cell_angle_alpha   54.09418855
_cell_angle_beta   54.09418855
_cell_angle_gamma   54.09419400
_symmetry_Int_Tables_number   1
_chemical_formula_structural   Tb(CuTe)3
_chemical_formula_sum   'Tb2 Cu6 Te6'
_cell_volume   337.42773322
_cell_formula_units_Z   2
loop_
 _symmetry_equiv_pos_site_id
 _symmetry_equiv_pos_as_xyz
  1  'x, y, z'
loop_
 _atom_site_type_symbol
 _atom_site_label
 _atom_site_symmetry_multiplicity
 _atom_site_fract_x
 _atom_site_fract_y
 _atom_site_fract_z
 _atom_site_occupancy
  Tb  Tb0  1  0.66594900  0.66594900  0.66594900  1
  Tb  Tb1  1  0.33405100  0.33405100  0.33405100  1
  Cu  Cu0  1  0.87359500  0.52808700  0.23104200  1
  Cu  Cu1  1  0.52808700  0.23104200  0.87359500  1
  Cu  Cu2  1  0.23104200  0.87359500  0.52808700  1
  Cu  Cu3  1  0.76895800  0.12640500  0.47191300  1
  Cu  Cu4  1  0.47191300  0.76895800  0.12640500  1
  Cu  Cu5  1  0.12640500  0.47191300  0.76895800  1
  Te  Te0  1  0.08186500  0.76385800  0.40460900  1
  Te  Te1  1  0.40460900  0.08186500  0.76385800  1
  Te  Te2  1  0.76385800  0.40460900  0.08186500  1
  Te  Te3  1  0.23614200  0.59539100  0.91813500  1
  Te  Te4  1  0.59539100  0.91813500  0.23614200  1
  Te  Te5  1  0.91813500  0.23614200  0.59539100  1
loop_
_geom_bond_atom_site_label_1
_geom_bond_atom_site_label_2
_geom_bond_distance
_geom_bond_site_symmetry_2
Tb0 Te3 3.081758 1_555
Tb0 Te4 3.081758 1_555
Tb0 Te5 3.081758 1_555
Tb0 Te0 3.084551 1_655
Tb0 Te2 3.084551 1_556
Tb0 Te1 3.084551 1_565
Tb1 Te2 3.081758 1_555
Tb1 Te1 3.081758 1_555
Tb1 Te0 3.081758 1_555
Tb1 Te5 3.084551 1_455
Tb1 Te3 3.084551 1_554
Tb1 Te4 3.084551 1_545
Cu0 Te5 2.583249 1_555
Cu0 Te4 2.634516 1_555
Cu0 Te3 2.657276 1_654
Cu0 Te2 2.676249 1_555
Cu1 Te3 2.583249 1_555
Cu1 Te5 2.634516 1_555
Cu1 Te4 2.657276 1_546
Cu1 Te1 2.676248 1_555
Cu2 Te4 2.583249 1_555
Cu2 Te3 2.634516 1_555
Cu2 Te5 2.657276 1_465
Cu2 Te0 2.676248 1_555
Cu3 Te1 2.583249 1_555
Cu3 Te2 2.634516 1_555
Cu3 Te0 2.657276 1_645
Cu3 Te5 2.676248 1_555
Cu4 Te2 2.583249 1_555
Cu4 Te0 2.634516 1_555
Cu4 Te1 2.657276 1_564
Cu4 Te4 2.676248 1_555
Cu5 Te0 2.583249 1_555
Cu5 Te1 2.634516 1_555
Cu5 Te2 2.657276 1_456
Cu5 Te3 2.676249 1_555
