# generated using pymatgen
data_Ba2Sr2CoCu3O10
_symmetry_space_group_name_H-M   'P 1'
_cell_length_a   11.25608207
_cell_length_b   11.20550959
_cell_length_c   18.07524654
_cell_angle_alpha   108.21127768
_cell_angle_beta   108.16494579
_cell_angle_gamma   89.61372929
_symmetry_Int_Tables_number   1
_chemical_formula_structural   Ba2Sr2CoCu3O10
_chemical_formula_sum   'Ba16 Sr16 Co8 Cu24 O80'
_cell_volume   2047.29530981
_cell_formula_units_Z   8
loop_
 _symmetry_equiv_pos_site_id
 _symmetry_equiv_pos_as_xyz
  1  'x, y, z'
loop_
 _atom_site_type_symbol
 _atom_site_label
 _atom_site_symmetry_multiplicity
 _atom_site_fract_x
 _atom_site_fract_y
 _atom_site_fract_z
 _atom_site_occupancy
  Ba  Ba0  1  0.30599286  0.05519035  0.11769583  1
  Ba  Ba1  1  0.30420359  0.05934922  0.61803093  1
  Ba  Ba2  1  0.30501537  0.55722396  0.11582011  1
  Ba  Ba3  1  0.80580864  0.05944871  0.11738747  1
  Ba  Ba4  1  0.80819330  0.55266593  0.11568522  1
  Ba  Ba5  1  0.18935647  0.94640234  0.38717096  1
  Ba  Ba6  1  0.18690474  0.94212360  0.87807116  1
  Ba  Ba7  1  0.68650298  0.43726529  0.87639260  1
  Ba  Ba8  1  0.05378560  0.31331505  0.11906602  1
  Ba  Ba9  1  0.05859050  0.80837783  0.11571978  1
  Ba  Ba10  1  0.55864173  0.31097707  0.11971437  1
  Ba  Ba11  1  0.55448400  0.81057017  0.11709513  1
  Ba  Ba12  1  0.44132199  0.68868159  0.38515684  1
  Ba  Ba13  1  0.43767698  0.69056600  0.87859734  1
  Ba  Ba14  1  0.93852561  0.69018937  0.38582809  1
  Ba  Ba15  1  0.93420053  0.68795523  0.87593733  1
  Sr  Sr0  1  0.30683182  0.55211510  0.60796357  1
  Sr  Sr1  1  0.80804664  0.06027294  0.61033133  1
  Sr  Sr2  1  0.80198896  0.55515631  0.60790427  1
  Sr  Sr3  1  0.19768506  0.44531297  0.39449905  1
  Sr  Sr4  1  0.19176054  0.43842606  0.88523379  1
  Sr  Sr5  1  0.69719491  0.44614471  0.39475458  1
  Sr  Sr6  1  0.69996278  0.94878833  0.39401208  1
  Sr  Sr7  1  0.68993449  0.94411286  0.88454362  1
  Sr  Sr8  1  0.05331570  0.30666773  0.60867920  1
  Sr  Sr9  1  0.05221869  0.79948820  0.60712876  1
  Sr  Sr10  1  0.55840142  0.30753823  0.60906608  1
  Sr  Sr11  1  0.55369106  0.79847336  0.60846294  1
  Sr  Sr12  1  0.45074911  0.19949661  0.39391025  1
  Sr  Sr13  1  0.44097673  0.19365669  0.88876680  1
  Sr  Sr14  1  0.94651808  0.19726753  0.39452799  1
  Sr  Sr15  1  0.94528867  0.19719660  0.88753766  1
  Co  Co0  1  0.99057410  0.99833187  0.99019669  1
  Co  Co1  1  0.99318719  0.49350551  0.98778112  1
  Co  Co2  1  0.49374773  0.99545444  0.98967269  1
  Co  Co3  1  0.50340800  0.00240427  0.50331661  1
  Co  Co4  1  0.49325056  0.49415012  0.99055681  1
  Co  Co5  1  0.24049084  0.74267973  0.98536541  1
  Co  Co6  1  0.74136927  0.24087903  0.98450282  1
  Co  Co7  1  0.74539825  0.74850459  0.99628746  1
  Cu  Cu0  1  0.00084743  0.00378266  0.50544827  1
  Cu  Cu1  1  0.00281226  0.50043886  0.50275930  1
  Cu  Cu2  1  0.50225975  0.50042159  0.50246998  1
  Cu  Cu3  1  0.24615128  0.24764055  0.99462201  1
  Cu  Cu4  1  0.25266429  0.25233615  0.50277941  1
  Cu  Cu5  1  0.25216375  0.75106336  0.50448878  1
  Cu  Cu6  1  0.75274345  0.25217666  0.50203972  1
  Cu  Cu7  1  0.75224450  0.75472757  0.50656719  1
  Cu  Cu8  1  0.11848361  0.10808923  0.25441257  1
  Cu  Cu9  1  0.10894565  0.10124979  0.74749214  1
  Cu  Cu10  1  0.12094222  0.60006760  0.25473822  1
  Cu  Cu11  1  0.11419936  0.59100110  0.74516211  1
  Cu  Cu12  1  0.62062708  0.10619352  0.25703773  1
  Cu  Cu13  1  0.61707220  0.09499153  0.74795047  1
  Cu  Cu14  1  0.61929112  0.60405285  0.25235058  1
  Cu  Cu15  1  0.61476226  0.60228281  0.74678671  1
  Cu  Cu16  1  0.37012148  0.39340178  0.25278017  1
  Cu  Cu17  1  0.36194771  0.39904819  0.74735415  1
  Cu  Cu18  1  0.37487436  0.90600082  0.25827746  1
  Cu  Cu19  1  0.36704283  0.90380136  0.74880049  1
  Cu  Cu20  1  0.87074229  0.39532576  0.25797554  1
  Cu  Cu21  1  0.86684971  0.39400498  0.74411791  1
  Cu  Cu22  1  0.86528030  0.90311974  0.25213665  1
  Cu  Cu23  1  0.85879567  0.90905249  0.74902023  1
  O  O0  1  0.12070202  0.13036465  0.49946665  1
  O  O1  1  0.10929023  0.11619585  0.99503206  1
  O  O2  1  0.12791379  0.62512284  0.50145594  1
  O  O3  1  0.11728005  0.61872272  0.99120174  1
  O  O4  1  0.62673141  0.12708404  0.49762551  1
  O  O5  1  0.61859644  0.11788672  0.98953115  1
  O  O6  1  0.62585954  0.62638066  0.50029754  1
  O  O7  1  0.61125493  0.61397287  0.99509839  1
  O  O8  1  0.11240317  0.38078993  0.99578606  1
  O  O9  1  0.12832637  0.37658162  0.50446086  1
  O  O10  1  0.12913839  0.86397511  0.99653931  1
  O  O11  1  0.12317678  0.87640993  0.50804552  1
  O  O12  1  0.62947439  0.35960721  0.99579731  1
  O  O13  1  0.62768747  0.37801201  0.50552663  1
  O  O14  1  0.61645193  0.88120784  0.99711829  1
  O  O15  1  0.62434526  0.88663703  0.50848966  1
  O  O16  1  0.38494080  0.12115230  0.49989512  1
  O  O17  1  0.38129903  0.11435869  0.99421040  1
  O  O18  1  0.37271646  0.61970052  0.50013808  1
  O  O19  1  0.35729618  0.62891342  0.99297709  1
  O  O20  1  0.87328267  0.12398625  0.49739665  1
  O  O21  1  0.86151248  0.12882631  0.99297173  1
  O  O22  1  0.87095400  0.62368485  0.50087439  1
  O  O23  1  0.87610337  0.61379057  0.99298589  1
  O  O24  1  0.37882750  0.38132885  0.99688723  1
  O  O25  1  0.37868166  0.37597581  0.50429614  1
  O  O26  1  0.37282792  0.87664270  0.99876286  1
  O  O27  1  0.37887944  0.87683452  0.50863906  1
  O  O28  1  0.87370173  0.37308592  0.99608850  1
  O  O29  1  0.87673418  0.37882702  0.50611026  1
  O  O30  1  0.87915314  0.88505495  0.99758943  1
  O  O31  1  0.87360209  0.88142065  0.50820761  1
  O  O32  1  0.06828623  0.08510724  0.14275892  1
  O  O33  1  0.05980935  0.09146378  0.63820884  1
  O  O34  1  0.07616362  0.58422150  0.14516972  1
  O  O35  1  0.08078448  0.58416113  0.63736080  1
  O  O36  1  0.57397968  0.08492277  0.14631107  1
  O  O37  1  0.58076286  0.09149942  0.64048305  1
  O  O38  1  0.57439031  0.57904423  0.14027669  1
  O  O39  1  0.57470438  0.58557242  0.63731507  1
  O  O40  1  0.44239596  0.40865133  0.36257190  1
  O  O41  1  0.42866085  0.41209075  0.86038394  1
  O  O42  1  0.44415489  0.92328148  0.36848890  1
  O  O43  1  0.43328132  0.92240863  0.86024868  1
  O  O44  1  0.94242330  0.41118043  0.36775785  1
  O  O45  1  0.93775001  0.41035613  0.85566314  1
  O  O46  1  0.92698450  0.91915404  0.36242215  1
  O  O47  1  0.92745160  0.92830794  0.86241414  1
  O  O48  1  0.31597141  0.30718736  0.13925471  1
  O  O49  1  0.32071510  0.31004381  0.63651412  1
  O  O50  1  0.32807581  0.81116636  0.14914533  1
  O  O51  1  0.33199796  0.80091944  0.64200689  1
  O  O52  1  0.81935884  0.30905082  0.14730093  1
  O  O53  1  0.82200488  0.29871075  0.63493395  1
  O  O54  1  0.82052221  0.81080457  0.13850797  1
  O  O55  1  0.82662637  0.80527958  0.64153708  1
  O  O56  1  0.19213647  0.20279169  0.36384919  1
  O  O57  1  0.18378712  0.19271792  0.86057471  1
  O  O58  1  0.18132806  0.69484442  0.36380653  1
  O  O59  1  0.17942545  0.68726357  0.85749888  1
  O  O60  1  0.69234005  0.20546773  0.36547591  1
  O  O61  1  0.69493976  0.18669382  0.85932611  1
  O  O62  1  0.67801901  0.70605972  0.35985582  1
  O  O63  1  0.67904330  0.69646144  0.85947217  1
  O  O64  1  0.47009125  0.04995798  0.26114153  1
  O  O65  1  0.46686147  0.05013086  0.75862232  1
  O  O66  1  0.47454564  0.52126643  0.24907302  1
  O  O67  1  0.46118466  0.53086668  0.74107673  1
  O  O68  1  0.97249887  0.04425458  0.26211621  1
  O  O69  1  0.95233808  0.05387076  0.75064357  1
  O  O70  1  0.97400737  0.52134499  0.25050267  1
  O  O71  1  0.95622426  0.53224715  0.73614138  1
  O  O72  1  0.22570144  0.46569795  0.26269135  1
  O  O73  1  0.20396243  0.44369599  0.74862532  1
  O  O74  1  0.22308246  0.97411867  0.25112152  1
  O  O75  1  0.20640002  0.95837852  0.73621601  1
  O  O76  1  0.72571735  0.47122381  0.26450049  1
  O  O77  1  0.71370363  0.46027769  0.74052003  1
  O  O78  1  0.71520650  0.96462706  0.25926661  1
  O  O79  1  0.69599460  0.93802384  0.74540450  1
loop_
_geom_bond_atom_site_label_1
_geom_bond_atom_site_label_2
_geom_bond_distance
_geom_bond_site_symmetry_2
Ba0 O64 2.691726 1_555
Ba0 O48 2.725302 1_555
Ba0 O26 2.736780 1_544
Ba0 O10 2.784981 1_544
Ba0 O32 2.850516 1_555
Ba0 O1 2.855090 1_554
Ba0 O17 2.872678 1_554
Ba0 O36 2.900125 1_555
Ba0 O50 2.955714 1_545
Ba0 O74 3.208850 1_545
Ba1 O65 2.661048 1_555
Ba1 O27 2.698965 1_545
Ba1 O11 2.699957 1_545
Ba1 O49 2.723831 1_555
Ba1 O0 2.788574 1_555
Ba1 O16 2.829822 1_555
Ba1 O33 2.891415 1_555
Ba1 O37 3.020121 1_555
Ba1 O51 3.059285 1_545
Ba1 O75 3.170075 1_545
Ba2 O66 2.708410 1_555
Ba2 O50 2.714499 1_555
Ba2 O24 2.763993 1_554
Ba2 O34 2.783852 1_555
Ba2 O8 2.785725 1_554
Ba2 O19 2.803187 1_554
Ba2 O3 2.827879 1_554
Ba2 O38 2.924992 1_555
Ba2 O48 2.957908 1_555
Ba3 O52 2.673474 1_555
Ba3 O68 2.758005 1_555
Ba3 O30 2.763550 1_544
Ba3 O14 2.777122 1_544
Ba3 O36 2.812741 1_555
Ba3 O21 2.834308 1_554
Ba3 O5 2.846245 1_554
Ba3 O32 2.847123 1_655
Ba3 O54 2.924923 1_545
Ba4 O70 2.689773 1_555
Ba4 O28 2.742449 1_554
Ba4 O54 2.789319 1_555
Ba4 O12 2.798778 1_554
Ba4 O38 2.801353 1_555
Ba4 O23 2.825906 1_554
Ba4 O7 2.835405 1_554
Ba4 O34 2.898517 1_655
Ba4 O52 2.952965 1_555
Ba5 O0 2.703286 1_565
Ba5 O74 2.710887 1_555
Ba5 O58 2.714389 1_555
Ba5 O16 2.756819 1_565
Ba5 O11 2.835008 1_555
Ba5 O27 2.847122 1_555
Ba5 O46 2.849256 1_455
Ba5 O42 2.990972 1_555
Ba5 O56 3.032998 1_565
Ba5 O68 3.216027 1_465
Ba6 O75 2.701675 1_555
Ba6 O17 2.753194 1_565
Ba6 O1 2.754720 1_565
Ba6 O59 2.760639 1_555
Ba6 O26 2.794701 1_555
Ba6 O10 2.796935 1_555
Ba6 O47 2.845405 1_455
Ba6 O43 2.889239 1_555
Ba6 O57 2.921154 1_565
Ba7 O77 2.656609 1_555
Ba7 O61 2.731502 1_555
Ba7 O23 2.748764 1_555
Ba7 O7 2.774333 1_555
Ba7 O28 2.783464 1_555
Ba7 O12 2.805833 1_555
Ba7 O41 2.832490 1_555
Ba7 O45 2.967794 1_555
Ba7 O63 3.012008 1_555
Ba8 O32 2.717449 1_555
Ba8 O72 2.746153 1_555
Ba8 O28 2.757059 1_454
Ba8 O8 2.819383 1_554
Ba8 O1 2.838136 1_554
Ba8 O52 2.842927 1_455
Ba8 O48 2.861612 1_555
Ba8 O21 2.862171 1_454
Ba8 O34 2.922698 1_555
Ba8 O70 3.118485 1_455
Ba9 O74 2.692057 1_555
Ba9 O34 2.719361 1_555
Ba9 O10 2.751632 1_554
Ba9 O30 2.794858 1_454
Ba9 O3 2.817249 1_554
Ba9 O54 2.833993 1_455
Ba9 O23 2.844436 1_454
Ba9 O50 2.900690 1_555
Ba9 O32 2.981670 1_565
Ba10 O36 2.716759 1_555
Ba10 O76 2.765786 1_555
Ba10 O12 2.798516 1_554
Ba10 O24 2.813841 1_554
Ba10 O52 2.820421 1_555
Ba10 O17 2.845504 1_554
Ba10 O48 2.863601 1_555
Ba10 O38 2.908751 1_555
Ba10 O5 2.908970 1_554
Ba10 O66 3.133994 1_555
Ba11 O78 2.688369 1_555
Ba11 O26 2.747079 1_554
Ba11 O38 2.751291 1_555
Ba11 O50 2.783563 1_555
Ba11 O14 2.799895 1_554
Ba11 O7 2.819087 1_554
Ba11 O19 2.864411 1_554
Ba11 O54 2.897230 1_555
Ba11 O36 2.949612 1_565
Ba12 O6 2.706758 1_555
Ba12 O66 2.718337 1_555
Ba12 O42 2.739450 1_555
Ba12 O18 2.743367 1_555
Ba12 O27 2.817389 1_555
Ba12 O58 2.833361 1_555
Ba12 O62 2.857940 1_555
Ba12 O15 2.870790 1_555
Ba12 O40 3.035622 1_555
Ba12 O72 3.210706 1_555
Ba13 O67 2.659803 1_555
Ba13 O43 2.718122 1_555
Ba13 O7 2.744096 1_555
Ba13 O19 2.763636 1_555
Ba13 O14 2.777028 1_555
Ba13 O26 2.781253 1_555
Ba13 O59 2.810391 1_555
Ba13 O63 2.847344 1_555
Ba13 O41 3.032700 1_555
Ba14 O46 2.723637 1_555
Ba14 O22 2.724068 1_555
Ba14 O70 2.725534 1_555
Ba14 O2 2.756386 1_655
Ba14 O11 2.805131 1_655
Ba14 O62 2.834986 1_555
Ba14 O31 2.836019 1_555
Ba14 O58 2.885076 1_655
Ba14 O44 3.041715 1_555
Ba14 O76 3.163558 1_555
Ba15 O71 2.668282 1_555
Ba15 O3 2.738788 1_655
Ba15 O23 2.750156 1_555
Ba15 O47 2.777840 1_555
Ba15 O63 2.797774 1_555
Ba15 O10 2.800986 1_655
Ba15 O30 2.809364 1_555
Ba15 O59 2.881306 1_655
Ba15 O45 3.017767 1_555
Co0 O1 1.848357 1_665
Co0 O30 1.853090 1_555
Co0 O21 2.054769 1_565
Co0 O47 2.075271 1_555
Co0 O10 2.162672 1_655
Co0 O32 2.479211 1_666
Co1 O8 1.840439 1_655
Co1 O23 1.880568 1_555
Co1 O3 1.960097 1_655
Co1 O28 1.982226 1_555
Co1 O45 2.155998 1_555
Co1 O34 2.558777 1_656
Co2 O17 1.832412 1_565
Co2 O14 1.879516 1_555
Co2 O5 1.971669 1_565
Co2 O26 1.988121 1_555
Co2 O43 2.103277 1_555
Co2 O36 2.545699 1_566
Co3 O15 1.875440 1_545
Co3 O16 1.878472 1_555
Co3 O4 2.023465 1_555
Co3 O27 2.036950 1_545
Co3 O42 2.194101 1_545
Co3 O37 2.240635 1_555
Co4 O7 1.860370 1_555
Co4 O24 1.863983 1_555
Co4 O41 2.121407 1_555
Co4 O19 2.143232 1_555
Co4 O12 2.144896 1_555
Co4 O38 2.433980 1_556
Co5 O19 1.829462 1_555
Co5 O10 1.849982 1_555
Co5 O3 2.018080 1_555
Co5 O26 2.027051 1_555
Co5 O59 2.077972 1_555
Co5 O50 2.663661 1_556
Co6 O12 1.834657 1_555
Co6 O21 1.843090 1_555
Co6 O5 1.999930 1_555
Co6 O28 2.024507 1_555
Co6 O61 2.041927 1_555
Co6 O52 2.646989 1_556
Co7 O14 2.070893 1_555
Co7 O23 2.101255 1_555
Co7 O7 2.131454 1_555
Co7 O30 2.143588 1_555
Co7 O63 2.228526 1_555
Co7 O54 2.311199 1_556
Cu0 O20 1.965538 1_455
Cu0 O11 1.977470 1_545
Cu0 O31 2.011886 1_445
Cu0 O0 2.014013 1_555
Cu0 O33 2.169418 1_555
Cu0 O46 2.326386 1_445
Cu1 O9 1.973908 1_555
Cu1 O2 2.000814 1_555
Cu1 O29 2.001478 1_455
Cu1 O22 2.020280 1_455
Cu1 O35 2.196078 1_555
Cu1 O44 2.205986 1_455
Cu2 O13 1.962238 1_555
Cu2 O18 1.971051 1_555
Cu2 O25 1.991007 1_555
Cu2 O6 2.006103 1_555
Cu2 O39 2.198571 1_555
Cu2 O40 2.286355 1_555
Cu3 O24 2.104710 1_555
Cu3 O8 2.112543 1_555
Cu3 O17 2.124665 1_555
Cu3 O1 2.141784 1_555
Cu3 O57 2.180700 1_555
Cu3 O48 2.352235 1_556
Cu4 O9 1.967690 1_555
Cu4 O25 1.977563 1_555
Cu4 O0 1.999677 1_555
Cu4 O16 2.086006 1_555
Cu4 O49 2.173322 1_555
Cu4 O56 2.268359 1_555
Cu5 O2 1.970029 1_555
Cu5 O27 1.980035 1_555
Cu5 O18 1.995369 1_555
Cu5 O11 2.014745 1_555
Cu5 O51 2.245948 1_555
Cu5 O58 2.289127 1_555
Cu6 O29 1.965895 1_555
Cu6 O4 1.967081 1_555
Cu6 O20 1.969943 1_555
Cu6 O13 1.986623 1_555
Cu6 O53 2.169032 1_555
Cu6 O60 2.231629 1_555
Cu7 O31 1.963895 1_555
Cu7 O22 1.979156 1_555
Cu7 O6 1.982479 1_555
Cu7 O15 2.056452 1_555
Cu7 O55 2.200601 1_555
Cu7 O62 2.397605 1_555
Cu8 O56 1.844884 1_555
Cu8 O32 1.850591 1_555
Cu8 O68 1.857948 1_455
Cu8 O74 1.899314 1_545
Cu9 O33 1.845010 1_555
Cu9 O69 1.867259 1_455
Cu9 O57 1.888563 1_555
Cu9 O75 1.928639 1_545
Cu10 O58 1.828122 1_555
Cu10 O34 1.834904 1_555
Cu10 O70 1.848767 1_455
Cu10 O72 1.919338 1_555
Cu11 O71 1.841160 1_455
Cu11 O35 1.842339 1_555
Cu11 O59 1.880881 1_555
Cu11 O73 1.937014 1_555
Cu12 O36 1.840230 1_555
Cu12 O60 1.842177 1_555
Cu12 O64 1.842745 1_555
Cu12 O78 1.908361 1_545
Cu13 O37 1.843794 1_555
Cu13 O65 1.850426 1_555
Cu13 O61 1.869718 1_555
Cu13 O79 1.959302 1_545
Cu14 O62 1.827689 1_555
Cu14 O66 1.855917 1_555
Cu14 O38 1.856447 1_555
Cu14 O76 1.927412 1_555
Cu15 O39 1.834935 1_555
Cu15 O67 1.869541 1_555
Cu15 O63 1.879822 1_555
Cu15 O77 1.930618 1_555
Cu16 O72 1.845015 1_555
Cu16 O40 1.847324 1_555
Cu16 O48 1.872042 1_555
Cu16 O66 1.889651 1_555
Cu17 O49 1.844317 1_555
Cu17 O73 1.849178 1_555
Cu17 O41 1.901986 1_555
Cu17 O67 1.910089 1_555
Cu18 O50 1.829563 1_555
Cu18 O42 1.845643 1_555
Cu18 O74 1.850658 1_555
Cu18 O64 1.920943 1_565
Cu19 O51 1.830631 1_555
Cu19 O43 1.860238 1_555
Cu19 O75 1.873755 1_555
Cu19 O65 1.923810 1_565
Cu20 O52 1.829844 1_555
Cu20 O44 1.844854 1_555
Cu20 O76 1.854890 1_555
Cu20 O70 1.898058 1_555
Cu21 O53 1.832699 1_555
Cu21 O77 1.862877 1_555
Cu21 O45 1.871731 1_555
Cu21 O71 1.919248 1_555
Cu22 O46 1.844727 1_555
Cu22 O78 1.846537 1_555
Cu22 O54 1.891068 1_555
Cu22 O68 1.924018 1_565
Cu23 O79 1.843446 1_555
Cu23 O55 1.847348 1_555
Cu23 O47 1.892869 1_555
Cu23 O69 1.927920 1_565
O0 Sr14 2.560103 1_455
O0 Sr8 2.617413 1_555
O1 Sr15 2.617276 1_455
O2 Sr9 2.617528 1_555
O2 Sr3 2.627661 1_555
O2 Sr0 2.641237 1_555
O3 Sr4 2.648191 1_555
O4 Sr12 2.590443 1_555
O4 Sr6 2.603877 1_545
O4 Sr10 2.671512 1_555
O4 Sr1 2.686299 1_555
O5 Sr7 2.580117 1_545
O5 Sr13 2.590095 1_555
O6 Sr11 2.610292 1_555
O6 Sr5 2.624510 1_555
O6 Sr2 2.625861 1_555
O8 Sr15 2.615418 1_455
O8 Sr4 2.671221 1_555
O9 Sr8 2.607352 1_555
O9 Sr0 2.610656 1_555
O9 Sr3 2.661877 1_555
O9 Sr14 2.682931 1_455
O11 Sr9 2.540565 1_555
O12 Sr13 2.635853 1_555
O13 Sr10 2.564464 1_555
O13 Sr2 2.589726 1_555
O13 Sr12 2.657858 1_555
O13 Sr5 2.672858 1_555
O14 Sr7 2.697263 1_555
O15 Sr1 2.625292 1_565
O15 Sr11 2.626091 1_555
O15 Sr6 2.738245 1_555
O16 Sr12 2.633256 1_555
O16 Sr10 2.672983 1_555
O17 Sr13 2.595800 1_555
O18 Sr3 2.592333 1_555
O18 Sr0 2.598722 1_555
O18 Sr11 2.666992 1_555
O19 Sr4 2.648298 1_555
O20 Sr6 2.576366 1_545
O20 Sr14 2.594277 1_555
O20 Sr1 2.658666 1_555
O20 Sr8 2.698830 1_655
O21 Sr7 2.648289 1_545
O21 Sr15 2.674114 1_555
O22 Sr5 2.605873 1_555
O22 Sr2 2.609189 1_555
O22 Sr9 2.641667 1_655
O24 Sr13 2.644787 1_555
O24 Sr4 2.656192 1_555
O25 Sr0 2.583131 1_555
O25 Sr10 2.600933 1_555
O25 Sr12 2.659144 1_555
O25 Sr3 2.667287 1_555
O27 Sr11 2.579105 1_555
O28 Sr15 2.632655 1_555
O29 Sr8 2.580563 1_655
O29 Sr2 2.582198 1_555
O29 Sr5 2.663947 1_555
O29 Sr14 2.688004 1_555
O30 Sr7 2.694835 1_555
O31 Sr1 2.546653 1_565
O31 Sr9 2.615698 1_655
O31 Sr6 2.662536 1_555
O33 Sr8 2.623593 1_555
O33 Sr1 2.723925 1_455
O33 Sr9 3.138815 1_545
O35 Sr9 2.632100 1_555
O35 Sr0 2.756212 1_555
O35 Sr8 2.989734 1_555
O35 Sr2 3.016766 1_455
O37 Sr10 2.647290 1_555
O37 Sr1 2.775350 1_555
O37 Sr11 3.150387 1_545
O39 Sr11 2.590837 1_555
O39 Sr2 2.768903 1_555
O39 Sr0 2.899473 1_555
O39 Sr10 2.992623 1_555
O40 Sr12 2.572193 1_555
O40 Sr5 2.750234 1_555
O40 Sr3 2.986080 1_555
O41 Sr13 2.647534 1_555
O41 Sr4 2.837739 1_555
O42 Sr6 2.772339 1_555
O42 Sr12 2.981506 1_565
O43 Sr7 2.783794 1_555
O43 Sr13 2.916852 1_565
O44 Sr14 2.586784 1_555
O44 Sr3 2.769261 1_655
O44 Sr5 2.952404 1_555
O45 Sr15 2.621316 1_555
O45 Sr4 2.741100 1_655
O46 Sr6 2.783174 1_555
O46 Sr14 2.982678 1_565
O47 Sr7 2.820486 1_555
O47 Sr15 2.901895 1_565
O49 Sr10 2.867522 1_555
O49 Sr8 2.891249 1_555
O49 Sr0 2.909901 1_555
O51 Sr0 2.657326 1_555
O51 Sr11 2.743615 1_555
O51 Sr9 3.011934 1_555
O53 Sr1 2.565248 1_555
O53 Sr8 2.795022 1_655
O53 Sr10 2.862214 1_555
O53 Sr2 3.057323 1_555
O55 Sr2 2.672510 1_555
O55 Sr9 2.792174 1_655
O55 Sr11 2.937861 1_555
O55 Sr1 3.074409 1_565
O56 Sr3 2.595326 1_555
O56 Sr12 2.791990 1_555
O56 Sr14 2.989074 1_455
O57 Sr4 2.645494 1_555
O57 Sr13 2.778086 1_555
O57 Sr15 2.871507 1_455
O58 Sr3 3.009810 1_555
O59 Sr4 2.978354 1_555
O60 Sr5 2.578416 1_555
O60 Sr14 2.749482 1_555
O60 Sr12 2.925573 1_555
O60 Sr6 3.072854 1_545
O61 Sr15 2.699207 1_555
O61 Sr7 2.896946 1_545
O61 Sr13 3.062769 1_555
O62 Sr6 2.589287 1_555
O62 Sr5 3.159431 1_555
O63 Sr7 2.665569 1_555
O64 Sr12 2.534121 1_555
O65 Sr13 2.502301 1_555
O67 Sr0 2.571074 1_555
O68 Sr14 2.572599 1_555
O69 Sr15 2.518944 1_555
O69 Sr1 2.572754 1_555
O71 Sr2 2.511869 1_555
O72 Sr3 2.576297 1_555
O73 Sr4 2.534198 1_555
O73 Sr8 2.562161 1_555
O75 Sr9 2.558580 1_555
O76 Sr5 2.571223 1_555
O77 Sr10 2.557247 1_555
O78 Sr6 2.554221 1_555
O79 Sr11 2.506034 1_555
O79 Sr7 2.516754 1_555
