# generated using pymatgen
data_Mg7Si4
_symmetry_space_group_name_H-M   'P 1'
_cell_length_a   3.54980600
_cell_length_b   8.51280600
_cell_length_c   14.82803906
_cell_angle_alpha   87.73996542
_cell_angle_beta   90.00000000
_cell_angle_gamma   90.00000000
_symmetry_Int_Tables_number   1
_chemical_formula_structural   Mg7Si4
_chemical_formula_sum   'Mg14 Si8'
_cell_volume   447.73714673
_cell_formula_units_Z   2
loop_
 _symmetry_equiv_pos_site_id
 _symmetry_equiv_pos_as_xyz
  1  'x, y, z'
loop_
 _atom_site_type_symbol
 _atom_site_label
 _atom_site_symmetry_multiplicity
 _atom_site_fract_x
 _atom_site_fract_y
 _atom_site_fract_z
 _atom_site_occupancy
  Mg  Mg0  1  0.50000000  0.13157200  0.88624000  1
  Mg  Mg1  1  0.50000000  0.50425900  0.50698600  1
  Mg  Mg2  1  0.00000000  0.34701700  0.37060100  1
  Mg  Mg3  1  0.00000000  0.59538200  0.66351900  1
  Mg  Mg4  1  0.50000000  0.66749700  0.82453900  1
  Mg  Mg5  1  0.50000000  0.22226800  0.21895300  1
  Mg  Mg6  1  0.00000000  0.75986400  0.41318700  1
  Mg  Mg7  1  0.00000000  0.21239800  0.57105100  1
  Mg  Mg8  1  0.00000000  0.27271900  0.03936700  1
  Mg  Mg9  1  0.00000000  0.84648800  0.94771100  1
  Mg  Mg10  1  0.50000000  0.57109000  0.03350200  1
  Mg  Mg11  1  0.50000000  0.98552800  0.08294500  1
  Mg  Mg12  1  0.50000000  0.86709300  0.58341800  1
  Mg  Mg13  1  0.50000000  0.05988900  0.40596900  1
  Si  Si0  1  0.00000000  0.77013700  0.15638200  1
  Si  Si1  1  0.00000000  0.91654400  0.75266200  1
  Si  Si2  1  0.50000000  0.36641900  0.74526800  1
  Si  Si3  1  0.50000000  0.56642200  0.29513000  1
  Si  Si4  1  0.00000000  0.48532600  0.18725800  1
  Si  Si5  1  0.00000000  0.40782900  0.85379200  1
  Si  Si6  1  0.50000000  0.09016000  0.70663300  1
  Si  Si7  1  0.50000000  0.85770100  0.25849800  1
loop_
_geom_bond_atom_site_label_1
_geom_bond_atom_site_label_2
_geom_bond_distance
_geom_bond_site_symmetry_2
Mg0 Si6 2.700197 1_555
Mg0 Si2 2.834915 1_555
Mg0 Si5 2.970376 1_555
Mg0 Si5 2.970376 1_655
Mg0 Mg9 3.113890 1_645
Mg0 Mg9 3.113890 1_545
Mg1 Mg2 3.040615 1_555
Mg1 Mg2 3.040615 1_655
Mg1 Mg3 3.046541 1_555
Mg1 Mg3 3.046541 1_655
Mg1 Mg6 3.095267 1_555
Mg1 Mg6 3.095267 1_655
Mg1 Si3 3.165023 1_555
Mg1 Mg7 3.168528 1_555
Mg1 Mg7 3.168528 1_655
Mg1 Mg12 3.331791 1_555
Mg2 Si3 2.779619 1_555
Mg2 Si3 2.779619 1_455
Mg2 Si4 2.919707 1_555
Mg3 Si2 2.869211 1_455
Mg3 Si2 2.869211 1_555
Mg3 Si1 3.083329 1_555
Mg4 Si5 2.854669 1_655
Mg4 Si5 2.854669 1_555
Mg4 Si2 2.861523 1_555
Mg4 Si1 2.933047 1_555
Mg4 Si1 2.933047 1_655
Mg4 Mg9 3.004532 1_555
Mg4 Mg9 3.004532 1_655
Mg5 Si4 2.881474 1_655
Mg5 Si4 2.881474 1_555
Mg5 Si7 3.135593 1_545
Mg5 Si3 3.181216 1_555
Mg6 Si7 2.992406 1_555
Mg6 Si7 2.992406 1_455
Mg6 Si3 3.025526 1_455
Mg6 Si3 3.025526 1_555
Mg7 Si6 2.847785 1_555
Mg7 Si6 2.847785 1_455
Mg8 Si4 2.897872 1_555
Mg8 Si5 2.940270 1_554
Mg9 Si1 2.929917 1_555
Mg9 Si0 3.136526 1_556
Mg10 Si4 2.958036 1_655
Mg10 Si4 2.958036 1_555
Mg10 Si0 3.095945 1_655
Mg10 Si0 3.095945 1_555
Mg10 Mg9 3.166953 1_554
Mg10 Mg9 3.166953 1_654
Mg11 Si0 2.746014 1_555
Mg11 Si0 2.746014 1_655
Mg11 Si7 2.781522 1_555
Mg11 Mg9 2.959642 1_654
Mg11 Mg9 2.959642 1_554
Mg12 Si6 2.686562 1_565
Mg12 Si1 3.115877 1_655
Mg12 Si1 3.115877 1_555
Mg13 Si7 2.835668 1_545
Si0 Si4 2.449583 1_555
Si0 Si7 2.467324 1_555
Si0 Si7 2.467324 1_455
Si1 Si6 2.391844 1_465
Si1 Si6 2.391844 1_565
Si2 Si5 2.430804 1_655
Si2 Si5 2.430804 1_555
Si2 Si6 2.442361 1_555
Si3 Si4 2.504488 1_655
Si3 Si4 2.504488 1_555
Si3 Si7 2.517388 1_555
