# generated using pymatgen
data_Lu2(B2Rh3)3
_symmetry_space_group_name_H-M   'P 1'
_cell_length_a   5.58478416
_cell_length_b   5.58478416
_cell_length_c   8.58786200
_cell_angle_alpha   90.00000000
_cell_angle_beta   90.00000000
_cell_angle_gamma   120.00000186
_symmetry_Int_Tables_number   1
_chemical_formula_structural   Lu2(B2Rh3)3
_chemical_formula_sum   'Lu2 B6 Rh9'
_cell_volume   231.96820752
_cell_formula_units_Z   1
loop_
 _symmetry_equiv_pos_site_id
 _symmetry_equiv_pos_as_xyz
  1  'x, y, z'
loop_
 _atom_site_type_symbol
 _atom_site_label
 _atom_site_symmetry_multiplicity
 _atom_site_fract_x
 _atom_site_fract_y
 _atom_site_fract_z
 _atom_site_occupancy
  Lu  Lu0  1  0.00000000  0.00000000  0.70302800  1
  Lu  Lu1  1  0.00000000  0.00000000  0.29697200  1
  B  B0  1  0.66666700  0.33333300  0.00000000  1
  B  B1  1  0.33333300  0.66666700  0.00000000  1
  B  B2  1  0.66666700  0.33333300  0.66764200  1
  B  B3  1  0.33333300  0.66666700  0.66764200  1
  B  B4  1  0.33333300  0.66666700  0.33235800  1
  B  B5  1  0.66666700  0.33333300  0.33235800  1
  Rh  Rh0  1  0.50000000  0.50000000  0.83499500  1
  Rh  Rh1  1  0.50000000  0.00000000  0.83499500  1
  Rh  Rh2  1  0.00000000  0.50000000  0.83499500  1
  Rh  Rh3  1  0.50000000  0.50000000  0.16500500  1
  Rh  Rh4  1  0.50000000  0.00000000  0.16500500  1
  Rh  Rh5  1  0.00000000  0.50000000  0.16500500  1
  Rh  Rh6  1  0.50000000  0.50000000  0.50000000  1
  Rh  Rh7  1  0.50000000  0.00000000  0.50000000  1
  Rh  Rh8  1  0.00000000  0.50000000  0.50000000  1
loop_
_geom_bond_atom_site_label_1
_geom_bond_atom_site_label_2
_geom_bond_distance
_geom_bond_site_symmetry_2
Lu0 Rh0 3.013612 1_555
Lu0 Rh0 3.013612 1_445
Lu0 Rh1 3.013612 1_455
Lu0 Rh1 3.013612 1_555
Lu0 Rh2 3.013612 1_555
Lu0 Rh2 3.013612 1_545
Lu0 Rh6 3.292038 1_555
Lu0 Rh6 3.292038 1_445
Lu0 Rh7 3.292038 1_455
Lu0 Rh8 3.292038 1_545
Lu0 Rh8 3.292038 1_555
Lu0 Rh7 3.292038 1_555
Lu0 Lu1 3.487153 1_555
Lu1 Rh3 3.013612 1_445
Lu1 Rh3 3.013612 1_555
Lu1 Rh5 3.013612 1_555
Lu1 Rh4 3.013612 1_555
Lu1 Rh5 3.013612 1_545
Lu1 Rh4 3.013612 1_455
Lu1 Rh6 3.292038 1_555
Lu1 Rh6 3.292038 1_445
Lu1 Rh7 3.292038 1_455
Lu1 Rh8 3.292038 1_545
Lu1 Rh8 3.292038 1_555
Lu1 Rh7 3.292038 1_555
B0 Rh5 2.146427 1_655
B0 Rh4 2.146427 1_555
B0 Rh2 2.146427 1_654
B0 Rh1 2.146427 1_554
B0 Rh3 2.146431 1_555
B0 Rh0 2.146431 1_554
B1 Rh5 2.146427 1_555
B1 Rh4 2.146427 1_565
B1 Rh2 2.146427 1_554
B1 Rh1 2.146427 1_564
B1 Rh3 2.146431 1_555
B1 Rh0 2.146431 1_554
B2 Rh2 2.159792 1_655
B2 Rh1 2.159792 1_555
B2 Rh0 2.159796 1_555
B2 Rh7 2.161445 1_555
B2 Rh8 2.161445 1_655
B2 Rh6 2.161448 1_555
B2 Lu0 3.238662 1_655
B2 Lu0 3.238667 1_555
B2 Lu0 3.238667 1_665
B3 Rh2 2.159792 1_555
B3 Rh1 2.159792 1_565
B3 Rh0 2.159796 1_555
B3 Rh8 2.161445 1_555
B3 Rh7 2.161445 1_565
B3 Rh6 2.161448 1_555
B3 Lu0 3.238662 1_565
B3 Lu0 3.238667 1_555
B3 Lu0 3.238667 1_665
B4 Rh5 2.159792 1_555
B4 Rh4 2.159792 1_565
B4 Rh3 2.159796 1_555
B4 Rh8 2.161445 1_555
B4 Rh7 2.161445 1_565
B4 Rh6 2.161448 1_555
B4 Lu1 3.238662 1_565
B4 Lu1 3.238667 1_665
B4 Lu1 3.238667 1_555
B5 Rh5 2.159792 1_655
B5 Rh4 2.159792 1_555
B5 Rh3 2.159796 1_555
B5 Rh8 2.161445 1_655
B5 Rh7 2.161445 1_555
B5 Rh6 2.161448 1_555
B5 Lu1 3.238662 1_655
B5 Lu1 3.238667 1_665
B5 Lu1 3.238667 1_555
