# generated using pymatgen
data_Ho4Ge8Pd
_symmetry_space_group_name_H-M   'P 1'
_cell_length_a   4.00474900
_cell_length_b   4.09701400
_cell_length_c   16.52421300
_cell_angle_alpha   90.00000000
_cell_angle_beta   90.00000000
_cell_angle_gamma   90.00000000
_symmetry_Int_Tables_number   1
_chemical_formula_structural   Ho4Ge8Pd
_chemical_formula_sum   'Ho4 Ge8 Pd1'
_cell_volume   271.12123498
_cell_formula_units_Z   1
loop_
 _symmetry_equiv_pos_site_id
 _symmetry_equiv_pos_as_xyz
  1  'x, y, z'
loop_
 _atom_site_type_symbol
 _atom_site_label
 _atom_site_symmetry_multiplicity
 _atom_site_fract_x
 _atom_site_fract_y
 _atom_site_fract_z
 _atom_site_occupancy
  Ho  Ho0  1  0.25000000  0.00000000  0.09634200  1
  Ho  Ho1  1  0.25000000  0.50000000  0.60886200  1
  Ho  Ho2  1  0.75000000  0.50000000  0.40028200  1
  Ho  Ho3  1  0.75000000  0.00000000  0.89291200  1
  Ge  Ge0  1  0.25000000  0.00000000  0.46758700  1
  Ge  Ge1  1  0.25000000  0.50000000  0.94432300  1
  Ge  Ge2  1  0.75000000  0.50000000  0.04606100  1
  Ge  Ge3  1  0.75000000  0.00000000  0.56504000  1
  Ge  Ge4  1  0.25000000  0.50000000  0.22876700  1
  Ge  Ge5  1  0.25000000  0.00000000  0.74750400  1
  Ge  Ge6  1  0.75000000  0.00000000  0.22785400  1
  Ge  Ge7  1  0.75000000  0.50000000  0.75475300  1
  Pd  Pd0  1  0.25000000  0.00000000  0.31971500  1
loop_
_geom_bond_atom_site_label_1
_geom_bond_atom_site_label_2
_geom_bond_distance
_geom_bond_site_symmetry_2
Ho2 Pd0 3.158839 1_565
Ho2 Pd0 3.158839 1_655
Ho2 Pd0 3.158839 1_665
Ho2 Pd0 3.158839 1_555
Ge0 Pd0 2.443468 1_555
Ge0 Ge3 2.569568 1_455
Ge0 Ge3 2.569568 1_555
Ge0 Ho2 3.072912 1_445
Ge0 Ho2 3.072912 1_545
Ge0 Ho2 3.072912 1_455
Ge0 Ho2 3.072912 1_555
Ge0 Ho1 3.105813 1_555
Ge0 Ho1 3.105813 1_545
Ge1 Ge2 2.614524 1_556
Ge1 Ge2 2.614524 1_456
Ge1 Ho3 2.987906 1_565
Ge1 Ho3 2.987906 1_465
Ge1 Ho3 2.987906 1_455
Ge1 Ho3 2.987906 1_555
Ge1 Ho0 3.241373 1_556
Ge1 Ho0 3.241373 1_566
Ge2 Ho0 2.982650 1_655
Ge2 Ho0 2.982650 1_665
Ge2 Ho0 2.982650 1_565
Ge2 Ho0 2.982650 1_555
Ge2 Ho3 3.255865 1_564
Ge2 Ho3 3.255865 1_554
Ge3 Ho1 2.954698 1_545
Ge3 Ho1 2.954698 1_555
Ge3 Ho1 2.954698 1_645
Ge3 Ho1 2.954698 1_655
Ge3 Ho2 3.407105 1_555
Ge3 Ho2 3.407105 1_545
Ge4 Pd0 2.540654 1_565
Ge4 Pd0 2.540654 1_555
Ge4 Ho0 2.997446 1_565
Ge4 Ho0 2.997446 1_555
Ge4 Ho2 3.470146 1_555
Ge4 Ho2 3.470146 1_455
Ge5 Ge7 2.867095 1_455
Ge5 Ge7 2.867095 1_555
Ge5 Ge7 2.867095 1_445
Ge5 Ge7 2.867095 1_545
Ge5 Ho1 3.073245 1_545
Ge5 Ho1 3.073245 1_555
Ge5 Ho3 3.127735 1_555
Ge5 Ho3 3.127735 1_455
Ge6 Pd0 2.512691 1_655
Ge6 Pd0 2.512691 1_555
Ge6 Ho0 2.954997 1_655
Ge6 Ho0 2.954997 1_555
Ge6 Ho2 3.509207 1_555
Ge6 Ho2 3.509207 1_545
Ge7 Ho3 3.067300 1_565
Ge7 Ho3 3.067300 1_555
Ge7 Ho1 3.133870 1_655
Ge7 Ho1 3.133870 1_555
