# generated using pymatgen
data_K2Be2Ni(O3F4)2
_symmetry_space_group_name_H-M   'P 1'
_cell_length_a   6.51537837
_cell_length_b   8.19379808
_cell_length_c   11.14576683
_cell_angle_alpha   90.07839564
_cell_angle_beta   89.96340993
_cell_angle_gamma   108.67282169
_symmetry_Int_Tables_number   1
_chemical_formula_structural   K2Be2Ni(O3F4)2
_chemical_formula_sum   'K4 Be4 Ni2 O12 F16'
_cell_volume   563.70321688
_cell_formula_units_Z   2
loop_
 _symmetry_equiv_pos_site_id
 _symmetry_equiv_pos_as_xyz
  1  'x, y, z'
loop_
 _atom_site_type_symbol
 _atom_site_label
 _atom_site_symmetry_multiplicity
 _atom_site_fract_x
 _atom_site_fract_y
 _atom_site_fract_z
 _atom_site_occupancy
  K  K0  1  0.36705300  0.61795500  0.15142600  1
  K  K1  1  0.63262600  0.88207200  0.65143300  1
  K  K2  1  0.63293900  0.38207500  0.84856400  1
  K  K3  1  0.36735400  0.11796400  0.34854600  1
  Be  Be0  1  0.25252900  0.57891500  0.84826600  1
  Be  Be1  1  0.74810600  0.92115300  0.34809400  1
  Be  Be2  1  0.74755100  0.42115600  0.15171900  1
  Be  Be3  1  0.25196300  0.07892600  0.65190500  1
  Ni  Ni0  1  0.99994600  0.50001200  0.50007700  1
  Ni  Ni1  1  0.00004000  0.00005800  0.99997300  1
  O  O0  1  0.01579600  0.32502900  0.40328000  1
  O  O1  1  0.98423200  0.17496600  0.90374700  1
  O  O2  1  0.98419000  0.67467600  0.59655100  1
  O  O3  1  0.01574400  0.82503000  0.09626500  1
  O  O4  1  0.09722500  0.64233600  0.37157500  1
  O  O5  1  0.90273100  0.85782800  0.87112700  1
  O  O6  1  0.90252500  0.35738700  0.62863600  1
  O  O7  1  0.09724100  0.14227400  0.12884400  1
  O  O8  1  0.23014300  0.46075100  0.58314900  1
  O  O9  1  0.77004600  0.03911300  0.08315700  1
  O  O10  1  0.77027700  0.53924400  0.41695200  1
  O  O11  1  0.22998500  0.96094400  0.91679100  1
  F  F0  1  0.43677400  0.59188200  0.75842800  1
  F  F1  1  0.56346600  0.90817600  0.25839300  1
  F  F2  1  0.56319400  0.40815700  0.24158700  1
  F  F3  1  0.43646200  0.09182500  0.74159200  1
  F  F4  1  0.02963500  0.56576300  0.78654600  1
  F  F5  1  0.97027700  0.93389900  0.28654500  1
  F  F6  1  0.97032900  0.43428500  0.21344100  1
  F  F7  1  0.02968300  0.06611900  0.71341500  1
  F  F8  1  0.33091800  0.73824800  0.93630800  1
  F  F9  1  0.66881500  0.76178000  0.43615500  1
  F  F10  1  0.66903000  0.26178200  0.06368600  1
  F  F11  1  0.33118100  0.23822700  0.56385500  1
  F  F12  1  0.23174300  0.42119200  0.93714500  1
  F  F13  1  0.76881400  0.07898100  0.43724800  1
  F  F14  1  0.76825700  0.57883800  0.06284400  1
  F  F15  1  0.23117900  0.92098400  0.56273300  1
loop_
_geom_bond_atom_site_label_1
_geom_bond_atom_site_label_2
_geom_bond_distance
_geom_bond_site_symmetry_2
K0 O4 3.060949 1_555
K0 O3 3.314736 1_555
K1 O5 3.059918 1_555
K1 O2 3.316108 1_555
K2 O6 3.058663 1_555
K2 O1 3.314896 1_555
K3 O7 3.060156 1_555
K3 O0 3.313784 1_555
Be0 F0 1.540138 1_555
Be0 F4 1.579462 1_555
Be0 F8 1.580634 1_555
Be0 F12 1.600346 1_555
Be1 F1 1.541890 1_555
Be1 F5 1.574478 1_555
Be1 F9 1.583167 1_555
Be1 F13 1.600921 1_565
Be2 F2 1.540861 1_555
Be2 F6 1.578836 1_555
Be2 F10 1.580866 1_555
Be2 F14 1.600147 1_555
Be3 F3 1.541208 1_555
Be3 F7 1.574813 1_555
Be3 F11 1.582636 1_555
Be3 F15 1.601687 1_545
Ni0 O2 1.817885 1_555
Ni0 O0 1.822302 1_655
Ni0 O4 1.828429 1_655
Ni0 O6 1.830360 1_555
Ni0 O10 1.873893 1_555
Ni0 O8 1.876641 1_655
Ni1 O1 1.820359 1_455
Ni1 O3 1.821377 1_546
Ni1 O5 1.829191 1_445
Ni1 O7 1.829249 1_556
Ni1 O11 1.873950 1_545
Ni1 O9 1.874028 1_456
F0 K1 2.601378 1_555
F0 K2 2.647914 1_555
F1 K0 2.599918 1_555
F1 K3 2.645216 1_565
F2 K3 2.601197 1_555
F2 K0 2.647852 1_555
F3 K2 2.600206 1_555
F3 K1 2.645245 1_545
F4 K2 2.633067 1_455
F5 K3 2.635580 1_665
F6 K0 2.633165 1_655
F7 K1 2.635382 1_445
F8 K0 2.632770 1_556
F9 K1 2.631733 1_555
F10 K2 2.632750 1_554
F11 K3 2.631931 1_555
F12 K0 2.857035 1_556
F12 K2 2.905600 1_555
F13 K1 2.860177 1_545
F13 K3 2.908662 1_555
F14 K2 2.857032 1_554
F14 K0 2.905653 1_555
F15 K3 2.860456 1_565
F15 K1 2.908343 1_555
