# generated using pymatgen
data_Na5CoSO2
_symmetry_space_group_name_H-M   'P 1'
_cell_length_a   6.41076827
_cell_length_b   6.41072839
_cell_length_c   8.02648213
_cell_angle_alpha   90.05817857
_cell_angle_beta   90.04275133
_cell_angle_gamma   89.99778737
_symmetry_Int_Tables_number   1
_chemical_formula_structural   Na5CoSO2
_chemical_formula_sum   'Na10 Co2 S2 O4'
_cell_volume   329.86964514
_cell_formula_units_Z   2
loop_
 _symmetry_equiv_pos_site_id
 _symmetry_equiv_pos_as_xyz
  1  'x, y, z'
loop_
 _atom_site_type_symbol
 _atom_site_label
 _atom_site_symmetry_multiplicity
 _atom_site_fract_x
 _atom_site_fract_y
 _atom_site_fract_z
 _atom_site_occupancy
  Na  Na0  1  0.99999992  0.00000036  0.49999911  1
  Na  Na1  1  0.50000017  0.50000040  0.49999935  1
  Na  Na2  1  0.24975199  0.24962681  0.25562895  1
  Na  Na3  1  0.74973392  0.74960886  0.25576179  1
  Na  Na4  1  0.24962118  0.74952578  0.25522407  1
  Na  Na5  1  0.74959576  0.24950920  0.25615894  1
  Na  Na6  1  0.25026541  0.25039199  0.74422415  1
  Na  Na7  1  0.75024880  0.75037487  0.74435672  1
  Na  Na8  1  0.25040320  0.75049110  0.74385010  1
  Na  Na9  1  0.75037850  0.25047352  0.74478647  1
  Co  Co0  1  0.49999970  0.49999761  -0.00000569  1
  Co  Co1  1  -0.00000002  0.99999764  -0.00001195  1
  S  S0  1  0.50000015  0.00000032  0.49999780  1
  S  S1  1  -0.00000006  0.50000029  0.49999775  1
  O  O0  1  0.99930046  0.00012340  0.78064077  1
  O  O1  1  0.50030706  0.49936747  0.78066380  1
  O  O2  1  0.00070001  0.99987707  0.21937985  1
  O  O3  1  0.49969386  0.50063331  0.21934802  1
loop_
_geom_bond_atom_site_label_1
_geom_bond_atom_site_label_2
_geom_bond_distance
_geom_bond_site_symmetry_2
Na0 O2 2.252393 1_645
Na0 O0 2.252572 1_555
Na0 S1 3.205364 1_655
Na0 S1 3.205365 1_645
Na0 S0 3.205383 1_555
Na0 S0 3.205386 1_655
Na1 O3 2.252650 1_555
Na1 O1 2.252755 1_555
Na1 S0 3.205364 1_565
Na1 S0 3.205365 1_555
Na1 S1 3.205383 1_655
Na1 S1 3.205386 1_555
Na2 O2 2.279438 1_545
Na2 O3 2.289845 1_555
Na2 S0 2.997216 1_555
Na2 S1 2.997511 1_555
Na3 O3 2.280571 1_555
Na3 O2 2.291232 1_655
Na3 S1 2.996517 1_655
Na3 S0 2.996812 1_565
Na4 O3 2.280017 1_555
Na4 O2 2.281478 1_555
Na4 S1 2.998483 1_555
Na4 S0 3.000631 1_565
Na5 O2 2.288907 1_645
Na5 O3 2.290351 1_555
Na5 S0 2.993420 1_555
Na5 S1 2.995874 1_655
Na6 O1 2.280604 1_555
Na6 O0 2.291264 1_455
Na6 S1 2.996464 1_555
Na6 S0 2.996766 1_555
Na7 O0 2.279467 1_565
Na7 O1 2.289876 1_555
Na7 S0 2.997162 1_565
Na7 S1 2.997460 1_655
Na8 O0 2.288913 1_465
Na8 O1 2.290360 1_555
Na8 S0 2.993496 1_565
Na8 S1 2.995940 1_555
Na9 O1 2.280019 1_555
Na9 O0 2.281487 1_555
Na9 S1 2.998567 1_655
Na9 S0 3.000703 1_555
Co0 O1 1.760456 1_554
Co0 O3 1.760642 1_555
Co1 O0 1.760590 1_464
Co1 O2 1.760948 1_555
