# generated using pymatgen
data_BaErAgSe3
_symmetry_space_group_name_H-M   'P 1'
_cell_length_a   7.50155338
_cell_length_b   7.50155338
_cell_length_c   10.75484100
_cell_angle_alpha   90.00000000
_cell_angle_beta   90.00000000
_cell_angle_gamma   146.70282575
_symmetry_Int_Tables_number   1
_chemical_formula_structural   BaErAgSe3
_chemical_formula_sum   'Ba2 Er2 Ag2 Se6'
_cell_volume   332.24938698
_cell_formula_units_Z   2
loop_
 _symmetry_equiv_pos_site_id
 _symmetry_equiv_pos_as_xyz
  1  'x, y, z'
loop_
 _atom_site_type_symbol
 _atom_site_label
 _atom_site_symmetry_multiplicity
 _atom_site_fract_x
 _atom_site_fract_y
 _atom_site_fract_z
 _atom_site_occupancy
  Ba  Ba0  1  0.25143300  0.74856700  0.25000000  1
  Ba  Ba1  1  0.74856700  0.25143300  0.75000000  1
  Er  Er0  1  0.00000000  0.00000000  0.50000000  1
  Er  Er1  1  0.00000000  0.00000000  0.00000000  1
  Ag  Ag0  1  0.53340400  0.46659600  0.25000000  1
  Ag  Ag1  1  0.46659600  0.53340400  0.75000000  1
  Se  Se0  1  0.63492600  0.36507400  0.45300400  1
  Se  Se1  1  0.36507400  0.63492600  0.54699600  1
  Se  Se2  1  0.63492600  0.36507400  0.04699600  1
  Se  Se3  1  0.36507400  0.63492600  0.95300400  1
  Se  Se4  1  0.92270200  0.07729800  0.25000000  1
  Se  Se5  1  0.07729800  0.92270200  0.75000000  1
loop_
_geom_bond_atom_site_label_1
_geom_bond_atom_site_label_2
_geom_bond_distance
_geom_bond_site_symmetry_2
Ba0 Se4 3.267993 1_565
Ba0 Se4 3.267993 1_455
Ba0 Se0 3.491469 1_455
Ba0 Se0 3.491469 1_565
Ba0 Se2 3.491469 1_455
Ba0 Se2 3.491469 1_565
Ba0 Se1 3.587599 1_555
Ba0 Se3 3.587599 1_554
Ba1 Se5 3.267993 1_655
Ba1 Se5 3.267993 1_545
Ba1 Se3 3.491469 1_545
Ba1 Se3 3.491469 1_655
Ba1 Se1 3.491469 1_545
Ba1 Se1 3.491469 1_655
Ba1 Se2 3.587599 1_556
Ba1 Se0 3.587599 1_555
Er0 Se5 2.909243 1_545
Er0 Se4 2.909243 1_455
Er0 Se1 2.938707 1_555
Er0 Se1 2.938707 1_445
Er0 Se0 2.938707 1_445
Er0 Se0 2.938707 1_555
Er1 Se4 2.909243 1_455
Er1 Se5 2.909243 1_544
Er1 Se2 2.938707 1_445
Er1 Se2 2.938707 1_555
Er1 Se3 2.938707 1_444
Er1 Se3 2.938707 1_554
Ag0 Se0 2.626068 1_555
Ag0 Se2 2.626068 1_555
Ag0 Se4 2.674163 1_565
Ag0 Se4 2.674163 1_455
Ag1 Se3 2.626068 1_555
Ag1 Se1 2.626068 1_555
Ag1 Se5 2.674163 1_655
Ag1 Se5 2.674163 1_545
