# generated using pymatgen
data_FeBiO3
_symmetry_space_group_name_H-M   'P 1'
_cell_length_a   5.63378005
_cell_length_b   5.55340314
_cell_length_c   7.87630500
_cell_angle_alpha   90.00000000
_cell_angle_beta   90.00000000
_cell_angle_gamma   88.12752218
_symmetry_Int_Tables_number   1
_chemical_formula_structural   FeBiO3
_chemical_formula_sum   'Fe4 Bi4 O12'
_cell_volume   246.29162882
_cell_formula_units_Z   4
loop_
 _symmetry_equiv_pos_site_id
 _symmetry_equiv_pos_as_xyz
  1  'x, y, z'
loop_
 _atom_site_type_symbol
 _atom_site_label
 _atom_site_symmetry_multiplicity
 _atom_site_fract_x
 _atom_site_fract_y
 _atom_site_fract_z
 _atom_site_occupancy
  Fe  Fe0  1  0.98966500  0.48352300  0.25000000  1
  Fe  Fe1  1  0.51033500  0.01647700  0.75000000  1
  Fe  Fe2  1  0.01033500  0.51647700  0.75000000  1
  Fe  Fe3  1  0.48966500  0.98352300  0.25000000  1
  Bi  Bi0  1  0.50000000  0.50000000  0.50000000  1
  Bi  Bi1  1  0.50000000  0.50000000  0.00000000  1
  Bi  Bi2  1  0.00000000  0.00000000  0.00000000  1
  Bi  Bi3  1  0.00000000  0.00000000  0.50000000  1
  O  O0  1  0.24345400  0.71968000  0.25000000  1
  O  O1  1  0.00000000  0.50000000  0.50000000  1
  O  O2  1  0.00000000  0.50000000  0.00000000  1
  O  O3  1  0.74345400  0.21968100  0.25000000  1
  O  O4  1  0.50000000  0.00000000  0.00000000  1
  O  O5  1  0.50000000  0.00000000  0.50000000  1
  O  O6  1  0.25654600  0.78032000  0.75000000  1
  O  O7  1  0.75654600  0.28031900  0.75000000  1
  O  O8  1  0.79505300  0.80337800  0.75000000  1
  O  O9  1  0.70494700  0.69662200  0.25000000  1
  O  O10  1  0.29505300  0.30337800  0.75000000  1
  O  O11  1  0.20494700  0.19662200  0.25000000  1
loop_
_geom_bond_atom_site_label_1
_geom_bond_atom_site_label_2
_geom_bond_distance
_geom_bond_site_symmetry_2
Fe0 O9 1.961984 1_555
Fe0 O11 1.970598 1_655
Fe0 O0 1.971500 1_655
Fe0 O2 1.972149 1_655
Fe0 O1 1.972149 1_655
Fe0 O3 2.050301 1_555
Fe1 O8 1.961984 1_545
Fe1 O10 1.970598 1_555
Fe1 O6 1.971500 1_545
Fe1 O5 1.972149 1_555
Fe1 O4 1.972149 1_556
Fe1 O7 2.050301 1_555
Fe2 O10 1.961984 1_555
Fe2 O8 1.970598 1_455
Fe2 O7 1.971503 1_455
Fe2 O2 1.972149 1_556
Fe2 O1 1.972149 1_555
Fe2 O6 2.050305 1_555
Fe3 O11 1.961984 1_565
Fe3 O9 1.970598 1_555
Fe3 O3 1.971503 1_565
Fe3 O5 1.972149 1_565
Fe3 O4 1.972149 1_565
Fe3 O0 2.050305 1_555
Bi0 O10 2.546587 1_555
Bi0 O9 2.546587 1_555
Bi0 O0 2.709119 1_555
Bi0 O7 2.709121 1_555
Bi0 O5 2.776702 1_555
Bi0 O5 2.776702 1_565
Bi0 O1 2.816890 1_655
Bi0 O1 2.816890 1_555
Bi0 O3 2.835897 1_555
Bi0 O6 2.835900 1_555
Bi1 O10 2.546587 1_554
Bi1 O9 2.546587 1_555
Bi1 O0 2.709119 1_555
Bi1 O7 2.709121 1_554
Bi1 O4 2.776702 1_555
Bi1 O4 2.776702 1_565
Bi1 O2 2.816890 1_555
Bi1 O2 2.816890 1_655
Bi1 O3 2.835897 1_555
Bi1 O6 2.835900 1_554
Bi2 O11 2.546587 1_555
Bi2 O8 2.546587 1_444
Bi2 O6 2.709119 1_544
Bi2 O3 2.709121 1_455
Bi2 O2 2.776702 1_555
Bi2 O2 2.776702 1_545
Bi2 O4 2.816890 1_455
Bi2 O4 2.816890 1_555
Bi2 O7 2.835897 1_454
Bi2 O0 2.835900 1_545
Bi3 O11 2.546587 1_555
Bi3 O8 2.546587 1_445
Bi3 O6 2.709119 1_545
Bi3 O3 2.709121 1_455
Bi3 O1 2.776702 1_555
Bi3 O1 2.776702 1_545
Bi3 O5 2.816890 1_555
Bi3 O5 2.816890 1_455
Bi3 O7 2.835897 1_455
Bi3 O0 2.835900 1_545
