# generated using pymatgen
data_Sr2CaTi6N2O11
_symmetry_space_group_name_H-M   'P 1'
_cell_length_a   3.91098675
_cell_length_b   7.80386276
_cell_length_c   10.07666813
_cell_angle_alpha   76.25652872
_cell_angle_beta   86.44125932
_cell_angle_gamma   69.47701877
_symmetry_Int_Tables_number   1
_chemical_formula_structural   Sr2CaTi6N2O11
_chemical_formula_sum   'Sr2 Ca1 Ti6 N2 O11'
_cell_volume   279.70583488
_cell_formula_units_Z   1
loop_
 _symmetry_equiv_pos_site_id
 _symmetry_equiv_pos_as_xyz
  1  'x, y, z'
loop_
 _atom_site_type_symbol
 _atom_site_label
 _atom_site_symmetry_multiplicity
 _atom_site_fract_x
 _atom_site_fract_y
 _atom_site_fract_z
 _atom_site_occupancy
  Sr  Sr0  1  0.61440500  0.94842200  0.82510600  1
  Sr  Sr1  1  0.46415100  0.06077400  0.17361100  1
  Ca  Ca0  1  0.32404700  0.93796000  0.51356600  1
  Ti  Ti0  1  0.17940100  0.71853800  0.06666200  1
  Ti  Ti1  1  0.14526300  0.64645500  0.40609100  1
  Ti  Ti2  1  0.20073200  0.53891700  0.74659500  1
  Ti  Ti3  1  0.79438500  0.46733800  0.23787600  1
  Ti  Ti4  1  0.86491100  0.33923500  0.57187300  1
  Ti  Ti5  1  0.85595500  0.27704000  0.93431800  1
  N  N0  1  0.24829900  0.54171700  0.24864100  1
  N  N1  1  0.83468900  0.32740700  0.10435000  1
  O  O0  1  0.00729100  0.90222900  0.33536900  1
  O  O1  1  0.96585600  0.77008900  0.62683500  1
  O  O2  1  0.19534200  0.66465600  0.89737300  1
  O  O3  1  0.65333100  0.73877200  0.09701100  1
  O  O4  1  0.66414800  0.62414100  0.43432600  1
  O  O5  1  0.74540300  0.46895700  0.74919500  1
  O  O6  1  0.31022900  0.41133100  0.57290400  1
  O  O7  1  0.36481100  0.27059600  0.89111800  1
  O  O8  1  0.96729400  0.25764100  0.40678500  1
  O  O9  1  0.04494400  0.10434700  0.68027700  1
  O  O10  1  0.01244000  0.00178400  0.99910100  1
loop_
_geom_bond_atom_site_label_1
_geom_bond_atom_site_label_2
_geom_bond_distance
_geom_bond_site_symmetry_2
Ca0 O1 2.315002 1_455
Ca0 O9 2.348306 1_565
Ca0 O0 2.364954 1_555
Ca0 O8 2.408019 1_465
Ca0 O1 2.580524 1_555
Ca0 O4 2.630145 1_555
N0 Ti1 1.911422 1_555
N0 Ti0 1.984348 1_555
N0 Ti3 2.010469 1_555
N0 Ti3 2.067977 1_455
N1 Ti5 1.837492 1_554
N1 Ti3 1.891769 1_555
N1 Sr1 2.609369 1_655
N1 Sr1 2.866267 1_555
O0 Ti1 1.843857 1_555
O0 Sr1 2.515696 1_465
O0 Sr1 2.758712 1_565
O1 Ti2 1.869734 1_655
O1 Ti1 2.592740 1_655
O1 Sr0 2.730697 1_555
O2 Ti0 1.843889 1_556
O2 Ti2 1.990374 1_555
O2 Sr0 2.551015 1_455
O2 Sr0 3.122619 1_555
O3 Ti0 1.962798 1_555
O3 Ti0 2.017079 1_655
O3 Ti3 2.157614 1_555
O3 Sr1 2.646651 1_565
O3 Sr0 2.820311 1_554
O4 Ti1 1.947193 1_655
O4 Ti1 2.007461 1_555
O4 Ti4 2.219847 1_555
O4 Ti3 2.502847 1_555
O5 Ti2 2.005290 1_555
O5 Ti2 2.034469 1_655
O5 Ti5 2.056314 1_555
O5 Ti4 2.204545 1_555
O6 Ti4 2.010480 1_455
O6 Ti4 2.041307 1_555
O6 Ti1 2.108932 1_555
O6 Ti2 2.161951 1_555
O7 Ti5 1.996326 1_455
O7 Ti5 2.015851 1_555
O7 Ti2 2.154562 1_555
O7 Sr0 2.590318 1_545
O7 Sr1 2.900292 1_556
O8 Ti4 1.890761 1_555
O8 Ti3 2.018841 1_555
O9 Ti4 1.813320 1_455
O9 Sr0 2.496042 1_545
O9 Sr0 2.594908 1_445
O10 Ti5 1.968859 1_455
O10 Ti0 2.025813 1_546
O10 Sr0 2.609803 1_445
O10 Sr1 2.669602 1_456
O10 Sr1 2.786704 1_556
O10 Sr0 2.817291 1_545
