# generated using pymatgen
data_Li3Mn4O8
_symmetry_space_group_name_H-M   'P 1'
_cell_length_a   5.83091928
_cell_length_b   5.93289269
_cell_length_c   10.94984478
_cell_angle_alpha   74.21516150
_cell_angle_beta   89.91985616
_cell_angle_gamma   120.61607118
_symmetry_Int_Tables_number   1
_chemical_formula_structural   Li3Mn4O8
_chemical_formula_sum   'Li6 Mn8 O16'
_cell_volume   309.19181661
_cell_formula_units_Z   2
loop_
 _symmetry_equiv_pos_site_id
 _symmetry_equiv_pos_as_xyz
  1  'x, y, z'
loop_
 _atom_site_type_symbol
 _atom_site_label
 _atom_site_symmetry_multiplicity
 _atom_site_fract_x
 _atom_site_fract_y
 _atom_site_fract_z
 _atom_site_occupancy
  Li  Li0  1  0.24999900  0.00000800  0.24999200  1
  Li  Li1  1  0.75000300  0.99999900  0.75000000  1
  Li  Li2  1  0.33260700  0.14440000  0.03779200  1
  Li  Li3  1  0.83046000  0.14800300  0.53752900  1
  Li  Li4  1  0.16735300  0.85559900  0.46221400  1
  Li  Li5  1  0.66949100  0.85194400  0.96246200  1
  Mn  Mn0  1  0.25005700  0.00016100  0.75000800  1
  Mn  Mn1  1  0.24997500  0.49999600  0.74996600  1
  Mn  Mn2  1  0.25000800  0.49994100  0.25005300  1
  Mn  Mn3  1  0.00464800  0.50324500  0.99945500  1
  Mn  Mn4  1  0.49537100  0.49670100  0.50054400  1
  Mn  Mn5  1  0.74992500  0.99992700  0.25000600  1
  Mn  Mn6  1  0.75007100  0.50004600  0.24999400  1
  Mn  Mn7  1  0.75000900  0.50005900  0.74997300  1
  O  O0  1  0.89615500  0.24496100  0.35382100  1
  O  O1  1  0.39491800  0.29573600  0.85350800  1
  O  O2  1  0.60379200  0.75494800  0.14619800  1
  O  O3  1  0.10512600  0.70433900  0.64649000  1
  O  O4  1  0.11422500  0.24802600  0.14583400  1
  O  O5  1  0.61280800  0.25019300  0.64600400  1
  O  O6  1  0.63680300  0.23942300  0.14741300  1
  O  O7  1  0.13324500  0.24956600  0.64792300  1
  O  O8  1  0.11418400  0.71844000  0.14634600  1
  O  O9  1  0.61413900  0.71993600  0.64584300  1
  O  O10  1  0.38587000  0.28152400  0.35368600  1
  O  O11  1  0.88587700  0.28009800  0.85411700  1
  O  O12  1  0.86317600  0.76054300  0.35260300  1
  O  O13  1  0.36674300  0.75046700  0.85202900  1
  O  O14  1  0.38569300  0.75187000  0.35422500  1
  O  O15  1  0.88726800  0.74989800  0.85397300  1
loop_
_geom_bond_atom_site_label_1
_geom_bond_atom_site_label_2
_geom_bond_distance
_geom_bond_site_symmetry_2
Li0 O6 2.056195 1_555
Li0 O12 2.056398 1_445
Li0 O4 2.090168 1_555
Li0 O14 2.090647 1_545
Li0 O8 2.095772 1_545
Li0 O10 2.095930 1_555
Li1 O13 2.038951 1_555
Li1 O7 2.039062 1_665
Li1 O11 2.093141 1_565
Li1 O9 2.093315 1_555
Li1 O15 2.105147 1_555
Li1 O5 2.105347 1_565
Li2 O1 1.920932 1_554
Li2 O6 2.064067 1_555
Li2 O8 2.122420 1_545
Li2 O4 2.141947 1_555
Li3 O0 1.915183 1_555
Li3 O7 2.063971 1_655
Li3 O9 2.131146 1_545
Li3 O5 2.135498 1_555
Li4 O3 1.920838 1_555
Li4 O12 2.063914 1_455
Li4 O10 2.122197 1_565
Li4 O14 2.141853 1_555
Li5 O2 1.915461 1_556
Li5 O13 2.064095 1_555
Li5 O11 2.131600 1_565
Li5 O15 2.135502 1_555
Mn0 O5 1.962049 1_555
Mn0 O15 1.962111 1_445
Mn0 O7 2.007921 1_555
Mn0 O13 2.008446 1_545
Mn0 O1 2.155972 1_555
Mn0 O3 2.157219 1_545
Mn1 O3 1.940421 1_555
Mn1 O1 1.940796 1_555
Mn1 O7 1.947961 1_555
Mn1 O13 1.948304 1_555
Mn1 O11 1.967859 1_455
Mn1 O9 1.968012 1_555
Mn2 O0 1.927625 1_455
Mn2 O2 1.927725 1_555
Mn2 O10 1.960258 1_555
Mn2 O8 1.960763 1_555
Mn2 O14 1.971472 1_555
Mn2 O4 1.971826 1_555
Mn3 O13 2.182441 1_555
Mn3 O6 2.205970 1_456
Mn3 O15 2.214161 1_455
Mn3 O8 2.216878 1_556
Mn3 O4 2.222149 1_556
Mn3 O11 2.231693 1_455
Mn4 O7 2.182279 1_555
Mn4 O12 2.205729 1_555
Mn4 O5 2.213711 1_555
Mn4 O10 2.216493 1_555
Mn4 O14 2.221984 1_555
Mn4 O9 2.231648 1_555
Mn5 O2 1.941818 1_555
Mn5 O0 1.942134 1_565
Mn5 O6 1.950465 1_565
Mn5 O12 1.950521 1_555
Mn5 O14 1.968404 1_555
Mn5 O4 1.968498 1_665
Mn6 O8 1.966148 1_655
Mn6 O10 1.966684 1_555
Mn6 O12 1.998623 1_555
Mn6 O6 1.998893 1_555
Mn6 O2 2.165126 1_555
Mn6 O0 2.165208 1_555
Mn7 O3 1.931471 1_655
Mn7 O1 1.931574 1_555
Mn7 O5 1.961227 1_555
Mn7 O15 1.961389 1_555
Mn7 O9 1.968615 1_555
Mn7 O11 1.969022 1_555
