# generated using pymatgen
data_NaEuV4O12
_symmetry_space_group_name_H-M   'P 1'
_cell_length_a   5.50654512
_cell_length_b   5.50654512
_cell_length_c   7.41679105
_cell_angle_alpha   90.00000000
_cell_angle_beta   90.00000000
_cell_angle_gamma   97.48673730
_symmetry_Int_Tables_number   1
_chemical_formula_structural   NaEuV4O12
_chemical_formula_sum   'Na1 Eu1 V4 O12'
_cell_volume   222.97503337
_cell_formula_units_Z   1
loop_
 _symmetry_equiv_pos_site_id
 _symmetry_equiv_pos_as_xyz
  1  'x, y, z'
loop_
 _atom_site_type_symbol
 _atom_site_label
 _atom_site_symmetry_multiplicity
 _atom_site_fract_x
 _atom_site_fract_y
 _atom_site_fract_z
 _atom_site_occupancy
  Na  Na0  1  0.99420300  0.00579700  0.50000000  1
  Eu  Eu0  1  0.45818277  0.54181723  -0.00000000  1
  V  V0  1  0.47722657  0.03635686  0.25541774  1
  V  V1  1  0.47722657  0.03635686  0.74458226  1
  V  V2  1  0.96364314  0.52277343  0.74458226  1
  V  V3  1  0.96364314  0.52277343  0.25541774  1
  O  O0  1  0.29881934  0.26251572  0.24854930  1
  O  O1  1  0.73748428  0.70118066  0.24854930  1
  O  O2  1  0.73748428  0.70118066  0.75145070  1
  O  O3  1  0.29881934  0.26251572  0.75145070  1
  O  O4  1  0.24570357  0.75429643  0.21870707  1
  O  O5  1  0.78486587  0.21513413  0.27972608  1
  O  O6  1  0.78486587  0.21513413  0.72027392  1
  O  O7  1  0.24570357  0.75429643  0.78129293  1
  O  O8  1  0.53645008  0.01620536  0.00000000  1
  O  O9  1  0.46608993  0.96890599  0.50000000  1
  O  O10  1  0.98379464  0.46354992  -0.00000000  1
  O  O11  1  0.03109401  0.53391007  0.50000000  1
loop_
_geom_bond_atom_site_label_1
_geom_bond_atom_site_label_2
_geom_bond_distance
_geom_bond_site_symmetry_2
Na0 O5 2.381780 1_555
Na0 O6 2.381780 1_555
Na0 O11 2.632651 1_645
Na0 O9 2.632651 1_645
Na0 O1 2.769859 1_545
Na0 O2 2.769859 1_545
Na0 O3 2.769859 1_655
Na0 O0 2.769859 1_655
Na0 O9 2.888640 1_545
Na0 O11 2.888640 1_655
Na0 O4 2.947593 1_645
Na0 O7 2.947593 1_645
Eu0 O4 2.392883 1_555
Eu0 O7 2.392883 1_554
Eu0 O3 2.486370 1_554
Eu0 O1 2.486370 1_555
Eu0 O0 2.486370 1_555
Eu0 O2 2.486370 1_554
Eu0 O10 2.591555 1_455
Eu0 O8 2.591555 1_565
Eu0 O10 2.981244 1_555
Eu0 O8 2.981244 1_555
O0 V0 1.684473 1_555
O1 V3 1.684473 1_555
O2 V2 1.684473 1_555
O3 V1 1.684473 1_555
O4 V0 1.896269 1_565
O4 V3 1.896269 1_455
O5 V0 1.853857 1_555
O5 V3 1.853857 1_555
O6 V1 1.853857 1_555
O6 V2 1.853857 1_555
O7 V1 1.896269 1_565
O7 V2 1.896269 1_455
O8 V1 1.927893 1_554
O8 V0 1.927893 1_555
O9 V0 1.851062 1_565
O9 V1 1.851062 1_565
O10 V2 1.927893 1_554
O10 V3 1.927893 1_555
O11 V3 1.851062 1_455
O11 V2 1.851062 1_455
