# generated using pymatgen
data_Ca2Ni2SF6
_symmetry_space_group_name_H-M   'P 1'
_cell_length_a   7.82746418
_cell_length_b   7.82746418
_cell_length_c   7.82746418
_cell_angle_alpha   60.00000000
_cell_angle_beta   60.00000000
_cell_angle_gamma   60.00000000
_symmetry_Int_Tables_number   1
_chemical_formula_structural   Ca2Ni2SF6
_chemical_formula_sum   'Ca4 Ni4 S2 F12'
_cell_volume   339.11599032
_cell_formula_units_Z   2
loop_
 _symmetry_equiv_pos_site_id
 _symmetry_equiv_pos_as_xyz
  1  'x, y, z'
loop_
 _atom_site_type_symbol
 _atom_site_label
 _atom_site_symmetry_multiplicity
 _atom_site_fract_x
 _atom_site_fract_y
 _atom_site_fract_z
 _atom_site_occupancy
  Ca  Ca0  1  0.37500000  0.37500000  0.37500000  1
  Ca  Ca1  1  0.37500000  0.37500000  0.87500000  1
  Ca  Ca2  1  0.37500000  0.87500000  0.37500000  1
  Ca  Ca3  1  0.87500000  0.37500000  0.37500000  1
  Ni  Ni0  1  0.87500000  0.87500000  0.87500000  1
  Ni  Ni1  1  0.87500000  0.87500000  0.37500000  1
  Ni  Ni2  1  0.87500000  0.37500000  0.87500000  1
  Ni  Ni3  1  0.37500000  0.87500000  0.87500000  1
  S  S0  1  0.25000000  0.25000000  0.25000000  1
  S  S1  1  0.50000000  0.50000000  0.50000000  1
  F  F0  1  0.55264600  0.94735400  0.94735400  1
  F  F1  1  0.94735400  0.55264600  0.94735400  1
  F  F2  1  0.94735400  0.94735400  0.55264600  1
  F  F3  1  0.94735400  0.55264600  0.55264600  1
  F  F4  1  0.55264600  0.94735400  0.55264600  1
  F  F5  1  0.55264600  0.55264600  0.94735400  1
  F  F6  1  0.19735400  0.80264600  0.80264600  1
  F  F7  1  0.80264600  0.19735400  0.80264600  1
  F  F8  1  0.80264600  0.80264600  0.19735400  1
  F  F9  1  0.80264600  0.19735400  0.19735400  1
  F  F10  1  0.19735400  0.80264600  0.19735400  1
  F  F11  1  0.19735400  0.19735400  0.80264600  1
loop_
_geom_bond_atom_site_label_1
_geom_bond_atom_site_label_2
_geom_bond_distance
_geom_bond_site_symmetry_2
Ca0 S1 2.396662 1_555
Ca0 S0 2.396662 1_555
Ca0 F9 2.774239 1_555
Ca0 F11 2.774239 1_555
Ca0 F10 2.774239 1_555
Ca0 F4 2.774239 1_545
Ca0 F3 2.774239 1_455
Ca0 F5 2.774239 1_554
Ca1 S1 2.396662 1_555
Ca1 S0 2.396662 1_556
Ca1 F5 2.774239 1_555
Ca1 F6 2.774239 1_555
Ca1 F11 2.774239 1_555
Ca1 F7 2.774239 1_555
Ca1 F1 2.774239 1_455
Ca1 F0 2.774239 1_545
Ca2 S1 2.396662 1_555
Ca2 S0 2.396662 1_565
Ca2 F4 2.774239 1_555
Ca2 F6 2.774239 1_555
Ca2 F10 2.774239 1_555
Ca2 F8 2.774239 1_555
Ca2 F0 2.774239 1_554
Ca2 F2 2.774239 1_455
Ca3 S0 2.396662 1_655
Ca3 S1 2.396662 1_555
Ca3 F3 2.774239 1_555
Ca3 F7 2.774239 1_555
Ca3 F9 2.774239 1_555
Ca3 F8 2.774239 1_555
Ca3 F1 2.774239 1_554
Ca3 F2 2.774239 1_545
F0 Ni3 2.114433 1_555
F0 Ni0 2.114433 1_555
F1 Ni2 2.114433 1_555
F1 Ni0 2.114433 1_555
F2 Ni1 2.114433 1_555
F2 Ni0 2.114433 1_555
F3 Ni2 2.114433 1_555
F3 Ni1 2.114433 1_555
F4 Ni3 2.114433 1_555
F4 Ni1 2.114433 1_555
F5 Ni3 2.114433 1_555
F5 Ni2 2.114433 1_555
F6 Ni0 2.114433 1_455
F6 Ni3 2.114433 1_555
F7 Ni0 2.114433 1_545
F7 Ni2 2.114433 1_555
F8 Ni0 2.114433 1_554
F8 Ni1 2.114433 1_555
F9 Ni2 2.114433 1_554
F9 Ni1 2.114433 1_545
F10 Ni1 2.114433 1_455
F10 Ni3 2.114433 1_554
F11 Ni2 2.114433 1_455
F11 Ni3 2.114433 1_545
