# generated using pymatgen
data_Si2H2O3
_symmetry_space_group_name_H-M   'P 1'
_cell_length_a   8.50009100
_cell_length_b   10.36392179
_cell_length_c   12.53395471
_cell_angle_alpha   88.30971127
_cell_angle_beta   104.76812279
_cell_angle_gamma   108.10654207
_symmetry_Int_Tables_number   1
_chemical_formula_structural   Si2H2O3
_chemical_formula_sum   'Si20 H20 O30'
_cell_volume   1013.33558995
_cell_formula_units_Z   10
loop_
 _symmetry_equiv_pos_site_id
 _symmetry_equiv_pos_as_xyz
  1  'x, y, z'
loop_
 _atom_site_type_symbol
 _atom_site_label
 _atom_site_symmetry_multiplicity
 _atom_site_fract_x
 _atom_site_fract_y
 _atom_site_fract_z
 _atom_site_occupancy
  Si  Si0  1  0.89956700  0.13779700  0.12239700  1
  Si  Si1  1  0.09186700  0.36996100  0.39905100  1
  Si  Si2  1  0.18454900  0.87730100  0.92336400  1
  Si  Si3  1  0.86510600  0.58586900  0.52128000  1
  Si  Si4  1  0.03732400  0.91157700  0.25522300  1
  Si  Si5  1  0.28916700  0.58490700  0.25800200  1
  Si  Si6  1  0.94917300  0.08185100  0.75562700  1
  Si  Si7  1  0.66331700  0.41045100  0.71580600  1
  Si  Si8  1  0.43913400  0.98208300  0.19009000  1
  Si  Si9  1  0.68087300  0.49403400  0.33402200  1
  Si  Si10  1  0.56003000  0.00677000  0.80611500  1
  Si  Si11  1  0.31097200  0.48980800  0.70384700  1
  Si  Si12  1  0.61079900  0.19596200  0.44766600  1
  Si  Si13  1  0.46006300  0.23520100  0.05573600  1
  Si  Si14  1  0.37764000  0.78778900  0.55201100  1
  Si  Si15  1  0.51192900  0.70274100  0.95458100  1
  Si  Si16  1  0.22471400  0.06994700  0.49597800  1
  Si  Si17  1  0.19653600  0.41632500  0.02184000  1
  Si  Si18  1  0.77787500  0.86680500  0.53843900  1
  Si  Si19  1  0.86234800  0.63295700  0.94933300  1
  H  H0  1  0.96353300  0.97241800  0.92897200  1
  H  H1  1  0.57703100  0.54208100  0.55974400  1
  H  H2  1  0.25286700  0.80439700  0.25526000  1
  H  H3  1  0.59612300  0.66679600  0.23703300  1
  H  H4  1  0.19211300  0.10786400  0.16252300  1
  H  H5  1  0.41178000  0.32963000  0.30973900  1
  H  H6  1  0.68319500  0.82786400  0.83956700  1
  H  H7  1  0.54938400  0.68350400  0.68533900  1
  H  H8  1  0.95090600  0.21870900  0.95409100  1
  H  H9  1  0.32594800  0.30215100  0.47258900  1
  H  H10  1  0.85675600  0.29558800  0.22637500  1
  H  H11  1  0.20090200  0.80008200  0.75285100  1
  H  H12  1  0.83608500  0.98490300  0.47382200  1
  H  H13  1  0.89708200  0.52279400  0.01893300  1
  H  H14  1  0.98123100  0.85874700  0.70860500  1
  H  H15  1  0.93559800  0.64022500  0.78780500  1
  H  H16  1  0.69521800  0.06675400  0.33877500  1
  H  H17  1  0.81535000  0.52299800  0.19255400  1
  H  H18  1  0.33323400  0.96638400  0.63584900  1
  H  H19  1  0.26496200  0.52638100  0.87982000  1
  O  O0  1  0.07392800  0.07204700  0.17831000  1
  O  O1  1  0.26195100  0.46567900  0.35498000  1
  O  O2  1  0.04369700  0.99866500  0.88199200  1
  O  O3  1  0.67201500  0.50422300  0.58572700  1
  O  O4  1  0.25083100  0.90151900  0.24330700  1
  O  O5  1  0.54356500  0.58692500  0.27521200  1
  O  O6  1  0.75598200  0.04750000  0.78039100  1
  O  O7  1  0.48988800  0.44013400  0.73095600  1
  O  O8  1  0.37240200  0.12028700  0.14312500  1
  O  O9  1  0.53294700  0.34177600  0.34658800  1
  O  O10  1  0.58385600  0.83798000  0.85991300  1
  O  O11  1  0.42834800  0.65417900  0.64452600  1
  O  O12  1  0.41931400  0.12984900  0.46776700  1
  O  O13  1  0.35432300  0.34336500  0.05659500  1
  O  O14  1  0.57953600  0.84328800  0.53575100  1
  O  O15  1  0.68659300  0.65222400  0.96206800  1
  O  O16  1  0.01075600  0.25436300  0.02986300  1
  O  O17  1  0.20405700  0.25433700  0.46493700  1
  O  O18  1  0.02616100  0.77118600  0.97553500  1
  O  O19  1  0.81505300  0.73499700  0.49958400  1
  O  O20  1  0.94809900  0.25346900  0.23633900  1
  O  O21  1  0.10645200  0.79742800  0.78549200  1
  O  O22  1  0.09010600  0.98993200  0.37929300  1
  O  O23  1  0.20801600  0.48891100  0.14194100  1
  O  O24  1  0.89034200  0.90587500  0.67324400  1
  O  O25  1  0.83077100  0.59098500  0.81259800  1
  O  O26  1  0.58573300  0.08419400  0.32936700  1
  O  O27  1  0.75125500  0.45038400  0.23108300  1
  O  O28  1  0.41139900  0.90978700  0.67166700  1
  O  O29  1  0.35432400  0.58190400  0.83894600  1
loop_
_geom_bond_atom_site_label_1
_geom_bond_atom_site_label_2
_geom_bond_distance
_geom_bond_site_symmetry_2
H0 O2 0.982313 1_655
H1 O3 0.983447 1_555
H2 O4 1.018100 1_555
H3 O5 0.984659 1_555
H4 O0 1.025356 1_555
H4 O8 1.577857 1_555
H5 O9 0.985014 1_555
H6 O10 0.977447 1_555
H7 O11 0.979297 1_555
H8 O16 0.977170 1_656
H9 O17 0.980431 1_555
H10 O20 0.983358 1_555
H11 O21 0.982721 1_555
H12 Si18 1.472493 1_555
H13 Si19 1.473489 1_554
H14 O24 1.038782 1_555
H14 O21 1.525411 1_655
H15 O25 1.000059 1_555
H16 O26 0.979796 1_555
H17 O27 0.976849 1_555
H18 O28 1.030381 1_555
H19 O29 1.039172 1_555
O0 Si0 1.795021 1_455
O0 Si4 1.878496 1_545
O1 Si1 1.691957 1_555
O1 Si5 1.713170 1_555
O2 Si6 1.897009 1_465
O2 Si2 1.966071 1_555
O3 Si7 1.879225 1_555
O3 Si3 1.958236 1_555
O4 Si8 1.839761 1_555
O4 Si4 1.893006 1_555
O5 Si9 1.746511 1_555
O5 Si5 2.111236 1_555
O6 Si6 1.676206 1_555
O6 Si10 1.698569 1_555
O7 Si7 1.652843 1_555
O7 Si11 1.704763 1_555
O8 Si13 1.720723 1_555
O8 Si8 1.733459 1_545
O9 Si9 1.717235 1_555
O9 Si12 2.099509 1_555
O10 Si15 1.866902 1_555
O10 Si10 1.907051 1_565
O11 Si14 1.862609 1_555
O11 Si11 1.922835 1_555
O12 Si12 1.639467 1_555
O12 Si16 1.701027 1_555
O13 Si13 1.642108 1_555
O13 Si17 1.695120 1_555
O14 Si18 1.618307 1_555
O14 Si14 1.695681 1_555
O15 Si19 1.614330 1_555
O15 Si15 1.701866 1_555
O16 Si0 1.861281 1_455
O16 Si17 1.935147 1_555
O17 Si1 1.810459 1_555
O17 Si16 1.990983 1_555
O18 Si19 1.629035 1_455
O18 Si2 1.713396 1_555
O19 Si18 1.609088 1_555
O19 Si3 1.722972 1_555
O20 Si0 1.772056 1_555
O20 Si1 2.251189 1_655
O21 Si2 1.808363 1_555
O22 Si16 1.662671 1_565
O22 Si4 1.664747 1_555
O23 Si5 1.651979 1_555
O23 Si17 1.669665 1_555
O24 Si18 1.705582 1_555
O24 Si6 1.980786 1_565
O25 Si19 1.713292 1_555
O25 Si7 2.144015 1_555
O26 Si12 1.836464 1_555
O26 Si8 1.974957 1_545
O27 Si9 1.680308 1_555
O28 Si14 1.896636 1_555
O28 Si10 1.916091 1_565
O29 Si11 1.863538 1_555
O29 Si15 1.880980 1_555
