# generated using pymatgen
data_Sr2FeCu(PbO3)2
_symmetry_space_group_name_H-M   'P 1'
_cell_length_a   5.55699000
_cell_length_b   5.63500800
_cell_length_c   12.33564800
_cell_angle_alpha   90.00000000
_cell_angle_beta   90.00000000
_cell_angle_gamma   90.00000000
_symmetry_Int_Tables_number   1
_chemical_formula_structural   Sr2FeCu(PbO3)2
_chemical_formula_sum   'Sr4 Fe2 Cu2 Pb4 O12'
_cell_volume   386.27457238
_cell_formula_units_Z   2
loop_
 _symmetry_equiv_pos_site_id
 _symmetry_equiv_pos_as_xyz
  1  'x, y, z'
loop_
 _atom_site_type_symbol
 _atom_site_label
 _atom_site_symmetry_multiplicity
 _atom_site_fract_x
 _atom_site_fract_y
 _atom_site_fract_z
 _atom_site_occupancy
  Sr  Sr0  1  0.50576700  0.50183400  0.64185900  1
  Sr  Sr1  1  0.50576700  0.49816600  0.35814100  1
  Sr  Sr2  1  0.00576700  0.00183400  0.35814100  1
  Sr  Sr3  1  0.00576700  0.99816600  0.64185900  1
  Fe  Fe0  1  0.00319700  0.50000000  0.50000000  1
  Fe  Fe1  1  0.50319700  0.00000000  0.50000000  1
  Cu  Cu0  1  0.54925900  0.50000000  0.00000000  1
  Cu  Cu1  1  0.04925900  0.00000000  0.00000000  1
  Pb  Pb0  1  0.50158900  0.98933800  0.85390900  1
  Pb  Pb1  1  0.50158900  0.01066200  0.14609100  1
  Pb  Pb2  1  0.00158900  0.48933800  0.14609100  1
  Pb  Pb3  1  0.00158900  0.51066200  0.85390900  1
  O  O0  1  0.56762100  0.58283300  0.85435000  1
  O  O1  1  0.56762100  0.41716700  0.14565000  1
  O  O2  1  0.06762100  0.08283300  0.14565000  1
  O  O3  1  0.06762100  0.91716700  0.85435000  1
  O  O4  1  0.50485200  0.00547800  0.67598800  1
  O  O5  1  0.50485200  0.99452200  0.32401200  1
  O  O6  1  0.00485200  0.50547800  0.32401200  1
  O  O7  1  0.00485200  0.49452200  0.67598800  1
  O  O8  1  0.75194300  0.25085000  0.49892900  1
  O  O9  1  0.75194300  0.74915000  0.50107100  1
  O  O10  1  0.25194300  0.75085000  0.50107100  1
  O  O11  1  0.25194300  0.24915000  0.49892900  1
loop_
_geom_bond_atom_site_label_1
_geom_bond_atom_site_label_2
_geom_bond_distance
_geom_bond_site_symmetry_2
Fe0 O10 1.977112 1_555
Fe0 O11 1.977112 1_555
Fe0 O9 1.980077 1_455
Fe0 O8 1.980077 1_455
Fe0 O6 2.171165 1_555
Fe0 O7 2.171165 1_555
Fe1 O8 1.977112 1_555
Fe1 O9 1.977112 1_545
Fe1 O11 1.980077 1_555
Fe1 O10 1.980077 1_545
Fe1 O5 2.171165 1_545
Fe1 O4 2.171165 1_555
Cu0 O0 1.859130 1_554
Cu0 O1 1.859130 1_555
Cu1 O3 1.859130 1_544
Cu1 O2 1.859130 1_555
O0 Pb0 2.319869 1_555
O0 Pb3 2.445613 1_655
O0 Sr0 2.682767 1_555
O1 Pb1 2.319869 1_555
O1 Pb2 2.445613 1_655
O1 Sr1 2.682767 1_555
O2 Pb2 2.319869 1_555
O2 Pb1 2.445613 1_555
O2 Sr2 2.682767 1_555
O3 Pb3 2.319869 1_555
O3 Pb0 2.445613 1_555
O3 Sr3 2.682767 1_555
O4 Pb0 2.196729 1_545
O4 Sr3 2.805485 1_545
O4 Sr3 2.815539 1_645
O4 Sr0 2.828482 1_555
O4 Sr0 2.869099 1_545
O5 Pb1 2.196729 1_565
O5 Sr2 2.805485 1_565
O5 Sr2 2.815539 1_665
O5 Sr1 2.828482 1_555
O5 Sr1 2.869099 1_565
O6 Pb2 2.196729 1_555
O6 Sr1 2.805485 1_455
O6 Sr1 2.815539 1_555
O6 Sr2 2.828482 1_565
O6 Sr2 2.869099 1_555
O7 Pb3 2.196729 1_555
O7 Sr0 2.805485 1_455
O7 Sr0 2.815539 1_555
O7 Sr3 2.828482 1_545
O7 Sr3 2.869099 1_555
O8 Sr1 2.613385 1_555
O8 Sr2 2.640958 1_655
O8 Sr0 2.642025 1_555
O8 Sr3 2.669376 1_645
O9 Sr0 2.613385 1_555
O9 Sr3 2.640958 1_655
O9 Sr1 2.642025 1_555
O9 Sr2 2.669376 1_665
O10 Sr3 2.613385 1_555
O10 Sr0 2.640958 1_555
O10 Sr2 2.642025 1_565
O10 Sr1 2.669376 1_555
O11 Sr2 2.613385 1_555
O11 Sr1 2.640958 1_555
O11 Sr3 2.642025 1_545
O11 Sr0 2.669376 1_555
