# generated using pymatgen
data_SnH7Cl3O4
_symmetry_space_group_name_H-M   'P 1'
_cell_length_a   6.53578200
_cell_length_b   9.95449600
_cell_length_c   15.67355129
_cell_angle_alpha   54.51469324
_cell_angle_beta   90.00000000
_cell_angle_gamma   90.00000000
_symmetry_Int_Tables_number   1
_chemical_formula_structural   SnH7Cl3O4
_chemical_formula_sum   'Sn4 H28 Cl12 O16'
_cell_volume   830.32802620
_cell_formula_units_Z   4
loop_
 _symmetry_equiv_pos_site_id
 _symmetry_equiv_pos_as_xyz
  1  'x, y, z'
loop_
 _atom_site_type_symbol
 _atom_site_label
 _atom_site_symmetry_multiplicity
 _atom_site_fract_x
 _atom_site_fract_y
 _atom_site_fract_z
 _atom_site_occupancy
  Sn  Sn0  1  0.03280700  0.32672500  0.00314700  1
  Sn  Sn1  1  0.46719300  0.32672500  0.50314700  1
  Sn  Sn2  1  0.96719300  0.67327500  0.99685300  1
  Sn  Sn3  1  0.53280700  0.67327500  0.49685300  1
  H  H0  1  0.70622100  0.40173200  0.08534200  1
  H  H1  1  0.79377900  0.40173200  0.58534200  1
  H  H2  1  0.29377900  0.59826800  0.91465800  1
  H  H3  1  0.20622100  0.59826800  0.41465800  1
  H  H4  1  0.04963100  0.18885200  0.21715000  1
  H  H5  1  0.45036900  0.18885200  0.71715000  1
  H  H6  1  0.95036900  0.81114800  0.78285000  1
  H  H7  1  0.54963100  0.81114800  0.28285000  1
  H  H8  1  0.28109200  0.25530800  0.16857500  1
  H  H9  1  0.21890800  0.25530800  0.66857500  1
  H  H10  1  0.71890800  0.74469200  0.83142500  1
  H  H11  1  0.78109200  0.74469200  0.33142500  1
  H  H12  1  0.49753300  0.39116600  0.20137800  1
  H  H13  1  0.00246700  0.39116600  0.70137800  1
  H  H14  1  0.50246700  0.60883400  0.79862200  1
  H  H15  1  0.99753300  0.60883400  0.29862200  1
  H  H16  1  0.59851000  0.22275500  0.24105000  1
  H  H17  1  0.90149000  0.22275500  0.74105000  1
  H  H18  1  0.40149000  0.77724500  0.75895000  1
  H  H19  1  0.09851000  0.77724500  0.25895000  1
  H  H20  1  0.87886000  0.02099300  0.37140000  1
  H  H21  1  0.62114000  0.02099300  0.87140000  1
  H  H22  1  0.12114000  0.97900700  0.62860000  1
  H  H23  1  0.37886000  0.97900700  0.12860000  1
  H  H24  1  0.89575600  0.20195100  0.33681400  1
  H  H25  1  0.60424400  0.20195100  0.83681400  1
  H  H26  1  0.10424400  0.79804900  0.66318600  1
  H  H27  1  0.39575600  0.79804900  0.16318600  1
  Cl  Cl0  1  0.89727000  0.45678000  0.82699500  1
  Cl  Cl1  1  0.60273000  0.45678000  0.32699500  1
  Cl  Cl2  1  0.10273000  0.54322000  0.17300500  1
  Cl  Cl3  1  0.39727000  0.54322000  0.67300500  1
  Cl  Cl4  1  0.35009000  0.23878900  0.96980500  1
  Cl  Cl5  1  0.14991000  0.23878900  0.46980500  1
  Cl  Cl6  1  0.64991000  0.76121100  0.03019500  1
  Cl  Cl7  1  0.85009000  0.76121100  0.53019500  1
  Cl  Cl8  1  0.84266400  0.07833100  0.07640300  1
  Cl  Cl9  1  0.65733600  0.07833100  0.57640300  1
  Cl  Cl10  1  0.15733600  0.92166900  0.92359700  1
  Cl  Cl11  1  0.34266400  0.92166900  0.42359700  1
  O  O0  1  0.81914100  0.45553800  0.03245400  1
  O  O1  1  0.68085900  0.45553800  0.53245400  1
  O  O2  1  0.18085900  0.54446200  0.96754600  1
  O  O3  1  0.31914100  0.54446200  0.46754600  1
  O  O4  1  0.14943400  0.21040000  0.16137900  1
  O  O5  1  0.35056600  0.21040000  0.66137900  1
  O  O6  1  0.85056600  0.78960000  0.83862100  1
  O  O7  1  0.64943400  0.78960000  0.33862100  1
  O  O8  1  0.51623400  0.31316000  0.18286000  1
  O  O9  1  0.98376600  0.31316000  0.68286000  1
  O  O10  1  0.48376600  0.68684000  0.81714000  1
  O  O11  1  0.01623400  0.68684000  0.31714000  1
  O  O12  1  0.87175000  0.13697000  0.30934400  1
  O  O13  1  0.62825000  0.13697000  0.80934400  1
  O  O14  1  0.12825000  0.86303000  0.69065600  1
  O  O15  1  0.37175000  0.86303000  0.19065600  1
loop_
_geom_bond_atom_site_label_1
_geom_bond_atom_site_label_2
_geom_bond_distance
_geom_bond_site_symmetry_2
H0 O0 1.001614 1_555
H1 O1 1.001614 1_555
H2 O2 1.001614 1_555
H3 O3 1.001614 1_555
H4 O4 1.008915 1_555
H5 O5 1.008915 1_555
H6 O6 1.008915 1_555
H7 O7 1.008915 1_555
H8 O4 1.005753 1_555
H9 O5 1.005753 1_555
H10 O6 1.005753 1_555
H11 O7 1.005753 1_555
H12 O8 0.981737 1_555
H13 O9 0.981737 1_455
H14 O10 0.981737 1_555
H15 O11 0.981737 1_655
H16 O8 0.988916 1_555
H17 O9 0.988916 1_555
H18 O10 0.988916 1_555
H19 O11 0.988916 1_555
H20 O12 0.988615 1_555
H21 O13 0.988615 1_555
H22 O14 0.988615 1_555
H23 O15 0.988615 1_555
H24 O12 0.975577 1_555
H25 O13 0.975577 1_555
H26 O14 0.975577 1_555
H27 O15 0.975577 1_555
Cl0 Sn0 2.435916 1_656
Cl1 Sn1 2.435916 1_555
Cl2 Sn2 2.435916 1_454
Cl3 Sn3 2.435916 1_555
Cl4 Sn0 2.422942 1_556
Cl5 Sn1 2.422942 1_555
Cl6 Sn2 2.422942 1_554
Cl7 Sn3 2.422942 1_555
Cl8 Sn0 2.383391 1_655
Cl9 Sn1 2.383391 1_555
Cl10 Sn2 2.383391 1_455
Cl11 Sn3 2.383391 1_555
O0 Sn0 2.118768 1_655
O0 Sn2 2.131064 1_554
O1 Sn1 2.118768 1_555
O1 Sn3 2.131064 1_555
O2 Sn2 2.118768 1_455
O2 Sn0 2.131064 1_556
O3 Sn3 2.118768 1_555
O3 Sn1 2.131064 1_555
O4 Sn0 2.176797 1_555
O5 Sn1 2.176797 1_555
O6 Sn2 2.176797 1_555
O7 Sn3 2.176797 1_555
