# generated using pymatgen
data_Zr5(GeN3)3
_symmetry_space_group_name_H-M   'P 1'
_cell_length_a   6.87196076
_cell_length_b   10.31406779
_cell_length_c   20.77508318
_cell_angle_alpha   90.00000000
_cell_angle_beta   90.00000000
_cell_angle_gamma   138.62900519
_symmetry_Int_Tables_number   1
_chemical_formula_structural   Zr5(GeN3)3
_chemical_formula_sum   'Zr20 Ge12 N36'
_cell_volume   973.21822705
_cell_formula_units_Z   4
loop_
 _symmetry_equiv_pos_site_id
 _symmetry_equiv_pos_as_xyz
  1  'x, y, z'
loop_
 _atom_site_type_symbol
 _atom_site_label
 _atom_site_symmetry_multiplicity
 _atom_site_fract_x
 _atom_site_fract_y
 _atom_site_fract_z
 _atom_site_occupancy
  Zr  Zr0  1  -0.00000000  0.43275354  0.84420433  1
  Zr  Zr1  1  0.00000000  0.56724646  0.15579567  1
  Zr  Zr2  1  0.00000000  0.06724646  0.34420433  1
  Zr  Zr3  1  -0.00000000  0.93275354  0.65579567  1
  Zr  Zr4  1  0.36004956  0.91646655  0.89605445  1
  Zr  Zr5  1  0.36004956  0.44358301  0.10394555  1
  Zr  Zr6  1  0.36004956  0.94358301  0.39605445  1
  Zr  Zr7  1  0.36004956  0.41646655  0.60394555  1
  Zr  Zr8  1  0.63995044  0.08353345  0.10394555  1
  Zr  Zr9  1  0.63995044  0.55641699  0.89605445  1
  Zr  Zr10  1  0.63995044  0.05641699  0.60394555  1
  Zr  Zr11  1  0.63995044  0.58353345  0.39605445  1
  Zr  Zr12  1  0.00000000  0.54900574  0.63560166  1
  Zr  Zr13  1  -0.00000000  0.45099426  0.36439834  1
  Zr  Zr14  1  -0.00000000  0.95099426  0.13560166  1
  Zr  Zr15  1  0.00000000  0.04900574  0.86439834  1
  Zr  Zr16  1  0.57809408  0.28904704  -0.00000000  1
  Zr  Zr17  1  0.57809408  0.78904704  0.50000000  1
  Zr  Zr18  1  0.42190592  0.71095296  0.00000000  1
  Zr  Zr19  1  0.42190592  0.21095296  0.50000000  1
  Ge  Ge0  1  0.00000000  0.74145618  0.04262019  1
  Ge  Ge1  1  -0.00000000  0.25854382  0.95737981  1
  Ge  Ge2  1  -0.00000000  0.75854382  0.54262019  1
  Ge  Ge3  1  0.00000000  0.24145618  0.45737981  1
  Ge  Ge4  1  0.00000000  0.22019104  0.72175768  1
  Ge  Ge5  1  -0.00000000  0.77980896  0.27824232  1
  Ge  Ge6  1  -0.00000000  0.27980896  0.22175768  1
  Ge  Ge7  1  0.00000000  0.72019104  0.77824232  1
  Ge  Ge8  1  0.50000000  0.75352129  0.75000000  1
  Ge  Ge9  1  0.50000000  0.74647871  0.25000000  1
  Ge  Ge10  1  0.50000000  0.24647871  0.25000000  1
  Ge  Ge11  1  0.50000000  0.25352129  0.75000000  1
  N  N0  1  0.00000000  0.34867462  0.65295421  1
  N  N1  1  -0.00000000  0.65132538  0.34704579  1
  N  N2  1  -0.00000000  0.15132538  0.15295421  1
  N  N3  1  0.00000000  0.84867462  0.84704579  1
  N  N4  1  0.00000000  0.23558750  0.80983820  1
  N  N5  1  -0.00000000  0.76441250  0.19016180  1
  N  N6  1  -0.00000000  0.26441250  0.30983820  1
  N  N7  1  0.00000000  0.73558750  0.69016180  1
  N  N8  1  0.68954521  0.45887910  0.81389879  1
  N  N9  1  0.68954521  0.23066611  0.18610121  1
  N  N10  1  0.68954521  0.73066611  0.31389879  1
  N  N11  1  0.68954521  0.95887910  0.68610121  1
  N  N12  1  0.31045479  0.54112090  0.18610121  1
  N  N13  1  0.31045479  0.76933389  0.81389879  1
  N  N14  1  0.31045479  0.26933389  0.68610121  1
  N  N15  1  0.31045479  0.04112090  0.31389879  1
  N  N16  1  0.68603039  0.22518054  0.91588755  1
  N  N17  1  0.68603039  0.46084985  0.08411245  1
  N  N18  1  0.68603039  0.96084985  0.41588755  1
  N  N19  1  0.68603039  0.72518054  0.58411245  1
  N  N20  1  0.31396961  0.77481946  0.08411245  1
  N  N21  1  0.31396961  0.53915015  0.91588755  1
  N  N22  1  0.31396961  0.03915015  0.58411245  1
  N  N23  1  0.31396961  0.27481946  0.41588755  1
  N  N24  1  0.30193302  0.03443037  0.05875627  1
  N  N25  1  0.30193302  0.26750265  0.94124373  1
  N  N26  1  0.30193302  0.76750265  0.55875627  1
  N  N27  1  0.30193302  0.53443037  0.44124373  1
  N  N28  1  0.69806698  0.96556963  0.94124373  1
  N  N29  1  0.69806698  0.73249735  0.05875627  1
  N  N30  1  0.69806698  0.23249735  0.44124373  1
  N  N31  1  0.69806698  0.46556963  0.55875627  1
  N  N32  1  -0.00000000  0.66341848  0.95995127  1
  N  N33  1  0.00000000  0.33658152  0.04004873  1
  N  N34  1  0.00000000  0.83658152  0.45995127  1
  N  N35  1  -0.00000000  0.16341848  0.54004873  1
loop_
_geom_bond_atom_site_label_1
_geom_bond_atom_site_label_2
_geom_bond_distance
_geom_bond_site_symmetry_2
Ge0 N32 1.896705 1_554
Ge0 N29 2.034270 1_455
Ge0 N24 2.034270 1_565
Ge0 N20 2.098168 1_555
Ge0 N17 2.098168 1_455
Ge1 N33 1.896705 1_556
Ge1 N25 2.034270 1_555
Ge1 N28 2.034270 1_445
Ge1 N16 2.098168 1_455
Ge1 N21 2.098168 1_555
Ge2 N34 1.896705 1_555
Ge2 N26 2.034270 1_555
Ge2 N31 2.034270 1_455
Ge2 N19 2.098168 1_455
Ge2 N22 2.098168 1_565
Ge3 N35 1.896705 1_555
Ge3 N30 2.034270 1_455
Ge3 N27 2.034270 1_555
Ge3 N23 2.098168 1_555
Ge3 N18 2.098168 1_445
Ge4 N4 1.836758 1_555
Ge4 N14 1.932403 1_555
Ge4 N11 1.932403 1_445
Ge4 N0 1.949180 1_555
Ge5 N5 1.836758 1_555
Ge5 N10 1.932403 1_455
Ge5 N15 1.932403 1_565
Ge5 N1 1.949180 1_555
Ge6 N6 1.836758 1_555
Ge6 N9 1.932403 1_455
Ge6 N12 1.932403 1_555
Ge6 N2 1.949180 1_555
Ge7 N7 1.836758 1_555
Ge7 N13 1.932403 1_555
Ge7 N8 1.932403 1_455
Ge7 N3 1.949180 1_555
Ge8 N13 1.950470 1_555
Ge8 N11 1.950470 1_555
Ge9 N10 1.950470 1_555
Ge9 N12 1.950470 1_555
Ge10 N9 1.950470 1_555
Ge10 N15 1.950470 1_555
Ge11 N14 1.950470 1_555
Ge11 N8 1.950470 1_555
N0 Zr12 2.097442 1_555
N0 Zr7 2.247413 1_555
N0 Zr10 2.247414 1_455
N1 Zr13 2.097442 1_555
N1 Zr11 2.247413 1_455
N1 Zr6 2.247414 1_555
N2 Zr14 2.097442 1_545
N2 Zr8 2.247413 1_455
N2 Zr5 2.247414 1_555
N3 Zr15 2.097442 1_565
N3 Zr4 2.247413 1_555
N3 Zr9 2.247414 1_455
N4 Zr0 2.155273 1_555
N4 Zr15 2.233424 1_555
N5 Zr1 2.155273 1_555
N5 Zr14 2.233424 1_555
N6 Zr2 2.155273 1_555
N6 Zr13 2.233424 1_555
N7 Zr3 2.155273 1_555
N7 Zr12 2.233424 1_555
N8 Zr9 2.134467 1_555
N8 Zr0 2.425566 1_655
N9 Zr8 2.134467 1_555
N9 Zr1 2.425566 1_655
N10 Zr11 2.134467 1_555
N10 Zr2 2.425566 1_665
N11 Zr10 2.134467 1_565
N11 Zr3 2.425566 1_655
N12 Zr5 2.134467 1_555
N12 Zr1 2.425566 1_555
N13 Zr4 2.134467 1_555
N13 Zr0 2.425566 1_555
N14 Zr7 2.134467 1_555
N14 Zr3 2.425566 1_545
N15 Zr6 2.134467 1_545
N15 Zr2 2.425566 1_555
N16 Zr0 2.126867 1_655
N16 Zr4 2.149624 1_545
N16 Zr16 2.184256 1_556
N17 Zr1 2.126867 1_655
N17 Zr5 2.149624 1_555
N17 Zr16 2.184256 1_555
N18 Zr2 2.126867 1_665
N18 Zr6 2.149624 1_555
N18 Zr17 2.184256 1_555
N19 Zr3 2.126867 1_655
N19 Zr7 2.149624 1_555
N19 Zr17 2.184256 1_555
N20 Zr1 2.126867 1_555
N20 Zr8 2.149624 1_565
N20 Zr18 2.184256 1_555
N21 Zr0 2.126867 1_555
N21 Zr9 2.149624 1_555
N21 Zr18 2.184256 1_556
N22 Zr3 2.126867 1_545
N22 Zr10 2.149624 1_555
N22 Zr19 2.184256 1_555
N23 Zr2 2.126867 1_555
N23 Zr11 2.149624 1_555
N23 Zr19 2.184256 1_555
N24 Zr16 2.123204 1_555
N24 Zr8 2.183528 1_555
N24 Zr14 2.216854 1_545
N25 Zr16 2.123204 1_556
N25 Zr9 2.183528 1_555
N25 Zr15 2.216855 1_555
N26 Zr17 2.123204 1_555
N26 Zr10 2.183528 1_565
N26 Zr12 2.216855 1_555
N27 Zr17 2.123204 1_555
N27 Zr11 2.183528 1_555
N27 Zr13 2.216854 1_555
N28 Zr18 2.123204 1_556
N28 Zr4 2.183528 1_555
N28 Zr15 2.216854 1_665
N29 Zr18 2.123204 1_555
N29 Zr5 2.183528 1_555
N29 Zr14 2.216855 1_655
N30 Zr19 2.123204 1_555
N30 Zr6 2.183528 1_545
N30 Zr13 2.216855 1_655
N31 Zr19 2.123204 1_555
N31 Zr7 2.183528 1_555
N31 Zr12 2.216854 1_655
N32 Zr9 2.236884 1_455
N32 Zr4 2.236884 1_555
N32 Zr18 2.684254 1_556
N32 Zr16 2.684254 1_456
N33 Zr5 2.236884 1_555
N33 Zr8 2.236884 1_455
N33 Zr16 2.684254 1_455
N33 Zr18 2.684254 1_555
N34 Zr6 2.236884 1_555
N34 Zr11 2.236884 1_455
N34 Zr17 2.684254 1_455
N34 Zr19 2.684254 1_565
N35 Zr10 2.236884 1_455
N35 Zr7 2.236884 1_555
N35 Zr19 2.684254 1_555
N35 Zr17 2.684254 1_445
