# generated using pymatgen
data_DyPPd
_symmetry_space_group_name_H-M   'P 1'
_cell_length_a   4.00146134
_cell_length_b   6.92566912
_cell_length_c   7.72372764
_cell_angle_alpha   90.00000000
_cell_angle_beta   90.00000000
_cell_angle_gamma   90.00000000
_symmetry_Int_Tables_number   1
_chemical_formula_structural   DyPPd
_chemical_formula_sum   'Dy4 P4 Pd4'
_cell_volume   214.04609800
_cell_formula_units_Z   4
loop_
 _symmetry_equiv_pos_site_id
 _symmetry_equiv_pos_as_xyz
  1  'x, y, z'
loop_
 _atom_site_type_symbol
 _atom_site_label
 _atom_site_symmetry_multiplicity
 _atom_site_fract_x
 _atom_site_fract_y
 _atom_site_fract_z
 _atom_site_occupancy
  Dy  Dy0  1  0.25000000  0.52984399  0.18923023  1
  Dy  Dy1  1  0.75000000  0.47015601  0.81076977  1
  Dy  Dy2  1  0.75000000  0.97015601  0.68923023  1
  Dy  Dy3  1  0.25000000  0.02984399  0.31076977  1
  P  P0  1  0.25000000  0.74997460  0.87847836  1
  P  P1  1  0.75000000  0.25002540  0.12152164  1
  P  P2  1  0.75000000  0.75002540  0.37847836  1
  P  P3  1  0.25000000  0.24997460  0.62152164  1
  Pd  Pd0  1  0.25000000  0.65006500  0.56193659  1
  Pd  Pd1  1  0.75000000  0.34993500  0.43806341  1
  Pd  Pd2  1  0.75000000  0.84993500  0.06193659  1
  Pd  Pd3  1  0.25000000  0.15006500  0.93806341  1
loop_
_geom_bond_atom_site_label_1
_geom_bond_atom_site_label_2
_geom_bond_distance
_geom_bond_site_symmetry_2
Dy0 P1 2.834077 1_555
Dy0 P1 2.834077 1_455
Dy0 P0 2.843420 1_554
Dy0 P2 2.909437 1_455
Dy0 P2 2.909437 1_555
Dy0 Pd0 2.996674 1_555
Dy0 Pd1 3.041248 1_455
Dy0 Pd1 3.041248 1_555
Dy0 Pd2 3.143878 1_555
Dy0 Pd2 3.143878 1_455
Dy0 Pd3 3.268250 1_554
Dy1 P0 2.834077 1_555
Dy1 P0 2.834077 1_655
Dy1 P1 2.843420 1_556
Dy1 P3 2.909437 1_555
Dy1 P3 2.909437 1_655
Dy1 Pd1 2.996674 1_555
Dy1 Pd0 3.041248 1_555
Dy1 Pd0 3.041248 1_655
Dy1 Pd3 3.143878 1_655
Dy1 Pd3 3.143878 1_555
Dy1 Pd2 3.268250 1_556
Dy2 P3 2.834077 1_665
Dy2 P3 2.834077 1_565
Dy2 P2 2.843420 1_555
Dy2 P0 2.909437 1_655
Dy2 P0 2.909437 1_555
Dy2 Pd2 2.996674 1_556
Dy2 Pd3 3.041248 1_565
Dy2 Pd3 3.041248 1_665
Dy2 Pd0 3.143878 1_555
Dy2 Pd0 3.143878 1_655
Dy2 Pd1 3.268250 1_565
Dy3 P2 2.834077 1_545
Dy3 P2 2.834077 1_445
Dy3 P3 2.843420 1_555
Dy3 P1 2.909437 1_555
Dy3 P1 2.909437 1_455
Dy3 Pd3 2.996674 1_554
Dy3 Pd2 3.041248 1_545
Dy3 Pd2 3.041248 1_445
Dy3 Pd1 3.143878 1_455
Dy3 Pd1 3.143878 1_555
Dy3 Pd0 3.268250 1_545
P0 Pd0 2.540912 1_555
P0 Pd2 2.547553 1_456
P0 Pd2 2.547553 1_556
P0 Pd3 2.808853 1_565
P1 Pd1 2.540912 1_555
P1 Pd3 2.547553 1_654
P1 Pd3 2.547553 1_554
P1 Pd2 2.808853 1_545
P2 Pd2 2.540912 1_555
P2 Pd0 2.547553 1_555
P2 Pd0 2.547553 1_655
P2 Pd1 2.808853 1_555
P3 Pd3 2.540912 1_555
P3 Pd1 2.547553 1_455
P3 Pd1 2.547553 1_555
P3 Pd0 2.808853 1_555
Pd0 Pd1 3.039556 1_455
Pd0 Pd1 3.039556 1_555
Pd2 Pd3 3.039556 1_664
Pd2 Pd3 3.039556 1_564
