# generated using pymatgen
data_LaSiNi4
_symmetry_space_group_name_H-M   'P 1'
_cell_length_a   4.87294686
_cell_length_b   4.87294654
_cell_length_c   3.94953473
_cell_angle_alpha   90.00000000
_cell_angle_beta   90.00000000
_cell_angle_gamma   115.31628612
_symmetry_Int_Tables_number   1
_chemical_formula_structural   LaSiNi4
_chemical_formula_sum   'La1 Si1 Ni4'
_cell_volume   84.77718098
_cell_formula_units_Z   1
loop_
 _symmetry_equiv_pos_site_id
 _symmetry_equiv_pos_as_xyz
  1  'x, y, z'
loop_
 _atom_site_type_symbol
 _atom_site_label
 _atom_site_symmetry_multiplicity
 _atom_site_fract_x
 _atom_site_fract_y
 _atom_site_fract_z
 _atom_site_occupancy
  La  La0  1  -0.00000000  0.00000000  -0.00000000  1
  Si  Si0  1  0.50000000  0.50000000  0.50000000  1
  Ni  Ni0  1  0.34245254  0.65754746  0.00000000  1
  Ni  Ni1  1  0.65754746  0.34245254  0.00000000  1
  Ni  Ni2  1  0.50000000  0.00000000  0.50000000  1
  Ni  Ni3  1  -0.00000000  0.50000000  0.50000000  1
loop_
_geom_bond_atom_site_label_1
_geom_bond_atom_site_label_2
_geom_bond_distance
_geom_bond_site_symmetry_2
La0 Ni1 2.819763 1_455
La0 Ni0 2.819763 1_545
La0 Ni1 2.911816 1_445
La0 Ni0 2.911816 1_555
La0 Ni0 2.911816 1_445
La0 Ni1 2.911816 1_555
La0 Ni3 3.136257 1_544
La0 Ni3 3.136257 1_555
La0 Ni3 3.136257 1_545
La0 Ni3 3.136257 1_554
La0 Ni2 3.136257 1_554
La0 Ni2 3.136257 1_454
La0 Ni2 3.136257 1_455
La0 Ni2 3.136257 1_555
La0 Si0 3.270401 1_444
La0 Si0 3.270401 1_555
La0 Si0 3.270401 1_445
La0 Si0 3.270401 1_554
Ni0 Si0 2.362745 1_555
Ni0 Si0 2.362745 1_554
Ni0 Ni2 2.485593 1_564
Ni0 Ni2 2.485593 1_565
Ni0 Ni3 2.485593 1_554
Ni0 Ni3 2.485593 1_555
Ni0 Ni1 2.594499 1_555
Ni1 Si0 2.362745 1_554
Ni1 Si0 2.362745 1_555
Ni1 Ni2 2.485593 1_554
Ni1 Ni2 2.485593 1_555
Ni1 Ni3 2.485593 1_654
Ni1 Ni3 2.485593 1_655
Ni2 Si0 2.436473 1_545
Ni2 Si0 2.436473 1_555
Ni2 Ni3 2.606879 1_545
Ni2 Ni3 2.606879 1_655
Ni3 Si0 2.436473 1_455
Ni3 Si0 2.436473 1_555
