# generated using pymatgen
data_SrB12(H3O2)4
_symmetry_space_group_name_H-M   'P 1'
_cell_length_a   7.12103705
_cell_length_b   7.12103705
_cell_length_c   7.12103681
_cell_angle_alpha   72.79536804
_cell_angle_beta   72.79536804
_cell_angle_gamma   72.79536416
_symmetry_Int_Tables_number   1
_chemical_formula_structural   SrB12(H3O2)4
_chemical_formula_sum   'Sr1 B12 H12 O8'
_cell_volume   320.80990083
_cell_formula_units_Z   1
loop_
 _symmetry_equiv_pos_site_id
 _symmetry_equiv_pos_as_xyz
  1  'x, y, z'
loop_
 _atom_site_type_symbol
 _atom_site_label
 _atom_site_symmetry_multiplicity
 _atom_site_fract_x
 _atom_site_fract_y
 _atom_site_fract_z
 _atom_site_occupancy
  Sr  Sr0  1  0.00000000  0.00000000  0.00000000  1
  B  B0  1  0.48958000  0.72202100  0.55579400  1
  B  B1  1  0.72202100  0.55579400  0.48958000  1
  B  B2  1  0.55579400  0.48958000  0.72202100  1
  B  B3  1  0.51042000  0.27797900  0.44420600  1
  B  B4  1  0.27797900  0.44420600  0.51042000  1
  B  B5  1  0.44420600  0.51042000  0.27797900  1
  B  B6  1  0.30691200  0.70624200  0.41414200  1
  B  B7  1  0.70624200  0.41414200  0.30691200  1
  B  B8  1  0.41414200  0.30691200  0.70624200  1
  B  B9  1  0.69308800  0.29375800  0.58585800  1
  B  B10  1  0.29375800  0.58585800  0.69308800  1
  B  B11  1  0.58585800  0.69308800  0.29375800  1
  H  H0  1  0.47527600  0.87493100  0.59920300  1
  H  H1  1  0.87493100  0.59920300  0.47527600  1
  H  H2  1  0.59920300  0.47527600  0.87493100  1
  H  H3  1  0.52472400  0.12506900  0.40079700  1
  H  H4  1  0.12506900  0.40079700  0.52472400  1
  H  H5  1  0.40079700  0.52472400  0.12506900  1
  H  H6  1  0.19104000  0.05417300  0.28248300  1
  H  H7  1  0.05417300  0.28248300  0.19104000  1
  H  H8  1  0.28248300  0.19104000  0.05417300  1
  H  H9  1  0.80896000  0.94582700  0.71751700  1
  H  H10  1  0.94582700  0.71751700  0.80896000  1
  H  H11  1  0.71751700  0.80896000  0.94582700  1
  O  O0  1  0.79651600  0.79651600  0.79651600  1
  O  O1  1  0.20348400  0.20348400  0.20348400  1
  O  O2  1  0.83617100  0.14791600  0.66319900  1
  O  O3  1  0.14791600  0.66319900  0.83617100  1
  O  O4  1  0.66319900  0.83617100  0.14791600  1
  O  O5  1  0.16382900  0.85208400  0.33680100  1
  O  O6  1  0.85208400  0.33680100  0.16382900  1
  O  O7  1  0.33680100  0.16382900  0.85208400  1
loop_
_geom_bond_atom_site_label_1
_geom_bond_atom_site_label_2
_geom_bond_distance
_geom_bond_site_symmetry_2
B0 H0 1.185943 1_555
B1 H1 1.185943 1_555
B2 H2 1.185943 1_555
B3 H3 1.185943 1_555
B4 H4 1.185943 1_555
B5 H5 1.185943 1_555
B6 O5 1.337038 1_555
B7 O6 1.337038 1_555
B8 O7 1.337039 1_555
B9 O2 1.337038 1_555
B10 O3 1.337038 1_555
B11 O4 1.337039 1_555
H6 O1 1.061709 1_555
H6 O5 1.431591 1_545
H7 O1 1.061709 1_555
H7 O6 1.431591 1_455
H8 O1 1.061709 1_555
H8 O7 1.431591 1_554
H9 O0 1.061709 1_555
H9 O2 1.431591 1_565
H10 O0 1.061709 1_555
H10 O3 1.431591 1_655
H11 O0 1.061709 1_555
H11 O4 1.431591 1_556
O2 Sr0 2.767043 1_656
O3 Sr0 2.767043 1_566
O4 Sr0 2.767043 1_665
O5 Sr0 2.767043 1_565
O6 Sr0 2.767043 1_655
O7 Sr0 2.767043 1_556
