# generated using pymatgen
data_Sr2Ca3Cu4(BiO6)2
_symmetry_space_group_name_H-M   'P 1'
_cell_length_a   3.81495400
_cell_length_b   3.81495400
_cell_length_c   22.33676578
_cell_angle_alpha   94.89881366
_cell_angle_beta   94.89881366
_cell_angle_gamma   90.00000000
_symmetry_Int_Tables_number   1
_chemical_formula_structural   Sr2Ca3Cu4(BiO6)2
_chemical_formula_sum   'Sr2 Ca3 Cu4 Bi2 O12'
_cell_volume   322.70706556
_cell_formula_units_Z   1
loop_
 _symmetry_equiv_pos_site_id
 _symmetry_equiv_pos_as_xyz
  1  'x, y, z'
loop_
 _atom_site_type_symbol
 _atom_site_label
 _atom_site_symmetry_multiplicity
 _atom_site_fract_x
 _atom_site_fract_y
 _atom_site_fract_z
 _atom_site_occupancy
  Sr  Sr0  1  0.84879100  0.84879100  0.69758300  1
  Sr  Sr1  1  0.15120900  0.15120900  0.30241700  1
  Ca  Ca0  1  0.00000000  0.00000000  0.00000000  1
  Ca  Ca1  1  0.92583100  0.92583100  0.85166200  1
  Ca  Ca2  1  0.07416900  0.07416900  0.14833800  1
  Cu  Cu0  1  0.46292400  0.46292400  0.92584800  1
  Cu  Cu1  1  0.53707600  0.53707600  0.07415200  1
  Cu  Cu2  1  0.39103700  0.39103700  0.78207400  1
  Cu  Cu3  1  0.60896300  0.60896300  0.21792600  1
  Bi  Bi0  1  0.28338300  0.28338300  0.56676600  1
  Bi  Bi1  1  0.71661700  0.71661700  0.43323400  1
  O  O0  1  0.96322000  0.46322000  0.92644000  1
  O  O1  1  0.46322000  0.96322000  0.92644000  1
  O  O2  1  0.03678000  0.53678000  0.07356000  1
  O  O3  1  0.53678000  0.03678000  0.07356000  1
  O  O4  1  0.88958400  0.38958400  0.77916800  1
  O  O5  1  0.38958400  0.88958400  0.77916800  1
  O  O6  1  0.11041600  0.61041600  0.22083200  1
  O  O7  1  0.61041600  0.11041600  0.22083200  1
  O  O8  1  0.32986100  0.32986100  0.65972200  1
  O  O9  1  0.67013900  0.67013900  0.34027800  1
  O  O10  1  0.21705300  0.21705300  0.43410600  1
  O  O11  1  0.78294700  0.78294700  0.56589400  1
loop_
_geom_bond_atom_site_label_1
_geom_bond_atom_site_label_2
_geom_bond_distance
_geom_bond_site_symmetry_2
Ca0 O1 2.509750 1_444
Ca0 O1 2.509750 1_544
Ca0 O0 2.509750 1_444
Ca0 O0 2.509750 1_454
Ca0 O3 2.509750 1_555
Ca0 O2 2.509750 1_545
Ca0 O2 2.509750 1_555
Ca0 O3 2.509750 1_455
Ca1 O5 2.494453 1_655
Ca1 O4 2.494453 1_555
Ca1 O5 2.494453 1_555
Ca1 O4 2.494453 1_565
Ca1 O0 2.527385 1_565
Ca1 O0 2.527385 1_555
Ca1 O1 2.527385 1_555
Ca1 O1 2.527385 1_655
Ca2 O7 2.494453 1_555
Ca2 O6 2.494453 1_555
Ca2 O6 2.494453 1_545
Ca2 O7 2.494453 1_455
Ca2 O2 2.527385 1_555
Ca2 O3 2.527385 1_455
Ca2 O2 2.527385 1_545
Ca2 O3 2.527385 1_555
Cu0 O0 1.907522 1_555
Cu0 O1 1.907522 1_555
Cu0 O1 1.907522 1_545
Cu0 O0 1.907522 1_455
Cu1 O3 1.907522 1_565
Cu1 O2 1.907522 1_655
Cu1 O3 1.907522 1_555
Cu1 O2 1.907522 1_555
Cu2 O4 1.908565 1_455
Cu2 O5 1.908565 1_545
Cu2 O5 1.908565 1_555
Cu2 O4 1.908565 1_555
Cu3 O6 1.908565 1_555
Cu3 O7 1.908565 1_555
Cu3 O7 1.908565 1_565
Cu3 O6 1.908565 1_655
Bi0 O8 2.061139 1_555
Bi0 O11 2.697649 1_555
Bi0 O11 2.697649 1_545
Bi0 O11 2.697649 1_455
Bi0 O11 2.697649 1_445
Bi1 O9 2.061139 1_555
Bi1 O10 2.697649 1_555
Bi1 O10 2.697649 1_655
Bi1 O10 2.697649 1_565
Bi1 O10 2.697649 1_665
O4 Sr0 2.628872 1_555
O4 Sr0 2.628874 1_545
O5 Sr0 2.628872 1_555
O5 Sr0 2.628874 1_455
O6 Sr1 2.628872 1_555
O6 Sr1 2.628874 1_565
O7 Sr1 2.628872 1_555
O7 Sr1 2.628874 1_655
O8 Sr0 2.825188 1_555
O8 Sr0 2.825190 1_545
O8 Sr0 2.825190 1_455
O8 Sr0 2.825193 1_445
O9 Sr1 2.825188 1_555
O9 Sr1 2.825190 1_655
O9 Sr1 2.825190 1_565
O9 Sr1 2.825193 1_665
O10 Sr1 2.919977 1_555
O11 Sr0 2.919977 1_555
