# generated using pymatgen
data_Ba5Na(GaSb3)2
_symmetry_space_group_name_H-M   'P 1'
_cell_length_a   10.86283626
_cell_length_b   12.82296875
_cell_length_c   14.45510691
_cell_angle_alpha   90.00000000
_cell_angle_beta   90.00000000
_cell_angle_gamma   90.00000000
_symmetry_Int_Tables_number   1
_chemical_formula_structural   Ba5Na(GaSb3)2
_chemical_formula_sum   'Ba20 Na4 Ga8 Sb24'
_cell_volume   2013.50691398
_cell_formula_units_Z   4
loop_
 _symmetry_equiv_pos_site_id
 _symmetry_equiv_pos_as_xyz
  1  'x, y, z'
loop_
 _atom_site_type_symbol
 _atom_site_label
 _atom_site_symmetry_multiplicity
 _atom_site_fract_x
 _atom_site_fract_y
 _atom_site_fract_z
 _atom_site_occupancy
  Ba  Ba0  1  0.97450146  0.57870942  0.74500502  1
  Ba  Ba1  1  0.02549854  0.42129058  0.25499498  1
  Ba  Ba2  1  0.02549854  0.92129058  0.24500502  1
  Ba  Ba3  1  0.47450146  0.42129058  0.25499498  1
  Ba  Ba4  1  0.97450146  0.07870942  0.75499498  1
  Ba  Ba5  1  0.52549854  0.57870942  0.74500502  1
  Ba  Ba6  1  0.52549854  0.07870942  0.75499498  1
  Ba  Ba7  1  0.47450146  0.92129058  0.24500502  1
  Ba  Ba8  1  0.75000000  0.66454837  0.30969545  1
  Ba  Ba9  1  0.25000000  0.33545163  0.69030455  1
  Ba  Ba10  1  0.25000000  0.83545163  0.80969545  1
  Ba  Ba11  1  0.75000000  0.16454837  0.19030455  1
  Ba  Ba12  1  0.48102379  0.82876417  0.53266352  1
  Ba  Ba13  1  0.51897621  0.17123583  0.46733648  1
  Ba  Ba14  1  0.51897621  0.67123583  0.03266352  1
  Ba  Ba15  1  0.98102379  0.17123583  0.46733648  1
  Ba  Ba16  1  0.48102379  0.32876417  0.96733648  1
  Ba  Ba17  1  0.01897621  0.82876417  0.53266352  1
  Ba  Ba18  1  0.01897621  0.32876417  0.96733648  1
  Ba  Ba19  1  0.98102379  0.67123583  0.03266352  1
  Na  Na0  1  -0.00000000  0.00000000  -0.00000000  1
  Na  Na1  1  0.00000000  0.50000000  0.50000000  1
  Na  Na2  1  0.50000000  0.00000000  -0.00000000  1
  Na  Na3  1  0.50000000  0.50000000  0.50000000  1
  Ga  Ga0  1  0.75000000  0.80880846  0.69337886  1
  Ga  Ga1  1  0.25000000  0.19119154  0.30662114  1
  Ga  Ga2  1  0.25000000  0.69119154  0.19337886  1
  Ga  Ga3  1  0.75000000  0.30880846  0.80662114  1
  Ga  Ga4  1  0.75000000  0.90801118  0.92213298  1
  Ga  Ga5  1  0.25000000  0.09198882  0.07786702  1
  Ga  Ga6  1  0.25000000  0.59198882  0.42213298  1
  Ga  Ga7  1  0.75000000  0.40801118  0.57786702  1
  Sb  Sb0  1  0.75000000  0.95579421  0.38391106  1
  Sb  Sb1  1  0.25000000  0.04420579  0.61608894  1
  Sb  Sb2  1  0.25000000  0.54420579  0.88391106  1
  Sb  Sb3  1  0.75000000  0.45579421  0.11608894  1
  Sb  Sb4  1  0.94058545  0.82569523  0.82057919  1
  Sb  Sb5  1  0.05941455  0.17430477  0.17942081  1
  Sb  Sb6  1  0.05941455  0.67430477  0.32057919  1
  Sb  Sb7  1  0.44058545  0.17430477  0.17942081  1
  Sb  Sb8  1  0.94058545  0.32569523  0.67942081  1
  Sb  Sb9  1  0.55941455  0.82569523  0.82057919  1
  Sb  Sb10  1  0.55941455  0.32569523  0.67942081  1
  Sb  Sb11  1  0.44058545  0.67430477  0.32057919  1
  Sb  Sb12  1  0.75000000  0.64123179  0.56608629  1
  Sb  Sb13  1  0.25000000  0.35876821  0.43391371  1
  Sb  Sb14  1  0.25000000  0.85876821  0.06608629  1
  Sb  Sb15  1  0.75000000  0.14123179  0.93391371  1
  Sb  Sb16  1  0.75000000  0.99234921  0.58426717  1
  Sb  Sb17  1  0.25000000  0.00765079  0.41573283  1
  Sb  Sb18  1  0.25000000  0.50765079  0.08426717  1
  Sb  Sb19  1  0.75000000  0.49234921  0.91573283  1
  Sb  Sb20  1  0.75000000  0.37681180  0.38673395  1
  Sb  Sb21  1  0.25000000  0.62318820  0.61326605  1
  Sb  Sb22  1  0.25000000  0.12318820  0.88673395  1
  Sb  Sb23  1  0.75000000  0.87681180  0.11326605  1
loop_
_geom_bond_atom_site_label_1
_geom_bond_atom_site_label_2
_geom_bond_distance
_geom_bond_site_symmetry_2
Ba0 Sb4 3.370402 1_555
Ba0 Sb8 3.400085 1_555
Ba0 Sb21 3.592755 1_655
Ba0 Sb2 3.630929 1_655
Ba0 Sb19 3.642000 1_555
Ba0 Sb12 3.644039 1_555
Ba1 Sb5 3.370402 1_555
Ba1 Sb6 3.400085 1_555
Ba1 Sb20 3.592755 1_455
Ba1 Sb3 3.630929 1_455
Ba1 Sb18 3.642000 1_555
Ba1 Sb13 3.644039 1_555
Ba2 Sb6 3.370402 1_555
Ba2 Sb5 3.400085 1_565
Ba2 Sb23 3.592755 1_455
Ba2 Sb0 3.630929 1_455
Ba2 Sb17 3.642000 1_565
Ba2 Sb14 3.644039 1_555
Ba3 Sb7 3.370402 1_555
Ba3 Sb11 3.400085 1_555
Ba3 Sb20 3.592755 1_555
Ba3 Sb3 3.630929 1_555
Ba3 Sb18 3.642000 1_555
Ba3 Sb13 3.644039 1_555
Ba4 Sb8 3.370402 1_555
Ba4 Sb4 3.400085 1_545
Ba4 Sb22 3.592755 1_655
Ba4 Sb1 3.630929 1_655
Ba4 Sb16 3.642000 1_545
Ba4 Sb15 3.644039 1_555
Ba5 Sb9 3.370402 1_555
Ba5 Sb10 3.400085 1_555
Ba5 Sb21 3.592755 1_555
Ba5 Sb2 3.630929 1_555
Ba5 Sb19 3.642000 1_555
Ba5 Sb12 3.644039 1_555
Ba6 Sb10 3.370402 1_555
Ba6 Sb9 3.400085 1_545
Ba6 Sb22 3.592755 1_555
Ba6 Sb1 3.630929 1_555
Ba6 Sb16 3.642000 1_545
Ba6 Sb15 3.644039 1_555
Ba7 Sb11 3.370402 1_555
Ba7 Sb7 3.400085 1_565
Ba7 Sb23 3.592755 1_555
Ba7 Sb0 3.630929 1_555
Ba7 Sb17 3.642000 1_565
Ba7 Sb14 3.644039 1_555
Ba8 Sb11 3.367125 1_555
Ba8 Sb6 3.367125 1_655
Ba8 Sb12 3.718198 1_555
Ba8 Sb20 3.854027 1_555
Ba8 Sb3 3.872686 1_555
Ba8 Sb0 3.885666 1_555
Ba8 Sb23 3.933280 1_555
Ba9 Sb8 3.367125 1_455
Ba9 Sb10 3.367125 1_555
Ba9 Sb13 3.718198 1_555
Ba9 Sb21 3.854027 1_555
Ba9 Sb2 3.872686 1_555
Ba9 Sb1 3.885666 1_555
Ba9 Sb22 3.933280 1_555
Ba10 Sb4 3.367125 1_455
Ba10 Sb9 3.367125 1_555
Ba10 Sb14 3.718198 1_556
Ba10 Sb22 3.854027 1_565
Ba10 Sb1 3.872686 1_565
Ba10 Sb2 3.885666 1_555
Ba10 Sb21 3.933280 1_555
Ba11 Sb7 3.367125 1_555
Ba11 Sb5 3.367125 1_655
Ba11 Sb15 3.718198 1_554
Ba11 Sb23 3.854027 1_545
Ba11 Sb0 3.872686 1_545
Ba11 Sb3 3.885666 1_555
Ba11 Sb20 3.933280 1_555
Ba12 Sb16 3.673379 1_555
Ba12 Sb11 3.676191 1_555
Ba12 Ga0 3.741619 1_555
Ba12 Sb17 3.796929 1_565
Ba12 Sb12 3.814876 1_555
Ba12 Sb21 3.821577 1_555
Ba12 Sb1 3.922267 1_565
Ba12 Sb0 3.976682 1_555
Ba13 Sb17 3.673379 1_555
Ba13 Sb10 3.676191 1_555
Ba13 Ga1 3.741619 1_555
Ba13 Sb16 3.796929 1_545
Ba13 Sb13 3.814876 1_555
Ba13 Sb20 3.821577 1_555
Ba13 Sb0 3.922267 1_545
Ba13 Sb1 3.976682 1_555
Ba14 Sb18 3.673379 1_555
Ba14 Sb9 3.676191 1_554
Ba14 Ga2 3.741619 1_555
Ba14 Sb19 3.796929 1_554
Ba14 Sb14 3.814876 1_555
Ba14 Sb23 3.821577 1_555
Ba14 Sb3 3.922267 1_555
Ba14 Sb2 3.976682 1_554
Ba15 Sb17 3.673379 1_655
Ba15 Sb8 3.676191 1_555
Ba15 Ga1 3.741619 1_655
Ba15 Sb16 3.796929 1_545
Ba15 Sb13 3.814876 1_655
Ba15 Sb20 3.821577 1_555
Ba15 Sb0 3.922267 1_545
Ba15 Sb1 3.976682 1_655
Ba16 Sb19 3.673379 1_555
Ba16 Sb7 3.676191 1_556
Ba16 Ga3 3.741619 1_555
Ba16 Sb18 3.796929 1_556
Ba16 Sb15 3.814876 1_555
Ba16 Sb22 3.821577 1_555
Ba16 Sb2 3.922267 1_555
Ba16 Sb3 3.976682 1_556
Ba17 Sb16 3.673379 1_455
Ba17 Sb6 3.676191 1_555
Ba17 Ga0 3.741619 1_455
Ba17 Sb17 3.796929 1_565
Ba17 Sb12 3.814876 1_455
Ba17 Sb21 3.821577 1_555
Ba17 Sb1 3.922267 1_565
Ba17 Sb0 3.976682 1_455
Ba18 Sb19 3.673379 1_455
Ba18 Sb5 3.676191 1_556
Ba18 Ga3 3.741619 1_455
Ba18 Sb18 3.796929 1_556
Ba18 Sb15 3.814876 1_455
Ba18 Sb22 3.821577 1_555
Ba18 Sb2 3.922267 1_555
Ba18 Sb3 3.976682 1_456
Ba19 Sb18 3.673379 1_655
Ba19 Sb4 3.676191 1_554
Ba19 Ga2 3.741619 1_655
Ba19 Sb19 3.796929 1_554
Ba19 Sb14 3.814876 1_655
Ba19 Sb23 3.821577 1_555
Ba19 Sb3 3.922267 1_555
Ba19 Sb2 3.976682 1_654
Na0 Sb14 3.401089 1_545
Na0 Sb15 3.401089 1_454
Na0 Sb4 3.484069 1_444
Na0 Sb5 3.484069 1_555
Na0 Sb22 3.542738 1_554
Na0 Sb23 3.542738 1_445
Na1 Sb13 3.401089 1_555
Na1 Sb12 3.401089 1_455
Na1 Sb6 3.484069 1_555
Na1 Sb8 3.484069 1_455
Na1 Sb21 3.542738 1_555
Na1 Sb20 3.542738 1_455
Na2 Sb14 3.401089 1_545
Na2 Sb15 3.401089 1_554
Na2 Sb9 3.484069 1_544
Na2 Sb7 3.484069 1_555
Na2 Sb22 3.542738 1_554
Na2 Sb23 3.542738 1_545
Na3 Sb13 3.401089 1_555
Na3 Sb12 3.401089 1_555
Na3 Sb10 3.484069 1_555
Na3 Sb11 3.484069 1_555
Na3 Sb21 3.542738 1_555
Na3 Sb20 3.542738 1_555
Ga0 Sb9 2.777377 1_555
Ga0 Sb4 2.777377 1_555
Ga0 Sb12 2.828988 1_555
Ga0 Sb16 2.833154 1_555
Ga1 Sb7 2.777377 1_555
Ga1 Sb5 2.777377 1_555
Ga1 Sb13 2.828988 1_555
Ga1 Sb17 2.833154 1_555
Ga2 Sb6 2.777377 1_555
Ga2 Sb11 2.777377 1_555
Ga2 Sb14 2.828988 1_555
Ga2 Sb18 2.833154 1_555
Ga3 Sb10 2.777377 1_555
Ga3 Sb8 2.777377 1_555
Ga3 Sb15 2.828988 1_555
Ga3 Sb19 2.833154 1_555
Ga4 Sb9 2.748678 1_555
Ga4 Sb4 2.748678 1_555
Ga4 Sb23 2.791664 1_556
Ga4 Sb15 2.995425 1_565
Ga4 Na2 3.167551 1_566
Ga4 Na0 3.167551 1_666
Ga5 Sb5 2.748678 1_555
Ga5 Sb7 2.748678 1_555
Ga5 Sb22 2.791664 1_554
Ga5 Sb14 2.995425 1_545
Ga5 Na2 3.167551 1_555
Ga5 Na0 3.167551 1_555
Ga6 Sb11 2.748678 1_555
Ga6 Sb6 2.748678 1_555
Ga6 Sb21 2.791664 1_555
Ga6 Sb13 2.995425 1_555
Ga6 Na3 3.167551 1_555
Ga6 Na1 3.167551 1_555
Ga7 Sb10 2.748678 1_555
Ga7 Sb8 2.748678 1_555
Ga7 Sb20 2.791664 1_555
Ga7 Sb12 2.995425 1_555
Ga7 Na1 3.167551 1_655
Ga7 Na3 3.167551 1_555
Sb0 Sb16 2.933857 1_555
Sb1 Sb17 2.933857 1_555
Sb18 Sb2 2.933857 1_554
Sb19 Sb3 2.933857 1_556
