# generated using pymatgen
data_ThPt
_symmetry_space_group_name_H-M   'P 1'
_cell_length_a   3.92563975
_cell_length_b   4.44901241
_cell_length_c   5.98428352
_cell_angle_alpha   90.00000000
_cell_angle_beta   109.14717299
_cell_angle_gamma   90.00000000
_symmetry_Int_Tables_number   1
_chemical_formula_structural   ThPt
_chemical_formula_sum   'Th2 Pt2'
_cell_volume   98.73487198
_cell_formula_units_Z   2
loop_
 _symmetry_equiv_pos_site_id
 _symmetry_equiv_pos_as_xyz
  1  'x, y, z'
loop_
 _atom_site_type_symbol
 _atom_site_label
 _atom_site_symmetry_multiplicity
 _atom_site_fract_x
 _atom_site_fract_y
 _atom_site_fract_z
 _atom_site_occupancy
  Th  Th0  1  0.13591492  0.75000000  0.27182884  1
  Th  Th1  1  0.86408508  0.25000000  0.72817116  1
  Pt  Pt0  1  0.40386335  0.75000000  0.80772769  1
  Pt  Pt1  1  0.59613665  0.25000000  0.19227231  1
loop_
_geom_bond_atom_site_label_1
_geom_bond_atom_site_label_2
_geom_bond_distance
_geom_bond_site_symmetry_2
Pt0 Th1 3.000561 1_565
Pt0 Th1 3.000561 1_555
Pt0 Th1 3.000561 1_465
Pt0 Th1 3.000561 1_455
Pt0 Th0 3.029558 1_555
Pt0 Pt1 3.110362 1_566
Pt0 Pt1 3.110362 1_556
Pt0 Th0 3.276628 1_556
Pt0 Th0 3.276632 1_656
Pt1 Th0 3.000561 1_555
Pt1 Th0 3.000561 1_545
Pt1 Th0 3.000561 1_655
Pt1 Th0 3.000561 1_645
Pt1 Th1 3.029558 1_555
Pt1 Th1 3.276628 1_554
Pt1 Th1 3.276632 1_454
