# generated using pymatgen
data_CaAsO5
_symmetry_space_group_name_H-M   'P 1'
_cell_length_a   6.56131200
_cell_length_b   8.62942800
_cell_length_c   15.32572600
_cell_angle_alpha   90.00000000
_cell_angle_beta   90.00000000
_cell_angle_gamma   90.00000000
_symmetry_Int_Tables_number   1
_chemical_formula_structural   CaAsO5
_chemical_formula_sum   'Ca8 As8 O40'
_cell_volume   867.74826882
_cell_formula_units_Z   8
loop_
 _symmetry_equiv_pos_site_id
 _symmetry_equiv_pos_as_xyz
  1  'x, y, z'
loop_
 _atom_site_type_symbol
 _atom_site_label
 _atom_site_symmetry_multiplicity
 _atom_site_fract_x
 _atom_site_fract_y
 _atom_site_fract_z
 _atom_site_occupancy
  Ca  Ca0  1  0.36138500  0.19133800  0.46356800  1
  Ca  Ca1  1  0.13861500  0.30866200  0.96356800  1
  Ca  Ca2  1  0.86138500  0.30866200  0.53643200  1
  Ca  Ca3  1  0.63861500  0.19133800  0.03643200  1
  Ca  Ca4  1  0.63861500  0.80866200  0.53643200  1
  Ca  Ca5  1  0.86138500  0.69133800  0.03643200  1
  Ca  Ca6  1  0.13861500  0.69133800  0.46356800  1
  Ca  Ca7  1  0.36138500  0.80866200  0.96356800  1
  As  As0  1  0.86571400  0.04990500  0.38752800  1
  As  As1  1  0.63428600  0.45009500  0.88752800  1
  As  As2  1  0.36571400  0.45009500  0.61247200  1
  As  As3  1  0.13428600  0.04990500  0.11247200  1
  As  As4  1  0.13428600  0.95009500  0.61247200  1
  As  As5  1  0.36571400  0.54990500  0.11247200  1
  As  As6  1  0.63428600  0.54990500  0.38752800  1
  As  As7  1  0.86571400  0.95009500  0.88752800  1
  O  O0  1  0.73723500  0.09630700  0.28603300  1
  O  O1  1  0.76276500  0.40369300  0.78603300  1
  O  O2  1  0.23723500  0.40369300  0.71396700  1
  O  O3  1  0.26276500  0.09630700  0.21396700  1
  O  O4  1  0.26276500  0.90369300  0.71396700  1
  O  O5  1  0.23723500  0.59630700  0.21396700  1
  O  O6  1  0.76276500  0.59630700  0.28603300  1
  O  O7  1  0.73723500  0.90369300  0.78603300  1
  O  O8  1  0.03040900  0.19888700  0.40701100  1
  O  O9  1  0.46959100  0.30111300  0.90701100  1
  O  O10  1  0.53040900  0.30111300  0.59298900  1
  O  O11  1  0.96959100  0.19888700  0.09298900  1
  O  O12  1  0.96959100  0.80111300  0.59298900  1
  O  O13  1  0.53040900  0.69888700  0.09298900  1
  O  O14  1  0.46959100  0.69888700  0.40701100  1
  O  O15  1  0.03040900  0.80111300  0.90701100  1
  O  O16  1  0.96170000  0.86958400  0.38501300  1
  O  O17  1  0.53830000  0.63041600  0.88501300  1
  O  O18  1  0.46170000  0.63041600  0.61498700  1
  O  O19  1  0.03830000  0.86958400  0.11498700  1
  O  O20  1  0.03830000  0.13041600  0.61498700  1
  O  O21  1  0.46170000  0.36958400  0.11498700  1
  O  O22  1  0.53830000  0.36958400  0.38501300  1
  O  O23  1  0.96170000  0.13041600  0.88501300  1
  O  O24  1  0.68399500  0.06289300  0.46892400  1
  O  O25  1  0.81600500  0.43710700  0.96892400  1
  O  O26  1  0.18399500  0.43710700  0.53107600  1
  O  O27  1  0.31600500  0.06289300  0.03107600  1
  O  O28  1  0.31600500  0.93710700  0.53107600  1
  O  O29  1  0.18399500  0.56289300  0.03107600  1
  O  O30  1  0.81600500  0.56289300  0.46892400  1
  O  O31  1  0.68399500  0.93710700  0.96892400  1
  O  O32  1  0.54401400  0.97002300  0.28609400  1
  O  O33  1  0.95598600  0.52997700  0.78609400  1
  O  O34  1  0.04401400  0.52997700  0.71390600  1
  O  O35  1  0.45598600  0.97002300  0.21390600  1
  O  O36  1  0.45598600  0.02997700  0.71390600  1
  O  O37  1  0.04401400  0.47002300  0.21390600  1
  O  O38  1  0.95598600  0.47002300  0.28609400  1
  O  O39  1  0.54401400  0.02997700  0.78609400  1
loop_
_geom_bond_atom_site_label_1
_geom_bond_atom_site_label_2
_geom_bond_distance
_geom_bond_site_symmetry_2
Ca0 O22 2.272177 1_555
Ca0 O8 2.339135 1_555
Ca0 O24 2.390797 1_555
Ca0 O28 2.443794 1_545
Ca0 O10 2.462001 1_555
Ca0 O26 2.631177 1_555
Ca1 O23 2.272177 1_455
Ca1 O9 2.339135 1_555
Ca1 O25 2.390797 1_455
Ca1 O29 2.443794 1_556
Ca1 O11 2.462001 1_456
Ca1 O27 2.631177 1_556
Ca2 O20 2.272177 1_655
Ca2 O10 2.339135 1_555
Ca2 O26 2.390797 1_655
Ca2 O30 2.443794 1_555
Ca2 O8 2.462001 1_655
Ca2 O24 2.631177 1_555
Ca3 O21 2.272177 1_555
Ca3 O11 2.339135 1_555
Ca3 O27 2.390797 1_555
Ca3 O31 2.443794 1_544
Ca3 O9 2.462001 1_554
Ca3 O25 2.631177 1_554
Ca4 O18 2.272177 1_555
Ca4 O12 2.339135 1_555
Ca4 O28 2.390797 1_555
Ca4 O24 2.443794 1_565
Ca4 O14 2.462001 1_555
Ca4 O30 2.631177 1_555
Ca5 O19 2.272177 1_655
Ca5 O13 2.339135 1_555
Ca5 O29 2.390797 1_655
Ca5 O25 2.443794 1_554
Ca5 O15 2.462001 1_654
Ca5 O31 2.631177 1_554
Ca6 O16 2.272177 1_455
Ca6 O14 2.339135 1_555
Ca6 O30 2.390797 1_455
Ca6 O26 2.443794 1_555
Ca6 O12 2.462001 1_455
Ca6 O28 2.631177 1_555
Ca7 O17 2.272177 1_555
Ca7 O15 2.339135 1_555
Ca7 O31 2.390797 1_555
Ca7 O27 2.443794 1_566
Ca7 O13 2.462001 1_556
Ca7 O29 2.631177 1_556
As0 O16 1.679128 1_545
As0 O8 1.705793 1_655
As0 O24 1.729253 1_555
As0 O0 1.813975 1_555
As1 O17 1.679128 1_555
As1 O9 1.705793 1_555
As1 O25 1.729253 1_555
As1 O1 1.813975 1_555
As2 O18 1.679128 1_555
As2 O10 1.705793 1_555
As2 O26 1.729253 1_555
As2 O2 1.813975 1_555
As3 O19 1.679128 1_545
As3 O11 1.705793 1_455
As3 O27 1.729253 1_555
As3 O3 1.813975 1_555
As4 O20 1.679128 1_565
As4 O12 1.705793 1_455
As4 O28 1.729253 1_555
As4 O4 1.813975 1_555
As5 O21 1.679128 1_555
As5 O13 1.705793 1_555
As5 O29 1.729253 1_555
As5 O5 1.813975 1_555
As6 O22 1.679128 1_555
As6 O14 1.705793 1_555
As6 O30 1.729253 1_555
As6 O6 1.813975 1_555
As7 O23 1.679128 1_565
As7 O15 1.705793 1_655
As7 O31 1.729253 1_555
As7 O7 1.813975 1_555
O0 O32 1.671780 1_545
O1 O33 1.671780 1_555
O2 O34 1.671780 1_555
O3 O35 1.671780 1_545
O32 O35 1.248027 1_555
O33 O34 1.248027 1_655
O36 O39 1.248027 1_555
O36 O4 1.671780 1_545
O37 O38 1.248027 1_455
O37 O5 1.671780 1_555
O38 O6 1.671780 1_555
O39 O7 1.671780 1_545
