# generated using pymatgen
data_Sm2CoPtO6
_symmetry_space_group_name_H-M   'P 1'
_cell_length_a   5.84000800
_cell_length_b   5.42694300
_cell_length_c   9.49290745
_cell_angle_alpha   55.11193442
_cell_angle_beta   90.00000000
_cell_angle_gamma   90.00000000
_symmetry_Int_Tables_number   1
_chemical_formula_structural   Sm2CoPtO6
_chemical_formula_sum   'Sm4 Co2 Pt2 O12'
_cell_volume   246.78873061
_cell_formula_units_Z   2
loop_
 _symmetry_equiv_pos_site_id
 _symmetry_equiv_pos_as_xyz
  1  'x, y, z'
loop_
 _atom_site_type_symbol
 _atom_site_label
 _atom_site_symmetry_multiplicity
 _atom_site_fract_x
 _atom_site_fract_y
 _atom_site_fract_z
 _atom_site_occupancy
  Sm  Sm0  1  0.42882000  0.22779300  0.74944400  1
  Sm  Sm1  1  0.57118000  0.77220700  0.25055600  1
  Sm  Sm2  1  0.92882000  0.77220700  0.75055600  1
  Sm  Sm3  1  0.07118000  0.22779300  0.24944400  1
  Co  Co0  1  0.00000000  0.50000000  0.50000000  1
  Co  Co1  1  0.50000000  0.50000000  0.00000000  1
  Pt  Pt0  1  0.00000000  0.00000000  0.00000000  1
  Pt  Pt1  1  0.50000000  0.00000000  0.50000000  1
  O  O0  1  0.04156900  0.36335300  0.74997500  1
  O  O1  1  0.95843100  0.63664700  0.25002500  1
  O  O2  1  0.54156900  0.63664700  0.75002500  1
  O  O3  1  0.45843100  0.36335300  0.24997500  1
  O  O4  1  0.70191400  0.87197200  0.94051900  1
  O  O5  1  0.29808600  0.12802800  0.05948100  1
  O  O6  1  0.20191400  0.12802800  0.55948100  1
  O  O7  1  0.79808600  0.87197200  0.44051900  1
  O  O8  1  0.19309200  0.74438700  0.94640700  1
  O  O9  1  0.80690800  0.25561300  0.05359300  1
  O  O10  1  0.69309200  0.25561300  0.55359300  1
  O  O11  1  0.30690800  0.74438700  0.44640700  1
loop_
_geom_bond_atom_site_label_1
_geom_bond_atom_site_label_2
_geom_bond_distance
_geom_bond_site_symmetry_2
Co0 O0 2.055938 1_555
Co0 O1 2.055938 1_455
Co0 O11 2.111506 1_555
Co0 O10 2.111506 1_455
Co0 O6 2.116697 1_555
Co0 O7 2.116697 1_455
Co1 O3 2.055938 1_555
Co1 O2 2.055938 1_554
Co1 O9 2.111506 1_555
Co1 O8 2.111506 1_554
Co1 O4 2.116697 1_554
Co1 O5 2.116697 1_555
O0 Pt0 2.055893 1_556
O0 Sm2 2.317496 1_455
O0 Sm0 2.379095 1_555
O1 Pt0 2.055893 1_665
O1 Sm3 2.317496 1_655
O1 Sm1 2.379095 1_555
O2 Pt1 2.055893 1_565
O2 Sm0 2.317496 1_555
O2 Sm2 2.379095 1_555
O3 Pt1 2.055893 1_555
O3 Sm1 2.317496 1_555
O3 Sm3 2.379095 1_555
O4 Pt0 2.069018 1_666
O4 Sm0 2.357061 1_565
O4 Sm2 2.533356 1_555
O4 Sm1 2.777649 1_556
O5 Pt0 2.069018 1_555
O5 Sm1 2.357061 1_545
O5 Sm3 2.533356 1_555
O5 Sm0 2.777649 1_554
O6 Pt1 2.069018 1_555
O6 Sm2 2.357061 1_445
O6 Sm0 2.533356 1_555
O6 Sm3 2.777649 1_555
O7 Pt1 2.069018 1_565
O7 Sm3 2.357061 1_665
O7 Sm1 2.533356 1_555
O7 Sm2 2.777649 1_555
O8 Pt0 2.064484 1_566
O8 Sm2 2.353769 1_455
O8 Sm0 2.581129 1_565
O8 Sm3 2.723273 1_556
O9 Pt0 2.064484 1_655
O9 Sm3 2.353769 1_655
O9 Sm1 2.581129 1_545
O9 Sm2 2.723273 1_554
O10 Pt1 2.064484 1_555
O10 Sm0 2.353769 1_555
O10 Sm2 2.581129 1_545
O10 Sm1 2.723273 1_555
O11 Pt1 2.064484 1_565
O11 Sm1 2.353769 1_555
O11 Sm3 2.581129 1_565
O11 Sm0 2.723273 1_555
