# generated using pymatgen
data_K2Be2Zn(O3F4)2
_symmetry_space_group_name_H-M   'P 1'
_cell_length_a   11.36216600
_cell_length_b   5.85093100
_cell_length_c   8.67168275
_cell_angle_alpha   74.52552153
_cell_angle_beta   90.00000000
_cell_angle_gamma   90.00000000
_symmetry_Int_Tables_number   1
_chemical_formula_structural   K2Be2Zn(O3F4)2
_chemical_formula_sum   'K4 Be4 Zn2 O12 F16'
_cell_volume   555.58895788
_cell_formula_units_Z   2
loop_
 _symmetry_equiv_pos_site_id
 _symmetry_equiv_pos_as_xyz
  1  'x, y, z'
loop_
 _atom_site_type_symbol
 _atom_site_label
 _atom_site_symmetry_multiplicity
 _atom_site_fract_x
 _atom_site_fract_y
 _atom_site_fract_z
 _atom_site_occupancy
  K  K0  1  0.64311100  0.86214700  0.89031400  1
  K  K1  1  0.35688900  0.13785300  0.10968600  1
  K  K2  1  0.14311100  0.13785300  0.60968600  1
  K  K3  1  0.85688900  0.86214700  0.39031400  1
  Be  Be0  1  0.34270000  0.75630700  0.90257200  1
  Be  Be1  1  0.65730000  0.24369300  0.09742800  1
  Be  Be2  1  0.84270000  0.24369300  0.59742800  1
  Be  Be3  1  0.15730000  0.75630700  0.40257200  1
  Zn  Zn0  1  0.50000000  0.50000000  0.50000000  1
  Zn  Zn1  1  0.00000000  0.50000000  0.00000000  1
  O  O0  1  0.38052300  0.31061600  0.63184500  1
  O  O1  1  0.61947700  0.68938400  0.36815500  1
  O  O2  1  0.88052300  0.68938400  0.86815500  1
  O  O3  1  0.11947700  0.31061600  0.13184500  1
  O  O4  1  0.11947600  0.44134400  0.84860600  1
  O  O5  1  0.88052400  0.55865600  0.15139400  1
  O  O6  1  0.61947600  0.55865600  0.65139400  1
  O  O7  1  0.38052400  0.44134400  0.34860600  1
  O  O8  1  0.44138500  0.84776800  0.51990400  1
  O  O9  1  0.55861500  0.15223200  0.48009600  1
  O  O10  1  0.94138500  0.15223200  0.98009600  1
  O  O11  1  0.05861500  0.84776800  0.01990400  1
  F  F0  1  0.29852600  0.51392600  0.87992400  1
  F  F1  1  0.70147400  0.48607400  0.12007600  1
  F  F2  1  0.79852600  0.48607400  0.62007600  1
  F  F3  1  0.20147400  0.51392600  0.37992400  1
  F  F4  1  0.08088400  0.72257500  0.55225100  1
  F  F5  1  0.91911600  0.27742500  0.44774900  1
  F  F6  1  0.58088400  0.27742500  0.94774900  1
  F  F7  1  0.41911600  0.72257500  0.05225100  1
  F  F8  1  0.43077000  0.87646500  0.75743300  1
  F  F9  1  0.56923000  0.12353500  0.24256700  1
  F  F10  1  0.93077000  0.12353500  0.74256700  1
  F  F11  1  0.06923000  0.87646500  0.25743300  1
  F  F12  1  0.23911800  0.93195500  0.89758400  1
  F  F13  1  0.76088200  0.06804500  0.10241600  1
  F  F14  1  0.73911800  0.06804500  0.60241600  1
  F  F15  1  0.26088200  0.93195500  0.39758400  1
loop_
_geom_bond_atom_site_label_1
_geom_bond_atom_site_label_2
_geom_bond_distance
_geom_bond_site_symmetry_2
K0 O2 2.904982 1_555
K0 O6 3.079111 1_555
K1 O3 2.904982 1_555
K1 O7 3.079111 1_555
K2 O0 2.904982 1_555
K2 O4 3.079111 1_555
K3 O1 2.904982 1_555
K3 O5 3.079111 1_555
Be0 F7 1.529980 1_556
Be0 F12 1.555460 1_555
Be0 F0 1.565335 1_555
Be0 F8 1.614775 1_555
Be1 F6 1.529980 1_554
Be1 F13 1.555460 1_555
Be1 F1 1.565335 1_555
Be1 F9 1.614775 1_555
Be2 F5 1.529980 1_555
Be2 F14 1.555460 1_555
Be2 F2 1.565335 1_555
Be2 F10 1.614775 1_555
Be3 F4 1.529980 1_555
Be3 F15 1.555460 1_555
Be3 F3 1.565335 1_555
Be3 F11 1.614775 1_555
O0 Zn0 1.924013 1_555
O1 Zn0 1.924013 1_555
O2 Zn1 1.924013 1_656
O3 Zn1 1.924013 1_555
O4 Zn1 1.981055 1_556
O5 Zn1 1.981055 1_655
O6 Zn0 1.981055 1_555
O7 Zn0 1.981055 1_555
O8 Zn0 2.191123 1_555
O9 Zn0 2.191123 1_555
O10 Zn1 2.191123 1_656
O11 Zn1 2.191123 1_555
F0 K1 2.629016 1_556
F1 K0 2.629016 1_554
F2 K3 2.629016 1_555
F3 K2 2.629016 1_555
F4 K2 2.701383 1_565
F4 K3 2.916210 1_455
F5 K3 2.701383 1_545
F5 K2 2.916210 1_655
F6 K0 2.701383 1_545
F6 K1 2.916210 1_556
F7 K1 2.701383 1_565
F7 K0 2.916210 1_554
F8 K0 2.665371 1_555
F9 K1 2.665371 1_555
F10 K2 2.665371 1_655
F11 K3 2.665371 1_455
F12 K2 2.696135 1_565
F12 K1 2.794141 1_566
F13 K3 2.696135 1_545
F13 K0 2.794141 1_544
F14 K0 2.696135 1_545
F14 K3 2.794141 1_545
F15 K1 2.696135 1_565
F15 K2 2.794141 1_565
