# generated using pymatgen
data_K2CoC4S4N4O3
_symmetry_space_group_name_H-M   'P 1'
_cell_length_a   4.53466800
_cell_length_b   11.32392200
_cell_length_c   15.53744400
_cell_angle_alpha   90.00000000
_cell_angle_beta   90.00000000
_cell_angle_gamma   90.00000000
_symmetry_Int_Tables_number   1
_chemical_formula_structural   K2CoC4S4N4O3
_chemical_formula_sum   'K4 Co2 C8 S8 N8 O6'
_cell_volume   797.85127217
_cell_formula_units_Z   2
loop_
 _symmetry_equiv_pos_site_id
 _symmetry_equiv_pos_as_xyz
  1  'x, y, z'
loop_
 _atom_site_type_symbol
 _atom_site_label
 _atom_site_symmetry_multiplicity
 _atom_site_fract_x
 _atom_site_fract_y
 _atom_site_fract_z
 _atom_site_occupancy
  K  K0  1  0.73786600  0.12961900  0.61939700  1
  K  K1  1  0.73786600  0.87038100  0.38060300  1
  K  K2  1  0.26213400  0.62961900  0.88060300  1
  K  K3  1  0.26213400  0.37038100  0.11939700  1
  Co  Co0  1  0.22715300  0.00000000  0.00000000  1
  Co  Co1  1  0.77284700  0.50000000  0.50000000  1
  C  C0  1  0.59620700  0.91466400  0.84257100  1
  C  C1  1  0.59620700  0.08533600  0.15742900  1
  C  C2  1  0.40379300  0.41466400  0.65742900  1
  C  C3  1  0.40379300  0.58533600  0.34257100  1
  C  C4  1  0.89873800  0.76556500  0.04635500  1
  C  C5  1  0.89873800  0.23443500  0.95364500  1
  C  C6  1  0.10126200  0.26556500  0.45364500  1
  C  C7  1  0.10126200  0.73443500  0.54635500  1
  S  S0  1  0.79654700  0.84225300  0.76901700  1
  S  S1  1  0.79654700  0.15774700  0.23098300  1
  S  S2  1  0.20345300  0.34225300  0.73098300  1
  S  S3  1  0.20345300  0.65774700  0.26901700  1
  S  S4  1  0.75402600  0.63793900  0.06983500  1
  S  S5  1  0.75402600  0.36206100  0.93016500  1
  S  S6  1  0.24597400  0.13793900  0.43016500  1
  S  S7  1  0.24597400  0.86206100  0.56983500  1
  N  N0  1  0.44452000  0.95557200  0.89678800  1
  N  N1  1  0.44452000  0.04442800  0.10321200  1
  N  N2  1  0.55548000  0.45557200  0.60321200  1
  N  N3  1  0.55548000  0.54442800  0.39678800  1
  N  N4  1  0.00773200  0.85657300  0.02542500  1
  N  N5  1  0.00773200  0.14342700  0.97457500  1
  N  N6  1  0.99226700  0.35657300  0.47457500  1
  N  N7  1  0.99226700  0.64342700  0.52542500  1
  O  O0  1  0.87318800  0.50000000  0.00000000  1
  O  O1  1  0.12681200  0.00000000  0.50000000  1
  O  O2  1  0.22417700  0.20885400  0.70498300  1
  O  O3  1  0.22417700  0.79114600  0.29501700  1
  O  O4  1  0.77582300  0.70885400  0.79501700  1
  O  O5  1  0.77582300  0.29114600  0.20498300  1
loop_
_geom_bond_atom_site_label_1
_geom_bond_atom_site_label_2
_geom_bond_distance
_geom_bond_site_symmetry_2
K0 O2 2.727006 1_655
K0 O2 2.828346 1_555
K0 O1 2.950710 1_655
K1 O3 2.727006 1_655
K1 O3 2.828346 1_555
K1 O1 2.950710 1_665
K2 O4 2.727006 1_455
K2 O4 2.828346 1_555
K2 O0 2.950710 1_456
K3 O5 2.727006 1_455
K3 O5 2.828346 1_555
K3 O0 2.950710 1_455
Co0 N5 1.945242 1_554
Co0 N4 1.945242 1_545
Co0 N1 1.948431 1_555
Co0 N0 1.948431 1_544
Co1 N7 1.945240 1_555
Co1 N6 1.945240 1_555
Co1 N2 1.948431 1_555
Co1 N3 1.948431 1_555
C0 N0 1.182098 1_555
C0 S0 1.674448 1_555
C1 N1 1.182098 1_555
C1 S1 1.674448 1_555
C2 N2 1.182098 1_555
C2 S2 1.674448 1_555
C3 N3 1.182098 1_555
C3 S3 1.674448 1_555
C4 N4 1.188322 1_655
C4 S4 1.628619 1_555
C5 N5 1.188322 1_655
C5 S5 1.628619 1_555
C6 N6 1.188323 1_455
C6 S6 1.628619 1_555
C7 N7 1.188323 1_455
C7 S7 1.628619 1_555
O0 S4 1.977174 1_555
O0 S5 1.977174 1_554
O1 S7 1.977174 1_545
O1 S6 1.977174 1_555
O2 S2 1.566505 1_555
O3 S3 1.566505 1_555
O4 S0 1.566505 1_555
O5 S1 1.566505 1_555
