# generated using pymatgen
data_Dy2Si5Rh3
_symmetry_space_group_name_H-M   'P 1'
_cell_length_a   8.15550055
_cell_length_b   8.15550055
_cell_length_c   8.15550055
_cell_angle_alpha   138.63492487
_cell_angle_beta   105.32937771
_cell_angle_gamma   89.14731474
_symmetry_Int_Tables_number   1
_chemical_formula_structural   Dy2Si5Rh3
_chemical_formula_sum   'Dy4 Si10 Rh6'
_cell_volume   331.07626230
_cell_formula_units_Z   2
loop_
 _symmetry_equiv_pos_site_id
 _symmetry_equiv_pos_as_xyz
  1  'x, y, z'
loop_
 _atom_site_type_symbol
 _atom_site_label
 _atom_site_symmetry_multiplicity
 _atom_site_fract_x
 _atom_site_fract_y
 _atom_site_fract_z
 _atom_site_occupancy
  Dy  Dy0  1  0.59946400  0.36786900  0.23159400  1
  Dy  Dy1  1  0.40053600  0.63213100  0.76840600  1
  Dy  Dy2  1  0.86372500  0.13213100  0.73159400  1
  Dy  Dy3  1  0.13627500  0.86786900  0.26840600  1
  Si  Si0  1  0.26365000  0.10591200  0.15773800  1
  Si  Si1  1  0.73635000  0.89408800  0.84226200  1
  Si  Si2  1  0.05182600  0.39408800  0.65773800  1
  Si  Si3  1  0.94817400  0.60591200  0.34226200  1
  Si  Si4  1  0.77860800  0.02860800  0.25000000  1
  Si  Si5  1  0.22139200  0.47139200  0.25000000  1
  Si  Si6  1  0.22139200  0.97139200  0.75000000  1
  Si  Si7  1  0.50000000  0.75000000  0.25000000  1
  Si  Si8  1  0.50000000  0.25000000  0.75000000  1
  Si  Si9  1  0.77860800  0.52860800  0.75000000  1
  Rh  Rh0  1  0.00000000  0.75000000  0.75000000  1
  Rh  Rh1  1  0.46903600  0.85997200  0.60906500  1
  Rh  Rh2  1  0.25090700  0.35997200  0.89093500  1
  Rh  Rh3  1  0.74909300  0.64002800  0.10906500  1
  Rh  Rh4  1  0.00000000  0.25000000  0.25000000  1
  Rh  Rh5  1  0.53096400  0.14002800  0.39093500  1
loop_
_geom_bond_atom_site_label_1
_geom_bond_atom_site_label_2
_geom_bond_distance
_geom_bond_site_symmetry_2
Dy0 Si3 2.974623 1_555
Dy0 Rh5 3.081040 1_555
Dy0 Si1 3.096482 1_544
Dy0 Si1 3.096487 1_555
Dy0 Si8 3.111246 1_554
Dy0 Si7 3.111248 1_555
Dy0 Rh1 3.126420 1_544
Dy0 Rh1 3.126431 1_555
Dy0 Si0 3.130175 1_555
Dy0 Si4 3.193690 1_555
Dy0 Si9 3.193692 1_555
Dy0 Si6 3.196793 1_544
Dy0 Si5 3.196796 1_555
Dy0 Rh2 3.371146 1_554
Dy0 Rh3 3.386584 1_555
Dy0 Rh4 3.388356 1_655
Dy0 Rh0 3.388358 1_655
Dy1 Si2 2.974623 1_555
Dy1 Rh1 3.081040 1_555
Dy1 Si0 3.096482 1_566
Dy1 Si0 3.096487 1_555
Dy1 Si7 3.111246 1_556
Dy1 Si8 3.111248 1_555
Dy1 Rh5 3.126420 1_566
Dy1 Rh5 3.126431 1_555
Dy1 Si1 3.130175 1_555
Dy1 Si6 3.193690 1_555
Dy1 Si5 3.193692 1_555
Dy1 Si4 3.196793 1_566
Dy1 Si9 3.196796 1_555
Dy1 Rh3 3.371146 1_556
Dy1 Rh2 3.386584 1_555
Dy1 Rh0 3.388356 1_555
Dy1 Rh4 3.388358 1_555
Dy2 Si1 2.974630 1_545
Dy2 Rh2 3.081040 1_655
Dy2 Si3 3.096487 1_545
Dy2 Si3 3.096487 1_556
Dy2 Si8 3.111246 1_555
Dy2 Si7 3.111246 1_545
Dy2 Rh3 3.126421 1_545
Dy2 Rh3 3.126421 1_556
Dy2 Si2 3.130168 1_655
Dy2 Si5 3.193693 1_656
Dy2 Si6 3.193693 1_645
Dy2 Si9 3.196788 1_555
Dy2 Si4 3.196788 1_555
Dy2 Rh5 3.371136 1_555
Dy2 Rh1 3.386595 1_545
Dy2 Rh4 3.388364 1_656
Dy2 Rh0 3.388364 1_645
Dy3 Si0 2.974630 1_565
Dy3 Rh3 3.081040 1_455
Dy3 Si2 3.096487 1_565
Dy3 Si2 3.096487 1_554
Dy3 Si7 3.111246 1_555
Dy3 Si8 3.111246 1_565
Dy3 Rh2 3.126421 1_554
Dy3 Rh2 3.126421 1_565
Dy3 Si3 3.130168 1_455
Dy3 Si9 3.193693 1_454
Dy3 Si4 3.193693 1_465
Dy3 Si6 3.196788 1_555
Dy3 Si5 3.196788 1_555
Dy3 Rh1 3.371136 1_555
Dy3 Rh5 3.386595 1_565
Dy3 Rh0 3.388364 1_554
Dy3 Rh4 3.388364 1_565
Si0 Si5 2.511853 1_555
Si0 Si6 2.511853 1_544
Si1 Si9 2.511853 1_555
Si1 Si4 2.511853 1_566
Si2 Si4 2.511853 1_455
Si2 Si9 2.511853 1_455
Si3 Si6 2.511853 1_655
Si3 Si5 2.511853 1_655
Rh0 Si0 2.454267 1_566
Rh0 Si3 2.454267 1_455
Rh0 Si1 2.454267 1_455
Rh0 Si2 2.454267 1_555
Rh0 Si6 2.572381 1_555
Rh0 Si9 2.572381 1_455
Rh1 Si1 2.340664 1_555
Rh1 Si6 2.414724 1_555
Rh1 Si5 2.414728 1_555
Rh1 Si8 2.425983 1_565
Rh1 Si7 2.425987 1_555
Rh2 Si2 2.340658 1_555
Rh2 Si6 2.414732 1_545
Rh2 Si5 2.414732 1_556
Rh2 Si8 2.425983 1_555
Rh2 Si7 2.425983 1_556
Rh3 Si3 2.340658 1_555
Rh3 Si9 2.414732 1_554
Rh3 Si4 2.414732 1_565
Rh3 Si8 2.425983 1_554
Rh3 Si7 2.425983 1_555
Rh4 Si3 2.454267 1_455
Rh4 Si0 2.454267 1_555
Rh4 Si1 2.454267 1_444
Rh4 Si2 2.454267 1_555
Rh4 Si5 2.572381 1_555
Rh4 Si4 2.572381 1_455
Rh5 Si0 2.340664 1_555
Rh5 Si4 2.414724 1_555
Rh5 Si9 2.414728 1_555
Rh5 Si7 2.425983 1_545
Rh5 Si8 2.425987 1_555
