# generated using pymatgen
data_LiNiH2
_symmetry_space_group_name_H-M   'P 1'
_cell_length_a   3.23336500
_cell_length_b   3.23336500
_cell_length_c   2.76578300
_cell_angle_alpha   90.00000000
_cell_angle_beta   90.00000000
_cell_angle_gamma   90.00000000
_symmetry_Int_Tables_number   1
_chemical_formula_structural   LiNiH2
_chemical_formula_sum   'Li1 Ni1 H2'
_cell_volume   28.91529109
_cell_formula_units_Z   1
loop_
 _symmetry_equiv_pos_site_id
 _symmetry_equiv_pos_as_xyz
  1  'x, y, z'
loop_
 _atom_site_type_symbol
 _atom_site_label
 _atom_site_symmetry_multiplicity
 _atom_site_fract_x
 _atom_site_fract_y
 _atom_site_fract_z
 _atom_site_occupancy
  Li  Li0  1  0.00000000  0.00000000  0.00000000  1
  Ni  Ni0  1  0.50000000  0.50000000  0.50000000  1
  H  H0  1  0.50000000  0.00000000  0.50000000  1
  H  H1  1  0.00000000  0.50000000  0.50000000  1
loop_
_geom_bond_atom_site_label_1
_geom_bond_atom_site_label_2
_geom_bond_distance
_geom_bond_site_symmetry_2
H0 Ni0 1.616683 1_555
H0 Ni0 1.616683 1_545
H0 Li0 2.127452 1_556
H0 Li0 2.127452 1_555
H0 Li0 2.127452 1_656
H0 Li0 2.127452 1_655
H1 Ni0 1.616683 1_555
H1 Ni0 1.616683 1_455
H1 Li0 2.127452 1_556
H1 Li0 2.127452 1_565
H1 Li0 2.127452 1_555
H1 Li0 2.127452 1_566
