# generated using pymatgen
data_Ag2BiSbSe4
_symmetry_space_group_name_H-M   'P 1'
_cell_length_a   7.16844934
_cell_length_b   7.16844934
_cell_length_c   7.16844934
_cell_angle_alpha   131.99202099
_cell_angle_beta   131.99202099
_cell_angle_gamma   70.24162917
_symmetry_Int_Tables_number   1
_chemical_formula_structural   Ag2BiSbSe4
_chemical_formula_sum   'Ag2 Bi1 Sb1 Se4'
_cell_volume   199.44352332
_cell_formula_units_Z   1
loop_
 _symmetry_equiv_pos_site_id
 _symmetry_equiv_pos_as_xyz
  1  'x, y, z'
loop_
 _atom_site_type_symbol
 _atom_site_label
 _atom_site_symmetry_multiplicity
 _atom_site_fract_x
 _atom_site_fract_y
 _atom_site_fract_z
 _atom_site_occupancy
  Ag  Ag0  1  0.50000000  0.50000000  0.00000000  1
  Ag  Ag1  1  0.25000000  0.75000000  0.50000000  1
  Bi  Bi0  1  0.75000000  0.25000000  0.50000000  1
  Sb  Sb0  1  0.00000000  0.00000000  0.00000000  1
  Se  Se0  1  0.49789900  0.99789900  0.50000000  1
  Se  Se1  1  0.24494400  0.24494400  0.00000000  1
  Se  Se2  1  0.00210100  0.50210100  0.50000000  1
  Se  Se3  1  0.75505600  0.75505600  0.00000000  1
loop_
_geom_bond_atom_site_label_1
_geom_bond_atom_site_label_2
_geom_bond_distance
_geom_bond_site_symmetry_2
Ag0 Se2 2.916231 1_655
Ag0 Se2 2.916231 1_554
Ag0 Se0 2.916231 1_544
Ag0 Se0 2.916231 1_555
Ag0 Se3 2.990974 1_555
Ag0 Se1 2.990974 1_555
Ag1 Se0 2.907046 1_555
Ag1 Se2 2.907046 1_555
Ag1 Se1 2.916730 1_555
Ag1 Se3 2.916730 1_556
Ag1 Se3 2.916730 1_455
Ag1 Se1 2.916730 1_566
Bi0 Se1 2.916730 1_555
Bi0 Se3 2.916730 1_556
Bi0 Se3 2.916730 1_545
Bi0 Se1 2.916730 1_656
Bi0 Se2 2.956321 1_655
Bi0 Se0 2.956321 1_545
Sb0 Se1 2.872393 1_555
Sb0 Se3 2.872393 1_445
Sb0 Se2 2.916231 1_555
Sb0 Se0 2.916231 1_444
Sb0 Se0 2.916231 1_545
Sb0 Se2 2.916231 1_544
