# generated using pymatgen
data_Nb2O5
_symmetry_space_group_name_H-M   'P 1'
_cell_length_a   3.83744110
_cell_length_b   14.62795034
_cell_length_c   15.34099716
_cell_angle_alpha   73.10380476
_cell_angle_beta   82.81512072
_cell_angle_gamma   82.46290404
_symmetry_Int_Tables_number   1
_chemical_formula_structural   Nb2O5
_chemical_formula_sum   'Nb16 O40'
_cell_volume   813.41863124
_cell_formula_units_Z   8
loop_
 _symmetry_equiv_pos_site_id
 _symmetry_equiv_pos_as_xyz
  1  'x, y, z'
loop_
 _atom_site_type_symbol
 _atom_site_label
 _atom_site_symmetry_multiplicity
 _atom_site_fract_x
 _atom_site_fract_y
 _atom_site_fract_z
 _atom_site_occupancy
  Nb  Nb0  1  0.06137802  0.97848333  0.89876064  1
  Nb  Nb1  1  0.93862198  0.02151667  0.10123936  1
  Nb  Nb2  1  0.65802573  0.78380326  0.90014428  1
  Nb  Nb3  1  0.34197427  0.21619674  0.09985572  1
  Nb  Nb4  1  0.79215830  0.51328722  0.90239919  1
  Nb  Nb5  1  0.20784170  0.48671278  0.09760081  1
  Nb  Nb6  1  0.92515112  0.24723804  0.90246171  1
  Nb  Nb7  1  0.07484888  0.75276196  0.09753829  1
  Nb  Nb8  1  0.02046777  0.32969856  0.62936590  1
  Nb  Nb9  1  0.97953223  0.67030144  0.37063410  1
  Nb  Nb10  1  0.15507137  0.06127609  0.62858217  1
  Nb  Nb11  1  0.84492863  0.93872391  0.37141783  1
  Nb  Nb12  1  0.75207899  0.86271340  0.63312763  1
  Nb  Nb13  1  0.24792101  0.13728660  0.36687237  1
  Nb  Nb14  1  0.88767740  0.59115590  0.63349030  1
  Nb  Nb15  1  0.11232260  0.40884410  0.36650970  1
  O  O0  1  0.57443164  0.93921308  0.91192464  1
  O  O1  1  0.42556736  0.06078692  0.08807536  1
  O  O2  1  0.12943343  0.81454416  0.92658798  1
  O  O3  1  0.87056657  0.18545584  0.07341202  1
  O  O4  1  0.27329214  0.51442157  0.93899716  1
  O  O5  1  0.72670786  0.48557843  0.06100284  1
  O  O6  1  0.41153073  0.23200010  0.94493644  1
  O  O7  1  0.58846927  0.76799990  0.05506356  1
  O  O8  1  0.51918386  0.31403458  0.64759870  1
  O  O9  1  0.48081614  0.68596542  0.35240130  1
  O  O10  1  0.66905542  0.02127110  0.64061805  1
  O  O11  1  0.33094458  0.97872890  0.35938195  1
  O  O12  1  0.22953644  0.89841989  0.64250522  1
  O  O13  1  0.77046356  0.10158011  0.35749478  1
  O  O14  1  0.37617694  0.60315092  0.64449720  1
  O  O15  1  0.62382306  0.39684908  0.35550280  1
  O  O16  1  0.71465296  0.65563048  0.91506360  1
  O  O17  1  0.28534704  0.34436952  0.08493640  1
  O  O18  1  0.85529188  0.37578420  0.91363104  1
  O  O19  1  0.14470812  0.62421580  0.08636896  1
  O  O20  1  0.98485636  0.08986345  0.94042584  1
  O  O21  1  0.01514364  0.91013655  0.05957416  1
  O  O22  1  0.10204614  0.02001943  0.77589030  1
  O  O23  1  0.89795386  0.97998057  0.22410970  1
  O  O24  1  0.69555833  0.83231686  0.77656848  1
  O  O25  1  0.30444167  0.16768314  0.22343152  1
  O  O26  1  0.83127924  0.55750010  0.77994141  1
  O  O27  1  0.16872076  0.44249990  0.22005859  1
  O  O28  1  0.97588236  0.26601070  0.78222357  1
  O  O29  1  0.02411764  0.73398930  0.21777643  1
  O  O30  1  0.09193136  0.18509407  0.63104420  1
  O  O31  1  0.90806864  0.81490593  0.36895580  1
  O  O32  1  0.81248000  0.73737325  0.63766975  1
  O  O33  1  0.18752000  0.26262675  0.36233025  1
  O  O34  1  0.94792535  0.45607676  0.64807354  1
  O  O35  1  0.05207465  0.54392324  0.35192646  1
  O  O36  1  0.06537949  0.36979260  0.49944842  1
  O  O37  1  0.93462051  0.63020740  0.50055158  1
  O  O38  1  0.20845601  0.08455210  0.49853387  1
  O  O39  1  0.79154399  0.91544790  0.50146613  1
loop_
_geom_bond_atom_site_label_1
_geom_bond_atom_site_label_2
_geom_bond_distance
_geom_bond_site_symmetry_2
Nb0 O22 1.797814 1_565
Nb0 O20 1.892662 1_465
Nb0 O0 1.995572 1_455
Nb0 O0 1.995576 1_555
Nb0 O2 2.295607 1_555
Nb0 O21 2.370790 1_556
Nb1 O23 1.797814 1_545
Nb1 O21 1.892662 1_645
Nb1 O1 1.995568 1_655
Nb1 O1 1.995579 1_555
Nb1 O3 2.295607 1_555
Nb1 O20 2.370790 1_554
Nb2 O16 1.808589 1_555
Nb2 O24 1.815162 1_555
Nb2 O2 2.035256 1_655
Nb2 O2 2.035256 1_555
Nb2 O7 2.304591 1_556
Nb2 O0 2.310104 1_555
Nb3 O17 1.808589 1_555
Nb3 O25 1.815162 1_555
Nb3 O3 2.035256 1_455
Nb3 O3 2.035256 1_555
Nb3 O6 2.304591 1_554
Nb3 O1 2.310104 1_555
Nb4 O26 1.794080 1_555
Nb4 O18 1.953257 1_555
Nb4 O4 1.999291 1_655
Nb4 O4 1.999291 1_555
Nb4 O16 2.126018 1_555
Nb4 O5 2.334119 1_556
Nb5 O27 1.794080 1_555
Nb5 O19 1.953257 1_555
Nb5 O5 1.999291 1_455
Nb5 O5 1.999291 1_555
Nb5 O17 2.126018 1_555
Nb5 O4 2.334119 1_554
Nb6 O28 1.773562 1_555
Nb6 O18 1.918479 1_555
Nb6 O6 2.017071 1_655
Nb6 O6 2.017085 1_555
Nb6 O20 2.192459 1_555
Nb6 O3 2.504585 1_556
Nb7 O29 1.773562 1_555
Nb7 O19 1.918479 1_555
Nb7 O7 2.017071 1_455
Nb7 O7 2.017085 1_555
Nb7 O21 2.192459 1_555
Nb7 O2 2.504585 1_554
Nb8 O36 1.899239 1_555
Nb8 O34 1.931525 1_455
Nb8 O8 1.942921 1_455
Nb8 O8 1.942925 1_555
Nb8 O30 2.090014 1_555
Nb8 O28 2.251164 1_455
Nb9 O37 1.899239 1_555
Nb9 O35 1.931525 1_655
Nb9 O9 1.942921 1_655
Nb9 O9 1.942925 1_555
Nb9 O31 2.090014 1_555
Nb9 O29 2.251164 1_655
Nb10 O30 1.806361 1_555
Nb10 O38 1.912959 1_555
Nb10 O10 1.998083 1_555
Nb10 O10 1.998087 1_455
Nb10 O22 2.153366 1_555
Nb10 O12 2.311561 1_545
Nb11 O31 1.806361 1_555
Nb11 O39 1.912959 1_555
Nb11 O11 1.998083 1_555
Nb11 O11 1.998087 1_655
Nb11 O23 2.153366 1_555
Nb11 O13 2.311561 1_565
Nb12 O32 1.799578 1_555
Nb12 O39 1.935487 1_555
Nb12 O12 2.002794 1_655
Nb12 O12 2.002797 1_555
Nb12 O24 2.103385 1_555
Nb12 O10 2.333692 1_565
Nb13 O33 1.799578 1_555
Nb13 O38 1.935487 1_555
Nb13 O13 2.002794 1_455
Nb13 O13 2.002797 1_555
Nb13 O25 2.103385 1_555
Nb13 O11 2.333692 1_545
Nb14 O34 1.908912 1_555
Nb14 O14 1.938055 1_555
Nb14 O14 1.938058 1_655
Nb14 O37 1.943163 1_555
Nb14 O32 2.138990 1_555
Nb14 O26 2.144826 1_555
Nb15 O35 1.908912 1_555
Nb15 O15 1.938055 1_555
Nb15 O15 1.938058 1_455
Nb15 O36 1.943163 1_555
Nb15 O33 2.138990 1_555
Nb15 O27 2.144826 1_555
