# generated using pymatgen
data_NaFe12O19
_symmetry_space_group_name_H-M   'P 1'
_cell_length_a   5.97582006
_cell_length_b   5.97582006
_cell_length_c   23.22133600
_cell_angle_alpha   90.00000000
_cell_angle_beta   90.00000000
_cell_angle_gamma   120.00000069
_symmetry_Int_Tables_number   1
_chemical_formula_structural   NaFe12O19
_chemical_formula_sum   'Na2 Fe24 O38'
_cell_volume   718.14618070
_cell_formula_units_Z   2
loop_
 _symmetry_equiv_pos_site_id
 _symmetry_equiv_pos_as_xyz
  1  'x, y, z'
loop_
 _atom_site_type_symbol
 _atom_site_label
 _atom_site_symmetry_multiplicity
 _atom_site_fract_x
 _atom_site_fract_y
 _atom_site_fract_z
 _atom_site_occupancy
  Na  Na0  1  0.33333300  0.66666700  0.74702600  1
  Na  Na1  1  0.66666700  0.33333300  0.25297400  1
  Fe  Fe0  1  0.16836400  0.83163600  0.88915600  1
  Fe  Fe1  1  0.16834000  0.83166000  0.60868300  1
  Fe  Fe2  1  0.33333300  0.66666700  0.19259600  1
  Fe  Fe3  1  0.33333300  0.66666700  0.02844900  1
  Fe  Fe4  1  0.33333300  0.66666700  0.30938400  1
  Fe  Fe5  1  0.00000000  0.00000000  0.00000000  1
  Fe  Fe6  1  0.00000000  0.00000000  0.25335100  1
  Fe  Fe7  1  0.00000000  0.00000000  0.50000000  1
  Fe  Fe8  1  0.16834000  0.33668000  0.60868300  1
  Fe  Fe9  1  0.33333300  0.66666700  0.47033900  1
  Fe  Fe10  1  0.00000000  0.00000000  0.74664900  1
  Fe  Fe11  1  0.16836400  0.33672800  0.88915600  1
  Fe  Fe12  1  0.66327200  0.83163600  0.88915600  1
  Fe  Fe13  1  0.66332000  0.83166000  0.60868300  1
  Fe  Fe14  1  0.33672800  0.16836400  0.11084400  1
  Fe  Fe15  1  0.33668000  0.16834000  0.39131700  1
  Fe  Fe16  1  0.83163600  0.66327200  0.11084400  1
  Fe  Fe17  1  0.66666700  0.33333300  0.69061600  1
  Fe  Fe18  1  0.66666700  0.33333300  0.80740400  1
  Fe  Fe19  1  0.83166000  0.66332000  0.39131700  1
  Fe  Fe20  1  0.66666700  0.33333300  0.97155100  1
  Fe  Fe21  1  0.66666700  0.33333300  0.52966100  1
  Fe  Fe22  1  0.83163600  0.16836400  0.11084400  1
  Fe  Fe23  1  0.83166000  0.16834000  0.39131700  1
  O  O0  1  0.15494900  0.84505100  0.05418500  1
  O  O1  1  0.15455200  0.84544800  0.44662200  1
  O  O2  1  0.99361400  0.49680700  0.35080800  1
  O  O3  1  0.00350700  0.50175300  0.84848300  1
  O  O4  1  0.99649300  0.49824700  0.15151700  1
  O  O5  1  0.00638600  0.50319300  0.64919200  1
  O  O6  1  0.18343500  0.81656500  0.25216600  1
  O  O7  1  0.33333300  0.66666700  0.94408300  1
  O  O8  1  0.33333300  0.66666700  0.55447900  1
  O  O9  1  0.00000000  0.00000000  0.15450500  1
  O  O10  1  0.15494900  0.30989800  0.05418500  1
  O  O11  1  0.00000000  0.00000000  0.34763100  1
  O  O12  1  0.00000000  0.00000000  0.65236900  1
  O  O13  1  0.18343500  0.36687000  0.25216600  1
  O  O14  1  0.00000000  0.00000000  0.84549500  1
  O  O15  1  0.15455200  0.30910300  0.44662200  1
  O  O16  1  0.63313000  0.81656500  0.25216600  1
  O  O17  1  0.30910300  0.15455200  0.55337800  1
  O  O18  1  0.30989800  0.15494900  0.94581500  1
  O  O19  1  0.50319300  0.49680700  0.35080800  1
  O  O20  1  0.50175300  0.49824700  0.15151700  1
  O  O21  1  0.49824700  0.50175300  0.84848300  1
  O  O22  1  0.49680700  0.50319300  0.64919200  1
  O  O23  1  0.69089700  0.84544800  0.44662200  1
  O  O24  1  0.69010200  0.84505100  0.05418500  1
  O  O25  1  0.36687000  0.18343500  0.74783400  1
  O  O26  1  0.50175300  0.00350700  0.15151700  1
  O  O27  1  0.50319300  0.00638600  0.35080800  1
  O  O28  1  0.49680700  0.99361400  0.64919200  1
  O  O29  1  0.84505100  0.69010200  0.94581500  1
  O  O30  1  0.49824700  0.99649300  0.84848300  1
  O  O31  1  0.66666700  0.33333300  0.44552100  1
  O  O32  1  0.66666700  0.33333300  0.05591700  1
  O  O33  1  0.84544800  0.69089700  0.55337800  1
  O  O34  1  0.81656500  0.63313000  0.74783400  1
  O  O35  1  0.81656500  0.18343500  0.74783400  1
  O  O36  1  0.84544800  0.15455200  0.55337800  1
  O  O37  1  0.84505100  0.15494900  0.94581500  1
loop_
_geom_bond_atom_site_label_1
_geom_bond_atom_site_label_2
_geom_bond_distance
_geom_bond_site_symmetry_2
Na0 O5 2.832697 1_555
Na0 O28 2.832697 1_555
Na0 O22 2.832700 1_555
Na0 O30 2.909322 1_555
Na0 O3 2.909322 1_555
Na0 O21 2.909328 1_555
Na0 O25 2.993003 1_565
Na0 O34 2.993003 1_455
Na0 O35 2.993005 1_565
Na0 O35 2.993005 1_455
Na0 O34 2.993008 1_555
Na0 O25 2.993008 1_555
Na1 O2 2.832697 1_555
Na1 O27 2.832697 1_555
Na1 O19 2.832700 1_555
Na1 O26 2.909322 1_555
Na1 O4 2.909322 1_555
Na1 O20 2.909328 1_555
Na1 O13 2.993003 1_655
Na1 O16 2.993003 1_545
Na1 O6 2.993005 1_545
Na1 O6 2.993005 1_655
Na1 O16 2.993008 1_555
Na1 O13 2.993008 1_555
Fe0 O30 1.951058 1_555
Fe0 O3 1.951058 1_555
Fe0 O14 2.016114 1_565
Fe0 O7 2.131290 1_555
Fe0 O18 2.131939 1_565
Fe0 O29 2.131939 1_455
Fe1 O5 1.942850 1_555
Fe1 O28 1.942850 1_555
Fe1 O12 2.016191 1_565
Fe1 O33 2.111148 1_455
Fe1 O17 2.111148 1_565
Fe1 O8 2.121485 1_555
Fe2 O26 1.987147 1_565
Fe2 O4 1.987147 1_455
Fe2 O20 1.987147 1_555
Fe2 O6 2.078625 1_555
Fe2 O16 2.078629 1_555
Fe2 O13 2.078629 1_555
Fe3 O0 1.940661 1_555
Fe3 O24 1.940665 1_555
Fe3 O10 1.940665 1_555
Fe3 O7 1.959091 1_554
Fe4 O27 2.004063 1_565
Fe4 O2 2.004063 1_455
Fe4 O19 2.004068 1_555
Fe4 O6 2.042685 1_555
Fe4 O16 2.042689 1_555
Fe4 O13 2.042689 1_555
Fe5 O10 2.038461 1_555
Fe5 O24 2.038461 1_445
Fe5 O18 2.038461 1_554
Fe5 O29 2.038461 1_444
Fe5 O0 2.038461 1_545
Fe5 O37 2.038461 1_454
Fe6 O13 1.898829 1_555
Fe6 O16 1.898829 1_445
Fe6 O6 1.898829 1_545
Fe6 O11 2.189308 1_555
Fe6 O9 2.295336 1_555
Fe7 O15 2.023694 1_555
Fe7 O23 2.023694 1_445
Fe7 O17 2.023694 1_555
Fe7 O33 2.023694 1_445
Fe7 O1 2.023698 1_545
Fe7 O36 2.023698 1_455
Fe8 O22 1.942850 1_555
Fe8 O5 1.942850 1_555
Fe8 O12 2.016191 1_555
Fe8 O17 2.111144 1_555
Fe8 O36 2.111148 1_455
Fe8 O8 2.121490 1_555
Fe9 O1 1.930677 1_555
Fe9 O23 1.930687 1_555
Fe9 O15 1.930687 1_555
Fe9 O8 1.953843 1_555
Fe10 O34 1.898829 1_445
Fe10 O25 1.898829 1_555
Fe10 O35 1.898829 1_455
Fe10 O12 2.189308 1_555
Fe10 O14 2.295336 1_555
Fe11 O3 1.951053 1_555
Fe11 O21 1.951058 1_555
Fe11 O14 2.016114 1_555
Fe11 O7 2.131294 1_555
Fe11 O37 2.131939 1_455
Fe11 O18 2.131939 1_555
Fe12 O30 1.951053 1_555
Fe12 O21 1.951058 1_555
Fe12 O14 2.016114 1_665
Fe12 O7 2.131294 1_555
Fe12 O37 2.131939 1_565
Fe12 O29 2.131939 1_555
Fe13 O22 1.942850 1_555
Fe13 O28 1.942850 1_555
Fe13 O12 2.016191 1_665
Fe13 O33 2.111144 1_555
Fe13 O36 2.111148 1_565
Fe13 O8 2.121490 1_555
Fe14 O26 1.951053 1_555
Fe14 O20 1.951058 1_555
Fe14 O9 2.016114 1_555
Fe14 O32 2.131294 1_555
Fe14 O0 2.131939 1_545
Fe14 O10 2.131939 1_555
Fe15 O19 1.942850 1_555
Fe15 O27 1.942850 1_555
Fe15 O11 2.016191 1_555
Fe15 O15 2.111144 1_555
Fe15 O1 2.111148 1_545
Fe15 O31 2.121490 1_555
Fe16 O4 1.951053 1_555
Fe16 O20 1.951058 1_555
Fe16 O9 2.016114 1_665
Fe16 O32 2.131294 1_555
Fe16 O0 2.131939 1_655
Fe16 O24 2.131939 1_555
Fe17 O5 2.004063 1_655
Fe17 O28 2.004063 1_545
Fe17 O22 2.004068 1_555
Fe17 O35 2.042685 1_555
Fe17 O25 2.042689 1_555
Fe17 O34 2.042689 1_555
Fe18 O3 1.987147 1_655
Fe18 O30 1.987147 1_545
Fe18 O21 1.987147 1_555
Fe18 O35 2.078625 1_555
Fe18 O34 2.078629 1_555
Fe18 O25 2.078629 1_555
Fe19 O19 1.942850 1_555
Fe19 O2 1.942850 1_555
Fe19 O11 2.016191 1_665
Fe19 O23 2.111144 1_555
Fe19 O1 2.111148 1_655
Fe19 O31 2.121490 1_555
Fe20 O37 1.940661 1_555
Fe20 O29 1.940665 1_555
Fe20 O18 1.940665 1_555
Fe20 O32 1.959091 1_556
Fe21 O36 1.930677 1_555
Fe21 O33 1.930687 1_555
Fe21 O17 1.930687 1_555
Fe21 O31 1.953843 1_555
Fe22 O4 1.951058 1_555
Fe22 O26 1.951058 1_555
Fe22 O9 2.016114 1_655
Fe22 O32 2.131290 1_555
Fe22 O24 2.131939 1_545
Fe22 O10 2.131939 1_655
Fe23 O27 1.942850 1_555
Fe23 O2 1.942850 1_555
Fe23 O11 2.016191 1_655
Fe23 O23 2.111148 1_545
Fe23 O15 2.111148 1_655
Fe23 O31 2.121485 1_555
