# generated using pymatgen
data_Li2B3H14N
_symmetry_space_group_name_H-M   'P 1'
_cell_length_a   6.48276200
_cell_length_b   8.25680500
_cell_length_c   12.46032800
_cell_angle_alpha   90.00000000
_cell_angle_beta   90.00000000
_cell_angle_gamma   90.00000000
_symmetry_Int_Tables_number   1
_chemical_formula_structural   Li2B3H14N
_chemical_formula_sum   'Li8 B12 H56 N4'
_cell_volume   666.96275195
_cell_formula_units_Z   4
loop_
 _symmetry_equiv_pos_site_id
 _symmetry_equiv_pos_as_xyz
  1  'x, y, z'
loop_
 _atom_site_type_symbol
 _atom_site_label
 _atom_site_symmetry_multiplicity
 _atom_site_fract_x
 _atom_site_fract_y
 _atom_site_fract_z
 _atom_site_occupancy
  Li  Li0  1  0.53202400  0.83300900  0.92311400  1
  Li  Li1  1  0.96797600  0.33300900  0.57688600  1
  Li  Li2  1  0.46797600  0.16699100  0.42311400  1
  Li  Li3  1  0.03202400  0.66699100  0.07688600  1
  Li  Li4  1  0.46797600  0.16699100  0.07688600  1
  Li  Li5  1  0.03202400  0.66699100  0.42311400  1
  Li  Li6  1  0.53202400  0.83300900  0.57688600  1
  Li  Li7  1  0.96797600  0.33300900  0.92311400  1
  B  B0  1  0.78190000  0.59982300  0.57280600  1
  B  B1  1  0.71810000  0.09982300  0.92719400  1
  B  B2  1  0.21810000  0.40017700  0.07280600  1
  B  B3  1  0.28190000  0.90017700  0.42719400  1
  B  B4  1  0.21810000  0.40017700  0.42719400  1
  B  B5  1  0.28190000  0.90017700  0.07280600  1
  B  B6  1  0.78190000  0.59982300  0.92719400  1
  B  B7  1  0.71810000  0.09982300  0.57280600  1
  B  B8  1  0.18815900  0.28549600  0.75000000  1
  B  B9  1  0.31184100  0.78549600  0.75000000  1
  B  B10  1  0.81184100  0.71450400  0.25000000  1
  B  B11  1  0.68815900  0.21450400  0.25000000  1
  H  H0  1  0.55237400  0.57600400  0.18389100  1
  H  H1  1  0.94762600  0.07600400  0.31610900  1
  H  H2  1  0.44762600  0.42399600  0.68389100  1
  H  H3  1  0.05237400  0.92399600  0.81610900  1
  H  H4  1  0.44762600  0.42399600  0.81610900  1
  H  H5  1  0.05237400  0.92399600  0.68389100  1
  H  H6  1  0.55237400  0.57600400  0.31610900  1
  H  H7  1  0.94762600  0.07600400  0.18389100  1
  H  H8  1  0.52255200  0.26122600  0.75000000  1
  H  H9  1  0.97744800  0.76122600  0.75000000  1
  H  H10  1  0.47744800  0.73877400  0.25000000  1
  H  H11  1  0.02255200  0.23877400  0.25000000  1
  H  H12  1  0.71304400  0.67189600  0.65068000  1
  H  H13  1  0.78695600  0.17189600  0.84932000  1
  H  H14  1  0.28695600  0.32810400  0.15068000  1
  H  H15  1  0.21304400  0.82810400  0.34932000  1
  H  H16  1  0.28695600  0.32810400  0.34932000  1
  H  H17  1  0.21304400  0.82810400  0.15068000  1
  H  H18  1  0.71304400  0.67189600  0.84932000  1
  H  H19  1  0.78695600  0.17189600  0.65068000  1
  H  H20  1  0.72679400  0.66445300  0.48864200  1
  H  H21  1  0.77320600  0.16445300  0.01135800  1
  H  H22  1  0.27320600  0.33554700  0.98864200  1
  H  H23  1  0.22679400  0.83554700  0.51135800  1
  H  H24  1  0.27320600  0.33554700  0.51135800  1
  H  H25  1  0.22679400  0.83554700  0.98864200  1
  H  H26  1  0.72679400  0.66445300  0.01135800  1
  H  H27  1  0.77320600  0.16445300  0.48864200  1
  H  H28  1  0.71543500  0.46103900  0.57360100  1
  H  H29  1  0.78456500  0.96103900  0.92639900  1
  H  H30  1  0.28456500  0.53896100  0.07360100  1
  H  H31  1  0.21543500  0.03896100  0.42639900  1
  H  H32  1  0.28456500  0.53896100  0.42639900  1
  H  H33  1  0.21543500  0.03896100  0.07360100  1
  H  H34  1  0.71543500  0.46103900  0.92639900  1
  H  H35  1  0.78456500  0.96103900  0.57360100  1
  H  H36  1  0.97122400  0.60177300  0.57989000  1
  H  H37  1  0.52877600  0.10177300  0.92011000  1
  H  H38  1  0.02877600  0.39822700  0.07989000  1
  H  H39  1  0.47122400  0.89822700  0.42011000  1
  H  H40  1  0.02877600  0.39822700  0.42011000  1
  H  H41  1  0.47122400  0.89822700  0.07989000  1
  H  H42  1  0.97122400  0.60177300  0.92011000  1
  H  H43  1  0.52877600  0.10177300  0.57989000  1
  H  H44  1  0.83071600  0.79859300  0.17016100  1
  H  H45  1  0.66928400  0.29859300  0.32983900  1
  H  H46  1  0.16928400  0.20140700  0.67016100  1
  H  H47  1  0.33071600  0.70140700  0.82983900  1
  H  H48  1  0.16928400  0.20140700  0.82983900  1
  H  H49  1  0.33071600  0.70140700  0.67016100  1
  H  H50  1  0.83071600  0.79859300  0.32983900  1
  H  H51  1  0.66928400  0.29859300  0.17016100  1
  H  H52  1  0.06870700  0.40047600  0.75000000  1
  H  H53  1  0.43129300  0.90047600  0.75000000  1
  H  H54  1  0.93129300  0.59952400  0.25000000  1
  H  H55  1  0.56870700  0.09952400  0.25000000  1
  N  N0  1  0.41691700  0.35358500  0.75000000  1
  N  N1  1  0.08308300  0.85358500  0.75000000  1
  N  N2  1  0.58308300  0.64641500  0.25000000  1
  N  N3  1  0.91691700  0.14641500  0.25000000  1
loop_
_geom_bond_atom_site_label_1
_geom_bond_atom_site_label_2
_geom_bond_distance
_geom_bond_site_symmetry_2
B0 H12 1.222677 1_555
B0 H28 1.224283 1_555
B0 H20 1.229709 1_555
B0 H36 1.230618 1_555
B1 H13 1.222677 1_555
B1 H29 1.224283 1_545
B1 H21 1.229709 1_556
B1 H37 1.230618 1_555
B2 H14 1.222677 1_555
B2 H30 1.224283 1_555
B2 H22 1.229709 1_554
B2 H38 1.230618 1_555
B3 H15 1.222677 1_555
B3 H31 1.224283 1_565
B3 H23 1.229709 1_555
B3 H39 1.230618 1_555
B4 H16 1.222677 1_555
B4 H32 1.224283 1_555
B4 H24 1.229709 1_555
B4 H40 1.230618 1_555
B5 H17 1.222677 1_555
B5 H33 1.224283 1_565
B5 H25 1.229709 1_554
B5 H41 1.230618 1_555
B6 H18 1.222677 1_555
B6 H34 1.224283 1_555
B6 H26 1.229709 1_556
B6 H42 1.230618 1_555
B7 H19 1.222677 1_555
B7 H35 1.224283 1_545
B7 H27 1.229709 1_555
B7 H43 1.230618 1_555
B8 H48 1.219304 1_555
B8 H46 1.219304 1_555
B8 H52 1.225137 1_555
B8 N0 1.585972 1_555
B9 H47 1.219304 1_555
B9 H49 1.219304 1_555
B9 H53 1.225137 1_555
B9 N1 1.585972 1_555
B10 H50 1.219304 1_555
B10 H44 1.219304 1_555
B10 H54 1.225137 1_555
B10 N2 1.585972 1_555
B11 H45 1.219304 1_555
B11 H51 1.219304 1_555
B11 H55 1.225137 1_555
B11 N3 1.585972 1_555
H0 N2 1.027702 1_555
H1 N3 1.027702 1_555
H2 N0 1.027702 1_555
H3 N1 1.027702 1_555
H4 N0 1.027702 1_555
H5 N1 1.027702 1_555
H6 N2 1.027702 1_555
H7 N3 1.027702 1_555
H8 N0 1.024941 1_555
H9 N1 1.024941 1_655
H10 N2 1.024941 1_555
H11 N3 1.024941 1_455
H12 Li6 1.998059 1_555
H13 Li7 1.998059 1_555
H14 Li4 1.998059 1_555
H15 Li5 1.998059 1_555
H16 Li2 1.998059 1_555
H17 Li3 1.998059 1_555
H18 Li0 1.998059 1_555
H19 Li1 1.998059 1_555
H20 Li5 2.140677 1_655
H20 Li6 2.177203 1_555
H21 Li4 2.140677 1_555
H21 Li7 2.177203 1_554
H22 Li7 2.140677 1_455
H22 Li4 2.177203 1_556
H23 Li6 2.140677 1_555
H23 Li5 2.177203 1_555
H24 Li1 2.140677 1_455
H24 Li2 2.177203 1_555
H25 Li0 2.140677 1_555
H25 Li3 2.177203 1_556
H26 Li3 2.140677 1_655
H26 Li0 2.177203 1_554
H27 Li2 2.140677 1_555
H27 Li1 2.177203 1_555
H28 Li1 1.949225 1_555
H29 Li0 1.949225 1_555
H30 Li3 1.949225 1_555
H31 Li2 1.949225 1_555
H32 Li5 1.949225 1_555
H33 Li4 1.949225 1_555
H34 Li7 1.949225 1_555
H35 Li6 1.949225 1_555
H36 Li5 2.064320 1_655
H36 Li1 2.219547 1_555
H37 Li4 2.064320 1_556
H37 Li0 2.219547 1_545
H38 Li7 2.064320 1_454
H38 Li3 2.219547 1_555
H39 Li6 2.064320 1_555
H39 Li2 2.219547 1_565
H40 Li1 2.064320 1_455
H40 Li5 2.219547 1_555
H41 Li0 2.064320 1_554
H41 Li4 2.219547 1_565
H42 Li3 2.064320 1_656
H42 Li7 2.219547 1_555
H43 Li2 2.064320 1_555
H43 Li6 2.219547 1_545
H44 Li3 2.057821 1_655
H45 Li2 2.057821 1_555
H46 Li1 2.057821 1_455
H47 Li0 2.057821 1_555
H48 Li7 2.057821 1_455
H49 Li6 2.057821 1_555
H50 Li5 2.057821 1_655
H51 Li4 2.057821 1_555
H52 Li1 2.321560 1_455
H52 Li7 2.321560 1_455
H53 Li6 2.321560 1_555
H53 Li0 2.321560 1_555
H54 Li3 2.321560 1_655
H54 Li5 2.321560 1_655
H55 Li4 2.321560 1_555
H55 Li2 2.321560 1_555
