# generated using pymatgen
data_Eu2CoRuO6
_symmetry_space_group_name_H-M   'P 1'
_cell_length_a   5.46482801
_cell_length_b   5.78589500
_cell_length_c   7.77623078
_cell_angle_alpha   90.00000000
_cell_angle_beta   89.46213216
_cell_angle_gamma   90.00000000
_symmetry_Int_Tables_number   1
_chemical_formula_structural   Eu2CoRuO6
_chemical_formula_sum   'Eu4 Co2 Ru2 O12'
_cell_volume   245.86519330
_cell_formula_units_Z   2
loop_
 _symmetry_equiv_pos_site_id
 _symmetry_equiv_pos_as_xyz
  1  'x, y, z'
loop_
 _atom_site_type_symbol
 _atom_site_label
 _atom_site_symmetry_multiplicity
 _atom_site_fract_x
 _atom_site_fract_y
 _atom_site_fract_z
 _atom_site_occupancy
  Eu  Eu0  1  0.01737100  0.43256000  0.25108400  1
  Eu  Eu1  1  0.98262900  0.56744000  0.74891600  1
  Eu  Eu2  1  0.48262900  0.93256000  0.24891600  1
  Eu  Eu3  1  0.51737100  0.06744000  0.75108400  1
  Co  Co0  1  0.00000000  0.00000000  0.50000000  1
  Co  Co1  1  0.50000000  0.50000000  0.00000000  1
  Ru  Ru0  1  0.00000000  0.00000000  0.00000000  1
  Ru  Ru1  1  0.50000000  0.50000000  0.50000000  1
  O  O0  1  0.18478600  0.70909500  0.05285400  1
  O  O1  1  0.81521400  0.29090500  0.94714600  1
  O  O2  1  0.31521400  0.20909500  0.44714600  1
  O  O3  1  0.68478600  0.79090500  0.55285400  1
  O  O4  1  0.29851800  0.18905000  0.04614500  1
  O  O5  1  0.70148200  0.81095000  0.95385500  1
  O  O6  1  0.20148200  0.68905000  0.45385500  1
  O  O7  1  0.79851800  0.31095000  0.54614500  1
  O  O8  1  0.90309800  0.03021600  0.24637900  1
  O  O9  1  0.09690200  0.96978400  0.75362100  1
  O  O10  1  0.59690200  0.53021600  0.25362100  1
  O  O11  1  0.40309800  0.46978400  0.74637900  1
loop_
_geom_bond_atom_site_label_1
_geom_bond_atom_site_label_2
_geom_bond_distance
_geom_bond_site_symmetry_2
Eu0 O10 2.366144 1_455
Eu0 O6 2.393888 1_555
Eu0 O0 2.397234 1_555
Eu0 O8 2.410593 1_455
Eu0 O2 2.586900 1_555
Eu0 O4 2.615227 1_555
Eu0 O7 2.671801 1_455
Eu0 O1 2.743600 1_454
Eu1 O11 2.366144 1_655
Eu1 O7 2.393888 1_555
Eu1 O1 2.397234 1_555
Eu1 O9 2.410593 1_655
Eu1 O3 2.586900 1_555
Eu1 O5 2.615227 1_555
Eu1 O6 2.671801 1_655
Eu1 O0 2.743600 1_656
Eu2 O8 2.366144 1_565
Eu2 O4 2.393888 1_565
Eu2 O2 2.397234 1_565
Eu2 O10 2.410593 1_555
Eu2 O0 2.586900 1_555
Eu2 O6 2.615227 1_555
Eu2 O5 2.671801 1_554
Eu2 O3 2.743600 1_555
Eu3 O9 2.366144 1_545
Eu3 O5 2.393888 1_545
Eu3 O3 2.397234 1_545
Eu3 O11 2.410593 1_555
Eu3 O1 2.586900 1_555
Eu3 O7 2.615227 1_555
Eu3 O4 2.671801 1_556
Eu3 O2 2.743600 1_555
Co0 O9 2.054320 1_545
Co0 O8 2.054320 1_455
Co0 O6 2.137881 1_545
Co0 O7 2.137881 1_455
Co0 O3 2.141628 1_445
Co0 O2 2.141628 1_555
Co1 O10 2.054320 1_555
Co1 O11 2.054320 1_554
Co1 O5 2.137881 1_554
Co1 O4 2.137881 1_555
Co1 O0 2.141628 1_555
Co1 O1 2.141628 1_554
O0 Ru0 2.007347 1_565
O1 Ru0 2.007347 1_656
O2 Ru1 2.007347 1_555
O3 Ru1 2.007347 1_555
O4 Ru0 1.999376 1_555
O5 Ru0 1.999376 1_666
O6 Ru1 1.999376 1_555
O7 Ru1 1.999376 1_555
O8 Ru0 1.990632 1_655
O9 Ru0 1.990632 1_566
O10 Ru1 1.990632 1_555
O11 Ru1 1.990632 1_555
