# generated using pymatgen
data_Yb4Pt3Au
_symmetry_space_group_name_H-M   'P 1'
_cell_length_a   4.47278471
_cell_length_b   5.48149569
_cell_length_c   6.90193779
_cell_angle_alpha   89.63370410
_cell_angle_beta   90.00000000
_cell_angle_gamma   90.00000000
_symmetry_Int_Tables_number   1
_chemical_formula_structural   Yb4Pt3Au
_chemical_formula_sum   'Yb4 Pt3 Au1'
_cell_volume   169.21514784
_cell_formula_units_Z   1
loop_
 _symmetry_equiv_pos_site_id
 _symmetry_equiv_pos_as_xyz
  1  'x, y, z'
loop_
 _atom_site_type_symbol
 _atom_site_label
 _atom_site_symmetry_multiplicity
 _atom_site_fract_x
 _atom_site_fract_y
 _atom_site_fract_z
 _atom_site_occupancy
  Yb  Yb0  1  0.50000000  0.64650988  0.68610008  1
  Yb  Yb1  1  0.50000000  0.85192674  0.18020718  1
  Yb  Yb2  1  0.00000000  0.36230709  0.30997418  1
  Yb  Yb3  1  0.00000000  0.14171152  0.82582650  1
  Pt  Pt0  1  0.50000000  0.33954265  0.04221951  1
  Pt  Pt1  1  0.00000000  0.84361506  0.45970320  1
  Pt  Pt2  1  0.00000000  0.65737910  0.95461659  1
  Au  Au0  1  0.50000000  0.15700796  0.54135276  1
loop_
_geom_bond_atom_site_label_1
_geom_bond_atom_site_label_2
_geom_bond_distance
_geom_bond_site_symmetry_2
Pt0 Yb1 2.831729 1_545
Pt0 Yb3 2.903229 1_554
Pt0 Yb3 2.903229 1_654
Pt0 Yb2 2.904336 1_655
Pt0 Yb2 2.904336 1_555
Pt0 Yb0 2.969804 1_554
Pt0 Yb1 2.971471 1_555
Pt1 Yb2 2.839609 1_555
Pt1 Yb0 2.930673 1_455
Pt1 Yb0 2.930673 1_555
Pt1 Yb1 2.953590 1_455
Pt1 Yb1 2.953590 1_555
Pt1 Yb3 3.018000 1_565
Pt1 Yb2 3.018977 1_565
Pt2 Yb3 2.794331 1_565
Pt2 Yb0 2.905353 1_455
Pt2 Yb0 2.905353 1_555
Pt2 Yb2 2.929317 1_556
Pt2 Yb1 2.929881 1_456
Pt2 Yb1 2.929881 1_556
Pt2 Yb3 2.968519 1_555
Au0 Yb0 2.869133 1_555
Au0 Pt1 2.877926 1_545
Au0 Pt1 2.877926 1_645
Au0 Yb0 2.965261 1_545
Au0 Yb2 2.965663 1_555
Au0 Yb2 2.965663 1_655
Au0 Yb3 2.976809 1_555
Au0 Yb3 2.976809 1_655
Au0 Yb1 3.010476 1_545
