# generated using pymatgen
data_Zn(AgO2)2
_symmetry_space_group_name_H-M   'P 1'
_cell_length_a   6.34091642
_cell_length_b   6.34091642
_cell_length_c   15.50259870
_cell_angle_alpha   89.10226353
_cell_angle_beta   89.10226353
_cell_angle_gamma   61.61944093
_symmetry_Int_Tables_number   1
_chemical_formula_structural   Zn(AgO2)2
_chemical_formula_sum   'Zn6 Ag12 O24'
_cell_volume   548.30869805
_cell_formula_units_Z   6
loop_
 _symmetry_equiv_pos_site_id
 _symmetry_equiv_pos_as_xyz
  1  'x, y, z'
loop_
 _atom_site_type_symbol
 _atom_site_label
 _atom_site_symmetry_multiplicity
 _atom_site_fract_x
 _atom_site_fract_y
 _atom_site_fract_z
 _atom_site_occupancy
  Zn  Zn0  1  0.15545000  0.15545000  0.95799700  1
  Zn  Zn1  1  0.83428600  0.83428600  0.66602200  1
  Zn  Zn2  1  0.66658100  0.66658100  0.83053800  1
  Zn  Zn3  1  0.16623400  0.16623400  0.33438100  1
  Zn  Zn4  1  0.00029300  0.00029300  0.50009600  1
  Zn  Zn5  1  0.33258500  0.33258500  0.16937400  1
  Ag  Ag0  1  0.16282500  0.66810200  0.83341700  1
  Ag  Ag1  1  0.49036100  0.49036100  0.62167600  1
  Ag  Ag2  1  0.49956000  0.49956000  0.99924200  1
  Ag  Ag3  1  0.66810200  0.16282500  0.83341700  1
  Ag  Ag4  1  0.50028800  0.99998300  0.50020800  1
  Ag  Ag5  1  0.82343800  0.82343800  0.29013200  1
  Ag  Ag6  1  0.99998300  0.50028800  0.50020800  1
  Ag  Ag7  1  0.84011800  0.32979900  0.16672600  1
  Ag  Ag8  1  0.17583600  0.17583600  0.71080400  1
  Ag  Ag9  1  0.32979900  0.84011800  0.16672600  1
  Ag  Ag10  1  0.50978300  0.50978300  0.37756500  1
  Ag  Ag11  1  0.83930500  0.83930500  0.04359700  1
  O  O0  1  0.34234500  0.80657300  0.91349900  1
  O  O1  1  0.49630300  0.49630300  0.76777600  1
  O  O2  1  0.80657300  0.34234500  0.91349900  1
  O  O3  1  0.32938100  0.32938100  0.91518500  1
  O  O4  1  0.68870300  0.11825300  0.57701400  1
  O  O5  1  0.99015800  0.99015800  0.75149800  1
  O  O6  1  0.83036600  0.83036600  0.42895700  1
  O  O7  1  0.54788600  0.98187100  0.75485100  1
  O  O8  1  0.11825300  0.68870300  0.57701400  1
  O  O9  1  0.83590700  0.83590700  0.90129900  1
  O  O10  1  0.68085200  0.68085200  0.57706500  1
  O  O11  1  0.98187100  0.54788600  0.75485100  1
  O  O12  1  0.02287400  0.45014900  0.24278800  1
  O  O13  1  0.31936300  0.31936300  0.42312100  1
  O  O14  1  0.88155500  0.31216900  0.42375700  1
  O  O15  1  0.45014900  0.02287400  0.24278800  1
  O  O16  1  0.16687700  0.16687700  0.08722800  1
  O  O17  1  0.17094500  0.17094500  0.57116600  1
  O  O18  1  0.01267300  0.01267300  0.24544100  1
  O  O19  1  0.31216900  0.88155500  0.42375700  1
  O  O20  1  0.65546300  0.65546300  0.09117000  1
  O  O21  1  0.21598800  0.64840200  0.08869700  1
  O  O22  1  0.50503300  0.50503300  0.23711500  1
  O  O23  1  0.64840200  0.21598800  0.08869700  1
loop_
_geom_bond_atom_site_label_1
_geom_bond_atom_site_label_2
_geom_bond_distance
_geom_bond_site_symmetry_2
Ag0 O11 2.070138 1_455
Ag0 O9 2.099201 1_455
Ag0 O1 2.114485 1_555
Ag0 O0 2.153274 1_555
Ag0 O5 2.195131 1_455
Ag0 O3 2.266171 1_555
Ag1 O10 2.175067 1_555
Ag1 O8 2.198011 1_555
Ag1 O4 2.198011 1_555
Ag1 O1 2.267034 1_555
Ag2 O23 2.096828 1_556
Ag2 O21 2.096828 1_556
Ag2 O0 2.160091 1_555
Ag2 O2 2.160091 1_555
Ag2 O20 2.236703 1_556
Ag2 O3 2.285180 1_555
Ag3 O7 2.070138 1_545
Ag3 O9 2.099201 1_545
Ag3 O1 2.114485 1_555
Ag3 O2 2.153274 1_555
Ag3 O5 2.195131 1_545
Ag3 O3 2.266171 1_555
Ag4 O19 2.077310 1_555
Ag4 O4 2.081307 1_565
Ag4 O17 2.135328 1_565
Ag4 O6 2.140626 1_555
Ag4 O10 2.142442 1_555
Ag4 O13 2.145695 1_565
Ag5 O6 2.154846 1_555
Ag5 O18 2.162476 1_665
Ag5 O12 2.218183 1_655
Ag5 O15 2.218183 1_565
Ag6 O14 2.077310 1_555
Ag6 O8 2.081307 1_655
Ag6 O17 2.135328 1_655
Ag6 O6 2.140626 1_555
Ag6 O10 2.142442 1_555
Ag6 O13 2.145695 1_655
Ag7 O12 2.056067 1_655
Ag7 O23 2.090291 1_555
Ag7 O18 2.145505 1_655
Ag7 O22 2.158907 1_555
Ag7 O20 2.162365 1_555
Ag7 O16 2.191832 1_655
Ag8 O5 2.107516 1_445
Ag8 O17 2.166379 1_555
Ag8 O7 2.193241 1_545
Ag8 O11 2.193241 1_455
Ag9 O15 2.056067 1_565
Ag9 O21 2.090291 1_555
Ag9 O18 2.145505 1_565
Ag9 O22 2.158907 1_555
Ag9 O20 2.162365 1_555
Ag9 O16 2.191832 1_565
Ag10 O13 2.178783 1_555
Ag10 O22 2.178898 1_555
Ag10 O14 2.203812 1_555
Ag10 O19 2.203812 1_555
Ag11 O20 2.121257 1_555
Ag11 O9 2.206974 1_554
Ag11 O23 2.221788 1_565
Ag11 O21 2.221788 1_655
O0 Zn0 2.074623 1_565
O0 Zn2 2.210645 1_555
O1 Zn2 2.110062 1_555
O2 Zn0 2.074623 1_655
O2 Zn2 2.210645 1_555
O3 Zn0 1.995906 1_555
O4 Zn1 2.092906 1_545
O4 Zn4 2.105762 1_655
O5 Zn1 2.172647 1_555
O6 Zn4 2.171729 1_665
O7 Zn1 2.101548 1_555
O7 Zn2 2.112780 1_555
O8 Zn1 2.092906 1_455
O8 Zn4 2.105762 1_565
O9 Zn2 2.163023 1_555
O10 Zn1 2.186062 1_555
O11 Zn1 2.101548 1_555
O11 Zn2 2.112780 1_555
O12 Zn5 2.067010 1_555
O12 Zn3 2.118524 1_555
O13 Zn3 2.181315 1_555
O14 Zn3 2.099617 1_655
O14 Zn4 2.101756 1_655
O15 Zn5 2.067010 1_555
O15 Zn3 2.118524 1_555
O16 Zn0 2.009544 1_554
O16 Zn5 2.227843 1_555
O17 Zn4 2.177978 1_555
O18 Zn3 2.186966 1_555
O19 Zn3 2.099617 1_565
O19 Zn4 2.101756 1_565
O21 Zn5 2.159663 1_555
O22 Zn5 2.168614 1_555
O23 Zn5 2.159663 1_555
