# generated using pymatgen
data_CsSrCl3
_symmetry_space_group_name_H-M   'P 1'
_cell_length_a   7.87290647
_cell_length_b   8.03044119
_cell_length_c   11.26828583
_cell_angle_alpha   90.00000000
_cell_angle_beta   90.00000000
_cell_angle_gamma   90.00000000
_symmetry_Int_Tables_number   1
_chemical_formula_structural   CsSrCl3
_chemical_formula_sum   'Cs4 Sr4 Cl12'
_cell_volume   712.41384795
_cell_formula_units_Z   4
loop_
 _symmetry_equiv_pos_site_id
 _symmetry_equiv_pos_as_xyz
  1  'x, y, z'
loop_
 _atom_site_type_symbol
 _atom_site_label
 _atom_site_symmetry_multiplicity
 _atom_site_fract_x
 _atom_site_fract_y
 _atom_site_fract_z
 _atom_site_occupancy
  Cs  Cs0  1  0.01456168  0.45287870  0.25000000  1
  Cs  Cs1  1  0.98543832  0.54712130  0.75000000  1
  Cs  Cs2  1  0.51456168  0.04712130  0.75000000  1
  Cs  Cs3  1  0.48543832  0.95287870  0.25000000  1
  Sr  Sr0  1  -0.00000000  0.00000000  0.00000000  1
  Sr  Sr1  1  0.50000000  0.50000000  0.00000000  1
  Sr  Sr2  1  -0.00000000  0.00000000  0.50000000  1
  Sr  Sr3  1  0.50000000  0.50000000  0.50000000  1
  Cl  Cl0  1  0.29115824  0.21052325  0.03711593  1
  Cl  Cl1  1  0.70884176  0.78947675  0.96288407  1
  Cl  Cl2  1  0.79115824  0.28947675  0.96288407  1
  Cl  Cl3  1  0.70884176  0.78947675  0.53711593  1
  Cl  Cl4  1  0.20884176  0.71052325  0.03711593  1
  Cl  Cl5  1  0.29115824  0.21052325  0.46288407  1
  Cl  Cl6  1  0.20884176  0.71052325  0.46288407  1
  Cl  Cl7  1  0.79115824  0.28947675  0.53711593  1
  Cl  Cl8  1  0.56943096  0.51336681  0.25000000  1
  Cl  Cl9  1  0.43056904  0.48663319  0.75000000  1
  Cl  Cl10  1  0.06943096  0.98663319  0.75000000  1
  Cl  Cl11  1  0.93056904  0.01336681  0.25000000  1
loop_
_geom_bond_atom_site_label_1
_geom_bond_atom_site_label_2
_geom_bond_distance
_geom_bond_site_symmetry_2
Cl0 Sr1 2.877876 1_555
Cl0 Sr0 2.878800 1_555
Cl0 Cs3 3.517770 1_545
Cl0 Cs0 3.779448 1_555
Cl0 Cs2 3.909288 1_554
Cl1 Sr1 2.877876 1_556
Cl1 Sr0 2.878800 1_666
Cl1 Cs2 3.517770 1_565
Cl1 Cs1 3.779448 1_555
Cl1 Cs3 3.909288 1_556
Cl2 Sr0 2.877876 1_656
Cl2 Sr1 2.878800 1_556
Cl2 Cs1 3.517770 1_555
Cl2 Cs2 3.779448 1_555
Cl2 Cs0 3.909288 1_656
Cl3 Sr3 2.877876 1_555
Cl3 Sr2 2.878800 1_665
Cl3 Cs2 3.517770 1_565
Cl3 Cs1 3.779448 1_555
Cl3 Cs3 3.909288 1_555
Cl4 Sr0 2.877876 1_565
Cl4 Sr1 2.878800 1_555
Cl4 Cs0 3.517770 1_555
Cl4 Cs3 3.779448 1_555
Cl4 Cs1 3.909288 1_454
Cl5 Sr3 2.877876 1_555
Cl5 Sr2 2.878800 1_555
Cl5 Cs3 3.517770 1_545
Cl5 Cs0 3.779448 1_555
Cl5 Cs2 3.909288 1_555
Cl6 Sr2 2.877876 1_565
Cl6 Sr3 2.878800 1_555
Cl6 Cs0 3.517770 1_555
Cl6 Cs3 3.779448 1_555
Cl6 Cs1 3.909288 1_455
Cl7 Sr2 2.877876 1_655
Cl7 Sr3 2.878800 1_555
Cl7 Cs1 3.517770 1_555
Cl7 Cs2 3.779448 1_555
Cl7 Cs0 3.909288 1_655
Cl8 Sr3 2.871622 1_555
Cl8 Sr1 2.871622 1_555
Cl8 Cs0 3.537976 1_655
Cl8 Cs3 3.590886 1_555
Cl9 Sr3 2.871622 1_555
Cl9 Sr1 2.871622 1_556
Cl9 Cs1 3.537976 1_455
Cl9 Cs2 3.590886 1_555
Cl10 Sr0 2.871622 1_566
Cl10 Sr2 2.871622 1_565
Cl10 Cs2 3.537976 1_565
Cl10 Cs1 3.590886 1_455
Cl11 Sr2 2.871622 1_655
Cl11 Sr0 2.871622 1_655
Cl11 Cs3 3.537976 1_545
Cl11 Cs0 3.590886 1_655
