# generated using pymatgen
data_Yb(TiAl10)2
_symmetry_space_group_name_H-M   'P 1'
_cell_length_a   10.38966136
_cell_length_b   10.38966136
_cell_length_c   10.38966136
_cell_angle_alpha   60.00000000
_cell_angle_beta   60.00000000
_cell_angle_gamma   60.00000000
_symmetry_Int_Tables_number   1
_chemical_formula_structural   Yb(TiAl10)2
_chemical_formula_sum   'Yb2 Ti4 Al40'
_cell_volume   793.02920072
_cell_formula_units_Z   2
loop_
 _symmetry_equiv_pos_site_id
 _symmetry_equiv_pos_as_xyz
  1  'x, y, z'
loop_
 _atom_site_type_symbol
 _atom_site_label
 _atom_site_symmetry_multiplicity
 _atom_site_fract_x
 _atom_site_fract_y
 _atom_site_fract_z
 _atom_site_occupancy
  Yb  Yb0  1  0.50000000  0.50000000  0.50000000  1
  Yb  Yb1  1  0.75000000  0.75000000  0.75000000  1
  Ti  Ti0  1  0.62500000  0.12500000  0.12500000  1
  Ti  Ti1  1  0.12500000  0.62500000  0.12500000  1
  Ti  Ti2  1  0.12500000  0.12500000  0.62500000  1
  Ti  Ti3  1  0.12500000  0.12500000  0.12500000  1
  Al  Al0  1  0.86142100  0.86142100  0.13857900  1
  Al  Al1  1  0.13857900  0.13857900  0.86142100  1
  Al  Al2  1  0.86142100  0.13857900  0.86142100  1
  Al  Al3  1  0.13857900  0.86142100  0.13857900  1
  Al  Al4  1  0.13857900  0.86142100  0.86142100  1
  Al  Al5  1  0.86142100  0.13857900  0.13857900  1
  Al  Al6  1  0.38857900  0.38857900  0.11142100  1
  Al  Al7  1  0.11142100  0.11142100  0.38857900  1
  Al  Al8  1  0.38857900  0.11142100  0.38857900  1
  Al  Al9  1  0.11142100  0.38857900  0.11142100  1
  Al  Al10  1  0.11142100  0.38857900  0.38857900  1
  Al  Al11  1  0.38857900  0.11142100  0.11142100  1
  Al  Al12  1  0.56764700  0.30069000  0.30069000  1
  Al  Al13  1  0.30069000  0.56764700  0.83097300  1
  Al  Al14  1  0.30069000  0.83097300  0.56764700  1
  Al  Al15  1  0.83097300  0.30069000  0.30069000  1
  Al  Al16  1  0.30069000  0.30069000  0.56764700  1
  Al  Al17  1  0.56764700  0.83097300  0.30069000  1
  Al  Al18  1  0.83097300  0.56764700  0.30069000  1
  Al  Al19  1  0.30069000  0.30069000  0.83097300  1
  Al  Al20  1  0.30069000  0.56764700  0.30069000  1
  Al  Al21  1  0.83097300  0.30069000  0.56764700  1
  Al  Al22  1  0.56764700  0.30069000  0.83097300  1
  Al  Al23  1  0.30069000  0.83097300  0.30069000  1
  Al  Al24  1  0.68235300  0.94931000  0.94931000  1
  Al  Al25  1  0.94931000  0.68235300  0.41902700  1
  Al  Al26  1  0.94931000  0.41902700  0.68235300  1
  Al  Al27  1  0.41902700  0.94931000  0.94931000  1
  Al  Al28  1  0.94931000  0.94931000  0.68235300  1
  Al  Al29  1  0.68235300  0.41902700  0.94931000  1
  Al  Al30  1  0.41902700  0.68235300  0.94931000  1
  Al  Al31  1  0.94931000  0.94931000  0.41902700  1
  Al  Al32  1  0.94931000  0.68235300  0.94931000  1
  Al  Al33  1  0.41902700  0.94931000  0.68235300  1
  Al  Al34  1  0.68235300  0.94931000  0.41902700  1
  Al  Al35  1  0.94931000  0.41902700  0.94931000  1
  Al  Al36  1  0.12500000  0.62500000  0.62500000  1
  Al  Al37  1  0.62500000  0.12500000  0.62500000  1
  Al  Al38  1  0.62500000  0.62500000  0.12500000  1
  Al  Al39  1  0.62500000  0.62500000  0.62500000  1
loop_
_geom_bond_atom_site_label_1
_geom_bond_atom_site_label_2
_geom_bond_distance
_geom_bond_site_symmetry_2
Al0 Ti0 2.605067 1_565
Al0 Ti1 2.605067 1_655
Al0 Al17 2.746786 1_555
Al0 Al18 2.746786 1_555
Al0 Al3 2.879578 1_655
Al0 Al5 2.879578 1_565
Al0 Al4 2.879578 1_654
Al0 Al2 2.879578 1_564
Al0 Al34 2.885481 1_555
Al0 Al25 2.885481 1_555
Al0 Al24 2.885481 1_554
Al0 Al32 2.885481 1_554
Al1 Ti3 2.605067 1_556
Al1 Ti2 2.605067 1_555
Al1 Al16 2.746786 1_555
Al1 Al19 2.746786 1_555
Al1 Al4 2.879578 1_545
Al1 Al5 2.879578 1_456
Al1 Al2 2.879578 1_455
Al1 Al3 2.879578 1_546
Al1 Al33 2.885481 1_545
Al1 Al27 2.885481 1_545
Al1 Al35 2.885481 1_455
Al1 Al26 2.885481 1_455
Al2 Ti2 2.605067 1_655
Al2 Ti0 2.605067 1_556
Al2 Al22 2.746786 1_555
Al2 Al21 2.746786 1_555
Al2 Al5 2.879578 1_556
Al2 Al4 2.879578 1_645
Al2 Al26 2.885481 1_555
Al2 Al29 2.885481 1_555
Al2 Al28 2.885481 1_545
Al2 Al24 2.885481 1_545
Al3 Ti3 2.605067 1_565
Al3 Ti1 2.605067 1_555
Al3 Al4 2.879578 1_554
Al3 Al5 2.879578 1_465
Al3 Al31 2.885481 1_455
Al3 Al30 2.885481 1_554
Al4 Ti1 2.605067 1_556
Al4 Ti2 2.605067 1_565
Al5 Ti0 2.605067 1_555
Al5 Ti3 2.605067 1_655
Al6 Ti0 2.605067 1_555
Al6 Ti1 2.605067 1_555
Al6 Al9 2.879578 1_555
Al6 Al8 2.879578 1_555
Al7 Ti3 2.605067 1_555
Al7 Ti2 2.605067 1_555
Al7 Al9 2.879578 1_555
Al7 Al8 2.879578 1_555
Al8 Ti0 2.605067 1_555
Al8 Ti2 2.605067 1_555
Al9 Ti3 2.605067 1_555
Al9 Ti1 2.605067 1_555
Al10 Ti1 2.605067 1_555
Al10 Ti2 2.605067 1_555
Al10 Al25 2.746786 1_455
Al10 Al26 2.746786 1_455
Al10 Al9 2.879578 1_555
Al10 Al8 2.879578 1_555
Al10 Al6 2.879578 1_555
Al10 Al7 2.879578 1_555
Al10 Al21 2.885481 1_455
Al10 Al18 2.885481 1_455
Al10 Al16 2.885481 1_555
Al10 Al20 2.885481 1_555
Al11 Ti3 2.605067 1_555
Al11 Ti0 2.605067 1_555
Al11 Al24 2.746786 1_544
Al11 Al27 2.746786 1_544
Al11 Al9 2.879578 1_555
Al11 Al8 2.879578 1_555
Al11 Al6 2.879578 1_555
Al11 Al7 2.879578 1_555
Al11 Al17 2.885481 1_545
Al11 Al23 2.885481 1_545
Al11 Al19 2.885481 1_554
Al11 Al22 2.885481 1_554
Al12 Al15 2.735868 1_555
Al12 Al5 2.746786 1_555
Al12 Al16 2.773593 1_555
Al12 Al20 2.773593 1_555
Al12 Ti0 2.859283 1_555
Al12 Al6 2.885481 1_555
Al12 Al8 2.885481 1_555
Al12 Al29 2.980879 1_554
Al12 Al34 2.980879 1_545
Al12 Al37 3.132084 1_555
Al12 Al38 3.132084 1_555
Al12 Yb0 3.232238 1_555
Al13 Al14 2.735868 1_555
Al13 Al4 2.746786 1_555
Al13 Al19 2.773593 1_555
Al13 Al22 2.773593 1_555
Al13 Ti1 2.859283 1_556
Al13 Al9 2.885481 1_556
Al13 Al6 2.885481 1_556
Al13 Al30 2.980879 1_555
Al13 Al32 2.980879 1_455
Al13 Al39 3.132084 1_555
Al13 Al36 3.132084 1_555
Al13 Yb0 3.232238 1_555
Al14 Al4 2.746786 1_555
Al14 Al23 2.773593 1_555
Al14 Al17 2.773593 1_555
Al14 Ti2 2.859283 1_565
Al14 Al7 2.885481 1_565
Al14 Al8 2.885481 1_565
Al14 Al33 2.980879 1_555
Al14 Al28 2.980879 1_455
Al14 Al39 3.132084 1_555
Al14 Al36 3.132084 1_555
Al14 Yb0 3.232238 1_555
Al15 Al5 2.746786 1_555
Al15 Al18 2.773593 1_555
Al15 Al21 2.773593 1_555
Al15 Ti3 2.859283 1_655
Al15 Al9 2.885481 1_655
Al15 Al7 2.885481 1_655
Al15 Al31 2.980879 1_545
Al15 Al35 2.980879 1_554
Al15 Al38 3.132084 1_555
Al15 Al37 3.132084 1_555
Al15 Yb0 3.232238 1_555
Al16 Al19 2.735868 1_555
Al16 Al20 2.773593 1_555
Al16 Ti2 2.859283 1_555
Al16 Al8 2.885481 1_555
Al16 Al33 2.980879 1_545
Al16 Al26 2.980879 1_455
Al16 Al36 3.132084 1_555
Al16 Al37 3.132084 1_555
Al16 Yb0 3.232238 1_555
Al17 Al18 2.735868 1_555
Al17 Al23 2.773593 1_555
Al17 Ti0 2.859283 1_565
Al17 Al8 2.885481 1_565
Al17 Al34 2.980879 1_555
Al17 Al24 2.980879 1_554
Al17 Al39 3.132084 1_555
Al17 Al38 3.132084 1_555
Al17 Yb0 3.232238 1_555
Al18 Al21 2.773593 1_555
Al18 Ti1 2.859283 1_655
Al18 Al9 2.885481 1_655
Al18 Al25 2.980879 1_555
Al18 Al32 2.980879 1_554
Al18 Al39 3.132084 1_555
Al18 Al38 3.132084 1_555
Al18 Yb0 3.232238 1_555
Al19 Al22 2.773593 1_555
Al19 Ti3 2.859283 1_556
Al19 Al9 2.885481 1_556
Al19 Al35 2.980879 1_455
Al19 Al27 2.980879 1_545
Al19 Al36 3.132084 1_555
Al19 Al37 3.132084 1_555
Al19 Yb0 3.232238 1_555
Al20 Al23 2.735868 1_555
Al20 Al3 2.746786 1_555
Al20 Ti1 2.859283 1_555
Al20 Al6 2.885481 1_555
Al20 Al30 2.980879 1_554
Al20 Al25 2.980879 1_455
Al20 Al36 3.132084 1_555
Al20 Al38 3.132084 1_555
Al20 Yb0 3.232238 1_555
Al21 Al22 2.735868 1_555
Al21 Ti2 2.859283 1_655
Al21 Al7 2.885481 1_655
Al21 Al26 2.980879 1_555
Al21 Al28 2.980879 1_545
Al21 Al37 3.132084 1_555
Al21 Al39 3.132084 1_555
Al21 Yb0 3.232238 1_555
Al22 Ti0 2.859283 1_556
Al22 Al6 2.885481 1_556
Al22 Al29 2.980879 1_555
Al22 Al24 2.980879 1_545
Al22 Al37 3.132084 1_555
Al22 Al39 3.132084 1_555
Al22 Yb0 3.232238 1_555
Al23 Al3 2.746786 1_555
Al23 Ti3 2.859283 1_565
Al23 Al7 2.885481 1_565
Al23 Al31 2.980879 1_455
Al23 Al27 2.980879 1_554
Al23 Al38 3.132084 1_555
Al23 Al36 3.132084 1_555
Al23 Yb0 3.232238 1_555
Al24 Al27 2.735868 1_555
Al24 Al32 2.773593 1_555
Al24 Al28 2.773593 1_555
Al24 Ti0 2.859283 1_566
Al24 Al37 3.132084 1_565
Al24 Al38 3.132084 1_556
Al24 Yb1 3.232238 1_555
Al25 Al26 2.735868 1_555
Al25 Al31 2.773593 1_555
Al25 Al34 2.773593 1_555
Al25 Ti1 2.859283 1_655
Al25 Al3 2.885481 1_655
Al25 Al39 3.132084 1_555
Al25 Al36 3.132084 1_655
Al25 Yb1 3.232238 1_555
Al26 Al35 2.773593 1_555
Al26 Al29 2.773593 1_555
Al26 Ti2 2.859283 1_655
Al26 Al39 3.132084 1_555
Al26 Al36 3.132084 1_655
Al26 Yb1 3.232238 1_555
Al27 Al30 2.773593 1_555
Al27 Al33 2.773593 1_555
Al27 Ti3 2.859283 1_566
Al27 Al3 2.885481 1_556
Al27 Al38 3.132084 1_556
Al27 Al37 3.132084 1_565
Al27 Yb1 3.232238 1_555
Al28 Al31 2.735868 1_555
Al28 Al7 2.746786 1_665
Al28 Al32 2.773593 1_555
Al28 Ti2 2.859283 1_665
Al28 Al4 2.885481 1_655
Al28 Al36 3.132084 1_655
Al28 Al37 3.132084 1_565
Al28 Yb1 3.232238 1_555
Al29 Al30 2.735868 1_555
Al29 Al6 2.746786 1_556
Al29 Al35 2.773593 1_555
Al29 Ti0 2.859283 1_556
Al29 Al5 2.885481 1_556
Al29 Al39 3.132084 1_555
Al29 Al38 3.132084 1_556
Al29 Yb1 3.232238 1_555
Al30 Al6 2.746786 1_556
Al30 Al33 2.773593 1_555
Al30 Ti1 2.859283 1_556
Al30 Al4 2.885481 1_555
Al30 Al39 3.132084 1_555
Al30 Al38 3.132084 1_556
Al30 Yb1 3.232238 1_555
Al31 Al7 2.746786 1_665
Al31 Al34 2.773593 1_555
Al31 Ti3 2.859283 1_665
Al31 Al5 2.885481 1_565
Al31 Al36 3.132084 1_655
Al31 Al37 3.132084 1_565
Al31 Yb1 3.232238 1_555
Al32 Al35 2.735868 1_555
Al32 Al9 2.746786 1_656
Al32 Ti1 2.859283 1_656
Al32 Al4 2.885481 1_655
Al32 Al36 3.132084 1_655
Al32 Al38 3.132084 1_556
Al32 Yb1 3.232238 1_555
Al33 Al34 2.735868 1_555
Al33 Al8 2.746786 1_565
Al33 Ti2 2.859283 1_565
Al33 Al4 2.885481 1_555
Al33 Al39 3.132084 1_555
Al33 Al37 3.132084 1_565
Al33 Yb1 3.232238 1_555
Al34 Al8 2.746786 1_565
Al34 Ti0 2.859283 1_565
Al34 Al5 2.885481 1_565
Al34 Al39 3.132084 1_555
Al34 Al37 3.132084 1_565
Al34 Yb1 3.232238 1_555
Al35 Al9 2.746786 1_656
Al35 Ti3 2.859283 1_656
Al35 Al5 2.885481 1_556
Al35 Al36 3.132084 1_655
Al35 Al38 3.132084 1_556
Al35 Yb1 3.232238 1_555
Al36 Yb0 3.181171 1_555
Al36 Yb1 3.181171 1_455
Al37 Yb0 3.181171 1_555
Al37 Yb1 3.181171 1_545
Al38 Yb0 3.181171 1_555
Al38 Yb1 3.181171 1_554
Al39 Yb0 3.181171 1_555
Al39 Yb1 3.181171 1_555
