# generated using pymatgen
data_Mg6SbMo
_symmetry_space_group_name_H-M   'P 1'
_cell_length_a   5.12899200
_cell_length_b   6.01744000
_cell_length_c   10.78746600
_cell_angle_alpha   90.00000000
_cell_angle_beta   90.00000000
_cell_angle_gamma   90.00000000
_symmetry_Int_Tables_number   1
_chemical_formula_structural   Mg6SbMo
_chemical_formula_sum   'Mg12 Sb2 Mo2'
_cell_volume   332.93789563
_cell_formula_units_Z   2
loop_
 _symmetry_equiv_pos_site_id
 _symmetry_equiv_pos_as_xyz
  1  'x, y, z'
loop_
 _atom_site_type_symbol
 _atom_site_label
 _atom_site_symmetry_multiplicity
 _atom_site_fract_x
 _atom_site_fract_y
 _atom_site_fract_z
 _atom_site_occupancy
  Mg  Mg0  1  0.50000000  0.24772100  0.41732800  1
  Mg  Mg1  1  0.50000000  0.75227900  0.41732800  1
  Mg  Mg2  1  0.00000000  0.76279300  0.08384500  1
  Mg  Mg3  1  0.00000000  0.23720700  0.08384500  1
  Mg  Mg4  1  0.00000000  0.00000000  0.32560500  1
  Mg  Mg5  1  0.00000000  0.50000000  0.33621800  1
  Mg  Mg6  1  0.50000000  0.74772100  0.91732800  1
  Mg  Mg7  1  0.50000000  0.25227900  0.91732800  1
  Mg  Mg8  1  0.00000000  0.26279300  0.58384500  1
  Mg  Mg9  1  0.00000000  0.73720700  0.58384500  1
  Mg  Mg10  1  0.00000000  0.50000000  0.82560500  1
  Mg  Mg11  1  0.00000000  0.00000000  0.83621800  1
  Sb  Sb0  1  0.50000000  0.50000000  0.16895900  1
  Sb  Sb1  1  0.50000000  0.00000000  0.66895900  1
  Mo  Mo0  1  0.50000000  0.00000000  0.16686800  1
  Mo  Mo1  1  0.50000000  0.50000000  0.66686800  1
loop_
_geom_bond_atom_site_label_1
_geom_bond_atom_site_label_2
_geom_bond_distance
_geom_bond_site_symmetry_2
Mg0 Mg1 2.981293 1_545
Mg0 Mg1 3.036147 1_555
Mg0 Sb0 3.079456 1_555
Mg0 Mo0 3.085758 1_555
Mg0 Mo1 3.090452 1_555
Mg0 Sb1 3.096825 1_555
Mg0 Mg5 3.105924 1_655
Mg0 Mg5 3.105924 1_555
Mg0 Mg4 3.126931 1_555
Mg0 Mg4 3.126931 1_655
Mg0 Mg8 3.132339 1_655
Mg0 Mg8 3.132339 1_555
Mg1 Sb0 3.079456 1_555
Mg1 Mo0 3.085758 1_565
Mg1 Mo1 3.090452 1_555
Mg1 Sb1 3.096825 1_565
Mg1 Mg5 3.105924 1_655
Mg1 Mg5 3.105924 1_555
Mg1 Mg4 3.126931 1_565
Mg1 Mg4 3.126931 1_665
Mg1 Mg9 3.132339 1_555
Mg1 Mg9 3.132339 1_655
Mg2 Mg3 2.854758 1_565
Mg2 Mg4 2.973039 1_565
Mg2 Mo0 3.068577 1_565
Mg2 Mo0 3.068577 1_465
Mg2 Mg6 3.132339 1_454
Mg2 Mg6 3.132339 1_554
Mg2 Mg5 3.148405 1_555
Mg2 Sb0 3.149652 1_555
Mg2 Sb0 3.149652 1_455
Mg2 Mg3 3.162682 1_555
Mg3 Mg4 2.973039 1_555
Mg3 Mo0 3.068577 1_455
Mg3 Mo0 3.068577 1_555
Mg3 Mg7 3.132339 1_554
Mg3 Mg7 3.132339 1_454
Mg3 Mg5 3.148405 1_555
Mg3 Sb0 3.149652 1_455
Mg3 Sb0 3.149652 1_555
Mg4 Mg5 3.010897 1_555
Mg4 Mg5 3.010897 1_545
Mg4 Mo0 3.083642 1_455
Mg4 Mo0 3.083642 1_555
Mg4 Mg8 3.203291 1_555
Mg4 Mg9 3.203291 1_545
Mg5 Mg9 3.028710 1_555
Mg5 Mg8 3.028710 1_555
Mg5 Sb0 3.135625 1_555
Mg5 Sb0 3.135625 1_455
Mg6 Mg7 2.981293 1_555
Mg6 Mg7 3.036147 1_565
Mg6 Sb1 3.079456 1_565
Mg6 Mo1 3.085758 1_555
Mg6 Mo0 3.090452 1_566
Mg6 Sb0 3.096825 1_556
Mg7 Sb1 3.079456 1_555
Mg7 Mo1 3.085758 1_555
Mg7 Mo0 3.090452 1_556
Mg7 Sb0 3.096825 1_556
Mg8 Mg9 2.854758 1_555
Mg8 Mo1 3.068577 1_555
Mg8 Mo1 3.068577 1_455
Mg8 Sb1 3.149652 1_455
Mg8 Sb1 3.149652 1_555
Mg8 Mg9 3.162682 1_545
Mg9 Mo1 3.068577 1_555
Mg9 Mo1 3.068577 1_455
Mg9 Sb1 3.149652 1_565
Mg9 Sb1 3.149652 1_465
Mg10 Mg9 2.973039 1_555
Mg10 Mg8 2.973039 1_555
Mg10 Mg11 3.010897 1_555
Mg10 Mg11 3.010897 1_565
Mg10 Mo1 3.083642 1_555
Mg10 Mo1 3.083642 1_455
Mg10 Mg6 3.126931 1_455
Mg10 Mg6 3.126931 1_555
Mg10 Mg7 3.126931 1_455
Mg10 Mg7 3.126931 1_555
Mg10 Mg2 3.203291 1_556
Mg10 Mg3 3.203291 1_556
Mg11 Mg3 3.028710 1_556
Mg11 Mg2 3.028710 1_546
Mg11 Mg7 3.105924 1_455
Mg11 Mg7 3.105924 1_555
Mg11 Mg6 3.105924 1_545
Mg11 Mg6 3.105924 1_445
Mg11 Sb1 3.135625 1_555
Mg11 Sb1 3.135625 1_455
Mg11 Mg9 3.148405 1_545
Mg11 Mg8 3.148405 1_555
Mo0 Sb0 3.008805 1_555
Mo0 Sb0 3.008805 1_545
Mo1 Sb1 3.008805 1_565
Mo1 Sb1 3.008805 1_555
