# generated using pymatgen
data_BH5(OF2)2
_symmetry_space_group_name_H-M   'P 1'
_cell_length_a   9.74656400
_cell_length_b   6.65260300
_cell_length_c   7.13842174
_cell_angle_alpha   84.41103986
_cell_angle_beta   90.00000000
_cell_angle_gamma   90.00000000
_symmetry_Int_Tables_number   1
_chemical_formula_structural   BH5(OF2)2
_chemical_formula_sum   'B4 H20 O8 F16'
_cell_volume   460.65508561
_cell_formula_units_Z   4
loop_
 _symmetry_equiv_pos_site_id
 _symmetry_equiv_pos_as_xyz
  1  'x, y, z'
loop_
 _atom_site_type_symbol
 _atom_site_label
 _atom_site_symmetry_multiplicity
 _atom_site_fract_x
 _atom_site_fract_y
 _atom_site_fract_z
 _atom_site_occupancy
  B  B0  1  0.38002000  0.79250400  0.35506600  1
  B  B1  1  0.88002000  0.20749600  0.14493400  1
  B  B2  1  0.61998000  0.20749600  0.64493400  1
  B  B3  1  0.11998000  0.79250400  0.85506600  1
  H  H0  1  0.59122600  0.69871800  0.91740800  1
  H  H1  1  0.09122600  0.30128200  0.58259200  1
  H  H2  1  0.40877400  0.30128200  0.08259200  1
  H  H3  1  0.90877400  0.69871800  0.41740800  1
  H  H4  1  0.76244600  0.60440500  0.01973000  1
  H  H5  1  0.26244600  0.39559500  0.48027000  1
  H  H6  1  0.23755400  0.39559500  0.98027000  1
  H  H7  1  0.73755400  0.60440500  0.51973000  1
  H  H8  1  0.74291400  0.84593500  0.00054700  1
  H  H9  1  0.24291400  0.15406500  0.49945300  1
  H  H10  1  0.25708600  0.15406500  0.99945300  1
  H  H11  1  0.75708600  0.84593500  0.50054700  1
  H  H12  1  0.46361000  0.71117500  0.73893500  1
  H  H13  1  0.96361000  0.28882500  0.76106500  1
  H  H14  1  0.53639000  0.28882500  0.26106500  1
  H  H15  1  0.03639000  0.71117500  0.23893500  1
  H  H16  1  0.42067700  0.78323500  0.93884400  1
  H  H17  1  0.92067700  0.21676500  0.56115600  1
  H  H18  1  0.57932300  0.21676500  0.06115600  1
  H  H19  1  0.07932300  0.78323500  0.43884400  1
  O  O0  1  0.71644300  0.71961600  0.94865800  1
  O  O1  1  0.21644300  0.28038400  0.55134200  1
  O  O2  1  0.28355700  0.28038400  0.05134200  1
  O  O3  1  0.78355700  0.71961600  0.44865800  1
  O  O4  1  0.47535700  0.68416000  0.87758700  1
  O  O5  1  0.97535700  0.31584000  0.62241300  1
  O  O6  1  0.52464300  0.31584000  0.12241300  1
  O  O7  1  0.02464300  0.68416000  0.37758700  1
  F  F0  1  0.44799600  0.88446200  0.19602500  1
  F  F1  1  0.94799600  0.11553800  0.30397500  1
  F  F2  1  0.55200400  0.11553800  0.80397500  1
  F  F3  1  0.05200400  0.88446200  0.69602500  1
  F  F4  1  0.26997500  0.91929300  0.40603600  1
  F  F5  1  0.76997500  0.08070700  0.09396400  1
  F  F6  1  0.73002500  0.08070700  0.59396400  1
  F  F7  1  0.23002500  0.91929300  0.90603600  1
  F  F8  1  0.32470700  0.60348900  0.31664000  1
  F  F9  1  0.82470700  0.39651100  0.18336000  1
  F  F10  1  0.67529300  0.39651100  0.68336000  1
  F  F11  1  0.17529300  0.60348900  0.81664000  1
  F  F12  1  0.47296500  0.76129400  0.50877500  1
  F  F13  1  0.97296500  0.23870600  0.99122500  1
  F  F14  1  0.52703500  0.23870600  0.49122500  1
  F  F15  1  0.02703500  0.76129400  0.00877500  1
loop_
_geom_bond_atom_site_label_1
_geom_bond_atom_site_label_2
_geom_bond_distance
_geom_bond_site_symmetry_2
B0 F0 1.402436 1_555
B0 F8 1.419234 1_555
B0 F12 1.422432 1_555
B0 F4 1.433179 1_555
B1 F1 1.402436 1_555
B1 F9 1.419234 1_555
B1 F13 1.422432 1_554
B1 F5 1.433179 1_555
B2 F2 1.402436 1_555
B2 F10 1.419234 1_555
B2 F14 1.422432 1_555
B2 F6 1.433179 1_555
B3 F3 1.402436 1_555
B3 F11 1.419234 1_555
B3 F15 1.422432 1_556
B3 F7 1.433179 1_555
H0 O4 1.170863 1_555
H0 O0 1.250838 1_555
H1 O5 1.170863 1_455
H1 O1 1.250838 1_555
H2 O6 1.170863 1_555
H2 O2 1.250838 1_555
H3 O7 1.170863 1_655
H3 O3 1.250838 1_555
H4 O0 0.984957 1_554
H5 O1 0.984957 1_555
H6 O2 0.984957 1_556
H7 O3 0.984957 1_555
H8 O0 0.985182 1_554
H9 O1 0.985182 1_555
H10 O2 0.985182 1_556
H11 O3 0.985182 1_555
H12 O4 0.995177 1_555
H13 O5 0.995177 1_555
H14 O6 0.995177 1_555
H15 O7 0.995177 1_555
H16 O4 0.982751 1_555
H17 O5 0.982751 1_555
H18 O6 0.982751 1_555
H19 O7 0.982751 1_555
