# generated using pymatgen
data_Nb4GeSe8
_symmetry_space_group_name_H-M   'P 1'
_cell_length_a   14.03568899
_cell_length_b   14.03568899
_cell_length_c   6.07341350
_cell_angle_alpha   77.39781933
_cell_angle_beta   77.39781933
_cell_angle_gamma   14.39796619
_symmetry_Int_Tables_number   1
_chemical_formula_structural   Nb4GeSe8
_chemical_formula_sum   'Nb4 Ge1 Se8'
_cell_volume   290.22462193
_cell_formula_units_Z   1
loop_
 _symmetry_equiv_pos_site_id
 _symmetry_equiv_pos_as_xyz
  1  'x, y, z'
loop_
 _atom_site_type_symbol
 _atom_site_label
 _atom_site_symmetry_multiplicity
 _atom_site_fract_x
 _atom_site_fract_y
 _atom_site_fract_z
 _atom_site_occupancy
  Nb  Nb0  1  0.13115797  0.13115797  0.85846304  1
  Nb  Nb1  1  0.63189278  0.63189278  0.37985327  1
  Nb  Nb2  1  0.86884203  0.86884203  0.14153696  1
  Nb  Nb3  1  0.36810722  0.36810722  0.62014673  1
  Ge  Ge0  1  0.50000000  0.50000000  0.50000000  1
  Se  Se0  1  0.56830704  0.56830704  0.76928416  1
  Se  Se1  1  0.07046043  0.07046043  0.26134427  1
  Se  Se2  1  0.92953957  0.92953957  0.73865573  1
  Se  Se3  1  0.43169296  0.43169296  0.23071584  1
  Se  Se4  1  0.80948384  0.80948384  0.85897162  1
  Se  Se5  1  0.30727159  0.30727159  0.35791879  1
  Se  Se6  1  0.69272841  0.69272841  0.64208121  1
  Se  Se7  1  0.19051616  0.19051616  0.14102838  1
loop_
_geom_bond_atom_site_label_1
_geom_bond_atom_site_label_2
_geom_bond_distance
_geom_bond_site_symmetry_2
Nb0 Se6 2.601914 1_545
Nb0 Se6 2.601914 1_455
Nb0 Se0 2.620677 1_545
Nb0 Se0 2.620677 1_455
Nb0 Se7 2.631683 1_556
Nb0 Se1 2.650559 1_556
Nb1 Se6 2.567843 1_555
Nb1 Se7 2.611822 1_655
Nb1 Se7 2.611822 1_565
Nb1 Se0 2.624471 1_555
Nb1 Se1 2.660926 1_655
Nb1 Se1 2.660926 1_565
Nb2 Se5 2.601914 1_565
Nb2 Se5 2.601914 1_655
Nb2 Se3 2.620677 1_565
Nb2 Se3 2.620677 1_655
Nb2 Se4 2.631683 1_554
Nb2 Se2 2.650559 1_554
Nb3 Se5 2.567843 1_555
Nb3 Se4 2.611822 1_545
Nb3 Se4 2.611822 1_455
Nb3 Se3 2.624471 1_555
Nb3 Se2 2.660926 1_545
Nb3 Se2 2.660926 1_455
Ge0 Se3 2.768060 1_555
Ge0 Se0 2.768060 1_555
Ge0 Se1 2.791836 1_565
Ge0 Se2 2.791836 1_455
Ge0 Se1 2.791836 1_655
Ge0 Se2 2.791836 1_545
