# generated using pymatgen
data_BaTbInWO6
_symmetry_space_group_name_H-M   'P 1'
_cell_length_a   8.49633624
_cell_length_b   8.50948953
_cell_length_c   8.48621795
_cell_angle_alpha   90.00000000
_cell_angle_beta   90.00000000
_cell_angle_gamma   90.00000000
_symmetry_Int_Tables_number   1
_chemical_formula_structural   BaTbInWO6
_chemical_formula_sum   'Ba4 Tb4 In4 W4 O24'
_cell_volume   613.54918125
_cell_formula_units_Z   4
loop_
 _symmetry_equiv_pos_site_id
 _symmetry_equiv_pos_as_xyz
  1  'x, y, z'
loop_
 _atom_site_type_symbol
 _atom_site_label
 _atom_site_symmetry_multiplicity
 _atom_site_fract_x
 _atom_site_fract_y
 _atom_site_fract_z
 _atom_site_occupancy
  Ba  Ba0  1  -0.00000000  0.00000000  -0.00000000  1
  Ba  Ba1  1  0.50000000  0.50000000  0.50000000  1
  Ba  Ba2  1  0.50000000  0.00000000  0.50000000  1
  Ba  Ba3  1  -0.00000000  0.50000000  -0.00000000  1
  Tb  Tb0  1  0.75000000  0.75000000  0.75000000  1
  Tb  Tb1  1  0.25000000  0.25000000  0.75000000  1
  Tb  Tb2  1  0.25000000  0.75000000  0.25000000  1
  Tb  Tb3  1  0.75000000  0.25000000  0.25000000  1
  In  In0  1  0.00000000  0.50000000  0.50000000  1
  In  In1  1  0.50000000  0.50000000  -0.00000000  1
  In  In2  1  0.50000000  0.00000000  -0.00000000  1
  In  In3  1  -0.00000000  0.00000000  0.50000000  1
  W  W0  1  0.25000000  0.25000000  0.25000000  1
  W  W1  1  0.75000000  0.75000000  0.25000000  1
  W  W2  1  0.75000000  0.25000000  0.75000000  1
  W  W3  1  0.25000000  0.75000000  0.75000000  1
  O  O0  1  0.01925361  0.23929333  0.24994740  1
  O  O1  1  0.98074639  0.76070667  0.24994740  1
  O  O2  1  0.98074639  0.23929333  0.75005260  1
  O  O3  1  0.01925361  0.76070667  0.75005260  1
  O  O4  1  0.26025893  0.01951997  0.24666709  1
  O  O5  1  0.26025893  0.98048003  0.75333291  1
  O  O6  1  0.73974107  0.98048003  0.24666709  1
  O  O7  1  0.73974107  0.01951997  0.75333291  1
  O  O8  1  0.23491957  0.25255924  0.01874004  1
  O  O9  1  0.76508043  0.25255924  0.98125996  1
  O  O10  1  0.23491957  0.74744076  0.98125996  1
  O  O11  1  0.76508043  0.74744076  0.01874004  1
  O  O12  1  0.48074639  0.26070667  0.25005260  1
  O  O13  1  0.51925361  0.73929333  0.25005260  1
  O  O14  1  0.51925361  0.26070667  0.74994740  1
  O  O15  1  0.48074639  0.73929333  0.74994740  1
  O  O16  1  0.23974107  0.48048003  0.25333291  1
  O  O17  1  0.23974107  0.51951997  0.74666709  1
  O  O18  1  0.76025893  0.51951997  0.25333291  1
  O  O19  1  0.76025893  0.48048003  0.74666709  1
  O  O20  1  0.26508043  0.24744076  0.48125996  1
  O  O21  1  0.73491957  0.24744076  0.51874004  1
  O  O22  1  0.26508043  0.75255924  0.51874004  1
  O  O23  1  0.73491957  0.75255924  0.48125996  1
loop_
_geom_bond_atom_site_label_1
_geom_bond_atom_site_label_2
_geom_bond_distance
_geom_bond_site_symmetry_2
Ba0 O10 2.937342 1_544
Ba0 O9 2.937342 1_454
Ba0 O11 2.937342 1_445
Ba0 O8 2.937342 1_555
Ba0 O3 2.944865 1_544
Ba0 O1 2.944865 1_445
Ba0 O0 2.944865 1_555
Ba0 O2 2.944865 1_454
Ba0 O5 3.049424 1_544
Ba0 O7 3.049424 1_454
Ba0 O6 3.049424 1_445
Ba0 O4 3.049424 1_555
Ba1 O20 2.937342 1_555
Ba1 O23 2.937342 1_555
Ba1 O21 2.937342 1_555
Ba1 O22 2.937342 1_555
Ba1 O14 2.944865 1_555
Ba1 O15 2.944865 1_555
Ba1 O13 2.944865 1_555
Ba1 O12 2.944865 1_555
Ba1 O18 3.049424 1_555
Ba1 O16 3.049424 1_555
Ba1 O19 3.049424 1_555
Ba1 O17 3.049424 1_555
Ba2 O20 2.905625 1_555
Ba2 O21 2.905625 1_555
Ba2 O23 2.905625 1_545
Ba2 O22 2.905625 1_545
Ba2 O6 2.966217 1_545
Ba2 O5 2.966217 1_545
Ba2 O4 2.966217 1_555
Ba2 O7 2.966217 1_555
Ba2 O15 3.073681 1_545
Ba2 O14 3.073681 1_555
Ba2 O12 3.073681 1_555
Ba2 O13 3.073681 1_545
Ba3 O11 2.905625 1_455
Ba3 O8 2.905625 1_555
Ba3 O9 2.905625 1_454
Ba3 O10 2.905625 1_554
Ba3 O19 2.966217 1_454
Ba3 O16 2.966217 1_555
Ba3 O17 2.966217 1_554
Ba3 O18 2.966217 1_455
Ba3 O1 3.073681 1_455
Ba3 O3 3.073681 1_554
Ba3 O0 3.073681 1_555
Ba3 O2 3.073681 1_454
O0 W0 1.962615 1_555
O0 Tb3 2.289483 1_455
O1 W1 1.962615 1_555
O1 Tb2 2.289483 1_655
O2 W2 1.962615 1_555
O2 Tb1 2.289483 1_655
O3 W3 1.962615 1_555
O3 Tb0 2.289483 1_455
O4 W0 1.963407 1_555
O4 Tb2 2.295307 1_545
O5 W3 1.963407 1_555
O5 Tb1 2.295307 1_565
O6 W1 1.963407 1_555
O6 Tb3 2.295307 1_565
O7 W2 1.963407 1_555
O7 Tb0 2.295307 1_545
O8 W0 1.966821 1_555
O8 Tb1 2.284287 1_554
O9 W2 1.966821 1_555
O9 Tb3 2.284287 1_556
O10 W3 1.966821 1_555
O10 Tb2 2.284287 1_556
O11 W1 1.966821 1_555
O11 Tb0 2.284287 1_554
O12 W0 1.962615 1_555
O12 Tb3 2.289483 1_555
O13 W1 1.962615 1_555
O13 Tb2 2.289483 1_555
O14 W2 1.962615 1_555
O14 Tb1 2.289483 1_555
O15 W3 1.962615 1_555
O15 Tb0 2.289483 1_555
O16 W0 1.963407 1_555
O16 Tb2 2.295307 1_555
O17 W3 1.963407 1_555
O17 Tb1 2.295307 1_555
O18 W1 1.963407 1_555
O18 Tb3 2.295307 1_555
O19 W2 1.963407 1_555
O19 Tb0 2.295307 1_555
O20 W0 1.966821 1_555
O20 Tb1 2.284287 1_555
O21 W2 1.966821 1_555
O21 Tb3 2.284287 1_555
O22 W3 1.966821 1_555
O22 Tb2 2.284287 1_555
O23 W1 1.966821 1_555
O23 Tb0 2.284287 1_555
