# generated using pymatgen
data_Re3NiO8
_symmetry_space_group_name_H-M   'P 1'
_cell_length_a   5.59253617
_cell_length_b   5.59253617
_cell_length_c   4.79548540
_cell_angle_alpha   88.67725945
_cell_angle_beta   88.67725945
_cell_angle_gamma   62.00465989
_symmetry_Int_Tables_number   1
_chemical_formula_structural   Re3NiO8
_chemical_formula_sum   'Re3 Ni1 O8'
_cell_volume   132.38730099
_cell_formula_units_Z   1
loop_
 _symmetry_equiv_pos_site_id
 _symmetry_equiv_pos_as_xyz
  1  'x, y, z'
loop_
 _atom_site_type_symbol
 _atom_site_label
 _atom_site_symmetry_multiplicity
 _atom_site_fract_x
 _atom_site_fract_y
 _atom_site_fract_z
 _atom_site_occupancy
  Re  Re0  1  0.22151000  0.77893900  0.99878300  1
  Re  Re1  1  0.77893900  0.22151000  0.99878300  1
  Re  Re2  1  0.73871700  0.73871700  0.49226300  1
  Ni  Ni0  1  0.26436600  0.26436600  0.50959400  1
  O  O0  1  0.41039000  0.41039000  0.82511900  1
  O  O1  1  0.59432800  0.59432800  0.19899700  1
  O  O2  1  0.88987100  0.39853900  0.70522500  1
  O  O3  1  0.39853900  0.88987100  0.70522500  1
  O  O4  1  0.08164600  0.62438100  0.28877200  1
  O  O5  1  0.62438100  0.08164600  0.28877200  1
  O  O6  1  0.11314700  0.11314700  0.21107000  1
  O  O7  1  0.88416600  0.88416600  0.77739600  1
loop_
_geom_bond_atom_site_label_1
_geom_bond_atom_site_label_2
_geom_bond_distance
_geom_bond_site_symmetry_2
Ni0 O4 2.058972 1_555
Ni0 O5 2.058972 1_555
Ni0 O6 2.064708 1_555
Ni0 O3 2.072679 1_545
Ni0 O2 2.072679 1_455
Ni0 O0 2.088891 1_555
O0 Re0 2.013027 1_555
O0 Re1 2.013027 1_555
O1 Re2 1.999739 1_555
O1 Re1 2.088241 1_554
O1 Re0 2.088241 1_554
O2 Re2 1.953783 1_555
O2 Re1 1.954173 1_555
O3 Re2 1.953783 1_555
O3 Re0 1.954173 1_555
O4 Re0 1.954956 1_554
O4 Re2 1.957136 1_455
O5 Re1 1.954956 1_554
O5 Re2 1.957136 1_545
O6 Re1 1.973078 1_454
O6 Re0 1.973078 1_544
O7 Re2 1.979105 1_555
O7 Re0 2.013469 1_655
O7 Re1 2.013469 1_565
