# generated using pymatgen
data_ZrInPd2
_symmetry_space_group_name_H-M   'P 1'
_cell_length_a   3.41438900
_cell_length_b   3.41438900
_cell_length_c   6.47865900
_cell_angle_alpha   90.00000000
_cell_angle_beta   90.00000000
_cell_angle_gamma   90.00000000
_symmetry_Int_Tables_number   1
_chemical_formula_structural   ZrInPd2
_chemical_formula_sum   'Zr1 In1 Pd2'
_cell_volume   75.52854509
_cell_formula_units_Z   1
loop_
 _symmetry_equiv_pos_site_id
 _symmetry_equiv_pos_as_xyz
  1  'x, y, z'
loop_
 _atom_site_type_symbol
 _atom_site_label
 _atom_site_symmetry_multiplicity
 _atom_site_fract_x
 _atom_site_fract_y
 _atom_site_fract_z
 _atom_site_occupancy
  Zr  Zr0  1  0.00000000  0.00000000  0.50000000  1
  In  In0  1  0.00000000  0.00000000  0.00000000  1
  Pd  Pd0  1  0.50000000  0.50000000  0.26571100  1
  Pd  Pd1  1  0.50000000  0.50000000  0.73428900  1
loop_
_geom_bond_atom_site_label_1
_geom_bond_atom_site_label_2
_geom_bond_distance
_geom_bond_site_symmetry_2
In0 Pd1 2.965201 1_444
In0 Pd0 2.965201 1_445
In0 Pd1 2.965201 1_454
In0 Pd0 2.965201 1_545
In0 Pd0 2.965201 1_455
In0 Pd1 2.965201 1_544
In0 Pd1 2.965201 1_554
In0 Pd0 2.965201 1_555
Pd0 Zr0 2.851838 1_665
Pd0 Zr0 2.851838 1_555
Pd0 Zr0 2.851838 1_655
Pd0 Zr0 2.851838 1_565
Pd1 Zr0 2.851838 1_555
Pd1 Zr0 2.851838 1_655
Pd1 Zr0 2.851838 1_565
Pd1 Zr0 2.851838 1_665
