# generated using pymatgen
data_NaSbO7
_symmetry_space_group_name_H-M   'P 1'
_cell_length_a   6.39528000
_cell_length_b   6.62118435
_cell_length_c   6.84733700
_cell_angle_alpha   90.00000000
_cell_angle_beta   90.00000000
_cell_angle_gamma   118.87764645
_symmetry_Int_Tables_number   1
_chemical_formula_structural   NaSbO7
_chemical_formula_sum   'Na2 Sb2 O14'
_cell_volume   253.89198478
_cell_formula_units_Z   2
loop_
 _symmetry_equiv_pos_site_id
 _symmetry_equiv_pos_as_xyz
  1  'x, y, z'
loop_
 _atom_site_type_symbol
 _atom_site_label
 _atom_site_symmetry_multiplicity
 _atom_site_fract_x
 _atom_site_fract_y
 _atom_site_fract_z
 _atom_site_occupancy
  Na  Na0  1  0.31716100  0.63432200  0.63164600  1
  Na  Na1  1  0.68283900  0.36567800  0.13164600  1
  Sb  Sb0  1  0.64254900  0.28509900  0.61024400  1
  Sb  Sb1  1  0.35745100  0.71490100  0.11024400  1
  O  O0  1  0.50275600  0.00551200  0.45223300  1
  O  O1  1  0.94799100  0.43377500  0.46591900  1
  O  O2  1  0.48578400  0.43377500  0.46591900  1
  O  O3  1  0.49724400  0.99448800  0.95223300  1
  O  O4  1  0.05200900  0.56622500  0.96591900  1
  O  O5  1  0.51421600  0.56622500  0.96591900  1
  O  O6  1  0.85003300  0.23602600  0.80652900  1
  O  O7  1  0.89417100  0.78834100  0.74657700  1
  O  O8  1  0.38599300  0.23602600  0.80652900  1
  O  O9  1  0.14996700  0.76397400  0.30652900  1
  O  O10  1  0.10582900  0.21165900  0.24657700  1
  O  O11  1  0.61400700  0.76397400  0.30652900  1
  O  O12  1  0.97804600  0.95609200  0.63940500  1
  O  O13  1  0.02195400  0.04390800  0.13940500  1
loop_
_geom_bond_atom_site_label_1
_geom_bond_atom_site_label_2
_geom_bond_distance
_geom_bond_site_symmetry_2
Na0 O1 2.365793 1_455
Na0 O2 2.365793 1_555
Na0 O0 2.478060 1_565
Na0 O5 2.753044 1_555
Na0 O4 2.753044 1_555
Na1 O5 2.365793 1_554
Na1 O4 2.365793 1_654
Na1 O3 2.478060 1_544
Na1 O2 2.753044 1_555
Na1 O1 2.753044 1_555
O0 Sb0 1.948919 1_555
O1 Sb0 1.975875 1_555
O2 Sb0 1.975870 1_555
O3 Sb1 1.948919 1_556
O4 Sb1 1.975875 1_556
O5 Sb1 1.975870 1_556
O6 Sb0 2.022161 1_555
O8 Sb0 2.022156 1_555
O9 Sb1 2.022161 1_555
O10 O13 1.218388 1_555
O11 Sb1 2.022156 1_555
O12 O7 1.218388 1_555
