# generated using pymatgen
data_Y2(CoNi)5
_symmetry_space_group_name_H-M   'P 1'
_cell_length_a   3.97307600
_cell_length_b   4.92108800
_cell_length_c   8.44490000
_cell_angle_alpha   90.00000000
_cell_angle_beta   90.00000000
_cell_angle_gamma   90.00000000
_symmetry_Int_Tables_number   1
_chemical_formula_structural   Y2(CoNi)5
_chemical_formula_sum   'Y2 Co5 Ni5'
_cell_volume   165.11347403
_cell_formula_units_Z   1
loop_
 _symmetry_equiv_pos_site_id
 _symmetry_equiv_pos_as_xyz
  1  'x, y, z'
loop_
 _atom_site_type_symbol
 _atom_site_label
 _atom_site_symmetry_multiplicity
 _atom_site_fract_x
 _atom_site_fract_y
 _atom_site_fract_z
 _atom_site_occupancy
  Y  Y0  1  0.00000000  0.50000000  0.00000000  1
  Y  Y1  1  0.00000000  0.00000000  0.50000000  1
  Co  Co0  1  0.00000000  0.50000000  0.33966000  1
  Co  Co1  1  0.00000000  0.00000000  0.83341000  1
  Co  Co2  1  0.00000000  0.00000000  0.16659000  1
  Co  Co3  1  0.00000000  0.50000000  0.66034000  1
  Co  Co4  1  0.50000000  0.50000000  0.50000000  1
  Ni  Ni0  1  0.50000000  0.00000000  0.00000000  1
  Ni  Ni1  1  0.50000000  0.74965700  0.25023500  1
  Ni  Ni2  1  0.50000000  0.25034300  0.74976500  1
  Ni  Ni3  1  0.50000000  0.25034300  0.25023500  1
  Ni  Ni4  1  0.50000000  0.74965700  0.74976500  1
loop_
_geom_bond_atom_site_label_1
_geom_bond_atom_site_label_2
_geom_bond_distance
_geom_bond_site_symmetry_2
Co0 Co4 2.404121 1_455
Co0 Co4 2.404121 1_555
Co0 Ni3 2.454803 1_455
Co0 Ni1 2.454803 1_555
Co0 Ni3 2.454803 1_555
Co0 Ni1 2.454803 1_455
Co0 Co3 2.708111 1_555
Co0 Y1 2.808512 1_565
Co0 Y1 2.808512 1_555
Co0 Co2 2.861893 1_565
Co0 Co2 2.861893 1_555
Co0 Y0 2.868395 1_555
Co1 Ni0 2.434239 1_456
Co1 Ni0 2.434239 1_556
Co1 Ni2 2.441930 1_455
Co1 Ni2 2.441930 1_555
Co1 Ni4 2.441930 1_545
Co1 Ni4 2.441930 1_445
Co1 Y1 2.815614 1_555
Co1 Y0 2.834337 1_556
Co1 Y0 2.834337 1_546
Co1 Co3 2.861893 1_555
Co1 Co3 2.861893 1_545
Co2 Ni0 2.434239 1_455
Co2 Ni0 2.434239 1_555
Co2 Ni1 2.441930 1_445
Co2 Ni3 2.441930 1_555
Co2 Ni3 2.441930 1_455
Co2 Ni1 2.441930 1_545
Co2 Y1 2.815614 1_555
Co2 Y0 2.834337 1_545
Co2 Y0 2.834337 1_555
Co3 Co4 2.404121 1_555
Co3 Co4 2.404121 1_455
Co3 Ni2 2.454803 1_555
Co3 Ni4 2.454803 1_455
Co3 Ni4 2.454803 1_555
Co3 Ni2 2.454803 1_455
Co3 Y1 2.808512 1_565
Co3 Y1 2.808512 1_555
Co3 Y0 2.868395 1_556
Co4 Ni4 2.440966 1_555
Co4 Ni2 2.440966 1_555
Co4 Ni1 2.440966 1_555
Co4 Ni3 2.440966 1_555
Co4 Y1 3.162374 1_565
Co4 Y1 3.162374 1_665
Co4 Y1 3.162374 1_555
Co4 Y1 3.162374 1_655
Ni0 Ni3 2.446095 1_555
Ni0 Ni4 2.446095 1_544
Ni0 Ni2 2.446095 1_554
Ni0 Ni1 2.446095 1_545
Ni0 Y0 3.162374 1_545
Ni0 Y0 3.162374 1_655
Ni0 Y0 3.162374 1_645
Ni0 Y0 3.162374 1_555
Ni1 Ni3 2.457168 1_555
Ni1 Ni3 2.463920 1_565
Ni1 Y1 3.148484 1_565
Ni1 Y1 3.148484 1_665
Ni1 Y0 3.149826 1_655
Ni1 Y0 3.149826 1_555
Ni2 Ni4 2.457168 1_555
Ni2 Ni4 2.463920 1_545
Ni2 Y1 3.148484 1_555
Ni2 Y1 3.148484 1_655
Ni2 Y0 3.149826 1_556
Ni2 Y0 3.149826 1_656
Ni3 Y1 3.148484 1_555
Ni3 Y1 3.148484 1_655
Ni3 Y0 3.149826 1_655
Ni3 Y0 3.149826 1_555
Ni4 Y1 3.148484 1_565
Ni4 Y1 3.148484 1_665
Ni4 Y0 3.149826 1_556
Ni4 Y0 3.149826 1_656
