# generated using pymatgen
data_Sr2CaZn2Sn2(PO4)4
_symmetry_space_group_name_H-M   'P 1'
_cell_length_a   6.35221538
_cell_length_b   7.96465146
_cell_length_c   9.61924472
_cell_angle_alpha   103.96758536
_cell_angle_beta   112.02237397
_cell_angle_gamma   104.03176079
_symmetry_Int_Tables_number   1
_chemical_formula_structural   Sr2CaZn2Sn2(PO4)4
_chemical_formula_sum   'Sr2 Ca1 Zn2 Sn2 P4 O16'
_cell_volume   406.72832029
_cell_formula_units_Z   1
loop_
 _symmetry_equiv_pos_site_id
 _symmetry_equiv_pos_as_xyz
  1  'x, y, z'
loop_
 _atom_site_type_symbol
 _atom_site_label
 _atom_site_symmetry_multiplicity
 _atom_site_fract_x
 _atom_site_fract_y
 _atom_site_fract_z
 _atom_site_occupancy
  Sr  Sr0  1  0.25522300  0.63090400  0.95040500  1
  Sr  Sr1  1  0.74477700  0.36909600  0.04959500  1
  Ca  Ca0  1  0.00000000  0.00000000  0.00000000  1
  Zn  Zn0  1  0.15781700  0.24840300  0.57932300  1
  Zn  Zn1  1  0.84218300  0.75159700  0.42067700  1
  Sn  Sn0  1  0.52461300  0.82007700  0.51536100  1
  Sn  Sn1  1  0.47538700  0.17992300  0.48463900  1
  P  P0  1  0.32143700  0.41522800  0.20608900  1
  P  P1  1  0.67856300  0.58477200  0.79391100  1
  P  P2  1  0.73775200  0.03292000  0.26245300  1
  P  P3  1  0.26224800  0.96708000  0.73754700  1
  O  O0  1  0.88182300  0.66780400  0.97333300  1
  O  O1  1  0.56299500  0.52631500  0.20664100  1
  O  O2  1  0.65320800  0.75393700  0.74619900  1
  O  O3  1  0.09145200  0.07833100  0.69284400  1
  O  O4  1  0.43700500  0.47368500  0.79335900  1
  O  O5  1  0.18930100  0.79713400  0.57646800  1
  O  O6  1  0.81069900  0.20286600  0.42353200  1
  O  O7  1  0.21253200  0.89032400  0.85936200  1
  O  O8  1  0.34679200  0.24606300  0.25380100  1
  O  O9  1  0.78746800  0.10967600  0.14063800  1
  O  O10  1  0.11817700  0.33219500  0.02666700  1
  O  O11  1  0.23751900  0.54466700  0.30501400  1
  O  O12  1  0.76248100  0.45533300  0.69498600  1
  O  O13  1  0.46827200  0.91126200  0.19877500  1
  O  O14  1  0.90854800  0.92166900  0.30715600  1
  O  O15  1  0.53172800  0.08873800  0.80122500  1
loop_
_geom_bond_atom_site_label_1
_geom_bond_atom_site_label_2
_geom_bond_distance
_geom_bond_site_symmetry_2
Ca0 O9 2.405599 1_455
Ca0 O7 2.405599 1_544
Ca0 O10 2.488874 1_555
Ca0 O0 2.488882 1_444
Ca0 O8 2.493470 1_555
Ca0 O2 2.493470 1_444
Sn0 Zn1 2.620687 1_555
Sn1 Zn0 2.620687 1_555
O0 P1 1.564273 1_555
O0 Sr0 2.541666 1_655
O0 Sr1 2.696897 1_556
O1 P0 1.571815 1_555
O1 Zn1 2.130467 1_555
O1 Sr1 2.505919 1_555
O1 Sr0 2.959465 1_554
O2 P1 1.549262 1_555
O2 Sn0 2.299653 1_555
O3 P3 1.564402 1_545
O3 Zn0 1.996842 1_555
O4 P1 1.571815 1_555
O4 Zn0 2.130467 1_555
O4 Sr0 2.505919 1_555
O4 Sr1 2.959465 1_556
O5 P3 1.610162 1_555
O5 Zn1 2.027554 1_455
O5 Sn0 2.391178 1_555
O6 P2 1.610162 1_555
O6 Zn0 2.027554 1_655
O6 Sn1 2.391178 1_555
O7 P3 1.541497 1_555
O7 Sr0 2.465112 1_555
O8 P0 1.549262 1_555
O8 Sn1 2.299653 1_555
O9 P2 1.541497 1_555
O9 Sr1 2.465112 1_555
O10 P0 1.564272 1_555
O10 Sr1 2.541668 1_455
O10 Sr0 2.696904 1_554
O11 P0 1.557503 1_555
O11 Sn0 2.319872 1_555
O11 Sr1 2.870662 1_455
O12 P1 1.557503 1_555
O12 Sn1 2.319872 1_555
O12 Sr0 2.870662 1_655
O13 P2 1.538556 1_565
O13 Sr0 2.461711 1_554
O14 P2 1.564402 1_565
O14 Zn1 1.996842 1_555
O15 P3 1.538556 1_545
O15 Sr1 2.461711 1_556
