# generated using pymatgen
data_KCaSmFeO6
_symmetry_space_group_name_H-M   'P 1'
_cell_length_a   5.82427864
_cell_length_b   5.82427864
_cell_length_c   5.82427864
_cell_angle_alpha   60.00000000
_cell_angle_beta   60.00000000
_cell_angle_gamma   60.00000000
_symmetry_Int_Tables_number   1
_chemical_formula_structural   KCaSmFeO6
_chemical_formula_sum   'K1 Ca1 Sm1 Fe1 O6'
_cell_volume   139.70483392
_cell_formula_units_Z   1
loop_
 _symmetry_equiv_pos_site_id
 _symmetry_equiv_pos_as_xyz
  1  'x, y, z'
loop_
 _atom_site_type_symbol
 _atom_site_label
 _atom_site_symmetry_multiplicity
 _atom_site_fract_x
 _atom_site_fract_y
 _atom_site_fract_z
 _atom_site_occupancy
  K  K0  1  0.25000000  0.25000000  0.25000000  1
  Ca  Ca0  1  0.75000000  0.75000000  0.75000000  1
  Sm  Sm0  1  0.50000000  0.50000000  0.50000000  1
  Fe  Fe0  1  0.00000000  0.00000000  0.00000000  1
  O  O0  1  0.77390682  0.22609318  0.22609318  1
  O  O1  1  0.22609318  0.77390682  0.77390682  1
  O  O2  1  0.77390682  0.22609318  0.77390682  1
  O  O3  1  0.22609318  0.77390682  0.22609318  1
  O  O4  1  0.77390682  0.77390682  0.22609318  1
  O  O5  1  0.22609318  0.22609318  0.77390682  1
loop_
_geom_bond_atom_site_label_1
_geom_bond_atom_site_label_2
_geom_bond_distance
_geom_bond_site_symmetry_2
K0 O4 2.918789 1_455
K0 O1 2.918789 1_554
K0 O5 2.918789 1_555
K0 O5 2.918789 1_554
K0 O2 2.918789 1_455
K0 O2 2.918789 1_554
K0 O3 2.918789 1_545
K0 O4 2.918789 1_545
K0 O3 2.918789 1_555
K0 O1 2.918789 1_545
K0 O0 2.918789 1_455
K0 O0 2.918789 1_555
Ca0 O2 2.918789 1_565
Ca0 O4 2.918789 1_556
Ca0 O0 2.918789 1_556
Ca0 O4 2.918789 1_555
Ca0 O0 2.918789 1_565
Ca0 O3 2.918789 1_655
Ca0 O1 2.918789 1_655
Ca0 O5 2.918789 1_655
Ca0 O5 2.918789 1_565
Ca0 O2 2.918789 1_555
Ca0 O3 2.918789 1_556
Ca0 O1 2.918789 1_555
Fe0 O3 1.862278 1_545
Fe0 O2 1.862278 1_454
Fe0 O4 1.862278 1_445
Fe0 O1 1.862278 1_544
Fe0 O5 1.862278 1_554
Fe0 O0 1.862278 1_455
O0 Sm0 2.256109 1_555
O1 Sm0 2.256109 1_555
O2 Sm0 2.256109 1_555
O3 Sm0 2.256109 1_555
O4 Sm0 2.256109 1_555
O5 Sm0 2.256109 1_555
