# generated using pymatgen
data_GdAlNi4
_symmetry_space_group_name_H-M   'P 1'
_cell_length_a   5.00012451
_cell_length_b   5.00012451
_cell_length_c   3.78101500
_cell_angle_alpha   90.00000000
_cell_angle_beta   90.00000000
_cell_angle_gamma   120.00000681
_symmetry_Int_Tables_number   1
_chemical_formula_structural   GdAlNi4
_chemical_formula_sum   'Gd1 Al1 Ni4'
_cell_volume   81.86544766
_cell_formula_units_Z   1
loop_
 _symmetry_equiv_pos_site_id
 _symmetry_equiv_pos_as_xyz
  1  'x, y, z'
loop_
 _atom_site_type_symbol
 _atom_site_label
 _atom_site_symmetry_multiplicity
 _atom_site_fract_x
 _atom_site_fract_y
 _atom_site_fract_z
 _atom_site_occupancy
  Gd  Gd0  1  0.00000000  0.00000000  0.00000000  1
  Al  Al0  1  0.66666700  0.33333300  0.00000000  1
  Ni  Ni0  1  0.33333300  0.66666700  0.00000000  1
  Ni  Ni1  1  0.49799500  0.50200500  0.50000000  1
  Ni  Ni2  1  0.49799500  0.99599100  0.50000000  1
  Ni  Ni3  1  0.00400900  0.50200500  0.50000000  1
loop_
_geom_bond_atom_site_label_1
_geom_bond_atom_site_label_2
_geom_bond_distance
_geom_bond_site_symmetry_2
Gd0 Ni0 2.886820 1_545
Gd0 Ni0 2.886824 1_555
Gd0 Ni0 2.886824 1_445
Gd0 Ni2 3.134425 1_544
Gd0 Ni2 3.134425 1_545
Gd0 Ni3 3.134425 1_544
Gd0 Ni3 3.134425 1_545
Gd0 Ni1 3.134427 1_555
Gd0 Ni1 3.134427 1_554
Gd0 Ni1 3.134427 1_444
Gd0 Ni1 3.134427 1_445
Gd0 Ni3 3.134429 1_554
Gd0 Ni3 3.134429 1_555
Gd0 Ni2 3.134429 1_444
Gd0 Ni2 3.134429 1_445
Al0 Ni3 2.389114 1_654
Al0 Ni3 2.389114 1_655
Al0 Ni2 2.389114 1_544
Al0 Ni2 2.389114 1_545
Al0 Ni1 2.389120 1_555
Al0 Ni1 2.389120 1_554
Al0 Ni0 2.886820 1_655
Al0 Ni0 2.886820 1_545
Al0 Gd0 2.886820 1_655
Al0 Gd0 2.886824 1_665
Al0 Gd0 2.886824 1_555
Al0 Ni0 2.886829 1_555
Ni0 Ni2 2.368045 1_554
Ni0 Ni2 2.368045 1_555
Ni0 Ni3 2.368045 1_554
Ni0 Ni3 2.368045 1_555
Ni0 Ni1 2.368045 1_554
Ni0 Ni1 2.368045 1_555
Ni1 Ni3 2.469992 1_555
Ni1 Ni2 2.469992 1_555
Ni1 Ni2 2.530133 1_545
Ni1 Ni3 2.530133 1_655
Ni2 Ni3 2.469991 1_555
Ni2 Ni3 2.530133 1_665
