# generated using pymatgen
data_NaCr2FeO10
_symmetry_space_group_name_H-M   'P 1'
_cell_length_a   7.64650728
_cell_length_b   7.64650728
_cell_length_c   10.72818916
_cell_angle_alpha   72.14267351
_cell_angle_beta   72.14267351
_cell_angle_gamma   42.55578317
_symmetry_Int_Tables_number   1
_chemical_formula_structural   NaCr2FeO10
_chemical_formula_sum   'Na2 Cr4 Fe2 O20'
_cell_volume   400.59707168
_cell_formula_units_Z   2
loop_
 _symmetry_equiv_pos_site_id
 _symmetry_equiv_pos_as_xyz
  1  'x, y, z'
loop_
 _atom_site_type_symbol
 _atom_site_label
 _atom_site_symmetry_multiplicity
 _atom_site_fract_x
 _atom_site_fract_y
 _atom_site_fract_z
 _atom_site_occupancy
  Na  Na0  1  0.79271600  0.20728400  0.25000000  1
  Na  Na1  1  0.20728400  0.79271600  0.75000000  1
  Cr  Cr0  1  0.36471000  0.83222100  0.03840500  1
  Cr  Cr1  1  0.16777900  0.63529000  0.46159500  1
  Cr  Cr2  1  0.63529000  0.16777900  0.96159500  1
  Cr  Cr3  1  0.83222100  0.36471000  0.53840500  1
  Fe  Fe0  1  0.00000000  0.50000000  0.00000000  1
  Fe  Fe1  1  0.50000000  0.00000000  0.50000000  1
  O  O0  1  0.12976400  0.19859400  0.57406600  1
  O  O1  1  0.80140600  0.87023600  0.92593400  1
  O  O2  1  0.87023600  0.80140600  0.42593400  1
  O  O3  1  0.19859400  0.12976400  0.07406600  1
  O  O4  1  0.67855800  0.58966500  0.08353100  1
  O  O5  1  0.41033500  0.32144200  0.41646900  1
  O  O6  1  0.32144200  0.41033500  0.91646900  1
  O  O7  1  0.58966500  0.67855800  0.58353100  1
  O  O8  1  0.84427500  0.37331900  0.38321400  1
  O  O9  1  0.62668100  0.15572500  0.11678600  1
  O  O10  1  0.15572500  0.62668100  0.61678600  1
  O  O11  1  0.37331900  0.84427500  0.88321400  1
  O  O12  1  0.20855100  0.75660600  0.12486900  1
  O  O13  1  0.24339400  0.79144900  0.37513100  1
  O  O14  1  0.79144900  0.24339400  0.87513100  1
  O  O15  1  0.75660600  0.20855100  0.62486900  1
  O  O16  1  0.01538100  0.54839600  0.15284200  1
  O  O17  1  0.45160400  0.98461900  0.34715800  1
  O  O18  1  0.98461900  0.45160400  0.84715800  1
  O  O19  1  0.54839600  0.01538100  0.65284200  1
loop_
_geom_bond_atom_site_label_1
_geom_bond_atom_site_label_2
_geom_bond_distance
_geom_bond_site_symmetry_2
Na0 O9 2.450606 1_555
Na0 O8 2.450606 1_555
Na0 O5 2.548330 1_555
Na0 O4 2.548330 1_555
Na0 O13 2.804366 1_645
Na0 O12 2.804366 1_645
Na0 O3 2.815884 1_655
Na0 O2 2.815884 1_545
Na1 O10 2.450606 1_555
Na1 O11 2.450606 1_555
Na1 O6 2.548330 1_555
Na1 O7 2.548330 1_555
Na1 O14 2.804366 1_465
Na1 O15 2.804366 1_465
Na1 O0 2.815884 1_565
Na1 O1 2.815884 1_455
Cr0 O12 1.621558 1_555
Cr0 O11 1.622464 1_554
Cr0 O3 1.707163 1_565
Cr0 O4 1.742990 1_555
Cr1 O13 1.621558 1_555
Cr1 O10 1.622464 1_555
Cr1 O2 1.707163 1_455
Cr1 O5 1.742990 1_555
Cr2 O14 1.621558 1_555
Cr2 O9 1.622464 1_556
Cr2 O1 1.707163 1_545
Cr2 O6 1.742990 1_555
Cr3 O15 1.621558 1_555
Cr3 O8 1.622464 1_555
Cr3 O0 1.707163 1_655
Cr3 O7 1.742990 1_555
Fe0 O16 1.842278 1_555
Fe0 O18 1.842278 1_454
Fe0 O4 1.964106 1_455
Fe0 O6 1.964106 1_554
Fe0 O1 1.994721 1_454
Fe0 O3 1.994721 1_555
Fe1 O17 1.842278 1_545
Fe1 O19 1.842278 1_555
Fe1 O5 1.964106 1_555
Fe1 O7 1.964106 1_545
Fe1 O0 1.994721 1_555
Fe1 O2 1.994721 1_545
