# generated using pymatgen
data_KCa2(P2O9)2
_symmetry_space_group_name_H-M   'P 1'
_cell_length_a   5.64295800
_cell_length_b   6.14887250
_cell_length_c   12.87151687
_cell_angle_alpha   101.96587861
_cell_angle_beta   85.08914506
_cell_angle_gamma   114.48507208
_symmetry_Int_Tables_number   1
_chemical_formula_structural   KCa2(P2O9)2
_chemical_formula_sum   'K1 Ca2 P4 O18'
_cell_volume   397.61773999
_cell_formula_units_Z   1
loop_
 _symmetry_equiv_pos_site_id
 _symmetry_equiv_pos_as_xyz
  1  'x, y, z'
loop_
 _atom_site_type_symbol
 _atom_site_label
 _atom_site_symmetry_multiplicity
 _atom_site_fract_x
 _atom_site_fract_y
 _atom_site_fract_z
 _atom_site_occupancy
  K  K0  1  0.50097500  0.96436600  0.53061100  1
  Ca  Ca0  1  0.00250900  0.29364200  0.09688300  1
  Ca  Ca1  1  0.99370900  0.70512400  0.90339400  1
  P  P0  1  0.50339800  0.20902400  0.89988400  1
  P  P1  1  0.49543700  0.79100400  0.09974900  1
  P  P2  1  0.14828900  0.38224500  0.64571600  1
  P  P3  1  0.85632600  0.62140400  0.35574500  1
  O  O0  1  0.24701300  0.14659200  0.96279900  1
  O  O1  1  0.75173900  0.85123800  0.03678900  1
  O  O2  1  0.12583000  0.11871700  0.60735900  1
  O  O3  1  0.86366700  0.88017100  0.39284400  1
  O  O4  1  0.10578600  0.44120200  0.76610100  1
  O  O5  1  0.89559000  0.56009800  0.23564900  1
  O  O6  1  0.15914100  0.15252500  0.25151400  1
  O  O7  1  0.84356200  0.85014500  0.74725900  1
  O  O8  1  0.74468900  0.31302400  0.97109000  1
  O  O9  1  0.25382800  0.68470200  0.02848000  1
  O  O10  1  0.54378500  0.39779500  0.82873900  1
  O  O11  1  0.45566400  0.60407200  0.17173500  1
  O  O12  1  0.41883100  0.54761300  0.60988700  1
  O  O13  1  0.58554400  0.45347900  0.39196700  1
  O  O14  1  0.47344100  0.97122500  0.81850800  1
  O  O15  1  0.52591300  0.03259300  0.17807000  1
  O  O16  1  0.92541500  0.41660900  0.59859700  1
  O  O17  1  0.07685700  0.59767100  0.40815300  1
loop_
_geom_bond_atom_site_label_1
_geom_bond_atom_site_label_2
_geom_bond_distance
_geom_bond_site_symmetry_2
K0 O2 2.697519 1_565
K0 O3 2.734511 1_555
K0 O12 2.800264 1_555
K0 O17 2.827603 1_555
K0 O16 2.839730 1_565
Ca0 O8 2.319381 1_454
Ca0 O5 2.379091 1_455
Ca0 O0 2.383095 1_554
Ca0 O1 2.474830 1_445
Ca0 O9 2.530974 1_555
Ca0 O11 2.593061 1_555
Ca0 O6 2.673692 1_555
Ca0 O15 2.745450 1_455
Ca1 O9 2.324611 1_656
Ca1 O1 2.365475 1_556
Ca1 O4 2.372060 1_655
Ca1 O0 2.471166 1_665
Ca1 O8 2.529791 1_555
Ca1 O10 2.574532 1_555
Ca1 O7 2.685665 1_555
Ca1 O14 2.786169 1_655
O0 P0 1.537611 1_555
O1 P1 1.538005 1_555
O2 P2 1.547341 1_555
O3 P3 1.547617 1_555
O4 P2 1.538026 1_555
O5 P3 1.532876 1_555
O8 P0 1.533553 1_555
O9 P1 1.534402 1_555
O10 P0 1.556780 1_555
O11 P1 1.556357 1_555
O12 P2 1.537676 1_555
O13 P3 1.545375 1_555
O14 P0 1.566545 1_565
O15 P1 1.565095 1_545
O16 P2 1.548620 1_655
O17 P3 1.536252 1_455
