# generated using pymatgen
data_CePu3
_symmetry_space_group_name_H-M   'P 1'
_cell_length_a   6.77168361
_cell_length_b   6.73310120
_cell_length_c   5.21237200
_cell_angle_alpha   90.00000000
_cell_angle_beta   90.00000000
_cell_angle_gamma   120.04167452
_symmetry_Int_Tables_number   1
_chemical_formula_structural   CePu3
_chemical_formula_sum   'Ce2 Pu6'
_cell_volume   205.72890023
_cell_formula_units_Z   2
loop_
 _symmetry_equiv_pos_site_id
 _symmetry_equiv_pos_as_xyz
  1  'x, y, z'
loop_
 _atom_site_type_symbol
 _atom_site_label
 _atom_site_symmetry_multiplicity
 _atom_site_fract_x
 _atom_site_fract_y
 _atom_site_fract_z
 _atom_site_occupancy
  Ce  Ce0  1  0.33357500  0.66696000  0.75000100  1
  Ce  Ce1  1  0.66664700  0.33318600  0.25000000  1
  Pu  Pu0  1  0.16406800  0.32804700  0.25000000  1
  Pu  Pu1  1  0.67167700  0.83578400  0.25000000  1
  Pu  Pu2  1  0.16412500  0.83577400  0.25000000  1
  Pu  Pu3  1  0.83595800  0.67206000  0.75000100  1
  Pu  Pu4  1  0.32818400  0.16413400  0.75000100  1
  Pu  Pu5  1  0.83576500  0.16405400  0.75000100  1
loop_
_geom_bond_atom_site_label_1
_geom_bond_atom_site_label_2
_geom_bond_distance
_geom_bond_site_symmetry_2
Ce0 Pu0 3.270222 1_556
Ce0 Pu0 3.270230 1_555
Ce0 Pu2 3.272109 1_556
Ce0 Pu2 3.272117 1_555
Ce0 Pu1 3.274201 1_556
Ce0 Pu1 3.274209 1_555
Ce0 Pu4 3.365947 1_565
Ce0 Pu4 3.367451 1_555
Ce0 Pu5 3.372023 1_565
Ce0 Pu5 3.376461 1_455
Ce0 Pu3 3.384918 1_555
Ce0 Pu3 3.387026 1_455
Ce1 Pu3 3.270082 1_554
Ce1 Pu3 3.270091 1_555
Ce1 Pu5 3.272050 1_554
Ce1 Pu5 3.272058 1_555
Ce1 Pu4 3.275481 1_554
Ce1 Pu4 3.275490 1_555
Ce1 Pu1 3.366239 1_545
Ce1 Pu1 3.367120 1_555
Ce1 Pu2 3.374218 1_545
Ce1 Pu2 3.374268 1_655
Ce1 Pu0 3.385833 1_655
Ce1 Pu0 3.386116 1_555
Pu0 Pu4 3.236256 1_554
Pu0 Pu4 3.236265 1_555
Pu0 Pu5 3.239751 1_454
Pu0 Pu5 3.239759 1_455
Pu0 Pu2 3.314717 1_545
Pu0 Pu1 3.322337 1_445
Pu0 Pu2 3.418384 1_555
Pu0 Pu1 3.425885 1_555
Pu1 Pu5 3.233127 1_564
Pu1 Pu5 3.233135 1_565
Pu1 Pu3 3.236178 1_554
Pu1 Pu3 3.236187 1_555
Pu1 Pu2 3.334736 1_655
Pu1 Pu2 3.436948 1_555
Pu2 Pu4 3.233436 1_564
Pu2 Pu4 3.233445 1_565
Pu2 Pu3 3.239281 1_454
Pu2 Pu3 3.239290 1_455
Pu3 Pu5 3.313300 1_565
Pu3 Pu4 3.321143 1_665
Pu3 Pu5 3.419802 1_555
Pu3 Pu4 3.427078 1_555
Pu4 Pu5 3.334236 1_455
Pu4 Pu5 3.437448 1_555
