# generated using pymatgen
data_Li2VO2F
_symmetry_space_group_name_H-M   'P 1'
_cell_length_a   5.16807463
_cell_length_b   7.19722217
_cell_length_c   6.44825485
_cell_angle_alpha   110.25759916
_cell_angle_beta   75.73038677
_cell_angle_gamma   88.14672656
_symmetry_Int_Tables_number   1
_chemical_formula_structural   Li2VO2F
_chemical_formula_sum   'Li8 V4 O8 F4'
_cell_volume   216.23533796
_cell_formula_units_Z   4
loop_
 _symmetry_equiv_pos_site_id
 _symmetry_equiv_pos_as_xyz
  1  'x, y, z'
loop_
 _atom_site_type_symbol
 _atom_site_label
 _atom_site_symmetry_multiplicity
 _atom_site_fract_x
 _atom_site_fract_y
 _atom_site_fract_z
 _atom_site_occupancy
  Li  Li0  1  0.58479700  0.91618600  0.74859700  1
  Li  Li1  1  0.08393500  0.41803100  0.25109600  1
  Li  Li2  1  0.83226500  0.16965300  0.50401400  1
  Li  Li3  1  0.33796300  0.66414600  0.99909800  1
  Li  Li4  1  0.74243400  0.74573800  0.25305400  1
  Li  Li5  1  0.24618700  0.24692300  0.75174100  1
  Li  Li6  1  0.42170000  0.08667500  0.24867600  1
  Li  Li7  1  0.91798900  0.58501700  0.74687600  1
  V  V0  1  0.64122100  0.32303100  0.99199800  1
  V  V1  1  0.51944200  0.50515000  0.50739800  1
  V  V2  1  0.13789300  0.82798600  0.48905200  1
  V  V3  1  0.02304600  0.00432100  0.00860700  1
  O  O0  1  0.83917200  0.66986000  0.50024300  1
  O  O1  1  0.34045700  0.16934000  0.00021600  1
  O  O2  1  0.08611800  0.91463000  0.25580200  1
  O  O3  1  0.58474600  0.41880500  0.75091600  1
  O  O4  1  0.91910100  0.07629200  0.75084700  1
  O  O5  1  0.41200000  0.58452400  0.26048100  1
  O  O6  1  0.25493200  0.75114800  0.73355100  1
  O  O7  1  0.74776400  0.25970600  0.24682900  1
  F  F0  1  0.48153700  0.99471500  0.49273600  1
  F  F1  1  0.97930600  0.49309400  0.99336700  1
  F  F2  1  0.18280300  0.33649000  0.50651000  1
  F  F3  1  0.68318600  0.83853900  0.00829700  1
loop_
_geom_bond_atom_site_label_1
_geom_bond_atom_site_label_2
_geom_bond_distance
_geom_bond_site_symmetry_2
Li0 O0 2.069122 1_555
Li0 O1 2.083469 1_566
Li0 O4 2.107741 1_565
Li0 O6 2.111695 1_555
Li1 O0 2.073566 1_455
Li1 O1 2.088646 1_555
Li1 O5 2.108536 1_555
Li1 O7 2.108917 1_455
Li2 O3 2.063327 1_555
Li2 O4 2.063843 1_555
Li2 O2 2.103943 1_645
Li2 O7 2.108103 1_555
Li3 O3 2.048654 1_555
Li3 O5 2.070790 1_556
Li3 O2 2.098516 1_556
Li3 O6 2.143729 1_555
Li4 O0 2.016628 1_555
Li4 O5 2.095510 1_555
Li4 O2 2.184711 1_655
Li5 O1 2.025596 1_556
Li5 O4 2.121280 1_455
Li5 O3 2.175268 1_555
Li6 O1 2.018076 1_555
Li6 O7 2.127621 1_555
Li6 O2 2.163844 1_545
Li7 O0 2.010910 1_555
Li7 O3 2.128498 1_555
Li7 O6 2.145083 1_655
O0 V2 1.949193 1_655
O0 V1 2.065141 1_555
O1 V0 1.937430 1_554
O1 V3 2.056986 1_555
O2 V2 1.886730 1_555
O2 V3 2.004688 1_565
O3 V1 1.972123 1_555
O3 V0 1.982343 1_555
O4 V2 2.039918 1_645
O4 V3 2.082747 1_656
O4 V0 2.110913 1_555
O5 V1 2.053022 1_555
O5 V2 2.066698 1_555
O5 V0 2.128630 1_554
O6 V1 2.050072 1_555
O6 V2 2.051725 1_555
O6 V3 2.115445 1_566
O7 V0 2.039480 1_554
O7 V1 2.041687 1_555
O7 V3 2.135522 1_655
F0 Li6 1.989567 1_565
F0 Li4 2.077577 1_555
F0 Li5 2.078489 1_565
F0 Li0 2.094401 1_555
F0 V2 2.175667 1_555
F0 Li2 2.241697 1_565
F1 Li7 2.006827 1_555
F1 Li5 2.083262 1_655
F1 Li4 2.084695 1_556
F1 Li1 2.095714 1_656
F1 V0 2.165533 1_555
F1 Li3 2.258880 1_655
F2 Li5 1.992736 1_555
F2 Li6 2.072606 1_555
F2 Li7 2.085887 1_455
F2 Li1 2.093513 1_555
F2 V1 2.153383 1_555
F2 Li2 2.205833 1_455
F3 Li4 1.996428 1_555
F3 Li6 2.076676 1_565
F3 Li7 2.088523 1_554
F3 Li0 2.103480 1_554
F3 V3 2.155065 1_665
F3 Li3 2.215291 1_554
