# generated using pymatgen
data_Na3Mg5Si8(HO8)3
_symmetry_space_group_name_H-M   'P 1'
_cell_length_a   5.34768947
_cell_length_b   10.05930000
_cell_length_c   27.84128480
_cell_angle_alpha   79.89406305
_cell_angle_beta   87.97989767
_cell_angle_gamma   77.26634665
_symmetry_Int_Tables_number   1
_chemical_formula_structural   Na3Mg5Si8(HO8)3
_chemical_formula_sum   'Na9 Mg15 Si24 H9 O72'
_cell_volume   1438.18462316
_cell_formula_units_Z   3
loop_
 _symmetry_equiv_pos_site_id
 _symmetry_equiv_pos_as_xyz
  1  'x, y, z'
loop_
 _atom_site_type_symbol
 _atom_site_label
 _atom_site_symmetry_multiplicity
 _atom_site_fract_x
 _atom_site_fract_y
 _atom_site_fract_z
 _atom_site_occupancy
  Na  Na0  1  0.45669218  0.27688732  0.51778599  1
  Na  Na1  1  0.54563655  0.73060767  0.48313118  1
  Na  Na2  1  0.52405425  0.88125680  0.18231509  1
  Na  Na3  1  0.47589922  0.11882570  0.81770588  1
  Na  Na4  1  0.03651179  0.81288144  0.33242732  1
  Na  Na5  1  0.96255472  0.18847601  0.66824523  1
  Na  Na6  1  0.45363310  0.45497246  0.14759576  1
  Na  Na7  1  0.54645995  0.54495550  0.85242857  1
  Na  Na8  1  0.00000285  0.49997319  0.00003697  1
  Mg  Mg0  1  0.47815136  0.35469803  0.27406255  1
  Mg  Mg1  1  0.52202756  0.64531379  0.72584116  1
  Mg  Mg2  1  0.50817483  0.96013260  0.05962630  1
  Mg  Mg3  1  0.49184277  0.03985782  0.94035749  1
  Mg  Mg4  1  0.97844740  0.32828854  0.33329703  1
  Mg  Mg5  1  0.02252903  0.67138935  0.66614429  1
  Mg  Mg6  1  0.96454443  0.39336404  0.21431899  1
  Mg  Mg7  1  0.03547154  0.60670974  0.78558010  1
  Mg  Mg8  1  0.47779059  0.29882123  0.39295757  1
  Mg  Mg9  1  0.52416985  0.69787916  0.60688724  1
  Mg  Mg10  1  0.00000230  0.99998941  0.00001038  1
  Mg  Mg11  1  0.96360248  0.28332724  0.45197082  1
  Mg  Mg12  1  0.01828025  0.72664533  0.54403722  1
  Mg  Mg13  1  0.00489269  0.92693271  0.12232103  1
  Mg  Mg14  1  0.99507662  0.07307613  0.87765288  1
  Si  Si0  1  0.29174047  0.69275113  0.05282900  1
  Si  Si1  1  0.70828881  0.30723175  0.94715891  1
  Si  Si2  1  0.69017464  0.57932616  0.38798859  1
  Si  Si3  1  0.30919731  0.42146515  0.61194511  1
  Si  Si4  1  0.23280374  0.99953092  0.55631950  1
  Si  Si5  1  0.77735151  0.98918123  0.44819581  1
  Si  Si6  1  0.21985932  0.21158315  0.11298461  1
  Si  Si7  1  0.78015417  0.78840962  0.88700091  1
  Si  Si8  1  0.26547462  0.07755621  0.27836334  1
  Si  Si9  1  0.73508909  0.92270206  0.72122007  1
  Si  Si10  1  0.72300268  0.24003762  0.05982082  1
  Si  Si11  1  0.27701152  0.75996086  0.94016473  1
  Si  Si12  1  0.80335259  0.64871764  0.10996553  1
  Si  Si13  1  0.19666742  0.35126241  0.89003602  1
  Si  Si14  1  0.18794494  0.66585462  0.21940489  1
  Si  Si15  1  0.81205118  0.33413687  0.78059076  1
  Si  Si16  1  0.26262381  0.02579566  0.39074630  1
  Si  Si17  1  0.73850552  0.97350520  0.60879452  1
  Si  Si18  1  0.18547916  0.56245131  0.44474207  1
  Si  Si19  1  0.81647603  0.43632252  0.55539543  1
  Si  Si20  1  0.77862001  0.09280375  0.22094895  1
  Si  Si21  1  0.22155095  0.90747323  0.77883538  1
  Si  Si22  1  0.69356418  0.63088391  0.27589374  1
  Si  Si23  1  0.30642358  0.36915334  0.72400485  1
  H  H0  1  0.25669346  0.19743938  0.00469974  1
  H  H1  1  0.74331786  0.80254364  0.99531336  1
  H  H2  1  0.24705691  0.52609558  0.33487080  1
  H  H3  1  0.75285537  0.47365949  0.66519414  1
  H  H4  1  0.73492009  0.12367938  0.33474783  1
  H  H5  1  0.26526224  0.87638209  0.66608776  1
  H  H6  1  0.36550369  0.07033919  0.48303233  1
  H  H7  1  0.37438953  0.21999991  0.18606168  1
  H  H8  1  0.62566762  0.77995238  0.81392249  1
  O  O0  1  0.39616050  0.70115757  0.25816578  1
  O  O1  1  0.60389276  0.29881602  0.74180820  1
  O  O2  1  0.03329494  0.94864530  0.41307585  1
  O  O3  1  0.96389244  0.05399123  0.58478216  1
  O  O4  1  0.53964824  0.02804966  0.25161709  1
  O  O5  1  0.46038090  0.97228603  0.74789403  1
  O  O6  1  0.19070126  0.24364328  0.27580609  1
  O  O7  1  0.80934397  0.75655556  0.72403404  1
  O  O8  1  0.46068599  0.05044240  0.58273452  1
  O  O9  1  0.53530375  0.95182487  0.41869870  1
  O  O10  1  0.39049623  0.63278727  0.40443376  1
  O  O11  1  0.60872528  0.36619406  0.59519118  1
  O  O12  1  0.70257427  0.15591301  0.44824899  1
  O  O13  1  0.29631058  0.83807970  0.55382557  1
  O  O14  1  0.20982652  0.10337009  0.50128137  1
  O  O15  1  0.80077503  0.88896660  0.49976302  1
  O  O16  1  0.68776578  0.22287253  0.33386992  1
  O  O17  1  0.31241723  0.77773006  0.66587320  1
  O  O18  1  0.28517254  0.04823651  0.11400532  1
  O  O19  1  0.71484654  0.95173371  0.88601846  1
  O  O20  1  0.73632024  0.81389053  0.11053897  1
  O  O21  1  0.26370267  0.18607304  0.88950228  1
  O  O22  1  0.79964241  0.04059989  0.16972899  1
  O  O23  1  0.20049501  0.95955342  0.83008048  1
  O  O24  1  0.71579774  0.66301534  0.33184282  1
  O  O25  1  0.28446893  0.33667490  0.66810922  1
  O  O26  1  0.27304025  0.42865387  0.33318945  1
  O  O27  1  0.72688366  0.57101616  0.66694136  1
  O  O28  1  0.89903998  0.71310792  0.24542672  1
  O  O29  1  0.10096955  0.28689554  0.75453965  1
  O  O30  1  0.29340700  0.10070480  0.00237778  1
  O  O31  1  0.70659454  0.89926343  0.99765754  1
  O  O32  1  0.18901791  0.19018157  0.39205538  1
  O  O33  1  0.80965703  0.80956883  0.60883963  1
  O  O34  1  0.10763649  0.36460740  0.58137084  1
  O  O35  1  0.89393583  0.63379791  0.41870420  1
  O  O36  1  0.76231830  0.41302959  0.39046632  1
  O  O37  1  0.23639536  0.58695840  0.60965831  1
  O  O38  1  0.43647530  0.29121581  0.08307585  1
  O  O39  1  0.56358170  0.70878502  0.91693408  1
  O  O40  1  0.79111969  0.07626913  0.05906335  1
  O  O41  1  0.20886598  0.92370726  0.94095691  1
  O  O42  1  0.20594009  0.76379510  0.16826680  1
  O  O43  1  0.79412513  0.23620345  0.83172771  1
  O  O44  1  0.03724362  0.01988101  0.25608776  1
  O  O45  1  0.96290250  0.98035974  0.74368465  1
  O  O46  1  0.80108230  0.38033728  0.50559046  1
  O  O47  1  0.20652151  0.61502739  0.49494026  1
  O  O48  1  0.25396253  0.49891248  0.22149950  1
  O  O49  1  0.74603395  0.50108062  0.77856281  1
  O  O50  1  0.80706793  0.54079815  0.15951859  1
  O  O51  1  0.19296491  0.45926553  0.84049411  1
  O  O52  1  0.25065948  0.39663295  0.44423641  1
  O  O53  1  0.74954897  0.60149608  0.55569695  1
  O  O54  1  0.94008798  0.29260985  0.08817900  1
  O  O55  1  0.05986277  0.70738781  0.91183159  1
  O  O56  1  0.08332904  0.60535241  0.07992317  1
  O  O57  1  0.91674275  0.39462526  0.92009347  1
  O  O58  1  0.21254890  0.26102399  0.16794282  1
  O  O59  1  0.78743397  0.73896133  0.83205794  1
  O  O60  1  0.70231202  0.26042258  0.21936545  1
  O  O61  1  0.29774913  0.73978943  0.78055248  1
  O  O62  1  0.21708288  0.85527406  0.05601913  1
  O  O63  1  0.78296313  0.14468363  0.94401365  1
  O  O64  1  0.29132211  0.99072028  0.33477529  1
  O  O65  1  0.71335852  0.01010227  0.66467544  1
  O  O66  1  0.58376264  0.61733524  0.07267493  1
  O  O67  1  0.41620773  0.38262794  0.92734971  1
  O  O68  1  0.28117495  0.66613108  0.99548492  1
  O  O69  1  0.71884766  0.33387145  0.00450975  1
  O  O70  1  0.76439172  0.46592066  0.27504150  1
  O  O71  1  0.23566653  0.53405715  0.72499933  1
loop_
_geom_bond_atom_site_label_1
_geom_bond_atom_site_label_2
_geom_bond_distance
_geom_bond_site_symmetry_2
Na0 O46 2.294957 1_555
Na0 O52 2.359327 1_555
Na0 O14 2.518069 1_555
Na0 O12 2.626761 1_555
Na0 O34 2.643105 1_555
Na0 O8 2.644754 1_555
Na0 O11 2.690220 1_555
Na1 O47 2.345611 1_555
Na1 O53 2.359610 1_555
Na1 O15 2.423870 1_555
Na1 O9 2.593233 1_555
Na1 O13 2.597438 1_555
Na1 O35 2.685693 1_555
Na1 O10 2.775225 1_555
Na2 O42 2.353365 1_555
Na2 O22 2.381562 1_565
Na2 O20 2.391091 1_555
Na2 O18 2.484864 1_565
Na2 O4 2.641153 1_565
Na2 O0 2.703943 1_555
Na2 O28 2.771253 1_555
Na3 O43 2.353077 1_555
Na3 O23 2.380219 1_545
Na3 O21 2.391050 1_555
Na3 O19 2.485537 1_545
Na3 O5 2.651108 1_545
Na3 O1 2.704354 1_555
Na3 O29 2.771640 1_555
Na4 O64 2.486626 1_555
Na4 O24 2.522866 1_455
Na4 O44 2.702413 1_565
Na4 O2 2.823136 1_555
Na4 O10 2.892340 1_555
Na4 O35 2.924768 1_455
Na4 O28 2.952765 1_455
Na4 O0 2.969688 1_555
Na5 O65 2.476158 1_555
Na5 O25 2.512946 1_655
Na5 O45 2.692512 1_545
Na5 O3 2.885760 1_555
Na5 O11 2.901232 1_555
Na5 O34 2.925912 1_655
Na5 O29 2.929755 1_655
Na5 O1 2.947498 1_555
Na6 O50 2.300443 1_555
Na6 O48 2.350605 1_555
Na6 O58 2.541435 1_555
Na6 O66 2.589570 1_555
Na6 O38 2.658079 1_555
Na6 O60 2.694224 1_555
Na6 O56 2.775221 1_555
Na7 O51 2.300019 1_555
Na7 O49 2.349306 1_555
Na7 O59 2.541572 1_555
Na7 O67 2.589631 1_555
Na7 O39 2.658273 1_555
Na7 O61 2.697550 1_555
Na7 O57 2.774886 1_555
Na8 O69 2.467623 1_455
Na8 O68 2.467948 1_554
Na8 O56 2.715607 1_555
Na8 O57 2.716755 1_454
Mg0 O48 2.072537 1_555
Mg0 O6 2.084717 1_555
Mg0 O70 2.089078 1_555
Mg0 O26 2.099810 1_555
Mg0 O16 2.118730 1_555
Mg0 O60 2.128929 1_555
Mg1 O49 2.074852 1_555
Mg1 O7 2.085242 1_555
Mg1 O71 2.089363 1_555
Mg1 O27 2.095310 1_555
Mg1 O17 2.124038 1_555
Mg1 O61 2.130412 1_555
Mg2 O20 2.064167 1_555
Mg2 O62 2.077970 1_555
Mg2 O18 2.092234 1_565
Mg2 O40 2.103735 1_565
Mg2 O31 2.105397 1_554
Mg2 O30 2.116890 1_565
Mg3 O21 2.063098 1_555
Mg3 O63 2.078101 1_555
Mg3 O19 2.091458 1_545
Mg3 O41 2.103862 1_545
Mg3 O30 2.106583 1_556
Mg3 O31 2.117886 1_545
Mg4 O26 2.049619 1_655
Mg4 O16 2.064002 1_555
Mg4 O6 2.121206 1_655
Mg4 O70 2.121776 1_555
Mg4 O36 2.123211 1_555
Mg4 O32 2.125302 1_655
Mg5 O27 2.052551 1_455
Mg5 O17 2.067595 1_555
Mg5 O37 2.101498 1_555
Mg5 O33 2.103715 1_455
Mg5 O71 2.129721 1_555
Mg5 O7 2.134429 1_455
Mg6 O50 1.995605 1_555
Mg6 O48 2.093662 1_655
Mg6 O70 2.120739 1_555
Mg6 O60 2.126394 1_555
Mg6 O58 2.214147 1_655
Mg6 O6 2.258251 1_655
Mg7 O51 1.997737 1_555
Mg7 O49 2.093356 1_455
Mg7 O71 2.117877 1_555
Mg7 O61 2.127682 1_555
Mg7 O59 2.215609 1_455
Mg7 O7 2.259793 1_455
Mg8 O52 2.079788 1_555
Mg8 O32 2.082313 1_555
Mg8 O36 2.091662 1_555
Mg8 O26 2.099746 1_555
Mg8 O12 2.115021 1_555
Mg8 O16 2.117422 1_555
Mg9 O53 2.067015 1_555
Mg9 O13 2.072289 1_555
Mg9 O37 2.082695 1_555
Mg9 O27 2.090068 1_555
Mg9 O33 2.092725 1_555
Mg9 O17 2.134318 1_555
Mg10 O30 2.055272 1_565
Mg10 O31 2.055299 1_454
Mg10 O41 2.115411 1_554
Mg10 O40 2.115433 1_465
Mg10 O63 2.117241 1_464
Mg10 O62 2.117640 1_555
Mg11 O46 1.995519 1_555
Mg11 O52 2.088982 1_655
Mg11 O12 2.108918 1_555
Mg11 O36 2.126007 1_555
Mg11 O32 2.241096 1_655
Mg11 O14 2.258324 1_655
Mg12 O47 2.021347 1_555
Mg12 O15 2.023856 1_455
Mg12 O53 2.092062 1_455
Mg12 O13 2.100459 1_555
Mg12 O33 2.274105 1_455
Mg12 O37 2.280263 1_555
Mg13 O42 2.016870 1_555
Mg13 O22 2.031874 1_465
Mg13 O20 2.085075 1_455
Mg13 O18 2.114658 1_565
Mg13 O40 2.263118 1_465
Mg13 O62 2.274505 1_555
Mg14 O43 2.016324 1_555
Mg14 O23 2.034759 1_645
Mg14 O21 2.085499 1_655
Mg14 O19 2.114691 1_545
Mg14 O41 2.264165 1_645
Mg14 O63 2.275554 1_555
H0 O30 0.962588 1_555
H1 O31 0.962588 1_555
H2 O26 0.968444 1_555
H3 O27 0.968010 1_555
H4 O16 0.969934 1_555
H5 O17 0.969577 1_555
H6 O14 0.984430 1_555
H7 O58 0.986960 1_555
H7 Na6 2.536653 1_555
H8 O59 0.986813 1_555
H8 Na7 2.537086 1_555
O0 Si22 1.646220 1_555
O0 Si14 1.709978 1_555
O1 Si23 1.647178 1_555
O1 Si15 1.710258 1_555
O2 Si16 1.639909 1_565
O2 Si5 1.671892 1_455
O3 Si4 1.649481 1_645
O3 Si17 1.654879 1_545
O4 Si8 1.638145 1_555
O4 Si20 1.697453 1_555
O5 Si9 1.639656 1_555
O5 Si21 1.700230 1_555
O6 Si8 1.619265 1_555
O7 Si9 1.618887 1_555
O8 Si17 1.644603 1_545
O8 Si4 1.660939 1_545
O9 Si16 1.638336 1_565
O9 Si5 1.699639 1_555
O10 Si2 1.649810 1_555
O10 Si18 1.714236 1_555
O11 Si3 1.654735 1_555
O11 Si19 1.715795 1_555
O12 Si5 1.636487 1_545
O13 Si4 1.597679 1_555
O14 Si4 1.687960 1_545
O15 Si5 1.594446 1_555
O18 Si6 1.598143 1_555
O19 Si7 1.598087 1_555
O20 Si12 1.623501 1_555
O21 Si13 1.623463 1_555
O22 Si20 1.596070 1_555
O23 Si21 1.596143 1_555
O24 Si2 1.656782 1_555
O24 Si22 1.658827 1_555
O25 Si23 1.658469 1_555
O25 Si3 1.660473 1_555
O28 Si22 1.643098 1_555
O28 Si14 1.689958 1_655
O29 Si23 1.643964 1_555
O29 Si15 1.690363 1_455
O32 Si16 1.619840 1_555
O33 Si17 1.608401 1_555
O34 Si3 1.649505 1_555
O34 Si19 1.693786 1_455
O35 Si2 1.646888 1_555
O35 Si18 1.695633 1_655
O36 Si2 1.621365 1_555
O37 Si3 1.614261 1_555
O38 Si10 1.652674 1_555
O38 Si6 1.668509 1_555
O39 Si11 1.652583 1_555
O39 Si7 1.668548 1_555
O40 Si10 1.610639 1_555
O41 Si11 1.610601 1_555
O42 Si14 1.595884 1_555
O43 Si15 1.595765 1_555
O44 Si8 1.643977 1_555
O44 Si20 1.674599 1_455
O45 Si9 1.644471 1_555
O45 Si21 1.674821 1_655
O46 Si19 1.596631 1_555
O47 Si18 1.594469 1_555
O48 Si14 1.629074 1_555
O49 Si15 1.629346 1_555
O50 Si12 1.596586 1_555
O51 Si13 1.596804 1_555
O52 Si18 1.629589 1_555
O53 Si19 1.622153 1_555
O54 Si6 1.648461 1_655
O54 Si10 1.653033 1_555
O55 Si7 1.648431 1_455
O55 Si11 1.652916 1_555
O56 Si0 1.650474 1_555
O56 Si12 1.698060 1_455
O57 Si1 1.650347 1_555
O57 Si13 1.698046 1_655
O58 Si6 1.686527 1_555
O59 Si7 1.686166 1_555
O60 Si20 1.638094 1_555
O61 Si21 1.638179 1_555
O62 Si0 1.612697 1_555
O63 Si1 1.612665 1_555
O64 Si16 1.651842 1_565
O64 Si8 1.652111 1_565
O65 Si17 1.654854 1_545
O65 Si9 1.657391 1_545
O66 Si0 1.646515 1_555
O66 Si12 1.709072 1_555
O67 Si1 1.646453 1_555
O67 Si13 1.709225 1_555
O68 Si11 1.657266 1_555
O68 Si0 1.669394 1_556
O69 Si10 1.657075 1_555
O69 Si1 1.669642 1_554
O70 Si22 1.622895 1_555
O71 Si23 1.623051 1_555
