# generated using pymatgen
data_Pr
_symmetry_space_group_name_H-M   'P 1'
_cell_length_a   7.45117505
_cell_length_b   7.45122291
_cell_length_c   18.29890960
_cell_angle_alpha   89.99986588
_cell_angle_beta   90.00045732
_cell_angle_gamma   119.99765948
_symmetry_Int_Tables_number   1
_chemical_formula_structural   Pr
_chemical_formula_sum   Pr24
_cell_volume   879.86979264
_cell_formula_units_Z   24
loop_
 _symmetry_equiv_pos_site_id
 _symmetry_equiv_pos_as_xyz
  1  'x, y, z'
loop_
 _atom_site_type_symbol
 _atom_site_label
 _atom_site_symmetry_multiplicity
 _atom_site_fract_x
 _atom_site_fract_y
 _atom_site_fract_z
 _atom_site_occupancy
  Pr  Pr0_0  1  0.16031543  0.50000026  0.33329476  1
  Pr  Pr0_1  1  0.16031543  0.50000027  0.83329476  1
  Pr  Pr0_2  1  0.16031543  0.00000027  0.33329476  1
  Pr  Pr0_3  1  0.16031543  0.00000026  0.83329476  1
  Pr  Pr0_4  1  0.66031543  0.50000027  0.33329476  1
  Pr  Pr0_5  1  0.66031543  0.50000026  0.83329476  1
  Pr  Pr0_6  1  0.66031543  0.00000026  0.33329476  1
  Pr  Pr0_7  1  0.66031543  0.00000027  0.83329476  1
  Pr  Pr1_0  1  0.50000208  0.16031720  0.16664944  1
  Pr  Pr1_1  1  0.50000208  0.16031720  0.66664944  1
  Pr  Pr1_2  1  0.50000208  0.66031720  0.16664944  1
  Pr  Pr1_3  1  0.50000208  0.66031720  0.66664944  1
  Pr  Pr1_4  1  0.00000208  0.16031720  0.16664944  1
  Pr  Pr1_5  1  0.00000208  0.16031720  0.66664944  1
  Pr  Pr1_6  1  0.00000208  0.66031720  0.16664944  1
  Pr  Pr1_7  1  0.00000208  0.66031720  0.66664944  1
  Pr  Pr2_0  1  0.33968249  0.33968254  0.00005580  1
  Pr  Pr2_1  1  0.33968249  0.33968254  0.50005581  1
  Pr  Pr2_2  1  0.33968249  0.83968254  0.00005580  1
  Pr  Pr2_3  1  0.33968249  0.83968254  0.50005581  1
  Pr  Pr2_4  1  0.83968249  0.33968254  0.00005580  1
  Pr  Pr2_5  1  0.83968249  0.33968254  0.50005581  1
  Pr  Pr2_6  1  0.83968249  0.83968254  0.00005580  1
  Pr  Pr2_7  1  0.83968249  0.83968254  0.50005581  1
loop_
_geom_bond_atom_site_label_1
_geom_bond_atom_site_label_2
_geom_bond_distance
_geom_bond_site_symmetry_2
Pr0_0 Pr1_6 3.685052 1_555
Pr0_0 Pr2_5 3.686875 1_455
Pr0_0 Pr0_4 3.725588 1_555
Pr0_0 Pr0_4 3.725588 1_455
Pr0_0 Pr0_2 3.725611 1_555
Pr0_0 Pr0_2 3.725611 1_565
Pr0_0 Pr0_6 3.725731 1_565
Pr0_0 Pr0_6 3.725731 1_455
Pr0_0 Pr1_4 3.756184 1_555
Pr0_0 Pr1_2 3.756206 1_555
Pr0_0 Pr2_1 3.757853 1_555
Pr0_0 Pr2_3 3.757902 1_555
Pr0_1 Pr1_7 3.685052 1_555
Pr0_1 Pr2_4 3.686875 1_456
Pr0_1 Pr0_5 3.725588 1_455
Pr0_1 Pr0_5 3.725588 1_555
Pr0_1 Pr0_3 3.725611 1_565
Pr0_1 Pr0_3 3.725611 1_555
Pr0_1 Pr0_7 3.725731 1_455
Pr0_1 Pr0_7 3.725731 1_565
Pr0_1 Pr1_5 3.756184 1_555
Pr0_1 Pr1_3 3.756206 1_555
Pr0_1 Pr2_0 3.757853 1_556
Pr0_1 Pr2_2 3.757902 1_556
Pr0_2 Pr1_4 3.685052 1_555
Pr0_2 Pr2_7 3.686875 1_445
Pr0_2 Pr0_6 3.725588 1_455
Pr0_2 Pr0_6 3.725588 1_555
Pr0_2 Pr0_4 3.725731 1_555
Pr0_2 Pr0_4 3.725731 1_445
Pr0_2 Pr1_6 3.756184 1_545
Pr0_2 Pr1_0 3.756206 1_555
Pr0_2 Pr2_3 3.757853 1_545
Pr0_2 Pr2_1 3.757902 1_555
Pr0_3 Pr1_5 3.685052 1_555
Pr0_3 Pr2_6 3.686875 1_446
Pr0_3 Pr0_7 3.725588 1_555
Pr0_3 Pr0_7 3.725588 1_455
Pr0_3 Pr0_5 3.725731 1_555
Pr0_3 Pr0_5 3.725731 1_445
Pr0_3 Pr1_7 3.756184 1_545
Pr0_3 Pr1_1 3.756206 1_555
Pr0_3 Pr2_2 3.757853 1_546
Pr0_3 Pr2_0 3.757902 1_556
Pr0_4 Pr1_2 3.685052 1_555
Pr0_4 Pr2_1 3.686875 1_555
Pr0_4 Pr0_6 3.725611 1_565
Pr0_4 Pr0_6 3.725611 1_555
Pr0_4 Pr1_0 3.756184 1_555
Pr0_4 Pr1_6 3.756206 1_655
Pr0_4 Pr2_5 3.757853 1_555
Pr0_4 Pr2_7 3.757902 1_555
Pr0_5 Pr1_3 3.685052 1_555
Pr0_5 Pr2_0 3.686875 1_556
Pr0_5 Pr0_7 3.725611 1_555
Pr0_5 Pr0_7 3.725611 1_565
Pr0_5 Pr1_1 3.756184 1_555
Pr0_5 Pr1_7 3.756206 1_655
Pr0_5 Pr2_4 3.757853 1_556
Pr0_5 Pr2_6 3.757902 1_556
Pr0_6 Pr1_0 3.685052 1_555
Pr0_6 Pr2_3 3.686875 1_545
Pr0_6 Pr1_2 3.756184 1_545
Pr0_6 Pr1_4 3.756206 1_655
Pr0_6 Pr2_7 3.757853 1_545
Pr0_6 Pr2_5 3.757902 1_555
Pr0_7 Pr1_1 3.685052 1_555
Pr0_7 Pr2_2 3.686875 1_546
Pr0_7 Pr1_3 3.756184 1_545
Pr0_7 Pr1_5 3.756206 1_655
Pr0_7 Pr2_6 3.757853 1_546
Pr0_7 Pr2_4 3.757902 1_556
Pr1_0 Pr2_2 3.684337 1_545
Pr1_0 Pr1_4 3.725588 1_655
Pr1_0 Pr1_4 3.725588 1_555
Pr1_0 Pr1_2 3.725611 1_545
Pr1_0 Pr1_2 3.725611 1_555
Pr1_0 Pr1_6 3.725731 1_545
Pr1_0 Pr1_6 3.725731 1_655
Pr1_0 Pr2_0 3.755368 1_555
Pr1_0 Pr2_4 3.755418 1_555
Pr1_1 Pr2_3 3.684337 1_545
Pr1_1 Pr1_5 3.725588 1_555
Pr1_1 Pr1_5 3.725588 1_655
Pr1_1 Pr1_3 3.725611 1_555
Pr1_1 Pr1_3 3.725611 1_545
Pr1_1 Pr1_7 3.725731 1_655
Pr1_1 Pr1_7 3.725731 1_545
Pr1_1 Pr2_1 3.755368 1_555
Pr1_1 Pr2_5 3.755418 1_555
Pr1_2 Pr2_0 3.684337 1_555
Pr1_2 Pr1_6 3.725588 1_555
Pr1_2 Pr1_6 3.725588 1_655
Pr1_2 Pr1_4 3.725731 1_665
Pr1_2 Pr1_4 3.725731 1_555
Pr1_2 Pr2_2 3.755368 1_555
Pr1_2 Pr2_6 3.755418 1_555
Pr1_3 Pr2_1 3.684337 1_555
Pr1_3 Pr1_7 3.725588 1_555
Pr1_3 Pr1_7 3.725588 1_655
Pr1_3 Pr1_5 3.725731 1_665
Pr1_3 Pr1_5 3.725731 1_555
Pr1_3 Pr2_3 3.755368 1_555
Pr1_3 Pr2_7 3.755418 1_555
Pr1_4 Pr2_6 3.684337 1_445
Pr1_4 Pr1_6 3.725611 1_555
Pr1_4 Pr1_6 3.725611 1_545
Pr1_4 Pr2_4 3.755368 1_455
Pr1_4 Pr2_0 3.755418 1_555
Pr1_5 Pr2_7 3.684337 1_445
Pr1_5 Pr1_7 3.725611 1_555
Pr1_5 Pr1_7 3.725611 1_545
Pr1_5 Pr2_5 3.755368 1_455
Pr1_5 Pr2_1 3.755418 1_555
Pr1_6 Pr2_4 3.684337 1_455
Pr1_6 Pr2_6 3.755368 1_455
Pr1_6 Pr2_2 3.755418 1_555
Pr1_7 Pr2_5 3.684337 1_455
Pr1_7 Pr2_7 3.755368 1_455
Pr1_7 Pr2_3 3.755418 1_555
Pr2_0 Pr2_4 3.725588 1_455
Pr2_0 Pr2_4 3.725588 1_555
Pr2_0 Pr2_2 3.725611 1_555
Pr2_0 Pr2_2 3.725611 1_545
Pr2_0 Pr2_6 3.725731 1_445
Pr2_0 Pr2_6 3.725731 1_555
Pr2_1 Pr2_5 3.725588 1_555
Pr2_1 Pr2_5 3.725588 1_455
Pr2_1 Pr2_3 3.725611 1_545
Pr2_1 Pr2_3 3.725611 1_555
Pr2_1 Pr2_7 3.725731 1_555
Pr2_1 Pr2_7 3.725731 1_445
Pr2_2 Pr2_6 3.725588 1_555
Pr2_2 Pr2_6 3.725588 1_455
Pr2_2 Pr2_4 3.725731 1_455
Pr2_2 Pr2_4 3.725731 1_565
Pr2_3 Pr2_7 3.725588 1_555
Pr2_3 Pr2_7 3.725588 1_455
Pr2_3 Pr2_5 3.725731 1_455
Pr2_3 Pr2_5 3.725731 1_565
Pr2_4 Pr2_6 3.725611 1_555
Pr2_4 Pr2_6 3.725611 1_545
Pr2_5 Pr2_7 3.725611 1_545
Pr2_5 Pr2_7 3.725611 1_555
