# generated using pymatgen
data_SrU2As2(H2O3)4
_symmetry_space_group_name_H-M   'P 1'
_cell_length_a   7.29357700
_cell_length_b   7.34590200
_cell_length_c   15.70489355
_cell_angle_alpha   83.75771330
_cell_angle_beta   90.00000000
_cell_angle_gamma   90.00000000
_symmetry_Int_Tables_number   1
_chemical_formula_structural   SrU2As2(H2O3)4
_chemical_formula_sum   'Sr2 U4 As4 H16 O24'
_cell_volume   836.44636330
_cell_formula_units_Z   2
loop_
 _symmetry_equiv_pos_site_id
 _symmetry_equiv_pos_as_xyz
  1  'x, y, z'
loop_
 _atom_site_type_symbol
 _atom_site_label
 _atom_site_symmetry_multiplicity
 _atom_site_fract_x
 _atom_site_fract_y
 _atom_site_fract_z
 _atom_site_occupancy
  Sr  Sr0  1  0.67671600  0.29707600  0.68922200  1
  Sr  Sr1  1  0.32328400  0.29707600  0.18922200  1
  U  U0  1  0.75248100  0.55121700  0.88285500  1
  U  U1  1  0.24751900  0.55121700  0.38285500  1
  U  U2  1  0.75472800  0.04000300  0.49624500  1
  U  U3  1  0.24527200  0.04000300  0.99624500  1
  As  As0  1  0.74499000  0.54240600  0.44536000  1
  As  As1  1  0.25501000  0.54240600  0.94536000  1
  As  As2  1  0.74289600  0.04958500  0.93357800  1
  As  As3  1  0.25710400  0.04958500  0.43357800  1
  H  H0  1  0.00321400  0.18319100  0.76911400  1
  H  H1  1  0.99678600  0.18319100  0.26911400  1
  H  H2  1  0.57101400  0.64032500  0.62122800  1
  H  H3  1  0.42898600  0.64032500  0.12122800  1
  H  H4  1  0.36227800  0.40182500  0.77167200  1
  H  H5  1  0.63772200  0.40182500  0.27167200  1
  H  H6  1  0.83780400  0.76474000  0.10479300  1
  H  H7  1  0.16219600  0.76474000  0.60479300  1
  H  H8  1  0.38090100  0.22261500  0.59395300  1
  H  H9  1  0.61909900  0.22261500  0.09395300  1
  H  H10  1  0.99144900  0.42434900  0.60730200  1
  H  H11  1  0.00855100  0.42434900  0.10730200  1
  H  H12  1  0.60021300  0.95183400  0.75454200  1
  H  H13  1  0.39978700  0.95183400  0.25454200  1
  H  H14  1  0.80289700  0.84194500  0.27298000  1
  H  H15  1  0.19710300  0.84194500  0.77298000  1
  O  O0  1  0.55732400  0.05536700  0.00083800  1
  O  O1  1  0.44267600  0.05536700  0.50083800  1
  O  O2  1  0.75160400  0.57002300  0.76393500  1
  O  O3  1  0.24839600  0.57002300  0.26393500  1
  O  O4  1  0.93787900  0.05378800  0.99407100  1
  O  O5  1  0.06212100  0.05378800  0.49407100  1
  O  O6  1  0.73700900  0.23984400  0.85743700  1
  O  O7  1  0.26299100  0.23984400  0.35743700  1
  O  O8  1  0.74767700  0.51107600  0.99926700  1
  O  O9  1  0.25232300  0.51107600  0.49926700  1
  O  O10  1  0.93956300  0.53901400  0.38446600  1
  O  O11  1  0.06043700  0.53901400  0.88446600  1
  O  O12  1  0.73745900  0.85854400  0.87980400  1
  O  O13  1  0.26254100  0.85854400  0.37980400  1
  O  O14  1  0.73925000  0.35153700  0.52119700  1
  O  O15  1  0.26075000  0.35153700  0.02119700  1
  O  O16  1  0.44125900  0.53631700  0.87864200  1
  O  O17  1  0.55874100  0.53631700  0.37864200  1
  O  O18  1  0.73960500  0.73247100  0.49983200  1
  O  O19  1  0.26039500  0.73247100  0.99983200  1
  O  O20  1  0.74856200  0.08062200  0.38009700  1
  O  O21  1  0.25143800  0.08062200  0.88009700  1
  O  O22  1  0.75490800  0.02278600  0.61527000  1
  O  O23  1  0.24509200  0.02278600  0.11527000  1
loop_
_geom_bond_atom_site_label_1
_geom_bond_atom_site_label_2
_geom_bond_distance
_geom_bond_site_symmetry_2
As0 O10 1.712985 1_555
As0 O18 1.715372 1_555
As0 O17 1.719123 1_555
As0 O14 1.738680 1_555
As1 O11 1.712985 1_555
As1 O19 1.715372 1_555
As1 O16 1.719123 1_555
As1 O15 1.738680 1_556
As2 O4 1.712406 1_555
As2 O12 1.715213 1_545
As2 O0 1.720253 1_556
As2 O6 1.738292 1_555
As3 O5 1.712406 1_555
As3 O13 1.715213 1_545
As3 O1 1.720253 1_555
As3 O7 1.738292 1_555
H0 Sr0 2.777885 1_455
H1 Sr1 2.777885 1_655
H2 Sr0 2.739878 1_555
H3 Sr1 2.739878 1_555
H4 Sr0 2.782990 1_555
H5 Sr1 2.782990 1_555
H8 Sr0 2.714915 1_555
H9 Sr1 2.714915 1_555
H10 Sr0 2.745393 1_555
H11 Sr1 2.745393 1_555
H12 Sr0 2.688829 1_565
H13 Sr1 2.688829 1_565
O0 U3 2.280302 1_554
O1 U2 2.280302 1_555
O2 U0 1.857699 1_555
O2 Sr0 2.491369 1_555
O3 U1 1.857699 1_555
O3 Sr1 2.491369 1_555
O4 U3 2.244372 1_655
O5 U2 2.244372 1_455
O6 U0 2.366951 1_555
O6 Sr0 2.666028 1_555
O7 U1 2.366951 1_555
O7 Sr1 2.666028 1_555
O8 U0 1.820274 1_555
O9 U1 1.820274 1_555
O10 U1 2.247922 1_655
O11 U0 2.247922 1_455
O12 U0 2.255550 1_555
O13 U1 2.255550 1_555
O14 U2 2.366126 1_555
O14 Sr0 2.664928 1_555
O15 U3 2.366126 1_554
O15 Sr1 2.664928 1_555
O16 U0 2.273868 1_555
O17 U1 2.273868 1_555
O18 U2 2.256368 1_565
O19 U3 2.256368 1_565
O20 U2 1.816591 1_555
O21 U3 1.816591 1_555
O22 U2 1.859778 1_555
O22 Sr0 2.498572 1_555
O23 U3 1.859778 1_554
O23 Sr1 2.498572 1_555
