# generated using pymatgen
data_Ca2InOsO6
_symmetry_space_group_name_H-M   'P 1'
_cell_length_a   5.54342800
_cell_length_b   5.75755000
_cell_length_c   9.64876458
_cell_angle_alpha   90.00000000
_cell_angle_beta   124.49387250
_cell_angle_gamma   90.00000000
_symmetry_Int_Tables_number   1
_chemical_formula_structural   Ca2InOsO6
_chemical_formula_sum   'Ca4 In2 Os2 O12'
_cell_volume   253.81277195
_cell_formula_units_Z   2
loop_
 _symmetry_equiv_pos_site_id
 _symmetry_equiv_pos_as_xyz
  1  'x, y, z'
loop_
 _atom_site_type_symbol
 _atom_site_label
 _atom_site_symmetry_multiplicity
 _atom_site_fract_x
 _atom_site_fract_y
 _atom_site_fract_z
 _atom_site_occupancy
  Ca  Ca0  1  0.23183200  0.44157200  0.74876600  1
  Ca  Ca1  1  0.23183200  0.05842800  0.24876600  1
  Ca  Ca2  1  0.76816800  0.55842800  0.25123400  1
  Ca  Ca3  1  0.76816800  0.94157200  0.75123400  1
  In  In0  1  0.50000000  0.50000000  0.50000000  1
  In  In1  1  0.50000000  0.00000000  0.00000000  1
  Os  Os0  1  0.00000000  0.50000000  0.00000000  1
  Os  Os1  1  0.00000000  0.00000000  0.50000000  1
  O  O0  1  0.76702900  0.18975200  0.55705900  1
  O  O1  1  0.76702900  0.31024800  0.05705900  1
  O  O2  1  0.23297100  0.81024800  0.44294100  1
  O  O3  1  0.23297100  0.68975200  0.94294100  1
  O  O4  1  0.87702200  0.71213100  0.55912500  1
  O  O5  1  0.87702200  0.78786900  0.05912500  1
  O  O6  1  0.12297800  0.28786900  0.44087500  1
  O  O7  1  0.12297800  0.21213100  0.94087500  1
  O  O8  1  0.34686500  0.04026400  0.73652700  1
  O  O9  1  0.34686500  0.45973600  0.23652700  1
  O  O10  1  0.65313500  0.95973600  0.26347300  1
  O  O11  1  0.65313500  0.54026400  0.76347300  1
loop_
_geom_bond_atom_site_label_1
_geom_bond_atom_site_label_2
_geom_bond_distance
_geom_bond_site_symmetry_2
Ca0 O11 2.328526 1_555
Ca0 O3 2.353425 1_555
Ca0 O4 2.359451 1_455
Ca0 O8 2.417543 1_555
Ca0 O0 2.600833 1_455
Ca0 O7 2.609975 1_555
Ca0 O6 2.818213 1_555
Ca0 O1 2.868182 1_556
Ca1 O10 2.328526 1_545
Ca1 O2 2.353425 1_545
Ca1 O5 2.359451 1_445
Ca1 O9 2.417543 1_555
Ca1 O1 2.600833 1_455
Ca1 O6 2.609975 1_555
Ca1 O7 2.818213 1_554
Ca1 O0 2.868182 1_555
Ca2 O9 2.328526 1_555
Ca2 O1 2.353425 1_555
Ca2 O6 2.359451 1_655
Ca2 O10 2.417543 1_555
Ca2 O2 2.600833 1_655
Ca2 O5 2.609975 1_555
Ca2 O4 2.818213 1_555
Ca2 O3 2.868182 1_554
Ca3 O8 2.328526 1_565
Ca3 O0 2.353425 1_565
Ca3 O7 2.359451 1_665
Ca3 O11 2.417543 1_555
Ca3 O3 2.600833 1_655
Ca3 O4 2.609975 1_555
Ca3 O5 2.818213 1_556
Ca3 O2 2.868182 1_555
In0 O0 2.182194 1_555
In0 O2 2.182194 1_555
In0 O11 2.189247 1_555
In0 O9 2.189247 1_555
In0 O4 2.198815 1_555
In0 O6 2.198815 1_555
In1 O1 2.182194 1_555
In1 O3 2.182194 1_544
In1 O10 2.189247 1_545
In1 O8 2.189247 1_554
In1 O7 2.198815 1_554
In1 O5 2.198815 1_545
O0 Os1 1.992449 1_655
O1 Os0 1.992449 1_655
O2 Os1 1.992449 1_565
O3 Os0 1.992449 1_556
O4 Os1 1.994424 1_665
O5 Os0 1.994424 1_655
O6 Os1 1.994424 1_555
O7 Os0 1.994424 1_556
O8 Os1 1.997273 1_555
O9 Os0 1.997273 1_555
O10 Os1 1.997273 1_665
O11 Os0 1.997273 1_656
