# generated using pymatgen
data_ZrTl2S3
_symmetry_space_group_name_H-M   'P 1'
_cell_length_a   3.80010290
_cell_length_b   7.96579703
_cell_length_c   10.42059052
_cell_angle_alpha   97.43989008
_cell_angle_beta   90.00000000
_cell_angle_gamma   90.00000000
_symmetry_Int_Tables_number   1
_chemical_formula_structural   ZrTl2S3
_chemical_formula_sum   'Zr2 Tl4 S6'
_cell_volume   312.78450494
_cell_formula_units_Z   2
loop_
 _symmetry_equiv_pos_site_id
 _symmetry_equiv_pos_as_xyz
  1  'x, y, z'
loop_
 _atom_site_type_symbol
 _atom_site_label
 _atom_site_symmetry_multiplicity
 _atom_site_fract_x
 _atom_site_fract_y
 _atom_site_fract_z
 _atom_site_occupancy
  Zr  Zr0  1  0.75000000  0.58722303  0.66325791  1
  Zr  Zr1  1  0.25000000  0.41277697  0.33674209  1
  Tl  Tl0  1  0.75000000  0.94009243  0.33855981  1
  Tl  Tl1  1  0.25000000  0.05990757  0.66144019  1
  Tl  Tl2  1  0.75000000  0.25073496  0.00355236  1
  Tl  Tl3  1  0.25000000  0.74926504  0.99644764  1
  S  S0  1  0.75000000  0.86164294  0.80529423  1
  S  S1  1  0.25000000  0.13835706  0.19470577  1
  S  S2  1  0.75000000  0.54272389  0.21601874  1
  S  S3  1  0.25000000  0.45727611  0.78398126  1
  S  S4  1  0.75000000  0.31272549  0.48379974  1
  S  S5  1  0.25000000  0.68727451  0.51620026  1
loop_
_geom_bond_atom_site_label_1
_geom_bond_atom_site_label_2
_geom_bond_distance
_geom_bond_site_symmetry_2
S0 Zr0 2.476144 1_555
S0 Tl3 2.973401 1_655
S0 Tl3 2.973401 1_555
S0 Tl1 2.994118 1_565
S0 Tl1 2.994118 1_665
S1 Zr1 2.476144 1_555
S1 Tl2 2.973401 1_455
S1 Tl2 2.973401 1_555
S1 Tl0 2.994118 1_445
S1 Tl0 2.994118 1_545
S2 Zr1 2.569341 1_555
S2 Zr1 2.569341 1_655
S2 Tl2 2.996367 1_555
S2 Tl0 3.256274 1_555
S3 Zr0 2.569341 1_555
S3 Zr0 2.569341 1_455
S3 Tl3 2.996367 1_555
S3 Tl1 3.256274 1_555
S4 Zr1 2.628690 1_555
S4 Zr1 2.628690 1_655
S4 Zr0 2.686886 1_555
S4 Tl0 3.152479 1_545
S5 Zr0 2.628690 1_455
S5 Zr0 2.628690 1_555
S5 Zr1 2.686886 1_555
S5 Tl1 3.152479 1_565
