# generated using pymatgen
data_H13C2Cl2O8F
_symmetry_space_group_name_H-M   'P 1'
_cell_length_a   8.55469800
_cell_length_b   8.92504240
_cell_length_c   9.32481338
_cell_angle_alpha   89.76006395
_cell_angle_beta   64.31318062
_cell_angle_gamma   68.85251189
_symmetry_Int_Tables_number   1
_chemical_formula_structural   H13C2Cl2O8F
_chemical_formula_sum   'H26 C4 Cl4 O16 F2'
_cell_volume   588.50084494
_cell_formula_units_Z   2
loop_
 _symmetry_equiv_pos_site_id
 _symmetry_equiv_pos_as_xyz
  1  'x, y, z'
loop_
 _atom_site_type_symbol
 _atom_site_label
 _atom_site_symmetry_multiplicity
 _atom_site_fract_x
 _atom_site_fract_y
 _atom_site_fract_z
 _atom_site_occupancy
  H  H0  1  0.85328200  0.48344500  0.73344400  1
  H  H1  1  0.14671800  0.51655500  0.26655600  1
  H  H2  1  0.63307800  0.56048400  0.70506700  1
  H  H3  1  0.36692200  0.43951600  0.29493300  1
  H  H4  1  0.76318200  0.66132200  0.64141700  1
  H  H5  1  0.23681800  0.33867800  0.35858300  1
  H  H6  1  0.01850700  0.47715200  0.80650600  1
  H  H7  1  0.98149300  0.52284800  0.19349400  1
  H  H8  1  0.00489200  0.30083600  0.76555500  1
  H  H9  1  0.99510800  0.69916400  0.23444500  1
  H  H10  1  0.82079100  0.95615400  0.92919300  1
  H  H11  1  0.17920900  0.04384600  0.07080700  1
  H  H12  1  0.99669600  0.79935900  0.81037000  1
  H  H13  1  0.00330400  0.20064100  0.18963000  1
  H  H14  1  0.78198000  0.88077400  0.53650000  1
  H  H15  1  0.21802000  0.11922600  0.46350000  1
  H  H16  1  0.79686500  0.88071700  0.70207700  1
  H  H17  1  0.20313500  0.11928300  0.29792300  1
  H  H18  1  0.44348200  0.94402300  0.79255700  1
  H  H19  1  0.55651800  0.05597700  0.20744300  1
  H  H20  1  0.32371800  0.83819600  0.83136100  1
  H  H21  1  0.67628200  0.16180400  0.16863900  1
  H  H22  1  0.19172900  0.05988200  0.74609400  1
  H  H23  1  0.80827100  0.94011800  0.25390600  1
  H  H24  1  0.02218200  0.04927000  0.73059600  1
  H  H25  1  0.97781800  0.95073000  0.26940400  1
  C  C0  1  0.39941200  0.35822400  0.78095700  1
  C  C1  1  0.60058800  0.64177600  0.21904300  1
  C  C2  1  0.29544100  0.54698700  0.79500500  1
  C  C3  1  0.70455900  0.45301300  0.20499500  1
  Cl  Cl0  1  0.54359200  0.27175800  0.57170200  1
  Cl  Cl1  1  0.45640800  0.72824200  0.42829800  1
  Cl  Cl2  1  0.53486100  0.31123500  0.88634000  1
  Cl  Cl3  1  0.46513900  0.68876500  0.11366000  1
  O  O0  1  0.13141800  0.59442400  0.80840000  1
  O  O1  1  0.86858200  0.40557600  0.19160000  1
  O  O2  1  0.38896900  0.63117000  0.78640500  1
  O  O3  1  0.61103100  0.36883000  0.21359500  1
  O  O4  1  0.76795100  0.54695200  0.65152700  1
  O  O5  1  0.23204900  0.45304800  0.34847300  1
  O  O6  1  0.93233200  0.42406900  0.80648800  1
  O  O7  1  0.06766800  0.57593100  0.19351200  1
  O  O8  1  0.90746300  0.90975500  0.81273100  1
  O  O9  1  0.09253700  0.09024500  0.18726900  1
  O  O10  1  0.73076300  0.85442500  0.64602800  1
  O  O11  1  0.26923700  0.14557500  0.35397200  1
  O  O12  1  0.31207900  0.95280000  0.85032000  1
  O  O13  1  0.68792100  0.04720000  0.14968000  1
  O  O14  1  0.10643900  0.10979200  0.69629500  1
  O  O15  1  0.89356100  0.89020800  0.30370500  1
  F  F0  1  0.26998600  0.28789300  0.84375600  1
  F  F1  1  0.73001400  0.71210700  0.15624400  1
loop_
_geom_bond_atom_site_label_1
_geom_bond_atom_site_label_2
_geom_bond_distance
_geom_bond_site_symmetry_2
H0 O6 1.157485 1_555
H0 O4 1.272337 1_555
H1 O7 1.157485 1_555
H1 O5 1.272337 1_555
H2 O4 0.997838 1_555
H3 O5 0.997838 1_555
H4 O4 1.012412 1_555
H4 O10 1.641480 1_555
H5 O5 1.012412 1_555
H5 O11 1.641480 1_555
H6 O6 1.009968 1_455
H6 O0 1.665297 1_555
H7 O7 1.009968 1_655
H7 O1 1.665297 1_555
H8 O6 1.022840 1_455
H8 O14 1.591584 1_555
H9 O7 1.022840 1_655
H9 O15 1.591584 1_555
H10 O8 0.992367 1_555
H11 O9 0.992367 1_555
H12 O8 0.998458 1_555
H13 O9 0.998458 1_555
H14 O10 0.987314 1_555
H15 O11 0.987314 1_555
H16 O10 1.000488 1_555
H17 O11 1.000488 1_555
H18 O12 0.985805 1_555
H19 O13 0.985805 1_555
H20 O12 1.000076 1_555
H21 O13 1.000076 1_555
H22 O14 1.001948 1_555
H23 O15 1.001948 1_555
H24 O14 0.996615 1_555
H25 O15 0.996615 1_555
C0 F0 1.378094 1_555
C0 C2 1.570409 1_555
C0 Cl2 1.765559 1_555
C0 Cl0 1.778682 1_555
C1 F1 1.378094 1_555
C1 C3 1.570409 1_555
C1 Cl3 1.765559 1_555
C1 Cl1 1.778682 1_555
C2 O0 1.258408 1_555
C2 O2 1.260448 1_555
C3 O1 1.258408 1_555
C3 O3 1.260448 1_555
