# generated using pymatgen
data_Y3Mg2VS8
_symmetry_space_group_name_H-M   'P 1'
_cell_length_a   7.80380174
_cell_length_b   7.70768256
_cell_length_c   7.79293532
_cell_angle_alpha   59.56819024
_cell_angle_beta   60.01833332
_cell_angle_gamma   59.38155293
_symmetry_Int_Tables_number   1
_chemical_formula_structural   Y3Mg2VS8
_chemical_formula_sum   'Y3 Mg2 V1 S8'
_cell_volume   328.83637711
_cell_formula_units_Z   1
loop_
 _symmetry_equiv_pos_site_id
 _symmetry_equiv_pos_as_xyz
  1  'x, y, z'
loop_
 _atom_site_type_symbol
 _atom_site_label
 _atom_site_symmetry_multiplicity
 _atom_site_fract_x
 _atom_site_fract_y
 _atom_site_fract_z
 _atom_site_occupancy
  Y  Y0  1  0.49998200  0.50001400  0.50001300  1
  Y  Y1  1  0.49999500  0.50001100  0.00000000  1
  Y  Y2  1  0.99999700  0.49999300  0.50004400  1
  Mg  Mg0  1  0.87618900  0.87364200  0.87508100  1
  Mg  Mg1  1  0.12381500  0.12635900  0.12492000  1
  V  V0  1  0.50004200  0.99994300  0.49991400  1
  S  S0  1  0.72932300  0.77052700  0.73034700  1
  S  S1  1  0.27044900  0.22952200  0.73002200  1
  S  S2  1  0.25321400  0.73764000  0.25488200  1
  S  S3  1  0.73124300  0.23118500  0.26850800  1
  S  S4  1  0.74676500  0.26236400  0.74513000  1
  S  S5  1  0.26875400  0.76882700  0.73148900  1
  S  S6  1  0.27066700  0.22946900  0.26967700  1
  S  S7  1  0.72956900  0.77049900  0.26997500  1
loop_
_geom_bond_atom_site_label_1
_geom_bond_atom_site_label_2
_geom_bond_distance
_geom_bond_site_symmetry_2
Mg0 S4 2.426641 1_565
Mg0 S5 2.501686 1_655
Mg0 S7 2.518040 1_556
Mg0 S0 2.519006 1_555
Mg1 S2 2.426623 1_545
Mg1 S3 2.501725 1_455
Mg1 S1 2.518055 1_554
Mg1 S6 2.519034 1_555
S0 V0 2.514886 1_555
S0 Y2 2.747082 1_555
S0 Y1 2.751339 1_556
S1 V0 2.516113 1_545
S1 Y2 2.743375 1_455
S1 Y0 2.752730 1_555
S2 Y0 2.692900 1_555
S2 Y1 2.697780 1_555
S2 Y2 2.697916 1_455
S3 V0 2.540058 1_545
S3 Y1 2.738854 1_555
S3 Y0 2.743868 1_555
S4 Y0 2.692898 1_555
S4 Y1 2.697808 1_556
S4 Y2 2.697906 1_555
S5 V0 2.539858 1_555
S5 Y1 2.738833 1_556
S5 Y0 2.743629 1_555
S6 V0 2.514300 1_545
S6 Y2 2.747352 1_455
S6 Y1 2.751490 1_555
S7 V0 2.514445 1_555
S7 Y2 2.743716 1_555
S7 Y0 2.752976 1_555
