# generated using pymatgen
data_CsRbAs
_symmetry_space_group_name_H-M   'P 1'
_cell_length_a   6.04389622
_cell_length_b   6.04389622
_cell_length_c   6.04389622
_cell_angle_alpha   60.00000000
_cell_angle_beta   60.00000000
_cell_angle_gamma   60.00000000
_symmetry_Int_Tables_number   1
_chemical_formula_structural   CsRbAs
_chemical_formula_sum   'Cs1 Rb1 As1'
_cell_volume   156.11189549
_cell_formula_units_Z   1
loop_
 _symmetry_equiv_pos_site_id
 _symmetry_equiv_pos_as_xyz
  1  'x, y, z'
loop_
 _atom_site_type_symbol
 _atom_site_label
 _atom_site_symmetry_multiplicity
 _atom_site_fract_x
 _atom_site_fract_y
 _atom_site_fract_z
 _atom_site_occupancy
  Cs  Cs0  1  0.50000000  0.50000000  0.50000000  1
  Rb  Rb0  1  0.00000000  0.00000000  0.00000000  1
  As  As0  1  0.75000000  0.75000000  0.75000000  1
loop_
_geom_bond_atom_site_label_1
_geom_bond_atom_site_label_2
_geom_bond_distance
_geom_bond_site_symmetry_2
As0 Cs0 3.701115 1_565
As0 Rb0 3.701115 1_656
As0 Cs0 3.701115 1_555
As0 Rb0 3.701115 1_665
As0 Rb0 3.701115 1_666
As0 Cs0 3.701115 1_556
As0 Cs0 3.701115 1_655
As0 Rb0 3.701115 1_566
