# generated using pymatgen
data_U4Be2C5
_symmetry_space_group_name_H-M   'P 1'
_cell_length_a   6.66692381
_cell_length_b   6.66692381
_cell_length_c   4.99956600
_cell_angle_alpha   90.00000000
_cell_angle_beta   90.00000000
_cell_angle_gamma   135.73609364
_symmetry_Int_Tables_number   1
_chemical_formula_structural   U4Be2C5
_chemical_formula_sum   'U4 Be2 C5'
_cell_volume   155.10167771
_cell_formula_units_Z   1
loop_
 _symmetry_equiv_pos_site_id
 _symmetry_equiv_pos_as_xyz
  1  'x, y, z'
loop_
 _atom_site_type_symbol
 _atom_site_label
 _atom_site_symmetry_multiplicity
 _atom_site_fract_x
 _atom_site_fract_y
 _atom_site_fract_z
 _atom_site_occupancy
  U  U0  1  0.83861000  0.16139000  0.50000000  1
  U  U1  1  0.35185400  0.64814600  0.00000000  1
  U  U2  1  0.64814600  0.35185400  0.00000000  1
  U  U3  1  0.16139000  0.83861000  0.50000000  1
  Be  Be0  1  0.50000000  0.50000000  0.50000000  1
  Be  Be1  1  0.00000000  0.00000000  0.00000000  1
  C  C0  1  0.64652100  0.35347900  0.50000000  1
  C  C1  1  0.15253800  0.84746200  0.00000000  1
  C  C2  1  0.35347900  0.64652100  0.50000000  1
  C  C3  1  0.84746200  0.15253800  0.00000000  1
  C  C4  1  0.00000000  0.00000000  0.50000000  1
loop_
_geom_bond_atom_site_label_1
_geom_bond_atom_site_label_2
_geom_bond_distance
_geom_bond_site_symmetry_2
Be0 C0 1.809738 1_555
Be0 C2 1.809738 1_555
Be1 C3 1.884057 1_455
Be1 C1 1.884057 1_545
C0 U0 2.372567 1_555
C0 U2 2.499864 1_555
C0 U2 2.499864 1_556
C0 U3 2.518408 1_545
C0 U3 2.518408 1_655
C1 U1 2.461830 1_555
C1 U3 2.502173 1_555
C1 U3 2.502173 1_554
C1 U2 2.512289 1_455
C1 U2 2.512289 1_565
C2 U3 2.372567 1_555
C2 U1 2.499864 1_555
C2 U1 2.499864 1_556
C2 U0 2.518408 1_455
C2 U0 2.518408 1_565
C3 U2 2.461830 1_555
C3 U0 2.502173 1_555
C3 U0 2.502173 1_554
C3 U1 2.512289 1_545
C3 U1 2.512289 1_655
C4 U3 1.993391 1_545
C4 U0 1.993391 1_455
