# generated using pymatgen
data_LaEuB12
_symmetry_space_group_name_H-M   'P 1'
_cell_length_a   5.87347688
_cell_length_b   5.87351424
_cell_length_c   5.87345531
_cell_angle_alpha   59.99961139
_cell_angle_beta   59.99979761
_cell_angle_gamma   59.99963568
_symmetry_Int_Tables_number   1
_chemical_formula_structural   LaEuB12
_chemical_formula_sum   'La1 Eu1 B12'
_cell_volume   143.27447477
_cell_formula_units_Z   1
loop_
 _symmetry_equiv_pos_site_id
 _symmetry_equiv_pos_as_xyz
  1  'x, y, z'
loop_
 _atom_site_type_symbol
 _atom_site_label
 _atom_site_symmetry_multiplicity
 _atom_site_fract_x
 _atom_site_fract_y
 _atom_site_fract_z
 _atom_site_occupancy
  La  La0  1  0.50000000  0.50000000  0.50000000  1
  Eu  Eu0  1  0.00000000  -0.00000000  0.00000000  1
  B  B0  1  0.39960896  0.10039104  0.10039104  1
  B  B1  1  0.89960996  0.60039204  0.60039004  1
  B  B2  1  0.39960996  0.39960896  0.10039004  1
  B  B3  1  0.89960896  0.89960896  0.60039004  1
  B  B4  1  0.10039104  0.39960896  0.10039104  1
  B  B5  1  0.60039104  0.89960896  0.60039104  1
  B  B6  1  0.10039104  0.10039104  0.39960996  1
  B  B7  1  0.60039004  0.60039104  0.89960996  1
  B  B8  1  0.39960896  0.10039104  0.39960896  1
  B  B9  1  0.89960896  0.60039104  0.89960896  1
  B  B10  1  0.10039004  0.39960796  0.39960996  1
  B  B11  1  0.60039104  0.89960896  0.89960896  1
loop_
_geom_bond_atom_site_label_1
_geom_bond_atom_site_label_2
_geom_bond_distance
_geom_bond_site_symmetry_2
B0 B11 1.667766 1_544
B0 B8 1.757443 1_555
B0 B6 1.757444 1_555
B0 B4 1.757445 1_555
B0 B2 1.757461 1_555
B0 La0 3.052814 1_554
B0 La0 3.052828 1_545
B0 Eu0 3.052828 1_655
B0 Eu0 3.052839 1_555
B1 B10 1.667766 1_655
B1 B9 1.757443 1_555
B1 B5 1.757445 1_555
B1 B3 1.757452 1_555
B1 B7 1.757453 1_555
B1 Eu0 3.052808 1_665
B1 La0 3.052822 1_655
B1 Eu0 3.052834 1_656
B1 La0 3.052845 1_555
B2 B7 1.667761 1_554
B2 B8 1.757445 1_555
B2 B4 1.757452 1_555
B2 La0 3.052811 1_554
B2 Eu0 3.052820 1_655
B2 Eu0 3.052833 1_565
B2 La0 3.052834 1_555
B3 B6 1.667769 1_665
B3 B9 1.757445 1_555
B3 B5 1.757447 1_555
B3 Eu0 3.052809 1_665
B3 La0 3.052824 1_655
B3 La0 3.052831 1_565
B3 Eu0 3.052838 1_666
B4 B9 1.667756 1_454
B4 B6 1.757445 1_555
B4 La0 3.052815 1_554
B4 La0 3.052822 1_455
B4 Eu0 3.052849 1_565
B4 Eu0 3.052852 1_555
B5 B8 1.667756 1_565
B5 B7 1.757445 1_555
B5 Eu0 3.052815 1_665
B5 Eu0 3.052822 1_566
B5 La0 3.052849 1_565
B5 La0 3.052852 1_555
B6 B8 1.757447 1_555
B6 Eu0 3.052809 1_556
B6 La0 3.052824 1_455
B6 La0 3.052831 1_545
B6 Eu0 3.052838 1_555
B7 B9 1.757452 1_555
B7 La0 3.052811 1_556
B7 Eu0 3.052820 1_566
B7 Eu0 3.052833 1_656
B7 La0 3.052834 1_555
B8 Eu0 3.052815 1_556
B8 Eu0 3.052822 1_655
B8 La0 3.052849 1_545
B8 La0 3.052852 1_555
B9 La0 3.052815 1_556
B9 La0 3.052822 1_655
B9 Eu0 3.052849 1_656
B9 Eu0 3.052852 1_666
B10 B4 1.757443 1_555
B10 B8 1.757445 1_555
B10 B6 1.757452 1_555
B10 B2 1.757453 1_555
B10 Eu0 3.052808 1_556
B10 La0 3.052822 1_455
B10 Eu0 3.052834 1_565
B10 La0 3.052845 1_555
B11 B5 1.757443 1_555
B11 B3 1.757444 1_555
B11 B9 1.757445 1_555
B11 B7 1.757461 1_555
B11 La0 3.052814 1_556
B11 La0 3.052828 1_565
B11 Eu0 3.052828 1_566
B11 Eu0 3.052839 1_666
