# generated using pymatgen
data_Rb3SmF6
_symmetry_space_group_name_H-M   'P 1'
_cell_length_a   7.12304690
_cell_length_b   7.12304690
_cell_length_c   7.12304690
_cell_angle_alpha   117.51246151
_cell_angle_beta   117.51246151
_cell_angle_gamma   94.36540262
_symmetry_Int_Tables_number   1
_chemical_formula_structural   Rb3SmF6
_chemical_formula_sum   'Rb3 Sm1 F6'
_cell_volume   264.33239181
_cell_formula_units_Z   1
loop_
 _symmetry_equiv_pos_site_id
 _symmetry_equiv_pos_as_xyz
  1  'x, y, z'
loop_
 _atom_site_type_symbol
 _atom_site_label
 _atom_site_symmetry_multiplicity
 _atom_site_fract_x
 _atom_site_fract_y
 _atom_site_fract_z
 _atom_site_occupancy
  Rb  Rb0  1  0.75000000  0.25000000  0.50000000  1
  Rb  Rb1  1  0.25000000  0.75000000  0.50000000  1
  Rb  Rb2  1  0.50000000  0.50000000  0.00000000  1
  Sm  Sm0  1  0.00000000  0.00000000  0.00000000  1
  F  F0  1  0.00000000  0.30496800  0.30496800  1
  F  F1  1  0.00000000  0.69503200  0.69503200  1
  F  F2  1  0.30496800  0.00000000  0.30496800  1
  F  F3  1  0.69503200  0.00000000  0.69503200  1
  F  F4  1  0.23458900  0.23458900  0.00000000  1
  F  F5  1  0.76541100  0.76541100  0.00000000  1
loop_
_geom_bond_atom_site_label_1
_geom_bond_atom_site_label_2
_geom_bond_distance
_geom_bond_site_symmetry_2
F0 Sm0 2.253460 1_555
F0 Rb0 2.817146 1_455
F0 Rb1 2.817146 1_555
F1 Sm0 2.253460 1_566
F1 Rb0 2.817146 1_455
F1 Rb1 2.817146 1_555
F2 Sm0 2.253460 1_555
F2 Rb0 2.817146 1_555
F2 Rb1 2.817146 1_545
F3 Sm0 2.253460 1_656
F3 Rb1 2.817146 1_545
F3 Rb0 2.817146 1_555
F4 Sm0 2.271417 1_555
F4 Rb2 2.569853 1_555
F5 Sm0 2.271417 1_665
F5 Rb2 2.569853 1_555
