# generated using pymatgen
data_BaSrSmSbO6
_symmetry_space_group_name_H-M   'P 1'
_cell_length_a   6.02875011
_cell_length_b   6.03394920
_cell_length_c   8.51935956
_cell_angle_alpha   90.26578017
_cell_angle_beta   89.72012137
_cell_angle_gamma   89.85383150
_symmetry_Int_Tables_number   1
_chemical_formula_structural   BaSrSmSbO6
_chemical_formula_sum   'Ba2 Sr2 Sm2 Sb2 O12'
_cell_volume   309.90214855
_cell_formula_units_Z   2
loop_
 _symmetry_equiv_pos_site_id
 _symmetry_equiv_pos_as_xyz
  1  'x, y, z'
loop_
 _atom_site_type_symbol
 _atom_site_label
 _atom_site_symmetry_multiplicity
 _atom_site_fract_x
 _atom_site_fract_y
 _atom_site_fract_z
 _atom_site_occupancy
  Ba  Ba0  1  0.99617578  0.01712471  0.24992584  1
  Ba  Ba1  1  0.00382422  0.98287529  0.75007416  1
  Sr  Sr0  1  0.50451399  0.52830830  0.25203373  1
  Sr  Sr1  1  0.49548601  0.47169170  0.74796627  1
  Sm  Sm0  1  0.50000000  -0.00000000  -0.00000000  1
  Sm  Sm1  1  0.00000000  0.50000000  0.50000000  1
  Sb  Sb0  1  0.00000000  0.50000000  -0.00000000  1
  Sb  Sb1  1  0.50000000  -0.00000000  0.50000000  1
  O  O0  1  0.20797987  0.24119986  0.96887769  1
  O  O1  1  0.30067768  0.73372899  0.53678413  1
  O  O2  1  0.79202013  0.75880014  0.03112231  1
  O  O3  1  0.69932232  0.26627101  0.46321587  1
  O  O4  1  0.26148317  0.70376037  0.96074293  1
  O  O5  1  0.24033134  0.20786519  0.52423806  1
  O  O6  1  0.73851683  0.29623963  0.03925707  1
  O  O7  1  0.75966866  0.79213481  0.47576194  1
  O  O8  1  0.44788957  0.96952300  0.26703014  1
  O  O9  1  0.07273789  0.49984679  0.23241129  1
  O  O10  1  0.55211043  0.03047700  0.73296986  1
  O  O11  1  0.92726211  0.50015321  0.76758871  1
loop_
_geom_bond_atom_site_label_1
_geom_bond_atom_site_label_2
_geom_bond_distance
_geom_bond_site_symmetry_2
Ba0 O2 2.724787 1_545
Ba0 O8 2.742299 1_645
Ba0 O7 2.754096 1_545
Ba0 O6 2.917610 1_555
Ba0 O3 2.948538 1_555
Ba0 O9 2.954568 1_655
Ba0 O5 2.994989 1_655
Ba0 O0 3.033225 1_654
Ba0 O9 3.156745 1_645
Ba1 O0 2.724787 1_565
Ba1 O10 2.742299 1_465
Ba1 O5 2.754096 1_565
Ba1 O4 2.917610 1_555
Ba1 O1 2.948538 1_555
Ba1 O11 2.954568 1_455
Ba1 O7 2.994989 1_455
Ba1 O2 3.033225 1_456
Ba1 O11 3.156745 1_465
O0 Sb0 2.015921 1_556
O0 Sm0 2.298464 1_556
O0 Sr1 2.912958 1_555
O1 Sb1 2.033327 1_565
O1 Sm1 2.321118 1_555
O1 Sr1 2.674645 1_555
O1 Sr0 2.977692 1_555
O2 Sb0 2.015921 1_655
O2 Sm0 2.298464 1_565
O2 Sr0 2.912958 1_555
O3 Sb1 2.033327 1_555
O3 Sm1 2.321118 1_655
O3 Sr0 2.674645 1_555
O3 Sr1 2.977692 1_555
O4 Sb0 2.029068 1_556
O4 Sm0 2.320987 1_566
O4 Sr1 2.679246 1_555
O4 Sr0 3.078617 1_556
O5 Sb1 2.012689 1_555
O5 Sm1 2.289633 1_555
O5 Sr1 2.923415 1_555
O6 Sb0 2.029068 1_655
O6 Sm0 2.320987 1_555
O6 Sr0 2.679246 1_555
O6 Sr1 3.078617 1_554
O7 Sb1 2.012689 1_565
O7 Sm1 2.289633 1_655
O7 Sr0 2.923415 1_555
O8 Sb1 2.018604 1_565
O8 Sm0 2.303258 1_565
O8 Sr0 2.685574 1_555
O9 Sb0 2.030069 1_555
O9 Sm1 2.319369 1_555
O9 Sr0 2.615278 1_555
O10 Sb1 2.018604 1_555
O10 Sm0 2.303258 1_556
O10 Sr1 2.685574 1_555
O11 Sb0 2.030069 1_656
O11 Sm1 2.319369 1_655
O11 Sr1 2.615278 1_555
