# generated using pymatgen
data_Te4Mo3WS4
_symmetry_space_group_name_H-M   'P 1'
_cell_length_a   3.35786937
_cell_length_b   3.35786937
_cell_length_c   38.29683500
_cell_angle_alpha   90.00000000
_cell_angle_beta   90.00000000
_cell_angle_gamma   119.99998767
_symmetry_Int_Tables_number   1
_chemical_formula_structural   Te4Mo3WS4
_chemical_formula_sum   'Te4 Mo3 W1 S4'
_cell_volume   373.95656704
_cell_formula_units_Z   1
loop_
 _symmetry_equiv_pos_site_id
 _symmetry_equiv_pos_as_xyz
  1  'x, y, z'
loop_
 _atom_site_type_symbol
 _atom_site_label
 _atom_site_symmetry_multiplicity
 _atom_site_fract_x
 _atom_site_fract_y
 _atom_site_fract_z
 _atom_site_occupancy
  Te  Te0  1  0.66666700  0.33333300  0.04453300  1
  Te  Te1  1  0.66666700  0.33333300  0.42024600  1
  Te  Te2  1  0.66666700  0.33333300  0.14331900  1
  Te  Te3  1  0.66666700  0.33333300  0.51906100  1
  Mo  Mo0  1  0.33333300  0.66666700  0.09390400  1
  Mo  Mo1  1  0.33333300  0.66666700  0.46966200  1
  Mo  Mo2  1  0.66666700  0.33333300  0.28178800  1
  W  W0  1  0.66666700  0.33333300  0.65755700  1
  S  S0  1  0.33333300  0.66666700  0.32131500  1
  S  S1  1  0.33333300  0.66666700  0.69722300  1
  S  S2  1  0.33333300  0.66666700  0.24226800  1
  S  S3  1  0.33333300  0.66666700  0.61787100  1
loop_
_geom_bond_atom_site_label_1
_geom_bond_atom_site_label_2
_geom_bond_distance
_geom_bond_site_symmetry_2
Mo0 Te0 2.708019 1_565
Mo0 Te0 2.708019 1_455
Mo0 Te0 2.708023 1_555
Mo0 Te2 2.709196 1_565
Mo0 Te2 2.709196 1_455
Mo0 Te2 2.709200 1_555
Mo1 Te3 2.708768 1_455
Mo1 Te3 2.708768 1_565
Mo1 Te3 2.708772 1_555
Mo1 Te1 2.709223 1_455
Mo1 Te1 2.709223 1_565
Mo1 Te1 2.709227 1_555
Mo2 S2 2.459487 1_545
Mo2 S2 2.459487 1_655
Mo2 S2 2.459491 1_555
Mo2 S0 2.459652 1_545
Mo2 S0 2.459652 1_655
Mo2 S0 2.459656 1_555
S1 W0 2.462932 1_455
S1 W0 2.462932 1_565
S1 W0 2.462936 1_555
S3 W0 2.463404 1_455
S3 W0 2.463404 1_565
S3 W0 2.463409 1_555
