# generated using pymatgen
data_Y4Fe28BC
_symmetry_space_group_name_H-M   'P 1'
_cell_length_a   8.73566082
_cell_length_b   8.73566082
_cell_length_c   11.83898600
_cell_angle_alpha   90.00000000
_cell_angle_beta   90.00000000
_cell_angle_gamma   90.00447084
_symmetry_Int_Tables_number   1
_chemical_formula_structural   Y4Fe28BC
_chemical_formula_sum   'Y8 Fe56 B2 C2'
_cell_volume   903.45397368
_cell_formula_units_Z   2
loop_
 _symmetry_equiv_pos_site_id
 _symmetry_equiv_pos_as_xyz
  1  'x, y, z'
loop_
 _atom_site_type_symbol
 _atom_site_label
 _atom_site_symmetry_multiplicity
 _atom_site_fract_x
 _atom_site_fract_y
 _atom_site_fract_z
 _atom_site_occupancy
  Y  Y0  1  0.23382500  0.23382500  0.50000000  1
  Y  Y1  1  0.76617500  0.76617500  0.50000000  1
  Y  Y2  1  0.73932200  0.26067800  0.00000000  1
  Y  Y3  1  0.26067800  0.73932200  0.00000000  1
  Y  Y4  1  0.35761400  0.64238600  0.50000000  1
  Y  Y5  1  0.64238600  0.35761400  0.50000000  1
  Y  Y6  1  0.85759500  0.85759500  0.00000000  1
  Y  Y7  1  0.14240500  0.14240500  0.00000000  1
  Fe  Fe0  1  0.50000000  0.50000000  0.10807100  1
  Fe  Fe1  1  0.00000000  0.00000000  0.61583400  1
  Fe  Fe2  1  0.50000000  0.50000000  0.89192900  1
  Fe  Fe3  1  0.00000000  0.00000000  0.38416600  1
  Fe  Fe4  1  0.40248000  0.40248000  0.29498700  1
  Fe  Fe5  1  0.59752000  0.59752000  0.29498700  1
  Fe  Fe6  1  0.90289300  0.09710700  0.79984600  1
  Fe  Fe7  1  0.09710700  0.90289300  0.79984600  1
  Fe  Fe8  1  0.59752000  0.59752000  0.70501300  1
  Fe  Fe9  1  0.40248000  0.40248000  0.70501300  1
  Fe  Fe10  1  0.09710700  0.90289300  0.20015400  1
  Fe  Fe11  1  0.90289300  0.09710700  0.20015400  1
  Fe  Fe12  1  0.18363700  0.18363700  0.25305000  1
  Fe  Fe13  1  0.81636300  0.81636300  0.25305000  1
  Fe  Fe14  1  0.68238400  0.31761600  0.75539700  1
  Fe  Fe15  1  0.31761600  0.68238400  0.75539700  1
  Fe  Fe16  1  0.81636300  0.81636300  0.74695000  1
  Fe  Fe17  1  0.18363700  0.18363700  0.74695000  1
  Fe  Fe18  1  0.31761600  0.68238400  0.24460300  1
  Fe  Fe19  1  0.68238400  0.31761600  0.24460300  1
  Fe  Fe20  1  0.50000000  0.00000000  0.50000000  1
  Fe  Fe21  1  0.00000000  0.50000000  0.00000000  1
  Fe  Fe22  1  0.00000000  0.50000000  0.50000000  1
  Fe  Fe23  1  0.50000000  0.00000000  0.00000000  1
  Fe  Fe24  1  0.27591400  0.93406300  0.37349000  1
  Fe  Fe25  1  0.72408600  0.06593700  0.37349000  1
  Fe  Fe26  1  0.77449600  0.56570600  0.87986000  1
  Fe  Fe27  1  0.22550400  0.43429400  0.87986000  1
  Fe  Fe28  1  0.72408600  0.06593700  0.62651000  1
  Fe  Fe29  1  0.27591400  0.93406300  0.62651000  1
  Fe  Fe30  1  0.22550400  0.43429400  0.12014000  1
  Fe  Fe31  1  0.77449600  0.56570600  0.12014000  1
  Fe  Fe32  1  0.06593700  0.72408600  0.37349000  1
  Fe  Fe33  1  0.93406300  0.27591400  0.37349000  1
  Fe  Fe34  1  0.43429400  0.22550400  0.87986000  1
  Fe  Fe35  1  0.56570600  0.77449600  0.87986000  1
  Fe  Fe36  1  0.93406300  0.27591400  0.62651000  1
  Fe  Fe37  1  0.06593700  0.72408600  0.62651000  1
  Fe  Fe38  1  0.56570600  0.77449600  0.12014000  1
  Fe  Fe39  1  0.43429400  0.22550400  0.12014000  1
  Fe  Fe40  1  0.46274900  0.14192200  0.32391100  1
  Fe  Fe41  1  0.53725100  0.85807800  0.32391100  1
  Fe  Fe42  1  0.96321400  0.35935800  0.82523900  1
  Fe  Fe43  1  0.03678600  0.64064200  0.82523900  1
  Fe  Fe44  1  0.53725100  0.85807800  0.67608900  1
  Fe  Fe45  1  0.46274900  0.14192200  0.67608900  1
  Fe  Fe46  1  0.03678600  0.64064200  0.17476100  1
  Fe  Fe47  1  0.96321400  0.35935800  0.17476100  1
  Fe  Fe48  1  0.85807800  0.53725100  0.32391100  1
  Fe  Fe49  1  0.14192200  0.46274900  0.32391100  1
  Fe  Fe50  1  0.64064200  0.03678600  0.82523900  1
  Fe  Fe51  1  0.35935800  0.96321400  0.82523900  1
  Fe  Fe52  1  0.14192200  0.46274900  0.67608900  1
  Fe  Fe53  1  0.85807800  0.53725100  0.67608900  1
  Fe  Fe54  1  0.35935800  0.96321400  0.17476100  1
  Fe  Fe55  1  0.64064200  0.03678600  0.17476100  1
  B  B0  1  0.12686400  0.87313600  0.50000000  1
  B  B1  1  0.87313600  0.12686400  0.50000000  1
  C  C0  1  0.62742400  0.62742400  0.00000000  1
  C  C1  1  0.37257600  0.37257600  0.00000000  1
loop_
_geom_bond_atom_site_label_1
_geom_bond_atom_site_label_2
_geom_bond_distance
_geom_bond_site_symmetry_2
Fe0 Fe4 2.519577 1_555
Fe0 Fe5 2.519577 1_555
Fe0 Fe18 2.773086 1_555
Fe0 Fe19 2.773086 1_555
Fe0 Y2 3.221676 1_555
Fe0 Y3 3.221676 1_555
Fe1 Fe7 2.487016 1_545
Fe1 Fe6 2.487016 1_455
Fe1 Fe17 2.748823 1_555
Fe1 Fe16 2.748823 1_445
Fe1 Y1 3.197582 1_445
Fe1 Y0 3.197582 1_555
Fe2 Fe9 2.519577 1_555
Fe2 Fe8 2.519577 1_555
Fe2 Y2 3.221676 1_556
Fe2 Y3 3.221676 1_556
Fe3 Y1 3.197582 1_445
Fe3 Y0 3.197582 1_555
Fe4 Fe40 2.361245 1_555
Fe4 Fe49 2.361245 1_555
Fe4 Fe5 2.409448 1_555
Fe4 Y0 3.198750 1_555
Fe4 Y4 3.230618 1_555
Fe4 Y5 3.230618 1_555
Fe5 Y1 3.198750 1_555
Fe5 Y5 3.230618 1_555
Fe5 Y4 3.230618 1_555
Fe6 Fe7 2.399431 1_645
Fe6 Y2 3.114311 1_556
Fe6 Y6 3.185790 1_546
Fe6 Y7 3.185790 1_656
Fe7 Y3 3.114311 1_556
Fe7 Y6 3.185790 1_456
Fe7 Y7 3.185790 1_566
Fe8 Fe9 2.409448 1_555
Fe8 Y1 3.198750 1_555
Fe8 Y4 3.230618 1_555
Fe8 Y5 3.230618 1_555
Fe9 Y0 3.198750 1_555
Fe9 Y4 3.230618 1_555
Fe9 Y5 3.230618 1_555
Fe10 Fe46 2.369862 1_555
Fe10 Fe54 2.369862 1_555
Fe10 Fe11 2.399431 1_465
Fe10 Fe3 2.487016 1_565
Fe10 Fe32 2.593283 1_555
Fe10 Fe24 2.593283 1_555
Fe10 Fe13 2.641579 1_455
Fe10 Fe12 2.641579 1_565
Fe10 Fe18 2.774653 1_555
Fe10 Y3 3.114311 1_555
Fe10 Y6 3.185790 1_455
Fe10 Y7 3.185790 1_565
Fe11 Fe55 2.369862 1_555
Fe11 Fe47 2.369862 1_555
Fe11 Fe3 2.487016 1_655
Fe11 Fe25 2.593283 1_555
Fe11 Fe33 2.593283 1_555
Fe11 Fe13 2.641579 1_545
Fe11 Fe12 2.641579 1_655
Fe11 Fe19 2.774653 1_555
Fe11 Y2 3.114311 1_555
Fe11 Y6 3.185790 1_545
Fe11 Y7 3.185790 1_655
Fe12 Fe40 2.604165 1_555
Fe12 Fe49 2.604165 1_555
Fe12 Fe47 2.631271 1_455
Fe12 Fe54 2.631271 1_545
Fe12 Fe30 2.721064 1_555
Fe12 Fe39 2.721064 1_555
Fe12 Fe33 2.726990 1_455
Fe12 Fe24 2.726990 1_545
Fe12 Fe4 2.748712 1_555
Fe12 Fe3 2.748823 1_555
Fe12 Y0 2.988655 1_555
Fe12 Y7 3.038849 1_555
Fe13 Fe41 2.604165 1_555
Fe13 Fe48 2.604165 1_555
Fe13 Fe55 2.631271 1_565
Fe13 Fe46 2.631271 1_655
Fe13 Fe31 2.721064 1_555
Fe13 Fe38 2.721064 1_555
Fe13 Fe25 2.726990 1_565
Fe13 Fe32 2.726990 1_655
Fe13 Fe5 2.748712 1_555
Fe13 Fe3 2.748823 1_665
Fe13 Y1 2.988655 1_555
Fe13 Y6 3.038849 1_555
Fe14 Fe50 2.614361 1_555
Fe14 Fe42 2.614361 1_555
Fe14 Fe9 2.623818 1_555
Fe14 Fe8 2.623818 1_555
Fe14 Fe45 2.630207 1_555
Fe14 Fe53 2.630207 1_555
Fe14 Fe28 2.700915 1_555
Fe14 Fe36 2.700915 1_555
Fe14 Fe26 2.741412 1_555
Fe14 Fe34 2.741412 1_555
Fe14 Fe2 2.773086 1_555
Fe14 Fe6 2.774653 1_555
Fe14 Y2 2.980065 1_556
Fe14 Y5 3.063756 1_555
Fe15 Fe51 2.614361 1_555
Fe15 Fe43 2.614361 1_555
Fe15 Fe9 2.623818 1_555
Fe15 Fe8 2.623818 1_555
Fe15 Fe52 2.630207 1_555
Fe15 Fe44 2.630207 1_555
Fe15 Fe29 2.700915 1_555
Fe15 Fe37 2.700915 1_555
Fe15 Fe27 2.741412 1_555
Fe15 Fe35 2.741412 1_555
Fe15 Fe2 2.773086 1_555
Fe15 Fe7 2.774653 1_555
Fe15 Y3 2.980065 1_556
Fe15 Y4 3.063756 1_555
Fe16 Fe53 2.604165 1_555
Fe16 Fe44 2.604165 1_555
Fe16 Fe43 2.631271 1_655
Fe16 Fe50 2.631271 1_565
Fe16 Fe6 2.641579 1_565
Fe16 Fe7 2.641579 1_655
Fe16 Fe35 2.721064 1_555
Fe16 Fe26 2.721064 1_555
Fe16 Fe37 2.726990 1_655
Fe16 Fe28 2.726990 1_565
Fe16 Fe8 2.748712 1_555
Fe16 Y1 2.988655 1_555
Fe16 Y6 3.038849 1_556
Fe17 Fe45 2.604165 1_555
Fe17 Fe52 2.604165 1_555
Fe17 Fe42 2.631271 1_455
Fe17 Fe51 2.631271 1_545
Fe17 Fe6 2.641579 1_455
Fe17 Fe7 2.641579 1_545
Fe17 Fe27 2.721064 1_555
Fe17 Fe34 2.721064 1_555
Fe17 Fe29 2.726990 1_545
Fe17 Fe36 2.726990 1_455
Fe17 Fe9 2.748712 1_555
Fe17 Y0 2.988655 1_555
Fe17 Y7 3.038849 1_556
Fe18 Fe54 2.614361 1_555
Fe18 Fe46 2.614361 1_555
Fe18 Fe4 2.623818 1_555
Fe18 Fe5 2.623818 1_555
Fe18 Fe49 2.630207 1_555
Fe18 Fe41 2.630207 1_555
Fe18 Fe32 2.700915 1_555
Fe18 Fe24 2.700915 1_555
Fe18 Fe30 2.741412 1_555
Fe18 Fe38 2.741412 1_555
Fe18 Y3 2.980065 1_555
Fe18 Y4 3.063756 1_555
Fe19 Fe47 2.614361 1_555
Fe19 Fe55 2.614361 1_555
Fe19 Fe4 2.623818 1_555
Fe19 Fe5 2.623818 1_555
Fe19 Fe48 2.630207 1_555
Fe19 Fe40 2.630207 1_555
Fe19 Fe33 2.700915 1_555
Fe19 Fe25 2.700915 1_555
Fe19 Fe31 2.741412 1_555
Fe19 Fe39 2.741412 1_555
Fe19 Y2 2.980065 1_555
Fe19 Y5 3.063756 1_555
Fe20 Fe41 2.447254 1_545
Fe20 Fe40 2.447254 1_555
Fe20 Fe44 2.447254 1_545
Fe20 Fe45 2.447254 1_555
Fe20 Fe28 2.531170 1_555
Fe20 Fe25 2.531170 1_555
Fe20 Fe24 2.531170 1_545
Fe20 Fe29 2.531170 1_545
Fe20 Y0 3.095100 1_555
Fe20 Y1 3.095100 1_545
Fe20 Y4 3.362419 1_545
Fe20 Y5 3.362419 1_555
Fe21 Fe47 2.427632 1_455
Fe21 Fe46 2.427632 1_555
Fe21 Fe42 2.427632 1_454
Fe21 Fe43 2.427632 1_554
Fe21 Fe31 2.496655 1_455
Fe21 Fe27 2.496655 1_554
Fe21 Fe30 2.496655 1_555
Fe21 Fe26 2.496655 1_454
Fe21 Y2 3.091218 1_455
Fe21 Y3 3.091218 1_555
Fe21 Y7 3.362507 1_555
Fe21 Y6 3.362507 1_455
Fe22 Fe49 2.447254 1_555
Fe22 Fe48 2.447254 1_455
Fe22 Fe52 2.447254 1_555
Fe22 Fe53 2.447254 1_455
Fe22 Fe37 2.531170 1_555
Fe22 Fe33 2.531170 1_455
Fe22 Fe36 2.531170 1_455
Fe22 Fe32 2.531170 1_555
Fe22 Y0 3.095100 1_555
Fe22 Y1 3.095100 1_455
Fe22 Y5 3.362419 1_455
Fe22 Y4 3.362419 1_555
Fe23 Fe54 2.427632 1_545
Fe23 Fe55 2.427632 1_555
Fe23 Fe51 2.427632 1_544
Fe23 Fe50 2.427632 1_554
Fe23 Fe39 2.496655 1_555
Fe23 Fe38 2.496655 1_545
Fe23 Fe35 2.496655 1_544
Fe23 Fe34 2.496655 1_554
Fe23 Y3 3.091218 1_545
Fe23 Y2 3.091218 1_555
Fe23 Y6 3.362507 1_545
Fe23 Y7 3.362507 1_555
Fe24 Fe41 2.448925 1_555
Fe24 Fe54 2.476207 1_555
Fe24 Fe40 2.510972 1_565
Fe24 Y0 3.039039 1_565
Fe24 Y4 3.040587 1_555
Fe25 Fe40 2.448925 1_555
Fe25 Fe55 2.476207 1_555
Fe25 Fe41 2.510972 1_545
Fe25 Y1 3.039039 1_545
Fe25 Y5 3.040587 1_555
Fe26 Fe43 2.469089 1_655
Fe26 Fe42 2.527004 1_555
Fe26 Fe53 2.532746 1_555
Fe26 Fe8 2.598533 1_555
Fe26 Y6 3.008557 1_556
Fe26 Y2 3.036039 1_556
Fe27 Fe42 2.469089 1_455
Fe27 Fe43 2.527004 1_555
Fe27 Fe52 2.532746 1_555
Fe27 Fe9 2.598533 1_555
Fe27 Y7 3.008557 1_556
Fe27 Y3 3.036039 1_556
Fe28 Fe45 2.448925 1_555
Fe28 Fe50 2.476207 1_555
Fe28 Fe44 2.510972 1_545
Fe28 Fe6 2.593283 1_555
Fe28 Y1 3.039039 1_545
Fe28 Y5 3.040587 1_555
Fe29 Fe44 2.448925 1_555
Fe29 Fe51 2.476207 1_555
Fe29 Fe45 2.510972 1_565
Fe29 Fe7 2.593283 1_555
Fe29 Y0 3.039039 1_565
Fe29 Y4 3.040587 1_555
Fe30 Fe47 2.469089 1_455
Fe30 Fe46 2.527004 1_555
Fe30 Fe49 2.532746 1_555
Fe30 Fe4 2.598533 1_555
Fe30 Y7 3.008557 1_555
Fe30 Y3 3.036039 1_555
Fe31 Fe46 2.469089 1_655
Fe31 Fe47 2.527004 1_555
Fe31 Fe48 2.532746 1_555
Fe31 Fe5 2.598533 1_555
Fe31 Y6 3.008557 1_555
Fe31 Y2 3.036039 1_555
Fe32 Fe49 2.448925 1_555
Fe32 Fe46 2.476207 1_555
Fe32 Fe48 2.510972 1_455
Fe32 Y1 3.039039 1_455
Fe32 Y4 3.040587 1_555
Fe33 Fe48 2.448925 1_555
Fe33 Fe47 2.476207 1_555
Fe33 Fe49 2.510972 1_655
Fe33 Y0 3.039039 1_655
Fe33 Y5 3.040587 1_555
Fe34 Fe51 2.469089 1_545
Fe34 Fe50 2.527004 1_555
Fe34 Fe45 2.532746 1_555
Fe34 Fe9 2.598533 1_555
Fe34 Y7 3.008557 1_556
Fe34 Y2 3.036039 1_556
Fe35 Fe50 2.469089 1_565
Fe35 Fe51 2.527004 1_555
Fe35 Fe44 2.532746 1_555
Fe35 Fe8 2.598533 1_555
Fe35 Y6 3.008557 1_556
Fe35 Y3 3.036039 1_556
Fe36 Fe53 2.448925 1_555
Fe36 Fe42 2.476207 1_555
Fe36 Fe52 2.510972 1_655
Fe36 Fe6 2.593283 1_555
Fe36 Y0 3.039039 1_655
Fe36 Y5 3.040587 1_555
Fe37 Fe52 2.448925 1_555
Fe37 Fe43 2.476207 1_555
Fe37 Fe53 2.510972 1_455
Fe37 Fe7 2.593283 1_555
Fe37 Y1 3.039039 1_455
Fe37 Y4 3.040587 1_555
Fe38 Fe55 2.469089 1_565
Fe38 Fe54 2.527004 1_555
Fe38 Fe41 2.532746 1_555
Fe38 Fe5 2.598533 1_555
Fe38 Y6 3.008557 1_555
Fe38 Y3 3.036039 1_555
Fe39 Fe54 2.469089 1_545
Fe39 Fe55 2.527004 1_555
Fe39 Fe40 2.532746 1_555
Fe39 Fe4 2.598533 1_555
Fe39 Y7 3.008557 1_555
Fe39 Y2 3.036039 1_555
Fe40 Fe54 2.524017 1_545
Fe40 Fe55 2.525211 1_555
Fe40 Fe41 2.563604 1_545
Fe40 Y0 2.998339 1_555
Fe40 Y5 3.218442 1_555
Fe41 Fe5 2.361245 1_555
Fe41 Fe55 2.524017 1_565
Fe41 Fe54 2.525211 1_555
Fe41 Y1 2.998339 1_555
Fe41 Y4 3.218442 1_555
Fe42 Fe6 2.369862 1_555
Fe42 Fe52 2.524017 1_655
Fe42 Fe53 2.525211 1_555
Fe42 Fe43 2.539814 1_655
Fe42 Y2 2.974710 1_556
Fe42 Y7 3.213006 1_656
Fe43 Fe7 2.369862 1_555
Fe43 Fe53 2.524017 1_455
Fe43 Fe52 2.525211 1_555
Fe43 Y3 2.974710 1_556
Fe43 Y6 3.213006 1_456
Fe44 Fe8 2.361245 1_555
Fe44 Fe50 2.524017 1_565
Fe44 Fe51 2.525211 1_555
Fe44 Fe45 2.563604 1_565
Fe44 Y1 2.998339 1_555
Fe44 Y4 3.218442 1_555
Fe45 Fe9 2.361245 1_555
Fe45 Fe51 2.524017 1_545
Fe45 Fe50 2.525211 1_555
Fe45 Y0 2.998339 1_555
Fe45 Y5 3.218442 1_555
Fe46 Fe48 2.524017 1_455
Fe46 Fe49 2.525211 1_555
Fe46 Fe47 2.539814 1_455
Fe46 Y3 2.974710 1_555
Fe46 Y6 3.213006 1_455
Fe47 Fe49 2.524017 1_655
Fe47 Fe48 2.525211 1_555
Fe47 Y2 2.974710 1_555
Fe47 Y7 3.213006 1_655
Fe48 Fe5 2.361245 1_555
Fe48 Fe49 2.563604 1_655
Fe48 Y1 2.998339 1_555
Fe48 Y5 3.218442 1_555
Fe49 Y0 2.998339 1_555
Fe49 Y4 3.218442 1_555
Fe50 Fe6 2.369862 1_555
Fe50 Fe51 2.539814 1_545
Fe50 Y2 2.974710 1_556
Fe50 Y6 3.213006 1_546
Fe51 Fe7 2.369862 1_555
Fe51 Y3 2.974710 1_556
Fe51 Y7 3.213006 1_566
Fe52 Fe9 2.361245 1_555
Fe52 Fe53 2.563604 1_455
Fe52 Y0 2.998339 1_555
Fe52 Y4 3.218442 1_555
Fe53 Fe8 2.361245 1_555
Fe53 Y1 2.998339 1_555
Fe53 Y5 3.218442 1_555
Fe54 Fe55 2.539814 1_565
Fe54 Y3 2.974710 1_555
Fe54 Y7 3.213006 1_565
Fe55 Y2 2.974710 1_555
Fe55 Y6 3.213006 1_545
B0 Fe29 2.054692 1_555
B0 Fe24 2.054692 1_555
B0 Fe32 2.054692 1_555
B0 Fe37 2.054692 1_555
B0 Fe1 2.082596 1_565
B0 Fe3 2.082596 1_565
B0 Y4 2.850817 1_555
B1 Fe33 2.054692 1_555
B1 Fe36 2.054692 1_555
B1 Fe25 2.054692 1_555
B1 Fe28 2.054692 1_555
B1 Fe1 2.082596 1_655
B1 Fe3 2.082596 1_655
B1 Y5 2.850817 1_555
C0 Fe38 1.991096 1_555
C0 Fe31 1.991096 1_555
C0 Fe26 1.991096 1_554
C0 Fe35 1.991096 1_554
C0 Fe2 2.028529 1_554
C0 Fe0 2.028529 1_555
C0 Y6 2.843442 1_555
C1 Fe30 1.991096 1_555
C1 Fe39 1.991096 1_555
C1 Fe27 1.991096 1_554
C1 Fe34 1.991096 1_554
C1 Fe2 2.028529 1_554
C1 Fe0 2.028529 1_555
C1 Y7 2.843442 1_555
