# generated using pymatgen
data_K2CrO4
_symmetry_space_group_name_H-M   'P 1'
_cell_length_a   5.86819190
_cell_length_b   7.63248930
_cell_length_c   10.32828808
_cell_angle_alpha   89.99927975
_cell_angle_beta   90.00033686
_cell_angle_gamma   90.00044226
_symmetry_Int_Tables_number   1
_chemical_formula_structural   K2CrO4
_chemical_formula_sum   'K8 Cr4 O16'
_cell_volume   462.59278473
_cell_formula_units_Z   4
loop_
 _symmetry_equiv_pos_site_id
 _symmetry_equiv_pos_as_xyz
  1  'x, y, z'
loop_
 _atom_site_type_symbol
 _atom_site_label
 _atom_site_symmetry_multiplicity
 _atom_site_fract_x
 _atom_site_fract_y
 _atom_site_fract_z
 _atom_site_occupancy
  K  K0  1  0.75001107  0.66323927  0.91784709  1
  K  K1  1  0.25000403  0.33675124  0.08215386  1
  K  K2  1  0.75000145  0.16323920  0.58214877  1
  K  K3  1  0.24999193  0.83675627  0.41784464  1
  K  K4  1  0.24997783  0.00906472  0.80277093  1
  K  K5  1  0.74999023  0.99094456  0.19722688  1
  K  K6  1  0.25003155  0.50906292  0.69722968  1
  K  K7  1  0.74999251  0.49094282  0.30277501  1
  Cr  Cr0  1  0.74999748  0.22800589  0.91913081  1
  Cr  Cr1  1  0.25000891  0.77200538  0.08086934  1
  Cr  Cr2  1  0.74998195  0.72799543  0.58087240  1
  Cr  Cr3  1  0.25000782  0.27199458  0.41912920  1
  O  O0  1  0.97907759  0.80054566  0.65594081  1
  O  O1  1  0.47912634  0.19946504  0.34407734  1
  O  O2  1  0.52089994  0.30054477  0.84406398  1
  O  O3  1  0.02088418  0.69947344  0.15594577  1
  O  O4  1  0.02091895  0.19943887  0.34406446  1
  O  O5  1  0.52088529  0.80052315  0.65592137  1
  O  O6  1  0.47913270  0.69945914  0.15593857  1
  O  O7  1  0.97911143  0.30054723  0.84407306  1
  O  O8  1  0.25000548  0.19406986  0.56856904  1
  O  O9  1  0.74998123  0.80591841  0.43143848  1
  O  O10  1  0.24998719  0.69405957  0.93141432  1
  O  O11  1  0.75000024  0.30593141  0.06856971  1
  O  O12  1  0.75000186  0.01274490  0.92071220  1
  O  O13  1  0.25001612  0.98727946  0.07927653  1
  O  O14  1  0.74999398  0.51275245  0.57928626  1
  O  O15  1  0.24998472  0.48724437  0.42071148  1
loop_
_geom_bond_atom_site_label_1
_geom_bond_atom_site_label_2
_geom_bond_distance
_geom_bond_site_symmetry_2
K0 O12 2.667762 1_565
K0 O6 2.941135 1_556
K0 O3 2.941173 1_656
K0 O10 2.946702 1_655
K0 O10 2.946986 1_555
K0 O11 3.140154 1_556
K0 O7 3.170378 1_555
K0 O2 3.170422 1_555
K0 O0 3.197246 1_555
K0 O5 3.197499 1_555
K1 O13 2.667506 1_545
K1 O7 2.941059 1_454
K1 O2 2.941167 1_554
K1 O11 2.946833 1_555
K1 O11 2.946872 1_455
K1 O10 3.140244 1_554
K1 O6 3.170559 1_555
K1 O3 3.170672 1_555
K1 O4 3.197345 1_555
K1 O1 3.197477 1_555
K2 O14 2.667820 1_555
K2 O1 2.940934 1_555
K2 O4 2.941175 1_655
K2 O8 2.946834 1_555
K2 O8 2.946879 1_655
K2 O9 3.140211 1_545
K2 O0 3.170352 1_545
K2 O5 3.170539 1_545
K2 O2 3.197438 1_555
K2 O7 3.197524 1_555
K3 O15 2.667810 1_555
K3 O5 2.941043 1_555
K3 O0 2.941275 1_455
K3 O9 2.946806 1_555
K3 O9 2.946929 1_455
K3 O8 3.140235 1_565
K3 O4 3.170242 1_565
K3 O1 3.170523 1_565
K3 O3 3.197233 1_555
K3 O6 3.197433 1_555
K4 O0 2.712903 1_445
K4 O5 2.713165 1_545
K4 O10 2.746963 1_545
K4 O7 2.767311 1_455
K4 O2 2.767447 1_555
K4 O8 2.800875 1_555
K4 O13 2.860664 1_546
K4 O12 3.176912 1_455
K4 O12 3.177159 1_555
K5 O1 2.712926 1_565
K5 O4 2.712933 1_665
K5 O11 2.746909 1_565
K5 O6 2.767254 1_555
K5 O3 2.767301 1_655
K5 O9 2.801042 1_555
K5 O12 2.860764 1_564
K5 O13 3.176923 1_555
K5 O13 3.177217 1_655
K6 O2 2.712805 1_555
K6 O7 2.713020 1_455
K6 O8 2.746997 1_555
K6 O5 2.767113 1_555
K6 O0 2.767575 1_455
K6 O10 2.800719 1_555
K6 O15 2.860813 1_555
K6 O14 3.176847 1_555
K6 O14 3.177241 1_455
K7 O6 2.712780 1_555
K7 O3 2.712908 1_655
K7 O9 2.746895 1_555
K7 O1 2.767253 1_555
K7 O4 2.767613 1_655
K7 O11 2.800960 1_555
K7 O14 2.860737 1_555
K7 O15 3.176969 1_655
K7 O15 3.177066 1_555
Cr0 O12 1.643058 1_555
Cr0 O2 1.647728 1_555
Cr0 O7 1.647769 1_555
Cr0 O11 1.654086 1_556
Cr1 O13 1.643159 1_555
Cr1 O6 1.647884 1_555
Cr1 O3 1.647888 1_555
Cr1 O10 1.654297 1_554
Cr2 O14 1.642922 1_555
Cr2 O5 1.647622 1_555
Cr2 O0 1.647755 1_555
Cr2 O9 1.654017 1_555
Cr3 O15 1.642973 1_555
Cr3 O4 1.647719 1_555
Cr3 O1 1.647746 1_555
Cr3 O8 1.654079 1_555
