# generated using pymatgen
data_DyAlNi4
_symmetry_space_group_name_H-M   'P 1'
_cell_length_a   5.02979727
_cell_length_b   5.02979727
_cell_length_c   3.85760300
_cell_angle_alpha   90.00000000
_cell_angle_beta   90.00000000
_cell_angle_gamma   119.99999039
_symmetry_Int_Tables_number   1
_chemical_formula_structural   DyAlNi4
_chemical_formula_sum   'Dy1 Al1 Ni4'
_cell_volume   84.51799115
_cell_formula_units_Z   1
loop_
 _symmetry_equiv_pos_site_id
 _symmetry_equiv_pos_as_xyz
  1  'x, y, z'
loop_
 _atom_site_type_symbol
 _atom_site_label
 _atom_site_symmetry_multiplicity
 _atom_site_fract_x
 _atom_site_fract_y
 _atom_site_fract_z
 _atom_site_occupancy
  Dy  Dy0  1  0.33333300  0.66666700  0.00000000  1
  Al  Al0  1  0.66666700  0.33333300  0.00000000  1
  Ni  Ni0  1  0.00000000  0.00000000  0.00000000  1
  Ni  Ni1  1  0.32894900  0.16447500  0.50000000  1
  Ni  Ni2  1  0.83552500  0.16447500  0.50000000  1
  Ni  Ni3  1  0.83552500  0.67105100  0.50000000  1
loop_
_geom_bond_atom_site_label_1
_geom_bond_atom_site_label_2
_geom_bond_distance
_geom_bond_site_symmetry_2
Dy0 Ni0 2.903952 1_565
Dy0 Ni0 2.903957 1_665
Dy0 Ni0 2.903957 1_555
Dy0 Ni1 3.169441 1_565
Dy0 Ni1 3.169441 1_564
Dy0 Ni3 3.169441 1_455
Dy0 Ni3 3.169441 1_454
Dy0 Ni3 3.169441 1_554
Dy0 Ni3 3.169441 1_555
Dy0 Ni1 3.169441 1_554
Dy0 Ni1 3.169441 1_555
Dy0 Ni2 3.169441 1_565
Dy0 Ni2 3.169441 1_564
Dy0 Ni2 3.169441 1_454
Dy0 Ni2 3.169441 1_455
Al0 Ni2 2.425761 1_555
Al0 Ni2 2.425761 1_554
Al0 Ni3 2.425766 1_554
Al0 Ni1 2.425766 1_554
Al0 Ni3 2.425766 1_555
Al0 Ni1 2.425766 1_555
Al0 Ni0 2.903952 1_655
Al0 Dy0 2.903952 1_545
Al0 Dy0 2.903952 1_655
Al0 Ni0 2.903957 1_555
Al0 Ni0 2.903957 1_665
Al0 Dy0 2.903960 1_555
Ni0 Ni1 2.402794 1_555
Ni0 Ni1 2.402794 1_554
Ni0 Ni3 2.402794 1_444
Ni0 Ni3 2.402794 1_445
Ni0 Ni2 2.402797 1_455
Ni0 Ni2 2.402797 1_454
Ni1 Ni2 2.481823 1_455
Ni1 Ni3 2.481823 1_445
Ni1 Ni2 2.547975 1_555
Ni1 Ni3 2.547975 1_555
Ni2 Ni3 2.481823 1_545
Ni2 Ni3 2.547975 1_555
