# generated using pymatgen
data_Li2Mn2CrO6
_symmetry_space_group_name_H-M   'P 1'
_cell_length_a   5.11737047
_cell_length_b   10.25892515
_cell_length_c   5.11756750
_cell_angle_alpha   89.98883644
_cell_angle_beta   118.50231049
_cell_angle_gamma   89.99168129
_symmetry_Int_Tables_number   1
_chemical_formula_structural   Li2Mn2CrO6
_chemical_formula_sum   'Li4 Mn4 Cr2 O12'
_cell_volume   236.10287230
_cell_formula_units_Z   2
loop_
 _symmetry_equiv_pos_site_id
 _symmetry_equiv_pos_as_xyz
  1  'x, y, z'
loop_
 _atom_site_type_symbol
 _atom_site_label
 _atom_site_symmetry_multiplicity
 _atom_site_fract_x
 _atom_site_fract_y
 _atom_site_fract_z
 _atom_site_occupancy
  Li  Li0  1  0.61661700  0.74991800  0.11698600  1
  Li  Li1  1  0.88341300  0.25013400  0.38366100  1
  Li  Li2  1  0.12997200  0.75005900  0.63008300  1
  Li  Li3  1  0.37004200  0.24995700  0.87038900  1
  Mn  Mn0  1  0.66099900  0.00003600  0.33844000  1
  Mn  Mn1  1  0.33414000  0.00004300  0.66526500  1
  Mn  Mn2  1  0.83879600  0.50004500  0.16134800  1
  Mn  Mn3  1  0.16581400  0.50009700  0.83447500  1
  Cr  Cr0  1  0.00140500  0.99993300  0.99765800  1
  Cr  Cr1  1  0.49859200  0.49994800  0.50220200  1
  O  O0  1  0.16646600  0.59536300  0.16184000  1
  O  O1  1  0.33335600  0.09533700  0.33790000  1
  O  O2  1  0.66125200  0.90462400  0.66581400  1
  O  O3  1  0.83891700  0.40466800  0.83419700  1
  O  O4  1  0.65609500  0.10028400  0.00227900  1
  O  O5  1  0.31170900  0.88978600  0.95725300  1
  O  O6  1  0.50325300  0.39957900  0.15688200  1
  O  O7  1  0.84374600  0.60039600  0.49736100  1
  O  O8  1  0.99695200  0.89962700  0.34324000  1
  O  O9  1  0.18840000  0.38982100  0.54278500  1
  O  O10  1  0.45796200  0.61017100  0.81227100  1
  O  O11  1  0.04210300  0.11017700  0.68767000  1
loop_
_geom_bond_atom_site_label_1
_geom_bond_atom_site_label_2
_geom_bond_distance
_geom_bond_site_symmetry_2
Li0 O10 1.984730 1_554
Li0 O5 1.985787 1_554
Li0 O7 2.309138 1_555
Li0 O8 2.310502 1_555
Li1 O11 1.983554 1_655
Li1 O9 1.985129 1_655
Li1 O6 2.307755 1_555
Li1 O4 2.315307 1_555
Li2 O7 2.003926 1_455
Li2 O8 2.004437 1_455
Li2 O5 2.058699 1_555
Li2 O10 2.061852 1_555
Li3 O4 2.003019 1_556
Li3 O6 2.004421 1_556
Li3 O9 2.060333 1_555
Li3 O11 2.061692 1_555
Mn0 O1 1.939640 1_555
Mn0 O2 1.939643 1_545
Mn0 O4 1.993975 1_555
Mn0 O8 1.994114 1_545
Mn0 O11 2.224687 1_655
Mn0 O5 2.225597 1_544
Mn1 O11 1.919957 1_555
Mn1 O5 1.920552 1_545
Mn1 O1 1.937876 1_555
Mn1 O2 1.937885 1_545
Mn1 O4 2.008933 1_556
Mn1 O8 2.010409 1_445
Mn2 O3 1.939594 1_554
Mn2 O0 1.940194 1_655
Mn2 O6 1.993565 1_555
Mn2 O7 1.994127 1_555
Mn2 O10 2.222984 1_554
Mn2 O9 2.226062 1_655
Mn3 O10 1.919839 1_555
Mn3 O9 1.920103 1_555
Mn3 O3 1.937804 1_455
Mn3 O0 1.938338 1_556
Mn3 O7 2.009125 1_455
Mn3 O6 2.011761 1_556
Cr0 O2 2.012437 1_455
Cr0 O1 2.013362 1_566
Cr0 O11 2.038089 1_565
Cr0 O5 2.038168 1_555
Cr0 O4 2.054835 1_466
Cr0 O8 2.055460 1_456
Cr1 O3 2.012466 1_555
Cr1 O0 2.013517 1_555
Cr1 O9 2.038222 1_555
Cr1 O10 2.038457 1_555
Cr1 O7 2.055371 1_555
Cr1 O6 2.055414 1_555
