# generated using pymatgen
data_Ca(CoO2)2
_symmetry_space_group_name_H-M   'P 1'
_cell_length_a   6.19278500
_cell_length_b   6.22564548
_cell_length_c   15.28550339
_cell_angle_alpha   89.09946133
_cell_angle_beta   89.54628086
_cell_angle_gamma   60.57709265
_symmetry_Int_Tables_number   1
_chemical_formula_structural   Ca(CoO2)2
_chemical_formula_sum   'Ca6 Co12 O24'
_cell_volume   513.24336709
_cell_formula_units_Z   6
loop_
 _symmetry_equiv_pos_site_id
 _symmetry_equiv_pos_as_xyz
  1  'x, y, z'
loop_
 _atom_site_type_symbol
 _atom_site_label
 _atom_site_symmetry_multiplicity
 _atom_site_fract_x
 _atom_site_fract_y
 _atom_site_fract_z
 _atom_site_occupancy
  Ca  Ca0  1  0.83253200  0.33429000  0.95857000  1
  Ca  Ca1  1  0.49978600  0.00212900  0.61850300  1
  Ca  Ca2  1  0.49834300  0.00208900  0.00097300  1
  Ca  Ca3  1  0.16562800  0.66721300  0.28436900  1
  Ca  Ca4  1  0.83374900  0.33152000  0.71411000  1
  Ca  Ca5  1  0.50048400  0.99945200  0.37400600  1
  Co  Co0  1  0.83331500  0.83268200  0.82994900  1
  Co  Co1  1  0.33487100  0.33061500  0.82960200  1
  Co  Co2  1  0.50032600  0.50136400  0.49905400  1
  Co  Co3  1  0.33324500  0.83311900  0.82989500  1
  Co  Co4  1  0.17199400  0.66023800  0.66391500  1
  Co  Co5  1  0.00143100  0.99921500  0.50011600  1
  Co  Co6  1  0.16324900  0.16710700  0.16939100  1
  Co  Co7  1  0.99915400  0.50044800  0.49943400  1
  Co  Co8  1  0.66930400  0.16919500  0.17026700  1
  Co  Co9  1  0.83122600  0.33666200  0.33542600  1
  Co  Co10  1  0.66682500  0.66402900  0.16925800  1
  Co  Co11  1  0.16617100  0.66770200  0.04797000  1
  O  O0  1  0.65058900  0.69885400  0.89315000  1
  O  O1  1  0.50062600  0.99972800  0.76018000  1
  O  O2  1  0.64351900  0.16176500  0.89095300  1
  O  O3  1  0.19553500  0.15778000  0.89190700  1
  O  O4  1  0.44431400  0.52383200  0.75680200  1
  O  O5  1  0.30491200  0.38751500  0.57884000  1
  O  O6  1  0.03528600  0.52041400  0.75671900  1
  O  O7  1  0.16634900  0.66801900  0.91239400  1
  O  O8  1  0.31211100  0.80258900  0.57638300  1
  O  O9  1  0.16981800  0.66099400  0.43213200  1
  O  O10  1  0.02911500  0.94134300  0.75637200  1
  O  O11  1  0.88561800  0.81031100  0.57525100  1
  O  O12  1  0.12139900  0.18474700  0.42809400  1
  O  O13  1  0.97303400  0.05385400  0.24693800  1
  O  O14  1  0.69027500  0.19329000  0.42467700  1
  O  O15  1  0.82996900  0.33891900  0.56815500  1
  O  O16  1  0.83468800  0.33324900  0.10282500  1
  O  O17  1  0.97449500  0.46767000  0.24990600  1
  O  O18  1  0.69232000  0.61968600  0.42219000  1
  O  O19  1  0.55288500  0.47178900  0.24610000  1
  O  O20  1  0.82493700  0.83747600  0.10182200  1
  O  O21  1  0.49909900  0.00071400  0.23102000  1
  O  O22  1  0.33325700  0.83959900  0.10137600  1
  O  O23  1  0.33422000  0.32679100  0.10100600  1
loop_
_geom_bond_atom_site_label_1
_geom_bond_atom_site_label_2
_geom_bond_distance
_geom_bond_site_symmetry_2
Ca0 O0 2.203347 1_555
Ca0 O16 2.205045 1_556
Ca0 O3 2.207082 1_655
Ca0 O2 2.209364 1_555
Ca1 O1 2.165451 1_545
Ca1 O5 2.168302 1_555
Ca1 O8 2.182669 1_545
Ca1 O11 2.183723 1_545
Ca2 O22 2.316533 1_545
Ca2 O2 2.329428 1_554
Ca2 O3 2.334136 1_554
Ca2 O20 2.341033 1_545
Ca2 O0 2.343843 1_544
Ca2 O23 2.347620 1_555
Ca3 O13 2.165821 1_465
Ca3 O17 2.167240 1_455
Ca3 O19 2.169610 1_555
Ca3 O9 2.258491 1_555
Ca4 O4 2.199602 1_555
Ca4 O6 2.200868 1_655
Ca4 O10 2.203909 1_645
Ca4 O15 2.230818 1_555
Ca5 O18 2.177877 1_555
Ca5 O21 2.185573 1_565
Ca5 O12 2.205438 1_565
Ca5 O14 2.207925 1_565
Co0 O0 1.947204 1_555
Co0 O10 1.988258 1_655
Co0 O2 2.031054 1_565
Co0 O6 2.062517 1_655
Co0 O1 2.087674 1_555
Co0 O7 2.194508 1_655
Co1 O2 1.913418 1_555
Co1 O3 1.917380 1_555
Co1 O4 1.972715 1_555
Co1 O6 1.979102 1_555
Co1 O1 2.096941 1_545
Co1 O7 2.238712 1_555
Co2 O18 2.036634 1_555
Co2 O8 2.042748 1_555
Co2 O14 2.045853 1_555
Co2 O9 2.055724 1_555
Co2 O5 2.060677 1_555
Co2 O15 2.068319 1_555
Co3 O0 1.971411 1_555
Co3 O10 2.006777 1_555
Co3 O3 2.016179 1_565
Co3 O4 2.045283 1_555
Co3 O1 2.071234 1_555
Co3 O7 2.167325 1_555
Co4 O5 1.982608 1_555
Co4 O8 2.007080 1_555
Co4 O6 2.037899 1_555
Co4 O4 2.043043 1_555
Co4 O11 2.055521 1_455
Co4 O10 2.092711 1_555
Co5 O12 1.971869 1_565
Co5 O11 1.997419 1_455
Co5 O14 2.050978 1_465
Co5 O8 2.058127 1_555
Co5 O9 2.120215 1_555
Co5 O15 2.127700 1_465
Co6 O13 2.014297 1_455
Co6 O21 2.042011 1_555
Co6 O16 2.043805 1_455
Co6 O23 2.045961 1_555
Co6 O17 2.069541 1_455
Co6 O22 2.070461 1_545
Co7 O9 2.040261 1_655
Co7 O18 2.043979 1_555
Co7 O15 2.048650 1_555
Co7 O12 2.053681 1_655
Co7 O5 2.062630 1_655
Co7 O11 2.069678 1_555
Co8 O13 2.026935 1_555
Co8 O21 2.028226 1_555
Co8 O16 2.032917 1_555
Co8 O19 2.033042 1_555
Co8 O20 2.093979 1_545
Co8 O23 2.095545 1_555
Co9 O17 1.954562 1_555
Co9 O19 2.029688 1_555
Co9 O14 2.031783 1_555
Co9 O18 2.041991 1_555
Co9 O13 2.058527 1_555
Co9 O12 2.111499 1_655
Co10 O19 2.020460 1_555
Co10 O20 2.043312 1_555
Co10 O21 2.066706 1_565
Co10 O16 2.073240 1_555
Co10 O22 2.078086 1_555
Co10 O17 2.084647 1_555
Co11 O22 2.002781 1_555
Co11 O23 2.008471 1_555
Co11 O20 2.016342 1_455
Co11 O7 2.072309 1_554
