# generated using pymatgen
data_ZrCrCo
_symmetry_space_group_name_H-M   'P 1'
_cell_length_a   5.05604981
_cell_length_b   5.05604981
_cell_length_c   7.88644100
_cell_angle_alpha   90.00000000
_cell_angle_beta   90.00000000
_cell_angle_gamma   121.17348506
_symmetry_Int_Tables_number   1
_chemical_formula_structural   ZrCrCo
_chemical_formula_sum   'Zr4 Cr4 Co4'
_cell_volume   172.49499603
_cell_formula_units_Z   4
loop_
 _symmetry_equiv_pos_site_id
 _symmetry_equiv_pos_as_xyz
  1  'x, y, z'
loop_
 _atom_site_type_symbol
 _atom_site_label
 _atom_site_symmetry_multiplicity
 _atom_site_fract_x
 _atom_site_fract_y
 _atom_site_fract_z
 _atom_site_occupancy
  Zr  Zr0  1  0.33421800  0.66578200  0.68429800  1
  Zr  Zr1  1  0.66580100  0.33419900  0.80722200  1
  Zr  Zr2  1  0.66580100  0.33419900  0.19277800  1
  Zr  Zr3  1  0.33421800  0.66578200  0.31570200  1
  Cr  Cr0  1  0.66590800  0.83180300  0.00000000  1
  Cr  Cr1  1  0.16819700  0.33409200  0.00000000  1
  Cr  Cr2  1  0.99746000  0.00254000  0.25056700  1
  Cr  Cr3  1  0.99746000  0.00254000  0.74943300  1
  Co  Co0  1  0.83194200  0.16805800  0.50000000  1
  Co  Co1  1  0.33240300  0.16619400  0.50000000  1
  Co  Co2  1  0.83380600  0.66759700  0.50000000  1
  Co  Co3  1  0.17247400  0.82752600  0.00000000  1
loop_
_geom_bond_atom_site_label_1
_geom_bond_atom_site_label_2
_geom_bond_distance
_geom_bond_site_symmetry_2
Zr0 Zr3 2.906911 1_555
Zr0 Zr1 3.050607 1_565
Zr0 Zr1 3.050607 1_455
Zr0 Zr1 3.077478 1_555
Zr1 Zr2 3.040665 1_556
Zr2 Zr3 3.050607 1_655
Zr2 Zr3 3.050607 1_545
Zr2 Zr3 3.077478 1_555
Cr0 Cr2 2.441740 1_565
Cr0 Cr3 2.441740 1_564
Cr0 Cr1 2.471686 1_555
Cr0 Cr1 2.494420 1_665
Cr0 Zr3 2.873785 1_555
Cr0 Zr0 2.873785 1_554
Cr0 Zr2 2.939355 1_555
Cr0 Zr1 2.939355 1_554
Cr0 Zr1 2.960598 1_564
Cr0 Zr2 2.960598 1_565
Cr1 Cr2 2.441740 1_455
Cr1 Cr3 2.441740 1_454
Cr1 Zr3 2.873785 1_555
Cr1 Zr0 2.873785 1_554
Cr1 Zr2 2.939355 1_555
Cr1 Zr1 2.939355 1_554
Cr1 Zr1 2.960598 1_454
Cr1 Zr2 2.960598 1_455
Cr2 Zr3 2.914979 1_655
Cr2 Zr3 2.914979 1_545
Cr2 Zr2 2.927819 1_655
Cr2 Zr2 2.927819 1_545
Cr2 Zr2 2.956804 1_555
Cr2 Zr3 3.010532 1_645
Cr3 Zr0 2.914979 1_655
Cr3 Zr0 2.914979 1_545
Cr3 Zr1 2.927819 1_655
Cr3 Zr1 2.927819 1_545
Cr3 Zr1 2.956804 1_555
Cr3 Zr0 3.010532 1_645
Co0 Cr3 2.448545 1_555
Co0 Cr2 2.448545 1_555
Co0 Co1 2.520829 1_555
Co0 Co2 2.520829 1_555
Co0 Co2 2.535247 1_545
Co0 Co1 2.535247 1_655
Co0 Zr1 2.830575 1_555
Co0 Zr2 2.830575 1_555
Co0 Zr0 2.877236 1_655
Co0 Zr0 2.877236 1_545
Co0 Zr3 2.877236 1_655
Co0 Zr3 2.877236 1_545
Co1 Cr2 2.443670 1_455
Co1 Cr3 2.443670 1_455
Co1 Co2 2.476086 1_445
Co1 Co2 2.490020 1_555
Co1 Zr2 2.819764 1_555
Co1 Zr1 2.819764 1_555
Co1 Zr3 2.910155 1_555
Co1 Zr0 2.910155 1_555
Co1 Zr0 2.922003 1_545
Co1 Zr3 2.922003 1_545
Co2 Cr3 2.443670 1_565
Co2 Cr2 2.443670 1_565
Co2 Zr2 2.819764 1_555
Co2 Zr1 2.819764 1_555
Co2 Zr3 2.910155 1_555
Co2 Zr0 2.910155 1_555
Co2 Zr0 2.922003 1_655
Co2 Zr3 2.922003 1_655
Co3 Cr0 2.483702 1_555
Co3 Cr1 2.483702 1_555
Co3 Cr2 2.506301 1_465
Co3 Cr3 2.506301 1_464
Co3 Cr1 2.572483 1_565
Co3 Cr0 2.572483 1_455
Co3 Zr3 2.868594 1_555
Co3 Zr0 2.868594 1_554
Co3 Zr2 2.912116 1_565
Co3 Zr1 2.912116 1_564
Co3 Zr1 2.912116 1_454
Co3 Zr2 2.912116 1_455
