# generated using pymatgen
data_CaFe(MoO3)2
_symmetry_space_group_name_H-M   'P 1'
_cell_length_a   5.68288600
_cell_length_b   5.34956500
_cell_length_c   9.65673128
_cell_angle_alpha   57.94835887
_cell_angle_beta   90.00000000
_cell_angle_gamma   90.00000000
_symmetry_Int_Tables_number   1
_chemical_formula_structural   CaFe(MoO3)2
_chemical_formula_sum   'Ca2 Fe2 Mo4 O12'
_cell_volume   248.82453601
_cell_formula_units_Z   2
loop_
 _symmetry_equiv_pos_site_id
 _symmetry_equiv_pos_as_xyz
  1  'x, y, z'
loop_
 _atom_site_type_symbol
 _atom_site_label
 _atom_site_symmetry_multiplicity
 _atom_site_fract_x
 _atom_site_fract_y
 _atom_site_fract_z
 _atom_site_occupancy
  Ca  Ca0  1  0.50000000  0.50000000  0.00000000  1
  Ca  Ca1  1  0.00000000  0.50000000  0.50000000  1
  Fe  Fe0  1  0.50000000  0.00000000  0.50000000  1
  Fe  Fe1  1  0.00000000  0.00000000  0.00000000  1
  Mo  Mo0  1  0.03902500  0.69707100  0.79564600  1
  Mo  Mo1  1  0.96097500  0.30292900  0.20435400  1
  Mo  Mo2  1  0.53902500  0.30292900  0.70435400  1
  Mo  Mo3  1  0.46097500  0.69707100  0.29564600  1
  O  O0  1  0.35449100  0.94585900  0.70885800  1
  O  O1  1  0.64550900  0.05414100  0.29114200  1
  O  O2  1  0.85449100  0.05414100  0.79114200  1
  O  O3  1  0.14550900  0.94585900  0.20885800  1
  O  O4  1  0.77395500  0.68002800  0.64230800  1
  O  O5  1  0.22604500  0.31997200  0.35769200  1
  O  O6  1  0.27395500  0.31997200  0.85769200  1
  O  O7  1  0.72604500  0.68002800  0.14230800  1
  O  O8  1  0.34436200  0.65847300  0.51863500  1
  O  O9  1  0.65563800  0.34152700  0.48136500  1
  O  O10  1  0.84436200  0.34152700  0.98136500  1
  O  O11  1  0.15563800  0.65847300  0.01863500  1
loop_
_geom_bond_atom_site_label_1
_geom_bond_atom_site_label_2
_geom_bond_distance
_geom_bond_site_symmetry_2
Ca0 O11 2.177782 1_555
Ca0 O10 2.177782 1_554
Ca0 O7 2.422990 1_555
Ca0 O6 2.422990 1_554
Ca0 O0 2.675786 1_554
Ca0 O1 2.675786 1_555
Ca1 O8 2.177782 1_555
Ca1 O9 2.177782 1_455
Ca1 O4 2.422990 1_455
Ca1 O5 2.422990 1_555
Ca1 O3 2.675786 1_555
Ca1 O2 2.675786 1_455
Fe0 O9 1.950315 1_555
Fe0 O8 1.950315 1_545
Fe0 O0 2.053167 1_545
Fe0 O1 2.053167 1_555
Fe0 O5 2.178445 1_555
Fe0 O4 2.178445 1_545
Fe1 O10 1.950315 1_454
Fe1 O11 1.950315 1_545
Fe1 O3 2.053167 1_545
Fe1 O2 2.053167 1_454
Fe1 O6 2.178445 1_554
Fe1 O7 2.178445 1_445
Mo0 O10 2.106507 1_455
Mo0 O0 2.122220 1_555
Mo0 O4 2.147867 1_455
Mo0 O11 2.155640 1_556
Mo0 O2 2.159213 1_465
Mo0 O6 2.219938 1_555
Mo1 O11 2.106507 1_655
Mo1 O1 2.122220 1_555
Mo1 O5 2.147867 1_655
Mo1 O10 2.155640 1_554
Mo1 O3 2.159213 1_645
Mo1 O7 2.219938 1_555
Mo2 O8 2.106507 1_555
Mo2 O2 2.122220 1_555
Mo2 O6 2.147867 1_555
Mo2 O9 2.155640 1_555
Mo2 O0 2.159213 1_545
Mo2 O4 2.219938 1_555
Mo3 O9 2.106507 1_555
Mo3 O3 2.122220 1_555
Mo3 O7 2.147867 1_555
Mo3 O8 2.155640 1_555
Mo3 O1 2.159213 1_565
Mo3 O5 2.219938 1_555
