# generated using pymatgen
data_As2Se
_symmetry_space_group_name_H-M   'P 1'
_cell_length_a   5.65287731
_cell_length_b   5.65287731
_cell_length_c   5.65287731
_cell_angle_alpha   102.72986669
_cell_angle_beta   102.72986669
_cell_angle_gamma   124.00675310
_symmetry_Int_Tables_number   1
_chemical_formula_structural   As2Se
_chemical_formula_sum   'As4 Se2'
_cell_volume   132.21992185
_cell_formula_units_Z   2
loop_
 _symmetry_equiv_pos_site_id
 _symmetry_equiv_pos_as_xyz
  1  'x, y, z'
loop_
 _atom_site_type_symbol
 _atom_site_label
 _atom_site_symmetry_multiplicity
 _atom_site_fract_x
 _atom_site_fract_y
 _atom_site_fract_z
 _atom_site_occupancy
  As  As0  1  0.12500000  0.87500000  0.25000000  1
  As  As1  1  0.62500000  0.87500000  0.75000000  1
  As  As2  1  0.12500000  0.37500000  0.25000000  1
  As  As3  1  0.12500000  0.87500000  0.75000000  1
  Se  Se0  1  0.75000000  0.25000000  0.50000000  1
  Se  Se1  1  0.50000000  0.50000000  0.00000000  1
loop_
_geom_bond_atom_site_label_1
_geom_bond_atom_site_label_2
_geom_bond_distance
_geom_bond_site_symmetry_2
As0 Se0 2.659889 1_565
As0 Se1 2.659889 1_455
As0 As2 2.826439 1_565
As0 As3 2.826439 1_554
As0 As2 2.826439 1_555
As0 As3 2.826439 1_555
As1 Se0 2.659889 1_565
As1 Se1 2.659889 1_556
As1 As3 2.826439 1_655
As1 As2 2.826439 1_555
As1 As2 2.826439 1_666
As1 As3 2.826439 1_555
As2 Se1 2.659889 1_555
As2 Se0 2.659889 1_455
As3 Se1 2.659889 1_566
As3 Se0 2.659889 1_455
