# generated using pymatgen
data_ErCu5Sn
_symmetry_space_group_name_H-M   'P 1'
_cell_length_a   4.98780500
_cell_length_b   8.18533600
_cell_length_c   10.53493900
_cell_angle_alpha   90.00000000
_cell_angle_beta   90.00000000
_cell_angle_gamma   90.00000000
_symmetry_Int_Tables_number   1
_chemical_formula_structural   ErCu5Sn
_chemical_formula_sum   'Er4 Cu20 Sn4'
_cell_volume   430.10847784
_cell_formula_units_Z   4
loop_
 _symmetry_equiv_pos_site_id
 _symmetry_equiv_pos_as_xyz
  1  'x, y, z'
loop_
 _atom_site_type_symbol
 _atom_site_label
 _atom_site_symmetry_multiplicity
 _atom_site_fract_x
 _atom_site_fract_y
 _atom_site_fract_z
 _atom_site_occupancy
  Er  Er0  1  0.25000000  0.75240700  0.06348300  1
  Er  Er1  1  0.75000000  0.24759300  0.93651700  1
  Er  Er2  1  0.75000000  0.74759300  0.56348300  1
  Er  Er3  1  0.25000000  0.25240700  0.43651700  1
  Cu  Cu0  1  0.25000000  0.81338200  0.74523200  1
  Cu  Cu1  1  0.75000000  0.18661800  0.25476800  1
  Cu  Cu2  1  0.75000000  0.68661800  0.24523200  1
  Cu  Cu3  1  0.25000000  0.31338200  0.75476800  1
  Cu  Cu4  1  0.50179200  0.56499300  0.81342300  1
  Cu  Cu5  1  0.49820800  0.43500700  0.18657700  1
  Cu  Cu6  1  0.49820800  0.93500700  0.31342300  1
  Cu  Cu7  1  0.00179200  0.43500700  0.18657700  1
  Cu  Cu8  1  0.50179200  0.06499300  0.68657700  1
  Cu  Cu9  1  0.99820800  0.56499300  0.81342300  1
  Cu  Cu10  1  0.99820800  0.06499300  0.68657700  1
  Cu  Cu11  1  0.00179200  0.93500700  0.31342300  1
  Cu  Cu12  1  0.25000000  0.91272400  0.51819200  1
  Cu  Cu13  1  0.75000000  0.08727600  0.48180800  1
  Cu  Cu14  1  0.75000000  0.58727600  0.01819200  1
  Cu  Cu15  1  0.25000000  0.41272400  0.98180800  1
  Cu  Cu16  1  0.25000000  0.55864100  0.60148900  1
  Cu  Cu17  1  0.75000000  0.44135900  0.39851100  1
  Cu  Cu18  1  0.75000000  0.94135900  0.10148900  1
  Cu  Cu19  1  0.25000000  0.05864100  0.89851100  1
  Sn  Sn0  1  0.25000000  0.63979500  0.36128200  1
  Sn  Sn1  1  0.75000000  0.36020500  0.63871800  1
  Sn  Sn2  1  0.75000000  0.86020500  0.86128200  1
  Sn  Sn3  1  0.25000000  0.13979500  0.13871800  1
loop_
_geom_bond_atom_site_label_1
_geom_bond_atom_site_label_2
_geom_bond_distance
_geom_bond_site_symmetry_2
Er0 Sn3 3.268459 1_565
Er0 Sn0 3.269904 1_555
Er0 Sn2 3.396433 1_454
Er0 Sn2 3.396433 1_554
Er1 Sn2 3.268459 1_545
Er1 Sn1 3.269904 1_555
Er1 Sn3 3.396433 1_656
Er1 Sn3 3.396433 1_556
Er2 Sn1 3.268459 1_555
Er2 Sn2 3.269904 1_555
Er2 Sn0 3.396433 1_655
Er2 Sn0 3.396433 1_555
Er3 Sn0 3.268459 1_555
Er3 Sn3 3.269904 1_555
Er3 Sn1 3.396433 1_555
Er3 Sn1 3.396433 1_455
Cu0 Cu8 2.490124 1_565
Cu0 Cu10 2.490124 1_465
Cu0 Cu4 2.495401 1_555
Cu0 Cu9 2.495401 1_455
Cu0 Cu12 2.526295 1_555
Cu0 Cu19 2.576373 1_565
Cu0 Cu16 2.577011 1_555
Cu0 Sn2 2.803773 1_555
Cu0 Sn2 2.803773 1_455
Cu0 Er2 3.189933 1_555
Cu0 Er2 3.189933 1_455
Cu0 Er0 3.389700 1_556
Cu1 Cu11 2.490124 1_645
Cu1 Cu6 2.490124 1_545
Cu1 Cu7 2.495401 1_655
Cu1 Cu5 2.495401 1_555
Cu1 Cu13 2.526295 1_555
Cu1 Cu18 2.576373 1_545
Cu1 Cu17 2.577011 1_555
Cu1 Sn3 2.803773 1_555
Cu1 Sn3 2.803773 1_655
Cu1 Er3 3.189933 1_555
Cu1 Er3 3.189933 1_655
Cu1 Er1 3.389700 1_554
Cu2 Cu7 2.490124 1_655
Cu2 Cu5 2.490124 1_555
Cu2 Cu6 2.495401 1_555
Cu2 Sn0 2.803773 1_555
Cu2 Sn0 2.803773 1_655
Cu2 Er0 3.189933 1_655
Cu2 Er0 3.189933 1_555
Cu2 Er2 3.389700 1_555
Cu3 Cu9 2.490124 1_455
Cu3 Cu4 2.490124 1_555
Cu3 Cu8 2.495401 1_555
Cu3 Sn1 2.803773 1_455
Cu3 Sn1 2.803773 1_555
Cu3 Er1 3.189933 1_555
Cu3 Er1 3.189933 1_455
Cu3 Er3 3.389700 1_555
Cu4 Cu9 2.476026 1_555
Cu4 Cu9 2.511779 1_455
Cu4 Sn2 2.761507 1_555
Cu4 Sn1 2.780285 1_555
Cu4 Er1 3.156592 1_555
Cu4 Er2 3.271064 1_555
Cu4 Er0 3.297036 1_556
Cu5 Cu7 2.476026 1_555
Cu5 Cu7 2.511779 1_655
Cu5 Sn3 2.761507 1_555
Cu5 Sn0 2.780285 1_555
Cu5 Er0 3.156592 1_555
Cu5 Er3 3.271064 1_555
Cu5 Er1 3.297036 1_554
Cu6 Sn0 2.761507 1_555
Cu6 Sn3 2.780285 1_565
Cu6 Er3 3.156592 1_565
Cu6 Er0 3.271064 1_555
Cu6 Er2 3.297036 1_555
Cu7 Sn3 2.761507 1_555
Cu7 Sn0 2.780285 1_555
Cu7 Er0 3.156592 1_555
Cu7 Er3 3.271064 1_555
Cu7 Er1 3.297036 1_454
Cu8 Sn1 2.761507 1_555
Cu8 Sn2 2.780285 1_545
Cu8 Er2 3.156592 1_545
Cu8 Er1 3.271064 1_555
Cu8 Er3 3.297036 1_555
Cu9 Sn2 2.761507 1_555
Cu9 Sn1 2.780285 1_555
Cu9 Er1 3.156592 1_555
Cu9 Er2 3.271064 1_555
Cu9 Er0 3.297036 1_656
Cu10 Cu8 2.476026 1_555
Cu10 Cu13 2.493909 1_555
Cu10 Cu3 2.495401 1_655
Cu10 Cu12 2.505497 1_645
Cu10 Cu8 2.511779 1_655
Cu10 Cu19 2.562218 1_655
Cu10 Sn1 2.761507 1_555
Cu10 Sn2 2.780285 1_545
Cu10 Er2 3.156592 1_545
Cu10 Er1 3.271064 1_555
Cu10 Er3 3.297036 1_655
Cu11 Cu6 2.476026 1_555
Cu11 Cu12 2.493909 1_555
Cu11 Cu2 2.495401 1_455
Cu11 Cu13 2.505497 1_465
Cu11 Cu6 2.511779 1_455
Cu11 Cu18 2.562218 1_455
Cu11 Sn0 2.761507 1_555
Cu11 Sn3 2.780285 1_565
Cu11 Er3 3.156592 1_565
Cu11 Er0 3.271064 1_555
Cu11 Er2 3.297036 1_455
Cu12 Cu6 2.493909 1_555
Cu12 Cu8 2.505497 1_565
Cu12 Sn0 2.779093 1_555
Cu12 Er2 2.876487 1_455
Cu12 Er2 2.876487 1_555
Cu12 Er3 2.910514 1_565
Cu12 Cu16 3.028223 1_555
Cu13 Cu8 2.493909 1_555
Cu13 Cu6 2.505497 1_545
Cu13 Sn1 2.779093 1_555
Cu13 Er3 2.876487 1_555
Cu13 Er3 2.876487 1_655
Cu13 Er2 2.910514 1_545
Cu13 Cu17 3.028223 1_555
Cu14 Cu4 2.493909 1_554
Cu14 Cu9 2.493909 1_554
Cu14 Cu7 2.505497 1_655
Cu14 Cu5 2.505497 1_555
Cu14 Cu2 2.526295 1_555
Cu14 Sn2 2.779093 1_554
Cu14 Er0 2.876487 1_655
Cu14 Er0 2.876487 1_555
Cu14 Er1 2.910514 1_554
Cu14 Cu18 3.028223 1_555
Cu15 Cu7 2.493909 1_556
Cu15 Cu5 2.493909 1_556
Cu15 Cu4 2.505497 1_555
Cu15 Cu9 2.505497 1_455
Cu15 Cu3 2.526295 1_555
Cu15 Sn3 2.779093 1_556
Cu15 Er1 2.876487 1_455
Cu15 Er1 2.876487 1_555
Cu15 Er0 2.910514 1_556
Cu15 Cu19 3.028223 1_555
Cu16 Cu4 2.562218 1_555
Cu16 Cu9 2.562218 1_455
Cu16 Cu3 2.576373 1_555
Cu16 Sn0 2.616299 1_555
Cu16 Er2 2.961747 1_455
Cu16 Er2 2.961747 1_555
Cu16 Sn1 3.001935 1_455
Cu16 Sn1 3.001935 1_555
Cu16 Er3 3.050201 1_555
Cu17 Cu7 2.562218 1_655
Cu17 Cu5 2.562218 1_555
Cu17 Cu2 2.576373 1_555
Cu17 Sn1 2.616299 1_555
Cu17 Er3 2.961747 1_655
Cu17 Er3 2.961747 1_555
Cu17 Sn0 3.001935 1_655
Cu17 Sn0 3.001935 1_555
Cu17 Er2 3.050201 1_555
Cu18 Cu6 2.562218 1_555
Cu18 Cu2 2.577011 1_555
Cu18 Sn2 2.616299 1_554
Cu18 Er0 2.961747 1_655
Cu18 Er0 2.961747 1_555
Cu18 Sn3 3.001935 1_565
Cu18 Sn3 3.001935 1_665
Cu18 Er1 3.050201 1_564
Cu19 Cu8 2.562218 1_555
Cu19 Cu3 2.577011 1_555
Cu19 Sn3 2.616299 1_556
Cu19 Er1 2.961747 1_555
Cu19 Er1 2.961747 1_455
Cu19 Sn2 3.001935 1_445
Cu19 Sn2 3.001935 1_545
Cu19 Er0 3.050201 1_546
