# generated using pymatgen
data_LaMgTiFeO6
_symmetry_space_group_name_H-M   'P 1'
_cell_length_a   5.37172554
_cell_length_b   9.49550401
_cell_length_c   9.49558682
_cell_angle_alpha   71.27518279
_cell_angle_beta   90.03640746
_cell_angle_gamma   90.03678717
_symmetry_Int_Tables_number   1
_chemical_formula_structural   LaMgTiFeO6
_chemical_formula_sum   'La4 Mg4 Ti4 Fe4 O24'
_cell_volume   458.70787469
_cell_formula_units_Z   4
loop_
 _symmetry_equiv_pos_site_id
 _symmetry_equiv_pos_as_xyz
  1  'x, y, z'
loop_
 _atom_site_type_symbol
 _atom_site_label
 _atom_site_symmetry_multiplicity
 _atom_site_fract_x
 _atom_site_fract_y
 _atom_site_fract_z
 _atom_site_occupancy
  La  La0  1  0.99246500  0.10743600  0.14331600  1
  La  La1  1  0.99246500  0.60743400  0.64331800  1
  La  La2  1  0.49246900  0.14330300  0.60743900  1
  La  La3  1  0.49246400  0.64330400  0.10744400  1
  Mg  Mg0  1  0.52602300  0.85078200  0.40159200  1
  Mg  Mg1  1  0.52602300  0.35078200  0.90159200  1
  Mg  Mg2  1  0.02601900  0.90159100  0.85078100  1
  Mg  Mg3  1  0.02601900  0.40159100  0.35078100  1
  Ti  Ti0  1  0.00156800  0.99641400  0.50222000  1
  Ti  Ti1  1  0.00157100  0.49641200  0.00222400  1
  Ti  Ti2  1  0.50156800  0.00221900  0.99641200  1
  Ti  Ti3  1  0.50156800  0.50222000  0.49640800  1
  Fe  Fe0  1  0.00082300  0.25184200  0.74972800  1
  Fe  Fe1  1  0.50080600  0.74972200  0.75183300  1
  Fe  Fe2  1  0.00082300  0.75183600  0.24973500  1
  Fe  Fe3  1  0.50080600  0.24972400  0.25182900  1
  O  O0  1  0.63190300  0.36704600  0.38780900  1
  O  O1  1  0.63190300  0.86704500  0.88780900  1
  O  O2  1  0.13190000  0.88779600  0.36704500  1
  O  O3  1  0.13190300  0.38779500  0.86704600  1
  O  O4  1  0.19609100  0.37425600  0.56788300  1
  O  O5  1  0.19609100  0.87425500  0.06788400  1
  O  O6  1  0.69609900  0.06788200  0.37426000  1
  O  O7  1  0.69610000  0.56788200  0.87426000  1
  O  O8  1  0.18649500  0.17922200  0.38049500  1
  O  O9  1  0.18649600  0.67922200  0.88049600  1
  O  O10  1  0.68649300  0.88049600  0.17921300  1
  O  O11  1  0.68649100  0.38049500  0.67921300  1
  O  O12  1  0.91973800  0.10119900  0.64414800  1
  O  O13  1  0.91974000  0.60120100  0.14414800  1
  O  O14  1  0.41974000  0.64416100  0.60119700  1
  O  O15  1  0.41974300  0.14416200  0.10119800  1
  O  O16  1  0.27020400  0.91362700  0.63834800  1
  O  O17  1  0.27020400  0.41362900  0.13834400  1
  O  O18  1  0.77020000  0.63836100  0.41362800  1
  O  O19  1  0.77020100  0.13835900  0.91362900  1
  O  O20  1  0.27469400  0.10604500  0.83660600  1
  O  O21  1  0.27469100  0.60604400  0.33660700  1
  O  O22  1  0.77469600  0.83660500  0.60604000  1
  O  O23  1  0.77470000  0.33660400  0.10604100  1
loop_
_geom_bond_atom_site_label_1
_geom_bond_atom_site_label_2
_geom_bond_distance
_geom_bond_site_symmetry_2
La0 O15 2.336705 1_655
La0 O23 2.395233 1_555
La0 O19 2.419607 1_554
La0 O2 2.564996 1_645
La0 O6 2.638067 1_555
La0 O10 2.643066 1_545
La0 O8 2.757703 1_655
La0 O5 2.763043 1_645
La1 O14 2.336694 1_655
La1 O22 2.395264 1_555
La1 O18 2.419628 1_555
La1 O3 2.564990 1_655
La1 O7 2.638051 1_555
La1 O11 2.643068 1_555
La1 O9 2.757707 1_655
La1 O4 2.763032 1_655
La2 O12 2.336631 1_555
La2 O20 2.395283 1_555
La2 O16 2.419517 1_545
La2 O0 2.565009 1_555
La2 O4 2.638165 1_555
La2 O8 2.643100 1_555
La2 O11 2.757721 1_555
La2 O6 2.762990 1_555
La3 O13 2.336662 1_555
La3 O21 2.395242 1_555
La3 O17 2.419510 1_555
La3 O1 2.565032 1_554
La3 O5 2.638130 1_555
La3 O9 2.643110 1_554
La3 O10 2.757711 1_555
La3 O7 2.763050 1_554
Mg0 O2 2.153924 1_555
Mg0 O6 2.192276 1_565
Mg0 O10 2.213835 1_555
Mg0 O14 2.319501 1_555
Mg0 O22 2.323895 1_555
Mg0 O18 2.378478 1_555
Mg1 O3 2.153906 1_555
Mg1 O7 2.192278 1_555
Mg1 O11 2.213832 1_555
Mg1 O15 2.319497 1_556
Mg1 O23 2.323913 1_556
Mg1 O19 2.378495 1_555
Mg2 O1 2.153897 1_455
Mg2 O5 2.192309 1_556
Mg2 O9 2.213750 1_555
Mg2 O12 2.319588 1_465
Mg2 O20 2.323930 1_565
Mg2 O16 2.378604 1_555
Mg3 O0 2.153896 1_455
Mg3 O4 2.192302 1_555
Mg3 O8 2.213749 1_555
Mg3 O13 2.319595 1_455
Mg3 O21 2.323915 1_555
Mg3 O17 2.378631 1_555
Fe0 O20 2.007306 1_555
Fe0 O19 2.010486 1_455
Fe0 O4 2.035936 1_555
Fe0 O12 2.039689 1_455
Fe0 O11 2.065863 1_455
Fe0 O3 2.079543 1_555
Fe1 O22 2.007363 1_555
Fe1 O16 2.010453 1_555
Fe1 O7 2.036016 1_555
Fe1 O14 2.039486 1_555
Fe1 O9 2.065788 1_555
Fe1 O1 2.079784 1_555
Fe2 O21 2.007256 1_555
Fe2 O18 2.010422 1_455
Fe2 O5 2.035988 1_555
Fe2 O13 2.039669 1_455
Fe2 O10 2.065895 1_455
Fe2 O2 2.079535 1_555
Fe3 O23 2.007347 1_555
Fe3 O17 2.010453 1_555
Fe3 O6 2.036037 1_555
Fe3 O15 2.039448 1_555
Fe3 O8 2.065809 1_555
Fe3 O0 2.079807 1_555
O0 Ti3 2.013193 1_555
O1 Ti2 2.013220 1_565
O2 Ti0 2.013326 1_555
O3 Ti1 2.013343 1_556
O4 Ti3 2.024626 1_555
O5 Ti2 2.024622 1_564
O6 Ti0 2.024578 1_645
O7 Ti1 2.024608 1_656
O8 Ti0 2.011723 1_545
O9 Ti1 2.011739 1_556
O10 Ti2 2.011683 1_564
O11 Ti3 2.011710 1_555
O12 Ti0 1.965131 1_645
O13 Ti1 1.965128 1_655
O14 Ti3 1.965258 1_555
O15 Ti2 1.965250 1_554
O16 Ti0 1.928175 1_555
O17 Ti1 1.928115 1_555
O18 Ti3 1.928197 1_555
O19 Ti2 1.928202 1_555
O20 Ti2 1.948983 1_555
O21 Ti3 1.948959 1_555
O22 Ti0 1.948963 1_655
O23 Ti1 1.948947 1_655
