# generated using pymatgen
data_Li7Mn4CoO12
_symmetry_space_group_name_H-M   'P 1'
_cell_length_a   5.73605907
_cell_length_b   5.81805061
_cell_length_c   13.54314744
_cell_angle_alpha   77.79949082
_cell_angle_beta   77.77608417
_cell_angle_gamma   90.01880841
_symmetry_Int_Tables_number   1
_chemical_formula_structural   Li7Mn4CoO12
_chemical_formula_sum   'Li14 Mn8 Co2 O24'
_cell_volume   431.26620189
_cell_formula_units_Z   2
loop_
 _symmetry_equiv_pos_site_id
 _symmetry_equiv_pos_as_xyz
  1  'x, y, z'
loop_
 _atom_site_type_symbol
 _atom_site_label
 _atom_site_symmetry_multiplicity
 _atom_site_fract_x
 _atom_site_fract_y
 _atom_site_fract_z
 _atom_site_occupancy
  Li  Li0  1  0.16666500  0.16666700  0.16666700  1
  Li  Li1  1  0.66667300  0.16666900  0.16666900  1
  Li  Li2  1  0.16667100  0.16666200  0.66666100  1
  Li  Li3  1  0.66667100  0.16666200  0.66666500  1
  Li  Li4  1  0.16666900  0.66666500  0.16666400  1
  Li  Li5  1  0.66667300  0.66666100  0.16666600  1
  Li  Li6  1  0.00025600  0.50274200  0.49752500  1
  Li  Li7  1  0.50246100  0.50309000  0.49717700  1
  Li  Li8  1  0.83086700  0.83024200  0.83615000  1
  Li  Li9  1  0.33309800  0.83058500  0.83580500  1
  Li  Li10  1  0.34752500  0.84113900  0.30511100  1
  Li  Li11  1  0.84364800  0.83803500  0.31267000  1
  Li  Li12  1  0.48969100  0.49531100  0.02065400  1
  Li  Li13  1  0.98582200  0.49219900  0.02822100  1
  Mn  Mn0  1  0.00086600  0.99826200  0.49705000  1
  Mn  Mn1  1  0.50167200  0.99819900  0.49728000  1
  Mn  Mn2  1  0.83162500  0.33508900  0.83608200  1
  Mn  Mn3  1  0.33238000  0.33511900  0.83632400  1
  Mn  Mn4  1  0.49389900  0.99149700  0.01222300  1
  Mn  Mn5  1  0.99335000  0.99141500  0.01347600  1
  Mn  Mn6  1  0.33991900  0.34190300  0.31983700  1
  Mn  Mn7  1  0.83945700  0.34179400  0.32109100  1
  Co  Co0  1  0.16667400  0.66666000  0.66666000  1
  Co  Co1  1  0.66666900  0.66665300  0.66666600  1
  O  O0  1  0.24520100  0.22524000  0.00645200  1
  O  O1  1  0.74874700  0.22517400  0.00646500  1
  O  O2  1  0.08814000  0.10811000  0.32688200  1
  O  O3  1  0.58459500  0.10817900  0.32687200  1
  O  O4  1  0.08490100  0.55859000  0.33260100  1
  O  O5  1  0.58272900  0.55859400  0.33258400  1
  O  O6  1  0.24845200  0.77477400  0.00073500  1
  O  O7  1  0.75060400  0.77476100  0.00075300  1
  O  O8  1  0.91096500  0.89113000  0.66988500  1
  O  O9  1  0.41830700  0.89263400  0.66995200  1
  O  O10  1  0.91503700  0.44069200  0.66337500  1
  O  O11  1  0.42237400  0.44219500  0.66344200  1
  O  O12  1  0.42398400  0.92143300  0.15198400  1
  O  O13  1  0.92345600  0.92050300  0.15315100  1
  O  O14  1  0.40988600  0.41284400  0.18017100  1
  O  O15  1  0.90935700  0.41190400  0.18136300  1
  O  O16  1  0.25539000  0.23169800  0.48901300  1
  O  O17  1  0.75707200  0.23875100  0.48571000  1
  O  O18  1  0.07795100  0.10162400  0.84432300  1
  O  O19  1  0.57627200  0.09459200  0.84762900  1
  O  O20  1  0.09068100  0.57460900  0.81879500  1
  O  O21  1  0.58175300  0.55969100  0.83675300  1
  O  O22  1  0.24265900  0.75872300  0.51453800  1
  O  O23  1  0.75158800  0.77363700  0.49657700  1
loop_
_geom_bond_atom_site_label_1
_geom_bond_atom_site_label_2
_geom_bond_distance
_geom_bond_site_symmetry_2
Li0 O13 2.061193 1_445
Li0 O14 2.061234 1_555
Li0 O15 2.061740 1_455
Li0 O12 2.061755 1_545
Li0 O0 2.073791 1_555
Li0 O2 2.073796 1_555
Li1 O12 2.061323 1_545
Li1 O15 2.061346 1_555
Li1 O13 2.062099 1_545
Li1 O14 2.062134 1_555
Li1 O3 2.073673 1_555
Li1 O1 2.073681 1_555
Li2 O9 2.150797 1_545
Li2 O10 2.150797 1_455
Li2 O8 2.159814 1_445
Li2 O11 2.159826 1_555
Li2 O16 2.299389 1_555
Li2 O18 2.299571 1_555
Li3 O9 2.124860 1_545
Li3 O10 2.124865 1_555
Li3 O8 2.129109 1_545
Li3 O11 2.129125 1_555
Li3 O17 2.340514 1_555
Li3 O19 2.340636 1_555
Li4 O14 2.038578 1_555
Li4 O13 2.038639 1_455
Li4 O15 2.040700 1_455
Li4 O12 2.040795 1_555
Li4 O6 2.149784 1_555
Li4 O4 2.149872 1_555
Li5 O14 2.038150 1_555
Li5 O13 2.038207 1_555
Li5 O15 2.041641 1_555
Li5 O12 2.041705 1_555
Li5 O7 2.149573 1_555
Li5 O5 2.149623 1_555
Li6 O22 2.117498 1_555
Li6 O23 2.125892 1_455
Li6 O17 2.127773 1_455
Li6 O4 2.136387 1_555
Li6 O10 2.146296 1_455
Li6 O16 2.156082 1_555
Li7 O22 2.118725 1_555
Li7 O23 2.123200 1_555
Li7 O17 2.128075 1_555
Li7 O5 2.132188 1_555
Li7 O11 2.152115 1_555
Li7 O16 2.156977 1_555
Li8 O20 2.118763 1_655
Li8 O21 2.123156 1_555
Li8 O19 2.128074 1_565
Li8 O7 2.132328 1_556
Li8 O8 2.152117 1_555
Li8 O18 2.157026 1_665
Li9 O20 2.117515 1_555
Li9 O21 2.125838 1_555
Li9 O19 2.127848 1_565
Li9 O6 2.136480 1_556
Li9 O9 2.146335 1_555
Li9 O18 2.156115 1_565
Li10 O12 1.979028 1_555
Li10 O4 2.147669 1_555
Li10 O5 2.148584 1_555
Li10 O3 2.170652 1_565
Li10 O2 2.173139 1_565
Li11 O13 2.061551 1_555
Li11 O5 2.144310 1_555
Li11 O4 2.146009 1_655
Li11 O2 2.171068 1_665
Li11 O3 2.173379 1_565
Li11 O23 2.381428 1_555
Li12 O14 2.061525 1_555
Li12 O7 2.144357 1_555
Li12 O6 2.146015 1_555
Li12 O0 2.170992 1_555
Li12 O1 2.173343 1_555
Li12 O21 2.381356 1_554
Li13 O15 1.979221 1_555
Li13 O6 2.147809 1_655
Li13 O7 2.148700 1_555
Li13 O1 2.170577 1_555
Li13 O0 2.173060 1_655
Mn0 O23 1.938738 1_455
Mn0 O16 1.963878 1_565
Mn0 O22 1.980609 1_555
Mn0 O17 1.984505 1_465
Mn0 O2 2.204311 1_565
Mn0 O8 2.237280 1_455
Mn1 O23 1.939792 1_555
Mn1 O16 1.964108 1_565
Mn1 O22 1.979183 1_555
Mn1 O17 1.984496 1_565
Mn1 O3 2.207415 1_565
Mn1 O9 2.234674 1_555
Mn2 O21 1.939766 1_555
Mn2 O18 1.964136 1_655
Mn2 O20 1.979461 1_655
Mn2 O19 1.984152 1_555
Mn2 O1 2.207072 1_556
Mn2 O10 2.235131 1_555
Mn3 O21 1.938752 1_555
Mn3 O18 1.963841 1_555
Mn3 O20 1.980091 1_555
Mn3 O19 1.985026 1_555
Mn3 O0 2.203813 1_556
Mn3 O11 2.237863 1_555
Mn4 O12 1.806109 1_555
Mn4 O7 1.941529 1_555
Mn4 O6 1.941849 1_555
Mn4 O0 1.973351 1_565
Mn4 O1 1.974077 1_565
Mn4 O19 2.130886 1_564
Mn5 O13 1.805027 1_555
Mn5 O6 1.935422 1_655
Mn5 O7 1.936389 1_555
Mn5 O1 1.957123 1_565
Mn5 O0 1.957686 1_665
Mn5 O18 2.191543 1_664
Mn6 O14 1.804912 1_555
Mn6 O4 1.935267 1_555
Mn6 O5 1.936927 1_555
Mn6 O2 1.957185 1_555
Mn6 O3 1.957306 1_555
Mn6 O16 2.191833 1_555
Mn7 O15 1.805685 1_555
Mn7 O5 1.941893 1_555
Mn7 O4 1.942230 1_655
Mn7 O2 1.973067 1_655
Mn7 O3 1.973809 1_555
Mn7 O17 2.131186 1_555
Co0 O11 1.963896 1_555
Co0 O8 1.963954 1_455
Co0 O10 1.965829 1_455
Co0 O9 1.965866 1_555
Co0 O22 1.968378 1_555
Co0 O20 1.968541 1_555
Co1 O11 1.928659 1_555
Co1 O8 1.928717 1_555
Co1 O10 1.938825 1_555
Co1 O9 1.938879 1_555
Co1 O21 2.202152 1_555
Co1 O23 2.202185 1_555
