# generated using pymatgen
data_Na4MnMo8O47
_symmetry_space_group_name_H-M   'P 1'
_cell_length_a   9.00051900
_cell_length_b   9.45576387
_cell_length_c   11.69257952
_cell_angle_alpha   100.08332165
_cell_angle_beta   102.14399118
_cell_angle_gamma   91.90588361
_symmetry_Int_Tables_number   1
_chemical_formula_structural   Na4MnMo8O47
_chemical_formula_sum   'Na4 Mn1 Mo8 O47'
_cell_volume   955.27982318
_cell_formula_units_Z   1
loop_
 _symmetry_equiv_pos_site_id
 _symmetry_equiv_pos_as_xyz
  1  'x, y, z'
loop_
 _atom_site_type_symbol
 _atom_site_label
 _atom_site_symmetry_multiplicity
 _atom_site_fract_x
 _atom_site_fract_y
 _atom_site_fract_z
 _atom_site_occupancy
  Na  Na0  1  0.47790300  0.36455200  0.08576100  1
  Na  Na1  1  0.52209700  0.63544800  0.91423900  1
  Na  Na2  1  0.24720600  0.62998600  0.38139200  1
  Na  Na3  1  0.75279400  0.37001400  0.61860800  1
  Mn  Mn0  1  0.00000000  0.00000000  0.50000000  1
  Mo  Mo0  1  0.24137600  0.90340800  0.15001600  1
  Mo  Mo1  1  0.75862400  0.09659200  0.84998400  1
  Mo  Mo2  1  0.93918800  0.41868800  0.12434000  1
  Mo  Mo3  1  0.06081200  0.58131200  0.87566000  1
  Mo  Mo4  1  0.13348500  0.20431500  0.28777800  1
  Mo  Mo5  1  0.86651500  0.79568500  0.71222200  1
  Mo  Mo6  1  0.11913600  0.14697200  0.97648700  1
  Mo  Mo7  1  0.88086400  0.85302800  0.02351300  1
  O  O0  1  0.52966800  0.73210600  0.44244100  1
  O  O1  1  0.47033200  0.26789400  0.55755900  1
  O  O2  1  0.94376000  0.27132200  0.23066300  1
  O  O3  1  0.05624000  0.72867800  0.76933700  1
  O  O4  1  0.24342000  0.80598100  0.26160100  1
  O  O5  1  0.75658000  0.19401900  0.73839900  1
  O  O6  1  0.62394200  0.25481300  0.28625900  1
  O  O7  1  0.37605800  0.74518700  0.71374100  1
  O  O8  1  0.02576400  0.55309100  0.24350600  1
  O  O9  1  0.97423600  0.44690900  0.75649400  1
  O  O10  1  0.30189900  0.08666900  0.25010200  1
  O  O11  1  0.69810100  0.91333100  0.74989800  1
  O  O12  1  0.90050300  0.22069600  0.97854200  1
  O  O13  1  0.09949700  0.77930400  0.02145800  1
  O  O14  1  0.18243100  0.24214300  0.88205000  1
  O  O15  1  0.81756900  0.75785700  0.11795000  1
  O  O16  1  0.53217300  0.31522100  0.88253300  1
  O  O17  1  0.46782700  0.68477900  0.11746700  1
  O  O18  1  0.05912800  0.53641400  0.52656600  1
  O  O19  1  0.94087200  0.46358600  0.47343400  1
  O  O20  1  0.26996100  0.02939100  0.01269800  1
  O  O21  1  0.73003900  0.97060900  0.98730200  1
  O  O22  1  0.65490200  0.13044200  0.25291600  1
  O  O23  1  0.34509800  0.86955800  0.74708400  1
  O  O24  1  0.08126800  0.10015000  0.39118500  1
  O  O25  1  0.91873200  0.89985000  0.60881500  1
  O  O26  1  0.69749200  0.68004200  0.33727000  1
  O  O27  1  0.30250800  0.31995800  0.66273000  1
  O  O28  1  0.74422000  0.43810000  0.10525800  1
  O  O29  1  0.25578000  0.56190000  0.89474200  1
  O  O30  1  0.03752100  0.00305700  0.13054700  1
  O  O31  1  0.96247900  0.99694300  0.86945300  1
  O  O32  1  0.23693300  0.35629600  0.37707700  1
  O  O33  1  0.76306700  0.64370400  0.62292300  1
  O  O34  1  0.44269800  0.13885600  0.55653900  1
  O  O35  1  0.55730200  0.86114400  0.44346100  1
  O  O36  1  0.42635200  0.81686100  0.10284500  1
  O  O37  1  0.57364800  0.18313900  0.89715500  1
  O  O38  1  0.40169300  0.53847800  0.22671300  1
  O  O39  1  0.59830700  0.46152200  0.77328700  1
  O  O40  1  0.15937100  0.28236800  0.12340300  1
  O  O41  1  0.84062900  0.71763200  0.87659700  1
  O  O42  1  0.00000000  0.50000000  0.00000000  1
  O  O43  1  0.27608600  0.19104500  0.65883100  1
  O  O44  1  0.72391400  0.80895500  0.34116900  1
  O  O45  1  0.12129100  0.86678300  0.48391300  1
  O  O46  1  0.87870900  0.13321700  0.51608700  1
loop_
_geom_bond_atom_site_label_1
_geom_bond_atom_site_label_2
_geom_bond_distance
_geom_bond_site_symmetry_2
Na0 O38 2.343716 1_555
Na0 O28 2.425878 1_555
Na0 O16 2.493625 1_554
Na0 O6 2.818943 1_555
Na1 O39 2.343716 1_555
Na1 O29 2.425878 1_555
Na1 O17 2.493625 1_556
Na1 O7 2.818943 1_555
Na2 O8 2.289447 1_555
Na2 O4 2.352099 1_555
Na2 O38 2.557974 1_555
Na2 O32 2.577784 1_555
Na2 O0 2.595592 1_555
Na2 O45 2.745069 1_555
Na2 O18 2.857456 1_555
Na3 O9 2.289447 1_555
Na3 O5 2.352099 1_555
Na3 O39 2.557974 1_555
Na3 O33 2.577784 1_555
Na3 O1 2.595592 1_555
Na3 O46 2.745069 1_555
Na3 O19 2.857456 1_555
Mn0 O45 1.705524 1_545
Mn0 O46 1.705524 1_455
Mn0 O24 1.953979 1_555
Mn0 O25 1.953979 1_445
Mo0 O4 1.721403 1_555
Mo0 O10 1.904732 1_565
Mo0 O13 1.934516 1_555
Mo0 O36 2.016106 1_555
Mo0 O30 2.078590 1_565
Mo0 O20 2.210527 1_565
Mo1 O5 1.721403 1_555
Mo1 O11 1.904732 1_545
Mo1 O12 1.934516 1_555
Mo1 O37 2.016106 1_555
Mo1 O31 2.078590 1_545
Mo1 O21 2.210527 1_545
Mo2 O8 1.738114 1_655
Mo2 O28 1.741803 1_555
Mo2 O42 1.924230 1_655
Mo2 O2 2.019363 1_555
Mo2 O12 2.263131 1_554
Mo2 O40 2.400656 1_655
Mo3 O9 1.738114 1_455
Mo3 O29 1.741803 1_555
Mo3 O42 1.924230 1_556
Mo3 O3 2.019363 1_555
Mo3 O13 2.263131 1_556
Mo3 O41 2.400656 1_455
Mo4 O32 1.731741 1_555
Mo4 O24 1.810591 1_555
Mo4 O2 1.871829 1_455
Mo4 O10 1.987656 1_555
Mo4 O40 2.228595 1_555
Mo4 O30 2.396863 1_555
Mo5 O33 1.731741 1_555
Mo5 O25 1.810591 1_555
Mo5 O3 1.871829 1_655
Mo5 O11 1.987656 1_555
Mo5 O41 2.228595 1_555
Mo5 O31 2.396863 1_555
Mo6 O14 1.712365 1_555
Mo6 O20 1.811525 1_556
Mo6 O40 1.912719 1_556
Mo6 O31 2.017351 1_445
Mo6 O12 2.112842 1_455
Mo6 O30 2.642906 1_556
Mo7 O15 1.712365 1_555
Mo7 O21 1.811525 1_554
Mo7 O41 1.912719 1_554
Mo7 O30 2.017351 1_665
Mo7 O13 2.112842 1_655
Mo7 O31 2.642906 1_554
O0 O35 1.234604 1_555
O1 O34 1.234604 1_555
O16 O37 1.344377 1_555
O17 O36 1.344377 1_555
O18 O19 1.231377 1_455
O22 O6 1.232735 1_555
O23 O7 1.232735 1_555
O26 O44 1.225243 1_555
O27 O43 1.225243 1_555
