# generated using pymatgen
data_Co5(SiN3)2
_symmetry_space_group_name_H-M   'P 1'
_cell_length_a   10.29507332
_cell_length_b   10.29507332
_cell_length_c   5.15385970
_cell_angle_alpha   90.00000000
_cell_angle_beta   90.00000000
_cell_angle_gamma   90.00000000
_symmetry_Int_Tables_number   1
_chemical_formula_structural   Co5(SiN3)2
_chemical_formula_sum   'Co20 Si8 N24'
_cell_volume   546.25003747
_cell_formula_units_Z   4
loop_
 _symmetry_equiv_pos_site_id
 _symmetry_equiv_pos_as_xyz
  1  'x, y, z'
loop_
 _atom_site_type_symbol
 _atom_site_label
 _atom_site_symmetry_multiplicity
 _atom_site_fract_x
 _atom_site_fract_y
 _atom_site_fract_z
 _atom_site_occupancy
  Co  Co0  1  0.31397086  0.11010344  0.77451827  1
  Co  Co1  1  0.18602914  0.61010344  0.77451827  1
  Co  Co2  1  0.68602914  0.88989656  0.77451827  1
  Co  Co3  1  0.81397086  0.38989656  0.77451827  1
  Co  Co4  1  0.88989656  0.31397086  0.22548173  1
  Co  Co5  1  0.61010344  0.81397086  0.22548173  1
  Co  Co6  1  0.11010344  0.68602914  0.22548173  1
  Co  Co7  1  0.38989656  0.18602914  0.22548173  1
  Co  Co8  1  0.50000000  0.00000000  -0.00000000  1
  Co  Co9  1  0.00000000  0.50000000  0.00000000  1
  Co  Co10  1  0.41084748  0.42339165  0.69627938  1
  Co  Co11  1  0.08915252  0.92339165  0.69627938  1
  Co  Co12  1  0.58915252  0.57660835  0.69627938  1
  Co  Co13  1  0.91084748  0.07660835  0.69627938  1
  Co  Co14  1  0.57660835  0.41084748  0.30372062  1
  Co  Co15  1  0.92339165  0.91084748  0.30372062  1
  Co  Co16  1  0.42339165  0.58915252  0.30372062  1
  Co  Co17  1  0.07660835  0.08915252  0.30372062  1
  Co  Co18  1  0.50000000  0.00000000  0.50000000  1
  Co  Co19  1  -0.00000000  0.50000000  0.50000000  1
  Si  Si0  1  0.61588320  0.23446609  0.75982033  1
  Si  Si1  1  0.88411680  0.73446609  0.75982033  1
  Si  Si2  1  0.38411680  0.76553391  0.75982033  1
  Si  Si3  1  0.11588320  0.26553391  0.75982033  1
  Si  Si4  1  0.76553391  0.61588320  0.24017967  1
  Si  Si5  1  0.73446609  0.11588320  0.24017967  1
  Si  Si6  1  0.23446609  0.38411680  0.24017967  1
  Si  Si7  1  0.26553391  0.88411680  0.24017967  1
  N  N0  1  0.47262338  0.17744740  0.89799685  1
  N  N1  1  0.02737662  0.67744740  0.89799685  1
  N  N2  1  0.52737662  0.82255260  0.89799685  1
  N  N3  1  0.97262338  0.32255260  0.89799685  1
  N  N4  1  0.82255260  0.47262338  0.10200315  1
  N  N5  1  0.67744740  0.97262338  0.10200315  1
  N  N6  1  0.17744740  0.52737662  0.10200315  1
  N  N7  1  0.32255260  0.02737662  0.10200315  1
  N  N8  1  0.63414657  0.39662560  0.65964973  1
  N  N9  1  0.86585343  0.89662560  0.65964973  1
  N  N10  1  0.36585343  0.60337440  0.65964973  1
  N  N11  1  0.13414657  0.10337440  0.65964973  1
  N  N12  1  0.60337440  0.63414657  0.34035027  1
  N  N13  1  0.89662560  0.13414657  0.34035027  1
  N  N14  1  0.39662560  0.36585343  0.34035027  1
  N  N15  1  0.10337440  0.86585343  0.34035027  1
  N  N16  1  0.22939643  0.27060357  0.00000000  1
  N  N17  1  0.27060357  0.77060357  0.00000000  1
  N  N18  1  0.77060357  0.72939643  -0.00000000  1
  N  N19  1  0.72939643  0.22939643  -0.00000000  1
  N  N20  1  0.63070610  0.13070610  0.50000000  1
  N  N21  1  0.86929390  0.63070610  0.50000000  1
  N  N22  1  0.36929390  0.86929390  0.50000000  1
  N  N23  1  0.13070610  0.36929390  0.50000000  1
loop_
_geom_bond_atom_site_label_1
_geom_bond_atom_site_label_2
_geom_bond_distance
_geom_bond_site_symmetry_2
Co0 N0 1.885065 1_555
Co0 N7 1.892583 1_556
Co0 N11 1.944893 1_555
Co0 N16 2.199748 1_556
Co1 N1 1.885065 1_555
Co1 N6 1.892583 1_556
Co1 N10 1.944893 1_555
Co1 N17 2.199748 1_556
Co2 N2 1.885065 1_555
Co2 N5 1.892583 1_556
Co2 N9 1.944893 1_555
Co2 N18 2.199748 1_556
Co3 N3 1.885065 1_555
Co3 N4 1.892583 1_556
Co3 N8 1.944893 1_555
Co3 N19 2.199748 1_556
Co4 N4 1.885065 1_555
Co4 N3 1.892583 1_554
Co4 N13 1.944893 1_555
Co4 N19 2.199748 1_555
Co5 N5 1.885065 1_555
Co5 N2 1.892583 1_554
Co5 N12 1.944893 1_555
Co5 N18 2.199748 1_555
Co6 N6 1.885065 1_555
Co6 N1 1.892583 1_554
Co6 N15 1.944893 1_555
Co6 N17 2.199748 1_555
Co7 N7 1.885065 1_555
Co7 N0 1.892583 1_554
Co7 N14 1.944893 1_555
Co7 N16 2.199748 1_555
Co8 N5 1.921752 1_545
Co8 N0 1.921752 1_554
Co8 N2 1.921752 1_544
Co8 N7 1.921752 1_555
Co9 N1 1.921752 1_554
Co9 N6 1.921752 1_555
Co9 N4 1.921752 1_455
Co9 N3 1.921752 1_454
Co10 N10 1.919265 1_555
Co10 N14 1.933231 1_555
Co10 N8 2.323020 1_555
Co11 N11 1.919265 1_565
Co11 N15 1.933231 1_555
Co11 N9 2.323020 1_455
Co12 N8 1.919265 1_555
Co12 N12 1.933231 1_555
Co12 N10 2.323020 1_555
Co13 N9 1.919265 1_545
Co13 N13 1.933231 1_555
Co13 N11 2.323020 1_655
Co14 N14 1.919265 1_555
Co14 N8 1.933231 1_555
Co14 N12 2.323020 1_555
Co15 N15 1.919265 1_655
Co15 N9 1.933231 1_555
Co15 N13 2.323020 1_565
Co16 N12 1.919265 1_555
Co16 N10 1.933231 1_555
Co16 N14 2.323020 1_555
Co17 N13 1.919265 1_455
Co17 N11 1.933231 1_555
Co17 N15 2.323020 1_545
Co18 N20 1.903007 1_555
Co18 N22 1.903007 1_545
Co19 N21 1.903007 1_455
Co19 N23 1.903007 1_555
N0 Si0 1.739820 1_555
N1 Si1 1.739820 1_455
N2 Si2 1.739820 1_555
N3 Si3 1.739820 1_655
N4 Si4 1.739820 1_555
N5 Si5 1.739820 1_565
N6 Si6 1.739820 1_555
N7 Si7 1.739820 1_545
N8 Si0 1.757534 1_555
N9 Si1 1.757534 1_555
N10 Si2 1.757534 1_555
N11 Si3 1.757534 1_555
N12 Si4 1.757534 1_555
N13 Si5 1.757534 1_555
N14 Si6 1.757534 1_555
N15 Si7 1.757534 1_555
N16 Si6 1.703142 1_555
N16 Si3 1.703142 1_554
N17 Si7 1.703142 1_555
N17 Si2 1.703142 1_554
N18 Si1 1.703142 1_554
N18 Si4 1.703142 1_555
N19 Si0 1.703142 1_554
N19 Si5 1.703142 1_555
N20 Si0 1.719739 1_555
N20 Si5 1.719739 1_555
N21 Si4 1.719739 1_555
N21 Si1 1.719739 1_555
N22 Si7 1.719739 1_555
N22 Si2 1.719739 1_555
N23 Si6 1.719739 1_555
N23 Si3 1.719739 1_555
