# generated using pymatgen
data_BH9(CO)3
_symmetry_space_group_name_H-M   'P 1'
_cell_length_a   7.87266100
_cell_length_b   7.87266175
_cell_length_c   4.56223800
_cell_angle_alpha   90.00000000
_cell_angle_beta   90.00000000
_cell_angle_gamma   120.00000105
_symmetry_Int_Tables_number   1
_chemical_formula_structural   BH9(CO)3
_chemical_formula_sum   'B2 H18 C6 O6'
_cell_volume   244.87909298
_cell_formula_units_Z   2
loop_
 _symmetry_equiv_pos_site_id
 _symmetry_equiv_pos_as_xyz
  1  'x, y, z'
loop_
 _atom_site_type_symbol
 _atom_site_label
 _atom_site_symmetry_multiplicity
 _atom_site_fract_x
 _atom_site_fract_y
 _atom_site_fract_z
 _atom_site_occupancy
  B  B0  1  0.00000000  0.00000000  0.50000000  1
  B  B1  1  0.00000000  0.00000000  0.00000000  1
  H  H0  1  0.07175400  0.61789600  0.25000000  1
  H  H1  1  0.54614200  0.92824600  0.25000000  1
  H  H2  1  0.38210400  0.45385800  0.25000000  1
  H  H3  1  0.92824600  0.38210400  0.75000000  1
  H  H4  1  0.45385800  0.07175400  0.75000000  1
  H  H5  1  0.61789600  0.54614200  0.75000000  1
  H  H6  1  0.86430500  0.59128800  0.44570500  1
  H  H7  1  0.72698400  0.13569500  0.44570500  1
  H  H8  1  0.40871200  0.27301600  0.44570500  1
  H  H9  1  0.13569500  0.40871200  0.94570500  1
  H  H10  1  0.27301600  0.86430500  0.94570500  1
  H  H11  1  0.59128800  0.72698400  0.94570500  1
  H  H12  1  0.13569500  0.40871200  0.55429500  1
  H  H13  1  0.27301600  0.86430500  0.55429500  1
  H  H14  1  0.59128800  0.72698400  0.55429500  1
  H  H15  1  0.86430500  0.59128800  0.05429500  1
  H  H16  1  0.72698400  0.13569500  0.05429500  1
  H  H17  1  0.40871200  0.27301600  0.05429500  1
  C  C0  1  0.95441600  0.65568800  0.25000000  1
  C  C1  1  0.70127200  0.04558400  0.25000000  1
  C  C2  1  0.34431200  0.29872800  0.25000000  1
  C  C3  1  0.04558400  0.34431200  0.75000000  1
  C  C4  1  0.29872800  0.95441600  0.75000000  1
  C  C5  1  0.65568800  0.70127200  0.75000000  1
  O  O0  1  0.82178000  0.95764800  0.25000000  1
  O  O1  1  0.13586900  0.17822000  0.25000000  1
  O  O2  1  0.04235200  0.86413100  0.25000000  1
  O  O3  1  0.17822000  0.04235200  0.75000000  1
  O  O4  1  0.86413100  0.82178000  0.75000000  1
  O  O5  1  0.95764800  0.13586900  0.75000000  1
loop_
_geom_bond_atom_site_label_1
_geom_bond_atom_site_label_2
_geom_bond_distance
_geom_bond_site_symmetry_2
B0 O3 1.706700 1_555
B0 O0 1.706700 1_445
B0 O1 1.706702 1_555
B0 O4 1.706702 1_445
B0 O5 1.706706 1_455
B0 O2 1.706706 1_545
B1 O3 1.706700 1_554
B1 O0 1.706700 1_445
B1 O1 1.706702 1_555
B1 O4 1.706702 1_444
B1 O5 1.706706 1_454
B1 O2 1.706706 1_545
C0 H6 1.094454 1_555
C0 H15 1.094454 1_555
C0 H0 1.103040 1_655
C0 O2 1.426920 1_655
C1 H7 1.094453 1_555
C1 H16 1.094453 1_555
C1 H1 1.103040 1_545
C1 O0 1.426927 1_545
C2 H8 1.094457 1_555
C2 H17 1.094457 1_555
C2 H2 1.103041 1_555
C2 O1 1.426921 1_555
C3 H9 1.094454 1_555
C3 H12 1.094454 1_555
C3 H3 1.103040 1_455
C3 O5 1.426920 1_455
C4 H10 1.094453 1_555
C4 H13 1.094453 1_555
C4 H4 1.103040 1_565
C4 O3 1.426927 1_565
C5 H11 1.094457 1_555
C5 H14 1.094457 1_555
C5 H5 1.103041 1_555
C5 O4 1.426921 1_555
