# generated using pymatgen
data_FeB10(H13O4)2
_symmetry_space_group_name_H-M   'P 1'
_cell_length_a   6.76550500
_cell_length_b   7.34826677
_cell_length_c   18.55453478
_cell_angle_alpha   80.32976299
_cell_angle_beta   79.49542542
_cell_angle_gamma   62.59050390
_symmetry_Int_Tables_number   1
_chemical_formula_structural   FeB10(H13O4)2
_chemical_formula_sum   'Fe2 B20 H52 O16'
_cell_volume   801.41492891
_cell_formula_units_Z   2
loop_
 _symmetry_equiv_pos_site_id
 _symmetry_equiv_pos_as_xyz
  1  'x, y, z'
loop_
 _atom_site_type_symbol
 _atom_site_label
 _atom_site_symmetry_multiplicity
 _atom_site_fract_x
 _atom_site_fract_y
 _atom_site_fract_z
 _atom_site_occupancy
  Fe  Fe0  1  0.00000000  0.00000000  0.50000000  1
  Fe  Fe1  1  0.50000000  0.50000000  0.00000000  1
  B  B0  1  0.30790900  0.38265300  0.65539300  1
  B  B1  1  0.34595500  0.11734700  0.84460700  1
  B  B2  1  0.69209100  0.61734700  0.34460700  1
  B  B3  1  0.65404500  0.88265300  0.15539300  1
  B  B4  1  0.10328000  0.37136600  0.72186400  1
  B  B5  1  0.19651100  0.12863400  0.77813600  1
  B  B6  1  0.89672000  0.62863400  0.27813600  1
  B  B7  1  0.80348900  0.87136600  0.22186400  1
  B  B8  1  0.29935900  0.46736900  0.73635900  1
  B  B9  1  0.50308700  0.03263100  0.76364100  1
  B  B10  1  0.70064200  0.53263100  0.26364100  1
  B  B11  1  0.49691300  0.96736900  0.23635900  1
  B  B12  1  0.53456800  0.23624900  0.70142000  1
  B  B13  1  0.47223700  0.26375100  0.79858000  1
  B  B14  1  0.46543200  0.76375100  0.29858000  1
  B  B15  1  0.52776300  0.73624900  0.20142000  1
  B  B16  1  0.16679200  0.35890200  0.81300800  1
  B  B17  1  0.33870100  0.14109800  0.68699200  1
  B  B18  1  0.83320800  0.64109800  0.18699200  1
  B  B19  1  0.66129900  0.85890200  0.31300800  1
  H  H0  1  0.33417100  0.28039800  0.94444100  1
  H  H1  1  0.55901000  0.21960200  0.55555900  1
  H  H2  1  0.66582900  0.71960200  0.05555900  1
  H  H3  1  0.44099000  0.78039800  0.44444100  1
  H  H4  1  0.26192500  0.24740400  0.02927400  1
  H  H5  1  0.53860200  0.25259600  0.47072600  1
  H  H6  1  0.73807500  0.75259600  0.97072600  1
  H  H7  1  0.46139800  0.74740400  0.52927400  1
  H  H8  1  0.12964800  0.19862600  0.58321100  1
  H  H9  1  0.91148500  0.30137400  0.91678900  1
  H  H10  1  0.87035200  0.80137400  0.41678900  1
  H  H11  1  0.08851500  0.69862600  0.08321100  1
  H  H12  1  0.89654000  0.36626000  0.55862000  1
  H  H13  1  0.82142000  0.13374000  0.94138000  1
  H  H14  1  0.10346000  0.63374000  0.44138000  1
  H  H15  1  0.17858000  0.86626000  0.05862000  1
  H  H16  1  0.05869500  0.72345100  0.63089600  1
  H  H17  1  0.41304200  0.77654900  0.86910400  1
  H  H18  1  0.94130500  0.27654900  0.36910400  1
  H  H19  1  0.58695800  0.22345100  0.13089600  1
  H  H20  1  0.85710400  0.93965500  0.64786100  1
  H  H21  1  0.44461900  0.56034500  0.85213900  1
  H  H22  1  0.14289600  0.06034500  0.35213900  1
  H  H23  1  0.55538100  0.43965500  0.14786100  1
  H  H24  1  0.02524700  0.80967500  0.90915700  1
  H  H25  1  0.74407900  0.69032500  0.59084300  1
  H  H26  1  0.97475300  0.19032500  0.09084300  1
  H  H27  1  0.25592100  0.30967500  0.40915700  1
  H  H28  1  0.81403100  0.92934200  0.86664200  1
  H  H29  1  0.61001500  0.57065800  0.63335800  1
  H  H30  1  0.18596900  0.07065800  0.13335800  1
  H  H31  1  0.38998500  0.42934200  0.36664200  1
  H  H32  1  0.29657100  0.46720900  0.59399300  1
  H  H33  1  0.35777300  0.03279100  0.90600700  1
  H  H34  1  0.70342900  0.53279100  0.40600700  1
  H  H35  1  0.64222700  0.96720900  0.09399300  1
  H  H36  1  0.91044600  0.45921300  0.71099700  1
  H  H37  1  0.08065600  0.04078700  0.78900300  1
  H  H38  1  0.08955400  0.54078700  0.28900300  1
  H  H39  1  0.91934400  0.95921300  0.21099700  1
  H  H40  1  0.27868500  0.63862600  0.73744800  1
  H  H41  1  0.65475800  0.86137400  0.76255200  1
  H  H42  1  0.72131500  0.36137400  0.26255200  1
  H  H43  1  0.34524200  0.13862600  0.23744800  1
  H  H44  1  0.72053400  0.20598100  0.67276800  1
  H  H45  1  0.59928400  0.29401900  0.82723200  1
  H  H46  1  0.27946600  0.79401900  0.32723200  1
  H  H47  1  0.40071600  0.70598100  0.17276800  1
  H  H48  1  0.02447900  0.47515400  0.85499700  1
  H  H49  1  0.35463000  0.02484600  0.64500300  1
  H  H50  1  0.97552100  0.52484600  0.14500300  1
  H  H51  1  0.64537000  0.97515400  0.35499700  1
  O  O0  1  0.32991800  0.32361100  0.99201400  1
  O  O1  1  0.64554400  0.17638900  0.50798600  1
  O  O2  1  0.67008200  0.67638900  0.00798600  1
  O  O3  1  0.35445600  0.82361100  0.49201400  1
  O  O4  1  0.02911300  0.23610700  0.54544900  1
  O  O5  1  0.81067000  0.26389300  0.95455100  1
  O  O6  1  0.97088700  0.76389300  0.45455100  1
  O  O7  1  0.18933000  0.73610700  0.04544900  1
  O  O8  1  0.93824400  0.84663800  0.60888200  1
  O  O9  1  0.39376300  0.65336200  0.89111800  1
  O  O10  1  0.06175600  0.15336200  0.39111800  1
  O  O11  1  0.60623700  0.34663800  0.10888200  1
  O  O12  1  0.86181900  0.89462000  0.91586200  1
  O  O13  1  0.67230000  0.60538000  0.58413800  1
  O  O14  1  0.13818100  0.10538000  0.08413800  1
  O  O15  1  0.32770000  0.39462000  0.41586200  1
loop_
_geom_bond_atom_site_label_1
_geom_bond_atom_site_label_2
_geom_bond_distance
_geom_bond_site_symmetry_2
Fe0 O3 2.127421 1_545
Fe0 O1 2.127421 1_455
Fe0 O4 2.150997 1_555
Fe0 O6 2.150997 1_445
Fe0 O10 2.210624 1_555
Fe0 O8 2.210624 1_445
Fe1 O2 2.127426 1_555
Fe1 O0 2.127426 1_554
Fe1 O5 2.151001 1_554
Fe1 O7 2.151001 1_555
Fe1 O11 2.210626 1_555
Fe1 O9 2.210626 1_554
B0 H32 1.200003 1_555
B1 H33 1.200003 1_555
B2 H34 1.200003 1_555
B3 H35 1.200003 1_555
B4 H36 1.198417 1_455
B5 H37 1.198423 1_555
B6 H38 1.198417 1_655
B7 H39 1.198423 1_555
B8 H40 1.203786 1_555
B9 H41 1.203784 1_545
B10 H42 1.203789 1_555
B11 H43 1.203784 1_565
B12 H44 1.205504 1_555
B13 H45 1.205510 1_555
B14 H46 1.205504 1_555
B15 H47 1.205510 1_555
B16 H48 1.206878 1_555
B17 H49 1.206876 1_555
B18 H50 1.206878 1_555
B19 H51 1.206876 1_555
H0 O0 0.978418 1_555
H1 O1 0.978420 1_555
H2 O2 0.978418 1_555
H3 O3 0.978420 1_555
H4 O0 0.997144 1_554
H5 O1 0.997152 1_555
H6 O2 0.997144 1_556
H7 O3 0.997152 1_555
H8 O4 0.982786 1_555
H9 O5 0.982782 1_555
H10 O6 0.982786 1_555
H11 O7 0.982782 1_555
H12 O4 0.993833 1_655
H13 O5 0.993836 1_555
H14 O6 0.993833 1_455
H15 O7 0.993836 1_555
H16 O8 0.984030 1_455
H17 O9 0.984033 1_555
H18 O10 0.984030 1_655
H19 O11 0.984033 1_555
H20 O8 0.983597 1_555
H21 O9 0.983597 1_555
H22 O10 0.983597 1_555
H23 O11 0.983597 1_555
H24 O12 0.983931 1_455
H25 O13 0.983937 1_555
H26 O14 0.983931 1_655
H27 O15 0.983937 1_555
H28 O12 0.978311 1_555
H29 O13 0.978309 1_555
H30 O14 0.978311 1_555
H31 O15 0.978309 1_555
