# generated using pymatgen
data_Ba4PrY(CuO2)8
_symmetry_space_group_name_H-M   'P 1'
_cell_length_a   3.90655800
_cell_length_b   7.83373300
_cell_length_c   13.99147545
_cell_angle_alpha   81.99390050
_cell_angle_beta   90.00000000
_cell_angle_gamma   90.00000000
_symmetry_Int_Tables_number   1
_chemical_formula_structural   Ba4PrY(CuO2)8
_chemical_formula_sum   'Ba4 Pr1 Y1 Cu8 O16'
_cell_volume   424.00681001
_cell_formula_units_Z   1
loop_
 _symmetry_equiv_pos_site_id
 _symmetry_equiv_pos_as_xyz
  1  'x, y, z'
loop_
 _atom_site_type_symbol
 _atom_site_label
 _atom_site_symmetry_multiplicity
 _atom_site_fract_x
 _atom_site_fract_y
 _atom_site_fract_z
 _atom_site_occupancy
  Ba  Ba0  1  0.50000000  0.43230000  0.27127700  1
  Ba  Ba1  1  0.50000000  0.93189700  0.27257700  1
  Ba  Ba2  1  0.50000000  0.06810300  0.72742300  1
  Ba  Ba3  1  0.50000000  0.56770000  0.72872300  1
  Pr  Pr0  1  0.50000000  0.00000000  0.00000000  1
  Y  Y0  1  0.50000000  0.50000000  0.00000000  1
  Cu  Cu0  1  0.00000000  0.14406600  0.42467900  1
  Cu  Cu1  1  0.00000000  0.64374900  0.42468900  1
  Cu  Cu2  1  0.00000000  0.35625100  0.57531100  1
  Cu  Cu3  1  0.00000000  0.85593400  0.57532100  1
  Cu  Cu4  1  0.00000000  0.22134100  0.12544900  1
  Cu  Cu5  1  0.00000000  0.71628000  0.12547300  1
  Cu  Cu6  1  0.00000000  0.28372000  0.87452700  1
  Cu  Cu7  1  0.00000000  0.77865900  0.87455100  1
  O  O0  1  0.50000000  0.23229300  0.10706400  1
  O  O1  1  0.50000000  0.71425700  0.10706000  1
  O  O2  1  0.50000000  0.28574300  0.89294000  1
  O  O3  1  0.50000000  0.76770700  0.89293600  1
  O  O4  1  0.00000000  0.17678300  0.29114900  1
  O  O5  1  0.00000000  0.67666600  0.29111900  1
  O  O6  1  0.00000000  0.32333400  0.70888100  1
  O  O7  1  0.00000000  0.82321700  0.70885100  1
  O  O8  1  0.00000000  0.39035000  0.43857600  1
  O  O9  1  0.00000000  0.89046100  0.43854200  1
  O  O10  1  0.00000000  0.10953900  0.56145800  1
  O  O11  1  0.00000000  0.60965000  0.56142400  1
  O  O12  1  0.00000000  0.47395700  0.10452600  1
  O  O13  1  0.00000000  0.97209700  0.11260000  1
  O  O14  1  0.00000000  0.02790300  0.88740000  1
  O  O15  1  0.00000000  0.52604300  0.89547400  1
loop_
_geom_bond_atom_site_label_1
_geom_bond_atom_site_label_2
_geom_bond_distance
_geom_bond_site_symmetry_2
Ba0 O5 2.775778 1_655
Ba0 O5 2.775778 1_555
Ba0 O4 2.782838 1_555
Ba0 O4 2.782838 1_655
Ba0 O0 2.955760 1_555
Ba0 O1 2.957053 1_555
Ba0 O12 3.025397 1_555
Ba0 O12 3.025397 1_655
Ba0 O8 3.031200 1_655
Ba0 O8 3.031200 1_555
Ba1 O4 2.775217 1_665
Ba1 O4 2.775217 1_565
Ba1 O5 2.781323 1_555
Ba1 O5 2.781323 1_655
Ba1 O13 2.954348 1_655
Ba1 O13 2.954348 1_555
Ba1 O9 3.017089 1_555
Ba1 O9 3.017089 1_655
Ba1 O1 3.060995 1_555
Ba1 O0 3.063078 1_565
Ba2 O7 2.775217 1_545
Ba2 O7 2.775217 1_645
Ba2 O6 2.781323 1_555
Ba2 O6 2.781323 1_655
Ba2 O14 2.954348 1_555
Ba2 O14 2.954348 1_655
Ba2 O10 3.017089 1_555
Ba2 O10 3.017089 1_655
Ba2 O2 3.060995 1_555
Ba2 O3 3.063078 1_545
Ba3 O6 2.775778 1_555
Ba3 O6 2.775778 1_655
Ba3 O7 2.782838 1_555
Ba3 O7 2.782838 1_655
Ba3 O3 2.955760 1_555
Ba3 O2 2.957053 1_555
Ba3 O15 3.025397 1_655
Ba3 O15 3.025397 1_555
Ba3 O11 3.031200 1_555
Ba3 O11 3.031200 1_655
Cu0 O4 1.850076 1_555
Cu0 O10 1.895091 1_555
Cu0 O8 1.965856 1_555
Cu0 O9 1.969049 1_545
Cu1 O5 1.850628 1_555
Cu1 O11 1.894478 1_555
Cu1 O8 1.967429 1_555
Cu1 O9 1.969048 1_555
Cu2 O6 1.850628 1_555
Cu2 O8 1.894478 1_555
Cu2 O11 1.967429 1_555
Cu2 O10 1.969048 1_555
Cu3 O7 1.850076 1_555
Cu3 O9 1.895091 1_555
Cu3 O11 1.965856 1_555
Cu3 O10 1.969049 1_565
Cu4 O12 1.959713 1_555
Cu4 O0 1.970452 1_555
Cu4 O0 1.970452 1_455
Cu4 O13 1.985547 1_545
Cu4 O4 2.295940 1_555
Cu5 O12 1.960712 1_555
Cu5 O1 1.970548 1_455
Cu5 O1 1.970548 1_555
Cu5 O13 1.986938 1_555
Cu5 O5 2.295076 1_555
Cu6 O15 1.960712 1_555
Cu6 O2 1.970548 1_555
Cu6 O2 1.970548 1_455
Cu6 O14 1.986938 1_555
Cu6 O6 2.295076 1_555
Cu7 O15 1.959713 1_555
Cu7 O3 1.970452 1_455
Cu7 O3 1.970452 1_555
Cu7 O14 1.985547 1_565
Cu7 O7 2.295940 1_555
O0 Y0 2.401435 1_555
O0 Pr0 2.512899 1_555
O1 Y0 2.400263 1_555
O1 Pr0 2.514035 1_565
O2 Y0 2.400263 1_556
O2 Pr0 2.514035 1_556
O3 Y0 2.401435 1_556
O3 Pr0 2.512899 1_566
O12 Y0 2.431591 1_555
O12 Y0 2.431591 1_455
O13 Pr0 2.499833 1_565
O13 Pr0 2.499833 1_465
O14 Pr0 2.499833 1_456
O14 Pr0 2.499833 1_556
O15 Y0 2.431591 1_456
O15 Y0 2.431591 1_556
