# generated using pymatgen
data_Sr2TiAlCu2O7
_symmetry_space_group_name_H-M   'P 1'
_cell_length_a   5.44238072
_cell_length_b   5.73387602
_cell_length_c   12.10107801
_cell_angle_alpha   103.83722235
_cell_angle_beta   103.06356311
_cell_angle_gamma   89.92620009
_symmetry_Int_Tables_number   1
_chemical_formula_structural   Sr2TiAlCu2O7
_chemical_formula_sum   'Sr4 Ti2 Al2 Cu4 O14'
_cell_volume   356.62075082
_cell_formula_units_Z   2
loop_
 _symmetry_equiv_pos_site_id
 _symmetry_equiv_pos_as_xyz
  1  'x, y, z'
loop_
 _atom_site_type_symbol
 _atom_site_label
 _atom_site_symmetry_multiplicity
 _atom_site_fract_x
 _atom_site_fract_y
 _atom_site_fract_z
 _atom_site_occupancy
  Sr  Sr0  1  0.36687900  0.33192700  0.72043000  1
  Sr  Sr1  1  0.64560200  0.67250300  0.28058600  1
  Sr  Sr2  1  0.86692400  0.89168100  0.72028200  1
  Sr  Sr3  1  0.14565800  0.10970900  0.28022100  1
  Ti  Ti0  1  0.28534600  0.67706200  0.50036400  1
  Ti  Ti1  1  0.78534000  0.32593200  0.50033500  1
  Al  Al0  1  0.97596300  0.99918400  0.00046600  1
  Al  Al1  1  0.47690000  0.50428500  0.00049100  1
  Cu  Cu0  1  0.42711500  0.94136300  0.89024600  1
  Cu  Cu1  1  0.53645300  0.06597000  0.11073700  1
  Cu  Cu2  1  0.92824000  0.45281100  0.89028900  1
  Cu  Cu3  1  0.03684000  0.54728500  0.11074700  1
  O  O0  1  0.13024600  0.38088600  0.50008400  1
  O  O1  1  0.63065600  0.62234200  0.50018400  1
  O  O2  1  0.24419300  0.28162400  0.89080900  1
  O  O3  1  0.34923500  0.72081700  0.11067400  1
  O  O4  1  0.74375200  0.11176300  0.89070400  1
  O  O5  1  0.84838300  0.89189900  0.11011900  1
  O  O6  1  0.60541500  0.61150500  0.89175200  1
  O  O7  1  0.71189400  0.39419400  0.10914600  1
  O  O8  1  0.10562700  0.78267800  0.89174400  1
  O  O9  1  0.21182600  0.21783300  0.10916600  1
  O  O10  1  0.27288900  0.88275100  0.63479700  1
  O  O11  1  0.63793800  0.12059300  0.36602900  1
  O  O12  1  0.77283100  0.25577500  0.63467400  1
  O  O13  1  0.13813000  0.74697000  0.36601100  1
loop_
_geom_bond_atom_site_label_1
_geom_bond_atom_site_label_2
_geom_bond_distance
_geom_bond_site_symmetry_2
Al0 O9 1.844401 1_665
Al0 O8 1.845606 1_654
Al0 O4 1.851277 1_564
Al0 O5 1.851833 1_555
Al1 O7 1.843281 1_555
Al1 O6 1.844658 1_554
Al1 O3 1.851148 1_555
Al1 O2 1.851844 1_554
Cu0 O8 1.978851 1_555
Cu0 O4 1.980332 1_565
Cu0 O6 2.126732 1_555
Cu0 O2 2.188445 1_565
Cu1 O9 1.966913 1_555
Cu1 O5 1.968770 1_545
Cu1 O7 2.117599 1_555
Cu1 O3 2.226881 1_545
Cu2 O2 1.978391 1_655
Cu2 O6 1.979230 1_555
Cu2 O8 2.119167 1_655
Cu2 O4 2.200970 1_555
Cu3 O7 1.969470 1_455
Cu3 O3 1.971317 1_555
Cu3 O9 2.112367 1_555
Cu3 O5 2.225969 1_455
O0 Ti0 1.896363 1_555
O0 Ti1 1.904573 1_455
O0 Sr3 2.761369 1_555
O0 Sr0 2.766211 1_555
O1 Ti1 1.895886 1_555
O1 Ti0 1.905322 1_555
O1 Sr1 2.759408 1_555
O1 Sr2 2.760741 1_555
O2 Sr0 2.384784 1_555
O3 Sr1 2.382862 1_555
O3 Sr3 3.040096 1_565
O4 Sr2 2.381766 1_545
O5 Sr3 2.384201 1_665
O5 Sr1 3.054470 1_555
O6 Sr0 2.398375 1_555
O7 Sr1 2.394582 1_555
O8 Sr2 2.404811 1_455
O9 Sr3 2.397942 1_555
O10 Ti0 1.781549 1_555
O10 Sr0 2.540855 1_565
O10 Sr2 2.638530 1_455
O11 Ti1 1.780155 1_555
O11 Sr1 2.533888 1_545
O11 Sr3 2.640434 1_555
O11 Sr3 3.159595 1_655
O12 Ti1 1.781036 1_555
O12 Sr2 2.546706 1_545
O12 Sr0 2.639318 1_555
O13 Ti0 1.779865 1_555
O13 Sr3 2.541201 1_565
O13 Sr1 2.641081 1_455
O13 Sr1 3.155195 1_555
