# generated using pymatgen
data_Pr9Ga5S21
_symmetry_space_group_name_H-M   'P 1'
_cell_length_a   11.79607632
_cell_length_b   11.79607634
_cell_length_c   11.79607530
_cell_angle_alpha   95.03625180
_cell_angle_beta   95.03625678
_cell_angle_gamma   95.03625651
_symmetry_Int_Tables_number   1
_chemical_formula_structural   Pr9Ga5S21
_chemical_formula_sum   'Pr18 Ga10 S42'
_cell_volume   1621.18473273
_cell_formula_units_Z   2
loop_
 _symmetry_equiv_pos_site_id
 _symmetry_equiv_pos_as_xyz
  1  'x, y, z'
loop_
 _atom_site_type_symbol
 _atom_site_label
 _atom_site_symmetry_multiplicity
 _atom_site_fract_x
 _atom_site_fract_y
 _atom_site_fract_z
 _atom_site_occupancy
  Pr  Pr0  1  0.11625636  0.88540215  0.74343661  1
  Pr  Pr1  1  0.45636631  0.22839982  0.07959546  1
  Pr  Pr2  1  0.77135434  0.55238137  0.39321030  1
  Pr  Pr3  1  0.39321030  0.77135434  0.55238137  1
  Pr  Pr4  1  0.74343661  0.11625636  0.88540215  1
  Pr  Pr5  1  0.07959546  0.45636631  0.22839982  1
  Pr  Pr6  1  0.22839982  0.07959546  0.45636631  1
  Pr  Pr7  1  0.55238137  0.39321030  0.77135434  1
  Pr  Pr8  1  0.88540215  0.74343661  0.11625636  1
  Pr  Pr9  1  0.21112931  0.43666462  0.58527600  1
  Pr  Pr10  1  0.55660174  0.78195668  0.93252905  1
  Pr  Pr11  1  0.87167335  0.10143234  0.24999066  1
  Pr  Pr12  1  0.93252905  0.55660174  0.78195668  1
  Pr  Pr13  1  0.24999066  0.87167335  0.10143234  1
  Pr  Pr14  1  0.58527600  0.21112931  0.43666462  1
  Pr  Pr15  1  0.10143234  0.24999066  0.87167335  1
  Pr  Pr16  1  0.43666462  0.58527600  0.21112931  1
  Pr  Pr17  1  0.78195668  0.93252905  0.55660174  1
  Ga  Ga0  1  0.72328270  0.39128713  0.04913124  1
  Ga  Ga1  1  0.04913124  0.72328270  0.39128713  1
  Ga  Ga2  1  0.39128713  0.04913124  0.72328270  1
  Ga  Ga3  1  0.88509293  0.22780047  0.55095251  1
  Ga  Ga4  1  0.22780047  0.55095251  0.88509293  1
  Ga  Ga5  1  0.55095251  0.88509293  0.22780047  1
  Ga  Ga6  1  0.85188063  0.85188063  0.85188063  1
  Ga  Ga7  1  0.14491558  0.14491558  0.14491558  1
  Ga  Ga8  1  0.64437430  0.64437430  0.64437430  1
  Ga  Ga9  1  0.35079034  0.35079034  0.35079034  1
  S  S0  1  0.54668005  0.45068838  0.01247285  1
  S  S1  1  0.87390019  0.78601076  0.35923724  1
  S  S2  1  0.21242441  0.11044423  0.69607669  1
  S  S3  1  0.69607669  0.21242441  0.11044423  1
  S  S4  1  0.01247285  0.54668005  0.45068838  1
  S  S5  1  0.35923724  0.87390019  0.78601076  1
  S  S6  1  0.78601076  0.35923724  0.87390019  1
  S  S7  1  0.11044423  0.69607669  0.21242441  1
  S  S8  1  0.45068838  0.01247285  0.54668005  1
  S  S9  1  0.96638399  0.07123653  0.48194414  1
  S  S10  1  0.30083292  0.38935791  0.81667034  1
  S  S11  1  0.63280794  0.72488442  0.16461793  1
  S  S12  1  0.81667034  0.30083292  0.38935791  1
  S  S13  1  0.16461793  0.63280794  0.72488442  1
  S  S14  1  0.48194414  0.96638399  0.07123653  1
  S  S15  1  0.72488442  0.16461793  0.63280794  1
  S  S16  1  0.07123653  0.48194414  0.96638399  1
  S  S17  1  0.38935791  0.81667034  0.30083292  1
  S  S18  1  0.84555410  0.50991626  0.17147240  1
  S  S19  1  0.17147240  0.84555410  0.50991626  1
  S  S20  1  0.50991626  0.17147240  0.84555410  1
  S  S21  1  0.67413732  0.00673831  0.34623564  1
  S  S22  1  0.00673831  0.34623564  0.67413732  1
  S  S23  1  0.34623564  0.67413732  0.00673831  1
  S  S24  1  0.55307024  0.40760747  0.30968049  1
  S  S25  1  0.89665109  0.76143024  0.66678014  1
  S  S26  1  0.23617845  0.09227128  0.99256883  1
  S  S27  1  0.99256883  0.23617845  0.09227128  1
  S  S28  1  0.30968049  0.55307024  0.40760747  1
  S  S29  1  0.66678014  0.89665109  0.76143024  1
  S  S30  1  0.76143024  0.66678014  0.89665109  1
  S  S31  1  0.09227128  0.99256883  0.23617845  1
  S  S32  1  0.40760747  0.30968049  0.55307024  1
  S  S33  1  0.15010097  0.28615207  0.37887867  1
  S  S34  1  0.48084594  0.61907335  0.72514271  1
  S  S35  1  0.79447908  0.94354554  0.03915416  1
  S  S36  1  0.72514271  0.48084594  0.61907335  1
  S  S37  1  0.03915416  0.79447908  0.94354554  1
  S  S38  1  0.37887867  0.15010097  0.28615207  1
  S  S39  1  0.94354554  0.03915416  0.79447908  1
  S  S40  1  0.28615207  0.37887867  0.15010097  1
  S  S41  1  0.61907335  0.72514271  0.48084594  1
loop_
_geom_bond_atom_site_label_1
_geom_bond_atom_site_label_2
_geom_bond_distance
_geom_bond_site_symmetry_2
Pr0 S37 2.863504 1_555
Pr0 S5 2.883290 1_555
Pr0 S25 2.891066 1_455
Pr0 S19 2.893883 1_555
Pr0 S39 2.911175 1_465
Pr0 S2 2.913568 1_565
Pr0 S13 3.075280 1_555
Pr1 S3 2.844016 1_555
Pr1 S38 2.874593 1_555
Pr1 S20 2.920098 1_554
Pr1 S40 2.921265 1_555
Pr1 S0 2.942724 1_555
Pr1 S26 2.981408 1_554
Pr1 S14 3.125538 1_545
Pr1 S24 3.340969 1_555
Pr2 S18 2.847360 1_555
Pr2 S4 2.873501 1_655
Pr2 S36 2.945616 1_555
Pr2 S1 2.985395 1_555
Pr2 S24 3.000747 1_555
Pr2 S41 3.007881 1_555
Pr2 S12 3.058049 1_555
Pr3 S19 2.847360 1_555
Pr3 S8 2.873501 1_565
Pr3 S41 2.945616 1_555
Pr3 S5 2.985395 1_555
Pr3 S28 3.000747 1_555
Pr3 S34 3.007881 1_555
Pr3 S17 3.058049 1_555
Pr4 S39 2.863504 1_555
Pr4 S6 2.883290 1_555
Pr4 S29 2.891066 1_545
Pr4 S20 2.893884 1_555
Pr4 S35 2.911175 1_546
Pr4 S3 2.913568 1_556
Pr4 S15 3.075280 1_555
Pr5 S7 2.844016 1_555
Pr5 S40 2.874594 1_555
Pr5 S18 2.920098 1_455
Pr5 S33 2.921265 1_555
Pr5 S4 2.942724 1_555
Pr5 S27 2.981408 1_455
Pr5 S16 3.125538 1_554
Pr5 S28 3.340969 1_555
Pr6 S2 2.844016 1_555
Pr6 S33 2.874594 1_555
Pr6 S19 2.920098 1_545
Pr6 S38 2.921265 1_555
Pr6 S8 2.942724 1_555
Pr6 S31 2.981408 1_545
Pr6 S9 3.125538 1_455
Pr6 S32 3.340969 1_555
Pr7 S20 2.847360 1_555
Pr7 S0 2.873501 1_556
Pr7 S34 2.945616 1_555
Pr7 S6 2.985395 1_555
Pr7 S32 3.000747 1_555
Pr7 S36 3.007881 1_555
Pr7 S10 3.058049 1_555
Pr8 S35 2.863504 1_555
Pr8 S1 2.883289 1_555
Pr8 S30 2.891066 1_554
Pr8 S18 2.893883 1_555
Pr8 S37 2.911175 1_654
Pr8 S7 2.913568 1_655
Pr8 S11 3.075280 1_555
Pr9 S13 2.842342 1_555
Pr9 S22 2.870206 1_555
Pr9 S28 2.877852 1_555
Pr9 S33 2.882201 1_555
Pr9 S32 2.902392 1_555
Pr9 S10 2.957279 1_555
Pr9 S4 3.152538 1_555
Pr10 S14 2.854825 1_556
Pr10 S29 2.867816 1_555
Pr10 S30 2.918529 1_555
Pr10 S23 2.926505 1_556
Pr10 S11 2.958765 1_556
Pr10 S34 2.994053 1_555
Pr10 S5 3.106381 1_555
Pr10 S35 3.333068 1_556
Pr11 S21 2.862936 1_555
Pr11 S12 2.903884 1_555
Pr11 S9 2.926736 1_555
Pr11 S27 2.934036 1_555
Pr11 S3 2.995034 1_555
Pr11 S35 2.995770 1_545
Pr11 S31 3.011879 1_645
Pr12 S16 2.854825 1_655
Pr12 S30 2.867816 1_555
Pr12 S25 2.918529 1_555
Pr12 S22 2.926505 1_655
Pr12 S13 2.958766 1_655
Pr12 S36 2.994053 1_555
Pr12 S6 3.106381 1_555
Pr12 S37 3.333068 1_655
Pr13 S23 2.862936 1_555
Pr13 S17 2.903884 1_555
Pr13 S14 2.926737 1_555
Pr13 S31 2.934036 1_555
Pr13 S7 2.995034 1_555
Pr13 S37 2.995770 1_554
Pr13 S26 3.011879 1_564
Pr14 S15 2.842342 1_555
Pr14 S21 2.870206 1_555
Pr14 S32 2.877852 1_555
Pr14 S38 2.882201 1_555
Pr14 S24 2.902392 1_555
Pr14 S12 2.957279 1_555
Pr14 S8 3.152538 1_555
Pr15 S22 2.862936 1_555
Pr15 S10 2.903884 1_555
Pr15 S16 2.926737 1_555
Pr15 S26 2.934036 1_555
Pr15 S2 2.995034 1_555
Pr15 S39 2.995770 1_455
Pr15 S27 3.011879 1_456
Pr16 S11 2.842342 1_555
Pr16 S23 2.870206 1_555
Pr16 S24 2.877852 1_555
Pr16 S40 2.882201 1_555
Pr16 S28 2.902392 1_555
Pr16 S17 2.957280 1_555
Pr16 S0 3.152538 1_555
Pr17 S9 2.854825 1_565
Pr17 S25 2.867816 1_555
Pr17 S29 2.918529 1_555
Pr17 S21 2.926505 1_565
Pr17 S15 2.958766 1_565
Pr17 S41 2.994053 1_555
Pr17 S1 3.106381 1_555
Pr17 S39 3.333067 1_565
Ga0 S18 2.246506 1_555
Ga0 S6 2.267939 1_554
Ga0 S0 2.273564 1_555
Ga0 S3 2.295095 1_555
Ga1 S19 2.246506 1_555
Ga1 S1 2.267939 1_455
Ga1 S4 2.273564 1_555
Ga1 S7 2.295095 1_555
Ga2 S20 2.246506 1_555
Ga2 S5 2.267939 1_545
Ga2 S8 2.273564 1_555
Ga2 S2 2.295095 1_555
Ga3 S22 2.246745 1_655
Ga3 S12 2.273197 1_555
Ga3 S9 2.275304 1_555
Ga3 S15 2.293188 1_555
Ga4 S23 2.246745 1_556
Ga4 S10 2.273197 1_555
Ga4 S16 2.275304 1_555
Ga4 S13 2.293188 1_555
Ga5 S21 2.246745 1_565
Ga5 S17 2.273197 1_555
Ga5 S14 2.275304 1_555
Ga5 S11 2.293188 1_555
Ga6 S25 2.465191 1_555
Ga6 S29 2.465191 1_555
Ga6 S30 2.465191 1_555
Ga6 S35 2.545494 1_556
Ga6 S39 2.545494 1_565
Ga6 S37 2.545494 1_655
Ga7 S31 2.243934 1_545
Ga7 S26 2.243934 1_554
Ga7 S27 2.243934 1_455
Ga8 S41 2.233683 1_555
Ga8 S34 2.233683 1_555
Ga8 S36 2.233683 1_555
Ga9 S40 2.482063 1_555
Ga9 S33 2.482064 1_555
Ga9 S38 2.482064 1_555
Ga9 S32 2.521371 1_555
Ga9 S24 2.521371 1_555
Ga9 S28 2.521371 1_555
