# generated using pymatgen
data_NaNd2Se3
_symmetry_space_group_name_H-M   'P 1'
_cell_length_a   7.34083890
_cell_length_b   7.34083890
_cell_length_c   7.34083890
_cell_angle_alpha   146.69756565
_cell_angle_beta   132.13274302
_cell_angle_gamma   59.56008146
_symmetry_Int_Tables_number   1
_chemical_formula_structural   NaNd2Se3
_chemical_formula_sum   'Na1 Nd2 Se3'
_cell_volume   159.64683424
_cell_formula_units_Z   1
loop_
 _symmetry_equiv_pos_site_id
 _symmetry_equiv_pos_as_xyz
  1  'x, y, z'
loop_
 _atom_site_type_symbol
 _atom_site_label
 _atom_site_symmetry_multiplicity
 _atom_site_fract_x
 _atom_site_fract_y
 _atom_site_fract_z
 _atom_site_occupancy
  Na  Na0  1  -0.00000000  -0.00000000  -0.00000000  1
  Nd  Nd0  1  0.66412424  0.66412424  0.00000000  1
  Nd  Nd1  1  0.33587576  0.33587576  -0.00000000  1
  Se  Se0  1  0.83270294  0.33270294  0.50000000  1
  Se  Se1  1  0.50000000  -0.00000000  0.50000000  1
  Se  Se2  1  0.16729706  0.66729706  0.50000000  1
loop_
_geom_bond_atom_site_label_1
_geom_bond_atom_site_label_2
_geom_bond_distance
_geom_bond_site_symmetry_2
Na0 Se1 2.978018 1_454
Na0 Se1 2.978018 1_555
Na0 Se0 2.994885 1_444
Na0 Se0 2.994885 1_455
Na0 Se2 2.994885 1_555
Na0 Se2 2.994885 1_544
Nd0 Se1 2.966241 1_565
Nd0 Se1 2.966241 1_554
Nd0 Se2 2.978292 1_554
Nd0 Se2 2.978292 1_655
Nd0 Se0 3.006532 1_565
Nd0 Se0 3.006532 1_554
Nd1 Se1 2.966241 1_554
Nd1 Se1 2.966241 1_565
Nd1 Se0 2.978292 1_555
Nd1 Se0 2.978292 1_454
Nd1 Se2 3.006532 1_555
Nd1 Se2 3.006532 1_544
