# generated using pymatgen
data_Cu(Bi4Ir)3
_symmetry_space_group_name_H-M   'P 1'
_cell_length_a   4.24242300
_cell_length_b   9.12694800
_cell_length_c   11.68545461
_cell_angle_alpha   89.73223687
_cell_angle_beta   90.00000000
_cell_angle_gamma   90.00000000
_symmetry_Int_Tables_number   1
_chemical_formula_structural   Cu(Bi4Ir)3
_chemical_formula_sum   'Cu1 Bi12 Ir3'
_cell_volume   452.46023310
_cell_formula_units_Z   1
loop_
 _symmetry_equiv_pos_site_id
 _symmetry_equiv_pos_as_xyz
  1  'x, y, z'
loop_
 _atom_site_type_symbol
 _atom_site_label
 _atom_site_symmetry_multiplicity
 _atom_site_fract_x
 _atom_site_fract_y
 _atom_site_fract_z
 _atom_site_occupancy
  Cu  Cu0  1  0.50000000  0.59603000  0.97741600  1
  Bi  Bi0  1  0.50000000  0.79554800  0.61308000  1
  Bi  Bi1  1  0.50000000  0.28791800  0.88769900  1
  Bi  Bi2  1  0.00000000  0.20673400  0.38945000  1
  Bi  Bi3  1  0.00000000  0.69635500  0.11413600  1
  Bi  Bi4  1  0.50000000  0.89324100  0.90936300  1
  Bi  Bi5  1  0.50000000  0.39224900  0.59770500  1
  Bi  Bi6  1  0.00000000  0.11782500  0.09017500  1
  Bi  Bi7  1  0.00000000  0.61130900  0.40399700  1
  Bi  Bi8  1  0.50000000  0.90702200  0.32011800  1
  Bi  Bi9  1  0.50000000  0.39864200  0.18128400  1
  Bi  Bi10  1  0.00000000  0.09308200  0.67998000  1
  Bi  Bi11  1  0.00000000  0.58959800  0.81812800  1
  Ir  Ir0  1  0.50000000  0.10043900  0.52162600  1
  Ir  Ir1  1  0.00000000  0.41337500  0.01789000  1
  Ir  Ir2  1  0.00000000  0.90063400  0.47795300  1
loop_
_geom_bond_atom_site_label_1
_geom_bond_atom_site_label_2
_geom_bond_distance
_geom_bond_site_symmetry_2
Cu0 Ir1 2.737704 1_656
Cu0 Ir1 2.737704 1_556
Bi0 Ir2 2.810443 1_655
Bi0 Ir2 2.810443 1_555
Bi0 Ir0 2.976212 1_565
Bi1 Ir1 2.853316 1_556
Bi1 Ir1 2.853316 1_656
Bi1 Cu0 3.005777 1_555
Bi2 Ir0 2.795052 1_455
Bi2 Ir0 2.795052 1_555
Bi2 Ir2 2.974500 1_545
Bi3 Cu0 2.811421 1_554
Bi3 Cu0 2.811421 1_454
Bi3 Ir1 2.821811 1_555
Bi4 Cu0 2.823223 1_555
Bi5 Ir0 2.811732 1_555
Bi6 Ir1 2.822859 1_555
Bi7 Ir2 2.782309 1_555
Bi8 Ir2 2.811343 1_555
Bi8 Ir2 2.811343 1_655
Bi8 Ir0 2.949548 1_565
Bi9 Ir1 2.856707 1_655
Bi9 Ir1 2.856707 1_555
Bi9 Cu0 2.980063 1_554
Bi10 Ir0 2.815494 1_555
Bi10 Ir0 2.815494 1_455
Bi10 Ir2 2.949100 1_545
Bi11 Cu0 2.822878 1_555
Bi11 Cu0 2.822878 1_455
Bi11 Ir1 2.828567 1_556
Ir0 Ir2 2.845037 1_645
Ir0 Ir2 2.845037 1_545
