# generated using pymatgen
data_BaDy(CoO3)4
_symmetry_space_group_name_H-M   'P 1'
_cell_length_a   5.38811248
_cell_length_b   5.38811248
_cell_length_c   7.49586604
_cell_angle_alpha   90.00000000
_cell_angle_beta   90.00000000
_cell_angle_gamma   90.00000000
_symmetry_Int_Tables_number   1
_chemical_formula_structural   BaDy(CoO3)4
_chemical_formula_sum   'Ba1 Dy1 Co4 O12'
_cell_volume   217.61815461
_cell_formula_units_Z   1
loop_
 _symmetry_equiv_pos_site_id
 _symmetry_equiv_pos_as_xyz
  1  'x, y, z'
loop_
 _atom_site_type_symbol
 _atom_site_label
 _atom_site_symmetry_multiplicity
 _atom_site_fract_x
 _atom_site_fract_y
 _atom_site_fract_z
 _atom_site_occupancy
  Ba  Ba0  1  0.50000000  0.50000000  -0.00000000  1
  Dy  Dy0  1  0.00000000  -0.00000000  0.50000000  1
  Co  Co0  1  0.00000000  0.50000000  0.75015859  1
  Co  Co1  1  0.00000000  0.50000000  0.24984141  1
  Co  Co2  1  0.50000000  0.00000000  0.24984141  1
  Co  Co3  1  0.50000000  -0.00000000  0.75015859  1
  O  O0  1  0.23665591  0.23665591  0.26879680  1
  O  O1  1  0.23665591  0.23665591  0.73120320  1
  O  O2  1  0.76334409  0.76334409  0.26879680  1
  O  O3  1  0.76334409  0.76334409  0.73120320  1
  O  O4  1  0.76334409  0.23665591  0.73120320  1
  O  O5  1  0.76334409  0.23665591  0.26879680  1
  O  O6  1  0.23665591  0.76334409  0.73120320  1
  O  O7  1  0.23665591  0.76334409  0.26879680  1
  O  O8  1  0.00000000  0.50000000  0.50000000  1
  O  O9  1  0.00000000  0.50000000  -0.00000000  1
  O  O10  1  0.50000000  0.00000000  0.50000000  1
  O  O11  1  0.50000000  -0.00000000  -0.00000000  1
loop_
_geom_bond_atom_site_label_1
_geom_bond_atom_site_label_2
_geom_bond_distance
_geom_bond_site_symmetry_2
Ba0 O11 2.694056 1_555
Ba0 O11 2.694056 1_565
Ba0 O9 2.694056 1_555
Ba0 O9 2.694056 1_655
Ba0 O2 2.843658 1_555
Ba0 O4 2.843658 1_554
Ba0 O6 2.843658 1_554
Ba0 O3 2.843658 1_554
Ba0 O1 2.843658 1_554
Ba0 O7 2.843658 1_555
Ba0 O0 2.843658 1_555
Ba0 O5 2.843658 1_555
Dy0 O2 2.501086 1_445
Dy0 O7 2.501086 1_545
Dy0 O3 2.501086 1_445
Dy0 O0 2.501086 1_555
Dy0 O5 2.501086 1_455
Dy0 O4 2.501086 1_455
Dy0 O1 2.501086 1_555
Dy0 O6 2.501086 1_545
Dy0 O10 2.694056 1_455
Dy0 O8 2.694056 1_555
Dy0 O10 2.694056 1_555
Dy0 O8 2.694056 1_545
Co0 O9 1.872778 1_556
Co0 O8 1.875155 1_555
Co0 O6 1.912981 1_555
Co0 O3 1.912981 1_455
Co0 O4 1.912981 1_455
Co0 O1 1.912981 1_555
Co1 O9 1.872778 1_555
Co1 O8 1.875155 1_555
Co1 O5 1.912981 1_455
Co1 O2 1.912981 1_455
Co1 O0 1.912981 1_555
Co1 O7 1.912981 1_555
Co2 O11 1.872778 1_555
Co2 O10 1.875155 1_555
Co2 O7 1.912981 1_545
Co2 O2 1.912981 1_545
Co2 O0 1.912981 1_555
Co2 O5 1.912981 1_555
Co3 O11 1.872778 1_556
Co3 O10 1.875155 1_555
Co3 O6 1.912981 1_545
Co3 O3 1.912981 1_545
Co3 O4 1.912981 1_555
Co3 O1 1.912981 1_555
