# generated using pymatgen
data_PmNp
_symmetry_space_group_name_H-M   'P 1'
_cell_length_a   6.73564329
_cell_length_b   6.73564329
_cell_length_c   11.87666400
_cell_angle_alpha   90.00000000
_cell_angle_beta   90.00000000
_cell_angle_gamma   119.99999307
_symmetry_Int_Tables_number   1
_chemical_formula_structural   PmNp
_chemical_formula_sum   'Pm8 Np8'
_cell_volume   466.64142719
_cell_formula_units_Z   8
loop_
 _symmetry_equiv_pos_site_id
 _symmetry_equiv_pos_as_xyz
  1  'x, y, z'
loop_
 _atom_site_type_symbol
 _atom_site_label
 _atom_site_symmetry_multiplicity
 _atom_site_fract_x
 _atom_site_fract_y
 _atom_site_fract_z
 _atom_site_occupancy
  Pm  Pm0_0  1  0.33333350  0.16666650  0.00000000  1
  Pm  Pm0_1  1  0.33333350  0.16666650  0.50000000  1
  Pm  Pm0_2  1  0.33333350  0.66666650  0.00000000  1
  Pm  Pm0_3  1  0.33333350  0.66666650  0.50000000  1
  Pm  Pm0_4  1  0.83333350  0.16666650  0.00000000  1
  Pm  Pm0_5  1  0.83333350  0.16666650  0.50000000  1
  Pm  Pm0_6  1  0.83333350  0.66666650  0.00000000  1
  Pm  Pm0_7  1  0.83333350  0.66666650  0.50000000  1
  Np  Np0_0  1  0.00000000  0.00000000  0.25000000  1
  Np  Np0_1  1  0.00000000  0.00000000  0.75000000  1
  Np  Np0_2  1  0.00000000  0.50000000  0.25000000  1
  Np  Np0_3  1  0.00000000  0.50000000  0.75000000  1
  Np  Np0_4  1  0.50000000  0.00000000  0.25000000  1
  Np  Np0_5  1  0.50000000  0.00000000  0.75000000  1
  Np  Np0_6  1  0.50000000  0.50000000  0.25000000  1
  Np  Np0_7  1  0.50000000  0.50000000  0.75000000  1
loop_
_geom_bond_atom_site_label_1
_geom_bond_atom_site_label_2
_geom_bond_distance
_geom_bond_site_symmetry_2
Pm0_0 Pm0_2 3.367822 1_555
Pm0_0 Pm0_4 3.367822 1_455
Pm0_0 Pm0_2 3.367822 1_545
Pm0_0 Pm0_4 3.367822 1_555
Pm0_0 Pm0_6 3.367822 1_445
Pm0_0 Pm0_6 3.367822 1_555
Pm0_1 Pm0_3 3.367822 1_555
Pm0_1 Pm0_5 3.367822 1_455
Pm0_1 Pm0_5 3.367822 1_555
Pm0_1 Pm0_3 3.367822 1_545
Pm0_1 Pm0_7 3.367822 1_445
Pm0_1 Pm0_7 3.367822 1_555
Pm0_2 Pm0_6 3.367822 1_455
Pm0_2 Pm0_6 3.367822 1_555
Pm0_2 Pm0_4 3.367822 1_455
Pm0_2 Pm0_4 3.367822 1_565
Pm0_3 Pm0_7 3.367822 1_455
Pm0_3 Pm0_7 3.367822 1_555
Pm0_3 Pm0_5 3.367822 1_455
Pm0_3 Pm0_5 3.367822 1_565
Pm0_4 Pm0_6 3.367822 1_555
Pm0_4 Pm0_6 3.367822 1_545
Pm0_5 Pm0_7 3.367822 1_555
Pm0_5 Pm0_7 3.367822 1_545
Np0_0 Np0_4 3.367822 1_455
Np0_0 Np0_4 3.367822 1_555
Np0_0 Np0_2 3.367822 1_545
Np0_0 Np0_2 3.367822 1_555
Np0_0 Np0_6 3.367822 1_555
Np0_0 Np0_6 3.367822 1_445
Np0_0 Pm0_4 3.549180 1_455
Np0_0 Pm0_5 3.549180 1_455
Np0_0 Pm0_7 3.549182 1_445
Np0_0 Pm0_1 3.549182 1_555
Np0_0 Pm0_0 3.549182 1_555
Np0_0 Pm0_6 3.549182 1_445
Np0_1 Np0_3 3.367822 1_545
Np0_1 Np0_5 3.367822 1_455
Np0_1 Np0_3 3.367822 1_555
Np0_1 Np0_5 3.367822 1_555
Np0_1 Np0_7 3.367822 1_555
Np0_1 Np0_7 3.367822 1_445
Np0_1 Pm0_5 3.549180 1_455
Np0_1 Pm0_4 3.549180 1_456
Np0_1 Pm0_7 3.549182 1_445
Np0_1 Pm0_1 3.549182 1_555
Np0_1 Pm0_0 3.549182 1_556
Np0_1 Pm0_6 3.549182 1_446
Np0_2 Np0_6 3.367822 1_555
Np0_2 Np0_6 3.367822 1_455
Np0_2 Np0_4 3.367822 1_455
Np0_2 Np0_4 3.367822 1_565
Np0_2 Pm0_7 3.549180 1_455
Np0_2 Pm0_6 3.549180 1_455
Np0_2 Pm0_2 3.549182 1_555
Np0_2 Pm0_4 3.549182 1_455
Np0_2 Pm0_3 3.549182 1_555
Np0_2 Pm0_5 3.549182 1_455
Np0_3 Np0_7 3.367822 1_455
Np0_3 Np0_7 3.367822 1_555
Np0_3 Np0_5 3.367822 1_455
Np0_3 Np0_5 3.367822 1_565
Np0_3 Pm0_7 3.549180 1_455
Np0_3 Pm0_6 3.549180 1_456
Np0_3 Pm0_2 3.549182 1_556
Np0_3 Pm0_4 3.549182 1_456
Np0_3 Pm0_3 3.549182 1_555
Np0_3 Pm0_5 3.549182 1_455
Np0_4 Np0_6 3.367822 1_555
Np0_4 Np0_6 3.367822 1_545
Np0_4 Pm0_0 3.549180 1_555
Np0_4 Pm0_1 3.549180 1_555
Np0_4 Pm0_4 3.549182 1_555
Np0_4 Pm0_5 3.549182 1_555
Np0_4 Pm0_2 3.549182 1_545
Np0_4 Pm0_3 3.549182 1_545
Np0_5 Np0_7 3.367822 1_555
Np0_5 Np0_7 3.367822 1_545
Np0_5 Pm0_1 3.549180 1_555
Np0_5 Pm0_0 3.549180 1_556
Np0_5 Pm0_5 3.549182 1_555
Np0_5 Pm0_2 3.549182 1_546
Np0_5 Pm0_4 3.549182 1_556
Np0_5 Pm0_3 3.549182 1_545
Np0_6 Pm0_3 3.549180 1_555
Np0_6 Pm0_2 3.549180 1_555
Np0_6 Pm0_1 3.549182 1_555
Np0_6 Pm0_7 3.549182 1_555
Np0_6 Pm0_0 3.549182 1_555
Np0_6 Pm0_6 3.549182 1_555
Np0_7 Pm0_3 3.549180 1_555
Np0_7 Pm0_2 3.549180 1_556
Np0_7 Pm0_1 3.549182 1_555
Np0_7 Pm0_7 3.549182 1_555
Np0_7 Pm0_0 3.549182 1_556
Np0_7 Pm0_6 3.549182 1_556
