# generated using pymatgen
data_SrV4O9
_symmetry_space_group_name_H-M   'P 1'
_cell_length_a   8.34646893
_cell_length_b   8.34649032
_cell_length_c   5.32009935
_cell_angle_alpha   90.00001464
_cell_angle_beta   89.99947189
_cell_angle_gamma   90.00025207
_symmetry_Int_Tables_number   1
_chemical_formula_structural   SrV4O9
_chemical_formula_sum   'Sr2 V8 O18'
_cell_volume   370.61792282
_cell_formula_units_Z   2
loop_
 _symmetry_equiv_pos_site_id
 _symmetry_equiv_pos_as_xyz
  1  'x, y, z'
loop_
 _atom_site_type_symbol
 _atom_site_label
 _atom_site_symmetry_multiplicity
 _atom_site_fract_x
 _atom_site_fract_y
 _atom_site_fract_z
 _atom_site_occupancy
  Sr  Sr0  1  0.50000301  0.00000536  0.85416963  1
  Sr  Sr1  1  -0.00000224  0.49999388  0.14582972  1
  V  V0  1  0.78725095  0.90854341  0.37722341  1
  V  V1  1  0.40854645  0.71275337  0.37721952  1
  V  V2  1  0.59145493  0.28724493  0.37720594  1
  V  V3  1  0.21275784  0.09145382  0.37720283  1
  V  V4  1  0.71275316  0.59145646  0.62277163  1
  V  V5  1  0.09145481  0.78724785  0.62278408  1
  V  V6  1  0.90854553  0.21275524  0.62279106  1
  V  V7  1  0.28724435  0.40854687  0.62280018  1
  O  O0  1  0.00000129  -0.00000225  0.50000003  1
  O  O1  1  0.49999689  0.50000375  0.49999994  1
  O  O2  1  0.75793642  0.92308526  0.07617616  1
  O  O3  1  0.42307552  0.74207029  0.07618292  1
  O  O4  1  0.57692094  0.25793215  0.07621546  1
  O  O5  1  0.24207281  0.07693085  0.07621616  1
  O  O6  1  0.74206264  0.57691295  0.92382031  1
  O  O7  1  0.07691934  0.75793056  0.92381993  1
  O  O8  1  0.92307376  0.24206788  0.92378221  1
  O  O9  1  0.25792618  0.42306856  0.92378730  1
  O  O10  1  0.10713820  0.29119246  0.47068573  1
  O  O11  1  0.79118608  0.39286864  0.47068808  1
  O  O12  1  0.20880915  0.60714653  0.47069228  1
  O  O13  1  0.89286061  0.70881630  0.47069152  1
  O  O14  1  0.39286339  0.20880749  0.52931832  1
  O  O15  1  0.70881305  0.10713121  0.52930670  1
  O  O16  1  0.29119198  0.89285438  0.52931218  1
  O  O17  1  0.60714294  0.79118180  0.52930678  1
loop_
_geom_bond_atom_site_label_1
_geom_bond_atom_site_label_2
_geom_bond_distance
_geom_bond_site_symmetry_2
O0 V0 2.040216 1_445
O0 V5 2.040229 1_545
O0 V3 2.040291 1_555
O0 V6 2.040298 1_455
O1 V1 2.040211 1_555
O1 V4 2.040245 1_555
O1 V7 2.040270 1_555
O1 V2 2.040320 1_555
O2 V0 1.624725 1_555
O2 Sr0 2.538094 1_564
O3 V1 1.624661 1_555
O3 Sr0 2.538126 1_564
O4 V2 1.624419 1_555
O4 Sr0 2.538132 1_554
O5 V3 1.624391 1_555
O5 Sr0 2.538163 1_554
O6 V4 1.624727 1_555
O6 Sr1 2.538111 1_656
O7 V5 1.624661 1_555
O7 Sr1 2.538116 1_556
O8 V6 1.624418 1_555
O8 Sr1 2.538144 1_656
O9 V7 1.624397 1_555
O9 Sr1 2.538140 1_556
O10 V3 1.950323 1_555
O10 V6 1.957258 1_455
O10 V7 1.968272 1_555
O10 Sr1 2.612246 1_555
O11 V2 1.950281 1_555
O11 V4 1.957175 1_555
O11 V6 1.968321 1_555
O11 Sr1 2.612244 1_655
O12 V1 1.950240 1_555
O12 V7 1.957324 1_555
O12 V5 1.968190 1_555
O12 Sr1 2.612357 1_555
O13 V0 1.950187 1_555
O13 V5 1.957238 1_655
O13 V4 1.968216 1_555
O13 Sr1 2.612363 1_655
O14 V7 1.950325 1_555
O14 V2 1.957266 1_555
O14 V3 1.968267 1_555
O14 Sr0 2.612231 1_555
O15 V6 1.950294 1_555
O15 V0 1.957189 1_545
O15 V2 1.968312 1_555
O15 Sr0 2.612253 1_555
O16 V5 1.950237 1_555
O16 V3 1.957323 1_565
O16 V1 1.968191 1_555
O16 Sr0 2.612332 1_565
O17 V4 1.950172 1_555
O17 V1 1.957233 1_555
O17 V0 1.968234 1_555
O17 Sr0 2.612381 1_565
