# generated using pymatgen
data_Ba2CaCuSb2F14
_symmetry_space_group_name_H-M   'P 1'
_cell_length_a   7.71135790
_cell_length_b   7.71135790
_cell_length_c   16.28965995
_cell_angle_alpha   89.27963957
_cell_angle_beta   89.27963957
_cell_angle_gamma   42.17995954
_symmetry_Int_Tables_number   1
_chemical_formula_structural   Ba2CaCuSb2F14
_chemical_formula_sum   'Ba4 Ca2 Cu2 Sb4 F28'
_cell_volume   650.36233549
_cell_formula_units_Z   2
loop_
 _symmetry_equiv_pos_site_id
 _symmetry_equiv_pos_as_xyz
  1  'x, y, z'
loop_
 _atom_site_type_symbol
 _atom_site_label
 _atom_site_symmetry_multiplicity
 _atom_site_fract_x
 _atom_site_fract_y
 _atom_site_fract_z
 _atom_site_occupancy
  Ba  Ba0  1  0.73649700  0.90285300  0.62333800  1
  Ba  Ba1  1  0.90285300  0.73649700  0.12333800  1
  Ba  Ba2  1  0.26350300  0.09714700  0.37666200  1
  Ba  Ba3  1  0.09714700  0.26350300  0.87666200  1
  Ca  Ca0  1  0.44643100  0.55356900  0.75000000  1
  Ca  Ca1  1  0.55356900  0.44643100  0.25000000  1
  Cu  Cu0  1  0.50000000  0.50000000  0.00000000  1
  Cu  Cu1  1  0.50000000  0.50000000  0.50000000  1
  Sb  Sb0  1  0.83805400  0.93094700  0.87659100  1
  Sb  Sb1  1  0.16194600  0.06905300  0.12340900  1
  Sb  Sb2  1  0.93094700  0.83805400  0.37659100  1
  Sb  Sb3  1  0.06905300  0.16194600  0.62340900  1
  F  F0  1  0.89897400  0.14102300  0.33183500  1
  F  F1  1  0.59716500  0.10323300  0.45588200  1
  F  F2  1  0.40283500  0.89676700  0.54411800  1
  F  F3  1  0.13988300  0.37528700  0.60786200  1
  F  F4  1  0.57822800  0.36328200  0.61200400  1
  F  F5  1  0.63671800  0.42177200  0.88799600  1
  F  F6  1  0.10323300  0.59716500  0.95588200  1
  F  F7  1  0.85897700  0.10102600  0.16816500  1
  F  F8  1  0.02977500  0.64146300  0.78936000  1
  F  F9  1  0.86011700  0.62471300  0.39213800  1
  F  F10  1  0.57481500  0.17420700  0.76573400  1
  F  F11  1  0.62471300  0.86011700  0.89213800  1
  F  F12  1  0.17420700  0.57481500  0.26573400  1
  F  F13  1  0.42518500  0.82579300  0.23426600  1
  F  F14  1  0.36328200  0.57822800  0.11200400  1
  F  F15  1  0.97022500  0.35853700  0.21064000  1
  F  F16  1  0.30649100  0.85403300  0.98805300  1
  F  F17  1  0.10102600  0.85897700  0.66816500  1
  F  F18  1  0.69350900  0.14596700  0.01194700  1
  F  F19  1  0.85403300  0.30649100  0.48805300  1
  F  F20  1  0.89676700  0.40283500  0.04411800  1
  F  F21  1  0.82579300  0.42518500  0.73426600  1
  F  F22  1  0.64146300  0.02977500  0.28936000  1
  F  F23  1  0.14596700  0.69350900  0.51194700  1
  F  F24  1  0.42177200  0.63671800  0.38799600  1
  F  F25  1  0.14102300  0.89897400  0.83183500  1
  F  F26  1  0.35853700  0.97022500  0.71064000  1
  F  F27  1  0.37528700  0.13988300  0.10786200  1
loop_
_geom_bond_atom_site_label_1
_geom_bond_atom_site_label_2
_geom_bond_distance
_geom_bond_site_symmetry_2
Ba0 F17 2.680542 1_655
Ba0 F10 2.737927 1_565
Ba0 F3 2.746063 1_655
Ba0 F4 2.774308 1_565
Ba0 F23 2.871185 1_655
Ba0 F26 2.908146 1_555
Ba0 F1 2.913777 1_565
Ba0 F2 2.924337 1_555
Ba0 F3 3.109247 1_565
Ba0 F8 3.122848 1_655
Ba1 F7 2.680542 1_565
Ba1 F12 2.737927 1_655
Ba1 F27 2.746063 1_565
Ba1 F14 2.774308 1_655
Ba1 F18 2.871185 1_565
Ba1 F15 2.908146 1_555
Ba1 F6 2.913777 1_654
Ba1 F20 2.924337 1_555
Ba1 F27 3.109247 1_655
Ba1 F22 3.122848 1_565
Ba2 F0 2.680542 1_455
Ba2 F13 2.737927 1_545
Ba2 F9 2.746063 1_455
Ba2 F24 2.774308 1_545
Ba2 F19 2.871185 1_455
Ba2 F22 2.908146 1_555
Ba2 F2 2.913777 1_545
Ba2 F1 2.924337 1_555
Ba2 F9 3.109247 1_545
Ba2 F15 3.122848 1_455
Ba3 F25 2.680542 1_545
Ba3 F21 2.737927 1_455
Ba3 F11 2.746063 1_545
Ba3 F5 2.774308 1_455
Ba3 F16 2.871185 1_545
Ba3 F8 2.908146 1_555
Ba3 F20 2.913777 1_456
Ba3 F6 2.924337 1_555
Ba3 F11 3.109247 1_455
Ba3 F26 3.122848 1_545
Ca0 F25 2.265262 1_555
Ca0 F17 2.265262 1_555
Ca0 F10 2.301937 1_555
Ca0 F21 2.301937 1_555
Ca0 F4 2.460572 1_555
Ca0 F5 2.460572 1_555
Ca0 F8 2.815198 1_555
Ca0 F26 2.815198 1_555
Ca1 F0 2.265262 1_555
Ca1 F7 2.265262 1_555
Ca1 F12 2.301937 1_555
Ca1 F13 2.301937 1_555
Ca1 F24 2.460572 1_555
Ca1 F14 2.460572 1_555
Ca1 F22 2.815198 1_555
Ca1 F15 2.815198 1_555
Cu0 F16 1.916781 1_554
Cu0 F18 1.916781 1_555
Cu0 F14 1.959837 1_555
Cu0 F5 1.959837 1_554
Cu1 F19 1.916781 1_555
Cu1 F23 1.916781 1_555
Cu1 F24 1.959837 1_555
Cu1 F4 1.959837 1_555
F0 Sb2 2.271255 1_545
F1 Sb2 2.158004 1_545
F2 Sb3 2.158004 1_565
F3 Sb3 2.094465 1_555
F6 Sb0 2.158004 1_455
F7 Sb1 2.271255 1_655
F8 Sb0 2.079356 1_455
F9 Sb2 2.094465 1_555
F10 Sb0 2.294320 1_545
F11 Sb0 2.094465 1_555
F12 Sb2 2.294320 1_455
F13 Sb1 2.294320 1_565
F15 Sb1 2.079356 1_655
F16 Sb1 2.478767 1_566
F17 Sb3 2.271255 1_565
F18 Sb0 2.478767 1_544
F19 Sb3 2.478767 1_655
F20 Sb1 2.158004 1_655
F21 Sb3 2.294320 1_655
F22 Sb2 2.079356 1_545
F23 Sb2 2.478767 1_455
F25 Sb0 2.271255 1_455
F26 Sb3 2.079356 1_565
F27 Sb1 2.094465 1_555
