# generated using pymatgen
data_Li2V3O6
_symmetry_space_group_name_H-M   'P 1'
_cell_length_a   2.98771825
_cell_length_b   10.02016772
_cell_length_c   7.88784499
_cell_angle_alpha   84.35968364
_cell_angle_beta   79.47507914
_cell_angle_gamma   81.15070013
_symmetry_Int_Tables_number   1
_chemical_formula_structural   Li2V3O6
_chemical_formula_sum   'Li4 V6 O12'
_cell_volume   228.80582468
_cell_formula_units_Z   2
loop_
 _symmetry_equiv_pos_site_id
 _symmetry_equiv_pos_as_xyz
  1  'x, y, z'
loop_
 _atom_site_type_symbol
 _atom_site_label
 _atom_site_symmetry_multiplicity
 _atom_site_fract_x
 _atom_site_fract_y
 _atom_site_fract_z
 _atom_site_occupancy
  Li  Li0  1  0.99539200  0.99836900  0.00996900  1
  Li  Li1  1  0.99107100  0.49782700  0.52057200  1
  Li  Li2  1  0.67432600  0.00170200  0.64810400  1
  Li  Li3  1  0.67391600  0.50193800  0.15671800  1
  V  V0  1  0.34032600  0.25039200  0.08207600  1
  V  V1  1  0.66242500  0.24042400  0.41933100  1
  V  V2  1  0.67386000  0.73535300  0.91753600  1
  V  V3  1  0.33389700  0.74992000  0.58228000  1
  V  V4  1  0.99257600  0.76520900  0.24928700  1
  V  V5  1  0.99812600  0.25902200  0.74812000  1
  O  O0  1  0.48758300  0.64591900  0.38127800  1
  O  O1  1  0.49383800  0.14333600  0.87334700  1
  O  O2  1  0.17907800  0.85360200  0.78519300  1
  O  O3  1  0.16789700  0.35502100  0.29305000  1
  O  O4  1  0.81842800  0.14504000  0.18715000  1
  O  O5  1  0.83496000  0.64310300  0.69167900  1
  O  O6  1  0.83144600  0.85737400  0.47423500  1
  O  O7  1  0.85442300  0.35642700  0.97850500  1
  O  O8  1  0.15526900  0.13669900  0.54674100  1
  O  O9  1  0.15717500  0.63726300  0.05305400  1
  O  O10  1  0.50833200  0.36293500  0.62056500  1
  O  O11  1  0.50898800  0.86313100  0.11454300  1
loop_
_geom_bond_atom_site_label_1
_geom_bond_atom_site_label_2
_geom_bond_distance
_geom_bond_site_symmetry_2
Li0 O4 2.070605 1_565
Li0 O11 2.115246 1_655
Li0 O11 2.139362 1_555
Li0 O1 2.264820 1_564
Li0 O1 2.293620 1_664
Li0 O2 2.335393 1_654
Li1 O5 2.026202 1_555
Li1 O10 2.104862 1_655
Li1 O10 2.122233 1_555
Li1 O0 2.295339 1_555
Li1 O0 2.317567 1_655
Li1 O3 2.339512 1_655
Li2 O6 2.034332 1_545
Li2 O8 2.113993 1_555
Li2 O8 2.121203 1_655
Li2 O2 2.288560 1_645
Li2 O2 2.310094 1_545
Li2 O1 2.317686 1_555
Li3 O7 2.068037 1_554
Li3 O9 2.118959 1_555
Li3 O9 2.131920 1_655
Li3 O3 2.258750 1_655
Li3 O3 2.321400 1_555
Li3 O0 2.328903 1_555
O0 V3 1.929285 1_555
O0 V4 2.115174 1_455
O0 V4 2.127320 1_555
O1 V0 1.997927 1_556
O1 V5 2.072217 1_455
O1 V5 2.087598 1_555
O2 V3 1.939994 1_555
O2 V2 2.112027 1_555
O2 V2 2.122166 1_455
O3 V0 1.999361 1_555
O3 V1 2.069929 1_555
O3 V1 2.085814 1_455
O4 V0 1.907437 1_555
O4 V0 2.023613 1_655
O4 V1 2.092832 1_555
O5 V3 1.982106 1_555
O5 V3 1.987907 1_655
O5 V2 2.033100 1_555
O6 V3 1.982140 1_655
O6 V3 1.986115 1_555
O6 V4 2.026379 1_555
O7 V0 1.921440 1_656
O7 V0 2.007134 1_556
O7 V5 2.091407 1_555
O8 V1 2.027088 1_555
O8 V1 2.030485 1_455
O8 V5 2.044291 1_455
O9 V2 2.028439 1_454
O9 V2 2.036957 1_554
O9 V4 2.049227 1_455
O10 V5 2.025107 1_555
O10 V5 2.035243 1_455
O10 V1 2.044652 1_555
O11 V4 2.024779 1_555
O11 V4 2.033372 1_455
O11 V2 2.052841 1_554
