# generated using pymatgen
data_FeO2
_symmetry_space_group_name_H-M   'P 1'
_cell_length_a   5.95989211
_cell_length_b   5.95989211
_cell_length_c   14.36318500
_cell_angle_alpha   90.00000000
_cell_angle_beta   90.00000000
_cell_angle_gamma   120.00000119
_symmetry_Int_Tables_number   1
_chemical_formula_structural   FeO2
_chemical_formula_sum   'Fe12 O24'
_cell_volume   441.83302700
_cell_formula_units_Z   12
loop_
 _symmetry_equiv_pos_site_id
 _symmetry_equiv_pos_as_xyz
  1  'x, y, z'
loop_
 _atom_site_type_symbol
 _atom_site_label
 _atom_site_symmetry_multiplicity
 _atom_site_fract_x
 _atom_site_fract_y
 _atom_site_fract_z
 _atom_site_occupancy
  Fe  Fe0  1  0.99063900  0.49531900  0.16743700  1
  Fe  Fe1  1  0.50468100  0.00936100  0.16743700  1
  Fe  Fe2  1  0.65646100  0.82823000  0.49933900  1
  Fe  Fe3  1  0.50468100  0.49531900  0.16743700  1
  Fe  Fe4  1  0.17177000  0.34353900  0.49933900  1
  Fe  Fe5  1  0.00000000  0.00000000  0.66622600  1
  Fe  Fe6  1  0.00000000  0.00000000  0.28225200  1
  Fe  Fe7  1  0.33524300  0.16762200  0.83454100  1
  Fe  Fe8  1  0.17177000  0.82823000  0.49933900  1
  Fe  Fe9  1  0.83237800  0.66475700  0.83454100  1
  Fe  Fe10  1  0.83237800  0.16762200  0.83454100  1
  Fe  Fe11  1  0.33333300  0.66666700  0.95522500  1
  O  O0  1  0.36827800  0.18413900  0.09985700  1
  O  O1  1  0.66666700  0.33333300  0.24473800  1
  O  O2  1  0.81586100  0.63172200  0.09985700  1
  O  O3  1  0.81586100  0.18413900  0.09985700  1
  O  O4  1  0.02574000  0.51287000  0.43756100  1
  O  O5  1  0.17474500  0.82525500  0.23722200  1
  O  O6  1  0.33333300  0.66666700  0.57667500  1
  O  O7  1  0.17474500  0.34949000  0.23722200  1
  O  O8  1  0.33333300  0.66666700  0.08973300  1
  O  O9  1  0.48713000  0.97426000  0.43756100  1
  O  O10  1  0.48713000  0.51287000  0.43756100  1
  O  O11  1  0.65051000  0.82525500  0.23722200  1
  O  O12  1  0.71345300  0.85672700  0.74689600  1
  O  O13  1  0.85825600  0.14174400  0.57652200  1
  O  O14  1  0.85825600  0.71651300  0.57652200  1
  O  O15  1  0.00000000  0.00000000  0.90272900  1
  O  O16  1  0.00000000  0.00000000  0.41826300  1
  O  O17  1  0.14327300  0.28654700  0.74689600  1
  O  O18  1  0.14327300  0.85672700  0.74689600  1
  O  O19  1  0.28348700  0.14174400  0.57652200  1
  O  O20  1  0.50036500  0.49963500  0.90327100  1
  O  O21  1  0.50036500  0.00072900  0.90327100  1
  O  O22  1  0.66666700  0.33333300  0.76694500  1
  O  O23  1  0.99927100  0.49963500  0.90327100  1
loop_
_geom_bond_atom_site_label_1
_geom_bond_atom_site_label_2
_geom_bond_distance
_geom_bond_site_symmetry_2
Fe0 O3 1.880138 1_555
Fe0 O2 1.880143 1_555
Fe0 O7 1.979309 1_655
Fe0 O5 1.979313 1_655
Fe0 O1 2.007198 1_555
Fe0 O8 2.091467 1_655
Fe1 O3 1.880138 1_555
Fe1 O0 1.880143 1_555
Fe1 O11 1.979309 1_545
Fe1 O5 1.979313 1_545
Fe1 O1 2.007198 1_555
Fe1 O8 2.091467 1_545
Fe2 O10 1.855154 1_555
Fe2 O9 1.855159 1_555
Fe2 O14 1.979772 1_555
Fe2 O13 1.979779 1_565
Fe2 O6 2.003849 1_555
Fe2 O16 2.121353 1_665
Fe3 O2 1.880138 1_555
Fe3 O0 1.880138 1_555
Fe3 O11 1.979314 1_555
Fe3 O7 1.979314 1_555
Fe3 O1 2.007198 1_555
Fe3 O8 2.091476 1_555
Fe4 O10 1.855154 1_555
Fe4 O4 1.855159 1_555
Fe4 O19 1.979772 1_555
Fe4 O13 1.979779 1_455
Fe4 O6 2.003849 1_555
Fe4 O16 2.121353 1_555
Fe5 O18 1.878810 1_545
Fe5 O12 1.878814 1_445
Fe5 O17 1.878814 1_555
Fe5 O19 1.949616 1_555
Fe5 O14 1.949616 1_445
Fe5 O13 1.949620 1_455
Fe6 O11 1.916309 1_445
Fe6 O7 1.916309 1_555
Fe6 O5 1.916310 1_545
Fe6 O16 1.953551 1_555
Fe7 O22 1.966939 1_555
Fe7 O20 1.977670 1_555
Fe7 O21 1.977679 1_555
Fe7 O15 1.988280 1_555
Fe7 O18 2.051108 1_545
Fe7 O17 2.051108 1_555
Fe8 O9 1.855154 1_555
Fe8 O4 1.855154 1_555
Fe8 O14 1.979781 1_455
Fe8 O19 1.979781 1_565
Fe8 O6 2.003840 1_555
Fe8 O16 2.121357 1_565
Fe9 O22 1.966939 1_555
Fe9 O20 1.977670 1_555
Fe9 O23 1.977679 1_555
Fe9 O15 1.988280 1_665
Fe9 O18 2.051108 1_655
Fe9 O12 2.051108 1_555
Fe10 O22 1.966930 1_555
Fe10 O23 1.977670 1_555
Fe10 O21 1.977670 1_555
Fe10 O15 1.988285 1_655
Fe10 O12 2.051108 1_545
Fe10 O17 2.051108 1_655
Fe11 O23 1.878785 1_455
Fe11 O21 1.878785 1_565
Fe11 O20 1.878795 1_555
Fe11 O8 1.931963 1_556
