# generated using pymatgen
data_Co7Ge4
_symmetry_space_group_name_H-M   'P 1'
_cell_length_a   3.94947901
_cell_length_b   3.94947901
_cell_length_c   9.95209728
_cell_angle_alpha   90.00000000
_cell_angle_beta   90.00000000
_cell_angle_gamma   120.00000514
_symmetry_Int_Tables_number   1
_chemical_formula_structural   Co7Ge4
_chemical_formula_sum   'Co7 Ge4'
_cell_volume   134.43886619
_cell_formula_units_Z   1
loop_
 _symmetry_equiv_pos_site_id
 _symmetry_equiv_pos_as_xyz
  1  'x, y, z'
loop_
 _atom_site_type_symbol
 _atom_site_label
 _atom_site_symmetry_multiplicity
 _atom_site_fract_x
 _atom_site_fract_y
 _atom_site_fract_z
 _atom_site_occupancy
  Co  Co0  1  -0.00000000  0.00000000  0.88177311  1
  Co  Co1  1  0.00000000  0.00000000  0.37103682  1
  Co  Co2  1  -0.00000000  0.00000000  0.11817139  1
  Co  Co3  1  -0.00000000  0.00000000  0.62898248  1
  Co  Co4  1  0.66666700  0.33333300  0.50003406  1
  Co  Co5  1  0.33333300  0.66666700  0.76776553  1
  Co  Co6  1  0.33333300  0.66666700  0.23207194  1
  Ge  Ge0  1  0.66666700  0.33333300  0.73948064  1
  Ge  Ge1  1  0.66666700  0.33333300  0.26069425  1
  Ge  Ge2  1  0.33333300  0.66666700  0.99989964  1
  Ge  Ge3  1  0.33333300  0.66666700  0.50009014  1
loop_
_geom_bond_atom_site_label_1
_geom_bond_atom_site_label_2
_geom_bond_distance
_geom_bond_site_symmetry_2
Co0 Co2 2.352659 1_556
Co0 Co3 2.515797 1_555
Co0 Co5 2.546920 1_545
Co0 Co5 2.546923 1_445
Co0 Co5 2.546923 1_555
Co0 Ge2 2.565444 1_545
Co0 Ge2 2.565447 1_445
Co0 Ge2 2.565447 1_555
Co0 Ge0 2.684179 1_455
Co0 Ge0 2.684181 1_445
Co0 Ge0 2.684181 1_555
Co1 Co2 2.516541 1_555
Co1 Ge1 2.530882 1_455
Co1 Ge1 2.530885 1_445
Co1 Ge1 2.530885 1_555
Co1 Co3 2.567100 1_555
Co1 Co4 2.616787 1_455
Co1 Co4 2.616790 1_445
Co1 Co4 2.616790 1_555
Co1 Ge3 2.617061 1_545
Co1 Ge3 2.617064 1_555
Co1 Ge3 2.617064 1_445
Co1 Co6 2.666855 1_545
Co1 Co6 2.666858 1_445
Co1 Co6 2.666858 1_555
Co2 Co6 2.546446 1_545
Co2 Co6 2.546449 1_555
Co2 Co6 2.546449 1_445
Co2 Ge2 2.566107 1_544
Co2 Ge2 2.566109 1_554
Co2 Ge2 2.566109 1_444
Co2 Ge1 2.685389 1_455
Co2 Ge1 2.685392 1_445
Co2 Ge1 2.685392 1_555
Co3 Ge0 2.531554 1_455
Co3 Ge0 2.531557 1_555
Co3 Ge0 2.531557 1_445
Co3 Ge3 2.616275 1_545
Co3 Ge3 2.616278 1_555
Co3 Ge3 2.616278 1_445
Co3 Co4 2.616549 1_455
Co3 Co4 2.616552 1_555
Co3 Co4 2.616552 1_445
Co3 Co5 2.665918 1_545
Co3 Co5 2.665920 1_555
Co3 Co5 2.665920 1_445
Co4 Ge3 2.280230 1_545
Co4 Ge3 2.280230 1_655
Co4 Ge3 2.280237 1_555
Co4 Ge1 2.381933 1_555
Co4 Ge0 2.382996 1_555
Co5 Ge0 2.297540 1_565
Co5 Ge0 2.297540 1_455
Co5 Ge0 2.297547 1_555
Co5 Ge2 2.310221 1_555
Co5 Ge3 2.663932 1_555
Co6 Ge1 2.297954 1_455
Co6 Ge1 2.297954 1_565
Co6 Ge1 2.297961 1_555
Co6 Ge2 2.310601 1_554
Co6 Ge3 2.667343 1_555
