# generated using pymatgen
data_PrSbPd
_symmetry_space_group_name_H-M   'P 1'
_cell_length_a   4.60215760
_cell_length_b   4.60215760
_cell_length_c   8.07505004
_cell_angle_alpha   90.00000000
_cell_angle_beta   90.00000000
_cell_angle_gamma   119.99997552
_symmetry_Int_Tables_number   1
_chemical_formula_structural   PrSbPd
_chemical_formula_sum   'Pr2 Sb2 Pd2'
_cell_volume   148.11496300
_cell_formula_units_Z   2
loop_
 _symmetry_equiv_pos_site_id
 _symmetry_equiv_pos_as_xyz
  1  'x, y, z'
loop_
 _atom_site_type_symbol
 _atom_site_label
 _atom_site_symmetry_multiplicity
 _atom_site_fract_x
 _atom_site_fract_y
 _atom_site_fract_z
 _atom_site_occupancy
  Pr  Pr0  1  0.00000000  -0.00000000  0.99484376  1
  Pr  Pr1  1  0.00000000  -0.00000000  0.49484376  1
  Sb  Sb0  1  0.66666700  0.33333300  0.73307438  1
  Sb  Sb1  1  0.33333300  0.66666700  0.23307438  1
  Pd  Pd0  1  0.66666700  0.33333300  0.28108185  1
  Pd  Pd1  1  0.33333300  0.66666700  0.78108185  1
loop_
_geom_bond_atom_site_label_1
_geom_bond_atom_site_label_2
_geom_bond_distance
_geom_bond_site_symmetry_2
Pr0 Sb1 3.280343 1_546
Pr0 Sb1 3.280347 1_446
Pr0 Sb1 3.280347 1_556
Pr0 Sb0 3.395304 1_455
Pr0 Sb0 3.395308 1_555
Pr0 Sb0 3.395308 1_445
Pr1 Sb0 3.280343 1_455
Pr1 Sb0 3.280347 1_555
Pr1 Sb0 3.280347 1_445
Pr1 Sb1 3.395304 1_545
Pr1 Sb1 3.395308 1_555
Pr1 Sb1 3.395308 1_445
Pd0 Sb1 2.685186 1_545
Pd0 Sb1 2.685186 1_655
Pd0 Sb1 2.685193 1_555
Pd0 Pr1 3.168515 1_655
Pd0 Pr1 3.168519 1_555
Pd0 Pr1 3.168519 1_665
Pd0 Pr0 3.521711 1_654
Pd0 Pr0 3.521714 1_554
Pd0 Pr0 3.521714 1_664
Pd1 Sb0 2.685186 1_455
Pd1 Sb0 2.685186 1_565
Pd1 Sb0 2.685193 1_555
Pd1 Pr0 3.168515 1_565
Pd1 Pr0 3.168519 1_555
Pd1 Pr0 3.168519 1_665
Pd1 Pr1 3.521711 1_565
Pd1 Pr1 3.521714 1_555
Pd1 Pr1 3.521714 1_665
