# generated using pymatgen
data_Mg6TiZn
_symmetry_space_group_name_H-M   'P 1'
_cell_length_a   4.93241400
_cell_length_b   6.14054000
_cell_length_c   10.95681200
_cell_angle_alpha   90.00000000
_cell_angle_beta   90.00000000
_cell_angle_gamma   90.00000000
_symmetry_Int_Tables_number   1
_chemical_formula_structural   Mg6TiZn
_chemical_formula_sum   'Mg12 Ti2 Zn2'
_cell_volume   331.85647554
_cell_formula_units_Z   2
loop_
 _symmetry_equiv_pos_site_id
 _symmetry_equiv_pos_as_xyz
  1  'x, y, z'
loop_
 _atom_site_type_symbol
 _atom_site_label
 _atom_site_symmetry_multiplicity
 _atom_site_fract_x
 _atom_site_fract_y
 _atom_site_fract_z
 _atom_site_occupancy
  Mg  Mg0  1  0.50000000  0.25267700  0.41912000  1
  Mg  Mg1  1  0.50000000  0.74732300  0.41912000  1
  Mg  Mg2  1  0.00000000  0.74834600  0.08586100  1
  Mg  Mg3  1  0.00000000  0.25165400  0.08586100  1
  Mg  Mg4  1  0.00000000  0.00000000  0.32804500  1
  Mg  Mg5  1  0.00000000  0.50000000  0.32835300  1
  Mg  Mg6  1  0.50000000  0.75267700  0.91912000  1
  Mg  Mg7  1  0.50000000  0.24732300  0.91912000  1
  Mg  Mg8  1  0.00000000  0.24834600  0.58586100  1
  Mg  Mg9  1  0.00000000  0.75165400  0.58586100  1
  Mg  Mg10  1  0.00000000  0.50000000  0.82804500  1
  Mg  Mg11  1  0.00000000  0.00000000  0.82835300  1
  Ti  Ti0  1  0.50000000  0.50000000  0.16980900  1
  Ti  Ti1  1  0.50000000  0.00000000  0.66980900  1
  Zn  Zn0  1  0.50000000  0.00000000  0.16382800  1
  Zn  Zn1  1  0.50000000  0.50000000  0.66382800  1
loop_
_geom_bond_atom_site_label_1
_geom_bond_atom_site_label_2
_geom_bond_distance
_geom_bond_site_symmetry_2
Mg0 Mg1 3.037394 1_555
Mg0 Mg5 3.062300 1_655
Mg0 Mg5 3.062300 1_555
Mg0 Mg8 3.069304 1_655
Mg0 Mg8 3.069304 1_555
Mg0 Mg4 3.079829 1_655
Mg0 Mg4 3.079829 1_555
Mg0 Zn1 3.081457 1_555
Mg0 Mg1 3.103146 1_545
Mg0 Ti0 3.125440 1_555
Mg0 Ti1 3.154683 1_555
Mg0 Zn0 3.198692 1_555
Mg1 Mg5 3.062300 1_555
Mg1 Mg5 3.062300 1_655
Mg1 Mg9 3.069304 1_555
Mg1 Mg9 3.069304 1_655
Mg1 Mg4 3.079829 1_565
Mg1 Mg4 3.079829 1_665
Mg1 Zn1 3.081457 1_555
Mg1 Ti0 3.125440 1_555
Mg1 Ti1 3.154683 1_565
Mg1 Zn0 3.198692 1_565
Mg2 Zn0 3.033130 1_565
Mg2 Zn0 3.033130 1_465
Mg2 Ti0 3.042001 1_555
Mg2 Ti0 3.042001 1_455
Mg2 Mg3 3.049957 1_555
Mg2 Mg5 3.063476 1_555
Mg2 Mg6 3.069304 1_554
Mg2 Mg6 3.069304 1_454
Mg2 Mg4 3.070722 1_565
Mg2 Mg3 3.090583 1_565
Mg3 Zn0 3.033130 1_555
Mg3 Zn0 3.033130 1_455
Mg3 Ti0 3.042001 1_455
Mg3 Ti0 3.042001 1_555
Mg3 Mg5 3.063476 1_555
Mg3 Mg7 3.069304 1_554
Mg3 Mg7 3.069304 1_454
Mg3 Mg4 3.070722 1_555
Mg4 Zn0 3.052808 1_555
Mg4 Zn0 3.052808 1_455
Mg4 Mg5 3.070272 1_545
Mg4 Mg5 3.070272 1_555
Mg4 Mg9 3.210185 1_545
Mg4 Mg8 3.210185 1_555
Mg5 Ti0 3.016591 1_555
Mg5 Ti0 3.016591 1_455
Mg5 Mg8 3.216924 1_555
Mg5 Mg9 3.216924 1_555
Mg6 Mg7 3.037394 1_565
Mg6 Zn0 3.081457 1_566
Mg6 Mg7 3.103146 1_555
Mg6 Ti1 3.125440 1_565
Mg6 Ti0 3.154683 1_556
Mg6 Zn1 3.198692 1_555
Mg7 Zn0 3.081457 1_556
Mg7 Ti1 3.125440 1_555
Mg7 Ti0 3.154683 1_556
Mg7 Zn1 3.198692 1_555
Mg8 Zn1 3.033130 1_455
Mg8 Zn1 3.033130 1_555
Mg8 Ti1 3.042001 1_455
Mg8 Ti1 3.042001 1_555
Mg8 Mg9 3.049957 1_545
Mg8 Mg9 3.090583 1_555
Mg9 Zn1 3.033130 1_555
Mg9 Zn1 3.033130 1_455
Mg9 Ti1 3.042001 1_465
Mg9 Ti1 3.042001 1_565
Mg10 Zn1 3.052808 1_555
Mg10 Zn1 3.052808 1_455
Mg10 Mg11 3.070272 1_565
Mg10 Mg11 3.070272 1_555
Mg10 Mg8 3.070722 1_555
Mg10 Mg9 3.070722 1_555
Mg10 Mg6 3.079829 1_455
Mg10 Mg6 3.079829 1_555
Mg10 Mg7 3.079829 1_455
Mg10 Mg7 3.079829 1_555
Mg10 Mg2 3.210185 1_556
Mg10 Mg3 3.210185 1_556
Mg11 Ti1 3.016591 1_455
Mg11 Ti1 3.016591 1_555
Mg11 Mg7 3.062300 1_455
Mg11 Mg6 3.062300 1_545
Mg11 Mg7 3.062300 1_555
Mg11 Mg6 3.062300 1_445
Mg11 Mg8 3.063476 1_555
Mg11 Mg9 3.063476 1_545
Mg11 Mg3 3.216924 1_556
Mg11 Mg2 3.216924 1_546
Ti0 Zn0 3.070969 1_555
Ti0 Zn0 3.070969 1_565
Ti1 Zn1 3.070969 1_545
Ti1 Zn1 3.070969 1_555
