# generated using pymatgen
data_Sr2TmCu2(BiO4)2
_symmetry_space_group_name_H-M   'P 1'
_cell_length_a   15.41639261
_cell_length_b   15.41639261
_cell_length_c   15.41639261
_cell_angle_alpha   165.98066824
_cell_angle_beta   165.98066824
_cell_angle_gamma   19.87642645
_symmetry_Int_Tables_number   1
_chemical_formula_structural   Sr2TmCu2(BiO4)2
_chemical_formula_sum   'Sr2 Tm1 Cu2 Bi2 O8'
_cell_volume   214.99263189
_cell_formula_units_Z   1
loop_
 _symmetry_equiv_pos_site_id
 _symmetry_equiv_pos_as_xyz
  1  'x, y, z'
loop_
 _atom_site_type_symbol
 _atom_site_label
 _atom_site_symmetry_multiplicity
 _atom_site_fract_x
 _atom_site_fract_y
 _atom_site_fract_z
 _atom_site_occupancy
  Sr  Sr0  1  0.11531100  0.11531100  0.00000000  1
  Sr  Sr1  1  0.88468900  0.88468900  0.00000000  1
  Tm  Tm0  1  0.00000000  0.00000000  0.00000000  1
  Cu  Cu0  1  0.44744900  0.44744900  0.00000000  1
  Cu  Cu1  1  0.55255100  0.55255100  0.00000000  1
  Bi  Bi0  1  0.29466400  0.29466400  0.00000000  1
  Bi  Bi1  1  0.70533600  0.70533600  0.00000000  1
  O  O0  1  0.54731900  0.04731900  0.50000000  1
  O  O1  1  0.45268100  0.95268100  0.50000000  1
  O  O2  1  0.04731900  0.54731900  0.50000000  1
  O  O3  1  0.95268100  0.45268100  0.50000000  1
  O  O4  1  0.20316900  0.20316900  0.00000000  1
  O  O5  1  0.79683100  0.79683100  0.00000000  1
  O  O6  1  0.36515800  0.36515800  0.00000000  1
  O  O7  1  0.63484200  0.63484200  0.00000000  1
loop_
_geom_bond_atom_site_label_1
_geom_bond_atom_site_label_2
_geom_bond_distance
_geom_bond_site_symmetry_2
Cu0 O1 1.888065 1_555
Cu0 O1 1.888065 1_544
Cu0 O3 1.888065 1_454
Cu0 O3 1.888065 1_555
Cu0 O6 2.499188 1_555
Cu1 O0 1.888065 1_565
Cu1 O2 1.888065 1_655
Cu1 O0 1.888065 1_554
Cu1 O2 1.888065 1_554
Cu1 O7 2.499188 1_555
Bi0 O6 2.140911 1_555
Bi0 O5 2.661469 1_556
Bi0 O5 2.661469 1_444
Bi0 O5 2.661469 1_545
Bi0 O5 2.661469 1_455
Bi0 O4 2.778714 1_555
Bi1 O7 2.140911 1_555
Bi1 O4 2.661469 1_666
Bi1 O4 2.661469 1_554
Bi1 O4 2.661469 1_655
Bi1 O4 2.661469 1_565
Bi1 O5 2.778714 1_555
O0 Tm0 2.367436 1_555
O0 Tm0 2.367436 1_656
O0 Sr0 2.793467 1_656
O0 Sr0 2.793467 1_555
O1 Tm0 2.367436 1_666
O1 Tm0 2.367436 1_565
O1 Sr1 2.793467 1_455
O1 Sr1 2.793467 1_556
O2 Tm0 2.367436 1_555
O2 Tm0 2.367436 1_566
O2 Sr0 2.793467 1_566
O2 Sr0 2.793467 1_555
O3 Tm0 2.367436 1_666
O3 Tm0 2.367436 1_655
O3 Sr1 2.793467 1_545
O3 Sr1 2.793467 1_556
O4 Sr0 2.668258 1_555
O5 Sr1 2.668258 1_555
O6 Sr1 2.725972 1_545
O6 Sr1 2.725972 1_455
O6 Sr1 2.725972 1_556
O6 Sr1 2.725972 1_444
O7 Sr0 2.725972 1_554
O7 Sr0 2.725972 1_565
O7 Sr0 2.725972 1_655
O7 Sr0 2.725972 1_666
