# generated using pymatgen
data_Sr8MgMn6O20
_symmetry_space_group_name_H-M   'P 1'
_cell_length_a   5.59527274
_cell_length_b   6.82257467
_cell_length_c   14.11038438
_cell_angle_alpha   90.56320181
_cell_angle_beta   86.47986724
_cell_angle_gamma   114.39670038
_symmetry_Int_Tables_number   1
_chemical_formula_structural   Sr8MgMn6O20
_chemical_formula_sum   'Sr8 Mg1 Mn6 O20'
_cell_volume   489.55751609
_cell_formula_units_Z   1
loop_
 _symmetry_equiv_pos_site_id
 _symmetry_equiv_pos_as_xyz
  1  'x, y, z'
loop_
 _atom_site_type_symbol
 _atom_site_label
 _atom_site_symmetry_multiplicity
 _atom_site_fract_x
 _atom_site_fract_y
 _atom_site_fract_z
 _atom_site_occupancy
  Sr  Sr0  1  0.21025400  0.48325300  0.03286100  1
  Sr  Sr1  1  0.74927100  0.50917300  0.85266700  1
  Sr  Sr2  1  0.79682600  0.49034200  0.44556800  1
  Sr  Sr3  1  0.28480600  0.52072300  0.62548700  1
  Sr  Sr4  1  0.99421700  0.94438100  0.64045900  1
  Sr  Sr5  1  0.09228600  0.08548000  0.39036200  1
  Sr  Sr6  1  0.51776300  0.07542200  0.12935100  1
  Sr  Sr7  1  0.46681100  0.94174200  0.84978600  1
  Mg  Mg0  1  0.09899100  0.54724800  0.23687800  1
  Mn  Mn0  1  0.64593800  0.25275100  0.65647400  1
  Mn  Mn1  1  0.43329600  0.76145400  0.35863900  1
  Mn  Mn2  1  0.83810600  0.75779100  0.15107200  1
  Mn  Mn3  1  0.11688900  0.23766000  0.84199600  1
  Mn  Mn4  1  0.53874600  0.00036600  0.50989500  1
  Mn  Mn5  1  0.98610000  0.98585300  0.99241900  1
  O  O0  1  0.37076800  0.23704900  0.74823200  1
  O  O1  1  0.03986800  0.81091400  0.26082900  1
  O  O2  1  0.50780300  0.73680800  0.21811200  1
  O  O3  1  0.87631300  0.22317800  0.75237900  1
  O  O4  1  0.21351600  0.79171600  0.47395200  1
  O  O5  1  0.39603300  0.21460500  0.53599500  1
  O  O6  1  0.33138500  0.20781400  0.95102500  1
  O  O7  1  0.13200300  0.80932600  0.04756600  1
  O  O8  1  0.87467100  0.22110900  0.54681800  1
  O  O9  1  0.67735600  0.79102800  0.47998600  1
  O  O10  1  0.66050200  0.75693300  0.03023800  1
  O  O11  1  0.85050400  0.19058600  0.94854400  1
  O  O12  1  0.80525200  0.55502900  0.65706600  1
  O  O13  1  0.19569900  0.46382900  0.35436800  1
  O  O14  1  0.98143400  0.08122300  0.12215200  1
  O  O15  1  0.97228400  0.90910100  0.85611500  1
  O  O16  1  0.47418000  0.92550300  0.64590700  1
  O  O17  1  0.80419300  0.46313800  0.15480400  1
  O  O18  1  0.25758200  0.54357500  0.85262800  1
  O  O19  1  0.60597300  0.07574800  0.37332800  1
loop_
_geom_bond_atom_site_label_1
_geom_bond_atom_site_label_2
_geom_bond_distance
_geom_bond_site_symmetry_2
Mg0 O13 1.936032 1_555
Mg0 O17 1.957248 1_455
Mg0 O1 1.981299 1_555
Mg0 O2 2.112694 1_555
Mn0 O12 1.878753 1_555
Mn0 O0 1.918341 1_555
Mn0 O3 1.991980 1_555
Mn0 O8 2.014239 1_555
Mn0 O16 2.041850 1_545
Mn0 O5 2.212585 1_555
Mn1 O13 1.916137 1_555
Mn1 O19 1.969470 1_565
Mn1 O2 2.020833 1_555
Mn1 O4 2.039554 1_555
Mn1 O9 2.211347 1_555
Mn2 O1 1.915717 1_655
Mn2 O17 1.940563 1_555
Mn2 O2 1.974931 1_555
Mn2 O10 2.024276 1_555
Mn2 O14 2.048055 1_565
Mn2 O7 2.049000 1_655
Mn3 O3 1.875486 1_455
Mn3 O0 1.882112 1_555
Mn3 O18 1.910330 1_555
Mn3 O11 1.980885 1_455
Mn3 O15 2.051797 1_445
Mn3 O6 2.069646 1_555
Mn4 O4 1.885284 1_545
Mn4 O9 1.918968 1_545
Mn4 O5 1.956328 1_555
Mn4 O8 1.959284 1_555
Mn4 O16 1.963757 1_545
Mn4 O19 1.972316 1_555
Mn5 O10 1.894599 1_556
Mn5 O7 1.905553 1_656
Mn5 O14 1.939029 1_566
Mn5 O6 1.956732 1_665
Mn5 O11 1.964716 1_565
Mn5 O15 1.986023 1_555
O0 Sr1 2.680471 1_555
O0 Sr7 2.728947 1_545
O0 Sr4 2.756267 1_445
O0 Sr3 2.813187 1_555
O1 Sr5 2.545669 1_565
O1 Sr6 3.052668 1_565
O2 Sr6 2.617405 1_565
O3 Sr7 2.618513 1_545
O3 Sr1 2.698716 1_555
O3 Sr4 2.719717 1_545
O3 Sr3 2.878690 1_655
O4 Sr2 2.441769 1_455
O4 Sr5 2.671335 1_565
O4 Sr4 2.960440 1_455
O4 Sr3 2.990167 1_555
O5 Sr2 2.531169 1_555
O5 Sr4 2.617006 1_445
O5 Sr5 2.654003 1_555
O5 Sr3 2.696141 1_555
O6 Sr0 2.497516 1_556
O6 Sr7 2.619653 1_545
O6 Sr1 2.703108 1_555
O6 Sr6 3.062668 1_556
O7 Sr0 2.443006 1_555
O7 Sr6 2.512776 1_565
O7 Sr7 3.181719 1_554
O8 Sr2 2.528605 1_555
O8 Sr4 2.637925 1_545
O8 Sr3 2.658931 1_655
O8 Sr5 2.788028 1_655
O9 Sr2 2.442247 1_555
O9 Sr5 2.619455 1_665
O9 Sr4 2.877354 1_555
O9 Sr3 2.935107 1_555
O10 Sr0 2.436889 1_555
O10 Sr6 2.924386 1_565
O10 Sr1 3.136801 1_554
O10 Sr7 3.283067 1_554
O11 Sr0 2.526125 1_656
O11 Sr7 2.596753 1_545
O11 Sr1 2.836287 1_555
O11 Sr6 2.973240 1_556
O12 Sr4 2.427094 1_555
O12 Sr1 2.764684 1_555
O12 Sr3 2.796968 1_655
O12 Sr3 2.885746 1_555
O12 Sr2 3.012864 1_555
O13 Sr5 2.451887 1_555
O13 Sr2 2.577971 1_455
O14 Sr6 2.574007 1_555
O14 Sr0 2.778273 1_655
O14 Sr6 3.025385 1_655
O15 Sr1 2.489284 1_555
O15 Sr7 2.678606 1_655
O15 Sr7 2.933997 1_555
O15 Sr4 3.045803 1_555
O16 Sr3 2.537107 1_555
O16 Sr4 2.746966 1_455
O16 Sr4 2.855218 1_555
O16 Sr7 2.876275 1_555
O17 Sr6 2.498905 1_555
O17 Sr0 2.721873 1_655
O18 Sr7 2.474029 1_555
O18 Sr0 2.560272 1_556
O18 Sr1 2.755460 1_455
O18 Sr1 2.856125 1_555
O18 Sr3 3.204634 1_555
O19 Sr5 2.719754 1_655
O19 Sr2 2.786043 1_555
O19 Sr5 2.897554 1_555
