# generated using pymatgen
data_Pm3Cr
_symmetry_space_group_name_H-M   'P 1'
_cell_length_a   6.06540381
_cell_length_b   6.06540381
_cell_length_c   6.06540381
_cell_angle_alpha   133.15788503
_cell_angle_beta   133.15788503
_cell_angle_gamma   68.40630761
_symmetry_Int_Tables_number   1
_chemical_formula_structural   Pm3Cr
_chemical_formula_sum   'Pm3 Cr1'
_cell_volume   116.63061371
_cell_formula_units_Z   1
loop_
 _symmetry_equiv_pos_site_id
 _symmetry_equiv_pos_as_xyz
  1  'x, y, z'
loop_
 _atom_site_type_symbol
 _atom_site_label
 _atom_site_symmetry_multiplicity
 _atom_site_fract_x
 _atom_site_fract_y
 _atom_site_fract_z
 _atom_site_occupancy
  Pm  Pm0  1  0.74999900  0.24999900  0.49999900  1
  Pm  Pm1  1  0.24999900  0.74999900  0.49999900  1
  Pm  Pm2  1  0.50000000  0.50000000  0.00000000  1
  Cr  Cr0  1  0.00000000  0.00000000  0.00000000  1
loop_
_geom_bond_atom_site_label_1
_geom_bond_atom_site_label_2
_geom_bond_distance
_geom_bond_site_symmetry_2
Pm0 Pm1 3.409539 1_544
Pm0 Pm1 3.409539 1_645
Pm0 Pm1 3.409539 1_656
Pm0 Pm1 3.409539 1_555
Pm0 Pm2 3.479006 1_545
Pm0 Pm2 3.479009 1_556
Pm0 Pm2 3.479013 1_555
Pm0 Pm2 3.479017 1_656
Pm1 Pm2 3.479006 1_455
Pm1 Pm2 3.479009 1_556
Pm1 Pm2 3.479013 1_555
Pm1 Pm2 3.479017 1_566
Cr0 Pm2 3.409539 1_556
Cr0 Pm2 3.409539 1_455
Cr0 Pm2 3.409539 1_545
Cr0 Pm2 3.409539 1_444
Cr0 Pm1 3.479006 1_555
Cr0 Pm0 3.479006 1_555
Cr0 Pm1 3.479009 1_544
Cr0 Pm0 3.479009 1_454
Cr0 Pm0 3.479013 1_455
Cr0 Pm1 3.479013 1_545
Cr0 Pm0 3.479017 1_444
Cr0 Pm1 3.479017 1_444
