# generated using pymatgen
data_LaIn2Ni3
_symmetry_space_group_name_H-M   'P 1'
_cell_length_a   4.34364300
_cell_length_b   9.38198135
_cell_length_c   9.37315834
_cell_angle_alpha   120.03113566
_cell_angle_beta   90.00000000
_cell_angle_gamma   90.00000000
_symmetry_Int_Tables_number   1
_chemical_formula_structural   LaIn2Ni3
_chemical_formula_sum   'La3 In6 Ni9'
_cell_volume   330.69599219
_cell_formula_units_Z   3
loop_
 _symmetry_equiv_pos_site_id
 _symmetry_equiv_pos_as_xyz
  1  'x, y, z'
loop_
 _atom_site_type_symbol
 _atom_site_label
 _atom_site_symmetry_multiplicity
 _atom_site_fract_x
 _atom_site_fract_y
 _atom_site_fract_z
 _atom_site_occupancy
  La  La0  1  0.50000000  0.33323900  0.66658800  1
  La  La1  1  0.50000000  0.66665200  0.33341200  1
  La  La2  1  0.00000000  0.00031800  0.00000000  1
  In  In0  1  0.00000000  0.50561500  0.00000000  1
  In  In1  1  0.00000000  0.49437600  0.49445100  1
  In  In2  1  0.00000000  0.99992500  0.50554900  1
  In  In3  1  0.50000000  0.27681200  0.00000000  1
  In  In4  1  0.50000000  0.72338700  0.72350200  1
  In  In5  1  0.50000000  0.99988500  0.27649800  1
  Ni  Ni0  1  0.00000000  0.18180300  0.35548000  1
  Ni  Ni1  1  0.00000000  0.17382700  0.81837700  1
  Ni  Ni2  1  0.00000000  0.64474900  0.82662000  1
  Ni  Ni3  1  0.00000000  0.82632400  0.64452000  1
  Ni  Ni4  1  0.00000000  0.35545000  0.18162300  1
  Ni  Ni5  1  0.00000000  0.81812900  0.17338000  1
  Ni  Ni6  1  0.50000000  0.70576300  0.00000000  1
  Ni  Ni7  1  0.50000000  0.29372100  0.29379600  1
  Ni  Ni8  1  0.50000000  0.99992500  0.70620400  1
loop_
_geom_bond_atom_site_label_1
_geom_bond_atom_site_label_2
_geom_bond_distance
_geom_bond_site_symmetry_2
La0 Ni6 3.323987 1_556
La0 Ni7 3.324219 1_555
La0 Ni8 3.328545 1_545
La0 Ni0 3.330446 1_555
La0 Ni0 3.330446 1_655
La0 Ni1 3.332819 1_555
La0 Ni1 3.332819 1_655
La0 Ni2 3.334710 1_555
La0 Ni2 3.334710 1_655
La1 Ni6 3.323981 1_555
La1 Ni8 3.324215 1_555
La1 Ni7 3.328554 1_555
La1 Ni3 3.330446 1_655
La1 Ni3 3.330446 1_555
La1 Ni4 3.332825 1_655
La1 Ni4 3.332825 1_555
La1 Ni5 3.334704 1_655
La1 Ni5 3.334704 1_555
La2 Ni1 2.884765 1_554
La2 Ni4 2.884765 1_555
La2 Ni0 2.884879 1_555
La2 Ni3 2.884879 1_544
La2 Ni5 2.888445 1_545
La2 Ni2 2.888445 1_544
La2 Ni8 3.505717 1_444
La2 Ni8 3.505717 1_544
La2 Ni7 3.505718 1_555
La2 Ni7 3.505718 1_455
In0 Ni2 2.543286 1_554
In0 Ni5 2.543286 1_555
In0 Ni4 2.698814 1_555
In0 Ni1 2.698814 1_554
In0 Ni6 2.871042 1_555
In0 Ni6 2.871042 1_455
In0 In3 3.053655 1_455
In0 In3 3.053655 1_555
In0 La1 3.469847 1_555
In0 La1 3.469847 1_455
In0 La0 3.469847 1_454
In0 La0 3.469847 1_554
In1 Ni4 2.543847 1_555
In1 Ni0 2.544229 1_555
In1 Ni2 2.699527 1_555
In1 Ni3 2.700524 1_555
In1 Ni7 2.872997 1_455
In1 Ni7 2.872997 1_555
In1 In4 3.053738 1_555
In1 In4 3.053738 1_455
In1 La0 3.470891 1_555
In1 La0 3.470891 1_455
In1 La1 3.471256 1_455
In1 La1 3.471256 1_555
In2 Ni1 2.543847 1_565
In2 Ni3 2.544220 1_555
In2 Ni5 2.699528 1_555
In2 Ni0 2.700515 1_565
In2 Ni8 2.872996 1_555
In2 Ni8 2.872996 1_455
In2 In5 3.053738 1_455
In2 In5 3.053738 1_555
In2 La1 3.470885 1_455
In2 La1 3.470885 1_555
In2 La0 3.471250 1_465
In2 La0 3.471250 1_565
In3 Ni4 2.627178 1_655
In3 Ni4 2.627178 1_555
In3 Ni1 2.627178 1_554
In3 Ni1 2.627178 1_654
In3 Ni7 2.677926 1_555
In3 Ni8 2.677926 1_544
In3 La2 3.383188 1_555
In3 La2 3.383188 1_655
In3 La0 3.420913 1_554
In3 La1 3.420919 1_555
In4 Ni2 2.628516 1_555
In4 Ni2 2.628516 1_655
In4 Ni3 2.629292 1_655
In4 Ni3 2.629292 1_555
In4 Ni6 2.678240 1_556
In4 Ni8 2.679299 1_555
In4 La2 3.382908 1_566
In4 La2 3.382908 1_666
In4 La1 3.421160 1_555
In4 La0 3.424663 1_555
In5 Ni5 2.628516 1_655
In5 Ni5 2.628516 1_555
In5 Ni0 2.629288 1_665
In5 Ni0 2.629288 1_565
In5 Ni6 2.678240 1_555
In5 Ni7 2.679299 1_565
In5 La2 3.382907 1_665
In5 La2 3.382907 1_565
In5 La0 3.421157 1_565
In5 La1 3.424654 1_555
Ni0 Ni7 2.600246 1_455
Ni0 Ni7 2.600246 1_555
Ni0 Ni4 2.822596 1_555
Ni0 Ni5 2.953936 1_545
Ni1 Ni8 2.601380 1_445
Ni1 Ni8 2.601380 1_545
Ni1 Ni3 2.822588 1_545
Ni1 Ni4 2.947685 1_556
Ni2 Ni6 2.598913 1_456
Ni2 Ni6 2.598913 1_556
Ni2 Ni5 2.813904 1_556
Ni2 Ni3 2.953944 1_555
Ni3 Ni8 2.600242 1_555
Ni3 Ni8 2.600242 1_455
Ni4 Ni7 2.601380 1_555
Ni4 Ni7 2.601380 1_455
Ni5 Ni6 2.598913 1_555
Ni5 Ni6 2.598913 1_455
