# generated using pymatgen
data_MgPb2
_symmetry_space_group_name_H-M   'P 1'
_cell_length_a   13.42987749
_cell_length_b   13.42987749
_cell_length_c   15.49569911
_cell_angle_alpha   73.61133031
_cell_angle_beta   73.61133031
_cell_angle_gamma   30.12019790
_symmetry_Int_Tables_number   1
_chemical_formula_structural   MgPb2
_chemical_formula_sum   'Mg16 Pb32'
_cell_volume   1341.28610705
_cell_formula_units_Z   16
loop_
 _symmetry_equiv_pos_site_id
 _symmetry_equiv_pos_as_xyz
  1  'x, y, z'
loop_
 _atom_site_type_symbol
 _atom_site_label
 _atom_site_symmetry_multiplicity
 _atom_site_fract_x
 _atom_site_fract_y
 _atom_site_fract_z
 _atom_site_occupancy
  Mg  Mg0_0  1  0.17693733  0.17693733  0.01634579  1
  Mg  Mg0_1  1  0.17693733  0.17693733  0.51634579  1
  Mg  Mg0_2  1  0.17693733  0.67693733  0.01634579  1
  Mg  Mg0_3  1  0.17693733  0.67693733  0.51634579  1
  Mg  Mg0_4  1  0.67693733  0.17693733  0.01634579  1
  Mg  Mg0_5  1  0.67693733  0.17693733  0.51634579  1
  Mg  Mg0_6  1  0.67693733  0.67693733  0.01634579  1
  Mg  Mg0_7  1  0.67693733  0.67693733  0.51634579  1
  Mg  Mg1_0  1  0.32306267  0.32306267  0.48365420  1
  Mg  Mg1_1  1  0.32306267  0.32306267  0.98365420  1
  Mg  Mg1_2  1  0.32306267  0.82306267  0.48365420  1
  Mg  Mg1_3  1  0.32306267  0.82306267  0.98365420  1
  Mg  Mg1_4  1  0.82306267  0.32306267  0.48365420  1
  Mg  Mg1_5  1  0.82306267  0.32306267  0.98365420  1
  Mg  Mg1_6  1  0.82306267  0.82306267  0.48365420  1
  Mg  Mg1_7  1  0.82306267  0.82306267  0.98365420  1
  Pb  Pb0_0  1  0.01313670  0.01313670  0.36609368  1
  Pb  Pb0_1  1  0.01313670  0.01313670  0.86609368  1
  Pb  Pb0_2  1  0.01313670  0.51313670  0.36609368  1
  Pb  Pb0_3  1  0.01313670  0.51313670  0.86609368  1
  Pb  Pb0_4  1  0.51313670  0.01313670  0.36609368  1
  Pb  Pb0_5  1  0.51313670  0.01313670  0.86609368  1
  Pb  Pb0_6  1  0.51313670  0.51313670  0.36609368  1
  Pb  Pb0_7  1  0.51313670  0.51313670  0.86609368  1
  Pb  Pb1_0  1  0.15321359  0.15321360  0.32526222  1
  Pb  Pb1_1  1  0.15321360  0.15321360  0.82526221  1
  Pb  Pb1_2  1  0.15321360  0.65321360  0.32526221  1
  Pb  Pb1_3  1  0.15321359  0.65321359  0.82526221  1
  Pb  Pb1_4  1  0.65321360  0.15321360  0.32526221  1
  Pb  Pb1_5  1  0.65321359  0.15321359  0.82526221  1
  Pb  Pb1_6  1  0.65321360  0.65321360  0.32526221  1
  Pb  Pb1_7  1  0.65321359  0.65321359  0.82526221  1
  Pb  Pb2_0  1  0.34678641  0.34678641  0.17473778  1
  Pb  Pb2_1  1  0.34678641  0.34678641  0.67473778  1
  Pb  Pb2_2  1  0.34678641  0.84678641  0.17473778  1
  Pb  Pb2_3  1  0.34678640  0.84678641  0.67473778  1
  Pb  Pb2_4  1  0.84678641  0.34678641  0.17473778  1
  Pb  Pb2_5  1  0.84678641  0.34678640  0.67473778  1
  Pb  Pb2_6  1  0.84678640  0.84678640  0.17473778  1
  Pb  Pb2_7  1  0.84678641  0.84678641  0.67473778  1
  Pb  Pb3_0  1  0.48686330  0.48686330  0.13390631  1
  Pb  Pb3_1  1  0.48686330  0.48686330  0.63390631  1
  Pb  Pb3_2  1  0.48686330  0.98686330  0.13390631  1
  Pb  Pb3_3  1  0.48686330  0.98686330  0.63390631  1
  Pb  Pb3_4  1  0.98686330  0.48686330  0.13390631  1
  Pb  Pb3_5  1  0.98686330  0.48686330  0.63390631  1
  Pb  Pb3_6  1  0.98686330  0.98686330  0.13390631  1
  Pb  Pb3_7  1  0.98686330  0.98686330  0.63390631  1
loop_
_geom_bond_atom_site_label_1
_geom_bond_atom_site_label_2
_geom_bond_distance
_geom_bond_site_symmetry_2
Mg0_0 Pb1_1 3.195420 1_554
Mg0_0 Pb2_4 3.226189 1_455
Mg0_0 Pb2_2 3.226189 1_545
Mg0_0 Pb0_5 3.228268 1_554
Mg0_0 Pb0_3 3.228268 1_554
Mg0_0 Pb3_4 3.230051 1_455
Mg0_0 Pb3_2 3.230051 1_545
Mg0_0 Mg1_5 3.370044 1_454
Mg0_0 Mg1_3 3.370044 1_544
Mg0_0 Mg0_6 3.489513 1_455
Mg0_0 Mg0_6 3.489513 1_545
Mg0_1 Pb1_0 3.195420 1_555
Mg0_1 Pb2_5 3.226189 1_455
Mg0_1 Pb2_3 3.226189 1_545
Mg0_1 Pb0_2 3.228268 1_555
Mg0_1 Pb0_4 3.228268 1_555
Mg0_1 Pb3_5 3.230051 1_455
Mg0_1 Pb3_3 3.230051 1_545
Mg0_1 Mg1_4 3.370044 1_455
Mg0_1 Mg1_2 3.370044 1_545
Mg0_1 Mg0_7 3.489513 1_455
Mg0_1 Mg0_7 3.489513 1_545
Mg0_2 Pb1_3 3.195420 1_554
Mg0_2 Pb2_0 3.226189 1_555
Mg0_2 Pb2_6 3.226189 1_455
Mg0_2 Pb0_1 3.228268 1_564
Mg0_2 Pb0_7 3.228268 1_554
Mg0_2 Pb3_0 3.230051 1_555
Mg0_2 Pb3_6 3.230051 1_455
Mg0_2 Mg1_1 3.370044 1_554
Mg0_2 Mg1_7 3.370044 1_454
Mg0_2 Mg0_4 3.489513 1_555
Mg0_2 Mg0_4 3.489513 1_465
Mg0_3 Pb1_2 3.195420 1_555
Mg0_3 Pb2_1 3.226189 1_555
Mg0_3 Pb2_7 3.226189 1_455
Mg0_3 Pb0_0 3.228268 1_565
Mg0_3 Pb0_6 3.228268 1_555
Mg0_3 Pb3_7 3.230051 1_455
Mg0_3 Pb3_1 3.230051 1_555
Mg0_3 Mg1_6 3.370044 1_455
Mg0_3 Mg1_0 3.370044 1_555
Mg0_3 Mg0_5 3.489513 1_465
Mg0_3 Mg0_5 3.489513 1_555
Mg0_4 Pb1_5 3.195420 1_554
Mg0_4 Pb2_0 3.226189 1_555
Mg0_4 Pb2_6 3.226189 1_545
Mg0_4 Pb0_1 3.228268 1_654
Mg0_4 Pb0_7 3.228268 1_554
Mg0_4 Pb3_0 3.230051 1_555
Mg0_4 Pb3_6 3.230051 1_545
Mg0_4 Mg1_1 3.370044 1_554
Mg0_4 Mg1_7 3.370044 1_544
Mg0_5 Pb1_4 3.195420 1_555
Mg0_5 Pb2_1 3.226189 1_555
Mg0_5 Pb2_7 3.226189 1_545
Mg0_5 Pb0_0 3.228268 1_655
Mg0_5 Pb0_6 3.228268 1_555
Mg0_5 Pb3_7 3.230051 1_545
Mg0_5 Pb3_1 3.230051 1_555
Mg0_5 Mg1_6 3.370044 1_545
Mg0_5 Mg1_0 3.370044 1_555
Mg0_6 Pb1_7 3.195420 1_554
Mg0_6 Pb2_2 3.226189 1_555
Mg0_6 Pb2_4 3.226189 1_555
Mg0_6 Pb0_3 3.228268 1_654
Mg0_6 Pb0_5 3.228268 1_564
Mg0_6 Pb3_2 3.230051 1_555
Mg0_6 Pb3_4 3.230051 1_555
Mg0_6 Mg1_5 3.370044 1_554
Mg0_6 Mg1_3 3.370044 1_554
Mg0_7 Pb1_6 3.195420 1_555
Mg0_7 Pb2_3 3.226189 1_555
Mg0_7 Pb2_5 3.226189 1_555
Mg0_7 Pb0_2 3.228268 1_655
Mg0_7 Pb0_4 3.228268 1_565
Mg0_7 Pb3_5 3.230051 1_555
Mg0_7 Pb3_3 3.230051 1_555
Mg0_7 Mg1_4 3.370044 1_555
Mg0_7 Mg1_2 3.370044 1_555
Mg1_0 Pb2_1 3.195420 1_555
Mg1_0 Pb1_2 3.226189 1_555
Mg1_0 Pb1_4 3.226189 1_555
Mg1_0 Pb3_5 3.228268 1_455
Mg1_0 Pb3_3 3.228268 1_545
Mg1_0 Pb0_2 3.230051 1_555
Mg1_0 Pb0_4 3.230051 1_555
Mg1_0 Mg1_6 3.489513 1_545
Mg1_0 Mg1_6 3.489513 1_455
Mg1_1 Pb2_0 3.195420 1_556
Mg1_1 Pb1_5 3.226189 1_555
Mg1_1 Pb1_3 3.226189 1_555
Mg1_1 Pb3_4 3.228268 1_456
Mg1_1 Pb3_2 3.228268 1_546
Mg1_1 Pb0_3 3.230051 1_555
Mg1_1 Pb0_5 3.230051 1_555
Mg1_1 Mg1_7 3.489513 1_455
Mg1_1 Mg1_7 3.489513 1_545
Mg1_2 Pb2_3 3.195420 1_555
Mg1_2 Pb1_0 3.226189 1_565
Mg1_2 Pb1_6 3.226189 1_555
Mg1_2 Pb3_7 3.228268 1_455
Mg1_2 Pb3_1 3.228268 1_555
Mg1_2 Pb0_0 3.230051 1_565
Mg1_2 Pb0_6 3.230051 1_555
Mg1_2 Mg1_4 3.489513 1_555
Mg1_2 Mg1_4 3.489513 1_465
Mg1_3 Pb2_2 3.195420 1_556
Mg1_3 Pb1_7 3.226189 1_555
Mg1_3 Pb1_1 3.226189 1_565
Mg1_3 Pb3_6 3.228268 1_456
Mg1_3 Pb3_0 3.228268 1_556
Mg1_3 Pb0_7 3.230051 1_555
Mg1_3 Pb0_1 3.230051 1_565
Mg1_3 Mg1_5 3.489513 1_465
Mg1_3 Mg1_5 3.489513 1_555
Mg1_4 Pb2_5 3.195420 1_555
Mg1_4 Pb1_0 3.226189 1_655
Mg1_4 Pb1_6 3.226189 1_555
Mg1_4 Pb3_7 3.228268 1_545
Mg1_4 Pb3_1 3.228268 1_555
Mg1_4 Pb0_0 3.230051 1_655
Mg1_4 Pb0_6 3.230051 1_555
Mg1_5 Pb2_4 3.195420 1_556
Mg1_5 Pb1_7 3.226189 1_555
Mg1_5 Pb1_1 3.226189 1_655
Mg1_5 Pb3_6 3.228268 1_546
Mg1_5 Pb3_0 3.228268 1_556
Mg1_5 Pb0_7 3.230051 1_555
Mg1_5 Pb0_1 3.230051 1_655
Mg1_6 Pb2_7 3.195420 1_555
Mg1_6 Pb1_4 3.226189 1_565
Mg1_6 Pb1_2 3.226189 1_655
Mg1_6 Pb3_5 3.228268 1_555
Mg1_6 Pb3_3 3.228268 1_555
Mg1_6 Pb0_2 3.230051 1_655
Mg1_6 Pb0_4 3.230051 1_565
Mg1_7 Pb2_6 3.195420 1_556
Mg1_7 Pb1_5 3.226189 1_565
Mg1_7 Pb1_3 3.226189 1_655
Mg1_7 Pb3_4 3.228268 1_556
Mg1_7 Pb3_2 3.228268 1_556
Mg1_7 Pb0_3 3.230051 1_655
Mg1_7 Pb0_5 3.230051 1_565
Pb0_0 Pb0_6 3.489513 1_545
Pb0_0 Pb0_6 3.489513 1_455
Pb0_0 Pb1_0 3.501023 1_555
Pb0_0 Pb1_2 3.553511 1_545
Pb0_0 Pb1_4 3.553511 1_455
Pb0_0 Pb2_2 3.575524 1_545
Pb0_0 Pb2_4 3.575524 1_455
Pb0_1 Pb0_7 3.489513 1_455
Pb0_1 Pb0_7 3.489513 1_545
Pb0_1 Pb1_1 3.501023 1_555
Pb0_1 Pb1_5 3.553511 1_455
Pb0_1 Pb1_3 3.553511 1_545
Pb0_1 Pb2_5 3.575524 1_455
Pb0_1 Pb2_3 3.575524 1_545
Pb0_2 Pb0_4 3.489513 1_555
Pb0_2 Pb0_4 3.489513 1_465
Pb0_2 Pb1_2 3.501023 1_555
Pb0_2 Pb1_6 3.553511 1_455
Pb0_2 Pb1_0 3.553511 1_555
Pb0_2 Pb2_6 3.575524 1_455
Pb0_2 Pb2_0 3.575524 1_555
Pb0_3 Pb0_5 3.489513 1_465
Pb0_3 Pb0_5 3.489513 1_555
Pb0_3 Pb1_3 3.501023 1_555
Pb0_3 Pb1_1 3.553511 1_555
Pb0_3 Pb1_7 3.553511 1_455
Pb0_3 Pb2_7 3.575524 1_455
Pb0_3 Pb2_1 3.575524 1_555
Pb0_4 Pb1_4 3.501023 1_555
Pb0_4 Pb1_6 3.553511 1_545
Pb0_4 Pb1_0 3.553511 1_555
Pb0_4 Pb2_6 3.575524 1_545
Pb0_4 Pb2_0 3.575524 1_555
Pb0_5 Pb1_5 3.501023 1_555
Pb0_5 Pb1_1 3.553511 1_555
Pb0_5 Pb1_7 3.553511 1_545
Pb0_5 Pb2_7 3.575524 1_545
Pb0_5 Pb2_1 3.575524 1_555
Pb0_6 Pb1_6 3.501023 1_555
Pb0_6 Pb1_2 3.553511 1_555
Pb0_6 Pb1_4 3.553511 1_555
Pb0_6 Pb2_2 3.575524 1_555
Pb0_6 Pb2_4 3.575524 1_555
Pb0_7 Pb1_7 3.501023 1_555
Pb0_7 Pb1_5 3.553511 1_555
Pb0_7 Pb1_3 3.553511 1_555
Pb0_7 Pb2_5 3.575524 1_555
Pb0_7 Pb2_3 3.575524 1_555
Pb1_0 Pb1_6 3.489513 1_455
Pb1_0 Pb1_6 3.489513 1_545
Pb1_0 Pb2_4 3.552684 1_455
Pb1_0 Pb2_2 3.552684 1_545
Pb1_0 Pb3_4 3.575524 1_455
Pb1_0 Pb3_2 3.575524 1_545
Pb1_1 Pb1_7 3.489513 1_545
Pb1_1 Pb1_7 3.489513 1_455
Pb1_1 Pb2_3 3.552684 1_545
Pb1_1 Pb2_5 3.552684 1_455
Pb1_1 Pb3_3 3.575524 1_545
Pb1_1 Pb3_5 3.575524 1_455
Pb1_2 Pb1_4 3.489513 1_465
Pb1_2 Pb1_4 3.489513 1_555
Pb1_2 Pb2_0 3.552684 1_555
Pb1_2 Pb2_6 3.552684 1_455
Pb1_2 Pb3_0 3.575524 1_555
Pb1_2 Pb3_6 3.575524 1_455
Pb1_3 Pb1_5 3.489513 1_555
Pb1_3 Pb1_5 3.489513 1_465
Pb1_3 Pb2_7 3.552684 1_455
Pb1_3 Pb2_1 3.552684 1_555
Pb1_3 Pb3_1 3.575524 1_555
Pb1_3 Pb3_7 3.575524 1_455
Pb1_4 Pb2_0 3.552684 1_555
Pb1_4 Pb2_6 3.552684 1_545
Pb1_4 Pb3_0 3.575524 1_555
Pb1_4 Pb3_6 3.575524 1_545
Pb1_5 Pb2_7 3.552684 1_545
Pb1_5 Pb2_1 3.552684 1_555
Pb1_5 Pb3_1 3.575524 1_555
Pb1_5 Pb3_7 3.575524 1_545
Pb1_6 Pb2_2 3.552684 1_555
Pb1_6 Pb2_4 3.552684 1_555
Pb1_6 Pb3_2 3.575524 1_555
Pb1_6 Pb3_4 3.575524 1_555
Pb1_7 Pb2_3 3.552684 1_555
Pb1_7 Pb2_5 3.552684 1_555
Pb1_7 Pb3_5 3.575524 1_555
Pb1_7 Pb3_3 3.575524 1_555
Pb2_0 Pb2_6 3.489513 1_545
Pb2_0 Pb2_6 3.489513 1_455
Pb2_0 Pb3_0 3.501023 1_555
Pb2_0 Pb3_2 3.553511 1_545
Pb2_0 Pb3_4 3.553511 1_455
Pb2_1 Pb2_7 3.489513 1_455
Pb2_1 Pb2_7 3.489513 1_545
Pb2_1 Pb3_1 3.501023 1_555
Pb2_1 Pb3_5 3.553511 1_455
Pb2_1 Pb3_3 3.553511 1_545
Pb2_2 Pb2_4 3.489513 1_555
Pb2_2 Pb2_4 3.489513 1_465
Pb2_2 Pb3_2 3.501023 1_555
Pb2_2 Pb3_6 3.553511 1_455
Pb2_2 Pb3_0 3.553511 1_555
Pb2_3 Pb2_5 3.489513 1_465
Pb2_3 Pb2_5 3.489513 1_555
Pb2_3 Pb3_3 3.501023 1_555
Pb2_3 Pb3_1 3.553511 1_555
Pb2_3 Pb3_7 3.553511 1_455
Pb2_4 Pb3_4 3.501023 1_555
Pb2_4 Pb3_6 3.553511 1_545
Pb2_4 Pb3_0 3.553511 1_555
Pb2_5 Pb3_5 3.501023 1_555
Pb2_5 Pb3_1 3.553511 1_555
Pb2_5 Pb3_7 3.553511 1_545
Pb2_6 Pb3_6 3.501023 1_555
Pb2_6 Pb3_2 3.553511 1_555
Pb2_6 Pb3_4 3.553511 1_555
Pb2_7 Pb3_7 3.501023 1_555
Pb2_7 Pb3_5 3.553511 1_555
Pb2_7 Pb3_3 3.553511 1_555
Pb3_0 Pb3_6 3.489513 1_455
Pb3_0 Pb3_6 3.489513 1_545
Pb3_1 Pb3_7 3.489513 1_455
Pb3_1 Pb3_7 3.489513 1_545
Pb3_2 Pb3_4 3.489513 1_465
Pb3_2 Pb3_4 3.489513 1_555
Pb3_3 Pb3_5 3.489513 1_555
Pb3_3 Pb3_5 3.489513 1_465
