# generated using pymatgen
data_V2Zn2O7
_symmetry_space_group_name_H-M   'P 1'
_cell_length_a   5.57975693
_cell_length_b   5.57975693
_cell_length_c   10.12509854
_cell_angle_alpha   75.73127920
_cell_angle_beta   75.73127920
_cell_angle_gamma   95.80670547
_symmetry_Int_Tables_number   1
_chemical_formula_structural   V2Zn2O7
_chemical_formula_sum   'V4 Zn4 O14'
_cell_volume   291.64928912
_cell_formula_units_Z   2
loop_
 _symmetry_equiv_pos_site_id
 _symmetry_equiv_pos_as_xyz
  1  'x, y, z'
loop_
 _atom_site_type_symbol
 _atom_site_label
 _atom_site_symmetry_multiplicity
 _atom_site_fract_x
 _atom_site_fract_y
 _atom_site_fract_z
 _atom_site_occupancy
  V  V0  1  0.48852449  0.99934216  0.70643442  1
  V  V1  1  0.00065784  0.51147551  0.79356558  1
  V  V2  1  0.51147551  0.00065784  0.29356558  1
  V  V3  1  0.99934216  0.48852449  0.20643442  1
  Zn  Zn0  1  0.60331133  0.75185842  0.02092225  1
  Zn  Zn1  1  0.24814158  0.39668867  0.47907775  1
  Zn  Zn2  1  0.39668867  0.24814158  0.97907775  1
  Zn  Zn3  1  0.75185842  0.60331133  0.52092225  1
  O  O0  1  0.70050830  0.86786880  0.61330798  1
  O  O1  1  0.13213120  0.29949170  0.88669202  1
  O  O2  1  0.29949170  0.13213120  0.38669202  1
  O  O3  1  0.86786880  0.70050830  0.11330798  1
  O  O4  1  0.48406004  0.29497303  0.60548377  1
  O  O5  1  0.70502697  0.51593996  0.89451623  1
  O  O6  1  0.51593996  0.70502697  0.39451623  1
  O  O7  1  0.29497303  0.48406004  0.10548377  1
  O  O8  1  0.81275035  0.18724965  0.25000000  1
  O  O9  1  0.18724965  0.81275035  0.75000000  1
  O  O10  1  0.01485382  0.55542318  0.36215202  1
  O  O11  1  0.44457682  0.98514618  0.13784798  1
  O  O12  1  0.98514618  0.44457682  0.63784798  1
  O  O13  1  0.55542318  0.01485382  0.86215202  1
loop_
_geom_bond_atom_site_label_1
_geom_bond_atom_site_label_2
_geom_bond_distance
_geom_bond_site_symmetry_2
O0 V0 1.671249 1_555
O0 Zn3 1.941724 1_555
O1 V1 1.671249 1_555
O1 Zn2 1.941724 1_555
O2 V2 1.671249 1_555
O2 Zn1 1.941724 1_555
O3 V3 1.671249 1_555
O3 Zn0 1.941724 1_555
O4 V0 1.719340 1_545
O4 Zn3 2.012175 1_555
O4 Zn1 2.077646 1_555
O5 V1 1.719340 1_655
O5 Zn2 2.012175 1_555
O5 Zn0 2.077646 1_556
O6 V2 1.719340 1_565
O6 Zn1 2.012175 1_555
O6 Zn3 2.077646 1_555
O7 V3 1.719340 1_455
O7 Zn0 2.012175 1_555
O7 Zn2 2.077646 1_554
O8 V2 1.777185 1_555
O8 V3 1.777185 1_555
O9 V0 1.777185 1_555
O9 V1 1.777185 1_555
O10 V3 1.727285 1_455
O10 Zn3 1.984263 1_455
O10 Zn1 2.087221 1_555
O11 V2 1.727285 1_565
O11 Zn2 1.984263 1_564
O11 Zn0 2.087221 1_555
O12 V1 1.727285 1_655
O12 Zn1 1.984263 1_655
O12 Zn3 2.087221 1_555
O13 V0 1.727285 1_545
O13 Zn0 1.984263 1_546
O13 Zn2 2.087221 1_555
