# generated using pymatgen
data_La2CoIr
_symmetry_space_group_name_H-M   'P 1'
_cell_length_a   11.46138891
_cell_length_b   11.46138891
_cell_length_c   11.46138891
_cell_angle_alpha   131.47352213
_cell_angle_beta   116.32486413
_cell_angle_gamma   83.93053977
_symmetry_Int_Tables_number   1
_chemical_formula_structural   La2CoIr
_chemical_formula_sum   'La2 Co1 Ir1'
_cell_volume   970.69443853
_cell_formula_units_Z   1
loop_
 _symmetry_equiv_pos_site_id
 _symmetry_equiv_pos_as_xyz
  1  'x, y, z'
loop_
 _atom_site_type_symbol
 _atom_site_label
 _atom_site_symmetry_multiplicity
 _atom_site_fract_x
 _atom_site_fract_y
 _atom_site_fract_z
 _atom_site_occupancy
  La  La0  1  0.00000000  0.23786800  0.23786800  1
  La  La1  1  0.00000000  0.76213200  0.76213200  1
  Co  Co0  1  0.00000000  0.00000000  0.00000000  1
  Ir  Ir0  1  0.00000000  0.50000000  0.50000000  1
loop_
_geom_bond_atom_site_label_1
_geom_bond_atom_site_label_2
_geom_bond_distance
_geom_bond_site_symmetry_2
Co0 La1 2.240632 1_544
Co0 La0 2.240632 1_555
Ir0 La1 2.469191 1_555
Ir0 La0 2.469191 1_555
