# generated using pymatgen
data_ScCoO3
_symmetry_space_group_name_H-M   'P 1'
_cell_length_a   5.01145432
_cell_length_b   5.44605869
_cell_length_c   7.41955288
_cell_angle_alpha   90.00222741
_cell_angle_beta   88.92155958
_cell_angle_gamma   89.99745961
_symmetry_Int_Tables_number   1
_chemical_formula_structural   ScCoO3
_chemical_formula_sum   'Sc4 Co4 O12'
_cell_volume   202.46357062
_cell_formula_units_Z   4
loop_
 _symmetry_equiv_pos_site_id
 _symmetry_equiv_pos_as_xyz
  1  'x, y, z'
loop_
 _atom_site_type_symbol
 _atom_site_label
 _atom_site_symmetry_multiplicity
 _atom_site_fract_x
 _atom_site_fract_y
 _atom_site_fract_z
 _atom_site_occupancy
  Sc  Sc0  1  0.02899182  0.91556412  0.75225951  1
  Sc  Sc1  1  0.47101027  0.41556578  0.74772382  1
  Sc  Sc2  1  0.52898898  0.58443404  0.25227618  1
  Sc  Sc3  1  0.97100838  0.08443849  0.24773865  1
  Co  Co0  1  0.00000080  0.49999951  0.49999991  1
  Co  Co1  1  0.49999925  0.00000011  0.00000025  1
  Co  Co2  1  0.00000034  0.49999907  0.00000064  1
  Co  Co3  1  0.49999905  0.00000037  0.50000016  1
  O  O0  1  0.14273598  0.44409985  0.25917955  1
  O  O1  1  0.35725512  0.94409625  0.24082497  1
  O  O2  1  0.64274548  0.05590298  0.75917527  1
  O  O3  1  0.85726499  0.55590001  0.74082069  1
  O  O4  1  0.19395545  0.17881765  0.57125779  1
  O  O5  1  0.19225694  0.18088618  0.93038665  1
  O  O6  1  0.30602654  0.67881394  0.92875392  1
  O  O7  1  0.30775406  0.68089701  0.56961289  1
  O  O8  1  0.69224601  0.31910307  0.43038792  1
  O  O9  1  0.69397391  0.32118602  0.07124538  1
  O  O10  1  0.80774204  0.81911265  0.06961360  1
  O  O11  1  0.80604456  0.82118290  0.42874224  1
loop_
_geom_bond_atom_site_label_1
_geom_bond_atom_site_label_2
_geom_bond_distance
_geom_bond_site_symmetry_2
Co0 O7 1.909474 1_555
Co0 O8 1.909475 1_455
Co0 O0 1.936171 1_555
Co0 O3 1.936175 1_455
Co0 O4 2.074410 1_555
Co0 O11 2.074421 1_455
Co1 O5 1.909348 1_554
Co1 O10 1.909354 1_545
Co1 O1 1.936252 1_545
Co1 O2 1.936256 1_554
Co1 O6 2.074489 1_544
Co1 O9 2.074490 1_555
Co2 O9 1.884001 1_455
Co2 O6 1.884009 1_554
Co2 O5 2.048524 1_554
Co2 O10 2.048530 1_455
Co2 O0 2.086637 1_555
Co2 O3 2.086645 1_454
Co3 O4 1.884016 1_555
Co3 O11 1.884025 1_545
Co3 O7 2.048558 1_545
Co3 O8 2.048558 1_555
Co3 O1 2.086617 1_545
Co3 O2 2.086620 1_555
O0 Sc2 2.080871 1_555
O0 Sc3 2.141818 1_455
O1 Sc3 2.080794 1_465
O1 Sc2 2.141774 1_555
O2 Sc0 2.080786 1_645
O2 Sc1 2.141780 1_555
O3 Sc1 2.080879 1_555
O3 Sc0 2.141829 1_655
O4 Sc0 2.121534 1_545
O4 Sc1 2.317955 1_555
O4 Sc3 2.715731 1_455
O5 Sc0 2.131831 1_545
O5 Sc1 2.313176 1_555
O5 Sc3 2.636540 1_456
O6 Sc1 2.121564 1_555
O6 Sc0 2.318010 1_555
O6 Sc2 2.715802 1_556
O7 Sc1 2.131792 1_555
O7 Sc0 2.312969 1_555
O7 Sc2 2.636373 1_555
O8 Sc2 2.131796 1_555
O8 Sc3 2.312973 1_555
O8 Sc1 2.636369 1_555
O9 Sc2 2.121569 1_555
O9 Sc3 2.317996 1_555
O9 Sc1 2.715800 1_554
O10 Sc3 2.131837 1_565
O10 Sc2 2.313171 1_555
O10 Sc0 2.636561 1_654
O11 Sc3 2.121551 1_565
O11 Sc2 2.317960 1_555
O11 Sc0 2.715722 1_655
