# generated using pymatgen
data_TeMoWSeS2
_symmetry_space_group_name_H-M   'P 1'
_cell_length_a   3.30870784
_cell_length_b   3.30870784
_cell_length_c   37.64541300
_cell_angle_alpha   90.00000000
_cell_angle_beta   90.00000000
_cell_angle_gamma   119.99999685
_symmetry_Int_Tables_number   1
_chemical_formula_structural   TeMoWSeS2
_chemical_formula_sum   'Te2 Mo2 W2 Se2 S4'
_cell_volume   356.91068780
_cell_formula_units_Z   2
loop_
 _symmetry_equiv_pos_site_id
 _symmetry_equiv_pos_as_xyz
  1  'x, y, z'
loop_
 _atom_site_type_symbol
 _atom_site_label
 _atom_site_symmetry_multiplicity
 _atom_site_fract_x
 _atom_site_fract_y
 _atom_site_fract_z
 _atom_site_occupancy
  Te  Te0  1  0.33333300  0.66666700  0.70866200  1
  Te  Te1  1  0.33333300  0.66666700  0.60641000  1
  Mo  Mo0  1  0.33333300  0.66666700  0.46964500  1
  Mo  Mo1  1  0.66666700  0.33333300  0.28181400  1
  W  W0  1  0.33333300  0.66666700  0.09392000  1
  W  W1  1  0.66666700  0.33333300  0.65756400  1
  Se  Se0  1  0.33333300  0.66666700  0.32643800  1
  Se  Se1  1  0.33333300  0.66666700  0.23716600  1
  S  S0  1  0.66666700  0.33333300  0.05318100  1
  S  S1  1  0.66666700  0.33333300  0.42906900  1
  S  S2  1  0.66666700  0.33333300  0.13465600  1
  S  S3  1  0.66666700  0.33333300  0.51022400  1
loop_
_geom_bond_atom_site_label_1
_geom_bond_atom_site_label_2
_geom_bond_distance
_geom_bond_site_symmetry_2
Te0 W1 2.710984 1_455
Te0 W1 2.710984 1_565
Te0 W1 2.710988 1_555
Te1 W1 2.712480 1_455
Te1 W1 2.712480 1_565
Te1 W1 2.712484 1_555
Mo0 S1 2.445901 1_455
Mo0 S1 2.445901 1_565
Mo0 S1 2.445906 1_555
Mo0 S3 2.445972 1_455
Mo0 S3 2.445972 1_565
Mo0 S3 2.445976 1_555
Mo1 Se0 2.543856 1_545
Mo1 Se0 2.543856 1_655
Mo1 Se0 2.543860 1_555
Mo1 Se1 2.544453 1_545
Mo1 Se1 2.544453 1_655
Mo1 Se1 2.544457 1_555
S0 W0 2.449738 1_545
S0 W0 2.449738 1_655
S0 W0 2.449742 1_555
S2 W0 2.449667 1_545
S2 W0 2.449667 1_655
S2 W0 2.449672 1_555
