# generated using pymatgen
data_Li5Mn3(SbO5)2
_symmetry_space_group_name_H-M   'P 1'
_cell_length_a   5.36832190
_cell_length_b   8.32531940
_cell_length_c   10.88626678
_cell_angle_alpha   101.24429019
_cell_angle_beta   100.27146292
_cell_angle_gamma   108.89968508
_symmetry_Int_Tables_number   1
_chemical_formula_structural   Li5Mn3(SbO5)2
_chemical_formula_sum   'Li10 Mn6 Sb4 O20'
_cell_volume   435.91880425
_cell_formula_units_Z   2
loop_
 _symmetry_equiv_pos_site_id
 _symmetry_equiv_pos_as_xyz
  1  'x, y, z'
loop_
 _atom_site_type_symbol
 _atom_site_label
 _atom_site_symmetry_multiplicity
 _atom_site_fract_x
 _atom_site_fract_y
 _atom_site_fract_z
 _atom_site_occupancy
  Li  Li0  1  0.50455500  0.48504500  0.24296800  1
  Li  Li1  1  0.50943300  0.51305400  0.75491200  1
  Li  Li2  1  0.86754100  0.38924300  0.11900000  1
  Li  Li3  1  0.88353700  0.39986100  0.62546500  1
  Li  Li4  1  0.11683000  0.60463300  0.37633900  1
  Li  Li5  1  0.09601500  0.59424700  0.88060400  1
  Li  Li6  1  0.28961400  0.76489500  0.17384100  1
  Li  Li7  1  0.29436100  0.80265100  0.70200800  1
  Li  Li8  1  0.70466600  0.23095000  0.30839800  1
  Li  Li9  1  0.70551500  0.23993300  0.82493300  1
  Mn  Mn0  1  0.49964000  0.00038500  0.50152700  1
  Mn  Mn1  1  0.90040300  0.89518500  0.84372300  1
  Mn  Mn2  1  0.11231200  0.11003800  0.15566400  1
  Mn  Mn3  1  0.49953100  0.00894600  0.00137700  1
  Mn  Mn4  1  0.89299400  0.88975200  0.34196200  1
  Mn  Mn5  1  0.10448600  0.10846800  0.66054400  1
  Sb  Sb0  1  0.72002700  0.69713600  0.04662700  1
  Sb  Sb1  1  0.70710200  0.69234600  0.54642700  1
  Sb  Sb2  1  0.28443100  0.30354200  0.45275100  1
  Sb  Sb3  1  0.27646000  0.30356200  0.94746000  1
  O  O0  1  0.08617500  0.84954500  0.02849800  1
  O  O1  1  0.06728800  0.82378900  0.51492400  1
  O  O2  1  0.92038100  0.16218000  0.47702100  1
  O  O3  1  0.89843600  0.16452000  0.98071800  1
  O  O4  1  0.69946200  0.91617600  0.16019700  1
  O  O5  1  0.68775100  0.91335900  0.65551700  1
  O  O6  1  0.30195000  0.08046200  0.34612700  1
  O  O7  1  0.29316000  0.02663400  0.81312400  1
  O  O8  1  0.35029900  0.55870600  0.07295200  1
  O  O9  1  0.32875000  0.54223100  0.56648400  1
  O  O10  1  0.66303100  0.45288700  0.43218800  1
  O  O11  1  0.73327500  0.48802600  0.92833100  1
  O  O12  1  0.50812100  0.24176600  0.14055000  1
  O  O13  1  0.47469400  0.24857800  0.60888400  1
  O  O14  1  0.51885800  0.75067600  0.39156000  1
  O  O15  1  0.52434700  0.75200900  0.89072600  1
  O  O16  1  0.90911000  0.65415200  0.20906600  1
  O  O17  1  0.88707400  0.64838400  0.70526000  1
  O  O18  1  0.10391900  0.34758600  0.29330000  1
  O  O19  1  0.07446900  0.34446300  0.77804600  1
loop_
_geom_bond_atom_site_label_1
_geom_bond_atom_site_label_2
_geom_bond_distance
_geom_bond_site_symmetry_2
Li0 O12 2.120777 1_555
Li0 O8 2.170822 1_555
Li0 O10 2.185473 1_555
Li0 O18 2.303447 1_555
Li0 O16 2.311416 1_555
Li0 O14 2.442078 1_555
Li1 O11 2.134967 1_555
Li1 O17 2.195469 1_555
Li1 O9 2.201128 1_555
Li1 O15 2.203985 1_555
Li1 O13 2.381861 1_555
Li1 O19 2.389601 1_555
Li2 O12 2.006109 1_555
Li2 O16 2.152904 1_555
Li2 O3 2.232845 1_554
Li2 O18 2.239192 1_655
Li2 O11 2.453665 1_554
Li3 O19 2.005041 1_655
Li3 O17 2.074510 1_555
Li3 O13 2.101259 1_555
Li3 O2 2.384658 1_555
Li3 O10 2.415734 1_555
Li3 O9 2.557019 1_655
Li4 O14 2.063398 1_555
Li4 O18 2.128078 1_555
Li4 O16 2.143785 1_455
Li4 O1 2.249389 1_555
Li4 O9 2.410680 1_555
Li4 O10 2.595074 1_455
Li5 O11 2.066010 1_455
Li5 O19 2.115898 1_555
Li5 O15 2.218392 1_555
Li5 O17 2.237051 1_455
Li5 O8 2.412372 1_556
Li5 O0 2.425069 1_556
Li6 O8 2.003424 1_555
Li6 O16 2.089679 1_455
Li6 O0 2.123700 1_555
Li6 O4 2.200797 1_555
Li6 O14 2.511913 1_555
Li7 O7 2.017767 1_565
Li7 O17 2.158117 1_455
Li7 O5 2.206279 1_555
Li7 O1 2.249050 1_555
Li7 O15 2.386049 1_555
Li7 O9 2.453630 1_555
Li8 O12 1.974422 1_555
Li8 O18 2.098412 1_655
Li8 O10 2.164231 1_555
Li8 O2 2.262699 1_555
Li8 O6 2.274836 1_555
Li9 O19 2.087589 1_655
Li9 O11 2.095094 1_555
Li9 O3 2.133778 1_555
Li9 O7 2.309351 1_555
Li9 O13 2.481291 1_555
Mn0 O6 2.165771 1_555
Mn0 O5 2.167687 1_545
Mn0 O13 2.224112 1_555
Mn0 O14 2.231153 1_545
Mn0 O2 2.317595 1_555
Mn0 O1 2.358726 1_545
Mn1 O7 2.156843 1_665
Mn1 O15 2.192148 1_555
Mn1 O5 2.218694 1_555
Mn1 O0 2.239033 1_656
Mn1 O17 2.271000 1_555
Mn1 O3 2.443153 1_565
Mn2 O12 2.104787 1_555
Mn2 O6 2.237156 1_555
Mn2 O3 2.246239 1_454
Mn2 O18 2.254862 1_555
Mn2 O0 2.280816 1_545
Mn2 O4 2.296109 1_445
Mn3 O3 2.191456 1_554
Mn3 O12 2.196932 1_555
Mn3 O7 2.205146 1_554
Mn3 O4 2.265780 1_545
Mn3 O0 2.291526 1_545
Mn3 O15 2.298129 1_544
Mn4 O4 2.151254 1_555
Mn4 O14 2.188646 1_555
Mn4 O1 2.197781 1_655
Mn4 O16 2.235111 1_555
Mn4 O6 2.240767 1_665
Mn4 O2 2.394541 1_565
Mn5 O7 2.130127 1_555
Mn5 O13 2.186155 1_555
Mn5 O19 2.195652 1_555
Mn5 O2 2.258059 1_455
Mn5 O5 2.283404 1_445
Mn5 O1 2.507052 1_545
O0 Sb0 2.032932 1_455
O1 Sb1 2.016430 1_455
O2 Sb2 2.022299 1_655
O3 Sb3 2.119666 1_655
O4 Sb0 2.041087 1_555
O5 Sb1 2.030370 1_555
O6 Sb2 2.028983 1_555
O7 Sb3 2.515526 1_555
O8 Sb0 2.049297 1_555
O8 Sb3 2.159911 1_554
O9 Sb2 2.041456 1_555
O9 Sb1 2.086896 1_555
O10 Sb1 2.049287 1_555
O10 Sb2 2.088201 1_555
O11 Sb0 1.983128 1_556
O11 Sb3 2.506551 1_555
O12 Sb3 2.476648 1_554
O13 Sb2 2.031898 1_555
O14 Sb1 2.031992 1_555
O15 Sb0 2.042073 1_556
O16 Sb0 2.031614 1_555
O17 Sb1 1.984260 1_555
O18 Sb2 1.991265 1_555
O19 Sb3 2.112836 1_555
