# generated using pymatgen
data_CuH2CBrN2
_symmetry_space_group_name_H-M   'P 1'
_cell_length_a   8.62056100
_cell_length_b   3.94423500
_cell_length_c   13.42308000
_cell_angle_alpha   90.00000000
_cell_angle_beta   90.00000000
_cell_angle_gamma   90.00000000
_symmetry_Int_Tables_number   1
_chemical_formula_structural   CuH2CBrN2
_chemical_formula_sum   'Cu4 H8 C4 Br4 N8'
_cell_volume   456.40510182
_cell_formula_units_Z   4
loop_
 _symmetry_equiv_pos_site_id
 _symmetry_equiv_pos_as_xyz
  1  'x, y, z'
loop_
 _atom_site_type_symbol
 _atom_site_label
 _atom_site_symmetry_multiplicity
 _atom_site_fract_x
 _atom_site_fract_y
 _atom_site_fract_z
 _atom_site_occupancy
  Cu  Cu0  1  0.11659200  0.25000000  0.44688900  1
  Cu  Cu1  1  0.61659200  0.25000000  0.05311100  1
  Cu  Cu2  1  0.88340800  0.75000000  0.55311100  1
  Cu  Cu3  1  0.38340800  0.75000000  0.94688900  1
  H  H0  1  0.63391400  0.25000000  0.28584200  1
  H  H1  1  0.13391400  0.25000000  0.21415800  1
  H  H2  1  0.36608600  0.75000000  0.71415800  1
  H  H3  1  0.86608600  0.75000000  0.78584200  1
  H  H4  1  0.69326700  0.25000000  0.41020400  1
  H  H5  1  0.19326700  0.25000000  0.08979600  1
  H  H6  1  0.30673300  0.75000000  0.58979600  1
  H  H7  1  0.80673300  0.75000000  0.91020400  1
  C  C0  1  0.46021300  0.25000000  0.38723200  1
  C  C1  1  0.96021300  0.25000000  0.11276800  1
  C  C2  1  0.53978700  0.75000000  0.61276800  1
  C  C3  1  0.03978700  0.75000000  0.88723200  1
  Br  Br0  1  0.03299700  0.25000000  0.62689100  1
  Br  Br1  1  0.53299700  0.25000000  0.87310900  1
  Br  Br2  1  0.96700300  0.75000000  0.37310900  1
  Br  Br3  1  0.46700300  0.75000000  0.12689100  1
  N  N0  1  0.32952600  0.25000000  0.41243500  1
  N  N1  1  0.82952600  0.25000000  0.08756500  1
  N  N2  1  0.67047400  0.75000000  0.58756500  1
  N  N3  1  0.17047400  0.75000000  0.91243500  1
  N  N4  1  0.60556700  0.25000000  0.35939000  1
  N  N5  1  0.10556700  0.25000000  0.14061000  1
  N  N6  1  0.39443300  0.75000000  0.64061000  1
  N  N7  1  0.89443300  0.75000000  0.85939000  1
loop_
_geom_bond_atom_site_label_1
_geom_bond_atom_site_label_2
_geom_bond_distance
_geom_bond_site_symmetry_2
Cu0 N0 1.892975 1_555
Cu1 N1 1.892975 1_555
Cu2 N2 1.892975 1_555
Cu3 N3 1.892975 1_555
H0 N4 1.017035 1_555
H1 N5 1.017035 1_555
H2 N6 1.017035 1_555
H3 N7 1.017035 1_555
H4 N4 1.018236 1_555
H5 N5 1.018236 1_555
H6 N6 1.018236 1_555
H7 N7 1.018236 1_555
C0 N0 1.176293 1_555
C0 N4 1.307579 1_555
C1 N1 1.176293 1_555
C1 N5 1.307579 1_655
C2 N2 1.176293 1_555
C2 N6 1.307579 1_555
C3 N3 1.176293 1_555
C3 N7 1.307579 1_455
Br0 Cu0 2.521358 1_555
Br0 Cu2 2.555967 1_445
Br0 Cu2 2.555967 1_455
Br1 Cu1 2.521358 1_556
Br1 Cu3 2.555967 1_555
Br1 Cu3 2.555967 1_545
Br2 Cu2 2.521358 1_555
Br2 Cu0 2.555967 1_665
Br2 Cu0 2.555967 1_655
Br3 Cu3 2.521358 1_554
Br3 Cu1 2.555967 1_555
Br3 Cu1 2.555967 1_565
