# generated using pymatgen
data_Li7Mn4CoO12
_symmetry_space_group_name_H-M   'P 1'
_cell_length_a   2.97082208
_cell_length_b   13.64576540
_cell_length_c   11.26934066
_cell_angle_alpha   74.31817940
_cell_angle_beta   83.16962694
_cell_angle_gamma   87.06190294
_symmetry_Int_Tables_number   1
_chemical_formula_structural   Li7Mn4CoO12
_chemical_formula_sum   'Li14 Mn8 Co2 O24'
_cell_volume   436.63531263
_cell_formula_units_Z   2
loop_
 _symmetry_equiv_pos_site_id
 _symmetry_equiv_pos_as_xyz
  1  'x, y, z'
loop_
 _atom_site_type_symbol
 _atom_site_label
 _atom_site_symmetry_multiplicity
 _atom_site_fract_x
 _atom_site_fract_y
 _atom_site_fract_z
 _atom_site_occupancy
  Li  Li0  1  0.49916000  0.16660400  0.83336500  1
  Li  Li1  1  0.00082400  0.66672700  0.33330200  1
  Li  Li2  1  0.85517800  0.21359800  0.02721400  1
  Li  Li3  1  0.36324700  0.71330600  0.52677400  1
  Li  Li4  1  0.64481900  0.61973300  0.13945500  1
  Li  Li5  1  0.13674600  0.12002400  0.63989300  1
  Li  Li6  1  0.11922300  0.46559300  0.28999900  1
  Li  Li7  1  0.61182800  0.96520900  0.78915500  1
  Li  Li8  1  0.38076600  0.36773700  0.87666600  1
  Li  Li9  1  0.88815500  0.86812200  0.37751100  1
  Li  Li10  1  0.88489700  0.54411600  0.71020600  1
  Li  Li11  1  0.38066800  0.04308500  0.20984000  1
  Li  Li12  1  0.11932700  0.79024600  0.95682500  1
  Li  Li13  1  0.61510400  0.28921800  0.45646100  1
  Mn  Mn0  1  0.51202400  0.50312200  0.49328500  1
  Mn  Mn1  1  0.01029300  0.00318500  0.99299300  1
  Mn  Mn2  1  0.98796600  0.33020800  0.67338300  1
  Mn  Mn3  1  0.48968400  0.83014900  0.17367500  1
  Mn  Mn4  1  0.23438900  0.24919600  0.24835100  1
  Mn  Mn5  1  0.75026000  0.75175900  0.74649700  1
  Mn  Mn6  1  0.26563700  0.58414900  0.91831000  1
  Mn  Mn7  1  0.74976200  0.08157700  0.42017100  1
  Co  Co0  1  0.25000800  0.91666900  0.58332900  1
  Co  Co1  1  0.75001100  0.41666600  0.08333600  1
  O  O0  1  0.47701700  0.08721300  0.02060900  1
  O  O1  1  0.97835400  0.58747600  0.52055200  1
  O  O2  1  0.02296000  0.74612000  0.14605700  1
  O  O3  1  0.52164000  0.24585400  0.64611600  1
  O  O4  1  0.64043700  0.35416600  0.26021200  1
  O  O5  1  0.15384200  0.85584600  0.75766600  1
  O  O6  1  0.85959700  0.47916700  0.90646000  1
  O  O7  1  0.34617000  0.97749200  0.40899200  1
  O  O8  1  0.92878100  0.27721600  0.84057900  1
  O  O9  1  0.43350600  0.77711300  0.34055500  1
  O  O10  1  0.57121000  0.55611600  0.32608700  1
  O  O11  1  0.06647300  0.05621900  0.82611300  1
  O  O12  1  0.20650300  0.52092400  0.09696100  1
  O  O13  1  0.65797800  0.01932400  0.59796300  1
  O  O14  1  0.29351400  0.31240700  0.06970700  1
  O  O15  1  0.84202800  0.81401200  0.56870200  1
  O  O16  1  0.45812200  0.42758600  0.67799700  1
  O  O17  1  0.95830500  0.92765800  0.17817100  1
  O  O18  1  0.54166900  0.90567500  0.98849800  1
  O  O19  1  0.04187300  0.40574400  0.48866900  1
  O  O20  1  0.66145700  0.69144100  0.92790700  1
  O  O21  1  0.14827200  0.18933000  0.42943600  1
  O  O22  1  0.35174700  0.64400400  0.73723400  1
  O  O23  1  0.83857200  0.14189500  0.23876000  1
loop_
_geom_bond_atom_site_label_1
_geom_bond_atom_site_label_2
_geom_bond_distance
_geom_bond_site_symmetry_2
Li0 O8 2.049969 1_555
Li0 O11 2.053766 1_555
Li0 O3 2.089744 1_555
Li0 O0 2.090232 1_556
Li0 O11 2.211254 1_655
Li0 O8 2.219806 1_455
Li1 O10 2.049948 1_455
Li1 O9 2.053770 1_555
Li1 O1 2.089759 1_455
Li1 O2 2.090250 1_555
Li1 O9 2.211275 1_455
Li1 O10 2.219814 1_555
Li2 O8 2.036697 1_554
Li2 O14 2.102482 1_655
Li2 O0 2.128357 1_555
Li2 O14 2.181714 1_555
Li2 O23 2.314986 1_555
Li2 O0 2.470368 1_655
Li3 O9 2.032812 1_555
Li3 O15 2.113824 1_455
Li3 O1 2.132151 1_455
Li3 O15 2.201388 1_555
Li3 O22 2.300477 1_555
Li3 O1 2.450594 1_555
Li4 O10 2.036664 1_555
Li4 O12 2.102447 1_555
Li4 O2 2.128335 1_655
Li4 O12 2.181759 1_655
Li4 O20 2.315009 1_554
Li4 O2 2.470424 1_555
Li5 O11 2.032818 1_555
Li5 O13 2.113802 1_555
Li5 O3 2.132156 1_555
Li5 O13 2.201312 1_455
Li5 O21 2.300447 1_555
Li5 O3 2.450593 1_455
Li6 O10 2.016381 1_555
Li6 O10 2.061484 1_455
Li6 O12 2.089904 1_555
Li6 O19 2.154247 1_555
Li6 O4 2.175591 1_555
Li6 O4 2.249225 1_455
Li7 O11 2.031126 1_665
Li7 O11 2.062408 1_565
Li7 O13 2.070371 1_565
Li7 O18 2.160885 1_555
Li7 O5 2.193970 1_555
Li7 O5 2.202241 1_655
Li8 O8 2.016353 1_455
Li8 O8 2.061469 1_555
Li8 O14 2.089932 1_556
Li8 O16 2.154237 1_555
Li8 O6 2.175552 1_455
Li8 O6 2.249379 1_555
Li9 O9 2.031115 1_555
Li9 O9 2.062385 1_655
Li9 O15 2.070357 1_555
Li9 O17 2.160857 1_555
Li9 O7 2.194063 1_655
Li9 O7 2.202225 1_555
Li10 O1 2.046263 1_555
Li10 O22 2.085128 1_555
Li10 O22 2.095939 1_655
Li10 O6 2.142476 1_555
Li10 O16 2.212682 1_555
Li10 O16 2.334036 1_655
Li11 O0 2.042161 1_555
Li11 O23 2.075050 1_555
Li11 O23 2.099513 1_455
Li11 O7 2.171942 1_545
Li11 O17 2.189913 1_445
Li11 O17 2.331147 1_545
Li12 O2 2.042173 1_556
Li12 O20 2.074919 1_455
Li12 O20 2.099535 1_555
Li12 O5 2.172025 1_555
Li12 O18 2.189914 1_555
Li12 O18 2.331219 1_455
Li13 O3 2.046275 1_555
Li13 O21 2.085158 1_655
Li13 O21 2.095887 1_555
Li13 O4 2.142416 1_555
Li13 O19 2.212622 1_655
Li13 O19 2.334008 1_555
Mn0 O10 1.817072 1_555
Mn0 O1 1.947980 1_555
Mn0 O1 1.954803 1_455
Mn0 O19 1.991027 1_555
Mn0 O19 2.012368 1_655
Mn0 O16 2.049102 1_555
Mn1 O11 1.813926 1_555
Mn1 O0 1.947478 1_556
Mn1 O0 1.952158 1_456
Mn1 O18 1.988565 1_445
Mn1 O18 2.016729 1_545
Mn1 O17 2.053753 1_446
Mn2 O8 1.817048 1_555
Mn2 O3 1.947971 1_555
Mn2 O3 1.954812 1_655
Mn2 O16 1.991032 1_655
Mn2 O16 2.012355 1_555
Mn2 O19 2.049122 1_655
Mn3 O9 1.813929 1_555
Mn3 O2 1.947496 1_555
Mn3 O2 1.952171 1_655
Mn3 O17 1.988552 1_555
Mn3 O17 2.016728 1_455
Mn3 O18 2.053740 1_554
Mn4 O14 1.954615 1_555
Mn4 O23 1.957194 1_455
Mn4 O4 1.960552 1_555
Mn4 O21 1.973151 1_555
Mn4 O4 2.229680 1_455
Mn4 O23 2.268767 1_555
Mn5 O5 1.943675 1_655
Mn5 O15 1.945300 1_555
Mn5 O22 1.966074 1_555
Mn5 O20 1.977586 1_555
Mn5 O5 2.226722 1_555
Mn5 O22 2.266115 1_655
Mn6 O12 1.954718 1_556
Mn6 O20 1.957125 1_555
Mn6 O6 1.960622 1_455
Mn6 O22 1.973038 1_555
Mn6 O6 2.229782 1_555
Mn6 O20 2.268693 1_455
Mn7 O7 1.943712 1_545
Mn7 O13 1.945272 1_555
Mn7 O21 1.966054 1_655
Mn7 O23 1.977597 1_555
Mn7 O7 2.226698 1_645
Mn7 O21 2.266108 1_555
Co0 O7 1.907794 1_555
Co0 O5 1.907795 1_555
Co0 O13 1.950612 1_565
Co0 O15 1.950625 1_455
Co0 O15 2.210460 1_555
Co0 O13 2.210477 1_465
Co1 O4 1.939488 1_555
Co1 O6 1.939493 1_554
Co1 O12 2.062077 1_655
Co1 O14 2.062113 1_555
Co1 O12 2.116215 1_555
Co1 O14 2.116221 1_655
