# generated using pymatgen
data_Sn3As
_symmetry_space_group_name_H-M   'P 1'
_cell_length_a   6.51119228
_cell_length_b   6.51119228
_cell_length_c   5.62000800
_cell_angle_alpha   90.00000000
_cell_angle_beta   90.00000000
_cell_angle_gamma   120.00000281
_symmetry_Int_Tables_number   1
_chemical_formula_structural   Sn3As
_chemical_formula_sum   'Sn6 As2'
_cell_volume   206.34245522
_cell_formula_units_Z   2
loop_
 _symmetry_equiv_pos_site_id
 _symmetry_equiv_pos_as_xyz
  1  'x, y, z'
loop_
 _atom_site_type_symbol
 _atom_site_label
 _atom_site_symmetry_multiplicity
 _atom_site_fract_x
 _atom_site_fract_y
 _atom_site_fract_z
 _atom_site_occupancy
  Sn  Sn0  1  0.16836400  0.33672700  0.25000000  1
  Sn  Sn1  1  0.66327300  0.83163600  0.25000000  1
  Sn  Sn2  1  0.16836400  0.83163600  0.25000000  1
  Sn  Sn3  1  0.83163600  0.66327300  0.75000000  1
  Sn  Sn4  1  0.33672700  0.16836400  0.75000000  1
  Sn  Sn5  1  0.83163600  0.16836400  0.75000000  1
  As  As0  1  0.33333300  0.66666700  0.75000000  1
  As  As1  1  0.66666700  0.33333300  0.25000000  1
loop_
_geom_bond_atom_site_label_1
_geom_bond_atom_site_label_2
_geom_bond_distance
_geom_bond_site_symmetry_2
Sn0 Sn1 3.222448 1_555
Sn0 Sn2 3.222448 1_555
Sn0 Sn1 3.288744 1_445
Sn0 Sn2 3.288745 1_545
Sn0 Sn4 3.391368 1_554
Sn0 Sn4 3.391368 1_555
Sn0 Sn5 3.391374 1_455
Sn0 Sn5 3.391374 1_454
Sn1 Sn2 3.222448 1_555
Sn1 Sn2 3.288745 1_655
Sn1 Sn3 3.391368 1_555
Sn1 Sn3 3.391368 1_554
Sn1 Sn5 3.391374 1_565
Sn1 Sn5 3.391374 1_564
Sn2 Sn4 3.391374 1_564
Sn2 Sn3 3.391374 1_455
Sn2 Sn3 3.391374 1_454
Sn2 Sn4 3.391374 1_565
Sn3 Sn4 3.222448 1_555
Sn3 Sn5 3.222448 1_555
Sn3 Sn4 3.288744 1_665
Sn3 Sn5 3.288745 1_565
Sn4 Sn5 3.222448 1_555
Sn4 Sn5 3.288745 1_455
As0 Sn5 3.255652 1_565
As0 Sn5 3.255652 1_455
As0 Sn4 3.255652 1_565
As0 Sn3 3.255652 1_455
As0 Sn3 3.255652 1_555
As0 Sn4 3.255652 1_555
As0 Sn2 3.370087 1_555
As0 Sn2 3.370087 1_556
As0 Sn1 3.370093 1_556
As0 Sn0 3.370093 1_555
As0 Sn0 3.370093 1_556
As0 Sn1 3.370093 1_555
As1 Sn2 3.255652 1_655
As1 Sn2 3.255652 1_545
As1 Sn0 3.255652 1_655
As1 Sn1 3.255652 1_545
As1 Sn1 3.255652 1_555
As1 Sn0 3.255652 1_555
As1 Sn5 3.370087 1_555
As1 Sn5 3.370087 1_554
As1 Sn3 3.370093 1_555
As1 Sn4 3.370093 1_555
As1 Sn3 3.370093 1_554
As1 Sn4 3.370093 1_554
