# generated using pymatgen
data_CeZnSi
_symmetry_space_group_name_H-M   'P 1'
_cell_length_a   4.16458553
_cell_length_b   4.16458553
_cell_length_c   4.26952233
_cell_angle_alpha   90.00000000
_cell_angle_beta   90.00000000
_cell_angle_gamma   120.00000500
_symmetry_Int_Tables_number   1
_chemical_formula_structural   CeZnSi
_chemical_formula_sum   'Ce1 Zn1 Si1'
_cell_volume   64.12885292
_cell_formula_units_Z   1
loop_
 _symmetry_equiv_pos_site_id
 _symmetry_equiv_pos_as_xyz
  1  'x, y, z'
loop_
 _atom_site_type_symbol
 _atom_site_label
 _atom_site_symmetry_multiplicity
 _atom_site_fract_x
 _atom_site_fract_y
 _atom_site_fract_z
 _atom_site_occupancy
  Ce  Ce0  1  0.33333300  0.66666700  0.00000000  1
  Zn  Zn0  1  0.66666700  0.33333300  0.50000000  1
  Si  Si0  1  0.00000000  0.00000000  0.50000000  1
loop_
_geom_bond_atom_site_label_1
_geom_bond_atom_site_label_2
_geom_bond_distance
_geom_bond_site_symmetry_2
Ce0 Zn0 3.215346 1_455
Ce0 Zn0 3.215346 1_454
Ce0 Zn0 3.215346 1_564
Ce0 Zn0 3.215346 1_565
Ce0 Si0 3.215346 1_565
Ce0 Si0 3.215346 1_564
Ce0 Si0 3.215349 1_555
Ce0 Si0 3.215349 1_554
Ce0 Si0 3.215349 1_664
Ce0 Si0 3.215349 1_665
Ce0 Zn0 3.215352 1_554
Ce0 Zn0 3.215352 1_555
Si0 Zn0 2.404422 1_455
Si0 Zn0 2.404426 1_445
Si0 Zn0 2.404426 1_555
