# generated using pymatgen
data_V4(CrS2)5
_symmetry_space_group_name_H-M   'P 1'
_cell_length_a   5.87253600
_cell_length_b   6.67529144
_cell_length_c   8.19451867
_cell_angle_alpha   106.22459062
_cell_angle_beta   110.94376624
_cell_angle_gamma   89.93393461
_symmetry_Int_Tables_number   1
_chemical_formula_structural   V4(CrS2)5
_chemical_formula_sum   'V4 Cr5 S10'
_cell_volume   286.31005106
_cell_formula_units_Z   1
loop_
 _symmetry_equiv_pos_site_id
 _symmetry_equiv_pos_as_xyz
  1  'x, y, z'
loop_
 _atom_site_type_symbol
 _atom_site_label
 _atom_site_symmetry_multiplicity
 _atom_site_fract_x
 _atom_site_fract_y
 _atom_site_fract_z
 _atom_site_occupancy
  V  V0  1  0.21410300  0.40377500  0.40473200  1
  V  V1  1  0.39600700  0.77825600  0.78187400  1
  V  V2  1  0.60399300  0.22174400  0.21812600  1
  V  V3  1  0.78589700  0.59622500  0.59526800  1
  Cr  Cr0  1  0.09854800  0.71443800  0.18920500  1
  Cr  Cr1  1  0.28516700  0.09839900  0.60078100  1
  Cr  Cr2  1  0.50000000  0.50000000  0.00000000  1
  Cr  Cr3  1  0.71483300  0.90160100  0.39921900  1
  Cr  Cr4  1  0.90145200  0.28556200  0.81079500  1
  S  S0  1  0.60937600  0.14450200  0.90235500  1
  S  S1  1  0.41164700  0.75481900  0.48635300  1
  S  S2  1  0.01196300  0.94334900  0.70164300  1
  S  S3  1  0.82889800  0.55912900  0.30138700  1
  S  S4  1  0.21629700  0.36178800  0.10345500  1
  S  S5  1  0.78370300  0.63821200  0.89654500  1
  S  S6  1  0.58835300  0.24518100  0.51364700  1
  S  S7  1  0.17110200  0.44087100  0.69861300  1
  S  S8  1  0.98803700  0.05665100  0.29835700  1
  S  S9  1  0.39062400  0.85549800  0.09764500  1
loop_
_geom_bond_atom_site_label_1
_geom_bond_atom_site_label_2
_geom_bond_distance
_geom_bond_site_symmetry_2
Cr0 S5 2.362027 1_454
Cr0 S8 2.389425 1_465
Cr0 S9 2.389585 1_555
Cr0 S1 2.411679 1_555
Cr0 S4 2.435712 1_555
Cr0 S3 2.450406 1_455
Cr1 S7 2.381993 1_555
Cr1 S2 2.399651 1_545
Cr1 S8 2.405763 1_455
Cr1 S6 2.437982 1_555
Cr1 S1 2.446077 1_545
Cr1 S0 2.457525 1_555
Cr2 S5 2.407490 1_554
Cr2 S4 2.407490 1_555
Cr2 S9 2.446842 1_555
Cr2 S0 2.446842 1_554
Cr2 S7 2.456153 1_554
Cr2 S3 2.456153 1_555
Cr3 S3 2.381993 1_555
Cr3 S8 2.399651 1_565
Cr3 S2 2.405763 1_655
Cr3 S1 2.437982 1_555
Cr3 S6 2.446077 1_565
Cr3 S9 2.457525 1_555
Cr4 S4 2.362027 1_656
Cr4 S2 2.389425 1_645
Cr4 S0 2.389585 1_555
Cr4 S6 2.411679 1_555
Cr4 S5 2.435712 1_555
Cr4 S7 2.450406 1_655
S0 V2 2.505069 1_556
S0 V1 2.509122 1_545
S1 V1 2.417556 1_555
S1 V0 2.420752 1_555
S1 V3 2.422386 1_555
S2 V3 2.437744 1_455
S2 V1 2.464203 1_555
S3 V2 2.405420 1_555
S3 V0 2.454719 1_655
S3 V3 2.454782 1_555
S4 V0 2.410365 1_555
S4 V2 2.428380 1_555
S5 V3 2.410365 1_555
S5 V1 2.428380 1_555
S6 V2 2.417556 1_555
S6 V3 2.420752 1_555
S6 V0 2.422386 1_555
S7 V1 2.405420 1_555
S7 V3 2.454719 1_455
S7 V0 2.454782 1_555
S8 V0 2.437744 1_655
S8 V2 2.464203 1_555
S9 V1 2.505069 1_554
S9 V2 2.509122 1_565
