# generated using pymatgen
data_Mg6NbNi
_symmetry_space_group_name_H-M   'P 1'
_cell_length_a   4.77457100
_cell_length_b   5.93080900
_cell_length_c   10.99232000
_cell_angle_alpha   90.00000000
_cell_angle_beta   90.00000000
_cell_angle_gamma   90.00000000
_symmetry_Int_Tables_number   1
_chemical_formula_structural   Mg6NbNi
_chemical_formula_sum   'Mg12 Nb2 Ni2'
_cell_volume   311.27028015
_cell_formula_units_Z   2
loop_
 _symmetry_equiv_pos_site_id
 _symmetry_equiv_pos_as_xyz
  1  'x, y, z'
loop_
 _atom_site_type_symbol
 _atom_site_label
 _atom_site_symmetry_multiplicity
 _atom_site_fract_x
 _atom_site_fract_y
 _atom_site_fract_z
 _atom_site_occupancy
  Mg  Mg0  1  0.00000000  0.73992400  0.08209500  1
  Mg  Mg1  1  0.00000000  0.26007600  0.08209500  1
  Mg  Mg2  1  0.00000000  0.00000000  0.32386900  1
  Mg  Mg3  1  0.50000000  0.25446200  0.42488700  1
  Mg  Mg4  1  0.50000000  0.74553800  0.42488700  1
  Mg  Mg5  1  0.50000000  0.00000000  0.16953300  1
  Mg  Mg6  1  0.00000000  0.23992400  0.58209500  1
  Mg  Mg7  1  0.00000000  0.76007600  0.58209500  1
  Mg  Mg8  1  0.00000000  0.50000000  0.82386900  1
  Mg  Mg9  1  0.50000000  0.75446200  0.92488700  1
  Mg  Mg10  1  0.50000000  0.24553800  0.92488700  1
  Mg  Mg11  1  0.50000000  0.50000000  0.66953300  1
  Nb  Nb0  1  0.50000000  0.50000000  0.19136500  1
  Nb  Nb1  1  0.50000000  0.00000000  0.69136500  1
  Ni  Ni0  1  0.00000000  0.50000000  0.30126800  1
  Ni  Ni1  1  0.00000000  0.00000000  0.80126800  1
loop_
_geom_bond_atom_site_label_1
_geom_bond_atom_site_label_2
_geom_bond_distance
_geom_bond_site_symmetry_2
Mg0 Ni0 2.798054 1_555
Mg0 Mg9 2.948360 1_454
Mg0 Mg9 2.948360 1_554
Mg0 Mg5 3.000353 1_565
Mg0 Mg5 3.000353 1_465
Mg0 Nb0 3.027642 1_455
Mg0 Nb0 3.027642 1_555
Mg1 Ni0 2.798054 1_555
Mg1 Mg10 2.948360 1_554
Mg1 Mg10 2.948360 1_454
Mg1 Mg5 3.000353 1_455
Mg1 Mg5 3.000353 1_555
Mg1 Nb0 3.027642 1_455
Mg1 Nb0 3.027642 1_555
Mg2 Mg5 2.928699 1_555
Mg2 Mg5 2.928699 1_455
Mg2 Ni0 2.975793 1_545
Mg2 Ni0 2.975793 1_555
Mg2 Mg4 3.034757 1_545
Mg2 Mg3 3.034757 1_455
Mg2 Mg3 3.034757 1_555
Mg2 Mg4 3.034757 1_445
Mg3 Mg4 2.912478 1_555
Mg3 Mg6 2.948360 1_655
Mg3 Mg6 2.948360 1_555
Mg3 Nb0 2.951247 1_555
Mg3 Mg4 3.018331 1_545
Mg3 Ni0 3.109062 1_655
Mg3 Ni0 3.109062 1_555
Mg3 Mg5 3.186919 1_555
Mg3 Nb1 3.295127 1_555
Mg4 Mg7 2.948360 1_555
Mg4 Mg7 2.948360 1_655
Mg4 Nb0 2.951247 1_555
Mg4 Ni0 3.109062 1_655
Mg4 Ni0 3.109062 1_555
Mg4 Mg5 3.186919 1_565
Mg4 Nb1 3.295127 1_565
Mg5 Nb0 2.975099 1_545
Mg5 Nb0 2.975099 1_555
Mg5 Mg9 3.058198 1_544
Mg6 Ni1 2.798054 1_555
Mg6 Nb1 3.027642 1_455
Mg6 Nb1 3.027642 1_555
Mg7 Ni1 2.798054 1_565
Mg7 Nb1 3.027642 1_465
Mg7 Nb1 3.027642 1_565
Mg8 Ni1 2.975793 1_565
Mg8 Ni1 2.975793 1_555
Mg8 Mg9 3.034757 1_455
Mg8 Mg9 3.034757 1_555
Mg9 Nb1 2.951247 1_565
Mg9 Ni1 3.109062 1_565
Mg9 Ni1 3.109062 1_665
Mg9 Nb0 3.295127 1_556
Mg10 Mg9 2.912478 1_545
Mg10 Nb1 2.951247 1_555
Mg10 Mg9 3.018331 1_555
Mg10 Mg8 3.034757 1_555
Mg10 Mg8 3.034757 1_655
Mg10 Mg5 3.058198 1_556
Mg10 Ni1 3.109062 1_655
Mg10 Ni1 3.109062 1_555
Mg10 Mg11 3.186919 1_555
Mg10 Nb0 3.295127 1_556
Mg11 Mg8 2.928699 1_655
Mg11 Mg8 2.928699 1_555
Mg11 Nb1 2.975099 1_565
Mg11 Nb1 2.975099 1_555
Mg11 Mg7 3.000353 1_655
Mg11 Mg7 3.000353 1_555
Mg11 Mg6 3.000353 1_655
Mg11 Mg6 3.000353 1_555
Mg11 Mg3 3.058198 1_555
Mg11 Mg4 3.058198 1_555
Mg11 Mg9 3.186919 1_555
Nb0 Ni0 2.675558 1_655
Nb0 Ni0 2.675558 1_555
Nb1 Ni1 2.675558 1_655
Nb1 Ni1 2.675558 1_555
