# generated using pymatgen
data_GdUC4
_symmetry_space_group_name_H-M   'P 1'
_cell_length_a   3.61494000
_cell_length_b   3.61494000
_cell_length_c   6.16950200
_cell_angle_alpha   90.00000000
_cell_angle_beta   90.00000000
_cell_angle_gamma   90.00000000
_symmetry_Int_Tables_number   1
_chemical_formula_structural   GdUC4
_chemical_formula_sum   'Gd1 U1 C4'
_cell_volume   80.62176397
_cell_formula_units_Z   1
loop_
 _symmetry_equiv_pos_site_id
 _symmetry_equiv_pos_as_xyz
  1  'x, y, z'
loop_
 _atom_site_type_symbol
 _atom_site_label
 _atom_site_symmetry_multiplicity
 _atom_site_fract_x
 _atom_site_fract_y
 _atom_site_fract_z
 _atom_site_occupancy
  Gd  Gd0  1  0.00000000  0.00000000  0.00000000  1
  U  U0  1  0.50000000  0.50000000  0.50000000  1
  C  C0  1  0.00000000  0.00000000  0.39089600  1
  C  C1  1  0.50000000  0.50000000  0.89376900  1
  C  C2  1  0.50000000  0.50000000  0.10623100  1
  C  C3  1  0.00000000  0.00000000  0.60910400  1
loop_
_geom_bond_atom_site_label_1
_geom_bond_atom_site_label_2
_geom_bond_distance
_geom_bond_site_symmetry_2
C0 C3 1.346235 1_555
C0 Gd0 2.411634 1_555
C0 U0 2.643290 1_455
C0 U0 2.643290 1_545
C0 U0 2.643290 1_555
C0 U0 2.643290 1_445
C1 C2 1.310785 1_556
C1 U0 2.429359 1_555
C1 Gd0 2.638832 1_556
C1 Gd0 2.638832 1_566
C1 Gd0 2.638832 1_656
C1 Gd0 2.638832 1_666
C2 U0 2.429359 1_555
C2 Gd0 2.638832 1_655
C2 Gd0 2.638832 1_565
C2 Gd0 2.638832 1_665
C2 Gd0 2.638832 1_555
C3 Gd0 2.411634 1_556
C3 U0 2.643290 1_455
C3 U0 2.643290 1_545
C3 U0 2.643290 1_555
C3 U0 2.643290 1_445
