# generated using pymatgen
data_U2Si3Os
_symmetry_space_group_name_H-M   'P 1'
_cell_length_a   3.67847800
_cell_length_b   4.18592579
_cell_length_c   7.08980173
_cell_angle_alpha   89.99383528
_cell_angle_beta   90.00000000
_cell_angle_gamma   90.00000000
_symmetry_Int_Tables_number   1
_chemical_formula_structural   U2Si3Os
_chemical_formula_sum   'U2 Si3 Os1'
_cell_volume   109.16760324
_cell_formula_units_Z   1
loop_
 _symmetry_equiv_pos_site_id
 _symmetry_equiv_pos_as_xyz
  1  'x, y, z'
loop_
 _atom_site_type_symbol
 _atom_site_label
 _atom_site_symmetry_multiplicity
 _atom_site_fract_x
 _atom_site_fract_y
 _atom_site_fract_z
 _atom_site_occupancy
  U  U0  1  0.00000000  0.99997200  0.00584800  1
  U  U1  1  0.00000000  0.50001300  0.49526800  1
  Si  Si0  1  0.50000000  0.49993100  0.83023700  1
  Si  Si1  1  0.50000000  0.49994800  0.15953600  1
  Si  Si2  1  0.50000000  0.00003000  0.67508000  1
  Os  Os0  1  0.50000000  0.99990600  0.33403100  1
loop_
_geom_bond_atom_site_label_1
_geom_bond_atom_site_label_2
_geom_bond_distance
_geom_bond_site_symmetry_2
Si0 Si1 2.334665 1_556
Si0 Si2 2.364175 1_555
Si0 Si2 2.364700 1_565
Si0 U1 3.003794 1_555
Si0 U1 3.003794 1_655
Si0 U0 3.051583 1_546
Si0 U0 3.051583 1_646
Si0 U0 3.052002 1_656
Si0 U0 3.052002 1_556
Si1 U0 2.991737 1_655
Si1 U0 2.991737 1_555
Si1 U0 2.991760 1_645
Si1 U0 2.991760 1_545
Si1 U1 3.008073 1_555
Si1 U1 3.008073 1_655
Si2 U0 2.980302 1_646
Si2 U0 2.980302 1_546
Si2 U1 3.063922 1_655
Si2 U1 3.063922 1_555
Si2 U1 3.064206 1_645
Si2 U1 3.064206 1_545
Os0 Si2 2.417970 1_565
Os0 Si1 2.431217 1_555
Os0 Si1 2.431291 1_565
Os0 U0 2.965902 1_555
Os0 U0 2.965902 1_655
Os0 U1 3.011257 1_655
Os0 U1 3.011257 1_555
Os0 U1 3.012051 1_665
Os0 U1 3.012051 1_565
