# generated using pymatgen
data_SmCO4
_symmetry_space_group_name_H-M   'P 1'
_cell_length_a   9.82199680
_cell_length_b   12.37622367
_cell_length_c   12.37622963
_cell_angle_alpha   120.00005770
_cell_angle_beta   90.00000000
_cell_angle_gamma   90.00000000
_symmetry_Int_Tables_number   1
_chemical_formula_structural   SmCO4
_chemical_formula_sum   'Sm18 C18 O72'
_cell_volume   1302.88677566
_cell_formula_units_Z   18
loop_
 _symmetry_equiv_pos_site_id
 _symmetry_equiv_pos_as_xyz
  1  'x, y, z'
loop_
 _atom_site_type_symbol
 _atom_site_label
 _atom_site_symmetry_multiplicity
 _atom_site_fract_x
 _atom_site_fract_y
 _atom_site_fract_z
 _atom_site_occupancy
  Sm  Sm0  1  0.23993393  0.88163617  0.77009027  1
  Sm  Sm1  1  0.23993415  0.22990766  0.11154416  1
  Sm  Sm2  1  0.23993399  0.88845774  0.11836717  1
  Sm  Sm3  1  0.76006607  0.88163617  0.77009027  1
  Sm  Sm4  1  0.76006585  0.22990766  0.11154416  1
  Sm  Sm5  1  0.76006601  0.88845774  0.11836717  1
  Sm  Sm6  1  0.25673665  0.21554567  0.43775804  1
  Sm  Sm7  1  0.25673709  0.56224666  0.77779093  1
  Sm  Sm8  1  0.25673724  0.22221049  0.78445213  1
  Sm  Sm9  1  0.74326335  0.21554567  0.43775804  1
  Sm  Sm10  1  0.74326291  0.56224666  0.77779093  1
  Sm  Sm11  1  0.74326276  0.22221049  0.78445213  1
  Sm  Sm12  1  0.25634429  0.89657544  0.45447143  1
  Sm  Sm13  1  0.25634432  0.54552465  0.44210347  1
  Sm  Sm14  1  0.25634580  0.55789673  0.10342235  1
  Sm  Sm15  1  0.74365571  0.89657544  0.45447143  1
  Sm  Sm16  1  0.74365568  0.54552465  0.44210347  1
  Sm  Sm17  1  0.74365420  0.55789673  0.10342235  1
  C  C0  1  0.00000000  0.35296229  0.49014181  1
  C  C1  1  0.00000000  0.50985980  0.86282171  1
  C  C2  1  0.00000000  0.13717966  0.64703620  1
  C  C3  1  0.00000000  0.79707360  0.88779337  1
  C  C4  1  0.00000000  0.11220787  0.90928043  1
  C  C5  1  0.00000000  0.09071810  0.20292770  1
  C  C6  1  0.00000000  0.83640827  0.53211658  1
  C  C7  1  0.00000000  0.46787716  0.30429032  1
  C  C8  1  0.00000000  0.69570968  0.16359147  1
  C  C9  1  0.50000000  0.12947185  0.57783108  1
  C  C10  1  0.50000000  0.42216890  0.55164141  1
  C  C11  1  0.50000000  0.44836101  0.87052993  1
  C  C12  1  0.50000000  0.76287015  0.22519729  1
  C  C13  1  0.50000000  0.77480030  0.53766936  1
  C  C14  1  0.50000000  0.46232547  0.23712908  1
  C  C15  1  0.50000000  0.79802317  0.81911020  1
  C  C16  1  0.50000000  0.18089162  0.97891038  1
  C  C17  1  0.50000000  0.02109072  0.20198200  1
  O  O0  1  0.00000000  0.24536628  0.48536972  1
  O  O1  1  0.00000000  0.51463342  0.75999900  1
  O  O2  1  0.00000000  0.24000374  0.75463212  1
  O  O3  1  0.11576174  0.40243441  0.49091951  1
  O  O4  1  0.11576233  0.50908134  0.91151578  1
  O  O5  1  0.11576197  0.08848536  0.59756260  1
  O  O6  1  0.88423826  0.40243441  0.49091951  1
  O  O7  1  0.88423767  0.50908134  0.91151578  1
  O  O8  1  0.88423803  0.08848536  0.59756260  1
  O  O9  1  0.00000000  0.85908964  0.82881864  1
  O  O10  1  0.00000000  0.17117955  0.03026956  1
  O  O11  1  0.00000000  0.96972789  0.14091084  1
  O  O12  1  0.11526660  0.08377298  0.85095206  1
  O  O13  1  0.11526681  0.14904593  0.23281990  1
  O  O14  1  0.11526639  0.76718171  0.91622896  1
  O  O15  1  0.88473340  0.08377298  0.85095206  1
  O  O16  1  0.88473319  0.14904593  0.23281990  1
  O  O17  1  0.88473361  0.76718171  0.91622896  1
  O  O18  1  0.00000000  0.84114484  0.42991835  1
  O  O19  1  0.00000000  0.57007690  0.41122544  1
  O  O20  1  0.00000000  0.58877377  0.15885367  1
  O  O21  1  0.11513708  0.83629118  0.58193728  1
  O  O22  1  0.11513659  0.41805641  0.25435312  1
  O  O23  1  0.11513673  0.74564751  0.16370895  1
  O  O24  1  0.88486292  0.83629118  0.58193728  1
  O  O25  1  0.88486341  0.41805641  0.25435312  1
  O  O26  1  0.88486327  0.74564751  0.16370895  1
  O  O27  1  0.50000000  0.30184955  0.49766594  1
  O  O28  1  0.50000000  0.50233775  0.80418690  1
  O  O29  1  0.50000000  0.19581809  0.69815107  1
  O  O30  1  0.38539752  0.09640104  0.51832520  1
  O  O31  1  0.38539752  0.48167581  0.57807849  1
  O  O32  1  0.38539787  0.42192400  0.90359956  1
  O  O33  1  0.61460248  0.09640104  0.51832520  1
  O  O34  1  0.61460248  0.48167581  0.57807849  1
  O  O35  1  0.61460213  0.42192400  0.90359956  1
  O  O36  1  0.50000000  0.83956637  0.48132657  1
  O  O37  1  0.50000000  0.51866737  0.35823795  1
  O  O38  1  0.50000000  0.64176143  0.16043229  1
  O  O39  1  0.38490037  0.82144259  0.25656226  1
  O  O40  1  0.38490073  0.74343571  0.56487709  1
  O  O41  1  0.38490036  0.43511821  0.17855634  1
  O  O42  1  0.61509963  0.82144259  0.25656226  1
  O  O43  1  0.61509927  0.74343571  0.56487709  1
  O  O44  1  0.61509964  0.43511821  0.17855634  1
  O  O45  1  0.50000000  0.90154343  0.81655196  1
  O  O46  1  0.50000000  0.18344775  0.08498865  1
  O  O47  1  0.50000000  0.91501204  0.09845983  1
  O  O48  1  0.38506815  0.74807468  0.81919250  1
  O  O49  1  0.38506836  0.18081005  0.92888080  1
  O  O50  1  0.38506883  0.07112088  0.25193027  1
  O  O51  1  0.61493185  0.74807468  0.81919250  1
  O  O52  1  0.61493164  0.18081005  0.92888080  1
  O  O53  1  0.61493117  0.07112088  0.25193027  1
  O  O54  1  0.25840001  0.00000030  0.00000012  1
  O  O55  1  0.74159999  0.00000030  0.00000012  1
  O  O56  1  0.24652784  0.33333637  0.66666866  1
  O  O57  1  0.75347216  0.33333637  0.66666866  1
  O  O58  1  0.24362704  0.66666309  0.33333193  1
  O  O59  1  0.75637296  0.66666309  0.33333193  1
  O  O60  1  0.30848885  0.32268841  0.32540894  1
  O  O61  1  0.30848816  0.67459279  0.99728235  1
  O  O62  1  0.30848668  0.00271839  0.67730821  1
  O  O63  1  0.69151115  0.32268841  0.32540894  1
  O  O64  1  0.69151184  0.67459279  0.99728235  1
  O  O65  1  0.69151332  0.00271839  0.67730821  1
  O  O66  1  0.19362666  0.99840463  0.34084385  1
  O  O67  1  0.19362602  0.65915768  0.65756149  1
  O  O68  1  0.19362573  0.34243762  0.00159442  1
  O  O69  1  0.80637334  0.99840463  0.34084385  1
  O  O70  1  0.80637398  0.65915768  0.65756149  1
  O  O71  1  0.80637427  0.34243762  0.00159442  1
loop_
_geom_bond_atom_site_label_1
_geom_bond_atom_site_label_2
_geom_bond_distance
_geom_bond_site_symmetry_2
C0 O6 1.289139 1_455
C0 O3 1.289139 1_555
C0 O0 1.303106 1_555
C1 O4 1.289144 1_555
C1 O7 1.289144 1_455
C1 O1 1.303102 1_555
C2 O8 1.289145 1_455
C2 O5 1.289145 1_555
C2 O2 1.303106 1_555
C3 O14 1.293315 1_555
C3 O17 1.293315 1_455
C3 O9 1.296931 1_555
C4 O15 1.293321 1_455
C4 O12 1.293321 1_555
C4 O10 1.296913 1_556
C5 O13 1.293320 1_555
C5 O16 1.293320 1_455
C5 O11 1.296924 1_545
C6 O24 1.288395 1_455
C6 O21 1.288395 1_555
C6 O18 1.295135 1_555
C7 O25 1.288389 1_455
C7 O22 1.288389 1_555
C7 O19 1.295144 1_555
C8 O23 1.288391 1_555
C8 O26 1.288391 1_455
C8 O20 1.295141 1_555
C9 O29 1.291875 1_555
C9 O33 1.294409 1_555
C9 O30 1.294409 1_555
C10 O27 1.291866 1_555
C10 O34 1.294414 1_555
C10 O31 1.294414 1_555
C11 O28 1.291871 1_555
C11 O35 1.294410 1_555
C11 O32 1.294410 1_555
C12 O42 1.293378 1_555
C12 O39 1.293378 1_555
C12 O38 1.299103 1_555
C13 O43 1.293374 1_555
C13 O40 1.293374 1_555
C13 O36 1.299107 1_555
C14 O44 1.293380 1_555
C14 O41 1.293380 1_555
C14 O37 1.299106 1_555
C15 O51 1.287282 1_555
C15 O48 1.287282 1_555
C15 O45 1.297310 1_555
C16 O49 1.287275 1_555
C16 O52 1.287275 1_555
C16 O46 1.297321 1_556
C17 O53 1.287273 1_555
C17 O50 1.287273 1_555
C17 O47 1.297322 1_545
O0 Sm9 2.573860 1_455
O0 Sm6 2.573860 1_555
O1 Sm10 2.573868 1_455
O1 Sm7 2.573868 1_555
O2 Sm8 2.573869 1_555
O2 Sm11 2.573869 1_455
O3 Sm6 2.485602 1_555
O3 Sm13 2.545129 1_555
O4 Sm7 2.485607 1_555
O4 Sm14 2.545139 1_556
O5 Sm8 2.485604 1_555
O5 Sm12 2.545155 1_545
O6 Sm9 2.485602 1_555
O6 Sm16 2.545129 1_555
O7 Sm10 2.485607 1_555
O7 Sm17 2.545139 1_556
O8 Sm11 2.485604 1_555
O8 Sm15 2.545155 1_545
O9 Sm3 2.522435 1_455
O9 Sm0 2.522435 1_555
O10 Sm4 2.522435 1_455
O10 Sm1 2.522435 1_555
O11 Sm5 2.522418 1_455
O11 Sm2 2.522418 1_555
O12 Sm0 2.501146 1_545
O12 Sm8 2.636998 1_555
O13 Sm1 2.501155 1_555
O13 Sm6 2.637000 1_555
O14 Sm2 2.501162 1_556
O14 Sm7 2.636978 1_555
O15 Sm3 2.501146 1_545
O15 Sm11 2.636998 1_555
O16 Sm4 2.501155 1_555
O16 Sm9 2.637000 1_555
O17 Sm5 2.501162 1_556
O17 Sm10 2.636978 1_555
O18 Sm12 2.587254 1_555
O18 Sm15 2.587254 1_455
O19 Sm16 2.587253 1_455
O19 Sm13 2.587253 1_555
O20 Sm17 2.587270 1_455
O20 Sm14 2.587270 1_555
O21 Sm0 2.435793 1_555
O21 Sm12 2.479092 1_555
O22 Sm1 2.435766 1_555
O22 Sm13 2.479100 1_555
O23 Sm2 2.435794 1_555
O23 Sm14 2.479102 1_555
O24 Sm3 2.435793 1_555
O24 Sm15 2.479092 1_555
O25 Sm4 2.435766 1_555
O25 Sm16 2.479100 1_555
O26 Sm5 2.435794 1_555
O26 Sm17 2.479102 1_555
O27 Sm9 2.570518 1_555
O27 Sm6 2.570518 1_555
O28 Sm10 2.570519 1_555
O28 Sm7 2.570519 1_555
O29 Sm8 2.570504 1_555
O29 Sm11 2.570504 1_555
O30 Sm6 2.497166 1_555
O30 Sm12 2.528435 1_545
O31 Sm7 2.497165 1_555
O31 Sm13 2.528430 1_555
O32 Sm8 2.497181 1_555
O32 Sm14 2.528409 1_556
O33 Sm9 2.497166 1_555
O33 Sm15 2.528435 1_545
O34 Sm10 2.497165 1_555
O34 Sm16 2.528430 1_555
O35 Sm11 2.497181 1_555
O35 Sm17 2.528409 1_556
O36 Sm15 2.563224 1_555
O36 Sm12 2.563224 1_555
O37 Sm13 2.563227 1_555
O37 Sm16 2.563227 1_555
O38 Sm14 2.563212 1_555
O38 Sm17 2.563212 1_555
O39 Sm12 2.486127 1_555
O39 Sm2 2.656889 1_555
O40 Sm13 2.486140 1_555
O40 Sm0 2.656923 1_555
O41 Sm14 2.486152 1_555
O41 Sm1 2.656895 1_555
O42 Sm15 2.486127 1_555
O42 Sm5 2.656889 1_555
O43 Sm16 2.486140 1_555
O43 Sm3 2.656923 1_555
O44 Sm17 2.486152 1_555
O44 Sm4 2.656895 1_555
O45 Sm3 2.602782 1_555
O45 Sm0 2.602782 1_555
O46 Sm1 2.602777 1_555
O46 Sm4 2.602777 1_555
O47 Sm5 2.602781 1_555
O47 Sm2 2.602781 1_555
O48 Sm7 2.441761 1_555
O48 Sm0 2.477551 1_555
O49 Sm8 2.441778 1_555
O49 Sm1 2.477560 1_556
O50 Sm6 2.441760 1_555
O50 Sm2 2.477553 1_545
O51 Sm10 2.441761 1_555
O51 Sm3 2.477551 1_555
O52 Sm11 2.441778 1_555
O52 Sm4 2.477560 1_556
O53 Sm9 2.441760 1_555
O53 Sm5 2.477553 1_545
O54 Sm1 2.471200 1_555
O54 Sm2 2.471228 1_545
O54 Sm0 2.471228 1_544
O55 Sm4 2.471200 1_555
O55 Sm5 2.471228 1_545
O55 Sm3 2.471228 1_544
O56 Sm8 2.455874 1_555
O56 Sm7 2.455882 1_555
O56 Sm6 2.455887 1_555
O57 Sm11 2.455874 1_555
O57 Sm10 2.455882 1_555
O57 Sm9 2.455887 1_555
O58 Sm14 2.468552 1_555
O58 Sm13 2.468555 1_555
O58 Sm12 2.468578 1_555
O59 Sm17 2.468552 1_555
O59 Sm16 2.468555 1_555
O59 Sm15 2.468578 1_555
O60 Sm1 2.395492 1_555
O60 Sm6 2.407046 1_555
O60 Sm13 2.443555 1_555
O61 Sm2 2.395492 1_556
O61 Sm7 2.407037 1_555
O61 Sm14 2.443551 1_556
O62 Sm0 2.395481 1_545
O62 Sm8 2.407040 1_555
O62 Sm12 2.443557 1_545
O63 Sm4 2.395492 1_555
O63 Sm9 2.407046 1_555
O63 Sm16 2.443555 1_555
O64 Sm5 2.395492 1_556
O64 Sm10 2.407037 1_555
O64 Sm17 2.443551 1_556
O65 Sm3 2.395481 1_545
O65 Sm11 2.407040 1_555
O65 Sm15 2.443557 1_545
O66 Sm12 2.391158 1_555
O66 Sm6 2.412794 1_565
O66 Sm2 2.427575 1_555
O67 Sm13 2.391173 1_555
O67 Sm7 2.412795 1_555
O67 Sm0 2.427594 1_555
O68 Sm14 2.391187 1_555
O68 Sm8 2.412811 1_554
O68 Sm1 2.427610 1_555
O69 Sm15 2.391158 1_555
O69 Sm9 2.412794 1_565
O69 Sm5 2.427575 1_555
O70 Sm16 2.391173 1_555
O70 Sm10 2.412795 1_555
O70 Sm3 2.427594 1_555
O71 Sm17 2.391187 1_555
O71 Sm11 2.412811 1_554
O71 Sm4 2.427610 1_555
