# generated using pymatgen
data_U2P2H2CO14
_symmetry_space_group_name_H-M   'P 1'
_cell_length_a   14.73927200
_cell_length_b   8.69095700
_cell_length_c   10.69938045
_cell_angle_alpha   82.25237473
_cell_angle_beta   90.00000000
_cell_angle_gamma   90.00000000
_symmetry_Int_Tables_number   1
_chemical_formula_structural   U2P2H2CO14
_chemical_formula_sum   'U8 P8 H8 C4 O56'
_cell_volume   1358.06199546
_cell_formula_units_Z   4
loop_
 _symmetry_equiv_pos_site_id
 _symmetry_equiv_pos_as_xyz
  1  'x, y, z'
loop_
 _atom_site_type_symbol
 _atom_site_label
 _atom_site_symmetry_multiplicity
 _atom_site_fract_x
 _atom_site_fract_y
 _atom_site_fract_z
 _atom_site_occupancy
  U  U0  1  0.24082800  0.00037900  0.56822000  1
  U  U1  1  0.74082800  0.99962100  0.93178000  1
  U  U2  1  0.75917200  0.99962100  0.43178000  1
  U  U3  1  0.25917200  0.00037900  0.06822000  1
  U  U4  1  0.50049400  0.51791400  0.25426700  1
  U  U5  1  0.00049400  0.48208600  0.24573300  1
  U  U6  1  0.49950600  0.48208600  0.74573300  1
  U  U7  1  0.99950600  0.51791400  0.75426700  1
  P  P0  1  0.35365500  0.65407900  0.49197200  1
  P  P1  1  0.85365500  0.34592100  0.00802800  1
  P  P2  1  0.64634500  0.34592100  0.50802800  1
  P  P3  1  0.14634500  0.65407900  0.99197200  1
  P  P4  1  0.14165300  0.65059500  0.48379500  1
  P  P5  1  0.64165300  0.34940500  0.01620500  1
  P  P6  1  0.85834700  0.34940500  0.51620500  1
  P  P7  1  0.35834700  0.65059500  0.98379500  1
  H  H0  1  0.25101900  0.62681700  0.32682200  1
  H  H1  1  0.75101900  0.37318300  0.17317800  1
  H  H2  1  0.74898100  0.37318300  0.67317800  1
  H  H3  1  0.24898100  0.62681700  0.82682200  1
  H  H4  1  0.25012000  0.45660600  0.44010700  1
  H  H5  1  0.75012000  0.54339400  0.05989300  1
  H  H6  1  0.74988000  0.54339400  0.55989300  1
  H  H7  1  0.24988000  0.45660600  0.94010700  1
  C  C0  1  0.24907200  0.58410000  0.42838100  1
  C  C1  1  0.74907200  0.41590000  0.07161900  1
  C  C2  1  0.75092800  0.41590000  0.57161900  1
  C  C3  1  0.25092800  0.58410000  0.92838100  1
  O  O0  1  0.44336600  0.34857000  0.33449100  1
  O  O1  1  0.94336600  0.65143000  0.16550900  1
  O  O2  1  0.55663400  0.65143000  0.66550900  1
  O  O3  1  0.05663400  0.34857000  0.83449100  1
  O  O4  1  0.22741500  0.22893800  0.65629400  1
  O  O5  1  0.72741500  0.77106200  0.84370600  1
  O  O6  1  0.77258500  0.77106200  0.34370600  1
  O  O7  1  0.27258500  0.22893800  0.15629400  1
  O  O8  1  0.42774400  0.65281300  0.39061600  1
  O  O9  1  0.92774400  0.34718700  0.10938400  1
  O  O10  1  0.57225600  0.34718700  0.60938400  1
  O  O11  1  0.07225600  0.65281300  0.89061600  1
  O  O12  1  0.22646400  0.88102400  0.72014400  1
  O  O13  1  0.72646400  0.11897600  0.77985600  1
  O  O14  1  0.77353600  0.11897600  0.27985600  1
  O  O15  1  0.27353600  0.88102400  0.22014400  1
  O  O16  1  0.14619700  0.82915600  0.48336100  1
  O  O17  1  0.64619700  0.17084400  0.01663900  1
  O  O18  1  0.85380300  0.17084400  0.51663900  1
  O  O19  1  0.35380300  0.82915600  0.98336100  1
  O  O20  1  0.37879200  0.54827000  0.61440100  1
  O  O21  1  0.87879200  0.45173000  0.88559900  1
  O  O22  1  0.62120800  0.45173000  0.38559900  1
  O  O23  1  0.12120800  0.54827000  0.11440100  1
  O  O24  1  0.55311100  0.69108500  0.17326800  1
  O  O25  1  0.05311100  0.30891500  0.32673200  1
  O  O26  1  0.44688900  0.30891500  0.82673200  1
  O  O27  1  0.94688900  0.69108500  0.67326800  1
  O  O28  1  0.23958000  0.13585900  0.42183000  1
  O  O29  1  0.73958000  0.86414100  0.07817000  1
  O  O30  1  0.76042000  0.86414100  0.57817000  1
  O  O31  1  0.26042000  0.13585900  0.92183000  1
  O  O32  1  0.06102100  0.07555600  0.65032500  1
  O  O33  1  0.56102100  0.92444400  0.84967500  1
  O  O34  1  0.93897900  0.92444400  0.34967500  1
  O  O35  1  0.43897900  0.07555600  0.15032500  1
  O  O36  1  0.35518500  0.13226800  0.61507700  1
  O  O37  1  0.85518500  0.86773200  0.88492300  1
  O  O38  1  0.64481500  0.86773200  0.38492300  1
  O  O39  1  0.14481500  0.13226800  0.11507700  1
  O  O40  1  0.33801600  0.82375400  0.51527500  1
  O  O41  1  0.83801600  0.17624600  0.98472500  1
  O  O42  1  0.66198400  0.17624600  0.48472500  1
  O  O43  1  0.16198400  0.82375400  0.01527500  1
  O  O44  1  0.11982300  0.56269100  0.61496400  1
  O  O45  1  0.61982300  0.43730900  0.88503600  1
  O  O46  1  0.88017700  0.43730900  0.38503600  1
  O  O47  1  0.38017700  0.56269100  0.11496400  1
  O  O48  1  0.06921800  0.61765100  0.38571500  1
  O  O49  1  0.56921800  0.38234900  0.11428500  1
  O  O50  1  0.93078200  0.38234900  0.61428500  1
  O  O51  1  0.43078200  0.61765100  0.88571500  1
  O  O52  1  0.54391300  0.95320700  0.73637500  1
  O  O53  1  0.04391300  0.04679300  0.76362500  1
  O  O54  1  0.45608700  0.04679300  0.26362500  1
  O  O55  1  0.95608700  0.95320700  0.23637500  1
loop_
_geom_bond_atom_site_label_1
_geom_bond_atom_site_label_2
_geom_bond_distance
_geom_bond_site_symmetry_2
C0 H4 1.098299 1_555
C0 H0 1.100284 1_555
C0 P4 1.812360 1_555
C0 P0 1.822233 1_555
C1 H5 1.098299 1_555
C1 H1 1.100284 1_555
C1 P5 1.812360 1_555
C1 P1 1.822233 1_555
C2 H6 1.098299 1_555
C2 H2 1.100284 1_555
C2 P6 1.812360 1_555
C2 P2 1.822233 1_555
C3 H7 1.098299 1_555
C3 H3 1.100284 1_555
C3 P7 1.812360 1_555
C3 P3 1.822233 1_555
O0 U4 1.808658 1_555
O1 U5 1.808658 1_655
O2 U6 1.808658 1_555
O3 U7 1.808658 1_455
O4 U0 2.318953 1_555
O5 U1 2.318953 1_555
O6 U2 2.318953 1_555
O7 U3 2.318953 1_555
O8 P0 1.540086 1_555
O8 U4 2.261350 1_555
O9 P1 1.540086 1_555
O9 U5 2.261350 1_655
O10 P2 1.540086 1_555
O10 U6 2.261350 1_555
O11 P3 1.540086 1_555
O11 U7 2.261350 1_455
O12 U0 1.818913 1_565
O13 U1 1.818913 1_545
O14 U2 1.818913 1_545
O15 U3 1.818913 1_565
O16 P4 1.552692 1_555
O16 U0 2.312682 1_565
O17 P5 1.552692 1_555
O17 U1 2.312682 1_544
O18 P6 1.552692 1_555
O18 U2 2.312682 1_545
O19 P7 1.552692 1_555
O19 U3 2.312682 1_566
O20 P0 1.540779 1_555
O20 U6 2.291969 1_555
O21 P1 1.540779 1_556
O21 U7 2.291969 1_555
O22 P2 1.540779 1_555
O22 U4 2.291969 1_555
O23 P3 1.540779 1_554
O23 U5 2.291969 1_555
O24 U4 1.807192 1_555
O25 U5 1.807192 1_555
O26 U6 1.807192 1_555
O27 U7 1.807192 1_555
O28 U0 1.828314 1_555
O29 U1 1.828314 1_554
O30 U2 1.828314 1_555
O31 U3 1.828314 1_556
O32 O53 1.230404 1_555
O32 U0 2.894310 1_555
O33 O52 1.230404 1_555
O33 U1 2.894310 1_555
O34 O55 1.230404 1_555
O34 U2 2.894310 1_555
O35 O54 1.230404 1_555
O35 U3 2.894310 1_555
O36 U0 2.135695 1_555
O37 U1 2.135695 1_555
O38 U2 2.135695 1_555
O39 U3 2.135695 1_555
O40 P0 1.545635 1_555
O40 U0 2.227936 1_565
O41 P1 1.545635 1_556
O41 U1 2.227936 1_545
O42 P2 1.545635 1_555
O42 U2 2.227936 1_545
O43 P3 1.545635 1_554
O43 U3 2.227936 1_565
O44 P4 1.538735 1_555
O44 U7 2.315472 1_455
O45 P5 1.538735 1_556
O45 U6 2.315472 1_555
O46 P6 1.538735 1_555
O46 U5 2.315472 1_655
O47 P7 1.538735 1_554
O47 U4 2.315472 1_555
O48 P4 1.550506 1_555
O48 U5 2.265639 1_555
O49 P5 1.550506 1_555
O49 U4 2.265639 1_555
O50 P6 1.550506 1_555
O50 U7 2.265639 1_555
O51 P7 1.550506 1_555
O51 U6 2.265639 1_555
