# generated using pymatgen
data_TbSnPt2
_symmetry_space_group_name_H-M   'P 1'
_cell_length_a   4.84506219
_cell_length_b   4.84506219
_cell_length_c   8.31304400
_cell_angle_alpha   90.00000000
_cell_angle_beta   90.00000000
_cell_angle_gamma   120.00000266
_symmetry_Int_Tables_number   1
_chemical_formula_structural   TbSnPt2
_chemical_formula_sum   'Tb2 Sn2 Pt4'
_cell_volume   169.00105353
_cell_formula_units_Z   2
loop_
 _symmetry_equiv_pos_site_id
 _symmetry_equiv_pos_as_xyz
  1  'x, y, z'
loop_
 _atom_site_type_symbol
 _atom_site_label
 _atom_site_symmetry_multiplicity
 _atom_site_fract_x
 _atom_site_fract_y
 _atom_site_fract_z
 _atom_site_occupancy
  Tb  Tb0  1  0.00000000  0.00000000  0.00000000  1
  Tb  Tb1  1  0.00000000  0.00000000  0.50000000  1
  Sn  Sn0  1  0.66666700  0.33333300  0.75000000  1
  Sn  Sn1  1  0.33333300  0.66666700  0.25000000  1
  Pt  Pt0  1  0.66666700  0.33333300  0.41236100  1
  Pt  Pt1  1  0.33333300  0.66666700  0.58763900  1
  Pt  Pt2  1  0.33333300  0.66666700  0.91236100  1
  Pt  Pt3  1  0.66666700  0.33333300  0.08763900  1
loop_
_geom_bond_atom_site_label_1
_geom_bond_atom_site_label_2
_geom_bond_distance
_geom_bond_site_symmetry_2
Sn0 Tb0 3.484828 1_656
Sn0 Tb1 3.484828 1_655
Sn0 Tb0 3.484832 1_666
Sn0 Tb1 3.484832 1_555
Sn0 Tb1 3.484832 1_665
Sn0 Tb0 3.484832 1_556
Sn1 Tb0 3.484828 1_565
Sn1 Tb1 3.484828 1_565
Sn1 Tb0 3.484832 1_665
Sn1 Tb1 3.484832 1_555
Sn1 Tb1 3.484832 1_665
Sn1 Tb0 3.484832 1_555
Pt0 Pt3 2.699428 1_555
Pt0 Sn0 2.806808 1_555
Pt0 Tb1 2.890613 1_655
Pt0 Tb1 2.890617 1_555
Pt0 Tb1 2.890617 1_665
Pt0 Sn1 3.105896 1_545
Pt0 Sn1 3.105896 1_655
Pt0 Sn1 3.105903 1_555
Pt0 Pt1 3.154042 1_545
Pt0 Pt1 3.154042 1_655
Pt0 Pt1 3.154050 1_555
Pt1 Pt2 2.699428 1_555
Pt1 Sn1 2.806808 1_555
Pt1 Tb1 2.890613 1_565
Pt1 Tb1 2.890617 1_555
Pt1 Tb1 2.890617 1_665
Pt1 Sn0 3.105896 1_455
Pt1 Sn0 3.105896 1_565
Pt1 Sn0 3.105903 1_555
Pt2 Sn1 2.806808 1_556
Pt2 Tb0 2.890613 1_566
Pt2 Tb0 2.890617 1_556
Pt2 Tb0 2.890617 1_666
Pt2 Sn0 3.105896 1_455
Pt2 Sn0 3.105896 1_565
Pt2 Sn0 3.105903 1_555
Pt2 Pt3 3.154042 1_456
Pt2 Pt3 3.154042 1_566
Pt2 Pt3 3.154050 1_556
Pt3 Sn0 2.806808 1_554
Pt3 Tb0 2.890613 1_655
Pt3 Tb0 2.890617 1_665
Pt3 Tb0 2.890617 1_555
Pt3 Sn1 3.105896 1_545
Pt3 Sn1 3.105896 1_655
Pt3 Sn1 3.105903 1_555
