# generated using pymatgen
data_CeAl2Ag3
_symmetry_space_group_name_H-M   'P 1'
_cell_length_a   5.56980879
_cell_length_b   5.56980879
_cell_length_c   4.50082513
_cell_angle_alpha   90.00000000
_cell_angle_beta   90.00000000
_cell_angle_gamma   121.53179334
_symmetry_Int_Tables_number   1
_chemical_formula_structural   CeAl2Ag3
_chemical_formula_sum   'Ce1 Al2 Ag3'
_cell_volume   119.01199316
_cell_formula_units_Z   1
loop_
 _symmetry_equiv_pos_site_id
 _symmetry_equiv_pos_as_xyz
  1  'x, y, z'
loop_
 _atom_site_type_symbol
 _atom_site_label
 _atom_site_symmetry_multiplicity
 _atom_site_fract_x
 _atom_site_fract_y
 _atom_site_fract_z
 _atom_site_occupancy
  Ce  Ce0  1  0.50000000  0.50000000  -0.00000000  1
  Al  Al0  1  0.00000000  0.50000000  0.50000000  1
  Al  Al1  1  0.50000000  -0.00000000  0.50000000  1
  Ag  Ag0  1  0.17686328  0.82313672  -0.00000000  1
  Ag  Ag1  1  0.82313672  0.17686328  0.00000000  1
  Ag  Ag2  1  0.00000000  -0.00000000  0.50000000  1
loop_
_geom_bond_atom_site_label_1
_geom_bond_atom_site_label_2
_geom_bond_distance
_geom_bond_site_symmetry_2
Al0 Al1 2.720178 1_565
Al0 Al1 2.720178 1_455
Al0 Ce0 3.580510 1_456
Al0 Ce0 3.580510 1_455
Al0 Ce0 3.580510 1_556
Al0 Ce0 3.580510 1_555
Al1 Ce0 3.580510 1_546
Al1 Ce0 3.580510 1_556
Al1 Ce0 3.580510 1_555
Al1 Ce0 3.580510 1_545
Ag0 Al1 2.723902 1_565
Ag0 Al1 2.723902 1_564
Ag0 Al0 2.723902 1_554
Ag0 Al0 2.723902 1_555
Ag0 Ag2 2.831991 1_565
Ag0 Ag2 2.831991 1_564
Ag0 Ag1 3.069389 1_455
Ag0 Ag1 3.069389 1_565
Ag0 Ce0 3.141142 1_555
Ag0 Ce0 3.217948 1_565
Ag0 Ce0 3.217948 1_455
Ag0 Ag1 3.438499 1_465
Ag1 Al0 2.723902 1_654
Ag1 Al0 2.723902 1_655
Ag1 Al1 2.723902 1_555
Ag1 Al1 2.723902 1_554
Ag1 Ag2 2.831991 1_654
Ag1 Ag2 2.831991 1_655
Ag1 Ce0 3.141142 1_555
Ag1 Ce0 3.217948 1_655
Ag1 Ce0 3.217948 1_545
Ag2 Al0 2.784904 1_545
Ag2 Al0 2.784904 1_555
Ag2 Al1 2.784904 1_555
Ag2 Al1 2.784904 1_455
Ag2 Ce0 3.530400 1_445
Ag2 Ce0 3.530400 1_446
Ag2 Ce0 3.530400 1_556
Ag2 Ce0 3.530400 1_555
