# generated using pymatgen
data_NpCrH8C2(NO2)4
_symmetry_space_group_name_H-M   'P 1'
_cell_length_a   13.16795500
_cell_length_b   7.23013200
_cell_length_c   13.25716424
_cell_angle_alpha   59.52058540
_cell_angle_beta   90.00000000
_cell_angle_gamma   90.00000000
_symmetry_Int_Tables_number   1
_chemical_formula_structural   NpCrH8C2(NO2)4
_chemical_formula_sum   'Np4 Cr4 H32 C8 N16 O32'
_cell_volume   1087.74590973
_cell_formula_units_Z   4
loop_
 _symmetry_equiv_pos_site_id
 _symmetry_equiv_pos_as_xyz
  1  'x, y, z'
loop_
 _atom_site_type_symbol
 _atom_site_label
 _atom_site_symmetry_multiplicity
 _atom_site_fract_x
 _atom_site_fract_y
 _atom_site_fract_z
 _atom_site_occupancy
  Np  Np0  1  0.57415500  0.06222900  0.19996900  1
  Np  Np1  1  0.92584500  0.06222900  0.69996900  1
  Np  Np2  1  0.42584500  0.93777100  0.80003100  1
  Np  Np3  1  0.07415500  0.93777100  0.30003100  1
  Cr  Cr0  1  0.51055600  0.62841200  0.12893000  1
  Cr  Cr1  1  0.98944400  0.62841200  0.62893000  1
  Cr  Cr2  1  0.48944400  0.37158800  0.87107000  1
  Cr  Cr3  1  0.01055600  0.37158800  0.37107000  1
  H  H0  1  0.57974200  0.82017800  0.58662000  1
  H  H1  1  0.92025800  0.82017800  0.08662000  1
  H  H2  1  0.42025800  0.17982200  0.41338000  1
  H  H3  1  0.07974200  0.17982200  0.91338000  1
  H  H4  1  0.70744500  0.84848800  0.61198500  1
  H  H5  1  0.79255500  0.84848800  0.11198500  1
  H  H6  1  0.29255500  0.15151200  0.38801500  1
  H  H7  1  0.20744500  0.15151200  0.88801500  1
  H  H8  1  0.76890400  0.22546600  0.32196400  1
  H  H9  1  0.73109600  0.22546600  0.82196400  1
  H  H10  1  0.23109600  0.77453400  0.67803600  1
  H  H11  1  0.26890400  0.77453400  0.17803600  1
  H  H12  1  0.81337800  0.07452700  0.46471700  1
  H  H13  1  0.68662200  0.07452700  0.96471700  1
  H  H14  1  0.18662200  0.92547300  0.53528300  1
  H  H15  1  0.31337800  0.92547300  0.03528300  1
  H  H16  1  0.77884800  0.74917400  0.33762000  1
  H  H17  1  0.72115200  0.74917400  0.83762000  1
  H  H18  1  0.22115200  0.25082600  0.66238000  1
  H  H19  1  0.27884800  0.25082600  0.16238000  1
  H  H20  1  0.80831100  0.50812700  0.46374100  1
  H  H21  1  0.69168900  0.50812700  0.96374100  1
  H  H22  1  0.19168900  0.49187300  0.53625900  1
  H  H23  1  0.30831100  0.49187300  0.03625900  1
  H  H24  1  0.55605600  0.35903200  0.55982500  1
  H  H25  1  0.94394400  0.35903200  0.05982500  1
  H  H26  1  0.44394400  0.64096800  0.44017500  1
  H  H27  1  0.05605600  0.64096800  0.94017500  1
  H  H28  1  0.68468800  0.29036400  0.58762900  1
  H  H29  1  0.81531200  0.29036400  0.08762900  1
  H  H30  1  0.31531200  0.70963600  0.41237100  1
  H  H31  1  0.18468800  0.70963600  0.91237100  1
  C  C0  1  0.66148400  0.03615600  0.44230400  1
  C  C1  1  0.83851600  0.03615600  0.94230400  1
  C  C2  1  0.33851600  0.96384400  0.55769600  1
  C  C3  1  0.16148400  0.96384400  0.05769600  1
  C  C4  1  0.65558700  0.57556700  0.43651000  1
  C  C5  1  0.84441300  0.57556700  0.93651000  1
  C  C6  1  0.34441300  0.42443300  0.56349000  1
  C  C7  1  0.15558700  0.42443300  0.06349000  1
  N  N0  1  0.64841000  0.89009000  0.55556100  1
  N  N1  1  0.85159000  0.89009000  0.05556100  1
  N  N2  1  0.35159000  0.10991000  0.44443900  1
  N  N3  1  0.14841000  0.10991000  0.94443900  1
  N  N4  1  0.75445800  0.12123300  0.40744000  1
  N  N5  1  0.74554200  0.12123300  0.90744000  1
  N  N6  1  0.24554200  0.87876700  0.59256000  1
  N  N7  1  0.25445800  0.87876700  0.09256000  1
  N  N8  1  0.75495600  0.61324700  0.40969800  1
  N  N9  1  0.74504400  0.61324700  0.90969800  1
  N  N10  1  0.24504400  0.38675300  0.59030200  1
  N  N11  1  0.25495600  0.38675300  0.09030200  1
  N  N12  1  0.63019100  0.39363800  0.53452900  1
  N  N13  1  0.86980900  0.39363800  0.03452900  1
  N  N14  1  0.36980900  0.60636200  0.46547100  1
  N  N15  1  0.13019100  0.60636200  0.96547100  1
  O  O0  1  0.43867800  0.04930100  0.21443500  1
  O  O1  1  0.06132200  0.04930100  0.71443500  1
  O  O2  1  0.56132200  0.95069900  0.78556500  1
  O  O3  1  0.93867800  0.95069900  0.28556500  1
  O  O4  1  0.71154300  0.06993600  0.18910500  1
  O  O5  1  0.78845700  0.06993600  0.68910500  1
  O  O6  1  0.28845700  0.93006400  0.81089500  1
  O  O7  1  0.21154300  0.93006400  0.31089500  1
  O  O8  1  0.43239600  0.52911900  0.23765000  1
  O  O9  1  0.06760400  0.52911900  0.73765000  1
  O  O10  1  0.56760400  0.47088100  0.76235000  1
  O  O11  1  0.93239600  0.47088100  0.26235000  1
  O  O12  1  0.55858400  0.25298200  0.99638200  1
  O  O13  1  0.94141600  0.25298200  0.49638200  1
  O  O14  1  0.44141600  0.74701800  0.00361800  1
  O  O15  1  0.05858400  0.74701800  0.50361800  1
  O  O16  1  0.58571100  0.81146300  0.13475800  1
  O  O17  1  0.91428900  0.81146300  0.63475800  1
  O  O18  1  0.41428900  0.18853700  0.86524200  1
  O  O19  1  0.08571100  0.18853700  0.36524200  1
  O  O20  1  0.58267800  0.43118700  0.13440000  1
  O  O21  1  0.91732200  0.43118700  0.63440000  1
  O  O22  1  0.41732200  0.56881300  0.86560000  1
  O  O23  1  0.08267800  0.56881300  0.36560000  1
  O  O24  1  0.58575700  0.70650500  0.37190900  1
  O  O25  1  0.91424300  0.70650500  0.87190900  1
  O  O26  1  0.41424300  0.29349500  0.62809100  1
  O  O27  1  0.08575700  0.29349500  0.12809100  1
  O  O28  1  0.58668400  0.09203100  0.37020900  1
  O  O29  1  0.91331600  0.09203100  0.87020900  1
  O  O30  1  0.41331600  0.90796900  0.62979100  1
  O  O31  1  0.08668400  0.90796900  0.12979100  1
loop_
_geom_bond_atom_site_label_1
_geom_bond_atom_site_label_2
_geom_bond_distance
_geom_bond_site_symmetry_2
Np0 O0 1.791599 1_555
Np0 O4 1.813455 1_555
Np0 O12 2.335059 1_554
Np0 O20 2.352021 1_555
Np0 O16 2.376521 1_545
Np0 O28 2.379196 1_555
Np0 O24 2.426250 1_545
Np1 O1 1.791599 1_655
Np1 O5 1.813455 1_555
Np1 O13 2.335059 1_555
Np1 O21 2.352021 1_555
Np1 O17 2.376521 1_545
Np1 O29 2.379196 1_555
Np1 O25 2.426250 1_545
Np2 O2 1.791599 1_555
Np2 O6 1.813455 1_555
Np2 O14 2.335059 1_556
Np2 O22 2.352021 1_555
Np2 O18 2.376521 1_565
Np2 O30 2.379196 1_555
Np2 O26 2.426250 1_565
Np3 O3 1.791599 1_455
Np3 O7 1.813455 1_555
Np3 O15 2.335059 1_555
Np3 O23 2.352021 1_555
Np3 O19 2.376521 1_565
Np3 O31 2.379196 1_555
Np3 O27 2.426250 1_565
Cr0 O8 1.613185 1_555
Cr0 O20 1.683941 1_555
Cr0 O16 1.685436 1_555
Cr0 O14 1.696734 1_555
Cr1 O9 1.613185 1_655
Cr1 O21 1.683941 1_555
Cr1 O17 1.685436 1_555
Cr1 O15 1.696734 1_655
Cr2 O10 1.613185 1_555
Cr2 O22 1.683941 1_555
Cr2 O18 1.685436 1_555
Cr2 O12 1.696734 1_555
Cr3 O11 1.613185 1_455
Cr3 O23 1.683941 1_555
Cr3 O19 1.685436 1_555
Cr3 O13 1.696734 1_455
H0 N0 1.015634 1_555
H1 N1 1.015634 1_555
H2 N2 1.015634 1_555
H3 N3 1.015634 1_555
H4 N0 1.012949 1_555
H5 N1 1.012949 1_555
H6 N2 1.012949 1_555
H7 N3 1.012949 1_555
H8 N4 1.010878 1_555
H9 N5 1.010878 1_555
H10 N6 1.010878 1_555
H11 N7 1.010878 1_555
H12 N4 1.016093 1_555
H13 N5 1.016093 1_555
H14 N6 1.016093 1_555
H15 N7 1.016093 1_555
H16 N8 1.012536 1_555
H17 N9 1.012536 1_555
H18 N10 1.012536 1_555
H19 N11 1.012536 1_555
H20 N8 1.015957 1_555
H21 N9 1.015957 1_555
H22 N10 1.015957 1_555
H23 N11 1.015957 1_555
H24 N12 1.021236 1_555
H25 N13 1.021236 1_555
H26 N14 1.021236 1_555
H27 N15 1.021236 1_555
H28 N12 1.017265 1_555
H29 N13 1.017265 1_555
H30 N14 1.017265 1_555
H31 N15 1.017265 1_555
C0 O28 1.286531 1_555
C0 N0 1.338189 1_545
C0 N4 1.342548 1_555
C1 O29 1.286531 1_555
C1 N1 1.338189 1_546
C1 N5 1.342548 1_555
C2 O30 1.286531 1_555
C2 N2 1.338189 1_565
C2 N6 1.342548 1_555
C3 O31 1.286531 1_555
C3 N3 1.338189 1_564
C3 N7 1.342548 1_555
C4 O24 1.285581 1_555
C4 N12 1.340387 1_555
C4 N8 1.347021 1_555
C5 O25 1.285581 1_555
C5 N13 1.340387 1_556
C5 N9 1.347021 1_555
C6 O26 1.285581 1_555
C6 N14 1.340387 1_555
C6 N10 1.347021 1_555
C7 O27 1.285581 1_555
C7 N15 1.340387 1_554
C7 N11 1.347021 1_555
