# generated using pymatgen
data_La4CeZr3O14
_symmetry_space_group_name_H-M   'P 1'
_cell_length_a   7.61649562
_cell_length_b   7.61649562
_cell_length_c   7.61649544
_cell_angle_alpha   60.80876742
_cell_angle_beta   60.80876742
_cell_angle_gamma   60.80875774
_symmetry_Int_Tables_number   1
_chemical_formula_structural   La4CeZr3O14
_chemical_formula_sum   'La4 Ce1 Zr3 O14'
_cell_volume   318.12738377
_cell_formula_units_Z   1
loop_
 _symmetry_equiv_pos_site_id
 _symmetry_equiv_pos_as_xyz
  1  'x, y, z'
loop_
 _atom_site_type_symbol
 _atom_site_label
 _atom_site_symmetry_multiplicity
 _atom_site_fract_x
 _atom_site_fract_y
 _atom_site_fract_z
 _atom_site_occupancy
  La  La0  1  0.50000000  0.50000000  0.50000000  1
  La  La1  1  0.00000000  0.50000000  0.50000000  1
  La  La2  1  0.50000000  0.50000000  0.00000000  1
  La  La3  1  0.50000000  0.00000000  0.50000000  1
  Ce  Ce0  1  0.00000000  0.00000000  0.00000000  1
  Zr  Zr0  1  0.50000000  0.00000000  0.00000000  1
  Zr  Zr1  1  0.00000000  0.00000000  0.50000000  1
  Zr  Zr2  1  0.00000000  0.50000000  0.00000000  1
  O  O0  1  0.88005300  0.36821500  0.36821500  1
  O  O1  1  0.37841300  0.87911500  0.87911500  1
  O  O2  1  0.36821500  0.36821500  0.88005300  1
  O  O3  1  0.87911500  0.87911500  0.37841300  1
  O  O4  1  0.87911500  0.37841300  0.87911500  1
  O  O5  1  0.36821500  0.88005300  0.36821500  1
  O  O6  1  0.11994700  0.63178500  0.63178500  1
  O  O7  1  0.62158700  0.12088500  0.12088500  1
  O  O8  1  0.63178500  0.63178500  0.11994700  1
  O  O9  1  0.12088500  0.12088500  0.62158700  1
  O  O10  1  0.12088500  0.62158700  0.12088500  1
  O  O11  1  0.63178500  0.11994700  0.63178500  1
  O  O12  1  0.12900800  0.12900800  0.12900800  1
  O  O13  1  0.87099200  0.87099200  0.87099200  1
loop_
_geom_bond_atom_site_label_1
_geom_bond_atom_site_label_2
_geom_bond_distance
_geom_bond_site_symmetry_2
La0 O11 2.389252 1_555
La0 O0 2.389252 1_555
La0 O6 2.389252 1_555
La0 O5 2.389252 1_555
La0 O2 2.389252 1_555
La0 O8 2.389252 1_555
La1 O0 2.370935 1_455
La1 O6 2.370935 1_555
La1 O3 2.381830 1_455
La1 O9 2.381830 1_555
La1 O10 2.381830 1_555
La1 O4 2.381830 1_455
La2 O2 2.370935 1_554
La2 O8 2.370935 1_555
La2 O7 2.381830 1_555
La2 O10 2.381830 1_555
La2 O4 2.381830 1_554
La2 O1 2.381830 1_554
La3 O5 2.370935 1_545
La3 O11 2.370935 1_555
La3 O3 2.381830 1_545
La3 O9 2.381830 1_555
La3 O1 2.381830 1_545
La3 O7 2.381830 1_555
Ce0 O10 2.377447 1_545
Ce0 O7 2.377447 1_455
Ce0 O1 2.377447 1_544
Ce0 O4 2.377447 1_454
Ce0 O9 2.377447 1_554
Ce0 O3 2.377447 1_445
Ce0 O12 2.392025 1_555
Ce0 O13 2.392025 1_444
O0 Zr1 2.314461 1_655
O0 Zr2 2.314461 1_655
O1 Zr0 2.245752 1_566
O2 Zr0 2.314461 1_556
O2 Zr2 2.314461 1_556
O3 Zr1 2.245752 1_665
O4 Zr2 2.245752 1_656
O5 Zr1 2.314461 1_565
O5 Zr0 2.314461 1_565
O6 Zr1 2.314461 1_565
O6 Zr2 2.314461 1_556
O7 Zr0 2.245752 1_555
O8 Zr2 2.314461 1_655
O8 Zr0 2.314461 1_565
O9 Zr1 2.245752 1_555
O10 Zr2 2.245752 1_555
O11 Zr1 2.314461 1_655
O11 Zr0 2.314461 1_556
O12 Zr2 2.332484 1_555
O12 Zr0 2.332484 1_555
O12 Zr1 2.332484 1_555
O13 Zr2 2.332484 1_656
O13 Zr0 2.332484 1_566
O13 Zr1 2.332484 1_665
