# generated using pymatgen
data_CeNb3O9
_symmetry_space_group_name_H-M   'P 1'
_cell_length_a   5.60097828
_cell_length_b   13.74633437
_cell_length_c   9.76259680
_cell_angle_alpha   89.66075600
_cell_angle_beta   89.83023929
_cell_angle_gamma   90.16621529
_symmetry_Int_Tables_number   1
_chemical_formula_structural   CeNb3O9
_chemical_formula_sum   'Ce4 Nb12 O36'
_cell_volume   751.63116018
_cell_formula_units_Z   4
loop_
 _symmetry_equiv_pos_site_id
 _symmetry_equiv_pos_as_xyz
  1  'x, y, z'
loop_
 _atom_site_type_symbol
 _atom_site_label
 _atom_site_symmetry_multiplicity
 _atom_site_fract_x
 _atom_site_fract_y
 _atom_site_fract_z
 _atom_site_occupancy
  Ce  Ce0  1  0.76326904  0.91152925  0.08824210  1
  Ce  Ce1  1  0.75929742  0.25153747  0.74998012  1
  Ce  Ce2  1  0.23673096  0.75513775  0.24509090  1
  Ce  Ce3  1  0.24070258  0.41512853  0.58335388  1
  Nb  Nb0  1  0.25128737  0.82868973  0.90118347  1
  Nb  Nb1  1  0.24866817  0.15847886  0.58321517  1
  Nb  Nb2  1  0.25376974  0.49959878  0.24738731  1
  Nb  Nb3  1  0.25030087  0.66728425  0.57852078  1
  Nb  Nb4  1  0.24934602  0.00781180  0.25458256  1
  Nb  Nb5  1  0.24904805  0.33504109  0.93105581  1
  Nb  Nb6  1  0.75133183  0.50818714  0.75011883  1
  Nb  Nb7  1  0.74871263  0.83797727  0.43214953  1
  Nb  Nb8  1  0.74623026  0.16706822  0.08594569  1
  Nb  Nb9  1  0.75065398  0.65885520  0.07875044  1
  Nb  Nb10  1  0.74969913  0.99938175  0.75481322  1
  Nb  Nb11  1  0.75095195  0.33162591  0.40227719  1
  O  O0  1  0.20808320  0.57207606  0.42865854  1
  O  O1  1  0.17586325  0.89936654  0.10079201  1
  O  O2  1  0.18140911  0.24899504  0.75010605  1
  O  O3  1  0.81859089  0.41767096  0.58322795  1
  O  O4  1  0.82413675  0.76730046  0.23254099  1
  O  O5  1  0.79191680  0.09459094  0.90467446  1
  O  O6  1  0.00618301  0.58907634  0.17237264  1
  O  O7  1  0.99587782  0.91660965  0.84178013  1
  O  O8  1  0.99838629  0.25414682  0.50651263  1
  O  O9  1  0.00161371  0.41252018  0.82682037  1
  O  O10  1  0.00412218  0.75005735  0.49155287  1
  O  O11  1  0.99381699  0.07758966  0.16096136  1
  O  O12  1  0.49961700  0.76792381  0.03640657  1
  O  O13  1  0.51294890  0.10049591  0.68266553  1
  O  O14  1  0.48662372  0.42221357  0.36238752  1
  O  O15  1  0.48705110  0.56617009  0.65066847  1
  O  O16  1  0.50038300  0.89874319  0.29692643  1
  O  O17  1  0.51337628  0.24445343  0.97094548  1
  O  O18  1  0.51331503  0.92752606  0.87341640  1
  O  O19  1  0.50034251  0.27285299  0.54386383  1
  O  O20  1  0.48681505  0.60641321  0.19710445  1
  O  O21  1  0.48668497  0.73914094  0.45991660  1
  O  O22  1  0.51318495  0.06025379  0.13622855  1
  O  O23  1  0.49965749  0.39381301  0.78947017  1
  O  O24  1  0.00011797  0.74305344  0.98714974  1
  O  O25  1  0.99586889  0.07787957  0.64944863  1
  O  O26  1  0.00324818  0.40765614  0.32048068  1
  O  O27  1  0.00413111  0.58878643  0.68388537  1
  O  O28  1  0.99988203  0.92361356  0.34618326  1
  O  O29  1  0.99675182  0.25901086  0.01285232  1
  O  O30  1  0.29984386  0.09065948  0.40893927  1
  O  O31  1  0.30183399  0.42511781  0.07831223  1
  O  O32  1  0.30154843  0.75362436  0.74284054  1
  O  O33  1  0.69845157  0.91304164  0.59049346  1
  O  O34  1  0.69816601  0.24154919  0.25502077  1
  O  O35  1  0.70015614  0.57600752  0.92439373  1
loop_
_geom_bond_atom_site_label_1
_geom_bond_atom_site_label_2
_geom_bond_distance
_geom_bond_site_symmetry_2
Ce0 O1 2.321001 1_655
Ce0 O4 2.450554 1_555
Ce0 O16 2.515152 1_555
Ce0 O12 2.516539 1_555
Ce0 O22 2.526891 1_565
Ce0 O18 2.533876 1_554
Ce1 O2 2.364602 1_655
Ce1 O23 2.471957 1_555
Ce1 O19 2.500273 1_555
Ce1 O17 2.557212 1_555
Ce1 O13 2.579048 1_555
Ce1 O5 2.633253 1_555
Ce1 O9 2.703709 1_655
Ce1 O8 2.724692 1_555
Ce1 O3 2.815002 1_555
Ce1 O29 2.896191 1_556
Ce1 O25 2.907898 1_555
Ce2 O4 2.321001 1_455
Ce2 O1 2.450554 1_555
Ce2 O12 2.515152 1_555
Ce2 O16 2.516539 1_555
Ce2 O20 2.526891 1_555
Ce2 O21 2.533876 1_555
Ce3 O3 2.364602 1_455
Ce3 O19 2.471957 1_555
Ce3 O23 2.500273 1_555
Ce3 O14 2.557220 1_555
Ce3 O15 2.579048 1_555
Ce3 O0 2.633270 1_555
Ce3 O8 2.703701 1_455
Ce3 O9 2.724683 1_555
Ce3 O2 2.815002 1_555
Ce3 O26 2.896199 1_555
Ce3 O27 2.907898 1_555
Nb0 O32 1.884575 1_555
Nb0 O7 1.962162 1_455
Nb0 O24 2.010194 1_555
Nb0 O18 2.013697 1_555
Nb0 O12 2.092753 1_556
Nb0 O1 2.222546 1_556
Nb1 O25 1.904593 1_455
Nb1 O13 1.942990 1_555
Nb1 O30 1.965563 1_555
Nb1 O8 2.064106 1_455
Nb1 O2 2.089924 1_555
Nb1 O19 2.140863 1_555
Nb2 O31 1.965762 1_555
Nb2 O6 1.994355 1_555
Nb2 O26 2.012100 1_555
Nb2 O20 2.019210 1_555
Nb2 O14 2.023758 1_555
Nb2 O0 2.051712 1_555
Nb3 O10 1.980230 1_555
Nb3 O0 1.982979 1_555
Nb3 O21 2.009749 1_555
Nb3 O32 2.021817 1_555
Nb3 O27 2.023199 1_555
Nb3 O15 2.047209 1_555
Nb4 O30 1.915405 1_555
Nb4 O11 1.951697 1_455
Nb4 O22 2.003079 1_555
Nb4 O28 2.015579 1_445
Nb4 O16 2.098592 1_545
Nb4 O1 2.161585 1_545
Nb5 O29 1.923985 1_456
Nb5 O31 1.925823 1_556
Nb5 O17 1.975484 1_555
Nb5 O9 2.023512 1_555
Nb5 O23 2.121851 1_555
Nb5 O2 2.165491 1_555
Nb6 O27 1.904593 1_655
Nb6 O15 1.942990 1_555
Nb6 O35 1.965561 1_555
Nb6 O9 2.064094 1_655
Nb6 O3 2.089924 1_555
Nb6 O23 2.140863 1_555
Nb7 O33 1.884575 1_555
Nb7 O10 1.962162 1_655
Nb7 O28 2.010194 1_555
Nb7 O21 2.013697 1_555
Nb7 O16 2.092753 1_555
Nb7 O4 2.222546 1_555
Nb8 O34 1.965762 1_555
Nb8 O11 1.994367 1_555
Nb8 O29 2.012100 1_555
Nb8 O22 2.019210 1_555
Nb8 O17 2.023758 1_554
Nb8 O5 2.051712 1_554
Nb9 O35 1.915405 1_554
Nb9 O6 1.951708 1_655
Nb9 O20 2.003079 1_555
Nb9 O24 2.015579 1_654
Nb9 O12 2.098592 1_555
Nb9 O4 2.161585 1_555
Nb10 O7 1.980218 1_555
Nb10 O5 1.982980 1_565
Nb10 O18 2.009737 1_555
Nb10 O33 2.021817 1_555
Nb10 O25 2.023199 1_565
Nb10 O13 2.047209 1_565
Nb11 O26 1.923985 1_655
Nb11 O34 1.925823 1_555
Nb11 O14 1.975484 1_555
Nb11 O8 2.023512 1_555
Nb11 O19 2.121863 1_555
Nb11 O3 2.165492 1_555
