# generated using pymatgen
data_BaAl2(SiO4)2
_symmetry_space_group_name_H-M   'P 1'
_cell_length_a   8.65805811
_cell_length_b   9.31826985
_cell_length_c   9.31827040
_cell_angle_alpha   88.97170133
_cell_angle_beta   82.17256342
_cell_angle_gamma   82.17255638
_symmetry_Int_Tables_number   1
_chemical_formula_structural   BaAl2(SiO4)2
_chemical_formula_sum   'Ba4 Al8 Si8 O32'
_cell_volume   737.83659440
_cell_formula_units_Z   4
loop_
 _symmetry_equiv_pos_site_id
 _symmetry_equiv_pos_as_xyz
  1  'x, y, z'
loop_
 _atom_site_type_symbol
 _atom_site_label
 _atom_site_symmetry_multiplicity
 _atom_site_fract_x
 _atom_site_fract_y
 _atom_site_fract_z
 _atom_site_occupancy
  Ba  Ba0  1  0.71813459  0.56443312  0.06446459  1
  Ba  Ba1  1  0.78186541  0.93553541  0.43556688  1
  Ba  Ba2  1  0.28186541  0.43556688  0.93553541  1
  Ba  Ba3  1  0.21813459  0.06446459  0.56443312  1
  Al  Al0  1  0.10910176  0.06616085  0.20016539  1
  Al  Al1  1  0.39089824  0.79983461  0.93383915  1
  Al  Al2  1  0.60910176  0.20016539  0.06616085  1
  Al  Al3  1  0.89089824  0.93383915  0.79983461  1
  Al  Al4  1  0.03420811  0.55076786  0.29597975  1
  Al  Al5  1  0.46579189  0.70402025  0.44923214  1
  Al  Al6  1  0.96579189  0.44923214  0.70402025  1
  Al  Al7  1  0.53420811  0.29597975  0.55076786  1
  Si  Si0  1  0.52540986  0.05894234  0.78870797  1
  Si  Si1  1  0.47459014  0.94105766  0.21129203  1
  Si  Si2  1  0.59827430  0.57270093  0.71021123  1
  Si  Si3  1  0.97459014  0.21129203  0.94105766  1
  Si  Si4  1  0.40172570  0.42729907  0.28978877  1
  Si  Si5  1  0.09827430  0.71021123  0.57270093  1
  Si  Si6  1  0.90172570  0.28978877  0.42729907  1
  Si  Si7  1  0.02540986  0.78870797  0.05894234  1
  O  O0  1  0.98909624  0.08192319  0.82444950  1
  O  O1  1  0.51090376  0.17555050  0.91807681  1
  O  O2  1  0.01090376  0.91807681  0.17555050  1
  O  O3  1  0.48909624  0.82444950  0.08192319  1
  O  O4  1  0.48895765  0.56395338  0.32468533  1
  O  O5  1  0.01104235  0.67531467  0.43604662  1
  O  O6  1  0.51104235  0.43604662  0.67531467  1
  O  O7  1  0.98895765  0.32468533  0.56395338  1
  O  O8  1  0.89727771  0.81842993  0.94699921  1
  O  O9  1  0.60272229  0.05300079  0.18157007  1
  O  O10  1  0.10272129  0.18157007  0.05300079  1
  O  O11  1  0.39727871  0.94699921  0.81842993  1
  O  O12  1  0.40226123  0.31574263  0.42387542  1
  O  O13  1  0.09773877  0.57612458  0.68425737  1
  O  O14  1  0.59773877  0.68425737  0.57612458  1
  O  O15  1  0.90226123  0.42387542  0.31574263  1
  O  O16  1  0.70364193  0.97852617  0.75199873  1
  O  O17  1  0.79635807  0.24800127  0.02147383  1
  O  O18  1  0.29635807  0.02147383  0.24800127  1
  O  O19  1  0.20364193  0.75199873  0.97852617  1
  O  O20  1  0.00278202  0.13859756  0.36223731  1
  O  O21  1  0.49721798  0.63776269  0.86140244  1
  O  O22  1  0.99721798  0.86140244  0.63776269  1
  O  O23  1  0.50278202  0.36223731  0.13859756  1
  O  O24  1  0.47764264  0.14267907  0.64281299  1
  O  O25  1  0.02235736  0.35718701  0.85732093  1
  O  O26  1  0.52235836  0.85732093  0.35718701  1
  O  O27  1  0.97764164  0.64281299  0.14267907  1
  O  O28  1  0.72734190  0.24763422  0.47392834  1
  O  O29  1  0.77265810  0.52607166  0.75236578  1
  O  O30  1  0.27265810  0.75236578  0.52607166  1
  O  O31  1  0.22734190  0.47392834  0.24763422  1
loop_
_geom_bond_atom_site_label_1
_geom_bond_atom_site_label_2
_geom_bond_distance
_geom_bond_site_symmetry_2
Ba0 O27 2.650465 1_555
Ba0 O23 2.839525 1_555
Ba0 O21 2.879086 1_554
Ba0 O29 2.902720 1_554
Ba0 O3 2.906355 1_555
Ba0 O4 2.916912 1_555
Ba0 O17 2.956003 1_555
Ba0 O8 3.106458 1_554
Ba0 O15 3.174476 1_555
Ba1 O26 2.650465 1_555
Ba1 O22 2.839525 1_555
Ba1 O20 2.879086 1_665
Ba1 O28 2.902720 1_565
Ba1 O2 2.906355 1_655
Ba1 O5 2.916911 1_655
Ba1 O16 2.956003 1_555
Ba1 O9 3.106458 1_565
Ba1 O14 3.174477 1_555
Ba2 O25 2.650473 1_555
Ba2 O21 2.839525 1_555
Ba2 O23 2.879086 1_556
Ba2 O31 2.902720 1_556
Ba2 O1 2.906355 1_555
Ba2 O6 2.916912 1_555
Ba2 O19 2.956003 1_555
Ba2 O10 3.106463 1_556
Ba2 O13 3.174476 1_555
Ba3 O24 2.650473 1_555
Ba3 O20 2.839525 1_555
Ba3 O22 2.879086 1_445
Ba3 O30 2.902720 1_545
Ba3 O0 2.906355 1_455
Ba3 O7 2.916911 1_455
Ba3 O18 2.956003 1_555
Ba3 O11 3.106463 1_545
Ba3 O12 3.174477 1_555
Al0 O10 1.729626 1_555
Al0 O18 1.734046 1_555
Al0 O2 1.750307 1_545
Al0 O20 1.752839 1_555
Al1 O11 1.729626 1_555
Al1 O19 1.734046 1_555
Al1 O3 1.750307 1_556
Al1 O21 1.752839 1_555
Al2 O9 1.729625 1_555
Al2 O17 1.734046 1_555
Al2 O1 1.750307 1_554
Al2 O23 1.752839 1_555
Al3 O8 1.729625 1_555
Al3 O16 1.734046 1_555
Al3 O0 1.750307 1_565
Al3 O22 1.752839 1_555
Al4 O31 1.729747 1_555
Al4 O5 1.735018 1_555
Al4 O15 1.743538 1_455
Al4 O27 1.745934 1_455
Al5 O30 1.729747 1_555
Al5 O4 1.735018 1_555
Al5 O14 1.743538 1_555
Al5 O26 1.745934 1_555
Al6 O29 1.729747 1_555
Al6 O7 1.735018 1_555
Al6 O13 1.743538 1_655
Al6 O25 1.745931 1_655
Al7 O28 1.729747 1_555
Al7 O6 1.735018 1_555
Al7 O12 1.743538 1_555
Al7 O24 1.745931 1_555
O0 Si3 1.618105 1_555
O1 Si0 1.618105 1_555
O2 Si7 1.618105 1_555
O3 Si1 1.618105 1_555
O4 Si4 1.625229 1_555
O5 Si5 1.625229 1_555
O6 Si2 1.625229 1_555
O7 Si6 1.625229 1_555
O8 Si7 1.617607 1_656
O9 Si1 1.617607 1_545
O10 Si3 1.617601 1_454
O11 Si0 1.617601 1_565
O12 Si4 1.611023 1_555
O13 Si5 1.611023 1_555
O14 Si2 1.611023 1_555
O15 Si6 1.611023 1_555
O16 Si0 1.615633 1_565
O17 Si3 1.615633 1_554
O18 Si1 1.615633 1_545
O19 Si7 1.615633 1_556
O20 Si6 1.633507 1_455
O21 Si2 1.633507 1_555
O22 Si5 1.633507 1_655
O23 Si4 1.633507 1_555
O24 Si0 1.629498 1_555
O25 Si3 1.629498 1_455
O26 Si1 1.629500 1_555
O27 Si7 1.629500 1_655
O28 Si6 1.612262 1_555
O29 Si2 1.612262 1_555
O30 Si5 1.612262 1_555
O31 Si4 1.612262 1_555
