# generated using pymatgen
data_VCrO3
_symmetry_space_group_name_H-M   'P 1'
_cell_length_a   5.02976825
_cell_length_b   5.39802295
_cell_length_c   5.03016620
_cell_angle_alpha   62.22542168
_cell_angle_beta   119.99732774
_cell_angle_gamma   90.00014995
_symmetry_Int_Tables_number   1
_chemical_formula_structural   VCrO3
_chemical_formula_sum   'V2 Cr2 O6'
_cell_volume   99.69750010
_cell_formula_units_Z   2
loop_
 _symmetry_equiv_pos_site_id
 _symmetry_equiv_pos_as_xyz
  1  'x, y, z'
loop_
 _atom_site_type_symbol
 _atom_site_label
 _atom_site_symmetry_multiplicity
 _atom_site_fract_x
 _atom_site_fract_y
 _atom_site_fract_z
 _atom_site_occupancy
  V  V0  1  0.64873419  0.05381369  0.29746352  1
  V  V1  1  0.14872599  0.55381182  0.29746210  1
  Cr  Cr0  1  0.84990111  0.45023891  0.69981252  1
  Cr  Cr1  1  0.34990859  0.95023653  0.69981068  1
  O  O0  1  0.05685775  0.74865684  0.50459496  1
  O  O1  1  0.74677294  0.74862688  0.80361644  1
  O  O2  1  0.44775796  0.74864853  0.19452001  1
  O  O3  1  0.24675390  0.24866993  0.19450892  1
  O  O4  1  0.55684126  0.24863648  0.80360889  1
  O  O5  1  0.94774331  0.24865838  0.50460297  1
loop_
_geom_bond_atom_site_label_1
_geom_bond_atom_site_label_2
_geom_bond_distance
_geom_bond_site_symmetry_2
Cr0 O5 1.967088 1_555
Cr0 O4 1.967138 1_555
Cr0 O3 1.967316 1_656
Cr0 O2 2.046914 1_555
Cr0 O0 2.047090 1_655
Cr0 O1 2.047128 1_555
Cr1 O0 1.967092 1_555
Cr1 O1 1.967173 1_555
Cr1 O2 1.967355 1_556
Cr1 O3 2.046961 1_565
Cr1 O5 2.047094 1_465
Cr1 O4 2.047174 1_565
O0 V1 1.976884 1_555
O0 V0 2.067532 1_465
O1 V1 1.976785 1_656
O1 V0 2.067591 1_565
O2 V1 1.976782 1_555
O2 V0 2.067636 1_565
O3 V0 1.976828 1_555
O3 V1 2.067552 1_555
O4 V0 1.976819 1_556
O4 V1 2.067573 1_555
O5 V0 1.976913 1_555
O5 V1 2.067496 1_655
