# generated using pymatgen
data_TbGaI
_symmetry_space_group_name_H-M   'P 1'
_cell_length_a   4.18420984
_cell_length_b   4.18420984
_cell_length_c   11.66249004
_cell_angle_alpha   90.00000000
_cell_angle_beta   90.00000000
_cell_angle_gamma   120.00002016
_symmetry_Int_Tables_number   1
_chemical_formula_structural   TbGaI
_chemical_formula_sum   'Tb2 Ga2 I2'
_cell_volume   176.82706611
_cell_formula_units_Z   2
loop_
 _symmetry_equiv_pos_site_id
 _symmetry_equiv_pos_as_xyz
  1  'x, y, z'
loop_
 _atom_site_type_symbol
 _atom_site_label
 _atom_site_symmetry_multiplicity
 _atom_site_fract_x
 _atom_site_fract_y
 _atom_site_fract_z
 _atom_site_occupancy
  Tb  Tb0  1  0.00000000  0.00000000  0.82712515  1
  Tb  Tb1  1  0.00000000  0.00000000  0.17287485  1
  Ga  Ga0  1  0.66666700  0.33333300  0.97072715  1
  Ga  Ga1  1  0.33333300  0.66666700  0.02927285  1
  I  I0  1  0.66666700  0.33333300  0.34527953  1
  I  I1  1  0.33333300  0.66666700  0.65472047  1
loop_
_geom_bond_atom_site_label_1
_geom_bond_atom_site_label_2
_geom_bond_distance
_geom_bond_site_symmetry_2
Ga0 Ga1 2.510390 1_546
Ga0 Ga1 2.510390 1_656
Ga0 Ga1 2.510397 1_556
Ga0 Tb0 2.939502 1_655
Ga0 Tb0 2.939504 1_555
Ga0 Tb0 2.939504 1_665
Ga0 Tb1 3.375482 1_656
Ga0 Tb1 3.375484 1_666
Ga0 Tb1 3.375484 1_556
Ga1 Tb1 2.939502 1_565
Ga1 Tb1 2.939504 1_665
Ga1 Tb1 2.939504 1_555
Ga1 Tb0 3.375482 1_564
Ga1 Tb0 3.375484 1_664
Ga1 Tb0 3.375484 1_554
I0 Tb1 3.143031 1_655
I0 Tb1 3.143033 1_665
I0 Tb1 3.143033 1_555
I1 Tb0 3.143031 1_565
I1 Tb0 3.143033 1_665
I1 Tb0 3.143033 1_555
