# generated using pymatgen
data_Y(NiO2)2
_symmetry_space_group_name_H-M   'P 1'
_cell_length_a   6.20919049
_cell_length_b   6.20919049
_cell_length_c   6.20919049
_cell_angle_alpha   120.56360728
_cell_angle_beta   117.09080179
_cell_angle_gamma   92.06902320
_symmetry_Int_Tables_number   1
_chemical_formula_structural   Y(NiO2)2
_chemical_formula_sum   'Y2 Ni4 O8'
_cell_volume   171.96392336
_cell_formula_units_Z   2
loop_
 _symmetry_equiv_pos_site_id
 _symmetry_equiv_pos_as_xyz
  1  'x, y, z'
loop_
 _atom_site_type_symbol
 _atom_site_label
 _atom_site_symmetry_multiplicity
 _atom_site_fract_x
 _atom_site_fract_y
 _atom_site_fract_z
 _atom_site_occupancy
  Y  Y0  1  0.00000000  0.50000000  0.50000000  1
  Y  Y1  1  0.50000000  0.50000000  0.00000000  1
  Ni  Ni0  1  0.37217700  0.12217700  0.25000000  1
  Ni  Ni1  1  0.62782300  0.87782300  0.75000000  1
  Ni  Ni2  1  0.00000000  0.50000000  0.00000000  1
  Ni  Ni3  1  0.00000000  0.00000000  0.50000000  1
  O  O0  1  0.76666200  0.76251900  0.00414300  1
  O  O1  1  0.25837600  0.76251900  0.49585700  1
  O  O2  1  0.75916300  0.76041400  0.50125200  1
  O  O3  1  0.23333800  0.23748100  0.99585700  1
  O  O4  1  0.24083700  0.74208900  0.00125200  1
  O  O5  1  0.74162400  0.23748100  0.50414300  1
  O  O6  1  0.75916300  0.25791100  0.99874800  1
  O  O7  1  0.24083700  0.23958600  0.49874800  1
loop_
_geom_bond_atom_site_label_1
_geom_bond_atom_site_label_2
_geom_bond_distance
_geom_bond_site_symmetry_2
Ni0 O7 1.904503 1_555
Ni0 O4 1.904503 1_545
Ni0 O5 1.923644 1_555
Ni0 O3 1.923644 1_554
Ni1 O2 1.904503 1_555
Ni1 O6 1.904503 1_565
Ni1 O1 1.923644 1_555
Ni1 O0 1.923644 1_556
Ni2 O6 2.076306 1_454
Ni2 O4 2.076306 1_555
Ni2 O0 2.217798 1_455
Ni2 O5 2.217798 1_454
Ni2 O3 2.217798 1_554
Ni2 O1 2.217798 1_555
Ni3 O2 2.076311 1_445
Ni3 O7 2.076311 1_555
Ni3 O3 2.217798 1_555
Ni3 O0 2.217798 1_445
Ni3 O5 2.217798 1_455
Ni3 O1 2.217798 1_545
O0 Y1 2.263375 1_555
O1 Y0 2.263375 1_555
O2 Y0 2.241261 1_655
O2 Y1 2.241266 1_555
O3 Y1 2.263375 1_556
O4 Y1 2.241266 1_555
O4 Y0 2.241266 1_554
O5 Y0 2.263375 1_655
O6 Y0 2.241266 1_656
O6 Y1 2.241266 1_556
O7 Y0 2.241261 1_555
O7 Y1 2.241266 1_556
