# generated using pymatgen
data_Zr3CuF6
_symmetry_space_group_name_H-M   'P 1'
_cell_length_a   5.91990173
_cell_length_b   5.46689964
_cell_length_c   14.99135978
_cell_angle_alpha   107.07052544
_cell_angle_beta   54.69426013
_cell_angle_gamma   122.73013370
_symmetry_Int_Tables_number   1
_chemical_formula_structural   Zr3CuF6
_chemical_formula_sum   'Zr3 Cu1 F6'
_cell_volume   332.94840295
_cell_formula_units_Z   1
loop_
 _symmetry_equiv_pos_site_id
 _symmetry_equiv_pos_as_xyz
  1  'x, y, z'
loop_
 _atom_site_type_symbol
 _atom_site_label
 _atom_site_symmetry_multiplicity
 _atom_site_fract_x
 _atom_site_fract_y
 _atom_site_fract_z
 _atom_site_occupancy
  Zr  Zr0  1  0.00000000  0.00000000  0.50000000  1
  Zr  Zr1  1  0.50000000  0.50000000  0.00000000  1
  Zr  Zr2  1  0.00000000  0.50000000  0.00000000  1
  Cu  Cu0  1  0.00000000  0.00000000  0.00000000  1
  F  F0  1  0.81792700  0.32600300  0.89329100  1
  F  F1  1  0.18207300  0.67399700  0.10670900  1
  F  F2  1  0.93745700  0.04266200  0.64698100  1
  F  F3  1  0.06254300  0.95733800  0.35301900  1
  F  F4  1  0.49300500  0.65192200  0.88459100  1
  F  F5  1  0.50699500  0.34807800  0.11540900  1
loop_
_geom_bond_atom_site_label_1
_geom_bond_atom_site_label_2
_geom_bond_distance
_geom_bond_site_symmetry_2
Cu0 Zr2 2.733450 1_555
Cu0 Zr2 2.733450 1_545
Cu0 Zr1 2.735665 1_555
Cu0 Zr1 2.735665 1_445
F0 Zr1 2.137439 1_556
F0 Zr2 2.148635 1_656
F1 Zr1 2.137439 1_555
F1 Zr2 2.148635 1_555
F2 Zr0 1.973657 1_655
F3 Zr0 1.973657 1_565
F4 Zr2 2.141706 1_556
F4 Zr1 2.156044 1_556
F5 Zr2 2.141706 1_655
F5 Zr1 2.156044 1_555
