# generated using pymatgen
data_KMg6Ti
_symmetry_space_group_name_H-M   'P 1'
_cell_length_a   6.57810608
_cell_length_b   6.57810608
_cell_length_c   5.17950400
_cell_angle_alpha   90.00000000
_cell_angle_beta   90.00000000
_cell_angle_gamma   120.00000083
_symmetry_Int_Tables_number   1
_chemical_formula_structural   KMg6Ti
_chemical_formula_sum   'K1 Mg6 Ti1'
_cell_volume   194.09777039
_cell_formula_units_Z   1
loop_
 _symmetry_equiv_pos_site_id
 _symmetry_equiv_pos_as_xyz
  1  'x, y, z'
loop_
 _atom_site_type_symbol
 _atom_site_label
 _atom_site_symmetry_multiplicity
 _atom_site_fract_x
 _atom_site_fract_y
 _atom_site_fract_z
 _atom_site_occupancy
  K  K0  1  0.66666700  0.33333300  0.00000000  1
  Mg  Mg0  1  0.84103300  0.68206600  0.50000000  1
  Mg  Mg1  1  0.31793400  0.15896700  0.50000000  1
  Mg  Mg2  1  0.84103300  0.15896700  0.50000000  1
  Mg  Mg3  1  0.17830400  0.35660900  0.00000000  1
  Mg  Mg4  1  0.64339100  0.82169600  0.00000000  1
  Mg  Mg5  1  0.17830400  0.82169600  0.00000000  1
  Ti  Ti0  1  0.33333300  0.66666700  0.50000000  1
loop_
_geom_bond_atom_site_label_1
_geom_bond_atom_site_label_2
_geom_bond_distance
_geom_bond_site_symmetry_2
K0 Mg2 3.263990 1_555
K0 Mg2 3.263990 1_554
K0 Mg0 3.263993 1_555
K0 Mg0 3.263993 1_554
K0 Mg1 3.263993 1_554
K0 Mg1 3.263993 1_555
K0 Mg4 3.291718 1_545
K0 Mg3 3.291718 1_655
K0 Mg5 3.291724 1_545
K0 Mg5 3.291724 1_655
K0 Mg3 3.291731 1_555
K0 Mg4 3.291731 1_555
Mg0 Mg1 3.137105 1_665
Mg0 Mg2 3.137105 1_565
Mg0 Mg5 3.230306 1_656
Mg0 Mg5 3.230306 1_655
Mg0 Mg4 3.230309 1_556
Mg0 Mg4 3.230309 1_555
Mg0 Ti0 3.290219 1_655
Mg0 Ti0 3.290226 1_555
Mg0 Mg1 3.441001 1_555
Mg0 Mg2 3.441001 1_555
Mg1 Mg2 3.137105 1_455
Mg1 Mg5 3.230306 1_546
Mg1 Mg5 3.230306 1_545
Mg1 Mg3 3.230309 1_555
Mg1 Mg3 3.230309 1_556
Mg1 Ti0 3.290219 1_545
Mg1 Ti0 3.290226 1_555
Mg1 Mg2 3.441001 1_555
Mg2 Mg4 3.230306 1_546
Mg2 Mg4 3.230306 1_545
Mg2 Mg3 3.230306 1_655
Mg2 Mg3 3.230306 1_656
Mg2 Ti0 3.290223 1_545
Mg2 Ti0 3.290223 1_655
Mg3 Mg4 3.059392 1_555
Mg3 Mg5 3.059392 1_555
Mg3 Ti0 3.134769 1_555
Mg3 Ti0 3.134769 1_554
Mg3 Mg4 3.518714 1_445
Mg3 Mg5 3.518714 1_545
Mg4 Mg5 3.059392 1_555
Mg4 Ti0 3.134769 1_555
Mg4 Ti0 3.134769 1_554
Mg4 Mg5 3.518714 1_655
Mg5 Ti0 3.134769 1_554
Mg5 Ti0 3.134769 1_555
