# generated using pymatgen
data_CeInCuAg
_symmetry_space_group_name_H-M   'P 1'
_cell_length_a   4.92028091
_cell_length_b   4.92028091
_cell_length_c   4.92028091
_cell_angle_alpha   60.00000000
_cell_angle_beta   60.00000000
_cell_angle_gamma   60.00000000
_symmetry_Int_Tables_number   1
_chemical_formula_structural   CeInCuAg
_chemical_formula_sum   'Ce1 In1 Cu1 Ag1'
_cell_volume   84.22765283
_cell_formula_units_Z   1
loop_
 _symmetry_equiv_pos_site_id
 _symmetry_equiv_pos_as_xyz
  1  'x, y, z'
loop_
 _atom_site_type_symbol
 _atom_site_label
 _atom_site_symmetry_multiplicity
 _atom_site_fract_x
 _atom_site_fract_y
 _atom_site_fract_z
 _atom_site_occupancy
  Ce  Ce0  1  0.00000000  0.00000000  0.00000000  1
  In  In0  1  0.50000000  0.50000000  0.50000000  1
  Cu  Cu0  1  0.25000000  0.25000000  0.25000000  1
  Ag  Ag0  1  0.75000000  0.75000000  0.75000000  1
loop_
_geom_bond_atom_site_label_1
_geom_bond_atom_site_label_2
_geom_bond_distance
_geom_bond_site_symmetry_2
Ce0 Cu0 3.013044 1_455
Ce0 Cu0 3.013044 1_554
Ce0 Cu0 3.013044 1_545
Ce0 Cu0 3.013044 1_555
Ce0 In0 3.479164 1_445
Ce0 In0 3.479164 1_454
Ce0 In0 3.479164 1_545
Ce0 In0 3.479164 1_544
Ce0 In0 3.479164 1_554
Ce0 In0 3.479164 1_455
Cu0 In0 3.013044 1_554
Cu0 In0 3.013044 1_455
Cu0 In0 3.013044 1_555
Cu0 In0 3.013044 1_545
Ag0 Ce0 3.013044 1_566
Ag0 Ce0 3.013044 1_665
Ag0 Ce0 3.013044 1_666
Ag0 In0 3.013044 1_556
Ag0 In0 3.013044 1_555
Ag0 In0 3.013044 1_565
Ag0 Ce0 3.013044 1_656
Ag0 In0 3.013044 1_655
