# generated using pymatgen
data_Y2Ir2O7
_symmetry_space_group_name_H-M   'P 1'
_cell_length_a   7.20234097
_cell_length_b   7.20234097
_cell_length_c   7.20234097
_cell_angle_alpha   60.00000000
_cell_angle_beta   60.00000000
_cell_angle_gamma   60.00000000
_symmetry_Int_Tables_number   1
_chemical_formula_structural   Y2Ir2O7
_chemical_formula_sum   'Y4 Ir4 O14'
_cell_volume   264.18371023
_cell_formula_units_Z   2
loop_
 _symmetry_equiv_pos_site_id
 _symmetry_equiv_pos_as_xyz
  1  'x, y, z'
loop_
 _atom_site_type_symbol
 _atom_site_label
 _atom_site_symmetry_multiplicity
 _atom_site_fract_x
 _atom_site_fract_y
 _atom_site_fract_z
 _atom_site_occupancy
  Y  Y0  1  0.62500000  0.12500000  0.12500000  1
  Y  Y1  1  0.12500000  0.62500000  0.12500000  1
  Y  Y2  1  0.12500000  0.12500000  0.62500000  1
  Y  Y3  1  0.12500000  0.12500000  0.12500000  1
  Ir  Ir0  1  0.12500000  0.62500000  0.62500000  1
  Ir  Ir1  1  0.62500000  0.12500000  0.62500000  1
  Ir  Ir2  1  0.62500000  0.62500000  0.12500000  1
  Ir  Ir3  1  0.62500000  0.62500000  0.62500000  1
  O  O0  1  0.71293236  0.71293236  0.28706764  1
  O  O1  1  0.28706764  0.28706764  0.71293236  1
  O  O2  1  0.71293236  0.28706764  0.71293236  1
  O  O3  1  0.28706764  0.71293236  0.28706764  1
  O  O4  1  0.28706764  0.71293236  0.71293236  1
  O  O5  1  0.71293236  0.28706764  0.28706764  1
  O  O6  1  0.53706764  0.53706764  0.96293236  1
  O  O7  1  0.96293236  0.96293236  0.53706764  1
  O  O8  1  0.53706764  0.96293236  0.53706764  1
  O  O9  1  0.96293236  0.53706764  0.96293236  1
  O  O10  1  0.96293236  0.53706764  0.53706764  1
  O  O11  1  0.53706764  0.96293236  0.96293236  1
  O  O12  1  0.25000000  0.25000000  0.25000000  1
  O  O13  1  0.00000000  -0.00000000  0.00000000  1
loop_
_geom_bond_atom_site_label_1
_geom_bond_atom_site_label_2
_geom_bond_distance
_geom_bond_site_symmetry_2
Ir0 O1 2.011043 1_555
Ir0 O10 2.011043 1_455
Ir0 O3 2.011043 1_555
Ir0 O7 2.011043 1_455
Ir0 O9 2.011043 1_455
Ir0 O4 2.011043 1_555
Ir1 O1 2.011043 1_555
Ir1 O5 2.011043 1_555
Ir1 O7 2.011043 1_545
Ir1 O11 2.011043 1_545
Ir1 O8 2.011043 1_545
Ir1 O2 2.011043 1_555
Ir2 O5 2.011043 1_555
Ir2 O3 2.011043 1_555
Ir2 O9 2.011043 1_554
Ir2 O6 2.011043 1_554
Ir2 O11 2.011043 1_554
Ir2 O0 2.011043 1_555
Ir3 O4 2.011043 1_555
Ir3 O8 2.011043 1_555
Ir3 O2 2.011043 1_555
Ir3 O10 2.011043 1_555
Ir3 O6 2.011043 1_555
Ir3 O0 2.011043 1_555
O0 Y1 2.442771 1_655
O0 Y0 2.442771 1_565
O1 Y3 2.442771 1_556
O1 Y2 2.442771 1_555
O2 Y0 2.442771 1_556
O2 Y2 2.442771 1_655
O3 Y3 2.442771 1_565
O3 Y1 2.442771 1_555
O4 Y2 2.442771 1_565
O4 Y1 2.442771 1_556
O5 Y3 2.442771 1_655
O5 Y0 2.442771 1_555
O6 Y0 2.442771 1_556
O6 Y1 2.442771 1_556
O7 Y3 2.442771 1_665
O7 Y2 2.442771 1_665
O8 Y2 2.442771 1_565
O8 Y0 2.442771 1_565
O9 Y1 2.442771 1_656
O9 Y3 2.442771 1_656
O10 Y2 2.442771 1_655
O10 Y1 2.442771 1_655
O11 Y3 2.442771 1_566
O11 Y0 2.442771 1_566
O12 Y2 2.205258 1_555
O12 Y1 2.205258 1_555
O12 Y3 2.205258 1_555
O12 Y0 2.205258 1_555
O13 Y2 2.205258 1_554
O13 Y3 2.205258 1_555
O13 Y0 2.205258 1_455
O13 Y1 2.205258 1_545
