# generated using pymatgen
data_Ge3Mo
_symmetry_space_group_name_H-M   'P 1'
_cell_length_a   5.09677047
_cell_length_b   5.09677047
_cell_length_c   5.09677047
_cell_angle_alpha   133.93111020
_cell_angle_beta   133.93111020
_cell_angle_gamma   67.19562761
_symmetry_Int_Tables_number   1
_chemical_formula_structural   Ge3Mo
_chemical_formula_sum   'Ge3 Mo1'
_cell_volume   67.53755440
_cell_formula_units_Z   1
loop_
 _symmetry_equiv_pos_site_id
 _symmetry_equiv_pos_as_xyz
  1  'x, y, z'
loop_
 _atom_site_type_symbol
 _atom_site_label
 _atom_site_symmetry_multiplicity
 _atom_site_fract_x
 _atom_site_fract_y
 _atom_site_fract_z
 _atom_site_occupancy
  Ge  Ge0  1  0.75000000  0.25000000  0.50000000  1
  Ge  Ge1  1  0.25000000  0.75000000  0.50000000  1
  Ge  Ge2  1  0.50000000  0.50000000  0.00000000  1
  Mo  Mo0  1  0.00000000  0.00000000  0.00000000  1
loop_
_geom_bond_atom_site_label_1
_geom_bond_atom_site_label_2
_geom_bond_distance
_geom_bond_site_symmetry_2
Ge0 Ge1 2.820348 1_645
Ge0 Ge1 2.820348 1_544
Ge0 Ge1 2.820348 1_555
Ge0 Ge1 2.820348 1_656
Ge0 Mo0 2.912535 1_555
Ge0 Ge2 2.912535 1_545
Ge0 Mo0 2.912535 1_666
Ge0 Ge2 2.912535 1_656
Ge0 Ge2 2.912535 1_555
Ge0 Mo0 2.912535 1_655
Ge0 Mo0 2.912535 1_656
Ge0 Ge2 2.912535 1_556
Ge1 Mo0 2.912535 1_555
Ge1 Mo0 2.912535 1_566
Ge1 Mo0 2.912535 1_666
Ge1 Ge2 2.912535 1_455
Ge1 Mo0 2.912535 1_565
Ge1 Ge2 2.912535 1_566
Ge1 Ge2 2.912535 1_555
Ge1 Ge2 2.912535 1_556
Ge2 Mo0 2.820348 1_666
Ge2 Mo0 2.820348 1_554
Ge2 Mo0 2.820348 1_565
Ge2 Mo0 2.820348 1_655
