# generated using pymatgen
data_CaH4Se2O9
_symmetry_space_group_name_H-M   'P 1'
_cell_length_a   15.45439700
_cell_length_b   5.91079600
_cell_length_c   8.33446534
_cell_angle_alpha   87.89253415
_cell_angle_beta   90.00000000
_cell_angle_gamma   90.00000000
_symmetry_Int_Tables_number   1
_chemical_formula_structural   CaH4Se2O9
_chemical_formula_sum   'Ca4 H16 Se8 O36'
_cell_volume   760.82001418
_cell_formula_units_Z   4
loop_
 _symmetry_equiv_pos_site_id
 _symmetry_equiv_pos_as_xyz
  1  'x, y, z'
loop_
 _atom_site_type_symbol
 _atom_site_label
 _atom_site_symmetry_multiplicity
 _atom_site_fract_x
 _atom_site_fract_y
 _atom_site_fract_z
 _atom_site_occupancy
  Ca  Ca0  1  0.39666800  0.22662000  0.42467800  1
  Ca  Ca1  1  0.89666800  0.77338000  0.07532200  1
  Ca  Ca2  1  0.60333200  0.77338000  0.57532200  1
  Ca  Ca3  1  0.10333200  0.22662000  0.92467800  1
  H  H0  1  0.29188200  0.53467400  0.89993800  1
  H  H1  1  0.79188200  0.46532600  0.60006200  1
  H  H2  1  0.70811800  0.46532600  0.10006200  1
  H  H3  1  0.20811800  0.53467400  0.39993800  1
  H  H4  1  0.49186400  0.74649000  0.97780500  1
  H  H5  1  0.99186400  0.25351000  0.52219500  1
  H  H6  1  0.50813600  0.25351000  0.02219500  1
  H  H7  1  0.00813600  0.74649000  0.47780500  1
  H  H8  1  0.20729100  0.17252200  0.31243200  1
  H  H9  1  0.70729100  0.82747800  0.18756800  1
  H  H10  1  0.79270900  0.82747800  0.68756800  1
  H  H11  1  0.29270900  0.17252200  0.81243200  1
  H  H12  1  0.20525900  0.15883600  0.49958900  1
  H  H13  1  0.70525900  0.84116400  0.00041100  1
  H  H14  1  0.79474100  0.84116400  0.50041100  1
  H  H15  1  0.29474100  0.15883600  0.99958900  1
  Se  Se0  1  0.36954000  0.72600000  0.70521900  1
  Se  Se1  1  0.86954000  0.27400000  0.79478100  1
  Se  Se2  1  0.63046000  0.27400000  0.29478100  1
  Se  Se3  1  0.13046000  0.72600000  0.20521900  1
  Se  Se4  1  0.42493300  0.76313800  0.22735500  1
  Se  Se5  1  0.92493300  0.23686200  0.27264500  1
  Se  Se6  1  0.57506700  0.23686200  0.77264500  1
  Se  Se7  1  0.07506700  0.76313800  0.72735500  1
  O  O0  1  0.47355700  0.72906700  0.75854600  1
  O  O1  1  0.97355700  0.27093300  0.74145400  1
  O  O2  1  0.52644300  0.27093300  0.24145400  1
  O  O3  1  0.02644300  0.72906700  0.25854600  1
  O  O4  1  0.34246600  0.50771600  0.59869000  1
  O  O5  1  0.84246600  0.49228400  0.90131000  1
  O  O6  1  0.65753400  0.49228400  0.40131000  1
  O  O7  1  0.15753400  0.50771600  0.09869000  1
  O  O8  1  0.33699900  0.97712600  0.63357300  1
  O  O9  1  0.83699900  0.02287400  0.86642700  1
  O  O10  1  0.66300100  0.02287400  0.36642700  1
  O  O11  1  0.16300100  0.97712600  0.13357300  1
  O  O12  1  0.31195100  0.69742100  0.88600600  1
  O  O13  1  0.81195100  0.30257900  0.61399400  1
  O  O14  1  0.68804900  0.30257900  0.11399400  1
  O  O15  1  0.18804900  0.69742100  0.38600600  1
  O  O16  1  0.36683600  0.99525800  0.19110200  1
  O  O17  1  0.86683600  0.00474200  0.30889800  1
  O  O18  1  0.63316400  0.00474200  0.80889800  1
  O  O19  1  0.13316400  0.99525800  0.69110200  1
  O  O20  1  0.36955100  0.52545000  0.22185600  1
  O  O21  1  0.86955100  0.47455000  0.27814400  1
  O  O22  1  0.63044900  0.47455000  0.77814400  1
  O  O23  1  0.13044900  0.52545000  0.72185600  1
  O  O24  1  0.47439800  0.79472400  0.40250300  1
  O  O25  1  0.97439800  0.20527600  0.09749700  1
  O  O26  1  0.52560200  0.20527600  0.59749700  1
  O  O27  1  0.02560200  0.79472400  0.90250300  1
  O  O28  1  0.51258300  0.75739100  0.09149000  1
  O  O29  1  0.01258300  0.24260900  0.40851000  1
  O  O30  1  0.48741700  0.24260900  0.90851000  1
  O  O31  1  0.98741700  0.75739100  0.59149000  1
  O  O32  1  0.23170000  0.24280100  0.40828200  1
  O  O33  1  0.73170000  0.75719900  0.09171800  1
  O  O34  1  0.76830000  0.75719900  0.59171800  1
  O  O35  1  0.26830000  0.24280100  0.90828200  1
loop_
_geom_bond_atom_site_label_1
_geom_bond_atom_site_label_2
_geom_bond_distance
_geom_bond_site_symmetry_2
Ca0 O4 2.396424 1_555
Ca0 O8 2.422285 1_545
Ca0 O20 2.435861 1_555
Ca0 O26 2.459190 1_555
Ca0 O16 2.463385 1_545
Ca0 O2 2.528547 1_555
Ca0 O32 2.554743 1_555
Ca0 O24 2.833540 1_545
Ca1 O5 2.396424 1_554
Ca1 O9 2.422285 1_564
Ca1 O21 2.435861 1_555
Ca1 O27 2.459190 1_654
Ca1 O17 2.463385 1_565
Ca1 O3 2.528547 1_655
Ca1 O33 2.554743 1_555
Ca1 O25 2.833540 1_565
Ca2 O6 2.396424 1_555
Ca2 O10 2.422285 1_565
Ca2 O22 2.435861 1_555
Ca2 O24 2.459190 1_555
Ca2 O18 2.463385 1_565
Ca2 O0 2.528547 1_555
Ca2 O34 2.554743 1_555
Ca2 O26 2.833540 1_565
Ca3 O7 2.396424 1_556
Ca3 O11 2.422285 1_546
Ca3 O23 2.435861 1_555
Ca3 O25 2.459190 1_456
Ca3 O19 2.463385 1_545
Ca3 O1 2.528547 1_455
Ca3 O35 2.554743 1_555
Ca3 O27 2.833540 1_545
H0 O12 1.013330 1_555
H1 O13 1.013330 1_555
H2 O14 1.013330 1_555
H3 O15 1.013330 1_555
H4 O28 1.004457 1_556
H5 O29 1.004457 1_655
H6 O30 1.004457 1_554
H7 O31 1.004457 1_455
H8 O32 0.988657 1_555
H9 O33 0.988657 1_555
H10 O34 0.988657 1_555
H11 O35 0.988657 1_555
H12 O32 0.982155 1_555
H13 O33 0.982155 1_555
H14 O34 0.982155 1_555
H15 O35 0.982155 1_555
O0 Se0 1.668107 1_555
O1 Se1 1.668107 1_555
O2 Se2 1.668107 1_555
O3 Se3 1.668107 1_555
O4 Se0 1.646912 1_555
O5 Se1 1.646912 1_555
O6 Se2 1.646912 1_555
O7 Se3 1.646912 1_555
O8 Se0 1.657587 1_555
O9 Se1 1.657587 1_555
O10 Se2 1.657587 1_555
O11 Se3 1.657587 1_555
O12 Se0 1.752785 1_555
O13 Se1 1.752785 1_555
O14 Se2 1.752785 1_555
O15 Se3 1.752785 1_555
O16 Se4 1.658122 1_555
O17 Se5 1.658122 1_555
O18 Se6 1.658122 1_555
O19 Se7 1.658122 1_555
O20 Se4 1.647182 1_555
O21 Se5 1.647182 1_555
O22 Se6 1.647182 1_555
O23 Se7 1.647182 1_555
O24 Se4 1.664392 1_555
O25 Se5 1.664392 1_555
O26 Se6 1.664392 1_555
O27 Se7 1.664392 1_555
O28 Se4 1.766666 1_555
O29 Se5 1.766666 1_455
O30 Se6 1.766666 1_555
O31 Se7 1.766666 1_655
