# generated using pymatgen
data_K(Ti3Se4)2
_symmetry_space_group_name_H-M   'P 1'
_cell_length_a   9.86995025
_cell_length_b   9.92230899
_cell_length_c   3.66839479
_cell_angle_alpha   89.97311057
_cell_angle_beta   90.00146446
_cell_angle_gamma   120.28650727
_symmetry_Int_Tables_number   1
_chemical_formula_structural   K(Ti3Se4)2
_chemical_formula_sum   'K1 Ti6 Se8'
_cell_volume   310.22248431
_cell_formula_units_Z   1
loop_
 _symmetry_equiv_pos_site_id
 _symmetry_equiv_pos_as_xyz
  1  'x, y, z'
loop_
 _atom_site_type_symbol
 _atom_site_label
 _atom_site_symmetry_multiplicity
 _atom_site_fract_x
 _atom_site_fract_y
 _atom_site_fract_z
 _atom_site_occupancy
  K  K0  1  -0.00000000  -0.00000000  0.50000000  1
  Ti  Ti0  1  0.12799932  0.63705735  0.25110647  1
  Ti  Ti1  1  0.50877209  0.87209737  0.25111753  1
  Ti  Ti2  1  0.36115317  0.48934628  0.25117096  1
  Ti  Ti3  1  0.87200068  0.36294265  0.74889353  1
  Ti  Ti4  1  0.49122791  0.12790263  0.74888247  1
  Ti  Ti5  1  0.63884683  0.51065372  0.74882904  1
  Se  Se0  1  0.66690016  0.33322552  0.24923182  1
  Se  Se1  1  0.33309984  0.66677448  0.75076818  1
  Se  Se2  1  0.30070423  0.95261932  0.24768523  1
  Se  Se3  1  0.65182914  0.69978276  0.24720156  1
  Se  Se4  1  0.04676046  0.34771285  0.24774514  1
  Se  Se5  1  0.69929577  0.04738068  0.75231477  1
  Se  Se6  1  0.34817086  0.30021724  0.75279844  1
  Se  Se7  1  0.95323954  0.65228715  0.75225486  1
loop_
_geom_bond_atom_site_label_1
_geom_bond_atom_site_label_2
_geom_bond_distance
_geom_bond_site_symmetry_2
K0 Se3 3.349609 1_445
K0 Se6 3.349609 1_555
K0 Se2 3.360699 1_545
K0 Se5 3.360699 1_455
K0 Se7 3.370986 1_445
K0 Se4 3.370986 1_555
Se0 Ti3 2.634929 1_555
Se0 Ti4 2.636309 1_555
Se0 Ti3 2.636535 1_554
Se0 Ti4 2.639360 1_554
Se0 Ti5 2.651340 1_555
Se0 Ti5 2.652231 1_554
Se1 Ti0 2.634929 1_555
Se1 Ti1 2.636309 1_555
Se1 Ti0 2.636535 1_556
Se1 Ti1 2.639360 1_556
Se1 Ti2 2.651340 1_555
Se1 Ti2 2.652231 1_556
Se2 Ti1 2.551627 1_555
Se2 Ti4 2.570518 1_564
Se2 Ti4 2.577872 1_565
Se2 Ti0 2.706686 1_555
Se3 Ti2 2.559038 1_555
Se3 Ti5 2.577037 1_554
Se3 Ti5 2.584276 1_555
Se3 Ti1 2.711485 1_555
Se4 Ti0 2.561959 1_555
Se4 Ti3 2.570864 1_454
Se4 Ti3 2.577032 1_455
Se4 Ti2 2.684301 1_555
Se5 Ti4 2.551627 1_555
Se5 Ti1 2.570518 1_546
Se5 Ti1 2.577872 1_545
Se5 Ti3 2.706686 1_555
Se6 Ti5 2.559038 1_555
Se6 Ti2 2.577037 1_556
Se6 Ti2 2.584276 1_555
Se6 Ti4 2.711485 1_555
Se7 Ti3 2.561959 1_555
Se7 Ti0 2.570864 1_656
Se7 Ti0 2.577032 1_655
Se7 Ti5 2.684301 1_555
