# generated using pymatgen
data_Y2(SiPt)3
_symmetry_space_group_name_H-M   'P 1'
_cell_length_a   5.60665000
_cell_length_b   5.60665000
_cell_length_c   41.52245800
_cell_angle_alpha   90.00000000
_cell_angle_beta   90.00000000
_cell_angle_gamma   90.00000000
_symmetry_Int_Tables_number   1
_chemical_formula_structural   Y2(SiPt)3
_chemical_formula_sum   'Y16 Si24 Pt24'
_cell_volume   1305.23871178
_cell_formula_units_Z   8
loop_
 _symmetry_equiv_pos_site_id
 _symmetry_equiv_pos_as_xyz
  1  'x, y, z'
loop_
 _atom_site_type_symbol
 _atom_site_label
 _atom_site_symmetry_multiplicity
 _atom_site_fract_x
 _atom_site_fract_y
 _atom_site_fract_z
 _atom_site_occupancy
  Y  Y0_0  1  0.25000000  0.25000000  0.37586500  1
  Y  Y0_1  1  0.25000000  0.25000000  0.87586500  1
  Y  Y0_2  1  0.25000000  0.75000000  0.37586500  1
  Y  Y0_3  1  0.25000000  0.75000000  0.87586500  1
  Y  Y0_4  1  0.75000000  0.25000000  0.37586500  1
  Y  Y0_5  1  0.75000000  0.25000000  0.87586500  1
  Y  Y0_6  1  0.75000000  0.75000000  0.37586500  1
  Y  Y0_7  1  0.75000000  0.75000000  0.87586500  1
  Y  Y1_0  1  0.25000000  0.25000000  0.12413500  1
  Y  Y1_1  1  0.25000000  0.25000000  0.62413500  1
  Y  Y1_2  1  0.25000000  0.75000000  0.12413500  1
  Y  Y1_3  1  0.25000000  0.75000000  0.62413500  1
  Y  Y1_4  1  0.75000000  0.25000000  0.12413500  1
  Y  Y1_5  1  0.75000000  0.25000000  0.62413500  1
  Y  Y1_6  1  0.75000000  0.75000000  0.12413500  1
  Y  Y1_7  1  0.75000000  0.75000000  0.62413500  1
  Si  Si0_0  1  0.25000000  0.25000000  0.19354800  1
  Si  Si0_1  1  0.25000000  0.25000000  0.69354800  1
  Si  Si0_2  1  0.25000000  0.75000000  0.19354800  1
  Si  Si0_3  1  0.25000000  0.75000000  0.69354800  1
  Si  Si0_4  1  0.75000000  0.25000000  0.19354800  1
  Si  Si0_5  1  0.75000000  0.25000000  0.69354800  1
  Si  Si0_6  1  0.75000000  0.75000000  0.19354800  1
  Si  Si0_7  1  0.75000000  0.75000000  0.69354800  1
  Si  Si1_0  1  0.25000000  0.25000000  0.30645200  1
  Si  Si1_1  1  0.25000000  0.25000000  0.80645200  1
  Si  Si1_2  1  0.25000000  0.75000000  0.30645200  1
  Si  Si1_3  1  0.25000000  0.75000000  0.80645200  1
  Si  Si1_4  1  0.75000000  0.25000000  0.30645200  1
  Si  Si1_5  1  0.75000000  0.25000000  0.80645200  1
  Si  Si1_6  1  0.75000000  0.75000000  0.30645200  1
  Si  Si1_7  1  0.75000000  0.75000000  0.80645200  1
  Si  Si2_0  1  0.25000000  0.25000000  0.00000000  1
  Si  Si2_1  1  0.25000000  0.25000000  0.50000000  1
  Si  Si2_2  1  0.25000000  0.75000000  0.00000000  1
  Si  Si2_3  1  0.25000000  0.75000000  0.50000000  1
  Si  Si2_4  1  0.75000000  0.25000000  0.00000000  1
  Si  Si2_5  1  0.75000000  0.25000000  0.50000000  1
  Si  Si2_6  1  0.75000000  0.75000000  0.00000000  1
  Si  Si2_7  1  0.75000000  0.75000000  0.50000000  1
  Pt  Pt0_0  1  0.25000000  0.25000000  0.05722450  1
  Pt  Pt0_1  1  0.25000000  0.25000000  0.55722450  1
  Pt  Pt0_2  1  0.25000000  0.75000000  0.05722450  1
  Pt  Pt0_3  1  0.25000000  0.75000000  0.55722450  1
  Pt  Pt0_4  1  0.75000000  0.25000000  0.05722450  1
  Pt  Pt0_5  1  0.75000000  0.25000000  0.55722450  1
  Pt  Pt0_6  1  0.75000000  0.75000000  0.05722450  1
  Pt  Pt0_7  1  0.75000000  0.75000000  0.55722450  1
  Pt  Pt1_0  1  0.25000000  0.25000000  0.44277550  1
  Pt  Pt1_1  1  0.25000000  0.25000000  0.94277550  1
  Pt  Pt1_2  1  0.25000000  0.75000000  0.44277550  1
  Pt  Pt1_3  1  0.25000000  0.75000000  0.94277550  1
  Pt  Pt1_4  1  0.75000000  0.25000000  0.44277550  1
  Pt  Pt1_5  1  0.75000000  0.25000000  0.94277550  1
  Pt  Pt1_6  1  0.75000000  0.75000000  0.44277550  1
  Pt  Pt1_7  1  0.75000000  0.75000000  0.94277550  1
  Pt  Pt2_0  1  0.25000000  0.25000000  0.25000000  1
  Pt  Pt2_1  1  0.25000000  0.25000000  0.75000000  1
  Pt  Pt2_2  1  0.25000000  0.75000000  0.25000000  1
  Pt  Pt2_3  1  0.25000000  0.75000000  0.75000000  1
  Pt  Pt2_4  1  0.75000000  0.25000000  0.25000000  1
  Pt  Pt2_5  1  0.75000000  0.25000000  0.75000000  1
  Pt  Pt2_6  1  0.75000000  0.75000000  0.25000000  1
  Pt  Pt2_7  1  0.75000000  0.75000000  0.75000000  1
loop_
_geom_bond_atom_site_label_1
_geom_bond_atom_site_label_2
_geom_bond_distance
_geom_bond_site_symmetry_2
Y0_0 Y0_4 2.803325 1_555
Y0_0 Y0_2 2.803325 1_545
Y0_0 Y0_2 2.803325 1_555
Y0_0 Y0_4 2.803325 1_455
Y0_1 Y0_3 2.803325 1_555
Y0_1 Y0_5 2.803325 1_455
Y0_1 Y0_5 2.803325 1_555
Y0_1 Y0_3 2.803325 1_545
Y0_2 Y0_6 2.803325 1_455
Y0_2 Y0_6 2.803325 1_555
Y0_3 Y0_7 2.803325 1_555
Y0_3 Y0_7 2.803325 1_455
Y0_4 Y0_6 2.803325 1_545
Y0_4 Y0_6 2.803325 1_555
Y0_5 Y0_7 2.803325 1_545
Y0_5 Y0_7 2.803325 1_555
Y1_0 Y1_2 2.803325 1_555
Y1_0 Y1_2 2.803325 1_545
Y1_0 Y1_4 2.803325 1_455
Y1_0 Y1_4 2.803325 1_555
Y1_1 Y1_5 2.803325 1_555
Y1_1 Y1_3 2.803325 1_555
Y1_1 Y1_3 2.803325 1_545
Y1_1 Y1_5 2.803325 1_455
Y1_2 Y1_6 2.803325 1_555
Y1_2 Y1_6 2.803325 1_455
Y1_3 Y1_7 2.803325 1_455
Y1_3 Y1_7 2.803325 1_555
Y1_4 Y1_6 2.803325 1_545
Y1_4 Y1_6 2.803325 1_555
Y1_5 Y1_7 2.803325 1_545
Y1_5 Y1_7 2.803325 1_555
Si0_0 Y1_0 2.882198 1_555
Si0_1 Y1_1 2.882198 1_555
Si0_2 Y1_2 2.882198 1_555
Si0_3 Y1_3 2.882198 1_555
Si0_4 Y1_4 2.882198 1_555
Si0_5 Y1_5 2.882198 1_555
Si0_6 Y1_6 2.882198 1_555
Si0_7 Y1_7 2.882198 1_555
Si1_0 Y0_0 2.882198 1_555
Si1_1 Y0_1 2.882198 1_555
Si1_2 Y0_2 2.882198 1_555
Si1_3 Y0_3 2.882198 1_555
Si1_4 Y0_4 2.882198 1_555
Si1_5 Y0_5 2.882198 1_555
Si1_6 Y0_6 2.882198 1_555
Si1_7 Y0_7 2.882198 1_555
Pt0_0 Si2_0 2.376102 1_555
Pt0_0 Y1_0 2.778288 1_555
Pt0_1 Si2_1 2.376102 1_555
Pt0_1 Y1_1 2.778288 1_555
Pt0_2 Si2_2 2.376102 1_555
Pt0_2 Y1_2 2.778288 1_555
Pt0_3 Si2_3 2.376102 1_555
Pt0_3 Y1_3 2.778288 1_555
Pt0_4 Si2_4 2.376102 1_555
Pt0_4 Y1_4 2.778288 1_555
Pt0_5 Si2_5 2.376102 1_555
Pt0_5 Y1_5 2.778288 1_555
Pt0_6 Si2_6 2.376102 1_555
Pt0_6 Y1_6 2.778288 1_555
Pt0_7 Si2_7 2.376102 1_555
Pt0_7 Y1_7 2.778288 1_555
Pt1_0 Si2_1 2.376102 1_555
Pt1_0 Y0_0 2.778288 1_555
Pt1_1 Si2_0 2.376102 1_556
Pt1_1 Y0_1 2.778288 1_555
Pt1_2 Si2_3 2.376102 1_555
Pt1_2 Y0_2 2.778288 1_555
Pt1_3 Si2_2 2.376102 1_556
Pt1_3 Y0_3 2.778288 1_555
Pt1_4 Si2_5 2.376102 1_555
Pt1_4 Y0_4 2.778288 1_555
Pt1_5 Si2_4 2.376102 1_556
Pt1_5 Y0_5 2.778288 1_555
Pt1_6 Si2_7 2.376102 1_555
Pt1_6 Y0_6 2.778288 1_555
Pt1_7 Si2_6 2.376102 1_556
Pt1_7 Y0_7 2.778288 1_555
Pt2_0 Si1_0 2.344026 1_555
Pt2_0 Si0_0 2.344026 1_555
Pt2_1 Si1_1 2.344026 1_555
Pt2_1 Si0_1 2.344026 1_555
Pt2_2 Si1_2 2.344026 1_555
Pt2_2 Si0_2 2.344026 1_555
Pt2_3 Si0_3 2.344026 1_555
Pt2_3 Si1_3 2.344026 1_555
Pt2_4 Si0_4 2.344026 1_555
Pt2_4 Si1_4 2.344026 1_555
Pt2_5 Si0_5 2.344026 1_555
Pt2_5 Si1_5 2.344026 1_555
Pt2_6 Si0_6 2.344026 1_555
Pt2_6 Si1_6 2.344026 1_555
Pt2_7 Si1_7 2.344026 1_555
Pt2_7 Si0_7 2.344026 1_555
