# generated using pymatgen
data_Na3Sb3(PO7)2
_symmetry_space_group_name_H-M   'P 1'
_cell_length_a   7.22311634
_cell_length_b   6.29898197
_cell_length_c   12.41012327
_cell_angle_alpha   71.65474831
_cell_angle_beta   90.00000000
_cell_angle_gamma   90.00000000
_symmetry_Int_Tables_number   1
_chemical_formula_structural   Na3Sb3(PO7)2
_chemical_formula_sum   'Na6 Sb6 P4 O28'
_cell_volume   535.94270690
_cell_formula_units_Z   2
loop_
 _symmetry_equiv_pos_site_id
 _symmetry_equiv_pos_as_xyz
  1  'x, y, z'
loop_
 _atom_site_type_symbol
 _atom_site_label
 _atom_site_symmetry_multiplicity
 _atom_site_fract_x
 _atom_site_fract_y
 _atom_site_fract_z
 _atom_site_occupancy
  Na  Na0  1  0.20151364  0.51720774  0.56742224  1
  Na  Na1  1  0.79848636  0.48279226  0.43257776  1
  Na  Na2  1  0.70151364  0.48279226  0.93257776  1
  Na  Na3  1  0.29848636  0.51720774  0.06742224  1
  Na  Na4  1  0.50000000  0.00000000  0.00000000  1
  Na  Na5  1  -0.00000000  0.00000000  0.50000000  1
  Sb  Sb0  1  0.24239480  0.97001128  0.75706241  1
  Sb  Sb1  1  0.75760520  0.02998872  0.24293759  1
  Sb  Sb2  1  0.74239480  0.02998872  0.74293759  1
  Sb  Sb3  1  0.25760520  0.97001128  0.25706241  1
  Sb  Sb4  1  0.50000000  0.00000000  0.50000000  1
  Sb  Sb5  1  -0.00000000  0.00000000  0.00000000  1
  P  P0  1  0.23576081  0.41373210  0.83676611  1
  P  P1  1  0.76423919  0.58626790  0.16323389  1
  P  P2  1  0.73576081  0.58626790  0.66323389  1
  P  P3  1  0.26423919  0.41373210  0.33676611  1
  O  O0  1  0.79971904  0.96199562  0.90354636  1
  O  O1  1  0.20028096  0.03800438  0.09645364  1
  O  O2  1  0.29971904  0.03800438  0.59645364  1
  O  O3  1  0.70028096  0.96199562  0.40354636  1
  O  O4  1  0.49832823  0.92811911  0.80458908  1
  O  O5  1  0.50167177  0.07188089  0.19541092  1
  O  O6  1  0.99832823  0.07188089  0.69541092  1
  O  O7  1  0.00167177  0.92811911  0.30458908  1
  O  O8  1  0.27535246  0.29451102  0.74733997  1
  O  O9  1  0.72464754  0.70548898  0.25266003  1
  O  O10  1  0.77535246  0.70548898  0.75266003  1
  O  O11  1  0.22464754  0.29451102  0.24733997  1
  O  O12  1  0.89202250  0.60815169  0.58156206  1
  O  O13  1  0.10797750  0.39184831  0.41843794  1
  O  O14  1  0.39202250  0.39184831  0.91843794  1
  O  O15  1  0.60797750  0.60815169  0.08156206  1
  O  O16  1  0.95014824  0.68040398  0.10117998  1
  O  O17  1  0.04985176  0.31959602  0.89882002  1
  O  O18  1  0.45014824  0.31959602  0.39882002  1
  O  O19  1  0.54985176  0.68040398  0.60117998  1
  O  O20  1  0.18889229  0.87891125  0.92159448  1
  O  O21  1  0.81110771  0.12108875  0.07840552  1
  O  O22  1  0.68889229  0.12108875  0.57840552  1
  O  O23  1  0.31110771  0.87891125  0.42159448  1
  O  O24  1  0.19410873  0.65514464  0.76150037  1
  O  O25  1  0.80589127  0.34485536  0.23849963  1
  O  O26  1  0.69410873  0.34485536  0.73849963  1
  O  O27  1  0.30589127  0.65514464  0.26150037  1
loop_
_geom_bond_atom_site_label_1
_geom_bond_atom_site_label_2
_geom_bond_distance
_geom_bond_site_symmetry_2
Na0 O8 2.294777 1_555
Na0 O13 2.327553 1_555
Na0 O12 2.328014 1_455
Na0 O23 2.548966 1_555
Na0 O19 2.798931 1_555
Na0 O24 2.806444 1_555
Na1 O9 2.294777 1_555
Na1 O12 2.327553 1_555
Na1 O13 2.328014 1_655
Na1 O22 2.548966 1_555
Na1 O18 2.798931 1_555
Na1 O25 2.806444 1_555
Na2 O10 2.294777 1_555
Na2 O15 2.327553 1_556
Na2 O14 2.328014 1_555
Na2 O21 2.548966 1_556
Na2 O17 2.798931 1_655
Na2 O26 2.806444 1_555
Na3 O11 2.294777 1_555
Na3 O14 2.327553 1_554
Na3 O15 2.328014 1_555
Na3 O20 2.548966 1_554
Na3 O16 2.798931 1_455
Na3 O27 2.806444 1_555
Na4 O15 2.480404 1_545
Na4 O14 2.480404 1_554
Na4 O1 2.521371 1_555
Na4 O0 2.521371 1_544
Na4 O4 2.603328 1_544
Na4 O5 2.603328 1_555
Na4 O20 2.654332 1_544
Na4 O21 2.654332 1_555
Na5 O13 2.480404 1_555
Na5 O12 2.480404 1_445
Na5 O2 2.521371 1_555
Na5 O3 2.521371 1_445
Na5 O7 2.603328 1_545
Na5 O6 2.603328 1_455
Na5 O23 2.654332 1_545
Na5 O22 2.654332 1_455
O0 Sb5 1.939923 1_666
O0 Sb2 1.946859 1_565
O1 Sb5 1.939923 1_555
O1 Sb3 1.946859 1_545
O2 Sb4 1.939923 1_555
O2 Sb0 1.946859 1_545
O3 Sb4 1.939923 1_565
O3 Sb1 1.946859 1_565
O4 Sb0 1.933131 1_555
O4 Sb2 1.948327 1_565
O5 Sb1 1.933131 1_555
O5 Sb3 1.948327 1_545
O6 Sb2 1.933131 1_555
O6 Sb0 1.948327 1_645
O7 Sb3 1.933131 1_555
O7 Sb1 1.948327 1_465
O8 P0 1.549838 1_555
O8 Sb0 2.023362 1_545
O9 P1 1.549838 1_555
O9 Sb1 2.023362 1_565
O10 P2 1.549838 1_555
O10 Sb2 2.023362 1_565
O11 P3 1.549838 1_555
O11 Sb3 2.023362 1_545
O12 P2 1.494091 1_555
O13 P3 1.494091 1_555
O14 P0 1.494091 1_555
O15 P1 1.494091 1_555
O16 P1 1.568577 1_555
O16 Sb5 2.041523 1_665
O17 P0 1.568577 1_555
O17 Sb5 2.041523 1_556
O18 P3 1.568577 1_555
O18 Sb4 2.041523 1_555
O19 P2 1.568577 1_555
O19 Sb4 2.041523 1_565
O20 Sb5 1.963996 1_566
O20 Sb0 1.977442 1_555
O21 Sb5 1.963996 1_655
O21 Sb1 1.977442 1_555
O22 Sb4 1.963996 1_555
O22 Sb2 1.977442 1_555
O23 Sb4 1.963996 1_565
O23 Sb3 1.977442 1_555
O24 P0 1.543133 1_555
O24 Sb0 1.997386 1_555
O25 P1 1.543133 1_555
O25 Sb1 1.997386 1_555
O26 P2 1.543133 1_555
O26 Sb2 1.997386 1_555
O27 P3 1.543133 1_555
O27 Sb3 1.997386 1_555
