# generated using pymatgen
data_Cs2YbCl4
_symmetry_space_group_name_H-M   'P 1'
_cell_length_a   9.39828017
_cell_length_b   9.39828017
_cell_length_c   9.39828017
_cell_angle_alpha   147.72967069
_cell_angle_beta   147.72967069
_cell_angle_gamma   46.28458700
_symmetry_Int_Tables_number   1
_chemical_formula_structural   Cs2YbCl4
_chemical_formula_sum   'Cs2 Yb1 Cl4'
_cell_volume   235.81002638
_cell_formula_units_Z   1
loop_
 _symmetry_equiv_pos_site_id
 _symmetry_equiv_pos_as_xyz
  1  'x, y, z'
loop_
 _atom_site_type_symbol
 _atom_site_label
 _atom_site_symmetry_multiplicity
 _atom_site_fract_x
 _atom_site_fract_y
 _atom_site_fract_z
 _atom_site_occupancy
  Cs  Cs0  1  0.64313067  0.64313067  0.00000000  1
  Cs  Cs1  1  0.35686933  0.35686933  0.00000000  1
  Yb  Yb0  1  0.00000000  0.00000000  0.00000000  1
  Cl  Cl0  1  0.84564861  0.84564861  0.00000000  1
  Cl  Cl1  1  0.15435139  0.15435139  0.00000000  1
  Cl  Cl2  1  0.50000000  0.00000000  0.50000000  1
  Cl  Cl3  1  0.00000000  0.50000000  0.50000000  1
loop_
_geom_bond_atom_site_label_1
_geom_bond_atom_site_label_2
_geom_bond_distance
_geom_bond_site_symmetry_2
Cl0 Yb0 2.667814 1_665
Cl0 Cs0 3.500326 1_555
Cl0 Cs1 3.698762 1_554
Cl0 Cs1 3.698762 1_655
Cl0 Cs1 3.698762 1_565
Cl0 Cs1 3.698762 1_666
Cl1 Yb0 2.667814 1_555
Cl1 Cs1 3.500326 1_555
Cl1 Cs0 3.698762 1_545
Cl1 Cs0 3.698762 1_556
Cl1 Cs0 3.698762 1_455
Cl1 Cs0 3.698762 1_444
Cl2 Yb0 2.611822 1_555
Cl2 Yb0 2.611822 1_656
Cl2 Cs0 3.597454 1_545
Cl2 Cs0 3.597454 1_556
Cl2 Cs1 3.597454 1_545
Cl2 Cs1 3.597454 1_556
Cl3 Yb0 2.611822 1_555
Cl3 Yb0 2.611822 1_566
Cl3 Cs0 3.597454 1_556
Cl3 Cs0 3.597454 1_455
Cl3 Cs1 3.597454 1_556
Cl3 Cs1 3.597454 1_455
