# generated using pymatgen
data_EuDyCr4O12
_symmetry_space_group_name_H-M   'P 1'
_cell_length_a   5.20471412
_cell_length_b   5.20471412
_cell_length_c   7.44242631
_cell_angle_alpha   90.00000000
_cell_angle_beta   90.00000000
_cell_angle_gamma   89.17124817
_symmetry_Int_Tables_number   1
_chemical_formula_structural   EuDyCr4O12
_chemical_formula_sum   'Eu1 Dy1 Cr4 O12'
_cell_volume   201.58716163
_cell_formula_units_Z   1
loop_
 _symmetry_equiv_pos_site_id
 _symmetry_equiv_pos_as_xyz
  1  'x, y, z'
loop_
 _atom_site_type_symbol
 _atom_site_label
 _atom_site_symmetry_multiplicity
 _atom_site_fract_x
 _atom_site_fract_y
 _atom_site_fract_z
 _atom_site_occupancy
  Eu  Eu0  1  0.00748309  0.00748309  -0.00000000  1
  Dy  Dy0  1  0.49307346  0.49307346  0.50000000  1
  Cr  Cr0  1  0.50058456  0.99948309  0.75024585  1
  Cr  Cr1  1  0.50058456  0.99948309  0.24975415  1
  Cr  Cr2  1  0.99948309  0.50058456  0.24975415  1
  Cr  Cr3  1  0.99948309  0.50058456  0.75024585  1
  O  O0  1  0.77590168  0.22392741  0.75088195  1
  O  O1  1  0.22392741  0.77590168  0.75088195  1
  O  O2  1  0.22392741  0.77590168  0.24911805  1
  O  O3  1  0.77590168  0.22392741  0.24911805  1
  O  O4  1  0.72101289  0.72101289  0.72085969  1
  O  O5  1  0.27591064  0.27591064  0.77520569  1
  O  O6  1  0.27591064  0.27591064  0.22479431  1
  O  O7  1  0.72101289  0.72101289  0.27914031  1
  O  O8  1  0.52609061  0.97326789  -0.00000000  1
  O  O9  1  0.47651821  0.03132617  0.50000000  1
  O  O10  1  0.97326789  0.52609061  -0.00000000  1
  O  O11  1  0.03132617  0.47651821  0.50000000  1
loop_
_geom_bond_atom_site_label_1
_geom_bond_atom_site_label_2
_geom_bond_distance
_geom_bond_site_symmetry_2
Eu0 O1 2.473874 1_544
Eu0 O3 2.473874 1_455
Eu0 O0 2.473874 1_454
Eu0 O2 2.473874 1_545
Eu0 O10 2.514399 1_445
Eu0 O8 2.514399 1_445
Eu0 O6 2.599838 1_555
Eu0 O5 2.599838 1_554
Eu0 O8 2.702501 1_545
Eu0 O10 2.702501 1_455
Eu0 O7 2.970921 1_445
Eu0 O4 2.970921 1_444
Dy0 O7 2.357428 1_555
Dy0 O4 2.357428 1_555
Dy0 O9 2.406052 1_555
Dy0 O11 2.406052 1_555
Dy0 O6 2.605205 1_555
Dy0 O5 2.605205 1_555
Dy0 O1 2.748799 1_555
Dy0 O0 2.748799 1_555
Dy0 O2 2.748799 1_555
Dy0 O3 2.748799 1_555
Dy0 O11 2.801530 1_655
Dy0 O9 2.801530 1_565
Cr0 O4 1.848402 1_555
Cr0 O5 1.850185 1_565
Cr0 O0 1.861827 1_565
Cr0 O1 1.864407 1_555
Cr0 O8 1.868359 1_556
Cr0 O9 1.873827 1_565
Cr1 O7 1.848402 1_555
Cr1 O6 1.850185 1_565
Cr1 O3 1.861827 1_565
Cr1 O2 1.864407 1_555
Cr1 O8 1.868359 1_555
Cr1 O9 1.873827 1_565
Cr2 O7 1.848402 1_555
Cr2 O6 1.850185 1_655
Cr2 O2 1.861827 1_655
Cr2 O3 1.864407 1_555
Cr2 O10 1.868359 1_555
Cr2 O11 1.873827 1_655
Cr3 O4 1.848402 1_555
Cr3 O5 1.850185 1_655
Cr3 O1 1.861827 1_655
Cr3 O0 1.864407 1_555
Cr3 O10 1.868359 1_556
Cr3 O11 1.873827 1_655
