# generated using pymatgen
data_NdCrTeO6
_symmetry_space_group_name_H-M   'P 1'
_cell_length_a   5.54969898
_cell_length_b   5.54969898
_cell_length_c   8.49118200
_cell_angle_alpha   90.00000000
_cell_angle_beta   90.00000000
_cell_angle_gamma   119.99998778
_symmetry_Int_Tables_number   1
_chemical_formula_structural   NdCrTeO6
_chemical_formula_sum   'Nd2 Cr2 Te2 O12'
_cell_volume   226.48408449
_cell_formula_units_Z   2
loop_
 _symmetry_equiv_pos_site_id
 _symmetry_equiv_pos_as_xyz
  1  'x, y, z'
loop_
 _atom_site_type_symbol
 _atom_site_label
 _atom_site_symmetry_multiplicity
 _atom_site_fract_x
 _atom_site_fract_y
 _atom_site_fract_z
 _atom_site_occupancy
  Nd  Nd0  1  0.33333300  0.66666700  0.75000000  1
  Nd  Nd1  1  0.66666700  0.33333300  0.25000000  1
  Cr  Cr0  1  0.00000000  0.00000000  0.00000000  1
  Cr  Cr1  1  0.00000000  0.00000000  0.50000000  1
  Te  Te0  1  0.66666700  0.33333300  0.75000000  1
  Te  Te1  1  0.33333300  0.66666700  0.25000000  1
  O  O0  1  0.94332200  0.30106800  0.88034200  1
  O  O1  1  0.05667800  0.69893200  0.11965800  1
  O  O2  1  0.35774600  0.05667800  0.88034200  1
  O  O3  1  0.35774600  0.30106800  0.61965800  1
  O  O4  1  0.64225400  0.94332200  0.11965800  1
  O  O5  1  0.64225400  0.69893200  0.38034200  1
  O  O6  1  0.69893200  0.64225400  0.88034200  1
  O  O7  1  0.69893200  0.05667800  0.61965800  1
  O  O8  1  0.30106800  0.35774600  0.11965800  1
  O  O9  1  0.30106800  0.94332200  0.38034200  1
  O  O10  1  0.94332200  0.64225400  0.61965800  1
  O  O11  1  0.05667800  0.35774600  0.38034200  1
loop_
_geom_bond_atom_site_label_1
_geom_bond_atom_site_label_2
_geom_bond_distance
_geom_bond_site_symmetry_2
Nd0 O2 2.373781 1_565
Nd0 O10 2.373781 1_455
Nd0 O0 2.373783 1_455
Nd0 O7 2.373783 1_565
Nd0 O6 2.373786 1_555
Nd0 O3 2.373786 1_555
Nd1 O11 2.373781 1_655
Nd1 O4 2.373781 1_545
Nd1 O9 2.373783 1_545
Nd1 O1 2.373783 1_655
Nd1 O5 2.373786 1_555
Nd1 O8 2.373786 1_555
Cr0 O1 2.109152 1_545
Cr0 O0 2.109152 1_454
Cr0 O4 2.109152 1_445
Cr0 O2 2.109152 1_554
Cr0 O6 2.109152 1_444
Cr0 O8 2.109152 1_555
Cr1 O7 2.109152 1_455
Cr1 O9 2.109152 1_545
Cr1 O10 2.109152 1_445
Cr1 O11 2.109152 1_555
Cr1 O3 2.109152 1_555
Cr1 O5 2.109152 1_445
O0 Te0 1.972106 1_555
O1 Te1 1.972106 1_555
O2 Te0 1.972109 1_555
O3 Te0 1.972111 1_555
O4 Te1 1.972109 1_555
O5 Te1 1.972111 1_555
O6 Te0 1.972111 1_555
O7 Te0 1.972106 1_555
O8 Te1 1.972111 1_555
O9 Te1 1.972106 1_555
O10 Te0 1.972109 1_555
O11 Te1 1.972109 1_555
