# generated using pymatgen
data_Ba2LaWO6
_symmetry_space_group_name_H-M   'P 1'
_cell_length_a   8.74361836
_cell_length_b   8.74361836
_cell_length_c   8.74361836
_cell_angle_alpha   90.00000000
_cell_angle_beta   90.00000000
_cell_angle_gamma   90.00000000
_symmetry_Int_Tables_number   1
_chemical_formula_structural   Ba2LaWO6
_chemical_formula_sum   'Ba8 La4 W4 O24'
_cell_volume   668.45716084
_cell_formula_units_Z   4
loop_
 _symmetry_equiv_pos_site_id
 _symmetry_equiv_pos_as_xyz
  1  'x, y, z'
loop_
 _atom_site_type_symbol
 _atom_site_label
 _atom_site_symmetry_multiplicity
 _atom_site_fract_x
 _atom_site_fract_y
 _atom_site_fract_z
 _atom_site_occupancy
  Ba  Ba0  1  0.50000000  0.50000000  0.50000000  1
  Ba  Ba1  1  0.00000000  0.00000000  -0.00000000  1
  Ba  Ba2  1  0.00000000  0.00000000  0.50000000  1
  Ba  Ba3  1  0.00000000  0.50000000  -0.00000000  1
  Ba  Ba4  1  0.50000000  0.00000000  -0.00000000  1
  Ba  Ba5  1  0.50000000  0.50000000  -0.00000000  1
  Ba  Ba6  1  0.50000000  0.00000000  0.50000000  1
  Ba  Ba7  1  0.00000000  0.50000000  0.50000000  1
  La  La0  1  0.75000000  0.75000000  0.75000000  1
  La  La1  1  0.75000000  0.25000000  0.25000000  1
  La  La2  1  0.25000000  0.75000000  0.25000000  1
  La  La3  1  0.25000000  0.25000000  0.75000000  1
  W  W0  1  0.25000000  0.25000000  0.25000000  1
  W  W1  1  0.25000000  0.75000000  0.75000000  1
  W  W2  1  0.75000000  0.25000000  0.75000000  1
  W  W3  1  0.75000000  0.75000000  0.25000000  1
  O  O0  1  0.22453877  0.27317307  0.47930450  1
  O  O1  1  0.22453877  0.72682693  0.52069550  1
  O  O2  1  0.77546123  0.27317307  0.52069550  1
  O  O3  1  0.77546123  0.72682693  0.47930450  1
  O  O4  1  0.27317307  0.47930450  0.22453877  1
  O  O5  1  0.72682693  0.52069550  0.22453877  1
  O  O6  1  0.27317307  0.52069550  0.77546123  1
  O  O7  1  0.72682693  0.47930450  0.77546123  1
  O  O8  1  0.47930450  0.22453877  0.27317307  1
  O  O9  1  0.52069550  0.22453877  0.72682693  1
  O  O10  1  0.52069550  0.77546123  0.27317307  1
  O  O11  1  0.47930450  0.77546123  0.72682693  1
  O  O12  1  0.27546123  0.22682693  0.02069550  1
  O  O13  1  0.27546123  0.77317307  0.97930450  1
  O  O14  1  0.72453877  0.22682693  0.97930450  1
  O  O15  1  0.72453877  0.77317307  0.02069550  1
  O  O16  1  0.22682693  0.02069550  0.27546123  1
  O  O17  1  0.77317307  0.97930450  0.27546123  1
  O  O18  1  0.22682693  0.97930450  0.72453877  1
  O  O19  1  0.77317307  0.02069550  0.72453877  1
  O  O20  1  0.02069550  0.27546123  0.22682693  1
  O  O21  1  0.97930450  0.27546123  0.77317307  1
  O  O22  1  0.97930450  0.72453877  0.22682693  1
  O  O23  1  0.02069550  0.72453877  0.77317307  1
loop_
_geom_bond_atom_site_label_1
_geom_bond_atom_site_label_2
_geom_bond_distance
_geom_bond_site_symmetry_2
Ba0 O1 3.125249 1_555
Ba0 O5 3.125249 1_555
Ba0 O6 3.125249 1_555
Ba0 O9 3.125249 1_555
Ba0 O10 3.125249 1_555
Ba0 O2 3.125249 1_555
Ba0 O3 3.125249 1_555
Ba0 O0 3.125249 1_555
Ba0 O11 3.125249 1_555
Ba0 O4 3.125249 1_555
Ba0 O8 3.125249 1_555
Ba0 O7 3.125249 1_555
Ba1 O20 3.125249 1_555
Ba1 O23 3.125249 1_544
Ba1 O19 3.125249 1_454
Ba1 O15 3.125249 1_445
Ba1 O16 3.125249 1_555
Ba1 O12 3.125249 1_555
Ba1 O22 3.125249 1_445
Ba1 O13 3.125249 1_544
Ba1 O17 3.125249 1_445
Ba1 O14 3.125249 1_454
Ba1 O21 3.125249 1_454
Ba1 O18 3.125249 1_544
Ba2 O19 2.796542 1_455
Ba2 O16 2.796542 1_555
Ba2 O18 2.796542 1_545
Ba2 O17 2.796542 1_445
Ba2 O1 3.097136 1_545
Ba2 O2 3.097136 1_455
Ba2 O0 3.097136 1_555
Ba2 O3 3.097136 1_445
Ba2 O20 3.396879 1_555
Ba2 O23 3.396879 1_545
Ba2 O22 3.396879 1_445
Ba2 O21 3.396879 1_455
Ba3 O20 2.796542 1_555
Ba3 O23 2.796542 1_554
Ba3 O22 2.796542 1_455
Ba3 O21 2.796542 1_454
Ba3 O5 3.097136 1_455
Ba3 O6 3.097136 1_554
Ba3 O7 3.097136 1_454
Ba3 O4 3.097136 1_555
Ba3 O15 3.396879 1_455
Ba3 O12 3.396879 1_555
Ba3 O13 3.396879 1_554
Ba3 O14 3.396879 1_454
Ba4 O12 2.796542 1_555
Ba4 O15 2.796542 1_545
Ba4 O13 2.796542 1_544
Ba4 O14 2.796542 1_554
Ba4 O9 3.097136 1_554
Ba4 O10 3.097136 1_545
Ba4 O8 3.097136 1_555
Ba4 O11 3.097136 1_544
Ba4 O19 3.396879 1_554
Ba4 O16 3.396879 1_555
Ba4 O17 3.396879 1_545
Ba4 O18 3.396879 1_544
Ba5 O5 2.796542 1_555
Ba5 O6 2.796542 1_554
Ba5 O7 2.796542 1_554
Ba5 O4 2.796542 1_555
Ba5 O15 3.097136 1_555
Ba5 O12 3.097136 1_555
Ba5 O13 3.097136 1_554
Ba5 O14 3.097136 1_554
Ba5 O9 3.396879 1_554
Ba5 O10 3.396879 1_555
Ba5 O11 3.396879 1_554
Ba5 O8 3.396879 1_555
Ba6 O10 2.796542 1_545
Ba6 O9 2.796542 1_555
Ba6 O8 2.796542 1_555
Ba6 O11 2.796542 1_545
Ba6 O19 3.097136 1_555
Ba6 O16 3.097136 1_555
Ba6 O18 3.097136 1_545
Ba6 O17 3.097136 1_545
Ba6 O1 3.396879 1_545
Ba6 O2 3.396879 1_555
Ba6 O0 3.396879 1_555
Ba6 O3 3.396879 1_545
Ba7 O1 2.796542 1_555
Ba7 O2 2.796542 1_455
Ba7 O3 2.796542 1_455
Ba7 O0 2.796542 1_555
Ba7 O20 3.097136 1_555
Ba7 O23 3.097136 1_555
Ba7 O22 3.097136 1_455
Ba7 O21 3.097136 1_455
Ba7 O5 3.396879 1_455
Ba7 O6 3.396879 1_555
Ba7 O7 3.396879 1_455
Ba7 O4 3.396879 1_555
La0 O15 2.385924 1_556
La0 O19 2.385924 1_565
La0 O23 2.385924 1_655
La0 O3 2.385924 1_555
La0 O11 2.385924 1_555
La0 O7 2.385924 1_555
La1 O20 2.385924 1_655
La1 O5 2.385924 1_555
La1 O2 2.385924 1_555
La1 O14 2.385924 1_554
La1 O8 2.385924 1_555
La1 O17 2.385924 1_545
La2 O10 2.385924 1_555
La2 O1 2.385924 1_555
La2 O16 2.385924 1_565
La2 O13 2.385924 1_554
La2 O4 2.385924 1_555
La2 O22 2.385924 1_455
La3 O12 2.385924 1_556
La3 O6 2.385924 1_555
La3 O9 2.385924 1_555
La3 O0 2.385924 1_555
La3 O18 2.385924 1_545
La3 O21 2.385924 1_455
O0 W0 2.027423 1_555
O1 W1 2.027423 1_555
O2 W2 2.027423 1_555
O3 W3 2.027423 1_555
O4 W0 2.027423 1_555
O5 W3 2.027423 1_555
O6 W1 2.027423 1_555
O7 W2 2.027423 1_555
O8 W0 2.027423 1_555
O9 W2 2.027423 1_555
O10 W3 2.027423 1_555
O11 W1 2.027423 1_555
O12 W0 2.027423 1_555
O13 W1 2.027423 1_555
O14 W2 2.027423 1_555
O15 W3 2.027423 1_555
O16 W0 2.027423 1_555
O17 W3 2.027423 1_555
O18 W1 2.027423 1_555
O19 W2 2.027423 1_555
O20 W0 2.027423 1_555
O21 W2 2.027423 1_555
O22 W3 2.027423 1_555
O23 W1 2.027423 1_555
