# generated using pymatgen
data_Mg14TiSi
_symmetry_space_group_name_H-M   'P 1'
_cell_length_a   6.26357074
_cell_length_b   6.26357026
_cell_length_c   10.23492923
_cell_angle_alpha   90.00000000
_cell_angle_beta   90.00000000
_cell_angle_gamma   120.00000256
_symmetry_Int_Tables_number   1
_chemical_formula_structural   Mg14TiSi
_chemical_formula_sum   'Mg14 Ti1 Si1'
_cell_volume   347.74380695
_cell_formula_units_Z   1
loop_
 _symmetry_equiv_pos_site_id
 _symmetry_equiv_pos_as_xyz
  1  'x, y, z'
loop_
 _atom_site_type_symbol
 _atom_site_label
 _atom_site_symmetry_multiplicity
 _atom_site_fract_x
 _atom_site_fract_y
 _atom_site_fract_z
 _atom_site_occupancy
  Mg  Mg0  1  0.17032959  0.83516429  0.12500000  1
  Mg  Mg1  1  0.16447212  0.83223556  0.62500000  1
  Mg  Mg2  1  0.66483571  0.32967041  0.12500000  1
  Mg  Mg3  1  0.66776444  0.33552788  0.62500000  1
  Mg  Mg4  1  0.66483571  0.83516429  0.12500000  1
  Mg  Mg5  1  0.66776444  0.83223556  0.62500000  1
  Mg  Mg6  1  0.32849197  0.17150803  0.37603628  1
  Mg  Mg7  1  0.32849197  0.17150803  0.87396372  1
  Mg  Mg8  1  0.32849197  0.65698494  0.37603628  1
  Mg  Mg9  1  0.32849197  0.65698494  0.87396372  1
  Mg  Mg10  1  0.84301506  0.17150803  0.37603628  1
  Mg  Mg11  1  0.84301506  0.17150803  0.87396372  1
  Mg  Mg12  1  0.83333300  0.66666700  0.37046897  1
  Mg  Mg13  1  0.83333300  0.66666700  0.87953103  1
  Ti  Ti0  1  0.16666700  0.33333300  0.12500000  1
  Si  Si0  1  0.16666700  0.33333300  0.62500000  1
loop_
_geom_bond_atom_site_label_1
_geom_bond_atom_site_label_2
_geom_bond_distance
_geom_bond_site_symmetry_2
Mg0 Mg2 3.097374 1_565
Mg0 Mg4 3.097374 1_555
Mg0 Mg12 3.107017 1_455
Mg0 Mg13 3.107017 1_454
Mg0 Ti0 3.131848 1_555
Mg0 Ti0 3.131848 1_565
Mg0 Mg8 3.151836 1_555
Mg0 Mg9 3.151836 1_554
Mg0 Mg7 3.151842 1_564
Mg0 Mg6 3.151842 1_565
Mg0 Mg2 3.166196 1_455
Mg0 Mg4 3.166197 1_455
Mg1 Mg3 3.111163 1_455
Mg1 Mg5 3.111164 1_455
Mg1 Si0 3.131808 1_565
Mg1 Si0 3.131808 1_555
Mg1 Mg9 3.143413 1_555
Mg1 Mg8 3.143413 1_555
Mg1 Mg7 3.143419 1_565
Mg1 Mg6 3.143419 1_565
Mg1 Mg3 3.152407 1_565
Mg1 Mg5 3.152407 1_555
Mg1 Mg13 3.164339 1_455
Mg1 Mg12 3.164339 1_455
Mg2 Mg4 3.097374 1_545
Mg2 Ti0 3.131848 1_655
Mg2 Ti0 3.131848 1_555
Mg2 Mg7 3.151842 1_554
Mg2 Mg6 3.151842 1_555
Mg2 Mg4 3.166196 1_555
Mg3 Mg5 3.111163 1_555
Mg3 Si0 3.131808 1_655
Mg3 Si0 3.131808 1_555
Mg3 Mg6 3.143419 1_555
Mg3 Mg7 3.143419 1_555
Mg3 Mg5 3.152407 1_545
Mg4 Ti0 3.131848 1_555
Mg4 Ti0 3.131848 1_665
Mg4 Mg8 3.151842 1_555
Mg4 Mg9 3.151842 1_554
Mg5 Si0 3.131808 1_665
Mg5 Si0 3.131808 1_555
Mg5 Mg8 3.143419 1_555
Mg5 Mg9 3.143419 1_555
Mg6 Mg8 3.040819 1_555
Mg6 Si0 3.094368 1_555
Mg6 Ti0 3.111859 1_555
Mg6 Mg8 3.222752 1_545
Mg7 Mg9 3.040819 1_555
Mg7 Si0 3.094368 1_555
Mg7 Ti0 3.111859 1_556
Mg7 Mg9 3.222752 1_545
Mg8 Si0 3.094374 1_555
Mg8 Ti0 3.111865 1_555
Mg9 Si0 3.094374 1_555
Mg9 Ti0 3.111865 1_556
Mg10 Mg8 3.040819 1_655
Mg10 Mg6 3.040819 1_655
Mg10 Si0 3.094374 1_655
Mg10 Ti0 3.111865 1_655
Mg10 Mg12 3.132744 1_545
Mg10 Mg12 3.132744 1_555
Mg10 Mg3 3.143413 1_555
Mg10 Mg5 3.143419 1_545
Mg10 Mg2 3.151836 1_555
Mg10 Mg4 3.151842 1_545
Mg10 Mg8 3.222752 1_545
Mg10 Mg6 3.222752 1_555
Mg11 Mg9 3.040819 1_655
Mg11 Mg7 3.040819 1_655
Mg11 Si0 3.094374 1_655
Mg11 Ti0 3.111865 1_656
Mg11 Mg13 3.132744 1_545
Mg11 Mg13 3.132744 1_555
Mg11 Mg3 3.143413 1_555
Mg11 Mg5 3.143419 1_545
Mg11 Mg2 3.151836 1_556
Mg11 Mg4 3.151842 1_546
Mg11 Mg9 3.222752 1_545
Mg11 Mg7 3.222752 1_555
Mg12 Mg4 3.107010 1_555
Mg12 Mg2 3.107017 1_555
Mg12 Mg6 3.132744 1_665
Mg12 Mg6 3.132744 1_555
Mg12 Mg8 3.132744 1_555
Mg12 Mg8 3.132744 1_655
Mg12 Mg5 3.164333 1_555
Mg12 Mg3 3.164339 1_555
Mg13 Mg4 3.107010 1_556
Mg13 Mg2 3.107017 1_556
Mg13 Mg7 3.132744 1_665
Mg13 Mg7 3.132744 1_555
Mg13 Mg9 3.132744 1_555
Mg13 Mg9 3.132744 1_655
Mg13 Mg5 3.164333 1_555
Mg13 Mg3 3.164339 1_555
