# generated using pymatgen
data_Mg5Bi
_symmetry_space_group_name_H-M   'P 1'
_cell_length_a   5.81842177
_cell_length_b   5.81842177
_cell_length_c   5.05577900
_cell_angle_alpha   90.00000000
_cell_angle_beta   90.00000000
_cell_angle_gamma   119.99999742
_symmetry_Int_Tables_number   1
_chemical_formula_structural   Mg5Bi
_chemical_formula_sum   'Mg5 Bi1'
_cell_volume   148.22761613
_cell_formula_units_Z   1
loop_
 _symmetry_equiv_pos_site_id
 _symmetry_equiv_pos_as_xyz
  1  'x, y, z'
loop_
 _atom_site_type_symbol
 _atom_site_label
 _atom_site_symmetry_multiplicity
 _atom_site_fract_x
 _atom_site_fract_y
 _atom_site_fract_z
 _atom_site_occupancy
  Mg  Mg0  1  0.00000000  0.34663600  0.00000000  1
  Mg  Mg1  1  0.65336400  0.65336400  0.00000000  1
  Mg  Mg2  1  0.34663600  0.00000000  0.00000000  1
  Mg  Mg3  1  0.66666700  0.33333300  0.50000000  1
  Mg  Mg4  1  0.33333300  0.66666700  0.50000000  1
  Bi  Bi0  1  0.00000000  0.00000000  0.50000000  1
loop_
_geom_bond_atom_site_label_1
_geom_bond_atom_site_label_2
_geom_bond_distance
_geom_bond_site_symmetry_2
Mg0 Mg3 3.163487 1_454
Mg0 Mg3 3.163487 1_455
Mg0 Mg4 3.163488 1_554
Mg0 Mg4 3.163488 1_555
Mg1 Mg3 3.163490 1_554
Mg1 Mg4 3.163490 1_554
Mg1 Mg3 3.163490 1_555
Mg1 Mg4 3.163490 1_555
Mg2 Mg4 3.163487 1_545
Mg2 Mg4 3.163487 1_544
Mg2 Mg3 3.163488 1_554
Mg2 Mg3 3.163488 1_555
Mg3 Mg4 3.359264 1_545
Mg3 Mg4 3.359264 1_655
Mg3 Mg4 3.359274 1_555
Bi0 Mg2 3.233884 1_556
Bi0 Mg2 3.233884 1_555
Bi0 Mg0 3.233884 1_555
Bi0 Mg0 3.233884 1_556
Bi0 Mg1 3.233884 1_446
Bi0 Mg1 3.233884 1_445
Bi0 Mg3 3.359264 1_455
Bi0 Mg4 3.359264 1_545
Bi0 Mg3 3.359269 1_555
Bi0 Mg3 3.359269 1_445
Bi0 Mg4 3.359269 1_555
Bi0 Mg4 3.359269 1_445
