# generated using pymatgen
data_Li4V3P8O29
_symmetry_space_group_name_H-M   'P 1'
_cell_length_a   9.76501800
_cell_length_b   9.79651210
_cell_length_c   14.26687028
_cell_angle_alpha   90.66226157
_cell_angle_beta   89.74035253
_cell_angle_gamma   119.63949537
_symmetry_Int_Tables_number   1
_chemical_formula_structural   Li4V3P8O29
_chemical_formula_sum   'Li8 V6 P16 O58'
_cell_volume   1186.15290340
_cell_formula_units_Z   2
loop_
 _symmetry_equiv_pos_site_id
 _symmetry_equiv_pos_as_xyz
  1  'x, y, z'
loop_
 _atom_site_type_symbol
 _atom_site_label
 _atom_site_symmetry_multiplicity
 _atom_site_fract_x
 _atom_site_fract_y
 _atom_site_fract_z
 _atom_site_occupancy
  Li  Li0  1  0.30700900  0.08346800  0.94466700  1
  Li  Li1  1  0.91824800  0.22346300  0.94378500  1
  Li  Li2  1  0.77664500  0.68514800  0.94280900  1
  Li  Li3  1  0.08446800  0.31682800  0.55822400  1
  Li  Li4  1  0.90491400  0.67283300  0.43798700  1
  Li  Li5  1  0.33869300  0.66935900  0.39310100  1
  Li  Li6  1  0.68079100  0.90890800  0.06068500  1
  Li  Li7  1  0.00606500  0.99535000  0.49319100  1
  V  V0  1  0.99976200  0.43424300  0.75262800  1
  V  V1  1  0.00352900  0.56817600  0.24538400  1
  V  V2  1  0.43293400  0.42654800  0.24777900  1
  V  V3  1  0.56120700  0.56440300  0.74507500  1
  V  V4  1  0.43497500  0.99913100  0.74146400  1
  V  V5  1  0.56841300  0.00573700  0.25987000  1
  P  P0  1  0.31564700  0.08156500  0.15991000  1
  P  P1  1  0.30525400  0.22325900  0.65949700  1
  P  P2  1  0.78059900  0.08307900  0.65945400  1
  P  P3  1  0.66085600  0.32987700  0.86595300  1
  P  P4  1  0.67111400  0.34215100  0.37018700  1
  P  P5  1  0.90711200  0.22723900  0.16214300  1
  P  P6  1  0.09277400  0.31790400  0.34065400  1
  P  P7  1  0.76814100  0.68217000  0.15620900  1
  P  P8  1  0.23274300  0.31806100  0.84417000  1
  P  P9  1  0.91149600  0.68290200  0.65550400  1
  P  P10  1  0.08884400  0.77555100  0.83439400  1
  P  P11  1  0.33202200  0.66318400  0.62893700  1
  P  P12  1  0.34206000  0.67035600  0.13390700  1
  P  P13  1  0.21728000  0.91450700  0.34237700  1
  P  P14  1  0.69018800  0.77749300  0.33871700  1
  P  P15  1  0.67912800  0.91139800  0.84087100  1
  O  O0  1  0.20494400  0.00431700  0.42270300  1
  O  O1  1  0.34413100  0.08731400  0.66501600  1
  O  O2  1  0.24809300  0.23940700  0.92805200  1
  O  O3  1  0.34101400  0.25168600  0.16980700  1
  O  O4  1  0.47484900  0.09095100  0.18560000  1
  O  O5  1  0.51669100  0.17967300  0.81950500  1
  O  O6  1  0.61917100  0.08129600  0.67066200  1
  O  O7  1  0.75104900  0.99591000  0.93137900  1
  O  O8  1  0.74032700  0.07630000  0.17056400  1
  O  O9  1  0.52549400  0.34139300  0.32251600  1
  O  O10  1  0.46339300  0.38231900  0.66973600  1
  O  O11  1  0.66807100  0.18927600  0.32704800  1
  O  O12  1  0.64783900  0.32726500  0.96978300  1
  O  O13  1  0.66369200  0.33870700  0.47362000  1
  O  O14  1  0.81379400  0.32936700  0.83169100  1
  O  O15  1  0.61663100  0.52461800  0.17819600  1
  O  O16  1  0.65883400  0.47650800  0.82267900  1
  O  O17  1  0.91645700  0.25676000  0.66742100  1
  O  O18  1  0.00215700  0.21153400  0.25031900  1
  O  O19  1  0.02066600  0.23356100  0.42931400  1
  O  O20  1  0.98031600  0.22613900  0.07113300  1
  O  O21  1  0.89117600  0.37396200  0.17984600  1
  O  O22  1  0.82180900  0.48894100  0.33192900  1
  O  O23  1  0.08547100  0.33904000  0.84313200  1
  O  O24  1  0.91061500  0.52833900  0.67012800  1
  O  O25  1  0.74106700  0.65521800  0.67455900  1
  O  O26  1  0.20784500  0.20731800  0.75308200  1
  O  O27  1  0.20676800  0.21065300  0.57744700  1
  O  O28  1  0.79925600  0.79374900  0.41588700  1
  O  O29  1  0.26418400  0.34659000  0.33060900  1
  O  O30  1  0.10421900  0.48077900  0.33125200  1
  O  O31  1  0.91012300  0.65829600  0.16150200  1
  O  O32  1  0.18578400  0.51170200  0.66334700  1
  O  O33  1  0.09734700  0.62157800  0.81956100  1
  O  O34  1  0.99357900  0.76926200  0.91692000  1
  O  O35  1  0.97073700  0.76235400  0.56396500  1
  O  O36  1  0.01454400  0.80017000  0.73914300  1
  O  O37  1  0.08227200  0.74241300  0.34002800  1
  O  O38  1  0.34530000  0.52595300  0.18009400  1
  O  O39  1  0.38134400  0.47789300  0.82082900  1
  O  O40  1  0.18763500  0.66198700  0.17562700  1
  O  O41  1  0.35241500  0.67236700  0.03055100  1
  O  O42  1  0.34287000  0.66989300  0.52464600  1
  O  O43  1  0.33120700  0.81247700  0.67199600  1
  O  O44  1  0.52837800  0.62478600  0.33355200  1
  O  O45  1  0.48217500  0.66804700  0.67450200  1
  O  O46  1  0.25867300  0.91863800  0.83460400  1
  O  O47  1  0.19961400  0.98533500  0.24341700  1
  O  O48  1  0.25308600  0.00852100  0.06766500  1
  O  O49  1  0.37605900  0.90783900  0.33331200  1
  O  O50  1  0.48507300  0.82052200  0.17941300  1
  O  O51  1  0.52112100  0.90506800  0.81863300  1
  O  O52  1  0.65795500  0.74389100  0.83833700  1
  O  O53  1  0.75099400  0.75193900  0.06674800  1
  O  O54  1  0.78076600  0.79873100  0.24036800  1
  O  O55  1  0.65351600  0.91620600  0.33904200  1
  O  O56  1  0.79866700  0.00348900  0.57597800  1
  O  O57  1  0.79554700  0.00516800  0.75612800  1
loop_
_geom_bond_atom_site_label_1
_geom_bond_atom_site_label_2
_geom_bond_distance
_geom_bond_site_symmetry_2
Li0 O48 1.880073 1_556
Li0 O2 1.897318 1_555
Li0 O46 2.119006 1_545
Li0 O5 2.523173 1_555
Li1 O20 1.913681 1_556
Li1 O7 2.014960 1_545
Li1 O23 2.048952 1_655
Li1 O14 2.402943 1_555
Li2 O34 1.891118 1_555
Li2 O53 1.936189 1_556
Li2 O52 2.142713 1_555
Li2 O16 2.459619 1_555
Li3 O27 1.954887 1_555
Li3 O19 1.977132 1_555
Li3 O17 2.123235 1_455
Li3 O32 2.225281 1_555
Li4 O28 1.946151 1_555
Li4 O35 1.956803 1_555
Li4 O37 2.061495 1_655
Li4 O22 2.166936 1_555
Li5 O42 1.877254 1_555
Li5 O44 2.262859 1_555
Li5 O30 2.287122 1_555
Li5 O49 2.349258 1_555
Li6 O53 1.971900 1_555
Li6 O7 2.011692 1_554
Li6 O8 2.119072 1_565
Li6 O50 2.374739 1_555
Li7 O0 2.146211 1_565
Li7 O28 2.284774 1_455
Li7 O27 2.368320 1_565
Li7 O35 2.370626 1_455
Li7 O56 2.374628 1_465
Li7 O19 2.452671 1_565
O0 P13 1.477223 1_545
O1 P1 1.557802 1_555
O1 V4 1.873855 1_545
O2 P8 1.478358 1_555
O3 P0 1.563772 1_555
O3 V2 1.849815 1_555
O4 P0 1.556471 1_555
O4 V5 1.854190 1_555
O5 P3 1.588465 1_555
O5 V4 1.889772 1_545
O6 P2 1.575212 1_555
O6 V4 1.863820 1_545
O7 P15 1.501485 1_555
O8 P5 1.572836 1_555
O8 V5 1.942315 1_555
O9 P4 1.575706 1_555
O9 V2 1.850639 1_555
O10 P1 1.565522 1_555
O10 V3 1.878648 1_555
O11 P4 1.599201 1_555
O11 V5 1.826610 1_555
O12 P3 1.485631 1_555
O13 P4 1.477072 1_555
O14 P3 1.571636 1_555
O14 V0 1.946417 1_555
O15 P7 1.554977 1_555
O15 V2 1.851382 1_555
O16 P3 1.579136 1_555
O16 V3 1.928628 1_555
O17 P2 1.559553 1_555
O17 V0 1.929712 1_555
O18 P6 1.611568 1_555
O18 P5 1.619850 1_455
O19 P6 1.489676 1_555
O20 P5 1.481860 1_555
O21 P5 1.538355 1_555
O21 V1 1.897752 1_655
O22 P4 1.564970 1_555
O22 V1 1.978850 1_655
O23 P8 1.550235 1_555
O23 V0 2.011779 1_455
O24 P9 1.526677 1_555
O24 V0 1.954733 1_555
O25 P9 1.571095 1_555
O25 V3 1.829625 1_555
O26 P1 1.599444 1_555
O26 P8 1.623052 1_555
O27 P1 1.483186 1_555
O28 P14 1.486827 1_555
O29 P6 1.560353 1_555
O29 V2 1.858094 1_555
O30 P6 1.550767 1_555
O30 V1 2.017031 1_555
O31 P7 1.518140 1_555
O31 V1 1.968339 1_655
O32 P11 1.548203 1_555
O32 V0 2.033714 1_455
O33 P10 1.563100 1_555
O33 V0 1.850947 1_455
O34 P10 1.480031 1_655
O35 P9 1.489077 1_555
O36 P9 1.609980 1_455
O36 P10 1.618909 1_555
O37 P13 1.543448 1_555
O37 V1 1.996500 1_555
O38 P12 1.581909 1_555
O38 V2 1.861880 1_555
O39 P8 1.558410 1_555
O39 V3 1.871589 1_555
O40 P12 1.582929 1_555
O40 V1 1.854152 1_555
O41 P12 1.477264 1_555
O42 P11 1.491091 1_555
O43 P11 1.583415 1_555
O43 V4 1.867410 1_555
O44 P14 1.549388 1_555
O44 V2 2.074318 1_555
O45 P11 1.585425 1_555
O45 V3 1.856342 1_555
O46 P10 1.554297 1_555
O46 V4 2.003046 1_555
O47 P0 1.596614 1_565
O47 P13 1.627199 1_555
O48 P0 1.473220 1_555
O49 P13 1.588441 1_555
O49 V5 1.941503 1_565
O50 P12 1.577992 1_555
O50 V5 1.942157 1_565
O51 P15 1.547423 1_555
O51 V4 1.888772 1_555
O52 P15 1.549194 1_555
O52 V3 2.017174 1_555
O53 P7 1.503167 1_555
O54 P7 1.609711 1_555
O54 P14 1.614895 1_555
O55 P14 1.567173 1_555
O55 V5 1.867646 1_565
O56 P2 1.473127 1_555
O57 P15 1.605701 1_545
O57 P2 1.625580 1_555
