# generated using pymatgen
data_Mg6FeSn
_symmetry_space_group_name_H-M   'P 1'
_cell_length_a   4.95563800
_cell_length_b   6.22837200
_cell_length_c   10.83512800
_cell_angle_alpha   90.00000000
_cell_angle_beta   90.00000000
_cell_angle_gamma   90.00000000
_symmetry_Int_Tables_number   1
_chemical_formula_structural   Mg6FeSn
_chemical_formula_sum   'Mg12 Fe2 Sn2'
_cell_volume   334.43226047
_cell_formula_units_Z   2
loop_
 _symmetry_equiv_pos_site_id
 _symmetry_equiv_pos_as_xyz
  1  'x, y, z'
loop_
 _atom_site_type_symbol
 _atom_site_label
 _atom_site_symmetry_multiplicity
 _atom_site_fract_x
 _atom_site_fract_y
 _atom_site_fract_z
 _atom_site_occupancy
  Mg  Mg0  1  0.50000000  0.24879700  0.41627300  1
  Mg  Mg1  1  0.50000000  0.75120300  0.41627300  1
  Mg  Mg2  1  0.00000000  0.76386000  0.08542200  1
  Mg  Mg3  1  0.00000000  0.23614000  0.08542200  1
  Mg  Mg4  1  0.00000000  0.00000000  0.32641000  1
  Mg  Mg5  1  0.00000000  0.50000000  0.33574000  1
  Mg  Mg6  1  0.50000000  0.74879700  0.91627300  1
  Mg  Mg7  1  0.50000000  0.25120300  0.91627300  1
  Mg  Mg8  1  0.00000000  0.26386000  0.58542200  1
  Mg  Mg9  1  0.00000000  0.73614000  0.58542200  1
  Mg  Mg10  1  0.00000000  0.50000000  0.82641000  1
  Mg  Mg11  1  0.00000000  0.00000000  0.83574000  1
  Fe  Fe0  1  0.50000000  0.00000000  0.16671000  1
  Fe  Fe1  1  0.50000000  0.50000000  0.66671000  1
  Sn  Sn0  1  0.50000000  0.50000000  0.16774600  1
  Sn  Sn1  1  0.50000000  0.00000000  0.66774600  1
loop_
_geom_bond_atom_site_label_1
_geom_bond_atom_site_label_2
_geom_bond_distance
_geom_bond_site_symmetry_2
Mg0 Mg5 3.057600 1_655
Mg0 Mg5 3.057600 1_555
Mg0 Mg4 3.080405 1_655
Mg0 Mg4 3.080405 1_555
Mg0 Mg8 3.083402 1_555
Mg0 Mg8 3.083402 1_655
Mg0 Mg1 3.099201 1_545
Mg0 Sn0 3.114357 1_555
Mg0 Mg1 3.129171 1_555
Mg0 Sn1 3.134562 1_555
Mg1 Mg5 3.057600 1_655
Mg1 Mg5 3.057600 1_555
Mg1 Mg4 3.080405 1_565
Mg1 Mg4 3.080405 1_665
Mg1 Mg9 3.083402 1_655
Mg1 Mg9 3.083402 1_555
Mg1 Sn0 3.114357 1_555
Mg1 Sn1 3.134562 1_565
Mg2 Mg3 2.941536 1_565
Mg2 Mg4 2.996863 1_565
Mg2 Mg6 3.083402 1_554
Mg2 Mg6 3.083402 1_454
Mg2 Sn0 3.104200 1_555
Mg2 Sn0 3.104200 1_455
Mg2 Mg5 3.171278 1_555
Mg2 Mg3 3.286836 1_555
Mg3 Mg4 2.996863 1_555
Mg3 Mg7 3.083402 1_454
Mg3 Mg7 3.083402 1_554
Mg3 Sn0 3.104200 1_555
Mg3 Sn0 3.104200 1_455
Mg3 Mg5 3.171278 1_555
Mg4 Mg5 3.115826 1_545
Mg4 Mg5 3.115826 1_555
Mg4 Mg9 3.252209 1_545
Mg4 Mg8 3.252209 1_555
Mg5 Sn0 3.074548 1_455
Mg5 Sn0 3.074548 1_555
Mg5 Mg8 3.079286 1_555
Mg5 Mg9 3.079286 1_555
Mg6 Mg7 3.099201 1_555
Mg6 Sn1 3.114357 1_565
Mg6 Mg7 3.129171 1_565
Mg6 Sn0 3.134562 1_556
Mg7 Sn1 3.114357 1_555
Mg7 Sn0 3.134562 1_556
Mg8 Mg9 2.941536 1_555
Mg8 Sn1 3.104200 1_455
Mg8 Sn1 3.104200 1_555
Mg8 Mg9 3.286836 1_545
Mg9 Sn1 3.104200 1_465
Mg9 Sn1 3.104200 1_565
Mg10 Mg8 2.996863 1_555
Mg10 Mg9 2.996863 1_555
Mg10 Mg6 3.080405 1_455
Mg10 Mg6 3.080405 1_555
Mg10 Mg7 3.080405 1_455
Mg10 Mg7 3.080405 1_555
Mg10 Mg11 3.115826 1_565
Mg10 Mg11 3.115826 1_555
Mg10 Mg3 3.252209 1_556
Mg10 Mg2 3.252209 1_556
Mg11 Mg7 3.057600 1_555
Mg11 Mg7 3.057600 1_455
Mg11 Mg6 3.057600 1_545
Mg11 Mg6 3.057600 1_445
Mg11 Sn1 3.074548 1_555
Mg11 Sn1 3.074548 1_455
Mg11 Mg2 3.079286 1_546
Mg11 Mg3 3.079286 1_556
Mg11 Mg9 3.171278 1_545
Mg11 Mg8 3.171278 1_555
Fe0 Mg2 3.013054 1_545
Fe0 Mg3 3.013054 1_555
Fe0 Mg3 3.013054 1_655
Fe0 Mg2 3.013054 1_645
Fe0 Mg4 3.022212 1_555
Fe0 Mg4 3.022212 1_655
Fe0 Sn0 3.114206 1_545
Fe0 Sn0 3.114206 1_555
Fe0 Mg0 3.116590 1_555
Fe0 Mg1 3.116590 1_545
Fe0 Mg7 3.132268 1_554
Fe0 Mg6 3.132268 1_544
Fe1 Mg8 3.013054 1_655
Fe1 Mg9 3.013054 1_555
Fe1 Mg9 3.013054 1_655
Fe1 Mg8 3.013054 1_555
Fe1 Mg10 3.022212 1_555
Fe1 Mg10 3.022212 1_655
Fe1 Sn1 3.114206 1_555
Fe1 Sn1 3.114206 1_565
Fe1 Mg6 3.116590 1_555
Fe1 Mg7 3.116590 1_555
Fe1 Mg1 3.132268 1_555
Fe1 Mg0 3.132268 1_555
