# generated using pymatgen
data_Sr2CaN2
_symmetry_space_group_name_H-M   'P 1'
_cell_length_a   7.08536959
_cell_length_b   13.45748237
_cell_length_c   18.67841400
_cell_angle_alpha   90.00000000
_cell_angle_beta   90.00000000
_cell_angle_gamma   18.25588629
_symmetry_Int_Tables_number   1
_chemical_formula_structural   Sr2CaN2
_chemical_formula_sum   'Sr8 Ca4 N8'
_cell_volume   557.92159525
_cell_formula_units_Z   4
loop_
 _symmetry_equiv_pos_site_id
 _symmetry_equiv_pos_as_xyz
  1  'x, y, z'
loop_
 _atom_site_type_symbol
 _atom_site_label
 _atom_site_symmetry_multiplicity
 _atom_site_fract_x
 _atom_site_fract_y
 _atom_site_fract_z
 _atom_site_occupancy
  Sr  Sr0  1  0.00000000  0.52840900  0.85824500  1
  Sr  Sr1  1  0.00000000  0.47159100  0.14175500  1
  Sr  Sr2  1  0.00000000  0.97159100  0.35824500  1
  Sr  Sr3  1  0.00000000  0.02840900  0.64175500  1
  Sr  Sr4  1  0.00000000  0.14257800  0.98375600  1
  Sr  Sr5  1  0.00000000  0.85742200  0.01624400  1
  Sr  Sr6  1  0.00000000  0.35742200  0.48375600  1
  Sr  Sr7  1  0.00000000  0.64257800  0.51624400  1
  Ca  Ca0  1  0.00000000  0.30508900  0.65840900  1
  Ca  Ca1  1  0.00000000  0.69491100  0.34159100  1
  Ca  Ca2  1  0.00000000  0.19491100  0.15840900  1
  Ca  Ca3  1  0.00000000  0.80508900  0.84159100  1
  N  N0  1  0.00000000  0.45492000  0.60767100  1
  N  N1  1  0.00000000  0.54508000  0.39232900  1
  N  N2  1  0.00000000  0.04508000  0.10767100  1
  N  N3  1  0.00000000  0.95492000  0.89232900  1
  N  N4  1  0.00000000  0.18944300  0.57586200  1
  N  N5  1  0.00000000  0.81055700  0.42413800  1
  N  N6  1  0.00000000  0.31055700  0.07586200  1
  N  N7  1  0.00000000  0.68944300  0.92413800  1
loop_
_geom_bond_atom_site_label_1
_geom_bond_atom_site_label_2
_geom_bond_distance
_geom_bond_site_symmetry_2
Ca0 N4 2.190747 1_555
Ca0 N0 2.227960 1_555
Ca1 N5 2.190747 1_555
Ca1 N1 2.227960 1_555
Ca2 N6 2.190747 1_555
Ca2 N2 2.227960 1_555
Ca3 N7 2.190747 1_555
Ca3 N3 2.227960 1_555
N0 Sr3 2.511948 1_465
N0 Sr3 2.511948 1_655
N0 Sr6 2.660568 1_555
N0 Sr7 3.048597 1_555
N1 Sr2 2.511948 1_645
N1 Sr2 2.511948 1_455
N1 Sr7 2.660568 1_555
N1 Sr6 3.048597 1_555
N2 Sr1 2.511948 1_645
N2 Sr1 2.511948 1_455
N2 Sr4 2.660568 1_554
N2 Sr5 3.048597 1_545
N3 Sr0 2.511948 1_465
N3 Sr0 2.511948 1_655
N3 Sr5 2.660568 1_556
N3 Sr4 3.048597 1_565
N4 Sr3 2.492225 1_555
N4 Sr7 2.562090 1_645
N4 Sr7 2.562090 1_455
N4 Sr6 2.840766 1_555
N5 Sr2 2.492225 1_555
N5 Sr6 2.562090 1_465
N5 Sr6 2.562090 1_655
N5 Sr7 2.840766 1_555
N6 Sr1 2.492225 1_555
N6 Sr5 2.562090 1_455
N6 Sr5 2.562090 1_645
N6 Sr4 2.840766 1_554
N7 Sr0 2.492225 1_555
N7 Sr4 2.562090 1_655
N7 Sr4 2.562090 1_465
N7 Sr5 2.840766 1_556
