# generated using pymatgen
data_Ce2ThS3
_symmetry_space_group_name_H-M   'P 1'
_cell_length_a   4.04783864
_cell_length_b   4.04783864
_cell_length_c   10.14132173
_cell_angle_alpha   90.00000000
_cell_angle_beta   90.00000000
_cell_angle_gamma   120.00001506
_symmetry_Int_Tables_number   1
_chemical_formula_structural   Ce2ThS3
_chemical_formula_sum   'Ce2 Th1 S3'
_cell_volume   143.90355088
_cell_formula_units_Z   1
loop_
 _symmetry_equiv_pos_site_id
 _symmetry_equiv_pos_as_xyz
  1  'x, y, z'
loop_
 _atom_site_type_symbol
 _atom_site_label
 _atom_site_symmetry_multiplicity
 _atom_site_fract_x
 _atom_site_fract_y
 _atom_site_fract_z
 _atom_site_occupancy
  Ce  Ce0  1  0.33333300  0.66666700  0.67011728  1
  Ce  Ce1  1  0.66666700  0.33333300  0.32988272  1
  Th  Th0  1  0.00000000  0.00000000  0.00000000  1
  S  S0  1  0.33333300  0.66666700  0.16519588  1
  S  S1  1  0.66666700  0.33333300  0.83480412  1
  S  S2  1  0.00000000  0.00000000  0.50000000  1
loop_
_geom_bond_atom_site_label_1
_geom_bond_atom_site_label_2
_geom_bond_distance
_geom_bond_site_symmetry_2
Ce0 S1 2.872460 1_455
Ce0 S1 2.872460 1_565
Ce0 S1 2.872466 1_555
Ce0 S2 2.904827 1_565
Ce0 S2 2.904829 1_555
Ce0 S2 2.904829 1_665
Ce1 S0 2.872460 1_545
Ce1 S0 2.872460 1_655
Ce1 S0 2.872466 1_555
Ce1 S2 2.904827 1_655
Ce1 S2 2.904829 1_665
Ce1 S2 2.904829 1_555
S0 Th0 2.875465 1_565
S0 Th0 2.875468 1_665
S0 Th0 2.875468 1_555
S1 Th0 2.875465 1_656
S1 Th0 2.875468 1_556
S1 Th0 2.875468 1_666
