# generated using pymatgen
data_CaAl2(SiO5)2
_symmetry_space_group_name_H-M   'P 1'
_cell_length_a   5.29680173
_cell_length_b   5.29680173
_cell_length_c   12.95662200
_cell_angle_alpha   90.00000000
_cell_angle_beta   90.00000000
_cell_angle_gamma   112.10171411
_symmetry_Int_Tables_number   1
_chemical_formula_structural   CaAl2(SiO5)2
_chemical_formula_sum   'Ca2 Al4 Si4 O20'
_cell_volume   336.80054872
_cell_formula_units_Z   2
loop_
 _symmetry_equiv_pos_site_id
 _symmetry_equiv_pos_as_xyz
  1  'x, y, z'
loop_
 _atom_site_type_symbol
 _atom_site_label
 _atom_site_symmetry_multiplicity
 _atom_site_fract_x
 _atom_site_fract_y
 _atom_site_fract_z
 _atom_site_occupancy
  Ca  Ca0  1  0.66489000  0.33511000  0.75000000  1
  Ca  Ca1  1  0.33511000  0.66489000  0.25000000  1
  Al  Al0  1  0.50000000  0.00000000  0.00000000  1
  Al  Al1  1  0.00000000  0.50000000  0.00000000  1
  Al  Al2  1  0.50000000  0.00000000  0.50000000  1
  Al  Al3  1  0.00000000  0.50000000  0.50000000  1
  Si  Si0  1  0.02208700  0.97791300  0.86863700  1
  Si  Si1  1  0.97791300  0.02208700  0.13136300  1
  Si  Si2  1  0.02208700  0.97791300  0.63136300  1
  Si  Si3  1  0.97791300  0.02208700  0.36863700  1
  O  O0  1  0.95075800  0.04924200  0.75000000  1
  O  O1  1  0.04924200  0.95075800  0.25000000  1
  O  O2  1  0.35328500  0.10101100  0.88215500  1
  O  O3  1  0.10101100  0.35328500  0.11784500  1
  O  O4  1  0.35328500  0.10101100  0.61784500  1
  O  O5  1  0.10101100  0.35328500  0.38215500  1
  O  O6  1  0.64671500  0.89898900  0.11784500  1
  O  O7  1  0.89898900  0.64671500  0.88215500  1
  O  O8  1  0.64671500  0.89898900  0.38215500  1
  O  O9  1  0.89898900  0.64671500  0.61784500  1
  O  O10  1  0.86318300  0.13681700  0.93631100  1
  O  O11  1  0.13681700  0.86318300  0.06368900  1
  O  O12  1  0.86318300  0.13681700  0.56368900  1
  O  O13  1  0.13681700  0.86318300  0.43631100  1
  O  O14  1  0.36413800  0.63586200  0.94695000  1
  O  O15  1  0.63586200  0.36413800  0.05305000  1
  O  O16  1  0.36413800  0.63586200  0.55305000  1
  O  O17  1  0.63586200  0.36413800  0.44695000  1
  O  O18  1  0.38451000  0.61549000  0.75000000  1
  O  O19  1  0.61549000  0.38451000  0.25000000  1
loop_
_geom_bond_atom_site_label_1
_geom_bond_atom_site_label_2
_geom_bond_distance
_geom_bond_site_symmetry_2
Ca0 O4 2.377723 1_555
Ca0 O2 2.377723 1_555
Ca0 O9 2.377723 1_555
Ca0 O7 2.377723 1_555
Ca0 O18 2.463909 1_555
Ca0 O0 2.512137 1_555
Ca1 O5 2.377723 1_555
Ca1 O6 2.377723 1_555
Ca1 O3 2.377723 1_555
Ca1 O8 2.377723 1_555
Ca1 O19 2.463909 1_555
Ca1 O1 2.512137 1_555
Al0 O2 1.880000 1_554
Al0 O6 1.880000 1_545
Al0 O14 1.914676 1_544
Al0 O15 1.914676 1_555
Al0 O10 1.964107 1_554
Al0 O11 1.964107 1_545
Al1 O7 1.880000 1_454
Al1 O3 1.880000 1_555
Al1 O15 1.914676 1_455
Al1 O14 1.914676 1_554
Al1 O11 1.964107 1_555
Al1 O10 1.964107 1_454
Al2 O4 1.880000 1_555
Al2 O8 1.880000 1_545
Al2 O17 1.914676 1_555
Al2 O16 1.914676 1_545
Al2 O12 1.964107 1_555
Al2 O13 1.964107 1_545
Al3 O5 1.880000 1_555
Al3 O9 1.880000 1_455
Al3 O17 1.914676 1_455
Al3 O16 1.914676 1_555
Al3 O13 1.964107 1_555
Al3 O12 1.964107 1_455
O0 Si0 1.660027 1_645
O0 Si2 1.660027 1_645
O1 Si1 1.660027 1_465
O1 Si3 1.660027 1_465
O2 Si0 1.634810 1_545
O3 Si1 1.634810 1_455
O4 Si2 1.634810 1_545
O5 Si3 1.634810 1_455
O6 Si1 1.634810 1_565
O7 Si0 1.634810 1_655
O8 Si3 1.634810 1_565
O9 Si2 1.634810 1_655
O10 Si0 1.648873 1_645
O11 Si1 1.648873 1_465
O12 Si2 1.648873 1_645
O13 Si3 1.648873 1_465
