# generated using pymatgen
data_Mg3Si4
_symmetry_space_group_name_H-M   'P 1'
_cell_length_a   3.98685000
_cell_length_b   6.75130400
_cell_length_c   9.54630343
_cell_angle_alpha   78.70425588
_cell_angle_beta   90.00000000
_cell_angle_gamma   90.00000000
_symmetry_Int_Tables_number   1
_chemical_formula_structural   Mg3Si4
_chemical_formula_sum   'Mg6 Si8'
_cell_volume   251.97509661
_cell_formula_units_Z   2
loop_
 _symmetry_equiv_pos_site_id
 _symmetry_equiv_pos_as_xyz
  1  'x, y, z'
loop_
 _atom_site_type_symbol
 _atom_site_label
 _atom_site_symmetry_multiplicity
 _atom_site_fract_x
 _atom_site_fract_y
 _atom_site_fract_z
 _atom_site_occupancy
  Mg  Mg0  1  0.00000000  0.34935800  0.32718800  1
  Mg  Mg1  1  0.50000000  0.93465600  0.98072900  1
  Mg  Mg2  1  0.50000000  0.64880100  0.76813600  1
  Mg  Mg3  1  0.00000000  0.26631200  0.98762600  1
  Mg  Mg4  1  0.50000000  0.08023000  0.52013900  1
  Mg  Mg5  1  0.50000000  0.67223400  0.40005000  1
  Si  Si0  1  0.00000000  0.80373800  0.57257500  1
  Si  Si1  1  0.00000000  0.42883700  0.61170100  1
  Si  Si2  1  0.50000000  0.49257400  0.13837300  1
  Si  Si3  1  0.00000000  0.66000400  0.99735600  1
  Si  Si4  1  0.00000000  0.95723900  0.77970900  1
  Si  Si5  1  0.50000000  0.10077300  0.21646500  1
  Si  Si6  1  0.50000000  0.25302600  0.74956500  1
  Si  Si7  1  0.00000000  0.85208700  0.19711700  1
loop_
_geom_bond_atom_site_label_1
_geom_bond_atom_site_label_2
_geom_bond_distance
_geom_bond_site_symmetry_2
Mg0 Si2 2.734015 1_555
Mg0 Si2 2.734015 1_455
Mg0 Si1 2.869803 1_555
Mg0 Si5 2.933004 1_455
Mg0 Si5 2.933004 1_555
Mg1 Si5 2.703852 1_566
Mg1 Si3 2.705904 1_555
Mg1 Si3 2.705904 1_655
Mg1 Si4 2.750441 1_655
Mg1 Si4 2.750441 1_555
Mg1 Si6 2.762539 1_565
Mg1 Si7 2.846142 1_556
Mg1 Si7 2.846142 1_656
Mg1 Mg3 3.008230 1_665
Mg1 Mg3 3.008230 1_565
Mg1 Mg2 3.062289 1_555
Mg1 Si2 3.068096 1_556
Mg2 Si6 2.712300 1_555
Mg2 Si0 2.790729 1_555
Mg2 Si0 2.790729 1_655
Mg2 Si4 2.900395 1_655
Mg2 Si4 2.900395 1_555
Mg2 Si3 2.971958 1_555
Mg2 Si3 2.971958 1_655
Mg2 Si1 3.045990 1_555
Mg2 Si1 3.045990 1_655
Mg3 Si3 2.677678 1_555
Mg3 Si5 3.006438 1_456
Mg3 Si5 3.006438 1_556
Mg3 Si6 3.037494 1_455
Mg3 Si6 3.037494 1_555
Mg3 Si2 3.039622 1_456
Mg3 Si2 3.039622 1_556
Mg3 Si7 3.103105 1_546
Mg3 Si4 3.148993 1_545
Mg4 Si6 2.675580 1_555
Mg4 Si0 2.709753 1_645
Mg4 Si0 2.709753 1_545
Mg4 Si5 2.875017 1_555
Mg4 Si4 3.161857 1_645
Mg4 Si4 3.161857 1_545
Mg5 Si0 2.836781 1_555
Mg5 Si0 2.836781 1_655
Mg5 Si7 2.877429 1_555
Mg5 Si7 2.877429 1_655
Mg5 Si2 2.983027 1_555
Mg5 Si5 3.075012 1_565
Mg5 Si1 3.075013 1_555
Mg5 Si1 3.075013 1_655
Si0 Si4 2.405561 1_555
Si0 Si1 2.485051 1_555
Si1 Si6 2.550046 1_455
Si1 Si6 2.550046 1_555
Si2 Si3 2.543146 1_554
Si2 Si3 2.543146 1_654
Si2 Si5 2.603875 1_555
Si3 Si7 2.507404 1_556
Si3 Si4 2.590468 1_555
Si4 Si6 2.796290 1_565
Si4 Si6 2.796290 1_465
Si5 Si7 2.635950 1_645
Si5 Si7 2.635950 1_545
