# generated using pymatgen
data_Pr23Cd4Ir7
_symmetry_space_group_name_H-M   'P 1'
_cell_length_a   10.11930371
_cell_length_b   10.11930371
_cell_length_c   22.82519400
_cell_angle_alpha   90.00000000
_cell_angle_beta   90.00000000
_cell_angle_gamma   119.99999812
_symmetry_Int_Tables_number   1
_chemical_formula_structural   Pr23Cd4Ir7
_chemical_formula_sum   'Pr46 Cd8 Ir14'
_cell_volume   2024.16717896
_cell_formula_units_Z   2
loop_
 _symmetry_equiv_pos_site_id
 _symmetry_equiv_pos_as_xyz
  1  'x, y, z'
loop_
 _atom_site_type_symbol
 _atom_site_label
 _atom_site_symmetry_multiplicity
 _atom_site_fract_x
 _atom_site_fract_y
 _atom_site_fract_z
 _atom_site_occupancy
  Pr  Pr0  1  0.20617400  0.41234700  0.72002000  1
  Pr  Pr1  1  0.20617400  0.79382600  0.72002000  1
  Pr  Pr2  1  0.79382600  0.58765300  0.22002000  1
  Pr  Pr3  1  0.58765300  0.79382600  0.72002000  1
  Pr  Pr4  1  0.79382600  0.20617400  0.22002000  1
  Pr  Pr5  1  0.41234700  0.20617400  0.22002000  1
  Pr  Pr6  1  0.79377700  0.58755400  0.94666600  1
  Pr  Pr7  1  0.79377700  0.20622300  0.94666600  1
  Pr  Pr8  1  0.20622300  0.41244600  0.44666600  1
  Pr  Pr9  1  0.41244600  0.20622300  0.94666600  1
  Pr  Pr10  1  0.20622300  0.79377700  0.44666600  1
  Pr  Pr11  1  0.58755400  0.79377700  0.44666600  1
  Pr  Pr12  1  0.20844700  0.41689400  0.98977400  1
  Pr  Pr13  1  0.20844700  0.79155300  0.98977400  1
  Pr  Pr14  1  0.79155300  0.58310600  0.48977400  1
  Pr  Pr15  1  0.58310600  0.79155300  0.98977400  1
  Pr  Pr16  1  0.79155300  0.20844700  0.48977400  1
  Pr  Pr17  1  0.41689400  0.20844700  0.48977400  1
  Pr  Pr18  1  0.87270100  0.74540200  0.63582100  1
  Pr  Pr19  1  0.87270100  0.12729900  0.63582100  1
  Pr  Pr20  1  0.12729900  0.25459800  0.13582100  1
  Pr  Pr21  1  0.25459800  0.12729900  0.63582100  1
  Pr  Pr22  1  0.12729900  0.87270100  0.13582100  1
  Pr  Pr23  1  0.74540200  0.87270100  0.13582100  1
  Pr  Pr24  1  0.46047500  0.92095100  0.85581000  1
  Pr  Pr25  1  0.46047500  0.53952500  0.85581000  1
  Pr  Pr26  1  0.53952500  0.07904900  0.35581000  1
  Pr  Pr27  1  0.07904900  0.53952500  0.85581000  1
  Pr  Pr28  1  0.53952500  0.46047500  0.35581000  1
  Pr  Pr29  1  0.92095100  0.46047500  0.35581000  1
  Pr  Pr30  1  0.00000000  0.00000000  0.99829700  1
  Pr  Pr31  1  0.00000000  0.00000000  0.49829700  1
  Pr  Pr32  1  0.46107600  0.92215300  0.58582300  1
  Pr  Pr33  1  0.46107600  0.53892400  0.58582300  1
  Pr  Pr34  1  0.53892400  0.07784700  0.08582300  1
  Pr  Pr35  1  0.07784700  0.53892400  0.58582300  1
  Pr  Pr36  1  0.53892400  0.46107600  0.08582300  1
  Pr  Pr37  1  0.92215300  0.46107600  0.08582300  1
  Pr  Pr38  1  0.79767300  0.59534700  0.78226200  1
  Pr  Pr39  1  0.79767300  0.20232700  0.78226200  1
  Pr  Pr40  1  0.20232700  0.40465300  0.28226200  1
  Pr  Pr41  1  0.40465300  0.20232700  0.78226200  1
  Pr  Pr42  1  0.20232700  0.79767300  0.28226200  1
  Pr  Pr43  1  0.59534700  0.79767300  0.28226200  1
  Pr  Pr44  1  0.66666700  0.33333300  0.64579000  1
  Pr  Pr45  1  0.33333300  0.66666700  0.14579000  1
  Cd  Cd0  1  0.00000000  0.00000000  0.74959400  1
  Cd  Cd1  1  0.00000000  0.00000000  0.24959400  1
  Cd  Cd2  1  0.10656600  0.21313300  0.86325800  1
  Cd  Cd3  1  0.10656600  0.89343400  0.86325800  1
  Cd  Cd4  1  0.89343400  0.78686700  0.36325800  1
  Cd  Cd5  1  0.78686700  0.89343400  0.86325800  1
  Cd  Cd6  1  0.89343400  0.10656600  0.36325800  1
  Cd  Cd7  1  0.21313300  0.10656600  0.36325800  1
  Ir  Ir0  1  0.52052400  0.04104800  0.71041800  1
  Ir  Ir1  1  0.52052400  0.47947600  0.71041800  1
  Ir  Ir2  1  0.47947600  0.95895200  0.21041800  1
  Ir  Ir3  1  0.95895200  0.47947600  0.71041800  1
  Ir  Ir4  1  0.47947600  0.52052400  0.21041800  1
  Ir  Ir5  1  0.04104800  0.52052400  0.21041800  1
  Ir  Ir6  1  0.66666700  0.33333300  0.86424600  1
  Ir  Ir7  1  0.33333300  0.66666700  0.36424600  1
  Ir  Ir8  1  0.14414800  0.28829600  0.56307900  1
  Ir  Ir9  1  0.14414800  0.85585200  0.56307900  1
  Ir  Ir10  1  0.85585200  0.71170400  0.06307900  1
  Ir  Ir11  1  0.71170400  0.85585200  0.56307900  1
  Ir  Ir12  1  0.85585200  0.14414800  0.06307900  1
  Ir  Ir13  1  0.28829600  0.14414800  0.06307900  1
loop_
_geom_bond_atom_site_label_1
_geom_bond_atom_site_label_2
_geom_bond_distance
_geom_bond_site_symmetry_2
Pr0 Pr25 3.817470 1_555
Pr0 Pr27 3.817481 1_555
Pr1 Pr24 3.817470 1_555
Pr1 Pr27 3.817470 1_555
Pr2 Pr28 3.817470 1_555
Pr2 Pr29 3.817481 1_555
Pr10 Pr14 3.764995 1_455
Pr10 Pr17 3.764995 1_565
Pr10 Pr26 3.778001 1_565
Pr10 Pr29 3.778001 1_455
Pr11 Pr14 3.764995 1_555
Pr11 Pr16 3.764995 1_565
Pr11 Pr26 3.777996 1_565
Pr11 Pr28 3.778005 1_555
Pr12 Pr20 3.624290 1_556
Pr12 Pr30 3.658657 1_555
Pr12 Pr9 3.764995 1_555
Pr12 Pr7 3.764995 1_455
Pr12 Pr25 3.772166 1_555
Pr12 Pr27 3.772172 1_555
Pr12 Pr13 3.791288 1_555
Pr12 Pr15 3.791288 1_555
Pr12 Pr37 3.833362 1_456
Pr12 Pr36 3.833370 1_556
Pr12 Pr45 4.180036 1_556
Pr13 Pr22 3.624290 1_556
Pr13 Pr30 3.658657 1_565
Pr13 Pr6 3.764995 1_455
Pr13 Pr9 3.764995 1_565
Pr13 Pr24 3.772166 1_555
Pr13 Pr27 3.772166 1_555
Pr13 Pr15 3.791288 1_555
Pr13 Pr37 3.833367 1_456
Pr13 Pr34 3.833367 1_566
Pr13 Pr45 4.180032 1_556
Pr14 Pr18 3.624290 1_555
Pr14 Pr31 3.658657 1_665
Pr14 Pr28 3.772166 1_555
Pr14 Pr29 3.772172 1_555
Pr14 Pr16 3.791288 1_555
Pr14 Pr17 3.791288 1_555
Pr14 Pr35 3.833362 1_655
Pr14 Pr33 3.833370 1_555
Pr14 Pr44 4.180036 1_555
Pr15 Pr23 3.624290 1_556
Pr15 Pr30 3.658657 1_665
Pr15 Pr6 3.764995 1_555
Pr15 Pr7 3.764995 1_565
Pr15 Pr25 3.772166 1_555
Pr15 Pr24 3.772172 1_555
Pr15 Pr34 3.833362 1_566
Pr15 Pr36 3.833370 1_556
Pr15 Pr45 4.180036 1_556
Pr16 Pr19 3.624290 1_555
Pr16 Pr31 3.658657 1_655
Pr16 Pr8 3.764995 1_655
Pr16 Pr29 3.772166 1_555
Pr16 Pr26 3.772166 1_555
Pr16 Pr17 3.791288 1_555
Pr16 Pr32 3.833367 1_545
Pr16 Pr35 3.833367 1_655
Pr16 Pr44 4.180032 1_555
Pr17 Pr21 3.624290 1_555
Pr17 Pr31 3.658657 1_555
Pr17 Pr8 3.764995 1_555
Pr17 Pr28 3.772166 1_555
Pr17 Pr26 3.772172 1_555
Pr17 Pr32 3.833362 1_545
Pr17 Pr33 3.833370 1_555
Pr17 Pr44 4.180036 1_555
Pr24 Pr41 3.585103 1_565
Pr24 Pr39 3.585103 1_565
Pr24 Pr9 3.777996 1_565
Pr24 Pr7 3.778001 1_565
Pr24 Pr3 3.817481 1_555
Pr24 Pr25 3.859766 1_555
Pr24 Pr27 3.859766 1_555
Pr25 Pr41 3.585103 1_555
Pr25 Pr38 3.585103 1_555
Pr25 Pr9 3.778005 1_555
Pr25 Pr6 3.778005 1_555
Pr25 Pr3 3.817470 1_555
Pr25 Pr27 3.859766 1_555
Pr26 Pr43 3.585103 1_545
Pr26 Pr42 3.585103 1_545
Pr26 Pr4 3.817470 1_555
Pr26 Pr5 3.817481 1_555
Pr26 Pr28 3.859766 1_555
Pr26 Pr29 3.859766 1_555
Pr27 Pr38 3.585103 1_455
Pr27 Pr39 3.585103 1_455
Pr27 Pr6 3.777996 1_455
Pr27 Pr7 3.778001 1_455
Pr28 Pr40 3.585103 1_555
Pr28 Pr43 3.585103 1_555
Pr28 Pr8 3.778005 1_555
Pr28 Pr5 3.817470 1_555
Pr28 Pr29 3.859766 1_555
Pr29 Pr40 3.585103 1_655
Pr29 Pr42 3.585103 1_655
Pr29 Pr8 3.777996 1_655
Pr29 Pr4 3.817470 1_555
Cd0 Cd3 3.196810 1_545
Cd0 Cd2 3.196815 1_555
Cd0 Cd5 3.196815 1_445
Cd0 Pr19 3.423747 1_455
Cd0 Pr21 3.423747 1_555
Cd0 Pr18 3.423747 1_445
Cd0 Pr41 3.623752 1_555
Cd0 Pr38 3.623752 1_445
Cd0 Pr39 3.623761 1_455
Cd0 Pr0 3.676141 1_555
Cd0 Pr3 3.676141 1_445
Cd0 Pr1 3.676150 1_545
Cd1 Cd6 3.196810 1_455
Cd1 Cd7 3.196815 1_555
Cd1 Cd4 3.196815 1_445
Cd1 Pr22 3.423747 1_545
Cd1 Pr20 3.423747 1_555
Cd1 Pr23 3.423747 1_445
Cd1 Pr40 3.623752 1_555
Cd1 Pr43 3.623752 1_445
Cd1 Pr42 3.623761 1_545
Cd1 Pr5 3.676141 1_555
Cd1 Pr2 3.676141 1_445
Cd1 Pr4 3.676150 1_455
Cd2 Cd3 3.235131 1_545
Cd2 Cd5 3.235131 1_445
Cd2 Pr12 3.395254 1_555
Cd2 Pr27 3.454708 1_555
Cd2 Pr25 3.454709 1_555
Cd2 Pr41 3.585881 1_555
Cd2 Pr39 3.585881 1_455
Cd2 Pr30 3.604056 1_555
Cd2 Pr7 3.664228 1_455
Cd2 Pr9 3.664237 1_555
Cd2 Pr0 3.706362 1_555
Cd3 Cd5 3.235131 1_455
Cd3 Pr13 3.395258 1_555
Cd3 Pr24 3.454708 1_555
Cd3 Pr27 3.454708 1_555
Cd3 Pr41 3.585881 1_565
Cd3 Pr38 3.585881 1_455
Cd3 Pr30 3.604052 1_565
Cd3 Pr6 3.664232 1_455
Cd3 Pr9 3.664232 1_565
Cd3 Pr1 3.706370 1_555
Cd4 Cd6 3.235131 1_565
Cd4 Cd7 3.235131 1_665
Cd4 Pr14 3.395254 1_555
Cd4 Pr29 3.454708 1_555
Cd4 Pr28 3.454709 1_555
Cd4 Pr43 3.585881 1_555
Cd4 Pr42 3.585881 1_655
Cd4 Pr31 3.604056 1_665
Cd4 Pr10 3.664228 1_655
Cd4 Pr11 3.664237 1_555
Cd4 Pr2 3.706362 1_555
Cd5 Pr15 3.395254 1_555
Cd5 Pr24 3.454708 1_555
Cd5 Pr25 3.454709 1_555
Cd5 Pr38 3.585881 1_555
Cd5 Pr39 3.585881 1_565
Cd5 Pr30 3.604056 1_665
Cd5 Pr7 3.664228 1_565
Cd5 Pr6 3.664237 1_555
Cd5 Pr3 3.706362 1_555
Cd6 Cd7 3.235131 1_655
Cd6 Pr16 3.395258 1_555
Cd6 Pr29 3.454708 1_555
Cd6 Pr26 3.454708 1_555
Cd6 Pr40 3.585881 1_655
Cd6 Pr43 3.585881 1_545
Cd6 Pr31 3.604052 1_655
Cd6 Pr11 3.664232 1_545
Cd6 Pr8 3.664232 1_655
Cd6 Pr4 3.706370 1_555
Cd7 Pr17 3.395254 1_555
Cd7 Pr26 3.454708 1_555
Cd7 Pr28 3.454709 1_555
Cd7 Pr40 3.585881 1_555
Cd7 Pr42 3.585881 1_545
Cd7 Pr31 3.604056 1_555
Cd7 Pr10 3.664228 1_545
Cd7 Pr8 3.664237 1_555
Cd7 Pr5 3.706362 1_555
Ir0 Pr1 2.909885 1_545
Ir0 Pr3 2.909891 1_545
Ir0 Pr39 2.939567 1_555
Ir0 Pr41 2.939573 1_555
Ir0 Pr44 2.955866 1_555
Ir0 Pr32 3.028770 1_545
Ir0 Pr24 3.481497 1_545
Ir0 Pr21 3.640197 1_555
Ir0 Pr19 3.640197 1_555
Ir1 Pr3 2.909882 1_555
Ir1 Pr0 2.909882 1_555
Ir1 Pr38 2.939566 1_555
Ir1 Pr41 2.939566 1_555
Ir1 Pr44 2.955873 1_555
Ir1 Pr33 3.028773 1_555
Ir1 Pr25 3.481500 1_555
Ir1 Pr21 3.640197 1_555
Ir1 Pr18 3.640197 1_555
Ir2 Pr4 2.909885 1_565
Ir2 Pr5 2.909891 1_565
Ir2 Pr42 2.939567 1_555
Ir2 Pr43 2.939573 1_555
Ir2 Pr45 2.955866 1_555
Ir2 Pr34 3.028770 1_565
Ir2 Pr26 3.481497 1_565
Ir2 Pr23 3.640197 1_555
Ir2 Pr22 3.640197 1_555
Ir3 Pr1 2.909885 1_655
Ir3 Pr0 2.909891 1_655
Ir3 Pr39 2.939567 1_555
Ir3 Pr38 2.939573 1_555
Ir3 Pr44 2.955866 1_555
Ir3 Pr35 3.028770 1_655
Ir3 Pr27 3.481497 1_655
Ir3 Pr18 3.640197 1_555
Ir3 Pr19 3.640197 1_555
Ir4 Pr2 2.909882 1_555
Ir4 Pr5 2.909882 1_555
Ir4 Pr43 2.939566 1_555
Ir4 Pr40 2.939566 1_555
Ir4 Pr45 2.955873 1_555
Ir4 Pr36 3.028773 1_555
Ir4 Pr28 3.481500 1_555
Ir4 Pr20 3.640197 1_555
Ir4 Pr23 3.640197 1_555
Ir5 Pr4 2.909885 1_455
Ir5 Pr2 2.909891 1_455
Ir5 Pr42 2.939567 1_555
Ir5 Pr40 2.939573 1_555
Ir5 Pr45 2.955866 1_555
Ir5 Pr37 3.028770 1_455
Ir5 Pr29 3.481497 1_455
Ir5 Pr20 3.640197 1_555
Ir5 Pr22 3.640197 1_555
Ir6 Pr7 2.915912 1_555
Ir6 Pr6 2.915919 1_555
Ir6 Pr9 2.915919 1_555
Ir6 Pr39 2.962115 1_555
Ir6 Pr38 2.962128 1_555
Ir6 Pr41 2.962128 1_555
Ir6 Pr27 3.619066 1_655
Ir6 Pr24 3.619066 1_545
Ir6 Pr25 3.619084 1_555
Ir7 Pr10 2.915912 1_555
Ir7 Pr11 2.915919 1_555
Ir7 Pr8 2.915919 1_555
Ir7 Pr42 2.962115 1_555
Ir7 Pr43 2.962128 1_555
Ir7 Pr40 2.962128 1_555
Ir7 Pr26 3.619066 1_565
Ir7 Pr29 3.619066 1_455
Ir7 Pr28 3.619084 1_555
Ir8 Pr8 2.871268 1_555
Ir8 Pr21 2.912229 1_555
Ir8 Pr19 2.912229 1_455
Ir8 Pr31 2.927398 1_555
Ir8 Pr33 2.975464 1_555
Ir8 Pr35 2.975470 1_555
Ir8 Pr17 3.646946 1_555
Ir8 Pr16 3.646946 1_455
Ir9 Pr10 2.871268 1_555
Ir9 Pr18 2.912229 1_455
Ir9 Pr21 2.912229 1_565
Ir9 Pr31 2.927398 1_565
Ir9 Pr35 2.975461 1_555
Ir9 Pr32 2.975461 1_555
Ir9 Pr17 3.646946 1_565
Ir9 Pr14 3.646946 1_455
Ir10 Pr6 2.871268 1_554
Ir10 Pr23 2.912229 1_555
Ir10 Pr22 2.912229 1_655
Ir10 Pr30 2.927398 1_664
Ir10 Pr36 2.975464 1_555
Ir10 Pr37 2.975470 1_555
Ir10 Pr15 3.646946 1_554
Ir10 Pr13 3.646946 1_654
Ir11 Pr11 2.871268 1_555
Ir11 Pr18 2.912229 1_555
Ir11 Pr19 2.912229 1_565
Ir11 Pr31 2.927398 1_665
Ir11 Pr33 2.975464 1_555
Ir11 Pr32 2.975470 1_555
Ir11 Pr14 3.646946 1_555
Ir11 Pr16 3.646946 1_565
Ir12 Pr7 2.871268 1_554
Ir12 Pr23 2.912229 1_545
Ir12 Pr20 2.912229 1_655
Ir12 Pr30 2.927398 1_654
Ir12 Pr34 2.975461 1_555
Ir12 Pr37 2.975461 1_555
Ir12 Pr15 3.646946 1_544
Ir12 Pr12 3.646946 1_654
Ir13 Pr9 2.871268 1_554
Ir13 Pr20 2.912229 1_555
Ir13 Pr22 2.912229 1_545
Ir13 Pr30 2.927398 1_554
Ir13 Pr36 2.975464 1_555
Ir13 Pr34 2.975470 1_555
Ir13 Pr12 3.646946 1_554
Ir13 Pr13 3.646946 1_544
