# generated using pymatgen
data_TbEu3
_symmetry_space_group_name_H-M   'P 1'
_cell_length_a   7.66913052
_cell_length_b   7.66913052
_cell_length_c   6.20973800
_cell_angle_alpha   90.00000000
_cell_angle_beta   90.00000000
_cell_angle_gamma   120.00000445
_symmetry_Int_Tables_number   1
_chemical_formula_structural   TbEu3
_chemical_formula_sum   'Tb2 Eu6'
_cell_volume   316.29778214
_cell_formula_units_Z   2
loop_
 _symmetry_equiv_pos_site_id
 _symmetry_equiv_pos_as_xyz
  1  'x, y, z'
loop_
 _atom_site_type_symbol
 _atom_site_label
 _atom_site_symmetry_multiplicity
 _atom_site_fract_x
 _atom_site_fract_y
 _atom_site_fract_z
 _atom_site_occupancy
  Tb  Tb0  1  0.33333300  0.66666700  0.75000000  1
  Tb  Tb1  1  0.66666700  0.33333300  0.25000000  1
  Eu  Eu0  1  0.16977200  0.33954400  0.25000000  1
  Eu  Eu1  1  0.66045600  0.83022800  0.25000000  1
  Eu  Eu2  1  0.16977200  0.83022800  0.25000000  1
  Eu  Eu3  1  0.83022800  0.66045600  0.75000000  1
  Eu  Eu4  1  0.33954400  0.16977200  0.75000000  1
  Eu  Eu5  1  0.83022800  0.16977200  0.75000000  1
loop_
_geom_bond_atom_site_label_1
_geom_bond_atom_site_label_2
_geom_bond_distance
_geom_bond_site_symmetry_2
Eu0 Eu1 3.763119 1_555
Eu0 Eu2 3.763120 1_555
Eu0 Tb0 3.789535 1_555
Eu0 Tb0 3.789535 1_554
Eu0 Tb1 3.834783 1_455
Eu0 Tb1 3.834791 1_555
Eu0 Eu5 3.837428 1_455
Eu0 Eu5 3.837428 1_454
Eu0 Eu4 3.837428 1_555
Eu0 Eu4 3.837428 1_554
Eu0 Eu1 3.906011 1_445
Eu0 Eu2 3.906011 1_545
Eu1 Eu2 3.763120 1_555
Eu1 Tb0 3.789535 1_555
Eu1 Tb0 3.789535 1_554
Eu1 Tb1 3.834783 1_565
Eu1 Tb1 3.834791 1_555
Eu1 Eu5 3.837428 1_565
Eu1 Eu5 3.837428 1_564
Eu1 Eu3 3.837428 1_555
Eu1 Eu3 3.837428 1_554
Eu1 Eu2 3.906011 1_655
Eu2 Tb0 3.789531 1_555
Eu2 Tb0 3.789531 1_554
Eu2 Tb1 3.834787 1_455
Eu2 Tb1 3.834787 1_565
Eu2 Eu4 3.837428 1_564
Eu2 Eu3 3.837428 1_455
Eu2 Eu3 3.837428 1_454
Eu2 Eu4 3.837428 1_565
Eu3 Eu4 3.763119 1_555
Eu3 Eu5 3.763120 1_555
Eu3 Tb1 3.789535 1_556
Eu3 Tb1 3.789535 1_555
Eu3 Tb0 3.834783 1_655
Eu3 Tb0 3.834791 1_555
Eu3 Eu4 3.906011 1_665
Eu3 Eu5 3.906011 1_565
Eu4 Eu5 3.763120 1_555
Eu4 Tb1 3.789535 1_556
Eu4 Tb1 3.789535 1_555
Eu4 Tb0 3.834783 1_545
Eu4 Tb0 3.834791 1_555
Eu4 Eu5 3.906011 1_455
Eu5 Tb1 3.789531 1_555
Eu5 Tb1 3.789531 1_556
Eu5 Tb0 3.834787 1_545
Eu5 Tb0 3.834787 1_655
