# generated using pymatgen
data_Rb3PuH4O7
_symmetry_space_group_name_H-M   'P 1'
_cell_length_a   6.62222103
_cell_length_b   11.52730000
_cell_length_c   12.09652971
_cell_angle_alpha   90.00000000
_cell_angle_beta   90.85940519
_cell_angle_gamma   90.00000000
_symmetry_Int_Tables_number   1
_chemical_formula_structural   Rb3PuH4O7
_chemical_formula_sum   'Rb12 Pu4 H16 O28'
_cell_volume   923.30079120
_cell_formula_units_Z   4
loop_
 _symmetry_equiv_pos_site_id
 _symmetry_equiv_pos_as_xyz
  1  'x, y, z'
loop_
 _atom_site_type_symbol
 _atom_site_label
 _atom_site_symmetry_multiplicity
 _atom_site_fract_x
 _atom_site_fract_y
 _atom_site_fract_z
 _atom_site_occupancy
  Rb  Rb0  1  0.79394100  0.12134600  0.55376400  1
  Rb  Rb1  1  0.29394100  0.37865400  0.05376400  1
  Rb  Rb2  1  0.20605900  0.87865400  0.44623600  1
  Rb  Rb3  1  0.70605900  0.62134600  0.94623600  1
  Rb  Rb4  1  0.76848100  0.27886200  0.25631200  1
  Rb  Rb5  1  0.26848100  0.22113800  0.75631200  1
  Rb  Rb6  1  0.23151900  0.72113800  0.74368800  1
  Rb  Rb7  1  0.73151900  0.77886200  0.24368800  1
  Rb  Rb8  1  0.82875000  0.96321700  0.86277600  1
  Rb  Rb9  1  0.32875000  0.53678300  0.36277600  1
  Rb  Rb10  1  0.17125000  0.03678300  0.13722400  1
  Rb  Rb11  1  0.67125000  0.46321700  0.63722400  1
  Pu  Pu0  1  0.78122600  0.29311700  0.90880900  1
  Pu  Pu1  1  0.28122600  0.20688300  0.40880900  1
  Pu  Pu2  1  0.21877400  0.70688300  0.09119100  1
  Pu  Pu3  1  0.71877400  0.79311700  0.59119100  1
  H  H0  1  0.06345900  0.47781500  0.86848900  1
  H  H1  1  0.56345900  0.02218500  0.36848900  1
  H  H2  1  0.93654100  0.52218500  0.13151100  1
  H  H3  1  0.43654100  0.97781500  0.63151100  1
  H  H4  1  0.46994900  0.11811200  0.94916400  1
  H  H5  1  0.96994900  0.38188800  0.44916400  1
  H  H6  1  0.53005100  0.88188800  0.05083600  1
  H  H7  1  0.03005100  0.61811200  0.55083600  1
  H  H8  1  0.12514700  0.45950700  0.70748100  1
  H  H9  1  0.62514700  0.04049300  0.20748100  1
  H  H10  1  0.87485300  0.54049300  0.29251900  1
  H  H11  1  0.37485300  0.95950700  0.79251900  1
  H  H12  1  0.15176800  0.42363200  0.58134600  1
  H  H13  1  0.65176800  0.07636800  0.08134600  1
  H  H14  1  0.84823200  0.57636800  0.41865400  1
  H  H15  1  0.34823200  0.92363200  0.91865400  1
  O  O0  1  0.75937300  0.20290300  0.77639200  1
  O  O1  1  0.25937300  0.29709700  0.27639200  1
  O  O2  1  0.24062700  0.79709700  0.22360800  1
  O  O3  1  0.74062700  0.70290300  0.72360800  1
  O  O4  1  0.55777500  0.38471000  0.86026200  1
  O  O5  1  0.05777500  0.11529000  0.36026200  1
  O  O6  1  0.44222500  0.61529000  0.13973800  1
  O  O7  1  0.94222500  0.88471000  0.63973800  1
  O  O8  1  0.80425500  0.38670700  0.03959500  1
  O  O9  1  0.30425500  0.11329300  0.53959500  1
  O  O10  1  0.19574500  0.61329300  0.96040500  1
  O  O11  1  0.69574500  0.88670700  0.46040500  1
  O  O12  1  0.00305900  0.20119000  0.95718700  1
  O  O13  1  0.50305900  0.29881000  0.45718700  1
  O  O14  1  0.99694100  0.79881000  0.04281300  1
  O  O15  1  0.49694100  0.70119000  0.54281300  1
  O  O16  1  0.00327000  0.42023500  0.81787800  1
  O  O17  1  0.50327000  0.07976500  0.31787800  1
  O  O18  1  0.99673000  0.57976500  0.18212200  1
  O  O19  1  0.49673000  0.92023500  0.68212200  1
  O  O20  1  0.55118100  0.16874400  0.99805800  1
  O  O21  1  0.05118100  0.33125600  0.49805800  1
  O  O22  1  0.44881900  0.83125600  0.00194200  1
  O  O23  1  0.94881900  0.66874400  0.50194200  1
  O  O24  1  0.19823900  0.48421200  0.63801100  1
  O  O25  1  0.69823900  0.01578800  0.13801100  1
  O  O26  1  0.80176100  0.51578800  0.36198900  1
  O  O27  1  0.30176100  0.98421200  0.86198900  1
loop_
_geom_bond_atom_site_label_1
_geom_bond_atom_site_label_2
_geom_bond_distance
_geom_bond_site_symmetry_2
H0 O16 0.983318 1_555
H0 Rb1 2.925146 1_556
H0 Rb3 3.048010 1_455
H1 O17 0.983318 1_555
H1 Rb0 2.925146 1_555
H1 Rb2 3.048010 1_545
H2 O18 0.983318 1_555
H2 Rb3 2.925146 1_554
H2 Rb1 3.048010 1_655
H3 O19 0.983318 1_555
H3 Rb2 2.925146 1_555
H3 Rb0 3.048010 1_565
H4 O20 0.985033 1_555
H4 Rb5 2.922190 1_555
H5 O21 0.985033 1_655
H5 Rb4 2.922190 1_555
H6 O22 0.985033 1_555
H6 Rb7 2.922190 1_555
H7 O23 0.985033 1_455
H7 Rb6 2.922190 1_555
H8 O24 1.016745 1_555
H8 Rb5 2.963644 1_555
H9 O25 1.016745 1_555
H9 Rb4 2.963644 1_555
H10 O26 1.016745 1_555
H10 Rb7 2.963644 1_555
H11 O27 1.016745 1_555
H11 Rb6 2.963644 1_555
H12 O24 1.022680 1_555
H12 O21 1.603906 1_555
H13 O25 1.022680 1_555
H13 O20 1.603906 1_554
H14 O26 1.022680 1_555
H14 O23 1.603906 1_555
H15 O27 1.022680 1_555
H15 O22 1.603906 1_556
O0 Pu0 1.913413 1_555
O0 Rb0 2.864810 1_555
O0 Rb8 2.987036 1_545
O0 Rb5 3.263000 1_555
O0 Rb5 3.390319 1_655
O1 Pu1 1.913413 1_555
O1 Rb1 2.864810 1_555
O1 Rb9 2.987036 1_555
O1 Rb4 3.263000 1_455
O1 Rb4 3.390319 1_555
O2 Pu2 1.913413 1_555
O2 Rb2 2.864810 1_555
O2 Rb10 2.987036 1_565
O2 Rb7 3.263000 1_555
O2 Rb7 3.390319 1_455
O3 Pu3 1.913413 1_555
O3 Rb3 2.864810 1_555
O3 Rb11 2.987036 1_555
O3 Rb6 3.263000 1_655
O3 Rb6 3.390319 1_555
O4 Pu0 1.903467 1_555
O4 Rb1 2.942624 1_556
O4 Rb11 2.953576 1_555
O4 Rb5 2.955389 1_555
O4 Rb3 3.075054 1_555
O5 Pu1 1.903467 1_555
O5 Rb0 2.942624 1_455
O5 Rb10 2.953576 1_555
O5 Rb4 2.955389 1_455
O5 Rb2 3.075054 1_545
O6 Pu2 1.903467 1_555
O6 Rb3 2.942624 1_554
O6 Rb9 2.953576 1_555
O6 Rb7 2.955389 1_555
O6 Rb1 3.075054 1_555
O7 Pu3 1.903467 1_555
O7 Rb2 2.942624 1_655
O7 Rb8 2.953576 1_555
O7 Rb6 2.955389 1_655
O7 Rb0 3.075054 1_565
O8 Pu0 1.919067 1_554
O8 Rb4 2.914205 1_555
O8 Rb3 2.998648 1_554
O8 Rb1 3.246095 1_655
O8 Rb1 3.387594 1_555
O9 Pu1 1.919067 1_555
O9 Rb5 2.914205 1_555
O9 Rb2 2.998648 1_545
O9 Rb0 3.246095 1_555
O9 Rb0 3.387594 1_455
O10 Pu2 1.919067 1_556
O10 Rb6 2.914205 1_555
O10 Rb1 2.998648 1_556
O10 Rb3 3.246095 1_455
O10 Rb3 3.387594 1_555
O11 Pu3 1.919067 1_555
O11 Rb7 2.914205 1_555
O11 Rb0 2.998648 1_565
O11 Rb2 3.246095 1_555
O11 Rb2 3.387594 1_655
O12 Pu0 1.896739 1_455
O12 Rb5 3.028995 1_555
O12 Rb1 3.031943 1_556
O12 Rb10 3.082590 1_556
O12 Rb8 3.181545 1_445
O13 Pu1 1.896739 1_555
O13 Rb4 3.028995 1_555
O13 Rb0 3.031943 1_555
O13 Rb11 3.082590 1_555
O13 Rb9 3.181545 1_555
O14 Pu2 1.896739 1_655
O14 Rb7 3.028995 1_555
O14 Rb3 3.031943 1_554
O14 Rb8 3.082590 1_554
O14 Rb10 3.181545 1_665
O15 Pu3 1.896739 1_555
O15 Rb6 3.028995 1_555
O15 Rb2 3.031943 1_555
O15 Rb9 3.082590 1_555
O15 Rb11 3.181545 1_555
O16 Pu0 2.359606 1_455
O16 Rb5 2.990930 1_555
O16 Rb11 3.116273 1_455
O17 Pu1 2.359606 1_555
O17 Rb4 2.990930 1_555
O17 Rb10 3.116273 1_555
O18 Pu2 2.359606 1_655
O18 Rb7 2.990930 1_555
O18 Rb9 3.116273 1_655
O19 Pu3 2.359606 1_555
O19 Rb6 2.990930 1_555
O19 Rb8 3.116273 1_555
O20 Pu0 2.364552 1_555
O20 Rb1 3.040616 1_556
O21 Pu1 2.364552 1_555
O21 Rb0 3.040616 1_455
O22 Pu2 2.364552 1_555
O22 Rb3 3.040616 1_554
O23 Pu3 2.364552 1_555
O23 Rb2 3.040616 1_655
O24 Rb6 3.022124 1_555
O24 Rb11 3.141876 1_555
O25 Rb7 3.022124 1_545
O25 Rb10 3.141876 1_655
O26 Rb4 3.022124 1_555
O26 Rb9 3.141876 1_555
O27 Rb5 3.022124 1_565
O27 Rb8 3.141876 1_455
