# generated using pymatgen
data_YSe2
_symmetry_space_group_name_H-M   'P 1'
_cell_length_a   4.07015748
_cell_length_b   4.07015748
_cell_length_c   8.31575118
_cell_angle_alpha   90.00000000
_cell_angle_beta   90.00000000
_cell_angle_gamma   90.00000000
_symmetry_Int_Tables_number   1
_chemical_formula_structural   YSe2
_chemical_formula_sum   'Y2 Se4'
_cell_volume   137.76024678
_cell_formula_units_Z   2
loop_
 _symmetry_equiv_pos_site_id
 _symmetry_equiv_pos_as_xyz
  1  'x, y, z'
loop_
 _atom_site_type_symbol
 _atom_site_label
 _atom_site_symmetry_multiplicity
 _atom_site_fract_x
 _atom_site_fract_y
 _atom_site_fract_z
 _atom_site_occupancy
  Y  Y0  1  -0.00000000  0.50000000  0.72655698  1
  Y  Y1  1  0.50000000  0.00000000  0.27344302  1
  Se  Se0  1  0.50000000  0.50000000  0.00000000  1
  Se  Se1  1  0.00000000  0.00000000  0.00000000  1
  Se  Se2  1  0.50000000  0.00000000  0.63037295  1
  Se  Se3  1  0.00000000  0.50000000  0.36962705  1
loop_
_geom_bond_atom_site_label_1
_geom_bond_atom_site_label_2
_geom_bond_distance
_geom_bond_site_symmetry_2
Se0 Se1 2.878036 1_565
Se0 Se1 2.878036 1_555
Se0 Se1 2.878036 1_655
Se0 Se1 2.878036 1_665
Se0 Y1 3.051572 1_565
Se0 Y0 3.051572 1_654
Se0 Y0 3.051572 1_554
Se0 Y1 3.051572 1_555
Se1 Y1 3.051572 1_455
Se1 Y0 3.051572 1_554
Se1 Y1 3.051572 1_555
Se1 Y0 3.051572 1_544
Se2 Y1 2.968140 1_555
Se2 Y0 2.987112 1_645
Se2 Y0 2.987112 1_555
Se2 Y0 2.987112 1_545
Se2 Y0 2.987112 1_655
Se3 Y0 2.968140 1_555
Se3 Y1 2.987112 1_465
Se3 Y1 2.987112 1_455
Se3 Y1 2.987112 1_565
Se3 Y1 2.987112 1_555
