# generated using pymatgen
data_Ba4Sr2La2Co4O15
_symmetry_space_group_name_H-M   'P 1'
_cell_length_a   11.87382382
_cell_length_b   11.87382382
_cell_length_c   6.99597997
_cell_angle_alpha   89.74641235
_cell_angle_beta   89.74641235
_cell_angle_gamma   120.10517927
_symmetry_Int_Tables_number   1
_chemical_formula_structural   Ba4Sr2La2Co4O15
_chemical_formula_sum   'Ba8 Sr4 La4 Co8 O30'
_cell_volume   853.26131152
_cell_formula_units_Z   2
loop_
 _symmetry_equiv_pos_site_id
 _symmetry_equiv_pos_as_xyz
  1  'x, y, z'
loop_
 _atom_site_type_symbol
 _atom_site_label
 _atom_site_symmetry_multiplicity
 _atom_site_fract_x
 _atom_site_fract_y
 _atom_site_fract_z
 _atom_site_occupancy
  Ba  Ba0  1  0.66760000  0.33464400  0.98335500  1
  Ba  Ba1  1  0.33464400  0.66760000  0.48335500  1
  Ba  Ba2  1  0.34475600  0.17141300  0.66697300  1
  Ba  Ba3  1  0.82549000  0.65300100  0.66287400  1
  Ba  Ba4  1  0.82580300  0.17442500  0.66607900  1
  Ba  Ba5  1  0.65300100  0.82549000  0.16287400  1
  Ba  Ba6  1  0.17141300  0.34475600  0.16697300  1
  Ba  Ba7  1  0.17442500  0.82580300  0.16607900  1
  Sr  Sr0  1  0.99977200  0.00011500  0.48265000  1
  Sr  Sr1  1  0.00011500  0.99977200  0.98265000  1
  Sr  Sr2  1  0.95018800  0.47357000  0.32572700  1
  Sr  Sr3  1  0.47357000  0.95018800  0.82572700  1
  La  La0  1  0.52195200  0.04643200  0.32588100  1
  La  La1  1  0.52277300  0.47566200  0.32920700  1
  La  La2  1  0.04643200  0.52195200  0.82588100  1
  La  La3  1  0.47566200  0.52277300  0.82920700  1
  Co  Co0  1  0.34720100  0.17192500  0.15915300  1
  Co  Co1  1  0.82773000  0.64931500  0.15855600  1
  Co  Co2  1  0.82373100  0.17306700  0.15791600  1
  Co  Co3  1  0.64931500  0.82773000  0.65855600  1
  Co  Co4  1  0.17192500  0.34720100  0.65915300  1
  Co  Co5  1  0.17306700  0.82373100  0.65791600  1
  Co  Co6  1  0.66787100  0.33338800  0.52685000  1
  Co  Co7  1  0.33338800  0.66787100  0.02685000  1
  O  O0  1  0.60582000  0.66998400  0.52550400  1
  O  O1  1  0.06845600  0.39510800  0.52939300  1
  O  O2  1  0.32873100  0.93672800  0.51530600  1
  O  O3  1  0.33156300  0.39464600  0.52730200  1
  O  O4  1  0.60724100  0.93354600  0.51821900  1
  O  O5  1  0.06884100  0.67379900  0.52545900  1
  O  O6  1  0.39464600  0.33156300  0.02730200  1
  O  O7  1  0.93354600  0.60724100  0.01821900  1
  O  O8  1  0.67379900  0.06884100  0.02545900  1
  O  O9  1  0.66998400  0.60582000  0.02550400  1
  O  O10  1  0.39510800  0.06845600  0.02939300  1
  O  O11  1  0.93672800  0.32873100  0.01530600  1
  O  O12  1  0.83213400  0.41754100  0.66774000  1
  O  O13  1  0.58619500  0.17377700  0.65381800  1
  O  O14  1  0.58473800  0.41829800  0.66398000  1
  O  O15  1  0.17377700  0.58619500  0.15381800  1
  O  O16  1  0.41754100  0.83213400  0.16774000  1
  O  O17  1  0.41829800  0.58473800  0.16398000  1
  O  O18  1  0.49247500  0.24770800  0.33388300  1
  O  O19  1  0.74661400  0.50183100  0.33285100  1
  O  O20  1  0.75010500  0.24291900  0.33324600  1
  O  O21  1  0.50183100  0.74661400  0.83285100  1
  O  O22  1  0.24770800  0.49247500  0.83388300  1
  O  O23  1  0.24291900  0.75010500  0.83324600  1
  O  O24  1  0.81684000  0.90547400  0.74348700  1
  O  O25  1  0.09429200  0.17977100  0.74223000  1
  O  O26  1  0.09688600  0.91494000  0.74415100  1
  O  O27  1  0.17977100  0.09429200  0.24223000  1
  O  O28  1  0.90547400  0.81684000  0.24348700  1
  O  O29  1  0.91494000  0.09688600  0.24415100  1
loop_
_geom_bond_atom_site_label_1
_geom_bond_atom_site_label_2
_geom_bond_distance
_geom_bond_site_symmetry_2
Ba0 O12 2.770289 1_555
Ba0 O14 2.815521 1_555
Ba0 O13 2.846819 1_555
Ba0 O19 2.999046 1_556
Ba0 O18 3.030237 1_556
Ba0 O20 3.034100 1_556
Ba0 O7 3.204389 1_556
Ba0 O8 3.205955 1_556
Ba0 O10 3.207027 1_556
Ba0 O9 3.220640 1_556
Ba0 O6 3.236067 1_556
Ba0 O11 3.240042 1_556
Ba1 O16 2.770289 1_555
Ba1 O17 2.815521 1_555
Ba1 O15 2.846819 1_555
Ba1 O21 2.999046 1_555
Ba1 O22 3.030237 1_555
Ba1 O23 3.034100 1_555
Ba1 O4 3.204389 1_555
Ba1 O5 3.205955 1_555
Ba1 O1 3.207027 1_555
Ba1 O0 3.220640 1_555
Ba1 O3 3.236067 1_555
Ba1 O2 3.240042 1_555
Ba2 O18 2.771017 1_555
Ba2 O13 2.853899 1_555
Ba2 O14 2.886654 1_555
Ba2 O3 2.898300 1_555
Ba2 O2 2.902289 1_545
Ba2 O10 2.999968 1_556
Ba2 O26 3.034423 1_545
Ba2 O6 3.040934 1_556
Ba2 O25 3.068257 1_555
Ba3 O19 2.792696 1_555
Ba3 O14 2.818875 1_555
Ba3 O12 2.836262 1_555
Ba3 O0 2.883700 1_555
Ba3 O5 2.931196 1_655
Ba3 O7 2.972737 1_556
Ba3 O9 3.011246 1_556
Ba3 O24 3.104652 1_555
Ba3 O26 3.218486 1_655
Ba3 O28 3.371406 1_555
Ba4 O20 2.761573 1_555
Ba4 O13 2.842887 1_555
Ba4 O12 2.849830 1_555
Ba4 O1 2.908903 1_655
Ba4 O4 2.930733 1_545
Ba4 O11 2.950953 1_556
Ba4 O8 2.968595 1_556
Ba4 O24 3.185298 1_545
Ba4 O25 3.203664 1_655
Ba4 O29 3.413932 1_555
Ba5 O21 2.792696 1_554
Ba5 O17 2.818875 1_555
Ba5 O16 2.836262 1_555
Ba5 O9 2.883700 1_555
Ba5 O8 2.931196 1_565
Ba5 O4 2.972737 1_555
Ba5 O0 3.011246 1_555
Ba5 O28 3.104652 1_555
Ba5 O29 3.218486 1_565
Ba5 O24 3.371406 1_554
Ba6 O22 2.771017 1_554
Ba6 O15 2.853899 1_555
Ba6 O17 2.886654 1_555
Ba6 O6 2.898300 1_555
Ba6 O11 2.902289 1_455
Ba6 O1 2.999968 1_555
Ba6 O29 3.034423 1_455
Ba6 O3 3.040934 1_555
Ba6 O27 3.068257 1_555
Ba7 O23 2.761573 1_554
Ba7 O15 2.842887 1_555
Ba7 O16 2.849830 1_555
Ba7 O10 2.908903 1_565
Ba7 O7 2.930733 1_455
Ba7 O2 2.950953 1_555
Ba7 O5 2.968595 1_555
Ba7 O28 3.185298 1_455
Ba7 O27 3.203664 1_565
Ba7 O26 3.413932 1_554
La0 O2 2.382527 1_545
La0 O4 2.447584 1_545
La0 O16 2.471458 1_545
La0 O20 2.539014 1_555
La0 O18 2.584083 1_555
La0 O13 2.649696 1_555
La0 O10 2.656533 1_555
La0 O8 2.686857 1_555
La1 O3 2.402095 1_555
La1 O0 2.437149 1_555
La1 O17 2.482672 1_555
La1 O19 2.516653 1_555
La1 O18 2.545372 1_555
La1 O14 2.644698 1_555
La1 O6 2.674366 1_555
La1 O9 2.680717 1_555
La2 O11 2.382527 1_456
La2 O7 2.447584 1_456
La2 O12 2.471458 1_455
La2 O23 2.539014 1_555
La2 O22 2.584083 1_555
La2 O15 2.649696 1_556
La2 O1 2.656533 1_555
La2 O5 2.686857 1_555
La3 O6 2.402095 1_556
La3 O9 2.437149 1_556
La3 O14 2.482672 1_555
La3 O21 2.516653 1_555
La3 O22 2.545372 1_555
La3 O17 2.644698 1_556
La3 O3 2.674366 1_555
La3 O0 2.680717 1_555
Co0 O27 1.812852 1_555
Co0 O10 1.833971 1_555
Co0 O6 1.915697 1_555
Co0 O18 1.936686 1_555
Co1 O28 1.826255 1_555
Co1 O7 1.848040 1_555
Co1 O9 1.921132 1_555
Co1 O19 1.939041 1_555
Co2 O29 1.827235 1_555
Co2 O8 1.836894 1_555
Co2 O20 1.919284 1_555
Co2 O11 1.922478 1_555
Co3 O24 1.826255 1_555
Co3 O4 1.848040 1_555
Co3 O0 1.921132 1_555
Co3 O21 1.939041 1_555
Co4 O25 1.812852 1_555
Co4 O1 1.833971 1_555
Co4 O3 1.915697 1_555
Co4 O22 1.936686 1_555
Co5 O26 1.827235 1_555
Co5 O5 1.836894 1_555
Co5 O23 1.919284 1_555
Co5 O2 1.922478 1_555
Co6 O13 1.858752 1_555
Co6 O12 1.960812 1_555
Co6 O14 1.977316 1_555
Co6 O19 2.192086 1_555
Co6 O20 2.235014 1_555
Co6 O18 2.259724 1_555
Co7 O15 1.858752 1_555
Co7 O16 1.960812 1_555
Co7 O17 1.977316 1_555
Co7 O21 2.192086 1_554
Co7 O23 2.235014 1_554
Co7 O22 2.259724 1_554
O1 Sr2 2.487690 1_455
O2 Sr3 2.731283 1_555
O4 Sr3 2.733963 1_555
O5 Sr2 2.505289 1_455
O7 Sr2 2.733963 1_555
O8 Sr3 2.505289 1_544
O10 Sr3 2.487690 1_544
O11 Sr2 2.731283 1_555
O12 Sr2 2.674565 1_555
O13 Sr3 2.584363 1_545
O15 Sr2 2.584363 1_455
O16 Sr3 2.674565 1_554
O19 Sr2 2.602065 1_555
O20 Sr2 2.572535 1_555
O21 Sr3 2.602065 1_555
O23 Sr3 2.572535 1_555
O24 Sr1 2.528518 1_655
O24 Sr0 2.609383 1_565
O25 Sr1 2.490260 1_545
O25 Sr0 2.599743 1_455
O26 Sr1 2.505575 1_555
O26 Sr0 2.621378 1_465
O27 Sr0 2.490260 1_455
O27 Sr1 2.599743 1_544
O28 Sr0 2.528518 1_565
O28 Sr1 2.609383 1_654
O29 Sr0 2.505575 1_555
O29 Sr1 2.621378 1_644
