# generated using pymatgen
data_SrCo2(AsO4)2
_symmetry_space_group_name_H-M   'P 1'
_cell_length_a   5.87176300
_cell_length_b   7.12055790
_cell_length_c   9.26727264
_cell_angle_alpha   106.43575264
_cell_angle_beta   108.42643829
_cell_angle_gamma   97.70301738
_symmetry_Int_Tables_number   1
_chemical_formula_structural   SrCo2(AsO4)2
_chemical_formula_sum   'Sr2 Co4 As4 O16'
_cell_volume   341.78275730
_cell_formula_units_Z   2
loop_
 _symmetry_equiv_pos_site_id
 _symmetry_equiv_pos_as_xyz
  1  'x, y, z'
loop_
 _atom_site_type_symbol
 _atom_site_label
 _atom_site_symmetry_multiplicity
 _atom_site_fract_x
 _atom_site_fract_y
 _atom_site_fract_z
 _atom_site_occupancy
  Sr  Sr0  1  0.81996700  0.75735100  0.51034700  1
  Sr  Sr1  1  0.18003300  0.24264900  0.48965300  1
  Co  Co0  1  0.92414900  0.20972600  0.08788100  1
  Co  Co1  1  0.07585100  0.79027400  0.91211900  1
  Co  Co2  1  0.65914900  0.77409500  0.09065400  1
  Co  Co3  1  0.34085100  0.22590500  0.90934600  1
  As  As0  1  0.47734100  0.83207600  0.72820500  1
  As  As1  1  0.52265900  0.16792400  0.27179500  1
  As  As2  1  0.18328200  0.68930400  0.25708900  1
  As  As3  1  0.81671800  0.31069600  0.74291100  1
  O  O0  1  0.97292100  0.69196600  0.07823000  1
  O  O1  1  0.02707900  0.30803400  0.92177000  1
  O  O2  1  0.65187900  0.38208100  0.09361500  1
  O  O3  1  0.34812100  0.61791900  0.90638500  1
  O  O4  1  0.25800000  0.08073400  0.08838400  1
  O  O5  1  0.74200000  0.91926600  0.91161600  1
  O  O6  1  0.76897300  0.07359700  0.22146500  1
  O  O7  1  0.23102700  0.92640300  0.77853500  1
  O  O8  1  0.15852600  0.46398700  0.29452800  1
  O  O9  1  0.84147400  0.53601300  0.70547200  1
  O  O10  1  0.47889500  0.78094500  0.26676400  1
  O  O11  1  0.52110500  0.21905500  0.73323600  1
  O  O12  1  0.36493100  0.58441600  0.74431400  1
  O  O13  1  0.63506900  0.41558400  0.25568600  1
  O  O14  1  0.12506000  0.86172900  0.40518300  1
  O  O15  1  0.87494000  0.13827100  0.59481700  1
loop_
_geom_bond_atom_site_label_1
_geom_bond_atom_site_label_2
_geom_bond_distance
_geom_bond_site_symmetry_2
Co0 O1 2.075948 1_654
Co0 O6 2.111320 1_555
Co0 O5 2.116733 1_544
Co0 O8 2.131473 1_655
Co0 O2 2.146540 1_555
Co0 O4 2.272824 1_655
Co1 O0 2.075948 1_456
Co1 O7 2.111320 1_555
Co1 O4 2.116733 1_566
Co1 O9 2.131473 1_455
Co1 O3 2.146540 1_555
Co1 O5 2.272824 1_455
Co2 O3 1.974209 1_554
Co2 O6 2.026737 1_565
Co2 O0 2.033349 1_555
Co2 O10 2.201596 1_555
Co2 O5 2.324678 1_554
Co3 O2 1.974209 1_556
Co3 O7 2.026737 1_545
Co3 O1 2.033349 1_555
Co3 O11 2.201596 1_555
Co3 O4 2.324678 1_556
As0 O5 1.778721 1_555
As0 O7 1.808327 1_555
As0 O12 1.861996 1_555
As1 O4 1.778721 1_555
As1 O6 1.808327 1_555
As1 O13 1.861996 1_555
As2 O14 1.721465 1_555
As2 O8 1.732026 1_555
As2 O0 1.732985 1_455
As2 O10 1.735398 1_555
As3 O15 1.721465 1_555
As3 O9 1.732026 1_555
As3 O1 1.732985 1_655
As3 O11 1.735398 1_555
O6 Sr1 2.680975 1_655
O7 Sr0 2.680975 1_455
O8 Sr1 2.700271 1_555
O9 Sr0 2.700271 1_555
O10 Sr0 2.565447 1_555
O11 Sr1 2.565447 1_555
O12 O3 1.489899 1_555
O12 Sr1 2.663192 1_555
O13 O2 1.489899 1_555
O13 Sr0 2.663192 1_555
O14 Sr0 2.422418 1_455
O14 Sr1 2.545179 1_565
O15 Sr1 2.422418 1_655
O15 Sr0 2.545179 1_545
