# generated using pymatgen
data_SrCu2GeS4
_symmetry_space_group_name_H-M   'P 1'
_cell_length_a   6.09056293
_cell_length_b   6.09056293
_cell_length_c   6.09056293
_cell_angle_alpha   117.48994611
_cell_angle_beta   117.48994611
_cell_angle_gamma   94.40546228
_symmetry_Int_Tables_number   1
_chemical_formula_structural   SrCu2GeS4
_chemical_formula_sum   'Sr1 Cu2 Ge1 S4'
_cell_volume   165.28849261
_cell_formula_units_Z   1
loop_
 _symmetry_equiv_pos_site_id
 _symmetry_equiv_pos_as_xyz
  1  'x, y, z'
loop_
 _atom_site_type_symbol
 _atom_site_label
 _atom_site_symmetry_multiplicity
 _atom_site_fract_x
 _atom_site_fract_y
 _atom_site_fract_z
 _atom_site_occupancy
  Sr  Sr0  1  0.00000000  0.00000000  0.00000000  1
  Cu  Cu0  1  0.25000000  0.75000000  0.50000000  1
  Cu  Cu1  1  0.75000000  0.25000000  0.50000000  1
  Ge  Ge0  1  0.50000000  0.50000000  0.00000000  1
  S  S0  1  0.53756200  0.13764500  0.00000000  1
  S  S1  1  0.13764500  0.53756200  0.00000000  1
  S  S2  1  0.86235500  0.86235500  0.39991700  1
  S  S3  1  0.46243800  0.46243800  0.60008300  1
loop_
_geom_bond_atom_site_label_1
_geom_bond_atom_site_label_2
_geom_bond_distance
_geom_bond_site_symmetry_2
Cu0 S1 2.391386 1_555
Cu0 S3 2.391386 1_555
Cu0 S2 2.391386 1_455
Cu0 S0 2.391386 1_566
Cu1 S3 2.391386 1_555
Cu1 S0 2.391386 1_555
Cu1 S1 2.391386 1_656
Cu1 S2 2.391386 1_545
Ge0 S0 2.236183 1_555
Ge0 S3 2.236183 1_554
Ge0 S1 2.236183 1_555
Ge0 S2 2.236183 1_555
S0 Sr0 2.999711 1_655
S0 Sr0 3.316711 1_555
S1 Sr0 2.999711 1_565
S1 Sr0 3.316711 1_555
S2 Sr0 2.999711 1_666
S2 Sr0 3.316711 1_665
S3 Sr0 2.999711 1_555
S3 Sr0 3.316711 1_666
