# generated using pymatgen
data_Mg5Si9
_symmetry_space_group_name_H-M   'P 1'
_cell_length_a   5.91059200
_cell_length_b   6.98893222
_cell_length_c   13.00641576
_cell_angle_alpha   83.68749030
_cell_angle_beta   82.19333561
_cell_angle_gamma   69.44084596
_symmetry_Int_Tables_number   1
_chemical_formula_structural   Mg5Si9
_chemical_formula_sum   'Mg10 Si18'
_cell_volume   497.27343875
_cell_formula_units_Z   2
loop_
 _symmetry_equiv_pos_site_id
 _symmetry_equiv_pos_as_xyz
  1  'x, y, z'
loop_
 _atom_site_type_symbol
 _atom_site_label
 _atom_site_symmetry_multiplicity
 _atom_site_fract_x
 _atom_site_fract_y
 _atom_site_fract_z
 _atom_site_occupancy
  Mg  Mg0  1  0.63154700  0.97134200  0.28833900  1
  Mg  Mg1  1  0.90426000  0.85575200  0.53020200  1
  Mg  Mg2  1  0.12464700  0.32832900  0.48711700  1
  Mg  Mg3  1  0.72900500  0.51200300  0.66592100  1
  Mg  Mg4  1  0.64967000  0.28728200  0.42260300  1
  Mg  Mg5  1  0.38029700  0.88196900  0.54042400  1
  Mg  Mg6  1  0.57084600  0.93702500  0.94276100  1
  Mg  Mg7  1  0.28861800  0.89913400  0.14736900  1
  Mg  Mg8  1  0.24287000  0.28186100  0.80968600  1
  Mg  Mg9  1  0.94015500  0.68892800  0.11209800  1
  Si  Si0  1  0.34872700  0.64651200  0.86226800  1
  Si  Si1  1  0.45291300  0.51779900  0.05068500  1
  Si  Si2  1  0.97905700  0.08946500  0.68364800  1
  Si  Si3  1  0.08232500  0.69558100  0.32643700  1
  Si  Si4  1  0.96959800  0.73596900  0.77814800  1
  Si  Si5  1  0.96274700  0.27715400  0.19882400  1
  Si  Si6  1  0.55997100  0.19019500  0.62506200  1
  Si  Si7  1  0.61747400  0.57580200  0.25367000  1
  Si  Si8  1  0.76483400  0.24001900  0.85426300  1
  Si  Si9  1  0.10824100  0.02686900  0.35324900  1
  Si  Si10  1  0.73056200  0.14205700  0.09291500  1
  Si  Si11  1  0.05175200  0.97021300  0.95425200  1
  Si  Si12  1  0.52713100  0.88577600  0.74203200  1
  Si  Si13  1  0.34844200  0.37979800  0.26453400  1
  Si  Si14  1  0.20821900  0.30347500  0.02861900  1
  Si  Si15  1  0.84019300  0.51221000  0.93670200  1
  Si  Si16  1  0.73392400  0.63110200  0.42100900  1
  Si  Si17  1  0.25157300  0.53653600  0.62740200  1
loop_
_geom_bond_atom_site_label_1
_geom_bond_atom_site_label_2
_geom_bond_distance
_geom_bond_site_symmetry_2
Mg0 Si16 2.714577 1_555
Mg0 Si3 2.756970 1_655
Mg0 Si13 2.763409 1_565
Mg0 Si10 2.765146 1_565
Mg0 Si7 2.880620 1_555
Mg0 Si9 2.991640 1_565
Mg0 Si9 3.207509 1_665
Mg1 Si16 2.735819 1_555
Mg1 Si17 2.767272 1_655
Mg1 Si6 2.781742 1_565
Mg1 Si9 2.799008 1_665
Mg1 Si2 2.882767 1_565
Mg1 Si3 2.907200 1_655
Mg1 Mg3 3.206129 1_555
Mg2 Si16 2.693962 1_455
Mg2 Si17 2.780626 1_555
Mg2 Si9 2.911355 1_555
Mg2 Mg5 2.998996 1_545
Mg2 Mg4 3.022667 1_555
Mg2 Si13 3.053693 1_555
Mg2 Si3 3.087002 1_555
Mg2 Si2 3.087784 1_455
Mg2 Mg3 3.097656 1_455
Mg2 Si6 3.146438 1_555
Mg2 Mg4 3.150616 1_455
Mg3 Si12 2.699305 1_555
Mg3 Si2 2.799227 1_555
Mg3 Si17 2.875568 1_555
Mg3 Si6 2.885188 1_555
Mg3 Si8 2.914312 1_555
Mg3 Si4 3.038529 1_555
Mg3 Si17 3.122990 1_655
Mg3 Mg5 3.137009 1_555
Mg3 Si0 3.153099 1_555
Mg3 Si16 3.201470 1_555
Mg4 Si16 2.617101 1_555
Mg4 Si6 2.675083 1_555
Mg4 Si9 2.775729 1_655
Mg4 Si13 2.776386 1_555
Mg4 Si7 2.792813 1_555
Mg5 Si16 2.645396 1_555
Mg5 Si17 2.853546 1_555
Mg5 Si2 2.859347 1_465
Mg5 Si12 2.877434 1_555
Mg5 Si9 2.985888 1_565
Mg5 Si6 3.070165 1_565
Mg6 Si12 2.732221 1_555
Mg6 Si8 2.816838 1_565
Mg6 Si15 2.837828 1_555
Mg6 Si14 2.919494 1_566
Mg6 Si11 2.956634 1_655
Mg6 Si10 2.970679 1_566
Mg6 Si11 2.978745 1_555
Mg6 Mg7 2.980635 1_556
Mg6 Si4 3.012971 1_555
Mg6 Mg8 3.045460 1_565
Mg6 Si0 3.107260 1_555
Mg6 Mg9 3.229566 1_556
Mg7 Si5 2.757223 1_465
Mg7 Si7 2.784633 1_555
Mg7 Si9 2.861061 1_565
Mg7 Si1 2.866140 1_555
Mg7 Si3 2.941630 1_555
Mg7 Si11 2.950968 1_554
Mg7 Si14 2.982202 1_565
Mg8 Si15 2.794847 1_455
Mg8 Si17 2.809787 1_555
Mg8 Si6 2.821665 1_555
Mg8 Si14 2.843878 1_556
Mg8 Si12 2.850890 1_545
Mg8 Si8 2.915989 1_455
Mg8 Si0 2.995598 1_555
Mg8 Si4 3.023742 1_455
Mg8 Si2 3.094916 1_455
Mg8 Si8 3.123236 1_555
Mg8 Si11 3.131459 1_545
Mg9 Si7 2.727287 1_555
Mg9 Si14 2.850339 1_655
Mg9 Si11 2.858314 1_654
Mg9 Si1 2.874060 1_655
Mg9 Si15 2.928644 1_554
Mg9 Si5 2.937592 1_555
Mg9 Si10 2.963252 1_565
Mg9 Si3 3.028589 1_655
Si0 Si4 2.478122 1_455
Si0 Si12 2.563039 1_555
Si0 Si1 2.594251 1_556
Si0 Si11 2.620333 1_555
Si1 Si14 2.479246 1_555
Si1 Si15 2.543063 1_554
Si1 Si10 2.606102 1_555
Si2 Si6 2.526266 1_555
Si2 Si8 2.539518 1_555
Si2 Si4 2.651053 1_545
Si3 Si9 2.438664 1_565
Si5 Si7 2.443436 1_555
Si5 Si9 2.544320 1_655
Si10 Si11 2.498779 1_644
Si10 Si5 2.526253 1_555
Si11 Si8 2.436560 1_465
Si12 Si6 2.525230 1_565
Si12 Si4 2.541415 1_555
Si13 Si3 2.366784 1_555
Si13 Si7 2.418949 1_555
Si14 Si5 2.502994 1_455
Si14 Si15 2.526524 1_454
Si15 Si8 2.477969 1_555
Si15 Si4 2.643059 1_555
Si16 Si3 2.407982 1_655
Si16 Si7 2.477692 1_555
Si17 Si6 2.466753 1_555
Si17 Si4 2.578046 1_455
