# generated using pymatgen
data_Zn3B7BrO13
_symmetry_space_group_name_H-M   'P 1'
_cell_length_a   8.65746600
_cell_length_b   8.66521000
_cell_length_c   12.25075800
_cell_angle_alpha   90.00000000
_cell_angle_beta   90.00000000
_cell_angle_gamma   90.00000000
_symmetry_Int_Tables_number   1
_chemical_formula_structural   Zn3B7BrO13
_chemical_formula_sum   'Zn12 B28 Br4 O52'
_cell_volume   919.03668595
_cell_formula_units_Z   4
loop_
 _symmetry_equiv_pos_site_id
 _symmetry_equiv_pos_as_xyz
  1  'x, y, z'
loop_
 _atom_site_type_symbol
 _atom_site_label
 _atom_site_symmetry_multiplicity
 _atom_site_fract_x
 _atom_site_fract_y
 _atom_site_fract_z
 _atom_site_occupancy
  Zn  Zn0  1  0.25749100  0.75039300  0.24407700  1
  Zn  Zn1  1  0.74250900  0.24960700  0.74407700  1
  Zn  Zn2  1  0.24250900  0.75039300  0.74407700  1
  Zn  Zn3  1  0.75749100  0.24960700  0.24407700  1
  Zn  Zn4  1  0.98201300  0.46930600  0.52095100  1
  Zn  Zn5  1  0.01798700  0.53069400  0.02095100  1
  Zn  Zn6  1  0.51798700  0.46930600  0.02095100  1
  Zn  Zn7  1  0.48201300  0.53069400  0.52095100  1
  Zn  Zn8  1  0.48227800  0.96851000  0.52516500  1
  Zn  Zn9  1  0.51772200  0.03149000  0.02516500  1
  Zn  Zn10  1  0.01772200  0.96851000  0.02516500  1
  Zn  Zn11  1  0.98227800  0.03149000  0.52516500  1
  B  B0  1  0.99966400  0.49691300  0.76976500  1
  B  B1  1  0.00033600  0.50308700  0.26976500  1
  B  B2  1  0.50033600  0.49691300  0.26976500  1
  B  B3  1  0.49966400  0.50308700  0.76976500  1
  B  B4  1  0.75484600  0.75367100  0.51694400  1
  B  B5  1  0.24515400  0.24632900  0.01694400  1
  B  B6  1  0.74515400  0.75367100  0.01694400  1
  B  B7  1  0.25484600  0.24632900  0.51694400  1
  B  B8  1  0.50058300  0.00207300  0.27091700  1
  B  B9  1  0.49941700  0.99792700  0.77091700  1
  B  B10  1  0.99941700  0.00207300  0.77091700  1
  B  B11  1  0.00058300  0.99792700  0.27091700  1
  B  B12  1  0.95516600  0.75115400  0.37092400  1
  B  B13  1  0.04483400  0.24884600  0.87092400  1
  B  B14  1  0.54483400  0.75115400  0.87092400  1
  B  B15  1  0.45516600  0.24884600  0.37092400  1
  B  B16  1  0.74598300  0.59756300  0.18974500  1
  B  B17  1  0.25401700  0.40243700  0.68974500  1
  B  B18  1  0.75401700  0.59756300  0.68974500  1
  B  B19  1  0.24598300  0.40243700  0.18974500  1
  B  B20  1  0.40839100  0.25008800  0.84287400  1
  B  B21  1  0.59160900  0.74991200  0.34287400  1
  B  B22  1  0.09160900  0.25008800  0.34287400  1
  B  B23  1  0.90839100  0.74991200  0.84287400  1
  B  B24  1  0.25390100  0.09769300  0.69042600  1
  B  B25  1  0.74609900  0.90230700  0.19042600  1
  B  B26  1  0.24609900  0.09769300  0.19042600  1
  B  B27  1  0.75390100  0.90230700  0.69042600  1
  Br  Br0  1  0.27155800  0.74844900  0.53202300  1
  Br  Br1  1  0.72844200  0.25155100  0.03202300  1
  Br  Br2  1  0.22844200  0.74844900  0.03202300  1
  Br  Br3  1  0.77155800  0.25155100  0.53202300  1
  O  O0  1  0.72956500  0.74947000  0.25887700  1
  O  O1  1  0.27043500  0.25053000  0.75887700  1
  O  O2  1  0.77043500  0.74947000  0.75887700  1
  O  O3  1  0.22956500  0.25053000  0.25887700  1
  O  O4  1  0.04122200  0.66884900  0.29543000  1
  O  O5  1  0.95877800  0.33115100  0.79543000  1
  O  O6  1  0.45877800  0.66884900  0.79543000  1
  O  O7  1  0.54122200  0.33115100  0.29543000  1
  O  O8  1  0.87986800  0.67264500  0.45382000  1
  O  O9  1  0.12013200  0.32735500  0.95382000  1
  O  O10  1  0.62013200  0.67264500  0.95382000  1
  O  O11  1  0.37986800  0.32735500  0.45382000  1
  O  O12  1  0.46539300  0.83780500  0.29228100  1
  O  O13  1  0.53460700  0.16219500  0.79228100  1
  O  O14  1  0.03460700  0.83780500  0.79228100  1
  O  O15  1  0.96539300  0.16219500  0.29228100  1
  O  O16  1  0.67949000  0.63661100  0.58645500  1
  O  O17  1  0.32051000  0.36338900  0.08645500  1
  O  O18  1  0.82051000  0.63661100  0.08645500  1
  O  O19  1  0.17949000  0.36338900  0.58645500  1
  O  O20  1  0.66536500  0.02408400  0.24850700  1
  O  O21  1  0.33463500  0.97591600  0.74850700  1
  O  O22  1  0.83463500  0.02408400  0.74850700  1
  O  O23  1  0.16536500  0.97591600  0.24850700  1
  O  O24  1  0.63865300  0.82418600  0.44464800  1
  O  O25  1  0.36134700  0.17581400  0.94464800  1
  O  O26  1  0.86134700  0.82418600  0.94464800  1
  O  O27  1  0.13865300  0.17581400  0.44464800  1
  O  O28  1  0.83502900  0.48241300  0.24944800  1
  O  O29  1  0.16497100  0.51758700  0.74944800  1
  O  O30  1  0.66497100  0.48241300  0.74944800  1
  O  O31  1  0.33502900  0.51758700  0.24944800  1
  O  O32  1  0.82542000  0.87455900  0.58410200  1
  O  O33  1  0.17458000  0.12544100  0.08410200  1
  O  O34  1  0.67458000  0.87455900  0.08410200  1
  O  O35  1  0.32542000  0.12544100  0.58410200  1
  O  O36  1  0.04763200  0.40924700  0.36405200  1
  O  O37  1  0.95236800  0.59075300  0.86405200  1
  O  O38  1  0.45236800  0.40924700  0.86405200  1
  O  O39  1  0.54763200  0.59075300  0.36405200  1
  O  O40  1  0.46335900  0.08991600  0.37351900  1
  O  O41  1  0.53664100  0.91008400  0.87351900  1
  O  O42  1  0.03664100  0.08991600  0.87351900  1
  O  O43  1  0.96335900  0.91008400  0.37351900  1
  O  O44  1  0.08780100  0.45846800  0.17198700  1
  O  O45  1  0.91219900  0.54153200  0.67198700  1
  O  O46  1  0.41219900  0.45846800  0.67198700  1
  O  O47  1  0.58780100  0.54153200  0.17198700  1
  O  O48  1  0.40975800  0.05838000  0.17706300  1
  O  O49  1  0.59024200  0.94162000  0.67706300  1
  O  O50  1  0.09024200  0.05838000  0.67706300  1
  O  O51  1  0.90975800  0.94162000  0.17706300  1
loop_
_geom_bond_atom_site_label_1
_geom_bond_atom_site_label_2
_geom_bond_distance
_geom_bond_site_symmetry_2
B0 O29 1.463627 1_655
B0 O45 1.468922 1_555
B0 O37 1.470744 1_555
B0 O5 1.512379 1_555
B1 O28 1.463627 1_455
B1 O44 1.468922 1_555
B1 O36 1.470744 1_555
B1 O4 1.512379 1_555
B2 O31 1.463627 1_555
B2 O47 1.468922 1_555
B2 O39 1.470744 1_555
B2 O7 1.512379 1_555
B3 O30 1.463627 1_555
B3 O46 1.468922 1_555
B3 O38 1.470744 1_555
B3 O6 1.512379 1_555
B4 O32 1.465437 1_555
B4 O24 1.472988 1_555
B4 O16 1.476374 1_555
B4 O8 1.504163 1_555
B5 O33 1.465437 1_555
B5 O25 1.472988 1_554
B5 O17 1.476374 1_555
B5 O9 1.504163 1_554
B6 O34 1.465437 1_555
B6 O26 1.472988 1_554
B6 O18 1.476374 1_555
B6 O10 1.504163 1_554
B7 O35 1.465437 1_555
B7 O27 1.472988 1_555
B7 O19 1.476374 1_555
B7 O11 1.504163 1_555
B8 O20 1.465238 1_555
B8 O48 1.475923 1_555
B8 O12 1.478996 1_545
B8 O40 1.504386 1_555
B9 O21 1.465238 1_555
B9 O49 1.475923 1_555
B9 O13 1.478996 1_565
B9 O41 1.504386 1_555
B10 O22 1.465238 1_555
B10 O50 1.475923 1_655
B10 O14 1.478996 1_645
B10 O42 1.504386 1_655
B11 O23 1.465238 1_555
B11 O51 1.475923 1_455
B11 O15 1.478996 1_465
B11 O43 1.504386 1_455
B12 O43 1.379354 1_555
B12 O4 1.385305 1_655
B12 O8 1.385310 1_555
B13 O42 1.379354 1_555
B13 O5 1.385305 1_455
B13 O9 1.385310 1_555
B14 O41 1.379354 1_555
B14 O6 1.385305 1_555
B14 O10 1.385310 1_555
B15 O40 1.379354 1_555
B15 O7 1.385305 1_555
B15 O11 1.385310 1_555
B16 O28 1.457692 1_555
B16 O18 1.460129 1_555
B16 O47 1.469172 1_555
B16 O0 1.571667 1_555
B17 O29 1.457692 1_555
B17 O19 1.460129 1_555
B17 O46 1.469172 1_555
B17 O1 1.571667 1_555
B18 O30 1.457692 1_555
B18 O16 1.460129 1_555
B18 O45 1.469172 1_555
B18 O2 1.571667 1_555
B19 O31 1.457692 1_555
B19 O17 1.460129 1_555
B19 O44 1.469172 1_555
B19 O3 1.571667 1_555
B20 O38 1.454067 1_555
B20 O25 1.461038 1_555
B20 O13 1.469089 1_555
B20 O1 1.576509 1_555
B21 O39 1.454067 1_555
B21 O24 1.461038 1_555
B21 O12 1.469089 1_555
B21 O0 1.576509 1_555
B22 O36 1.454067 1_555
B22 O27 1.461038 1_555
B22 O15 1.469089 1_455
B22 O3 1.576509 1_555
B23 O37 1.454067 1_555
B23 O26 1.461038 1_555
B23 O14 1.469089 1_655
B23 O2 1.576509 1_555
B24 O21 1.452003 1_545
B24 O35 1.462130 1_555
B24 O50 1.466415 1_555
B24 O1 1.574053 1_555
B25 O20 1.452003 1_565
B25 O34 1.462130 1_555
B25 O51 1.466415 1_555
B25 O0 1.574053 1_555
B26 O23 1.452003 1_545
B26 O33 1.462130 1_555
B26 O48 1.466415 1_555
B26 O3 1.574053 1_555
B27 O22 1.452003 1_565
B27 O32 1.462130 1_555
B27 O49 1.466415 1_555
B27 O2 1.574053 1_555
Br0 Zn2 2.610021 1_555
Br0 Zn7 2.626494 1_555
Br0 Zn8 2.640323 1_555
Br1 Zn3 2.610021 1_555
Br1 Zn6 2.626494 1_555
Br1 Zn9 2.640323 1_555
Br2 Zn0 2.610021 1_555
Br2 Zn5 2.626494 1_555
Br2 Zn10 2.640323 1_555
Br3 Zn1 2.610021 1_555
Br3 Zn4 2.626494 1_555
Br3 Zn11 2.640323 1_555
O4 Zn0 2.097790 1_555
O5 Zn1 2.097790 1_555
O6 Zn2 2.097790 1_555
O7 Zn3 2.097790 1_555
O8 Zn4 2.136100 1_555
O9 Zn5 2.136100 1_556
O10 Zn6 2.136100 1_556
O11 Zn7 2.136100 1_555
O12 Zn0 2.040125 1_555
O13 Zn1 2.040125 1_555
O14 Zn2 2.040125 1_555
O15 Zn3 2.040125 1_555
O16 Zn7 2.099813 1_555
O17 Zn6 2.099813 1_555
O18 Zn5 2.099813 1_655
O19 Zn4 2.099813 1_455
O20 Zn3 2.111395 1_555
O21 Zn2 2.111395 1_555
O22 Zn1 2.111395 1_555
O23 Zn0 2.111395 1_555
O24 Zn8 2.090400 1_555
O25 Zn9 2.090400 1_556
O26 Zn10 2.090400 1_656
O27 Zn11 2.090400 1_455
O28 Zn3 2.127087 1_555
O29 Zn2 2.127087 1_555
O30 Zn1 2.127087 1_555
O31 Zn0 2.127087 1_555
O32 Zn11 2.052956 1_565
O33 Zn10 2.052956 1_545
O34 Zn9 2.052956 1_565
O35 Zn8 2.052956 1_545
O36 Zn4 2.070788 1_455
O37 Zn5 2.070788 1_656
O38 Zn6 2.070788 1_556
O39 Zn7 2.070788 1_555
O40 Zn8 2.141236 1_545
O41 Zn9 2.141236 1_566
O42 Zn10 2.141236 1_546
O43 Zn11 2.141236 1_565
O44 Zn5 2.044661 1_555
O45 Zn4 2.044661 1_555
O46 Zn7 2.044661 1_555
O47 Zn6 2.044661 1_555
O48 Zn9 2.095416 1_555
O49 Zn8 2.095416 1_555
O50 Zn11 2.095416 1_455
O51 Zn10 2.095416 1_655
