# generated using pymatgen
data_NbO2
_symmetry_space_group_name_H-M   'P 1'
_cell_length_a   11.45089247
_cell_length_b   11.91772163
_cell_length_c   11.50339765
_cell_angle_alpha   88.77298437
_cell_angle_beta   89.31788125
_cell_angle_gamma   99.89621770
_symmetry_Int_Tables_number   1
_chemical_formula_structural   NbO2
_chemical_formula_sum   'Nb34 O68'
_cell_volume   1545.94543680
_cell_formula_units_Z   34
loop_
 _symmetry_equiv_pos_site_id
 _symmetry_equiv_pos_as_xyz
  1  'x, y, z'
loop_
 _atom_site_type_symbol
 _atom_site_label
 _atom_site_symmetry_multiplicity
 _atom_site_fract_x
 _atom_site_fract_y
 _atom_site_fract_z
 _atom_site_occupancy
  Nb  Nb0  1  0.36191446  0.51620000  0.62723845  1
  Nb  Nb1  1  0.80818423  0.04577680  0.51547992  1
  Nb  Nb2  1  0.03606923  0.72475162  0.23063977  1
  Nb  Nb3  1  0.38246611  0.74801664  0.89435751  1
  Nb  Nb4  1  0.67020767  0.60951580  0.29564627  1
  Nb  Nb5  1  0.46478990  0.31817262  0.04221884  1
  Nb  Nb6  1  0.84994847  0.68666248  0.00962517  1
  Nb  Nb7  1  0.28889656  0.51694658  0.92437298  1
  Nb  Nb8  1  0.18990205  0.98338937  0.36407711  1
  Nb  Nb9  1  0.96269731  0.16795890  0.26996177  1
  Nb  Nb10  1  0.19543600  0.25218149  0.87069874  1
  Nb  Nb11  1  0.47061934  0.16360674  0.31787803  1
  Nb  Nb12  1  0.46631811  0.42856277  0.39560409  1
  Nb  Nb13  1  0.74719775  0.37690296  0.01325579  1
  Nb  Nb14  1  0.61818645  0.12253245  0.84614851  1
  Nb  Nb15  1  0.75739661  0.32195614  0.66757843  1
  Nb  Nb16  1  0.63675581  0.84118675  0.06389104  1
  Nb  Nb17  1  0.25207040  0.82493521  0.61538230  1
  Nb  Nb18  1  0.75340420  0.21926061  0.18262571  1
  Nb  Nb19  1  0.25027609  0.25898327  0.53284165  1
  Nb  Nb20  1  0.96409308  0.16342534  0.76420523  1
  Nb  Nb21  1  0.07609626  0.61968927  0.46447752  1
  Nb  Nb22  1  0.10472467  0.02281170  0.80435516  1
  Nb  Nb23  1  0.84496499  0.05968937  0.04804464  1
  Nb  Nb24  1  0.92606627  0.29669081  0.49518375  1
  Nb  Nb25  1  0.58286195  0.79526357  0.64114535  1
  Nb  Nb26  1  0.95394963  0.45139245  0.81610749  1
  Nb  Nb27  1  0.90450379  0.78829239  0.66363167  1
  Nb  Nb28  1  0.00908287  0.30415937  0.06487233  1
  Nb  Nb29  1  0.60694578  0.54932103  0.55061236  1
  Nb  Nb30  1  0.39448450  0.03237456  0.60760497  1
  Nb  Nb31  1  0.43374319  0.32675194  0.73301328  1
  Nb  Nb32  1  0.09937849  0.70478998  0.88278424  1
  Nb  Nb33  1  0.92366316  0.43486523  0.23850122  1
  O  O0  1  0.14985501  0.19150945  0.70788486  1
  O  O1  1  0.48003336  0.08049486  0.46470763  1
  O  O2  1  0.03058582  0.75691194  0.02280300  1
  O  O3  1  0.11413883  0.54745515  0.82870680  1
  O  O4  1  0.59410477  0.12406981  0.22524532  1
  O  O5  1  0.02170872  0.84372529  0.78716252  1
  O  O6  1  0.48097958  0.66289600  0.57288479  1
  O  O7  1  0.76936320  0.93591686  0.14222947  1
  O  O8  1  0.15778306  0.65170127  0.32090725  1
  O  O9  1  0.01177877  0.56493486  0.16442140  1
  O  O10  1  0.75213016  0.19993295  0.54070363  1
  O  O11  1  0.93557763  0.43303002  0.99155531  1
  O  O12  1  0.22680436  0.65751235  0.98543758  1
  O  O13  1  0.02265600  0.30129589  0.86263236  1
  O  O14  1  0.36470264  0.61319186  0.78999699  1
  O  O15  1  0.96381309  0.70946716  0.37881753  1
  O  O16  1  0.69985506  0.67345863  0.44574645  1
  O  O17  1  0.18297027  0.36602901  0.00807212  1
  O  O18  1  0.77283007  0.15992160  0.77438319  1
  O  O19  1  0.66741034  0.93724891  0.57331346  1
  O  O20  1  0.16549468  0.84411815  0.47739009  1
  O  O21  1  0.35074468  0.26542400  0.39541744  1
  O  O22  1  0.13156826  0.86711051  0.23492007  1
  O  O23  1  0.75562969  0.54592232  0.02525147  1
  O  O24  1  0.07420907  0.06473034  0.31564924  1
  O  O25  1  0.20524514  0.09187599  0.92245553  1
  O  O26  1  0.52179084  0.48513916  0.70545693  1
  O  O27  1  0.98547050  0.46894381  0.42811142  1
  O  O28  1  0.41571756  0.46635797  0.00309721  1
  O  O29  1  0.42537978  0.86366427  0.60056839  1
  O  O30  1  0.01060755  0.12996404  0.09422960  1
  O  O31  1  0.97697388  0.67263146  0.60127067  1
  O  O32  1  0.82710065  0.22579143  0.01116548  1
  O  O33  1  0.23605817  0.08230430  0.49642491  1
  O  O34  1  0.67108791  0.01504426  0.96133374  1
  O  O35  1  0.77653546  0.50859856  0.28233681  1
  O  O36  1  0.37590063  0.19693423  0.63817701  1
  O  O37  1  0.33137503  0.03597543  0.28407414  1
  O  O38  1  0.56328688  0.31074266  0.35581072  1
  O  O39  1  0.94233734  0.13503997  0.59572150  1
  O  O40  1  0.83085980  0.04636668  0.35822167  1
  O  O41  1  0.74014417  0.74158171  0.69002549  1
  O  O42  1  0.24026290  0.78588678  0.79525749  1
  O  O43  1  0.62121816  0.73626803  0.18607759  1
  O  O44  1  0.72474830  0.44483819  0.58016368  1
  O  O45  1  0.95082384  0.37040757  0.66574041  1
  O  O46  1  0.23351129  0.97473624  0.69152373  1
  O  O47  1  0.49624997  0.04037225  0.75824899  1
  O  O48  1  0.59734716  0.23681950  0.96705826  1
  O  O49  1  0.30603306  0.44479071  0.47901964  1
  O  O50  1  0.73424640  0.77490455  0.95645085  1
  O  O51  1  0.84470070  0.27655361  0.33017571  1
  O  O52  1  0.39378319  0.23418069  0.16539499  1
  O  O53  1  0.21212949  0.63798079  0.56869704  1
  O  O54  1  0.77903484  0.39586813  0.83107848  1
  O  O55  1  0.47008533  0.82509067  0.02169190  1
  O  O56  1  0.58916944  0.26184781  0.73037625  1
  O  O57  1  0.93228656  0.03308758  0.87878245  1
  O  O58  1  0.27729874  0.40938160  0.78073516  1
  O  O59  1  0.92639849  0.62722515  0.85674820  1
  O  O60  1  0.05721351  0.33075921  0.23662010  1
  O  O61  1  0.60755102  0.38463829  0.11379838  1
  O  O62  1  0.86191422  0.72103249  0.17178205  1
  O  O63  1  0.52898770  0.80251597  0.79295996  1
  O  O64  1  0.90301732  0.91231740  0.56575867  1
  O  O65  1  0.38375053  0.26095301  0.89267916  1
  O  O66  1  0.09834242  0.28550346  0.49344739  1
  O  O67  1  0.51003365  0.52715699  0.26273701  1
loop_
_geom_bond_atom_site_label_1
_geom_bond_atom_site_label_2
_geom_bond_distance
_geom_bond_site_symmetry_2
Nb0 O49 1.985385 1_555
Nb0 O6 2.102348 1_555
Nb0 O26 2.134500 1_555
Nb0 O14 2.219013 1_555
Nb0 O58 2.261915 1_555
Nb0 O53 2.518535 1_555
Nb1 O40 1.824174 1_555
Nb1 O39 1.964089 1_555
Nb1 O19 1.983672 1_545
Nb1 O10 2.072483 1_555
Nb1 O64 2.147739 1_545
Nb2 O22 1.855759 1_555
Nb2 O15 1.877383 1_455
Nb2 O9 2.042153 1_555
Nb2 O8 2.047309 1_555
Nb2 O62 2.107222 1_455
Nb2 O2 2.416508 1_555
Nb3 O55 1.942109 1_556
Nb3 O14 2.010095 1_555
Nb3 O63 2.035630 1_555
Nb3 O42 2.104656 1_555
Nb3 O12 2.164395 1_555
Nb4 O35 1.859878 1_555
Nb4 O16 1.912779 1_555
Nb4 O67 1.970892 1_555
Nb4 O43 2.100430 1_555
Nb5 O52 1.817387 1_555
Nb5 O61 1.895448 1_555
Nb5 O28 1.987522 1_555
Nb5 O65 2.038634 1_554
Nb5 O48 2.121810 1_554
Nb6 O23 1.836277 1_555
Nb6 O62 1.919798 1_555
Nb6 O50 1.925129 1_554
Nb6 O2 2.102399 1_655
Nb6 O59 2.142584 1_554
Nb7 O28 1.897734 1_556
Nb7 O14 2.002120 1_555
Nb7 O12 2.062346 1_555
Nb7 O58 2.104418 1_555
Nb7 O17 2.186634 1_556
Nb7 O3 2.373435 1_555
Nb8 O24 1.854998 1_565
Nb8 O37 1.858743 1_565
Nb8 O33 1.966907 1_565
Nb8 O20 2.066717 1_555
Nb8 O22 2.089890 1_555
Nb9 O24 1.987078 1_655
Nb9 O60 2.078301 1_655
Nb9 O40 2.135020 1_555
Nb9 O51 2.144195 1_555
Nb9 O30 2.165810 1_655
Nb10 O25 2.010883 1_555
Nb10 O0 2.062671 1_555
Nb10 O17 2.124039 1_556
Nb10 O65 2.159032 1_555
Nb10 O13 2.160031 1_555
Nb10 O58 2.179405 1_555
Nb11 O4 1.889867 1_555
Nb11 O38 1.948194 1_555
Nb11 O1 1.953192 1_555
Nb11 O37 2.052722 1_555
Nb11 O21 2.177607 1_555
Nb11 O52 2.187747 1_555
Nb12 O67 1.915729 1_555
Nb12 O38 1.991346 1_555
Nb12 O49 2.101168 1_555
Nb12 O21 2.155769 1_555
Nb13 O61 1.978493 1_555
Nb13 O23 2.007795 1_555
Nb13 O54 2.123435 1_554
Nb13 O11 2.155682 1_554
Nb13 O32 2.156084 1_555
Nb13 O48 2.255879 1_554
Nb14 O47 1.880651 1_555
Nb14 O18 1.921992 1_555
Nb14 O34 1.994188 1_555
Nb14 O48 2.007879 1_555
Nb14 O56 2.178568 1_555
Nb15 O44 1.851941 1_555
Nb15 O56 2.053342 1_555
Nb15 O10 2.076394 1_555
Nb15 O54 2.093268 1_555
Nb15 O45 2.190540 1_555
Nb15 O18 2.300147 1_555
Nb16 O43 1.847442 1_555
Nb16 O50 1.926093 1_554
Nb16 O55 1.953233 1_555
Nb16 O7 1.969597 1_555
Nb16 O34 2.333192 1_564
Nb17 O20 1.911722 1_555
Nb17 O29 1.963220 1_555
Nb17 O46 2.047569 1_555
Nb17 O42 2.108746 1_555
Nb17 O53 2.273480 1_555
Nb18 O4 2.024439 1_555
Nb18 O51 2.070405 1_555
Nb18 O32 2.130655 1_555
Nb19 O66 1.879819 1_555
Nb19 O21 1.936403 1_555
Nb19 O36 2.110255 1_555
Nb19 O33 2.134751 1_555
Nb19 O49 2.267255 1_555
Nb19 O0 2.362448 1_555
Nb20 O39 1.985819 1_555
Nb20 O57 1.997274 1_555
Nb20 O13 2.037274 1_655
Nb20 O0 2.183958 1_655
Nb20 O18 2.185036 1_555
Nb21 O8 1.887239 1_555
Nb21 O53 1.962194 1_555
Nb21 O27 1.970070 1_455
Nb21 O15 2.055911 1_455
Nb21 O31 2.099701 1_455
Nb22 O25 1.899351 1_555
Nb22 O46 2.112922 1_545
Nb22 O57 2.166634 1_455
Nb22 O5 2.196175 1_545
Nb22 O0 2.252626 1_555
Nb23 O7 1.889303 1_545
Nb23 O30 2.019502 1_655
Nb23 O32 2.060525 1_555
Nb23 O34 2.224454 1_554
Nb23 O57 2.231711 1_554
Nb24 O66 1.999841 1_655
Nb24 O51 2.124481 1_555
Nb24 O45 2.168645 1_555
Nb24 O27 2.170702 1_555
Nb24 O10 2.175024 1_555
Nb24 O39 2.262033 1_555
Nb25 O63 1.853926 1_555
Nb25 O19 1.942133 1_555
Nb25 O6 1.976986 1_555
Nb25 O41 2.091389 1_555
Nb25 O29 2.154846 1_555
Nb26 O45 1.996467 1_555
Nb26 O3 1.996993 1_655
Nb26 O54 2.002648 1_555
Nb26 O11 2.029930 1_555
Nb26 O13 2.134950 1_655
Nb26 O59 2.230472 1_555
Nb27 O64 1.841325 1_555
Nb27 O31 1.877403 1_555
Nb27 O41 1.887664 1_555
Nb27 O5 2.009437 1_655
Nb28 O11 2.045572 1_454
Nb28 O60 2.073708 1_555
Nb28 O17 2.092625 1_555
Nb28 O30 2.099226 1_555
Nb28 O32 2.232227 1_455
Nb28 O13 2.331156 1_554
Nb29 O44 2.013921 1_555
Nb29 O16 2.031697 1_555
Nb29 O26 2.086295 1_555
Nb29 O6 2.157659 1_555
Nb30 O1 1.928419 1_555
Nb30 O36 2.046066 1_555
Nb30 O46 2.072552 1_545
Nb30 O47 2.094518 1_555
Nb30 O29 2.103612 1_545
Nb30 O33 2.382128 1_555
Nb31 O36 1.939002 1_555
Nb31 O26 1.998172 1_555
Nb31 O65 2.018684 1_555
Nb31 O56 2.059062 1_555
Nb31 O58 2.255314 1_555
Nb32 O2 1.944621 1_556
Nb32 O42 1.983470 1_555
Nb32 O3 2.021838 1_555
Nb32 O12 2.033744 1_555
Nb32 O59 2.065016 1_455
Nb32 O5 2.279053 1_555
Nb33 O9 1.879501 1_655
Nb33 O35 2.091035 1_555
Nb33 O60 2.128622 1_655
Nb33 O51 2.189764 1_555
Nb33 O27 2.323621 1_555
