# generated using pymatgen
data_Mg3Mn3(AsO4)4
_symmetry_space_group_name_H-M   'P 1'
_cell_length_a   5.26785800
_cell_length_b   8.71378800
_cell_length_c   16.45687690
_cell_angle_alpha   67.56233131
_cell_angle_beta   90.00000000
_cell_angle_gamma   90.00000000
_symmetry_Int_Tables_number   1
_chemical_formula_structural   Mg3Mn3(AsO4)4
_chemical_formula_sum   'Mg6 Mn6 As8 O32'
_cell_volume   698.23114257
_cell_formula_units_Z   2
loop_
 _symmetry_equiv_pos_site_id
 _symmetry_equiv_pos_as_xyz
  1  'x, y, z'
loop_
 _atom_site_type_symbol
 _atom_site_label
 _atom_site_symmetry_multiplicity
 _atom_site_fract_x
 _atom_site_fract_y
 _atom_site_fract_z
 _atom_site_occupancy
  Mg  Mg0  1  0.55163600  0.31672400  0.21036100  1
  Mg  Mg1  1  0.05163600  0.68327600  0.28963900  1
  Mg  Mg2  1  0.44836400  0.68327600  0.78963900  1
  Mg  Mg3  1  0.94836400  0.31672400  0.71036100  1
  Mg  Mg4  1  0.50000000  0.00000000  0.50000000  1
  Mg  Mg5  1  0.00000000  0.00000000  0.00000000  1
  Mn  Mn0  1  0.49689700  0.19532600  0.62543600  1
  Mn  Mn1  1  0.50310300  0.80467400  0.37456400  1
  Mn  Mn2  1  0.99689700  0.80467400  0.87456400  1
  Mn  Mn3  1  0.00310300  0.19532600  0.12543600  1
  Mn  Mn4  1  0.00000000  0.50000000  0.50000000  1
  Mn  Mn5  1  0.50000000  0.50000000  0.00000000  1
  As  As0  1  0.98231900  0.03192300  0.35281000  1
  As  As1  1  0.50397600  0.41707200  0.39254300  1
  As  As2  1  0.00397600  0.58292800  0.10745700  1
  As  As3  1  0.99602400  0.41707200  0.89254300  1
  As  As4  1  0.01768100  0.96807700  0.64719000  1
  As  As5  1  0.49602400  0.58292800  0.60745700  1
  As  As6  1  0.51768100  0.03192300  0.85281000  1
  As  As7  1  0.48231900  0.96807700  0.14719000  1
  O  O0  1  0.39053100  0.82009100  0.24813000  1
  O  O1  1  0.95424200  0.75196100  0.01224800  1
  O  O2  1  0.42112900  0.39492000  0.29919500  1
  O  O3  1  0.40113300  0.16257200  0.15030900  1
  O  O4  1  0.57887100  0.60508000  0.70080500  1
  O  O5  1  0.10946900  0.82009100  0.74813000  1
  O  O6  1  0.92112900  0.60508000  0.20080500  1
  O  O7  1  0.70041400  0.50468000  0.89013100  1
  O  O8  1  0.68710100  0.07241600  0.92846500  1
  O  O9  1  0.60946900  0.17990900  0.75187000  1
  O  O10  1  0.09886700  0.16257200  0.65030900  1
  O  O11  1  0.29958600  0.49532000  0.10986900  1
  O  O12  1  0.29432000  0.56935100  0.40188500  1
  O  O13  1  0.31289900  0.92758400  0.07153500  1
  O  O14  1  0.69392300  0.97745600  0.62921200  1
  O  O15  1  0.19392300  0.02254400  0.87078800  1
  O  O16  1  0.79432000  0.43064900  0.09811500  1
  O  O17  1  0.07887100  0.39492000  0.79919500  1
  O  O18  1  0.18710100  0.92758400  0.57153500  1
  O  O19  1  0.20041400  0.49532000  0.60986900  1
  O  O20  1  0.80607700  0.97745600  0.12921200  1
  O  O21  1  0.30607700  0.02254400  0.37078800  1
  O  O22  1  0.04575800  0.24803900  0.98775200  1
  O  O23  1  0.45424200  0.24803900  0.48775200  1
  O  O24  1  0.70568000  0.43064900  0.59811500  1
  O  O25  1  0.89053100  0.17990900  0.25187000  1
  O  O26  1  0.59886700  0.83742800  0.84969100  1
  O  O27  1  0.81289900  0.07241600  0.42846500  1
  O  O28  1  0.54575800  0.75196100  0.51224800  1
  O  O29  1  0.79958600  0.50468000  0.39013100  1
  O  O30  1  0.20568000  0.56935100  0.90188500  1
  O  O31  1  0.90113300  0.83742800  0.34969100  1
loop_
_geom_bond_atom_site_label_1
_geom_bond_atom_site_label_2
_geom_bond_distance
_geom_bond_site_symmetry_2
Mg0 O2 1.958207 1_555
Mg0 O3 2.103072 1_555
Mg0 O25 2.110302 1_555
Mg0 O16 2.152268 1_555
Mg0 O11 2.226032 1_555
Mg1 O6 1.958207 1_455
Mg1 O31 2.103072 1_455
Mg1 O0 2.110302 1_555
Mg1 O12 2.152268 1_555
Mg1 O29 2.226032 1_455
Mg2 O4 1.958207 1_555
Mg2 O26 2.103072 1_555
Mg2 O5 2.110302 1_555
Mg2 O30 2.152268 1_555
Mg2 O7 2.226032 1_555
Mg3 O17 1.958207 1_655
Mg3 O10 2.103072 1_655
Mg3 O9 2.110302 1_555
Mg3 O24 2.152268 1_555
Mg3 O19 2.226032 1_655
Mg4 O27 1.983415 1_555
Mg4 O18 1.983415 1_545
Mg4 O23 2.106573 1_555
Mg4 O28 2.106573 1_545
Mg4 O14 2.298910 1_545
Mg4 O21 2.298910 1_555
Mg5 O13 1.983415 1_545
Mg5 O8 1.983415 1_454
Mg5 O22 2.106573 1_554
Mg5 O1 2.106573 1_445
Mg5 O15 2.298910 1_554
Mg5 O20 2.298910 1_445
Mn0 O9 2.117944 1_555
Mn0 O10 2.134539 1_555
Mn0 O14 2.143654 1_545
Mn0 O23 2.145009 1_555
Mn0 O24 2.216481 1_555
Mn1 O0 2.117944 1_555
Mn1 O31 2.134539 1_555
Mn1 O21 2.143654 1_565
Mn1 O28 2.145009 1_555
Mn1 O12 2.216481 1_555
Mn2 O5 2.117944 1_655
Mn2 O26 2.134539 1_555
Mn2 O15 2.143654 1_665
Mn2 O1 2.145009 1_556
Mn2 O30 2.216481 1_655
Mn3 O25 2.117944 1_455
Mn3 O3 2.134539 1_555
Mn3 O20 2.143654 1_445
Mn3 O22 2.145009 1_554
Mn3 O16 2.216481 1_455
Mn4 O19 2.080677 1_555
Mn4 O29 2.080677 1_455
Mn4 O24 2.152054 1_455
Mn4 O12 2.152054 1_555
Mn5 O7 2.080677 1_554
Mn5 O11 2.080677 1_555
Mn5 O16 2.152054 1_555
Mn5 O30 2.152054 1_554
As0 O27 1.675264 1_555
As0 O21 1.727577 1_655
As0 O25 1.738079 1_555
As0 O31 1.767556 1_545
As1 O2 1.677513 1_555
As1 O23 1.712141 1_555
As1 O29 1.728060 1_555
As1 O12 1.777605 1_555
As2 O6 1.677513 1_455
As2 O1 1.712141 1_455
As2 O11 1.728060 1_555
As2 O16 1.777605 1_455
As3 O17 1.677513 1_655
As3 O22 1.712141 1_655
As3 O7 1.728060 1_555
As3 O30 1.777605 1_655
As4 O18 1.675264 1_555
As4 O14 1.727577 1_455
As4 O5 1.738079 1_555
As4 O10 1.767556 1_565
As5 O4 1.677513 1_555
As5 O28 1.712141 1_555
As5 O19 1.728060 1_555
As5 O24 1.777605 1_555
As6 O8 1.675264 1_555
As6 O15 1.727577 1_555
As6 O9 1.738079 1_555
As6 O26 1.767556 1_545
As7 O13 1.675264 1_555
As7 O20 1.727577 1_555
As7 O0 1.738079 1_555
As7 O3 1.767556 1_565
