# generated using pymatgen
data_Sr4Te3(ClO2)4
_symmetry_space_group_name_H-M   'P 1'
_cell_length_a   8.78087233
_cell_length_b   8.78087233
_cell_length_c   17.22860197
_cell_angle_alpha   71.78096771
_cell_angle_beta   71.78096771
_cell_angle_gamma   38.52988024
_symmetry_Int_Tables_number   1
_chemical_formula_structural   Sr4Te3(ClO2)4
_chemical_formula_sum   'Sr8 Te6 Cl8 O16'
_cell_volume   780.78214174
_cell_formula_units_Z   2
loop_
 _symmetry_equiv_pos_site_id
 _symmetry_equiv_pos_as_xyz
  1  'x, y, z'
loop_
 _atom_site_type_symbol
 _atom_site_label
 _atom_site_symmetry_multiplicity
 _atom_site_fract_x
 _atom_site_fract_y
 _atom_site_fract_z
 _atom_site_occupancy
  Sr  Sr0  1  0.73821800  0.73855700  0.69915900  1
  Sr  Sr1  1  0.26144300  0.26178200  0.30084100  1
  Sr  Sr2  1  0.15769900  0.15764900  0.55912900  1
  Sr  Sr3  1  0.84235100  0.84230100  0.44087100  1
  Sr  Sr4  1  0.04808200  0.05091900  0.81893000  1
  Sr  Sr5  1  0.94908100  0.95191800  0.18107000  1
  Sr  Sr6  1  0.64963500  0.63652200  0.95627300  1
  Sr  Sr7  1  0.36347800  0.35036500  0.04372700  1
  Te  Te0  1  0.36606400  0.36597600  0.57246300  1
  Te  Te1  1  0.63402400  0.63393600  0.42753700  1
  Te  Te2  1  0.26927500  0.26788700  0.82110500  1
  Te  Te3  1  0.73211300  0.73072500  0.17889500  1
  Te  Te4  1  0.53369100  0.53450900  0.67643200  1
  Te  Te5  1  0.46549100  0.46630900  0.32356800  1
  Cl  Cl0  1  0.80913100  0.80484200  0.98233900  1
  Cl  Cl1  1  0.19515800  0.19086900  0.01766100  1
  Cl  Cl2  1  0.90044200  0.90099200  0.74560300  1
  Cl  Cl3  1  0.09900800  0.09955800  0.25439700  1
  Cl  Cl4  1  0.49979400  0.52098600  0.12315700  1
  Cl  Cl5  1  0.47901400  0.50020600  0.87684300  1
  Cl  Cl6  1  0.00001600  0.99998400  0.50000000  1
  Cl  Cl7  1  0.95074800  0.04925200  0.00000000  1
  O  O0  1  0.84359300  0.36089700  0.69364300  1
  O  O1  1  0.36077500  0.84424300  0.69334600  1
  O  O2  1  0.15575700  0.63922500  0.30665400  1
  O  O3  1  0.63910300  0.15640700  0.30635700  1
  O  O4  1  0.94848000  0.42828300  0.83271900  1
  O  O5  1  0.42695200  0.94808900  0.83361000  1
  O  O6  1  0.05191100  0.57304800  0.16639000  1
  O  O7  1  0.57171700  0.05152000  0.16728100  1
  O  O8  1  0.29937800  0.29857700  0.70288200  1
  O  O9  1  0.70142300  0.70062200  0.29711800  1
  O  O10  1  0.05013900  0.53354900  0.56852800  1
  O  O11  1  0.53359800  0.05012600  0.56848100  1
  O  O12  1  0.94987400  0.46640200  0.43151900  1
  O  O13  1  0.46645100  0.94986100  0.43147200  1
  O  O14  1  0.59109600  0.59090300  0.55947300  1
  O  O15  1  0.40909700  0.40890400  0.44052700  1
loop_
_geom_bond_atom_site_label_1
_geom_bond_atom_site_label_2
_geom_bond_distance
_geom_bond_site_symmetry_2
Cl0 Sr6 2.897324 1_555
Cl0 Sr7 3.260331 1_566
Cl0 Sr7 3.305452 1_656
Cl1 Sr7 2.897324 1_555
Cl1 Sr6 3.260331 1_454
Cl1 Sr6 3.305452 1_544
Cl2 Sr0 3.051057 1_555
Cl2 Sr4 3.121560 1_665
Cl3 Sr1 3.051057 1_555
Cl3 Sr5 3.121560 1_445
Cl4 Sr6 2.987645 1_554
Cl4 Sr5 3.068098 1_455
Cl4 Sr5 3.166933 1_545
Cl4 Sr7 3.265284 1_555
Cl5 Sr7 2.987645 1_556
Cl5 Sr4 3.068098 1_565
Cl5 Sr4 3.166933 1_655
Cl5 Sr6 3.265284 1_555
Cl6 Sr2 3.103949 1_565
Cl6 Sr3 3.103949 1_455
Cl7 Sr4 2.964170 1_654
Cl7 Sr5 2.964170 1_545
Cl7 Sr7 3.410944 1_555
Cl7 Sr6 3.410944 1_554
O0 Te4 1.883710 1_555
O0 Sr4 2.528856 1_655
O0 Sr2 2.655386 1_655
O0 Sr0 2.683952 1_555
O1 Te4 1.882890 1_555
O1 Sr4 2.541299 1_565
O1 Sr2 2.649832 1_565
O1 Sr0 2.681974 1_555
O2 Te5 1.882890 1_555
O2 Sr5 2.541299 1_455
O2 Sr3 2.649832 1_455
O2 Sr1 2.681974 1_555
O3 Te5 1.883710 1_555
O3 Sr5 2.528856 1_545
O3 Sr3 2.655386 1_545
O3 Sr1 2.683952 1_555
O4 Te2 1.890774 1_655
O4 Sr6 2.488879 1_555
O4 Sr0 2.644385 1_555
O4 Sr4 2.762125 1_655
O5 Te2 1.890531 1_565
O5 Sr6 2.524524 1_555
O5 Sr0 2.656969 1_555
O5 Sr4 2.762327 1_565
O6 Te3 1.890531 1_455
O6 Sr7 2.524524 1_555
O6 Sr1 2.656969 1_555
O6 Sr5 2.762327 1_455
O7 Te3 1.890774 1_545
O7 Sr7 2.488879 1_555
O7 Sr1 2.644385 1_555
O7 Sr5 2.762125 1_545
O8 Te2 1.929426 1_555
O8 Te0 2.151702 1_555
O8 Sr0 3.070835 1_545
O8 Sr0 3.077061 1_455
O9 Te3 1.929426 1_555
O9 Te1 2.151702 1_555
O9 Sr1 3.070835 1_655
O9 Sr1 3.077061 1_565
O10 Te0 1.879931 1_555
O10 Sr3 2.560819 1_455
O10 Sr0 2.602350 1_455
O10 Sr2 2.678470 1_555
O11 Te0 1.879691 1_555
O11 Sr3 2.560263 1_545
O11 Sr0 2.601742 1_545
O11 Sr2 2.678395 1_555
O12 Te1 1.879691 1_555
O12 Sr2 2.560263 1_655
O12 Sr1 2.601742 1_655
O12 Sr3 2.678395 1_555
O13 Te1 1.879931 1_555
O13 Sr2 2.560819 1_565
O13 Sr1 2.602350 1_565
O13 Sr3 2.678470 1_555
O14 Te4 1.921234 1_555
O14 Te1 2.145163 1_555
O14 Sr2 3.099755 1_655
O14 Sr2 3.100529 1_565
O15 Te5 1.921234 1_555
O15 Te0 2.145163 1_555
O15 Sr3 3.099755 1_545
O15 Sr3 3.100529 1_455
