# generated using pymatgen
data_YGePt
_symmetry_space_group_name_H-M   'P 1'
_cell_length_a   4.36081590
_cell_length_b   7.03369834
_cell_length_c   7.57247729
_cell_angle_alpha   90.00010163
_cell_angle_beta   90.00000000
_cell_angle_gamma   90.00000000
_symmetry_Int_Tables_number   1
_chemical_formula_structural   YGePt
_chemical_formula_sum   'Y4 Ge4 Pt4'
_cell_volume   232.26804821
_cell_formula_units_Z   4
loop_
 _symmetry_equiv_pos_site_id
 _symmetry_equiv_pos_as_xyz
  1  'x, y, z'
loop_
 _atom_site_type_symbol
 _atom_site_label
 _atom_site_symmetry_multiplicity
 _atom_site_fract_x
 _atom_site_fract_y
 _atom_site_fract_z
 _atom_site_occupancy
  Y  Y0  1  0.25000000  0.49713773  0.70499361  1
  Y  Y1  1  0.25000000  0.99712477  0.79494009  1
  Y  Y2  1  0.75000000  0.50286062  0.29500123  1
  Y  Y3  1  0.75000000  0.00287165  0.20506082  1
  Ge  Ge0  1  0.25000000  0.80978575  0.41161583  1
  Ge  Ge1  1  0.25000000  0.30978498  0.08838666  1
  Ge  Ge2  1  0.75000000  0.19021275  0.58838156  1
  Ge  Ge3  1  0.75000000  0.69021338  0.91161531  1
  Pt  Pt0  1  0.25000000  0.20446290  0.41664058  1
  Pt  Pt1  1  0.25000000  0.70446805  0.08336328  1
  Pt  Pt2  1  0.75000000  0.79553882  0.58336349  1
  Pt  Pt3  1  0.75000000  0.29553961  0.91663454  1
loop_
_geom_bond_atom_site_label_1
_geom_bond_atom_site_label_2
_geom_bond_distance
_geom_bond_site_symmetry_2
Ge0 Pt2 2.540800 1_555
Ge0 Pt2 2.540800 1_455
Ge0 Pt1 2.593717 1_555
Ge0 Pt0 2.776301 1_565
Ge0 Y3 3.007517 1_565
Ge0 Y3 3.007517 1_465
Ge0 Y0 3.125928 1_555
Ge0 Y1 3.187794 1_555
Ge0 Y2 3.192878 1_555
Ge0 Y2 3.192878 1_455
Ge1 Pt3 2.540817 1_554
Ge1 Pt3 2.540817 1_454
Ge1 Pt0 2.593738 1_555
Ge1 Pt1 2.776342 1_555
Ge1 Y2 3.007716 1_455
Ge1 Y2 3.007716 1_555
Ge1 Y1 3.126353 1_544
Ge1 Y0 3.188313 1_554
Ge1 Y3 3.192948 1_555
Ge1 Y3 3.192948 1_455
Ge2 Pt0 2.540775 1_655
Ge2 Pt0 2.540775 1_555
Ge2 Pt3 2.593739 1_555
Ge2 Pt2 2.776277 1_545
Ge2 Y1 3.007537 1_645
Ge2 Y1 3.007537 1_545
Ge2 Y2 3.125941 1_555
Ge2 Y3 3.187776 1_555
Ge2 Y0 3.192872 1_655
Ge2 Y0 3.192872 1_555
Ge3 Pt1 2.540803 1_656
Ge3 Pt1 2.540803 1_556
Ge3 Pt2 2.593730 1_555
Ge3 Pt3 2.776276 1_555
Ge3 Y0 3.007744 1_555
Ge3 Y0 3.007744 1_655
Ge3 Y3 3.126338 1_566
Ge3 Y2 3.188264 1_556
Ge3 Y1 3.192941 1_655
Ge3 Y1 3.192941 1_555
Pt0 Y0 3.000940 1_555
Pt0 Y3 3.054782 1_555
Pt0 Y3 3.054782 1_455
Pt0 Y2 3.163504 1_455
Pt0 Y2 3.163504 1_555
Pt0 Y1 3.214516 1_545
Pt1 Y1 3.001244 1_554
Pt1 Y2 3.055068 1_455
Pt1 Y2 3.055068 1_555
Pt1 Y3 3.163658 1_565
Pt1 Y3 3.163658 1_465
Pt1 Y0 3.214960 1_554
Pt2 Y2 3.001007 1_555
Pt2 Y1 3.054752 1_555
Pt2 Y1 3.054752 1_655
Pt2 Y0 3.163500 1_655
Pt2 Y0 3.163500 1_555
Pt2 Y3 3.214520 1_565
Pt3 Y3 3.001315 1_556
Pt3 Y0 3.055050 1_555
Pt3 Y0 3.055050 1_655
Pt3 Y1 3.163703 1_645
Pt3 Y1 3.163703 1_545
Pt3 Y2 3.214910 1_556
