# generated using pymatgen
data_LiCo5SbO8
_symmetry_space_group_name_H-M   'P 1'
_cell_length_a   6.30148894
_cell_length_b   6.27464728
_cell_length_c   6.11516800
_cell_angle_alpha   60.83602573
_cell_angle_beta   60.97288966
_cell_angle_gamma   58.48878864
_symmetry_Int_Tables_number   1
_chemical_formula_structural   LiCo5SbO8
_chemical_formula_sum   'Li1 Co5 Sb1 O8'
_cell_volume   171.15701443
_cell_formula_units_Z   1
loop_
 _symmetry_equiv_pos_site_id
 _symmetry_equiv_pos_as_xyz
  1  'x, y, z'
loop_
 _atom_site_type_symbol
 _atom_site_label
 _atom_site_symmetry_multiplicity
 _atom_site_fract_x
 _atom_site_fract_y
 _atom_site_fract_z
 _atom_site_occupancy
  Li  Li0  1  0.14407700  0.03928800  0.65836700  1
  Co  Co0  1  0.11361100  0.13989500  0.12325700  1
  Co  Co1  1  0.49294900  0.50683500  0.50689500  1
  Co  Co2  1  0.49295000  0.50683700  0.99331500  1
  Co  Co3  1  0.56447100  0.04691600  0.44429100  1
  Co  Co4  1  0.86842700  0.80982300  0.91085800  1
  Sb  Sb0  1  0.99404600  0.51815800  0.49389300  1
  O  O0  1  0.24479700  0.25802100  0.28091400  1
  O  O1  1  0.22400700  0.73069400  0.27264500  1
  O  O2  1  0.24478800  0.25803400  0.71627800  1
  O  O3  1  0.72812200  0.30612100  0.23287900  1
  O  O4  1  0.25094000  0.69348100  0.77778500  1
  O  O5  1  0.77832600  0.28001500  0.72083000  1
  O  O6  1  0.73654200  0.74981400  0.28814800  1
  O  O7  1  0.73652900  0.74981900  0.72547900  1
loop_
_geom_bond_atom_site_label_1
_geom_bond_atom_site_label_2
_geom_bond_distance
_geom_bond_site_symmetry_2
Li0 O4 1.760787 1_545
Li0 O5 1.951484 1_455
Li0 O2 2.003611 1_555
Li0 O0 2.003899 1_555
Co0 O3 1.972492 1_455
Co0 O0 2.067034 1_555
Co0 O2 2.067050 1_554
Co0 O1 2.091542 1_545
Co1 O4 2.003397 1_555
Co1 O3 2.070277 1_555
Co1 O5 2.182655 1_555
Co1 O1 2.191713 1_555
Co1 O6 2.221725 1_555
Co1 O2 2.276553 1_555
Co2 O4 2.003401 1_555
Co2 O3 2.070284 1_556
Co2 O5 2.182651 1_555
Co2 O1 2.191713 1_556
Co2 O7 2.221676 1_555
Co2 O0 2.276586 1_556
Co3 O3 1.946854 1_555
Co3 O7 2.044437 1_545
Co3 O6 2.044462 1_545
Co3 O0 2.164405 1_555
Co3 O2 2.164626 1_555
Co3 Li0 2.332343 1_555
Co4 O7 1.942973 1_555
Co4 O6 1.942997 1_556
Co4 O4 1.959906 1_655
Co4 Li0 2.306336 1_665
Co4 O5 2.434094 1_565
O0 Sb0 2.058158 1_455
O1 Sb0 2.016881 1_455
O2 Sb0 2.058169 1_455
O5 Sb0 2.068358 1_555
O6 Sb0 2.015470 1_555
O7 Sb0 2.015490 1_555
