# generated using pymatgen
data_EuB4Ru
_symmetry_space_group_name_H-M   'P 1'
_cell_length_a   6.03891900
_cell_length_b   11.69107000
_cell_length_c   3.58906100
_cell_angle_alpha   90.00000000
_cell_angle_beta   90.00000000
_cell_angle_gamma   90.00000000
_symmetry_Int_Tables_number   1
_chemical_formula_structural   EuB4Ru
_chemical_formula_sum   'Eu4 B16 Ru4'
_cell_volume   253.39282013
_cell_formula_units_Z   4
loop_
 _symmetry_equiv_pos_site_id
 _symmetry_equiv_pos_as_xyz
  1  'x, y, z'
loop_
 _atom_site_type_symbol
 _atom_site_label
 _atom_site_symmetry_multiplicity
 _atom_site_fract_x
 _atom_site_fract_y
 _atom_site_fract_z
 _atom_site_occupancy
  Eu  Eu0  1  0.62789400  0.34963700  0.00000000  1
  Eu  Eu1  1  0.37210600  0.65036300  0.00000000  1
  Eu  Eu2  1  0.12789400  0.15036300  0.00000000  1
  Eu  Eu3  1  0.87210600  0.84963700  0.00000000  1
  B  B0  1  0.78449900  0.18423300  0.50000000  1
  B  B1  1  0.21550100  0.81576700  0.50000000  1
  B  B2  1  0.28449900  0.31576700  0.50000000  1
  B  B3  1  0.71550100  0.68423300  0.50000000  1
  B  B4  1  0.86204400  0.03130500  0.50000000  1
  B  B5  1  0.13795600  0.96869500  0.50000000  1
  B  B6  1  0.36204400  0.46869500  0.50000000  1
  B  B7  1  0.63795600  0.53130500  0.50000000  1
  B  B8  1  0.88856100  0.45380400  0.50000000  1
  B  B9  1  0.11143900  0.54619600  0.50000000  1
  B  B10  1  0.38856100  0.04619600  0.50000000  1
  B  B11  1  0.61143900  0.95380400  0.50000000  1
  B  B12  1  0.97600100  0.30955900  0.50000000  1
  B  B13  1  0.02399900  0.69044100  0.50000000  1
  B  B14  1  0.47600100  0.19044100  0.50000000  1
  B  B15  1  0.52399900  0.80955900  0.50000000  1
  Ru  Ru0  1  0.63536500  0.08881100  0.00000000  1
  Ru  Ru1  1  0.36463500  0.91118900  0.00000000  1
  Ru  Ru2  1  0.13536500  0.41118900  0.00000000  1
  Ru  Ru3  1  0.86463500  0.58881100  0.00000000  1
loop_
_geom_bond_atom_site_label_1
_geom_bond_atom_site_label_2
_geom_bond_distance
_geom_bond_site_symmetry_2
Eu0 Ru0 3.049669 1_555
Eu0 Ru2 3.060155 1_555
Eu0 Ru3 3.140487 1_555
Eu0 Ru2 3.147930 1_655
Eu1 Ru1 3.049669 1_555
Eu1 Ru3 3.060155 1_555
Eu1 Ru2 3.140487 1_555
Eu1 Ru3 3.147930 1_455
Eu2 Ru2 3.049669 1_555
Eu2 Ru0 3.060155 1_455
Eu2 Ru1 3.140487 1_545
Eu2 Ru0 3.147930 1_555
Eu3 Ru3 3.049669 1_555
Eu3 Ru1 3.060155 1_655
Eu3 Ru0 3.140487 1_565
Eu3 Ru1 3.147930 1_555
B0 B4 1.848202 1_555
B0 B14 1.864408 1_555
B0 B12 1.866603 1_555
B0 Ru0 2.296947 1_556
B0 Ru0 2.296947 1_555
B0 Eu2 2.770832 1_656
B0 Eu2 2.770832 1_655
B0 Eu0 2.802521 1_556
B0 Eu0 2.802521 1_555
B1 B5 1.848202 1_555
B1 B15 1.864408 1_555
B1 B13 1.866603 1_555
B1 Ru1 2.296947 1_555
B1 Ru1 2.296947 1_556
B1 Eu3 2.770832 1_456
B1 Eu3 2.770832 1_455
B1 Eu1 2.802521 1_555
B1 Eu1 2.802521 1_556
B2 B6 1.848202 1_555
B2 Ru2 2.296947 1_555
B2 Ru2 2.296947 1_556
B2 Eu0 2.770832 1_556
B2 Eu0 2.770832 1_555
B2 Eu2 2.802521 1_555
B2 Eu2 2.802521 1_556
B3 B7 1.848202 1_555
B3 Ru3 2.296947 1_556
B3 Ru3 2.296947 1_555
B3 Eu1 2.770832 1_556
B3 Eu1 2.770832 1_555
B3 Eu3 2.802521 1_556
B3 Eu3 2.802521 1_555
B4 B5 1.819903 1_645
B4 Ru0 2.355040 1_556
B4 Ru0 2.355040 1_555
B4 Eu3 2.781179 1_546
B4 Eu3 2.781179 1_545
B4 Eu2 2.781228 1_656
B4 Eu2 2.781228 1_655
B5 Ru1 2.355040 1_556
B5 Ru1 2.355040 1_555
B5 Eu2 2.781179 1_565
B5 Eu2 2.781179 1_566
B5 Eu3 2.781228 1_455
B5 Eu3 2.781228 1_456
B6 B9 1.763885 1_555
B6 B7 1.819903 1_555
B6 Ru2 2.355040 1_555
B6 Ru2 2.355040 1_556
B6 Eu1 2.781179 1_556
B6 Eu1 2.781179 1_555
B6 Eu0 2.781228 1_555
B6 Eu0 2.781228 1_556
B7 B8 1.763885 1_555
B7 Ru3 2.355040 1_556
B7 Ru3 2.355040 1_555
B7 Eu0 2.781179 1_556
B7 Eu0 2.781179 1_555
B7 Eu1 2.781228 1_556
B7 Eu1 2.781228 1_555
B8 B9 1.725778 1_655
B8 Ru2 2.385359 1_656
B8 Ru2 2.385359 1_655
B8 Ru3 2.394261 1_555
B8 Ru3 2.394261 1_556
B8 Eu0 2.679808 1_555
B8 Eu0 2.679808 1_556
B9 Ru3 2.385359 1_456
B9 Ru3 2.385359 1_455
B9 Ru2 2.394261 1_556
B9 Ru2 2.394261 1_555
B9 Eu1 2.679808 1_556
B9 Eu1 2.679808 1_555
B10 B11 1.725778 1_545
B10 B5 1.763885 1_545
B10 B14 1.767117 1_555
B10 Ru0 2.385359 1_556
B10 Ru0 2.385359 1_555
B10 Ru1 2.394261 1_546
B10 Ru1 2.394261 1_545
B10 Eu2 2.679808 1_555
B10 Eu2 2.679808 1_556
B11 B4 1.763885 1_565
B11 B15 1.767117 1_555
B11 Ru1 2.385359 1_555
B11 Ru1 2.385359 1_556
B11 Ru0 2.394261 1_565
B11 Ru0 2.394261 1_566
B11 Eu3 2.679808 1_555
B11 Eu3 2.679808 1_556
B12 B8 1.767117 1_555
B12 B2 1.864408 1_655
B12 Ru2 2.357596 1_656
B12 Ru2 2.357596 1_655
B12 Eu2 2.743298 1_656
B12 Eu2 2.743298 1_655
B12 Eu0 2.803406 1_556
B12 Eu0 2.803406 1_555
B13 B9 1.767117 1_555
B13 B3 1.864408 1_455
B13 Ru3 2.357596 1_456
B13 Ru3 2.357596 1_455
B13 Eu3 2.743298 1_455
B13 Eu3 2.743298 1_456
B13 Eu1 2.803406 1_555
B13 Eu1 2.803406 1_556
B14 B2 1.866603 1_555
B14 Ru0 2.357596 1_555
B14 Ru0 2.357596 1_556
B14 Eu0 2.743298 1_556
B14 Eu0 2.743298 1_555
B14 Eu2 2.803406 1_555
B14 Eu2 2.803406 1_556
B15 B3 1.866603 1_555
B15 Ru1 2.357596 1_555
B15 Ru1 2.357596 1_556
B15 Eu1 2.743298 1_556
B15 Eu1 2.743298 1_555
B15 Eu3 2.803406 1_555
B15 Eu3 2.803406 1_556
Ru0 Ru1 2.642950 1_545
Ru2 Ru3 2.642950 1_455
