# generated using pymatgen
data_NiP2(PbO4)2
_symmetry_space_group_name_H-M   'P 1'
_cell_length_a   15.68508200
_cell_length_b   5.36063600
_cell_length_c   8.56095239
_cell_angle_alpha   89.96730622
_cell_angle_beta   90.00000000
_cell_angle_gamma   90.00000000
_symmetry_Int_Tables_number   1
_chemical_formula_structural   NiP2(PbO4)2
_chemical_formula_sum   'Ni4 P8 Pb8 O32'
_cell_volume   719.82201238
_cell_formula_units_Z   4
loop_
 _symmetry_equiv_pos_site_id
 _symmetry_equiv_pos_as_xyz
  1  'x, y, z'
loop_
 _atom_site_type_symbol
 _atom_site_label
 _atom_site_symmetry_multiplicity
 _atom_site_fract_x
 _atom_site_fract_y
 _atom_site_fract_z
 _atom_site_occupancy
  Ni  Ni0  1  0.63524100  0.78367600  0.47907600  1
  Ni  Ni1  1  0.13524100  0.21632400  0.02092400  1
  Ni  Ni2  1  0.36475900  0.21632400  0.52092400  1
  Ni  Ni3  1  0.86475900  0.78367600  0.97907600  1
  P  P0  1  0.66468300  0.74119200  0.09373100  1
  P  P1  1  0.16468300  0.25880800  0.40626900  1
  P  P2  1  0.33531700  0.25880800  0.90626900  1
  P  P3  1  0.83531700  0.74119200  0.59373100  1
  P  P4  1  0.92566600  0.24329700  0.07709300  1
  P  P5  1  0.42566600  0.75670300  0.42290700  1
  P  P6  1  0.07433400  0.75670300  0.92290700  1
  P  P7  1  0.57433400  0.24329700  0.57709300  1
  Pb  Pb0  1  0.49234700  0.75113300  0.82320300  1
  Pb  Pb1  1  0.99234700  0.24886700  0.67679700  1
  Pb  Pb2  1  0.50765300  0.24886700  0.17679700  1
  Pb  Pb3  1  0.00765300  0.75113300  0.32320300  1
  Pb  Pb4  1  0.76410900  0.26368300  0.31845200  1
  Pb  Pb5  1  0.26410900  0.73631700  0.18154800  1
  Pb  Pb6  1  0.23589100  0.73631700  0.68154800  1
  Pb  Pb7  1  0.73589100  0.26368300  0.81845200  1
  O  O0  1  0.65245700  0.49305500  0.00054100  1
  O  O1  1  0.15245700  0.50694500  0.49945900  1
  O  O2  1  0.34754300  0.50694500  0.99945900  1
  O  O3  1  0.84754300  0.49305500  0.50054100  1
  O  O4  1  0.68158200  0.66892700  0.26741400  1
  O  O5  1  0.18158200  0.33107300  0.23258600  1
  O  O6  1  0.31841800  0.33107300  0.73258600  1
  O  O7  1  0.81841800  0.66892700  0.76741400  1
  O  O8  1  0.74103000  0.89859800  0.03199000  1
  O  O9  1  0.24103000  0.10140200  0.46801000  1
  O  O10  1  0.25897000  0.10140200  0.96801000  1
  O  O11  1  0.75897000  0.89859800  0.53199000  1
  O  O12  1  0.58119300  0.89670700  0.07320500  1
  O  O13  1  0.08119300  0.10329300  0.42679500  1
  O  O14  1  0.41880700  0.10329300  0.92679500  1
  O  O15  1  0.91880700  0.89670700  0.57320500  1
  O  O16  1  0.01787600  0.32028000  0.10410500  1
  O  O17  1  0.51787600  0.67972000  0.39589500  1
  O  O18  1  0.98212400  0.67972000  0.89589500  1
  O  O19  1  0.48212400  0.32028000  0.60410500  1
  O  O20  1  0.90386100  0.14947800  0.90738600  1
  O  O21  1  0.40386100  0.85052200  0.59261400  1
  O  O22  1  0.09613900  0.85052200  0.09261400  1
  O  O23  1  0.59613900  0.14947800  0.40738600  1
  O  O24  1  0.90231900  0.01281600  0.18419300  1
  O  O25  1  0.40231900  0.98718400  0.31580700  1
  O  O26  1  0.09768100  0.98718400  0.81580700  1
  O  O27  1  0.59768100  0.01281600  0.68419300  1
  O  O28  1  0.86230700  0.45970600  0.11662400  1
  O  O29  1  0.36230700  0.54029400  0.38337600  1
  O  O30  1  0.13769300  0.54029400  0.88337600  1
  O  O31  1  0.63769300  0.45970600  0.61662400  1
loop_
_geom_bond_atom_site_label_1
_geom_bond_atom_site_label_2
_geom_bond_distance
_geom_bond_site_symmetry_2
Ni0 O4 2.047298 1_555
Ni0 O17 2.051083 1_555
Ni0 O11 2.085992 1_555
Ni0 O31 2.098053 1_555
Ni0 O23 2.143993 1_565
Ni0 O27 2.223032 1_565
Ni1 O5 2.047298 1_555
Ni1 O16 2.051083 1_555
Ni1 O10 2.085992 1_554
Ni1 O30 2.098053 1_554
Ni1 O22 2.143993 1_545
Ni1 O26 2.223032 1_544
Ni2 O6 2.047298 1_555
Ni2 O19 2.051083 1_555
Ni2 O9 2.085992 1_555
Ni2 O29 2.098053 1_555
Ni2 O21 2.143993 1_545
Ni2 O25 2.223032 1_545
Ni3 O7 2.047298 1_555
Ni3 O18 2.051083 1_555
Ni3 O8 2.085992 1_556
Ni3 O28 2.098053 1_556
Ni3 O20 2.143993 1_565
Ni3 O24 2.223032 1_566
O0 P0 1.563272 1_555
O0 Pb7 2.378381 1_554
O1 P1 1.563272 1_555
O1 Pb6 2.378381 1_555
O2 P2 1.563272 1_555
O2 Pb5 2.378381 1_556
O3 P3 1.563272 1_555
O3 Pb4 2.378381 1_555
O4 P0 1.559011 1_555
O4 Pb4 2.566044 1_555
O5 P1 1.559011 1_555
O5 Pb5 2.566044 1_555
O6 P2 1.559011 1_555
O6 Pb6 2.566044 1_555
O7 P3 1.559011 1_555
O7 Pb7 2.566044 1_555
O8 P0 1.557205 1_555
O8 Pb7 2.678529 1_564
O9 P1 1.557205 1_555
O9 Pb6 2.678529 1_545
O10 P2 1.557205 1_555
O10 Pb5 2.678529 1_546
O11 P3 1.557205 1_555
O11 Pb4 2.678529 1_565
O12 P0 1.562246 1_555
O12 Pb2 2.383846 1_565
O12 Pb0 2.670875 1_554
O13 P1 1.562246 1_555
O13 Pb3 2.383846 1_545
O13 Pb1 2.670875 1_455
O14 P2 1.562246 1_555
O14 Pb0 2.383846 1_545
O14 Pb2 2.670875 1_556
O15 P3 1.562246 1_555
O15 Pb1 2.383846 1_565
O15 Pb3 2.670875 1_655
O16 P4 1.521753 1_455
O17 P5 1.521753 1_555
O18 P6 1.521753 1_655
O19 P7 1.521753 1_555
O20 P4 1.575287 1_556
O20 Pb1 2.471007 1_555
O20 Pb7 2.809836 1_555
O21 P5 1.575287 1_555
O21 Pb0 2.471007 1_555
O21 Pb6 2.809836 1_555
O22 P6 1.575287 1_554
O22 Pb3 2.471007 1_555
O22 Pb5 2.809836 1_555
O23 P7 1.575287 1_555
O23 Pb2 2.471007 1_555
O23 Pb4 2.809836 1_555
O24 P4 1.581138 1_555
O24 Pb3 2.472209 1_645
O24 Pb4 2.798368 1_555
O25 P5 1.581138 1_555
O25 Pb2 2.472209 1_565
O25 Pb5 2.798368 1_555
O26 P6 1.581138 1_555
O26 Pb1 2.472209 1_465
O26 Pb6 2.798368 1_555
O27 P7 1.581138 1_555
O27 Pb0 2.472209 1_545
O27 Pb7 2.798368 1_555
O28 P4 1.564739 1_555
O28 Pb4 2.541635 1_555
O29 P5 1.564739 1_555
O29 Pb5 2.541635 1_555
O30 P6 1.564739 1_555
O30 Pb6 2.541635 1_555
O31 P7 1.564739 1_555
O31 Pb7 2.541635 1_555
