# generated using pymatgen
data_K3Mg18Sn11
_symmetry_space_group_name_H-M   'P 1'
_cell_length_a   11.91321663
_cell_length_b   11.91316890
_cell_length_c   13.93665564
_cell_angle_alpha   90.00000000
_cell_angle_beta   90.00000000
_cell_angle_gamma   120.00118902
_symmetry_Int_Tables_number   1
_chemical_formula_structural   K3Mg18Sn11
_chemical_formula_sum   'K6 Mg36 Sn22'
_cell_volume   1712.93283926
_cell_formula_units_Z   2
loop_
 _symmetry_equiv_pos_site_id
 _symmetry_equiv_pos_as_xyz
  1  'x, y, z'
loop_
 _atom_site_type_symbol
 _atom_site_label
 _atom_site_symmetry_multiplicity
 _atom_site_fract_x
 _atom_site_fract_y
 _atom_site_fract_z
 _atom_site_occupancy
  K  K0  1  0.66659790  0.33330189  0.08268648  1
  K  K1  1  0.33340210  0.66669811  0.58268648  1
  K  K2  1  0.33340210  0.66669811  0.91731352  1
  K  K3  1  0.66659790  0.33330189  0.41731352  1
  K  K4  1  0.33338281  0.66668999  0.25000000  1
  K  K5  1  0.66661719  0.33331001  0.75000000  1
  Mg  Mg0  1  0.10982780  0.85450422  0.25000000  1
  Mg  Mg1  1  0.14549504  0.25532619  0.25000000  1
  Mg  Mg2  1  0.74465838  0.89015823  0.25000000  1
  Mg  Mg3  1  0.89017220  0.14549578  0.75000000  1
  Mg  Mg4  1  0.85450496  0.74467381  0.75000000  1
  Mg  Mg5  1  0.25534162  0.10984177  0.75000000  1
  Mg  Mg6  1  0.85287037  0.73107129  0.08363978  1
  Mg  Mg7  1  0.26892886  0.12180196  0.08363953  1
  Mg  Mg8  1  0.87819497  0.14712599  0.08363912  1
  Mg  Mg9  1  0.14712963  0.26892871  0.58363978  1
  Mg  Mg10  1  0.73107114  0.87819804  0.58363953  1
  Mg  Mg11  1  0.12180503  0.85287401  0.58363912  1
  Mg  Mg12  1  0.14712963  0.26892871  0.91636022  1
  Mg  Mg13  1  0.73107114  0.87819804  0.91636047  1
  Mg  Mg14  1  0.12180503  0.85287401  0.91636088  1
  Mg  Mg15  1  0.85287037  0.73107129  0.41636022  1
  Mg  Mg16  1  0.26892886  0.12180196  0.41636047  1
  Mg  Mg17  1  0.87819497  0.14712599  0.41636088  1
  Mg  Mg18  1  0.62647435  0.56733086  0.25000000  1
  Mg  Mg19  1  0.43266707  0.05913952  0.25000000  1
  Mg  Mg20  1  0.94085649  0.37352667  0.25000000  1
  Mg  Mg21  1  0.37352565  0.43266914  0.75000000  1
  Mg  Mg22  1  0.56733293  0.94086048  0.75000000  1
  Mg  Mg23  1  0.05914351  0.62647333  0.75000000  1
  Mg  Mg24  1  0.05701242  0.62297727  0.08366611  1
  Mg  Mg25  1  0.37702201  0.43403244  0.08366616  1
  Mg  Mg26  1  0.56596953  0.94299326  0.08366579  1
  Mg  Mg27  1  0.94298758  0.37702273  0.58366611  1
  Mg  Mg28  1  0.62297799  0.56596756  0.58366616  1
  Mg  Mg29  1  0.43403047  0.05700674  0.58366579  1
  Mg  Mg30  1  0.94298758  0.37702273  0.91633389  1
  Mg  Mg31  1  0.62297799  0.56596756  0.91633384  1
  Mg  Mg32  1  0.43403047  0.05700674  0.91633421  1
  Mg  Mg33  1  0.05701242  0.62297727  0.41633389  1
  Mg  Mg34  1  0.37702201  0.43403244  0.41633384  1
  Mg  Mg35  1  0.56596953  0.94299326  0.41633421  1
  Sn  Sn0  1  0.00000011  0.00000023  0.14016737  1
  Sn  Sn1  1  0.99999989  -0.00000023  0.64016737  1
  Sn  Sn2  1  0.99999989  -0.00000023  0.85983263  1
  Sn  Sn3  1  0.00000011  0.00000023  0.35983263  1
  Sn  Sn4  1  0.29594013  0.88678686  0.08403453  1
  Sn  Sn5  1  0.11321567  0.40915522  0.08403401  1
  Sn  Sn6  1  0.59084986  0.70406051  0.08403451  1
  Sn  Sn7  1  0.70405987  0.11321314  0.58403453  1
  Sn  Sn8  1  0.88678433  0.59084478  0.58403401  1
  Sn  Sn9  1  0.40915014  0.29593949  0.58403451  1
  Sn  Sn10  1  0.70405987  0.11321314  0.91596547  1
  Sn  Sn11  1  0.88678433  0.59084478  0.91596599  1
  Sn  Sn12  1  0.40915014  0.29593949  0.91596549  1
  Sn  Sn13  1  0.29594013  0.88678686  0.41596547  1
  Sn  Sn14  1  0.11321567  0.40915522  0.41596599  1
  Sn  Sn15  1  0.59084986  0.70406051  0.41596549  1
  Sn  Sn16  1  0.88589972  0.58538125  0.25000000  1
  Sn  Sn17  1  0.41461395  0.30051788  0.25000000  1
  Sn  Sn18  1  0.69947990  0.11409676  0.25000000  1
  Sn  Sn19  1  0.11410028  0.41461875  0.75000000  1
  Sn  Sn20  1  0.58538605  0.69948212  0.75000000  1
  Sn  Sn21  1  0.30052010  0.88590324  0.75000000  1
loop_
_geom_bond_atom_site_label_1
_geom_bond_atom_site_label_2
_geom_bond_distance
_geom_bond_site_symmetry_2
K0 Sn17 3.664552 1_555
K0 Sn18 3.665142 1_555
K0 Sn16 3.665407 1_555
K0 Sn12 3.693021 1_554
K0 Sn10 3.693620 1_554
K0 Sn11 3.693872 1_554
K0 Mg32 3.842609 1_554
K0 Mg31 3.842945 1_554
K0 Mg19 3.843037 1_555
K0 Mg18 3.843378 1_555
K0 Mg30 3.843566 1_554
K0 Mg20 3.844006 1_555
K1 Sn20 3.664552 1_555
K1 Sn21 3.665142 1_555
K1 Sn19 3.665407 1_555
K1 Sn15 3.693021 1_555
K1 Sn13 3.693620 1_555
K1 Sn14 3.693872 1_555
K1 Mg35 3.842609 1_555
K1 Mg34 3.842945 1_555
K1 Mg22 3.843037 1_555
K1 Mg21 3.843378 1_555
K1 Mg33 3.843566 1_555
K1 Mg23 3.844006 1_555
K2 Sn20 3.664552 1_555
K2 Sn21 3.665142 1_555
K2 Sn19 3.665407 1_555
K2 Sn6 3.693021 1_556
K2 Sn4 3.693620 1_556
K2 Sn5 3.693872 1_556
K2 Mg26 3.842609 1_556
K2 Mg25 3.842945 1_556
K2 Mg22 3.843037 1_555
K2 Mg21 3.843378 1_555
K2 Mg24 3.843566 1_556
K2 Mg23 3.844006 1_555
K3 Sn17 3.664552 1_555
K3 Sn18 3.665142 1_555
K3 Sn16 3.665407 1_555
K3 Sn9 3.693021 1_555
K3 Sn7 3.693620 1_555
K3 Sn8 3.693872 1_555
K3 Mg29 3.842609 1_555
K3 Mg28 3.842945 1_555
K3 Mg19 3.843037 1_555
K3 Mg18 3.843378 1_555
K3 Mg27 3.843566 1_555
K3 Mg20 3.844006 1_555
K4 Sn6 3.686554 1_555
K4 Sn15 3.686554 1_555
K4 Sn13 3.686971 1_555
K4 Sn4 3.686971 1_555
K4 Sn14 3.687152 1_555
K4 Sn5 3.687152 1_555
K4 Mg26 3.842572 1_555
K4 Mg35 3.842572 1_555
K4 Mg34 3.842825 1_555
K4 Mg25 3.842825 1_555
K4 Mg33 3.843256 1_555
K4 Mg24 3.843256 1_555
K5 Sn9 3.686554 1_555
K5 Sn12 3.686554 1_555
K5 Sn7 3.686971 1_555
K5 Sn10 3.686971 1_555
K5 Sn11 3.687152 1_555
K5 Sn8 3.687152 1_555
K5 Mg29 3.842572 1_555
K5 Mg32 3.842572 1_555
K5 Mg31 3.842825 1_555
K5 Mg28 3.842825 1_555
K5 Mg30 3.843256 1_555
K5 Mg27 3.843256 1_555
Mg0 Sn16 2.973637 1_455
Mg0 Sn0 3.054064 1_565
Mg0 Sn3 3.054064 1_565
Mg0 Sn4 3.092105 1_555
Mg0 Sn13 3.092105 1_555
Mg1 Sn17 2.973653 1_555
Mg1 Sn0 3.054034 1_555
Mg1 Sn3 3.054034 1_555
Mg1 Sn14 3.092093 1_555
Mg1 Sn5 3.092093 1_555
Mg2 Sn18 2.973695 1_565
Mg2 Sn0 3.054189 1_665
Mg2 Sn3 3.054189 1_665
Mg2 Sn6 3.091951 1_555
Mg2 Sn15 3.091951 1_555
Mg3 Sn19 2.973637 1_655
Mg3 Sn1 3.054064 1_555
Mg3 Sn2 3.054064 1_555
Mg3 Sn10 3.092105 1_555
Mg3 Sn7 3.092105 1_555
Mg4 Sn20 2.973653 1_555
Mg4 Sn1 3.054034 1_565
Mg4 Sn2 3.054034 1_565
Mg4 Sn11 3.092093 1_555
Mg4 Sn8 3.092093 1_555
Mg5 Sn21 2.973695 1_545
Mg5 Sn2 3.054189 1_455
Mg5 Sn1 3.054189 1_455
Mg5 Sn12 3.091951 1_555
Mg5 Sn9 3.091951 1_555
Mg6 Sn0 2.888154 1_665
Mg6 Sn6 2.973701 1_555
Mg6 Sn11 3.014896 1_554
Mg6 Sn16 3.037380 1_555
Mg7 Sn0 2.888168 1_555
Mg7 Sn4 2.973767 1_545
Mg7 Sn12 3.014848 1_554
Mg7 Sn17 3.037328 1_555
Mg8 Sn0 2.888228 1_655
Mg8 Sn5 2.973761 1_655
Mg8 Sn10 3.014853 1_554
Mg8 Sn18 3.037351 1_555
Mg9 Sn1 2.888154 1_455
Mg9 Sn9 2.973701 1_555
Mg9 Sn14 3.014896 1_555
Mg9 Sn19 3.037380 1_555
Mg10 Sn1 2.888168 1_565
Mg10 Sn7 2.973767 1_565
Mg10 Sn15 3.014848 1_555
Mg10 Sn20 3.037328 1_555
Mg11 Sn1 2.888228 1_465
Mg11 Sn8 2.973761 1_455
Mg11 Sn13 3.014853 1_555
Mg11 Sn21 3.037351 1_555
Mg12 Sn2 2.888154 1_455
Mg12 Sn12 2.973701 1_555
Mg12 Sn5 3.014896 1_556
Mg12 Sn19 3.037380 1_555
Mg13 Sn2 2.888168 1_565
Mg13 Sn10 2.973767 1_565
Mg13 Sn6 3.014848 1_556
Mg13 Sn20 3.037328 1_555
Mg14 Sn2 2.888228 1_465
Mg14 Sn11 2.973761 1_455
Mg14 Sn4 3.014853 1_556
Mg14 Sn21 3.037351 1_555
Mg15 Sn3 2.888154 1_665
Mg15 Sn15 2.973701 1_555
Mg15 Sn8 3.014896 1_555
Mg15 Sn16 3.037380 1_555
Mg16 Sn3 2.888168 1_555
Mg16 Sn13 2.973767 1_545
Mg16 Sn9 3.014848 1_555
Mg16 Sn17 3.037328 1_555
Mg17 Sn3 2.888228 1_655
Mg17 Sn14 2.973761 1_655
Mg17 Sn7 3.014853 1_555
Mg17 Sn18 3.037351 1_555
Mg18 Sn17 2.907033 1_555
Mg18 Sn6 2.979042 1_555
Mg18 Sn15 2.979042 1_555
Mg18 Sn16 2.988875 1_555
Mg19 Sn18 2.907059 1_555
Mg19 Sn4 2.979004 1_545
Mg19 Sn13 2.979004 1_545
Mg19 Sn17 2.988929 1_555
Mg20 Sn16 2.907056 1_555
Mg20 Sn14 2.979070 1_655
Mg20 Sn5 2.979070 1_655
Mg20 Sn18 2.988857 1_555
Mg21 Sn20 2.907033 1_555
Mg21 Sn12 2.979042 1_555
Mg21 Sn9 2.979042 1_555
Mg21 Sn19 2.988875 1_555
Mg22 Sn21 2.907059 1_555
Mg22 Sn10 2.979004 1_565
Mg22 Sn7 2.979004 1_565
Mg22 Sn20 2.988929 1_555
Mg23 Sn19 2.907056 1_555
Mg23 Sn11 2.979070 1_455
Mg23 Sn8 2.979070 1_455
Mg23 Sn21 2.988857 1_555
Mg24 Sn5 2.939847 1_555
Mg24 Sn16 2.969311 1_455
Mg24 Sn11 2.990861 1_454
Mg24 Sn4 3.005536 1_555
Mg25 Sn6 2.939832 1_555
Mg25 Sn17 2.969280 1_555
Mg25 Sn12 2.990830 1_554
Mg25 Sn5 3.005576 1_555
Mg26 Sn4 2.939870 1_555
Mg26 Sn18 2.969236 1_565
Mg26 Sn10 2.990791 1_564
Mg26 Sn6 3.005639 1_555
Mg27 Sn8 2.939847 1_555
Mg27 Sn19 2.969311 1_655
Mg27 Sn14 2.990861 1_655
Mg27 Sn7 3.005536 1_555
Mg28 Sn9 2.939832 1_555
Mg28 Sn20 2.969280 1_555
Mg28 Sn15 2.990830 1_555
Mg28 Sn8 3.005576 1_555
Mg29 Sn7 2.939870 1_555
Mg29 Sn21 2.969236 1_545
Mg29 Sn13 2.990791 1_545
Mg29 Sn9 3.005639 1_555
Mg30 Sn11 2.939847 1_555
Mg30 Sn19 2.969311 1_655
Mg30 Sn5 2.990861 1_656
Mg30 Sn10 3.005536 1_555
Mg31 Sn12 2.939832 1_555
Mg31 Sn20 2.969280 1_555
Mg31 Sn6 2.990830 1_556
Mg31 Sn11 3.005576 1_555
Mg32 Sn10 2.939870 1_555
Mg32 Sn21 2.969236 1_545
Mg32 Sn4 2.990791 1_546
Mg32 Sn12 3.005639 1_555
Mg33 Sn14 2.939847 1_555
Mg33 Sn16 2.969311 1_455
Mg33 Sn8 2.990861 1_455
Mg33 Sn13 3.005536 1_555
Mg34 Sn15 2.939832 1_555
Mg34 Sn17 2.969280 1_555
Mg34 Sn9 2.990830 1_555
Mg34 Sn14 3.005576 1_555
Mg35 Sn13 2.939870 1_555
Mg35 Sn18 2.969236 1_565
Mg35 Sn7 2.990791 1_565
Mg35 Sn15 3.005639 1_555
