# generated using pymatgen
data_K2MoHO3F4
_symmetry_space_group_name_H-M   'P 1'
_cell_length_a   6.40938700
_cell_length_b   6.38176500
_cell_length_c   18.51617503
_cell_angle_alpha   84.56102556
_cell_angle_beta   90.00000000
_cell_angle_gamma   90.00000000
_symmetry_Int_Tables_number   1
_chemical_formula_structural   K2MoHO3F4
_chemical_formula_sum   'K8 Mo4 H4 O12 F16'
_cell_volume   753.96094400
_cell_formula_units_Z   4
loop_
 _symmetry_equiv_pos_site_id
 _symmetry_equiv_pos_as_xyz
  1  'x, y, z'
loop_
 _atom_site_type_symbol
 _atom_site_label
 _atom_site_symmetry_multiplicity
 _atom_site_fract_x
 _atom_site_fract_y
 _atom_site_fract_z
 _atom_site_occupancy
  K  K0  1  0.34983800  0.74786800  0.24689300  1
  K  K1  1  0.65016200  0.25213200  0.75310700  1
  K  K2  1  0.84983800  0.25213200  0.25310700  1
  K  K3  1  0.15016200  0.74786800  0.74689300  1
  K  K4  1  0.84241600  0.69759500  0.39305300  1
  K  K5  1  0.15758400  0.30240500  0.60694700  1
  K  K6  1  0.34241600  0.30240500  0.10694700  1
  K  K7  1  0.65758400  0.69759500  0.89305300  1
  Mo  Mo0  1  0.83473600  0.78850200  0.12941100  1
  Mo  Mo1  1  0.16526400  0.21149800  0.87058900  1
  Mo  Mo2  1  0.33473600  0.21149800  0.37058900  1
  Mo  Mo3  1  0.66526400  0.78850200  0.62941100  1
  H  H0  1  0.32061400  0.71171300  0.01315000  1
  H  H1  1  0.67938600  0.28828700  0.98685000  1
  H  H2  1  0.82061400  0.28828700  0.48685000  1
  H  H3  1  0.17938600  0.71171300  0.51315000  1
  O  O0  1  0.41834800  0.91284500  0.38150600  1
  O  O1  1  0.58165200  0.08715500  0.61849400  1
  O  O2  1  0.91834800  0.08715500  0.11849400  1
  O  O3  1  0.08165200  0.91284500  0.88150600  1
  O  O4  1  0.40189300  0.94859100  0.62685400  1
  O  O5  1  0.59810700  0.05140900  0.37314600  1
  O  O6  1  0.90189300  0.05140900  0.87314600  1
  O  O7  1  0.09810700  0.94859100  0.12685400  1
  O  O8  1  0.81446100  0.73708200  0.04017300  1
  O  O9  1  0.18553900  0.26291800  0.95982700  1
  O  O10  1  0.31446100  0.26291800  0.45982700  1
  O  O11  1  0.68553900  0.73708200  0.54017300  1
  F  F0  1  0.82608800  0.80836500  0.24115900  1
  F  F1  1  0.17391200  0.19163500  0.75884100  1
  F  F2  1  0.32608800  0.19163500  0.25884100  1
  F  F3  1  0.67391200  0.80836500  0.74115900  1
  F  F4  1  0.64175000  0.54466100  0.16112900  1
  F  F5  1  0.35825000  0.45533900  0.83887100  1
  F  F6  1  0.14175000  0.45533900  0.33887100  1
  F  F7  1  0.85825000  0.54466100  0.66112900  1
  F  F8  1  0.55965100  0.93734700  0.13111400  1
  F  F9  1  0.44034900  0.06265300  0.86888600  1
  F  F10  1  0.05965100  0.06265300  0.36888600  1
  F  F11  1  0.94034900  0.93734700  0.63111400  1
  F  F12  1  0.54735900  0.43956600  0.34313900  1
  F  F13  1  0.45264100  0.56043400  0.65686100  1
  F  F14  1  0.04735900  0.56043400  0.15686100  1
  F  F15  1  0.95264100  0.43956600  0.84313900  1
loop_
_geom_bond_atom_site_label_1
_geom_bond_atom_site_label_2
_geom_bond_distance
_geom_bond_site_symmetry_2
K0 O0 2.830445 1_555
K0 O7 2.940164 1_555
K1 O1 2.830445 1_555
K1 O6 2.940164 1_555
K2 O2 2.830445 1_555
K2 O5 2.940164 1_555
K3 O3 2.830445 1_555
K3 O4 2.940164 1_555
K4 O5 2.743796 1_565
K4 O11 2.936896 1_555
K5 O4 2.743796 1_545
K5 O10 2.936896 1_555
K6 O7 2.743796 1_545
K6 O9 2.936896 1_554
K7 O6 2.743796 1_565
K7 O8 2.936896 1_556
Mo0 O8 1.719770 1_555
Mo0 O7 1.971381 1_655
Mo0 O2 1.971699 1_565
Mo1 O9 1.719770 1_555
Mo1 O6 1.971381 1_455
Mo1 O3 1.971699 1_545
Mo2 O10 1.719770 1_555
Mo2 O5 1.971381 1_555
Mo2 O0 1.971699 1_545
Mo3 O11 1.719770 1_555
Mo3 O4 1.971381 1_555
Mo3 O1 1.971699 1_565
H0 K6 2.999827 1_555
H0 K7 3.107365 1_554
H1 K7 2.999827 1_555
H1 K6 3.107365 1_556
H2 K4 2.999827 1_555
H2 K5 3.107365 1_655
H3 K5 2.999827 1_555
H3 K4 3.107365 1_455
O0 O5 1.451691 1_565
O1 O4 1.451691 1_545
O2 O7 1.451691 1_645
O3 O6 1.451691 1_465
F0 Mo0 2.085720 1_555
F0 K4 2.836178 1_555
F0 K2 2.865520 1_565
F0 K0 3.077358 1_555
F1 Mo1 2.085720 1_555
F1 K5 2.836178 1_555
F1 K3 2.865520 1_545
F1 K1 3.077358 1_555
F2 Mo2 2.085720 1_555
F2 K6 2.836178 1_555
F2 K0 2.865520 1_545
F2 K2 3.077358 1_455
F3 Mo3 2.085720 1_555
F3 K7 2.836178 1_555
F3 K1 2.865520 1_565
F3 K3 3.077358 1_655
F4 Mo0 2.030567 1_555
F4 K6 2.715057 1_555
F4 K2 2.749854 1_555
F4 K0 2.845084 1_555
F5 Mo1 2.030567 1_555
F5 K7 2.715057 1_555
F5 K3 2.749854 1_555
F5 K1 2.845084 1_555
F6 Mo2 2.030567 1_555
F6 K4 2.715057 1_455
F6 K0 2.749854 1_555
F6 K2 2.845084 1_455
F7 Mo3 2.030567 1_555
F7 K5 2.715057 1_655
F7 K1 2.749854 1_555
F7 K3 2.845084 1_655
F8 Mo0 2.004391 1_555
F8 K6 2.714553 1_565
F8 K0 2.715694 1_555
F9 Mo1 2.004391 1_555
F9 K7 2.714553 1_545
F9 K1 2.715694 1_555
F10 Mo2 2.004391 1_555
F10 K4 2.714553 1_445
F10 K2 2.715694 1_455
F11 Mo3 2.004391 1_555
F11 K5 2.714553 1_665
F11 K3 2.715694 1_655
F12 Mo2 2.023286 1_555
F12 K4 2.725918 1_555
F12 K0 2.825781 1_555
F12 K2 2.889021 1_555
F13 Mo3 2.023286 1_555
F13 K5 2.725918 1_555
F13 K1 2.825781 1_555
F13 K3 2.889021 1_555
F14 Mo0 2.023286 1_455
F14 K6 2.725918 1_555
F14 K2 2.825781 1_455
F14 K0 2.889021 1_555
F15 Mo1 2.023286 1_655
F15 K7 2.725918 1_555
F15 K3 2.825781 1_655
F15 K1 2.889021 1_555
