# generated using pymatgen
data_RbReN2
_symmetry_space_group_name_H-M   'P 1'
_cell_length_a   6.22043847
_cell_length_b   7.94350398
_cell_length_c   12.29860880
_cell_angle_alpha   90.00000000
_cell_angle_beta   90.00000000
_cell_angle_gamma   90.00000000
_symmetry_Int_Tables_number   1
_chemical_formula_structural   RbReN2
_chemical_formula_sum   'Rb8 Re8 N16'
_cell_volume   607.69981417
_cell_formula_units_Z   8
loop_
 _symmetry_equiv_pos_site_id
 _symmetry_equiv_pos_as_xyz
  1  'x, y, z'
loop_
 _atom_site_type_symbol
 _atom_site_label
 _atom_site_symmetry_multiplicity
 _atom_site_fract_x
 _atom_site_fract_y
 _atom_site_fract_z
 _atom_site_occupancy
  Rb  Rb0  1  0.75000000  0.13296373  0.00000000  1
  Rb  Rb1  1  0.25000000  0.86703627  0.50000000  1
  Rb  Rb2  1  0.25000000  0.86703627  -0.00000000  1
  Rb  Rb3  1  0.75000000  0.13296373  0.50000000  1
  Rb  Rb4  1  0.59584976  0.39030495  0.25000000  1
  Rb  Rb5  1  0.09584976  0.60969505  0.25000000  1
  Rb  Rb6  1  0.40415024  0.60969505  0.75000000  1
  Rb  Rb7  1  0.90415024  0.39030495  0.75000000  1
  Re  Re0  1  0.25000000  0.36960531  0.00000000  1
  Re  Re1  1  0.75000000  0.63039469  0.50000000  1
  Re  Re2  1  0.75000000  0.63039469  -0.00000000  1
  Re  Re3  1  0.25000000  0.36960531  0.50000000  1
  Re  Re4  1  0.15021887  0.11516484  0.25000000  1
  Re  Re5  1  0.65021887  0.88483516  0.25000000  1
  Re  Re6  1  0.84978113  0.88483516  0.75000000  1
  Re  Re7  1  0.34978113  0.11516484  0.75000000  1
  N  N0  1  0.85508445  0.05955497  0.25000000  1
  N  N1  1  0.35508445  0.94044503  0.25000000  1
  N  N2  1  0.14491555  0.94044503  0.75000000  1
  N  N3  1  0.64491555  0.05955497  0.75000000  1
  N  N4  1  0.21165141  0.23585446  0.37596829  1
  N  N5  1  0.71165141  0.76414554  0.12403171  1
  N  N6  1  0.78834859  0.76414554  0.87596829  1
  N  N7  1  0.28834859  0.23585446  0.62403171  1
  N  N8  1  0.78834859  0.76414554  0.62403171  1
  N  N9  1  0.28834859  0.23585446  0.87596829  1
  N  N10  1  0.21165141  0.23585446  0.12403171  1
  N  N11  1  0.71165141  0.76414554  0.37596829  1
  N  N12  1  0.50000000  0.50000000  0.50000000  1
  N  N13  1  0.00000000  0.50000000  0.00000000  1
  N  N14  1  0.50000000  0.50000000  0.00000000  1
  N  N15  1  0.00000000  0.50000000  0.50000000  1
loop_
_geom_bond_atom_site_label_1
_geom_bond_atom_site_label_2
_geom_bond_distance
_geom_bond_site_symmetry_2
N0 Re5 1.884200 1_545
N0 Re4 1.888262 1_655
N0 Rb4 3.082711 1_555
N0 Rb3 3.196999 1_555
N0 Rb0 3.196999 1_555
N1 Re4 1.884200 1_565
N1 Re5 1.888262 1_555
N1 Rb5 3.082711 1_555
N1 Rb2 3.196999 1_555
N1 Rb1 3.196999 1_555
N2 Re7 1.884200 1_565
N2 Re6 1.888262 1_455
N2 Rb6 3.082711 1_555
N2 Rb2 3.196999 1_556
N2 Rb1 3.196999 1_555
N3 Re6 1.884200 1_545
N3 Re7 1.888262 1_555
N3 Rb7 3.082711 1_555
N3 Rb3 3.196999 1_555
N3 Rb0 3.196999 1_556
N4 Re4 1.861521 1_555
N4 Re3 1.874194 1_555
N4 Rb4 3.101112 1_555
N4 Rb1 3.311645 1_545
N4 Rb3 3.352821 1_455
N4 Rb5 3.426013 1_555
N5 Re5 1.861521 1_555
N5 Re2 1.874194 1_555
N5 Rb5 3.101112 1_655
N5 Rb0 3.311645 1_565
N5 Rb2 3.352821 1_555
N5 Rb4 3.426013 1_555
N6 Re6 1.861521 1_555
N6 Re2 1.874194 1_556
N6 Rb6 3.101112 1_555
N6 Rb0 3.311645 1_566
N6 Rb2 3.352821 1_656
N6 Rb7 3.426013 1_555
N7 Re7 1.861521 1_555
N7 Re3 1.874194 1_555
N7 Rb7 3.101112 1_455
N7 Rb1 3.311645 1_545
N7 Rb3 3.352821 1_555
N7 Rb6 3.426013 1_555
N8 Re6 1.861521 1_555
N8 Re1 1.874194 1_555
N8 Rb6 3.101112 1_555
N8 Rb3 3.311645 1_565
N8 Rb1 3.352821 1_655
N8 Rb7 3.426013 1_555
N9 Re7 1.861521 1_555
N9 Re0 1.874194 1_556
N9 Rb7 3.101112 1_455
N9 Rb2 3.311645 1_546
N9 Rb0 3.352821 1_556
N9 Rb6 3.426013 1_555
N10 Re4 1.861521 1_555
N10 Re0 1.874194 1_555
N10 Rb4 3.101112 1_555
N10 Rb2 3.311645 1_545
N10 Rb0 3.352821 1_455
N10 Rb5 3.426013 1_555
N11 Re5 1.861521 1_555
N11 Re1 1.874194 1_555
N11 Rb5 3.101112 1_655
N11 Rb3 3.311645 1_565
N11 Rb1 3.352821 1_555
N11 Rb4 3.426013 1_555
N12 Re3 1.868483 1_555
N12 Re1 1.868483 1_555
N12 Rb4 3.250884 1_555
N12 Rb6 3.250884 1_555
N12 Rb3 3.304364 1_555
N12 Rb1 3.304364 1_555
N13 Re0 1.868483 1_555
N13 Re2 1.868483 1_455
N13 Rb7 3.250884 1_454
N13 Rb5 3.250884 1_555
N13 Rb0 3.304364 1_455
N13 Rb2 3.304364 1_555
N14 Re0 1.868483 1_555
N14 Re2 1.868483 1_555
N14 Rb6 3.250884 1_554
N14 Rb4 3.250884 1_555
N14 Rb0 3.304364 1_555
N14 Rb2 3.304364 1_555
N15 Re3 1.868483 1_555
N15 Re1 1.868483 1_455
N15 Rb7 3.250884 1_455
N15 Rb5 3.250884 1_555
N15 Rb3 3.304364 1_455
N15 Rb1 3.304364 1_555
