# generated using pymatgen
data_K4Sr2SnAs4
_symmetry_space_group_name_H-M   'P 1'
_cell_length_a   10.54640118
_cell_length_b   10.54640118
_cell_length_c   7.76775537
_cell_angle_alpha   88.69132619
_cell_angle_beta   88.69132619
_cell_angle_gamma   119.46153805
_symmetry_Int_Tables_number   1
_chemical_formula_structural   K4Sr2SnAs4
_chemical_formula_sum   'K8 Sr4 Sn2 As8'
_cell_volume   751.48352169
_cell_formula_units_Z   2
loop_
 _symmetry_equiv_pos_site_id
 _symmetry_equiv_pos_as_xyz
  1  'x, y, z'
loop_
 _atom_site_type_symbol
 _atom_site_label
 _atom_site_symmetry_multiplicity
 _atom_site_fract_x
 _atom_site_fract_y
 _atom_site_fract_z
 _atom_site_occupancy
  K  K0  1  0.47697400  0.95009100  0.38118600  1
  K  K1  1  0.95009100  0.47697400  0.88118600  1
  K  K2  1  0.85992000  0.71577800  0.18082300  1
  K  K3  1  0.28461200  0.13657700  0.21105500  1
  K  K4  1  0.85135500  0.13993600  0.19379400  1
  K  K5  1  0.13657700  0.28461200  0.71105500  1
  K  K6  1  0.71577800  0.85992000  0.68082300  1
  K  K7  1  0.13993600  0.85135500  0.69379400  1
  Sr  Sr0  1  0.06047200  0.52974400  0.38245100  1
  Sr  Sr1  1  0.47677000  0.52934800  0.38041800  1
  Sr  Sr2  1  0.52974400  0.06047200  0.88245100  1
  Sr  Sr3  1  0.52934800  0.47677000  0.88041800  1
  Sn  Sn0  1  0.66417400  0.33170200  0.49718100  1
  Sn  Sn1  1  0.33170200  0.66417400  0.99718100  1
  As  As0  1  0.65536000  0.33314500  0.15131000  1
  As  As1  1  0.33314500  0.65536000  0.65131000  1
  As  As2  1  0.20405900  0.39181300  0.13489200  1
  As  As3  1  0.60836400  0.79571700  0.09220300  1
  As  As4  1  0.19824200  0.80596300  0.10871800  1
  As  As5  1  0.79571700  0.60836400  0.59220300  1
  As  As6  1  0.39181300  0.20405900  0.63489200  1
  As  As7  1  0.80596300  0.19824200  0.60871800  1
loop_
_geom_bond_atom_site_label_1
_geom_bond_atom_site_label_2
_geom_bond_distance
_geom_bond_site_symmetry_2
As0 Sn0 2.690324 1_555
As0 Sr3 3.232745 1_554
As0 Sr2 3.322579 1_554
As0 K1 3.359185 1_554
As0 K3 3.420700 1_555
As0 K2 3.534452 1_555
As0 K4 3.560512 1_555
As1 Sn1 2.690324 1_555
As1 Sr1 3.232745 1_555
As1 Sr0 3.322579 1_555
As1 K0 3.359185 1_555
As1 K5 3.420700 1_555
As1 K6 3.534452 1_555
As1 K7 3.560512 1_555
As2 Sn1 2.682815 1_554
As2 Sr0 3.204492 1_555
As2 Sr1 3.207268 1_555
As2 K3 3.243046 1_555
As2 K4 3.353990 1_455
As2 K5 3.479837 1_554
As2 Sr3 3.614558 1_554
As2 K1 3.793564 1_454
As3 Sn1 2.673249 1_554
As3 K2 3.237309 1_555
As3 Sr1 3.250495 1_555
As3 K6 3.306703 1_554
As3 K4 3.382423 1_565
As3 K0 3.442932 1_555
As3 Sr3 3.503364 1_554
As3 Sr2 3.642785 1_564
As4 Sn1 2.653629 1_554
As4 K2 3.239694 1_455
As4 Sr0 3.245127 1_555
As4 K3 3.264163 1_565
As4 K7 3.362266 1_554
As4 K0 3.386301 1_555
As4 Sr2 3.576264 1_564
As4 K1 3.683830 1_454
As5 Sn0 2.673249 1_555
As5 K6 3.237309 1_555
As5 Sr3 3.250495 1_555
As5 K2 3.306703 1_555
As5 K7 3.382423 1_655
As5 K1 3.442932 1_555
As5 Sr1 3.503364 1_555
As5 Sr0 3.642785 1_655
As6 Sn0 2.682815 1_555
As6 Sr2 3.204492 1_555
As6 Sr3 3.207268 1_555
As6 K5 3.243046 1_555
As6 K7 3.353990 1_545
As6 K3 3.479837 1_555
As6 Sr1 3.614558 1_555
As6 K0 3.793564 1_545
As7 Sn0 2.653629 1_555
As7 K6 3.239694 1_545
As7 Sr2 3.245127 1_555
As7 K5 3.264163 1_655
As7 K4 3.362266 1_555
As7 K1 3.386301 1_555
As7 Sr0 3.576264 1_655
As7 K0 3.683830 1_545
