# generated using pymatgen
data_Sm4Al2O9
_symmetry_space_group_name_H-M   'P 1'
_cell_length_a   10.73807090
_cell_length_b   7.61500514
_cell_length_c   11.26445979
_cell_angle_alpha   70.84492846
_cell_angle_beta   90.00000000
_cell_angle_gamma   90.00000000
_symmetry_Int_Tables_number   1
_chemical_formula_structural   Sm4Al2O9
_chemical_formula_sum   'Sm16 Al8 O36'
_cell_volume   870.10245016
_cell_formula_units_Z   4
loop_
 _symmetry_equiv_pos_site_id
 _symmetry_equiv_pos_as_xyz
  1  'x, y, z'
loop_
 _atom_site_type_symbol
 _atom_site_label
 _atom_site_symmetry_multiplicity
 _atom_site_fract_x
 _atom_site_fract_y
 _atom_site_fract_z
 _atom_site_occupancy
  Sm  Sm0  1  0.58817145  0.47488332  0.31003096  1
  Sm  Sm1  1  0.41182855  0.52511668  0.68996904  1
  Sm  Sm2  1  0.08817145  0.52511668  0.18996904  1
  Sm  Sm3  1  0.91182855  0.47488332  0.81003096  1
  Sm  Sm4  1  0.60366187  0.97584332  0.28721763  1
  Sm  Sm5  1  0.39633813  0.02415668  0.71278237  1
  Sm  Sm6  1  0.10366187  0.02415668  0.21278237  1
  Sm  Sm7  1  0.89633813  0.97584332  0.78721763  1
  Sm  Sm8  1  0.37465432  0.83537802  0.06809384  1
  Sm  Sm9  1  0.62534568  0.16462198  0.93190616  1
  Sm  Sm10  1  0.87465432  0.16462198  0.43190616  1
  Sm  Sm11  1  0.12534568  0.83537802  0.56809384  1
  Sm  Sm12  1  0.87835158  0.66460538  0.41236317  1
  Sm  Sm13  1  0.12164842  0.33539462  0.58763683  1
  Sm  Sm14  1  0.37835158  0.33539462  0.08763683  1
  Sm  Sm15  1  0.62164842  0.66460538  0.91236317  1
  Al  Al0  1  0.81352379  0.84747155  0.11759221  1
  Al  Al1  1  0.18647621  0.15252845  0.88240779  1
  Al  Al2  1  0.31352379  0.15252845  0.38240779  1
  Al  Al3  1  0.68647621  0.84747155  0.61759221  1
  Al  Al4  1  0.81153979  0.27885069  0.12837406  1
  Al  Al5  1  0.18846021  0.72114931  0.87162594  1
  Al  Al6  1  0.31153979  0.72114931  0.37162594  1
  Al  Al7  1  0.68846021  0.27885069  0.62837406  1
  O  O0  1  0.73494036  0.42256135  0.48058437  1
  O  O1  1  0.26505964  0.57743865  0.51941563  1
  O  O2  1  0.23494036  0.57743865  0.01941563  1
  O  O3  1  0.76505964  0.42256135  0.98058437  1
  O  O4  1  0.72922777  0.86010581  0.46576444  1
  O  O5  1  0.27077223  0.13989419  0.53423556  1
  O  O6  1  0.22922777  0.13989419  0.03423556  1
  O  O7  1  0.77077223  0.86010581  0.96576444  1
  O  O8  1  0.96722121  0.79957261  0.17116211  1
  O  O9  1  0.03277879  0.20042739  0.82883789  1
  O  O10  1  0.46722121  0.20042739  0.32883789  1
  O  O11  1  0.53277879  0.79957261  0.67116211  1
  O  O12  1  0.50436316  0.57714654  0.10660690  1
  O  O13  1  0.49563684  0.42285346  0.89339310  1
  O  O14  1  0.00436316  0.42285346  0.39339310  1
  O  O15  1  0.99563684  0.57714654  0.60660690  1
  O  O16  1  0.72487643  0.71599965  0.24693091  1
  O  O17  1  0.27512357  0.28400035  0.75306909  1
  O  O18  1  0.22487643  0.28400035  0.25306909  1
  O  O19  1  0.77512357  0.71599965  0.74693091  1
  O  O20  1  0.72783568  0.26851245  0.26512968  1
  O  O21  1  0.27216432  0.73148755  0.73487032  1
  O  O22  1  0.22783568  0.73148755  0.23487032  1
  O  O23  1  0.77216432  0.26851245  0.76512968  1
  O  O24  1  0.25913211  0.93377674  0.38322494  1
  O  O25  1  0.74086789  0.06622326  0.61677506  1
  O  O26  1  0.75913211  0.06622326  0.11677506  1
  O  O27  1  0.24086789  0.93377674  0.88322494  1
  O  O28  1  0.46951499  0.71604076  0.33905181  1
  O  O29  1  0.53048501  0.28395924  0.66094819  1
  O  O30  1  0.96951499  0.28395924  0.16094819  1
  O  O31  1  0.03048501  0.71604076  0.83905181  1
  O  O32  1  0.99145979  0.93418443  0.39512985  1
  O  O33  1  0.00854021  0.06581557  0.60487015  1
  O  O34  1  0.49145979  0.06581557  0.10487015  1
  O  O35  1  0.50854021  0.93418443  0.89512985  1
loop_
_geom_bond_atom_site_label_1
_geom_bond_atom_site_label_2
_geom_bond_distance
_geom_bond_site_symmetry_2
Al0 O7 1.742699 1_554
Al0 O16 1.753243 1_555
Al0 O8 1.754024 1_555
Al0 O26 1.762392 1_565
Al1 O6 1.742699 1_556
Al1 O17 1.753243 1_555
Al1 O9 1.754024 1_555
Al1 O27 1.762392 1_545
Al2 O5 1.742699 1_555
Al2 O18 1.753243 1_555
Al2 O10 1.754024 1_555
Al2 O24 1.762392 1_545
Al3 O4 1.742699 1_555
Al3 O19 1.753243 1_555
Al3 O11 1.754024 1_555
Al3 O25 1.762392 1_565
Al4 O3 1.738561 1_554
Al4 O30 1.738712 1_555
Al4 O26 1.759055 1_555
Al4 O20 1.762828 1_555
Al5 O2 1.738561 1_556
Al5 O31 1.738712 1_555
Al5 O27 1.759055 1_555
Al5 O21 1.762828 1_555
Al6 O1 1.738561 1_555
Al6 O28 1.738712 1_555
Al6 O24 1.759055 1_555
Al6 O22 1.762828 1_555
Al7 O0 1.738561 1_555
Al7 O29 1.738712 1_555
Al7 O25 1.759055 1_555
Al7 O23 1.762828 1_555
O0 Sm12 2.330184 1_555
O0 Sm0 2.414790 1_555
O0 Sm10 2.667654 1_555
O1 Sm13 2.330184 1_555
O1 Sm1 2.414790 1_555
O1 Sm11 2.667654 1_555
O2 Sm14 2.330184 1_555
O2 Sm2 2.414790 1_555
O2 Sm8 2.667654 1_555
O3 Sm15 2.330184 1_555
O3 Sm3 2.414790 1_555
O3 Sm9 2.667654 1_555
O4 Sm4 2.340207 1_555
O4 Sm12 2.393751 1_555
O4 Sm10 2.716785 1_565
O5 Sm5 2.340207 1_555
O5 Sm13 2.393751 1_555
O5 Sm11 2.716785 1_545
O6 Sm6 2.340207 1_555
O6 Sm14 2.393751 1_555
O6 Sm8 2.716785 1_545
O7 Sm7 2.340207 1_555
O7 Sm15 2.393751 1_555
O7 Sm9 2.716785 1_565
O8 Sm2 2.410219 1_655
O8 Sm6 2.411917 1_665
O8 Sm12 2.741626 1_555
O9 Sm3 2.410219 1_455
O9 Sm7 2.411917 1_445
O9 Sm13 2.741626 1_555
O10 Sm0 2.410219 1_555
O10 Sm4 2.411917 1_545
O10 Sm14 2.741626 1_555
O11 Sm1 2.410219 1_555
O11 Sm5 2.411917 1_565
O11 Sm15 2.741626 1_555
O12 Sm8 2.331347 1_555
O12 Sm0 2.344371 1_555
O12 Sm14 2.350283 1_555
O12 Sm15 2.420937 1_554
O13 Sm9 2.331347 1_555
O13 Sm1 2.344371 1_555
O13 Sm15 2.350283 1_555
O13 Sm14 2.420937 1_556
O14 Sm10 2.331347 1_455
O14 Sm2 2.344371 1_555
O14 Sm12 2.350283 1_455
O14 Sm13 2.420937 1_555
O15 Sm11 2.331347 1_655
O15 Sm3 2.344371 1_555
O15 Sm13 2.350283 1_655
O15 Sm12 2.420937 1_555
O16 Sm0 2.274841 1_555
O16 Sm12 2.421404 1_555
O16 Sm4 2.530754 1_555
O17 Sm1 2.274841 1_555
O17 Sm13 2.421404 1_555
O17 Sm5 2.530754 1_555
O18 Sm2 2.274841 1_555
O18 Sm14 2.421404 1_555
O18 Sm6 2.530754 1_555
O19 Sm3 2.274841 1_555
O19 Sm15 2.421404 1_555
O19 Sm7 2.530754 1_555
O20 Sm0 2.344415 1_555
O20 Sm10 2.380199 1_555
O20 Sm4 2.538292 1_545
O21 Sm1 2.344415 1_555
O21 Sm11 2.380199 1_555
O21 Sm5 2.538292 1_565
O22 Sm2 2.344415 1_555
O22 Sm8 2.380199 1_555
O22 Sm6 2.538292 1_565
O23 Sm3 2.344415 1_555
O23 Sm9 2.380199 1_555
O23 Sm7 2.538292 1_545
O24 Sm11 2.436777 1_555
O24 Sm6 2.465718 1_565
O25 Sm10 2.436777 1_555
O25 Sm7 2.465718 1_545
O26 Sm9 2.436777 1_554
O26 Sm4 2.465718 1_545
O27 Sm8 2.436777 1_556
O27 Sm5 2.465718 1_565
O28 Sm0 2.344503 1_555
O28 Sm4 2.360484 1_555
O28 Sm8 3.059260 1_555
O29 Sm1 2.344503 1_555
O29 Sm5 2.360484 1_555
O29 Sm9 3.059260 1_555
O30 Sm2 2.344503 1_655
O30 Sm6 2.360484 1_655
O30 Sm10 3.059260 1_555
O31 Sm3 2.344503 1_455
O31 Sm7 2.360484 1_455
O31 Sm11 3.059260 1_555
O32 Sm6 2.283987 1_665
O32 Sm10 2.302416 1_565
O32 Sm12 2.337842 1_555
O32 Sm11 2.338172 1_655
O33 Sm7 2.283987 1_445
O33 Sm11 2.302416 1_545
O33 Sm13 2.337842 1_555
O33 Sm10 2.338172 1_455
O34 Sm4 2.283987 1_545
O34 Sm8 2.302416 1_545
O34 Sm14 2.337842 1_555
O34 Sm9 2.338172 1_554
O35 Sm5 2.283987 1_565
O35 Sm9 2.302416 1_565
O35 Sm15 2.337842 1_555
O35 Sm8 2.338172 1_556
