# generated using pymatgen
data_YF3
_symmetry_space_group_name_H-M   'P 1'
_cell_length_a   6.75937308
_cell_length_b   6.75931799
_cell_length_c   6.94432009
_cell_angle_alpha   90.00061957
_cell_angle_beta   90.00055689
_cell_angle_gamma   119.99989403
_symmetry_Int_Tables_number   1
_chemical_formula_structural   YF3
_chemical_formula_sum   'Y6 F18'
_cell_volume   274.77051141
_cell_formula_units_Z   6
loop_
 _symmetry_equiv_pos_site_id
 _symmetry_equiv_pos_as_xyz
  1  'x, y, z'
loop_
 _atom_site_type_symbol
 _atom_site_label
 _atom_site_symmetry_multiplicity
 _atom_site_fract_x
 _atom_site_fract_y
 _atom_site_fract_z
 _atom_site_occupancy
  Y  Y0  1  0.34548764  0.34549002  0.75000144  1
  Y  Y1  1  0.65451317  -0.00000037  0.74999821  1
  Y  Y2  1  0.99999829  0.65450716  0.74999999  1
  Y  Y3  1  0.34548683  0.00000037  0.25000179  1
  Y  Y4  1  0.00000171  0.34549284  0.25000001  1
  Y  Y5  1  0.65451236  0.65450998  0.24999856  1
  F  F0  1  0.69312511  0.62628546  0.57888436  1
  F  F1  1  0.37372706  0.06684455  0.57888886  1
  F  F2  1  0.93315005  0.30687617  0.57888558  1
  F  F3  1  0.69312622  0.06684997  0.07888294  1
  F  F4  1  0.93315158  0.62627233  0.07888666  1
  F  F5  1  0.37372693  0.30687909  0.07888596  1
  F  F6  1  0.30687489  0.37371454  0.42111564  1
  F  F7  1  0.62627294  0.93315545  0.42111114  1
  F  F8  1  0.06684995  0.69312383  0.42111442  1
  F  F9  1  0.30687378  0.93315003  0.92111706  1
  F  F10  1  0.06684842  0.37372767  0.92111334  1
  F  F11  1  0.62627307  0.69312091  0.92111404  1
  F  F12  1  0.33333135  0.66666528  0.68201246  1
  F  F13  1  0.33333344  0.66666389  0.18201463  1
  F  F14  1  0.66666865  0.33333472  0.31798754  1
  F  F15  1  0.66666656  0.33333611  0.81798537  1
  F  F16  1  0.00000256  0.00000162  0.75000107  1
  F  F17  1  0.99999744  0.99999838  0.24999893  1
loop_
_geom_bond_atom_site_label_1
_geom_bond_atom_site_label_2
_geom_bond_distance
_geom_bond_site_symmetry_2
F0 Y2 2.314144 1_555
F0 Y5 2.317424 1_555
F0 Y0 2.464997 1_555
F1 Y0 2.314145 1_555
F1 Y3 2.317432 1_555
F1 Y1 2.464899 1_555
F2 Y1 2.314134 1_555
F2 Y4 2.317444 1_655
F2 Y2 2.464888 1_555
F3 Y4 2.314122 1_655
F3 Y1 2.317422 1_554
F3 Y3 2.464995 1_555
F4 Y5 2.314130 1_555
F4 Y2 2.317446 1_554
F4 Y4 2.464897 1_655
F5 Y3 2.314140 1_555
F5 Y0 2.317428 1_554
F5 Y5 2.464888 1_555
F6 Y4 2.314144 1_555
F6 Y0 2.317424 1_555
F6 Y5 2.464997 1_555
F7 Y5 2.314145 1_555
F7 Y1 2.317432 1_565
F7 Y3 2.464899 1_565
F8 Y3 2.314134 1_565
F8 Y2 2.317444 1_455
F8 Y4 2.464888 1_555
F9 Y2 2.314122 1_455
F9 Y3 2.317422 1_566
F9 Y1 2.464995 1_565
F10 Y0 2.314130 1_555
F10 Y4 2.317446 1_556
F10 Y2 2.464897 1_455
F11 Y1 2.314140 1_565
F11 Y5 2.317428 1_556
F11 Y0 2.464888 1_555
F12 Y0 2.262960 1_555
F12 Y2 2.262980 1_455
F12 Y1 2.262983 1_565
F13 Y4 2.262960 1_555
F13 Y5 2.262976 1_555
F13 Y3 2.262988 1_565
F14 Y5 2.262960 1_555
F14 Y4 2.262980 1_655
F14 Y3 2.262983 1_555
F15 Y2 2.262960 1_555
F15 Y0 2.262976 1_555
F15 Y1 2.262988 1_555
F16 Y0 2.335268 1_555
F16 Y1 2.335285 1_455
F16 Y2 2.335292 1_445
F17 Y5 2.335268 1_555
F17 Y3 2.335285 1_665
F17 Y4 2.335292 1_665
