# generated using pymatgen
data_Li19La12Zr8O48
_symmetry_space_group_name_H-M   'P 1'
_cell_length_a   11.36940153
_cell_length_b   11.36940153
_cell_length_c   11.36940153
_cell_angle_alpha   108.49909395
_cell_angle_beta   108.49909395
_cell_angle_gamma   111.43347435
_symmetry_Int_Tables_number   1
_chemical_formula_structural   Li19La12Zr8O48
_chemical_formula_sum   'Li19 La12 Zr8 O48'
_cell_volume   1130.33519397
_cell_formula_units_Z   1
loop_
 _symmetry_equiv_pos_site_id
 _symmetry_equiv_pos_as_xyz
  1  'x, y, z'
loop_
 _atom_site_type_symbol
 _atom_site_label
 _atom_site_symmetry_multiplicity
 _atom_site_fract_x
 _atom_site_fract_y
 _atom_site_fract_z
 _atom_site_occupancy
  Li  Li0  1  0.50000000  0.50000000  0.00000000  1
  Li  Li1  1  0.00000000  0.00000000  0.00000000  1
  Li  Li2  1  0.75000000  0.25000000  0.50000000  1
  Li  Li3  1  0.83927300  0.09763600  0.08612000  1
  Li  Li4  1  0.33966900  0.25136400  0.74036900  1
  Li  Li5  1  0.84818300  0.09140100  0.58648900  1
  Li  Li6  1  0.34469100  0.76152500  0.74511200  1
  Li  Li7  1  0.40042100  0.65530900  0.41683400  1
  Li  Li8  1  0.90859900  0.49508800  0.75678200  1
  Li  Li9  1  0.40070000  0.66033100  0.91169500  1
  Li  Li10  1  0.90236400  0.98848400  0.74163600  1
  Li  Li11  1  0.51099500  0.59930000  0.25963100  1
  Li  Li12  1  0.01151600  0.75315300  0.91388000  1
  Li  Li13  1  0.01641300  0.59957900  0.25488800  1
  Li  Li14  1  0.50491200  0.26169400  0.41351100  1
  Li  Li15  1  0.73830600  0.15181700  0.24321800  1
  Li  Li16  1  0.23847500  0.98358700  0.58316600  1
  Li  Li17  1  0.24684700  0.16072700  0.25836400  1
  Li  Li18  1  0.74863600  0.48900500  0.08830500  1
  La  La0  1  0.25230200  0.25230200  0.00000000  1
  La  La1  1  0.74769800  0.74769800  0.00000000  1
  La  La2  1  0.00086000  0.50086000  0.50000000  1
  La  La3  1  0.49914000  0.99914000  0.50000000  1
  La  La4  1  0.23701700  0.62196300  0.10937300  1
  La  La5  1  0.73670900  0.62276400  0.60996800  1
  La  La6  1  0.37803700  0.48740900  0.61505300  1
  La  La7  1  0.87325900  0.26329100  0.88605500  1
  La  La8  1  0.01279600  0.12674100  0.39003200  1
  La  La9  1  0.51259100  0.12764400  0.89062700  1
  La  La10  1  0.37723600  0.98720400  0.11394500  1
  La  La11  1  0.87235600  0.76298300  0.38494700  1
  Zr  Zr0  1  0.12366200  0.37192500  0.24394200  1
  Zr  Zr1  1  0.62553600  0.37511300  0.74988200  1
  Zr  Zr2  1  0.12434600  0.37446400  0.74957800  1
  Zr  Zr3  1  0.62807500  0.87201600  0.75173700  1
  Zr  Zr4  1  0.62523200  0.87565400  0.25011800  1
  Zr  Zr5  1  0.12798400  0.87972000  0.75605800  1
  Zr  Zr6  1  0.12028000  0.87633800  0.24826300  1
  Zr  Zr7  1  0.62488700  0.37476800  0.25042200  1
  O  O0  1  0.30569600  0.47316100  0.21872000  1
  O  O1  1  0.80711800  0.58733200  0.83233900  1
  O  O2  1  0.22299900  0.55570500  0.71877200  1
  O  O3  1  0.72336000  0.00358000  0.66679600  1
  O  O4  1  0.94343600  0.27664000  0.28022000  1
  O  O5  1  0.44429500  0.16306700  0.66729400  1
  O  O6  1  0.02522100  0.19288200  0.78021400  1
  O  O7  1  0.52683900  0.74555900  0.83253500  1
  O  O8  1  0.75499300  0.97477900  0.16766100  1
  O  O9  1  0.25444100  0.08697600  0.78128000  1
  O  O10  1  0.33678300  0.05656400  0.33320400  1
  O  O11  1  0.83693300  0.50422700  0.28122800  1
  O  O12  1  0.49577300  0.77700100  0.33270600  1
  O  O13  1  0.99642000  0.66321700  0.71978000  1
  O  O14  1  0.91302400  0.69430400  0.16746500  1
  O  O15  1  0.41266800  0.24500700  0.21978600  1
  O  O16  1  0.60642800  0.05690700  0.34282300  1
  O  O17  1  0.10120700  0.76116600  0.54936500  1
  O  O18  1  0.80860700  0.85734600  0.84277900  1
  O  O19  1  0.30606400  0.46242300  0.94995100  1
  O  O20  1  0.64388700  0.69393600  0.15635900  1
  O  O21  1  0.14265400  0.98543300  0.95126100  1
  O  O22  1  0.44815800  0.89879300  0.65996000  1
  O  O23  1  0.94309300  0.28591600  0.54952200  1
  O  O24  1  0.21180200  0.55184200  0.45063500  1
  O  O25  1  0.71408400  0.26360600  0.65717700  1
  O  O26  1  0.51247200  0.35611300  0.05004900  1
  O  O27  1  0.01456700  0.96582800  0.15722100  1
  O  O28  1  0.03417200  0.19139300  0.04873900  1
  O  O29  1  0.53757700  0.48752800  0.84364100  1
  O  O30  1  0.73639400  0.39357200  0.45047800  1
  O  O31  1  0.23883400  0.78819800  0.34004000  1
  O  O32  1  0.41982500  0.78992500  0.07813500  1
  O  O33  1  0.92113400  0.84035100  0.62812800  1
  O  O34  1  0.53943600  0.66968100  0.57683700  1
  O  O35  1  0.03997700  0.46223700  0.87028400  1
  O  O36  1  0.83030700  0.96002300  0.42226000  1
  O  O37  1  0.33031900  0.90715500  0.86975500  1
  O  O38  1  0.70699400  0.07886600  0.91921700  1
  O  O39  1  0.21007500  0.28820900  0.62989900  1
  O  O40  1  0.21222300  0.29300600  0.37187200  1
  O  O41  1  0.71179100  0.34169000  0.92186500  1
  O  O42  1  0.59195300  0.16969300  0.12971600  1
  O  O43  1  0.09284500  0.96259900  0.42316300  1
  O  O44  1  0.03740100  0.46056400  0.13024500  1
  O  O45  1  0.53776300  0.40804700  0.57774000  1
  O  O46  1  0.65831000  0.58017500  0.37010100  1
  O  O47  1  0.15964900  0.78777700  0.08078300  1
loop_
_geom_bond_atom_site_label_1
_geom_bond_atom_site_label_2
_geom_bond_distance
_geom_bond_site_symmetry_2
Li0 O19 1.931099 1_554
Li0 O20 1.931099 1_555
Li0 O26 1.931099 1_555
Li0 O29 1.931099 1_554
Li1 O27 1.916617 1_545
Li1 O21 1.916617 1_544
Li1 O28 1.916617 1_555
Li1 O18 1.916617 1_444
Li2 O23 1.928180 1_555
Li2 O25 1.928180 1_555
Li2 O16 1.928182 1_555
Li2 O30 1.928191 1_555
Li3 O38 1.898860 1_554
Li3 O8 2.033713 1_545
Li3 O4 2.035790 1_555
Li3 O28 2.320746 1_655
Li4 O39 1.880032 1_555
Li4 O5 2.020805 1_555
Li4 O9 2.040225 1_555
Li4 O29 2.357634 1_555
Li5 O36 1.877838 1_545
Li5 O6 2.027471 1_655
Li5 O3 2.051777 1_555
Li5 O23 2.316337 1_555
Li6 O37 1.905798 1_555
Li6 O7 2.095851 1_555
Li6 O2 2.099039 1_555
Li6 O22 2.257539 1_555
Li7 O34 1.905806 1_555
Li7 O0 2.095851 1_555
Li7 O12 2.099039 1_555
Li7 O24 2.257539 1_555
Li8 O35 1.877838 1_655
Li8 O1 2.027471 1_555
Li8 O13 2.051787 1_555
Li8 O25 2.316337 1_555
Li9 O32 1.880035 1_556
Li9 O2 2.020805 1_555
Li9 O7 2.040225 1_555
Li9 O19 2.357634 1_555
Li10 O33 1.898855 1_555
Li10 O6 2.033709 1_665
Li10 O3 2.035788 1_565
Li10 O18 2.320756 1_555
Li11 O46 1.880040 1_555
Li11 O12 2.020805 1_555
Li11 O0 2.040225 1_555
Li11 O20 2.357634 1_555
Li12 O47 1.898860 1_556
Li12 O1 2.033713 1_455
Li12 O13 2.035788 1_455
Li12 O21 2.320746 1_555
Li13 O44 1.905806 1_555
Li13 O14 2.095851 1_455
Li13 O11 2.099039 1_455
Li13 O31 2.257546 1_555
Li14 O45 1.877838 1_555
Li14 O15 2.027471 1_555
Li14 O10 2.051782 1_555
Li14 O30 2.316339 1_555
Li15 O42 1.877838 1_555
Li15 O8 2.027471 1_545
Li15 O4 2.051777 1_555
Li15 O16 2.316344 1_555
Li16 O43 1.905800 1_555
Li16 O9 2.095851 1_565
Li16 O5 2.099039 1_565
Li16 O17 2.257548 1_555
Li17 O40 1.898854 1_555
Li17 O15 2.033721 1_555
Li17 O10 2.035778 1_555
Li17 O27 2.320744 1_545
Li18 O41 1.880040 1_554
Li18 O11 2.020805 1_555
Li18 O14 2.040225 1_555
Li18 O26 2.357634 1_555
La0 O19 2.533899 1_554
La0 O26 2.533899 1_555
La0 O28 2.607200 1_555
La0 O21 2.607200 1_544
La0 O0 2.612108 1_555
La0 O9 2.612108 1_554
La0 O15 2.631772 1_555
La0 O6 2.631772 1_554
La1 O20 2.533899 1_555
La1 O29 2.533899 1_554
La1 O27 2.607200 1_655
La1 O18 2.607200 1_554
La1 O14 2.612108 1_555
La1 O7 2.612108 1_554
La1 O8 2.631772 1_555
La1 O1 2.631772 1_554
La2 O17 2.539161 1_555
La2 O24 2.539172 1_555
La2 O23 2.579774 1_455
La2 O30 2.579774 1_455
La2 O2 2.613917 1_555
La2 O11 2.613917 1_455
La2 O4 2.621999 1_455
La2 O13 2.622003 1_455
La3 O31 2.539165 1_555
La3 O22 2.539172 1_555
La3 O16 2.579767 1_565
La3 O25 2.579774 1_565
La3 O12 2.613917 1_555
La3 O5 2.613917 1_565
La3 O3 2.621999 1_565
La3 O10 2.622005 1_565
La4 O35 2.394885 1_554
La4 O47 2.419249 1_555
La4 O32 2.467940 1_555
La4 O44 2.479659 1_555
La4 O0 2.588735 1_555
La4 O12 2.615110 1_555
La4 O19 2.654989 1_554
La4 O31 2.691093 1_555
La5 O46 2.402148 1_555
La5 O34 2.433654 1_555
La5 O45 2.465934 1_555
La5 O33 2.483795 1_555
La5 O1 2.606280 1_555
La5 O13 2.606294 1_555
La5 O30 2.658719 1_555
La5 O18 2.709503 1_555
La6 O45 2.394875 1_555
La6 O40 2.419239 1_555
La6 O39 2.467940 1_555
La6 O34 2.479659 1_555
La6 O7 2.588746 1_555
La6 O2 2.615121 1_555
La6 O29 2.654991 1_555
La6 O24 2.691101 1_555
La7 O41 2.402148 1_555
La7 O44 2.433654 1_656
La7 O35 2.465934 1_655
La7 O38 2.483795 1_555
La7 O6 2.606280 1_655
La7 O3 2.606299 1_555
La7 O25 2.658728 1_555
La7 O28 2.709503 1_656
La8 O39 2.402152 1_555
La8 O43 2.433661 1_545
La8 O36 2.465934 1_445
La8 O40 2.483795 1_555
La8 O8 2.606280 1_445
La8 O4 2.606299 1_455
La8 O23 2.658728 1_455
La8 O27 2.709503 1_545
La9 O42 2.394886 1_556
La9 O38 2.419238 1_555
La9 O41 2.467940 1_555
La9 O37 2.479672 1_545
La9 O9 2.588745 1_555
La9 O5 2.615111 1_555
La9 O26 2.654995 1_556
La9 O22 2.691095 1_545
La10 O32 2.402159 1_555
La10 O37 2.433653 1_554
La10 O42 2.465934 1_565
La10 O47 2.483795 1_555
La10 O15 2.606280 1_565
La10 O10 2.606306 1_565
La10 O16 2.658721 1_565
La10 O21 2.709503 1_554
La11 O36 2.394886 1_555
La11 O33 2.419238 1_555
La11 O46 2.467940 1_555
La11 O43 2.479671 1_655
La11 O14 2.588745 1_555
La11 O11 2.615111 1_555
La11 O20 2.654995 1_555
La11 O17 2.691101 1_655
O0 Zr0 2.129658 1_555
O1 Zr1 2.158365 1_555
O2 Zr2 2.155211 1_555
O3 Zr3 2.177143 1_545
O4 Zr0 2.177136 1_655
O5 Zr1 2.155204 1_555
O6 Zr2 2.158358 1_555
O7 Zr3 2.129651 1_555
O8 Zr4 2.158358 1_555
O9 Zr5 2.129655 1_545
O10 Zr6 2.177129 1_545
O11 Zr7 2.155202 1_555
O12 Zr4 2.155211 1_555
O13 Zr5 2.177129 1_655
O14 Zr6 2.129658 1_655
O15 Zr7 2.158367 1_555
O16 Zr4 2.118944 1_545
O17 Zr5 2.160543 1_555
O18 Zr3 2.079352 1_555
O19 Zr2 2.125070 1_555
O20 Zr4 2.125070 1_555
O21 Zr5 2.079364 1_555
O22 Zr3 2.160552 1_555
O23 Zr2 2.118937 1_655
O24 Zr0 2.160545 1_555
O25 Zr1 2.118930 1_555
O26 Zr7 2.125073 1_555
O27 Zr6 2.079359 1_555
O28 Zr0 2.079359 1_555
O29 Zr1 2.125077 1_555
O30 Zr7 2.118929 1_555
O31 Zr6 2.160552 1_555
O32 Zr4 2.111049 1_555
O33 Zr5 2.119802 1_655
O34 Zr3 2.095929 1_555
O35 Zr2 2.113105 1_555
O36 Zr4 2.113105 1_555
O37 Zr5 2.095931 1_555
O38 Zr3 2.119800 1_545
O39 Zr2 2.111061 1_555
O40 Zr0 2.119793 1_555
O41 Zr1 2.111044 1_555
O42 Zr7 2.113100 1_555
O43 Zr6 2.095929 1_555
O44 Zr0 2.095936 1_555
O45 Zr1 2.113112 1_555
O46 Zr7 2.111056 1_555
O47 Zr6 2.119793 1_555
