# generated using pymatgen
data_Cr(FeAs3)2
_symmetry_space_group_name_H-M   'P 1'
_cell_length_a   2.89998600
_cell_length_b   5.39379600
_cell_length_c   18.30942815
_cell_angle_alpha   89.95305729
_cell_angle_beta   90.00000000
_cell_angle_gamma   90.00000000
_symmetry_Int_Tables_number   1
_chemical_formula_structural   Cr(FeAs3)2
_chemical_formula_sum   'Cr2 Fe4 As12'
_cell_volume   286.39475012
_cell_formula_units_Z   2
loop_
 _symmetry_equiv_pos_site_id
 _symmetry_equiv_pos_as_xyz
  1  'x, y, z'
loop_
 _atom_site_type_symbol
 _atom_site_label
 _atom_site_symmetry_multiplicity
 _atom_site_fract_x
 _atom_site_fract_y
 _atom_site_fract_z
 _atom_site_occupancy
  Cr  Cr0  1  0.50000000  0.49991700  0.66695500  1
  Cr  Cr1  1  0.50000000  0.50008300  0.33304500  1
  Fe  Fe0  1  0.50000000  0.50000000  0.00000000  1
  Fe  Fe1  1  0.00000000  0.00162000  0.83605300  1
  Fe  Fe2  1  0.00000000  0.00000000  0.50000000  1
  Fe  Fe3  1  0.00000000  0.99838000  0.16394700  1
  As  As0  1  0.50000000  0.31611600  0.79153500  1
  As  As1  1  0.50000000  0.31653800  0.45695800  1
  As  As2  1  0.50000000  0.32063900  0.11929600  1
  As  As3  1  0.50000000  0.68346200  0.54304200  1
  As  As4  1  0.50000000  0.68388400  0.20846500  1
  As  As5  1  0.50000000  0.67936100  0.88070400  1
  As  As6  1  0.00000000  0.83210200  0.71581600  1
  As  As7  1  0.00000000  0.83251800  0.38133600  1
  As  As8  1  0.00000000  0.81978600  0.04548400  1
  As  As9  1  0.00000000  0.16748200  0.61866400  1
  As  As10  1  0.00000000  0.16789800  0.28418400  1
  As  As11  1  0.00000000  0.18021400  0.95451600  1
loop_
_geom_bond_atom_site_label_1
_geom_bond_atom_site_label_2
_geom_bond_distance
_geom_bond_site_symmetry_2
As0 Fe1 2.375316 1_655
As0 Fe1 2.375316 1_555
As0 Cr0 2.486372 1_555
As1 Fe2 2.374100 1_555
As1 Fe2 2.374100 1_655
As1 Cr1 2.474626 1_555
As2 Fe0 2.388175 1_555
As2 Fe3 2.406211 1_545
As2 Fe3 2.406211 1_645
As3 Fe2 2.374100 1_565
As3 Fe2 2.374100 1_665
As3 Cr0 2.474626 1_555
As4 Fe3 2.375316 1_555
As4 Fe3 2.375316 1_655
As4 Cr1 2.486372 1_555
As5 Fe0 2.388175 1_556
As5 Fe1 2.406211 1_665
As5 Fe1 2.406211 1_565
As6 Fe1 2.384491 1_565
As6 Cr0 2.473009 1_555
As6 Cr0 2.473009 1_455
As7 Fe2 2.353673 1_565
As7 Cr1 2.470225 1_555
As7 Cr1 2.470225 1_455
As8 Fe3 2.374002 1_555
As8 Fe0 2.402813 1_555
As8 Fe0 2.402813 1_455
As9 Fe2 2.353673 1_555
As9 Cr0 2.470225 1_555
As9 Cr0 2.470225 1_455
As10 Fe3 2.384491 1_545
As10 Cr1 2.473009 1_555
As10 Cr1 2.473009 1_455
As11 Fe1 2.374002 1_555
As11 Fe0 2.402813 1_456
As11 Fe0 2.402813 1_556
