# generated using pymatgen
data_KVOF3
_symmetry_space_group_name_H-M   'P 1'
_cell_length_a   7.35983600
_cell_length_b   7.68137400
_cell_length_c   13.42850700
_cell_angle_alpha   90.00000000
_cell_angle_beta   90.00000000
_cell_angle_gamma   90.00000000
_symmetry_Int_Tables_number   1
_chemical_formula_structural   KVOF3
_chemical_formula_sum   'K8 V8 O8 F24'
_cell_volume   759.16255363
_cell_formula_units_Z   8
loop_
 _symmetry_equiv_pos_site_id
 _symmetry_equiv_pos_as_xyz
  1  'x, y, z'
loop_
 _atom_site_type_symbol
 _atom_site_label
 _atom_site_symmetry_multiplicity
 _atom_site_fract_x
 _atom_site_fract_y
 _atom_site_fract_z
 _atom_site_occupancy
  K  K0  1  0.40940000  0.25000000  0.10287600  1
  K  K1  1  0.90940000  0.25000000  0.39712400  1
  K  K2  1  0.59060000  0.75000000  0.89712400  1
  K  K3  1  0.09060000  0.75000000  0.60287600  1
  K  K4  1  0.67439300  0.25000000  0.85523500  1
  K  K5  1  0.17439300  0.25000000  0.64476500  1
  K  K6  1  0.32560700  0.75000000  0.14476500  1
  K  K7  1  0.82560700  0.75000000  0.35523500  1
  V  V0  1  0.13569700  0.99586400  0.89696200  1
  V  V1  1  0.63569700  0.50413600  0.60303800  1
  V  V2  1  0.86430300  0.49586400  0.10303800  1
  V  V3  1  0.36430300  0.00413600  0.39696200  1
  V  V4  1  0.86430300  0.00413600  0.10303800  1
  V  V5  1  0.36430300  0.49586400  0.39696200  1
  V  V6  1  0.13569700  0.50413600  0.89696200  1
  V  V7  1  0.63569700  0.99586400  0.60303800  1
  O  O0  1  0.11893900  0.95831000  0.77719100  1
  O  O1  1  0.61893900  0.54169000  0.72280900  1
  O  O2  1  0.88106100  0.45831000  0.22280900  1
  O  O3  1  0.38106100  0.04169000  0.27719100  1
  O  O4  1  0.88106100  0.04169000  0.22280900  1
  O  O5  1  0.38106100  0.45831000  0.27719100  1
  O  O6  1  0.11893900  0.54169000  0.77719100  1
  O  O7  1  0.61893900  0.95831000  0.72280900  1
  F  F0  1  0.07337400  0.25000000  0.88848800  1
  F  F1  1  0.57337400  0.25000000  0.61151200  1
  F  F2  1  0.92662600  0.75000000  0.11151200  1
  F  F3  1  0.42662600  0.75000000  0.38848800  1
  F  F4  1  0.19917000  0.75000000  0.93987900  1
  F  F5  1  0.69917000  0.75000000  0.56012100  1
  F  F6  1  0.80083000  0.25000000  0.06012100  1
  F  F7  1  0.30083000  0.25000000  0.43987900  1
  F  F8  1  0.38475100  0.05245800  0.91641900  1
  F  F9  1  0.88475100  0.44754200  0.58358100  1
  F  F10  1  0.61524900  0.55245800  0.08358100  1
  F  F11  1  0.11524900  0.94754200  0.41641900  1
  F  F12  1  0.61524900  0.94754200  0.08358100  1
  F  F13  1  0.11524900  0.55245800  0.41641900  1
  F  F14  1  0.38475100  0.44754200  0.91641900  1
  F  F15  1  0.88475100  0.05245800  0.58358100  1
  F  F16  1  0.87695300  0.96440100  0.94025300  1
  F  F17  1  0.37695300  0.53559900  0.55974700  1
  F  F18  1  0.12304700  0.46440100  0.05974700  1
  F  F19  1  0.62304700  0.03559900  0.44025300  1
  F  F20  1  0.12304700  0.03559900  0.05974700  1
  F  F21  1  0.62304700  0.46440100  0.44025300  1
  F  F22  1  0.87695300  0.53559900  0.94025300  1
  F  F23  1  0.37695300  0.96440100  0.55974700  1
loop_
_geom_bond_atom_site_label_1
_geom_bond_atom_site_label_2
_geom_bond_distance
_geom_bond_site_symmetry_2
K0 O5 2.843087 1_555
K0 O3 2.843087 1_555
K1 O4 2.843087 1_555
K1 O2 2.843087 1_555
K2 O1 2.843087 1_555
K2 O7 2.843087 1_555
K3 O6 2.843087 1_555
K3 O0 2.843087 1_555
K4 O7 2.889474 1_545
K4 O1 2.889474 1_555
K5 O0 2.889474 1_545
K5 O6 2.889474 1_555
K6 O5 2.889474 1_555
K6 O3 2.889474 1_565
K7 O2 2.889474 1_555
K7 O4 2.889474 1_565
O0 V0 1.638658 1_555
O1 V1 1.638658 1_555
O2 V2 1.638658 1_555
O3 V3 1.638658 1_555
O4 V4 1.638658 1_555
O5 V5 1.638658 1_555
O6 V6 1.638658 1_555
O7 V7 1.638658 1_555
F0 V6 2.008505 1_555
F0 V0 2.008505 1_545
F0 K4 2.970193 1_455
F1 V7 2.008505 1_545
F1 V1 2.008505 1_555
F1 K5 2.970193 1_555
F2 V4 2.008505 1_565
F2 V2 2.008505 1_555
F2 K6 2.970193 1_655
F3 V3 2.008505 1_565
F3 V5 2.008505 1_555
F3 K7 2.970193 1_555
F4 V0 2.029057 1_555
F4 V6 2.029057 1_555
F4 K6 2.904420 1_556
F4 K2 2.937514 1_555
F5 V7 2.029057 1_555
F5 V1 2.029057 1_555
F5 K7 2.904420 1_555
F5 K3 2.937514 1_655
F6 V2 2.029057 1_555
F6 V4 2.029057 1_555
F6 K4 2.904420 1_554
F6 K0 2.937514 1_555
F7 V5 2.029057 1_555
F7 V3 2.029057 1_555
F7 K5 2.904420 1_555
F7 K1 2.937514 1_455
F8 V0 1.901874 1_545
F8 K4 2.742580 1_555
F8 K2 2.785695 1_545
F8 K0 2.933361 1_556
F9 V1 1.901874 1_555
F9 K5 2.742580 1_655
F9 K3 2.785695 1_655
F9 K1 2.933361 1_555
F10 V2 1.901874 1_555
F10 K6 2.742580 1_555
F10 K0 2.785695 1_555
F10 K2 2.933361 1_554
F11 V3 1.901874 1_565
F11 K7 2.742580 1_455
F11 K1 2.785695 1_465
F11 K3 2.933361 1_555
F12 V4 1.901874 1_565
F12 K6 2.742580 1_555
F12 K0 2.785695 1_565
F12 K2 2.933361 1_554
F13 V5 1.901874 1_555
F13 K7 2.742580 1_455
F13 K1 2.785695 1_455
F13 K3 2.933361 1_555
F14 V6 1.901874 1_555
F14 K4 2.742580 1_555
F14 K2 2.785695 1_555
F14 K0 2.933361 1_556
F15 V7 1.901874 1_545
F15 K5 2.742580 1_655
F15 K3 2.785695 1_645
F15 K1 2.933361 1_555
F16 V0 2.005684 1_655
F16 V4 2.209128 1_566
F16 K2 2.736656 1_555
F16 K4 2.887669 1_565
F17 V1 2.005684 1_555
F17 V5 2.209128 1_555
F17 K3 2.736656 1_555
F17 K5 2.887669 1_555
F18 V2 2.005684 1_455
F18 V6 2.209128 1_554
F18 K0 2.736656 1_555
F18 K6 2.887669 1_555
F19 V3 2.005684 1_555
F19 V7 2.209128 1_545
F19 K1 2.736656 1_555
F19 K7 2.887669 1_545
F20 V4 2.005684 1_455
F20 V0 2.209128 1_544
F20 K0 2.736656 1_555
F20 K6 2.887669 1_545
F21 V5 2.005684 1_555
F21 V1 2.209128 1_555
F21 K1 2.736656 1_555
F21 K7 2.887669 1_555
F22 V6 2.005684 1_655
F22 V2 2.209128 1_556
F22 K2 2.736656 1_555
F22 K4 2.887669 1_555
F23 V7 2.005684 1_555
F23 V3 2.209128 1_565
F23 K3 2.736656 1_555
F23 K5 2.887669 1_565
