# generated using pymatgen
data_K2P4PtCSNO11
_symmetry_space_group_name_H-M   'P 1'
_cell_length_a   11.58309111
_cell_length_b   7.91226434
_cell_length_c   10.98738588
_cell_angle_alpha   109.31245789
_cell_angle_beta   120.61314952
_cell_angle_gamma   84.70297225
_symmetry_Int_Tables_number   1
_chemical_formula_structural   K2P4PtCSNO11
_chemical_formula_sum   'K4 P8 Pt2 C2 S2 N2 O22'
_cell_volume   814.26626067
_cell_formula_units_Z   2
loop_
 _symmetry_equiv_pos_site_id
 _symmetry_equiv_pos_as_xyz
  1  'x, y, z'
loop_
 _atom_site_type_symbol
 _atom_site_label
 _atom_site_symmetry_multiplicity
 _atom_site_fract_x
 _atom_site_fract_y
 _atom_site_fract_z
 _atom_site_occupancy
  K  K0  1  0.28467000  0.75030300  0.58358300  1
  K  K1  1  0.71533000  0.24969700  0.41641700  1
  K  K2  1  0.16936900  0.47452800  0.81104800  1
  K  K3  1  0.83063100  0.52547200  0.18895200  1
  P  P0  1  0.15698000  0.45003800  0.21033500  1
  P  P1  1  0.84302000  0.54996200  0.78966500  1
  P  P2  1  0.94587900  0.26135500  0.90880300  1
  P  P3  1  0.05412100  0.73864500  0.09119700  1
  P  P4  1  0.85574800  0.03251100  0.16336300  1
  P  P5  1  0.14425200  0.96748900  0.83663700  1
  P  P6  1  0.58762200  0.95922800  0.86553500  1
  P  P7  1  0.41237800  0.04077200  0.13446500  1
  Pt  Pt0  1  0.05579700  0.03731300  0.16398900  1
  Pt  Pt1  1  0.94420300  0.96268700  0.83601100  1
  C  C0  1  0.24341600  0.27228300  0.52351600  1
  C  C1  1  0.75658400  0.72771700  0.47648400  1
  S  S0  1  0.22718800  0.06065400  0.41827000  1
  S  S1  1  0.77281200  0.93934600  0.58173000  1
  N  N0  1  0.25737000  0.42102900  0.60314500  1
  N  N1  1  0.74263000  0.57897100  0.39685500  1
  O  O0  1  0.10066900  0.35420000  0.03164800  1
  O  O1  1  0.89933100  0.64580000  0.96835200  1
  O  O2  1  0.08672600  0.33693400  0.24693400  1
  O  O3  1  0.91327400  0.66306600  0.75306600  1
  O  O4  1  0.30439400  0.49365200  0.30063100  1
  O  O5  1  0.69560600  0.50634800  0.69936900  1
  O  O6  1  0.84599000  0.31281900  0.95816800  1
  O  O7  1  0.15401000  0.68718100  0.04183200  1
  O  O8  1  0.91761600  0.35681900  0.78393600  1
  O  O9  1  0.08238400  0.64318100  0.21606400  1
  O  O10  1  0.73897000  0.02509600  0.98142000  1
  O  O11  1  0.26103000  0.97490400  0.01858000  1
  O  O12  1  0.82916100  0.86749500  0.18519600  1
  O  O13  1  0.17083900  0.13250500  0.81480400  1
  O  O14  1  0.85245100  0.21651900  0.25866600  1
  O  O15  1  0.14754900  0.78348200  0.74133400  1
  O  O16  1  0.52488900  0.81506400  0.87629200  1
  O  O17  1  0.47511100  0.18493600  0.12370800  1
  O  O18  1  0.52200700  0.04799800  0.75087800  1
  O  O19  1  0.47799300  0.95200200  0.24912200  1
  O  O20  1  0.47332700  0.42239500  0.96112000  1
  O  O21  1  0.52667300  0.57760500  0.03888000  1
loop_
_geom_bond_atom_site_label_1
_geom_bond_atom_site_label_2
_geom_bond_distance
_geom_bond_site_symmetry_2
K0 N0 2.743268 1_555
K0 O15 2.832250 1_555
K0 O16 2.899520 1_555
K0 O18 3.109599 1_565
K0 O4 3.209845 1_555
K0 O9 3.313752 1_555
K0 S0 3.344982 1_565
K1 N1 2.743268 1_555
K1 O14 2.832251 1_555
K1 O17 2.899520 1_555
K1 O19 3.109599 1_545
K1 O5 3.209845 1_555
K1 O8 3.313752 1_555
K1 S1 3.344982 1_545
K2 O7 2.621959 1_556
K2 O13 2.718461 1_555
K2 O15 2.748374 1_555
K2 N0 2.844031 1_555
K2 O8 2.982092 1_455
K2 O3 3.052446 1_455
K2 O20 3.090942 1_555
K3 O6 2.621959 1_554
K3 O12 2.718461 1_555
K3 O14 2.748367 1_555
K3 N1 2.844031 1_555
K3 O9 2.982092 1_655
K3 O2 3.052446 1_655
K3 O21 3.090942 1_555
P2 Pt1 2.228676 1_545
P3 Pt0 2.228676 1_565
P4 Pt0 2.317475 1_655
P5 Pt1 2.317475 1_455
Pt0 S0 2.420425 1_555
Pt1 S1 2.420425 1_555
C0 N0 1.177602 1_555
C0 S0 1.652984 1_555
C1 N1 1.177602 1_555
C1 S1 1.652984 1_555
O0 P0 1.630143 1_555
O0 P2 1.642783 1_454
O1 P1 1.630143 1_555
O1 P3 1.642783 1_656
O2 P0 1.526612 1_555
O2 Pt0 2.230306 1_555
O3 P1 1.526612 1_555
O3 Pt1 2.230306 1_555
O4 P0 1.475113 1_555
O5 P1 1.475113 1_555
O6 P2 1.484851 1_555
O7 P3 1.484851 1_555
O8 P2 1.655999 1_555
O8 P1 1.683420 1_555
O9 P3 1.655999 1_555
O9 P0 1.683420 1_555
O10 P6 1.556438 1_545
O10 P4 1.735648 1_556
O11 P7 1.556438 1_565
O11 P5 1.735648 1_554
O12 P4 1.487870 1_565
O13 P5 1.487870 1_545
O14 P4 1.496568 1_555
O15 P5 1.496563 1_555
O16 P6 1.474033 1_555
O17 P7 1.474033 1_555
O18 P6 1.472941 1_545
O19 P7 1.472941 1_565
O20 O21 1.236259 1_556
