# generated using pymatgen
data_La2MgS4
_symmetry_space_group_name_H-M   'P 1'
_cell_length_a   13.26493377
_cell_length_b   7.98089994
_cell_length_c   13.14415265
_cell_angle_alpha   90.00000000
_cell_angle_beta   90.00000000
_cell_angle_gamma   90.00000000
_symmetry_Int_Tables_number   1
_chemical_formula_structural   La2MgS4
_chemical_formula_sum   'La16 Mg8 S32'
_cell_volume   1391.52029885
_cell_formula_units_Z   8
loop_
 _symmetry_equiv_pos_site_id
 _symmetry_equiv_pos_as_xyz
  1  'x, y, z'
loop_
 _atom_site_type_symbol
 _atom_site_label
 _atom_site_symmetry_multiplicity
 _atom_site_fract_x
 _atom_site_fract_y
 _atom_site_fract_z
 _atom_site_occupancy
  La  La0  1  0.10955471  0.88719279  0.68460066  1
  La  La1  1  0.89044529  0.11280721  0.18460066  1
  La  La2  1  0.39044529  0.88719279  0.18460066  1
  La  La3  1  0.60955471  0.11280721  0.68460066  1
  La  La4  1  0.12652785  0.38571708  0.32555517  1
  La  La5  1  0.87347215  0.61428292  0.82555517  1
  La  La6  1  0.37347215  0.38571708  0.82555517  1
  La  La7  1  0.62652785  0.61428292  0.32555517  1
  La  La8  1  0.13532870  0.63178664  0.99486079  1
  La  La9  1  0.86467130  0.36821336  0.49486079  1
  La  La10  1  0.36467130  0.63178664  0.49486079  1
  La  La11  1  0.63532870  0.36821336  0.99486079  1
  La  La12  1  0.13587336  0.13111785  0.99296673  1
  La  La13  1  0.86412664  0.86888215  0.49296673  1
  La  La14  1  0.36412664  0.13111785  0.49296673  1
  La  La15  1  0.63587336  0.86888215  0.99296673  1
  Mg  Mg0  1  0.11147801  0.38505353  0.69341938  1
  Mg  Mg1  1  0.88852199  0.61494647  0.19341938  1
  Mg  Mg2  1  0.38852199  0.38505353  0.19341938  1
  Mg  Mg3  1  0.61147801  0.61494647  0.69341938  1
  Mg  Mg4  1  0.12570893  0.88004424  0.32053569  1
  Mg  Mg5  1  0.87429107  0.11995576  0.82053569  1
  Mg  Mg6  1  0.37429107  0.88004424  0.82053569  1
  Mg  Mg7  1  0.62570893  0.11995576  0.32053569  1
  S  S0  1  0.00986393  0.88464744  0.87935092  1
  S  S1  1  0.99013607  0.11535256  0.37935092  1
  S  S2  1  0.49013607  0.88464744  0.37935092  1
  S  S3  1  0.50986393  0.11535256  0.87935092  1
  S  S4  1  0.02633349  0.38560223  0.12959945  1
  S  S5  1  0.97366651  0.61439777  0.62959945  1
  S  S6  1  0.47366651  0.38560223  0.62959945  1
  S  S7  1  0.52633349  0.61439777  0.12959945  1
  S  S8  1  0.02690906  0.37309396  0.86652803  1
  S  S9  1  0.97309094  0.62690604  0.36652803  1
  S  S10  1  0.47309094  0.37309396  0.36652803  1
  S  S11  1  0.52690906  0.62690604  0.86652803  1
  S  S12  1  0.04893063  0.87494581  0.14139845  1
  S  S13  1  0.95106937  0.12505419  0.64139845  1
  S  S14  1  0.45106937  0.87494581  0.64139845  1
  S  S15  1  0.54893063  0.12505419  0.14139845  1
  S  S16  1  0.20902673  0.88207573  0.49441683  1
  S  S17  1  0.79097327  0.11792427  0.99441683  1
  S  S18  1  0.29097327  0.88207573  0.99441683  1
  S  S19  1  0.70902673  0.11792427  0.49441683  1
  S  S20  1  0.21008034  0.38199720  0.52512729  1
  S  S21  1  0.78991966  0.61800280  0.02512729  1
  S  S22  1  0.28991966  0.38199720  0.02512729  1
  S  S23  1  0.71008034  0.61800280  0.52512729  1
  S  S24  1  0.23089778  0.13852157  0.77203383  1
  S  S25  1  0.76910222  0.86147843  0.27203383  1
  S  S26  1  0.26910222  0.13852157  0.27203383  1
  S  S27  1  0.73089778  0.86147843  0.77203383  1
  S  S28  1  0.23548949  0.64120944  0.77660778  1
  S  S29  1  0.76451051  0.35879056  0.27660778  1
  S  S30  1  0.26451051  0.64120944  0.27660778  1
  S  S31  1  0.73548949  0.35879056  0.77660778  1
loop_
_geom_bond_atom_site_label_1
_geom_bond_atom_site_label_2
_geom_bond_distance
_geom_bond_site_symmetry_2
La0 S24 2.816901 1_565
La0 S16 2.826968 1_555
La0 S28 2.847314 1_555
La0 S0 2.881293 1_555
La0 S13 2.888917 1_465
La0 S5 2.917500 1_455
La1 S25 2.816901 1_545
La1 S17 2.826968 1_554
La1 S29 2.847314 1_555
La1 S1 2.881293 1_555
La1 S12 2.888917 1_645
La1 S4 2.917500 1_655
La2 S26 2.816901 1_565
La2 S18 2.826968 1_554
La2 S30 2.847314 1_555
La2 S2 2.881293 1_555
La2 S15 2.888917 1_565
La2 S7 2.917500 1_555
La3 S27 2.816901 1_545
La3 S19 2.826968 1_555
La3 S31 2.847314 1_555
La3 S3 2.881293 1_555
La3 S14 2.888917 1_545
La3 S6 2.917500 1_555
La4 S30 2.814569 1_555
La4 S26 2.822020 1_555
La4 S20 2.847887 1_555
La4 S9 2.852695 1_455
La4 S4 2.898365 1_555
La4 S1 2.903307 1_455
La5 S31 2.814569 1_555
La5 S27 2.822020 1_555
La5 S21 2.847887 1_556
La5 S8 2.852695 1_655
La5 S5 2.898365 1_555
La5 S0 2.903307 1_655
La6 S28 2.814569 1_555
La6 S24 2.822020 1_555
La6 S22 2.847887 1_556
La6 S11 2.852695 1_555
La6 S6 2.898365 1_555
La6 S3 2.903307 1_555
La7 S29 2.814569 1_555
La7 S25 2.822020 1_555
La7 S23 2.847887 1_555
La7 S10 2.852695 1_555
La7 S7 2.898365 1_555
La7 S2 2.903307 1_555
La8 S18 2.872769 1_555
La8 S22 2.887491 1_556
La8 S12 2.964695 1_556
La8 S4 3.014506 1_556
La8 S0 3.024493 1_555
La8 S8 3.029243 1_555
La8 S28 3.162378 1_555
La9 S19 2.872769 1_555
La9 S23 2.887491 1_555
La9 S13 2.964695 1_555
La9 S5 3.014506 1_555
La9 S1 3.024493 1_555
La9 S9 3.029243 1_555
La9 S29 3.162378 1_555
La10 S16 2.872769 1_555
La10 S20 2.887491 1_555
La10 S14 2.964695 1_555
La10 S6 3.014506 1_555
La10 S2 3.024493 1_555
La10 S10 3.029243 1_555
La10 S30 3.162378 1_555
La11 S17 2.872769 1_555
La11 S21 2.887491 1_556
La11 S15 2.964695 1_556
La11 S7 3.014506 1_556
La11 S3 3.024493 1_555
La11 S11 3.029243 1_555
La11 S31 3.162378 1_555
La12 S18 2.860715 1_545
La12 S22 2.891922 1_556
La12 S8 2.929281 1_555
La12 S0 2.982187 1_545
La12 S12 3.052282 1_546
La12 S4 3.075984 1_556
La12 S24 3.166293 1_555
La13 S19 2.860715 1_565
La13 S23 2.891922 1_555
La13 S9 2.929281 1_555
La13 S1 2.982187 1_565
La13 S13 3.052282 1_565
La13 S5 3.075984 1_555
La13 S25 3.166293 1_555
La14 S16 2.860715 1_545
La14 S20 2.891922 1_555
La14 S10 2.929281 1_555
La14 S2 2.982187 1_545
La14 S14 3.052282 1_545
La14 S6 3.075984 1_555
La14 S26 3.166293 1_555
La15 S17 2.860715 1_565
La15 S21 2.891922 1_556
La15 S11 2.929281 1_555
La15 S3 2.982187 1_565
La15 S15 3.052282 1_566
La15 S7 3.075984 1_556
La15 S27 3.166293 1_555
Mg0 S8 2.538669 1_555
Mg0 S20 2.569929 1_555
Mg0 S5 2.719514 1_455
Mg0 S24 2.729166 1_555
Mg0 S28 2.842717 1_555
Mg0 S13 3.049732 1_455
Mg1 S9 2.538669 1_555
Mg1 S21 2.569929 1_555
Mg1 S4 2.719514 1_655
Mg1 S25 2.729166 1_555
Mg1 S29 2.842717 1_555
Mg1 S12 3.049732 1_655
Mg2 S10 2.538669 1_555
Mg2 S22 2.569929 1_555
Mg2 S7 2.719514 1_555
Mg2 S26 2.729166 1_555
Mg2 S30 2.842717 1_555
Mg2 S15 3.049732 1_555
Mg3 S11 2.538669 1_555
Mg3 S23 2.569929 1_555
Mg3 S6 2.719514 1_555
Mg3 S27 2.729166 1_555
Mg3 S31 2.842717 1_555
Mg3 S14 3.049732 1_555
Mg4 S16 2.538768 1_555
Mg4 S12 2.565753 1_555
Mg4 S30 2.712316 1_555
Mg4 S1 2.712663 1_465
Mg4 S26 2.877482 1_565
Mg4 S9 2.923255 1_455
Mg5 S17 2.538768 1_555
Mg5 S13 2.565753 1_555
Mg5 S31 2.712316 1_555
Mg5 S0 2.712663 1_645
Mg5 S27 2.877482 1_545
Mg5 S8 2.923255 1_655
Mg6 S18 2.538768 1_555
Mg6 S14 2.565753 1_555
Mg6 S28 2.712316 1_555
Mg6 S3 2.712663 1_565
Mg6 S24 2.877482 1_565
Mg6 S11 2.923255 1_555
Mg7 S19 2.538768 1_555
Mg7 S15 2.565753 1_555
Mg7 S29 2.712316 1_555
Mg7 S2 2.712663 1_545
Mg7 S25 2.877482 1_545
Mg7 S10 2.923255 1_555
