# generated using pymatgen
data_KBaVO4
_symmetry_space_group_name_H-M   'P 1'
_cell_length_a   6.02528600
_cell_length_b   7.88736400
_cell_length_c   10.57497900
_cell_angle_alpha   90.00000000
_cell_angle_beta   90.00000000
_cell_angle_gamma   90.00000000
_symmetry_Int_Tables_number   1
_chemical_formula_structural   KBaVO4
_chemical_formula_sum   'K4 Ba4 V4 O16'
_cell_volume   502.56132460
_cell_formula_units_Z   4
loop_
 _symmetry_equiv_pos_site_id
 _symmetry_equiv_pos_as_xyz
  1  'x, y, z'
loop_
 _atom_site_type_symbol
 _atom_site_label
 _atom_site_symmetry_multiplicity
 _atom_site_fract_x
 _atom_site_fract_y
 _atom_site_fract_z
 _atom_site_occupancy
  K  K0  1  0.25000000  0.83638400  0.42658900  1
  K  K1  1  0.75000000  0.16361600  0.57341100  1
  K  K2  1  0.25000000  0.33638400  0.07341100  1
  K  K3  1  0.75000000  0.66361600  0.92658900  1
  Ba  Ba0  1  0.25000000  0.50247400  0.69623900  1
  Ba  Ba1  1  0.75000000  0.49752600  0.30376100  1
  Ba  Ba2  1  0.25000000  0.00247400  0.80376100  1
  Ba  Ba3  1  0.75000000  0.99752600  0.19623900  1
  V  V0  1  0.25000000  0.27222700  0.41670400  1
  V  V1  1  0.75000000  0.72777300  0.58329600  1
  V  V2  1  0.25000000  0.77222700  0.08329600  1
  V  V3  1  0.75000000  0.22777300  0.91670400  1
  O  O0  1  0.51075500  0.79252400  0.66301100  1
  O  O1  1  0.01075500  0.20747600  0.33698900  1
  O  O2  1  0.98924500  0.29252400  0.83698900  1
  O  O3  1  0.48924500  0.70747600  0.16301100  1
  O  O4  1  0.48924500  0.20747600  0.33698900  1
  O  O5  1  0.98924500  0.79252400  0.66301100  1
  O  O6  1  0.01075500  0.70747600  0.16301100  1
  O  O7  1  0.51075500  0.29252400  0.83698900  1
  O  O8  1  0.25000000  0.18885500  0.57041600  1
  O  O9  1  0.75000000  0.81114500  0.42958400  1
  O  O10  1  0.25000000  0.68885500  0.92958400  1
  O  O11  1  0.75000000  0.31114500  0.07041600  1
  O  O12  1  0.75000000  0.00841400  0.92827800  1
  O  O13  1  0.25000000  0.99158600  0.07172200  1
  O  O14  1  0.75000000  0.50841400  0.57172200  1
  O  O15  1  0.25000000  0.49158600  0.42827800  1
loop_
_geom_bond_atom_site_label_1
_geom_bond_atom_site_label_2
_geom_bond_distance
_geom_bond_site_symmetry_2
K0 O15 2.719606 1_555
K1 O14 2.719606 1_555
K2 O13 2.719606 1_545
K3 O12 2.719606 1_565
Ba0 O2 2.725073 1_455
Ba0 O7 2.725073 1_555
Ba0 O5 2.797429 1_455
Ba0 O0 2.797429 1_555
Ba0 O8 2.808783 1_555
Ba0 O15 2.834983 1_555
Ba0 O10 2.872316 1_555
Ba0 O14 3.288173 1_455
Ba0 O14 3.288173 1_555
Ba1 O3 2.725073 1_555
Ba1 O6 2.725073 1_655
Ba1 O4 2.797429 1_555
Ba1 O1 2.797429 1_655
Ba1 O9 2.808783 1_555
Ba1 O14 2.834983 1_555
Ba1 O11 2.872316 1_555
Ba1 O15 3.288173 1_555
Ba1 O15 3.288173 1_655
Ba2 O0 2.725073 1_545
Ba2 O5 2.725073 1_445
Ba2 O2 2.797429 1_455
Ba2 O7 2.797429 1_555
Ba2 O10 2.808783 1_545
Ba2 O13 2.834983 1_546
Ba2 O8 2.872316 1_555
Ba2 O12 3.288173 1_455
Ba2 O12 3.288173 1_555
Ba3 O4 2.725073 1_565
Ba3 O1 2.725073 1_665
Ba3 O3 2.797429 1_555
Ba3 O6 2.797429 1_655
Ba3 O11 2.808783 1_565
Ba3 O12 2.834983 1_564
Ba3 O9 2.872316 1_555
Ba3 O13 3.288173 1_655
Ba3 O13 3.288173 1_555
O0 V1 1.746262 1_555
O1 V0 1.746262 1_555
O2 V3 1.746262 1_555
O3 V2 1.746262 1_555
O4 V0 1.746262 1_555
O5 V1 1.746262 1_555
O6 V2 1.746262 1_555
O7 V3 1.746262 1_555
O8 V0 1.753474 1_555
O9 V1 1.753474 1_555
O10 V2 1.753474 1_556
O11 V3 1.753474 1_554
O12 V3 1.734488 1_555
O13 V2 1.734488 1_555
O14 V1 1.734488 1_555
O15 V0 1.734488 1_555
