# generated using pymatgen
data_Sr2LaCu2HgO6
_symmetry_space_group_name_H-M   'P 1'
_cell_length_a   3.94980900
_cell_length_b   3.94980900
_cell_length_c   12.50269100
_cell_angle_alpha   90.00000000
_cell_angle_beta   90.00000000
_cell_angle_gamma   90.00000000
_symmetry_Int_Tables_number   1
_chemical_formula_structural   Sr2LaCu2HgO6
_chemical_formula_sum   'Sr2 La1 Cu2 Hg1 O6'
_cell_volume   195.05437147
_cell_formula_units_Z   1
loop_
 _symmetry_equiv_pos_site_id
 _symmetry_equiv_pos_as_xyz
  1  'x, y, z'
loop_
 _atom_site_type_symbol
 _atom_site_label
 _atom_site_symmetry_multiplicity
 _atom_site_fract_x
 _atom_site_fract_y
 _atom_site_fract_z
 _atom_site_occupancy
  Sr  Sr0  1  0.50000000  0.50000000  0.22246400  1
  Sr  Sr1  1  0.50000000  0.50000000  0.77753600  1
  La  La0  1  0.50000000  0.50000000  0.50000000  1
  Cu  Cu0  1  0.00000000  0.00000000  0.36215900  1
  Cu  Cu1  1  0.00000000  0.00000000  0.63784100  1
  Hg  Hg0  1  0.00000000  0.00000000  0.00000000  1
  O  O0  1  0.00000000  0.50000000  0.36840900  1
  O  O1  1  0.00000000  0.50000000  0.63159100  1
  O  O2  1  0.50000000  0.00000000  0.36840900  1
  O  O3  1  0.50000000  0.00000000  0.63159100  1
  O  O4  1  0.00000000  0.00000000  0.16579500  1
  O  O5  1  0.00000000  0.00000000  0.83420500  1
loop_
_geom_bond_atom_site_label_1
_geom_bond_atom_site_label_2
_geom_bond_distance
_geom_bond_site_symmetry_2
La0 O1 2.570422 1_555
La0 O0 2.570422 1_555
La0 O2 2.570422 1_555
La0 O1 2.570422 1_655
La0 O3 2.570422 1_555
La0 O0 2.570422 1_655
La0 O2 2.570422 1_565
La0 O3 2.570422 1_565
Cu0 O0 1.976450 1_555
Cu0 O0 1.976450 1_545
Cu0 O2 1.976450 1_455
Cu0 O2 1.976450 1_555
Cu0 O4 2.455078 1_555
Cu1 O1 1.976450 1_555
Cu1 O1 1.976450 1_545
Cu1 O3 1.976450 1_455
Cu1 O3 1.976450 1_555
Cu1 O5 2.455078 1_555
Hg0 O4 2.072884 1_555
Hg0 O5 2.072884 1_554
O0 Sr0 2.688828 1_555
O0 Sr0 2.688828 1_455
O1 Sr1 2.688828 1_455
O1 Sr1 2.688828 1_555
O2 Sr0 2.688828 1_555
O2 Sr0 2.688828 1_545
O3 Sr1 2.688828 1_545
O3 Sr1 2.688828 1_555
O4 Sr0 2.881404 1_445
O4 Sr0 2.881404 1_545
O4 Sr0 2.881404 1_455
O4 Sr0 2.881404 1_555
O5 Sr1 2.881404 1_555
O5 Sr1 2.881404 1_445
O5 Sr1 2.881404 1_545
O5 Sr1 2.881404 1_455
