# generated using pymatgen
data_LaNd3Cr4O12
_symmetry_space_group_name_H-M   'P 1'
_cell_length_a   7.84440800
_cell_length_b   5.50444100
_cell_length_c   5.60588673
_cell_angle_alpha   89.97072807
_cell_angle_beta   90.00000000
_cell_angle_gamma   90.00000000
_symmetry_Int_Tables_number   1
_chemical_formula_structural   LaNd3Cr4O12
_chemical_formula_sum   'La1 Nd3 Cr4 O12'
_cell_volume   242.05700576
_cell_formula_units_Z   1
loop_
 _symmetry_equiv_pos_site_id
 _symmetry_equiv_pos_as_xyz
  1  'x, y, z'
loop_
 _atom_site_type_symbol
 _atom_site_label
 _atom_site_symmetry_multiplicity
 _atom_site_fract_x
 _atom_site_fract_y
 _atom_site_fract_z
 _atom_site_occupancy
  La  La0  1  0.50000000  0.49161600  0.54035800  1
  Nd  Nd0  1  0.50000000  0.01089200  0.04760800  1
  Nd  Nd1  1  0.00000000  0.51129700  0.45052200  1
  Nd  Nd2  1  0.00000000  0.98971700  0.95216400  1
  Cr  Cr0  1  0.24879300  0.00029600  0.50049000  1
  Cr  Cr1  1  0.75083200  0.49953800  0.99899300  1
  Cr  Cr2  1  0.75120700  0.00029600  0.50049000  1
  Cr  Cr3  1  0.24916800  0.49953800  0.99899300  1
  O  O0  1  0.50000000  0.58770200  0.98127700  1
  O  O1  1  0.50000000  0.92018400  0.47563200  1
  O  O2  1  0.00000000  0.41263100  0.02385900  1
  O  O3  1  0.00000000  0.08832500  0.52479800  1
  O  O4  1  0.29409700  0.20337000  0.79561000  1
  O  O5  1  0.70662600  0.29162100  0.29093300  1
  O  O6  1  0.79682200  0.79228600  0.20833700  1
  O  O7  1  0.20208100  0.70670700  0.70752800  1
  O  O8  1  0.20317800  0.79228600  0.20833700  1
  O  O9  1  0.79791900  0.70670700  0.70752800  1
  O  O10  1  0.70590300  0.20337000  0.79561000  1
  O  O11  1  0.29337400  0.29162100  0.29093300  1
loop_
_geom_bond_atom_site_label_1
_geom_bond_atom_site_label_2
_geom_bond_distance
_geom_bond_site_symmetry_2
La0 O1 2.386586 1_555
La0 O5 2.407436 1_555
La0 O11 2.407436 1_555
La0 O0 2.527959 1_555
La0 O4 2.677952 1_555
La0 O10 2.677952 1_555
La0 O9 2.782565 1_555
La0 O7 2.782565 1_555
Nd0 O0 2.359104 1_544
Nd0 O10 2.392791 1_554
Nd0 O4 2.392791 1_554
Nd0 O1 2.450603 1_545
Nd0 O5 2.622555 1_555
Nd0 O11 2.622555 1_555
Nd0 O6 2.771299 1_545
Nd0 O8 2.771299 1_545
Nd1 O3 2.364955 1_555
Nd1 O7 2.397327 1_555
Nd1 O9 2.397327 1_455
Nd1 O2 2.452980 1_555
Nd1 O8 2.602609 1_555
Nd1 O6 2.602609 1_455
Nd1 O11 2.749513 1_555
Nd1 O5 2.749513 1_455
Nd2 O2 2.362548 1_566
Nd2 O8 2.404574 1_556
Nd2 O6 2.404574 1_456
Nd2 O3 2.456212 1_565
Nd2 O7 2.612007 1_555
Nd2 O9 2.612007 1_455
Nd2 O4 2.733965 1_565
Nd2 O10 2.733965 1_465
Cr0 O3 2.015515 1_555
Cr0 O11 2.017893 1_555
Cr0 O7 2.022626 1_545
Cr0 O1 2.024126 1_545
Cr0 O4 2.028486 1_555
Cr0 O8 2.030577 1_545
Cr1 O2 2.017070 1_656
Cr1 O10 2.020821 1_555
Cr1 O9 2.025986 1_555
Cr1 O6 2.026321 1_556
Cr1 O5 2.026461 1_556
Cr1 O0 2.029011 1_555
Cr2 O3 2.015515 1_655
Cr2 O5 2.017893 1_555
Cr2 O9 2.022626 1_545
Cr2 O1 2.024126 1_545
Cr2 O10 2.028486 1_555
Cr2 O6 2.030577 1_545
Cr3 O2 2.017070 1_556
Cr3 O4 2.020821 1_555
Cr3 O7 2.025986 1_555
Cr3 O8 2.026321 1_556
Cr3 O11 2.026461 1_556
Cr3 O0 2.029011 1_555
