# generated using pymatgen
data_Sr3InN3
_symmetry_space_group_name_H-M   'P 1'
_cell_length_a   7.84892800
_cell_length_b   7.84895154
_cell_length_c   5.48095900
_cell_angle_alpha   90.00000000
_cell_angle_beta   90.00000000
_cell_angle_gamma   119.99972159
_symmetry_Int_Tables_number   1
_chemical_formula_structural   Sr3InN3
_chemical_formula_sum   'Sr6 In2 N6'
_cell_volume   292.42223803
_cell_formula_units_Z   2
loop_
 _symmetry_equiv_pos_site_id
 _symmetry_equiv_pos_as_xyz
  1  'x, y, z'
loop_
 _atom_site_type_symbol
 _atom_site_label
 _atom_site_symmetry_multiplicity
 _atom_site_fract_x
 _atom_site_fract_y
 _atom_site_fract_z
 _atom_site_occupancy
  Sr  Sr0  1  0.93048800  0.65129200  0.25000000  1
  Sr  Sr1  1  0.72081300  0.06951500  0.25000000  1
  Sr  Sr2  1  0.34870100  0.27918900  0.25000000  1
  Sr  Sr3  1  0.06951200  0.34870800  0.75000000  1
  Sr  Sr4  1  0.27918700  0.93048500  0.75000000  1
  Sr  Sr5  1  0.65129900  0.72081100  0.75000000  1
  In  In0  1  0.66666200  0.33332900  0.75000000  1
  In  In1  1  0.33333800  0.66667100  0.25000000  1
  N  N0  1  0.92305500  0.61970800  0.75000000  1
  N  N1  1  0.69665500  0.07694100  0.75000000  1
  N  N2  1  0.38028200  0.30334300  0.75000000  1
  N  N3  1  0.07694500  0.38029200  0.25000000  1
  N  N4  1  0.30334500  0.92305900  0.25000000  1
  N  N5  1  0.61971800  0.69665700  0.25000000  1
loop_
_geom_bond_atom_site_label_1
_geom_bond_atom_site_label_2
_geom_bond_distance
_geom_bond_site_symmetry_2
In0 N1 2.139817 1_555
In0 N2 2.139827 1_555
In0 N0 2.139832 1_555
In1 N4 2.139817 1_555
In1 N5 2.139827 1_555
In1 N3 2.139832 1_555
N0 Sr5 2.621453 1_555
N0 Sr4 2.635369 1_655
N0 Sr0 2.749659 1_555
N0 Sr0 2.749659 1_556
N0 Sr3 2.879399 1_655
N1 Sr3 2.621476 1_655
N1 Sr5 2.635347 1_545
N1 Sr1 2.749660 1_556
N1 Sr1 2.749660 1_555
N1 Sr4 2.879483 1_545
N2 Sr4 2.621474 1_545
N2 Sr3 2.635347 1_555
N2 Sr2 2.749658 1_556
N2 Sr2 2.749658 1_555
N2 Sr5 2.879503 1_555
N3 Sr2 2.621453 1_555
N3 Sr1 2.635369 1_455
N3 Sr3 2.749659 1_554
N3 Sr3 2.749659 1_555
N3 Sr0 2.879399 1_455
N4 Sr0 2.621476 1_455
N4 Sr2 2.635347 1_565
N4 Sr4 2.749660 1_555
N4 Sr4 2.749660 1_554
N4 Sr1 2.879483 1_565
N5 Sr1 2.621474 1_565
N5 Sr0 2.635347 1_555
N5 Sr5 2.749658 1_555
N5 Sr5 2.749658 1_554
N5 Sr2 2.879503 1_555
