# generated using pymatgen
data_K2La4O7
_symmetry_space_group_name_H-M   'P 1'
_cell_length_a   6.37985208
_cell_length_b   6.37985208
_cell_length_c   7.74895000
_cell_angle_alpha   90.00000000
_cell_angle_beta   90.00000000
_cell_angle_gamma   120.00000086
_symmetry_Int_Tables_number   1
_chemical_formula_structural   K2La4O7
_chemical_formula_sum   'K2 La4 O7'
_cell_volume   273.14591254
_cell_formula_units_Z   1
loop_
 _symmetry_equiv_pos_site_id
 _symmetry_equiv_pos_as_xyz
  1  'x, y, z'
loop_
 _atom_site_type_symbol
 _atom_site_label
 _atom_site_symmetry_multiplicity
 _atom_site_fract_x
 _atom_site_fract_y
 _atom_site_fract_z
 _atom_site_occupancy
  K  K0  1  0.33333300  0.66666700  0.00000000  1
  K  K1  1  0.66666700  0.33333300  0.00000000  1
  La  La0  1  0.00000000  0.00000000  0.27690600  1
  La  La1  1  0.00000000  0.00000000  0.72309400  1
  La  La2  1  0.33333300  0.66666700  0.50000000  1
  La  La3  1  0.66666700  0.33333300  0.50000000  1
  O  O0  1  0.00000000  0.63825100  0.32495700  1
  O  O1  1  0.00000000  0.36174900  0.67504300  1
  O  O2  1  0.00000000  0.00000000  0.00000000  1
  O  O3  1  0.36174900  0.36174900  0.32495700  1
  O  O4  1  0.63825100  0.63825100  0.67504300  1
  O  O5  1  0.36174900  0.00000000  0.67504300  1
  O  O6  1  0.63825100  0.00000000  0.32495700  1
loop_
_geom_bond_atom_site_label_1
_geom_bond_atom_site_label_2
_geom_bond_distance
_geom_bond_site_symmetry_2
K0 O5 3.241995 1_564
K0 O0 3.241995 1_555
K0 O6 3.241996 1_565
K0 O1 3.241996 1_554
K0 O3 3.241999 1_555
K0 O4 3.241999 1_554
K1 O6 3.241995 1_555
K1 O1 3.241995 1_654
K1 O0 3.241996 1_655
K1 O5 3.241996 1_554
K1 O3 3.241999 1_555
K1 O4 3.241999 1_554
La0 O2 2.145731 1_555
La0 O3 2.337748 1_555
La0 O0 2.337748 1_545
La0 O6 2.337748 1_455
La1 O2 2.145731 1_556
La1 O4 2.337748 1_445
La1 O5 2.337748 1_555
La1 O1 2.337748 1_555
La2 O5 2.451458 1_565
La2 O0 2.451458 1_555
La2 O1 2.451460 1_555
La2 O6 2.451460 1_565
La2 O4 2.451463 1_555
La2 O3 2.451463 1_555
La3 O6 2.451458 1_555
La3 O1 2.451458 1_655
La3 O0 2.451460 1_655
La3 O5 2.451460 1_555
La3 O3 2.451463 1_555
La3 O4 2.451463 1_555
