# generated using pymatgen
data_InAs2NO7
_symmetry_space_group_name_H-M   'P 1'
_cell_length_a   7.97281500
_cell_length_b   8.74179331
_cell_length_c   10.94833301
_cell_angle_alpha   87.01058685
_cell_angle_beta   85.01541869
_cell_angle_gamma   73.74469812
_symmetry_Int_Tables_number   1
_chemical_formula_structural   InAs2NO7
_chemical_formula_sum   'In4 As8 N4 O28'
_cell_volume   729.47897340
_cell_formula_units_Z   4
loop_
 _symmetry_equiv_pos_site_id
 _symmetry_equiv_pos_as_xyz
  1  'x, y, z'
loop_
 _atom_site_type_symbol
 _atom_site_label
 _atom_site_symmetry_multiplicity
 _atom_site_fract_x
 _atom_site_fract_y
 _atom_site_fract_z
 _atom_site_occupancy
  In  In0  1  0.23191500  0.27508200  0.56420900  1
  In  In1  1  0.76808500  0.72491800  0.43579100  1
  In  In2  1  0.74939100  0.21721000  0.11428900  1
  In  In3  1  0.25060900  0.78279000  0.88571100  1
  As  As0  1  0.92819800  0.33806900  0.34357400  1
  As  As1  1  0.07180200  0.66193100  0.65642600  1
  As  As2  1  0.65318800  0.15095900  0.43091000  1
  As  As3  1  0.34681200  0.84904100  0.56909000  1
  As  As4  1  0.37445300  0.34762300  0.93223900  1
  As  As5  1  0.62554700  0.65237700  0.06776100  1
  As  As6  1  0.05765500  0.20282900  0.87235700  1
  As  As7  1  0.94234500  0.79717100  0.12764300  1
  N  N0  1  0.33155500  0.55257600  0.31839400  1
  N  N1  1  0.66844500  0.44742400  0.68160600  1
  N  N2  1  0.62724500  0.01645500  0.78751300  1
  N  N3  1  0.37275500  0.98354500  0.21248700  1
  O  O0  1  0.77472100  0.51846600  0.33913200  1
  O  O1  1  0.22527900  0.48153400  0.66086800  1
  O  O2  1  0.11338200  0.35536100  0.40014300  1
  O  O3  1  0.88661800  0.64463900  0.59985700  1
  O  O4  1  0.96509500  0.25012500  0.20384700  1
  O  O5  1  0.03490500  0.74987500  0.79615300  1
  O  O6  1  0.84925500  0.20714700  0.44981900  1
  O  O7  1  0.15074500  0.79285300  0.55018100  1
  O  O8  1  0.70043000  0.96307200  0.49347300  1
  O  O9  1  0.29957000  0.03692800  0.50652700  1
  O  O10  1  0.49670100  0.27731500  0.52209600  1
  O  O11  1  0.50329900  0.72268500  0.47790400  1
  O  O12  1  0.60885900  0.16895700  0.27997000  1
  O  O13  1  0.39114100  0.83104300  0.72003000  1
  O  O14  1  0.40718900  0.52402700  0.89252600  1
  O  O15  1  0.59281100  0.47597300  0.10747400  1
  O  O16  1  0.48850700  0.21896900  0.03487200  1
  O  O17  1  0.51149300  0.78103100  0.96512800  1
  O  O18  1  0.51748600  0.12730300  0.76388600  1
  O  O19  1  0.48251400  0.87269700  0.23611400  1
  O  O20  1  0.15320400  0.35284700  0.93070800  1
  O  O21  1  0.84679600  0.64715300  0.06929200  1
  O  O22  1  0.17801700  0.02943100  0.93423400  1
  O  O23  1  0.82198300  0.97056900  0.06576600  1
  O  O24  1  0.84785300  0.27290800  0.93256000  1
  O  O25  1  0.15214700  0.72709200  0.06744000  1
  O  O26  1  0.07073300  0.21478900  0.71742900  1
  O  O27  1  0.92926700  0.78521100  0.28257100  1
loop_
_geom_bond_atom_site_label_1
_geom_bond_atom_site_label_2
_geom_bond_distance
_geom_bond_site_symmetry_2
In0 O2 2.098650 1_555
In0 O9 2.115020 1_555
In0 O1 2.125061 1_555
In0 O10 2.126653 1_555
In0 O26 2.157683 1_555
In1 O3 2.098650 1_555
In1 O8 2.115020 1_555
In1 O0 2.125061 1_555
In1 O11 2.126653 1_555
In1 O27 2.157683 1_555
In2 O12 2.134304 1_555
In2 O4 2.145059 1_555
In2 O23 2.152518 1_545
In2 O24 2.157191 1_554
In2 O15 2.258001 1_555
In2 O16 2.318950 1_555
In3 O13 2.134304 1_555
In3 O5 2.145059 1_555
In3 O22 2.152518 1_565
In3 O25 2.157191 1_556
In3 O14 2.258001 1_555
In3 O17 2.318950 1_555
As0 O2 1.697029 1_655
As0 O0 1.705467 1_555
As0 O4 1.713373 1_555
As0 O6 1.787805 1_555
As1 O3 1.697029 1_455
As1 O1 1.705467 1_555
As1 O5 1.713373 1_555
As1 O7 1.787805 1_555
As2 O8 1.699969 1_545
As2 O10 1.703064 1_555
As2 O12 1.709913 1_555
As2 O6 1.795670 1_555
As3 O9 1.699969 1_565
As3 O11 1.703064 1_555
As3 O13 1.709913 1_555
As3 O7 1.795670 1_555
As4 O14 1.664592 1_555
As4 O16 1.681540 1_556
As4 O20 1.753266 1_555
As5 O15 1.664592 1_555
As5 O17 1.681540 1_554
As5 O21 1.753266 1_555
As6 O26 1.689906 1_555
As6 O22 1.693818 1_555
As6 O24 1.698397 1_455
As6 O20 1.854602 1_555
As7 O27 1.689906 1_555
As7 O23 1.693818 1_555
As7 O25 1.698397 1_655
As7 O21 1.854602 1_555
N2 O18 1.144614 1_555
N3 O19 1.144614 1_555
