# generated using pymatgen
data_Li7Mn2(CoO4)3
_symmetry_space_group_name_H-M   'P 1'
_cell_length_a   2.90165800
_cell_length_b   7.76835845
_cell_length_c   10.23165011
_cell_angle_alpha   109.21675615
_cell_angle_beta   90.85768936
_cell_angle_gamma   98.56168933
_symmetry_Int_Tables_number   1
_chemical_formula_structural   Li7Mn2(CoO4)3
_chemical_formula_sum   'Li7 Mn2 Co3 O12'
_cell_volume   214.84912738
_cell_formula_units_Z   1
loop_
 _symmetry_equiv_pos_site_id
 _symmetry_equiv_pos_as_xyz
  1  'x, y, z'
loop_
 _atom_site_type_symbol
 _atom_site_label
 _atom_site_symmetry_multiplicity
 _atom_site_fract_x
 _atom_site_fract_y
 _atom_site_fract_z
 _atom_site_occupancy
  Li  Li0  1  0.00830100  0.00909300  0.76271500  1
  Li  Li1  1  0.67008800  0.33291400  0.41625300  1
  Li  Li2  1  0.35628100  0.67938100  0.08075000  1
  Li  Li3  1  0.64371900  0.32061900  0.91925000  1
  Li  Li4  1  0.32991200  0.66708600  0.58374700  1
  Li  Li5  1  0.99169900  0.99090700  0.23728500  1
  Li  Li6  1  0.50000000  0.00000000  0.00000000  1
  Mn  Mn0  1  0.84498600  0.67791500  0.84255600  1
  Mn  Mn1  1  0.15501400  0.32208500  0.15744400  1
  Co  Co0  1  0.50000000  0.00000000  0.50000000  1
  Co  Co1  1  0.17915400  0.33435600  0.66676500  1
  Co  Co2  1  0.82084600  0.66564400  0.33323500  1
  O  O0  1  0.39868100  0.81366500  0.79554500  1
  O  O1  1  0.09733600  0.15887700  0.46359200  1
  O  O2  1  0.71859800  0.48178100  0.13303600  1
  O  O3  1  0.09098000  0.18379200  0.97401200  1
  O  O4  1  0.77151000  0.49647100  0.63626400  1
  O  O5  1  0.42469500  0.82450200  0.29544200  1
  O  O6  1  0.57530500  0.17549800  0.70455800  1
  O  O7  1  0.22849000  0.50352900  0.36373600  1
  O  O8  1  0.90902000  0.81620800  0.02598800  1
  O  O9  1  0.28140200  0.51821900  0.86696400  1
  O  O10  1  0.90266400  0.84112300  0.53640800  1
  O  O11  1  0.60131900  0.18633500  0.20445500  1
loop_
_geom_bond_atom_site_label_1
_geom_bond_atom_site_label_2
_geom_bond_distance
_geom_bond_site_symmetry_2
Li0 O3 2.128228 1_555
Li0 O0 2.130044 1_545
Li0 O6 2.138049 1_455
Li0 O6 2.152765 1_555
Li0 O10 2.242507 1_445
Li0 O0 2.258440 1_445
Li1 O11 2.080269 1_555
Li1 O1 2.124036 1_655
Li1 O7 2.127491 1_655
Li1 O1 2.147237 1_555
Li1 O7 2.154342 1_555
Li1 O4 2.180444 1_555
Li2 O8 1.977128 1_455
Li2 O8 1.981784 1_555
Li2 O5 2.103746 1_555
Li2 O9 2.121630 1_554
Li2 O2 2.179915 1_555
Li2 O2 2.406402 1_455
Li3 O3 1.977128 1_655
Li3 O3 1.981784 1_555
Li3 O6 2.103746 1_555
Li3 O2 2.121630 1_556
Li3 O9 2.179915 1_555
Li3 O9 2.406402 1_655
Li4 O0 2.080269 1_555
Li4 O10 2.124036 1_455
Li4 O4 2.127491 1_455
Li4 O10 2.147237 1_555
Li4 O4 2.154342 1_555
Li4 O7 2.180444 1_555
Li5 O8 2.128228 1_555
Li5 O11 2.130044 1_565
Li5 O5 2.138049 1_655
Li5 O5 2.152765 1_555
Li5 O1 2.242507 1_665
Li5 O11 2.258440 1_665
Li6 O8 2.064653 1_545
Li6 O3 2.064653 1_554
Li6 O11 2.102230 1_555
Li6 O0 2.102230 1_544
Li6 O8 2.141119 1_445
Li6 O3 2.141119 1_654
Mn0 O8 1.820420 1_556
Mn0 O0 1.934534 1_555
Mn0 O0 1.943526 1_655
Mn0 O9 1.966525 1_655
Mn0 O9 1.971753 1_555
Mn0 O4 2.103779 1_555
Mn1 O3 1.820420 1_554
Mn1 O11 1.934534 1_555
Mn1 O11 1.943526 1_455
Mn1 O2 1.966525 1_455
Mn1 O2 1.971753 1_555
Mn1 O7 2.103779 1_555
Co0 O1 1.935506 1_555
Co0 O10 1.935506 1_545
Co0 O5 2.075133 1_545
Co0 O6 2.075133 1_555
Co0 O1 2.085975 1_655
Co0 O10 2.085975 1_445
Co1 O6 1.927946 1_555
Co1 O4 1.942606 1_455
Co1 O9 2.062422 1_555
Co1 O1 2.063843 1_555
Co1 O4 2.065910 1_555
Co1 O6 2.105497 1_455
Co2 O5 1.927946 1_555
Co2 O7 1.942606 1_655
Co2 O2 2.062422 1_555
Co2 O10 2.063843 1_555
Co2 O7 2.065910 1_555
Co2 O5 2.105497 1_655
