# generated using pymatgen
data_LaFe6(CoB)6
_symmetry_space_group_name_H-M   'P 1'
_cell_length_a   6.03324027
_cell_length_b   6.03324027
_cell_length_c   6.03324044
_cell_angle_alpha   104.08326702
_cell_angle_beta   104.08326702
_cell_angle_gamma   104.08326653
_symmetry_Int_Tables_number   1
_chemical_formula_structural   LaFe6(CoB)6
_chemical_formula_sum   'La1 Fe6 Co6 B6'
_cell_volume   195.63203416
_cell_formula_units_Z   1
loop_
 _symmetry_equiv_pos_site_id
 _symmetry_equiv_pos_as_xyz
  1  'x, y, z'
loop_
 _atom_site_type_symbol
 _atom_site_label
 _atom_site_symmetry_multiplicity
 _atom_site_fract_x
 _atom_site_fract_y
 _atom_site_fract_z
 _atom_site_occupancy
  La  La0  1  0.00000000  0.00000000  0.00000000  1
  Fe  Fe0  1  0.13231300  0.86768700  0.50000000  1
  Fe  Fe1  1  0.50000000  0.13231300  0.86768700  1
  Fe  Fe2  1  0.86768600  0.50000000  0.13231300  1
  Fe  Fe3  1  0.50000000  0.86768700  0.13231300  1
  Fe  Fe4  1  0.13231300  0.50000000  0.86768700  1
  Fe  Fe5  1  0.86768600  0.13231300  0.50000000  1
  Co  Co0  1  0.54102800  0.81324500  0.54102800  1
  Co  Co1  1  0.54102800  0.54102800  0.81324500  1
  Co  Co2  1  0.81324500  0.54102800  0.54102800  1
  Co  Co3  1  0.45897200  0.18675500  0.45897200  1
  Co  Co4  1  0.45897200  0.45897200  0.18675500  1
  Co  Co5  1  0.18675500  0.45897200  0.45897200  1
  B  B0  1  0.76762800  0.32602400  0.76762800  1
  B  B1  1  0.76762800  0.76762800  0.32602400  1
  B  B2  1  0.32602400  0.76762800  0.76762800  1
  B  B3  1  0.23237200  0.67397600  0.23237200  1
  B  B4  1  0.23237200  0.23237200  0.67397600  1
  B  B5  1  0.67397600  0.23237200  0.23237200  1
loop_
_geom_bond_atom_site_label_1
_geom_bond_atom_site_label_2
_geom_bond_distance
_geom_bond_site_symmetry_2
Fe0 La0 3.268732 1_566
Fe0 La0 3.268732 1_565
Fe1 La0 3.268732 1_656
Fe1 La0 3.268732 1_556
Fe2 La0 3.268733 1_665
Fe2 La0 3.268735 1_655
Fe3 La0 3.268732 1_565
Fe3 La0 3.268732 1_665
Fe4 La0 3.268732 1_566
Fe4 La0 3.268732 1_556
Fe5 La0 3.268733 1_656
Fe5 La0 3.268735 1_655
Co0 La0 3.136361 1_666
Co1 La0 3.136361 1_666
Co2 La0 3.136361 1_666
Co3 La0 3.136361 1_555
Co4 La0 3.136361 1_555
Co5 La0 3.136361 1_555
B0 Fe4 2.056330 1_655
B0 Fe2 2.056330 1_556
B0 Fe5 2.058345 1_555
B0 Fe1 2.058348 1_555
B0 Co3 2.104983 1_555
B0 Co1 2.121290 1_555
B0 Co2 2.121290 1_555
B0 La0 3.086667 1_656
B1 Fe0 2.056330 1_655
B1 Fe5 2.056330 1_565
B1 Fe2 2.058345 1_555
B1 Fe3 2.058348 1_555
B1 Co4 2.104983 1_555
B1 Co2 2.121290 1_555
B1 Co0 2.121290 1_555
B1 La0 3.086668 1_665
B2 Fe1 2.056330 1_565
B2 Fe3 2.056330 1_556
B2 Fe4 2.058348 1_555
B2 Fe0 2.058348 1_555
B2 Co5 2.104983 1_555
B2 Co1 2.121290 1_555
B2 Co0 2.121290 1_555
B2 La0 3.086667 1_566
B3 Fe4 2.056330 1_554
B3 Fe2 2.056335 1_455
B3 Fe3 2.058348 1_555
B3 Fe0 2.058348 1_555
B3 Co0 2.104983 1_555
B3 Co4 2.121290 1_555
B3 Co5 2.121290 1_555
B3 La0 3.086667 1_565
B4 Fe0 2.056330 1_545
B4 Fe5 2.056335 1_455
B4 Fe4 2.058348 1_555
B4 Fe1 2.058348 1_555
B4 Co1 2.104983 1_555
B4 Co5 2.121290 1_555
B4 Co3 2.121290 1_555
B4 La0 3.086668 1_556
B5 Fe3 2.056330 1_545
B5 Fe1 2.056330 1_554
B5 Fe2 2.058346 1_555
B5 Fe5 2.058346 1_555
B5 Co2 2.104983 1_555
B5 Co4 2.121290 1_555
B5 Co3 2.121290 1_555
B5 La0 3.086667 1_655
