# generated using pymatgen
data_Ho5B2(O2F3)3
_symmetry_space_group_name_H-M   'P 1'
_cell_length_a   10.68581279
_cell_length_b   10.68581279
_cell_length_c   8.26238315
_cell_angle_alpha   80.32536347
_cell_angle_beta   80.32536347
_cell_angle_gamma   33.14927410
_symmetry_Int_Tables_number   1
_chemical_formula_structural   Ho5B2(O2F3)3
_chemical_formula_sum   'Ho10 B4 O12 F18'
_cell_volume   507.90901972
_cell_formula_units_Z   2
loop_
 _symmetry_equiv_pos_site_id
 _symmetry_equiv_pos_as_xyz
  1  'x, y, z'
loop_
 _atom_site_type_symbol
 _atom_site_label
 _atom_site_symmetry_multiplicity
 _atom_site_fract_x
 _atom_site_fract_y
 _atom_site_fract_z
 _atom_site_occupancy
  Ho  Ho0  1  0.81360600  0.57447400  0.68076300  1
  Ho  Ho1  1  0.42552600  0.18639400  0.81923700  1
  Ho  Ho2  1  0.18639400  0.42552600  0.31923700  1
  Ho  Ho3  1  0.57447400  0.81360600  0.18076300  1
  Ho  Ho4  1  0.99920100  0.22055300  0.09449600  1
  Ho  Ho5  1  0.77944700  0.00079900  0.40550400  1
  Ho  Ho6  1  0.00079900  0.77944700  0.90550400  1
  Ho  Ho7  1  0.22055300  0.99920100  0.59449600  1
  Ho  Ho8  1  0.61042600  0.38957400  0.75000000  1
  Ho  Ho9  1  0.38957400  0.61042600  0.25000000  1
  B  B0  1  0.51642200  0.70699400  0.93779400  1
  B  B1  1  0.29300600  0.48357800  0.56220600  1
  B  B2  1  0.48357800  0.29300600  0.06220600  1
  B  B3  1  0.70699400  0.51642200  0.43779400  1
  O  O0  1  0.35241400  0.83084800  0.06535300  1
  O  O1  1  0.16915200  0.64758600  0.43464700  1
  O  O2  1  0.64758600  0.16915200  0.93464700  1
  O  O3  1  0.83084800  0.35241400  0.56535300  1
  O  O4  1  0.72020600  0.59768900  0.96162800  1
  O  O5  1  0.40231100  0.27979400  0.53837200  1
  O  O6  1  0.27979400  0.40231100  0.03837200  1
  O  O7  1  0.59768900  0.72020600  0.46162800  1
  O  O8  1  0.69606500  0.48978000  0.28452700  1
  O  O9  1  0.51022000  0.30393500  0.21547300  1
  O  O10  1  0.30393500  0.51022000  0.71547300  1
  O  O11  1  0.48978000  0.69606500  0.78452700  1
  F  F0  1  0.13526700  0.28664400  0.52032000  1
  F  F1  1  0.71335600  0.86473300  0.97968000  1
  F  F2  1  0.86473300  0.71335600  0.47968000  1
  F  F3  1  0.28664400  0.13526700  0.02032000  1
  F  F4  1  0.05614700  0.20759700  0.81485300  1
  F  F5  1  0.79240300  0.94385300  0.68514700  1
  F  F6  1  0.94385300  0.79240300  0.18514700  1
  F  F7  1  0.20759700  0.05614700  0.31485300  1
  F  F8  1  0.98380100  0.01619900  0.75000000  1
  F  F9  1  0.01619900  0.98380100  0.25000000  1
  F  F10  1  0.50292100  0.94661600  0.71411200  1
  F  F11  1  0.05338400  0.49707900  0.78588800  1
  F  F12  1  0.49707900  0.05338400  0.28588800  1
  F  F13  1  0.94661600  0.50292100  0.21411200  1
  F  F14  1  0.71469100  0.34813000  0.01510200  1
  F  F15  1  0.65187000  0.28530900  0.48489800  1
  F  F16  1  0.28530900  0.65187000  0.98489800  1
  F  F17  1  0.34813000  0.71469100  0.51510200  1
loop_
_geom_bond_atom_site_label_1
_geom_bond_atom_site_label_2
_geom_bond_distance
_geom_bond_site_symmetry_2
Ho0 O4 2.333099 1_555
Ho0 O7 2.338075 1_555
Ho0 O11 2.499178 1_555
Ho0 O3 2.557972 1_555
Ho1 O5 2.333099 1_555
Ho1 O6 2.338075 1_556
Ho1 O10 2.499178 1_555
Ho1 O2 2.557972 1_555
Ho2 O6 2.333099 1_555
Ho2 O5 2.338075 1_555
Ho2 O9 2.499178 1_555
Ho2 O1 2.557972 1_555
Ho3 O7 2.333099 1_555
Ho3 O4 2.338075 1_554
Ho3 O8 2.499178 1_555
Ho3 O0 2.557972 1_555
Ho4 O0 2.314678 1_645
Ho4 O8 2.332100 1_555
Ho4 O4 2.414294 1_554
Ho5 O1 2.314678 1_645
Ho5 O9 2.332100 1_555
Ho5 O5 2.414294 1_555
Ho6 O2 2.314678 1_465
Ho6 O10 2.332100 1_555
Ho6 O6 2.414294 1_556
Ho7 O3 2.314678 1_465
Ho7 O11 2.332100 1_555
Ho7 O7 2.414294 1_555
Ho8 O2 2.337254 1_555
Ho8 O3 2.337254 1_555
Ho8 O10 2.364312 1_555
Ho8 O11 2.364312 1_555
Ho9 O0 2.337254 1_555
Ho9 O1 2.337254 1_555
Ho9 O9 2.364312 1_555
Ho9 O8 2.364312 1_555
B0 O0 1.377643 1_556
B0 O11 1.387402 1_555
B0 O4 1.397414 1_555
B1 O1 1.377643 1_555
B1 O10 1.387402 1_555
B1 O5 1.397414 1_555
B2 O2 1.377643 1_554
B2 O9 1.387402 1_555
B2 O6 1.397414 1_555
B3 O3 1.377643 1_555
B3 O8 1.387402 1_555
B3 O7 1.397414 1_555
F0 Ho0 2.273344 1_455
F0 Ho2 2.342037 1_555
F0 Ho7 2.346980 1_545
F1 Ho1 2.273344 1_565
F1 Ho3 2.342037 1_556
F1 Ho6 2.346980 1_655
F2 Ho2 2.273344 1_655
F2 Ho0 2.342037 1_555
F2 Ho5 2.346980 1_565
F3 Ho3 2.273344 1_545
F3 Ho1 2.342037 1_554
F3 Ho4 2.346980 1_455
F4 Ho7 2.257633 1_545
F4 Ho4 2.285133 1_456
F4 Ho0 2.409414 1_455
F5 Ho6 2.257633 1_655
F5 Ho5 2.285133 1_565
F5 Ho1 2.409414 1_565
F6 Ho5 2.257633 1_565
F6 Ho6 2.285133 1_654
F6 Ho2 2.409414 1_655
F7 Ho4 2.257633 1_455
F7 Ho7 2.285133 1_545
F7 Ho3 2.409414 1_545
F8 Ho8 2.276302 1_555
F8 Ho7 2.510096 1_645
F8 Ho6 2.510096 1_645
F9 Ho9 2.276302 1_555
F9 Ho4 2.510096 1_465
F9 Ho5 2.510096 1_465
F10 Ho0 2.205754 1_555
F10 Ho1 2.227476 1_565
F11 Ho1 2.205754 1_555
F11 Ho0 2.227476 1_455
F12 Ho2 2.205754 1_555
F12 Ho3 2.227476 1_545
F13 Ho3 2.205754 1_555
F13 Ho2 2.227476 1_655
F14 Ho4 2.227402 1_555
F14 Ho8 2.429648 1_554
F14 Ho9 2.636111 1_555
F15 Ho5 2.227402 1_555
F15 Ho8 2.429648 1_555
F15 Ho9 2.636111 1_555
F16 Ho6 2.227402 1_555
F16 Ho9 2.429648 1_556
F16 Ho8 2.636111 1_555
F17 Ho7 2.227402 1_555
F17 Ho9 2.429648 1_555
F17 Ho8 2.636111 1_555
