# generated using pymatgen
data_Yb6P19Rh30
_symmetry_space_group_name_H-M   'P 1'
_cell_length_a   15.60594267
_cell_length_b   15.60594267
_cell_length_c   3.81322500
_cell_angle_alpha   90.00000000
_cell_angle_beta   90.00000000
_cell_angle_gamma   120.00000286
_symmetry_Int_Tables_number   1
_chemical_formula_structural   Yb6P19Rh30
_chemical_formula_sum   'Yb6 P19 Rh30'
_cell_volume   804.27221478
_cell_formula_units_Z   1
loop_
 _symmetry_equiv_pos_site_id
 _symmetry_equiv_pos_as_xyz
  1  'x, y, z'
loop_
 _atom_site_type_symbol
 _atom_site_label
 _atom_site_symmetry_multiplicity
 _atom_site_fract_x
 _atom_site_fract_y
 _atom_site_fract_z
 _atom_site_occupancy
  Yb  Yb0  1  0.09677400  0.70289600  0.25008400  1
  Yb  Yb1  1  0.60612300  0.90322600  0.25008400  1
  Yb  Yb2  1  0.29710400  0.39387700  0.25008400  1
  Yb  Yb3  1  0.90344500  0.29676100  0.75016600  1
  Yb  Yb4  1  0.39331600  0.09655500  0.75016600  1
  Yb  Yb5  1  0.70323900  0.60668400  0.75016600  1
  P  P0  1  0.37142600  0.93904300  0.24945100  1
  P  P1  1  0.56761700  0.62857400  0.24945100  1
  P  P2  1  0.06095700  0.43238300  0.24945100  1
  P  P3  1  0.62879200  0.06106400  0.75023200  1
  P  P4  1  0.43227300  0.37120800  0.75023200  1
  P  P5  1  0.93893600  0.56772700  0.75023200  1
  P  P6  1  0.76932500  0.31723000  0.25027400  1
  P  P7  1  0.54790500  0.23067500  0.25027400  1
  P  P8  1  0.68277000  0.45209500  0.25027400  1
  P  P9  1  0.23092300  0.68279300  0.74970500  1
  P  P10  1  0.45187000  0.76907700  0.74970500  1
  P  P11  1  0.31720700  0.54813000  0.74970500  1
  P  P12  1  0.25743200  0.11622400  0.24727100  1
  P  P13  1  0.85879100  0.74256800  0.24727100  1
  P  P14  1  0.88377600  0.14120900  0.24727100  1
  P  P15  1  0.74281200  0.88303600  0.75180800  1
  P  P16  1  0.14022400  0.25718800  0.75180800  1
  P  P17  1  0.11696400  0.85977600  0.75180800  1
  P  P18  1  0.00000000  0.00000000  0.41880200  1
  Rh  Rh0  1  0.23018300  0.95308400  0.24743200  1
  Rh  Rh1  1  0.72290100  0.76981700  0.24743200  1
  Rh  Rh2  1  0.04691600  0.27709900  0.24743200  1
  Rh  Rh3  1  0.76909400  0.04690400  0.75182400  1
  Rh  Rh4  1  0.27781100  0.23090600  0.75182400  1
  Rh  Rh5  1  0.95309600  0.72218900  0.75182400  1
  Rh  Rh6  1  0.22359600  0.57140100  0.24966600  1
  Rh  Rh7  1  0.34780500  0.77640400  0.24966600  1
  Rh  Rh8  1  0.42859900  0.65219500  0.24966600  1
  Rh  Rh9  1  0.77583700  0.42782000  0.75072200  1
  Rh  Rh10  1  0.65198400  0.22416300  0.75072200  1
  Rh  Rh11  1  0.57218000  0.34801600  0.75072200  1
  Rh  Rh12  1  0.92578200  0.46056400  0.25092000  1
  Rh  Rh13  1  0.53478100  0.07421800  0.25092000  1
  Rh  Rh14  1  0.53943600  0.46521900  0.25092000  1
  Rh  Rh15  1  0.07418700  0.53984700  0.74898600  1
  Rh  Rh16  1  0.46565900  0.92581300  0.74898600  1
  Rh  Rh17  1  0.46015300  0.53434100  0.74898600  1
  Rh  Rh18  1  0.02383700  0.87186400  0.25154100  1
  Rh  Rh19  1  0.84802700  0.97616300  0.25154100  1
  Rh  Rh20  1  0.12813600  0.15197300  0.25154100  1
  Rh  Rh21  1  0.97628200  0.12486800  0.74532400  1
  Rh  Rh22  1  0.14858600  0.02371800  0.74532400  1
  Rh  Rh23  1  0.87513200  0.85141400  0.74532400  1
  Rh  Rh24  1  0.41562900  0.25940000  0.25014700  1
  Rh  Rh25  1  0.84377100  0.58437100  0.25014700  1
  Rh  Rh26  1  0.74060000  0.15622900  0.25014700  1
  Rh  Rh27  1  0.58426400  0.74049300  0.74984600  1
  Rh  Rh28  1  0.15622900  0.41573600  0.74984600  1
  Rh  Rh29  1  0.25950700  0.84377100  0.74984600  1
loop_
_geom_bond_atom_site_label_1
_geom_bond_atom_site_label_2
_geom_bond_distance
_geom_bond_site_symmetry_2
P0 Rh0 2.321573 1_555
P0 Rh13 2.360357 1_565
P0 Rh7 2.375371 1_555
P0 Rh16 2.477361 1_555
P0 Rh16 2.480089 1_554
P0 Rh29 2.508742 1_554
P0 Rh29 2.511030 1_555
P0 Yb4 2.990673 1_564
P0 Yb4 2.994147 1_565
P1 Rh1 2.321573 1_555
P1 Rh14 2.360352 1_555
P1 Rh8 2.375371 1_555
P1 Rh17 2.477367 1_555
P1 Rh17 2.480095 1_554
P1 Rh27 2.508742 1_554
P1 Rh27 2.511030 1_555
P1 Yb5 2.990673 1_554
P1 Yb5 2.994147 1_555
P2 Rh2 2.321573 1_555
P2 Rh12 2.360367 1_455
P2 Rh6 2.375371 1_555
P2 Rh15 2.477371 1_555
P2 Rh15 2.480099 1_554
P2 Rh28 2.508742 1_554
P2 Rh28 2.511030 1_555
P2 Yb3 2.990673 1_454
P2 Yb3 2.994147 1_455
P3 Rh3 2.307991 1_555
P3 Rh16 2.358584 1_545
P3 Rh10 2.385034 1_555
P3 Rh13 2.474057 1_555
P3 Rh13 2.478097 1_556
P3 Rh26 2.508539 1_556
P3 Rh26 2.509032 1_555
P3 Yb1 2.992352 1_546
P3 Yb1 2.993071 1_545
P4 Rh4 2.307991 1_555
P4 Rh17 2.358595 1_555
P4 Rh11 2.385034 1_555
P4 Rh14 2.474045 1_555
P4 Rh14 2.478086 1_556
P4 Rh24 2.508535 1_556
P4 Rh24 2.509028 1_555
P4 Yb2 2.992352 1_556
P4 Yb2 2.993071 1_555
P5 Rh5 2.307991 1_555
P5 Rh15 2.358564 1_655
P5 Rh9 2.385034 1_555
P5 Rh12 2.474037 1_555
P5 Rh12 2.478078 1_556
P5 Rh25 2.508545 1_556
P5 Rh25 2.509038 1_555
P5 Yb0 2.992352 1_656
P5 Yb0 2.993071 1_655
P6 Rh26 2.321129 1_555
P6 Rh12 2.345976 1_555
P6 Rh10 2.536103 1_554
P6 Rh9 2.538147 1_554
P6 Rh10 2.538671 1_555
P6 Rh9 2.540713 1_555
P6 Yb3 2.963981 1_555
P6 Yb3 2.964511 1_554
P7 Rh24 2.321129 1_555
P7 Rh13 2.345969 1_555
P7 Rh11 2.536100 1_554
P7 Rh10 2.538158 1_554
P7 Rh11 2.538667 1_555
P7 Rh10 2.540723 1_555
P7 Yb4 2.963981 1_555
P7 Yb4 2.964511 1_554
P8 Rh25 2.321129 1_555
P8 Rh14 2.345985 1_555
P8 Rh9 2.536110 1_554
P8 Rh11 2.538152 1_554
P8 Rh9 2.538677 1_555
P8 Rh11 2.540717 1_555
P8 Yb5 2.963981 1_555
P8 Yb5 2.964511 1_554
P9 Rh29 2.321542 1_555
P9 Rh15 2.345827 1_555
P9 Rh7 2.535987 1_556
P9 Rh7 2.536211 1_555
P9 Rh6 2.543788 1_556
P9 Rh6 2.544011 1_555
P9 Yb0 2.961032 1_555
P9 Yb0 2.962893 1_556
P10 Rh27 2.321542 1_555
P10 Rh16 2.345834 1_555
P10 Rh8 2.535987 1_556
P10 Rh8 2.536211 1_555
P10 Rh7 2.543788 1_556
P10 Rh7 2.544011 1_555
P10 Yb1 2.961039 1_555
P10 Yb1 2.962900 1_556
P11 Rh28 2.321542 1_555
P11 Rh17 2.345818 1_555
P11 Rh6 2.535987 1_556
P11 Rh6 2.536211 1_555
P11 Rh8 2.543788 1_556
P11 Rh8 2.544011 1_555
P11 Yb2 2.961044 1_555
P11 Yb2 2.962905 1_556
P12 Rh20 2.347060 1_555
P12 Rh24 2.360377 1_555
P12 Rh0 2.362214 1_545
P12 Rh22 2.474708 1_555
P12 Rh22 2.486121 1_554
P12 Rh4 2.510841 1_554
P12 Rh4 2.537071 1_555
P12 Yb4 2.972420 1_554
P12 Yb4 2.986548 1_555
P13 Rh18 2.347070 1_655
P13 Rh25 2.360384 1_555
P13 Rh1 2.362199 1_555
P13 Rh23 2.474704 1_555
P13 Rh23 2.486118 1_554
P13 Rh5 2.510861 1_554
P13 Rh5 2.537091 1_555
P13 Yb5 2.972412 1_554
P13 Yb5 2.986541 1_555
P14 Rh19 2.347075 1_545
P14 Rh26 2.360368 1_555
P14 Rh2 2.362209 1_655
P14 Rh21 2.474714 1_555
P14 Rh21 2.486127 1_554
P14 Rh3 2.510848 1_554
P14 Rh3 2.537078 1_555
P14 Yb3 2.972408 1_554
P14 Yb3 2.986536 1_555
P15 Rh23 2.351027 1_555
P15 Rh27 2.359353 1_555
P15 Rh3 2.378905 1_565
P15 Rh19 2.460330 1_556
P15 Rh19 2.461907 1_555
P15 Rh1 2.498248 1_556
P15 Rh1 2.523590 1_555
P15 Yb1 2.988632 1_556
P15 Yb1 2.997008 1_555
P16 Rh21 2.351027 1_455
P16 Rh28 2.359353 1_555
P16 Rh4 2.378920 1_555
P16 Rh20 2.460330 1_556
P16 Rh20 2.461907 1_555
P16 Rh2 2.498248 1_556
P16 Rh2 2.523590 1_555
P16 Yb2 2.988640 1_556
P16 Yb2 2.997016 1_555
P17 Rh22 2.351027 1_565
P17 Rh29 2.359353 1_555
P17 Rh5 2.378911 1_455
P17 Rh18 2.460330 1_556
P17 Rh18 2.461907 1_555
P17 Rh0 2.498248 1_556
P17 Rh0 2.523590 1_555
P17 Yb0 2.988644 1_556
P17 Yb0 2.997020 1_555
P18 Rh20 2.299519 1_555
P18 Rh19 2.299519 1_445
P18 Rh18 2.299519 1_545
P18 Rh23 2.491172 1_445
P18 Rh22 2.491172 1_555
P18 Rh21 2.491172 1_455
Rh0 Yb4 3.064282 1_564
Rh0 Yb4 3.077228 1_565
Rh1 Yb5 3.064282 1_554
Rh1 Yb5 3.077228 1_555
Rh2 Yb3 3.064282 1_454
Rh2 Yb3 3.077228 1_455
Rh3 Yb1 3.066475 1_546
Rh3 Yb1 3.074714 1_545
Rh4 Yb2 3.066475 1_556
Rh4 Yb2 3.074715 1_555
Rh5 Yb0 3.066475 1_656
Rh5 Yb0 3.074715 1_655
Rh12 Yb3 3.064197 1_555
Rh12 Yb3 3.067773 1_554
Rh13 Yb4 3.064185 1_555
Rh13 Yb4 3.067760 1_554
Rh14 Yb5 3.064192 1_555
Rh14 Yb5 3.067768 1_554
Rh15 Yb0 3.053064 1_555
Rh15 Yb0 3.058288 1_556
Rh16 Yb1 3.053088 1_555
Rh16 Yb1 3.058313 1_556
Rh17 Yb2 3.053073 1_555
Rh17 Yb2 3.058298 1_556
Rh24 Yb4 3.054451 1_554
Rh24 Yb4 3.054541 1_555
Rh25 Yb5 3.054451 1_554
Rh25 Yb5 3.054541 1_555
Rh26 Yb3 3.054451 1_554
Rh26 Yb3 3.054541 1_555
Rh27 Yb1 3.054722 1_555
Rh27 Yb1 3.055854 1_556
Rh28 Yb2 3.054734 1_555
Rh28 Yb2 3.055866 1_556
Rh29 Yb0 3.054726 1_555
Rh29 Yb0 3.055859 1_556
