# generated using pymatgen
data_CsMg14CrO16
_symmetry_space_group_name_H-M   'P 1'
_cell_length_a   4.44249800
_cell_length_b   8.78493400
_cell_length_c   8.82437400
_cell_angle_alpha   90.00000000
_cell_angle_beta   90.00000000
_cell_angle_gamma   90.00000000
_symmetry_Int_Tables_number   1
_chemical_formula_structural   CsMg14CrO16
_chemical_formula_sum   'Cs1 Mg14 Cr1 O16'
_cell_volume   344.38930054
_cell_formula_units_Z   1
loop_
 _symmetry_equiv_pos_site_id
 _symmetry_equiv_pos_as_xyz
  1  'x, y, z'
loop_
 _atom_site_type_symbol
 _atom_site_label
 _atom_site_symmetry_multiplicity
 _atom_site_fract_x
 _atom_site_fract_y
 _atom_site_fract_z
 _atom_site_occupancy
  Cs  Cs0  1  0.00000000  0.00000000  0.00000000  1
  Mg  Mg0  1  0.00000000  0.50000000  0.00000000  1
  Mg  Mg1  1  0.00000000  0.50000000  0.50000000  1
  Mg  Mg2  1  0.50000000  0.00000000  0.26015200  1
  Mg  Mg3  1  0.50000000  0.00000000  0.73984800  1
  Mg  Mg4  1  0.50000000  0.50000000  0.25098400  1
  Mg  Mg5  1  0.50000000  0.50000000  0.74901600  1
  Mg  Mg6  1  0.50000000  0.26395800  0.00000000  1
  Mg  Mg7  1  0.50000000  0.25187800  0.50000000  1
  Mg  Mg8  1  0.50000000  0.73604200  0.00000000  1
  Mg  Mg9  1  0.50000000  0.74812200  0.50000000  1
  Mg  Mg10  1  0.00000000  0.25695100  0.25204000  1
  Mg  Mg11  1  0.00000000  0.25695100  0.74796000  1
  Mg  Mg12  1  0.00000000  0.74304900  0.25204000  1
  Mg  Mg13  1  0.00000000  0.74304900  0.74796000  1
  Cr  Cr0  1  0.00000000  0.00000000  0.50000000  1
  O  O0  1  0.00000000  0.28567600  0.00000000  1
  O  O1  1  0.00000000  0.24913100  0.50000000  1
  O  O2  1  0.00000000  0.71432400  0.00000000  1
  O  O3  1  0.00000000  0.75086900  0.50000000  1
  O  O4  1  0.50000000  0.24893000  0.24999700  1
  O  O5  1  0.50000000  0.24893000  0.75000300  1
  O  O6  1  0.50000000  0.75107000  0.24999700  1
  O  O7  1  0.50000000  0.75107000  0.75000300  1
  O  O8  1  0.50000000  0.00000000  0.00000000  1
  O  O9  1  0.50000000  0.00000000  0.50000000  1
  O  O10  1  0.50000000  0.50000000  0.00000000  1
  O  O11  1  0.50000000  0.50000000  0.50000000  1
  O  O12  1  0.00000000  0.00000000  0.28268600  1
  O  O13  1  0.00000000  0.00000000  0.71731400  1
  O  O14  1  0.00000000  0.50000000  0.26141300  1
  O  O15  1  0.00000000  0.50000000  0.73858700  1
loop_
_geom_bond_atom_site_label_1
_geom_bond_atom_site_label_2
_geom_bond_distance
_geom_bond_site_symmetry_2
Cs0 O8 2.221249 1_555
Cs0 O8 2.221249 1_455
Cs0 O13 2.494527 1_554
Cs0 O12 2.494527 1_555
Cs0 O0 2.509645 1_555
Cs0 O2 2.509645 1_545
Mg0 O2 1.882822 1_555
Mg0 O0 1.882822 1_555
Mg0 O10 2.221249 1_455
Mg0 O10 2.221249 1_555
Mg0 O14 2.306806 1_555
Mg0 O15 2.306806 1_554
Mg1 O14 2.105381 1_555
Mg1 O15 2.105381 1_555
Mg1 O1 2.203868 1_555
Mg1 O3 2.203868 1_555
Mg1 O11 2.221249 1_555
Mg1 O11 2.221249 1_455
Mg2 O9 2.116508 1_555
Mg2 O4 2.188669 1_555
Mg2 O6 2.188669 1_545
Mg2 O12 2.230132 1_655
Mg2 O12 2.230132 1_555
Mg2 O8 2.295679 1_555
Mg3 O9 2.116508 1_555
Mg3 O5 2.188669 1_555
Mg3 O7 2.188669 1_545
Mg3 O13 2.230132 1_655
Mg3 O13 2.230132 1_555
Mg3 O8 2.295679 1_556
Mg4 O11 2.197410 1_555
Mg4 O4 2.205651 1_555
Mg4 O6 2.205651 1_555
Mg4 O10 2.214777 1_555
Mg4 O14 2.223155 1_555
Mg4 O14 2.223155 1_655
Mg5 O11 2.197410 1_555
Mg5 O5 2.205651 1_555
Mg5 O7 2.205651 1_555
Mg5 O10 2.214777 1_556
Mg5 O15 2.223155 1_555
Mg5 O15 2.223155 1_655
Mg6 O10 2.073613 1_555
Mg6 O4 2.210014 1_555
Mg6 O5 2.210014 1_554
Mg6 O0 2.229428 1_555
Mg6 O0 2.229428 1_655
Mg6 O8 2.318854 1_555
Mg7 O11 2.179735 1_555
Mg7 O4 2.206272 1_555
Mg7 O5 2.206272 1_555
Mg7 O9 2.212732 1_555
Mg7 O1 2.221380 1_655
Mg7 O1 2.221380 1_555
Mg8 O10 2.073613 1_555
Mg8 O7 2.210014 1_554
Mg8 O6 2.210014 1_555
Mg8 O2 2.229428 1_655
Mg8 O2 2.229428 1_555
Mg8 O8 2.318854 1_565
Mg9 O11 2.179735 1_555
Mg9 O7 2.206272 1_555
Mg9 O6 2.206272 1_555
Mg9 O9 2.212732 1_565
Mg9 O3 2.221380 1_655
Mg9 O3 2.221380 1_555
Mg10 O14 2.136771 1_555
Mg10 O1 2.189170 1_555
Mg10 O4 2.222439 1_455
Mg10 O4 2.222439 1_555
Mg10 O0 2.238365 1_555
Mg10 O12 2.273439 1_555
Mg11 O15 2.136771 1_555
Mg11 O1 2.189170 1_555
Mg11 O5 2.222439 1_555
Mg11 O5 2.222439 1_455
Mg11 O0 2.238365 1_556
Mg11 O13 2.273439 1_555
Mg12 O14 2.136771 1_555
Mg12 O3 2.189170 1_555
Mg12 O6 2.222439 1_455
Mg12 O6 2.222439 1_555
Mg12 O2 2.238365 1_555
Mg12 O12 2.273439 1_565
Mg13 O15 2.136771 1_555
Mg13 O3 2.189170 1_555
Mg13 O7 2.222439 1_555
Mg13 O7 2.222439 1_455
Mg13 O2 2.238365 1_556
Mg13 O13 2.273439 1_565
Cr0 O12 1.917660 1_555
Cr0 O13 1.917660 1_555
Cr0 O1 2.188599 1_555
Cr0 O3 2.188599 1_545
Cr0 O9 2.221249 1_455
Cr0 O9 2.221249 1_555
