# generated using pymatgen
data_CsMg6BO7
_symmetry_space_group_name_H-M   'P 1'
_cell_length_a   4.87620800
_cell_length_b   4.87620800
_cell_length_c   7.93108800
_cell_angle_alpha   90.00000000
_cell_angle_beta   90.00000000
_cell_angle_gamma   90.00000000
_symmetry_Int_Tables_number   1
_chemical_formula_structural   CsMg6BO7
_chemical_formula_sum   'Cs1 Mg6 B1 O7'
_cell_volume   188.58068718
_cell_formula_units_Z   1
loop_
 _symmetry_equiv_pos_site_id
 _symmetry_equiv_pos_as_xyz
  1  'x, y, z'
loop_
 _atom_site_type_symbol
 _atom_site_label
 _atom_site_symmetry_multiplicity
 _atom_site_fract_x
 _atom_site_fract_y
 _atom_site_fract_z
 _atom_site_occupancy
  Cs  Cs0  1  0.00000000  0.00000000  0.07790100  1
  Mg  Mg0  1  0.50000000  0.50000000  0.99351200  1
  Mg  Mg1  1  0.50000000  0.50000000  0.50035500  1
  Mg  Mg2  1  0.00000000  0.50000000  0.26441400  1
  Mg  Mg3  1  0.00000000  0.50000000  0.74132200  1
  Mg  Mg4  1  0.50000000  0.00000000  0.26441400  1
  Mg  Mg5  1  0.50000000  0.00000000  0.74132200  1
  B  B0  1  0.00000000  0.00000000  0.50898800  1
  O  O0  1  0.00000000  0.00000000  0.67966600  1
  O  O1  1  0.50000000  0.50000000  0.24549000  1
  O  O2  1  0.50000000  0.50000000  0.74812300  1
  O  O3  1  0.00000000  0.50000000  0.99204600  1
  O  O4  1  0.00000000  0.50000000  0.50020000  1
  O  O5  1  0.50000000  0.00000000  0.99204600  1
  O  O6  1  0.50000000  0.00000000  0.50020000  1
loop_
_geom_bond_atom_site_label_1
_geom_bond_atom_site_label_2
_geom_bond_distance
_geom_bond_site_symmetry_2
Cs0 O3 2.531404 1_544
Cs0 O3 2.531404 1_554
Cs0 O5 2.531404 1_454
Cs0 O5 2.531404 1_554
Mg0 O2 1.946202 1_555
Mg0 O1 1.998460 1_556
Mg0 O5 2.438132 1_555
Mg0 O5 2.438132 1_565
Mg0 O3 2.438132 1_555
Mg0 O3 2.438132 1_655
Mg1 O2 1.965070 1_555
Mg1 O1 2.021357 1_555
Mg1 O6 2.438104 1_555
Mg1 O6 2.438104 1_565
Mg1 O4 2.438104 1_555
Mg1 O4 2.438104 1_655
Mg2 O4 1.870040 1_555
Mg2 O3 2.160175 1_554
Mg2 O1 2.442719 1_555
Mg2 O1 2.442719 1_455
Mg3 O4 1.912360 1_555
Mg3 O3 1.988514 1_555
Mg3 O2 2.438701 1_455
Mg3 O2 2.438701 1_555
Mg3 O0 2.486659 1_565
Mg3 O0 2.486659 1_555
Mg4 O6 1.870040 1_555
Mg4 O5 2.160175 1_554
Mg4 O1 2.442719 1_545
Mg4 O1 2.442719 1_555
Mg5 O6 1.912360 1_555
Mg5 O5 1.988514 1_555
Mg5 O2 2.438701 1_545
Mg5 O2 2.438701 1_555
Mg5 O0 2.486659 1_555
Mg5 O0 2.486659 1_655
B0 O0 1.353662 1_555
