# generated using pymatgen
data_KCN
_symmetry_space_group_name_H-M   'P 1'
_cell_length_a   4.49356052
_cell_length_b   4.49356052
_cell_length_c   8.21991542
_cell_angle_alpha   73.92917851
_cell_angle_beta   73.92917851
_cell_angle_gamma   63.08609920
_symmetry_Int_Tables_number   1
_chemical_formula_structural   KCN
_chemical_formula_sum   'K2 C2 N2'
_cell_volume   139.97480141
_cell_formula_units_Z   2
loop_
 _symmetry_equiv_pos_site_id
 _symmetry_equiv_pos_as_xyz
  1  'x, y, z'
loop_
 _atom_site_type_symbol
 _atom_site_label
 _atom_site_symmetry_multiplicity
 _atom_site_fract_x
 _atom_site_fract_y
 _atom_site_fract_z
 _atom_site_occupancy
  K  K0  1  0.45431300  0.06662400  0.45881400  1
  K  K1  1  0.06662400  0.45431300  0.95881400  1
  C  C0  1  0.68483900  0.37179100  0.66831700  1
  C  C1  1  0.37179100  0.68483900  0.16831700  1
  N  N0  1  0.83150600  0.14492700  0.76987000  1
  N  N1  1  0.14492700  0.83150600  0.26987000  1
loop_
_geom_bond_atom_site_label_1
_geom_bond_atom_site_label_2
_geom_bond_distance
_geom_bond_site_symmetry_2
K0 N1 2.903569 1_645
K0 N1 2.982411 1_545
K0 N1 3.173697 1_555
K0 N0 3.184097 1_455
K1 N0 2.903569 1_465
K1 N0 2.982411 1_455
K1 N0 3.173697 1_555
K1 N1 3.184097 1_546
C0 N0 1.181364 1_555
C0 K0 2.978253 1_565
C0 K1 3.072726 1_555
C0 K0 3.082233 1_555
C0 K0 3.243435 1_655
C1 N1 1.181364 1_555
C1 K1 2.978253 1_654
C1 K0 3.072726 1_555
C1 K1 3.082233 1_554
C1 K1 3.243435 1_564
