# generated using pymatgen
data_K2Cd3S4
_symmetry_space_group_name_H-M   'P 1'
_cell_length_a   6.69169436
_cell_length_b   10.25889640
_cell_length_c   13.90818541
_cell_angle_alpha   90.00000000
_cell_angle_beta   90.00000000
_cell_angle_gamma   90.00000000
_symmetry_Int_Tables_number   1
_chemical_formula_structural   K2Cd3S4
_chemical_formula_sum   'K8 Cd12 S16'
_cell_volume   954.78857208
_cell_formula_units_Z   4
loop_
 _symmetry_equiv_pos_site_id
 _symmetry_equiv_pos_as_xyz
  1  'x, y, z'
loop_
 _atom_site_type_symbol
 _atom_site_label
 _atom_site_symmetry_multiplicity
 _atom_site_fract_x
 _atom_site_fract_y
 _atom_site_fract_z
 _atom_site_occupancy
  K  K0  1  0.01657635  0.25000000  0.53088427  1
  K  K1  1  0.51657635  0.75000000  0.96911573  1
  K  K2  1  0.98342365  0.75000000  0.46911573  1
  K  K3  1  0.48342365  0.25000000  0.03088427  1
  K  K4  1  0.00000000  0.00000000  -0.00000000  1
  K  K5  1  0.50000000  0.50000000  0.50000000  1
  K  K6  1  0.00000000  0.50000000  -0.00000000  1
  K  K7  1  0.50000000  0.00000000  0.50000000  1
  Cd  Cd0  1  0.34531690  0.09205994  0.74841290  1
  Cd  Cd1  1  0.84531690  0.90794006  0.75158710  1
  Cd  Cd2  1  0.65468310  0.59205994  0.25158710  1
  Cd  Cd3  1  0.15468310  0.40794006  0.24841290  1
  Cd  Cd4  1  0.65468310  0.90794006  0.25158710  1
  Cd  Cd5  1  0.15468310  0.09205994  0.24841290  1
  Cd  Cd6  1  0.34531690  0.40794006  0.74841290  1
  Cd  Cd7  1  0.84531690  0.59205994  0.75158710  1
  Cd  Cd8  1  0.71467238  0.25000000  0.29600371  1
  Cd  Cd9  1  0.21467238  0.75000000  0.20399629  1
  Cd  Cd10  1  0.28532762  0.75000000  0.70399629  1
  Cd  Cd11  1  0.78532762  0.25000000  0.79600371  1
  S  S0  1  0.62485855  0.03229657  0.86517399  1
  S  S1  1  0.12485855  0.96770343  0.63482601  1
  S  S2  1  0.37514145  0.53229657  0.13482601  1
  S  S3  1  0.87514145  0.46770343  0.36517399  1
  S  S4  1  0.37514145  0.96770343  0.13482601  1
  S  S5  1  0.87514145  0.03229657  0.36517399  1
  S  S6  1  0.62485855  0.46770343  0.86517399  1
  S  S7  1  0.12485855  0.53229657  0.63482601  1
  S  S8  1  0.92464056  0.25000000  0.14199110  1
  S  S9  1  0.42464056  0.75000000  0.35800890  1
  S  S10  1  0.07535944  0.75000000  0.85800890  1
  S  S11  1  0.57535944  0.25000000  0.64199110  1
  S  S12  1  0.86196444  0.75000000  0.14522416  1
  S  S13  1  0.63803556  0.75000000  0.64522416  1
  S  S14  1  0.13803556  0.25000000  0.85477584  1
  S  S15  1  0.36196444  0.25000000  0.35477584  1
loop_
_geom_bond_atom_site_label_1
_geom_bond_atom_site_label_2
_geom_bond_distance
_geom_bond_site_symmetry_2
K0 S1 3.316930 1_545
K0 S7 3.316930 1_555
K0 S11 3.332435 1_455
K0 S5 3.345981 1_455
K0 S3 3.345981 1_455
K0 S15 3.367655 1_555
K1 S6 3.316930 1_555
K1 S0 3.316930 1_565
K1 S10 3.332435 1_555
K1 S2 3.345981 1_556
K1 S4 3.345981 1_556
K1 S12 3.367655 1_556
K2 S5 3.316930 1_565
K2 S3 3.316930 1_555
K2 S9 3.332435 1_655
K2 S1 3.345981 1_655
K2 S7 3.345981 1_655
K2 S13 3.367655 1_555
K3 S2 3.316930 1_555
K3 S4 3.316930 1_545
K3 S8 3.332435 1_555
K3 S0 3.345981 1_554
K3 S6 3.345981 1_554
K3 S14 3.367655 1_554
K4 S0 3.150851 1_454
K4 S4 3.150851 1_545
K4 S8 3.275988 1_455
K4 S10 3.275988 1_544
K4 S12 3.392731 1_445
K4 S14 3.392731 1_554
K5 S3 3.150851 1_555
K5 S7 3.150851 1_555
K5 S11 3.275988 1_555
K5 S9 3.275988 1_555
K5 S15 3.392731 1_555
K5 S13 3.392731 1_555
K6 S6 3.150851 1_454
K6 S2 3.150851 1_555
K6 S8 3.275988 1_455
K6 S10 3.275988 1_554
K6 S12 3.392731 1_455
K6 S14 3.392731 1_554
K7 S5 3.150851 1_555
K7 S1 3.150851 1_545
K7 S11 3.275988 1_555
K7 S9 3.275988 1_545
K7 S15 3.392731 1_555
K7 S13 3.392731 1_545
Cd0 S1 2.509906 1_545
Cd0 S0 2.551908 1_555
Cd0 S14 2.595701 1_555
Cd0 S11 2.680637 1_555
Cd1 S0 2.509906 1_565
Cd1 S1 2.551908 1_655
Cd1 S13 2.595701 1_555
Cd1 S10 2.680637 1_655
Cd2 S3 2.509906 1_555
Cd2 S2 2.551908 1_555
Cd2 S12 2.595701 1_555
Cd2 S9 2.680637 1_555
Cd3 S2 2.509906 1_555
Cd3 S3 2.551908 1_455
Cd3 S15 2.595701 1_555
Cd3 S8 2.680637 1_455
Cd4 S5 2.509906 1_565
Cd4 S4 2.551908 1_555
Cd4 S12 2.595701 1_555
Cd4 S9 2.680637 1_555
Cd5 S4 2.509906 1_545
Cd5 S5 2.551908 1_455
Cd5 S15 2.595701 1_555
Cd5 S8 2.680637 1_455
Cd6 S7 2.509906 1_555
Cd6 S6 2.551908 1_555
Cd6 S14 2.595701 1_555
Cd6 S11 2.680637 1_555
Cd7 S6 2.509906 1_555
Cd7 S7 2.551908 1_655
Cd7 S13 2.595701 1_555
Cd7 S10 2.680637 1_655
Cd8 S15 2.497754 1_555
Cd8 S8 2.561731 1_555
Cd8 S3 2.658315 1_555
Cd8 S5 2.658315 1_555
Cd9 S12 2.497754 1_455
Cd9 S9 2.561731 1_555
Cd9 S2 2.658315 1_555
Cd9 S4 2.658315 1_555
Cd10 S13 2.497754 1_555
Cd10 S10 2.561731 1_555
Cd10 S7 2.658315 1_555
Cd10 S1 2.658315 1_555
Cd11 S14 2.497754 1_655
Cd11 S11 2.561731 1_555
Cd11 S0 2.658315 1_555
Cd11 S6 2.658315 1_555
