# generated using pymatgen
data_CuSCl
_symmetry_space_group_name_H-M   'P 1'
_cell_length_a   11.67024100
_cell_length_b   7.90003400
_cell_length_c   9.21778840
_cell_angle_alpha   72.59836987
_cell_angle_beta   90.00000000
_cell_angle_gamma   90.00000000
_symmetry_Int_Tables_number   1
_chemical_formula_structural   CuSCl
_chemical_formula_sum   'Cu12 S12 Cl12'
_cell_volume   810.94129069
_cell_formula_units_Z   12
loop_
 _symmetry_equiv_pos_site_id
 _symmetry_equiv_pos_as_xyz
  1  'x, y, z'
loop_
 _atom_site_type_symbol
 _atom_site_label
 _atom_site_symmetry_multiplicity
 _atom_site_fract_x
 _atom_site_fract_y
 _atom_site_fract_z
 _atom_site_occupancy
  Cu  Cu0  1  0.38049200  0.10174200  0.91927200  1
  Cu  Cu1  1  0.88049200  0.89825800  0.08072800  1
  Cu  Cu2  1  0.61950800  0.89825800  0.08072800  1
  Cu  Cu3  1  0.11950800  0.10174200  0.91927200  1
  Cu  Cu4  1  0.37302800  0.41755600  0.55424100  1
  Cu  Cu5  1  0.87302800  0.58244400  0.44575900  1
  Cu  Cu6  1  0.62697200  0.58244400  0.44575900  1
  Cu  Cu7  1  0.12697200  0.41755600  0.55424100  1
  Cu  Cu8  1  0.25000000  0.85139300  0.80037100  1
  Cu  Cu9  1  0.75000000  0.14860700  0.19962900  1
  Cu  Cu10  1  0.25000000  0.16469300  0.43028900  1
  Cu  Cu11  1  0.75000000  0.83530700  0.56971100  1
  S  S0  1  0.12394400  0.97161500  0.60061500  1
  S  S1  1  0.53782100  0.85326400  0.31734100  1
  S  S2  1  0.03782100  0.14673600  0.68265900  1
  S  S3  1  0.62394400  0.02838500  0.39938500  1
  S  S4  1  0.46217900  0.14673600  0.68265900  1
  S  S5  1  0.37605600  0.97161500  0.60061500  1
  S  S6  1  0.87605600  0.02838500  0.39938500  1
  S  S7  1  0.33592700  0.40692100  0.80370800  1
  S  S8  1  0.83592700  0.59307900  0.19629200  1
  S  S9  1  0.66407300  0.59307900  0.19629200  1
  S  S10  1  0.16407300  0.40692100  0.80370800  1
  S  S11  1  0.96217900  0.85326400  0.31734100  1
  Cl  Cl0  1  0.39689300  0.36408500  0.32656600  1
  Cl  Cl1  1  0.10310700  0.36408500  0.32656600  1
  Cl  Cl2  1  0.60310700  0.63591500  0.67343400  1
  Cl  Cl3  1  0.25000000  0.65800200  0.46263400  1
  Cl  Cl4  1  0.75000000  0.34199800  0.53736600  1
  Cl  Cl5  1  0.89928100  0.20668500  0.02294900  1
  Cl  Cl6  1  0.75000000  0.90915200  0.89011100  1
  Cl  Cl7  1  0.10071900  0.79331500  0.97705100  1
  Cl  Cl8  1  0.60071900  0.20668500  0.02294900  1
  Cl  Cl9  1  0.25000000  0.09084800  0.10988900  1
  Cl  Cl10  1  0.89689300  0.63591500  0.67343400  1
  Cl  Cl11  1  0.39928100  0.79331500  0.97705100  1
loop_
_geom_bond_atom_site_label_1
_geom_bond_atom_site_label_2
_geom_bond_distance
_geom_bond_site_symmetry_2
Cu0 S4 2.308333 1_555
Cu0 S7 2.383620 1_555
Cu1 S11 2.308333 1_555
Cu1 S8 2.383620 1_555
Cu2 S1 2.308333 1_555
Cu2 S9 2.383620 1_555
Cu3 S2 2.308333 1_555
Cu3 S10 2.383620 1_555
Cu4 S7 2.316641 1_555
Cu4 S4 2.355050 1_555
Cu5 S8 2.316641 1_555
Cu5 S11 2.355050 1_555
Cu6 S9 2.316641 1_555
Cu6 S1 2.355050 1_555
Cu7 S10 2.316641 1_555
Cu7 S2 2.355050 1_555
Cu8 S5 2.326067 1_555
Cu8 S0 2.326067 1_555
Cu9 S6 2.326067 1_555
Cu9 S3 2.326067 1_555
Cu10 S5 2.350177 1_545
Cu10 S0 2.350177 1_545
Cu11 S6 2.350177 1_565
Cu11 S3 2.350177 1_565
S0 S2 2.030243 1_565
S1 S3 2.030243 1_565
S4 S5 2.030243 1_545
S8 S9 2.005578 1_555
S10 S7 2.005578 1_555
S11 S6 2.030243 1_565
Cl0 Cu4 2.278298 1_555
Cl0 Cu10 2.330946 1_555
Cl1 Cu7 2.278298 1_555
Cl1 Cu10 2.330946 1_555
Cl2 Cu6 2.278298 1_555
Cl2 Cu11 2.330946 1_555
Cl3 Cu7 2.328793 1_555
Cl3 Cu4 2.328793 1_555
Cl4 Cu5 2.328793 1_555
Cl4 Cu6 2.328793 1_555
Cl5 Cu9 2.334732 1_555
Cl5 Cu1 2.343602 1_545
Cl5 Cu3 2.946179 1_654
Cl6 Cu2 2.307246 1_556
Cl6 Cu1 2.307246 1_556
Cl7 Cu8 2.334732 1_555
Cl7 Cu3 2.343602 1_565
Cl7 Cu1 2.946179 1_456
Cl8 Cu9 2.334732 1_555
Cl8 Cu2 2.343602 1_545
Cl8 Cu0 2.946179 1_554
Cl9 Cu3 2.307246 1_554
Cl9 Cu0 2.307246 1_554
Cl10 Cu5 2.278298 1_555
Cl10 Cu11 2.330946 1_555
Cl11 Cu8 2.334732 1_555
Cl11 Cu0 2.343602 1_565
Cl11 Cu2 2.946179 1_556
