# generated using pymatgen
data_Ti3Mn5O16
_symmetry_space_group_name_H-M   'P 1'
_cell_length_a   5.86445948
_cell_length_b   5.87476601
_cell_length_c   8.87258855
_cell_angle_alpha   89.99990331
_cell_angle_beta   89.41118992
_cell_angle_gamma   120.05775285
_symmetry_Int_Tables_number   1
_chemical_formula_structural   Ti3Mn5O16
_chemical_formula_sum   'Ti3 Mn5 O16'
_cell_volume   264.55494498
_cell_formula_units_Z   1
loop_
 _symmetry_equiv_pos_site_id
 _symmetry_equiv_pos_as_xyz
  1  'x, y, z'
loop_
 _atom_site_type_symbol
 _atom_site_label
 _atom_site_symmetry_multiplicity
 _atom_site_fract_x
 _atom_site_fract_y
 _atom_site_fract_z
 _atom_site_occupancy
  Ti  Ti0  1  0.15781400  0.82969300  0.20586400  1
  Ti  Ti1  1  0.15781500  0.32814800  0.20586000  1
  Ti  Ti2  1  0.32145900  0.16072900  0.70471200  1
  Mn  Mn0  1  0.33589500  0.66794300  0.48498600  1
  Mn  Mn1  1  0.65785200  0.82893600  0.21043700  1
  Mn  Mn2  1  0.66564600  0.33284000  0.98298300  1
  Mn  Mn3  1  0.82689300  0.66138700  0.71031700  1
  Mn  Mn4  1  0.82689400  0.16551100  0.71031500  1
  O  O0  1  0.17292800  0.83218000  0.60293600  1
  O  O1  1  0.05066700  0.52534300  0.34540200  1
  O  O2  1  0.33997100  0.66999700  0.09720500  1
  O  O3  1  0.99293800  0.99647700  0.31553400  1
  O  O4  1  0.98995000  0.99497800  0.81730500  1
  O  O5  1  0.17293500  0.34076600  0.60294100  1
  O  O6  1  0.48329000  0.95408800  0.34233400  1
  O  O7  1  0.48329100  0.52921900  0.34233700  1
  O  O8  1  0.34637300  0.17319600  0.10410300  1
  O  O9  1  0.67082800  0.83541800  0.60116400  1
  O  O10  1  0.52695400  0.48061200  0.84310300  1
  O  O11  1  0.52696700  0.04637800  0.84310300  1
  O  O12  1  0.67384900  0.33693100  0.60026100  1
  O  O13  1  0.83179900  0.65853800  0.10212900  1
  O  O14  1  0.95518300  0.47759900  0.83826800  1
  O  O15  1  0.83181200  0.17329100  0.10212000  1
loop_
_geom_bond_atom_site_label_1
_geom_bond_atom_site_label_2
_geom_bond_distance
_geom_bond_site_symmetry_2
Mn0 O1 1.916354 1_555
Mn0 O7 1.922623 1_555
Mn0 O6 1.922739 1_555
Mn0 O5 1.960198 1_555
Mn0 O0 1.960285 1_555
Mn0 O9 1.998589 1_555
Mn1 O2 1.910821 1_555
Mn1 O6 1.920275 1_555
Mn1 O7 1.920307 1_555
Mn1 O3 1.949365 1_555
Mn1 O13 1.992233 1_555
Mn1 O15 1.992322 1_565
Mn2 O10 1.919265 1_555
Mn2 O11 1.919268 1_555
Mn2 O8 1.933845 1_556
Mn2 O14 1.940016 1_555
Mn2 O13 1.970175 1_556
Mn2 O15 1.970194 1_556
Mn3 O10 1.922502 1_555
Mn3 O12 1.922643 1_555
Mn3 O9 1.943310 1_555
Mn3 O4 1.948735 1_555
Mn3 O14 1.962628 1_555
Mn3 O0 1.988248 1_655
Mn4 O11 1.922477 1_555
Mn4 O12 1.922663 1_555
Mn4 O9 1.943299 1_545
Mn4 O4 1.948723 1_545
Mn4 O14 1.962692 1_555
Mn4 O5 1.988246 1_655
O0 Ti2 1.905681 1_565
O1 Ti1 1.995752 1_555
O1 Ti0 1.995764 1_555
O2 Ti1 1.983302 1_555
O2 Ti0 1.983329 1_555
O3 Ti0 1.942037 1_655
O3 Ti1 1.942109 1_665
O4 Ti2 1.946655 1_665
O5 Ti2 1.905707 1_555
O6 Ti0 2.072116 1_555
O7 Ti1 2.072150 1_555
O8 Ti0 1.963260 1_545
O8 Ti1 1.963266 1_555
O10 Ti2 2.062356 1_555
O11 Ti2 2.062268 1_555
O12 Ti2 2.004701 1_555
O13 Ti0 1.903662 1_655
O15 Ti1 1.903629 1_655
