# generated using pymatgen
data_Ce8Ga3Co
_symmetry_space_group_name_H-M   'P 1'
_cell_length_a   6.43727200
_cell_length_b   10.20197198
_cell_length_c   10.20197198
_cell_angle_alpha   120.20927635
_cell_angle_beta   90.00000000
_cell_angle_gamma   90.00000000
_symmetry_Int_Tables_number   1
_chemical_formula_structural   Ce8Ga3Co
_chemical_formula_sum   'Ce16 Ga6 Co2'
_cell_volume   579.00329275
_cell_formula_units_Z   2
loop_
 _symmetry_equiv_pos_site_id
 _symmetry_equiv_pos_as_xyz
  1  'x, y, z'
loop_
 _atom_site_type_symbol
 _atom_site_label
 _atom_site_symmetry_multiplicity
 _atom_site_fract_x
 _atom_site_fract_y
 _atom_site_fract_z
 _atom_site_occupancy
  Ce  Ce0  1  0.45908800  0.17811300  0.82188700  1
  Ce  Ce1  1  0.46106600  0.64388300  0.82155400  1
  Ce  Ce2  1  0.46106600  0.17844600  0.35611700  1
  Ce  Ce3  1  0.95908800  0.82188700  0.17811300  1
  Ce  Ce4  1  0.96106600  0.35611700  0.17844600  1
  Ce  Ce5  1  0.96106600  0.82155400  0.64388300  1
  Ce  Ce6  1  0.87449100  0.33275500  0.66724500  1
  Ce  Ce7  1  0.37449100  0.66724500  0.33275500  1
  Ce  Ce8  1  0.23253500  0.46796500  0.53203500  1
  Ce  Ce9  1  0.23171200  0.06520400  0.53271400  1
  Ce  Ce10  1  0.23171200  0.46728600  0.93479600  1
  Ce  Ce11  1  0.73253500  0.53203500  0.46796500  1
  Ce  Ce12  1  0.73171200  0.93479600  0.46728600  1
  Ce  Ce13  1  0.73171200  0.53271400  0.06520400  1
  Ce  Ce14  1  0.21143600  0.00004800  0.99995200  1
  Ce  Ce15  1  0.71143600  0.99995200  0.00004800  1
  Ga  Ga0  1  0.96453900  0.16383600  0.83616400  1
  Ga  Ga1  1  0.96554800  0.67178300  0.83571600  1
  Ga  Ga2  1  0.96554800  0.16428400  0.32821700  1
  Ga  Ga3  1  0.46453900  0.83616400  0.16383600  1
  Ga  Ga4  1  0.46554800  0.32821700  0.16428400  1
  Ga  Ga5  1  0.46554800  0.83571600  0.67178300  1
  Co  Co0  1  0.47825900  0.33346400  0.66653600  1
  Co  Co1  1  0.97825900  0.66653600  0.33346400  1
loop_
_geom_bond_atom_site_label_1
_geom_bond_atom_site_label_2
_geom_bond_distance
_geom_bond_site_symmetry_2
Ce0 Co0 2.750764 1_555
Ce0 Ga4 3.027487 1_556
Ce0 Ga5 3.027487 1_545
Ce0 Ga0 3.193548 1_455
Ce0 Ga0 3.263512 1_555
Ce1 Co0 2.739065 1_555
Ce1 Ga3 3.024734 1_556
Ce1 Ga5 3.029004 1_555
Ce1 Ga1 3.199255 1_455
Ce1 Ga1 3.256791 1_555
Ce2 Co0 2.739065 1_555
Ce2 Ga3 3.024734 1_545
Ce2 Ga4 3.029004 1_555
Ce2 Ga2 3.199255 1_455
Ce2 Ga2 3.256791 1_555
Ce3 Co1 2.750764 1_555
Ce3 Ga2 3.027487 1_565
Ce3 Ga1 3.027487 1_554
Ce3 Ga3 3.193548 1_555
Ce3 Ga3 3.263512 1_655
Ce4 Co1 2.739065 1_555
Ce4 Ga0 3.024734 1_554
Ce4 Ga2 3.029004 1_555
Ce4 Ga4 3.199255 1_555
Ce4 Ga4 3.256791 1_655
Ce5 Co1 2.739065 1_555
Ce5 Ga0 3.024734 1_565
Ce5 Ga1 3.029004 1_555
Ce5 Ga5 3.199255 1_555
Ce5 Ga5 3.256791 1_655
Ce6 Co0 2.550684 1_555
Ce6 Ga0 3.043705 1_555
Ce6 Ga2 3.046040 1_555
Ce6 Ga1 3.046040 1_555
Ce7 Co1 2.550684 1_455
Ce7 Ga3 3.043705 1_555
Ce7 Ga4 3.046040 1_555
Ce7 Ga5 3.046040 1_555
Ce8 Co0 2.857020 1_555
Ce8 Ga2 3.223845 1_455
Ce8 Ga1 3.223845 1_455
Ce8 Ga4 3.602178 1_555
Ce8 Ga5 3.602178 1_555
Ce9 Co0 2.848285 1_555
Ce9 Ga0 3.227935 1_455
Ce9 Ga2 3.229871 1_455
Ce9 Ga3 3.608255 1_545
Ce9 Ga5 3.619778 1_545
Ce10 Co0 2.848285 1_555
Ce10 Ga0 3.227935 1_455
Ce10 Ga1 3.229871 1_455
Ce10 Ga3 3.608255 1_556
Ce10 Ga4 3.619778 1_556
Ce11 Co1 2.857020 1_555
Ce11 Ga4 3.223845 1_555
Ce11 Ga5 3.223845 1_555
Ce11 Ga2 3.602178 1_555
Ce11 Ga1 3.602178 1_555
Ce12 Co1 2.848285 1_555
Ce12 Ga3 3.227935 1_555
Ce12 Ga5 3.229871 1_555
Ce12 Ga0 3.608255 1_565
Ce12 Ga2 3.619778 1_565
Ce13 Co1 2.848285 1_555
Ce13 Ga3 3.227935 1_555
Ce13 Ga4 3.229871 1_555
Ce13 Ga0 3.608255 1_554
Ce13 Ga1 3.619778 1_554
Ce14 Ga1 3.298719 1_445
Ce14 Ga2 3.298719 1_456
Ce14 Ga0 3.304540 1_455
Ce14 Ga5 3.323706 1_545
Ce14 Ga4 3.323706 1_556
Ce14 Ga3 3.325419 1_546
Ce15 Ga5 3.298719 1_554
Ce15 Ga4 3.298719 1_565
Ce15 Ga3 3.304540 1_555
Ce15 Ga1 3.323706 1_554
Ce15 Ga2 3.323706 1_565
Ce15 Ga0 3.325419 1_564
