# generated using pymatgen
data_Zr3TaFe8
_symmetry_space_group_name_H-M   'P 1'
_cell_length_a   8.61580339
_cell_length_b   8.61580011
_cell_length_c   8.61580157
_cell_angle_alpha   33.54825278
_cell_angle_beta   33.54824207
_cell_angle_gamma   33.54826105
_symmetry_Int_Tables_number   1
_chemical_formula_structural   Zr3TaFe8
_chemical_formula_sum   'Zr3 Ta1 Fe8'
_cell_volume   173.98294830
_cell_formula_units_Z   1
loop_
 _symmetry_equiv_pos_site_id
 _symmetry_equiv_pos_as_xyz
  1  'x, y, z'
loop_
 _atom_site_type_symbol
 _atom_site_label
 _atom_site_symmetry_multiplicity
 _atom_site_fract_x
 _atom_site_fract_y
 _atom_site_fract_z
 _atom_site_occupancy
  Zr  Zr0  1  0.62490247  0.62490347  0.62490347  1
  Zr  Zr1  1  0.00102155  0.00102255  0.00102155  1
  Zr  Zr2  1  0.49913001  0.49913001  0.49912901  1
  Ta  Ta0  1  0.12516100  0.12516100  0.12516100  1
  Fe  Fe0  1  0.56344470  0.06387281  0.56344470  1
  Fe  Fe1  1  0.06194007  0.56031573  0.06194007  1
  Fe  Fe2  1  0.06387281  0.56344470  0.56344470  1
  Fe  Fe3  1  0.56031573  0.06194007  0.06194007  1
  Fe  Fe4  1  0.81228859  0.81228659  0.81228759  1
  Fe  Fe5  1  0.31253730  0.31253830  0.31253730  1
  Fe  Fe6  1  0.56344470  0.56344470  0.06387281  1
  Fe  Fe7  1  0.06194007  0.06194007  0.56031573  1
loop_
_geom_bond_atom_site_label_1
_geom_bond_atom_site_label_2
_geom_bond_distance
_geom_bond_site_symmetry_2
Zr0 Zr1 3.054644 1_566
Zr0 Zr1 3.054645 1_656
Zr0 Zr1 3.054648 1_665
Zr0 Zr2 3.065095 1_555
Ta0 Zr1 3.025266 1_555
Ta0 Zr2 3.037158 1_455
Ta0 Zr2 3.037159 1_545
Ta0 Zr2 3.037162 1_554
Fe0 Fe4 2.461927 1_545
Fe0 Fe6 2.484386 1_555
Fe0 Fe2 2.484387 1_555
Fe0 Fe6 2.488644 1_546
Fe0 Fe2 2.488645 1_645
Fe0 Fe5 2.507238 1_555
Fe0 Zr2 2.874303 1_555
Fe0 Ta0 2.904203 1_556
Fe0 Ta0 2.904204 1_655
Fe0 Zr1 2.916766 1_655
Fe0 Zr1 2.916767 1_556
Fe0 Zr0 2.942104 1_545
Fe1 Fe4 2.472059 1_454
Fe1 Fe7 2.478438 1_555
Fe1 Fe3 2.478438 1_555
Fe1 Fe7 2.494593 1_564
Fe1 Fe3 2.494594 1_465
Fe1 Fe5 2.507057 1_555
Fe1 Ta0 2.887296 1_555
Fe1 Zr2 2.912997 1_455
Fe1 Zr2 2.913000 1_554
Fe1 Zr0 2.928796 1_554
Fe1 Zr0 2.928799 1_455
Fe1 Zr1 2.963764 1_565
Fe2 Fe4 2.461920 1_455
Fe2 Fe6 2.484386 1_555
Fe2 Fe6 2.488644 1_456
Fe2 Fe5 2.507234 1_555
Fe2 Zr2 2.874305 1_555
Fe2 Ta0 2.904203 1_565
Fe2 Ta0 2.904204 1_556
Fe2 Zr1 2.916764 1_556
Fe2 Zr1 2.916770 1_565
Fe2 Zr0 2.942108 1_455
Fe3 Fe4 2.472062 1_544
Fe3 Fe7 2.478437 1_555
Fe3 Fe7 2.494593 1_654
Fe3 Fe5 2.507057 1_555
Fe3 Ta0 2.887297 1_555
Fe3 Zr2 2.912996 1_545
Fe3 Zr2 2.913002 1_554
Fe3 Zr0 2.928797 1_554
Fe3 Zr0 2.928798 1_545
Fe3 Zr1 2.963763 1_655
Fe4 Fe6 2.461923 1_556
Fe4 Fe7 2.472060 1_665
Fe4 Zr2 2.912972 1_556
Fe4 Zr2 2.912973 1_655
Fe4 Zr2 2.912981 1_565
Fe4 Ta0 2.914149 1_656
Fe4 Ta0 2.914153 1_665
Fe4 Ta0 2.914158 1_566
Fe5 Fe7 2.507058 1_555
Fe5 Fe6 2.507234 1_555
Fe5 Zr0 2.916293 1_554
Fe5 Zr0 2.916298 1_545
Fe5 Zr0 2.916299 1_455
Fe5 Zr1 2.919996 1_556
Fe5 Zr1 2.919997 1_565
Fe5 Zr1 2.919997 1_655
Fe6 Zr2 2.874302 1_555
Fe6 Ta0 2.904204 1_565
Fe6 Ta0 2.904206 1_655
Fe6 Zr1 2.916765 1_655
Fe6 Zr1 2.916771 1_565
Fe6 Zr0 2.942105 1_554
Fe7 Ta0 2.887296 1_555
Fe7 Zr2 2.912999 1_545
Fe7 Zr2 2.913001 1_455
Fe7 Zr0 2.928797 1_545
Fe7 Zr0 2.928800 1_455
Fe7 Zr1 2.963762 1_556
