# generated using pymatgen
data_LiNiRhF6
_symmetry_space_group_name_H-M   'P 1'
_cell_length_a   4.70642800
_cell_length_b   4.70642800
_cell_length_c   9.31921700
_cell_angle_alpha   90.00000000
_cell_angle_beta   90.00000000
_cell_angle_gamma   90.00000000
_symmetry_Int_Tables_number   1
_chemical_formula_structural   LiNiRhF6
_chemical_formula_sum   'Li2 Ni2 Rh2 F12'
_cell_volume   206.42498551
_cell_formula_units_Z   2
loop_
 _symmetry_equiv_pos_site_id
 _symmetry_equiv_pos_as_xyz
  1  'x, y, z'
loop_
 _atom_site_type_symbol
 _atom_site_label
 _atom_site_symmetry_multiplicity
 _atom_site_fract_x
 _atom_site_fract_y
 _atom_site_fract_z
 _atom_site_occupancy
  Li  Li0  1  0.50000000  0.50000000  0.49929400  1
  Li  Li1  1  0.00000000  0.00000000  0.99929400  1
  Ni  Ni0  1  0.50000000  0.50000000  0.16865700  1
  Ni  Ni1  1  0.00000000  0.00000000  0.66865700  1
  Rh  Rh0  1  0.50000000  0.50000000  0.83259400  1
  Rh  Rh1  1  0.00000000  0.00000000  0.33259400  1
  F  F0  1  0.19390100  0.80609900  0.49880700  1
  F  F1  1  0.80609900  0.19390100  0.49880700  1
  F  F2  1  0.30609900  0.30609900  0.99880700  1
  F  F3  1  0.69390100  0.69390100  0.99880700  1
  F  F4  1  0.19600800  0.80399200  0.16722200  1
  F  F5  1  0.80399200  0.19600800  0.16722200  1
  F  F6  1  0.30399200  0.30399200  0.66722200  1
  F  F7  1  0.69600800  0.69600800  0.66722200  1
  F  F8  1  0.80249100  0.19750900  0.83369900  1
  F  F9  1  0.19750900  0.80249100  0.83369900  1
  F  F10  1  0.69750900  0.69750900  0.33369900  1
  F  F11  1  0.30249100  0.30249100  0.33369900  1
loop_
_geom_bond_atom_site_label_1
_geom_bond_atom_site_label_2
_geom_bond_distance
_geom_bond_site_symmetry_2
F0 Rh1 2.016168 1_565
F0 Li0 2.037368 1_555
F0 Ni1 2.042323 1_565
F1 Rh1 2.016168 1_655
F1 Li0 2.037368 1_555
F1 Ni1 2.042323 1_655
F2 Rh0 2.016168 1_555
F2 Li1 2.037368 1_555
F2 Ni0 2.042323 1_556
F3 Rh0 2.016168 1_555
F3 Li1 2.037368 1_665
F3 Ni0 2.042323 1_556
F4 Rh1 2.019185 1_565
F4 Ni0 2.023383 1_555
F4 Li1 2.037424 1_564
F5 Rh1 2.019185 1_655
F5 Ni0 2.023383 1_555
F5 Li1 2.037424 1_654
F6 Rh0 2.019185 1_555
F6 Ni1 2.023383 1_555
F6 Li0 2.037424 1_555
F7 Rh0 2.019185 1_555
F7 Ni1 2.023383 1_665
F7 Li0 2.037424 1_555
F8 Rh0 2.013374 1_555
F8 Ni1 2.023316 1_655
F8 Li1 2.027236 1_655
F9 Rh0 2.013374 1_555
F9 Ni1 2.023316 1_565
F9 Li1 2.027236 1_565
F10 Rh1 2.013374 1_665
F10 Ni0 2.023316 1_555
F10 Li0 2.027236 1_555
F11 Rh1 2.013374 1_555
F11 Ni0 2.023316 1_555
F11 Li0 2.027236 1_555
