# generated using pymatgen
data_ErSF
_symmetry_space_group_name_H-M   'P 1'
_cell_length_a   3.72002033
_cell_length_b   3.72002033
_cell_length_c   6.76997952
_cell_angle_alpha   90.00000000
_cell_angle_beta   90.00000000
_cell_angle_gamma   90.00000000
_symmetry_Int_Tables_number   1
_chemical_formula_structural   ErSF
_chemical_formula_sum   'Er2 S2 F2'
_cell_volume   93.68670859
_cell_formula_units_Z   2
loop_
 _symmetry_equiv_pos_site_id
 _symmetry_equiv_pos_as_xyz
  1  'x, y, z'
loop_
 _atom_site_type_symbol
 _atom_site_label
 _atom_site_symmetry_multiplicity
 _atom_site_fract_x
 _atom_site_fract_y
 _atom_site_fract_z
 _atom_site_occupancy
  Er  Er0  1  0.75000000  0.75000000  0.77310122  1
  Er  Er1  1  0.25000000  0.25000000  0.22689878  1
  S  S0  1  0.25000000  0.25000000  0.64456238  1
  S  S1  1  0.75000000  0.75000000  0.35543762  1
  F  F0  1  0.25000000  0.75000000  0.00000000  1
  F  F1  1  0.75000000  0.25000000  0.00000000  1
loop_
_geom_bond_atom_site_label_1
_geom_bond_atom_site_label_2
_geom_bond_distance
_geom_bond_site_symmetry_2
Er0 F0 2.412310 1_556
Er0 F0 2.412310 1_656
Er0 F1 2.412310 1_556
Er0 F1 2.412310 1_566
Er0 S0 2.770656 1_565
Er0 S0 2.770656 1_555
Er0 S0 2.770656 1_655
Er0 S0 2.770656 1_665
Er0 S1 2.827574 1_555
Er1 F0 2.412310 1_555
Er1 F1 2.412310 1_455
Er1 F1 2.412310 1_555
Er1 F0 2.412310 1_545
Er1 S1 2.770656 1_545
Er1 S1 2.770656 1_445
Er1 S1 2.770656 1_455
Er1 S1 2.770656 1_555
Er1 S0 2.827574 1_555
