# generated using pymatgen
data_K2MgV2O7
_symmetry_space_group_name_H-M   'P 1'
_cell_length_a   8.38034339
_cell_length_b   8.38034339
_cell_length_c   11.33005932
_cell_angle_alpha   90.00000000
_cell_angle_beta   90.00000000
_cell_angle_gamma   90.00000000
_symmetry_Int_Tables_number   1
_chemical_formula_structural   K2MgV2O7
_chemical_formula_sum   'K8 Mg4 V8 O28'
_cell_volume   795.71182599
_cell_formula_units_Z   4
loop_
 _symmetry_equiv_pos_site_id
 _symmetry_equiv_pos_as_xyz
  1  'x, y, z'
loop_
 _atom_site_type_symbol
 _atom_site_label
 _atom_site_symmetry_multiplicity
 _atom_site_fract_x
 _atom_site_fract_y
 _atom_site_fract_z
 _atom_site_occupancy
  K  K0  1  0.81941926  0.81941926  -0.00000000  1
  K  K1  1  0.68058074  0.31941926  0.50000000  1
  K  K2  1  0.31941926  0.68058074  0.50000000  1
  K  K3  1  0.18058074  0.18058074  -0.00000000  1
  K  K4  1  0.64601049  0.35398951  -0.00000000  1
  K  K5  1  0.14601049  0.14601049  0.50000000  1
  K  K6  1  0.85398951  0.85398951  0.50000000  1
  K  K7  1  0.35398951  0.64601049  -0.00000000  1
  Mg  Mg0  1  -0.00000000  0.50000000  0.75000000  1
  Mg  Mg1  1  -0.00000000  0.50000000  0.25000000  1
  Mg  Mg2  1  0.50000000  -0.00000000  0.75000000  1
  Mg  Mg3  1  0.50000000  -0.00000000  0.25000000  1
  V  V0  1  0.64205348  0.64205348  0.71186259  1
  V  V1  1  0.35794652  0.35794652  0.71186259  1
  V  V2  1  0.64205348  0.64205348  0.28813741  1
  V  V3  1  0.14205348  0.85794652  0.21186259  1
  V  V4  1  0.85794652  0.14205348  0.21186259  1
  V  V5  1  0.85794652  0.14205348  0.78813741  1
  V  V6  1  0.14205348  0.85794652  0.78813741  1
  V  V7  1  0.35794652  0.35794652  0.28813741  1
  O  O0  1  0.64086395  0.64086395  0.85843527  1
  O  O1  1  0.35913605  0.35913605  0.85843527  1
  O  O2  1  0.64086395  0.64086395  0.14156473  1
  O  O3  1  0.14086395  0.85913605  0.35843527  1
  O  O4  1  0.85913605  0.14086395  0.35843527  1
  O  O5  1  0.85913605  0.14086395  0.64156473  1
  O  O6  1  0.14086395  0.85913605  0.64156473  1
  O  O7  1  0.35913605  0.35913605  0.14156473  1
  O  O8  1  0.41120302  0.17550796  0.34346676  1
  O  O9  1  0.58879698  0.82449204  0.34346676  1
  O  O10  1  0.17550796  0.41120302  0.65653324  1
  O  O11  1  0.67550796  0.08879698  0.84346676  1
  O  O12  1  0.32449204  0.91120302  0.84346676  1
  O  O13  1  0.08879698  0.67550796  0.15653324  1
  O  O14  1  0.91120302  0.32449204  0.15653324  1
  O  O15  1  0.82449204  0.58879698  0.65653324  1
  O  O16  1  0.58879698  0.82449204  0.65653324  1
  O  O17  1  0.41120302  0.17550796  0.65653324  1
  O  O18  1  0.82449204  0.58879698  0.34346676  1
  O  O19  1  0.32449204  0.91120302  0.15653324  1
  O  O20  1  -0.00000000  -0.00000000  0.15436045  1
  O  O21  1  0.50000000  0.50000000  0.65436045  1
  O  O22  1  0.50000000  0.50000000  0.34563955  1
  O  O23  1  -0.00000000  -0.00000000  0.84563955  1
  O  O24  1  0.17550796  0.41120302  0.34346676  1
  O  O25  1  0.08879698  0.67550796  0.84346676  1
  O  O26  1  0.91120302  0.32449204  0.84346676  1
  O  O27  1  0.67550796  0.08879698  0.15653324  1
loop_
_geom_bond_atom_site_label_1
_geom_bond_atom_site_label_2
_geom_bond_distance
_geom_bond_site_symmetry_2
K0 O2 2.655328 1_555
K0 O0 2.655328 1_554
K0 O23 2.763878 1_664
K0 O20 2.763878 1_665
K0 O27 3.113859 1_565
K0 O13 3.113859 1_655
K0 O25 3.113859 1_654
K0 O11 3.113859 1_564
K1 O4 2.655328 1_555
K1 O5 2.655328 1_555
K1 O22 2.763878 1_555
K1 O21 2.763878 1_555
K1 O8 3.113859 1_555
K1 O17 3.113859 1_555
K1 O18 3.113859 1_555
K1 O15 3.113859 1_555
K2 O3 2.655328 1_555
K2 O6 2.655328 1_555
K2 O22 2.763878 1_555
K2 O21 2.763878 1_555
K2 O10 3.113859 1_555
K2 O24 3.113859 1_555
K2 O16 3.113859 1_555
K2 O9 3.113859 1_555
K3 O7 2.655328 1_555
K3 O1 2.655328 1_554
K3 O23 2.763878 1_554
K3 O20 2.763878 1_555
K3 O19 3.113859 1_545
K3 O12 3.113859 1_544
K3 O14 3.113859 1_455
K3 O26 3.113859 1_454
K4 O14 2.854050 1_555
K4 O27 2.854050 1_555
K4 O26 2.854050 1_554
K4 O11 2.854050 1_554
K4 O2 2.890363 1_555
K4 O0 2.890363 1_554
K4 O7 2.890363 1_555
K4 O1 2.890363 1_554
K5 O10 2.854050 1_555
K5 O8 2.854050 1_555
K5 O24 2.854050 1_555
K5 O17 2.854050 1_555
K5 O4 2.890363 1_455
K5 O3 2.890363 1_545
K5 O5 2.890363 1_455
K5 O6 2.890363 1_545
K6 O15 2.854050 1_555
K6 O9 2.854050 1_555
K6 O16 2.854050 1_555
K6 O18 2.854050 1_555
K6 O3 2.890363 1_655
K6 O4 2.890363 1_565
K6 O6 2.890363 1_655
K6 O5 2.890363 1_565
K7 O13 2.854050 1_555
K7 O19 2.854050 1_555
K7 O12 2.854050 1_554
K7 O25 2.854050 1_554
K7 O2 2.890363 1_555
K7 O0 2.890363 1_554
K7 O1 2.890363 1_554
K7 O7 2.890363 1_555
Mg0 O10 1.959211 1_555
Mg0 O25 1.959211 1_555
Mg0 O26 1.959211 1_455
Mg0 O15 1.959211 1_455
Mg1 O24 1.959211 1_555
Mg1 O13 1.959211 1_555
Mg1 O14 1.959211 1_455
Mg1 O18 1.959211 1_455
Mg2 O17 1.959211 1_555
Mg2 O11 1.959211 1_555
Mg2 O16 1.959211 1_545
Mg2 O12 1.959211 1_545
Mg3 O8 1.959211 1_555
Mg3 O27 1.959211 1_555
Mg3 O19 1.959211 1_545
Mg3 O9 1.959211 1_545
O0 V0 1.660737 1_555
O1 V1 1.660737 1_555
O2 V2 1.660737 1_555
O3 V3 1.660737 1_555
O4 V4 1.660737 1_555
O5 V5 1.660737 1_555
O6 V6 1.660737 1_555
O7 V7 1.660737 1_555
O8 V7 1.711638 1_555
O9 V2 1.711638 1_555
O10 V1 1.711638 1_555
O11 V5 1.711638 1_555
O12 V6 1.711638 1_555
O13 V3 1.711638 1_555
O14 V4 1.711638 1_555
O15 V0 1.711638 1_555
O16 V0 1.711638 1_555
O17 V1 1.711638 1_555
O18 V2 1.711638 1_555
O19 V3 1.711638 1_555
O20 V4 1.805223 1_455
O20 V3 1.805223 1_545
O21 V1 1.805223 1_555
O21 V0 1.805223 1_555
O22 V7 1.805223 1_555
O22 V2 1.805223 1_555
O23 V5 1.805223 1_455
O23 V6 1.805223 1_545
O24 V7 1.711638 1_555
O25 V6 1.711638 1_555
O26 V5 1.711638 1_555
O27 V4 1.711638 1_555
