# generated using pymatgen
data_Mg9(MnN4)2
_symmetry_space_group_name_H-M   'P 1'
_cell_length_a   8.20690210
_cell_length_b   4.36884805
_cell_length_c   7.06306606
_cell_angle_alpha   89.99999582
_cell_angle_beta   72.79308235
_cell_angle_gamma   74.56356648
_symmetry_Int_Tables_number   1
_chemical_formula_structural   Mg9(MnN4)2
_chemical_formula_sum   'Mg9 Mn2 N8'
_cell_volume   232.32893403
_cell_formula_units_Z   1
loop_
 _symmetry_equiv_pos_site_id
 _symmetry_equiv_pos_as_xyz
  1  'x, y, z'
loop_
 _atom_site_type_symbol
 _atom_site_label
 _atom_site_symmetry_multiplicity
 _atom_site_fract_x
 _atom_site_fract_y
 _atom_site_fract_z
 _atom_site_occupancy
  Mg  Mg0  1  0.00000000  0.50000000  0.50000000  1
  Mg  Mg1  1  0.07808155  0.96095972  0.78495916  1
  Mg  Mg2  1  0.92191845  0.03904028  0.21504084  1
  Mg  Mg3  1  0.65983343  0.67008379  0.42644352  1
  Mg  Mg4  1  0.34016657  0.32991621  0.57355648  1
  Mg  Mg5  1  0.81316403  0.59341798  0.96046883  1
  Mg  Mg6  1  0.18683597  0.40658202  0.03953117  1
  Mg  Mg7  1  0.33753828  0.83123036  0.25955850  1
  Mg  Mg8  1  0.66246172  0.16876964  0.74044150  1
  Mn  Mn0  1  0.41909947  0.79044977  0.79660267  1
  Mn  Mn1  1  0.58090053  0.20955023  0.20339733  1
  N  N0  1  0.22258916  0.88870542  0.01444039  1
  N  N1  1  0.77741084  0.11129458  0.98555961  1
  N  N2  1  0.35754961  0.82122520  0.57928050  1
  N  N3  1  0.64245039  0.17877480  0.42071950  1
  N  N4  1  0.65656559  0.67171671  0.74086765  1
  N  N5  1  0.34343441  0.32828329  0.25913235  1
  N  N6  1  0.93016491  0.53491754  0.24920087  1
  N  N7  1  0.06983509  0.46508246  0.75079913  1
loop_
_geom_bond_atom_site_label_1
_geom_bond_atom_site_label_2
_geom_bond_distance
_geom_bond_site_symmetry_2
Mg0 N6 2.010913 1_455
Mg0 N7 2.010913 1_555
Mg0 N4 2.727385 1_455
Mg0 N5 2.727385 1_555
Mg1 N7 2.200870 1_565
Mg1 N7 2.200874 1_555
Mg1 N2 2.242064 1_555
Mg1 N0 2.251949 1_556
Mg1 N1 2.365695 1_465
Mg2 N6 2.200870 1_545
Mg2 N6 2.200874 1_555
Mg2 N3 2.242064 1_555
Mg2 N1 2.251949 1_554
Mg2 N0 2.365695 1_645
Mg3 N6 2.120698 1_555
Mg3 N3 2.189899 1_565
Mg3 N3 2.189903 1_555
Mg3 N4 2.213002 1_555
Mg3 N2 2.302018 1_555
Mg4 N7 2.120698 1_555
Mg4 N2 2.189899 1_545
Mg4 N2 2.189903 1_555
Mg4 N5 2.213002 1_555
Mg4 N3 2.302018 1_555
Mg5 N7 2.114315 1_655
Mg5 N1 2.202804 1_555
Mg5 N1 2.202804 1_565
Mg5 N4 2.262711 1_555
Mg5 N6 2.484780 1_556
Mg6 N6 2.114315 1_455
Mg6 N0 2.202804 1_555
Mg6 N0 2.202804 1_545
Mg6 N5 2.262711 1_555
Mg6 N7 2.484780 1_554
Mg7 N5 2.184900 1_555
Mg7 N5 2.184909 1_565
Mg7 N0 2.188736 1_555
Mg7 N2 2.311716 1_555
Mg8 N4 2.184900 1_555
Mg8 N4 2.184909 1_545
Mg8 N1 2.188736 1_555
Mg8 N3 2.311716 1_555
Mn0 N2 1.746977 1_555
Mn0 N4 1.797233 1_555
Mn0 N0 1.820954 1_556
Mn1 N3 1.746977 1_555
Mn1 N5 1.797233 1_555
Mn1 N1 1.820954 1_554
