# generated using pymatgen
data_Li4MnCo2O7
_symmetry_space_group_name_H-M   'P 1'
_cell_length_a   5.09385200
_cell_length_b   5.14803749
_cell_length_c   10.55060696
_cell_angle_alpha   84.88426247
_cell_angle_beta   77.11849132
_cell_angle_gamma   70.82038503
_symmetry_Int_Tables_number   1
_chemical_formula_structural   Li4MnCo2O7
_chemical_formula_sum   'Li8 Mn2 Co4 O14'
_cell_volume   254.70043151
_cell_formula_units_Z   2
loop_
 _symmetry_equiv_pos_site_id
 _symmetry_equiv_pos_as_xyz
  1  'x, y, z'
loop_
 _atom_site_type_symbol
 _atom_site_label
 _atom_site_symmetry_multiplicity
 _atom_site_fract_x
 _atom_site_fract_y
 _atom_site_fract_z
 _atom_site_occupancy
  Li  Li0  1  0.06912600  0.50106500  0.85726300  1
  Li  Li1  1  0.63448600  0.49868000  0.72229700  1
  Li  Li2  1  0.21166800  0.50256900  0.57605300  1
  Li  Li3  1  0.78412900  0.50090200  0.43085100  1
  Li  Li4  1  0.35492900  0.49947400  0.28434900  1
  Li  Li5  1  0.94042500  0.49418500  0.13719800  1
  Li  Li6  1  0.50671900  0.50305900  0.99212000  1
  Li  Li7  1  0.56952000  0.00237300  0.85737600  1
  Mn  Mn0  1  0.00086600  0.99435000  0.99758700  1
  Mn  Mn1  1  0.28580100  0.00209600  0.42843100  1
  Co  Co0  1  0.14205200  0.01055900  0.72005400  1
  Co  Co1  1  0.70967300  0.99901500  0.58168100  1
  Co  Co2  1  0.85964900  0.99809000  0.28609800  1
  Co  Co3  1  0.43388200  0.99835500  0.13293300  1
  O  O0  1  0.76026300  0.77269400  0.00673100  1
  O  O1  1  0.28703500  0.77028100  0.86671400  1
  O  O2  1  0.89350500  0.77350600  0.70352400  1
  O  O3  1  0.45191100  0.77267100  0.56435100  1
  O  O4  1  0.04485100  0.77930300  0.42016700  1
  O  O5  1  0.58156700  0.78267100  0.29085500  1
  O  O6  1  0.16954100  0.76805800  0.13770300  1
  O  O7  1  0.38556000  0.23189600  0.70942900  1
  O  O8  1  0.98298300  0.22646100  0.56062700  1
  O  O9  1  0.53247500  0.21870500  0.42864100  1
  O  O10  1  0.11693300  0.22804800  0.29290000  1
  O  O11  1  0.70769000  0.21874800  0.13929200  1
  O  O12  1  0.24198200  0.22053700  0.01076600  1
  O  O13  1  0.84077800  0.23164500  0.86401000  1
loop_
_geom_bond_atom_site_label_1
_geom_bond_atom_site_label_2
_geom_bond_distance
_geom_bond_site_symmetry_2
Li0 O1 2.060984 1_555
Li0 O13 2.070572 1_455
Li0 O7 2.178978 1_555
Li0 O0 2.181515 1_456
Li0 O2 2.194373 1_455
Li0 O12 2.206138 1_556
Li1 O13 2.148102 1_555
Li1 O7 2.183293 1_555
Li1 O2 2.200411 1_555
Li1 O1 2.227238 1_555
Li1 O3 2.245294 1_555
Li1 O8 2.338009 1_555
Li2 O7 2.025229 1_555
Li2 O2 2.063537 1_455
Li2 O3 2.113388 1_555
Li2 O8 2.148863 1_455
Li2 O4 2.206019 1_555
Li2 O9 2.219884 1_555
Li3 O8 2.056687 1_555
Li3 O3 2.130276 1_555
Li3 O5 2.159729 1_555
Li3 O10 2.159902 1_655
Li3 O4 2.232874 1_655
Li3 O9 2.235463 1_555
Li4 O10 2.114742 1_555
Li4 O4 2.118333 1_555
Li4 O9 2.141794 1_555
Li4 O6 2.146958 1_555
Li4 O5 2.149899 1_555
Li4 O11 2.263109 1_555
Li5 O12 2.030562 1_655
Li5 O0 2.034553 1_555
Li5 O6 2.106002 1_655
Li5 O11 2.122220 1_555
Li5 O10 2.198163 1_655
Li5 O5 2.345119 1_555
Li6 O1 2.054116 1_555
Li6 O13 2.103303 1_555
Li6 O6 2.197309 1_556
Li6 O11 2.218159 1_556
Li6 O0 2.218884 1_556
Li6 O12 2.256553 1_556
Li7 O7 2.075209 1_555
Li7 O0 2.102552 1_546
Li7 O13 2.106342 1_555
Li7 O12 2.133809 1_556
Li7 O1 2.133846 1_545
Li7 O2 2.148415 1_545
Mn0 O1 1.908885 1_555
Mn0 O0 1.913125 1_456
Mn0 O13 1.922061 1_465
Mn0 O6 1.970353 1_556
Mn0 O12 1.982024 1_566
Mn0 O11 1.994725 1_466
Mn1 O10 1.931851 1_555
Mn1 O9 1.935111 1_555
Mn1 O3 1.936417 1_545
Mn1 O8 1.953499 1_455
Mn1 O4 1.954487 1_545
Mn1 O5 1.962612 1_545
Co0 O7 1.921818 1_555
Co0 O1 2.009410 1_545
Co0 O13 2.019584 1_455
Co0 O2 2.067413 1_445
Co0 O8 2.098510 1_455
Co0 O3 2.149959 1_545
Co1 O2 1.852961 1_555
Co1 O7 1.993775 1_565
Co1 O8 2.060436 1_565
Co1 O3 2.065300 1_555
Co1 O9 2.086713 1_565
Co1 O4 2.208134 1_655
Co2 O4 1.942195 1_655
Co2 O11 1.982843 1_565
Co2 O10 2.049562 1_665
Co2 O5 2.056552 1_555
Co2 O9 2.067010 1_565
Co2 O6 2.084676 1_655
Co3 O12 1.867987 1_565
Co3 O0 1.976439 1_555
Co3 O6 2.056527 1_555
Co3 O5 2.062775 1_555
Co3 O11 2.081384 1_565
Co3 O10 2.177130 1_565
