# generated using pymatgen
data_CdSO3
_symmetry_space_group_name_H-M   'P 1'
_cell_length_a   8.33582975
_cell_length_b   8.33582975
_cell_length_c   8.33582982
_cell_angle_alpha   109.10807619
_cell_angle_beta   109.10807619
_cell_angle_gamma   109.10808203
_symmetry_Int_Tables_number   1
_chemical_formula_structural   CdSO3
_chemical_formula_sum   'Cd6 S6 O18'
_cell_volume   451.78229683
_cell_formula_units_Z   6
loop_
 _symmetry_equiv_pos_site_id
 _symmetry_equiv_pos_as_xyz
  1  'x, y, z'
loop_
 _atom_site_type_symbol
 _atom_site_label
 _atom_site_symmetry_multiplicity
 _atom_site_fract_x
 _atom_site_fract_y
 _atom_site_fract_z
 _atom_site_occupancy
  Cd  Cd0  1  0.18435300  0.35884500  0.67332500  1
  Cd  Cd1  1  0.35884500  0.67332500  0.18435300  1
  Cd  Cd2  1  0.67332500  0.18435300  0.35884500  1
  Cd  Cd3  1  0.81564700  0.64115500  0.32667500  1
  Cd  Cd4  1  0.64115500  0.32667500  0.81564700  1
  Cd  Cd5  1  0.32667500  0.81564700  0.64115500  1
  S  S0  1  0.21149400  0.02138500  0.35638500  1
  S  S1  1  0.02138500  0.35638500  0.21149400  1
  S  S2  1  0.35638500  0.21149400  0.02138500  1
  S  S3  1  0.78850600  0.97861500  0.64361500  1
  S  S4  1  0.97861500  0.64361500  0.78850600  1
  S  S5  1  0.64361500  0.78850600  0.97861500  1
  O  O0  1  0.86967300  0.12524200  0.57659300  1
  O  O1  1  0.12524200  0.57659300  0.86967300  1
  O  O2  1  0.57659300  0.86967300  0.12524200  1
  O  O3  1  0.13032700  0.87475800  0.42340700  1
  O  O4  1  0.87475800  0.42340700  0.13032700  1
  O  O5  1  0.42340700  0.13032700  0.87475800  1
  O  O6  1  0.31091200  0.36303100  0.97702200  1
  O  O7  1  0.36303100  0.97702200  0.31091200  1
  O  O8  1  0.97702200  0.31091200  0.36303100  1
  O  O9  1  0.68908800  0.63696900  0.02297800  1
  O  O10  1  0.63696900  0.02297800  0.68908800  1
  O  O11  1  0.02297800  0.68908800  0.63696900  1
  O  O12  1  0.45389400  0.65915700  0.77706900  1
  O  O13  1  0.77706900  0.45389400  0.65915700  1
  O  O14  1  0.65915700  0.77706900  0.45389400  1
  O  O15  1  0.54610600  0.34084300  0.22293100  1
  O  O16  1  0.22293100  0.54610600  0.34084300  1
  O  O17  1  0.34084300  0.22293100  0.54610600  1
loop_
_geom_bond_atom_site_label_1
_geom_bond_atom_site_label_2
_geom_bond_distance
_geom_bond_site_symmetry_2
Cd0 O17 2.279589 1_555
Cd0 O1 2.320522 1_555
Cd0 O0 2.359210 1_455
Cd0 O12 2.385583 1_555
Cd0 O6 2.385905 1_555
Cd0 O8 2.404460 1_455
Cd1 O16 2.279589 1_555
Cd1 O2 2.320522 1_555
Cd1 O1 2.359210 1_554
Cd1 O14 2.385584 1_555
Cd1 O7 2.385905 1_555
Cd1 O6 2.404460 1_554
Cd2 O15 2.279589 1_555
Cd2 O0 2.320522 1_555
Cd2 O2 2.359210 1_545
Cd2 O13 2.385584 1_555
Cd2 O8 2.385905 1_555
Cd2 O7 2.404460 1_545
Cd3 O14 2.279589 1_555
Cd3 O4 2.320522 1_555
Cd3 O3 2.359210 1_655
Cd3 O15 2.385583 1_555
Cd3 O9 2.385905 1_555
Cd3 O11 2.404460 1_655
Cd4 O13 2.279589 1_555
Cd4 O5 2.320522 1_555
Cd4 O4 2.359210 1_556
Cd4 O17 2.385584 1_555
Cd4 O10 2.385905 1_555
Cd4 O9 2.404460 1_556
Cd5 O12 2.279589 1_555
Cd5 O3 2.320522 1_555
Cd5 O5 2.359210 1_565
Cd5 O16 2.385584 1_555
Cd5 O11 2.385905 1_555
Cd5 O10 2.404460 1_565
O0 S3 1.554653 1_545
O1 S4 1.554653 1_455
O2 S5 1.554653 1_554
O3 S0 1.554653 1_565
O4 S1 1.554653 1_655
O5 S2 1.554653 1_556
O6 S2 1.550360 1_556
O7 S0 1.550360 1_565
O8 S1 1.550360 1_655
O9 S5 1.550360 1_554
O10 S3 1.550360 1_545
O11 S4 1.550360 1_455
O12 S5 1.563437 1_555
O13 S4 1.563437 1_555
O14 S3 1.563437 1_555
O15 S2 1.563437 1_555
O16 S1 1.563437 1_555
O17 S0 1.563437 1_555
