# generated using pymatgen
data_Mn2Ni(BiO3)3
_symmetry_space_group_name_H-M   'P 1'
_cell_length_a   5.53495401
_cell_length_b   5.53495401
_cell_length_c   13.47238321
_cell_angle_alpha   89.95265100
_cell_angle_beta   89.95265100
_cell_angle_gamma   61.27790279
_symmetry_Int_Tables_number   1
_chemical_formula_structural   Mn2Ni(BiO3)3
_chemical_formula_sum   'Mn4 Ni2 Bi6 O18'
_cell_volume   361.95325546
_cell_formula_units_Z   2
loop_
 _symmetry_equiv_pos_site_id
 _symmetry_equiv_pos_as_xyz
  1  'x, y, z'
loop_
 _atom_site_type_symbol
 _atom_site_label
 _atom_site_symmetry_multiplicity
 _atom_site_fract_x
 _atom_site_fract_y
 _atom_site_fract_z
 _atom_site_occupancy
  Mn  Mn0  1  0.83254000  0.83807400  0.66729300  1
  Mn  Mn1  1  0.16746000  0.16192600  0.33270700  1
  Mn  Mn2  1  0.83807400  0.83254000  0.16729300  1
  Mn  Mn3  1  0.16192600  0.16746000  0.83270700  1
  Ni  Ni0  1  0.50000000  0.50000000  0.00000000  1
  Ni  Ni1  1  0.50000000  0.50000000  0.50000000  1
  Bi  Bi0  1  0.19664800  0.14451900  0.07871000  1
  Bi  Bi1  1  0.52635000  0.47365000  0.75000000  1
  Bi  Bi2  1  0.85548100  0.80335200  0.42129000  1
  Bi  Bi3  1  0.47365000  0.52635000  0.25000000  1
  Bi  Bi4  1  0.80335200  0.85548100  0.92129000  1
  Bi  Bi5  1  0.14451900  0.19664800  0.57871000  1
  O  O0  1  0.23357300  0.41287700  0.91413000  1
  O  O1  1  0.58712300  0.76642700  0.58587000  1
  O  O2  1  0.90706600  0.09293400  0.25000000  1
  O  O3  1  0.41287700  0.23357300  0.41413000  1
  O  O4  1  0.76642700  0.58712300  0.08587000  1
  O  O5  1  0.09293400  0.90706600  0.75000000  1
  O  O6  1  0.20554500  0.70935900  0.10427500  1
  O  O7  1  0.53574300  0.03743500  0.76868200  1
  O  O8  1  0.87318500  0.36965000  0.43430400  1
  O  O9  1  0.63035000  0.12681500  0.06569600  1
  O  O10  1  0.96256500  0.46425700  0.73131800  1
  O  O11  1  0.29064100  0.79445500  0.39572500  1
  O  O12  1  0.03743500  0.53574300  0.26868200  1
  O  O13  1  0.36965000  0.87318500  0.93430400  1
  O  O14  1  0.70935900  0.20554500  0.60427500  1
  O  O15  1  0.46425700  0.96256500  0.23131800  1
  O  O16  1  0.79445500  0.29064100  0.89572500  1
  O  O17  1  0.12681500  0.63035000  0.56569600  1
loop_
_geom_bond_atom_site_label_1
_geom_bond_atom_site_label_2
_geom_bond_distance
_geom_bond_site_symmetry_2
Mn0 O1 1.930461 1_555
Mn0 O14 1.996954 1_565
Mn0 O5 1.999247 1_655
Mn0 O7 2.009635 1_565
Mn0 O17 2.011815 1_655
Mn0 O10 2.027283 1_555
Mn1 O3 1.930461 1_555
Mn1 O11 1.996954 1_545
Mn1 O2 1.999247 1_455
Mn1 O15 2.009635 1_545
Mn1 O8 2.011815 1_455
Mn1 O12 2.027283 1_555
Mn2 O4 1.930461 1_555
Mn2 O6 1.996954 1_655
Mn2 O2 1.999247 1_565
Mn2 O12 2.009635 1_655
Mn2 O9 2.011815 1_565
Mn2 O15 2.027283 1_555
Mn3 O0 1.930461 1_555
Mn3 O16 1.996954 1_455
Mn3 O5 1.999247 1_545
Mn3 O10 2.009635 1_455
Mn3 O13 2.011815 1_545
Mn3 O7 2.027283 1_555
Ni0 O9 2.033754 1_555
Ni0 O13 2.033754 1_554
Ni0 O6 2.038706 1_555
Ni0 O16 2.038706 1_554
Ni0 O0 2.105405 1_554
Ni0 O4 2.105405 1_555
Ni1 O17 2.033754 1_555
Ni1 O8 2.033754 1_555
Ni1 O11 2.038706 1_555
Ni1 O14 2.038706 1_555
Ni1 O3 2.105405 1_555
Ni1 O1 2.105405 1_555
Bi0 O9 2.361375 1_555
Bi0 O13 2.361547 1_544
Bi0 O6 2.409776 1_545
Bi0 O15 2.450145 1_545
Bi0 O4 2.464626 1_455
Bi0 O0 2.729462 1_554
Bi1 O16 2.374736 1_555
Bi1 O14 2.374736 1_555
Bi1 O10 2.402893 1_555
Bi1 O7 2.402893 1_555
Bi1 O5 2.445124 1_555
Bi2 O8 2.361375 1_555
Bi2 O17 2.361547 1_655
Bi2 O11 2.409776 1_655
Bi2 O12 2.450145 1_655
Bi2 O3 2.464626 1_565
Bi2 O1 2.729462 1_555
Bi3 O11 2.374736 1_555
Bi3 O6 2.374736 1_555
Bi3 O15 2.402893 1_555
Bi3 O12 2.402893 1_555
Bi3 O2 2.445124 1_555
Bi4 O13 2.361375 1_555
Bi4 O9 2.361547 1_566
Bi4 O16 2.409776 1_565
Bi4 O7 2.450145 1_565
Bi4 O0 2.464626 1_655
Bi4 O4 2.729462 1_556
Bi5 O17 2.361375 1_555
Bi5 O8 2.361547 1_455
Bi5 O14 2.409776 1_455
Bi5 O10 2.450145 1_455
Bi5 O1 2.464626 1_545
Bi5 O3 2.729462 1_555
