# generated using pymatgen
data_SrMg30CrO32
_symmetry_space_group_name_H-M   'P 1'
_cell_length_a   8.58601400
_cell_length_b   8.58601400
_cell_length_c   8.65350500
_cell_angle_alpha   90.00000000
_cell_angle_beta   90.00000000
_cell_angle_gamma   90.00000000
_symmetry_Int_Tables_number   1
_chemical_formula_structural   SrMg30CrO32
_chemical_formula_sum   'Sr1 Mg30 Cr1 O32'
_cell_volume   637.93324226
_cell_formula_units_Z   1
loop_
 _symmetry_equiv_pos_site_id
 _symmetry_equiv_pos_as_xyz
  1  'x, y, z'
loop_
 _atom_site_type_symbol
 _atom_site_label
 _atom_site_symmetry_multiplicity
 _atom_site_fract_x
 _atom_site_fract_y
 _atom_site_fract_z
 _atom_site_occupancy
  Sr  Sr0  1  0.00000000  0.00000000  0.00000000  1
  Mg  Mg0  1  0.00000000  0.50000000  0.00000000  1
  Mg  Mg1  1  0.50000000  0.00000000  0.00000000  1
  Mg  Mg2  1  0.00000000  0.00000000  0.50000000  1
  Mg  Mg3  1  0.00000000  0.50000000  0.50000000  1
  Mg  Mg4  1  0.50000000  0.00000000  0.50000000  1
  Mg  Mg5  1  0.50000000  0.50000000  0.50000000  1
  Mg  Mg6  1  0.25406400  0.25406400  0.00000000  1
  Mg  Mg7  1  0.25406400  0.74593600  0.00000000  1
  Mg  Mg8  1  0.74593600  0.25406400  0.00000000  1
  Mg  Mg9  1  0.74593600  0.74593600  0.00000000  1
  Mg  Mg10  1  0.25039800  0.25039800  0.50000000  1
  Mg  Mg11  1  0.25039800  0.74960200  0.50000000  1
  Mg  Mg12  1  0.74960200  0.25039800  0.50000000  1
  Mg  Mg13  1  0.74960200  0.74960200  0.50000000  1
  Mg  Mg14  1  0.00000000  0.25502300  0.25526700  1
  Mg  Mg15  1  0.00000000  0.74497700  0.25526700  1
  Mg  Mg16  1  0.50000000  0.25073800  0.25190600  1
  Mg  Mg17  1  0.50000000  0.74926200  0.25190600  1
  Mg  Mg18  1  0.00000000  0.25502300  0.74473300  1
  Mg  Mg19  1  0.00000000  0.74497700  0.74473300  1
  Mg  Mg20  1  0.50000000  0.25073800  0.74809400  1
  Mg  Mg21  1  0.50000000  0.74926200  0.74809400  1
  Mg  Mg22  1  0.25502300  0.00000000  0.25526700  1
  Mg  Mg23  1  0.25073800  0.50000000  0.25190600  1
  Mg  Mg24  1  0.74497700  0.00000000  0.25526700  1
  Mg  Mg25  1  0.74926200  0.50000000  0.25190600  1
  Mg  Mg26  1  0.25502300  0.00000000  0.74473300  1
  Mg  Mg27  1  0.25073800  0.50000000  0.74809400  1
  Mg  Mg28  1  0.74497700  0.00000000  0.74473300  1
  Mg  Mg29  1  0.74926200  0.50000000  0.74809400  1
  Cr  Cr0  1  0.50000000  0.50000000  0.00000000  1
  O  O0  1  0.00000000  0.00000000  0.26983300  1
  O  O1  1  0.00000000  0.50000000  0.25306800  1
  O  O2  1  0.50000000  0.00000000  0.25306800  1
  O  O3  1  0.50000000  0.50000000  0.26440400  1
  O  O4  1  0.00000000  0.00000000  0.73016700  1
  O  O5  1  0.00000000  0.50000000  0.74693200  1
  O  O6  1  0.50000000  0.00000000  0.74693200  1
  O  O7  1  0.50000000  0.50000000  0.73559600  1
  O  O8  1  0.24959700  0.24959700  0.24887300  1
  O  O9  1  0.24959700  0.75040300  0.24887300  1
  O  O10  1  0.75040300  0.24959700  0.24887300  1
  O  O11  1  0.75040300  0.75040300  0.24887300  1
  O  O12  1  0.24959700  0.24959700  0.75112700  1
  O  O13  1  0.24959700  0.75040300  0.75112700  1
  O  O14  1  0.75040300  0.24959700  0.75112700  1
  O  O15  1  0.75040300  0.75040300  0.75112700  1
  O  O16  1  0.00000000  0.27013600  0.00000000  1
  O  O17  1  0.00000000  0.72986400  0.00000000  1
  O  O18  1  0.50000000  0.25195700  0.00000000  1
  O  O19  1  0.50000000  0.74804300  0.00000000  1
  O  O20  1  0.00000000  0.25319300  0.50000000  1
  O  O21  1  0.00000000  0.74680700  0.50000000  1
  O  O22  1  0.50000000  0.24840400  0.50000000  1
  O  O23  1  0.50000000  0.75159600  0.50000000  1
  O  O24  1  0.27013600  0.00000000  0.00000000  1
  O  O25  1  0.25195700  0.50000000  0.00000000  1
  O  O26  1  0.72986400  0.00000000  0.00000000  1
  O  O27  1  0.74804300  0.50000000  0.00000000  1
  O  O28  1  0.25319300  0.00000000  0.50000000  1
  O  O29  1  0.24840400  0.50000000  0.50000000  1
  O  O30  1  0.74680700  0.00000000  0.50000000  1
  O  O31  1  0.75159600  0.50000000  0.50000000  1
loop_
_geom_bond_atom_site_label_1
_geom_bond_atom_site_label_2
_geom_bond_distance
_geom_bond_site_symmetry_2
Mg0 O17 1.973616 1_555
Mg0 O16 1.973616 1_555
Mg0 O27 2.163306 1_455
Mg0 O25 2.163306 1_555
Mg0 O5 2.189925 1_554
Mg0 O1 2.189925 1_555
Mg1 O26 1.973616 1_555
Mg1 O24 1.973616 1_555
Mg1 O19 2.163306 1_545
Mg1 O18 2.163306 1_555
Mg1 O6 2.189925 1_554
Mg1 O2 2.189925 1_555
Mg2 O0 1.991751 1_555
Mg2 O4 1.991751 1_555
Mg2 O21 2.173919 1_545
Mg2 O20 2.173919 1_555
Mg2 O28 2.173919 1_555
Mg2 O30 2.173919 1_455
Mg3 O21 2.119088 1_555
Mg3 O20 2.119088 1_555
Mg3 O31 2.132800 1_455
Mg3 O29 2.132800 1_555
Mg3 O1 2.136827 1_555
Mg3 O5 2.136827 1_555
Mg4 O30 2.119088 1_555
Mg4 O28 2.119088 1_555
Mg4 O23 2.132800 1_545
Mg4 O22 2.132800 1_555
Mg4 O2 2.136827 1_555
Mg4 O6 2.136827 1_555
Mg5 O3 2.038731 1_555
Mg5 O7 2.038731 1_555
Mg5 O29 2.160207 1_555
Mg5 O22 2.160207 1_555
Mg5 O23 2.160207 1_555
Mg5 O31 2.160207 1_555
Mg6 O25 2.111687 1_555
Mg6 O18 2.111687 1_555
Mg6 O8 2.154307 1_555
Mg6 O12 2.154307 1_554
Mg6 O16 2.185757 1_555
Mg6 O24 2.185757 1_555
Mg7 O19 2.111687 1_555
Mg7 O25 2.111687 1_555
Mg7 O9 2.154307 1_555
Mg7 O13 2.154307 1_554
Mg7 O24 2.185757 1_565
Mg7 O17 2.185757 1_555
Mg8 O27 2.111687 1_555
Mg8 O18 2.111687 1_555
Mg8 O14 2.154307 1_554
Mg8 O10 2.154307 1_555
Mg8 O16 2.185757 1_655
Mg8 O26 2.185757 1_555
Mg9 O19 2.111687 1_555
Mg9 O27 2.111687 1_555
Mg9 O15 2.154307 1_554
Mg9 O11 2.154307 1_555
Mg9 O26 2.185757 1_565
Mg9 O17 2.185757 1_655
Mg10 O22 2.143155 1_555
Mg10 O29 2.143155 1_555
Mg10 O28 2.150055 1_555
Mg10 O20 2.150055 1_555
Mg10 O12 2.173151 1_555
Mg10 O8 2.173151 1_555
Mg11 O23 2.143155 1_555
Mg11 O29 2.143155 1_555
Mg11 O28 2.150055 1_565
Mg11 O21 2.150055 1_555
Mg11 O9 2.173151 1_555
Mg11 O13 2.173151 1_555
Mg12 O22 2.143155 1_555
Mg12 O31 2.143155 1_555
Mg12 O30 2.150055 1_555
Mg12 O20 2.150055 1_655
Mg12 O10 2.173151 1_555
Mg12 O14 2.173151 1_555
Mg13 O23 2.143155 1_555
Mg13 O31 2.143155 1_555
Mg13 O30 2.150055 1_565
Mg13 O21 2.150055 1_655
Mg13 O15 2.173151 1_555
Mg13 O11 2.173151 1_555
Mg14 O1 2.103462 1_555
Mg14 O20 2.117857 1_555
Mg14 O10 2.144264 1_455
Mg14 O8 2.144264 1_555
Mg14 O0 2.193256 1_555
Mg14 O16 2.212762 1_555
Mg15 O1 2.103462 1_555
Mg15 O21 2.117857 1_555
Mg15 O11 2.144264 1_455
Mg15 O9 2.144264 1_555
Mg15 O0 2.193256 1_565
Mg15 O17 2.212762 1_555
Mg16 O3 2.142898 1_555
Mg16 O22 2.146976 1_555
Mg16 O8 2.150146 1_555
Mg16 O10 2.150146 1_555
Mg16 O2 2.152863 1_555
Mg16 O18 2.179895 1_555
Mg17 O3 2.142898 1_555
Mg17 O23 2.146976 1_555
Mg17 O9 2.150146 1_555
Mg17 O11 2.150146 1_555
Mg17 O2 2.152863 1_565
Mg17 O19 2.179895 1_555
Mg18 O5 2.103462 1_555
Mg18 O20 2.117857 1_555
Mg18 O14 2.144264 1_455
Mg18 O12 2.144264 1_555
Mg18 O4 2.193256 1_555
Mg18 O16 2.212762 1_556
Mg19 O5 2.103462 1_555
Mg19 O21 2.117857 1_555
Mg19 O15 2.144264 1_455
Mg19 O13 2.144264 1_555
Mg19 O4 2.193256 1_565
Mg19 O17 2.212762 1_556
Mg20 O7 2.142898 1_555
Mg20 O22 2.146976 1_555
Mg20 O12 2.150146 1_555
Mg20 O14 2.150146 1_555
Mg20 O6 2.152863 1_555
Mg20 O18 2.179895 1_556
Mg21 O7 2.142898 1_555
Mg21 O23 2.146976 1_555
Mg21 O13 2.150146 1_555
Mg21 O15 2.150146 1_555
Mg21 O6 2.152863 1_565
Mg21 O19 2.179895 1_556
Mg22 O2 2.103462 1_555
Mg22 O28 2.117857 1_555
Mg22 O9 2.144264 1_545
Mg22 O8 2.144264 1_555
Mg22 O0 2.193256 1_555
Mg22 O24 2.212762 1_555
Mg23 O3 2.142898 1_555
Mg23 O29 2.146976 1_555
Mg23 O8 2.150146 1_555
Mg23 O9 2.150146 1_555
Mg23 O1 2.152863 1_555
Mg23 O25 2.179895 1_555
Mg24 O2 2.103462 1_555
Mg24 O30 2.117857 1_555
Mg24 O11 2.144264 1_545
Mg24 O10 2.144264 1_555
Mg24 O0 2.193256 1_655
Mg24 O26 2.212762 1_555
Mg25 O3 2.142898 1_555
Mg25 O31 2.146976 1_555
Mg25 O11 2.150146 1_555
Mg25 O10 2.150146 1_555
Mg25 O1 2.152863 1_655
Mg25 O27 2.179895 1_555
Mg26 O6 2.103462 1_555
Mg26 O28 2.117857 1_555
Mg26 O13 2.144264 1_545
Mg26 O12 2.144264 1_555
Mg26 O4 2.193256 1_555
Mg26 O24 2.212762 1_556
Mg27 O7 2.142898 1_555
Mg27 O29 2.146976 1_555
Mg27 O12 2.150146 1_555
Mg27 O13 2.150146 1_555
Mg27 O5 2.152863 1_555
Mg27 O25 2.179895 1_556
Mg28 O6 2.103462 1_555
Mg28 O30 2.117857 1_555
Mg28 O15 2.144264 1_545
Mg28 O14 2.144264 1_555
Mg28 O4 2.193256 1_655
Mg28 O26 2.212762 1_556
Mg29 O7 2.142898 1_555
Mg29 O31 2.146976 1_555
Mg29 O14 2.150146 1_555
Mg29 O15 2.150146 1_555
Mg29 O5 2.152863 1_655
Mg29 O27 2.179895 1_556
Cr0 O18 2.129701 1_555
Cr0 O19 2.129701 1_555
Cr0 O27 2.129701 1_555
Cr0 O25 2.129701 1_555
Cr0 O7 2.288021 1_554
Cr0 O3 2.288021 1_555
O0 Sr0 2.335001 1_555
O4 Sr0 2.335001 1_556
O16 Sr0 2.319391 1_555
O17 Sr0 2.319391 1_565
O24 Sr0 2.319391 1_555
O26 Sr0 2.319391 1_655
