# generated using pymatgen
data_CdIn2O4
_symmetry_space_group_name_H-M   'P 1'
_cell_length_a   6.52096505
_cell_length_b   6.52096455
_cell_length_c   6.52096516
_cell_angle_alpha   60.00000703
_cell_angle_beta   60.00000960
_cell_angle_gamma   59.99999800
_symmetry_Int_Tables_number   1
_chemical_formula_structural   CdIn2O4
_chemical_formula_sum   'Cd2 In4 O8'
_cell_volume   196.07428585
_cell_formula_units_Z   2
loop_
 _symmetry_equiv_pos_site_id
 _symmetry_equiv_pos_as_xyz
  1  'x, y, z'
loop_
 _atom_site_type_symbol
 _atom_site_label
 _atom_site_symmetry_multiplicity
 _atom_site_fract_x
 _atom_site_fract_y
 _atom_site_fract_z
 _atom_site_occupancy
  Cd  Cd0  1  0.12500000  0.12500000  0.12500000  1
  Cd  Cd1  1  0.87500000  0.87500000  0.87500000  1
  In  In0  1  0.50000000  0.50000000  -0.00000000  1
  In  In1  1  0.50000000  0.50000000  0.50000000  1
  In  In2  1  -0.00000000  0.50000000  0.50000000  1
  In  In3  1  0.50000000  0.00000000  0.50000000  1
  O  O0  1  0.73674591  0.73674591  0.73674591  1
  O  O1  1  0.26325409  0.26325409  0.71023772  1
  O  O2  1  0.26325409  0.71023772  0.26325409  1
  O  O3  1  0.71023772  0.26325409  0.26325409  1
  O  O4  1  0.73674591  0.28976228  0.73674591  1
  O  O5  1  0.28976228  0.73674591  0.73674591  1
  O  O6  1  0.26325409  0.26325409  0.26325409  1
  O  O7  1  0.73674591  0.73674591  0.28976228  1
loop_
_geom_bond_atom_site_label_1
_geom_bond_atom_site_label_2
_geom_bond_distance
_geom_bond_site_symmetry_2
Cd0 O6 2.208338 1_555
Cd0 O2 2.208338 1_545
Cd0 O3 2.208338 1_455
Cd0 O1 2.208338 1_554
Cd1 O0 2.208338 1_555
Cd1 O4 2.208338 1_565
Cd1 O5 2.208338 1_655
Cd1 O7 2.208338 1_556
In0 O3 2.190112 1_555
In0 O5 2.190112 1_554
In0 O2 2.190112 1_555
In0 O4 2.190112 1_554
In0 O0 2.190112 1_554
In0 O6 2.190112 1_555
In1 O5 2.190112 1_555
In1 O3 2.190112 1_555
In1 O2 2.190112 1_555
In1 O4 2.190112 1_555
In1 O7 2.190112 1_555
In1 O1 2.190112 1_555
In2 O1 2.190112 1_555
In2 O7 2.190112 1_455
In2 O0 2.190112 1_455
In2 O6 2.190112 1_555
In2 O2 2.190112 1_555
In2 O4 2.190112 1_455
In3 O7 2.190112 1_545
In3 O1 2.190112 1_555
In3 O6 2.190112 1_555
In3 O0 2.190112 1_545
In3 O3 2.190112 1_555
In3 O5 2.190112 1_545
