# generated using pymatgen
data_VWN3
_symmetry_space_group_name_H-M   'P 1'
_cell_length_a   5.39286940
_cell_length_b   8.75792808
_cell_length_c   9.45694336
_cell_angle_alpha   103.12747659
_cell_angle_beta   136.36781991
_cell_angle_gamma   87.75688258
_symmetry_Int_Tables_number   1
_chemical_formula_structural   VWN3
_chemical_formula_sum   'V4 W4 N12'
_cell_volume   294.89011881
_cell_formula_units_Z   4
loop_
 _symmetry_equiv_pos_site_id
 _symmetry_equiv_pos_as_xyz
  1  'x, y, z'
loop_
 _atom_site_type_symbol
 _atom_site_label
 _atom_site_symmetry_multiplicity
 _atom_site_fract_x
 _atom_site_fract_y
 _atom_site_fract_z
 _atom_site_occupancy
  V  V0  1  0.21450300  0.28718000  0.51351400  1
  V  V1  1  0.78549700  0.71282000  0.48648600  1
  V  V2  1  0.11205100  0.93015200  0.41635800  1
  V  V3  1  0.88794900  0.06984800  0.58364200  1
  W  W0  1  0.86128800  0.08970600  0.11197100  1
  W  W1  1  0.13871200  0.91029400  0.88802900  1
  W  W2  1  0.51514900  0.32413100  0.26122200  1
  W  W3  1  0.48485100  0.67586900  0.73877800  1
  N  N0  1  0.35721800  0.11289400  0.45520600  1
  N  N1  1  0.64278200  0.88710600  0.54479400  1
  N  N2  1  0.88748700  0.85148800  0.95032100  1
  N  N3  1  0.11251300  0.14851200  0.04967900  1
  N  N4  1  0.66314700  0.92607600  0.16049200  1
  N  N5  1  0.33685300  0.07392400  0.83950800  1
  N  N6  1  0.13104500  0.73341000  0.47945900  1
  N  N7  1  0.86895500  0.26659000  0.52054100  1
  N  N8  1  0.81430200  0.29511200  0.22038000  1
  N  N9  1  0.18569800  0.70488800  0.77962000  1
  N  N10  1  0.44945900  0.53278300  0.29778300  1
  N  N11  1  0.55054100  0.46721700  0.70221700  1
loop_
_geom_bond_atom_site_label_1
_geom_bond_atom_site_label_2
_geom_bond_distance
_geom_bond_site_symmetry_2
N0 V0 1.834753 1_555
N0 V2 1.907851 1_545
N0 V3 2.213721 1_555
N0 W0 2.215108 1_455
N1 V1 1.834753 1_555
N1 V3 1.907851 1_565
N1 V2 2.213721 1_555
N1 W1 2.215108 1_655
N2 W3 1.912663 1_555
N2 W1 1.948225 1_655
N2 W0 2.355934 1_566
N3 W2 1.912663 1_555
N3 W0 1.948225 1_455
N3 W1 2.355934 1_544
N4 V2 1.790210 1_655
N4 W1 1.994233 1_554
N4 W0 2.129398 1_565
N5 V3 1.790210 1_455
N5 W0 1.994233 1_556
N5 W1 2.129398 1_545
N6 W3 1.902967 1_555
N6 V2 1.923606 1_555
N6 V1 1.928875 1_455
N7 W2 1.902967 1_555
N7 V3 1.923606 1_555
N7 V0 1.928875 1_655
N8 W2 1.908353 1_555
N8 V0 1.939749 1_655
N8 W0 1.963173 1_555
N9 W3 1.908353 1_555
N9 V1 1.939749 1_455
N9 W1 1.963173 1_555
N10 V1 1.794160 1_555
N10 W2 1.850385 1_555
N11 V0 1.794160 1_555
N11 W3 1.850385 1_555
