# generated using pymatgen
data_Bi3P3O14
_symmetry_space_group_name_H-M   'P 1'
_cell_length_a   7.03622778
_cell_length_b   7.03622778
_cell_length_c   6.51455283
_cell_angle_alpha   89.73468743
_cell_angle_beta   89.73468743
_cell_angle_gamma   60.74657466
_symmetry_Int_Tables_number   1
_chemical_formula_structural   Bi3P3O14
_chemical_formula_sum   'Bi3 P3 O14'
_cell_volume   281.38895191
_cell_formula_units_Z   1
loop_
 _symmetry_equiv_pos_site_id
 _symmetry_equiv_pos_as_xyz
  1  'x, y, z'
loop_
 _atom_site_type_symbol
 _atom_site_label
 _atom_site_symmetry_multiplicity
 _atom_site_fract_x
 _atom_site_fract_y
 _atom_site_fract_z
 _atom_site_occupancy
  Bi  Bi0  1  0.00301400  0.52783100  0.66420200  1
  Bi  Bi1  1  0.47216900  0.99698600  0.33579800  1
  Bi  Bi2  1  0.52859100  0.47140900  0.00000000  1
  P  P0  1  0.99908300  0.56450900  0.16615800  1
  P  P1  1  0.43549100  0.00091700  0.83384200  1
  P  P2  1  0.56606000  0.43394000  0.50000000  1
  O  O0  1  0.12497700  0.37628500  0.32389000  1
  O  O1  1  0.49426400  0.12508000  0.99557500  1
  O  O2  1  0.38080300  0.49319900  0.66154700  1
  O  O3  1  0.62371500  0.87502300  0.67611000  1
  O  O4  1  0.50680100  0.61919700  0.33845300  1
  O  O5  1  0.87492000  0.50573600  0.00442500  1
  O  O6  1  0.16066900  0.60915800  0.03757300  1
  O  O7  1  0.23716100  0.15520800  0.70078200  1
  O  O8  1  0.60698600  0.23429300  0.36938500  1
  O  O9  1  0.39084200  0.83933100  0.96242700  1
  O  O10  1  0.76570700  0.39301400  0.63061500  1
  O  O11  1  0.84479200  0.76283900  0.29921800  1
  O  O12  1  0.08812900  0.02009200  0.24634700  1
  O  O13  1  0.97990800  0.91187100  0.75365300  1
loop_
_geom_bond_atom_site_label_1
_geom_bond_atom_site_label_2
_geom_bond_distance
_geom_bond_site_symmetry_2
Bi0 O10 2.299810 1_455
Bi0 O7 2.328388 1_555
Bi0 O5 2.421610 1_456
Bi0 O0 2.428662 1_555
Bi0 O2 2.547998 1_555
Bi0 O3 2.593133 1_455
Bi0 O13 2.692990 1_455
Bi0 O11 2.795729 1_455
Bi0 O6 2.851766 1_556
Bi1 O8 2.299810 1_565
Bi1 O11 2.328388 1_555
Bi1 O1 2.421610 1_564
Bi1 O3 2.428662 1_555
Bi1 O4 2.547998 1_555
Bi1 O0 2.593133 1_565
Bi1 O12 2.692990 1_565
Bi1 O7 2.795729 1_565
Bi1 O9 2.851766 1_554
Bi2 O9 2.290231 1_554
Bi2 O6 2.290231 1_555
Bi2 O2 2.414243 1_554
Bi2 O4 2.414243 1_555
Bi2 O5 2.563858 1_555
Bi2 O1 2.563858 1_554
O0 P0 1.563259 1_455
O1 P1 1.552428 1_555
O2 P2 1.562279 1_555
O3 P1 1.563259 1_565
O4 P2 1.562279 1_555
O5 P0 1.552428 1_555
O6 P0 1.559135 1_455
O7 P1 1.548935 1_555
O8 P2 1.547175 1_555
O9 P1 1.559135 1_565
O10 P2 1.547175 1_555
O11 P0 1.548935 1_555
