# generated using pymatgen
data_AlFe4Hg2O2F
_symmetry_space_group_name_H-M   'P 1'
_cell_length_a   8.46175971
_cell_length_b   8.46175971
_cell_length_c   8.46175971
_cell_angle_alpha   107.61007284
_cell_angle_beta   107.61007284
_cell_angle_gamma   113.26130145
_symmetry_Int_Tables_number   1
_chemical_formula_structural   AlFe4Hg2O2F
_chemical_formula_sum   'Al2 Fe8 Hg4 O4 F2'
_cell_volume   464.86037269
_cell_formula_units_Z   2
loop_
 _symmetry_equiv_pos_site_id
 _symmetry_equiv_pos_as_xyz
  1  'x, y, z'
loop_
 _atom_site_type_symbol
 _atom_site_label
 _atom_site_symmetry_multiplicity
 _atom_site_fract_x
 _atom_site_fract_y
 _atom_site_fract_z
 _atom_site_occupancy
  Al  Al0  1  0.66027800  0.66027800  0.00000000  1
  Al  Al1  1  0.16027800  0.16027800  0.00000000  1
  Fe  Fe0  1  0.58856500  0.76986700  0.73936500  1
  Fe  Fe1  1  0.03050200  0.84920100  0.26063500  1
  Fe  Fe2  1  0.76986700  0.03050200  0.18130100  1
  Fe  Fe3  1  0.53050200  0.26986700  0.18130100  1
  Fe  Fe4  1  0.84920100  0.58856500  0.81869900  1
  Fe  Fe5  1  0.08856500  0.34920100  0.81869900  1
  Fe  Fe6  1  0.34920100  0.53050200  0.26063500  1
  Fe  Fe7  1  0.26986700  0.08856500  0.73936500  1
  Hg  Hg0  1  0.36607700  0.86607700  0.19628900  1
  Hg  Hg1  1  0.66978900  0.16978900  0.80371100  1
  Hg  Hg2  1  0.86607700  0.66978900  0.50000000  1
  Hg  Hg3  1  0.16978900  0.36607700  0.50000000  1
  O  O0  1  0.72628100  0.22628100  0.17318800  1
  O  O1  1  0.05309300  0.55309300  0.82681200  1
  O  O2  1  0.22628100  0.05309300  0.50000000  1
  O  O3  1  0.55309300  0.72628100  0.50000000  1
  F  F0  1  0.97244800  0.97244800  0.00000000  1
  F  F1  1  0.47244800  0.47244800  0.00000000  1
loop_
_geom_bond_atom_site_label_1
_geom_bond_atom_site_label_2
_geom_bond_distance
_geom_bond_site_symmetry_2
Al0 F1 1.748418 1_555
Al1 F0 1.748418 1_445
Fe0 O3 1.849667 1_555
Fe1 O2 1.849665 1_565
Fe2 O0 1.849665 1_555
Fe3 O0 1.849665 1_555
Fe4 O1 1.849661 1_655
Fe5 O1 1.849661 1_555
Fe6 O3 1.849665 1_555
Fe7 O2 1.849667 1_555
