# generated using pymatgen
data_Li2VFe(P2O7)2
_symmetry_space_group_name_H-M   'P 1'
_cell_length_a   8.24585200
_cell_length_b   7.03946300
_cell_length_c   9.76219622
_cell_angle_alpha   71.07763694
_cell_angle_beta   90.00000000
_cell_angle_gamma   90.00000000
_symmetry_Int_Tables_number   1
_chemical_formula_structural   Li2VFe(P2O7)2
_chemical_formula_sum   'Li4 V2 Fe2 P8 O28'
_cell_volume   536.03709860
_cell_formula_units_Z   2
loop_
 _symmetry_equiv_pos_site_id
 _symmetry_equiv_pos_as_xyz
  1  'x, y, z'
loop_
 _atom_site_type_symbol
 _atom_site_label
 _atom_site_symmetry_multiplicity
 _atom_site_fract_x
 _atom_site_fract_y
 _atom_site_fract_z
 _atom_site_occupancy
  Li  Li0  1  0.86364100  0.67706100  0.91215800  1
  Li  Li1  1  0.36345800  0.32247700  0.58770100  1
  Li  Li2  1  0.86345800  0.67752300  0.41229900  1
  Li  Li3  1  0.36364100  0.32293900  0.08784200  1
  V  V0  1  0.99917700  0.27149000  0.60778200  1
  V  V1  1  0.49917700  0.72851000  0.39221800  1
  Fe  Fe0  1  0.49910800  0.73149700  0.89149800  1
  Fe  Fe1  1  0.99910800  0.26850300  0.10850200  1
  P  P0  1  0.18026700  0.52224300  0.80017800  1
  P  P1  1  0.78341400  0.08554200  0.89431800  1
  P  P2  1  0.28386300  0.91473300  0.60576700  1
  P  P3  1  0.68031200  0.47858900  0.70042200  1
  P  P4  1  0.18031200  0.52141100  0.29957800  1
  P  P5  1  0.78386300  0.08526700  0.39423300  1
  P  P6  1  0.28341400  0.91445800  0.10568200  1
  P  P7  1  0.68026700  0.47775700  0.19982200  1
  O  O0  1  0.32391900  0.85290800  0.97388900  1
  O  O1  1  0.69405500  0.88344300  0.93495400  1
  O  O2  1  0.03737200  0.48245300  0.90610000  1
  O  O3  1  0.34532000  0.50695600  0.87656500  1
  O  O4  1  0.67848000  0.60579900  0.80151800  1
  O  O5  1  0.43382200  0.91673100  0.69900700  1
  O  O6  1  0.15328800  0.75364100  0.70253200  1
  O  O7  1  0.65296100  0.24612200  0.79732000  1
  O  O8  1  0.93363500  0.08110400  0.80236300  1
  O  O9  1  0.17911400  0.39470500  0.69882600  1
  O  O10  1  0.84396400  0.49466300  0.62327500  1
  O  O11  1  0.53737000  0.51742100  0.59396700  1
  O  O12  1  0.32306300  0.85179500  0.47414100  1
  O  O13  1  0.69597700  0.88432200  0.43559900  1
  O  O14  1  0.19597700  0.11567800  0.56440100  1
  O  O15  1  0.82306300  0.14820500  0.52585900  1
  O  O16  1  0.03737000  0.48257900  0.40603300  1
  O  O17  1  0.34396400  0.50533700  0.37672500  1
  O  O18  1  0.67911400  0.60529500  0.30117400  1
  O  O19  1  0.43363500  0.91889600  0.19763700  1
  O  O20  1  0.15296100  0.75387800  0.20268000  1
  O  O21  1  0.65328800  0.24635900  0.29746800  1
  O  O22  1  0.93382200  0.08326900  0.30099300  1
  O  O23  1  0.17848000  0.39420100  0.19848200  1
  O  O24  1  0.84532000  0.49304400  0.12343500  1
  O  O25  1  0.53737200  0.51754700  0.09390000  1
  O  O26  1  0.19405500  0.11655700  0.06504600  1
  O  O27  1  0.82391900  0.14709200  0.02611100  1
loop_
_geom_bond_atom_site_label_1
_geom_bond_atom_site_label_2
_geom_bond_distance
_geom_bond_site_symmetry_2
Li0 O2 1.996245 1_655
Li0 O4 2.025044 1_555
Li0 O24 2.054756 1_556
Li0 O1 2.079751 1_555
Li1 O11 1.999476 1_555
Li1 O9 2.025764 1_555
Li1 O17 2.050668 1_555
Li1 O14 2.071942 1_555
Li2 O16 1.999476 1_655
Li2 O18 2.025764 1_555
Li2 O10 2.050668 1_555
Li2 O13 2.071942 1_555
Li3 O25 1.996245 1_555
Li3 O23 2.025044 1_555
Li3 O3 2.054756 1_554
Li3 O26 2.079751 1_555
Fe0 O0 1.977384 1_555
Fe0 O5 1.982938 1_555
Fe0 O1 2.049980 1_555
Fe0 O4 2.060658 1_555
Fe0 O3 2.068153 1_555
Fe0 O25 2.083730 1_556
Fe1 O27 1.977384 1_555
Fe1 O22 1.982938 1_555
Fe1 O26 2.049980 1_655
Fe1 O23 2.060658 1_655
Fe1 O24 2.068153 1_555
Fe1 O2 2.083730 1_654
O0 P6 1.521889 1_556
O1 P1 1.535661 1_565
O2 P0 1.532383 1_555
O3 P0 1.538811 1_555
O4 P3 1.532754 1_555
O5 P2 1.538195 1_555
O6 P0 1.613833 1_555
O6 P2 1.625676 1_555
O7 P3 1.618528 1_555
O7 P1 1.623989 1_555
O8 P1 1.536026 1_555
O8 V0 2.011312 1_555
O9 P0 1.536622 1_555
O9 V0 2.060031 1_455
O10 P3 1.531583 1_555
O10 V0 2.069573 1_555
O11 P3 1.536154 1_555
O11 V1 2.070774 1_555
O12 P2 1.523525 1_555
O12 V1 1.987926 1_555
O13 P5 1.522732 1_565
O13 V1 2.077758 1_555
O14 P2 1.522732 1_545
O14 V0 2.077758 1_455
O15 P5 1.523525 1_555
O15 V0 1.987926 1_555
O16 P4 1.536154 1_555
O16 V0 2.070774 1_455
O17 P4 1.531583 1_555
O17 V1 2.069573 1_555
O18 P7 1.536622 1_555
O18 V1 2.060031 1_555
O19 P6 1.536026 1_555
O19 V1 2.011312 1_555
O20 P4 1.618528 1_555
O20 P6 1.623989 1_555
O21 P7 1.613833 1_555
O21 P5 1.625676 1_555
O22 P5 1.538195 1_555
O23 P4 1.532754 1_555
O24 P7 1.538811 1_555
O25 P7 1.532383 1_555
O26 P6 1.535661 1_545
O27 P1 1.521889 1_554
