# generated using pymatgen
data_CdTe
_symmetry_space_group_name_H-M   'P 1'
_cell_length_a   4.35575640
_cell_length_b   4.35575640
_cell_length_c   6.09065200
_cell_angle_alpha   90.00000000
_cell_angle_beta   90.00000000
_cell_angle_gamma   90.54539359
_symmetry_Int_Tables_number   1
_chemical_formula_structural   CdTe
_chemical_formula_sum   'Cd2 Te2'
_cell_volume   115.55035286
_cell_formula_units_Z   2
loop_
 _symmetry_equiv_pos_site_id
 _symmetry_equiv_pos_as_xyz
  1  'x, y, z'
loop_
 _atom_site_type_symbol
 _atom_site_label
 _atom_site_symmetry_multiplicity
 _atom_site_fract_x
 _atom_site_fract_y
 _atom_site_fract_z
 _atom_site_occupancy
  Cd  Cd0  1  0.27703000  0.72297000  0.75000000  1
  Cd  Cd1  1  0.72297000  0.27703000  0.25000000  1
  Te  Te0  1  0.76613700  0.23386300  0.75000000  1
  Te  Te1  1  0.23386300  0.76613700  0.25000000  1
loop_
_geom_bond_atom_site_label_1
_geom_bond_atom_site_label_2
_geom_bond_distance
_geom_bond_site_symmetry_2
Cd0 Te0 3.027190 1_555
Cd0 Te1 3.057023 1_556
Cd0 Te1 3.057023 1_555
Cd0 Te0 3.066032 1_565
Cd0 Te0 3.066032 1_455
Cd0 Te0 3.162028 1_465
Cd1 Te1 3.027190 1_555
Cd1 Te0 3.057023 1_554
Cd1 Te0 3.057023 1_555
Cd1 Te1 3.066032 1_655
Cd1 Te1 3.066032 1_545
Cd1 Te1 3.162028 1_645
