# generated using pymatgen
data_Mg2V2CuO8
_symmetry_space_group_name_H-M   'P 1'
_cell_length_a   6.25086025
_cell_length_b   6.47416683
_cell_length_c   8.21318800
_cell_angle_alpha   90.00000000
_cell_angle_beta   90.00000000
_cell_angle_gamma   115.95453941
_symmetry_Int_Tables_number   1
_chemical_formula_structural   Mg2V2CuO8
_chemical_formula_sum   'Mg4 V4 Cu2 O16'
_cell_volume   298.85706238
_cell_formula_units_Z   2
loop_
 _symmetry_equiv_pos_site_id
 _symmetry_equiv_pos_as_xyz
  1  'x, y, z'
loop_
 _atom_site_type_symbol
 _atom_site_label
 _atom_site_symmetry_multiplicity
 _atom_site_fract_x
 _atom_site_fract_y
 _atom_site_fract_z
 _atom_site_occupancy
  Mg  Mg0  1  0.38305000  0.77036100  0.25029500  1
  Mg  Mg1  1  0.11695000  0.22963900  0.75029500  1
  Mg  Mg2  1  0.61695000  0.22963900  0.74970500  1
  Mg  Mg3  1  0.88305000  0.77036100  0.24970500  1
  V  V0  1  0.36479800  0.25730200  0.37390000  1
  V  V1  1  0.13520200  0.74269800  0.87390000  1
  V  V2  1  0.63520200  0.74269800  0.62610000  1
  V  V3  1  0.86479800  0.25730200  0.12610000  1
  Cu  Cu0  1  0.00000000  0.50000000  0.50000000  1
  Cu  Cu1  1  0.50000000  0.50000000  0.00000000  1
  O  O0  1  0.49838600  0.49141400  0.76273200  1
  O  O1  1  0.00161400  0.50858600  0.26273200  1
  O  O2  1  0.50161400  0.50858600  0.23726800  1
  O  O3  1  0.99838600  0.49141400  0.73726800  1
  O  O4  1  0.25976100  0.00249800  0.76978000  1
  O  O5  1  0.24023900  0.99750200  0.26978000  1
  O  O6  1  0.74023900  0.99750200  0.23022000  1
  O  O7  1  0.75976100  0.00249800  0.73022000  1
  O  O8  1  0.41892900  0.74548500  0.50310300  1
  O  O9  1  0.08107100  0.25451500  0.00310300  1
  O  O10  1  0.58107100  0.25451500  0.49689700  1
  O  O11  1  0.91892900  0.74548500  0.99689700  1
  O  O12  1  0.35565100  0.72574400  0.99720800  1
  O  O13  1  0.14434900  0.27425600  0.49720800  1
  O  O14  1  0.64434900  0.27425600  0.00279200  1
  O  O15  1  0.85565100  0.72574400  0.50279200  1
loop_
_geom_bond_atom_site_label_1
_geom_bond_atom_site_label_2
_geom_bond_distance
_geom_bond_site_symmetry_2
Mg0 O5 2.033246 1_555
Mg0 O6 2.073849 1_555
Mg0 O12 2.095294 1_554
Mg0 O8 2.102171 1_555
Mg0 O2 2.128947 1_555
Mg0 O1 2.242894 1_555
Mg1 O4 2.033246 1_555
Mg1 O7 2.073849 1_455
Mg1 O13 2.095294 1_555
Mg1 O9 2.102171 1_556
Mg1 O3 2.128947 1_455
Mg1 O0 2.242894 1_555
Mg2 O7 2.033246 1_555
Mg2 O4 2.073849 1_555
Mg2 O14 2.095294 1_556
Mg2 O10 2.102171 1_555
Mg2 O0 2.128947 1_555
Mg2 O3 2.242894 1_555
Mg3 O6 2.033246 1_555
Mg3 O5 2.073849 1_655
Mg3 O15 2.095294 1_555
Mg3 O11 2.102171 1_554
Mg3 O1 2.128947 1_655
Mg3 O2 2.242894 1_555
Cu0 O3 1.949420 1_455
Cu0 O1 1.949420 1_555
Cu0 O13 2.026074 1_555
Cu0 O15 2.026074 1_455
Cu0 O10 2.396042 1_455
Cu0 O8 2.396042 1_555
Cu1 O2 1.949420 1_555
Cu1 O0 1.949420 1_554
Cu1 O14 2.026074 1_555
Cu1 O12 2.026074 1_554
Cu1 O11 2.396042 1_554
Cu1 O9 2.396042 1_555
O0 V2 1.849192 1_555
O1 V3 1.849192 1_455
O2 V0 1.849192 1_555
O3 V1 1.849192 1_655
O4 V1 1.737897 1_545
O5 V0 1.737897 1_565
O6 V3 1.737897 1_565
O7 V2 1.737897 1_545
O8 V2 1.694045 1_555
O9 V3 1.694045 1_455
O10 V0 1.694045 1_555
O11 V1 1.694045 1_655
O12 V1 1.751851 1_555
O13 V0 1.751851 1_555
O14 V3 1.751851 1_555
O15 V2 1.751851 1_555
