# generated using pymatgen
data_Mg5Si9
_symmetry_space_group_name_H-M   'P 1'
_cell_length_a   7.46090600
_cell_length_b   7.48789034
_cell_length_c   10.34289002
_cell_angle_alpha   102.75645009
_cell_angle_beta   89.92668852
_cell_angle_gamma   118.17699157
_symmetry_Int_Tables_number   1
_chemical_formula_structural   Mg5Si9
_chemical_formula_sum   'Mg10 Si18'
_cell_volume   493.19595437
_cell_formula_units_Z   2
loop_
 _symmetry_equiv_pos_site_id
 _symmetry_equiv_pos_as_xyz
  1  'x, y, z'
loop_
 _atom_site_type_symbol
 _atom_site_label
 _atom_site_symmetry_multiplicity
 _atom_site_fract_x
 _atom_site_fract_y
 _atom_site_fract_z
 _atom_site_occupancy
  Mg  Mg0  1  0.56926200  0.02698200  0.23585200  1
  Mg  Mg1  1  0.56800500  0.99023800  0.52823300  1
  Mg  Mg2  1  0.61102800  0.40291900  0.50204100  1
  Mg  Mg3  1  0.36664300  0.58434900  0.66342200  1
  Mg  Mg4  1  0.97806800  0.21859700  0.41240100  1
  Mg  Mg5  1  0.08376900  0.70262100  0.53093600  1
  Mg  Mg6  1  0.54709600  0.85051700  0.95243200  1
  Mg  Mg7  1  0.94278300  0.80495400  0.11866200  1
  Mg  Mg8  1  0.67135500  0.50851700  0.81936000  1
  Mg  Mg9  1  0.49278200  0.55020800  0.12211000  1
  Si  Si0  1  0.12420800  0.72312900  0.84241900  1
  Si  Si1  1  0.74418800  0.35068000  0.02766900  1
  Si  Si2  1  0.20108800  0.14181700  0.62562100  1
  Si  Si3  1  0.74012500  0.77538800  0.37122400  1
  Si  Si4  1  0.82949700  0.85563000  0.62486900  1
  Si  Si5  1  0.26173300  0.21848900  0.23047500  1
  Si  Si6  1  0.75321800  0.12150400  0.79026100  1
  Si  Si7  1  0.17009400  0.65312700  0.25248500  1
  Si  Si8  1  0.23552400  0.29804000  0.87291000  1
  Si  Si9  1  0.25505300  0.00609100  0.37944300  1
  Si  Si10  1  0.94049800  0.18575300  0.12090200  1
  Si  Si11  1  0.94283000  0.95523300  0.88303900  1
  Si  Si12  1  0.37841700  0.00233500  0.75105200  1
  Si  Si13  1  0.81315000  0.46202900  0.27800600  1
  Si  Si14  1  0.36297700  0.12690200  0.00104400  1
  Si  Si15  1  0.12628000  0.52868500  0.00893600  1
  Si  Si16  1  0.37011100  0.56450100  0.38556400  1
  Si  Si17  1  0.91989000  0.39088600  0.66890000  1
loop_
_geom_bond_atom_site_label_1
_geom_bond_atom_site_label_2
_geom_bond_distance
_geom_bond_site_symmetry_2
Mg0 Si9 2.733708 1_555
Mg0 Si13 2.808883 1_555
Mg0 Si10 2.829220 1_555
Mg0 Mg6 2.906999 1_544
Mg0 Si7 3.012227 1_545
Mg0 Si3 3.251472 1_545
Mg1 Si12 2.709359 1_565
Mg1 Si3 2.768823 1_555
Mg1 Si6 2.787637 1_565
Mg1 Si16 2.828965 1_555
Mg1 Si4 2.850993 1_555
Mg1 Si9 2.861078 1_565
Mg1 Si17 2.941678 1_565
Mg2 Si13 2.766390 1_555
Mg2 Si9 2.895288 1_555
Mg2 Si17 2.927741 1_555
Mg2 Si4 2.940611 1_555
Mg2 Si16 2.974748 1_555
Mg2 Si3 3.108562 1_555
Mg2 Si2 3.202668 1_555
Mg3 Si16 2.845456 1_555
Mg3 Si2 2.867480 1_555
Mg3 Si17 2.947466 1_455
Mg3 Si0 2.948898 1_555
Mg3 Si12 3.018751 1_565
Mg3 Mg6 3.092796 1_555
Mg3 Si4 3.152790 1_555
Mg4 Si17 2.811632 1_555
Mg4 Si5 2.830277 1_655
Mg4 Si3 2.856662 1_545
Mg4 Si16 2.915802 1_655
Mg4 Si10 2.972969 1_555
Mg4 Si2 3.071699 1_655
Mg4 Si9 3.127780 1_655
Mg4 Si13 3.163885 1_555
Mg5 Si4 2.722486 1_455
Mg5 Si17 2.784052 1_455
Mg5 Si9 2.841934 1_565
Mg5 Si12 2.854743 1_565
Mg5 Si2 2.898596 1_565
Mg5 Si7 2.931862 1_555
Mg5 Si13 2.943269 1_455
Mg5 Si16 3.047311 1_555
Mg5 Si0 3.199031 1_555
Mg6 Si6 2.800924 1_565
Mg6 Si11 2.811432 1_555
Mg6 Si14 2.940472 1_566
Mg6 Si0 2.974400 1_555
Mg6 Si10 3.012597 1_566
Mg6 Mg9 3.030024 1_556
Mg6 Si15 3.078680 1_556
Mg6 Si12 3.101266 1_565
Mg6 Mg8 3.161351 1_555
Mg6 Si1 3.210773 1_566
Mg7 Si5 2.838180 1_665
Mg7 Si10 2.854459 1_565
Mg7 Si11 2.901033 1_554
Mg7 Si1 2.912342 1_555
Mg7 Si7 2.933638 1_655
Mg7 Si15 3.012567 1_655
Mg7 Si3 3.014639 1_555
Mg7 Si13 3.124820 1_555
Mg7 Si9 3.143203 1_665
Mg7 Si0 3.220432 1_654
Mg8 Si17 2.750585 1_555
Mg8 Si1 2.840431 1_556
Mg8 Si11 2.890880 1_555
Mg8 Si0 2.959741 1_655
Mg8 Si8 2.984163 1_555
Mg8 Si6 3.185501 1_555
Mg8 Si12 3.261895 1_555
Mg9 Si5 2.752861 1_555
Mg9 Si14 2.811404 1_555
Mg9 Si3 2.835885 1_555
Mg9 Si16 2.869041 1_555
Mg9 Si8 2.886754 1_554
Mg9 Si15 2.895168 1_555
Mg9 Si1 2.949916 1_555
Mg9 Si7 3.081147 1_555
Mg9 Si13 3.274072 1_555
Si0 Si12 2.446278 1_565
Si0 Si17 2.487488 1_455
Si0 Si15 2.492993 1_556
Si0 Si11 2.631639 1_455
Si0 Si14 2.781479 1_566
Si1 Si14 2.504070 1_555
Si1 Si13 2.511735 1_555
Si1 Si15 2.542658 1_655
Si1 Si10 2.614939 1_555
Si1 Si6 2.688248 1_554
Si2 Si8 2.524423 1_555
Si2 Si4 2.580782 1_445
Si2 Si9 2.630422 1_555
Si3 Si4 2.572545 1_555
Si4 Si6 2.603292 1_565
Si5 Si9 2.431653 1_555
Si7 Si9 2.449213 1_565
Si10 Si5 2.533397 1_655
Si10 Si11 2.680523 1_544
Si10 Si15 2.793547 1_655
Si10 Si13 2.861910 1_555
Si11 Si8 2.488603 1_665
Si11 Si6 2.581983 1_565
Si11 Si4 2.632880 1_555
Si12 Si6 2.503377 1_555
Si12 Si2 2.536142 1_555
Si12 Si14 2.569916 1_556
Si12 Si8 2.936204 1_555
Si13 Si7 2.403254 1_655
Si13 Si3 2.634182 1_555
Si14 Si8 2.491337 1_554
Si14 Si5 2.537301 1_555
Si15 Si8 2.424827 1_554
Si15 Si7 2.449156 1_555
Si16 Si7 2.430187 1_555
Si16 Si3 2.474297 1_555
Si16 Si5 2.475703 1_555
Si17 Si6 2.436379 1_555
