# generated using pymatgen
data_Ce2MgSi4
_symmetry_space_group_name_H-M   'P 1'
_cell_length_a   5.95113600
_cell_length_b   5.95113600
_cell_length_c   17.79257992
_cell_angle_alpha   99.62717943
_cell_angle_beta   99.62717943
_cell_angle_gamma   90.00000000
_symmetry_Int_Tables_number   1
_chemical_formula_structural   Ce2MgSi4
_chemical_formula_sum   'Ce8 Mg4 Si16'
_cell_volume   612.26492354
_cell_formula_units_Z   4
loop_
 _symmetry_equiv_pos_site_id
 _symmetry_equiv_pos_as_xyz
  1  'x, y, z'
loop_
 _atom_site_type_symbol
 _atom_site_label
 _atom_site_symmetry_multiplicity
 _atom_site_fract_x
 _atom_site_fract_y
 _atom_site_fract_z
 _atom_site_occupancy
  Ce  Ce0  1  0.79722500  0.04354900  0.59445000  1
  Ce  Ce1  1  0.79722500  0.55090100  0.59445000  1
  Ce  Ce2  1  0.80090100  0.54722500  0.09445000  1
  Ce  Ce3  1  0.45280100  0.19855800  0.90560200  1
  Ce  Ce4  1  0.45280100  0.70704400  0.90560200  1
  Ce  Ce5  1  0.29354900  0.54722500  0.09445000  1
  Ce  Ce6  1  0.44855800  0.20280100  0.40560200  1
  Ce  Ce7  1  0.95704400  0.20280100  0.40560200  1
  Mg  Mg0  1  0.12490900  0.37504400  0.24981800  1
  Mg  Mg1  1  0.12490900  0.87477400  0.24981800  1
  Mg  Mg2  1  0.12477400  0.87490900  0.74981800  1
  Mg  Mg3  1  0.62504400  0.87490900  0.74981800  1
  Si  Si0  1  0.33178800  0.53315300  0.66357700  1
  Si  Si1  1  0.33178800  0.13042400  0.66357700  1
  Si  Si2  1  0.38042400  0.08178800  0.16357700  1
  Si  Si3  1  0.91822800  0.61966900  0.83645500  1
  Si  Si4  1  0.91822800  0.21678600  0.83645500  1
  Si  Si5  1  0.78315300  0.08178800  0.16357700  1
  Si  Si6  1  0.86966900  0.66822800  0.33645500  1
  Si  Si7  1  0.46678600  0.66822800  0.33645500  1
  Si  Si8  1  0.26390200  0.49282900  0.52780400  1
  Si  Si9  1  0.26390200  0.03497500  0.52780400  1
  Si  Si10  1  0.28497500  0.01390200  0.02780400  1
  Si  Si11  1  0.98612700  0.71454900  0.97225400  1
  Si  Si12  1  0.98612700  0.25770500  0.97225400  1
  Si  Si13  1  0.74282900  0.01390200  0.02780400  1
  Si  Si14  1  0.96454900  0.73612700  0.47225400  1
  Si  Si15  1  0.50770500  0.73612700  0.47225400  1
loop_
_geom_bond_atom_site_label_1
_geom_bond_atom_site_label_2
_geom_bond_distance
_geom_bond_site_symmetry_2
Ce0 Si15 2.908509 1_545
Ce0 Si14 2.908509 1_545
Ce0 Ce1 2.931815 1_545
Ce0 Ce1 3.019321 1_555
Ce0 Si9 3.194241 1_555
Ce0 Si9 3.194241 1_655
Ce0 Si1 3.221654 1_655
Ce0 Si1 3.221660 1_555
Ce0 Mg3 3.402122 1_545
Ce0 Mg2 3.402122 1_645
Ce1 Si15 2.908509 1_555
Ce1 Si14 2.908509 1_555
Ce1 Si8 3.194241 1_555
Ce1 Si8 3.194241 1_655
Ce1 Si0 3.221654 1_655
Ce1 Si0 3.221660 1_555
Ce1 Mg3 3.402122 1_555
Ce1 Mg2 3.402122 1_655
Ce2 Si11 2.908509 1_554
Ce2 Si12 2.908509 1_554
Ce2 Ce5 2.931815 1_655
Ce2 Ce5 3.019321 1_555
Ce2 Si13 3.194241 1_555
Ce2 Si13 3.194241 1_565
Ce2 Si5 3.221654 1_565
Ce2 Si5 3.221660 1_555
Ce2 Mg0 3.402122 1_655
Ce2 Mg1 3.402122 1_655
Ce3 Si13 2.908292 1_556
Ce3 Si10 2.908292 1_556
Ce3 Ce4 2.925067 1_545
Ce3 Ce4 3.026069 1_555
Ce3 Si12 3.194579 1_455
Ce3 Si12 3.194579 1_555
Ce3 Si4 3.222066 1_455
Ce3 Si4 3.222071 1_555
Ce3 Mg3 3.407054 1_545
Ce3 Mg2 3.407054 1_545
Ce4 Si13 2.908292 1_566
Ce4 Si10 2.908292 1_566
Ce4 Si11 3.194579 1_455
Ce4 Si11 3.194579 1_555
Ce4 Si3 3.222066 1_455
Ce4 Si3 3.222071 1_555
Ce4 Mg2 3.407054 1_555
Ce4 Mg3 3.407054 1_555
Ce5 Si12 2.908509 1_454
Ce5 Si11 2.908509 1_454
Ce5 Si10 3.194241 1_555
Ce5 Si10 3.194241 1_565
Ce5 Si2 3.221654 1_565
Ce5 Si2 3.221660 1_555
Ce5 Mg1 3.402122 1_555
Ce5 Mg0 3.402122 1_555
Ce6 Si8 2.908292 1_555
Ce6 Si9 2.908292 1_555
Ce6 Ce7 2.925067 1_455
Ce6 Ce7 3.026069 1_555
Ce6 Si15 3.194579 1_555
Ce6 Si15 3.194579 1_545
Ce6 Si7 3.222066 1_545
Ce6 Si7 3.222071 1_555
Ce6 Mg1 3.407054 1_545
Ce6 Mg0 3.407054 1_555
Ce7 Si8 2.908292 1_655
Ce7 Si9 2.908292 1_655
Ce7 Si14 3.194579 1_555
Ce7 Si14 3.194579 1_545
Ce7 Si6 3.222066 1_545
Ce7 Si6 3.222071 1_555
Ce7 Mg1 3.407054 1_645
Ce7 Mg0 3.407054 1_655
Mg0 Si2 2.756310 1_555
Mg0 Si5 2.756310 1_455
Mg0 Si6 2.758858 1_455
Mg0 Si7 2.758858 1_555
Mg1 Si5 2.756307 1_465
Mg1 Si2 2.756307 1_565
Mg1 Si6 2.758855 1_455
Mg1 Si7 2.758855 1_555
Mg2 Si1 2.756307 1_565
Mg2 Si0 2.756307 1_555
Mg2 Si4 2.758855 1_465
Mg2 Si3 2.758855 1_455
Mg3 Si1 2.756310 1_565
Mg3 Si0 2.756310 1_555
Mg3 Si4 2.758858 1_565
Mg3 Si3 2.758858 1_555
Si0 Si8 2.352940 1_555
Si0 Si1 2.396695 1_555
Si1 Si9 2.352940 1_555
Si2 Si5 2.396695 1_555
Si3 Si4 2.397612 1_555
Si6 Si7 2.397612 1_555
Si8 Si9 2.724751 1_555
Si10 Si2 2.352940 1_555
Si10 Si11 2.477243 1_444
Si10 Si12 2.477243 1_454
Si10 Si13 2.724751 1_555
Si11 Si3 2.353150 1_555
Si11 Si13 2.477243 1_566
Si11 Si12 2.718741 1_555
Si12 Si4 2.353150 1_555
Si12 Si13 2.477243 1_556
Si13 Si5 2.352940 1_555
Si14 Si6 2.353150 1_555
Si14 Si8 2.477243 1_655
Si14 Si9 2.477243 1_665
Si14 Si15 2.718741 1_555
Si15 Si7 2.353150 1_555
Si15 Si8 2.477243 1_555
Si15 Si9 2.477243 1_565
