# generated using pymatgen
data_Cu2SnHgSe4
_symmetry_space_group_name_H-M   'P 1'
_cell_length_a   7.16346814
_cell_length_b   7.16346814
_cell_length_c   7.16346814
_cell_angle_alpha   131.10276332
_cell_angle_beta   131.10276332
_cell_angle_gamma   71.64986049
_symmetry_Int_Tables_number   1
_chemical_formula_structural   Cu2SnHgSe4
_chemical_formula_sum   'Cu2 Sn1 Hg1 Se4'
_cell_volume   204.21674116
_cell_formula_units_Z   1
loop_
 _symmetry_equiv_pos_site_id
 _symmetry_equiv_pos_as_xyz
  1  'x, y, z'
loop_
 _atom_site_type_symbol
 _atom_site_label
 _atom_site_symmetry_multiplicity
 _atom_site_fract_x
 _atom_site_fract_y
 _atom_site_fract_z
 _atom_site_occupancy
  Cu  Cu0  1  0.75000000  0.25000000  0.50000000  1
  Cu  Cu1  1  0.25000000  0.75000000  0.50000000  1
  Sn  Sn0  1  0.50000000  0.50000000  0.00000000  1
  Hg  Hg0  1  0.00000000  0.00000000  0.00000000  1
  Se  Se0  1  0.39988400  0.39988400  0.51452000  1
  Se  Se1  1  0.88536400  0.88536400  0.48548000  1
  Se  Se2  1  0.60011600  0.11463600  0.00000000  1
  Se  Se3  1  0.11463600  0.60011600  0.00000000  1
loop_
_geom_bond_atom_site_label_1
_geom_bond_atom_site_label_2
_geom_bond_distance
_geom_bond_site_symmetry_2
Cu0 Se2 2.440190 1_555
Cu0 Se0 2.440190 1_555
Cu0 Se3 2.440190 1_656
Cu0 Se1 2.440190 1_545
Cu1 Se0 2.440190 1_555
Cu1 Se2 2.440190 1_566
Cu1 Se1 2.440190 1_455
Cu1 Se3 2.440190 1_555
Hg0 Se1 2.720090 1_444
Hg0 Se3 2.720090 1_545
Hg0 Se2 2.720090 1_455
Hg0 Se0 2.720090 1_555
Se0 Sn0 2.624570 1_556
Se1 Sn0 2.624570 1_555
Se2 Sn0 2.624570 1_555
Se3 Sn0 2.624570 1_555
