# generated using pymatgen
data_Dy6Al43Cr4
_symmetry_space_group_name_H-M   'P 1'
_cell_length_a   10.84732552
_cell_length_b   10.84748561
_cell_length_c   17.56367331
_cell_angle_alpha   90.00000000
_cell_angle_beta   90.00000000
_cell_angle_gamma   120.00085440
_symmetry_Int_Tables_number   1
_chemical_formula_structural   Dy6Al43Cr4
_chemical_formula_sum   'Dy12 Al86 Cr8'
_cell_volume   1789.75670894
_cell_formula_units_Z   2
loop_
 _symmetry_equiv_pos_site_id
 _symmetry_equiv_pos_as_xyz
  1  'x, y, z'
loop_
 _atom_site_type_symbol
 _atom_site_label
 _atom_site_symmetry_multiplicity
 _atom_site_fract_x
 _atom_site_fract_y
 _atom_site_fract_z
 _atom_site_occupancy
  Dy  Dy0  1  0.46839522  0.46839387  0.90433703  1
  Dy  Dy1  1  0.53160464  -0.00000031  0.90433616  1
  Dy  Dy2  1  0.00000057  0.53160304  0.90433513  1
  Dy  Dy3  1  0.53160478  0.53160613  0.09566297  1
  Dy  Dy4  1  0.46839536  0.00000031  0.09566384  1
  Dy  Dy5  1  0.99999943  0.46839696  0.09566487  1
  Dy  Dy6  1  0.53160478  0.53160613  0.40433703  1
  Dy  Dy7  1  0.46839536  0.00000031  0.40433616  1
  Dy  Dy8  1  0.99999943  0.46839696  0.40433513  1
  Dy  Dy9  1  0.46839522  0.46839387  0.59566297  1
  Dy  Dy10  1  0.53160464  -0.00000031  0.59566384  1
  Dy  Dy11  1  0.00000057  0.53160304  0.59566487  1
  Al  Al0  1  0.84282289  0.23340646  0.83453189  1
  Al  Al1  1  0.76659920  0.60941751  0.83453207  1
  Al  Al2  1  0.39059001  0.15717514  0.83453722  1
  Al  Al3  1  0.23340200  0.84281987  0.83453171  1
  Al  Al4  1  0.60941403  0.76659809  0.83453558  1
  Al  Al5  1  0.15717400  0.39058456  0.83453257  1
  Al  Al6  1  0.15717711  0.76659354  0.16546811  1
  Al  Al7  1  0.23340080  0.39058249  0.16546793  1
  Al  Al8  1  0.60940999  0.84282486  0.16546278  1
  Al  Al9  1  0.76659800  0.15718013  0.16546829  1
  Al  Al10  1  0.39058597  0.23340191  0.16546442  1
  Al  Al11  1  0.84282600  0.60941544  0.16546743  1
  Al  Al12  1  0.15717711  0.76659354  0.33453189  1
  Al  Al13  1  0.23340080  0.39058249  0.33453207  1
  Al  Al14  1  0.60940999  0.84282486  0.33453722  1
  Al  Al15  1  0.76659800  0.15718013  0.33453171  1
  Al  Al16  1  0.39058597  0.23340191  0.33453558  1
  Al  Al17  1  0.84282600  0.60941544  0.33453257  1
  Al  Al18  1  0.84282289  0.23340646  0.66546811  1
  Al  Al19  1  0.76659920  0.60941751  0.66546793  1
  Al  Al20  1  0.39059001  0.15717514  0.66546278  1
  Al  Al21  1  0.23340200  0.84281987  0.66546829  1
  Al  Al22  1  0.60941403  0.76659809  0.66546442  1
  Al  Al23  1  0.15717400  0.39058456  0.66546743  1
  Al  Al24  1  0.84654759  0.84655092  0.38285980  1
  Al  Al25  1  0.15345080  0.00000055  0.38285949  1
  Al  Al26  1  0.99999946  0.15344121  0.38285607  1
  Al  Al27  1  0.15345241  0.15344908  0.61714020  1
  Al  Al28  1  0.84654920  -0.00000055  0.61714051  1
  Al  Al29  1  0.00000054  0.84655879  0.61714393  1
  Al  Al30  1  0.15345241  0.15344908  0.88285980  1
  Al  Al31  1  0.84654920  -0.00000055  0.88285949  1
  Al  Al32  1  0.00000054  0.84655879  0.88285607  1
  Al  Al33  1  0.84654759  0.84655092  0.11714020  1
  Al  Al34  1  0.15345080  0.00000055  0.11714051  1
  Al  Al35  1  0.99999946  0.15344121  0.11714393  1
  Al  Al36  1  0.75087133  0.75087882  0.96999272  1
  Al  Al37  1  0.24912890  0.00000742  0.96999231  1
  Al  Al38  1  0.00000044  0.24911204  0.96999751  1
  Al  Al39  1  0.24912867  0.24912118  0.03000728  1
  Al  Al40  1  0.75087110  -0.00000742  0.03000769  1
  Al  Al41  1  -0.00000044  0.75088796  0.03000249  1
  Al  Al42  1  0.24912867  0.24912118  0.46999272  1
  Al  Al43  1  0.75087110  -0.00000742  0.46999231  1
  Al  Al44  1  -0.00000044  0.75088796  0.46999751  1
  Al  Al45  1  0.75087133  0.75087882  0.53000728  1
  Al  Al46  1  0.24912890  0.00000742  0.53000769  1
  Al  Al47  1  0.00000044  0.24911204  0.53000249  1
  Al  Al48  1  0.85143640  0.45030500  0.75000000  1
  Al  Al49  1  0.54970377  0.40112939  0.75000000  1
  Al  Al50  1  0.59886411  0.14856645  0.75000000  1
  Al  Al51  1  0.45029893  0.85142891  0.75000000  1
  Al  Al52  1  0.40113640  0.54970586  0.75000000  1
  Al  Al53  1  0.14856448  0.59887079  0.75000000  1
  Al  Al54  1  0.14856360  0.54969500  0.25000000  1
  Al  Al55  1  0.45029623  0.59887061  0.25000000  1
  Al  Al56  1  0.40113589  0.85143355  0.25000000  1
  Al  Al57  1  0.54970107  0.14857109  0.25000000  1
  Al  Al58  1  0.59886360  0.45029414  0.25000000  1
  Al  Al59  1  0.85143552  0.40112921  0.25000000  1
  Al  Al60  1  0.75303269  0.24698299  0.00000119  1
  Al  Al61  1  0.75303312  0.50604862  -0.00000133  1
  Al  Al62  1  0.49395900  0.24698625  0.00000007  1
  Al  Al63  1  0.24696731  0.75301701  -0.00000119  1
  Al  Al64  1  0.50604100  0.75301375  -0.00000007  1
  Al  Al65  1  0.24696688  0.49395138  0.00000133  1
  Al  Al66  1  0.24696731  0.75301701  0.50000119  1
  Al  Al67  1  0.24696688  0.49395138  0.49999867  1
  Al  Al68  1  0.50604100  0.75301375  0.50000007  1
  Al  Al69  1  0.75303269  0.24698299  0.49999881  1
  Al  Al70  1  0.49395900  0.24698625  0.49999993  1
  Al  Al71  1  0.75303312  0.50604862  0.50000133  1
  Al  Al72  1  0.66667048  0.33333119  0.87332834  1
  Al  Al73  1  0.33332785  0.66666281  0.87332868  1
  Al  Al74  1  0.33332952  0.66666881  0.12667166  1
  Al  Al75  1  0.66667215  0.33333719  0.12667132  1
  Al  Al76  1  0.33332952  0.66666881  0.37332834  1
  Al  Al77  1  0.66667215  0.33333719  0.37332868  1
  Al  Al78  1  0.66667048  0.33333119  0.62667166  1
  Al  Al79  1  0.33332785  0.66666281  0.62667132  1
  Al  Al80  1  0.85563582  0.85564150  0.75000000  1
  Al  Al81  1  0.14435766  0.99999880  0.75000000  1
  Al  Al82  1  -0.00000436  0.14434776  0.75000000  1
  Al  Al83  1  0.14436418  0.14435850  0.25000000  1
  Al  Al84  1  0.85564234  0.00000120  0.25000000  1
  Al  Al85  1  0.00000436  0.85565224  0.25000000  1
  Cr  Cr0  1  0.27014614  0.27014696  0.75000000  1
  Cr  Cr1  1  0.72985216  0.00000137  0.75000000  1
  Cr  Cr2  1  0.00000078  0.72984355  0.75000000  1
  Cr  Cr3  1  0.72985386  0.72985304  0.25000000  1
  Cr  Cr4  1  0.27014784  -0.00000137  0.25000000  1
  Cr  Cr5  1  -0.00000078  0.27015645  0.25000000  1
  Cr  Cr6  1  0.00000000  -0.00000000  0.00000000  1
  Cr  Cr7  1  0.00000000  -0.00000000  0.50000000  1
loop_
_geom_bond_atom_site_label_1
_geom_bond_atom_site_label_2
_geom_bond_distance
_geom_bond_site_symmetry_2
Dy0 Dy3 3.429626 1_556
Dy1 Dy4 3.429654 1_556
Dy2 Dy5 3.429682 1_456
Dy6 Dy9 3.429626 1_555
Dy10 Dy7 3.429654 1_555
Dy11 Dy8 3.429682 1_455
Al0 Cr1 2.648319 1_555
Al0 Al31 2.689771 1_555
Al0 Al72 2.713214 1_555
Al0 Al48 2.743881 1_555
Al0 Al50 2.760201 1_555
Al0 Al82 2.773332 1_655
Al0 Al38 2.882077 1_655
Al0 Al5 2.953008 1_655
Al0 Al18 2.969381 1_555
Al0 Dy2 3.059084 1_655
Al0 Al60 3.091934 1_556
Al0 Dy1 3.280637 1_555
Al1 Cr2 2.648265 1_655
Al1 Al32 2.689716 1_655
Al1 Al72 2.713299 1_555
Al1 Al49 2.743841 1_555
Al1 Al48 2.760170 1_555
Al1 Al80 2.773303 1_555
Al1 Al36 2.882035 1_555
Al1 Al4 2.953205 1_555
Al1 Al19 2.969387 1_555
Al1 Dy0 3.059124 1_555
Al1 Al61 3.091917 1_556
Al1 Dy2 3.280638 1_655
Al2 Cr0 2.648464 1_555
Al2 Al30 2.689752 1_555
Al2 Al72 2.713178 1_555
Al2 Al50 2.743783 1_555
Al2 Al49 2.760229 1_555
Al2 Al81 2.773358 1_545
Al2 Al37 2.881860 1_555
Al2 Al3 2.953090 1_545
Al2 Al20 2.969568 1_555
Al2 Dy1 3.059015 1_555
Al2 Al62 3.091860 1_556
Al2 Dy0 3.280688 1_555
Al3 Cr2 2.648259 1_555
Al3 Al32 2.689727 1_555
Al3 Al73 2.713284 1_555
Al3 Al51 2.743854 1_555
Al3 Al53 2.760153 1_555
Al3 Al81 2.773291 1_555
Al3 Al37 2.882026 1_565
Al3 Dy1 3.059108 1_565
Al3 Al63 3.091924 1_556
Al3 Dy2 3.280629 1_555
Al4 Cr1 2.648341 1_565
Al4 Al73 2.713230 1_555
Al4 Al52 2.743817 1_555
Al4 Al51 2.760170 1_555
Al4 Al80 2.773275 1_555
Al4 Dy0 3.059142 1_555
Al4 Al64 3.091862 1_556
Al4 Dy1 3.280614 1_565
Al5 Cr0 2.648372 1_555
Al5 Al73 2.713208 1_555
Al5 Al53 2.743880 1_555
Al5 Al52 2.760233 1_555
Al5 Al82 2.773372 1_555
Al5 Dy2 3.059053 1_555
Al5 Al65 3.091927 1_556
Al5 Dy0 3.280683 1_555
Al6 Cr4 2.648319 1_565
Al6 Al74 2.713214 1_555
Al6 Al85 2.773332 1_555
Al6 Dy5 3.059084 1_455
Al6 Al63 3.091934 1_555
Al6 Dy4 3.280637 1_565
Al7 Cr5 2.648265 1_555
Al7 Al74 2.713299 1_555
Al7 Al83 2.773303 1_555
Al7 Dy3 3.059124 1_555
Al7 Dy5 3.280638 1_455
Al8 Cr3 2.648464 1_555
Al8 Al84 2.773358 1_565
Al8 Al9 2.953090 1_565
Al8 Dy4 3.059015 1_565
Al8 Dy3 3.280688 1_555
Al9 Cr5 2.648259 1_655
Al9 Dy4 3.059108 1_555
Al9 Dy5 3.280629 1_555
Al10 Cr4 2.648341 1_555
Al10 Al34 2.689682 1_555
Al10 Al75 2.713230 1_555
Al10 Al58 2.743817 1_555
Al10 Al57 2.760170 1_555
Al10 Al83 2.773275 1_555
Al10 Al39 2.881917 1_555
Al10 Al7 2.953205 1_555
Al10 Al16 2.969511 1_555
Al10 Dy3 3.059142 1_555
Al10 Al62 3.091862 1_555
Al10 Dy4 3.280614 1_555
Al11 Cr3 2.648372 1_555
Al11 Al33 2.689814 1_555
Al11 Al75 2.713208 1_555
Al11 Al59 2.743880 1_555
Al11 Al58 2.760233 1_555
Al11 Al85 2.773372 1_655
Al11 Al41 2.882050 1_655
Al11 Al6 2.953008 1_655
Al11 Al17 2.969405 1_555
Al11 Dy5 3.059053 1_555
Al11 Al61 3.091927 1_555
Al11 Dy3 3.280683 1_555
Al12 Cr4 2.648319 1_565
Al12 Al25 2.689771 1_565
Al12 Al76 2.713214 1_555
Al12 Al54 2.743881 1_555
Al12 Al56 2.760201 1_555
Al12 Al85 2.773332 1_555
Al12 Al44 2.882077 1_555
Al12 Al17 2.953008 1_455
Al12 Al6 2.969381 1_555
Al12 Dy8 3.059084 1_455
Al12 Al66 3.091934 1_555
Al12 Dy7 3.280637 1_565
Al13 Cr5 2.648265 1_555
Al13 Al26 2.689716 1_455
Al13 Al76 2.713299 1_555
Al13 Al55 2.743841 1_555
Al13 Al54 2.760170 1_555
Al13 Al83 2.773303 1_555
Al13 Al42 2.882035 1_555
Al13 Al16 2.953205 1_555
Al13 Al7 2.969387 1_555
Al13 Dy6 3.059124 1_555
Al13 Al67 3.091917 1_555
Al13 Dy8 3.280638 1_455
Al14 Cr3 2.648464 1_555
Al14 Al24 2.689752 1_555
Al14 Al76 2.713178 1_555
Al14 Al56 2.743783 1_555
Al14 Al55 2.760229 1_555
Al14 Al84 2.773358 1_565
Al14 Al43 2.881860 1_565
Al14 Al15 2.953090 1_565
Al14 Al8 2.969568 1_555
Al14 Dy7 3.059015 1_565
Al14 Al68 3.091860 1_555
Al14 Dy6 3.280688 1_555
Al15 Cr5 2.648259 1_655
Al15 Al26 2.689727 1_555
Al15 Al77 2.713284 1_555
Al15 Al57 2.743854 1_555
Al15 Al59 2.760153 1_555
Al15 Al84 2.773291 1_555
Al15 Al43 2.882026 1_555
Al15 Al9 2.969375 1_555
Al15 Dy7 3.059108 1_555
Al15 Al69 3.091924 1_555
Al15 Dy8 3.280629 1_555
Al16 Cr4 2.648341 1_555
Al16 Al25 2.689682 1_555
Al16 Al77 2.713230 1_555
Al16 Al58 2.743817 1_555
Al16 Al57 2.760170 1_555
Al16 Al83 2.773275 1_555
Al16 Al42 2.881917 1_555
Al16 Dy6 3.059142 1_555
Al16 Al70 3.091862 1_555
Al16 Dy7 3.280614 1_555
Al17 Cr3 2.648372 1_555
Al17 Al24 2.689814 1_555
Al17 Al77 2.713208 1_555
Al17 Al59 2.743880 1_555
Al17 Al58 2.760233 1_555
Al17 Al85 2.773372 1_655
Al17 Al44 2.882050 1_655
Al17 Dy8 3.059053 1_555
Al17 Al71 3.091927 1_555
Al17 Dy6 3.280683 1_555
Al18 Cr1 2.648319 1_555
Al18 Al28 2.689771 1_555
Al18 Al78 2.713214 1_555
Al18 Al48 2.743881 1_555
Al18 Al50 2.760201 1_555
Al18 Al82 2.773332 1_655
Al18 Al47 2.882077 1_655
Al18 Al23 2.953008 1_655
Al18 Dy11 3.059084 1_655
Al18 Al69 3.091934 1_555
Al18 Dy10 3.280637 1_555
Al19 Cr2 2.648265 1_655
Al19 Al29 2.689716 1_655
Al19 Al78 2.713299 1_555
Al19 Al49 2.743841 1_555
Al19 Al48 2.760170 1_555
Al19 Al80 2.773303 1_555
Al19 Al45 2.882035 1_555
Al19 Al22 2.953205 1_555
Al19 Dy9 3.059124 1_555
Al19 Al71 3.091917 1_555
Al19 Dy11 3.280638 1_655
Al20 Cr0 2.648464 1_555
Al20 Al27 2.689752 1_555
Al20 Al78 2.713178 1_555
Al20 Al50 2.743783 1_555
Al20 Al49 2.760229 1_555
Al20 Al81 2.773358 1_545
Al20 Al46 2.881860 1_555
Al20 Al21 2.953090 1_545
Al20 Dy10 3.059015 1_555
Al20 Al70 3.091860 1_555
Al20 Dy9 3.280688 1_555
Al21 Cr2 2.648259 1_555
Al21 Al29 2.689727 1_555
Al21 Al79 2.713284 1_555
Al21 Al51 2.743854 1_555
Al21 Al53 2.760153 1_555
Al21 Al81 2.773291 1_555
Al21 Al46 2.882026 1_565
Al21 Al3 2.969375 1_555
Al21 Dy10 3.059108 1_565
Al21 Al66 3.091924 1_555
Al21 Dy11 3.280629 1_555
Al22 Cr1 2.648341 1_565
Al22 Al28 2.689682 1_565
Al22 Al79 2.713230 1_555
Al22 Al52 2.743817 1_555
Al22 Al51 2.760170 1_555
Al22 Al80 2.773275 1_555
Al22 Al45 2.881917 1_555
Al22 Al4 2.969511 1_555
Al22 Dy9 3.059142 1_555
Al22 Al68 3.091862 1_555
Al22 Dy10 3.280614 1_565
Al23 Cr0 2.648372 1_555
Al23 Al27 2.689814 1_555
Al23 Al79 2.713208 1_555
Al23 Al53 2.743880 1_555
Al23 Al52 2.760233 1_555
Al23 Al82 2.773372 1_555
Al23 Al47 2.882050 1_555
Al23 Al5 2.969405 1_555
Al23 Dy11 3.059053 1_555
Al23 Al67 3.091927 1_555
Al23 Dy9 3.280683 1_555
Al24 Cr7 2.646427 1_665
Al24 Cr3 2.654727 1_555
Al24 Al45 2.785035 1_555
Al24 Al43 2.813718 1_565
Al24 Al44 2.813748 1_655
Al24 Al84 2.839276 1_565
Al24 Al85 2.839284 1_655
Al24 Al26 2.882963 1_565
Al24 Al25 2.883042 1_665
Al24 Dy6 3.437042 1_555
Al25 Cr7 2.646435 1_555
Al25 Cr4 2.654737 1_555
Al25 Al46 2.785051 1_555
Al25 Al44 2.813721 1_545
Al25 Al42 2.813735 1_555
Al25 Al85 2.839220 1_545
Al25 Al83 2.839260 1_555
Al25 Al26 2.882995 1_455
Al25 Dy7 3.437069 1_555
Al26 Cr7 2.646436 1_655
Al26 Cr5 2.654783 1_655
Al26 Al47 2.785010 1_655
Al26 Al43 2.813791 1_555
Al26 Al42 2.813805 1_655
Al26 Al84 2.839175 1_555
Al26 Al83 2.839227 1_655
Al26 Dy8 3.437243 1_555
Al27 Cr7 2.646427 1_555
Al27 Cr0 2.654727 1_555
Al27 Al42 2.785035 1_555
Al27 Al46 2.813718 1_555
Al27 Al47 2.813748 1_555
Al27 Al81 2.839276 1_545
Al27 Al82 2.839284 1_555
Al27 Al29 2.882963 1_545
Al27 Al28 2.883042 1_455
Al27 Dy9 3.437042 1_555
Al28 Cr7 2.646435 1_655
Al28 Cr1 2.654737 1_555
Al28 Al43 2.785051 1_555
Al28 Al47 2.813721 1_655
Al28 Al45 2.813735 1_545
Al28 Al82 2.839220 1_655
Al28 Al80 2.839260 1_545
Al28 Al29 2.882995 1_645
Al28 Dy10 3.437069 1_555
Al29 Cr7 2.646436 1_565
Al29 Cr2 2.654783 1_555
Al29 Al44 2.785010 1_555
Al29 Al46 2.813791 1_565
Al29 Al45 2.813805 1_455
Al29 Al81 2.839175 1_555
Al29 Al80 2.839227 1_455
Al29 Dy11 3.437243 1_555
Al30 Cr6 2.646427 1_556
Al30 Cr0 2.654727 1_555
Al30 Al5 2.689814 1_555
Al30 Al39 2.785035 1_556
Al30 Al37 2.813718 1_555
Al30 Al38 2.813748 1_555
Al30 Al81 2.839276 1_545
Al30 Al82 2.839284 1_555
Al30 Al32 2.882963 1_545
Al30 Al31 2.883042 1_455
Al30 Dy0 3.437042 1_555
Al31 Cr6 2.646435 1_656
Al31 Cr1 2.654737 1_555
Al31 Al4 2.689682 1_545
Al31 Al40 2.785051 1_556
Al31 Al38 2.813721 1_655
Al31 Al36 2.813735 1_545
Al31 Al82 2.839220 1_655
Al31 Al80 2.839260 1_545
Al31 Al32 2.882995 1_645
Al31 Dy1 3.437069 1_555
Al32 Cr6 2.646436 1_566
Al32 Cr2 2.654783 1_555
Al32 Al41 2.785010 1_556
Al32 Al37 2.813791 1_565
Al32 Al36 2.813805 1_455
Al32 Al81 2.839175 1_555
Al32 Al80 2.839227 1_455
Al32 Dy2 3.437243 1_555
Al33 Cr6 2.646427 1_665
Al33 Cr3 2.654727 1_555
Al33 Al8 2.689752 1_555
Al33 Al36 2.785035 1_554
Al33 Al40 2.813718 1_565
Al33 Al41 2.813748 1_655
Al33 Al84 2.839276 1_565
Al33 Al85 2.839284 1_655
Al33 Al35 2.882963 1_565
Al33 Al34 2.883042 1_665
Al33 Dy3 3.437042 1_555
Al34 Cr6 2.646435 1_555
Al34 Cr4 2.654737 1_555
Al34 Al6 2.689771 1_545
Al34 Al37 2.785051 1_554
Al34 Al41 2.813721 1_545
Al34 Al39 2.813735 1_555
Al34 Al85 2.839220 1_545
Al34 Al83 2.839260 1_555
Al34 Al35 2.882995 1_455
Al34 Dy4 3.437069 1_555
Al35 Cr6 2.646436 1_655
Al35 Cr5 2.654783 1_655
Al35 Al7 2.689716 1_655
Al35 Al9 2.689727 1_555
Al35 Al38 2.785010 1_654
Al35 Al40 2.813791 1_555
Al35 Al39 2.813805 1_655
Al35 Al84 2.839175 1_555
Al35 Al83 2.839227 1_655
Al35 Dy5 3.437243 1_555
Al36 Al64 2.718978 1_556
Al36 Al61 2.719155 1_556
Al36 Cr6 2.753239 1_666
Al36 Al4 2.881917 1_555
Al36 Al40 2.900568 1_566
Al36 Al41 2.900597 1_656
Al36 Dy3 3.244845 1_556
Al36 Dy0 3.273947 1_555
Al37 Al62 2.719037 1_556
Al37 Al63 2.719141 1_546
Al37 Cr6 2.753258 1_556
Al37 Al39 2.900568 1_556
Al37 Al41 2.900593 1_546
Al37 Dy4 3.244873 1_556
Al37 Dy1 3.273956 1_555
Al38 Al65 2.719005 1_556
Al38 Al60 2.719022 1_456
Al38 Cr6 2.753137 1_556
Al38 Al5 2.882050 1_555
Al38 Al40 2.900593 1_456
Al38 Al39 2.900597 1_556
Al38 Dy5 3.244971 1_456
Al38 Dy2 3.274152 1_555
Al39 Al62 2.718978 1_555
Al39 Al65 2.719155 1_555
Al39 Cr6 2.753239 1_555
Al39 Al7 2.882035 1_555
Al39 Dy0 3.244845 1_554
Al39 Dy3 3.273947 1_555
Al40 Al64 2.719037 1_545
Al40 Al60 2.719141 1_555
Al40 Cr6 2.753258 1_655
Al40 Al8 2.881860 1_545
Al40 Al9 2.882026 1_555
Al40 Dy1 3.244873 1_554
Al40 Dy4 3.273956 1_555
Al41 Al61 2.719005 1_455
Al41 Al63 2.719022 1_555
Al41 Cr6 2.753137 1_565
Al41 Al6 2.882077 1_555
Al41 Dy2 3.244971 1_554
Al41 Dy5 3.274152 1_455
Al42 Al70 2.718978 1_555
Al42 Al67 2.719155 1_555
Al42 Cr7 2.753239 1_555
Al42 Al46 2.900568 1_555
Al42 Al47 2.900597 1_555
Al42 Dy9 3.244845 1_555
Al42 Dy6 3.273947 1_555
Al43 Al68 2.719037 1_545
Al43 Al69 2.719141 1_555
Al43 Cr7 2.753258 1_655
Al43 Al45 2.900568 1_545
Al43 Al47 2.900593 1_655
Al43 Dy10 3.244873 1_555
Al43 Dy7 3.273956 1_555
Al44 Al71 2.719005 1_455
Al44 Al66 2.719022 1_555
Al44 Cr7 2.753137 1_565
Al44 Al46 2.900593 1_565
Al44 Al45 2.900597 1_455
Al44 Dy11 3.244971 1_555
Al44 Dy8 3.274152 1_455
Al45 Al68 2.718978 1_555
Al45 Al71 2.719155 1_555
Al45 Cr7 2.753239 1_665
Al45 Dy6 3.244845 1_555
Al45 Dy9 3.273947 1_555
Al46 Al70 2.719037 1_555
Al46 Al66 2.719141 1_545
Al46 Cr7 2.753258 1_555
Al46 Dy7 3.244873 1_555
Al46 Dy10 3.273956 1_555
Al47 Al67 2.719005 1_555
Al47 Al69 2.719022 1_455
Al47 Cr7 2.753137 1_555
Al47 Dy8 3.244971 1_455
Al47 Dy11 3.274152 1_555
Al48 Cr2 2.627748 1_655
Al48 Al78 2.788502 1_555
Al48 Al72 2.788502 1_555
Al48 Al53 2.791215 1_655
Al48 Al49 3.041556 1_555
Al48 Al50 3.041659 1_555
Al48 Dy2 3.049814 1_655
Al48 Dy11 3.049814 1_655
Al49 Cr0 2.627892 1_555
Al49 Al72 2.788509 1_555
Al49 Al78 2.788509 1_555
Al49 Al52 2.791420 1_555
Al49 Al50 3.041572 1_555
Al49 Dy9 3.049896 1_555
Al49 Dy0 3.049896 1_555
Al50 Cr1 2.627901 1_555
Al50 Al78 2.788500 1_555
Al50 Al72 2.788500 1_555
Al50 Al51 2.791345 1_545
Al50 Dy1 3.049854 1_555
Al50 Dy10 3.049854 1_555
Al51 Cr1 2.627849 1_565
Al51 Al73 2.788517 1_555
Al51 Al79 2.788517 1_555
Al51 Al52 3.041555 1_555
Al51 Al53 3.041560 1_555
Al51 Dy10 3.049868 1_565
Al51 Dy1 3.049868 1_565
Al52 Cr0 2.627941 1_555
Al52 Al73 2.788512 1_555
Al52 Al79 2.788512 1_555
Al52 Al53 3.041665 1_555
Al52 Dy9 3.049889 1_555
Al52 Dy0 3.049889 1_555
Al53 Cr2 2.627744 1_555
Al53 Al73 2.788492 1_555
Al53 Al79 2.788492 1_555
Al53 Dy11 3.049813 1_555
Al53 Dy2 3.049813 1_555
Al54 Cr5 2.627748 1_555
Al54 Al6 2.743881 1_555
Al54 Al7 2.760170 1_555
Al54 Al76 2.788502 1_555
Al54 Al74 2.788502 1_555
Al54 Al59 2.791215 1_455
Al54 Al55 3.041556 1_555
Al54 Al56 3.041659 1_555
Al54 Dy5 3.049814 1_455
Al54 Dy8 3.049814 1_455
Al55 Cr3 2.627892 1_555
Al55 Al7 2.743841 1_555
Al55 Al8 2.760229 1_555
Al55 Al76 2.788509 1_555
Al55 Al74 2.788509 1_555
Al55 Al58 2.791420 1_555
Al55 Al56 3.041572 1_555
Al55 Dy3 3.049896 1_555
Al55 Dy6 3.049896 1_555
Al56 Cr4 2.627901 1_565
Al56 Al8 2.743783 1_555
Al56 Al6 2.760201 1_555
Al56 Al74 2.788500 1_555
Al56 Al76 2.788500 1_555
Al56 Al57 2.791345 1_565
Al56 Dy4 3.049854 1_565
Al56 Dy7 3.049854 1_565
Al57 Cr4 2.627849 1_555
Al57 Al9 2.743854 1_555
Al57 Al75 2.788517 1_555
Al57 Al77 2.788517 1_555
Al57 Al58 3.041555 1_555
Al57 Al59 3.041560 1_555
Al57 Dy4 3.049868 1_555
Al57 Dy7 3.049868 1_555
Al58 Cr3 2.627941 1_555
Al58 Al77 2.788512 1_555
Al58 Al75 2.788512 1_555
Al58 Al59 3.041665 1_555
Al58 Dy6 3.049889 1_555
Al58 Dy3 3.049889 1_555
Al59 Cr5 2.627744 1_655
Al59 Al9 2.760153 1_555
Al59 Al75 2.788492 1_555
Al59 Al77 2.788492 1_555
Al59 Dy8 3.049813 1_555
Al59 Dy5 3.049813 1_555
Al60 Al75 2.753588 1_555
Al60 Al72 2.753603 1_554
Al60 Al61 2.810208 1_555
Al60 Al62 2.810274 1_555
Al60 Dy5 3.055150 1_555
Al60 Dy1 3.055310 1_554
Al60 Al9 3.091924 1_555
Al60 Dy2 3.355721 1_654
Al60 Dy4 3.355832 1_555
Al61 Al75 2.753600 1_555
Al61 Al72 2.753600 1_554
Al61 Al62 2.810182 1_555
Al61 Dy2 3.055159 1_654
Al61 Dy3 3.055330 1_555
Al61 Dy5 3.355720 1_555
Al61 Dy0 3.355840 1_554
Al62 Al72 2.753573 1_554
Al62 Al75 2.753576 1_555
Al62 Dy0 3.055192 1_554
Al62 Dy4 3.055328 1_555
Al62 Dy3 3.355757 1_555
Al62 Dy1 3.355885 1_554
Al63 Al73 2.753588 1_554
Al63 Al74 2.753603 1_555
Al63 Al65 2.810208 1_555
Al63 Al64 2.810274 1_555
Al63 Dy2 3.055150 1_554
Al63 Dy4 3.055310 1_565
Al63 Dy5 3.355721 1_455
Al63 Dy1 3.355832 1_564
Al64 Al74 2.753573 1_555
Al64 Al73 2.753576 1_554
Al64 Al65 2.810182 1_555
Al64 Dy3 3.055192 1_555
Al64 Dy1 3.055328 1_564
Al64 Al8 3.091860 1_555
Al64 Dy0 3.355757 1_554
Al64 Dy4 3.355885 1_565
Al65 Al73 2.753600 1_554
Al65 Al74 2.753600 1_555
Al65 Dy5 3.055159 1_455
Al65 Dy0 3.055330 1_554
Al65 Al7 3.091917 1_555
Al65 Dy2 3.355720 1_554
Al65 Dy3 3.355840 1_555
Al66 Al79 2.753588 1_555
Al66 Al76 2.753603 1_555
Al66 Al67 2.810208 1_555
Al66 Al68 2.810274 1_555
Al66 Dy11 3.055150 1_555
Al66 Dy7 3.055310 1_565
Al66 Dy8 3.355721 1_455
Al66 Dy10 3.355832 1_565
Al67 Al79 2.753600 1_555
Al67 Al76 2.753600 1_555
Al67 Al68 2.810182 1_555
Al67 Dy8 3.055159 1_455
Al67 Dy9 3.055330 1_555
Al67 Dy11 3.355720 1_555
Al67 Dy6 3.355840 1_555
Al68 Al76 2.753573 1_555
Al68 Al79 2.753576 1_555
Al68 Dy6 3.055192 1_555
Al68 Dy10 3.055328 1_565
Al68 Dy9 3.355757 1_555
Al68 Dy7 3.355885 1_565
Al69 Al77 2.753588 1_555
Al69 Al78 2.753603 1_555
Al69 Al71 2.810208 1_555
Al69 Al70 2.810274 1_555
Al69 Dy8 3.055150 1_555
Al69 Dy10 3.055310 1_555
Al69 Dy11 3.355721 1_655
Al69 Dy7 3.355832 1_555
Al70 Al78 2.753573 1_555
Al70 Al77 2.753576 1_555
Al70 Al71 2.810182 1_555
Al70 Dy9 3.055192 1_555
Al70 Dy7 3.055328 1_555
Al70 Dy6 3.355757 1_555
Al70 Dy10 3.355885 1_555
Al71 Al77 2.753600 1_555
Al71 Al78 2.753600 1_555
Al71 Dy11 3.055159 1_655
Al71 Dy6 3.055330 1_555
Al71 Dy8 3.355720 1_555
Al71 Dy9 3.355840 1_555
Al72 Dy2 3.196737 1_655
Al72 Dy1 3.196800 1_555
Al72 Dy0 3.196873 1_555
Al73 Dy2 3.196711 1_555
Al73 Dy1 3.196843 1_565
Al73 Dy0 3.196862 1_555
Al74 Al8 2.713178 1_555
Al74 Dy5 3.196737 1_455
Al74 Dy4 3.196800 1_565
Al74 Dy3 3.196873 1_555
Al75 Al9 2.713284 1_555
Al75 Dy5 3.196711 1_555
Al75 Dy4 3.196843 1_555
Al75 Dy3 3.196862 1_555
Al76 Dy8 3.196737 1_455
Al76 Dy7 3.196800 1_565
Al76 Dy6 3.196873 1_555
Al77 Dy8 3.196711 1_555
Al77 Dy7 3.196843 1_555
Al77 Dy6 3.196862 1_555
Al78 Dy11 3.196737 1_655
Al78 Dy10 3.196800 1_555
Al78 Dy9 3.196873 1_555
Al79 Dy11 3.196711 1_555
Al79 Dy10 3.196843 1_565
Al79 Dy9 3.196862 1_555
Al80 Cr1 2.539775 1_565
Al80 Cr2 2.539951 1_655
Al80 Al82 2.712140 1_665
Al80 Al81 2.712247 1_655
Al81 Cr0 2.539804 1_565
Al81 Cr2 2.539863 1_555
Al81 Al82 2.712200 1_565
Al82 Cr1 2.539715 1_455
Al82 Cr0 2.539783 1_555
Al83 Cr4 2.539775 1_555
Al83 Cr5 2.539951 1_555
Al83 Al85 2.712140 1_545
Al83 Al84 2.712247 1_455
Al84 Cr3 2.539804 1_545
Al84 Cr5 2.539863 1_655
Al84 Al85 2.712200 1_645
Al84 Al9 2.773291 1_555
Al85 Cr4 2.539715 1_565
Al85 Cr3 2.539783 1_455
Cr0 Dy9 3.460124 1_555
Cr0 Dy0 3.460124 1_555
Cr1 Dy1 3.460111 1_555
Cr1 Dy10 3.460111 1_555
Cr2 Dy11 3.460074 1_555
Cr2 Dy2 3.460074 1_555
Cr3 Dy6 3.460124 1_555
Cr3 Dy3 3.460124 1_555
Cr4 Dy7 3.460111 1_555
Cr4 Dy4 3.460111 1_555
Cr5 Dy5 3.460074 1_455
Cr5 Dy8 3.460074 1_455
