# generated using pymatgen
data_Rb3H(SO4)2
_symmetry_space_group_name_H-M   'P 1'
_cell_length_a   8.22898144
_cell_length_b   11.41436524
_cell_length_c   11.41436524
_cell_angle_alpha   60.62088672
_cell_angle_beta   70.69229853
_cell_angle_gamma   70.69229853
_symmetry_Int_Tables_number   1
_chemical_formula_structural   Rb3H(SO4)2
_chemical_formula_sum   'Rb12 H4 S8 O32'
_cell_volume   863.01454246
_cell_formula_units_Z   4
loop_
 _symmetry_equiv_pos_site_id
 _symmetry_equiv_pos_as_xyz
  1  'x, y, z'
loop_
 _atom_site_type_symbol
 _atom_site_label
 _atom_site_symmetry_multiplicity
 _atom_site_fract_x
 _atom_site_fract_y
 _atom_site_fract_z
 _atom_site_occupancy
  Rb  Rb0  1  -0.00000000  0.22930975  0.77069025  1
  Rb  Rb1  1  -0.00000000  0.77069025  0.22930975  1
  Rb  Rb2  1  0.48200371  0.76296740  0.76296740  1
  Rb  Rb3  1  0.51799629  0.23703260  0.23703260  1
  Rb  Rb4  1  0.88166662  0.35877336  0.35877336  1
  Rb  Rb5  1  0.11833338  0.64122664  0.64122664  1
  Rb  Rb6  1  0.59531633  0.66071542  0.14408423  1
  Rb  Rb7  1  0.59531633  0.14408423  0.66071542  1
  Rb  Rb8  1  0.40468367  0.33928458  0.85591577  1
  Rb  Rb9  1  0.40468367  0.85591577  0.33928458  1
  Rb  Rb10  1  0.07751564  0.14215440  0.14215440  1
  Rb  Rb11  1  0.92248436  0.85784560  0.85784560  1
  H  H0  1  0.73404955  0.51141328  0.76836118  1
  H  H1  1  0.73404955  0.76836118  0.51141328  1
  H  H2  1  0.26595045  0.48858672  0.23163882  1
  H  H3  1  0.26595045  0.23163882  0.48858672  1
  S  S0  1  0.83322524  0.47260204  0.93794005  1
  S  S1  1  0.83322524  0.93794005  0.47260204  1
  S  S2  1  0.16677476  0.52739796  0.06205995  1
  S  S3  1  0.16677476  0.06205995  0.52739796  1
  S  S4  1  0.32155568  0.95378500  0.95378500  1
  S  S5  1  0.67844432  0.04621500  0.04621500  1
  S  S6  1  0.66663975  0.55434314  0.55434314  1
  S  S7  1  0.33336025  0.44565686  0.44565686  1
  O  O0  1  0.70376700  0.45649559  0.87202085  1
  O  O1  1  0.70376700  0.87202085  0.45649559  1
  O  O2  1  0.29623300  0.54350441  0.12797915  1
  O  O3  1  0.29623300  0.12797915  0.54350441  1
  O  O4  1  0.81536347  0.61941736  0.88639620  1
  O  O5  1  0.81536347  0.88639620  0.61941736  1
  O  O6  1  0.18463653  0.38058264  0.11360380  1
  O  O7  1  0.18463653  0.11360380  0.38058264  1
  O  O8  1  0.00778601  0.40601190  0.88952475  1
  O  O9  1  0.00778601  0.88952475  0.40601190  1
  O  O10  1  -0.00778601  0.59398810  0.11047425  1
  O  O11  1  -0.00778601  0.11047425  0.59398810  1
  O  O12  1  0.77029819  0.40435109  0.08437742  1
  O  O13  1  0.77029819  0.08437742  0.40435109  1
  O  O14  1  0.22970181  0.59564891  0.91562258  1
  O  O15  1  0.22970181  0.91562258  0.59564891  1
  O  O16  1  0.50373685  0.89833665  0.89833665  1
  O  O17  1  0.49626315  0.10166335  0.10166335  1
  O  O18  1  0.29309373  0.89523079  0.10501095  1
  O  O19  1  0.29309373  0.10501095  0.89523079  1
  O  O20  1  0.70690527  0.10476921  0.89498905  1
  O  O21  1  0.70690527  0.89498905  0.10476921  1
  O  O22  1  0.19673547  0.91618615  0.91618615  1
  O  O23  1  0.80326453  0.08381385  0.08381385  1
  O  O24  1  0.71250555  0.40424744  0.61483990  1
  O  O25  1  0.71250555  0.61483990  0.40424744  1
  O  O26  1  0.28749445  0.59575256  0.38516010  1
  O  O27  1  0.28749445  0.38516010  0.59575256  1
  O  O28  1  0.77203557  0.60368791  0.60368791  1
  O  O29  1  0.22796443  0.39631209  0.39631209  1
  O  O30  1  0.48051554  0.60396116  0.60396116  1
  O  O31  1  0.51948446  0.39603884  0.39603884  1
loop_
_geom_bond_atom_site_label_1
_geom_bond_atom_site_label_2
_geom_bond_distance
_geom_bond_site_symmetry_2
H0 O0 1.017650 1_555
H0 O28 1.620746 1_555
H0 Rb2 2.919409 1_555
H1 O1 1.017650 1_555
H1 O28 1.620746 1_555
H1 Rb2 2.919409 1_555
H2 O2 1.017650 1_555
H2 O29 1.620746 1_555
H2 Rb3 2.919409 1_555
H3 O3 1.017650 1_555
H3 O29 1.620746 1_555
H3 Rb3 2.919409 1_555
O0 S0 1.590638 1_555
O0 Rb8 3.255601 1_555
O1 S1 1.590638 1_555
O1 Rb9 3.255601 1_555
O2 S2 1.590638 1_555
O2 Rb6 3.255601 1_555
O3 S3 1.590638 1_555
O3 Rb7 3.255601 1_555
O4 S0 1.450168 1_555
O4 Rb11 2.969189 1_555
O4 Rb5 3.036809 1_655
O4 Rb6 3.070261 1_556
O4 Rb2 3.084356 1_555
O5 S1 1.450168 1_555
O5 Rb11 2.969189 1_555
O5 Rb5 3.036809 1_655
O5 Rb7 3.070261 1_565
O5 Rb2 3.084356 1_555
O6 S2 1.450168 1_555
O6 Rb10 2.969189 1_555
O6 Rb4 3.036809 1_455
O6 Rb8 3.070261 1_554
O6 Rb3 3.084356 1_555
O7 S3 1.450168 1_555
O7 Rb10 2.969189 1_555
O7 Rb4 3.036809 1_455
O7 Rb9 3.070261 1_545
O7 Rb3 3.084356 1_555
O8 S0 1.453176 1_455
O8 Rb5 2.917621 1_555
O8 Rb0 2.956227 1_555
O8 Rb10 3.024121 1_556
O8 Rb8 3.034400 1_555
O9 S1 1.453176 1_455
O9 Rb5 2.917621 1_555
O9 Rb1 2.956227 1_555
O9 Rb10 3.024121 1_565
O9 Rb9 3.034400 1_555
O10 S2 1.453173 1_555
O10 Rb4 2.917626 1_455
O10 Rb1 2.956236 1_555
O10 Rb11 3.024115 1_454
O10 Rb6 3.034399 1_455
O11 S3 1.453173 1_555
O11 Rb4 2.917626 1_455
O11 Rb0 2.956236 1_555
O11 Rb11 3.024115 1_445
O11 Rb7 3.034399 1_455
O12 S0 1.444189 1_554
O12 Rb3 2.821140 1_555
O12 Rb6 3.101957 1_555
O12 Rb10 3.153679 1_655
O12 Rb4 3.302181 1_555
O13 S1 1.444189 1_545
O13 Rb3 2.821140 1_555
O13 Rb7 3.101957 1_555
O13 Rb10 3.153679 1_655
O13 Rb4 3.302181 1_555
O14 S2 1.444189 1_556
O14 Rb2 2.821140 1_555
O14 Rb8 3.101957 1_555
O14 Rb11 3.153679 1_455
O14 Rb5 3.302181 1_555
O15 S3 1.444189 1_565
O15 Rb2 2.821140 1_555
O15 Rb9 3.101957 1_555
O15 Rb11 3.153679 1_455
O15 Rb5 3.302181 1_555
O16 S4 1.478776 1_555
O16 Rb2 2.741352 1_555
O16 Rb7 2.893808 1_565
O16 Rb6 2.893808 1_556
O16 Rb11 3.225596 1_555
O17 S5 1.478776 1_555
O17 Rb3 2.741352 1_555
O17 Rb9 2.893808 1_545
O17 Rb8 2.893808 1_554
O17 Rb10 3.225596 1_555
O18 S4 1.478293 1_554
O18 Rb1 2.806484 1_555
O18 Rb9 2.892960 1_555
O18 Rb10 2.939269 1_565
O18 Rb6 2.951146 1_555
O19 S4 1.478293 1_545
O19 Rb0 2.806484 1_555
O19 Rb8 2.892960 1_555
O19 Rb10 2.939269 1_556
O19 Rb7 2.951146 1_555
O20 S5 1.478294 1_556
O20 Rb0 2.806491 1_655
O20 Rb7 2.892955 1_555
O20 Rb11 2.939271 1_545
O20 Rb8 2.951141 1_555
O21 S5 1.478294 1_565
O21 Rb1 2.806491 1_655
O21 Rb6 2.892955 1_555
O21 Rb11 2.939271 1_554
O21 Rb9 2.951141 1_555
O22 S4 1.478890 1_555
O22 Rb11 2.898759 1_455
O22 Rb2 3.033011 1_555
O22 Rb0 3.206391 1_565
O22 Rb1 3.206391 1_556
O23 S5 1.478890 1_555
O23 Rb10 2.898759 1_655
O23 Rb3 3.033011 1_555
O23 Rb1 3.206391 1_645
O23 Rb0 3.206391 1_654
O24 S6 1.462350 1_555
O24 Rb0 2.987076 1_655
O24 Rb4 3.011702 1_555
O24 Rb8 3.028031 1_555
O24 Rb7 3.171239 1_555
O25 S6 1.462350 1_555
O25 Rb1 2.987076 1_655
O25 Rb4 3.011702 1_555
O25 Rb9 3.028031 1_555
O25 Rb6 3.171239 1_555
O26 S7 1.462350 1_555
O26 Rb1 2.987076 1_555
O26 Rb5 3.011702 1_555
O26 Rb6 3.028031 1_555
O26 Rb9 3.171239 1_555
O27 S7 1.462350 1_555
O27 Rb0 2.987076 1_555
O27 Rb5 3.011702 1_555
O27 Rb7 3.028031 1_555
O27 Rb8 3.171239 1_555
O28 S6 1.531020 1_555
O28 Rb5 3.206695 1_655
O29 S7 1.531020 1_555
O29 Rb4 3.206695 1_455
O30 S6 1.467936 1_555
O30 Rb5 2.783064 1_555
O30 Rb8 3.053264 1_555
O30 Rb9 3.053264 1_555
O30 Rb2 3.138425 1_555
O31 S7 1.467936 1_555
O31 Rb4 2.783064 1_555
O31 Rb6 3.053264 1_555
O31 Rb7 3.053264 1_555
O31 Rb3 3.138425 1_555
