# generated using pymatgen
data_Li4SnS4
_symmetry_space_group_name_H-M   'P 1'
_cell_length_a   6.33624611
_cell_length_b   7.87287108
_cell_length_c   14.21970100
_cell_angle_alpha   90.00000000
_cell_angle_beta   90.00000000
_cell_angle_gamma   90.00000000
_symmetry_Int_Tables_number   1
_chemical_formula_structural   Li4SnS4
_chemical_formula_sum   'Li16 Sn4 S16'
_cell_volume   709.34194585
_cell_formula_units_Z   4
loop_
 _symmetry_equiv_pos_site_id
 _symmetry_equiv_pos_as_xyz
  1  'x, y, z'
loop_
 _atom_site_type_symbol
 _atom_site_label
 _atom_site_symmetry_multiplicity
 _atom_site_fract_x
 _atom_site_fract_y
 _atom_site_fract_z
 _atom_site_occupancy
  Li  Li0  1  -0.00000000  0.50000000  -0.00000000  1
  Li  Li1  1  0.50000000  0.00000000  0.50000000  1
  Li  Li2  1  -0.00000000  0.00000000  -0.00000000  1
  Li  Li3  1  0.50000000  0.50000000  0.50000000  1
  Li  Li4  1  0.87341033  0.75000000  0.40979166  1
  Li  Li5  1  0.62658967  0.75000000  0.90979166  1
  Li  Li6  1  0.12658967  0.25000000  0.59020834  1
  Li  Li7  1  0.37341033  0.25000000  0.09020834  1
  Li  Li8  1  0.82147816  0.50462610  0.17781033  1
  Li  Li9  1  0.67852184  0.99537390  0.67781033  1
  Li  Li10  1  0.17852184  0.00462610  0.82218967  1
  Li  Li11  1  0.32147816  0.49537390  0.32218967  1
  Li  Li12  1  0.17852184  0.49537390  0.82218967  1
  Li  Li13  1  0.32147816  0.00462610  0.32218967  1
  Li  Li14  1  0.82147816  0.99537390  0.17781033  1
  Li  Li15  1  0.67852184  0.50462610  0.67781033  1
  Sn  Sn0  1  0.35731492  0.75000000  0.09141000  1
  Sn  Sn1  1  0.14268508  0.75000000  0.59141000  1
  Sn  Sn2  1  0.64268508  0.25000000  0.90859000  1
  Sn  Sn3  1  0.85731492  0.25000000  0.40859000  1
  S  S0  1  0.73452177  0.75000000  0.08205075  1
  S  S1  1  0.76547823  0.75000000  0.58205075  1
  S  S2  1  0.26547823  0.25000000  0.91794925  1
  S  S3  1  0.23452177  0.25000000  0.41794925  1
  S  S4  1  0.21275220  0.49923682  0.16004047  1
  S  S5  1  0.28724780  0.00076318  0.66004047  1
  S  S6  1  0.78724780  0.99923682  0.83995953  1
  S  S7  1  0.71275220  0.50076318  0.33995953  1
  S  S8  1  0.78724780  0.50076318  0.83995953  1
  S  S9  1  0.71275220  0.99923682  0.33995953  1
  S  S10  1  0.21275220  0.00076318  0.16004047  1
  S  S11  1  0.28724780  0.49923682  0.66004047  1
  S  S12  1  0.26436615  0.75000000  0.43015306  1
  S  S13  1  0.23563385  0.75000000  0.93015306  1
  S  S14  1  0.73563385  0.25000000  0.56984694  1
  S  S15  1  0.76436615  0.25000000  0.06984694  1
loop_
_geom_bond_atom_site_label_1
_geom_bond_atom_site_label_2
_geom_bond_distance
_geom_bond_site_symmetry_2
Li0 S4 2.645035 1_555
Li0 S8 2.645035 1_454
Li0 S15 2.662608 1_455
Li0 S13 2.662608 1_554
Li0 S2 2.839848 1_554
Li0 S0 2.839848 1_455
Li1 S9 2.645035 1_545
Li1 S5 2.645035 1_555
Li1 S12 2.662608 1_545
Li1 S14 2.662608 1_555
Li1 S3 2.839848 1_555
Li1 S1 2.839848 1_545
Li2 S10 2.645035 1_555
Li2 S6 2.645035 1_444
Li2 S15 2.662608 1_455
Li2 S13 2.662608 1_544
Li2 S2 2.839848 1_554
Li2 S0 2.839848 1_445
Li3 S7 2.645035 1_555
Li3 S11 2.645035 1_555
Li3 S12 2.662608 1_555
Li3 S14 2.662608 1_555
Li3 S3 2.839848 1_555
Li3 S1 2.839848 1_555
Li4 S7 2.423337 1_555
Li4 S9 2.423337 1_555
Li4 S12 2.494055 1_655
Li4 S1 2.543151 1_555
Li5 S6 2.423337 1_555
Li5 S8 2.423337 1_555
Li5 S13 2.494055 1_555
Li5 S0 2.543151 1_556
Li6 S5 2.423337 1_555
Li6 S11 2.423337 1_555
Li6 S14 2.494055 1_455
Li6 S3 2.543151 1_555
Li7 S4 2.423337 1_555
Li7 S10 2.423337 1_555
Li7 S15 2.494055 1_555
Li7 S2 2.543151 1_554
Li8 S7 2.406624 1_555
Li8 S0 2.426843 1_555
Li8 S4 2.492413 1_655
Li8 S15 2.550763 1_555
Li9 S6 2.406624 1_555
Li9 S1 2.426843 1_555
Li9 S5 2.492413 1_565
Li9 S14 2.550763 1_565
Li10 S5 2.406624 1_555
Li10 S2 2.426843 1_555
Li10 S6 2.492413 1_445
Li10 S13 2.550763 1_545
Li11 S4 2.406624 1_555
Li11 S3 2.426843 1_555
Li11 S7 2.492413 1_555
Li11 S12 2.550763 1_555
Li12 S11 2.406624 1_555
Li12 S2 2.426843 1_555
Li12 S8 2.492413 1_455
Li12 S13 2.550763 1_555
Li13 S10 2.406624 1_555
Li13 S3 2.426843 1_555
Li13 S9 2.492413 1_545
Li13 S12 2.550763 1_545
Li14 S9 2.406624 1_555
Li14 S0 2.426843 1_555
Li14 S10 2.492413 1_665
Li14 S15 2.550763 1_565
Li15 S8 2.406624 1_555
Li15 S1 2.426843 1_555
Li15 S11 2.492413 1_555
Li15 S14 2.550763 1_555
S0 Sn0 2.393778 1_555
S1 Sn1 2.393778 1_655
S2 Sn2 2.393778 1_555
S3 Sn3 2.393778 1_455
S4 Sn0 2.385160 1_555
S5 Sn1 2.385160 1_545
S6 Sn2 2.385160 1_565
S7 Sn3 2.385160 1_555
S8 Sn2 2.385160 1_555
S9 Sn3 2.385160 1_565
S10 Sn0 2.385160 1_545
S11 Sn1 2.385160 1_555
S12 Sn1 2.419175 1_555
S13 Sn0 2.419175 1_556
S14 Sn3 2.419175 1_555
S15 Sn2 2.419175 1_554
