# generated using pymatgen
data_Mg4Si3
_symmetry_space_group_name_H-M   'P 1'
_cell_length_a   6.14334100
_cell_length_b   7.16228898
_cell_length_c   7.34320505
_cell_angle_alpha   112.59133089
_cell_angle_beta   88.22205801
_cell_angle_gamma   108.36802026
_symmetry_Int_Tables_number   1
_chemical_formula_structural   Mg4Si3
_chemical_formula_sum   'Mg8 Si6'
_cell_volume   281.61485019
_cell_formula_units_Z   2
loop_
 _symmetry_equiv_pos_site_id
 _symmetry_equiv_pos_as_xyz
  1  'x, y, z'
loop_
 _atom_site_type_symbol
 _atom_site_label
 _atom_site_symmetry_multiplicity
 _atom_site_fract_x
 _atom_site_fract_y
 _atom_site_fract_z
 _atom_site_occupancy
  Mg  Mg0  1  0.06634900  0.80387900  0.76472700  1
  Mg  Mg1  1  0.27332800  0.16237400  0.17987000  1
  Mg  Mg2  1  0.65126200  0.35248700  0.61095500  1
  Mg  Mg3  1  0.94762500  0.02835200  0.48275200  1
  Mg  Mg4  1  0.37427500  0.86857600  0.41945300  1
  Mg  Mg5  1  0.86581100  0.52023500  0.31750200  1
  Mg  Mg6  1  0.72158500  0.13916600  0.89500000  1
  Mg  Mg7  1  0.57862400  0.68996100  0.99042800  1
  Si  Si0  1  0.69366100  0.10282200  0.24406900  1
  Si  Si1  1  0.09859300  0.42753900  0.80899000  1
  Si  Si2  1  0.31625900  0.20345900  0.81404800  1
  Si  Si3  1  0.03436400  0.72145100  0.08925900  1
  Si  Si4  1  0.24003900  0.49562800  0.51544900  1
  Si  Si5  1  0.63828400  0.73423400  0.61759900  1
loop_
_geom_bond_atom_site_label_1
_geom_bond_atom_site_label_2
_geom_bond_distance
_geom_bond_site_symmetry_2
Mg0 Si3 2.654266 1_556
Mg0 Si2 2.673528 1_565
Mg0 Si5 2.695767 1_455
Mg0 Si4 2.760814 1_555
Mg0 Si1 2.902411 1_555
Mg1 Si4 2.751123 1_555
Mg1 Si2 2.808353 1_554
Mg1 Si0 2.827783 1_555
Mg1 Si3 2.845220 1_545
Mg2 Si0 2.659381 1_555
Mg2 Si2 2.692041 1_555
Mg2 Si5 2.742106 1_555
Mg2 Si1 2.944853 1_655
Mg2 Si4 3.196826 1_555
Mg3 Si0 2.683845 1_555
Mg3 Si1 2.824517 1_655
Mg3 Si5 2.827089 1_545
Mg3 Si2 2.971124 1_655
Mg3 Si3 3.037701 1_645
Mg3 Si4 3.178969 1_655
Mg4 Si0 2.784223 1_565
Mg4 Si5 2.806974 1_555
Mg4 Si3 2.883461 1_555
Mg4 Si4 2.886937 1_555
Mg4 Si2 3.067729 1_565
Mg5 Si3 2.601133 1_655
Mg5 Si0 2.674184 1_555
Mg5 Si5 2.779068 1_555
Mg5 Si4 2.844101 1_655
Mg6 Si0 2.669239 1_556
Mg6 Si5 2.722672 1_545
Mg6 Si2 2.791166 1_555
Mg6 Si1 2.815266 1_655
Mg7 Si0 2.691766 1_566
Mg7 Si3 2.831714 1_656
Mg7 Si5 2.874317 1_555
Mg7 Si1 2.971686 1_555
Mg7 Si2 3.088601 1_555
Si1 Si2 2.401395 1_555
Si1 Si3 2.442783 1_556
Si1 Si4 2.462430 1_555
Si4 Si5 2.441874 1_555
