# generated using pymatgen
data_SmHfF7
_symmetry_space_group_name_H-M   'P 1'
_cell_length_a   5.73444071
_cell_length_b   6.12944756
_cell_length_c   8.28094858
_cell_angle_alpha   102.33400671
_cell_angle_beta   90.00000000
_cell_angle_gamma   90.00000000
_symmetry_Int_Tables_number   1
_chemical_formula_structural   SmHfF7
_chemical_formula_sum   'Sm2 Hf2 F14'
_cell_volume   284.34855678
_cell_formula_units_Z   2
loop_
 _symmetry_equiv_pos_site_id
 _symmetry_equiv_pos_as_xyz
  1  'x, y, z'
loop_
 _atom_site_type_symbol
 _atom_site_label
 _atom_site_symmetry_multiplicity
 _atom_site_fract_x
 _atom_site_fract_y
 _atom_site_fract_z
 _atom_site_occupancy
  Sm  Sm0  1  0.69947827  0.65810921  0.68711000  1
  Sm  Sm1  1  0.19947827  0.34189079  0.31289000  1
  Hf  Hf0  1  0.70956909  0.80978601  0.22409990  1
  Hf  Hf1  1  0.20956909  0.19021399  0.77590010  1
  F  F0  1  0.87989134  0.44340662  0.47147474  1
  F  F1  1  0.37989134  0.55659338  0.52852526  1
  F  F2  1  0.43477160  0.94277945  0.77193972  1
  F  F3  1  0.93477160  0.05722055  0.22806028  1
  F  F4  1  0.95842134  0.96030279  0.76004975  1
  F  F5  1  0.45842134  0.03969721  0.23995025  1
  F  F6  1  0.99232634  0.44638725  0.78681520  1
  F  F7  1  0.49232634  0.55361275  0.21318480  1
  F  F8  1  0.69984493  0.75596253  0.97960143  1
  F  F9  1  0.19984493  0.24403747  0.02039857  1
  F  F10  1  0.71225538  0.86083691  0.46979633  1
  F  F11  1  0.21225538  0.13916309  0.53020367  1
  F  F12  1  0.48980271  0.38642492  0.78702904  1
  F  F13  1  0.98980271  0.61357508  0.21297096  1
loop_
_geom_bond_atom_site_label_1
_geom_bond_atom_site_label_2
_geom_bond_distance
_geom_bond_site_symmetry_2
F0 Sm0 2.233128 1_555
F0 Sm1 2.263023 1_655
F1 Sm1 2.233128 1_555
F1 Sm0 2.263023 1_555
F2 Hf1 1.986896 1_565
F2 Sm0 2.306197 1_555
F3 Hf0 1.986896 1_545
F3 Sm1 2.306197 1_655
F4 Hf1 1.999571 1_665
F4 Sm0 2.350044 1_555
F5 Hf0 1.999571 1_545
F5 Sm1 2.350044 1_555
F6 Hf1 1.991230 1_655
F6 Sm0 2.375648 1_555
F7 Hf0 1.991230 1_555
F7 Sm1 2.375648 1_555
F8 Hf0 1.981391 1_556
F8 Sm0 2.367637 1_555
F9 Hf1 1.981391 1_554
F9 Sm1 2.367637 1_555
F10 Hf0 1.991421 1_555
F10 Sm0 2.396498 1_555
F11 Hf1 1.991421 1_555
F11 Sm1 2.396498 1_555
F12 Hf1 1.997483 1_555
F12 Sm0 2.343530 1_555
F13 Hf0 1.997483 1_555
F13 Sm1 2.343530 1_655
