# generated using pymatgen
data_Li6MnSb3(PO4)6
_symmetry_space_group_name_H-M   'P 1'
_cell_length_a   8.50693800
_cell_length_b   8.51256938
_cell_length_c   8.54731717
_cell_angle_alpha   65.70986141
_cell_angle_beta   66.06156433
_cell_angle_gamma   66.05108407
_symmetry_Int_Tables_number   1
_chemical_formula_structural   Li6MnSb3(PO4)6
_chemical_formula_sum   'Li6 Mn1 Sb3 P6 O24'
_cell_volume   493.96107750
_cell_formula_units_Z   1
loop_
 _symmetry_equiv_pos_site_id
 _symmetry_equiv_pos_as_xyz
  1  'x, y, z'
loop_
 _atom_site_type_symbol
 _atom_site_label
 _atom_site_symmetry_multiplicity
 _atom_site_fract_x
 _atom_site_fract_y
 _atom_site_fract_z
 _atom_site_occupancy
  Li  Li0  1  0.98722700  0.01909900  0.00729700  1
  Li  Li1  1  0.24109000  0.63432100  0.85317700  1
  Li  Li2  1  0.51920800  0.48564000  0.49960300  1
  Li  Li3  1  0.79373000  0.34455100  0.12243400  1
  Li  Li4  1  0.33157600  0.11250300  0.80574400  1
  Li  Li5  1  0.12644000  0.79954800  0.33280300  1
  Mn  Mn0  1  0.16090300  0.16741900  0.16191900  1
  Sb  Sb0  1  0.84296600  0.85322500  0.84387100  1
  Sb  Sb1  1  0.65385200  0.65537300  0.64266100  1
  Sb  Sb2  1  0.34849100  0.34936400  0.34715300  1
  P  P0  1  0.92201900  0.58575800  0.25151100  1
  P  P1  1  0.58503900  0.25523200  0.92289300  1
  P  P2  1  0.25018400  0.93099700  0.57867100  1
  P  P3  1  0.74432800  0.06797500  0.41982200  1
  P  P4  1  0.41384000  0.73601800  0.06458800  1
  P  P5  1  0.07854900  0.42893400  0.74257600  1
  O  O0  1  0.92937000  0.46946000  0.66607800  1
  O  O1  1  0.67414700  0.92549600  0.42905900  1
  O  O2  1  0.89913000  0.76175500  0.08797500  1
  O  O3  1  0.39225500  0.65580200  0.94820400  1
  O  O4  1  0.73786800  0.59110000  0.40408300  1
  O  O5  1  0.97048900  0.41867900  0.19432000  1
  O  O6  1  0.75781000  0.08789800  0.90416600  1
  O  O7  1  0.59200600  0.40185400  0.73531700  1
  O  O8  1  0.39159500  0.73888600  0.59536900  1
  O  O9  1  0.78588600  0.03330300  0.59410500  1
  O  O10  1  0.91128700  0.08244900  0.25320600  1
  O  O11  1  0.60179600  0.76590600  0.99588200  1
  O  O12  1  0.41337400  0.20112700  0.97928700  1
  O  O13  1  0.09200200  0.90507300  0.76076300  1
  O  O14  1  0.18817900  0.98260500  0.41515700  1
  O  O15  1  0.60321400  0.26403600  0.39404300  1
  O  O16  1  0.39791600  0.60367600  0.26454900  1
  O  O17  1  0.26023900  0.91371900  0.07576300  1
  O  O18  1  0.06316900  0.58739000  0.79965000  1
  O  O19  1  0.27144000  0.39742900  0.59871300  1
  O  O20  1  0.60167300  0.31686000  0.05934400  1
  O  O21  1  0.08090600  0.25512300  0.90440800  1
  O  O22  1  0.31801500  0.06950300  0.58549600  1
  O  O23  1  0.06679300  0.59391000  0.30934000  1
loop_
_geom_bond_atom_site_label_1
_geom_bond_atom_site_label_2
_geom_bond_distance
_geom_bond_site_symmetry_2
Li0 O10 2.161891 1_555
Li0 O21 2.173183 1_654
Li0 O6 2.229873 1_554
Li0 O2 2.346658 1_545
Li0 O17 2.349640 1_645
Li0 O13 2.373423 1_644
Li1 O3 1.872838 1_555
Li1 O18 1.965456 1_555
Li1 O8 2.075880 1_555
Li1 O13 2.118163 1_555
Li2 O7 2.103102 1_555
Li2 O4 2.110176 1_555
Li2 O15 2.160078 1_555
Li2 O19 2.244255 1_555
Li2 O16 2.300094 1_555
Li2 O8 2.307938 1_555
Li3 O20 2.036645 1_555
Li3 O10 2.066751 1_555
Li3 O5 2.208126 1_555
Li3 O15 2.241734 1_555
Li3 O21 2.446081 1_654
Li4 O21 2.003394 1_555
Li4 O22 2.113918 1_555
Li4 O17 2.245512 1_546
Li4 O12 2.331969 1_555
Li4 O19 2.339248 1_555
Li5 O17 2.044260 1_555
Li5 O23 2.110561 1_555
Li5 O16 2.243819 1_555
Li5 O14 2.250879 1_555
Li5 O10 2.386736 1_465
Mn0 O14 2.126886 1_545
Mn0 O12 2.131440 1_554
Mn0 O5 2.141468 1_455
Mn0 O10 2.253701 1_455
Mn0 O17 2.289594 1_545
Mn0 O21 2.305680 1_554
O0 P5 1.513079 1_655
O0 Sb1 2.268667 1_555
O1 P3 1.518071 1_565
O1 Sb1 2.294151 1_555
O2 P0 1.580333 1_555
O2 Sb0 2.087615 1_554
O3 P4 1.516060 1_556
O3 Sb1 2.656620 1_555
O4 P0 1.577946 1_555
O4 Sb1 2.094330 1_555
O5 P0 1.537579 1_555
O6 P1 1.584878 1_555
O6 Sb0 2.037214 1_545
O7 P1 1.571126 1_555
O7 Sb1 2.176906 1_555
O8 P2 1.578633 1_555
O8 Sb1 2.203170 1_555
O9 P3 1.553094 1_555
O9 Sb0 2.165112 1_545
O10 P3 1.554624 1_555
O11 P4 1.552909 1_556
O11 Sb0 2.174878 1_555
O12 P1 1.539232 1_555
O13 P2 1.593973 1_555
O13 Sb0 2.113647 1_455
O14 P2 1.526272 1_555
O15 P3 1.600212 1_555
O15 Sb2 2.138034 1_555
O16 P4 1.600171 1_555
O16 Sb2 2.145321 1_555
O17 P4 1.554882 1_555
O18 P5 1.555902 1_555
O18 Sb0 2.336769 1_455
O19 P5 1.597863 1_555
O19 Sb2 2.140700 1_555
O20 P1 1.533965 1_554
O20 Sb2 2.558031 1_555
O21 P5 1.554842 1_555
O22 P2 1.537124 1_545
O22 Sb2 2.443942 1_555
O23 P0 1.535428 1_455
O23 Sb2 2.491124 1_555
