# generated using pymatgen
data_MgB3
_symmetry_space_group_name_H-M   'P 1'
_cell_length_a   4.11501300
_cell_length_b   4.11501300
_cell_length_c   6.36605700
_cell_angle_alpha   90.00000000
_cell_angle_beta   90.00000000
_cell_angle_gamma   90.00000000
_symmetry_Int_Tables_number   1
_chemical_formula_structural   MgB3
_chemical_formula_sum   'Mg2 B6'
_cell_volume   107.79855665
_cell_formula_units_Z   2
loop_
 _symmetry_equiv_pos_site_id
 _symmetry_equiv_pos_as_xyz
  1  'x, y, z'
loop_
 _atom_site_type_symbol
 _atom_site_label
 _atom_site_symmetry_multiplicity
 _atom_site_fract_x
 _atom_site_fract_y
 _atom_site_fract_z
 _atom_site_occupancy
  Mg  Mg0  1  0.50000000  0.50000000  0.72346000  1
  Mg  Mg1  1  0.50000000  0.50000000  0.27654000  1
  B  B0  1  0.00000000  0.30094300  0.00000000  1
  B  B1  1  0.00000000  0.69905700  0.00000000  1
  B  B2  1  0.69905700  0.00000000  0.00000000  1
  B  B3  1  0.30094300  0.00000000  0.00000000  1
  B  B4  1  0.00000000  0.00000000  0.81009200  1
  B  B5  1  0.00000000  0.00000000  0.18990800  1
loop_
_geom_bond_atom_site_label_1
_geom_bond_atom_site_label_2
_geom_bond_distance
_geom_bond_site_symmetry_2
Mg0 Mg1 2.845118 1_555
B0 B1 1.638244 1_555
B0 B4 1.730662 1_554
B0 B5 1.730662 1_555
B0 B2 1.751340 1_455
B0 B3 1.751340 1_555
B0 Mg0 2.829054 1_554
B0 Mg0 2.829054 1_454
B0 Mg1 2.829054 1_455
B0 Mg1 2.829054 1_555
B1 B4 1.730662 1_564
B1 B5 1.730662 1_565
B1 B2 1.751340 1_465
B1 B3 1.751340 1_565
B1 Mg0 2.829054 1_554
B1 Mg0 2.829054 1_454
B1 Mg1 2.829054 1_455
B1 Mg1 2.829054 1_555
B2 B3 1.638244 1_555
B2 B4 1.730662 1_654
B2 B5 1.730662 1_655
B2 Mg1 2.829054 1_555
B2 Mg0 2.829054 1_554
B2 Mg0 2.829054 1_544
B2 Mg1 2.829054 1_545
B3 B4 1.730662 1_554
B3 B5 1.730662 1_555
B3 Mg0 2.829054 1_554
B3 Mg0 2.829054 1_544
B3 Mg1 2.829054 1_545
B3 Mg1 2.829054 1_555
B4 Mg0 2.961558 1_455
B4 Mg0 2.961558 1_555
B4 Mg0 2.961558 1_445
B4 Mg0 2.961558 1_545
B5 Mg1 2.961558 1_555
B5 Mg1 2.961558 1_455
B5 Mg1 2.961558 1_445
B5 Mg1 2.961558 1_545
