# generated using pymatgen
data_Y2TiSnO7
_symmetry_space_group_name_H-M   'P 1'
_cell_length_a   7.32205240
_cell_length_b   7.32205240
_cell_length_c   7.32205240
_cell_angle_alpha   120.14257110
_cell_angle_beta   119.93999789
_cell_angle_gamma   89.92859766
_symmetry_Int_Tables_number   1
_chemical_formula_structural   Y2TiSnO7
_chemical_formula_sum   'Y4 Ti2 Sn2 O14'
_cell_volume   277.40248370
_cell_formula_units_Z   2
loop_
 _symmetry_equiv_pos_site_id
 _symmetry_equiv_pos_as_xyz
  1  'x, y, z'
loop_
 _atom_site_type_symbol
 _atom_site_label
 _atom_site_symmetry_multiplicity
 _atom_site_fract_x
 _atom_site_fract_y
 _atom_site_fract_z
 _atom_site_occupancy
  Y  Y0  1  0.00000000  0.50000000  0.50000000  1
  Y  Y1  1  0.50000000  0.50000000  0.00000000  1
  Y  Y2  1  0.50000000  0.00000000  0.00000000  1
  Y  Y3  1  0.50000000  0.50000000  0.50000000  1
  Ti  Ti0  1  0.50000000  0.00000000  0.50000000  1
  Ti  Ti1  1  0.00000000  0.00000000  0.00000000  1
  Sn  Sn0  1  0.00000000  0.50000000  0.00000000  1
  Sn  Sn1  1  0.00000000  0.00000000  0.50000000  1
  O  O0  1  0.62340800  0.37340800  0.25000000  1
  O  O1  1  0.37659200  0.62659200  0.75000000  1
  O  O2  1  0.34087600  0.07949200  0.66906700  1
  O  O3  1  0.34087600  0.67180900  0.26138400  1
  O  O4  1  0.31945400  0.06945400  0.25000000  1
  O  O5  1  0.91042400  0.67180900  0.83093300  1
  O  O6  1  0.91042400  0.07949200  0.23861600  1
  O  O7  1  0.90479700  0.65479700  0.25000000  1
  O  O8  1  0.65912400  0.92050800  0.33093300  1
  O  O9  1  0.65912400  0.32819100  0.73861600  1
  O  O10  1  0.68054600  0.93054600  0.75000000  1
  O  O11  1  0.08957600  0.32819100  0.16906700  1
  O  O12  1  0.08957600  0.92050800  0.76138400  1
  O  O13  1  0.09520300  0.34520300  0.75000000  1
loop_
_geom_bond_atom_site_label_1
_geom_bond_atom_site_label_2
_geom_bond_distance
_geom_bond_site_symmetry_2
O0 Y2 2.229656 1_555
O0 Y3 2.229656 1_555
O0 Y0 2.253294 1_655
O0 Y1 2.253294 1_555
O1 Y3 2.229656 1_555
O1 Y2 2.229656 1_566
O1 Y1 2.253294 1_556
O1 Y0 2.253294 1_555
O2 Ti0 1.985721 1_555
O2 Sn1 2.072839 1_555
O2 Y2 2.482819 1_556
O2 Y1 2.531225 1_556
O3 Ti0 1.985721 1_565
O3 Sn0 2.072839 1_555
O3 Y3 2.482819 1_555
O3 Y1 2.531225 1_555
O4 Ti1 1.968436 1_555
O4 Ti0 1.968436 1_555
O4 Y3 2.614555 1_555
O4 Y2 2.614555 1_555
O5 Ti1 1.985721 1_666
O5 Sn0 2.072839 1_656
O5 Y3 2.482813 1_555
O5 Y0 2.531231 1_655
O6 Ti1 1.985727 1_655
O6 Sn1 2.072837 1_655
O6 Y2 2.482812 1_555
O6 Y0 2.531224 1_655
O7 Sn0 2.075910 1_655
O7 Sn1 2.075910 1_665
O7 Y0 2.435035 1_655
O7 Y1 2.435035 1_555
O8 Ti0 1.985721 1_565
O8 Sn1 2.072839 1_665
O8 Y2 2.482819 1_565
O8 Y1 2.531225 1_555
O9 Ti0 1.985721 1_555
O9 Sn0 2.072839 1_656
O9 Y3 2.482819 1_555
O9 Y1 2.531225 1_556
O10 Ti1 1.968436 1_666
O10 Ti0 1.968436 1_565
O10 Y3 2.614555 1_555
O10 Y2 2.614555 1_566
O11 Ti1 1.985721 1_555
O11 Sn0 2.072839 1_555
O11 Y3 2.482813 1_555
O11 Y0 2.531231 1_555
O12 Ti1 1.985727 1_566
O12 Sn1 2.072837 1_565
O12 Y2 2.482812 1_566
O12 Y0 2.531224 1_555
O13 Sn1 2.075910 1_555
O13 Sn0 2.075910 1_556
O13 Y0 2.435035 1_555
O13 Y1 2.435035 1_556
