# generated using pymatgen
data_Pu3Ru
_symmetry_space_group_name_H-M   'P 1'
_cell_length_a   5.84085144
_cell_length_b   5.84085144
_cell_length_c   5.84085144
_cell_angle_alpha   139.68328358
_cell_angle_beta   139.68328358
_cell_angle_gamma   58.33450441
_symmetry_Int_Tables_number   1
_chemical_formula_structural   Pu3Ru
_chemical_formula_sum   'Pu3 Ru1'
_cell_volume   82.65583530
_cell_formula_units_Z   1
loop_
 _symmetry_equiv_pos_site_id
 _symmetry_equiv_pos_as_xyz
  1  'x, y, z'
loop_
 _atom_site_type_symbol
 _atom_site_label
 _atom_site_symmetry_multiplicity
 _atom_site_fract_x
 _atom_site_fract_y
 _atom_site_fract_z
 _atom_site_occupancy
  Pu  Pu0  1  0.75000200  0.25000000  0.50000200  1
  Pu  Pu1  1  0.25000000  0.75000200  0.50000200  1
  Pu  Pu2  1  0.49999900  0.49999900  0.00000000  1
  Ru  Ru0  1  0.00000000  0.00000000  0.00000000  1
loop_
_geom_bond_atom_site_label_1
_geom_bond_atom_site_label_2
_geom_bond_distance
_geom_bond_site_symmetry_2
Pu0 Pu1 2.846590 1_645
Pu0 Pu1 2.846601 1_656
Pu0 Pu1 2.846601 1_544
Pu0 Pu1 2.846613 1_555
Pu0 Pu2 3.248782 1_656
Pu0 Ru0 3.248790 1_656
Pu0 Pu2 3.248792 1_555
Pu0 Ru0 3.248795 1_655
Pu0 Ru0 3.248795 1_666
Pu0 Ru0 3.248800 1_555
Pu0 Pu2 3.248803 1_556
Pu0 Pu2 3.248803 1_545
Pu1 Pu2 3.248782 1_566
Pu1 Ru0 3.248790 1_566
Pu1 Pu2 3.248792 1_555
Pu1 Ru0 3.248795 1_666
Pu1 Ru0 3.248795 1_565
Pu1 Ru0 3.248800 1_555
Pu1 Pu2 3.248803 1_556
Pu1 Pu2 3.248803 1_455
Pu2 Ru0 2.846601 1_554
Pu2 Ru0 2.846601 1_655
Pu2 Ru0 2.846601 1_666
Pu2 Ru0 2.846601 1_565
