# generated using pymatgen
data_SiO2
_symmetry_space_group_name_H-M   'P 1'
_cell_length_a   15.36322435
_cell_length_b   15.36322435
_cell_length_c   15.36322435
_cell_angle_alpha   109.76827710
_cell_angle_beta   109.55551358
_cell_angle_gamma   109.09061092
_symmetry_Int_Tables_number   1
_chemical_formula_structural   SiO2
_chemical_formula_sum   'Si16 O32'
_cell_volume   2791.31826242
_cell_formula_units_Z   16
loop_
 _symmetry_equiv_pos_site_id
 _symmetry_equiv_pos_as_xyz
  1  'x, y, z'
loop_
 _atom_site_type_symbol
 _atom_site_label
 _atom_site_symmetry_multiplicity
 _atom_site_fract_x
 _atom_site_fract_y
 _atom_site_fract_z
 _atom_site_occupancy
  Si  Si0  1  0.59158500  0.05522300  0.53636200  1
  Si  Si1  1  0.04745600  0.75070900  0.45650200  1
  Si  Si2  1  0.20579300  0.74929100  0.29674700  1
  Si  Si3  1  0.04745600  0.59095400  0.29674700  1
  Si  Si4  1  0.95254400  0.24929100  0.54349800  1
  Si  Si5  1  0.20579300  0.90904600  0.45650200  1
  Si  Si6  1  0.96268700  0.05487900  0.51756600  1
  Si  Si7  1  0.95254400  0.40904600  0.70325300  1
  Si  Si8  1  0.98113800  0.44477700  0.53636200  1
  Si  Si9  1  0.03731300  0.94512100  0.48243400  1
  Si  Si10  1  0.96268700  0.44512100  0.90780900  1
  Si  Si11  1  0.79420700  0.09095400  0.54349800  1
  Si  Si12  1  0.03731300  0.55487900  0.09219100  1
  Si  Si13  1  0.01886200  0.55522300  0.46363800  1
  Si  Si14  1  0.40841500  0.94477700  0.46363800  1
  Si  Si15  1  0.79420700  0.25070900  0.70325300  1
  O  O0  1  0.99421000  0.52156100  0.16707300  1
  O  O1  1  0.00579000  0.17286400  0.52735100  1
  O  O2  1  0.03222800  0.52235700  0.35729500  1
  O  O3  1  0.94638000  0.53833800  0.98471800  1
  O  O4  1  0.33493800  0.82506700  0.35729500  1
  O  O5  1  0.14551200  0.67286400  0.16707300  1
  O  O6  1  0.00579000  0.47843900  0.83292700  1
  O  O7  1  0.85448800  0.02156100  0.52735100  1
  O  O8  1  0.99618000  0.66782200  0.32835800  1
  O  O9  1  0.99421000  0.82713600  0.47264900  1
  O  O10  1  0.16053500  0.83217800  0.32835800  1
  O  O11  1  0.05362000  0.46166200  0.01528200  1
  O  O12  1  0.94638000  0.96166200  0.40804200  1
  O  O13  1  0.51870000  0.96322300  0.55547600  1
  O  O14  1  0.33493800  0.97764300  0.50987100  1
  O  O15  1  0.03222800  0.67493300  0.50987100  1
  O  O16  1  0.09225300  0.53677700  0.55547600  1
  O  O17  1  0.66506200  0.02235700  0.49012900  1
  O  O18  1  0.17488600  0.66717800  0.34206400  1
  O  O19  1  0.05362000  0.03833800  0.59195800  1
  O  O20  1  0.85448800  0.32713600  0.83292700  1
  O  O21  1  0.00382000  0.33217800  0.67164200  1
  O  O22  1  0.96777200  0.32506700  0.49012900  1
  O  O23  1  0.96777200  0.47764300  0.64270500  1
  O  O24  1  0.66506200  0.17493300  0.64270500  1
  O  O25  1  0.48130000  0.03677700  0.44452400  1
  O  O26  1  0.82511400  0.33282200  0.65793600  1
  O  O27  1  0.83946500  0.16782200  0.67164200  1
  O  O28  1  0.14551200  0.97843900  0.47264900  1
  O  O29  1  0.17488600  0.83282200  0.50770800  1
  O  O30  1  0.82511400  0.16717800  0.49229200  1
  O  O31  1  0.90774700  0.46322300  0.44452400  1
loop_
_geom_bond_atom_site_label_1
_geom_bond_atom_site_label_2
_geom_bond_distance
_geom_bond_site_symmetry_2
O0 Si3 1.636010 1_655
O0 Si12 1.646393 1_655
O1 Si4 1.635997 1_455
O1 Si6 1.646393 1_455
O2 Si3 1.636523 1_555
O2 Si13 1.643388 1_555
O3 Si12 1.637761 1_656
O3 Si10 1.672739 1_555
O4 Si2 1.636523 1_555
O4 Si14 1.643396 1_555
O5 Si2 1.636008 1_555
O5 Si12 1.646386 1_555
O6 Si7 1.636010 1_455
O6 Si10 1.646393 1_455
O7 Si11 1.636010 1_555
O7 Si6 1.646378 1_555
O8 Si3 1.651589 1_655
O8 Si1 1.651589 1_655
O9 Si1 1.635997 1_655
O9 Si9 1.646393 1_655
O10 Si5 1.651585 1_555
O10 Si2 1.651600 1_555
O11 Si10 1.637761 1_454
O11 Si12 1.672739 1_555
O12 Si9 1.637772 1_655
O12 Si6 1.672746 1_565
O13 Si14 1.660389 1_555
O13 Si0 1.674344 1_565
O14 Si5 1.636523 1_555
O14 Si14 1.643396 1_555
O15 Si1 1.636523 1_555
O15 Si13 1.643402 1_555
O16 Si13 1.660371 1_555
O16 Si8 1.674362 1_455
O17 Si11 1.636523 1_555
O17 Si0 1.643396 1_555
O18 Si3 1.650817 1_555
O18 Si2 1.650817 1_555
O19 Si6 1.637772 1_455
O19 Si9 1.672746 1_545
O20 Si15 1.636008 1_555
O20 Si10 1.646386 1_555
O21 Si7 1.651589 1_455
O21 Si4 1.651589 1_455
O22 Si4 1.636523 1_555
O22 Si8 1.643402 1_555
O23 Si7 1.636523 1_555
O23 Si8 1.643388 1_555
O24 Si15 1.636523 1_555
O24 Si0 1.643396 1_555
O25 Si0 1.660389 1_555
O25 Si14 1.674344 1_545
O26 Si7 1.650817 1_555
O26 Si15 1.650817 1_555
O27 Si11 1.651585 1_555
O27 Si15 1.651600 1_555
O28 Si5 1.636010 1_555
O28 Si9 1.646378 1_555
O29 Si1 1.650817 1_555
O29 Si5 1.650817 1_555
O30 Si4 1.650817 1_555
O30 Si11 1.650817 1_555
O31 Si8 1.660371 1_555
O31 Si13 1.674362 1_655
