# generated using pymatgen
data_Zr6CoSn2
_symmetry_space_group_name_H-M   'P 1'
_cell_length_a   15.95951781
_cell_length_b   15.95951781
_cell_length_c   6.99138834
_cell_angle_alpha   90.00000000
_cell_angle_beta   90.00000000
_cell_angle_gamma   119.99999406
_symmetry_Int_Tables_number   1
_chemical_formula_structural   Zr6CoSn2
_chemical_formula_sum   'Zr48 Co8 Sn16'
_cell_volume   1542.17484503
_cell_formula_units_Z   8
loop_
 _symmetry_equiv_pos_site_id
 _symmetry_equiv_pos_as_xyz
  1  'x, y, z'
loop_
 _atom_site_type_symbol
 _atom_site_label
 _atom_site_symmetry_multiplicity
 _atom_site_fract_x
 _atom_site_fract_y
 _atom_site_fract_z
 _atom_site_occupancy
  Zr  Zr0_0  1  0.11981868  0.00000000  0.25000000  1
  Zr  Zr0_1  1  0.11981868  0.00000000  0.75000000  1
  Zr  Zr0_2  1  0.11981868  0.50000000  0.25000000  1
  Zr  Zr0_3  1  0.11981868  0.50000000  0.75000000  1
  Zr  Zr0_4  1  0.61981868  0.00000000  0.25000000  1
  Zr  Zr0_5  1  0.61981868  0.00000000  0.75000000  1
  Zr  Zr0_6  1  0.61981868  0.50000000  0.25000000  1
  Zr  Zr0_7  1  0.61981868  0.50000000  0.75000000  1
  Zr  Zr1_0  1  0.00000000  0.11981868  0.25000000  1
  Zr  Zr1_1  1  0.00000000  0.11981868  0.75000000  1
  Zr  Zr1_2  1  1.00000000  0.61981868  0.25000000  1
  Zr  Zr1_3  1  1.00000000  0.61981868  0.75000000  1
  Zr  Zr1_4  1  0.50000000  0.11981868  0.25000000  1
  Zr  Zr1_5  1  0.50000000  0.11981868  0.75000000  1
  Zr  Zr1_6  1  0.50000000  0.61981868  0.25000000  1
  Zr  Zr1_7  1  0.50000000  0.61981868  0.75000000  1
  Zr  Zr2_0  1  0.38018132  0.38018132  0.25000000  1
  Zr  Zr2_1  1  0.38018132  0.38018132  0.75000000  1
  Zr  Zr2_2  1  0.38018132  0.88018132  0.25000000  1
  Zr  Zr2_3  1  0.38018132  0.88018132  0.75000000  1
  Zr  Zr2_4  1  0.88018132  0.38018132  0.25000000  1
  Zr  Zr2_5  1  0.88018132  0.38018132  0.75000000  1
  Zr  Zr2_6  1  0.88018132  0.88018132  0.25000000  1
  Zr  Zr2_7  1  0.88018132  0.88018132  0.75000000  1
  Zr  Zr3_0  1  0.30149933  0.00000000  0.00000000  1
  Zr  Zr3_1  1  0.30149933  0.00000000  0.50000000  1
  Zr  Zr3_2  1  0.30149933  0.50000000  0.00000000  1
  Zr  Zr3_3  1  0.30149933  0.50000000  0.50000000  1
  Zr  Zr3_4  1  0.80149933  0.00000000  0.00000000  1
  Zr  Zr3_5  1  0.80149933  0.00000000  0.50000000  1
  Zr  Zr3_6  1  0.80149933  0.50000000  0.00000000  1
  Zr  Zr3_7  1  0.80149933  0.50000000  0.50000000  1
  Zr  Zr4_0  1  0.00000000  0.30149933  0.00000000  1
  Zr  Zr4_1  1  0.00000000  0.30149933  0.50000000  1
  Zr  Zr4_2  1  1.00000000  0.80149933  0.00000000  1
  Zr  Zr4_3  1  1.00000000  0.80149933  0.50000000  1
  Zr  Zr4_4  1  0.50000000  0.30149933  0.00000000  1
  Zr  Zr4_5  1  0.50000000  0.30149933  0.50000000  1
  Zr  Zr4_6  1  0.50000000  0.80149933  0.00000000  1
  Zr  Zr4_7  1  0.50000000  0.80149933  0.50000000  1
  Zr  Zr5_0  1  0.19850067  0.19850067  0.00000000  1
  Zr  Zr5_1  1  0.19850067  0.19850067  0.50000000  1
  Zr  Zr5_2  1  0.19850067  0.69850067  0.00000000  1
  Zr  Zr5_3  1  0.19850067  0.69850067  0.50000000  1
  Zr  Zr5_4  1  0.69850067  0.19850067  0.00000000  1
  Zr  Zr5_5  1  0.69850067  0.19850067  0.50000000  1
  Zr  Zr5_6  1  0.69850067  0.69850067  0.00000000  1
  Zr  Zr5_7  1  0.69850067  0.69850067  0.50000000  1
  Co  Co0_0  1  0.00000000  0.00000000  0.00000000  1
  Co  Co0_1  1  0.00000000  0.00000000  0.50000000  1
  Co  Co0_2  1  0.00000000  0.50000000  0.00000000  1
  Co  Co0_3  1  0.00000000  0.50000000  0.50000000  1
  Co  Co0_4  1  0.50000000  0.00000000  0.00000000  1
  Co  Co0_5  1  0.50000000  0.00000000  0.50000000  1
  Co  Co0_6  1  0.50000000  0.50000000  0.00000000  1
  Co  Co0_7  1  0.50000000  0.50000000  0.50000000  1
  Sn  Sn0_0  1  0.16666650  0.33333350  0.25000000  1
  Sn  Sn0_1  1  0.16666650  0.33333350  0.75000000  1
  Sn  Sn0_2  1  0.16666650  0.83333350  0.25000000  1
  Sn  Sn0_3  1  0.16666650  0.83333350  0.75000000  1
  Sn  Sn0_4  1  0.66666650  0.33333350  0.25000000  1
  Sn  Sn0_5  1  0.66666650  0.33333350  0.75000000  1
  Sn  Sn0_6  1  0.66666650  0.83333350  0.25000000  1
  Sn  Sn0_7  1  0.66666650  0.83333350  0.75000000  1
  Sn  Sn1_0  1  0.33333350  0.16666650  0.25000000  1
  Sn  Sn1_1  1  0.33333350  0.16666650  0.75000000  1
  Sn  Sn1_2  1  0.33333350  0.66666650  0.25000000  1
  Sn  Sn1_3  1  0.33333350  0.66666650  0.75000000  1
  Sn  Sn1_4  1  0.83333350  0.16666650  0.25000000  1
  Sn  Sn1_5  1  0.83333350  0.16666650  0.75000000  1
  Sn  Sn1_6  1  0.83333350  0.66666650  0.25000000  1
  Sn  Sn1_7  1  0.83333350  0.66666650  0.75000000  1
loop_
_geom_bond_atom_site_label_1
_geom_bond_atom_site_label_2
_geom_bond_distance
_geom_bond_site_symmetry_2
Zr0_0 Zr5_0 3.269522 1_555
Zr0_0 Zr5_1 3.269522 1_555
Zr0_0 Zr4_3 3.269522 1_445
Zr0_0 Zr4_2 3.269522 1_445
Zr0_0 Zr3_0 3.385598 1_555
Zr0_0 Zr3_1 3.385598 1_555
Zr0_1 Zr5_1 3.269522 1_555
Zr0_1 Zr5_0 3.269522 1_556
Zr0_1 Zr4_3 3.269522 1_445
Zr0_1 Zr4_2 3.269522 1_446
Zr0_1 Zr3_1 3.385598 1_555
Zr0_1 Zr3_0 3.385598 1_556
Zr0_2 Zr5_2 3.269522 1_555
Zr0_2 Zr5_3 3.269522 1_555
Zr0_2 Zr4_0 3.269522 1_555
Zr0_2 Zr4_1 3.269522 1_555
Zr0_2 Zr3_3 3.385598 1_555
Zr0_2 Zr3_2 3.385598 1_555
Zr0_3 Zr5_3 3.269522 1_555
Zr0_3 Zr5_2 3.269522 1_556
Zr0_3 Zr4_1 3.269522 1_555
Zr0_3 Zr4_0 3.269522 1_556
Zr0_3 Zr3_3 3.385598 1_555
Zr0_3 Zr3_2 3.385598 1_556
Zr0_4 Zr5_4 3.269522 1_555
Zr0_4 Zr5_5 3.269522 1_555
Zr0_4 Zr4_7 3.269522 1_545
Zr0_4 Zr4_6 3.269522 1_545
Zr0_4 Zr3_4 3.385598 1_555
Zr0_4 Zr3_5 3.385598 1_555
Zr0_5 Zr5_5 3.269522 1_555
Zr0_5 Zr5_4 3.269522 1_556
Zr0_5 Zr4_7 3.269522 1_545
Zr0_5 Zr4_6 3.269522 1_546
Zr0_5 Zr3_5 3.385598 1_555
Zr0_5 Zr3_4 3.385598 1_556
Zr0_6 Zr5_7 3.269522 1_555
Zr0_6 Zr5_6 3.269522 1_555
Zr0_6 Zr4_4 3.269522 1_555
Zr0_6 Zr4_5 3.269522 1_555
Zr0_6 Zr3_7 3.385598 1_555
Zr0_6 Zr3_6 3.385598 1_555
Zr0_7 Zr5_7 3.269522 1_555
Zr0_7 Zr5_6 3.269522 1_556
Zr0_7 Zr4_5 3.269522 1_555
Zr0_7 Zr4_4 3.269522 1_556
Zr0_7 Zr3_7 3.385598 1_555
Zr0_7 Zr3_6 3.385598 1_556
Zr1_0 Zr5_0 3.269522 1_555
Zr1_0 Zr5_1 3.269522 1_555
Zr1_0 Zr3_4 3.269522 1_455
Zr1_0 Zr3_5 3.269522 1_455
Zr1_0 Zr4_1 3.385598 1_555
Zr1_0 Zr4_0 3.385598 1_555
Zr1_1 Zr5_1 3.269522 1_555
Zr1_1 Zr5_0 3.269522 1_556
Zr1_1 Zr3_5 3.269522 1_455
Zr1_1 Zr3_4 3.269522 1_456
Zr1_1 Zr4_1 3.385598 1_555
Zr1_1 Zr4_0 3.385598 1_556
Zr1_2 Zr5_2 3.269522 1_655
Zr1_2 Zr5_3 3.269522 1_655
Zr1_2 Zr3_7 3.269522 1_555
Zr1_2 Zr3_6 3.269522 1_555
Zr1_2 Zr4_2 3.385598 1_555
Zr1_2 Zr4_3 3.385598 1_555
Zr1_3 Zr5_3 3.269522 1_655
Zr1_3 Zr5_2 3.269522 1_656
Zr1_3 Zr3_7 3.269522 1_555
Zr1_3 Zr3_6 3.269522 1_556
Zr1_3 Zr4_3 3.385598 1_555
Zr1_3 Zr4_2 3.385598 1_556
Zr1_4 Zr5_5 3.269522 1_555
Zr1_4 Zr5_4 3.269522 1_555
Zr1_4 Zr3_0 3.269522 1_555
Zr1_4 Zr3_1 3.269522 1_555
Zr1_4 Zr4_5 3.385598 1_555
Zr1_4 Zr4_4 3.385598 1_555
Zr1_5 Zr5_5 3.269522 1_555
Zr1_5 Zr5_4 3.269522 1_556
Zr1_5 Zr3_1 3.269522 1_555
Zr1_5 Zr3_0 3.269522 1_556
Zr1_5 Zr4_5 3.385598 1_555
Zr1_5 Zr4_4 3.385598 1_556
Zr1_6 Zr5_6 3.269522 1_555
Zr1_6 Zr5_7 3.269522 1_555
Zr1_6 Zr3_3 3.269522 1_555
Zr1_6 Zr3_2 3.269522 1_555
Zr1_6 Zr4_6 3.385598 1_555
Zr1_6 Zr4_7 3.385598 1_555
Zr1_7 Zr5_7 3.269522 1_555
Zr1_7 Zr5_6 3.269522 1_556
Zr1_7 Zr3_3 3.269522 1_555
Zr1_7 Zr3_2 3.269522 1_556
Zr1_7 Zr4_7 3.385598 1_555
Zr1_7 Zr4_6 3.385598 1_556
Zr2_0 Zr4_4 3.269522 1_555
Zr2_0 Zr4_5 3.269522 1_555
Zr2_0 Zr3_3 3.269522 1_555
Zr2_0 Zr3_2 3.269522 1_555
Zr2_0 Zr5_0 3.385599 1_555
Zr2_0 Zr5_1 3.385599 1_555
Zr2_1 Zr4_5 3.269522 1_555
Zr2_1 Zr3_3 3.269522 1_555
Zr2_1 Zr3_2 3.269522 1_556
Zr2_1 Zr4_4 3.269522 1_556
Zr2_1 Zr5_1 3.385599 1_555
Zr2_1 Zr5_0 3.385599 1_556
Zr2_2 Zr3_1 3.269522 1_565
Zr2_2 Zr3_0 3.269522 1_565
Zr2_2 Zr4_6 3.269522 1_555
Zr2_2 Zr4_7 3.269522 1_555
Zr2_2 Zr5_2 3.385599 1_555
Zr2_2 Zr5_3 3.385599 1_555
Zr2_3 Zr3_1 3.269522 1_565
Zr2_3 Zr3_0 3.269522 1_566
Zr2_3 Zr4_7 3.269522 1_555
Zr2_3 Zr4_6 3.269522 1_556
Zr2_3 Zr5_3 3.385599 1_555
Zr2_3 Zr5_2 3.385599 1_556
Zr2_4 Zr3_7 3.269522 1_555
Zr2_4 Zr3_6 3.269522 1_555
Zr2_4 Zr4_1 3.269522 1_655
Zr2_4 Zr4_0 3.269522 1_655
Zr2_4 Zr5_4 3.385599 1_555
Zr2_4 Zr5_5 3.385599 1_555
Zr2_5 Zr3_7 3.269522 1_555
Zr2_5 Zr3_6 3.269522 1_556
Zr2_5 Zr4_1 3.269522 1_655
Zr2_5 Zr4_0 3.269522 1_656
Zr2_5 Zr5_5 3.385599 1_555
Zr2_5 Zr5_4 3.385599 1_556
Zr2_6 Zr3_5 3.269522 1_565
Zr2_6 Zr3_4 3.269522 1_565
Zr2_6 Zr4_3 3.269522 1_555
Zr2_6 Zr4_2 3.269522 1_555
Zr2_6 Zr5_7 3.385599 1_555
Zr2_6 Zr5_6 3.385599 1_555
Zr2_7 Zr3_5 3.269522 1_565
Zr2_7 Zr3_4 3.269522 1_566
Zr2_7 Zr4_3 3.269522 1_555
Zr2_7 Zr4_2 3.269522 1_556
Zr2_7 Zr5_7 3.385599 1_555
Zr2_7 Zr5_6 3.385599 1_556
Zr3_0 Zr3_1 3.495694 1_555
Zr3_0 Zr3_1 3.495694 1_554
Zr3_2 Zr3_3 3.495694 1_555
Zr3_2 Zr3_3 3.495694 1_554
Zr3_4 Zr3_5 3.495694 1_555
Zr3_4 Zr3_5 3.495694 1_554
Zr3_6 Zr3_7 3.495694 1_555
Zr3_6 Zr3_7 3.495694 1_554
Zr4_0 Zr4_1 3.495694 1_555
Zr4_0 Zr4_1 3.495694 1_554
Zr4_2 Zr4_3 3.495694 1_555
Zr4_2 Zr4_3 3.495694 1_554
Zr4_4 Zr4_5 3.495694 1_555
Zr4_4 Zr4_5 3.495694 1_554
Zr4_6 Zr4_7 3.495694 1_555
Zr4_6 Zr4_7 3.495694 1_554
Zr5_0 Zr5_1 3.495694 1_555
Zr5_0 Zr5_1 3.495694 1_554
Zr5_2 Zr5_3 3.495694 1_555
Zr5_2 Zr5_3 3.495694 1_554
Zr5_4 Zr5_5 3.495694 1_555
Zr5_4 Zr5_5 3.495694 1_554
Zr5_6 Zr5_7 3.495694 1_555
Zr5_6 Zr5_7 3.495694 1_554
Co0_0 Zr0_0 2.590688 1_555
Co0_0 Zr1_0 2.590688 1_555
Co0_0 Zr0_1 2.590688 1_554
Co0_0 Zr1_1 2.590688 1_554
Co0_0 Zr2_6 2.590688 1_445
Co0_0 Zr2_7 2.590688 1_444
Co0_0 Zr4_2 3.167975 1_445
Co0_0 Zr3_4 3.167975 1_455
Co0_0 Zr5_0 3.167975 1_555
Co0_1 Zr0_0 2.590688 1_555
Co0_1 Zr0_1 2.590688 1_555
Co0_1 Zr1_0 2.590688 1_555
Co0_1 Zr1_1 2.590688 1_555
Co0_1 Zr2_6 2.590688 1_445
Co0_1 Zr2_7 2.590688 1_445
Co0_1 Zr4_3 3.167975 1_445
Co0_1 Zr3_5 3.167975 1_455
Co0_1 Zr5_1 3.167975 1_555
Co0_2 Zr0_2 2.590688 1_555
Co0_2 Zr0_3 2.590688 1_554
Co0_2 Zr1_2 2.590688 1_455
Co0_2 Zr1_3 2.590688 1_454
Co0_2 Zr2_4 2.590688 1_455
Co0_2 Zr2_5 2.590688 1_454
Co0_2 Zr4_0 3.167975 1_555
Co0_2 Zr3_6 3.167975 1_455
Co0_2 Zr5_2 3.167975 1_555
Co0_3 Zr0_3 2.590688 1_555
Co0_3 Zr0_2 2.590688 1_555
Co0_3 Zr1_3 2.590688 1_455
Co0_3 Zr1_2 2.590688 1_455
Co0_3 Zr2_5 2.590688 1_455
Co0_3 Zr2_4 2.590688 1_455
Co0_3 Zr4_1 3.167975 1_555
Co0_3 Zr3_7 3.167975 1_455
Co0_3 Zr5_3 3.167975 1_555
Co0_4 Zr0_4 2.590688 1_555
Co0_4 Zr0_5 2.590688 1_554
Co0_4 Zr1_4 2.590688 1_555
Co0_4 Zr1_5 2.590688 1_554
Co0_4 Zr2_2 2.590688 1_545
Co0_4 Zr2_3 2.590688 1_544
Co0_4 Zr4_6 3.167975 1_545
Co0_4 Zr3_0 3.167975 1_555
Co0_4 Zr5_4 3.167975 1_555
Co0_5 Zr0_5 2.590688 1_555
Co0_5 Zr0_4 2.590688 1_555
Co0_5 Zr1_5 2.590688 1_555
Co0_5 Zr1_4 2.590688 1_555
Co0_5 Zr2_3 2.590688 1_545
Co0_5 Zr2_2 2.590688 1_545
Co0_5 Zr4_7 3.167975 1_545
Co0_5 Zr3_1 3.167975 1_555
Co0_5 Zr5_5 3.167975 1_555
Co0_6 Zr0_6 2.590688 1_555
Co0_6 Zr0_7 2.590688 1_554
Co0_6 Zr1_6 2.590688 1_555
Co0_6 Zr1_7 2.590688 1_554
Co0_6 Zr2_0 2.590688 1_555
Co0_6 Zr2_1 2.590688 1_554
Co0_6 Zr3_2 3.167975 1_555
Co0_6 Zr4_4 3.167975 1_555
Co0_6 Zr5_6 3.167975 1_555
Co0_7 Zr0_7 2.590688 1_555
Co0_7 Zr0_6 2.590688 1_555
Co0_7 Zr1_7 2.590688 1_555
Co0_7 Zr1_6 2.590688 1_555
Co0_7 Zr2_0 2.590688 1_555
Co0_7 Zr2_1 2.590688 1_555
Co0_7 Zr4_5 3.167975 1_555
Co0_7 Zr3_3 3.167975 1_555
Co0_7 Zr5_7 3.167975 1_555
Sn0_0 Zr4_0 3.006137 1_555
Sn0_0 Zr4_1 3.006137 1_555
Sn0_0 Zr3_3 3.006139 1_555
Sn0_0 Zr3_2 3.006139 1_555
Sn0_0 Zr5_1 3.006143 1_555
Sn0_0 Zr5_0 3.006143 1_555
Sn0_0 Zr0_2 3.102080 1_555
Sn0_0 Zr1_0 3.102086 1_555
Sn0_0 Zr2_0 3.102088 1_555
Sn0_1 Zr4_1 3.006137 1_555
Sn0_1 Zr4_0 3.006137 1_556
Sn0_1 Zr3_3 3.006139 1_555
Sn0_1 Zr3_2 3.006139 1_556
Sn0_1 Zr5_1 3.006143 1_555
Sn0_1 Zr5_0 3.006143 1_556
Sn0_1 Zr0_3 3.102080 1_555
Sn0_1 Zr1_1 3.102086 1_555
Sn0_1 Zr2_1 3.102088 1_555
Sn0_2 Zr4_2 3.006137 1_455
Sn0_2 Zr4_3 3.006137 1_455
Sn0_2 Zr3_1 3.006139 1_565
Sn0_2 Zr3_0 3.006139 1_565
Sn0_2 Zr5_2 3.006143 1_555
Sn0_2 Zr5_3 3.006143 1_555
Sn0_2 Zr0_0 3.102080 1_565
Sn0_2 Zr1_2 3.102086 1_455
Sn0_2 Zr2_2 3.102088 1_555
Sn0_3 Zr4_3 3.006137 1_455
Sn0_3 Zr4_2 3.006137 1_456
Sn0_3 Zr3_1 3.006139 1_565
Sn0_3 Zr3_0 3.006139 1_566
Sn0_3 Zr5_3 3.006143 1_555
Sn0_3 Zr5_2 3.006143 1_556
Sn0_3 Zr0_1 3.102080 1_565
Sn0_3 Zr1_3 3.102086 1_455
Sn0_3 Zr2_3 3.102088 1_555
Sn0_4 Zr4_5 3.006137 1_555
Sn0_4 Zr4_4 3.006137 1_555
Sn0_4 Zr3_7 3.006139 1_555
Sn0_4 Zr3_6 3.006139 1_555
Sn0_4 Zr5_5 3.006143 1_555
Sn0_4 Zr5_4 3.006143 1_555
Sn0_4 Zr0_6 3.102080 1_555
Sn0_4 Zr1_4 3.102086 1_555
Sn0_4 Zr2_4 3.102088 1_555
Sn0_5 Zr4_5 3.006137 1_555
Sn0_5 Zr4_4 3.006137 1_556
Sn0_5 Zr3_7 3.006139 1_555
Sn0_5 Zr3_6 3.006139 1_556
Sn0_5 Zr5_5 3.006143 1_555
Sn0_5 Zr5_4 3.006143 1_556
Sn0_5 Zr0_7 3.102080 1_555
Sn0_5 Zr1_5 3.102086 1_555
Sn0_5 Zr2_5 3.102088 1_555
Sn0_6 Zr4_6 3.006137 1_555
Sn0_6 Zr4_7 3.006137 1_555
Sn0_6 Zr3_4 3.006139 1_565
Sn0_6 Zr3_5 3.006139 1_565
Sn0_6 Zr5_7 3.006143 1_555
Sn0_6 Zr5_6 3.006143 1_555
Sn0_6 Zr0_4 3.102080 1_565
Sn0_6 Zr1_6 3.102086 1_555
Sn0_6 Zr2_6 3.102088 1_555
Sn0_7 Zr4_7 3.006137 1_555
Sn0_7 Zr4_6 3.006137 1_556
Sn0_7 Zr3_5 3.006139 1_565
Sn0_7 Zr3_4 3.006139 1_566
Sn0_7 Zr5_7 3.006143 1_555
Sn0_7 Zr5_6 3.006143 1_556
Sn0_7 Zr0_5 3.102080 1_565
Sn0_7 Zr1_7 3.102086 1_555
Sn0_7 Zr2_7 3.102088 1_555
Sn1_0 Zr3_0 3.006137 1_555
Sn1_0 Zr3_1 3.006137 1_555
Sn1_0 Zr4_4 3.006139 1_555
Sn1_0 Zr4_5 3.006139 1_555
Sn1_0 Zr5_0 3.006143 1_555
Sn1_0 Zr5_1 3.006143 1_555
Sn1_0 Zr1_4 3.102080 1_555
Sn1_0 Zr0_0 3.102086 1_555
Sn1_0 Zr2_0 3.102088 1_555
Sn1_1 Zr3_1 3.006137 1_555
Sn1_1 Zr3_0 3.006137 1_556
Sn1_1 Zr4_5 3.006139 1_555
Sn1_1 Zr4_4 3.006139 1_556
Sn1_1 Zr5_1 3.006143 1_555
Sn1_1 Zr5_0 3.006143 1_556
Sn1_1 Zr1_5 3.102080 1_555
Sn1_1 Zr0_1 3.102086 1_555
Sn1_1 Zr2_1 3.102088 1_555
Sn1_2 Zr3_3 3.006137 1_555
Sn1_2 Zr3_2 3.006137 1_555
Sn1_2 Zr4_7 3.006139 1_555
Sn1_2 Zr4_6 3.006139 1_555
Sn1_2 Zr5_2 3.006143 1_555
Sn1_2 Zr5_3 3.006143 1_555
Sn1_2 Zr1_6 3.102080 1_555
Sn1_2 Zr0_2 3.102086 1_555
Sn1_2 Zr2_2 3.102088 1_555
Sn1_3 Zr3_3 3.006137 1_555
Sn1_3 Zr3_2 3.006137 1_556
Sn1_3 Zr4_7 3.006139 1_555
Sn1_3 Zr4_6 3.006139 1_556
Sn1_3 Zr5_3 3.006143 1_555
Sn1_3 Zr5_2 3.006143 1_556
Sn1_3 Zr1_7 3.102080 1_555
Sn1_3 Zr0_3 3.102086 1_555
Sn1_3 Zr2_3 3.102088 1_555
Sn1_4 Zr3_5 3.006137 1_555
Sn1_4 Zr3_4 3.006137 1_555
Sn1_4 Zr4_1 3.006139 1_655
Sn1_4 Zr4_0 3.006139 1_655
Sn1_4 Zr5_4 3.006143 1_555
Sn1_4 Zr5_5 3.006143 1_555
Sn1_4 Zr1_0 3.102080 1_655
Sn1_4 Zr0_4 3.102086 1_555
Sn1_4 Zr2_4 3.102088 1_555
Sn1_5 Zr3_5 3.006137 1_555
Sn1_5 Zr3_4 3.006137 1_556
Sn1_5 Zr4_1 3.006139 1_655
Sn1_5 Zr4_0 3.006139 1_656
Sn1_5 Zr5_5 3.006143 1_555
Sn1_5 Zr5_4 3.006143 1_556
Sn1_5 Zr1_1 3.102080 1_655
Sn1_5 Zr0_5 3.102086 1_555
Sn1_5 Zr2_5 3.102088 1_555
Sn1_6 Zr3_7 3.006137 1_555
Sn1_6 Zr3_6 3.006137 1_555
Sn1_6 Zr4_3 3.006139 1_555
Sn1_6 Zr4_2 3.006139 1_555
Sn1_6 Zr5_6 3.006143 1_555
Sn1_6 Zr5_7 3.006143 1_555
Sn1_6 Zr1_2 3.102080 1_555
Sn1_6 Zr0_6 3.102086 1_555
Sn1_6 Zr2_6 3.102088 1_555
Sn1_7 Zr3_7 3.006137 1_555
Sn1_7 Zr3_6 3.006137 1_556
Sn1_7 Zr4_3 3.006139 1_555
Sn1_7 Zr4_2 3.006139 1_556
Sn1_7 Zr5_7 3.006143 1_555
Sn1_7 Zr5_6 3.006143 1_556
Sn1_7 Zr1_3 3.102080 1_555
Sn1_7 Zr0_7 3.102086 1_555
Sn1_7 Zr2_7 3.102088 1_555
