# generated using pymatgen
data_Na2ZrSi3O11
_symmetry_space_group_name_H-M   'P 1'
_cell_length_a   7.43699522
_cell_length_b   7.43699522
_cell_length_c   10.41530910
_cell_angle_alpha   89.91540693
_cell_angle_beta   89.91540693
_cell_angle_gamma   119.77346057
_symmetry_Int_Tables_number   1
_chemical_formula_structural   Na2ZrSi3O11
_chemical_formula_sum   'Na4 Zr2 Si6 O22'
_cell_volume   500.01472076
_cell_formula_units_Z   2
loop_
 _symmetry_equiv_pos_site_id
 _symmetry_equiv_pos_as_xyz
  1  'x, y, z'
loop_
 _atom_site_type_symbol
 _atom_site_label
 _atom_site_symmetry_multiplicity
 _atom_site_fract_x
 _atom_site_fract_y
 _atom_site_fract_z
 _atom_site_occupancy
  Na  Na0  1  0.27712800  0.63767500  0.02541000  1
  Na  Na1  1  0.72287200  0.36232500  0.97459000  1
  Na  Na2  1  0.63767500  0.27712800  0.52541000  1
  Na  Na3  1  0.36232500  0.72287200  0.47459000  1
  Zr  Zr0  1  0.00000000  0.00000000  0.00000000  1
  Zr  Zr1  1  0.00000000  0.00000000  0.50000000  1
  Si  Si0  1  0.19670200  0.39367300  0.75134200  1
  Si  Si1  1  0.19606600  0.80393400  0.75000000  1
  Si  Si2  1  0.60632700  0.80329800  0.74865800  1
  Si  Si3  1  0.80329800  0.60632700  0.24865800  1
  Si  Si4  1  0.80393400  0.19606600  0.25000000  1
  Si  Si5  1  0.39367300  0.19670200  0.25134200  1
  O  O0  1  0.45245300  0.90631300  0.74335200  1
  O  O1  1  0.45214300  0.54785700  0.75000000  1
  O  O2  1  0.09368700  0.54754700  0.75664800  1
  O  O3  1  0.54754700  0.09368700  0.25664800  1
  O  O4  1  0.54785700  0.45214300  0.25000000  1
  O  O5  1  0.90631300  0.45245300  0.24335200  1
  O  O6  1  0.13125700  0.26936900  0.88664400  1
  O  O7  1  0.13276700  0.86443600  0.88443400  1
  O  O8  1  0.73823800  0.87086600  0.87965500  1
  O  O9  1  0.86874300  0.73063100  0.11335600  1
  O  O10  1  0.86723300  0.13556400  0.11556600  1
  O  O11  1  0.26176200  0.12913400  0.12034500  1
  O  O12  1  0.87086600  0.73823800  0.37965500  1
  O  O13  1  0.86443600  0.13276700  0.38443400  1
  O  O14  1  0.26936900  0.13125700  0.38664400  1
  O  O15  1  0.12913400  0.26176200  0.62034500  1
  O  O16  1  0.13556400  0.86723300  0.61556600  1
  O  O17  1  0.73063100  0.86874300  0.61335600  1
  O  O18  1  0.50000000  0.00000000  0.00000000  1
  O  O19  1  0.50000000  0.50000000  0.00000000  1
  O  O20  1  0.00000000  0.50000000  0.50000000  1
  O  O21  1  0.50000000  0.50000000  0.50000000  1
loop_
_geom_bond_atom_site_label_1
_geom_bond_atom_site_label_2
_geom_bond_distance
_geom_bond_site_symmetry_2
Na0 O19 2.355982 1_555
Na0 O18 2.374694 1_565
Na0 O6 2.798852 1_554
Na0 O7 2.819234 1_554
Na1 O19 2.355982 1_556
Na1 O18 2.374694 1_556
Na1 O9 2.798852 1_556
Na1 O10 2.819234 1_556
Na2 O21 2.355982 1_555
Na2 O20 2.374694 1_655
Na2 O14 2.798852 1_555
Na2 O13 2.819234 1_555
Na3 O21 2.355982 1_555
Na3 O20 2.374694 1_555
Na3 O17 2.798852 1_555
Na3 O16 2.819234 1_555
O0 Si2 1.664430 1_555
O0 Si1 1.666682 1_555
O1 Si2 1.661452 1_555
O1 Si0 1.661452 1_555
O2 Si0 1.664430 1_555
O2 Si1 1.666682 1_555
O3 Si5 1.664430 1_555
O3 Si4 1.666682 1_555
O4 Si3 1.661452 1_555
O4 Si5 1.661452 1_555
O5 Si3 1.664430 1_555
O5 Si4 1.666682 1_555
O6 Si0 1.620076 1_555
O6 Zr0 2.099398 1_556
O7 Si1 1.610847 1_555
O7 Zr0 2.104492 1_566
O8 Si2 1.610224 1_555
O8 Zr0 2.106450 1_666
O9 Si3 1.620076 1_555
O9 Zr0 2.099398 1_665
O10 Si4 1.610847 1_555
O10 Zr0 2.104492 1_655
O11 Si5 1.610224 1_555
O11 Zr0 2.106450 1_555
O12 Si3 1.610224 1_555
O12 Zr1 2.106450 1_665
O13 Si4 1.610847 1_555
O13 Zr1 2.104492 1_655
O14 Si5 1.620076 1_555
O14 Zr1 2.099398 1_555
O15 Si0 1.610224 1_555
O15 Zr1 2.106450 1_555
O16 Si1 1.610847 1_555
O16 Zr1 2.104492 1_565
O17 Si2 1.620076 1_555
O17 Zr1 2.099398 1_665
