# generated using pymatgen
data_BaNi2(PO4)2
_symmetry_space_group_name_H-M   'P 1'
_cell_length_a   4.85254028
_cell_length_b   8.40549252
_cell_length_c   4.85253996
_cell_angle_alpha   89.99999662
_cell_angle_beta   59.99999832
_cell_angle_gamma   73.22267375
_symmetry_Int_Tables_number   1
_chemical_formula_structural   BaNi2(PO4)2
_chemical_formula_sum   'Ba1 Ni2 P2 O8'
_cell_volume   161.60692935
_cell_formula_units_Z   1
loop_
 _symmetry_equiv_pos_site_id
 _symmetry_equiv_pos_as_xyz
  1  'x, y, z'
loop_
 _atom_site_type_symbol
 _atom_site_label
 _atom_site_symmetry_multiplicity
 _atom_site_fract_x
 _atom_site_fract_y
 _atom_site_fract_z
 _atom_site_occupancy
  Ba  Ba0  1  0.00000000  0.00000000  0.00000000  1
  Ni  Ni0  1  0.33765600  0.49351600  0.83117200  1
  Ni  Ni1  1  0.66234400  0.50648400  0.16882800  1
  P  P0  1  0.85522500  0.71716200  0.57238700  1
  P  P1  1  0.14477500  0.28283800  0.42761300  1
  O  O0  1  0.72658800  0.91011800  0.63670600  1
  O  O1  1  0.27341200  0.08988200  0.36329400  1
  O  O2  1  0.80018000  0.34618200  0.75983300  1
  O  O3  1  0.09380600  0.34618200  0.14636200  1
  O  O4  1  0.41365100  0.34618200  0.43998800  1
  O  O5  1  0.19982000  0.65381800  0.24016700  1
  O  O6  1  0.90619400  0.65381800  0.85363800  1
  O  O7  1  0.58634900  0.65381800  0.56001200  1
loop_
_geom_bond_atom_site_label_1
_geom_bond_atom_site_label_2
_geom_bond_distance
_geom_bond_site_symmetry_2
Ba0 O1 2.890747 1_554
Ba0 O0 2.890747 1_445
Ba0 O1 2.890748 1_555
Ba0 O0 2.890748 1_444
Ba0 O0 2.890748 1_544
Ba0 O1 2.890748 1_455
Ba0 O2 3.204167 1_454
Ba0 O5 3.204167 1_545
Ba0 O4 3.204168 1_455
Ba0 O7 3.204168 1_544
Ba0 O3 3.204170 1_555
Ba0 O6 3.204170 1_444
Ni0 O4 2.075886 1_555
Ni0 O3 2.075888 1_556
Ni0 O2 2.075890 1_555
Ni0 O5 2.086638 1_556
Ni0 O7 2.086640 1_555
Ni0 O6 2.086642 1_455
Ni1 O7 2.075886 1_555
Ni1 O6 2.075888 1_554
Ni1 O5 2.075890 1_555
Ni1 O2 2.086638 1_554
Ni1 O4 2.086640 1_555
Ni1 O3 2.086642 1_655
O0 P0 1.529147 1_555
O1 P1 1.529147 1_555
O2 P1 1.571247 1_655
O3 P1 1.571247 1_555
O4 P1 1.571247 1_555
O5 P0 1.571247 1_455
O6 P0 1.571247 1_555
O7 P0 1.571247 1_555
