# generated using pymatgen
data_Mn3Cr3O8
_symmetry_space_group_name_H-M   'P 1'
_cell_length_a   6.00422372
_cell_length_b   5.96918871
_cell_length_c   10.25346139
_cell_angle_alpha   73.07523460
_cell_angle_beta   88.73120546
_cell_angle_gamma   60.17692899
_symmetry_Int_Tables_number   1
_chemical_formula_structural   Mn3Cr3O8
_chemical_formula_sum   'Mn6 Cr6 O16'
_cell_volume   301.66286695
_cell_formula_units_Z   2
loop_
 _symmetry_equiv_pos_site_id
 _symmetry_equiv_pos_as_xyz
  1  'x, y, z'
loop_
 _atom_site_type_symbol
 _atom_site_label
 _atom_site_symmetry_multiplicity
 _atom_site_fract_x
 _atom_site_fract_y
 _atom_site_fract_z
 _atom_site_occupancy
  Mn  Mn0  1  0.81246839  0.37527335  0.43689935  1
  Mn  Mn1  1  0.31283222  0.37483823  0.93745384  1
  Mn  Mn2  1  0.50764552  0.99568495  0.50060991  1
  Mn  Mn3  1  0.11645919  0.75446980  0.37430283  1
  Mn  Mn4  1  0.61585217  0.75501814  0.87328625  1
  Mn  Mn5  1  0.00907434  0.99494486  0.00136384  1
  Cr  Cr0  1  0.06310086  0.37489649  0.18739304  1
  Cr  Cr1  1  0.56220945  0.37519300  0.68710594  1
  Cr  Cr2  1  0.56292032  0.87509915  0.18777279  1
  Cr  Cr3  1  0.06206812  0.87543157  0.68749223  1
  Cr  Cr4  1  0.56292213  0.37467410  0.18774878  1
  Cr  Cr5  1  0.06216738  0.37497938  0.68747130  1
  O  O0  1  0.42294349  0.14271227  0.29201737  1
  O  O1  1  0.92250296  0.14253901  0.79238912  1
  O  O2  1  0.70186412  0.60775119  0.08299033  1
  O  O3  1  0.20127636  0.60779474  0.58308278  1
  O  O4  1  0.67733284  0.12241157  0.07811136  1
  O  O5  1  0.17818379  0.12083977  0.57991244  1
  O  O6  1  0.21536646  0.57953888  0.06683666  1
  O  O7  1  0.71392740  0.58044172  0.56714202  1
  O  O8  1  0.21540943  0.13850173  0.06684318  1
  O  O9  1  0.71389137  0.13826039  0.56711050  1
  O  O10  1  0.44864217  0.62716044  0.29732604  1
  O  O11  1  0.94771318  0.62765609  0.79681091  1
  O  O12  1  0.91090883  0.16998484  0.30747610  1
  O  O13  1  0.40983932  0.17077672  0.80779646  1
  O  O14  1  0.91079506  0.61175167  0.30749993  1
  O  O15  1  0.40968113  0.61137395  0.80775472  1
loop_
_geom_bond_atom_site_label_1
_geom_bond_atom_site_label_2
_geom_bond_distance
_geom_bond_site_symmetry_2
Mn0 O12 1.950295 1_555
Mn0 O14 1.950706 1_555
Mn0 O7 1.956999 1_555
Mn0 O9 1.957694 1_555
Mn0 O10 2.167827 1_555
Mn0 O5 2.192584 1_655
Mn1 O8 1.946576 1_556
Mn1 O15 1.946633 1_555
Mn1 O13 1.947627 1_555
Mn1 O6 1.947717 1_556
Mn1 O4 2.175925 1_556
Mn1 O11 2.178363 1_455
Mn2 O5 1.986189 1_565
Mn2 O0 2.028462 1_565
Mn2 O7 2.035329 1_555
Mn2 O9 2.036239 1_565
Mn3 O10 1.987568 1_555
Mn3 O3 2.030298 1_555
Mn3 O14 2.035521 1_455
Mn3 O12 2.036601 1_465
Mn4 O11 1.983516 1_555
Mn4 O15 2.036441 1_555
Mn4 O13 2.037926 1_565
Mn4 O2 2.039585 1_556
Mn5 O4 1.984292 1_465
Mn5 O1 2.032809 1_464
Mn5 O6 2.036219 1_555
Mn5 O8 2.036577 1_565
Cr0 O0 1.999582 1_555
Cr0 O2 2.005032 1_455
Cr0 O14 2.007410 1_455
Cr0 O12 2.008033 1_455
Cr0 O8 2.009284 1_555
Cr0 O6 2.009379 1_555
Cr1 O3 2.002283 1_555
Cr1 O1 2.004034 1_555
Cr1 O9 2.006450 1_555
Cr1 O7 2.006717 1_555
Cr1 O15 2.009392 1_555
Cr1 O13 2.009552 1_555
Cr2 O4 1.980800 1_565
Cr2 O10 1.982667 1_555
Cr2 O0 2.004893 1_565
Cr2 O2 2.007828 1_555
Cr2 O14 2.016192 1_555
Cr2 O8 2.019801 1_565
Cr3 O5 1.972227 1_565
Cr3 O11 1.981437 1_455
Cr3 O3 2.006231 1_555
Cr3 O1 2.007685 1_465
Cr3 O15 2.017754 1_555
Cr3 O9 2.019855 1_465
Cr4 O4 1.981311 1_555
Cr4 O10 1.981870 1_555
Cr4 O0 2.005587 1_555
Cr4 O2 2.007498 1_555
Cr4 O12 2.016565 1_555
Cr4 O6 2.020103 1_555
Cr5 O5 1.972771 1_555
Cr5 O11 1.980779 1_455
Cr5 O3 2.005859 1_555
Cr5 O1 2.008452 1_455
Cr5 O13 2.018206 1_555
Cr5 O7 2.020120 1_455
