# generated using pymatgen
data_Rb3NiO2
_symmetry_space_group_name_H-M   'P 1'
_cell_length_a   6.33747300
_cell_length_b   6.33747300
_cell_length_c   7.57056100
_cell_angle_alpha   90.00000000
_cell_angle_beta   90.00000000
_cell_angle_gamma   90.00000000
_symmetry_Int_Tables_number   1
_chemical_formula_structural   Rb3NiO2
_chemical_formula_sum   'Rb6 Ni2 O4'
_cell_volume   304.06071143
_cell_formula_units_Z   2
loop_
 _symmetry_equiv_pos_site_id
 _symmetry_equiv_pos_as_xyz
  1  'x, y, z'
loop_
 _atom_site_type_symbol
 _atom_site_label
 _atom_site_symmetry_multiplicity
 _atom_site_fract_x
 _atom_site_fract_y
 _atom_site_fract_z
 _atom_site_occupancy
  Rb  Rb0  1  0.00000000  0.50000000  0.25000000  1
  Rb  Rb1  1  0.50000000  0.00000000  0.75000000  1
  Rb  Rb2  1  0.00000000  0.50000000  0.75000000  1
  Rb  Rb3  1  0.50000000  0.00000000  0.25000000  1
  Rb  Rb4  1  0.00000000  0.00000000  0.50000000  1
  Rb  Rb5  1  0.50000000  0.50000000  0.00000000  1
  Ni  Ni0  1  0.50000000  0.50000000  0.50000000  1
  Ni  Ni1  1  0.00000000  0.00000000  0.00000000  1
  O  O0  1  0.69999300  0.69999300  0.50000000  1
  O  O1  1  0.30000700  0.30000700  0.50000000  1
  O  O2  1  0.80000700  0.19999300  0.00000000  1
  O  O3  1  0.19999300  0.80000700  0.00000000  1
loop_
_geom_bond_atom_site_label_1
_geom_bond_atom_site_label_2
_geom_bond_distance
_geom_bond_site_symmetry_2
Ni0 O0 1.792445 1_555
Ni0 O1 1.792445 1_555
Ni1 O3 1.792445 1_545
Ni1 O2 1.792445 1_455
O0 Rb4 2.688825 1_665
O0 Rb1 2.967054 1_565
O0 Rb0 2.967054 1_655
O0 Rb2 2.967054 1_655
O0 Rb3 2.967054 1_565
O1 Rb4 2.688825 1_555
O1 Rb0 2.967054 1_555
O1 Rb1 2.967054 1_555
O1 Rb2 2.967054 1_555
O1 Rb3 2.967054 1_555
O2 Rb5 2.688825 1_555
O2 Rb1 2.967054 1_554
O2 Rb3 2.967054 1_555
O2 Rb2 2.967054 1_654
O2 Rb0 2.967054 1_655
O3 Rb5 2.688825 1_555
O3 Rb0 2.967054 1_555
O3 Rb2 2.967054 1_554
O3 Rb3 2.967054 1_565
O3 Rb1 2.967054 1_564
