# generated using pymatgen
data_LaSbIr
_symmetry_space_group_name_H-M   'P 1'
_cell_length_a   4.63085150
_cell_length_b   7.56212816
_cell_length_c   7.99825579
_cell_angle_alpha   90.00000000
_cell_angle_beta   90.00000000
_cell_angle_gamma   90.00000000
_symmetry_Int_Tables_number   1
_chemical_formula_structural   LaSbIr
_chemical_formula_sum   'La4 Sb4 Ir4'
_cell_volume   280.09165961
_cell_formula_units_Z   4
loop_
 _symmetry_equiv_pos_site_id
 _symmetry_equiv_pos_as_xyz
  1  'x, y, z'
loop_
 _atom_site_type_symbol
 _atom_site_label
 _atom_site_symmetry_multiplicity
 _atom_site_fract_x
 _atom_site_fract_y
 _atom_site_fract_z
 _atom_site_occupancy
  La  La0  1  0.25000000  0.51818378  0.19115226  1
  La  La1  1  0.75000000  0.48181622  0.80884774  1
  La  La2  1  0.75000000  0.98181622  0.69115226  1
  La  La3  1  0.25000000  0.01818378  0.30884774  1
  Sb  Sb0  1  0.25000000  0.67330863  0.58559002  1
  Sb  Sb1  1  0.75000000  0.32669137  0.41440998  1
  Sb  Sb2  1  0.75000000  0.82669137  0.08559002  1
  Sb  Sb3  1  0.25000000  0.17330863  0.91440998  1
  Ir  Ir0  1  0.25000000  0.79917772  0.90726575  1
  Ir  Ir1  1  0.75000000  0.20082228  0.09273425  1
  Ir  Ir2  1  0.75000000  0.70082228  0.40726575  1
  Ir  Ir3  1  0.25000000  0.29917772  0.59273425  1
loop_
_geom_bond_atom_site_label_1
_geom_bond_atom_site_label_2
_geom_bond_distance
_geom_bond_site_symmetry_2
La0 Sb1 3.262941 1_555
La0 Sb1 3.262941 1_455
La0 Sb0 3.365851 1_555
La0 Sb2 3.393645 1_455
La0 Sb2 3.393645 1_555
La0 Sb3 3.420672 1_554
La1 Sb0 3.262941 1_655
La1 Sb0 3.262941 1_555
La1 Sb1 3.365851 1_555
La1 Sb3 3.393645 1_555
La1 Sb3 3.393645 1_655
La1 Sb2 3.420672 1_556
La2 Sb3 3.262941 1_565
La2 Sb3 3.262941 1_665
La2 Sb2 3.365851 1_556
La2 Sb0 3.393645 1_555
La2 Sb0 3.393645 1_655
La2 Sb1 3.420672 1_565
La3 Sb2 3.262941 1_545
La3 Sb2 3.262941 1_445
La3 Sb3 3.365851 1_554
La3 Sb1 3.393645 1_555
La3 Sb1 3.393645 1_455
La3 Sb0 3.420672 1_545
Ir0 Sb2 2.727411 1_456
Ir0 Sb2 2.727411 1_556
Ir0 Sb0 2.743269 1_555
Ir0 Sb3 2.829803 1_565
Ir0 La0 3.109801 1_556
Ir0 La2 3.202585 1_455
Ir0 La2 3.202585 1_555
Ir0 La1 3.426440 1_455
Ir0 La1 3.426440 1_555
Ir0 La3 3.613793 1_566
Ir1 Sb3 2.727411 1_554
Ir1 Sb3 2.727411 1_654
Ir1 Sb1 2.743269 1_555
Ir1 Sb2 2.829803 1_545
Ir1 La1 3.109801 1_554
Ir1 La3 3.202585 1_555
Ir1 La3 3.202585 1_655
Ir1 La0 3.426440 1_655
Ir1 La0 3.426440 1_555
Ir1 La2 3.613793 1_544
Ir2 Sb0 2.727411 1_655
Ir2 Sb0 2.727411 1_555
Ir2 Sb2 2.743269 1_555
Ir2 Sb1 2.829803 1_555
Ir2 La2 3.109801 1_555
Ir2 La0 3.202585 1_655
Ir2 La0 3.202585 1_555
Ir2 La3 3.426440 1_565
Ir2 La3 3.426440 1_665
Ir2 La1 3.613793 1_555
Ir3 Sb1 2.727411 1_555
Ir3 Sb1 2.727411 1_455
Ir3 Sb3 2.743269 1_555
Ir3 Sb0 2.829803 1_555
Ir3 La3 3.109801 1_555
Ir3 La1 3.202585 1_555
Ir3 La1 3.202585 1_455
Ir3 La2 3.426440 1_545
Ir3 La2 3.426440 1_445
Ir3 La0 3.613793 1_555
