# generated using pymatgen
data_Sr2CuCO5
_symmetry_space_group_name_H-M   'P 1'
_cell_length_a   3.70537900
_cell_length_b   4.35079600
_cell_length_c   7.58321400
_cell_angle_alpha   90.00000000
_cell_angle_beta   90.00000000
_cell_angle_gamma   90.00000000
_symmetry_Int_Tables_number   1
_chemical_formula_structural   Sr2CuCO5
_chemical_formula_sum   'Sr2 Cu1 C1 O5'
_cell_volume   122.25163285
_cell_formula_units_Z   1
loop_
 _symmetry_equiv_pos_site_id
 _symmetry_equiv_pos_as_xyz
  1  'x, y, z'
loop_
 _atom_site_type_symbol
 _atom_site_label
 _atom_site_symmetry_multiplicity
 _atom_site_fract_x
 _atom_site_fract_y
 _atom_site_fract_z
 _atom_site_occupancy
  Sr  Sr0  1  0.50000000  0.50388800  0.77369500  1
  Sr  Sr1  1  0.50000000  0.50388800  0.22630500  1
  Cu  Cu0  1  0.00000000  0.99927900  0.00000000  1
  C  C0  1  0.00000000  0.98514600  0.50000000  1
  O  O0  1  0.50000000  0.00114500  0.00000000  1
  O  O1  1  0.00000000  0.50669600  0.00000000  1
  O  O2  1  0.00000000  0.68678100  0.50000000  1
  O  O3  1  0.00000000  0.12758900  0.34953900  1
  O  O4  1  0.00000000  0.12758900  0.65046100  1
loop_
_geom_bond_atom_site_label_1
_geom_bond_atom_site_label_2
_geom_bond_distance
_geom_bond_site_symmetry_2
Cu0 O0 1.852707 1_465
Cu0 O0 1.852707 1_565
Cu0 O1 2.143128 1_555
Cu0 O1 2.207668 1_565
C0 O2 1.298125 1_555
C0 O4 1.298426 1_565
C0 O3 1.298426 1_565
O0 Sr0 2.761456 1_544
O0 Sr1 2.761456 1_545
O0 Sr0 2.780196 1_554
O0 Sr1 2.780196 1_555
O1 Sr1 2.525405 1_455
O1 Sr1 2.525405 1_555
O1 Sr0 2.525405 1_454
O1 Sr0 2.525405 1_554
O2 Sr0 2.893665 1_555
O2 Sr0 2.893665 1_455
O2 Sr1 2.893665 1_455
O2 Sr1 2.893665 1_555
O3 Sr1 2.643140 1_555
O3 Sr1 2.643140 1_455
O4 Sr0 2.643140 1_555
O4 Sr0 2.643140 1_455
