# generated using pymatgen
data_Li9Mn2Co5O16
_symmetry_space_group_name_H-M   'P 1'
_cell_length_a   2.91271100
_cell_length_b   10.29391600
_cell_length_c   10.33707422
_cell_angle_alpha   70.17773642
_cell_angle_beta   90.00000000
_cell_angle_gamma   90.00000000
_symmetry_Int_Tables_number   1
_chemical_formula_structural   Li9Mn2Co5O16
_chemical_formula_sum   'Li9 Mn2 Co5 O16'
_cell_volume   291.57443985
_cell_formula_units_Z   1
loop_
 _symmetry_equiv_pos_site_id
 _symmetry_equiv_pos_as_xyz
  1  'x, y, z'
loop_
 _atom_site_type_symbol
 _atom_site_label
 _atom_site_symmetry_multiplicity
 _atom_site_fract_x
 _atom_site_fract_y
 _atom_site_fract_z
 _atom_site_occupancy
  Li  Li0  1  0.50000000  0.00394200  0.73741800  1
  Li  Li1  1  0.50000000  0.99579800  0.26579100  1
  Li  Li2  1  0.00000000  0.74731900  0.74013700  1
  Li  Li3  1  0.00000000  0.74369300  0.26053200  1
  Li  Li4  1  0.50000000  0.50406700  0.74147900  1
  Li  Li5  1  0.50000000  0.49753500  0.25866800  1
  Li  Li6  1  0.00000000  0.25118300  0.73075800  1
  Li  Li7  1  0.00000000  0.24948500  0.26103700  1
  Li  Li8  1  0.50000000  0.24862300  0.50508600  1
  Mn  Mn0  1  0.00000000  0.00333000  0.00012400  1
  Mn  Mn1  1  0.50000000  0.74554400  0.99913400  1
  Co  Co0  1  0.00000000  0.01628100  0.50644300  1
  Co  Co1  1  0.50000000  0.75442500  0.49563800  1
  Co  Co2  1  0.00000000  0.49506800  0.99999100  1
  Co  Co3  1  0.00000000  0.49220200  0.49774800  1
  Co  Co4  1  0.50000000  0.25298300  0.00036000  1
  O  O0  1  0.50000000  0.10747300  0.88693000  1
  O  O1  1  0.50000000  0.11712200  0.38155700  1
  O  O2  1  0.00000000  0.87064100  0.89759000  1
  O  O3  1  0.00000000  0.86787700  0.38321100  1
  O  O4  1  0.50000000  0.61501600  0.87706100  1
  O  O5  1  0.50000000  0.62319000  0.38276100  1
  O  O6  1  0.00000000  0.36030200  0.89363100  1
  O  O7  1  0.00000000  0.39232600  0.39009200  1
  O  O8  1  0.50000000  0.87297200  0.61401300  1
  O  O9  1  0.50000000  0.89898700  0.11296600  1
  O  O10  1  0.00000000  0.62101800  0.60313600  1
  O  O11  1  0.00000000  0.63731900  0.11108500  1
  O  O12  1  0.50000000  0.38676200  0.61925800  1
  O  O13  1  0.50000000  0.37894100  0.12343900  1
  O  O14  1  0.00000000  0.11508400  0.62213400  1
  O  O15  1  0.00000000  0.13348900  0.10079300  1
loop_
_geom_bond_atom_site_label_1
_geom_bond_atom_site_label_2
_geom_bond_distance
_geom_bond_site_symmetry_2
Li0 O14 1.981257 1_655
Li0 O14 1.981257 1_555
Li0 O8 2.147393 1_545
Li0 O0 2.154416 1_555
Li0 O2 2.281315 1_545
Li0 O2 2.281315 1_645
Li1 O1 2.001350 1_565
Li1 O3 2.060152 1_655
Li1 O3 2.060152 1_555
Li1 O9 2.134600 1_555
Li1 O15 2.323671 1_565
Li1 O15 2.323671 1_665
Li2 O8 2.085687 1_455
Li2 O8 2.085687 1_555
Li2 O4 2.161430 1_555
Li2 O4 2.161430 1_455
Li2 O10 2.223662 1_555
Li2 O2 2.379483 1_555
Li3 O5 2.047716 1_555
Li3 O5 2.047716 1_455
Li3 O3 2.083696 1_555
Li3 O11 2.175510 1_555
Li3 O9 2.312897 1_555
Li3 O9 2.312897 1_455
Li4 O12 2.022126 1_555
Li4 O4 2.086682 1_555
Li4 O10 2.108972 1_655
Li4 O10 2.108972 1_555
Li4 O6 2.281713 1_555
Li4 O6 2.281713 1_655
Li5 O7 2.035107 1_655
Li5 O7 2.035107 1_555
Li5 O5 2.108047 1_555
Li5 O13 2.145172 1_555
Li5 O11 2.242781 1_555
Li5 O11 2.242781 1_655
Li6 O14 2.071346 1_555
Li6 O12 2.075156 1_555
Li6 O12 2.075156 1_455
Li6 O0 2.301281 1_455
Li6 O0 2.301281 1_555
Li6 O6 2.319251 1_555
Li7 O1 2.092440 1_455
Li7 O1 2.092440 1_555
Li7 O13 2.152770 1_455
Li7 O13 2.152770 1_555
Li7 O7 2.296107 1_555
Li7 O15 2.347557 1_555
Li8 O14 2.084835 1_655
Li8 O14 2.084835 1_555
Li8 O7 2.128297 1_655
Li8 O7 2.128297 1_555
Li8 O12 2.133808 1_555
Li8 O1 2.152961 1_555
Mn0 O9 1.945652 1_445
Mn0 O9 1.945652 1_545
Mn0 O0 1.946440 1_554
Mn0 O0 1.946440 1_454
Mn0 O15 1.955426 1_555
Mn0 O2 1.992710 1_544
Mn1 O11 1.956258 1_556
Mn1 O11 1.956258 1_656
Mn1 O2 1.991058 1_655
Mn1 O2 1.991058 1_555
Mn1 O4 2.132516 1_555
Mn1 O9 2.267165 1_556
Co0 O14 1.813709 1_555
Co0 O1 1.989029 1_455
Co0 O1 1.989029 1_555
Co0 O8 2.102655 1_445
Co0 O8 2.102655 1_545
Co0 O3 2.297011 1_545
Co1 O3 1.978639 1_655
Co1 O3 1.978639 1_555
Co1 O8 1.999802 1_555
Co1 O10 2.051029 1_655
Co1 O10 2.051029 1_555
Co1 O5 2.062886 1_555
Co2 O13 2.035633 1_556
Co2 O13 2.035633 1_456
Co2 O6 2.041503 1_555
Co2 O4 2.048460 1_555
Co2 O4 2.048460 1_455
Co2 O11 2.145577 1_556
Co3 O7 1.752545 1_555
Co3 O10 1.981124 1_555
Co3 O12 1.987993 1_455
Co3 O12 1.987993 1_555
Co3 O5 2.065178 1_555
Co3 O5 2.065178 1_455
Co4 O6 1.931837 1_554
Co4 O6 1.931837 1_654
Co4 O15 1.961060 1_555
Co4 O15 1.961060 1_655
Co4 O13 2.102060 1_555
Co4 O0 2.193076 1_554
