# generated using pymatgen
data_Pr6Fe13Sn
_symmetry_space_group_name_H-M   'P 1'
_cell_length_a   13.17316724
_cell_length_b   13.17316724
_cell_length_c   13.17316724
_cell_angle_alpha   144.30086168
_cell_angle_beta   144.30086168
_cell_angle_gamma   51.37763533
_symmetry_Int_Tables_number   1
_chemical_formula_structural   Pr6Fe13Sn
_chemical_formula_sum   'Pr12 Fe26 Sn2'
_cell_volume   774.19057328
_cell_formula_units_Z   2
loop_
 _symmetry_equiv_pos_site_id
 _symmetry_equiv_pos_as_xyz
  1  'x, y, z'
loop_
 _atom_site_type_symbol
 _atom_site_label
 _atom_site_symmetry_multiplicity
 _atom_site_fract_x
 _atom_site_fract_y
 _atom_site_fract_z
 _atom_site_occupancy
  Pr  Pr0  1  0.60440600  0.60440600  0.00000000  1
  Pr  Pr1  1  0.10440600  0.10440600  0.00000000  1
  Pr  Pr2  1  0.39559400  0.39559400  0.00000000  1
  Pr  Pr3  1  0.89559400  0.89559400  0.00000000  1
  Pr  Pr4  1  0.47848400  0.97848400  0.82689300  1
  Pr  Pr5  1  0.15159100  0.65159100  0.17310700  1
  Pr  Pr6  1  0.97848400  0.15159100  0.50000000  1
  Pr  Pr7  1  0.65159100  0.47848400  0.50000000  1
  Pr  Pr8  1  0.52151600  0.02151600  0.17310700  1
  Pr  Pr9  1  0.84840900  0.34840900  0.82689300  1
  Pr  Pr10  1  0.02151600  0.84840900  0.50000000  1
  Pr  Pr11  1  0.34840900  0.52151600  0.50000000  1
  Fe  Fe0  1  0.50000000  0.00000000  0.50000000  1
  Fe  Fe1  1  0.00000000  0.50000000  0.50000000  1
  Fe  Fe2  1  0.56669200  0.71019200  0.27688400  1
  Fe  Fe3  1  0.43330800  0.28980800  0.72311600  1
  Fe  Fe4  1  0.06669200  0.78980800  0.85650000  1
  Fe  Fe5  1  0.93330800  0.21019200  0.14350000  1
  Fe  Fe6  1  0.28980800  0.56669200  0.85650000  1
  Fe  Fe7  1  0.71019200  0.43330800  0.14350000  1
  Fe  Fe8  1  0.21019200  0.06669200  0.27688400  1
  Fe  Fe9  1  0.78980800  0.93330800  0.72311600  1
  Fe  Fe10  1  0.62079200  0.12079200  0.85722700  1
  Fe  Fe11  1  0.26356500  0.76356500  0.14277300  1
  Fe  Fe12  1  0.12079200  0.26356500  0.50000000  1
  Fe  Fe13  1  0.76356500  0.62079200  0.50000000  1
  Fe  Fe14  1  0.37920800  0.87920800  0.14277300  1
  Fe  Fe15  1  0.73643500  0.23643500  0.85722700  1
  Fe  Fe16  1  0.87920800  0.73643500  0.50000000  1
  Fe  Fe17  1  0.23643500  0.37920800  0.50000000  1
  Fe  Fe18  1  0.79509800  0.29509800  0.27486900  1
  Fe  Fe19  1  0.02022900  0.52022900  0.72513100  1
  Fe  Fe20  1  0.29509800  0.02022900  0.50000000  1
  Fe  Fe21  1  0.52022900  0.79509800  0.50000000  1
  Fe  Fe22  1  0.20490200  0.70490200  0.72513100  1
  Fe  Fe23  1  0.97977100  0.47977100  0.27486900  1
  Fe  Fe24  1  0.70490200  0.97977100  0.50000000  1
  Fe  Fe25  1  0.47977100  0.20490200  0.50000000  1
  Sn  Sn0  1  0.25000000  0.25000000  0.00000000  1
  Sn  Sn1  1  0.75000000  0.75000000  0.00000000  1
loop_
_geom_bond_atom_site_label_1
_geom_bond_atom_site_label_2
_geom_bond_distance
_geom_bond_site_symmetry_2
Pr0 Sn1 3.456737 1_555
Pr1 Sn0 3.456737 1_555
Pr2 Sn0 3.456737 1_555
Pr3 Sn1 3.456737 1_555
Pr4 Sn0 3.393158 1_566
Pr4 Sn1 3.393158 1_556
Pr5 Sn1 3.393158 1_455
Pr5 Sn0 3.393158 1_555
Pr6 Sn1 3.393158 1_545
Pr6 Sn0 3.393158 1_656
Pr7 Sn1 3.393158 1_556
Pr7 Sn0 3.393158 1_555
Pr8 Sn1 3.393158 1_545
Pr8 Sn0 3.393158 1_555
Pr9 Sn1 3.393158 1_556
Pr9 Sn0 3.393158 1_656
Pr10 Sn1 3.393158 1_455
Pr10 Sn0 3.393158 1_566
Pr11 Sn1 3.393158 1_556
Pr11 Sn0 3.393158 1_555
Fe0 Fe2 2.401559 1_545
Fe0 Fe9 2.401559 1_545
Fe0 Fe3 2.401559 1_555
Fe0 Fe8 2.401559 1_555
Fe0 Fe14 2.458816 1_545
Fe0 Fe15 2.458816 1_555
Fe0 Fe11 2.458816 1_545
Fe0 Fe10 2.458816 1_555
Fe0 Fe20 2.541418 1_555
Fe0 Fe25 2.541418 1_555
Fe0 Fe24 2.541418 1_545
Fe0 Fe21 2.541418 1_545
Fe1 Fe4 2.401559 1_555
Fe1 Fe6 2.401559 1_555
Fe1 Fe7 2.401559 1_455
Fe1 Fe5 2.401559 1_455
Fe1 Fe16 2.458816 1_455
Fe1 Fe13 2.458816 1_455
Fe1 Fe17 2.458816 1_555
Fe1 Fe12 2.458816 1_555
Fe1 Fe19 2.541418 1_555
Fe1 Fe18 2.541418 1_455
Fe1 Fe22 2.541418 1_555
Fe1 Fe23 2.541418 1_455
Fe2 Fe6 2.518477 1_554
Fe2 Fe7 2.518477 1_555
Fe2 Fe9 2.548140 1_555
Fe2 Fe24 2.644257 1_555
Fe2 Fe21 2.644257 1_555
Fe2 Pr0 3.052213 1_555
Fe2 Pr2 3.052213 1_555
Fe3 Fe7 2.518477 1_556
Fe3 Fe6 2.518477 1_555
Fe3 Fe8 2.548140 1_555
Fe3 Pr0 3.052213 1_556
Fe3 Pr2 3.052213 1_556
Fe4 Fe8 2.518477 1_566
Fe4 Fe9 2.518477 1_455
Fe4 Fe6 2.548140 1_555
Fe4 Pr3 3.052213 1_456
Fe4 Pr1 3.052213 1_566
Fe5 Fe9 2.518477 1_544
Fe5 Fe8 2.518477 1_655
Fe5 Fe7 2.548140 1_555
Fe5 Pr3 3.052213 1_545
Fe5 Pr1 3.052213 1_655
Fe6 Pr2 3.052213 1_556
Fe6 Pr0 3.052213 1_556
Fe7 Pr0 3.052213 1_555
Fe7 Pr2 3.052213 1_555
Fe8 Pr3 3.052213 1_445
Fe8 Pr1 3.052213 1_555
Fe9 Pr3 3.052213 1_556
Fe9 Pr1 3.052213 1_666
Fe10 Fe5 2.485997 1_556
Fe10 Fe7 2.485997 1_556
Fe10 Fe18 2.521741 1_556
Fe10 Fe20 2.546641 1_555
Fe10 Fe21 2.546641 1_545
Fe10 Fe3 2.572030 1_555
Fe10 Fe9 2.572030 1_545
Fe10 Fe15 2.745631 1_555
Fe10 Pr4 3.023586 1_545
Fe10 Pr2 3.168594 1_556
Fe10 Pr3 3.168594 1_546
Fe11 Fe4 2.485997 1_554
Fe11 Fe6 2.485997 1_554
Fe11 Fe19 2.521741 1_554
Fe11 Fe20 2.546641 1_565
Fe11 Fe21 2.546641 1_555
Fe11 Fe8 2.572030 1_565
Fe11 Fe2 2.572030 1_555
Fe11 Fe14 2.745631 1_555
Fe11 Pr5 3.023586 1_555
Fe11 Pr3 3.168594 1_455
Fe11 Pr2 3.168594 1_555
Fe12 Fe8 2.485997 1_555
Fe12 Fe3 2.485997 1_555
Fe12 Fe20 2.521741 1_555
Fe12 Fe19 2.546641 1_555
Fe12 Fe18 2.546641 1_455
Fe12 Fe6 2.572030 1_555
Fe12 Fe5 2.572030 1_455
Fe12 Fe17 2.745631 1_555
Fe12 Pr6 3.023586 1_455
Fe12 Pr2 3.168594 1_556
Fe12 Pr3 3.168594 1_445
Fe13 Fe2 2.485997 1_555
Fe13 Fe9 2.485997 1_555
Fe13 Fe21 2.521741 1_555
Fe13 Fe18 2.546641 1_555
Fe13 Fe19 2.546641 1_655
Fe13 Fe4 2.572030 1_655
Fe13 Fe7 2.572030 1_555
Fe13 Fe16 2.745631 1_555
Fe13 Pr7 3.023586 1_555
Fe13 Pr3 3.168594 1_556
Fe13 Pr2 3.168594 1_555
Fe14 Fe4 2.485997 1_554
Fe14 Fe6 2.485997 1_554
Fe14 Fe22 2.521741 1_554
Fe14 Fe25 2.546641 1_565
Fe14 Fe24 2.546641 1_555
Fe14 Fe2 2.572030 1_555
Fe14 Fe8 2.572030 1_565
Fe14 Pr8 3.023586 1_565
Fe14 Pr1 3.168594 1_565
Fe14 Pr0 3.168594 1_555
Fe15 Fe7 2.485997 1_556
Fe15 Fe5 2.485997 1_556
Fe15 Fe23 2.521741 1_556
Fe15 Fe25 2.546641 1_555
Fe15 Fe24 2.546641 1_545
Fe15 Fe3 2.572030 1_555
Fe15 Fe9 2.572030 1_545
Fe15 Pr9 3.023586 1_555
Fe15 Pr0 3.168594 1_556
Fe15 Pr1 3.168594 1_656
Fe16 Fe2 2.485997 1_555
Fe16 Fe9 2.485997 1_555
Fe16 Fe24 2.521741 1_555
Fe16 Fe22 2.546641 1_655
Fe16 Fe23 2.546641 1_555
Fe16 Fe7 2.572030 1_555
Fe16 Fe4 2.572030 1_655
Fe16 Pr10 3.023586 1_655
Fe16 Pr1 3.168594 1_666
Fe16 Pr0 3.168594 1_555
Fe17 Fe3 2.485997 1_555
Fe17 Fe8 2.485997 1_555
Fe17 Fe25 2.521741 1_555
Fe17 Fe23 2.546641 1_455
Fe17 Fe22 2.546641 1_555
Fe17 Fe5 2.572030 1_455
Fe17 Fe6 2.572030 1_555
Fe17 Pr11 3.023586 1_555
Fe17 Pr1 3.168594 1_555
Fe17 Pr0 3.168594 1_556
Fe18 Fe19 2.571152 1_655
Fe18 Fe7 2.644257 1_555
Fe18 Fe5 2.644257 1_555
Fe18 Pr7 3.158078 1_555
Fe18 Pr6 3.158078 1_555
Fe18 Pr2 3.270744 1_555
Fe18 Pr3 3.270744 1_545
Fe18 Pr4 3.373448 1_544
Fe19 Fe4 2.644257 1_555
Fe19 Fe6 2.644257 1_555
Fe19 Pr7 3.158078 1_455
Fe19 Pr6 3.158078 1_455
Fe19 Pr3 3.270744 1_456
Fe19 Pr2 3.270744 1_556
Fe19 Pr5 3.373448 1_556
Fe20 Fe21 2.571152 1_545
Fe20 Fe8 2.644257 1_555
Fe20 Fe3 2.644257 1_555
Fe20 Pr5 3.158078 1_545
Fe20 Pr4 3.158078 1_545
Fe20 Pr3 3.270744 1_445
Fe20 Pr2 3.270744 1_556
Fe20 Pr6 3.373448 1_455
Fe21 Fe9 2.644257 1_555
Fe21 Pr5 3.158078 1_555
Fe21 Pr4 3.158078 1_555
Fe21 Pr3 3.270744 1_556
Fe21 Pr2 3.270744 1_555
Fe21 Pr7 3.373448 1_555
Fe22 Fe23 2.571152 1_455
Fe22 Fe4 2.644257 1_555
Fe22 Fe6 2.644257 1_555
Fe22 Pr10 3.158078 1_555
Fe22 Pr11 3.158078 1_555
Fe22 Pr0 3.270744 1_556
Fe22 Pr1 3.270744 1_566
Fe22 Pr8 3.373448 1_566
Fe23 Fe7 2.644257 1_555
Fe23 Fe5 2.644257 1_555
Fe23 Pr11 3.158078 1_655
Fe23 Pr10 3.158078 1_655
Fe23 Pr0 3.270744 1_555
Fe23 Pr1 3.270744 1_655
Fe23 Pr9 3.373448 1_554
Fe24 Fe25 2.571152 1_565
Fe24 Fe9 2.644257 1_555
Fe24 Pr9 3.158078 1_565
Fe24 Pr8 3.158078 1_565
Fe24 Pr1 3.270744 1_666
Fe24 Pr0 3.270744 1_555
Fe24 Pr10 3.373448 1_655
Fe25 Fe3 2.644257 1_555
Fe25 Fe8 2.644257 1_555
Fe25 Pr8 3.158078 1_555
Fe25 Pr9 3.158078 1_555
Fe25 Pr0 3.270744 1_556
Fe25 Pr1 3.270744 1_555
Fe25 Pr11 3.373448 1_555
