# generated using pymatgen
data_Mg4Si3
_symmetry_space_group_name_H-M   'P 1'
_cell_length_a   6.98945300
_cell_length_b   7.13171064
_cell_length_c   7.38840248
_cell_angle_alpha   66.30347690
_cell_angle_beta   61.91703881
_cell_angle_gamma   64.30173066
_symmetry_Int_Tables_number   1
_chemical_formula_structural   Mg4Si3
_chemical_formula_sum   'Mg8 Si6'
_cell_volume   283.58623861
_cell_formula_units_Z   2
loop_
 _symmetry_equiv_pos_site_id
 _symmetry_equiv_pos_as_xyz
  1  'x, y, z'
loop_
 _atom_site_type_symbol
 _atom_site_label
 _atom_site_symmetry_multiplicity
 _atom_site_fract_x
 _atom_site_fract_y
 _atom_site_fract_z
 _atom_site_occupancy
  Mg  Mg0  1  0.91286800  0.35215800  0.10183900  1
  Mg  Mg1  1  0.91755100  0.89114500  0.36171400  1
  Mg  Mg2  1  0.09214300  0.34049200  0.41553600  1
  Mg  Mg3  1  0.38510200  0.40212000  0.82920100  1
  Mg  Mg4  1  0.41059000  0.61177400  0.12243400  1
  Mg  Mg5  1  0.58523300  0.69690200  0.37409400  1
  Mg  Mg6  1  0.74892000  0.91986500  0.83365800  1
  Mg  Mg7  1  0.26737300  0.99560100  0.79173700  1
  Si  Si0  1  0.68370000  0.65081000  0.70457300  1
  Si  Si1  1  0.51841000  0.28816900  0.45881900  1
  Si  Si2  1  0.57421000  0.13265800  0.18937800  1
  Si  Si3  1  0.29774200  0.02341300  0.16972400  1
  Si  Si4  1  0.02962100  0.67725500  0.06210600  1
  Si  Si5  1  0.82645600  0.26758700  0.83521800  1
loop_
_geom_bond_atom_site_label_1
_geom_bond_atom_site_label_2
_geom_bond_distance
_geom_bond_site_symmetry_2
Mg0 Si4 2.644950 1_655
Mg0 Si5 2.645781 1_554
Mg0 Si3 2.800020 1_655
Mg0 Si1 2.836089 1_555
Mg0 Si2 3.070837 1_555
Mg1 Si0 2.658542 1_555
Mg1 Si3 2.740957 1_665
Mg1 Si2 2.806446 1_565
Mg1 Si4 2.808184 1_655
Mg1 Si1 3.035213 1_565
Mg2 Si5 2.730170 1_455
Mg2 Si4 2.810891 1_555
Mg2 Si3 2.915934 1_555
Mg2 Si2 2.949671 1_555
Mg2 Si1 2.992509 1_555
Mg2 Si0 3.191824 1_455
Mg3 Si4 2.728566 1_556
Mg3 Si1 2.783418 1_555
Mg3 Si5 2.822519 1_555
Mg3 Si0 2.904722 1_555
Mg3 Si3 2.918779 1_556
Mg3 Si2 3.085432 1_556
Mg4 Si4 2.716388 1_555
Mg4 Si0 2.733932 1_554
Mg4 Si1 2.777724 1_555
Mg4 Si3 2.814127 1_565
Mg4 Si2 3.002164 1_555
Mg5 Si0 2.698978 1_555
Mg5 Si3 2.777136 1_565
Mg5 Si2 2.829932 1_565
Mg5 Si4 2.849883 1_655
Mg5 Si1 2.923322 1_555
Mg6 Si0 2.727300 1_555
Mg6 Si4 2.741933 1_656
Mg6 Si5 2.763672 1_565
Mg6 Si3 2.955882 1_566
Mg6 Si2 3.046103 1_566
Mg7 Si5 2.783430 1_465
Mg7 Si0 2.869085 1_555
Mg7 Si4 2.899590 1_556
Mg7 Si1 2.910140 1_565
Mg7 Si3 2.987230 1_566
Si0 Si5 2.412073 1_555
Si1 Si2 2.452279 1_555
Si2 Si5 2.446495 1_554
Si2 Si3 2.454160 1_555
