# generated using pymatgen
data_Li4V3Sn3(SbO8)2
_symmetry_space_group_name_H-M   'P 1'
_cell_length_a   6.25910423
_cell_length_b   10.78674786
_cell_length_c   10.26740743
_cell_angle_alpha   90.25041243
_cell_angle_beta   89.54151583
_cell_angle_gamma   90.53502581
_symmetry_Int_Tables_number   1
_chemical_formula_structural   Li4V3Sn3(SbO8)2
_chemical_formula_sum   'Li8 V6 Sn6 Sb4 O32'
_cell_volume   693.14909257
_cell_formula_units_Z   2
loop_
 _symmetry_equiv_pos_site_id
 _symmetry_equiv_pos_as_xyz
  1  'x, y, z'
loop_
 _atom_site_type_symbol
 _atom_site_label
 _atom_site_symmetry_multiplicity
 _atom_site_fract_x
 _atom_site_fract_y
 _atom_site_fract_z
 _atom_site_occupancy
  Li  Li0  1  0.50989300  0.16566400  0.89114200  1
  Li  Li1  1  0.00248900  0.66368100  0.89298500  1
  Li  Li2  1  0.98806300  0.00379400  0.99144300  1
  Li  Li3  1  0.48814100  0.50405700  0.99380900  1
  Li  Li4  1  0.99422200  0.00242100  0.49772800  1
  Li  Li5  1  0.49149400  0.50228400  0.49902100  1
  Li  Li6  1  0.49449200  0.83287000  0.39896600  1
  Li  Li7  1  0.00081900  0.33541800  0.39572200  1
  V  V0  1  0.74657600  0.08490300  0.21644900  1
  V  V1  1  0.24563200  0.58434900  0.21686300  1
  V  V2  1  0.25010100  0.41436400  0.71867100  1
  V  V3  1  0.74322700  0.91493500  0.71264200  1
  V  V4  1  0.49812100  0.66950800  0.71704600  1
  V  V5  1  0.00129200  0.16850200  0.71264600  1
  Sn  Sn0  1  0.49934100  0.33134500  0.21586900  1
  Sn  Sn1  1  0.00107700  0.83236400  0.21487200  1
  Sn  Sn2  1  0.25288000  0.08445300  0.21569700  1
  Sn  Sn3  1  0.75156200  0.58283900  0.21536700  1
  Sn  Sn4  1  0.24704700  0.91428800  0.71658500  1
  Sn  Sn5  1  0.75665300  0.41866300  0.71467400  1
  Sb  Sb0  1  0.50753100  0.16441800  0.50051300  1
  Sb  Sb1  1  0.99482300  0.66832400  0.49668300  1
  Sb  Sb2  1  0.50323000  0.83180200  0.99100900  1
  Sb  Sb3  1  0.00495300  0.33193200  0.99254700  1
  O  O0  1  0.49751100  0.34930500  0.60451200  1
  O  O1  1  0.98685700  0.84494600  0.60077600  1
  O  O2  1  0.26826300  0.24365000  0.33444500  1
  O  O3  1  0.77533600  0.74128600  0.34352400  1
  O  O4  1  0.49739100  0.16729500  0.10315200  1
  O  O5  1  0.99488200  0.66810600  0.10403200  1
  O  O6  1  0.49960100  0.49944700  0.31850700  1
  O  O7  1  0.00046100  0.99995500  0.31748900  1
  O  O8  1  0.99798500  0.99827000  0.81329800  1
  O  O9  1  0.50291300  0.50115700  0.81562900  1
  O  O10  1  0.22976800  0.07825100  0.60381200  1
  O  O11  1  0.72240700  0.58346600  0.60123200  1
  O  O12  1  0.73213500  0.24211200  0.32523600  1
  O  O13  1  0.22881200  0.74244600  0.32637000  1
  O  O14  1  0.50381400  0.01356500  0.32760900  1
  O  O15  1  0.00079800  0.51413700  0.32505500  1
  O  O16  1  0.23038300  0.92400200  0.09521200  1
  O  O17  1  0.73008300  0.42242800  0.09503500  1
  O  O18  1  0.77526800  0.07504700  0.60981800  1
  O  O19  1  0.28612700  0.57187600  0.62269600  1
  O  O20  1  0.50588600  0.98156000  0.83016500  1
  O  O21  1  0.01475100  0.48595000  0.82955900  1
  O  O22  1  0.27548800  0.75062400  0.83068000  1
  O  O23  1  0.78275700  0.25595300  0.82831700  1
  O  O24  1  0.48707300  0.82424600  0.60847000  1
  O  O25  1  0.01302300  0.34335000  0.60809200  1
  O  O26  1  0.76856000  0.92446900  0.10657200  1
  O  O27  1  0.26963700  0.42619900  0.10635000  1
  O  O28  1  0.71395400  0.74652500  0.81911800  1
  O  O29  1  0.24129200  0.26852000  0.81902800  1
  O  O30  1  0.49694900  0.65239700  0.10816100  1
  O  O31  1  0.99647700  0.15258100  0.10477600  1
loop_
_geom_bond_atom_site_label_1
_geom_bond_atom_site_label_2
_geom_bond_distance
_geom_bond_site_symmetry_2
Li0 O23 2.058709 1_555
Li0 O20 2.079612 1_545
Li0 O29 2.160452 1_555
Li0 O4 2.177573 1_556
Li1 O21 2.023966 1_555
Li1 O22 2.041161 1_555
Li1 O28 2.166396 1_455
Li1 O5 2.167374 1_456
Li2 O8 1.830373 1_545
Li2 O31 1.978811 1_556
Li2 O26 1.994475 1_546
Li2 O16 2.057817 1_646
Li3 O9 1.831188 1_555
Li3 O27 1.967915 1_556
Li3 O30 1.981124 1_556
Li3 O17 2.051053 1_556
Li4 O7 1.850767 1_645
Li4 O18 1.950205 1_555
Li4 O1 2.005098 1_545
Li4 O10 2.006091 1_655
Li5 O6 1.853826 1_555
Li5 O19 1.952385 1_555
Li5 O0 1.978632 1_555
Li5 O11 1.987381 1_555
Li6 O13 2.062871 1_555
Li6 O14 2.085400 1_565
Li6 O3 2.097963 1_555
Li6 O24 2.153590 1_555
Li7 O2 2.046090 1_555
Li7 O15 2.062785 1_555
Li7 O12 2.084807 1_455
Li7 O25 2.183713 1_555
O0 V2 2.061178 1_555
O0 Sn5 2.114057 1_555
O0 Sb0 2.259232 1_555
O1 V3 2.049489 1_555
O1 Sn4 2.150811 1_655
O1 Sb1 2.181185 1_555
O2 Sn2 2.103599 1_555
O2 Sn0 2.103634 1_555
O2 Sb0 2.440919 1_555
O3 Sn3 2.157179 1_555
O3 Sn1 2.159156 1_655
O3 Sb1 2.246151 1_555
O4 Sn2 2.105034 1_555
O4 Sn0 2.110167 1_555
O4 V0 2.153972 1_555
O5 Sn1 2.101843 1_655
O5 Sn3 2.104107 1_555
O5 V1 2.164785 1_655
O6 Sn3 2.091120 1_555
O6 Sn0 2.093271 1_555
O6 V1 2.125286 1_555
O7 Sn1 2.088427 1_555
O7 Sn2 2.091463 1_565
O7 V0 2.122020 1_465
O8 Sn4 2.056841 1_655
O8 V3 2.100051 1_555
O8 V5 2.110868 1_665
O9 V4 2.083437 1_555
O9 V2 2.088264 1_555
O9 Sn5 2.092979 1_555
O10 V5 2.057276 1_555
O10 Sn4 2.122244 1_545
O10 Sb0 2.227167 1_555
O11 V4 2.057689 1_555
O11 Sn5 2.142892 1_555
O11 Sb1 2.201724 1_555
O12 V0 2.028820 1_555
O12 Sn0 2.091010 1_555
O12 Sb0 2.422412 1_555
O13 V1 2.041612 1_555
O13 Sn1 2.084409 1_555
O13 Sb1 2.406537 1_455
O14 V0 2.040011 1_555
O14 Sn2 2.104957 1_555
O14 Sb0 2.403055 1_555
O15 V1 2.028397 1_555
O15 Sn3 2.075602 1_455
O15 Sb1 2.418120 1_455
O16 Sn1 2.121881 1_555
O16 Sn2 2.127243 1_565
O16 Sb2 2.245766 1_554
O17 Sn3 2.125591 1_555
O17 Sn0 2.132089 1_555
O17 Sb3 2.239088 1_654
O18 V5 2.029839 1_655
O18 V3 2.035611 1_545
O18 Sb0 2.250969 1_555
O19 V4 1.947749 1_555
O19 V2 1.978018 1_555
O19 Sb1 2.483085 1_455
O20 V3 2.040345 1_555
O20 Sn4 2.124177 1_555
O20 Sb2 2.315052 1_555
O21 V2 2.012263 1_555
O21 Sn5 2.128149 1_455
O21 Sb3 2.363281 1_555
O22 V4 2.014066 1_555
O22 Sn4 2.132589 1_555
O22 Sb2 2.347380 1_555
O23 V5 2.039511 1_655
O23 Sn5 2.120115 1_555
O23 Sb3 2.335243 1_655
O24 V4 2.013247 1_555
O24 Sn4 2.103275 1_555
O24 V3 2.158821 1_555
O25 V2 2.018884 1_555
O25 Sn5 2.102585 1_455
O25 V5 2.174579 1_555
O26 V0 2.066736 1_565
O26 Sn1 2.098600 1_655
O26 Sb2 2.270505 1_554
O27 V1 2.050706 1_555
O27 Sn0 2.107562 1_555
O27 Sb3 2.265611 1_554
O28 V4 1.899363 1_555
O28 V3 2.129950 1_555
O28 Sb2 2.381545 1_555
O29 V2 1.884495 1_555
O29 V5 2.144588 1_555
O29 Sb3 2.407538 1_555
O30 V1 2.053369 1_555
O30 Sn3 2.090909 1_555
O30 Sb2 2.282880 1_554
O31 V0 2.061913 1_555
O31 Sn2 2.114526 1_655
O31 Sb3 2.256088 1_654
