# generated using pymatgen
data_VH4C4O6F
_symmetry_space_group_name_H-M   'P 1'
_cell_length_a   3.96257224
_cell_length_b   7.96053229
_cell_length_c   11.43581600
_cell_angle_alpha   90.00000000
_cell_angle_beta   90.00000000
_cell_angle_gamma   99.76701340
_symmetry_Int_Tables_number   1
_chemical_formula_structural   VH4C4O6F
_chemical_formula_sum   'V2 H8 C8 O12 F2'
_cell_volume   355.50491785
_cell_formula_units_Z   2
loop_
 _symmetry_equiv_pos_site_id
 _symmetry_equiv_pos_as_xyz
  1  'x, y, z'
loop_
 _atom_site_type_symbol
 _atom_site_label
 _atom_site_symmetry_multiplicity
 _atom_site_fract_x
 _atom_site_fract_y
 _atom_site_fract_z
 _atom_site_occupancy
  V  V0  1  0.50000000  0.00000000  0.00000000  1
  V  V1  1  0.00000000  0.50000000  0.50000000  1
  H  H0  1  0.35125100  0.98420200  0.22865000  1
  H  H1  1  0.64874900  0.01579800  0.77135000  1
  H  H2  1  0.14874900  0.51579800  0.72865000  1
  H  H3  1  0.85125100  0.48420200  0.27135000  1
  H  H4  1  0.55178600  0.81831700  0.19408100  1
  H  H5  1  0.44821400  0.18168300  0.80591800  1
  H  H6  1  0.94821400  0.68168300  0.69408200  1
  H  H7  1  0.05178600  0.31831700  0.30591800  1
  C  C0  1  0.04113900  0.88197900  0.47164800  1
  C  C1  1  0.95886100  0.11802100  0.52835200  1
  C  C2  1  0.45886100  0.61802100  0.97164800  1
  C  C3  1  0.54113900  0.38197900  0.02835200  1
  C  C4  1  0.58636000  0.55304600  0.08085400  1
  C  C5  1  0.41364000  0.44695400  0.91914600  1
  C  C6  1  0.91364000  0.94695400  0.58085400  1
  C  C7  1  0.08636000  0.05304600  0.41914600  1
  O  O0  1  0.45911500  0.92018500  0.16646900  1
  O  O1  1  0.54088500  0.07981500  0.83353100  1
  O  O2  1  0.04088500  0.57981500  0.66646900  1
  O  O3  1  0.95911500  0.42018500  0.33353100  1
  O  O4  1  0.09729700  0.74087700  0.43312200  1
  O  O5  1  0.90270300  0.25912300  0.56687800  1
  O  O6  1  0.40270300  0.75912300  0.93312200  1
  O  O7  1  0.59729700  0.24087700  0.06687800  1
  O  O8  1  0.69012900  0.61522400  0.17860400  1
  O  O9  1  0.30987100  0.38477600  0.82139600  1
  O  O10  1  0.80987100  0.88477600  0.67860400  1
  O  O11  1  0.19012900  0.11522400  0.32139600  1
  F  F0  1  0.00000000  0.00000000  0.00000000  1
  F  F1  1  0.50000000  0.50000000  0.50000000  1
loop_
_geom_bond_atom_site_label_1
_geom_bond_atom_site_label_2
_geom_bond_distance
_geom_bond_site_symmetry_2
H0 O0 1.010911 1_555
H1 O1 1.010911 1_555
H2 O2 1.010911 1_555
H3 O3 1.010911 1_555
H4 O0 0.996587 1_555
H5 O1 0.996591 1_555
H6 O2 0.996591 1_655
H7 O3 0.996591 1_455
C0 O4 1.260999 1_555
C1 O5 1.260999 1_555
C2 O6 1.260999 1_555
C3 O7 1.260999 1_555
C4 O8 1.262779 1_555
C5 O9 1.262779 1_555
C6 O10 1.262779 1_555
C7 O11 1.262779 1_555
O0 V0 2.004776 1_565
O1 V0 2.004776 1_556
O2 V1 2.004776 1_555
O3 V1 2.004776 1_655
O4 V1 2.039506 1_555
O5 V1 2.039506 1_655
O6 V0 2.039506 1_566
O7 V0 2.039506 1_555
F0 V0 1.981286 1_455
F0 V0 1.981286 1_555
F1 V1 1.981286 1_555
F1 V1 1.981286 1_655
