# generated using pymatgen
data_Zn2Co3O8
_symmetry_space_group_name_H-M   'P 1'
_cell_length_a   5.81041033
_cell_length_b   5.81041033
_cell_length_c   4.82265225
_cell_angle_alpha   72.73308454
_cell_angle_beta   72.73308454
_cell_angle_gamma   58.35602092
_symmetry_Int_Tables_number   1
_chemical_formula_structural   Zn2Co3O8
_chemical_formula_sum   'Zn2 Co3 O8'
_cell_volume   130.35433390
_cell_formula_units_Z   1
loop_
 _symmetry_equiv_pos_site_id
 _symmetry_equiv_pos_as_xyz
  1  'x, y, z'
loop_
 _atom_site_type_symbol
 _atom_site_label
 _atom_site_symmetry_multiplicity
 _atom_site_fract_x
 _atom_site_fract_y
 _atom_site_fract_z
 _atom_site_occupancy
  Zn  Zn0  1  0.71839200  0.71839200  0.34305700  1
  Zn  Zn1  1  0.28160800  0.28160800  0.65694300  1
  Co  Co0  1  0.00000000  0.00000000  0.50000000  1
  Co  Co1  1  0.74368700  0.25631300  0.00000000  1
  Co  Co2  1  0.25631300  0.74368700  0.00000000  1
  O  O0  1  0.39646200  0.39646200  0.93200400  1
  O  O1  1  0.60353800  0.60353800  0.06799600  1
  O  O2  1  0.89617400  0.89617400  0.91474300  1
  O  O3  1  0.10382600  0.10382600  0.08525700  1
  O  O4  1  0.33629700  0.88624500  0.60004400  1
  O  O5  1  0.88624500  0.33629700  0.60004400  1
  O  O6  1  0.11375500  0.66370300  0.39995600  1
  O  O7  1  0.66370300  0.11375500  0.39995600  1
loop_
_geom_bond_atom_site_label_1
_geom_bond_atom_site_label_2
_geom_bond_distance
_geom_bond_site_symmetry_2
Co0 O6 1.871641 1_545
Co0 O7 1.871641 1_455
Co0 O4 1.871641 1_545
Co0 O5 1.871641 1_455
Co0 O2 1.917747 1_445
Co0 O3 1.917747 1_555
Co1 O1 1.830681 1_555
Co1 O0 1.830681 1_554
Co1 O7 1.883044 1_555
Co1 O5 1.883044 1_554
Co1 O3 1.918846 1_655
Co1 O2 1.918846 1_544
Co2 O1 1.830681 1_555
Co2 O0 1.830681 1_554
Co2 O6 1.883044 1_555
Co2 O4 1.883044 1_554
Co2 O2 1.918846 1_454
Co2 O3 1.918846 1_565
O0 Zn1 2.041747 1_555
O1 Zn0 2.041747 1_555
O2 Zn0 2.233187 1_556
O3 Zn1 2.233187 1_554
O4 Zn0 2.056289 1_555
O4 Zn1 2.238303 1_565
O5 Zn0 2.056289 1_555
O5 Zn1 2.238303 1_655
O6 Zn1 2.056289 1_555
O6 Zn0 2.238303 1_455
O7 Zn1 2.056289 1_555
O7 Zn0 2.238303 1_545
