# generated using pymatgen
data_MgSi2
_symmetry_space_group_name_H-M   'P 1'
_cell_length_a   5.07274844
_cell_length_b   5.07274844
_cell_length_c   12.79555851
_cell_angle_alpha   75.56225717
_cell_angle_beta   75.56225717
_cell_angle_gamma   41.36747456
_symmetry_Int_Tables_number   1
_chemical_formula_structural   MgSi2
_chemical_formula_sum   'Mg4 Si8'
_cell_volume   209.73666528
_cell_formula_units_Z   4
loop_
 _symmetry_equiv_pos_site_id
 _symmetry_equiv_pos_as_xyz
  1  'x, y, z'
loop_
 _atom_site_type_symbol
 _atom_site_label
 _atom_site_symmetry_multiplicity
 _atom_site_fract_x
 _atom_site_fract_y
 _atom_site_fract_z
 _atom_site_occupancy
  Mg  Mg0  1  0.82995600  0.82995600  0.80733100  1
  Mg  Mg1  1  0.17004400  0.17004400  0.19266900  1
  Mg  Mg2  1  0.50463000  0.50463000  0.38337100  1
  Mg  Mg3  1  0.49537000  0.49537000  0.61662900  1
  Si  Si0  1  0.92967000  0.92967000  0.10315800  1
  Si  Si1  1  0.07033000  0.07033000  0.89684200  1
  Si  Si2  1  0.17051100  0.17051100  0.70102400  1
  Si  Si3  1  0.82948900  0.82948900  0.29897600  1
  Si  Si4  1  0.36007300  0.36007300  0.98144000  1
  Si  Si5  1  0.63992700  0.63992700  0.01856000  1
  Si  Si6  1  0.21085900  0.21085900  0.42510300  1
  Si  Si7  1  0.78914100  0.78914100  0.57489700  1
loop_
_geom_bond_atom_site_label_1
_geom_bond_atom_site_label_2
_geom_bond_distance
_geom_bond_site_symmetry_2
Mg0 Si1 2.812471 1_665
Mg0 Si5 2.821333 1_556
Mg0 Si2 2.906582 1_655
Mg0 Si2 2.906582 1_565
Mg0 Si4 2.931670 1_565
Mg0 Si4 2.931670 1_655
Mg0 Si1 3.015017 1_655
Mg0 Si1 3.015017 1_565
Mg0 Mg3 3.096386 1_565
Mg0 Mg3 3.096386 1_655
Mg0 Si7 3.099936 1_555
Mg0 Si2 3.155172 1_665
Mg1 Si0 2.812471 1_445
Mg1 Si4 2.821333 1_554
Mg1 Si3 2.906582 1_545
Mg1 Si3 2.906582 1_455
Mg1 Si5 2.931670 1_545
Mg1 Si5 2.931670 1_455
Mg1 Si0 3.015017 1_455
Mg1 Si0 3.015017 1_545
Mg1 Mg2 3.096386 1_545
Mg1 Mg2 3.096386 1_455
Mg1 Si6 3.099936 1_555
Mg1 Si3 3.155172 1_445
Mg2 Si6 2.695625 1_555
Mg2 Si6 2.807874 1_565
Mg2 Si6 2.807874 1_655
Mg2 Si3 2.845482 1_455
Mg2 Si3 2.845482 1_545
Mg2 Si3 2.983092 1_555
Mg2 Si7 3.275340 1_455
Mg2 Si7 3.275340 1_545
Mg3 Si7 2.695625 1_555
Mg3 Si7 2.807874 1_545
Mg3 Si7 2.807874 1_455
Mg3 Si2 2.845482 1_565
Mg3 Si2 2.845482 1_655
Mg3 Si2 2.983092 1_555
Mg3 Si6 3.275340 1_565
Mg3 Si6 3.275340 1_655
Si0 Si3 2.431520 1_555
Si0 Si4 2.573079 1_564
Si0 Si4 2.573079 1_654
Si0 Si1 2.621652 1_664
Si0 Si5 2.685766 1_565
Si0 Si5 2.685766 1_655
Si1 Si2 2.431520 1_555
Si1 Si5 2.573079 1_456
Si1 Si5 2.573079 1_546
Si1 Si4 2.685766 1_545
Si1 Si4 2.685766 1_455
Si2 Si7 2.472683 1_455
Si2 Si7 2.472683 1_545
Si3 Si6 2.472683 1_565
Si3 Si6 2.472683 1_655
Si4 Si5 2.696864 1_546
Si4 Si5 2.696864 1_456
Si4 Si5 2.820238 1_556
Si6 Si7 2.862731 1_455
Si6 Si7 2.862731 1_545
