# generated using pymatgen
data_CeSe2
_symmetry_space_group_name_H-M   'P 1'
_cell_length_a   12.62815096
_cell_length_b   21.09806586
_cell_length_c   21.09806619
_cell_angle_alpha   69.06608296
_cell_angle_beta   72.58607317
_cell_angle_gamma   72.58607286
_symmetry_Int_Tables_number   1
_chemical_formula_structural   CeSe2
_chemical_formula_sum   'Ce18 Se36'
_cell_volume   4891.41920975
_cell_formula_units_Z   18
loop_
 _symmetry_equiv_pos_site_id
 _symmetry_equiv_pos_as_xyz
  1  'x, y, z'
loop_
 _atom_site_type_symbol
 _atom_site_label
 _atom_site_symmetry_multiplicity
 _atom_site_fract_x
 _atom_site_fract_y
 _atom_site_fract_z
 _atom_site_occupancy
  Ce  Ce0  1  0.53141355  0.47364408  0.87823832  1
  Ce  Ce1  1  0.11670406  0.87823832  0.47364408  1
  Ce  Ce2  1  0.46858645  0.12176168  0.52635592  1
  Ce  Ce3  1  0.88329594  0.52635592  0.12176168  1
  Ce  Ce4  1  0.46858645  0.52635592  0.12176168  1
  Ce  Ce5  1  0.88329594  0.12176168  0.52635592  1
  Ce  Ce6  1  0.53141355  0.87823832  0.47364408  1
  Ce  Ce7  1  0.11670406  0.47364408  0.87823832  1
  Ce  Ce8  1  0.56316190  0.72956099  0.72956099  1
  Ce  Ce9  1  0.97771612  0.72956099  0.72956099  1
  Ce  Ce10  1  0.43683810  0.27043901  0.27043901  1
  Ce  Ce11  1  0.02228388  0.27043901  0.27043901  1
  Ce  Ce12  1  0.08279248  0.71457210  0.11984293  1
  Ce  Ce13  1  0.08279248  0.11984293  0.71457210  1
  Ce  Ce14  1  0.91720752  0.88015707  0.28542790  1
  Ce  Ce15  1  0.91720752  0.28542790  0.88015707  1
  Ce  Ce16  1  0.15207760  0.84792240  0.84792240  1
  Ce  Ce17  1  0.84792240  0.15207760  0.15207760  1
  Se  Se0  1  0.74796241  0.75203759  0.75203759  1
  Se  Se1  1  0.25203759  0.24796241  0.24796241  1
  Se  Se2  1  0.00000000  0.77902895  0.22097105  1
  Se  Se3  1  1.00000000  0.22097105  0.77902895  1
  Se  Se4  1  0.10333789  0.80427008  0.98905415  1
  Se  Se5  1  0.10333789  0.98905415  0.80427008  1
  Se  Se6  1  0.89666211  0.01094585  0.19572992  1
  Se  Se7  1  0.89666211  0.19572992  0.01094585  1
  Se  Se8  1  0.50000000  0.50000000  -0.00000000  1
  Se  Se9  1  -0.00000000  0.00000000  0.50000000  1
  Se  Se10  1  0.50000000  0.00000000  0.50000000  1
  Se  Se11  1  -0.00000000  0.50000000  -0.00000000  1
  Se  Se12  1  0.37535237  0.79940720  0.79940720  1
  Se  Se13  1  0.02583322  0.79940720  0.79940720  1
  Se  Se14  1  0.62464763  0.20059280  0.20059280  1
  Se  Se15  1  0.97416678  0.20059280  0.20059280  1
  Se  Se16  1  0.65671534  0.55889387  0.12767546  1
  Se  Se17  1  0.65671534  0.12767546  0.55889387  1
  Se  Se18  1  0.34328466  0.87232454  0.44110613  1
  Se  Se19  1  0.34328466  0.44110613  0.87232454  1
  Se  Se20  1  0.28799251  0.63227954  0.13968261  1
  Se  Se21  1  0.94004534  0.13968261  0.63227954  1
  Se  Se22  1  0.71200749  0.86031739  0.36772046  1
  Se  Se23  1  0.05995466  0.36772046  0.86031739  1
  Se  Se24  1  0.71200749  0.36772046  0.86031739  1
  Se  Se25  1  0.05995466  0.86031739  0.36772046  1
  Se  Se26  1  0.28799251  0.13968261  0.63227954  1
  Se  Se27  1  0.94004534  0.63227954  0.13968261  1
  Se  Se28  1  0.55783837  0.59274658  0.77484331  1
  Se  Se29  1  0.07457173  0.77484331  0.59274658  1
  Se  Se30  1  0.44216163  0.22515669  0.40725342  1
  Se  Se31  1  0.92542827  0.40725342  0.22515669  1
  Se  Se32  1  0.44216163  0.40725342  0.22515669  1
  Se  Se33  1  0.92542827  0.22515669  0.40725342  1
  Se  Se34  1  0.55783837  0.77484331  0.59274658  1
  Se  Se35  1  0.07457173  0.59274658  0.77484331  1
loop_
_geom_bond_atom_site_label_1
_geom_bond_atom_site_label_2
_geom_bond_distance
_geom_bond_site_symmetry_2
Ce0 Se28 2.708042 1_555
Ce0 Se8 2.710123 1_556
Ce0 Se19 2.710290 1_555
Ce0 Se24 2.715761 1_555
Ce1 Se29 2.708042 1_555
Ce1 Se9 2.710123 1_565
Ce1 Se18 2.710290 1_555
Ce1 Se25 2.715761 1_555
Ce2 Se30 2.708042 1_555
Ce2 Se10 2.710123 1_555
Ce2 Se17 2.710290 1_555
Ce2 Se26 2.715761 1_555
Ce3 Se31 2.708042 1_555
Ce3 Se11 2.710123 1_655
Ce3 Se16 2.710290 1_555
Ce3 Se27 2.715761 1_555
Ce4 Se32 2.708042 1_555
Ce4 Se8 2.710123 1_555
Ce4 Se16 2.710290 1_555
Ce4 Se20 2.715761 1_555
Ce5 Se33 2.708042 1_555
Ce5 Se9 2.710123 1_655
Ce5 Se17 2.710290 1_555
Ce5 Se21 2.715761 1_555
Ce6 Se34 2.708042 1_555
Ce6 Se10 2.710123 1_565
Ce6 Se18 2.710290 1_555
Ce6 Se22 2.715761 1_555
Ce7 Se35 2.708042 1_555
Ce7 Se11 2.710123 1_556
Ce7 Se19 2.710290 1_555
Ce7 Se23 2.715761 1_555
Ce8 Se12 2.708500 1_555
Ce8 Se28 2.712260 1_555
Ce8 Se34 2.712260 1_555
Ce8 Se0 2.716860 1_555
Ce9 Se13 2.708500 1_655
Ce9 Se35 2.712260 1_655
Ce9 Se29 2.712260 1_655
Ce9 Se0 2.716860 1_555
Ce10 Se14 2.708500 1_555
Ce10 Se32 2.712260 1_555
Ce10 Se30 2.712260 1_555
Ce10 Se1 2.716860 1_555
Ce11 Se15 2.708500 1_455
Ce11 Se31 2.712260 1_455
Ce11 Se33 2.712260 1_455
Ce11 Se1 2.716860 1_555
Ce12 Se27 2.709518 1_455
Ce12 Se20 2.709518 1_555
Ce12 Se2 2.716970 1_555
Ce12 Se4 2.719695 1_554
Ce13 Se21 2.709518 1_455
Ce13 Se26 2.709518 1_555
Ce13 Se3 2.716970 1_455
Ce13 Se5 2.719695 1_545
Ce14 Se25 2.709518 1_655
Ce14 Se22 2.709518 1_555
Ce14 Se2 2.716970 1_655
Ce14 Se6 2.719695 1_565
Ce15 Se23 2.709518 1_655
Ce15 Se24 2.709518 1_555
Ce15 Se3 2.716970 1_555
Ce15 Se7 2.719695 1_556
Ce16 Se12 2.709079 1_555
Ce16 Se13 2.709079 1_555
Ce16 Se5 2.715862 1_555
Ce16 Se4 2.715862 1_555
Ce17 Se14 2.709079 1_555
Ce17 Se15 2.709079 1_555
Ce17 Se6 2.715862 1_555
Ce17 Se7 2.715862 1_555
