# generated using pymatgen
data_Eu(ZnP)2
_symmetry_space_group_name_H-M   'P 1'
_cell_length_a   4.06418812
_cell_length_b   4.06418812
_cell_length_c   6.91072704
_cell_angle_alpha   90.00000000
_cell_angle_beta   90.00000000
_cell_angle_gamma   120.00001430
_symmetry_Int_Tables_number   1
_chemical_formula_structural   Eu(ZnP)2
_chemical_formula_sum   'Eu1 Zn2 P2'
_cell_volume   98.85574477
_cell_formula_units_Z   1
loop_
 _symmetry_equiv_pos_site_id
 _symmetry_equiv_pos_as_xyz
  1  'x, y, z'
loop_
 _atom_site_type_symbol
 _atom_site_label
 _atom_site_symmetry_multiplicity
 _atom_site_fract_x
 _atom_site_fract_y
 _atom_site_fract_z
 _atom_site_occupancy
  Eu  Eu0  1  -0.00000000  0.00000000  0.00000000  1
  Zn  Zn0  1  0.66666700  0.33333300  0.36594143  1
  Zn  Zn1  1  0.33333300  0.66666700  0.63405857  1
  P  P0  1  0.66666700  0.33333300  0.72976618  1
  P  P1  1  0.33333300  0.66666700  0.27023382  1
loop_
_geom_bond_atom_site_label_1
_geom_bond_atom_site_label_2
_geom_bond_distance
_geom_bond_site_symmetry_2
Eu0 P0 2.998911 1_454
Eu0 P1 2.998911 1_545
Eu0 P0 2.998913 1_554
Eu0 P0 2.998913 1_444
Eu0 P1 2.998913 1_555
Eu0 P1 2.998913 1_445
P0 Zn1 2.437893 1_545
P0 Zn1 2.437893 1_655
P0 Zn1 2.437901 1_555
P0 Zn0 2.514294 1_555
P1 Zn0 2.437893 1_455
P1 Zn0 2.437893 1_565
P1 Zn0 2.437901 1_555
P1 Zn1 2.514294 1_555
