# generated using pymatgen
data_MgSi2
_symmetry_space_group_name_H-M   'P 1'
_cell_length_a   3.74385700
_cell_length_b   6.67632400
_cell_length_c   9.77753972
_cell_angle_alpha   76.63043298
_cell_angle_beta   90.00000000
_cell_angle_gamma   90.00000000
_symmetry_Int_Tables_number   1
_chemical_formula_structural   MgSi2
_chemical_formula_sum   'Mg4 Si8'
_cell_volume   237.76828700
_cell_formula_units_Z   4
loop_
 _symmetry_equiv_pos_site_id
 _symmetry_equiv_pos_as_xyz
  1  'x, y, z'
loop_
 _atom_site_type_symbol
 _atom_site_label
 _atom_site_symmetry_multiplicity
 _atom_site_fract_x
 _atom_site_fract_y
 _atom_site_fract_z
 _atom_site_occupancy
  Mg  Mg0  1  0.50000000  0.34015100  0.82499700  1
  Mg  Mg1  1  0.50000000  0.65984900  0.17500300  1
  Mg  Mg2  1  0.00000000  0.88546700  0.37980000  1
  Mg  Mg3  1  0.00000000  0.11453300  0.62020000  1
  Si  Si0  1  0.50000000  0.10626700  0.18473400  1
  Si  Si1  1  0.00000000  0.83800500  0.96517200  1
  Si  Si2  1  0.50000000  0.74687300  0.61435700  1
  Si  Si3  1  0.00000000  0.47590300  0.38244600  1
  Si  Si4  1  0.50000000  0.89373300  0.81526600  1
  Si  Si5  1  0.00000000  0.16199500  0.03482800  1
  Si  Si6  1  0.50000000  0.25312700  0.38564300  1
  Si  Si7  1  0.00000000  0.52409700  0.61755400  1
loop_
_geom_bond_atom_site_label_1
_geom_bond_atom_site_label_2
_geom_bond_distance
_geom_bond_site_symmetry_2
Mg0 Si7 2.823878 1_655
Mg0 Si7 2.823878 1_555
Mg0 Si5 2.828341 1_556
Mg0 Si5 2.828341 1_656
Mg0 Si4 3.003858 1_545
Mg0 Si2 3.004801 1_555
Mg1 Si3 2.823878 1_555
Mg1 Si3 2.823878 1_655
Mg1 Si1 2.828341 1_654
Mg1 Si1 2.828341 1_554
Mg1 Si0 3.003858 1_565
Mg1 Si6 3.004801 1_555
Mg2 Si3 2.728516 1_555
Mg2 Si0 2.831007 1_465
Mg2 Si0 2.831007 1_565
Mg2 Si7 2.937860 1_555
Mg2 Si2 2.939142 1_455
Mg2 Si2 2.939142 1_555
Mg2 Si6 3.097964 1_565
Mg2 Si6 3.097964 1_465
Mg3 Si7 2.728516 1_555
Mg3 Si4 2.831007 1_545
Mg3 Si4 2.831007 1_445
Mg3 Si3 2.937860 1_555
Mg3 Si6 2.939142 1_455
Mg3 Si6 2.939142 1_555
Mg3 Si2 3.097964 1_445
Mg3 Si2 3.097964 1_545
Si0 Si5 2.353436 1_655
Si0 Si5 2.353436 1_555
Si0 Si6 2.389756 1_555
Si1 Si4 2.353436 1_455
Si1 Si4 2.353436 1_555
Si1 Si5 2.413292 1_566
Si2 Si7 2.386572 1_655
Si2 Si7 2.386572 1_555
Si2 Si4 2.389756 1_555
Si3 Si6 2.386572 1_455
Si3 Si6 2.386572 1_555
Si3 Si7 2.393735 1_555
