# generated using pymatgen
data_Ba2Ge2Te5
_symmetry_space_group_name_H-M   'P 1'
_cell_length_a   9.33584056
_cell_length_b   10.07829695
_cell_length_c   13.61773952
_cell_angle_alpha   90.00000000
_cell_angle_beta   90.00000000
_cell_angle_gamma   90.00000000
_symmetry_Int_Tables_number   1
_chemical_formula_structural   Ba2Ge2Te5
_chemical_formula_sum   'Ba8 Ge8 Te20'
_cell_volume   1281.28457913
_cell_formula_units_Z   4
loop_
 _symmetry_equiv_pos_site_id
 _symmetry_equiv_pos_as_xyz
  1  'x, y, z'
loop_
 _atom_site_type_symbol
 _atom_site_label
 _atom_site_symmetry_multiplicity
 _atom_site_fract_x
 _atom_site_fract_y
 _atom_site_fract_z
 _atom_site_occupancy
  Ba  Ba0  1  0.60369305  0.91922053  0.33477104  1
  Ba  Ba1  1  0.39630695  0.41922053  0.66522896  1
  Ba  Ba2  1  0.89630695  0.91922053  0.83477104  1
  Ba  Ba3  1  0.10369305  0.41922053  0.16522896  1
  Ba  Ba4  1  0.56092855  0.43709966  0.31835506  1
  Ba  Ba5  1  0.43907145  0.93709966  0.68164494  1
  Ba  Ba6  1  0.93907145  0.43709966  0.81835506  1
  Ba  Ba7  1  0.06092855  0.93709966  0.18164494  1
  Ge  Ge0  1  0.17815734  0.72930391  0.52210728  1
  Ge  Ge1  1  0.82184266  0.22930391  0.47789272  1
  Ge  Ge2  1  0.32184266  0.72930391  0.02210728  1
  Ge  Ge3  1  0.67815734  0.22930391  0.97789272  1
  Ge  Ge4  1  0.02593541  0.56352412  0.43631701  1
  Ge  Ge5  1  0.97406459  0.06352412  0.56368299  1
  Ge  Ge6  1  0.47406459  0.56352412  0.93631701  1
  Ge  Ge7  1  0.52593541  0.06352412  0.06368299  1
  Te  Te0  1  0.20082921  0.36699738  0.41664303  1
  Te  Te1  1  0.79917079  0.86699738  0.58335697  1
  Te  Te2  1  0.29917079  0.36699738  0.91664303  1
  Te  Te3  1  0.70082921  0.86699738  0.08335697  1
  Te  Te4  1  0.17466697  0.97086149  0.44733738  1
  Te  Te5  1  0.82533303  0.47086149  0.55266262  1
  Te  Te6  1  0.32533303  0.97086149  0.94733738  1
  Te  Te7  1  0.67466697  0.47086149  0.05266262  1
  Te  Te8  1  0.87894536  0.65646989  0.28964339  1
  Te  Te9  1  0.12105464  0.15646989  0.71035661  1
  Te  Te10  1  0.62105464  0.65646989  0.78964339  1
  Te  Te11  1  0.37894536  0.15646989  0.21035661  1
  Te  Te12  1  0.15670967  0.70087101  0.71236798  1
  Te  Te13  1  0.84329033  0.20087101  0.28763202  1
  Te  Te14  1  0.34329033  0.70087101  0.21236798  1
  Te  Te15  1  0.65670967  0.20087101  0.78763202  1
  Te  Te16  1  0.45127701  0.68315102  0.49582120  1
  Te  Te17  1  0.54872299  0.18315102  0.50417880  1
  Te  Te18  1  0.04872299  0.68315102  0.99582120  1
  Te  Te19  1  0.95127701  0.18315102  0.00417880  1
loop_
_geom_bond_atom_site_label_1
_geom_bond_atom_site_label_2
_geom_bond_distance
_geom_bond_site_symmetry_2
Ba0 Te16 3.534839 1_555
Ba0 Te17 3.558206 1_565
Ba0 Te3 3.580649 1_555
Ba0 Te11 3.604185 1_565
Ba0 Te13 3.670550 1_565
Ba0 Te14 3.678470 1_555
Ba0 Te8 3.740775 1_555
Ba0 Te1 3.881609 1_555
Ba1 Te17 3.534839 1_555
Ba1 Te16 3.558206 1_555
Ba1 Te2 3.580649 1_555
Ba1 Te10 3.604185 1_555
Ba1 Te12 3.670550 1_555
Ba1 Te15 3.678470 1_555
Ba1 Te9 3.740775 1_555
Ba1 Te0 3.881609 1_555
Ba2 Te18 3.534839 1_655
Ba2 Te19 3.558206 1_566
Ba2 Te1 3.580649 1_555
Ba2 Te9 3.604185 1_665
Ba2 Te15 3.670550 1_565
Ba2 Te12 3.678470 1_655
Ba2 Te10 3.740775 1_555
Ba2 Te3 3.881609 1_556
Ba3 Te19 3.534839 1_455
Ba3 Te18 3.558206 1_554
Ba3 Te0 3.580649 1_555
Ba3 Te8 3.604185 1_455
Ba3 Te14 3.670550 1_555
Ba3 Te13 3.678470 1_455
Ba3 Te11 3.740775 1_555
Ba3 Te2 3.881609 1_554
Ba4 Te13 3.576606 1_555
Ba4 Te17 3.600942 1_555
Ba4 Te16 3.610765 1_555
Ba4 Te11 3.612276 1_555
Ba4 Te14 3.643953 1_555
Ba4 Te0 3.686806 1_555
Ba4 Te8 3.722304 1_555
Ba4 Te7 3.786048 1_555
Ba4 Ge1 3.878029 1_555
Ba4 Te5 4.048430 1_555
Ba5 Te12 3.576606 1_555
Ba5 Te16 3.600942 1_555
Ba5 Te17 3.610765 1_565
Ba5 Te10 3.612276 1_555
Ba5 Te15 3.643953 1_565
Ba5 Te1 3.686806 1_555
Ba5 Te9 3.722304 1_565
Ba5 Te6 3.786048 1_555
Ba5 Ge0 3.878029 1_555
Ba5 Te4 4.048430 1_555
Ba6 Te15 3.576606 1_555
Ba6 Te19 3.600942 1_556
Ba6 Te18 3.610765 1_655
Ba6 Te9 3.612276 1_655
Ba6 Te12 3.643953 1_655
Ba6 Te2 3.686806 1_655
Ba6 Te10 3.722304 1_555
Ba6 Te5 3.786048 1_555
Ba6 Ge3 3.878029 1_555
Ba6 Te7 4.048430 1_556
Ba7 Te14 3.576606 1_555
Ba7 Te18 3.600942 1_554
Ba7 Te19 3.610765 1_465
Ba7 Te8 3.612276 1_455
Ba7 Te13 3.643953 1_465
Ba7 Te3 3.686806 1_455
Ba7 Te11 3.722304 1_565
Ba7 Te4 3.786048 1_555
Ba7 Ge2 3.878029 1_555
Ba7 Te6 4.048430 1_554
Ge0 Ge4 2.485143 1_555
Ge0 Te12 2.614398 1_555
Ge0 Te16 2.616482 1_555
Ge0 Te4 2.639038 1_555
Ge1 Ge5 2.485143 1_555
Ge1 Te13 2.614398 1_555
Ge1 Te17 2.616482 1_555
Ge1 Te5 2.639038 1_555
Ge2 Ge6 2.485143 1_554
Ge2 Te14 2.614398 1_555
Ge2 Te18 2.616482 1_554
Ge2 Te6 2.639038 1_554
Ge3 Ge7 2.485143 1_556
Ge3 Te15 2.614398 1_555
Ge3 Te19 2.616482 1_556
Ge3 Te7 2.639038 1_556
Ge4 Te0 2.580842 1_555
Ge4 Te8 2.598090 1_455
Ge4 Te5 2.624823 1_455
Ge5 Te1 2.580842 1_545
Ge5 Te9 2.598090 1_655
Ge5 Te4 2.624823 1_645
Ge6 Te2 2.580842 1_555
Ge6 Te10 2.598090 1_555
Ge6 Te7 2.624823 1_556
Ge7 Te3 2.580842 1_545
Ge7 Te11 2.598090 1_555
Ge7 Te6 2.624823 1_544
