# generated using pymatgen
data_Sr3CaTi2Mn2O10
_symmetry_space_group_name_H-M   'P 1'
_cell_length_a   11.15113638
_cell_length_b   11.35222140
_cell_length_c   17.69256987
_cell_angle_alpha   108.64967404
_cell_angle_beta   108.55425968
_cell_angle_gamma   89.98707443
_symmetry_Int_Tables_number   1
_chemical_formula_structural   Sr3CaTi2Mn2O10
_chemical_formula_sum   'Sr24 Ca8 Ti16 Mn16 O80'
_cell_volume   1998.90810844
_cell_formula_units_Z   8
loop_
 _symmetry_equiv_pos_site_id
 _symmetry_equiv_pos_as_xyz
  1  'x, y, z'
loop_
 _atom_site_type_symbol
 _atom_site_label
 _atom_site_symmetry_multiplicity
 _atom_site_fract_x
 _atom_site_fract_y
 _atom_site_fract_z
 _atom_site_occupancy
  Sr  Sr0  1  0.30714200  0.06202900  0.61227800  1
  Sr  Sr1  1  0.30691300  0.56229500  0.61307600  1
  Sr  Sr2  1  0.80725200  0.06283900  0.61307700  1
  Sr  Sr3  1  0.80817300  0.56238600  0.61498600  1
  Sr  Sr4  1  0.19368400  0.43661200  0.38651000  1
  Sr  Sr5  1  0.19457300  0.43814200  0.88878000  1
  Sr  Sr6  1  0.19319400  0.93671700  0.38480300  1
  Sr  Sr7  1  0.69338100  0.43697000  0.38512700  1
  Sr  Sr8  1  0.69524200  0.43874400  0.88887100  1
  Sr  Sr9  1  0.69367600  0.93636700  0.38646000  1
  Sr  Sr10  1  0.69542800  0.93773600  0.88878500  1
  Sr  Sr11  1  0.05675200  0.29905400  0.11313200  1
  Sr  Sr12  1  0.05744700  0.29976000  0.61277900  1
  Sr  Sr13  1  0.05824500  0.80219800  0.61489000  1
  Sr  Sr14  1  0.55680600  0.30019200  0.61227700  1
  Sr  Sr15  1  0.55648600  0.79964500  0.11294900  1
  Sr  Sr16  1  0.55681900  0.80069300  0.61290700  1
  Sr  Sr17  1  0.44248900  0.19781100  0.38376100  1
  Sr  Sr18  1  0.44447500  0.20011500  0.88837500  1
  Sr  Sr19  1  0.44204300  0.69766700  0.38382000  1
  Sr  Sr20  1  0.44393000  0.70029400  0.88870700  1
  Sr  Sr21  1  0.94191200  0.19776300  0.38373600  1
  Sr  Sr22  1  0.94488200  0.19990500  0.88872800  1
  Sr  Sr23  1  0.94258700  0.69784100  0.38410300  1
  Ca  Ca0  1  0.30364500  0.06552600  0.10975600  1
  Ca  Ca1  1  0.30240400  0.56608000  0.11036100  1
  Ca  Ca2  1  0.80219400  0.06571700  0.11006000  1
  Ca  Ca3  1  0.80318700  0.56622200  0.11041300  1
  Ca  Ca4  1  0.19374700  0.93461800  0.89097000  1
  Ca  Ca5  1  0.05443700  0.79397200  0.11035700  1
  Ca  Ca6  1  0.55432300  0.29402200  0.11092700  1
  Ca  Ca7  1  0.94498600  0.70583600  0.89054500  1
  Ti  Ti0  1  0.00306600  0.99929400  0.00286000  1
  Ti  Ti1  1  0.99973400  0.99930200  0.49947700  1
  Ti  Ti2  1  0.00062800  0.50283500  0.00160700  1
  Ti  Ti3  1  0.99906400  0.50030100  0.49984900  1
  Ti  Ti4  1  0.49985300  0.00189800  0.00185100  1
  Ti  Ti5  1  0.49932800  0.99963200  0.49943200  1
  Ti  Ti6  1  0.50148200  0.50064900  0.00361500  1
  Ti  Ti7  1  0.49996400  0.49991600  0.49955900  1
  Ti  Ti8  1  0.25208700  0.24979800  0.00185600  1
  Ti  Ti9  1  0.24916800  0.24925100  0.49932300  1
  Ti  Ti10  1  0.24871000  0.75181000  0.00195200  1
  Ti  Ti11  1  0.24885500  0.74957100  0.49948000  1
  Ti  Ti12  1  0.74983500  0.25137500  0.00302200  1
  Ti  Ti13  1  0.74949200  0.25014500  0.49963200  1
  Ti  Ti14  1  0.75390200  0.75114100  0.00233500  1
  Ti  Ti15  1  0.74974700  0.74898500  0.49990600  1
  Mn  Mn0  1  0.10789800  0.09156500  0.24559000  1
  Mn  Mn1  1  0.11371100  0.09510800  0.75304000  1
  Mn  Mn2  1  0.10837300  0.59746800  0.24687600  1
  Mn  Mn3  1  0.11060800  0.60136500  0.75312400  1
  Mn  Mn4  1  0.60836400  0.09732900  0.24711500  1
  Mn  Mn5  1  0.61277800  0.09718800  0.75118100  1
  Mn  Mn6  1  0.60796200  0.59180300  0.24598800  1
  Mn  Mn7  1  0.61517200  0.59781400  0.75150500  1
  Mn  Mn8  1  0.36142500  0.40339900  0.24654200  1
  Mn  Mn9  1  0.36266900  0.40384300  0.75127900  1
  Mn  Mn10  1  0.35563100  0.90200200  0.24547900  1
  Mn  Mn11  1  0.36046400  0.90342800  0.75257800  1
  Mn  Mn12  1  0.85622700  0.40207200  0.24588700  1
  Mn  Mn13  1  0.86372500  0.40744600  0.75298000  1
  Mn  Mn14  1  0.86175800  0.90354400  0.24660100  1
  Mn  Mn15  1  0.86557300  0.90148100  0.75216800  1
  O  O0  1  0.12648500  0.12272600  0.49028800  1
  O  O1  1  0.13010200  0.11832600  0.98827400  1
  O  O2  1  0.12632200  0.62279200  0.49040400  1
  O  O3  1  0.12399800  0.62523000  0.98736700  1
  O  O4  1  0.62674400  0.12330400  0.49041300  1
  O  O5  1  0.62743900  0.12436300  0.99137000  1
  O  O6  1  0.62679900  0.62259200  0.49023000  1
  O  O7  1  0.63033500  0.62346700  0.99152200  1
  O  O8  1  0.14261300  0.38084600  0.01491000  1
  O  O9  1  0.13544600  0.37660900  0.50825600  1
  O  O10  1  0.14107400  0.87983600  0.01561000  1
  O  O11  1  0.13573900  0.87683100  0.50880300  1
  O  O12  1  0.64062000  0.37908200  0.01599500  1
  O  O13  1  0.63618300  0.37746700  0.50899100  1
  O  O14  1  0.64318200  0.88107900  0.01451700  1
  O  O15  1  0.63561900  0.87636200  0.50815900  1
  O  O16  1  0.37635500  0.11752800  0.48982500  1
  O  O17  1  0.37687100  0.11652600  0.98982200  1
  O  O18  1  0.37661500  0.61804100  0.49026900  1
  O  O19  1  0.37688900  0.61606800  0.99119700  1
  O  O20  1  0.87704200  0.11783700  0.49056600  1
  O  O21  1  0.87883600  0.11473100  0.99078900  1
  O  O22  1  0.87663400  0.61794700  0.49002800  1
  O  O23  1  0.88111700  0.62071600  0.98966600  1
  O  O24  1  0.39218800  0.38431700  0.01673700  1
  O  O25  1  0.38547300  0.38154100  0.50783400  1
  O  O26  1  0.38747300  0.88879700  0.01491600  1
  O  O27  1  0.38564900  0.88162700  0.50832500  1
  O  O28  1  0.88761400  0.38986000  0.01520900  1
  O  O29  1  0.88575900  0.38204800  0.50840300  1
  O  O30  1  0.89295200  0.88345200  0.01575000  1
  O  O31  1  0.88582100  0.88135800  0.50820300  1
  O  O32  1  0.08484900  0.08711700  0.12415300  1
  O  O33  1  0.07655600  0.08140400  0.62533300  1
  O  O34  1  0.08327200  0.59369100  0.12422600  1
  O  O35  1  0.07320600  0.58377300  0.62478300  1
  O  O36  1  0.58172400  0.09315300  0.12465400  1
  O  O37  1  0.57474000  0.08297300  0.62396300  1
  O  O38  1  0.58366000  0.58822000  0.12473700  1
  O  O39  1  0.57564300  0.58331200  0.62412000  1
  O  O40  1  0.45096500  0.41763300  0.37426300  1
  O  O41  1  0.45237500  0.41544400  0.87784600  1
  O  O42  1  0.44794000  0.91765800  0.37349500  1
  O  O43  1  0.45406900  0.91581200  0.87817700  1
  O  O44  1  0.94786400  0.41779800  0.37373500  1
  O  O45  1  0.95235400  0.41361900  0.87778200  1
  O  O46  1  0.95093000  0.91757900  0.37449400  1
  O  O47  1  0.95722400  0.90694800  0.87740100  1
  O  O48  1  0.33027500  0.27897500  0.12490400  1
  O  O49  1  0.32477000  0.29091200  0.62408600  1
  O  O50  1  0.32579500  0.77924500  0.12418300  1
  O  O51  1  0.32342700  0.79165800  0.62509800  1
  O  O52  1  0.82828100  0.27892300  0.12491000  1
  O  O53  1  0.82670800  0.29375000  0.62528400  1
  O  O54  1  0.83283500  0.77963700  0.12525400  1
  O  O55  1  0.82565700  0.78995500  0.62396200  1
  O  O56  1  0.19819400  0.20526200  0.37331900  1
  O  O57  1  0.20299800  0.21378100  0.87773700  1
  O  O58  1  0.19769300  0.70879600  0.37464700  1
  O  O59  1  0.20342200  0.71989900  0.87783300  1
  O  O60  1  0.69815300  0.20895400  0.37474300  1
  O  O61  1  0.70210700  0.21119600  0.87791500  1
  O  O62  1  0.69854100  0.70525200  0.37342100  1
  O  O63  1  0.70820700  0.71136100  0.87758700  1
  O  O64  1  0.41951500  0.07061000  0.24070700  1
  O  O65  1  0.42917500  0.07084100  0.75053300  1
  O  O66  1  0.42007600  0.57306000  0.24077100  1
  O  O67  1  0.43191100  0.57241700  0.75132500  1
  O  O68  1  0.92024600  0.07316300  0.24074200  1
  O  O69  1  0.93015900  0.07146300  0.75109200  1
  O  O70  1  0.91970500  0.57076900  0.24079300  1
  O  O71  1  0.92883800  0.58262800  0.75896300  1
  O  O72  1  0.17947000  0.43030000  0.24952300  1
  O  O73  1  0.17955100  0.43162400  0.75105200  1
  O  O74  1  0.16822500  0.91764500  0.24180900  1
  O  O75  1  0.17881000  0.92594500  0.75919000  1
  O  O76  1  0.66853800  0.41769700  0.24184200  1
  O  O77  1  0.67975500  0.42732000  0.75041300  1
  O  O78  1  0.67975800  0.93018000  0.24953100  1
  O  O79  1  0.68214200  0.92881500  0.75102300  1
loop_
_geom_bond_atom_site_label_1
_geom_bond_atom_site_label_2
_geom_bond_distance
_geom_bond_site_symmetry_2
Ca0 O64 2.247228 1_555
Ca0 O48 2.359207 1_555
Ca0 O10 2.517721 1_545
Ca0 O32 2.536338 1_555
Ca0 O26 2.561015 1_545
Ca0 O1 2.626836 1_554
Ca0 O17 2.719045 1_554
Ca0 O36 3.034931 1_555
Ca1 O66 2.237861 1_555
Ca1 O50 2.359014 1_555
Ca1 O8 2.502848 1_555
Ca1 O34 2.541932 1_555
Ca1 O24 2.621527 1_555
Ca1 O3 2.706081 1_554
Ca1 O19 2.708644 1_554
Ca2 O68 2.241415 1_555
Ca2 O52 2.357281 1_555
Ca2 O14 2.494608 1_545
Ca2 O36 2.561262 1_555
Ca2 O5 2.634336 1_554
Ca2 O30 2.637297 1_545
Ca2 O21 2.718808 1_554
Ca3 O70 2.242420 1_555
Ca3 O54 2.363503 1_555
Ca3 O12 2.528818 1_555
Ca3 O38 2.544256 1_555
Ca3 O28 2.565832 1_555
Ca3 O7 2.618326 1_554
Ca3 O23 2.780057 1_554
Ca3 O34 3.062302 1_655
Ca4 O75 2.253774 1_555
Ca4 O59 2.379233 1_555
Ca4 O1 2.509467 1_565
Ca4 O47 2.581064 1_455
Ca4 O17 2.629136 1_565
Ca4 O10 2.701156 1_556
Ca4 O26 2.731379 1_556
Ca4 O43 2.985049 1_555
Ca5 O74 2.241553 1_555
Ca5 O34 2.374717 1_555
Ca5 O30 2.498928 1_455
Ca5 O54 2.577685 1_455
Ca5 O10 2.601853 1_555
Ca5 O23 2.617767 1_454
Ca5 O3 2.722831 1_554
Ca5 O50 2.966315 1_555
Ca6 O76 2.236466 1_555
Ca6 O36 2.378826 1_555
Ca6 O24 2.504169 1_555
Ca6 O12 2.597266 1_555
Ca6 O48 2.598591 1_555
Ca6 O17 2.666270 1_554
Ca6 O5 2.709224 1_554
Ca6 O52 2.994856 1_555
Ca7 O71 2.249277 1_555
Ca7 O47 2.375921 1_555
Ca7 O23 2.528924 1_555
Ca7 O3 2.565553 1_655
Ca7 O63 2.579119 1_555
Ca7 O30 2.696332 1_556
Ca7 O10 2.776069 1_656
Ca7 O59 2.969313 1_655
Mn0 O32 2.064942 1_555
Mn0 O74 2.073345 1_545
Mn0 O68 2.074658 1_455
Mn0 O56 2.115118 1_555
Mn1 O69 2.052345 1_455
Mn1 O75 2.075909 1_545
Mn1 O57 2.091744 1_555
Mn1 O33 2.116719 1_555
Mn2 O72 2.065103 1_555
Mn2 O34 2.083989 1_555
Mn2 O70 2.089261 1_455
Mn2 O58 2.107134 1_555
Mn3 O73 2.068227 1_555
Mn3 O71 2.076516 1_455
Mn3 O59 2.097297 1_555
Mn3 O35 2.115926 1_555
Mn4 O78 2.065364 1_545
Mn4 O36 2.075950 1_555
Mn4 O64 2.089484 1_555
Mn4 O60 2.106853 1_555
Mn5 O79 2.061325 1_545
Mn5 O65 2.065069 1_555
Mn5 O61 2.101934 1_555
Mn5 O37 2.105293 1_555
Mn6 O38 2.061887 1_555
Mn6 O76 2.075184 1_555
Mn6 O66 2.075568 1_555
Mn6 O62 2.111018 1_555
Mn7 O77 2.061417 1_555
Mn7 O67 2.062727 1_555
Mn7 O63 2.098268 1_555
Mn7 O39 2.105082 1_555
Mn8 O72 2.066501 1_555
Mn8 O66 2.077643 1_555
Mn8 O48 2.080290 1_555
Mn8 O40 2.111873 1_555
Mn9 O67 2.063409 1_555
Mn9 O73 2.065051 1_555
Mn9 O41 2.101981 1_555
Mn9 O49 2.106227 1_555
Mn10 O50 2.071548 1_555
Mn10 O64 2.078592 1_565
Mn10 O74 2.079381 1_555
Mn10 O42 2.116595 1_555
Mn11 O65 2.064605 1_565
Mn11 O75 2.076951 1_555
Mn11 O43 2.090799 1_555
Mn11 O51 2.108244 1_555
Mn12 O52 2.072388 1_555
Mn12 O70 2.080464 1_555
Mn12 O76 2.080777 1_555
Mn12 O44 2.112665 1_555
Mn13 O77 2.051478 1_555
Mn13 O71 2.076163 1_555
Mn13 O45 2.090336 1_555
Mn13 O53 2.117156 1_555
Mn14 O78 2.066318 1_555
Mn14 O68 2.077288 1_565
Mn14 O54 2.078474 1_555
Mn14 O46 2.114662 1_555
Mn15 O79 2.063488 1_555
Mn15 O69 2.067740 1_565
Mn15 O47 2.104429 1_555
Mn15 O55 2.113580 1_555
O0 Ti9 1.917046 1_555
O0 Ti1 2.068861 1_445
O0 Sr6 2.618725 1_545
O0 Sr21 2.659449 1_455
O0 Sr0 2.715673 1_555
O0 Sr12 2.757511 1_555
O1 Ti8 1.923318 1_556
O1 Ti0 2.087063 1_546
O1 Sr22 2.636816 1_455
O1 Sr11 2.829978 1_556
O2 Ti11 1.917706 1_555
O2 Ti3 2.067782 1_455
O2 Sr4 2.608342 1_555
O2 Sr23 2.651895 1_455
O2 Sr1 2.721900 1_555
O2 Sr13 2.787409 1_555
O3 Ti10 1.897582 1_556
O3 Ti2 2.081341 1_556
O3 Sr5 2.583823 1_555
O4 Ti13 1.918893 1_555
O4 Ti5 2.074555 1_545
O4 Sr9 2.611489 1_545
O4 Sr17 2.655220 1_555
O4 Sr2 2.721175 1_555
O4 Sr14 2.754936 1_555
O5 Ti12 1.901585 1_556
O5 Ti4 2.079666 1_556
O5 Sr10 2.602553 1_545
O5 Sr18 2.618801 1_555
O6 Ti15 1.913678 1_555
O6 Ti7 2.064841 1_555
O6 Sr7 2.611777 1_555
O6 Sr19 2.659386 1_555
O6 Sr3 2.748249 1_555
O6 Sr16 2.770978 1_555
O7 Ti14 1.921394 1_556
O7 Ti6 2.107517 1_556
O7 Sr8 2.572912 1_555
O7 Sr20 2.645344 1_555
O7 Sr15 2.769615 1_556
O8 Ti8 1.927607 1_555
O8 Ti2 2.109581 1_555
O8 Sr11 2.624895 1_555
O8 Sr5 2.736791 1_554
O8 Sr22 2.828685 1_454
O9 Ti9 1.924588 1_555
O9 Ti3 2.072528 1_455
O9 Sr1 2.604538 1_555
O9 Sr12 2.644474 1_555
O9 Sr4 2.711876 1_555
O9 Sr21 2.783639 1_455
O10 Ti10 1.889581 1_555
O10 Ti0 2.057198 1_555
O11 Ti11 1.919521 1_555
O11 Ti1 2.060783 1_455
O11 Sr0 2.595808 1_565
O11 Sr13 2.652762 1_555
O11 Sr6 2.744884 1_555
O11 Sr23 2.783186 1_455
O12 Ti12 1.897886 1_555
O12 Ti6 2.082285 1_555
O12 Sr8 2.781134 1_554
O12 Sr18 2.816927 1_554
O13 Ti13 1.921539 1_555
O13 Ti7 2.062420 1_555
O13 Sr3 2.607110 1_555
O13 Sr14 2.635794 1_555
O13 Sr7 2.739007 1_555
O13 Sr17 2.792880 1_555
O14 Ti14 1.926628 1_555
O14 Ti4 2.110345 1_565
O14 Sr15 2.631284 1_555
O14 Sr10 2.727936 1_554
O14 Sr20 2.834839 1_554
O15 Ti15 1.927257 1_555
O15 Ti5 2.068770 1_555
O15 Sr2 2.611090 1_565
O15 Sr16 2.645654 1_555
O15 Sr9 2.710104 1_555
O15 Sr19 2.782072 1_555
O16 Ti5 1.922737 1_545
O16 Ti9 2.065389 1_555
O16 Sr17 2.621212 1_555
O16 Sr6 2.642874 1_545
O16 Sr14 2.719741 1_555
O16 Sr0 2.761112 1_555
O17 Ti4 1.899977 1_556
O17 Ti8 2.062063 1_556
O17 Sr18 2.577011 1_555
O18 Ti7 1.927031 1_555
O18 Ti11 2.068074 1_555
O18 Sr19 2.619164 1_555
O18 Sr4 2.640788 1_555
O18 Sr16 2.719381 1_555
O18 Sr1 2.771271 1_555
O19 Ti6 1.919476 1_556
O19 Ti10 2.106748 1_556
O19 Sr20 2.594824 1_555
O19 Sr5 2.610181 1_555
O19 Sr15 2.716506 1_556
O20 Ti1 1.924843 1_545
O20 Ti13 2.072405 1_555
O20 Sr21 2.624165 1_555
O20 Sr9 2.644955 1_545
O20 Sr12 2.713883 1_655
O20 Sr2 2.762777 1_555
O21 Ti0 1.916220 1_646
O21 Ti12 2.122456 1_556
O21 Sr22 2.588687 1_555
O21 Sr10 2.609751 1_545
O21 Sr11 2.715147 1_656
O22 Ti3 1.916861 1_555
O22 Ti15 2.058058 1_555
O22 Sr23 2.615385 1_555
O22 Sr7 2.644033 1_555
O22 Sr13 2.748830 1_655
O22 Sr3 2.799032 1_555
O23 Ti2 1.900610 1_656
O23 Ti14 2.060102 1_556
O23 Sr8 2.652795 1_555
O24 Ti6 1.913164 1_555
O24 Ti8 2.079477 1_555
O24 Sr18 2.770419 1_554
O24 Sr5 2.839677 1_554
O25 Ti7 1.924271 1_555
O25 Ti9 2.073412 1_555
O25 Sr14 2.600285 1_555
O25 Sr1 2.653053 1_555
O25 Sr4 2.740156 1_555
O25 Sr17 2.744572 1_555
O26 Ti4 1.909782 1_565
O26 Ti10 2.100571 1_555
O26 Sr15 2.574131 1_555
O26 Sr20 2.792799 1_554
O27 Ti5 1.920618 1_555
O27 Ti11 2.073119 1_555
O27 Sr16 2.598074 1_555
O27 Sr0 2.637819 1_565
O27 Sr19 2.747347 1_555
O27 Sr6 2.767959 1_555
O28 Ti2 1.918878 1_655
O28 Ti12 2.109976 1_555
O28 Sr11 2.585216 1_655
O28 Sr8 2.765369 1_554
O28 Sr22 2.808584 1_554
O29 Ti3 1.916718 1_555
O29 Ti13 2.068233 1_555
O29 Sr12 2.607818 1_655
O29 Sr3 2.657838 1_555
O29 Sr21 2.749718 1_555
O29 Sr7 2.763922 1_555
O30 Ti0 1.913083 1_655
O30 Ti14 2.062886 1_555
O30 Sr10 2.830763 1_554
O31 Ti1 1.920389 1_555
O31 Ti15 2.073733 1_555
O31 Sr13 2.615669 1_655
O31 Sr2 2.654023 1_565
O31 Sr23 2.742301 1_555
O31 Sr9 2.746436 1_555
O32 Ti0 1.953839 1_545
O32 Sr11 2.487093 1_555
O33 Ti1 2.004964 1_445
O33 Sr12 2.561462 1_555
O33 Sr0 2.656786 1_555
O33 Sr2 2.943869 1_455
O33 Sr13 3.118330 1_545
O34 Ti2 1.979037 1_555
O35 Ti3 1.991253 1_455
O35 Sr13 2.542781 1_555
O35 Sr1 2.684221 1_555
O35 Sr3 2.910479 1_455
O35 Sr12 3.163838 1_555
O36 Ti4 1.981374 1_555
O37 Ti5 1.986136 1_545
O37 Sr14 2.542250 1_555
O37 Sr2 2.664806 1_555
O37 Sr0 2.929153 1_555
O37 Sr16 3.149852 1_545
O38 Ti6 1.951530 1_555
O38 Sr15 2.485077 1_555
O39 Ti7 1.986860 1_555
O39 Sr16 2.541578 1_555
O39 Sr3 2.654789 1_555
O39 Sr1 2.944971 1_555
O39 Sr14 3.155894 1_555
O40 Ti7 1.997588 1_555
O40 Sr17 2.557918 1_555
O40 Sr7 2.652378 1_555
O40 Sr4 2.947860 1_555
O40 Sr19 3.132309 1_555
O41 Ti6 2.008757 1_556
O41 Sr18 2.513889 1_555
O41 Sr8 2.659647 1_555
O41 Sr5 2.947867 1_555
O41 Sr20 3.180637 1_555
O42 Ti5 2.005134 1_555
O42 Sr19 2.564006 1_555
O42 Sr9 2.678749 1_555
O42 Sr6 2.913792 1_555
O42 Sr17 3.128716 1_565
O43 Ti4 1.981211 1_566
O43 Sr20 2.517624 1_555
O43 Sr10 2.643843 1_555
O43 Sr18 3.178091 1_565
O44 Ti3 2.008667 1_555
O44 Sr21 2.562299 1_555
O44 Sr4 2.680639 1_655
O44 Sr7 2.911464 1_555
O44 Sr23 3.126926 1_555
O45 Ti2 1.986382 1_656
O45 Sr22 2.498281 1_555
O45 Sr5 2.653691 1_655
O45 Sr8 2.943107 1_555
O46 Ti1 1.992212 1_555
O46 Sr23 2.557647 1_555
O46 Sr6 2.653302 1_655
O46 Sr9 2.945667 1_555
O46 Sr21 3.135516 1_565
O47 Ti0 2.019215 1_656
O47 Sr10 3.002314 1_555
O48 Ti8 1.985032 1_555
O48 Sr11 3.004025 1_555
O49 Ti9 1.988748 1_555
O49 Sr0 2.541757 1_555
O49 Sr14 2.666077 1_555
O49 Sr12 2.927355 1_555
O49 Sr1 3.150838 1_555
O50 Ti10 1.974581 1_555
O50 Sr15 2.658162 1_555
O51 Ti11 2.001043 1_555
O51 Sr1 2.545566 1_555
O51 Sr16 2.683657 1_555
O51 Sr13 2.909474 1_555
O51 Sr0 3.150219 1_565
O52 Ti12 1.970232 1_555
O52 Sr11 2.637247 1_655
O53 Ti13 2.001702 1_555
O53 Sr2 2.563895 1_555
O53 Sr12 2.654423 1_655
O53 Sr14 2.947298 1_555
O53 Sr3 3.115635 1_555
O54 Ti14 1.985174 1_555
O54 Sr15 3.033090 1_555
O55 Ti15 1.978688 1_555
O55 Sr3 2.540746 1_555
O55 Sr13 2.655430 1_655
O55 Sr16 2.946547 1_555
O55 Sr2 3.167323 1_565
O56 Ti9 2.006011 1_555
O56 Sr4 2.563208 1_555
O56 Sr17 2.674317 1_555
O56 Sr21 2.924685 1_455
O56 Sr6 3.121167 1_545
O57 Ti8 1.987464 1_556
O57 Sr5 2.495495 1_555
O57 Sr18 2.646943 1_555
O57 Sr22 2.953500 1_455
O58 Ti11 1.990504 1_555
O58 Sr6 2.537287 1_555
O58 Sr19 2.682957 1_555
O58 Sr23 2.907275 1_455
O58 Sr4 3.164537 1_555
O59 Ti10 1.998535 1_556
O59 Sr20 2.641606 1_555
O60 Ti13 1.990737 1_555
O60 Sr7 2.537492 1_555
O60 Sr21 2.677227 1_555
O60 Sr17 2.910652 1_555
O60 Sr9 3.168301 1_545
O61 Ti12 1.998853 1_556
O61 Sr8 2.530877 1_555
O61 Sr22 2.658566 1_555
O61 Sr18 2.942274 1_555
O61 Sr10 3.173445 1_545
O62 Ti15 2.014157 1_555
O62 Sr9 2.561366 1_555
O62 Sr23 2.670489 1_555
O62 Sr19 2.927014 1_555
O62 Sr7 3.119767 1_555
O63 Ti14 1.995456 1_556
O63 Sr10 2.521092 1_555
O63 Sr20 3.020628 1_555
O63 Sr8 3.170541 1_555
O64 Sr17 2.409728 1_555
O65 Sr0 2.360155 1_555
O65 Sr18 2.361515 1_555
O66 Sr19 2.404656 1_555
O67 Sr20 2.359964 1_555
O67 Sr1 2.364205 1_555
O68 Sr21 2.404611 1_555
O69 Sr22 2.357477 1_555
O69 Sr2 2.359642 1_555
O70 Sr23 2.413315 1_555
O71 Sr3 2.407618 1_555
O72 Sr11 2.348521 1_555
O72 Sr4 2.355590 1_555
O73 Sr5 2.365642 1_555
O73 Sr12 2.370354 1_555
O74 Sr6 2.392982 1_555
O75 Sr13 2.412808 1_555
O76 Sr7 2.397832 1_555
O77 Sr14 2.355456 1_555
O77 Sr8 2.361177 1_555
O78 Sr15 2.349817 1_555
O78 Sr9 2.355850 1_555
O79 Sr10 2.363319 1_555
O79 Sr16 2.365225 1_555
