# generated using pymatgen
data_Ca2(ZnSn2)3
_symmetry_space_group_name_H-M   'P 1'
_cell_length_a   14.02294528
_cell_length_b   14.02294528
_cell_length_c   6.39327000
_cell_angle_alpha   90.00000000
_cell_angle_beta   90.00000000
_cell_angle_gamma   153.63965555
_symmetry_Int_Tables_number   1
_chemical_formula_structural   Ca2(ZnSn2)3
_chemical_formula_sum   'Ca4 Zn6 Sn12'
_cell_volume   558.21216456
_cell_formula_units_Z   2
loop_
 _symmetry_equiv_pos_site_id
 _symmetry_equiv_pos_as_xyz
  1  'x, y, z'
loop_
 _atom_site_type_symbol
 _atom_site_label
 _atom_site_symmetry_multiplicity
 _atom_site_fract_x
 _atom_site_fract_y
 _atom_site_fract_z
 _atom_site_occupancy
  Ca  Ca0  1  0.40144100  0.59855900  0.75000000  1
  Ca  Ca1  1  0.59855900  0.40144100  0.25000000  1
  Ca  Ca2  1  0.09708700  0.90291300  0.75000000  1
  Ca  Ca3  1  0.90291300  0.09708700  0.25000000  1
  Zn  Zn0  1  0.71901100  0.71901100  0.00000000  1
  Zn  Zn1  1  0.71901100  0.71901100  0.50000000  1
  Zn  Zn2  1  0.28098900  0.28098900  0.00000000  1
  Zn  Zn3  1  0.28098900  0.28098900  0.50000000  1
  Zn  Zn4  1  0.85056600  0.14943400  0.75000000  1
  Zn  Zn5  1  0.14943400  0.85056600  0.25000000  1
  Sn  Sn0  1  0.46543400  0.07215400  0.98064900  1
  Sn  Sn1  1  0.07215400  0.46543400  0.01935100  1
  Sn  Sn2  1  0.46543400  0.07215400  0.51935100  1
  Sn  Sn3  1  0.07215400  0.46543400  0.48064900  1
  Sn  Sn4  1  0.53456600  0.92784600  0.01935100  1
  Sn  Sn5  1  0.92784600  0.53456600  0.98064900  1
  Sn  Sn6  1  0.53456600  0.92784600  0.48064900  1
  Sn  Sn7  1  0.92784600  0.53456600  0.51935100  1
  Sn  Sn8  1  0.94805700  0.05194300  0.75000000  1
  Sn  Sn9  1  0.05194300  0.94805700  0.25000000  1
  Sn  Sn10  1  0.56946600  0.43053400  0.75000000  1
  Sn  Sn11  1  0.43053400  0.56946600  0.25000000  1
loop_
_geom_bond_atom_site_label_1
_geom_bond_atom_site_label_2
_geom_bond_distance
_geom_bond_site_symmetry_2
Ca0 Sn11 3.293876 1_556
Ca0 Sn11 3.293876 1_555
Ca0 Zn0 3.429222 1_556
Ca0 Zn2 3.429222 1_556
Ca0 Zn1 3.429222 1_555
Ca0 Zn3 3.429222 1_555
Ca0 Sn8 3.441502 1_565
Ca0 Sn8 3.441502 1_455
Ca0 Zn4 3.486194 1_565
Ca0 Zn4 3.486194 1_455
Ca0 Sn1 3.510667 1_556
Ca0 Sn3 3.510667 1_555
Ca0 Sn4 3.510667 1_556
Ca0 Sn6 3.510667 1_555
Ca1 Sn10 3.293876 1_554
Ca1 Sn10 3.293876 1_555
Ca1 Zn2 3.429222 1_555
Ca1 Zn3 3.429222 1_555
Ca1 Zn0 3.429222 1_555
Ca1 Zn1 3.429222 1_555
Ca1 Sn9 3.441502 1_655
Ca1 Sn9 3.441502 1_545
Ca1 Zn5 3.486194 1_655
Ca1 Zn5 3.486194 1_545
Ca1 Sn2 3.510667 1_555
Ca1 Sn0 3.510667 1_554
Ca1 Sn5 3.510667 1_554
Ca1 Sn7 3.510667 1_555
Ca2 Sn10 3.285184 1_455
Ca2 Sn10 3.285184 1_565
Ca2 Sn9 3.426099 1_555
Ca2 Sn9 3.426099 1_556
Ca2 Zn5 3.501684 1_556
Ca2 Zn5 3.501684 1_555
Ca2 Sn0 3.538266 1_565
Ca2 Sn2 3.538266 1_565
Ca2 Sn5 3.538266 1_455
Ca2 Sn7 3.538266 1_455
Ca2 Zn0 3.579397 1_456
Ca2 Zn1 3.579397 1_455
Ca2 Zn2 3.579397 1_566
Ca2 Zn3 3.579397 1_565
Ca3 Sn11 3.285184 1_545
Ca3 Sn11 3.285184 1_655
Ca3 Sn8 3.426099 1_555
Ca3 Sn8 3.426099 1_554
Ca3 Zn4 3.501684 1_554
Ca3 Zn4 3.501684 1_555
Ca3 Sn1 3.538266 1_655
Ca3 Sn3 3.538266 1_655
Ca3 Sn4 3.538266 1_545
Ca3 Sn6 3.538266 1_545
Ca3 Zn0 3.579397 1_545
Ca3 Zn1 3.579397 1_545
Ca3 Zn2 3.579397 1_655
Ca3 Zn3 3.579397 1_655
Sn0 Zn5 2.753486 1_546
Sn0 Sn4 2.934560 1_546
Sn0 Sn2 2.949203 1_555
Sn0 Sn5 2.957057 1_555
Sn1 Zn4 2.753486 1_454
Sn1 Sn5 2.934560 1_454
Sn1 Sn3 2.949203 1_555
Sn1 Sn4 2.957057 1_555
Sn2 Zn5 2.753486 1_545
Sn2 Sn6 2.934560 1_545
Sn2 Sn7 2.957057 1_555
Sn3 Zn4 2.753486 1_455
Sn3 Sn7 2.934560 1_455
Sn3 Sn6 2.957057 1_555
Sn4 Zn4 2.753486 1_564
Sn4 Sn6 2.949203 1_555
Sn5 Zn5 2.753486 1_656
Sn5 Sn7 2.949203 1_555
Sn6 Zn4 2.753486 1_565
Sn7 Zn5 2.753486 1_655
Sn8 Zn4 2.662197 1_555
Sn8 Zn1 2.792007 1_545
Sn8 Zn0 2.792007 1_546
Sn8 Zn2 2.792007 1_656
Sn8 Zn3 2.792007 1_655
Sn9 Zn5 2.662197 1_555
Sn9 Zn1 2.792007 1_455
Sn9 Zn0 2.792007 1_455
Sn9 Zn3 2.792007 1_565
Sn9 Zn2 2.792007 1_565
Sn10 Zn1 2.848583 1_555
Sn10 Zn0 2.848583 1_556
Sn10 Zn2 2.848583 1_556
Sn10 Zn3 2.848583 1_555
Sn11 Zn0 2.848583 1_555
Sn11 Zn1 2.848583 1_555
Sn11 Zn2 2.848583 1_555
Sn11 Zn3 2.848583 1_555
