# generated using pymatgen
data_In2Co3N4
_symmetry_space_group_name_H-M   'P 1'
_cell_length_a   5.37722441
_cell_length_b   6.62053996
_cell_length_c   8.10338940
_cell_angle_alpha   89.99999612
_cell_angle_beta   90.55916771
_cell_angle_gamma   127.99621440
_symmetry_Int_Tables_number   1
_chemical_formula_structural   In2Co3N4
_chemical_formula_sum   'In4 Co6 N8'
_cell_volume   227.32098986
_cell_formula_units_Z   2
loop_
 _symmetry_equiv_pos_site_id
 _symmetry_equiv_pos_as_xyz
  1  'x, y, z'
loop_
 _atom_site_type_symbol
 _atom_site_label
 _atom_site_symmetry_multiplicity
 _atom_site_fract_x
 _atom_site_fract_y
 _atom_site_fract_z
 _atom_site_occupancy
  In  In0  1  0.68991000  0.14927300  0.67027700  1
  In  In1  1  0.31009000  0.45936200  0.82972300  1
  In  In2  1  0.31009000  0.85072700  0.32972300  1
  In  In3  1  0.68991000  0.54063800  0.17027700  1
  Co  Co0  1  0.25541300  0.97173100  0.01408400  1
  Co  Co1  1  0.74458700  0.71631800  0.48591600  1
  Co  Co2  1  0.74458700  0.02826900  0.98591600  1
  Co  Co3  1  0.25541300  0.28368200  0.51408400  1
  Co  Co4  1  0.00000000  0.76574000  0.75000000  1
  Co  Co5  1  0.00000000  0.23426000  0.25000000  1
  N  N0  1  0.17648500  0.96127300  0.56056000  1
  N  N1  1  0.82351500  0.78478800  0.93944000  1
  N  N2  1  0.82351500  0.03872700  0.43944000  1
  N  N3  1  0.17648500  0.21521200  0.06056000  1
  N  N4  1  0.64425000  0.18292900  0.14283900  1
  N  N5  1  0.35575000  0.53868000  0.35716100  1
  N  N6  1  0.35575000  0.81707100  0.85716100  1
  N  N7  1  0.64425000  0.46132000  0.64283900  1
loop_
_geom_bond_atom_site_label_1
_geom_bond_atom_site_label_2
_geom_bond_distance
_geom_bond_site_symmetry_2
In0 N7 2.236334 1_555
In0 N2 2.285689 1_555
In0 N6 2.355137 1_545
In0 N0 2.383898 1_545
In1 N6 2.236347 1_555
In1 N3 2.285686 1_556
In1 N7 2.355137 1_555
In1 N1 2.383899 1_555
In2 N5 2.236334 1_555
In2 N0 2.285689 1_555
In2 N4 2.355137 1_565
In2 N2 2.383898 1_565
In3 N4 2.236347 1_555
In3 N1 2.285686 1_554
In3 N5 2.355137 1_555
In3 N3 2.383899 1_555
Co0 N6 1.910523 1_554
Co0 N1 1.929997 1_454
Co0 N3 1.940588 1_565
Co0 N4 1.942495 1_565
Co1 N7 1.910527 1_555
Co1 N0 1.929997 1_655
Co1 N2 1.940588 1_565
Co1 N5 1.942495 1_555
Co2 N4 1.910523 1_556
Co2 N3 1.929997 1_656
Co2 N1 1.940588 1_545
Co2 N6 1.942495 1_545
Co3 N5 1.910527 1_555
Co3 N2 1.929997 1_455
Co3 N0 1.940588 1_545
Co3 N7 1.942495 1_555
Co4 N0 1.857104 1_555
Co4 N1 1.857104 1_455
Co4 N6 1.922522 1_555
Co4 N7 1.922525 1_455
Co5 N2 1.857104 1_455
Co5 N3 1.857104 1_555
Co5 N4 1.922522 1_455
Co5 N5 1.922525 1_555
