# generated using pymatgen
data_Li6V3P8O29
_symmetry_space_group_name_H-M   'P 1'
_cell_length_a   9.82393811
_cell_length_b   9.82393811
_cell_length_c   13.90658000
_cell_angle_alpha   90.00000000
_cell_angle_beta   90.00000000
_cell_angle_gamma   120.00000074
_symmetry_Int_Tables_number   1
_chemical_formula_structural   Li6V3P8O29
_chemical_formula_sum   'Li12 V6 P16 O58'
_cell_volume   1162.31061077
_cell_formula_units_Z   2
loop_
 _symmetry_equiv_pos_site_id
 _symmetry_equiv_pos_as_xyz
  1  'x, y, z'
loop_
 _atom_site_type_symbol
 _atom_site_label
 _atom_site_symmetry_multiplicity
 _atom_site_fract_x
 _atom_site_fract_y
 _atom_site_fract_z
 _atom_site_occupancy
  Li  Li0  1  0.10174900  0.76297000  0.05657900  1
  Li  Li1  1  0.23727000  0.89601600  0.56604000  1
  Li  Li2  1  0.65874700  0.76273000  0.56604000  1
  Li  Li3  1  0.00000000  0.00000000  0.87923900  1
  Li  Li4  1  0.66122200  0.89825100  0.05657900  1
  Li  Li5  1  0.23703000  0.33877800  0.05657900  1
  Li  Li6  1  0.56111500  0.98902900  0.44387100  1
  Li  Li7  1  0.10398400  0.34125300  0.56604000  1
  Li  Li8  1  0.66666700  0.33333300  0.11141300  1
  Li  Li9  1  0.01097100  0.57208600  0.44387100  1
  Li  Li10  1  0.42791400  0.43888500  0.44387100  1
  Li  Li11  1  0.33333300  0.66666700  0.98599100  1
  V  V0  1  0.76588700  0.09805100  0.25027500  1
  V  V1  1  0.89674500  0.23470400  0.75342600  1
  V  V2  1  0.33795900  0.10325500  0.75342600  1
  V  V3  1  0.33216400  0.23411300  0.25027500  1
  V  V4  1  0.90194900  0.66783600  0.25027500  1
  V  V5  1  0.76529600  0.66204100  0.75342600  1
  P  P0  1  0.10878900  0.75823700  0.84370000  1
  P  P1  1  0.24800700  0.89969500  0.34313800  1
  P  P2  1  0.65168800  0.75199300  0.34313800  1
  P  P3  1  0.00000000  0.00000000  0.12491500  1
  P  P4  1  0.00000000  0.00000000  0.62698100  1
  P  P5  1  0.64944800  0.89121100  0.84370000  1
  P  P6  1  0.56483500  0.98552200  0.65802500  1
  P  P7  1  0.24176300  0.35055200  0.84370000  1
  P  P8  1  0.42115400  0.98048800  0.15710200  1
  P  P9  1  0.10030500  0.34831200  0.34313800  1
  P  P10  1  0.01951200  0.44066600  0.15710200  1
  P  P11  1  0.66666700  0.33333300  0.37316000  1
  P  P12  1  0.66666700  0.33333300  0.87281900  1
  P  P13  1  0.01447800  0.57931200  0.65802500  1
  P  P14  1  0.42068800  0.43516500  0.65802500  1
  P  P15  1  0.55933400  0.57884600  0.15710200  1
  O  O0  1  0.09324800  0.67013700  0.56850100  1
  O  O1  1  0.08290100  0.75191000  0.34092600  1
  O  O2  1  0.32919600  0.88237000  0.07364600  1
  O  O3  1  0.25089500  0.92373200  0.83825400  1
  O  O4  1  0.95931600  0.77263200  0.83005000  1
  O  O5  1  0.00879900  0.85467600  0.16432000  1
  O  O6  1  0.81063600  0.76066700  0.32152900  1
  O  O7  1  0.55317400  0.67080400  0.07364600  1
  O  O8  1  0.67283700  0.74910500  0.83825400  1
  O  O9  1  0.14959500  0.99924900  0.66902800  1
  O  O10  1  0.23933300  0.04996900  0.32152900  1
  O  O11  1  0.84965400  0.85040500  0.66902800  1
  O  O12  1  0.00000000  0.00000000  0.01672100  1
  O  O13  1  0.00000000  0.00000000  0.51949300  1
  O  O14  1  0.84587800  0.99120100  0.16432000  1
  O  O15  1  0.22736800  0.18668400  0.83005000  1
  O  O16  1  0.14532400  0.15412200  0.16432000  1
  O  O17  1  0.66900900  0.91709900  0.34092600  1
  O  O18  1  0.54331500  0.87659300  0.75068600  1
  O  O19  1  0.57688900  0.90675200  0.56850100  1
  O  O20  1  0.56524000  0.88748500  0.93324100  1
  O  O21  1  0.81331600  0.04068400  0.83005000  1
  O  O22  1  0.00075100  0.15034600  0.66902800  1
  O  O23  1  0.59095500  0.00430300  0.16006600  1
  O  O24  1  0.95003100  0.18936400  0.32152900  1
  O  O25  1  0.24809000  0.33099100  0.34092600  1
  O  O26  1  0.34036600  0.88049000  0.25392300  1
  O  O27  1  0.33412000  0.91252500  0.43442600  1
  O  O28  1  0.32986300  0.42311100  0.56850100  1
  O  O29  1  0.41664900  0.00092900  0.65805200  1
  O  O30  1  0.71459600  0.14325500  0.67339400  1
  O  O31  1  0.07626800  0.32716300  0.83825400  1
  O  O32  1  0.66007800  0.17950700  0.33216800  1
  O  O33  1  0.85473200  0.29355200  0.16940700  1
  O  O34  1  0.11763000  0.44682600  0.07364600  1
  O  O35  1  0.08747500  0.42159500  0.43442600  1
  O  O36  1  0.11951000  0.45987600  0.25392300  1
  O  O37  1  0.99907100  0.41572000  0.65805200  1
  O  O38  1  0.51734100  0.18548200  0.83011000  1
  O  O39  1  0.43882000  0.14526800  0.16940700  1
  O  O40  1  0.81451800  0.33185900  0.83011000  1
  O  O41  1  0.66666700  0.33333300  0.98007300  1
  O  O42  1  0.66666700  0.33333300  0.48008600  1
  O  O43  1  0.82049300  0.48057100  0.33216800  1
  O  O44  1  0.42866000  0.28540400  0.67339400  1
  O  O45  1  0.51942900  0.33992200  0.33216800  1
  O  O46  1  0.99569700  0.58665200  0.16006600  1
  O  O47  1  0.12340700  0.66672300  0.75068600  1
  O  O48  1  0.11251500  0.67775500  0.93324100  1
  O  O49  1  0.85674500  0.57134000  0.67339400  1
  O  O50  1  0.66814100  0.48265900  0.83011000  1
  O  O51  1  0.70644800  0.56118000  0.16940700  1
  O  O52  1  0.41334800  0.40904500  0.16006600  1
  O  O53  1  0.32224500  0.43476000  0.93324100  1
  O  O54  1  0.33327700  0.45668500  0.75068600  1
  O  O55  1  0.58428000  0.58335100  0.65805200  1
  O  O56  1  0.57840500  0.66588000  0.43442600  1
  O  O57  1  0.54012400  0.65963400  0.25392300  1
loop_
_geom_bond_atom_site_label_1
_geom_bond_atom_site_label_2
_geom_bond_distance
_geom_bond_site_symmetry_2
Li0 O48 1.934551 1_554
Li0 O2 1.950368 1_555
Li0 O46 2.086211 1_455
Li0 O5 2.170955 1_555
Li1 O0 1.946138 1_555
Li1 O29 1.997174 1_565
Li1 O27 2.031563 1_555
Li1 O9 2.166819 1_555
Li2 O19 1.946146 1_555
Li2 O55 1.997174 1_555
Li2 O56 2.031565 1_555
Li2 O11 2.166812 1_555
Li3 O12 1.911904 1_556
Li3 O15 2.173503 1_555
Li3 O4 2.173503 1_445
Li3 O21 2.173503 1_455
Li4 O20 1.934555 1_554
Li4 O7 1.950367 1_555
Li4 O23 2.086217 1_565
Li4 O14 2.170955 1_555
Li5 O53 1.934553 1_554
Li5 O34 1.950376 1_555
Li5 O52 2.086210 1_555
Li5 O16 2.170955 1_555
Li6 O19 1.951024 1_555
Li6 O27 1.969505 1_555
Li6 O17 2.102695 1_555
Li6 O32 2.245123 1_565
Li7 O28 1.946136 1_555
Li7 O37 1.997180 1_455
Li7 O35 2.031567 1_555
Li7 O22 2.166813 1_555
Li8 O41 1.826490 1_554
Li8 O33 2.222296 1_555
Li8 O39 2.222302 1_555
Li8 O51 2.222305 1_555
Li9 O0 1.951024 1_555
Li9 O35 1.969506 1_555
Li9 O1 2.102695 1_555
Li9 O43 2.245123 1_455
Li10 O28 1.951024 1_555
Li10 O56 1.969505 1_555
Li10 O25 2.102695 1_555
Li10 O45 2.245123 1_555
Li11 O48 2.343537 1_555
Li11 O20 2.343542 1_555
Li11 O53 2.343546 1_555
Li11 O2 2.462534 1_556
Li11 O34 2.462538 1_556
Li11 O7 2.462543 1_556
O0 P13 1.501479 1_555
O1 P1 1.544266 1_555
O1 V4 1.990789 1_455
O2 P8 1.490439 1_555
O3 P0 1.525854 1_555
O3 V2 1.930050 1_565
O4 P0 1.555611 1_655
O4 V5 1.969264 1_555
O5 P3 1.571422 1_565
O5 V4 1.993252 1_455
O6 P2 1.550088 1_555
O6 V4 1.853740 1_555
O7 P15 1.490439 1_555
O8 P5 1.525854 1_555
O8 V5 1.930050 1_555
O9 P4 1.585107 1_565
O9 V2 1.988732 1_565
O10 P1 1.550088 1_545
O10 V3 1.853740 1_555
O11 P4 1.585107 1_665
O11 V5 1.988732 1_555
O12 P3 1.504609 1_555
O13 P4 1.494790 1_555
O14 P3 1.571413 1_665
O14 V0 1.993258 1_565
O15 P7 1.555611 1_555
O15 V2 1.969264 1_555
O16 P3 1.571417 1_555
O16 V3 1.993251 1_555
O17 P2 1.544266 1_555
O17 V0 1.990789 1_565
O18 P6 1.619902 1_555
O18 P5 1.622085 1_555
O19 P6 1.501476 1_555
O20 P5 1.485245 1_555
O21 P5 1.555611 1_545
O21 V1 1.969264 1_555
O22 P4 1.585107 1_555
O22 V1 1.988732 1_455
O23 P8 1.564856 1_545
O23 V0 1.947450 1_555
O24 P9 1.550088 1_655
O24 V0 1.853740 1_555
O25 P9 1.544266 1_555
O25 V3 1.990789 1_555
O26 P1 1.602904 1_555
O26 P8 1.621174 1_555
O27 P1 1.495514 1_555
O28 P14 1.501482 1_555
O29 P6 1.537048 1_545
O29 V2 2.035769 1_555
O30 P6 1.526955 1_545
O30 V1 1.907941 1_555
O31 P7 1.525854 1_555
O31 V1 1.930050 1_455
O32 P11 1.585873 1_555
O32 V0 1.962042 1_555
O33 P10 1.548850 1_655
O33 V0 2.009694 1_555
O34 P10 1.490439 1_555
O35 P9 1.495514 1_555
O36 P9 1.602904 1_555
O36 P10 1.621174 1_555
O37 P13 1.537038 1_655
O37 V1 2.035769 1_555
O38 P12 1.575980 1_555
O38 V2 1.863256 1_555
O39 P8 1.548850 1_545
O39 V3 2.009694 1_555
O40 P12 1.575975 1_555
O40 V1 1.863256 1_555
O41 P12 1.491536 1_555
O42 P11 1.486975 1_555
O43 P11 1.585878 1_555
O43 V4 1.962042 1_555
O44 P14 1.526955 1_555
O44 V2 1.907941 1_555
O45 P11 1.585883 1_555
O45 V3 1.962042 1_555
O46 P10 1.564856 1_655
O46 V4 1.947450 1_555
O47 P13 1.619906 1_555
O47 P0 1.622079 1_555
O48 P0 1.485245 1_555
O49 P13 1.526955 1_655
O49 V5 1.907948 1_555
O50 P12 1.575984 1_555
O50 V5 1.863256 1_555
O51 P15 1.548850 1_555
O51 V4 2.009694 1_555
O52 P15 1.564856 1_555
O52 V3 1.947450 1_555
O53 P7 1.485245 1_555
O54 P14 1.619914 1_555
O54 P7 1.622082 1_555
O55 P14 1.537043 1_555
O55 V5 2.035769 1_555
O56 P2 1.495514 1_555
O57 P2 1.602904 1_555
O57 P15 1.621174 1_555
