# generated using pymatgen
data_TmMnSn2
_symmetry_space_group_name_H-M   'P 1'
_cell_length_a   8.98017200
_cell_length_b   10.32179700
_cell_length_c   11.31893100
_cell_angle_alpha   90.00000000
_cell_angle_beta   90.00000000
_cell_angle_gamma   90.00000000
_symmetry_Int_Tables_number   1
_chemical_formula_structural   TmMnSn2
_chemical_formula_sum   'Tm12 Mn12 Sn24'
_cell_volume   1049.16883324
_cell_formula_units_Z   12
loop_
 _symmetry_equiv_pos_site_id
 _symmetry_equiv_pos_as_xyz
  1  'x, y, z'
loop_
 _atom_site_type_symbol
 _atom_site_label
 _atom_site_symmetry_multiplicity
 _atom_site_fract_x
 _atom_site_fract_y
 _atom_site_fract_z
 _atom_site_occupancy
  Tm  Tm0  1  0.24287700  0.83068900  0.45410400  1
  Tm  Tm1  1  0.24287700  0.16931100  0.54589600  1
  Tm  Tm2  1  0.75712300  0.33068900  0.04589600  1
  Tm  Tm3  1  0.75712300  0.66931100  0.95410400  1
  Tm  Tm4  1  0.75712300  0.16931100  0.54589600  1
  Tm  Tm5  1  0.75712300  0.83068900  0.45410400  1
  Tm  Tm6  1  0.24287700  0.66931100  0.95410400  1
  Tm  Tm7  1  0.24287700  0.33068900  0.04589600  1
  Tm  Tm8  1  0.00000000  0.83577700  0.18017100  1
  Tm  Tm9  1  0.00000000  0.16422300  0.81982900  1
  Tm  Tm10  1  0.00000000  0.33577700  0.31982900  1
  Tm  Tm11  1  0.00000000  0.66422300  0.68017100  1
  Mn  Mn0  1  0.24725900  0.58771600  0.25707900  1
  Mn  Mn1  1  0.24725900  0.41228400  0.74292100  1
  Mn  Mn2  1  0.75274100  0.08771600  0.24292100  1
  Mn  Mn3  1  0.75274100  0.91228400  0.75707900  1
  Mn  Mn4  1  0.75274100  0.41228400  0.74292100  1
  Mn  Mn5  1  0.75274100  0.58771600  0.25707900  1
  Mn  Mn6  1  0.24725900  0.91228400  0.75707900  1
  Mn  Mn7  1  0.24725900  0.08771600  0.24292100  1
  Mn  Mn8  1  0.24374700  0.50000000  0.50000000  1
  Mn  Mn9  1  0.75625300  0.00000000  0.00000000  1
  Mn  Mn10  1  0.75625300  0.50000000  0.50000000  1
  Mn  Mn11  1  0.24374700  0.00000000  0.00000000  1
  Sn  Sn0  1  0.33664100  0.83683100  0.18219300  1
  Sn  Sn1  1  0.33664100  0.16316900  0.81780700  1
  Sn  Sn2  1  0.66335900  0.33683100  0.31780700  1
  Sn  Sn3  1  0.66335900  0.66316900  0.68219300  1
  Sn  Sn4  1  0.66335900  0.16316900  0.81780700  1
  Sn  Sn5  1  0.66335900  0.83683100  0.18219300  1
  Sn  Sn6  1  0.33664100  0.66316900  0.68219300  1
  Sn  Sn7  1  0.33664100  0.33683100  0.31780700  1
  Sn  Sn8  1  0.50000000  0.54483800  0.12619900  1
  Sn  Sn9  1  0.50000000  0.45516200  0.87380100  1
  Sn  Sn10  1  0.50000000  0.04483800  0.37380100  1
  Sn  Sn11  1  0.50000000  0.95516200  0.62619900  1
  Sn  Sn12  1  0.00000000  0.54139600  0.12364300  1
  Sn  Sn13  1  0.00000000  0.45860400  0.87635700  1
  Sn  Sn14  1  0.00000000  0.04139600  0.37635700  1
  Sn  Sn15  1  0.00000000  0.95860400  0.62364300  1
  Sn  Sn16  1  0.50000000  0.62767300  0.40764900  1
  Sn  Sn17  1  0.50000000  0.37232700  0.59235100  1
  Sn  Sn18  1  0.50000000  0.12767300  0.09235100  1
  Sn  Sn19  1  0.50000000  0.87232700  0.90764900  1
  Sn  Sn20  1  0.00000000  0.63137600  0.40114300  1
  Sn  Sn21  1  0.00000000  0.36862400  0.59885700  1
  Sn  Sn22  1  0.00000000  0.13137600  0.09885700  1
  Sn  Sn23  1  0.00000000  0.86862400  0.90114300  1
loop_
_geom_bond_atom_site_label_1
_geom_bond_atom_site_label_2
_geom_bond_distance
_geom_bond_site_symmetry_2
Mn0 Sn12 2.727646 1_555
Mn0 Sn8 2.746239 1_555
Mn0 Sn20 2.791489 1_555
Mn0 Sn7 2.796910 1_555
Mn0 Sn0 2.823899 1_555
Mn0 Sn16 2.868109 1_555
Mn1 Sn13 2.727646 1_555
Mn1 Sn9 2.746239 1_555
Mn1 Sn21 2.791489 1_555
Mn1 Sn6 2.796910 1_555
Mn1 Sn1 2.823899 1_555
Mn1 Sn17 2.868109 1_555
Mn2 Sn14 2.727646 1_655
Mn2 Sn10 2.746239 1_555
Mn2 Sn22 2.791489 1_655
Mn2 Sn5 2.796910 1_545
Mn2 Sn2 2.823899 1_555
Mn2 Sn18 2.868109 1_555
Mn3 Sn15 2.727646 1_655
Mn3 Sn11 2.746239 1_555
Mn3 Sn23 2.791489 1_655
Mn3 Sn4 2.796910 1_565
Mn3 Sn3 2.823899 1_555
Mn3 Sn19 2.868109 1_555
Mn4 Sn13 2.727646 1_655
Mn4 Sn9 2.746239 1_555
Mn4 Sn21 2.791489 1_655
Mn4 Sn3 2.796910 1_555
Mn4 Sn4 2.823899 1_555
Mn4 Sn17 2.868109 1_555
Mn5 Sn12 2.727646 1_655
Mn5 Sn8 2.746239 1_555
Mn5 Sn20 2.791489 1_655
Mn5 Sn2 2.796910 1_555
Mn5 Sn5 2.823899 1_555
Mn5 Sn16 2.868109 1_555
Mn6 Sn15 2.727646 1_555
Mn6 Sn11 2.746239 1_555
Mn6 Sn23 2.791489 1_555
Mn6 Sn1 2.796910 1_565
Mn6 Sn6 2.823899 1_555
Mn6 Sn19 2.868109 1_555
Mn7 Sn14 2.727646 1_555
Mn7 Sn10 2.746239 1_555
Mn7 Sn22 2.791489 1_555
Mn7 Sn0 2.796910 1_545
Mn7 Sn7 2.823899 1_555
Mn7 Sn18 2.868109 1_555
Mn8 Sn7 2.790199 1_555
Mn8 Sn6 2.790199 1_555
Mn8 Sn21 2.807514 1_555
Mn8 Sn20 2.807514 1_555
Mn8 Sn17 2.850407 1_555
Mn8 Sn16 2.850407 1_555
Mn9 Sn5 2.790199 1_545
Mn9 Sn4 2.790199 1_554
Mn9 Sn22 2.807514 1_655
Mn9 Sn23 2.807514 1_644
Mn9 Sn19 2.850407 1_544
Mn9 Sn18 2.850407 1_555
Mn10 Sn2 2.790199 1_555
Mn10 Sn3 2.790199 1_555
Mn10 Sn21 2.807514 1_655
Mn10 Sn20 2.807514 1_655
Mn10 Sn17 2.850407 1_555
Mn10 Sn16 2.850407 1_555
Mn11 Sn0 2.790199 1_545
Mn11 Sn1 2.790199 1_554
Mn11 Sn23 2.807514 1_544
Mn11 Sn22 2.807514 1_555
Mn11 Sn19 2.850407 1_544
Mn11 Sn18 2.850407 1_555
Sn0 Sn5 2.933984 1_555
Sn0 Tm8 3.023200 1_555
Sn0 Tm0 3.191474 1_555
Sn0 Tm6 3.219333 1_554
Sn1 Sn4 2.933984 1_555
Sn1 Tm9 3.023200 1_555
Sn1 Tm1 3.191474 1_555
Sn1 Tm7 3.219333 1_556
Sn2 Sn7 2.933984 1_555
Sn2 Tm10 3.023200 1_655
Sn2 Tm2 3.191474 1_555
Sn2 Tm4 3.219333 1_555
Sn3 Sn6 2.933984 1_555
Sn3 Tm11 3.023200 1_655
Sn3 Tm3 3.191474 1_555
Sn3 Tm5 3.219333 1_555
Sn4 Tm9 3.023200 1_655
Sn4 Tm4 3.191474 1_555
Sn4 Tm2 3.219333 1_556
Sn5 Tm8 3.023200 1_655
Sn5 Tm5 3.191474 1_555
Sn5 Tm3 3.219333 1_554
Sn6 Tm11 3.023200 1_555
Sn6 Tm6 3.191474 1_555
Sn6 Tm0 3.219333 1_555
Sn7 Tm10 3.023200 1_555
Sn7 Tm7 3.191474 1_555
Sn7 Tm1 3.219333 1_555
Sn8 Tm6 3.282778 1_554
Sn8 Tm3 3.282778 1_554
Sn8 Tm7 3.323188 1_555
Sn8 Tm2 3.323188 1_555
Sn9 Tm7 3.282778 1_556
Sn9 Tm2 3.282778 1_556
Sn9 Tm6 3.323188 1_555
Sn9 Tm3 3.323188 1_555
Sn10 Tm1 3.282778 1_555
Sn10 Tm4 3.282778 1_555
Sn10 Tm5 3.323188 1_545
Sn10 Tm0 3.323188 1_545
Sn11 Tm0 3.282778 1_555
Sn11 Tm5 3.282778 1_555
Sn11 Tm1 3.323188 1_565
Sn11 Tm4 3.323188 1_565
Sn12 Tm10 3.071732 1_555
Sn12 Tm8 3.105177 1_555
Sn12 Tm6 3.191063 1_554
Sn12 Tm3 3.191063 1_454
Sn12 Tm7 3.203373 1_555
Sn12 Tm2 3.203373 1_455
Sn13 Tm11 3.071732 1_555
Sn13 Tm9 3.105177 1_555
Sn13 Tm2 3.191063 1_456
Sn13 Tm7 3.191063 1_556
Sn13 Tm3 3.203373 1_455
Sn13 Tm6 3.203373 1_555
Sn14 Tm8 3.071732 1_545
Sn14 Tm10 3.105177 1_555
Sn14 Tm4 3.191063 1_455
Sn14 Tm1 3.191063 1_555
Sn14 Tm5 3.203373 1_445
Sn14 Tm0 3.203373 1_545
Sn15 Tm9 3.071732 1_565
Sn15 Tm11 3.105177 1_555
Sn15 Tm0 3.191063 1_555
Sn15 Tm5 3.191063 1_455
Sn15 Tm4 3.203373 1_465
Sn15 Tm1 3.203373 1_565
Sn16 Tm5 3.162133 1_555
Sn16 Tm0 3.162133 1_555
Sn17 Tm1 3.162133 1_555
Sn17 Tm4 3.162133 1_555
Sn18 Tm7 3.162133 1_555
Sn18 Tm2 3.162133 1_555
Sn19 Tm3 3.162133 1_555
Sn19 Tm6 3.162133 1_555
Sn20 Tm5 3.057582 1_455
Sn20 Tm0 3.057582 1_555
Sn20 Tm11 3.176444 1_555
Sn20 Tm10 3.186911 1_555
Sn20 Tm8 3.272160 1_555
Sn21 Tm4 3.057582 1_455
Sn21 Tm1 3.057582 1_555
Sn21 Tm10 3.176444 1_555
Sn21 Tm11 3.186911 1_555
Sn21 Tm9 3.272160 1_555
Sn22 Tm2 3.057582 1_455
Sn22 Tm7 3.057582 1_555
Sn22 Tm9 3.176444 1_554
Sn22 Tm8 3.186911 1_545
Sn22 Tm10 3.272160 1_555
Sn23 Tm6 3.057582 1_555
Sn23 Tm3 3.057582 1_455
Sn23 Tm8 3.176444 1_556
Sn23 Tm9 3.186911 1_565
Sn23 Tm11 3.272160 1_555
