# generated using pymatgen
data_Al(OF)3
_symmetry_space_group_name_H-M   'P 1'
_cell_length_a   4.83660395
_cell_length_b   4.83660395
_cell_length_c   4.83660410
_cell_angle_alpha   98.20091742
_cell_angle_beta   98.20091742
_cell_angle_gamma   98.20090920
_symmetry_Int_Tables_number   1
_chemical_formula_structural   Al(OF)3
_chemical_formula_sum   'Al1 O3 F3'
_cell_volume   109.29439874
_cell_formula_units_Z   1
loop_
 _symmetry_equiv_pos_site_id
 _symmetry_equiv_pos_as_xyz
  1  'x, y, z'
loop_
 _atom_site_type_symbol
 _atom_site_label
 _atom_site_symmetry_multiplicity
 _atom_site_fract_x
 _atom_site_fract_y
 _atom_site_fract_z
 _atom_site_occupancy
  Al  Al0  1  0.02338100  0.02338100  0.02338100  1
  O  O0  1  0.13949000  0.74697600  0.74697600  1
  O  O1  1  0.74697600  0.74697600  0.13949000  1
  O  O2  1  0.74697600  0.13949000  0.74697600  1
  F  F0  1  0.25095500  0.25095500  0.87306800  1
  F  F1  1  0.25095500  0.87306800  0.25095500  1
  F  F2  1  0.87306800  0.25095500  0.25095500  1
loop_
_geom_bond_atom_site_label_1
_geom_bond_atom_site_label_2
_geom_bond_distance
_geom_bond_site_symmetry_2
Al0 F2 1.750000 1_455
Al0 F1 1.750000 1_545
Al0 F0 1.750000 1_554
Al0 O0 1.951474 1_544
Al0 O2 1.951474 1_454
Al0 O1 1.951475 1_445
