# generated using pymatgen
data_Bi2H18C3(IN)9
_symmetry_space_group_name_H-M   'P 1'
_cell_length_a   9.06782066
_cell_length_b   9.06782066
_cell_length_c   21.02369114
_cell_angle_alpha   90.00000000
_cell_angle_beta   90.00000000
_cell_angle_gamma   108.31456714
_symmetry_Int_Tables_number   1
_chemical_formula_structural   Bi2H18C3(IN)9
_chemical_formula_sum   'Bi4 H36 C6 I18 N18'
_cell_volume   1641.11555450
_cell_formula_units_Z   2
loop_
 _symmetry_equiv_pos_site_id
 _symmetry_equiv_pos_as_xyz
  1  'x, y, z'
loop_
 _atom_site_type_symbol
 _atom_site_label
 _atom_site_symmetry_multiplicity
 _atom_site_fract_x
 _atom_site_fract_y
 _atom_site_fract_z
 _atom_site_occupancy
  Bi  Bi0  1  0.72793337  0.27206663  0.35119592  1
  Bi  Bi1  1  0.27206663  0.72793337  0.64880408  1
  Bi  Bi2  1  0.72793337  0.27206663  0.14880408  1
  Bi  Bi3  1  0.27206663  0.72793337  0.85119592  1
  H  H0  1  0.31456611  0.84983538  0.25000000  1
  H  H1  1  0.84983538  0.31456611  0.75000000  1
  H  H2  1  0.68543389  0.15016462  0.75000000  1
  H  H3  1  0.15016462  0.68543389  0.25000000  1
  H  H4  1  0.55453784  0.82657769  0.41392326  1
  H  H5  1  0.82657769  0.55453784  0.58607674  1
  H  H6  1  0.55453784  0.82657769  0.08607674  1
  H  H7  1  0.82657769  0.55453784  0.91392326  1
  H  H8  1  0.44546216  0.17342231  0.58607674  1
  H  H9  1  0.17342231  0.44546216  0.41392326  1
  H  H10  1  0.44546216  0.17342231  0.91392326  1
  H  H11  1  0.17342231  0.44546216  0.08607674  1
  H  H12  1  0.56940859  0.65289713  0.38743749  1
  H  H13  1  0.65289713  0.56940859  0.61256251  1
  H  H14  1  0.56940859  0.65289713  0.11256251  1
  H  H15  1  0.65289713  0.56940859  0.88743749  1
  H  H16  1  0.43059141  0.34710287  0.61256251  1
  H  H17  1  0.34710287  0.43059141  0.38743749  1
  H  H18  1  0.43059141  0.34710287  0.88743749  1
  H  H19  1  0.34710287  0.43059141  0.11256251  1
  H  H20  1  0.15091581  0.68557359  0.44244251  1
  H  H21  1  0.68557359  0.15091581  0.55755749  1
  H  H22  1  0.15091581  0.68557359  0.05755749  1
  H  H23  1  0.68557359  0.15091581  0.94244251  1
  H  H24  1  0.84908419  0.31442641  0.55755749  1
  H  H25  1  0.31442641  0.84908419  0.44244251  1
  H  H26  1  0.84908419  0.31442641  0.94244251  1
  H  H27  1  0.31442641  0.84908419  0.05755749  1
  H  H28  1  0.90377692  0.71304508  0.25000000  1
  H  H29  1  0.71304508  0.90377692  0.75000000  1
  H  H30  1  0.09622308  0.28695492  0.75000000  1
  H  H31  1  0.28695492  0.09622308  0.25000000  1
  H  H32  1  0.88142628  0.89521852  0.25000000  1
  H  H33  1  0.89521852  0.88142628  0.75000000  1
  H  H34  1  0.11857372  0.10478148  0.75000000  1
  H  H35  1  0.10478148  0.11857372  0.25000000  1
  C  C0  1  0.34997853  0.65002147  0.41129686  1
  C  C1  1  0.65002147  0.34997853  0.58870314  1
  C  C2  1  0.34997853  0.65002147  0.08870314  1
  C  C3  1  0.65002147  0.34997853  0.91129686  1
  C  C4  1  0.10689336  0.89310664  0.25000000  1
  C  C5  1  0.89310664  0.10689336  0.75000000  1
  I  I0  1  0.01220124  0.38193844  0.25000000  1
  I  I1  1  0.38193844  0.01220124  0.75000000  1
  I  I2  1  0.98779876  0.61806156  0.75000000  1
  I  I3  1  0.61806156  0.98779876  0.25000000  1
  I  I4  1  0.55716974  0.44283026  0.25000000  1
  I  I5  1  0.44283026  0.55716974  0.75000000  1
  I  I6  1  0.43084226  0.16042742  0.42390857  1
  I  I7  1  0.16042742  0.43084226  0.57609143  1
  I  I8  1  0.43084226  0.16042742  0.07609143  1
  I  I9  1  0.16042742  0.43084226  0.92390857  1
  I  I10  1  0.56915774  0.83957258  0.57609143  1
  I  I11  1  0.83957258  0.56915774  0.42390857  1
  I  I12  1  0.56915774  0.83957258  0.92390857  1
  I  I13  1  0.83957258  0.56915774  0.07609143  1
  I  I14  1  0.89931303  0.10068697  0.42480269  1
  I  I15  1  0.10068697  0.89931303  0.57519731  1
  I  I16  1  0.89931303  0.10068697  0.07519731  1
  I  I17  1  0.10068697  0.89931303  0.92480269  1
  N  N0  1  0.19744342  0.80255658  0.25000000  1
  N  N1  1  0.80255658  0.19744342  0.75000000  1
  N  N2  1  0.50024844  0.71767901  0.39827521  1
  N  N3  1  0.71767901  0.50024844  0.60172479  1
  N  N4  1  0.50024844  0.71767901  0.10172479  1
  N  N5  1  0.71767901  0.50024844  0.89827521  1
  N  N6  1  0.49975156  0.28232099  0.60172479  1
  N  N7  1  0.28232099  0.49975156  0.39827521  1
  N  N8  1  0.49975156  0.28232099  0.89827521  1
  N  N9  1  0.28232099  0.49975156  0.10172479  1
  N  N10  1  0.26638728  0.73361272  0.43502220  1
  N  N11  1  0.73361272  0.26638728  0.56497780  1
  N  N12  1  0.26638728  0.73361272  0.06497780  1
  N  N13  1  0.73361272  0.26638728  0.93502220  1
  N  N14  1  0.95315869  0.82945106  0.25000000  1
  N  N15  1  0.82945106  0.95315869  0.75000000  1
  N  N16  1  0.04684131  0.17054894  0.75000000  1
  N  N17  1  0.17054894  0.04684131  0.25000000  1
loop_
_geom_bond_atom_site_label_1
_geom_bond_atom_site_label_2
_geom_bond_distance
_geom_bond_site_symmetry_2
Bi0 I14 2.956783 1_555
Bi0 I11 2.984161 1_555
Bi0 I6 2.984161 1_555
Bi0 I3 3.247985 1_545
Bi0 I0 3.247985 1_655
Bi0 I4 3.290685 1_555
Bi1 I15 2.956783 1_555
Bi1 I7 2.984161 1_555
Bi1 I10 2.984161 1_555
Bi1 I1 3.247985 1_565
Bi1 I2 3.247985 1_455
Bi1 I5 3.290685 1_555
Bi2 I16 2.956783 1_555
Bi2 I13 2.984161 1_555
Bi2 I8 2.984161 1_555
Bi2 I3 3.247985 1_545
Bi2 I0 3.247985 1_655
Bi2 I4 3.290685 1_555
Bi3 I17 2.956783 1_555
Bi3 I12 2.984161 1_555
Bi3 I9 2.984161 1_555
Bi3 I1 3.247985 1_565
Bi3 I2 3.247985 1_455
Bi3 I5 3.290685 1_555
H0 N0 1.012714 1_555
H1 N1 1.012714 1_555
H2 N1 1.012714 1_555
H3 N0 1.012714 1_555
H4 N2 1.010033 1_555
H5 N3 1.010033 1_555
H6 N4 1.010033 1_555
H7 N5 1.010033 1_555
H8 N6 1.010033 1_555
H9 N7 1.010033 1_555
H10 N8 1.010033 1_555
H11 N9 1.010033 1_555
H12 N2 1.010846 1_555
H13 N3 1.010846 1_555
H14 N4 1.010846 1_555
H15 N5 1.010846 1_555
H16 N6 1.010846 1_555
H17 N7 1.010846 1_555
H18 N8 1.010846 1_555
H19 N9 1.010846 1_555
H20 N10 1.011832 1_555
H21 N11 1.011832 1_555
H22 N12 1.011832 1_555
H23 N13 1.011832 1_555
H24 N11 1.011832 1_555
H25 N10 1.011832 1_555
H26 N13 1.011832 1_555
H27 N12 1.011832 1_555
H28 N14 1.008783 1_555
H29 N15 1.008783 1_555
H30 N16 1.008783 1_555
H31 N17 1.008783 1_555
H32 N14 1.011206 1_555
H33 N15 1.011206 1_555
H34 N16 1.011206 1_555
H35 N17 1.011206 1_555
C0 N10 1.326266 1_555
C0 N7 1.335173 1_555
C0 N2 1.335173 1_555
C1 N11 1.326266 1_555
C1 N3 1.335173 1_555
C1 N6 1.335173 1_555
C2 N12 1.326266 1_555
C2 N9 1.335173 1_555
C2 N4 1.335173 1_555
C3 N13 1.326266 1_555
C3 N5 1.335173 1_555
C3 N8 1.335173 1_555
C4 N14 1.330721 1_455
C4 N17 1.330721 1_565
C4 N0 1.331199 1_555
C5 N15 1.330721 1_545
C5 N16 1.330721 1_655
C5 N1 1.331199 1_555
