# generated using pymatgen
data_Na2MnNiO4
_symmetry_space_group_name_H-M   'P 1'
_cell_length_a   10.86914941
_cell_length_b   10.86914941
_cell_length_c   10.86914902
_cell_angle_alpha   16.16315028
_cell_angle_beta   16.16315028
_cell_angle_gamma   16.16314930
_symmetry_Int_Tables_number   1
_chemical_formula_structural   Na2MnNiO4
_chemical_formula_sum   'Na2 Mn1 Ni1 O4'
_cell_volume   86.74473602
_cell_formula_units_Z   1
loop_
 _symmetry_equiv_pos_site_id
 _symmetry_equiv_pos_as_xyz
  1  'x, y, z'
loop_
 _atom_site_type_symbol
 _atom_site_label
 _atom_site_symmetry_multiplicity
 _atom_site_fract_x
 _atom_site_fract_y
 _atom_site_fract_z
 _atom_site_occupancy
  Na  Na0  1  0.74669200  0.74669200  0.74669200  1
  Na  Na1  1  0.25330800  0.25330800  0.25330800  1
  Mn  Mn0  1  0.50000000  0.50000000  0.50000000  1
  Ni  Ni0  1  0.00000000  0.00000000  0.00000000  1
  O  O0  1  0.36597900  0.36597900  0.36597900  1
  O  O1  1  0.86622600  0.86622600  0.86622600  1
  O  O2  1  0.13377400  0.13377400  0.13377400  1
  O  O3  1  0.63402100  0.63402100  0.63402100  1
loop_
_geom_bond_atom_site_label_1
_geom_bond_atom_site_label_2
_geom_bond_distance
_geom_bond_site_symmetry_2
Na0 O0 2.331743 1_655
Na0 O0 2.331743 1_565
Na0 O0 2.331743 1_556
Na0 O2 2.470587 1_566
Na0 O2 2.470587 1_656
Na0 O2 2.470587 1_665
Na1 O3 2.331743 1_455
Na1 O3 2.331743 1_545
Na1 O3 2.331743 1_554
Na1 O1 2.470587 1_454
Na1 O1 2.470587 1_544
Na1 O1 2.470587 1_445
Mn0 O2 2.057462 1_655
Mn0 O2 2.057462 1_565
Mn0 O1 2.057462 1_455
Mn0 O1 2.057462 1_545
Mn0 O2 2.057463 1_556
Mn0 O1 2.057463 1_554
Ni0 O0 2.053386 1_545
Ni0 O0 2.053386 1_455
Ni0 O3 2.053386 1_454
Ni0 O3 2.053386 1_544
Ni0 O0 2.053386 1_554
Ni0 O3 2.053386 1_445
