# generated using pymatgen
data_KNiSbO4
_symmetry_space_group_name_H-M   'P 1'
_cell_length_a   3.14853900
_cell_length_b   5.28110670
_cell_length_c   6.50725437
_cell_angle_alpha   84.94876086
_cell_angle_beta   76.00203074
_cell_angle_gamma   90.00023104
_symmetry_Int_Tables_number   1
_chemical_formula_structural   KNiSbO4
_chemical_formula_sum   'K1 Ni1 Sb1 O4'
_cell_volume   104.55488621
_cell_formula_units_Z   1
loop_
 _symmetry_equiv_pos_site_id
 _symmetry_equiv_pos_as_xyz
  1  'x, y, z'
loop_
 _atom_site_type_symbol
 _atom_site_label
 _atom_site_symmetry_multiplicity
 _atom_site_fract_x
 _atom_site_fract_y
 _atom_site_fract_z
 _atom_site_occupancy
  K  K0  1  0.74762200  0.58172900  0.50437900  1
  Ni  Ni0  1  0.49711100  0.49773300  0.00578600  1
  Sb  Sb0  1  0.00114900  0.00283000  0.99780000  1
  O  O0  1  0.08077100  0.69914200  0.83835300  1
  O  O1  1  0.58632600  0.17674600  0.82737900  1
  O  O2  1  0.41364600  0.82354700  0.17285500  1
  O  O3  1  0.91922600  0.30022300  0.16174900  1
loop_
_geom_bond_atom_site_label_1
_geom_bond_atom_site_label_2
_geom_bond_distance
_geom_bond_site_symmetry_2
K0 O3 2.733868 1_555
K0 O0 2.746947 1_555
K0 O0 2.747341 1_655
K0 O1 2.818146 1_555
K0 O2 2.828945 1_555
K0 O2 2.829947 1_655
Ni0 O3 2.085377 1_455
Ni0 O3 2.085784 1_555
Ni0 O2 2.098294 1_555
Ni0 O1 2.118742 1_554
Ni0 O0 2.126688 1_654
Ni0 O0 2.126897 1_554
O0 Sb0 1.969462 1_565
O1 Sb0 2.073692 1_555
O1 Sb0 2.073794 1_655
O2 Sb0 2.099148 1_664
O2 Sb0 2.099205 1_564
O3 Sb0 1.957887 1_654
