# generated using pymatgen
data_U3(PS4)4
_symmetry_space_group_name_H-M   'P 1'
_cell_length_a   12.18009283
_cell_length_b   12.18009283
_cell_length_c   12.18009283
_cell_angle_alpha   126.52364913
_cell_angle_beta   126.52364913
_cell_angle_gamma   79.02917861
_symmetry_Int_Tables_number   1
_chemical_formula_structural   U3(PS4)4
_chemical_formula_sum   'U6 P8 S32'
_cell_volume   1128.71928493
_cell_formula_units_Z   2
loop_
 _symmetry_equiv_pos_site_id
 _symmetry_equiv_pos_as_xyz
  1  'x, y, z'
loop_
 _atom_site_type_symbol
 _atom_site_label
 _atom_site_symmetry_multiplicity
 _atom_site_fract_x
 _atom_site_fract_y
 _atom_site_fract_z
 _atom_site_occupancy
  U  U0  1  0.75000000  0.75000000  0.00000000  1
  U  U1  1  0.25000000  0.25000000  0.00000000  1
  U  U2  1  0.00000000  0.50000000  0.50000000  1
  U  U3  1  0.50000000  0.00000000  0.50000000  1
  U  U4  1  0.25000000  0.75000000  0.50000000  1
  U  U5  1  0.75000000  0.25000000  0.50000000  1
  P  P0  1  0.12744900  0.84096600  0.21766300  1
  P  P1  1  0.62744900  0.40978600  0.28648300  1
  P  P2  1  0.09021400  0.87255100  0.71351700  1
  P  P3  1  0.59021400  0.87669700  0.21766300  1
  P  P4  1  0.65903400  0.37255100  0.78233700  1
  P  P5  1  0.15903400  0.37669700  0.28648300  1
  P  P6  1  0.12330300  0.34096600  0.71351700  1
  P  P7  1  0.62330300  0.90978600  0.78233700  1
  S  S0  1  0.04247100  0.85826600  0.33121500  1
  S  S1  1  0.54247100  0.21125600  0.18420500  1
  S  S2  1  0.09769600  0.77454300  0.80528300  1
  S  S3  1  0.59769600  0.79241300  0.32315300  1
  S  S4  1  0.72545700  0.40230400  0.19471700  1
  S  S5  1  0.22545700  0.03074000  0.32315300  1
  S  S6  1  0.64173400  0.45752900  0.66878500  1
  S  S7  1  0.14173400  0.47294900  0.18420500  1
  S  S8  1  0.02705100  0.35826600  0.81579500  1
  S  S9  1  0.52705100  0.71125600  0.66878500  1
  S  S10  1  0.46926000  0.27454300  0.67684700  1
  S  S11  1  0.96926000  0.29241300  0.19471700  1
  S  S12  1  0.70758700  0.90230400  0.67684700  1
  S  S13  1  0.20758700  0.53074000  0.80528300  1
  S  S14  1  0.28874400  0.95752900  0.81579500  1
  S  S15  1  0.78874400  0.97294900  0.33121500  1
  S  S16  1  0.46184600  0.00956500  0.72010400  1
  S  S17  1  0.96184600  0.24174200  0.45228100  1
  S  S18  1  0.27774900  0.23940500  0.23575200  1
  S  S19  1  0.77774900  0.54199700  0.03834400  1
  S  S20  1  0.26059500  0.22225100  0.76424800  1
  S  S21  1  0.76059500  0.99634700  0.03834400  1
  S  S22  1  0.49043500  0.03815400  0.27989600  1
  S  S23  1  0.99043500  0.71053900  0.45228100  1
  S  S24  1  0.78946100  0.50956500  0.54771900  1
  S  S25  1  0.28946100  0.74174200  0.27989600  1
  S  S26  1  0.50365300  0.73940500  0.96165600  1
  S  S27  1  0.00365300  0.04199700  0.76424800  1
  S  S28  1  0.95800300  0.72225100  0.96165600  1
  S  S29  1  0.45800300  0.49634700  0.23575200  1
  S  S30  1  0.25825800  0.53815400  0.54771900  1
  S  S31  1  0.75825800  0.21053900  0.72010400  1
loop_
_geom_bond_atom_site_label_1
_geom_bond_atom_site_label_2
_geom_bond_distance
_geom_bond_site_symmetry_2
P0 S5 2.026864 1_565
P0 S28 2.045046 1_454
P0 S0 2.074286 1_555
P0 S25 2.081211 1_555
P1 S4 2.026864 1_555
P1 S29 2.045046 1_555
P1 S1 2.074286 1_555
P1 S24 2.081211 1_555
P2 S2 2.026864 1_555
P2 S27 2.045046 1_565
P2 S14 2.074286 1_555
P2 S23 2.081211 1_455
P3 S3 2.026864 1_555
P3 S26 2.045046 1_554
P3 S15 2.074286 1_555
P3 S22 2.081211 1_565
P4 S10 2.026864 1_555
P4 S19 2.045046 1_556
P4 S6 2.074286 1_555
P4 S31 2.081211 1_555
P5 S11 2.026864 1_455
P5 S18 2.045046 1_555
P5 S7 2.074286 1_555
P5 S30 2.081211 1_555
P6 S13 2.026864 1_555
P6 S20 2.045046 1_555
P6 S8 2.074286 1_555
P6 S17 2.081211 1_455
P7 S12 2.026864 1_555
P7 S21 2.045046 1_556
P7 S9 2.074286 1_555
P7 S16 2.081211 1_565
S0 U4 2.850864 1_555
S0 U0 3.008914 1_455
S1 U5 2.850864 1_555
S1 U1 3.008914 1_555
S2 U2 2.805663 1_555
S3 U3 2.805663 1_565
S4 U2 2.805663 1_655
S5 U3 2.805663 1_555
S6 U5 2.850864 1_555
S6 U0 3.008914 1_556
S7 U4 2.850864 1_555
S7 U1 3.008914 1_555
S8 U5 2.850864 1_455
S8 U1 3.008914 1_556
S9 U4 2.850864 1_555
S9 U0 3.008914 1_556
S10 U3 2.805663 1_555
S11 U2 2.805663 1_655
S12 U3 2.805663 1_565
S13 U2 2.805663 1_555
S14 U4 2.850864 1_555
S14 U1 3.008914 1_566
S15 U5 2.850864 1_565
S15 U0 3.008914 1_555
S16 U3 2.916723 1_555
S16 U4 2.936439 1_545
S17 U2 2.916723 1_655
S17 U5 2.936439 1_555
S18 U1 2.765059 1_555
S19 U0 2.765059 1_555
S20 U1 2.765059 1_556
S21 U0 2.765059 1_555
S22 U3 2.916723 1_555
S22 U5 2.936439 1_555
S23 U2 2.916723 1_655
S23 U4 2.936439 1_655
S24 U2 2.916723 1_655
S24 U5 2.936439 1_555
S25 U3 2.916723 1_565
S25 U4 2.936439 1_555
S26 U0 2.765059 1_556
S27 U1 2.765059 1_556
S28 U0 2.765059 1_556
S29 U1 2.765059 1_555
S30 U2 2.916723 1_555
S30 U4 2.936439 1_555
S31 U3 2.916723 1_555
S31 U5 2.936439 1_555
