# generated using pymatgen
data_LiMg6V
_symmetry_space_group_name_H-M   'P 1'
_cell_length_a   5.03223500
_cell_length_b   6.34874200
_cell_length_c   10.73406600
_cell_angle_alpha   90.00000000
_cell_angle_beta   90.00000000
_cell_angle_gamma   90.00000000
_symmetry_Int_Tables_number   1
_chemical_formula_structural   LiMg6V
_chemical_formula_sum   'Li2 Mg12 V2'
_cell_volume   342.93582306
_cell_formula_units_Z   2
loop_
 _symmetry_equiv_pos_site_id
 _symmetry_equiv_pos_as_xyz
  1  'x, y, z'
loop_
 _atom_site_type_symbol
 _atom_site_label
 _atom_site_symmetry_multiplicity
 _atom_site_fract_x
 _atom_site_fract_y
 _atom_site_fract_z
 _atom_site_occupancy
  Li  Li0  1  0.00000000  0.50000000  0.83415000  1
  Li  Li1  1  0.00000000  0.00000000  0.33415000  1
  Mg  Mg0  1  0.00000000  0.25141400  0.08313000  1
  Mg  Mg1  1  0.00000000  0.74858600  0.08313000  1
  Mg  Mg2  1  0.50000000  0.24361100  0.91256300  1
  Mg  Mg3  1  0.50000000  0.75638900  0.91256300  1
  Mg  Mg4  1  0.50000000  0.50000000  0.17260500  1
  Mg  Mg5  1  0.50000000  0.50000000  0.66829600  1
  Mg  Mg6  1  0.00000000  0.75141400  0.58313000  1
  Mg  Mg7  1  0.00000000  0.24858600  0.58313000  1
  Mg  Mg8  1  0.50000000  0.74361100  0.41256300  1
  Mg  Mg9  1  0.50000000  0.25638900  0.41256300  1
  Mg  Mg10  1  0.50000000  0.00000000  0.67260500  1
  Mg  Mg11  1  0.50000000  0.00000000  0.16829600  1
  V  V0  1  0.00000000  0.50000000  0.33356700  1
  V  V1  1  0.00000000  0.00000000  0.83356700  1
loop_
_geom_bond_atom_site_label_1
_geom_bond_atom_site_label_2
_geom_bond_distance
_geom_bond_site_symmetry_2
Li0 Mg5 3.082251 1_555
Li0 Mg5 3.082251 1_455
Li0 Mg1 3.103765 1_556
Li0 Mg0 3.103765 1_556
Li0 Mg2 3.112692 1_455
Li0 Mg2 3.112692 1_555
Li0 Mg3 3.112692 1_455
Li0 Mg3 3.112692 1_555
Li0 Mg6 3.131753 1_555
Li0 Mg7 3.131753 1_555
Li0 V1 3.174377 1_555
Li0 V1 3.174377 1_565
Li1 Mg11 3.082251 1_455
Li1 Mg11 3.082251 1_555
Li1 Mg7 3.103765 1_555
Li1 Mg6 3.103765 1_545
Li1 Mg9 3.112692 1_555
Li1 Mg9 3.112692 1_455
Li1 Mg8 3.112692 1_545
Li1 Mg8 3.112692 1_445
Li1 Mg0 3.131753 1_555
Li1 Mg1 3.131753 1_545
Li1 V0 3.174377 1_555
Li1 V0 3.174377 1_545
Mg0 Mg2 3.112140 1_554
Mg0 Mg2 3.112140 1_454
Mg0 Mg11 3.116778 1_455
Mg0 Mg11 3.116778 1_555
Mg0 V0 3.117242 1_555
Mg0 V1 3.118308 1_554
Mg0 Mg4 3.121541 1_555
Mg0 Mg4 3.121541 1_455
Mg0 Mg1 3.156417 1_555
Mg0 Mg1 3.192325 1_545
Mg1 Mg3 3.112140 1_554
Mg1 Mg3 3.112140 1_454
Mg1 Mg11 3.116778 1_565
Mg1 Mg11 3.116778 1_465
Mg1 V0 3.117242 1_555
Mg1 V1 3.118308 1_564
Mg1 Mg4 3.121541 1_555
Mg1 Mg4 3.121541 1_455
Mg2 V1 3.072769 1_555
Mg2 V1 3.072769 1_655
Mg2 Mg5 3.086152 1_555
Mg2 Mg3 3.093247 1_545
Mg2 Mg4 3.231248 1_556
Mg2 Mg3 3.255495 1_555
Mg3 V1 3.072769 1_565
Mg3 V1 3.072769 1_665
Mg3 Mg5 3.086152 1_555
Mg3 Mg4 3.231248 1_556
Mg4 Mg8 3.004397 1_555
Mg4 Mg9 3.004397 1_555
Mg4 V0 3.052222 1_555
Mg4 V0 3.052222 1_655
Mg5 Mg6 3.116778 1_655
Mg5 Mg6 3.116778 1_555
Mg5 Mg7 3.116778 1_555
Mg5 Mg7 3.116778 1_655
Mg5 Mg8 3.150773 1_555
Mg5 Mg9 3.150773 1_555
Mg6 Mg8 3.112140 1_455
Mg6 Mg8 3.112140 1_555
Mg6 V1 3.117242 1_565
Mg6 V0 3.118308 1_555
Mg6 Mg7 3.156417 1_565
Mg6 Mg7 3.192325 1_555
Mg7 Mg9 3.112140 1_455
Mg7 Mg9 3.112140 1_555
Mg7 V1 3.117242 1_555
Mg7 V0 3.118308 1_555
Mg8 V0 3.072769 1_655
Mg8 V0 3.072769 1_555
Mg8 Mg9 3.093247 1_555
Mg8 Mg9 3.255495 1_565
Mg9 V0 3.072769 1_555
Mg9 V0 3.072769 1_655
Mg10 Mg2 3.004397 1_555
Mg10 Mg3 3.004397 1_545
Mg10 V1 3.052222 1_555
Mg10 V1 3.052222 1_655
Mg10 Mg7 3.121541 1_655
Mg10 Mg7 3.121541 1_555
Mg10 Mg6 3.121541 1_645
Mg10 Mg6 3.121541 1_545
Mg10 Mg5 3.174708 1_545
Mg10 Mg5 3.174708 1_555
Mg10 Mg9 3.231248 1_555
Mg10 Mg8 3.231248 1_545
Mg11 Mg9 3.086152 1_555
Mg11 Mg8 3.086152 1_545
Mg11 Mg2 3.150773 1_554
Mg11 Mg3 3.150773 1_544
Mg11 Mg4 3.174708 1_555
Mg11 Mg4 3.174708 1_545
