# generated using pymatgen
data_Na2In2Mo5O16
_symmetry_space_group_name_H-M   'P 1'
_cell_length_a   6.17964650
_cell_length_b   6.17964650
_cell_length_c   10.81577600
_cell_angle_alpha   90.00000000
_cell_angle_beta   90.00000000
_cell_angle_gamma   120.00000536
_symmetry_Int_Tables_number   1
_chemical_formula_structural   Na2In2Mo5O16
_chemical_formula_sum   'Na2 In2 Mo5 O16'
_cell_volume   357.69721389
_cell_formula_units_Z   1
loop_
 _symmetry_equiv_pos_site_id
 _symmetry_equiv_pos_as_xyz
  1  'x, y, z'
loop_
 _atom_site_type_symbol
 _atom_site_label
 _atom_site_symmetry_multiplicity
 _atom_site_fract_x
 _atom_site_fract_y
 _atom_site_fract_z
 _atom_site_occupancy
  Na  Na0  1  0.33333300  0.66666700  0.99849000  1
  Na  Na1  1  0.00000000  0.00000000  0.76527200  1
  In  In0  1  0.33333300  0.66666700  0.28701800  1
  In  In1  1  0.33333300  0.66666700  0.69498500  1
  Mo  Mo0  1  0.66666700  0.33333300  0.86406100  1
  Mo  Mo1  1  0.33400500  0.16700300  0.49115900  1
  Mo  Mo2  1  0.83299700  0.66599500  0.49115900  1
  Mo  Mo3  1  0.83299700  0.16700300  0.49115900  1
  Mo  Mo4  1  0.00000000  0.00000000  0.13257600  1
  O  O0  1  0.16711900  0.83288100  0.16745900  1
  O  O1  1  0.66576200  0.83288100  0.16745900  1
  O  O2  1  0.16711900  0.33423800  0.16745900  1
  O  O3  1  0.66666700  0.33333300  0.59573400  1
  O  O4  1  0.66666700  0.33333300  0.02374200  1
  O  O5  1  0.00000000  0.00000000  0.97027600  1
  O  O6  1  0.49917500  0.99835100  0.82383900  1
  O  O7  1  0.49917500  0.50082500  0.82383900  1
  O  O8  1  0.00164900  0.50082500  0.82383900  1
  O  O9  1  0.50497200  0.00994400  0.39716400  1
  O  O10  1  0.50497200  0.49502800  0.39716400  1
  O  O11  1  0.99005600  0.49502800  0.39716400  1
  O  O12  1  0.15453900  0.84546100  0.59806700  1
  O  O13  1  0.69092100  0.84546100  0.59806700  1
  O  O14  1  0.15453900  0.30907900  0.59806700  1
  O  O15  1  0.00000000  0.00000000  0.38702100  1
loop_
_geom_bond_atom_site_label_1
_geom_bond_atom_site_label_2
_geom_bond_distance
_geom_bond_site_symmetry_2
Na0 O0 2.550479 1_556
Na0 O1 2.550482 1_556
Na0 O2 2.550482 1_556
Na0 O6 2.592140 1_555
Na0 O8 2.592140 1_555
Na0 O7 2.592140 1_555
Na1 O5 2.217277 1_555
Na1 O12 2.450827 1_545
Na1 O13 2.450830 1_445
Na1 O14 2.450830 1_555
In0 O11 2.189580 1_455
In0 O9 2.189580 1_565
In0 O10 2.189585 1_555
In0 O0 2.199373 1_555
In0 O1 2.199377 1_555
In0 O2 2.199377 1_555
In1 O13 2.181999 1_555
In1 O14 2.181999 1_555
In1 O12 2.181999 1_555
In1 O6 2.256811 1_555
In1 O8 2.256811 1_555
In1 O7 2.256812 1_555
Mo0 O4 1.727074 1_556
Mo0 O8 1.844762 1_655
Mo0 O6 1.844762 1_545
Mo0 O7 1.844772 1_555
Mo1 O10 2.029080 1_555
Mo1 O9 2.029085 1_555
Mo1 O12 2.076423 1_545
Mo1 O14 2.076424 1_555
Mo1 O3 2.109224 1_555
Mo1 O15 2.112771 1_555
Mo2 O10 2.029080 1_555
Mo2 O11 2.029085 1_555
Mo2 O12 2.076423 1_655
Mo2 O13 2.076424 1_555
Mo2 O3 2.109224 1_555
Mo2 O15 2.112771 1_665
Mo3 O9 2.029080 1_555
Mo3 O11 2.029080 1_555
Mo3 O13 2.076423 1_545
Mo3 O14 2.076423 1_655
Mo3 O3 2.109215 1_555
Mo3 O15 2.112775 1_655
Mo4 O5 1.755400 1_554
Mo4 O2 1.828108 1_555
Mo4 O1 1.828108 1_445
Mo4 O0 1.828108 1_545
