# generated using pymatgen
data_Sn2Mo15S19
_symmetry_space_group_name_H-M   'P 1'
_cell_length_a   9.41896701
_cell_length_b   9.41896701
_cell_length_c   18.96224300
_cell_angle_alpha   90.00000000
_cell_angle_beta   90.00000000
_cell_angle_gamma   120.00000710
_symmetry_Int_Tables_number   1
_chemical_formula_structural   Sn2Mo15S19
_chemical_formula_sum   'Sn4 Mo30 S38'
_cell_volume   1456.89032748
_cell_formula_units_Z   2
loop_
 _symmetry_equiv_pos_site_id
 _symmetry_equiv_pos_as_xyz
  1  'x, y, z'
loop_
 _atom_site_type_symbol
 _atom_site_label
 _atom_site_symmetry_multiplicity
 _atom_site_fract_x
 _atom_site_fract_y
 _atom_site_fract_z
 _atom_site_occupancy
  Sn  Sn0  1  0.66666700  0.33333300  0.60350900  1
  Sn  Sn1  1  0.33333300  0.66666700  0.10350900  1
  Sn  Sn2  1  0.33333300  0.66666700  0.39649100  1
  Sn  Sn3  1  0.66666700  0.33333300  0.89649100  1
  Mo  Mo0  1  0.15386700  0.98145300  0.56011000  1
  Mo  Mo1  1  0.01854700  0.17241400  0.56011000  1
  Mo  Mo2  1  0.82758600  0.84613300  0.56011000  1
  Mo  Mo3  1  0.84613300  0.01854700  0.06011000  1
  Mo  Mo4  1  0.98145300  0.82758600  0.06011000  1
  Mo  Mo5  1  0.17241400  0.15386700  0.06011000  1
  Mo  Mo6  1  0.84613300  0.01854700  0.43989000  1
  Mo  Mo7  1  0.98145300  0.82758600  0.43989000  1
  Mo  Mo8  1  0.17241400  0.15386700  0.43989000  1
  Mo  Mo9  1  0.15386700  0.98145300  0.93989000  1
  Mo  Mo10  1  0.01854700  0.17241400  0.93989000  1
  Mo  Mo11  1  0.82758600  0.84613300  0.93989000  1
  Mo  Mo12  1  0.17719900  0.68350000  0.63224500  1
  Mo  Mo13  1  0.31650000  0.49369900  0.63224500  1
  Mo  Mo14  1  0.50630100  0.82280100  0.63224500  1
  Mo  Mo15  1  0.82280100  0.31650000  0.13224500  1
  Mo  Mo16  1  0.68350000  0.50630100  0.13224500  1
  Mo  Mo17  1  0.49369900  0.17719900  0.13224500  1
  Mo  Mo18  1  0.82280100  0.31650000  0.36775500  1
  Mo  Mo19  1  0.68350000  0.50630100  0.36775500  1
  Mo  Mo20  1  0.49369900  0.17719900  0.36775500  1
  Mo  Mo21  1  0.17719900  0.68350000  0.86775500  1
  Mo  Mo22  1  0.31650000  0.49369900  0.86775500  1
  Mo  Mo23  1  0.50630100  0.82280100  0.86775500  1
  Mo  Mo24  1  0.34964600  0.84233200  0.75000000  1
  Mo  Mo25  1  0.15766800  0.50731400  0.75000000  1
  Mo  Mo26  1  0.49268600  0.65035400  0.75000000  1
  Mo  Mo27  1  0.65035400  0.15766800  0.25000000  1
  Mo  Mo28  1  0.84233200  0.49268600  0.25000000  1
  Mo  Mo29  1  0.50731400  0.34964600  0.25000000  1
  S  S0  1  0.00000000  0.00000000  0.65819300  1
  S  S1  1  0.00000000  0.00000000  0.15819300  1
  S  S2  1  0.00000000  0.00000000  0.34180700  1
  S  S3  1  0.00000000  0.00000000  0.84180700  1
  S  S4  1  0.66666700  0.33333300  0.03455000  1
  S  S5  1  0.33333300  0.66666700  0.53455000  1
  S  S6  1  0.33333300  0.66666700  0.96545000  1
  S  S7  1  0.66666700  0.33333300  0.46545000  1
  S  S8  1  0.04823400  0.69780200  0.75000000  1
  S  S9  1  0.30219800  0.35043200  0.75000000  1
  S  S10  1  0.64956800  0.95176600  0.75000000  1
  S  S11  1  0.95176600  0.30219800  0.25000000  1
  S  S12  1  0.69780200  0.64956800  0.25000000  1
  S  S13  1  0.35043200  0.04823400  0.25000000  1
  S  S14  1  0.96183300  0.68076400  0.55134200  1
  S  S15  1  0.31923600  0.28106900  0.55134200  1
  S  S16  1  0.71893100  0.03816700  0.55134200  1
  S  S17  1  0.03816700  0.31923600  0.05134200  1
  S  S18  1  0.68076400  0.71893100  0.05134200  1
  S  S19  1  0.28106900  0.96183300  0.05134200  1
  S  S20  1  0.03816700  0.31923600  0.44865800  1
  S  S21  1  0.68076400  0.71893100  0.44865800  1
  S  S22  1  0.28106900  0.96183300  0.44865800  1
  S  S23  1  0.96183300  0.68076400  0.94865800  1
  S  S24  1  0.31923600  0.28106900  0.94865800  1
  S  S25  1  0.71893100  0.03816700  0.94865800  1
  S  S26  1  0.37444900  0.99037200  0.64092800  1
  S  S27  1  0.00962800  0.38407700  0.64092800  1
  S  S28  1  0.61592300  0.62555100  0.64092800  1
  S  S29  1  0.62555100  0.00962800  0.14092800  1
  S  S30  1  0.99037200  0.61592300  0.14092800  1
  S  S31  1  0.38407700  0.37444900  0.14092800  1
  S  S32  1  0.62555100  0.00962800  0.35907200  1
  S  S33  1  0.99037200  0.61592300  0.35907200  1
  S  S34  1  0.38407700  0.37444900  0.35907200  1
  S  S35  1  0.37444900  0.99037200  0.85907200  1
  S  S36  1  0.00962800  0.38407700  0.85907200  1
  S  S37  1  0.61592300  0.62555100  0.85907200  1
loop_
_geom_bond_atom_site_label_1
_geom_bond_atom_site_label_2
_geom_bond_distance
_geom_bond_site_symmetry_2
Mo0 S0 2.417272 1_565
Mo0 S15 2.454017 1_565
Mo0 S22 2.481412 1_555
Mo0 S14 2.489531 1_455
Mo0 S26 2.549057 1_555
Mo1 S0 2.417272 1_555
Mo1 S16 2.454017 1_455
Mo1 S20 2.481412 1_555
Mo1 S15 2.489531 1_555
Mo1 S27 2.549057 1_555
Mo2 S0 2.417272 1_665
Mo2 S14 2.454017 1_555
Mo2 S21 2.481412 1_555
Mo2 S16 2.489531 1_565
Mo2 S28 2.549057 1_555
Mo3 S1 2.417272 1_655
Mo3 S18 2.454017 1_545
Mo3 S25 2.481412 1_554
Mo3 S17 2.489531 1_655
Mo3 S29 2.549057 1_555
Mo4 S1 2.417272 1_665
Mo4 S19 2.454017 1_655
Mo4 S23 2.481412 1_554
Mo4 S18 2.489531 1_555
Mo4 S30 2.549057 1_555
Mo5 S1 2.417272 1_555
Mo5 S17 2.454017 1_555
Mo5 S24 2.481412 1_554
Mo5 S19 2.489531 1_545
Mo5 S31 2.549057 1_555
Mo6 S2 2.417272 1_655
Mo6 S21 2.454017 1_545
Mo6 S16 2.481412 1_555
Mo6 S20 2.489531 1_655
Mo6 S32 2.549057 1_555
Mo7 S2 2.417272 1_665
Mo7 S22 2.454017 1_655
Mo7 S14 2.481412 1_555
Mo7 S21 2.489531 1_555
Mo7 S33 2.549057 1_555
Mo8 S2 2.417272 1_555
Mo8 S20 2.454017 1_555
Mo8 S15 2.481412 1_555
Mo8 S22 2.489531 1_545
Mo8 S34 2.549057 1_555
Mo9 S3 2.417272 1_565
Mo9 S24 2.454017 1_565
Mo9 S19 2.481412 1_556
Mo9 S23 2.489531 1_455
Mo9 S35 2.549057 1_555
Mo10 S3 2.417272 1_555
Mo10 S25 2.454017 1_455
Mo10 S17 2.481412 1_556
Mo10 S24 2.489531 1_555
Mo10 S36 2.549057 1_555
Mo11 S3 2.417272 1_665
Mo11 S23 2.454017 1_555
Mo11 S18 2.481412 1_556
Mo11 S25 2.489531 1_565
Mo11 S37 2.549057 1_555
Mo12 S5 2.419266 1_555
Mo12 S27 2.453729 1_555
Mo12 S14 2.533135 1_455
Mo12 S26 2.542302 1_555
Mo12 S8 2.577432 1_555
Mo13 S5 2.419272 1_555
Mo13 S28 2.453729 1_555
Mo13 S15 2.533135 1_555
Mo13 S27 2.542302 1_555
Mo13 S9 2.577432 1_555
Mo14 S5 2.419269 1_555
Mo14 S26 2.453729 1_555
Mo14 S16 2.533135 1_565
Mo14 S28 2.542302 1_555
Mo14 S10 2.577432 1_555
Mo15 S4 2.419266 1_555
Mo15 S30 2.453729 1_555
Mo15 S17 2.533135 1_655
Mo15 S29 2.542302 1_555
Mo15 S11 2.577432 1_555
Mo16 S4 2.419272 1_555
Mo16 S31 2.453729 1_555
Mo16 S18 2.533135 1_555
Mo16 S30 2.542302 1_555
Mo16 S12 2.577432 1_555
Mo17 S4 2.419269 1_555
Mo17 S29 2.453729 1_555
Mo17 S19 2.533135 1_545
Mo17 S31 2.542302 1_555
Mo17 S13 2.577432 1_555
Mo18 S7 2.419266 1_555
Mo18 S33 2.453729 1_555
Mo18 S20 2.533135 1_655
Mo18 S32 2.542302 1_555
Mo18 S11 2.577432 1_555
Mo19 S7 2.419272 1_555
Mo19 S34 2.453729 1_555
Mo19 S21 2.533135 1_555
Mo19 S33 2.542302 1_555
Mo19 S12 2.577432 1_555
Mo20 S7 2.419269 1_555
Mo20 S32 2.453729 1_555
Mo20 S22 2.533135 1_545
Mo20 S34 2.542302 1_555
Mo20 S13 2.577432 1_555
Mo21 S6 2.419266 1_555
Mo21 S36 2.453729 1_555
Mo21 S23 2.533135 1_455
Mo21 S35 2.542302 1_555
Mo21 S8 2.577432 1_555
Mo22 S6 2.419272 1_555
Mo22 S37 2.453729 1_555
Mo22 S24 2.533135 1_555
Mo22 S36 2.542302 1_555
Mo22 S9 2.577432 1_555
Mo23 S6 2.419269 1_555
Mo23 S35 2.453729 1_555
Mo23 S25 2.533135 1_565
Mo23 S37 2.542302 1_555
Mo23 S10 2.577432 1_555
Mo24 S35 2.439424 1_555
Mo24 S26 2.439424 1_555
Mo24 S8 2.459325 1_555
Mo24 S10 2.476084 1_555
Mo25 S36 2.439423 1_555
Mo25 S27 2.439423 1_555
Mo25 S9 2.459325 1_555
Mo25 S8 2.476084 1_555
Mo26 S37 2.439424 1_555
Mo26 S28 2.439424 1_555
Mo26 S10 2.459325 1_555
Mo26 S9 2.476084 1_555
Mo27 S32 2.439424 1_555
Mo27 S29 2.439424 1_555
Mo27 S11 2.459325 1_555
Mo27 S13 2.476084 1_555
Mo28 S33 2.439423 1_555
Mo28 S30 2.439423 1_555
Mo28 S12 2.459325 1_555
Mo28 S11 2.476084 1_555
Mo29 S34 2.439424 1_555
Mo29 S31 2.439424 1_555
Mo29 S13 2.459325 1_555
Mo29 S12 2.476084 1_555
S4 Sn3 2.617908 1_554
S5 Sn2 2.617908 1_555
S6 Sn1 2.617908 1_556
S7 Sn0 2.617908 1_555
S26 Sn0 3.102104 1_565
S27 Sn0 3.102100 1_455
S28 Sn0 3.102109 1_555
S29 Sn1 3.102104 1_545
S30 Sn1 3.102100 1_655
S31 Sn1 3.102109 1_555
S32 Sn2 3.102104 1_545
S33 Sn2 3.102100 1_655
S34 Sn2 3.102109 1_555
S35 Sn3 3.102104 1_565
S36 Sn3 3.102100 1_455
S37 Sn3 3.102109 1_555
