# generated using pymatgen
data_CrSbSe3
_symmetry_space_group_name_H-M   'P 1'
_cell_length_a   3.82541442
_cell_length_b   9.32794413
_cell_length_c   13.52534271
_cell_angle_alpha   90.00000000
_cell_angle_beta   90.00000000
_cell_angle_gamma   90.00000000
_symmetry_Int_Tables_number   1
_chemical_formula_structural   CrSbSe3
_chemical_formula_sum   'Cr4 Sb4 Se12'
_cell_volume   482.62821209
_cell_formula_units_Z   4
loop_
 _symmetry_equiv_pos_site_id
 _symmetry_equiv_pos_as_xyz
  1  'x, y, z'
loop_
 _atom_site_type_symbol
 _atom_site_label
 _atom_site_symmetry_multiplicity
 _atom_site_fract_x
 _atom_site_fract_y
 _atom_site_fract_z
 _atom_site_occupancy
  Cr  Cr0  1  0.75000000  0.15569889  0.45614755  1
  Cr  Cr1  1  0.25000000  0.84430111  0.54385245  1
  Cr  Cr2  1  0.75000000  0.65569889  0.04385245  1
  Cr  Cr3  1  0.25000000  0.34430111  0.95614755  1
  Sb  Sb0  1  0.25000000  0.46899963  0.34425012  1
  Sb  Sb1  1  0.75000000  0.53100037  0.65574988  1
  Sb  Sb2  1  0.25000000  0.96899963  0.15574988  1
  Sb  Sb3  1  0.75000000  0.03100037  0.84425012  1
  Se  Se0  1  0.75000000  0.17354907  0.01587130  1
  Se  Se1  1  0.25000000  0.82645093  0.98412870  1
  Se  Se2  1  0.75000000  0.67354907  0.48412870  1
  Se  Se3  1  0.25000000  0.32645093  0.51587130  1
  Se  Se4  1  0.25000000  0.21271882  0.78952800  1
  Se  Se5  1  0.75000000  0.78728118  0.21047200  1
  Se  Se6  1  0.25000000  0.71271882  0.71047200  1
  Se  Se7  1  0.75000000  0.28728118  0.28952800  1
  Se  Se8  1  0.75000000  0.49834043  0.89347444  1
  Se  Se9  1  0.25000000  0.50165957  0.10652556  1
  Se  Se10  1  0.75000000  0.99834043  0.60652556  1
  Se  Se11  1  0.25000000  0.00165957  0.39347444  1
loop_
_geom_bond_atom_site_label_1
_geom_bond_atom_site_label_2
_geom_bond_distance
_geom_bond_site_symmetry_2
Cr0 Se10 2.508253 1_545
Cr0 Se11 2.538030 1_555
Cr0 Se11 2.538030 1_655
Cr0 Se7 2.566154 1_555
Cr0 Se3 2.616843 1_555
Cr0 Se3 2.616843 1_655
Cr1 Se11 2.508253 1_565
Cr1 Se10 2.538030 1_555
Cr1 Se10 2.538030 1_455
Cr1 Se6 2.566154 1_555
Cr1 Se2 2.616843 1_455
Cr1 Se2 2.616843 1_555
Cr2 Se8 2.508253 1_554
Cr2 Se9 2.538030 1_655
Cr2 Se9 2.538030 1_555
Cr2 Se5 2.566154 1_555
Cr2 Se1 2.616843 1_654
Cr2 Se1 2.616843 1_554
Cr3 Se9 2.508253 1_556
Cr3 Se8 2.538030 1_455
Cr3 Se8 2.538030 1_555
Cr3 Se4 2.566154 1_555
Cr3 Se0 2.616843 1_556
Cr3 Se0 2.616843 1_456
Sb0 Se7 2.660729 1_555
Sb0 Se7 2.660729 1_455
Sb0 Se3 2.675107 1_555
Sb0 Se9 3.229707 1_555
Sb0 Se2 3.298230 1_455
Sb0 Se2 3.298230 1_555
Sb1 Se6 2.660729 1_655
Sb1 Se6 2.660729 1_555
Sb1 Se2 2.675107 1_555
Sb1 Se8 3.229707 1_555
Sb1 Se3 3.298230 1_555
Sb1 Se3 3.298230 1_655
Sb2 Se5 2.660729 1_455
Sb2 Se5 2.660729 1_555
Sb2 Se1 2.675107 1_554
Sb2 Se11 3.229707 1_565
Sb2 Se0 3.298230 1_565
Sb2 Se0 3.298230 1_465
Sb3 Se4 2.660729 1_555
Sb3 Se4 2.660729 1_655
Sb3 Se0 2.675107 1_556
Sb3 Se10 3.229707 1_545
Sb3 Se1 3.298230 1_545
Sb3 Se1 3.298230 1_645
