# generated using pymatgen
data_BaVPO6
_symmetry_space_group_name_H-M   'P 1'
_cell_length_a   10.03774666
_cell_length_b   5.72129417
_cell_length_c   8.70126464
_cell_angle_alpha   88.82481883
_cell_angle_beta   90.00000000
_cell_angle_gamma   90.00000000
_symmetry_Int_Tables_number   1
_chemical_formula_structural   BaVPO6
_chemical_formula_sum   'Ba4 V4 P4 O24'
_cell_volume   499.59896187
_cell_formula_units_Z   4
loop_
 _symmetry_equiv_pos_site_id
 _symmetry_equiv_pos_as_xyz
  1  'x, y, z'
loop_
 _atom_site_type_symbol
 _atom_site_label
 _atom_site_symmetry_multiplicity
 _atom_site_fract_x
 _atom_site_fract_y
 _atom_site_fract_z
 _atom_site_occupancy
  Ba  Ba0  1  0.19131520  0.14734854  0.41265715  1
  Ba  Ba1  1  0.69131520  0.85265146  0.08734285  1
  Ba  Ba2  1  0.80868480  0.85265146  0.58734285  1
  Ba  Ba3  1  0.30868480  0.14734854  0.91265715  1
  V  V0  1  0.08819149  0.65324423  0.08409097  1
  V  V1  1  0.58819149  0.34675577  0.41590903  1
  V  V2  1  0.91180851  0.34675577  0.91590903  1
  V  V3  1  0.41180851  0.65324423  0.58409097  1
  P  P0  1  0.88386730  0.34895569  0.28065525  1
  P  P1  1  0.38386730  0.65104431  0.21934475  1
  P  P2  1  0.11613270  0.65104431  0.71934475  1
  P  P3  1  0.61613270  0.34895569  0.78065525  1
  O  O0  1  0.91473382  0.13140331  0.37452271  1
  O  O1  1  0.41473382  0.86859669  0.12547729  1
  O  O2  1  0.08526618  0.86859669  0.62547729  1
  O  O3  1  0.58526618  0.13140331  0.87452271  1
  O  O4  1  0.06789501  0.31244785  0.98612235  1
  O  O5  1  0.56789501  0.68755215  0.51387765  1
  O  O6  1  0.93210499  0.68755215  0.01387765  1
  O  O7  1  0.43210499  0.31244785  0.48612235  1
  O  O8  1  0.13101279  0.90291793  0.15842488  1
  O  O9  1  0.63101279  0.09708207  0.34157512  1
  O  O10  1  0.86898721  0.09708207  0.84157512  1
  O  O11  1  0.36898721  0.90291793  0.65842488  1
  O  O12  1  0.33104056  0.71303161  0.38248473  1
  O  O13  1  0.83104056  0.28696839  0.11751527  1
  O  O14  1  0.66895944  0.28696839  0.61751527  1
  O  O15  1  0.16895944  0.71303161  0.88248473  1
  O  O16  1  0.48267976  0.48874130  0.76643171  1
  O  O17  1  0.98267976  0.51125870  0.73356829  1
  O  O18  1  0.51732024  0.51125870  0.23356829  1
  O  O19  1  0.01732024  0.48874130  0.26643171  1
  O  O20  1  0.22357630  0.49371989  0.64734673  1
  O  O21  1  0.72357630  0.50628011  0.85265327  1
  O  O22  1  0.77642370  0.50628011  0.35265327  1
  O  O23  1  0.27642370  0.49371989  0.14734673  1
loop_
_geom_bond_atom_site_label_1
_geom_bond_atom_site_label_2
_geom_bond_distance
_geom_bond_site_symmetry_2
Ba0 O2 2.642847 1_545
Ba0 O7 2.677210 1_555
Ba0 O8 2.709713 1_545
Ba0 O0 2.797723 1_455
Ba0 O12 2.870065 1_545
Ba0 O20 2.892770 1_555
Ba0 O19 2.895216 1_555
Ba0 O11 3.096251 1_545
Ba0 O23 3.130274 1_555
Ba1 O3 2.642847 1_564
Ba1 O6 2.677210 1_555
Ba1 O9 2.709713 1_565
Ba1 O1 2.797723 1_555
Ba1 O13 2.870065 1_565
Ba1 O21 2.892770 1_554
Ba1 O18 2.895216 1_555
Ba1 O10 3.096251 1_564
Ba1 O22 3.130274 1_555
Ba2 O0 2.642847 1_565
Ba2 O5 2.677210 1_555
Ba2 O10 2.709713 1_565
Ba2 O2 2.797723 1_655
Ba2 O14 2.870065 1_565
Ba2 O22 2.892770 1_555
Ba2 O17 2.895216 1_555
Ba2 O9 3.096251 1_565
Ba2 O21 3.130274 1_555
Ba3 O1 2.642847 1_546
Ba3 O4 2.677210 1_555
Ba3 O11 2.709713 1_545
Ba3 O3 2.797723 1_555
Ba3 O15 2.870065 1_545
Ba3 O23 2.892770 1_556
Ba3 O16 2.895216 1_555
Ba3 O8 3.096251 1_546
Ba3 O20 3.130274 1_555
O0 P0 1.506862 1_555
O1 P1 1.506862 1_555
O2 P2 1.506862 1_555
O3 P3 1.506862 1_555
O4 V2 1.691623 1_455
O4 V0 2.153616 1_556
O5 V3 1.691623 1_555
O5 V1 2.153616 1_555
O6 V0 1.691623 1_655
O6 V2 2.153616 1_554
O7 V1 1.691623 1_555
O7 V3 2.153616 1_555
O8 V0 1.637525 1_555
O9 V1 1.637525 1_555
O10 V2 1.637525 1_555
O11 V3 1.637525 1_555
O12 P1 1.562898 1_555
O12 V3 1.956270 1_555
O13 P0 1.562898 1_555
O13 V2 1.956270 1_554
O14 P3 1.562898 1_555
O14 V1 1.956270 1_555
O15 P2 1.562898 1_555
O15 V0 1.956270 1_556
O16 P3 1.563747 1_555
O16 V3 1.961608 1_555
O17 P2 1.563747 1_655
O17 V2 1.961608 1_555
O18 P1 1.563747 1_555
O18 V1 1.961608 1_555
O19 P0 1.563747 1_455
O19 V0 1.961608 1_555
O20 P2 1.545614 1_555
O20 V3 2.164549 1_555
O21 P3 1.545614 1_555
O21 V2 2.164549 1_555
O22 P0 1.545614 1_555
O22 V1 2.164549 1_555
O23 P1 1.545614 1_555
O23 V0 2.164549 1_555
