# generated using pymatgen
data_Zr2Ti(PbO3)3
_symmetry_space_group_name_H-M   'P 1'
_cell_length_a   9.24351882
_cell_length_b   9.24351882
_cell_length_c   4.22699455
_cell_angle_alpha   89.57815239
_cell_angle_beta   89.57815239
_cell_angle_gamma   142.77031171
_symmetry_Int_Tables_number   1
_chemical_formula_structural   Zr2Ti(PbO3)3
_chemical_formula_sum   'Zr2 Ti1 Pb3 O9'
_cell_volume   218.45128859
_cell_formula_units_Z   1
loop_
 _symmetry_equiv_pos_site_id
 _symmetry_equiv_pos_as_xyz
  1  'x, y, z'
loop_
 _atom_site_type_symbol
 _atom_site_label
 _atom_site_symmetry_multiplicity
 _atom_site_fract_x
 _atom_site_fract_y
 _atom_site_fract_z
 _atom_site_occupancy
  Zr  Zr0  1  0.35818100  0.68944600  0.02470300  1
  Zr  Zr1  1  0.68944600  0.35818100  0.02470300  1
  Ti  Ti0  1  0.02647700  0.02647700  0.04696200  1
  Pb  Pb0  1  0.22330300  0.90517200  0.58344000  1
  Pb  Pb1  1  0.57879800  0.57879800  0.57530400  1
  Pb  Pb2  1  0.90517200  0.22330300  0.58344000  1
  O  O0  1  0.31590200  0.15283000  0.98286500  1
  O  O1  1  0.68161200  0.83794300  0.97481000  1
  O  O2  1  0.99628500  0.48524900  0.98202700  1
  O  O3  1  0.48524900  0.99628500  0.98202700  1
  O  O4  1  0.83794300  0.68161200  0.97481000  1
  O  O5  1  0.15283000  0.31590200  0.98286500  1
  O  O6  1  0.64141400  0.32089900  0.50708900  1
  O  O7  1  0.99682700  0.99682700  0.47820500  1
  O  O8  1  0.32089900  0.64141400  0.50708900  1
loop_
_geom_bond_atom_site_label_1
_geom_bond_atom_site_label_2
_geom_bond_distance
_geom_bond_site_symmetry_2
O0 Ti0 1.898340 1_556
O0 Zr1 2.265728 1_556
O0 Pb0 2.404518 1_545
O1 Zr0 2.078019 1_556
O1 Ti0 2.113649 1_666
O1 Pb1 2.439454 1_555
O2 Zr1 2.034930 1_556
O2 Zr0 2.178235 1_656
O2 Pb2 2.498855 1_555
O3 Zr0 2.034930 1_556
O3 Zr1 2.178235 1_566
O3 Pb0 2.498855 1_555
O4 Zr1 2.078019 1_556
O4 Ti0 2.113649 1_666
O4 Pb1 2.439454 1_555
O5 Ti0 1.898340 1_556
O5 Zr0 2.265728 1_556
O5 Pb2 2.404518 1_455
O6 Zr1 2.050915 1_555
O6 Zr1 2.210152 1_556
O6 Pb0 2.474076 1_545
O7 Ti0 1.827218 1_665
O7 Ti0 2.414513 1_666
O7 Pb1 2.491408 1_555
O8 Zr0 2.050915 1_555
O8 Zr0 2.210152 1_556
O8 Pb2 2.474076 1_455
