# generated using pymatgen
data_Sm4(OF2)3
_symmetry_space_group_name_H-M   'P 1'
_cell_length_a   3.70391600
_cell_length_b   4.68142336
_cell_length_c   47.45330470
_cell_angle_alpha   91.41874027
_cell_angle_beta   90.00000000
_cell_angle_gamma   90.00000000
_symmetry_Int_Tables_number   1
_chemical_formula_structural   Sm4(OF2)3
_chemical_formula_sum   'Sm16 O12 F24'
_cell_volume   822.56903022
_cell_formula_units_Z   4
loop_
 _symmetry_equiv_pos_site_id
 _symmetry_equiv_pos_as_xyz
  1  'x, y, z'
loop_
 _atom_site_type_symbol
 _atom_site_label
 _atom_site_symmetry_multiplicity
 _atom_site_fract_x
 _atom_site_fract_y
 _atom_site_fract_z
 _atom_site_occupancy
  Sm  Sm0  1  0.25000000  0.09931500  0.04204100  1
  Sm  Sm1  1  0.25000000  0.17198700  0.16325500  1
  Sm  Sm2  1  0.25000000  0.19328700  0.27926500  1
  Sm  Sm3  1  0.25000000  0.21481400  0.39556000  1
  Sm  Sm4  1  0.25000000  0.24879700  0.51144400  1
  Sm  Sm5  1  0.25000000  0.29232200  0.63326100  1
  Sm  Sm6  1  0.25000000  0.34362900  0.77910300  1
  Sm  Sm7  1  0.25000000  0.13554400  0.91039800  1
  Sm  Sm8  1  0.75000000  0.65983100  0.11703500  1
  Sm  Sm9  1  0.75000000  0.70535900  0.34936400  1
  Sm  Sm10  1  0.75000000  0.68611000  0.23312600  1
  Sm  Sm11  1  0.75000000  0.73321100  0.46553600  1
  Sm  Sm12  1  0.75000000  0.76605300  0.58086800  1
  Sm  Sm13  1  0.75000000  0.81605600  0.72687400  1
  Sm  Sm14  1  0.75000000  0.72584800  0.85141000  1
  Sm  Sm15  1  0.75000000  0.66771000  0.98024500  1
  O  O0  1  0.25000000  0.76669000  0.00906100  1
  O  O1  1  0.25000000  0.66637900  0.14264800  1
  O  O2  1  0.25000000  0.69178200  0.25898100  1
  O  O3  1  0.25000000  0.70961100  0.37524800  1
  O  O4  1  0.25000000  0.73916800  0.49139300  1
  O  O5  1  0.25000000  0.67609700  0.60329000  1
  O  O6  1  0.25000000  0.71631400  0.75015500  1
  O  O7  1  0.25000000  0.88463800  0.86707300  1
  O  O8  1  0.75000000  0.16386200  0.13476900  1
  O  O9  1  0.75000000  0.18830800  0.25035200  1
  O  O10  1  0.75000000  0.20761800  0.36665400  1
  O  O11  1  0.75000000  0.23784000  0.48258600  1
  F  F0  1  0.25000000  0.80139400  0.94901100  1
  F  F1  1  0.75000000  0.35934500  0.08050900  1
  F  F2  1  0.75000000  0.86617500  0.06488300  1
  F  F3  1  0.75000000  0.42871300  0.19073000  1
  F  F4  1  0.75000000  0.44583000  0.30706400  1
  F  F5  1  0.75000000  0.59377600  0.79844900  1
  F  F6  1  0.75000000  0.93389500  0.19134500  1
  F  F7  1  0.75000000  0.95151600  0.30736100  1
  F  F8  1  0.75000000  0.46708700  0.42361100  1
  F  F9  1  0.75000000  0.50539500  0.53884300  1
  F  F10  1  0.75000000  0.15973000  0.82553900  1
  F  F11  1  0.75000000  0.47897500  0.65503500  1
  F  F12  1  0.75000000  0.97289400  0.42337400  1
  F  F13  1  0.75000000  0.01101100  0.53923500  1
  F  F14  1  0.75000000  0.06469900  0.77312800  1
  F  F15  1  0.75000000  0.98641700  0.68597700  1
  F  F16  1  0.75000000  0.26976700  0.59130200  1
  F  F17  1  0.75000000  0.32453000  0.73142500  1
  F  F18  1  0.75000000  0.36579000  0.93369000  1
  F  F19  1  0.75000000  0.98766100  0.63152300  1
  F  F20  1  0.75000000  0.15844200  0.97988000  1
  F  F21  1  0.75000000  0.33641700  0.87998000  1
  F  F22  1  0.75000000  0.33542500  0.02770500  1
  F  F23  1  0.75000000  0.85193800  0.90640800  1
loop_
_geom_bond_atom_site_label_1
_geom_bond_atom_site_label_2
_geom_bond_distance
_geom_bond_site_symmetry_2
O0 Sm0 2.180212 1_565
O0 Sm15 2.341560 1_454
O0 Sm15 2.341560 1_554
O1 Sm8 2.214970 1_455
O1 Sm8 2.214970 1_555
O1 Sm1 2.534762 1_555
O1 Sm1 2.538531 1_565
O2 Sm10 2.221292 1_555
O2 Sm10 2.221292 1_455
O2 Sm2 2.515263 1_565
O2 Sm2 2.546314 1_555
O3 Sm9 2.222073 1_455
O3 Sm9 2.222073 1_555
O3 Sm3 2.530831 1_555
O3 Sm3 2.531742 1_565
O4 Sm11 2.221342 1_555
O4 Sm11 2.221342 1_455
O4 Sm4 2.506676 1_555
O4 Sm4 2.546548 1_565
O5 Sm12 2.182057 1_555
O5 Sm12 2.182057 1_455
O5 Sm5 2.318850 1_555
O6 Sm13 2.212197 1_555
O6 Sm13 2.212197 1_455
O6 Sm6 2.247139 1_555
O7 Sm14 2.123067 1_455
O7 Sm14 2.123067 1_555
O7 Sm7 2.342410 1_565
O8 Sm1 2.292573 1_555
O8 Sm1 2.292573 1_655
O8 Sm8 2.485455 1_545
O8 Sm8 2.489153 1_555
O9 Sm2 2.304591 1_555
O9 Sm2 2.304591 1_655
O9 Sm10 2.469866 1_545
O9 Sm10 2.488652 1_555
O10 Sm3 2.304369 1_555
O10 Sm3 2.304369 1_655
O10 Sm9 2.471070 1_545
O10 Sm9 2.489452 1_555
O11 Sm4 2.303080 1_555
O11 Sm4 2.303080 1_655
O11 Sm11 2.474969 1_555
O11 Sm11 2.478066 1_545
F0 Sm7 2.438511 1_565
F0 Sm15 2.462546 1_455
F0 Sm15 2.462546 1_555
F1 Sm8 2.205070 1_555
F2 Sm0 2.419596 1_665
F2 Sm0 2.419596 1_565
F2 Sm8 2.678817 1_555
F3 Sm10 2.319354 1_555
F3 Sm1 2.548808 1_555
F3 Sm1 2.548808 1_655
F4 Sm9 2.320459 1_555
F4 Sm2 2.547632 1_555
F4 Sm2 2.547632 1_655
F5 Sm6 2.364453 1_555
F5 Sm6 2.364453 1_655
F5 Sm14 2.573204 1_555
F6 Sm10 2.321711 1_555
F6 Sm1 2.553912 1_565
F6 Sm1 2.553912 1_665
F7 Sm9 2.326898 1_555
F7 Sm2 2.561848 1_565
F7 Sm2 2.561848 1_665
F8 Sm11 2.321080 1_555
F8 Sm3 2.553139 1_655
F8 Sm3 2.553139 1_555
F9 Sm12 2.312022 1_555
F9 Sm4 2.546732 1_655
F9 Sm4 2.546732 1_555
F10 Sm14 2.399240 1_545
F10 Sm14 2.893062 1_555
F11 Sm5 2.283894 1_655
F11 Sm5 2.283894 1_555
F12 Sm11 2.317991 1_555
F12 Sm3 2.555081 1_565
F12 Sm3 2.555081 1_665
F13 Sm12 2.308747 1_545
F13 Sm4 2.545736 1_555
F13 Sm4 2.545736 1_655
F14 Sm6 2.279669 1_655
F14 Sm6 2.279669 1_555
F14 Sm13 2.458861 1_545
F15 Sm13 2.116367 1_555
F16 Sm12 2.387457 1_555
F16 Sm12 2.397491 1_545
F16 Sm5 2.719364 1_655
F16 Sm5 2.719364 1_555
F17 Sm13 2.316471 1_555
F17 Sm13 2.384827 1_545
F18 Sm7 2.398797 1_555
F18 Sm7 2.398797 1_655
F18 Sm15 2.592998 1_555
F19 Sm5 2.337714 1_665
F19 Sm5 2.337714 1_565
F19 Sm12 2.594378 1_555
F20 Sm15 2.297818 1_545
F20 Sm15 2.383733 1_555
F21 Sm14 2.298714 1_555
F21 Sm7 2.542590 1_655
F21 Sm7 2.542590 1_555
F22 Sm0 2.269699 1_655
F22 Sm0 2.269699 1_555
F22 Sm15 2.768641 1_554
F23 Sm7 2.283831 1_665
F23 Sm7 2.283831 1_565
F23 Sm14 2.661465 1_555
