# generated using pymatgen
data_CrFeO3
_symmetry_space_group_name_H-M   'P 1'
_cell_length_a   10.07227948
_cell_length_b   10.27269981
_cell_length_c   10.03446453
_cell_angle_alpha   90.90018279
_cell_angle_beta   97.93299624
_cell_angle_gamma   87.42766253
_symmetry_Int_Tables_number   1
_chemical_formula_structural   CrFeO3
_chemical_formula_sum   'Cr16 Fe16 O48'
_cell_volume   1027.24135322
_cell_formula_units_Z   16
loop_
 _symmetry_equiv_pos_site_id
 _symmetry_equiv_pos_as_xyz
  1  'x, y, z'
loop_
 _atom_site_type_symbol
 _atom_site_label
 _atom_site_symmetry_multiplicity
 _atom_site_fract_x
 _atom_site_fract_y
 _atom_site_fract_z
 _atom_site_occupancy
  Cr  Cr0  1  0.72936300  0.36448600  0.82071800  1
  Cr  Cr1  1  0.48287100  0.17383500  0.03613300  1
  Cr  Cr2  1  0.61305100  0.15226700  0.39026200  1
  Cr  Cr3  1  0.18243500  0.04229800  0.07630400  1
  Cr  Cr4  1  0.91078200  0.38300100  0.62750300  1
  Cr  Cr5  1  0.30921100  0.64373100  0.54028000  1
  Cr  Cr6  1  0.12937500  0.84433500  0.77817800  1
  Cr  Cr7  1  0.38187400  0.29956600  0.72256800  1
  Cr  Cr8  1  0.13312300  0.80945300  0.32801600  1
  Cr  Cr9  1  0.56453200  0.46507100  0.56331800  1
  Cr  Cr10  1  0.38843200  0.96857600  0.84667500  1
  Cr  Cr11  1  0.15572500  0.49951800  0.71996200  1
  Cr  Cr12  1  0.73053000  0.68357900  0.63674900  1
  Cr  Cr13  1  0.89664100  0.13086300  0.02070000  1
  Cr  Cr14  1  0.92501300  0.02719300  0.29295400  1
  Cr  Cr15  1  0.61570000  0.97601900  0.60894000  1
  Fe  Fe0  1  0.17369600  0.32216300  0.97063800  1
  Fe  Fe1  1  0.76847700  0.59294700  0.08469800  1
  Fe  Fe2  1  0.03748000  0.27619500  0.40034200  1
  Fe  Fe3  1  0.74804100  0.84478800  0.37235400  1
  Fe  Fe4  1  0.55896900  0.59437900  0.30622200  1
  Fe  Fe5  1  0.64682500  0.87914800  0.94617200  1
  Fe  Fe6  1  0.03163000  0.58589600  0.97660700  1
  Fe  Fe7  1  0.32307800  0.70642100  0.04137400  1
  Fe  Fe8  1  0.92649000  0.58674000  0.42030900  1
  Fe  Fe9  1  0.74590900  0.32074400  0.17546300  1
  Fe  Fe10  1  0.12396700  0.53538500  0.22700000  1
  Fe  Fe11  1  0.40320900  0.87693200  0.32724200  1
  Fe  Fe12  1  0.33851900  0.35136200  0.43699600  1
  Fe  Fe13  1  0.93032400  0.83136900  0.03218100  1
  Fe  Fe14  1  0.56234500  0.63700000  0.83159600  1
  Fe  Fe15  1  0.10236900  0.08373800  0.62205700  1
  O  O0  1  0.12944800  0.62907200  0.40334800  1
  O  O1  1  0.30241900  0.81018900  0.45392400  1
  O  O2  1  0.66735200  0.50760700  0.93534100  1
  O  O3  1  0.66245800  0.13137000  0.58372800  1
  O  O4  1  0.87822400  0.37821000  0.42785500  1
  O  O5  1  0.74409400  0.48692400  0.66311100  1
  O  O6  1  0.59615600  0.22453500  0.20045400  1
  O  O7  1  0.01147200  0.75259200  0.88434200  1
  O  O8  1  0.05257200  0.16474700  0.96016400  1
  O  O9  1  0.53178600  0.32087800  0.43286900  1
  O  O10  1  0.93702700  0.50433200  0.14012300  1
  O  O11  1  0.72101400  0.73529800  0.82912500  1
  O  O12  1  0.30049600  0.46065200  0.59875400  1
  O  O13  1  0.46234800  0.75770900  0.92150000  1
  O  O14  1  0.54503100  0.93973800  0.75684500  1
  O  O15  1  0.17175400  0.36277500  0.31796000  1
  O  O16  1  0.71778800  0.64619500  0.42948000  1
  O  O17  1  0.24419400  0.96484600  0.69436300  1
  O  O18  1  0.90872200  0.20534000  0.20398100  1
  O  O19  1  0.20865800  0.68685600  0.70803200  1
  O  O20  1  0.00220200  0.95451500  0.69976400  1
  O  O21  1  0.41668000  0.15866000  0.84215900  1
  O  O22  1  0.53865400  0.97585800  0.41956900  1
  O  O23  1  0.98476000  0.54880800  0.61291400  1
  O  O24  1  0.75289400  0.26174000  0.98636600  1
  O  O25  1  0.06380700  0.09075000  0.42733600  1
  O  O26  1  0.84447900  0.26333500  0.72758300  1
  O  O27  1  0.23131900  0.90841700  0.94284300  1
  O  O28  1  0.07151200  0.72693400  0.15184700  1
  O  O29  1  0.30369400  0.18625300  0.07751500  1
  O  O30  1  0.66783500  0.49440700  0.19996500  1
  O  O31  1  0.28833000  0.39191700  0.83721500  1
  O  O32  1  0.07492100  0.27850800  0.60807500  1
  O  O33  1  0.54710700  0.36893700  0.72601900  1
  O  O34  1  0.75213700  0.03625000  0.33126200  1
  O  O35  1  0.24449900  0.94675400  0.23848000  1
  O  O36  1  0.00792500  0.98776800  0.12086300  1
  O  O37  1  0.74592800  0.85617300  0.57889100  1
  O  O38  1  0.53035700  0.64389600  0.63719600  1
  O  O39  1  0.75997700  0.77809100  0.10217000  1
  O  O40  1  0.80295800  0.98716800  0.95223500  1
  O  O41  1  0.94727500  0.84526900  0.35306900  1
  O  O42  1  0.42171200  0.54228500  0.41251100  1
  O  O43  1  0.02936700  0.44263000  0.84597700  1
  O  O44  1  0.22479700  0.53507000  0.07456700  1
  O  O45  1  0.33489900  0.21279200  0.56514100  1
  O  O46  1  0.51573600  0.99163900  0.02022900  1
  O  O47  1  0.45746600  0.73340900  0.21809700  1
loop_
_geom_bond_atom_site_label_1
_geom_bond_atom_site_label_2
_geom_bond_distance
_geom_bond_site_symmetry_2
Cr0 O26 1.859560 1_555
Cr0 O33 1.946101 1_555
Cr0 O24 1.963927 1_555
Cr0 O2 1.984281 1_555
Cr0 O5 2.061352 1_555
Cr1 O46 1.894118 1_545
Cr1 O29 1.905321 1_555
Cr1 O6 1.949113 1_555
Cr1 O21 1.974577 1_554
Cr2 O34 1.946886 1_555
Cr2 O9 1.949096 1_555
Cr2 O3 1.949184 1_555
Cr2 O22 2.032616 1_545
Cr2 O6 2.037475 1_555
Cr3 O35 1.927872 1_545
Cr3 O29 1.958618 1_555
Cr3 O36 1.979004 1_545
Cr3 O27 1.997692 1_544
Cr3 O8 2.031980 1_554
Cr4 O26 1.806451 1_555
Cr4 O23 1.905175 1_555
Cr4 O32 1.961273 1_655
Cr4 O4 1.985050 1_555
Cr4 O5 2.019626 1_555
Cr4 O43 2.430762 1_655
Cr5 O1 1.923348 1_555
Cr5 O12 1.988162 1_555
Cr5 O42 2.065631 1_555
Cr5 O19 2.112440 1_555
Cr5 O0 2.126091 1_555
Cr5 O38 2.304262 1_555
Cr6 O20 1.777807 1_555
Cr6 O19 1.937427 1_555
Cr6 O27 1.943205 1_555
Cr6 O7 1.978525 1_555
Cr6 O17 2.001774 1_555
Cr7 O31 1.815462 1_555
Cr7 O45 1.816922 1_555
Cr7 O33 1.835379 1_555
Cr7 O21 1.884435 1_555
Cr7 O12 2.148371 1_555
Cr8 O41 1.941081 1_455
Cr8 O1 1.977414 1_555
Cr8 O28 1.981411 1_555
Cr8 O0 2.016006 1_555
Cr8 O35 2.124873 1_555
Cr9 O33 1.953669 1_555
Cr9 O5 1.963068 1_555
Cr9 O9 1.969795 1_555
Cr9 O38 2.003389 1_555
Cr9 O42 2.079159 1_555
Cr10 O14 1.931398 1_555
Cr10 O17 1.959152 1_555
Cr10 O21 1.988004 1_565
Cr10 O46 2.032507 1_556
Cr10 O27 2.084572 1_555
Cr10 O13 2.358470 1_555
Cr11 O23 1.950327 1_455
Cr11 O31 1.965863 1_555
Cr11 O43 2.023478 1_555
Cr11 O19 2.029560 1_555
Cr11 O12 2.046213 1_555
Cr11 O32 2.628885 1_555
Cr12 O37 1.893820 1_555
Cr12 O11 2.008019 1_555
Cr12 O5 2.037597 1_555
Cr12 O38 2.075472 1_555
Cr12 O16 2.096499 1_555
Cr13 O8 1.809954 1_654
Cr13 O40 1.858915 1_544
Cr13 O24 1.929949 1_554
Cr13 O18 1.971018 1_555
Cr13 O36 2.003732 1_645
Cr14 O34 1.832343 1_555
Cr14 O25 1.932058 1_655
Cr14 O41 1.966527 1_545
Cr14 O18 2.038882 1_555
Cr14 O36 2.046741 1_645
Cr15 O3 1.716292 1_565
Cr15 O14 1.783551 1_555
Cr15 O37 1.811000 1_555
Cr15 O22 1.950922 1_555
Fe0 O31 2.042105 1_555
Fe0 O8 2.061736 1_555
Fe0 O29 2.075869 1_556
Fe0 O43 2.143534 1_555
Fe0 O44 2.453009 1_556
Fe1 O39 1.906423 1_555
Fe1 O10 1.907008 1_555
Fe1 O2 1.915638 1_554
Fe1 O30 1.960262 1_555
Fe2 O4 1.926074 1_455
Fe2 O25 1.929724 1_555
Fe2 O15 1.934736 1_555
Fe2 O32 2.066432 1_555
Fe2 O18 2.329896 1_455
Fe3 O34 2.019310 1_565
Fe3 O41 2.042692 1_555
Fe3 O37 2.076939 1_555
Fe3 O16 2.173512 1_555
Fe3 O22 2.546791 1_555
Fe4 O47 1.877780 1_555
Fe4 O30 1.892393 1_555
Fe4 O42 1.956156 1_555
Fe4 O16 1.970186 1_555
Fe5 O46 1.933358 1_556
Fe5 O40 1.958639 1_555
Fe5 O11 2.051860 1_555
Fe5 O39 2.068665 1_556
Fe5 O14 2.118979 1_555
Fe5 O13 2.267487 1_555
Fe6 O7 1.948712 1_555
Fe6 O43 1.954189 1_555
Fe6 O44 2.102705 1_556
Fe6 O10 2.201962 1_456
Fe6 O28 2.264912 1_556
Fe7 O13 2.060158 1_554
Fe7 O47 2.099860 1_555
Fe7 O44 2.110721 1_555
Fe7 O27 2.403668 1_554
Fe8 O23 1.980307 1_555
Fe8 O0 2.138969 1_655
Fe8 O16 2.176404 1_555
Fe8 O4 2.222540 1_555
Fe9 O6 1.887012 1_555
Fe9 O30 1.942967 1_555
Fe9 O18 1.970586 1_555
Fe9 O24 1.992407 1_554
Fe10 O44 1.949204 1_555
Fe10 O0 1.996227 1_555
Fe10 O10 1.999794 1_455
Fe10 O15 2.015408 1_555
Fe10 O28 2.136144 1_555
Fe11 O35 1.840473 1_555
Fe11 O22 1.870344 1_555
Fe11 O1 1.887507 1_555
Fe11 O47 1.927188 1_555
Fe12 O15 1.922187 1_555
Fe12 O45 1.938095 1_555
Fe12 O9 1.963749 1_555
Fe12 O12 2.029163 1_555
Fe12 O42 2.197426 1_555
Fe13 O7 1.939399 1_654
Fe13 O36 1.964665 1_655
Fe13 O28 2.011803 1_655
Fe13 O39 2.040997 1_555
Fe13 O40 2.103043 1_554
Fe14 O13 1.862652 1_555
Fe14 O2 1.892764 1_555
Fe14 O11 1.931573 1_555
Fe14 O38 1.934648 1_555
Fe15 O17 1.908891 1_545
Fe15 O20 1.938549 1_545
Fe15 O25 1.940691 1_555
Fe15 O32 2.011923 1_555
