# generated using pymatgen
data_MnRhN2
_symmetry_space_group_name_H-M   'P 1'
_cell_length_a   5.09580600
_cell_length_b   5.99030000
_cell_length_c   5.47748000
_cell_angle_alpha   90.00000000
_cell_angle_beta   90.00000000
_cell_angle_gamma   90.00000000
_symmetry_Int_Tables_number   1
_chemical_formula_structural   MnRhN2
_chemical_formula_sum   'Mn4 Rh4 N8'
_cell_volume   167.20230459
_cell_formula_units_Z   4
loop_
 _symmetry_equiv_pos_site_id
 _symmetry_equiv_pos_as_xyz
  1  'x, y, z'
loop_
 _atom_site_type_symbol
 _atom_site_label
 _atom_site_symmetry_multiplicity
 _atom_site_fract_x
 _atom_site_fract_y
 _atom_site_fract_z
 _atom_site_occupancy
  Mn  Mn0  1  0.56703700  0.88767500  0.96560900  1
  Mn  Mn1  1  0.43296300  0.11232500  0.46560900  1
  Mn  Mn2  1  0.93296300  0.38767500  0.46560900  1
  Mn  Mn3  1  0.06703700  0.61232500  0.96560900  1
  Rh  Rh0  1  0.62086700  0.34126900  0.03962200  1
  Rh  Rh1  1  0.37913300  0.65873100  0.53962200  1
  Rh  Rh2  1  0.87913300  0.84126900  0.53962200  1
  Rh  Rh3  1  0.12086700  0.15873100  0.03962200  1
  N  N0  1  0.57369300  0.87296700  0.30417900  1
  N  N1  1  0.42630700  0.12703300  0.80417900  1
  N  N2  1  0.92630700  0.37296700  0.80417900  1
  N  N3  1  0.07369300  0.62703300  0.30417900  1
  N  N4  1  0.58307800  0.38325000  0.41259000  1
  N  N5  1  0.41692200  0.61675000  0.91259000  1
  N  N6  1  0.91692200  0.88325000  0.91259000  1
  N  N7  1  0.08307800  0.11675000  0.41259000  1
loop_
_geom_bond_atom_site_label_1
_geom_bond_atom_site_label_2
_geom_bond_distance
_geom_bond_site_symmetry_2
Mn0 N6 1.806637 1_555
Mn0 N5 1.817518 1_555
Mn0 N1 1.830847 1_565
Mn0 N0 1.856912 1_556
Mn1 N7 1.806637 1_555
Mn1 N4 1.817518 1_555
Mn1 N0 1.830847 1_545
Mn1 N1 1.856912 1_555
Mn2 N4 1.806637 1_555
Mn2 N7 1.817518 1_655
Mn2 N3 1.830847 1_655
Mn2 N2 1.856912 1_555
Mn3 N5 1.806637 1_555
Mn3 N6 1.817518 1_455
Mn3 N2 1.830847 1_455
Mn3 N3 1.856912 1_556
N0 Rh2 2.030219 1_555
N0 Rh1 2.071972 1_555
N1 Rh3 2.030219 1_556
N1 Rh0 2.071972 1_556
N2 Rh0 2.030219 1_556
N2 Rh3 2.071972 1_656
N3 Rh1 2.030219 1_555
N3 Rh2 2.071972 1_455
N4 Rh0 2.067333 1_555
N4 Rh1 2.070612 1_555
N5 Rh1 2.067333 1_555
N5 Rh0 2.070612 1_556
N6 Rh2 2.067333 1_555
N6 Rh3 2.070612 1_666
N7 Rh3 2.067333 1_555
N7 Rh2 2.070612 1_445
