# generated using pymatgen
data_Co4CN4
_symmetry_space_group_name_H-M   'P 1'
_cell_length_a   9.67552600
_cell_length_b   2.76323900
_cell_length_c   11.46325900
_cell_angle_alpha   90.00000000
_cell_angle_beta   90.00000000
_cell_angle_gamma   90.00000000
_symmetry_Int_Tables_number   1
_chemical_formula_structural   Co4CN4
_chemical_formula_sum   'Co16 C4 N16'
_cell_volume   306.47929438
_cell_formula_units_Z   4
loop_
 _symmetry_equiv_pos_site_id
 _symmetry_equiv_pos_as_xyz
  1  'x, y, z'
loop_
 _atom_site_type_symbol
 _atom_site_label
 _atom_site_symmetry_multiplicity
 _atom_site_fract_x
 _atom_site_fract_y
 _atom_site_fract_z
 _atom_site_occupancy
  Co  Co0  1  0.11415500  0.25000000  0.15106900  1
  Co  Co1  1  0.61415500  0.25000000  0.34893100  1
  Co  Co2  1  0.88584500  0.75000000  0.84893100  1
  Co  Co3  1  0.38584500  0.75000000  0.65106900  1
  Co  Co4  1  0.86410600  0.25000000  0.10064300  1
  Co  Co5  1  0.36410600  0.25000000  0.39935700  1
  Co  Co6  1  0.13589400  0.75000000  0.89935700  1
  Co  Co7  1  0.63589400  0.75000000  0.60064300  1
  Co  Co8  1  0.43879300  0.25000000  0.85692900  1
  Co  Co9  1  0.93879300  0.25000000  0.64307100  1
  Co  Co10  1  0.56120700  0.75000000  0.14307100  1
  Co  Co11  1  0.06120700  0.75000000  0.35692900  1
  Co  Co12  1  0.18338000  0.25000000  0.72548900  1
  Co  Co13  1  0.68338000  0.25000000  0.77451100  1
  Co  Co14  1  0.81662000  0.75000000  0.27451100  1
  Co  Co15  1  0.31662000  0.75000000  0.22548900  1
  C  C0  1  0.35145600  0.25000000  0.00673300  1
  C  C1  1  0.85145600  0.25000000  0.49326700  1
  C  C2  1  0.64854400  0.75000000  0.99326700  1
  C  C3  1  0.14854400  0.75000000  0.50673300  1
  N  N0  1  0.71030800  0.25000000  0.20400500  1
  N  N1  1  0.21030800  0.25000000  0.29599500  1
  N  N2  1  0.28969200  0.75000000  0.79599500  1
  N  N3  1  0.78969200  0.75000000  0.70400500  1
  N  N4  1  0.01675300  0.25000000  0.83209400  1
  N  N5  1  0.51675300  0.25000000  0.66790600  1
  N  N6  1  0.98324700  0.75000000  0.16790600  1
  N  N7  1  0.48324700  0.75000000  0.33209400  1
  N  N8  1  0.21201500  0.25000000  0.00465400  1
  N  N9  1  0.71201500  0.25000000  0.49534600  1
  N  N10  1  0.78798500  0.75000000  0.99534600  1
  N  N11  1  0.28798500  0.75000000  0.50465400  1
  N  N12  1  0.42046600  0.25000000  0.10913000  1
  N  N13  1  0.92046600  0.25000000  0.39087000  1
  N  N14  1  0.57953400  0.75000000  0.89087000  1
  N  N15  1  0.07953400  0.75000000  0.60913000  1
loop_
_geom_bond_atom_site_label_1
_geom_bond_atom_site_label_2
_geom_bond_distance
_geom_bond_site_symmetry_2
Co0 N6 1.884253 1_455
Co0 N6 1.884253 1_445
Co0 N1 1.904078 1_555
Co0 N8 1.927050 1_555
Co1 N7 1.884253 1_545
Co1 N7 1.884253 1_555
Co1 N0 1.904078 1_555
Co1 N9 1.927050 1_555
Co2 N4 1.884253 1_665
Co2 N4 1.884253 1_655
Co2 N3 1.904078 1_555
Co2 N10 1.927050 1_555
Co3 N5 1.884253 1_555
Co3 N5 1.884253 1_565
Co3 N2 1.904078 1_555
Co3 N11 1.927050 1_555
Co4 N0 1.902177 1_555
Co4 N6 1.957609 1_555
Co4 N6 1.957609 1_545
Co4 N10 1.976938 1_554
Co4 N10 1.976938 1_544
Co5 N1 1.902177 1_555
Co5 N7 1.957609 1_545
Co5 N7 1.957609 1_555
Co5 N11 1.976938 1_555
Co5 N11 1.976938 1_545
Co6 N2 1.902177 1_555
Co6 N4 1.957609 1_565
Co6 N4 1.957609 1_555
Co6 N8 1.976938 1_566
Co6 N8 1.976938 1_556
Co7 N3 1.902177 1_555
Co7 N5 1.957609 1_565
Co7 N5 1.957609 1_555
Co7 N9 1.976938 1_565
Co7 N9 1.976938 1_555
Co8 N14 1.978534 1_555
Co8 N14 1.978534 1_545
Co8 N2 2.116119 1_545
Co8 N2 2.116119 1_555
Co8 N5 2.294359 1_555
Co9 N15 1.978534 1_645
Co9 N15 1.978534 1_655
Co9 N3 2.116119 1_545
Co9 N3 2.116119 1_555
Co9 N4 2.294359 1_655
Co10 N12 1.978534 1_565
Co10 N12 1.978534 1_555
Co10 N0 2.116119 1_555
Co10 N0 2.116119 1_565
Co10 N7 2.294359 1_555
Co11 N13 1.978534 1_455
Co11 N13 1.978534 1_465
Co11 N1 2.116119 1_565
Co11 N1 2.116119 1_555
Co11 N6 2.294359 1_455
Co12 N2 1.902676 1_545
Co12 N2 1.902676 1_555
Co12 N4 2.023014 1_555
Co12 N15 2.167392 1_555
Co12 N15 2.167392 1_545
Co13 N3 1.902676 1_545
Co13 N3 1.902676 1_555
Co13 N5 2.023014 1_555
Co13 N14 2.167392 1_555
Co13 N14 2.167392 1_545
Co14 N0 1.902676 1_555
Co14 N0 1.902676 1_565
Co14 N6 2.023014 1_555
Co14 N13 2.167392 1_555
Co14 N13 2.167392 1_565
Co15 N1 1.902676 1_565
Co15 N1 1.902676 1_555
Co15 N7 2.023014 1_555
Co15 N12 2.167392 1_555
Co15 N12 2.167392 1_565
C0 N8 1.349375 1_555
C0 N12 1.350425 1_555
C0 Co8 1.913896 1_554
C1 N9 1.349375 1_555
C1 N13 1.350425 1_555
C1 Co9 1.913896 1_555
C2 N10 1.349375 1_555
C2 N14 1.350425 1_555
C2 Co10 1.913896 1_556
C3 N11 1.349375 1_555
C3 N15 1.350425 1_555
C3 Co11 1.913896 1_555
