# generated using pymatgen
data_Li(Fe2O3)4
_symmetry_space_group_name_H-M   'P 1'
_cell_length_a   5.21299100
_cell_length_b   5.82531225
_cell_length_c   7.63480269
_cell_angle_alpha   81.63994258
_cell_angle_beta   90.00000000
_cell_angle_gamma   90.00000000
_symmetry_Int_Tables_number   1
_chemical_formula_structural   Li(Fe2O3)4
_chemical_formula_sum   'Li1 Fe8 O12'
_cell_volume   229.38471003
_cell_formula_units_Z   1
loop_
 _symmetry_equiv_pos_site_id
 _symmetry_equiv_pos_as_xyz
  1  'x, y, z'
loop_
 _atom_site_type_symbol
 _atom_site_label
 _atom_site_symmetry_multiplicity
 _atom_site_fract_x
 _atom_site_fract_y
 _atom_site_fract_z
 _atom_site_occupancy
  Li  Li0  1  0.75656000  0.75000000  0.00000000  1
  Fe  Fe0  1  0.24868100  0.45936600  0.08034200  1
  Fe  Fe1  1  0.23899100  0.05886500  0.41822300  1
  Fe  Fe2  1  0.23899100  0.44113500  0.58177700  1
  Fe  Fe3  1  0.24868200  0.04063400  0.91965800  1
  Fe  Fe4  1  0.74123600  0.29209100  0.77984600  1
  Fe  Fe5  1  0.73679400  0.90773000  0.61039400  1
  Fe  Fe6  1  0.73679400  0.59227000  0.38960600  1
  Fe  Fe7  1  0.74123500  0.20790900  0.22015400  1
  O  O0  1  0.39473200  0.38802000  0.83395200  1
  O  O1  1  0.05376000  0.10643400  0.67087900  1
  O  O2  1  0.05376000  0.39356600  0.32912100  1
  O  O3  1  0.39473200  0.11198000  0.16604800  1
  O  O4  1  0.59258000  0.53632500  0.16938400  1
  O  O5  1  0.88833800  0.92020600  0.35883200  1
  O  O6  1  0.88833800  0.57979400  0.64116800  1
  O  O7  1  0.59258000  0.96367500  0.83061600  1
  O  O8  1  0.10862900  0.75000000  0.00000000  1
  O  O9  1  0.56802300  0.25000000  0.50000000  1
  O  O10  1  0.94297100  0.25000000  0.00000000  1
  O  O11  1  0.43359600  0.75000000  0.50000000  1
loop_
_geom_bond_atom_site_label_1
_geom_bond_atom_site_label_2
_geom_bond_distance
_geom_bond_site_symmetry_2
Li0 O8 1.835333 1_655
Li0 O7 1.866652 1_554
Li0 O4 1.866652 1_555
Fe0 O8 1.863778 1_555
Fe0 O4 1.991402 1_555
Fe0 O0 2.125661 1_554
Fe0 O2 2.139009 1_555
Fe0 O10 2.149660 1_455
Fe0 O3 2.172069 1_555
Fe1 O3 2.070859 1_555
Fe1 O5 2.075077 1_445
Fe1 O11 2.080760 1_545
Fe1 O9 2.184884 1_555
Fe1 O2 2.193391 1_555
Fe1 O1 2.210334 1_555
Fe2 O0 2.070859 1_555
Fe2 O6 2.075077 1_455
Fe2 O11 2.080760 1_555
Fe2 O9 2.184884 1_555
Fe2 O1 2.193391 1_555
Fe2 O2 2.210334 1_555
Fe3 O8 1.863780 1_546
Fe3 O7 1.991398 1_545
Fe3 O3 2.125659 1_556
Fe3 O1 2.139012 1_555
Fe3 O10 2.149663 1_456
Fe3 O0 2.172067 1_555
Fe4 O0 1.952650 1_555
Fe4 O10 1.967594 1_556
Fe4 O6 2.000477 1_555
Fe4 O7 2.048218 1_545
Fe4 O1 2.185788 1_655
Fe4 O9 2.364892 1_555
Fe5 O7 1.912504 1_555
Fe5 O6 2.048937 1_555
Fe5 O5 2.068234 1_555
Fe5 O11 2.068333 1_555
Fe5 O1 2.106834 1_665
Fe5 O9 2.229601 1_565
Fe6 O4 1.912504 1_555
Fe6 O5 2.048937 1_555
Fe6 O6 2.068234 1_555
Fe6 O11 2.068333 1_555
Fe6 O2 2.106834 1_655
Fe6 O9 2.229601 1_555
Fe7 O3 1.952646 1_555
Fe7 O10 1.967597 1_555
Fe7 O5 2.000479 1_545
Fe7 O4 2.048216 1_555
Fe7 O2 2.185792 1_655
Fe7 O9 2.364890 1_555
