# generated using pymatgen
data_PrIn2Ir
_symmetry_space_group_name_H-M   'P 1'
_cell_length_a   5.68231169
_cell_length_b   5.68231169
_cell_length_c   8.00072278
_cell_angle_alpha   90.00000000
_cell_angle_beta   90.00000000
_cell_angle_gamma   134.30840752
_symmetry_Int_Tables_number   1
_chemical_formula_structural   PrIn2Ir
_chemical_formula_sum   'Pr2 In4 Ir2'
_cell_volume   184.86033501
_cell_formula_units_Z   2
loop_
 _symmetry_equiv_pos_site_id
 _symmetry_equiv_pos_as_xyz
  1  'x, y, z'
loop_
 _atom_site_type_symbol
 _atom_site_label
 _atom_site_symmetry_multiplicity
 _atom_site_fract_x
 _atom_site_fract_y
 _atom_site_fract_z
 _atom_site_occupancy
  Pr  Pr0  1  0.56925517  0.43074483  0.25000000  1
  Pr  Pr1  1  0.43074483  0.56925517  0.75000000  1
  In  In0  1  0.85346704  0.14653296  0.05151333  1
  In  In1  1  0.14653296  0.85346704  0.94848667  1
  In  In2  1  0.14653296  0.85346704  0.55151333  1
  In  In3  1  0.85346704  0.14653296  0.44848667  1
  Ir  Ir0  1  0.28133292  0.71866708  0.25000000  1
  Ir  Ir1  1  0.71866708  0.28133292  0.75000000  1
loop_
_geom_bond_atom_site_label_1
_geom_bond_atom_site_label_2
_geom_bond_distance
_geom_bond_site_symmetry_2
In0 Ir1 2.795070 1_554
In0 Ir0 2.821309 1_545
In0 Ir0 2.821309 1_655
In0 In3 3.176074 1_555
In0 In1 3.178068 1_644
In0 In1 3.200559 1_544
In0 In1 3.200559 1_654
In0 Pr1 3.367718 1_544
In0 Pr1 3.367718 1_654
In0 Pr0 3.373706 1_555
In0 Pr0 3.535042 1_655
In0 Pr0 3.535042 1_545
In1 Ir0 2.795070 1_556
In1 Ir1 2.821309 1_455
In1 Ir1 2.821309 1_565
In1 In2 3.176074 1_555
In1 Pr0 3.367718 1_456
In1 Pr0 3.367718 1_566
In1 Pr1 3.373706 1_555
In1 Pr1 3.535042 1_455
In1 Pr1 3.535042 1_565
In2 Ir0 2.795070 1_555
In2 Ir1 2.821309 1_455
In2 Ir1 2.821309 1_565
In2 In3 3.178068 1_465
In2 In3 3.200559 1_565
In2 In3 3.200559 1_455
In2 Pr0 3.367718 1_455
In2 Pr0 3.367718 1_565
In2 Pr1 3.373706 1_555
In2 Pr1 3.535042 1_455
In2 Pr1 3.535042 1_565
In3 Ir1 2.795070 1_555
In3 Ir0 2.821309 1_545
In3 Ir0 2.821309 1_655
In3 Pr1 3.367718 1_545
In3 Pr1 3.367718 1_655
In3 Pr0 3.373706 1_555
In3 Pr0 3.535042 1_655
In3 Pr0 3.535042 1_545
Ir0 Pr0 3.015440 1_555
Ir0 Pr0 3.130580 1_455
Ir0 Pr0 3.130580 1_565
Ir1 Pr1 3.015440 1_555
Ir1 Pr1 3.130580 1_655
Ir1 Pr1 3.130580 1_545
