# generated using pymatgen
data_CsFeBr4
_symmetry_space_group_name_H-M   'P 1'
_cell_length_a   7.52358302
_cell_length_b   10.02659124
_cell_length_c   12.39028039
_cell_angle_alpha   90.00000000
_cell_angle_beta   90.00000000
_cell_angle_gamma   90.00000000
_symmetry_Int_Tables_number   1
_chemical_formula_structural   CsFeBr4
_chemical_formula_sum   'Cs4 Fe4 Br16'
_cell_volume   934.67184842
_cell_formula_units_Z   4
loop_
 _symmetry_equiv_pos_site_id
 _symmetry_equiv_pos_as_xyz
  1  'x, y, z'
loop_
 _atom_site_type_symbol
 _atom_site_label
 _atom_site_symmetry_multiplicity
 _atom_site_fract_x
 _atom_site_fract_y
 _atom_site_fract_z
 _atom_site_occupancy
  Cs  Cs0  1  0.25000000  0.65840739  0.18160624  1
  Cs  Cs1  1  0.75000000  0.34159261  0.81839376  1
  Cs  Cs2  1  0.75000000  0.15840739  0.31839376  1
  Cs  Cs3  1  0.25000000  0.84159261  0.68160624  1
  Fe  Fe0  1  0.25000000  0.19172666  0.06327495  1
  Fe  Fe1  1  0.75000000  0.80827334  0.93672505  1
  Fe  Fe2  1  0.75000000  0.69172666  0.43672505  1
  Fe  Fe3  1  0.25000000  0.30827334  0.56327495  1
  Br  Br0  1  0.25000000  0.39993976  0.39068308  1
  Br  Br1  1  0.75000000  0.60006024  0.60931692  1
  Br  Br2  1  0.75000000  0.89993976  0.10931692  1
  Br  Br3  1  0.25000000  0.10006024  0.89068308  1
  Br  Br4  1  0.25000000  0.03372525  0.20201264  1
  Br  Br5  1  0.75000000  0.96627475  0.79798736  1
  Br  Br6  1  0.75000000  0.53372525  0.29798736  1
  Br  Br7  1  0.25000000  0.46627475  0.70201264  1
  Br  Br8  1  0.99913805  0.32943209  0.08393360  1
  Br  Br9  1  0.00086195  0.67056791  0.91606640  1
  Br  Br10  1  0.00086195  0.82943209  0.41606640  1
  Br  Br11  1  0.49913805  0.67056791  0.91606640  1
  Br  Br12  1  0.99913805  0.17056791  0.58393360  1
  Br  Br13  1  0.50086195  0.32943209  0.08393360  1
  Br  Br14  1  0.50086195  0.17056791  0.58393360  1
  Br  Br15  1  0.49913805  0.82943209  0.41606640  1
loop_
_geom_bond_atom_site_label_1
_geom_bond_atom_site_label_2
_geom_bond_distance
_geom_bond_site_symmetry_2
Br0 Fe3 2.327610 1_555
Br0 Cs0 3.664277 1_555
Br1 Fe2 2.327610 1_555
Br1 Cs1 3.664277 1_555
Br2 Fe1 2.327610 1_554
Br2 Cs2 3.664277 1_565
Br3 Fe0 2.327610 1_556
Br3 Cs3 3.664277 1_545
Br4 Fe0 2.337669 1_555
Br4 Cs0 3.771643 1_545
Br4 Cs2 4.218207 1_555
Br4 Cs2 4.218207 1_455
Br5 Fe1 2.337669 1_555
Br5 Cs1 3.771643 1_565
Br5 Cs3 4.218207 1_555
Br5 Cs3 4.218207 1_655
Br6 Fe2 2.337669 1_555
Br6 Cs2 3.771643 1_555
Br6 Cs0 4.218207 1_555
Br6 Cs0 4.218207 1_655
Br7 Fe3 2.337669 1_555
Br7 Cs3 3.771643 1_555
Br7 Cs1 4.218207 1_455
Br7 Cs1 4.218207 1_555
Br8 Fe0 2.352467 1_655
Br8 Cs1 3.788552 1_554
Br8 Cs2 3.859160 1_555
Br8 Cs0 3.988343 1_655
Br9 Fe1 2.352467 1_455
Br9 Cs0 3.788552 1_556
Br9 Cs3 3.859160 1_555
Br9 Cs1 3.988343 1_455
Br10 Fe2 2.352467 1_455
Br10 Cs3 3.788552 1_555
Br10 Cs0 3.859160 1_555
Br10 Cs2 3.988343 1_465
Br11 Fe1 2.352467 1_555
Br11 Cs0 3.788552 1_556
Br11 Cs3 3.859160 1_555
Br11 Cs1 3.988343 1_555
Br12 Fe3 2.352467 1_655
Br12 Cs2 3.788552 1_555
Br12 Cs1 3.859160 1_555
Br12 Cs3 3.988343 1_645
Br13 Fe0 2.352467 1_555
Br13 Cs1 3.788552 1_554
Br13 Cs2 3.859160 1_555
Br13 Cs0 3.988343 1_555
Br14 Fe3 2.352467 1_555
Br14 Cs2 3.788552 1_555
Br14 Cs1 3.859160 1_555
Br14 Cs3 3.988343 1_545
Br15 Fe2 2.352467 1_555
Br15 Cs3 3.788552 1_555
Br15 Cs0 3.859160 1_555
Br15 Cs2 3.988343 1_565
