# generated using pymatgen
data_Ba5Lu2ZrAl2O13
_symmetry_space_group_name_H-M   'P 1'
_cell_length_a   5.97534203
_cell_length_b   5.97534203
_cell_length_c   24.92053100
_cell_angle_alpha   90.00000000
_cell_angle_beta   90.00000000
_cell_angle_gamma   120.00000030
_symmetry_Int_Tables_number   1
_chemical_formula_structural   Ba5Lu2ZrAl2O13
_chemical_formula_sum   'Ba10 Lu4 Zr2 Al4 O26'
_cell_volume   770.57241990
_cell_formula_units_Z   2
loop_
 _symmetry_equiv_pos_site_id
 _symmetry_equiv_pos_as_xyz
  1  'x, y, z'
loop_
 _atom_site_type_symbol
 _atom_site_label
 _atom_site_symmetry_multiplicity
 _atom_site_fract_x
 _atom_site_fract_y
 _atom_site_fract_z
 _atom_site_occupancy
  Ba  Ba0  1  0.33333300  0.66666700  0.54289100  1
  Ba  Ba1  1  0.66666700  0.33333300  0.45710900  1
  Ba  Ba2  1  0.66666700  0.33333300  0.04289100  1
  Ba  Ba3  1  0.33333300  0.66666700  0.95710900  1
  Ba  Ba4  1  0.00000000  0.00000000  0.13884300  1
  Ba  Ba5  1  0.00000000  0.00000000  0.86115700  1
  Ba  Ba6  1  0.00000000  0.00000000  0.63884300  1
  Ba  Ba7  1  0.00000000  0.00000000  0.36115700  1
  Ba  Ba8  1  0.33333300  0.66666700  0.25000000  1
  Ba  Ba9  1  0.66666700  0.33333300  0.75000000  1
  Lu  Lu0  1  0.33333300  0.66666700  0.10380300  1
  Lu  Lu1  1  0.66666700  0.33333300  0.89619700  1
  Lu  Lu2  1  0.66666700  0.33333300  0.60380300  1
  Lu  Lu3  1  0.33333300  0.66666700  0.39619700  1
  Zr  Zr0  1  0.00000000  0.00000000  0.00000000  1
  Zr  Zr1  1  0.00000000  0.00000000  0.50000000  1
  Al  Al0  1  0.33333300  0.66666700  0.68037900  1
  Al  Al1  1  0.66666700  0.33333300  0.31962100  1
  Al  Al2  1  0.66666700  0.33333300  0.18037900  1
  Al  Al3  1  0.33333300  0.66666700  0.81962100  1
  O  O0  1  0.50375100  0.00750200  0.15779800  1
  O  O1  1  0.49624900  0.99249800  0.84220200  1
  O  O2  1  0.99249800  0.49624900  0.15779800  1
  O  O3  1  0.49624900  0.99249800  0.65779800  1
  O  O4  1  0.00750200  0.50375100  0.84220200  1
  O  O5  1  0.50375100  0.00750200  0.34220200  1
  O  O6  1  0.50375100  0.49624900  0.15779800  1
  O  O7  1  0.00750200  0.50375100  0.65779800  1
  O  O8  1  0.49624900  0.50375100  0.84220200  1
  O  O9  1  0.99249800  0.49624900  0.34220200  1
  O  O10  1  0.49624900  0.50375100  0.65779800  1
  O  O11  1  0.50375100  0.49624900  0.34220200  1
  O  O12  1  0.16374900  0.32749900  0.05135500  1
  O  O13  1  0.83625100  0.67250100  0.94864500  1
  O  O14  1  0.67250100  0.83625100  0.05135500  1
  O  O15  1  0.83625100  0.67250100  0.55135500  1
  O  O16  1  0.32749900  0.16374900  0.94864500  1
  O  O17  1  0.16374900  0.32749900  0.44864500  1
  O  O18  1  0.16374900  0.83625100  0.05135500  1
  O  O19  1  0.32749900  0.16374900  0.55135500  1
  O  O20  1  0.83625100  0.16374900  0.94864500  1
  O  O21  1  0.67250100  0.83625100  0.44864500  1
  O  O22  1  0.83625100  0.16374900  0.55135500  1
  O  O23  1  0.16374900  0.83625100  0.44864500  1
  O  O24  1  0.33333300  0.66666700  0.75000000  1
  O  O25  1  0.66666700  0.33333300  0.25000000  1
loop_
_geom_bond_atom_site_label_1
_geom_bond_atom_site_label_2
_geom_bond_distance
_geom_bond_site_symmetry_2
Ba0 O17 2.932008 1_555
Ba0 O21 2.932008 1_555
Ba0 O23 2.932008 1_555
Ba0 O19 2.995254 1_565
Ba0 O15 2.995254 1_455
Ba0 O22 2.995260 1_565
Ba0 O22 2.995260 1_455
Ba0 O19 2.995266 1_555
Ba0 O15 2.995266 1_555
Ba0 O3 3.323078 1_555
Ba0 O7 3.323078 1_555
Ba0 O10 3.323081 1_555
Ba1 O15 2.932008 1_555
Ba1 O19 2.932008 1_555
Ba1 O22 2.932008 1_555
Ba1 O17 2.995254 1_655
Ba1 O21 2.995254 1_545
Ba1 O23 2.995260 1_545
Ba1 O23 2.995260 1_655
Ba1 O17 2.995266 1_555
Ba1 O21 2.995266 1_555
Ba1 O5 3.323078 1_555
Ba1 O9 3.323078 1_555
Ba1 O11 3.323081 1_555
Ba2 O13 2.932008 1_554
Ba2 O16 2.932008 1_554
Ba2 O20 2.932008 1_554
Ba2 O12 2.995254 1_655
Ba2 O14 2.995254 1_545
Ba2 O18 2.995260 1_655
Ba2 O18 2.995260 1_545
Ba2 O14 2.995266 1_555
Ba2 O12 2.995266 1_555
Ba2 O0 3.323078 1_555
Ba2 O2 3.323078 1_555
Ba2 O6 3.323081 1_555
Ba3 O14 2.932008 1_556
Ba3 O12 2.932008 1_556
Ba3 O18 2.932008 1_556
Ba3 O16 2.995254 1_565
Ba3 O13 2.995254 1_455
Ba3 O20 2.995260 1_565
Ba3 O20 2.995260 1_455
Ba3 O16 2.995266 1_555
Ba3 O13 2.995266 1_555
Ba3 O4 3.323078 1_555
Ba3 O1 3.323078 1_555
Ba3 O8 3.323081 1_555
Ba4 O18 2.761451 1_545
Ba4 O14 2.761454 1_445
Ba4 O12 2.761454 1_555
Ba4 O6 3.025032 1_555
Ba4 O6 3.025032 1_445
Ba4 O0 3.025032 1_555
Ba4 O2 3.025032 1_445
Ba4 O2 3.025032 1_455
Ba4 O0 3.025032 1_455
Ba5 O20 2.761451 1_455
Ba5 O13 2.761454 1_445
Ba5 O16 2.761454 1_555
Ba5 O8 3.025032 1_555
Ba5 O8 3.025032 1_445
Ba5 O4 3.025032 1_555
Ba5 O1 3.025032 1_445
Ba5 O1 3.025032 1_545
Ba5 O4 3.025032 1_545
Ba6 O22 2.761451 1_455
Ba6 O15 2.761454 1_445
Ba6 O19 2.761454 1_555
Ba6 O10 3.025032 1_555
Ba6 O10 3.025032 1_445
Ba6 O7 3.025032 1_555
Ba6 O3 3.025032 1_445
Ba6 O7 3.025032 1_545
Ba6 O3 3.025032 1_545
Ba7 O23 2.761451 1_545
Ba7 O21 2.761454 1_445
Ba7 O17 2.761454 1_555
Ba7 O11 3.025032 1_555
Ba7 O11 3.025032 1_445
Ba7 O5 3.025032 1_555
Ba7 O9 3.025032 1_445
Ba7 O5 3.025032 1_455
Ba7 O9 3.025032 1_455
Ba8 O5 2.896610 1_565
Ba8 O0 2.896610 1_565
Ba8 O2 2.896610 1_455
Ba8 O9 2.896610 1_455
Ba8 O6 2.896614 1_555
Ba8 O11 2.896614 1_555
Ba9 O4 2.896610 1_655
Ba9 O7 2.896610 1_655
Ba9 O1 2.896610 1_545
Ba9 O3 2.896610 1_545
Ba9 O8 2.896614 1_555
Ba9 O10 2.896614 1_555
Lu0 O14 2.188333 1_555
Lu0 O12 2.188333 1_555
Lu0 O18 2.188333 1_555
Lu0 O0 2.218427 1_565
Lu0 O2 2.218427 1_455
Lu0 O6 2.218431 1_555
Lu1 O16 2.188333 1_555
Lu1 O13 2.188333 1_555
Lu1 O20 2.188333 1_555
Lu1 O4 2.218427 1_655
Lu1 O1 2.218427 1_545
Lu1 O8 2.218431 1_555
Lu2 O19 2.188333 1_555
Lu2 O15 2.188333 1_555
Lu2 O22 2.188333 1_555
Lu2 O7 2.218427 1_655
Lu2 O3 2.218427 1_545
Lu2 O10 2.218431 1_555
Lu3 O17 2.188333 1_555
Lu3 O21 2.188333 1_555
Lu3 O23 2.188333 1_555
Lu3 O5 2.218427 1_565
Lu3 O9 2.218427 1_455
Lu3 O11 2.218431 1_555
Al0 O24 1.734992 1_555
Al0 O7 1.777535 1_555
Al0 O3 1.777535 1_555
Al0 O10 1.777540 1_555
Al1 O25 1.734992 1_555
Al1 O5 1.777535 1_555
Al1 O9 1.777535 1_555
Al1 O11 1.777540 1_555
Al2 O25 1.734992 1_555
Al2 O0 1.777535 1_555
Al2 O2 1.777535 1_555
Al2 O6 1.777540 1_555
Al3 O24 1.734992 1_555
Al3 O4 1.777535 1_555
Al3 O1 1.777535 1_555
Al3 O8 1.777540 1_555
O12 Zr0 2.123681 1_555
O13 Zr0 2.123681 1_666
O14 Zr0 2.123681 1_665
O15 Zr1 2.123681 1_665
O16 Zr0 2.123681 1_556
O17 Zr1 2.123681 1_555
O18 Zr0 2.123677 1_565
O19 Zr1 2.123681 1_555
O20 Zr0 2.123677 1_656
O21 Zr1 2.123681 1_665
O22 Zr1 2.123677 1_655
O23 Zr1 2.123677 1_565
