# generated using pymatgen
data_K2ZnH12(SO7)2
_symmetry_space_group_name_H-M   'P 1'
_cell_length_a   12.83204500
_cell_length_b   6.66910300
_cell_length_c   9.90811891
_cell_angle_alpha   76.44746665
_cell_angle_beta   90.00000000
_cell_angle_gamma   90.00000000
_symmetry_Int_Tables_number   1
_chemical_formula_structural   K2ZnH12(SO7)2
_chemical_formula_sum   'K4 Zn2 H24 S4 O28'
_cell_volume   824.30936364
_cell_formula_units_Z   2
loop_
 _symmetry_equiv_pos_site_id
 _symmetry_equiv_pos_as_xyz
  1  'x, y, z'
loop_
 _atom_site_type_symbol
 _atom_site_label
 _atom_site_symmetry_multiplicity
 _atom_site_fract_x
 _atom_site_fract_y
 _atom_site_fract_z
 _atom_site_occupancy
  K  K0  1  0.76188400  0.30882600  0.82587800  1
  K  K1  1  0.26188400  0.69117400  0.67412200  1
  K  K2  1  0.23811600  0.69117400  0.17412200  1
  K  K3  1  0.73811600  0.30882600  0.32587800  1
  Zn  Zn0  1  0.50000000  0.00000000  0.50000000  1
  Zn  Zn1  1  0.00000000  0.00000000  0.00000000  1
  H  H0  1  0.11484100  0.99801500  0.77172300  1
  H  H1  1  0.16423600  0.16819700  0.99554400  1
  H  H2  1  0.61484100  0.00198500  0.72827700  1
  H  H3  1  0.86912100  0.98970600  0.68189400  1
  H  H4  1  0.96253500  0.61327300  0.83167800  1
  H  H5  1  0.36912100  0.01029400  0.81810600  1
  H  H6  1  0.99160800  0.57305200  0.22309400  1
  H  H7  1  0.53746500  0.61327300  0.33167800  1
  H  H8  1  0.50839200  0.57305200  0.72309400  1
  H  H9  1  0.03746500  0.38672700  0.16832200  1
  H  H10  1  0.75712200  0.01891100  0.60229000  1
  H  H11  1  0.74287800  0.01891100  0.10229000  1
  H  H12  1  0.66423600  0.83180300  0.50445600  1
  H  H13  1  0.49160800  0.42694800  0.27690600  1
  H  H14  1  0.38515900  0.99801500  0.27172300  1
  H  H15  1  0.00839200  0.42694800  0.77690600  1
  H  H16  1  0.13087900  0.01029400  0.31810600  1
  H  H17  1  0.63087900  0.98970600  0.18189400  1
  H  H18  1  0.24287800  0.98108900  0.39771000  1
  H  H19  1  0.46253500  0.38672700  0.66832200  1
  H  H20  1  0.33576400  0.16819700  0.49554400  1
  H  H21  1  0.88515900  0.00198500  0.22827700  1
  H  H22  1  0.83576400  0.83180300  0.00445600  1
  H  H23  1  0.25712200  0.98108900  0.89771000  1
  S  S0  1  0.10474000  0.34317900  0.51918000  1
  S  S1  1  0.39526000  0.34317900  0.01918000  1
  S  S2  1  0.89526000  0.65682100  0.48082000  1
  S  S3  1  0.60474000  0.65682100  0.98082000  1
  O  O0  1  0.95044000  0.46598000  0.82976500  1
  O  O1  1  0.18132900  0.90862500  0.36858000  1
  O  O2  1  0.04956000  0.53402000  0.17023500  1
  O  O3  1  0.51824300  0.87850200  0.31764500  1
  O  O4  1  0.41922400  0.87886700  0.24704400  1
  O  O5  1  0.89226500  0.67310600  0.32959800  1
  O  O6  1  0.10773500  0.32689400  0.67040200  1
  O  O7  1  0.60773500  0.67310600  0.82959800  1
  O  O8  1  0.68132900  0.09137500  0.13142000  1
  O  O9  1  0.85291200  0.96215000  0.02750700  1
  O  O10  1  0.81867100  0.09137500  0.63142000  1
  O  O11  1  0.35291200  0.03785000  0.47249300  1
  O  O12  1  0.58077600  0.12113300  0.75295600  1
  O  O13  1  0.45044000  0.53402000  0.67023500  1
  O  O14  1  0.31867100  0.90862500  0.86858000  1
  O  O15  1  0.01824300  0.12149800  0.18235500  1
  O  O16  1  0.29721500  0.41885300  0.94911700  1
  O  O17  1  0.98175700  0.87850200  0.81764500  1
  O  O18  1  0.79721500  0.58114700  0.55088300  1
  O  O19  1  0.39226500  0.32689400  0.17040200  1
  O  O20  1  0.20278500  0.41885300  0.44911700  1
  O  O21  1  0.54956000  0.46598000  0.32976500  1
  O  O22  1  0.14708800  0.03785000  0.97249300  1
  O  O23  1  0.70278500  0.58114700  0.05088300  1
  O  O24  1  0.08077600  0.87886700  0.74704400  1
  O  O25  1  0.64708800  0.96215000  0.52750700  1
  O  O26  1  0.48175700  0.12149800  0.68235500  1
  O  O27  1  0.91922400  0.12113300  0.25295600  1
loop_
_geom_bond_atom_site_label_1
_geom_bond_atom_site_label_2
_geom_bond_distance
_geom_bond_site_symmetry_2
K0 O0 2.640669 1_555
K0 O10 2.766919 1_555
K0 O12 2.813127 1_555
K0 O9 2.921669 1_546
K0 O18 2.934044 1_555
K0 O7 3.139758 1_555
K0 O8 3.206060 1_556
K0 O23 3.277373 1_556
K1 O13 2.640669 1_555
K1 O14 2.766919 1_555
K1 O24 2.813127 1_555
K1 O11 2.921669 1_565
K1 O16 2.934044 1_555
K1 O6 3.139758 1_555
K1 O1 3.206060 1_555
K1 O20 3.277373 1_555
K2 O2 2.640669 1_555
K2 O1 2.766919 1_555
K2 O4 2.813127 1_555
K2 O22 2.921669 1_564
K2 O20 2.934044 1_555
K2 O19 3.139758 1_555
K2 O14 3.206060 1_554
K2 O16 3.277373 1_554
K3 O21 2.640669 1_555
K3 O8 2.766919 1_555
K3 O27 2.813127 1_555
K3 O25 2.921669 1_545
K3 O23 2.934044 1_555
K3 O5 3.139758 1_555
K3 O10 3.206060 1_555
K3 O18 3.277373 1_555
H0 O24 0.986578 1_555
H1 O22 0.974326 1_555
H2 O12 0.986578 1_555
H3 O10 0.984894 1_565
H4 O0 0.999055 1_555
H4 O17 1.758892 1_555
H5 O14 0.984894 1_545
H6 O2 0.979263 1_655
H7 O21 0.999055 1_555
H7 O3 1.758892 1_555
H8 O13 0.979263 1_555
H9 O2 0.999055 1_555
H9 O15 1.758892 1_555
H10 O10 1.003000 1_555
H10 K3 2.969286 1_555
H11 O8 1.003000 1_555
H11 K0 2.969286 1_554
H12 O25 0.974326 1_555
H13 O21 0.979263 1_555
H14 O4 0.986578 1_555
H15 O0 0.979263 1_455
H16 O1 0.984894 1_545
H17 O8 0.984894 1_565
H18 O1 1.003000 1_555
H18 K1 2.969286 1_555
H19 O13 0.999055 1_555
H19 O26 1.758892 1_555
H20 O11 0.974326 1_555
H21 O27 0.986578 1_555
H22 O9 0.974326 1_555
H23 O14 1.003000 1_555
H23 K2 2.969286 1_556
O3 O4 1.450175 1_555
O3 Zn0 2.159169 1_565
O5 S2 1.477155 1_555
O6 S0 1.477155 1_555
O7 S3 1.477155 1_555
O9 Zn1 1.915250 1_665
O11 Zn0 1.915250 1_555
O12 O26 1.450175 1_555
O15 O27 1.450175 1_455
O15 Zn1 2.159169 1_555
O16 S1 1.468083 1_556
O17 O24 1.450175 1_655
O17 Zn1 2.159169 1_666
O18 S2 1.468083 1_555
O19 S1 1.477155 1_555
O20 S0 1.468083 1_555
O22 Zn1 1.915250 1_556
O23 S3 1.468083 1_554
O25 Zn0 1.915250 1_565
O26 Zn0 2.159169 1_555
