# generated using pymatgen
data_Mg17Al11Au
_symmetry_space_group_name_H-M   'P 1'
_cell_length_a   9.12293318
_cell_length_b   9.15495049
_cell_length_c   9.03908651
_cell_angle_alpha   109.60675696
_cell_angle_beta   109.46263473
_cell_angle_gamma   109.78870852
_symmetry_Int_Tables_number   1
_chemical_formula_structural   Mg17Al11Au
_chemical_formula_sum   'Mg17 Al11 Au1'
_cell_volume   577.94344627
_cell_formula_units_Z   1
loop_
 _symmetry_equiv_pos_site_id
 _symmetry_equiv_pos_as_xyz
  1  'x, y, z'
loop_
 _atom_site_type_symbol
 _atom_site_label
 _atom_site_symmetry_multiplicity
 _atom_site_fract_x
 _atom_site_fract_y
 _atom_site_fract_z
 _atom_site_occupancy
  Mg  Mg0  1  0.34509300  0.00228300  0.99999900  1
  Mg  Mg1  1  0.31315900  0.60541800  0.99999900  1
  Mg  Mg2  1  0.60584200  0.31809800  0.00000000  1
  Mg  Mg3  1  0.00231000  0.34264000  0.00000000  1
  Mg  Mg4  1  0.00159400  0.99927200  0.00000100  1
  Mg  Mg5  1  0.68359700  0.68278200  0.28185600  1
  Mg  Mg6  1  0.99679100  0.60225700  0.31032800  1
  Mg  Mg7  1  0.60193900  0.00028200  0.31678700  1
  Mg  Mg8  1  0.00001600  0.99883800  0.34268000  1
  Mg  Mg9  1  0.39673600  0.71170300  0.39630500  1
  Mg  Mg10  1  0.71387200  0.39709400  0.39743300  1
  Mg  Mg11  1  0.31643900  0.99966000  0.60256700  1
  Mg  Mg12  1  0.00043200  0.31539900  0.60369600  1
  Mg  Mg13  1  0.65733600  0.65615800  0.65731900  1
  Mg  Mg14  1  0.28515200  0.68349600  0.68321400  1
  Mg  Mg15  1  0.68646100  0.29192800  0.68967100  1
  Mg  Mg16  1  0.40174100  0.40092700  0.71814400  1
  Al  Al0  1  0.63258000  0.81439600  0.00000000  1
  Al  Al1  1  0.36689800  0.36651700  0.18178800  1
  Al  Al2  1  0.18252100  0.81751200  0.18476200  1
  Al  Al3  1  0.81898000  0.18460000  0.18601800  1
  Al  Al4  1  0.18243900  0.36576500  0.36547100  1
  Al  Al5  1  0.36661500  0.18021200  0.36520900  1
  Al  Al6  1  0.00140600  0.81500500  0.63479200  1
  Al  Al7  1  0.81696900  0.00029300  0.63453100  1
  Al  Al8  1  0.63296200  0.99858200  0.81398200  1
  Al  Al9  1  0.99775800  0.63275100  0.81523800  1
  Al  Al10  1  0.18511000  0.18472900  0.81821100  1
  Au  Au0  1  0.80725400  0.63140600  0.00000000  1
loop_
_geom_bond_atom_site_label_1
_geom_bond_atom_site_label_2
_geom_bond_distance
_geom_bond_site_symmetry_2
Mg0 Mg14 3.046848 1_545
Mg0 Mg7 3.046869 1_556
Mg0 Mg2 3.059596 1_556
Mg0 Mg4 3.124500 1_546
Mg1 Mg3 3.034831 1_556
Mg1 Mg12 3.114274 1_555
Mg1 Mg9 3.114297 1_556
Mg1 Mg14 3.128150 1_555
Mg1 Mg7 3.128164 1_566
Mg1 Mg16 3.137529 1_555
Mg1 Mg5 3.137542 1_556
Mg2 Mg5 3.102300 1_555
Mg3 Mg6 3.036579 1_455
Mg3 Mg4 3.141315 1_545
Mg4 Mg8 3.103659 1_555
Mg5 Mg8 3.037529 1_655
Mg5 Mg6 3.136417 1_555
Mg5 Mg9 3.174674 1_555
Mg5 Mg7 3.179707 1_565
Mg6 Mg9 3.167512 1_655
Mg7 Mg9 3.134205 1_545
Mg10 Mg13 3.050577 1_555
Mg10 Mg2 3.132781 1_555
Mg10 Mg6 3.142257 1_555
Mg10 Mg12 3.143498 1_655
Mg10 Mg15 3.154582 1_555
Mg10 Mg7 3.160096 1_555
Mg10 Mg5 3.184173 1_555
Mg11 Mg8 3.050587 1_555
Mg11 Mg2 3.132783 1_566
Mg11 Mg15 3.142248 1_565
Mg11 Mg9 3.143488 1_555
Mg11 Mg6 3.154575 1_455
Mg11 Mg14 3.160084 1_555
Mg11 Mg16 3.184191 1_565
Mg12 Mg8 3.059934 1_545
Mg12 Mg14 3.134201 1_555
Mg12 Mg7 3.139966 1_455
Mg12 Mg15 3.167525 1_455
Mg12 Mg16 3.174666 1_555
Mg13 Mg16 3.037530 1_555
Mg13 Mg9 3.059924 1_555
Mg13 Mg4 3.103673 1_656
Mg14 Mg9 3.139964 1_555
Mg14 Mg6 3.149347 1_455
Mg14 Mg16 3.179705 1_555
Mg15 Mg3 3.036591 1_656
Mg15 Mg16 3.136412 1_555
Mg15 Mg7 3.149341 1_555
Mg16 Mg2 3.102307 1_556
Al0 Au0 2.674599 1_555
Al0 Al3 2.751959 1_565
Al0 Al8 2.751960 1_554
Al0 Mg1 2.894309 1_554
Al0 Mg14 2.959515 1_554
Al0 Mg7 2.959517 1_565
Al0 Mg8 3.069271 1_655
Al0 Mg13 3.069279 1_554
Al0 Mg16 3.131940 1_554
Al0 Mg5 3.131947 1_555
Al0 Mg4 3.215559 1_655
Al1 Al10 2.673781 1_554
Al1 Al4 2.729520 1_555
Al1 Al5 2.748754 1_555
Al1 Mg5 2.895796 1_555
Al1 Mg9 2.962085 1_555
Al1 Mg10 2.969830 1_555
Al1 Mg3 3.071717 1_555
Al1 Mg0 3.084573 1_554
Al1 Mg4 3.188524 1_545
Al1 Mg2 3.193872 1_555
Al1 Mg1 3.213278 1_554
Al2 Al5 2.696385 1_565
Al2 Al9 2.717516 1_454
Al2 Au0 2.782688 1_455
Al2 Mg9 2.906638 1_555
Al2 Mg6 2.926506 1_455
Al2 Mg1 2.949029 1_554
Al2 Mg8 3.070891 1_555
Al2 Mg0 3.114183 1_564
Al2 Mg11 3.139307 1_555
Al2 Mg7 3.185367 1_565
Al2 Mg4 3.189092 1_555
Al3 Al4 2.695025 1_655
Al3 Al8 2.735989 1_544
Al3 Mg10 2.888784 1_555
Al3 Mg7 2.966672 1_555
Al3 Mg2 2.985183 1_555
Al3 Mg8 3.095919 1_645
Al3 Mg3 3.096139 1_655
Al3 Mg12 3.144361 1_655
Al3 Mg6 3.196292 1_555
Al3 Mg4 3.216728 1_645
Al4 Al5 2.764311 1_555
Al4 Mg14 2.888315 1_555
Al4 Mg9 2.963455 1_555
Al4 Mg16 2.982247 1_555
Al4 Mg3 3.055488 1_555
Al4 Mg8 3.101302 1_545
Al4 Mg4 3.173925 1_545
Al4 Mg12 3.183884 1_555
Al4 Mg6 3.232494 1_455
Al5 Mg15 2.902639 1_555
Al5 Mg10 2.966695 1_555
Al5 Mg16 2.986162 1_555
Al5 Mg0 3.054879 1_554
Al5 Mg8 3.089179 1_545
Al5 Mg4 3.162321 1_545
Al5 Mg7 3.170293 1_555
Al5 Mg11 3.172876 1_545
Al6 Al9 2.696385 1_455
Al6 Al7 2.764281 1_465
Al6 Mg6 2.902665 1_455
Al6 Mg11 2.966694 1_555
Al6 Mg5 2.986160 1_455
Al6 Mg0 3.054863 1_565
Al6 Mg13 3.089171 1_455
Al6 Mg4 3.162323 1_556
Al6 Mg14 3.170299 1_555
Al6 Mg10 3.172882 1_455
Al7 Al8 2.695018 1_545
Al7 Mg7 2.888327 1_555
Al7 Mg12 2.963476 1_655
Al7 Mg5 2.982256 1_545
Al7 Mg3 3.055483 1_656
Al7 Mg13 3.101280 1_545
Al7 Mg4 3.173915 1_646
Al7 Mg9 3.183888 1_545
Al7 Mg15 3.232513 1_555
Al8 Mg11 2.888779 1_555
Al8 Mg14 2.966670 1_555
Al8 Mg2 2.985183 1_566
Al8 Mg13 3.095920 1_555
Al8 Mg3 3.096138 1_666
Al8 Mg9 3.144354 1_555
Al8 Mg15 3.196290 1_565
Al8 Mg4 3.216734 1_656
Al9 Au0 2.782681 1_556
Al9 Mg12 2.906646 1_655
Al9 Mg15 2.926519 1_555
Al9 Mg1 2.949035 1_655
Al9 Mg13 3.070879 1_555
Al9 Mg0 3.114176 1_665
Al9 Mg10 3.139305 1_555
Al9 Mg14 3.185370 1_655
Al9 Mg4 3.189085 1_656
Al10 Al7 2.729513 1_455
Al10 Al6 2.748739 1_545
Al10 Mg16 2.895795 1_555
Al10 Mg12 2.962077 1_555
Al10 Mg11 2.969830 1_545
Al10 Mg3 3.071722 1_556
Al10 Mg0 3.084572 1_555
Al10 Mg4 3.188538 1_546
Al10 Mg2 3.193871 1_556
Al10 Mg1 3.213272 1_555
Au0 Mg2 2.834590 1_555
Au0 Mg6 2.917569 1_555
Au0 Mg15 2.917573 1_554
Au0 Mg8 3.061755 1_655
Au0 Mg13 3.061763 1_554
Au0 Mg16 3.074910 1_554
Au0 Mg5 3.074911 1_555
Au0 Mg4 3.231473 1_655
