# generated using pymatgen
data_MnB4Mo3
_symmetry_space_group_name_H-M   'P 1'
_cell_length_a   3.06041900
_cell_length_b   4.48307100
_cell_length_c   6.23628217
_cell_angle_alpha   69.68287204
_cell_angle_beta   90.00000000
_cell_angle_gamma   90.00000000
_symmetry_Int_Tables_number   1
_chemical_formula_structural   MnB4Mo3
_chemical_formula_sum   'Mn1 B4 Mo3'
_cell_volume   80.23902248
_cell_formula_units_Z   1
loop_
 _symmetry_equiv_pos_site_id
 _symmetry_equiv_pos_as_xyz
  1  'x, y, z'
loop_
 _atom_site_type_symbol
 _atom_site_label
 _atom_site_symmetry_multiplicity
 _atom_site_fract_x
 _atom_site_fract_y
 _atom_site_fract_z
 _atom_site_occupancy
  Mn  Mn0  1  0.50000000  0.72889600  0.06804100  1
  B  B0  1  0.50000000  0.11583900  0.72545200  1
  B  B1  1  0.50000000  0.11240200  0.21679600  1
  B  B2  1  0.00000000  0.86988200  0.27162300  1
  B  B3  1  0.00000000  0.87552200  0.79253700  1
  Mo  Mo0  1  0.50000000  0.70960500  0.57276000  1
  Mo  Mo1  1  0.00000000  0.29598800  0.93101200  1
  Mo  Mo2  1  0.00000000  0.29186600  0.42177900  1
loop_
_geom_bond_atom_site_label_1
_geom_bond_atom_site_label_2
_geom_bond_distance
_geom_bond_site_symmetry_2
Mn0 Mo1 2.826666 1_654
Mn0 Mo1 2.826666 1_554
Mn0 Mo2 2.836411 1_655
Mn0 Mo2 2.836411 1_555
B0 B3 1.834195 1_545
B0 B3 1.834195 1_645
B0 Mn0 2.236079 1_546
B0 Mo1 2.314323 1_555
B0 Mo1 2.314323 1_655
B0 Mo0 2.329741 1_545
B0 Mo2 2.347961 1_655
B0 Mo2 2.347961 1_555
B0 Mo0 2.496443 1_555
B1 B2 1.839124 1_545
B1 B2 1.839124 1_645
B1 Mn0 2.219033 1_545
B1 Mo1 2.275225 1_654
B1 Mo1 2.275225 1_554
B1 Mo2 2.310235 1_655
B1 Mo2 2.310235 1_555
B1 Mo0 2.324868 1_545
B1 Mn0 2.592035 1_555
B2 Mn0 2.215885 1_455
B2 Mn0 2.215885 1_555
B2 Mo1 2.311563 1_564
B2 Mo0 2.334002 1_555
B2 Mo0 2.334002 1_455
B2 Mo2 2.384513 1_565
B2 Mo2 2.430347 1_555
B3 Mn0 2.222901 1_456
B3 Mn0 2.222901 1_556
B3 Mo1 2.330086 1_565
B3 Mo0 2.341213 1_555
B3 Mo0 2.341213 1_455
B3 Mo2 2.415151 1_565
B3 Mo1 2.436757 1_555
