# generated using pymatgen
data_ZrAlFe
_symmetry_space_group_name_H-M   'P 1'
_cell_length_a   5.13145530
_cell_length_b   5.12492022
_cell_length_c   8.32133900
_cell_angle_alpha   90.00000000
_cell_angle_beta   90.00000000
_cell_angle_gamma   60.88873053
_symmetry_Int_Tables_number   1
_chemical_formula_structural   ZrAlFe
_chemical_formula_sum   'Zr4 Al4 Fe4'
_cell_volume   191.19280874
_cell_formula_units_Z   4
loop_
 _symmetry_equiv_pos_site_id
 _symmetry_equiv_pos_as_xyz
  1  'x, y, z'
loop_
 _atom_site_type_symbol
 _atom_site_label
 _atom_site_symmetry_multiplicity
 _atom_site_fract_x
 _atom_site_fract_y
 _atom_site_fract_z
 _atom_site_occupancy
  Zr  Zr0  1  0.33518200  0.33392100  0.54937800  1
  Zr  Zr1  1  0.67143400  0.67019000  0.42605400  1
  Zr  Zr2  1  0.67143400  0.67019000  0.07394600  1
  Zr  Zr3  1  0.33518200  0.33392100  0.95062200  1
  Al  Al0  1  0.99437700  0.99586100  0.48547100  1
  Al  Al1  1  0.99437700  0.99586100  0.01452900  1
  Al  Al2  1  0.83355800  0.34319300  0.75000000  1
  Al  Al3  1  0.34441000  0.83403300  0.75000000  1
  Fe  Fe0  1  0.83535200  0.83265400  0.75000000  1
  Fe  Fe1  1  0.17451100  0.64075800  0.25000000  1
  Fe  Fe2  1  0.64124900  0.17666800  0.25000000  1
  Fe  Fe3  1  0.16893600  0.17275000  0.25000000  1
loop_
_geom_bond_atom_site_label_1
_geom_bond_atom_site_label_2
_geom_bond_distance
_geom_bond_site_symmetry_2
Zr0 Zr1 3.144857 1_545
Zr0 Zr1 3.145413 1_555
Zr0 Zr1 3.148418 1_455
Zr1 Zr2 2.930010 1_555
Zr2 Zr3 3.144857 1_564
Zr2 Zr3 3.145413 1_554
Zr2 Zr3 3.148418 1_654
Al0 Fe3 2.500733 1_665
Al0 Fe2 2.519482 1_565
Al0 Fe1 2.523676 1_655
Al0 Fe0 2.622036 1_555
Al0 Al2 2.695497 1_565
Al0 Al3 2.703711 1_655
Al0 Zr1 2.909912 1_555
Al0 Zr0 3.004045 1_565
Al0 Zr0 3.012789 1_655
Al0 Zr0 3.048112 1_665
Al0 Zr1 3.059633 1_565
Al0 Zr1 3.075481 1_655
Al1 Fe3 2.500733 1_665
Al1 Fe2 2.519482 1_565
Al1 Fe1 2.523676 1_655
Al1 Fe0 2.622036 1_554
Al1 Al2 2.695497 1_564
Al1 Al3 2.703711 1_654
Al1 Zr2 2.909912 1_555
Al1 Zr3 3.004045 1_564
Al1 Zr3 3.012789 1_654
Al1 Zr3 3.048112 1_664
Al1 Zr2 3.059633 1_565
Al1 Zr2 3.075481 1_655
Al2 Fe0 2.512940 1_555
Al2 Al3 2.546461 1_555
Al2 Fe0 2.612005 1_545
Al2 Al3 2.650484 1_645
Al2 Zr3 3.048947 1_655
Al2 Zr0 3.048947 1_655
Al2 Zr1 3.067667 1_555
Al2 Zr2 3.067667 1_556
Al2 Zr3 3.073729 1_555
Al2 Zr0 3.073729 1_555
Al3 Fe0 2.515816 1_555
Al3 Fe0 2.615654 1_455
Al3 Zr3 3.038833 1_565
Al3 Zr0 3.038833 1_565
Al3 Zr1 3.068659 1_555
Al3 Zr2 3.068659 1_556
Al3 Zr3 3.078396 1_555
Al3 Zr0 3.078396 1_555
Fe0 Zr2 3.057583 1_556
Fe0 Zr1 3.057583 1_555
Fe0 Zr3 3.085404 1_655
Fe0 Zr0 3.085404 1_655
Fe0 Zr3 3.091675 1_565
Fe0 Zr0 3.091675 1_565
Fe1 Fe3 2.412551 1_555
Fe1 Fe2 2.418766 1_555
Fe1 Fe3 2.712614 1_565
Fe1 Fe2 2.778210 1_465
Fe1 Zr0 2.845568 1_555
Fe1 Zr3 2.845568 1_554
Fe1 Zr2 2.907635 1_455
Fe1 Zr1 2.907635 1_455
Fe1 Zr1 3.007561 1_555
Fe1 Zr2 3.007561 1_555
Fe2 Fe3 2.433485 1_555
Fe2 Fe3 2.698090 1_655
Fe2 Zr0 2.844434 1_555
Fe2 Zr3 2.844434 1_554
Fe2 Zr1 2.918301 1_545
Fe2 Zr2 2.918301 1_545
Fe2 Zr2 2.991419 1_555
Fe2 Zr1 2.991419 1_555
Fe3 Zr0 2.881291 1_555
Fe3 Zr3 2.881291 1_554
Fe3 Zr1 2.971551 1_455
Fe3 Zr2 2.971551 1_455
Fe3 Zr2 2.994448 1_545
Fe3 Zr1 2.994448 1_545
