# generated using pymatgen
data_Ba2Au(CO)2
_symmetry_space_group_name_H-M   'P 1'
_cell_length_a   8.96070149
_cell_length_b   8.96070149
_cell_length_c   8.96070149
_cell_angle_alpha   140.90569472
_cell_angle_beta   140.90569472
_cell_angle_gamma   56.48067752
_symmetry_Int_Tables_number   1
_chemical_formula_structural   Ba2Au(CO)2
_chemical_formula_sum   'Ba4 Au2 C4 O4'
_cell_volume   283.82711036
_cell_formula_units_Z   2
loop_
 _symmetry_equiv_pos_site_id
 _symmetry_equiv_pos_as_xyz
  1  'x, y, z'
loop_
 _atom_site_type_symbol
 _atom_site_label
 _atom_site_symmetry_multiplicity
 _atom_site_fract_x
 _atom_site_fract_y
 _atom_site_fract_z
 _atom_site_occupancy
  Ba  Ba0  1  0.11952800  0.61952800  0.50000000  1
  Ba  Ba1  1  0.88047200  0.38047200  0.50000000  1
  Ba  Ba2  1  0.61952800  0.11952800  0.50000000  1
  Ba  Ba3  1  0.38047200  0.88047200  0.50000000  1
  Au  Au0  1  0.50000000  0.50000000  0.00000000  1
  Au  Au1  1  0.00000000  0.00000000  0.00000000  1
  C  C0  1  0.29469000  0.29469000  0.00000000  1
  C  C1  1  0.70531000  0.70531000  0.00000000  1
  C  C2  1  0.21424400  0.21424400  0.00000000  1
  C  C3  1  0.78575600  0.78575600  0.00000000  1
  O  O0  1  0.75042100  0.75042100  0.50084200  1
  O  O1  1  0.24957900  0.75042100  0.00000000  1
  O  O2  1  0.75042100  0.24957900  0.00000000  1
  O  O3  1  0.24957900  0.24957900  0.49915800  1
loop_
_geom_bond_atom_site_label_1
_geom_bond_atom_site_label_2
_geom_bond_distance
_geom_bond_site_symmetry_2
Ba0 O1 2.838235 1_556
Ba0 O2 2.838235 1_455
Ba0 O0 2.838235 1_455
Ba0 O3 2.838235 1_555
Ba0 C1 3.289805 1_455
Ba0 C1 3.289805 1_556
Ba0 C2 3.350341 1_566
Ba0 C2 3.350341 1_555
Ba1 O1 2.838235 1_656
Ba1 O3 2.838235 1_655
Ba1 O0 2.838235 1_555
Ba1 O2 2.838235 1_555
Ba1 C0 3.289805 1_656
Ba1 C0 3.289805 1_555
Ba1 C3 3.350341 1_556
Ba1 C3 3.350341 1_545
Ba2 O0 2.838235 1_545
Ba2 O2 2.838235 1_556
Ba2 O1 2.838235 1_545
Ba2 O3 2.838235 1_555
Ba2 C1 3.289805 1_545
Ba2 C1 3.289805 1_556
Ba2 C2 3.350341 1_656
Ba2 C2 3.350341 1_555
Ba3 O3 2.838235 1_565
Ba3 O0 2.838235 1_555
Ba3 O2 2.838235 1_566
Ba3 O1 2.838235 1_555
Ba3 C0 3.289805 1_566
Ba3 C0 3.289805 1_555
Ba3 C3 3.350341 1_556
Ba3 C3 3.350341 1_455
Au0 O1 2.123543 1_555
Au0 O3 2.123543 1_554
Au0 O2 2.123543 1_555
Au0 O0 2.123543 1_555
Au1 O3 2.116403 1_555
Au1 O0 2.116403 1_444
Au1 O1 2.116403 1_545
Au1 O2 2.116403 1_455
C0 C2 1.270100 1_555
C1 C3 1.270100 1_555
