# generated using pymatgen
data_Al2OsRu
_symmetry_space_group_name_H-M   'P 1'
_cell_length_a   19.63439351
_cell_length_b   16.63505784
_cell_length_c   16.63505794
_cell_angle_alpha   15.89169478
_cell_angle_beta   53.83227630
_cell_angle_gamma   53.83227662
_symmetry_Int_Tables_number   1
_chemical_formula_structural   Al2OsRu
_chemical_formula_sum   'Al16 Os8 Ru8'
_cell_volume   1194.78439496
_cell_formula_units_Z   8
loop_
 _symmetry_equiv_pos_site_id
 _symmetry_equiv_pos_as_xyz
  1  'x, y, z'
loop_
 _atom_site_type_symbol
 _atom_site_label
 _atom_site_symmetry_multiplicity
 _atom_site_fract_x
 _atom_site_fract_y
 _atom_site_fract_z
 _atom_site_occupancy
  Al  Al0_0  1  0.37446450  0.00000000  0.00000000  1
  Al  Al0_1  1  0.37446450  0.00000000  0.50000000  1
  Al  Al0_2  1  0.37446450  0.50000000  0.00000000  1
  Al  Al0_3  1  0.37446450  0.50000000  0.50000000  1
  Al  Al0_4  1  0.87446450  1.00000000  0.00000000  1
  Al  Al0_5  1  0.87446450  0.00000000  0.50000000  1
  Al  Al0_6  1  0.87446450  0.50000000  0.00000000  1
  Al  Al0_7  1  0.87446450  0.50000000  0.50000000  1
  Al  Al1_0  1  0.12553550  0.00000000  0.00000000  1
  Al  Al1_1  1  0.12553550  0.00000000  0.50000000  1
  Al  Al1_2  1  0.12553550  0.50000000  0.00000000  1
  Al  Al1_3  1  0.12553550  0.50000000  0.50000000  1
  Al  Al1_4  1  0.62553550  0.00000000  0.00000000  1
  Al  Al1_5  1  0.62553550  0.00000000  0.50000000  1
  Al  Al1_6  1  0.62553550  0.50000000  0.00000000  1
  Al  Al1_7  1  0.62553550  0.50000000  0.50000000  1
  Os  Os0_0  1  0.25000000  0.00000000  0.00000000  1
  Os  Os0_1  1  0.25000000  0.00000000  0.50000000  1
  Os  Os0_2  1  0.25000000  0.50000000  0.00000000  1
  Os  Os0_3  1  0.25000000  0.50000000  0.50000000  1
  Os  Os0_4  1  0.75000000  0.00000000  0.00000000  1
  Os  Os0_5  1  0.75000000  0.00000000  0.50000000  1
  Os  Os0_6  1  0.75000000  0.50000000  0.00000000  1
  Os  Os0_7  1  0.75000000  0.50000000  0.50000000  1
  Ru  Ru0_0  1  0.00000000  0.00000000  0.00000000  1
  Ru  Ru0_1  1  0.00000000  0.00000000  0.50000000  1
  Ru  Ru0_2  1  0.00000000  0.50000000  0.00000000  1
  Ru  Ru0_3  1  0.00000000  0.50000000  0.50000000  1
  Ru  Ru0_4  1  0.50000000  0.00000000  0.00000000  1
  Ru  Ru0_5  1  0.50000000  0.00000000  0.50000000  1
  Ru  Ru0_6  1  0.50000000  0.50000000  0.00000000  1
  Ru  Ru0_7  1  0.50000000  0.50000000  0.50000000  1
loop_
_geom_bond_atom_site_label_1
_geom_bond_atom_site_label_2
_geom_bond_distance
_geom_bond_site_symmetry_2
Al0_0 Al0_3 2.299582 1_545
Al0_0 Al0_3 2.299582 1_554
Al0_0 Os0_0 2.443785 1_555
Al0_0 Ru0_4 2.464813 1_555
Al0_1 Al0_2 2.299582 1_555
Al0_1 Al0_2 2.299582 1_546
Al0_1 Os0_1 2.443785 1_555
Al0_1 Ru0_5 2.464813 1_555
Al0_2 Os0_2 2.443785 1_555
Al0_2 Ru0_6 2.464813 1_555
Al0_3 Os0_3 2.443785 1_555
Al0_3 Ru0_7 2.464813 1_555
Al0_4 Al0_7 2.299582 1_555
Al0_4 Al0_7 2.299582 1_564
Al0_4 Os0_4 2.443785 1_565
Al0_4 Ru0_0 2.464813 1_665
Al0_5 Al0_6 2.299582 1_555
Al0_5 Al0_6 2.299582 1_546
Al0_5 Os0_5 2.443785 1_555
Al0_5 Ru0_1 2.464813 1_655
Al0_6 Os0_6 2.443785 1_555
Al0_6 Ru0_2 2.464813 1_655
Al0_7 Os0_7 2.443785 1_555
Al0_7 Ru0_3 2.464813 1_655
Al1_0 Al1_3 2.299582 1_545
Al1_0 Al1_3 2.299582 1_554
Al1_0 Os0_0 2.443785 1_555
Al1_0 Ru0_0 2.464813 1_555
Al1_1 Al1_2 2.299582 1_555
Al1_1 Al1_2 2.299582 1_546
Al1_1 Os0_1 2.443785 1_555
Al1_1 Ru0_1 2.464813 1_555
Al1_2 Os0_2 2.443785 1_555
Al1_2 Ru0_2 2.464813 1_555
Al1_3 Os0_3 2.443785 1_555
Al1_3 Ru0_3 2.464813 1_555
Al1_4 Al1_7 2.299582 1_545
Al1_4 Al1_7 2.299582 1_554
Al1_4 Os0_4 2.443785 1_555
Al1_4 Ru0_4 2.464813 1_555
Al1_5 Al1_6 2.299582 1_555
Al1_5 Al1_6 2.299582 1_546
Al1_5 Os0_5 2.443785 1_555
Al1_5 Ru0_5 2.464813 1_555
Al1_6 Os0_6 2.443785 1_555
Al1_6 Ru0_6 2.464813 1_555
Al1_7 Os0_7 2.443785 1_555
Al1_7 Ru0_7 2.464813 1_555
Os0_0 Os0_3 2.299582 1_545
Os0_0 Os0_3 2.299582 1_554
Os0_1 Os0_2 2.299582 1_555
Os0_1 Os0_2 2.299582 1_546
Os0_4 Os0_7 2.299582 1_545
Os0_4 Os0_7 2.299582 1_554
Os0_5 Os0_6 2.299582 1_555
Os0_5 Os0_6 2.299582 1_546
Ru0_0 Ru0_3 2.299582 1_545
Ru0_0 Ru0_3 2.299582 1_554
Ru0_1 Ru0_2 2.299582 1_555
Ru0_1 Ru0_2 2.299582 1_546
Ru0_4 Ru0_7 2.299582 1_545
Ru0_4 Ru0_7 2.299582 1_554
Ru0_5 Ru0_6 2.299582 1_555
Ru0_5 Ru0_6 2.299582 1_546
