# generated using pymatgen
data_Na2Nd4NCl9O
_symmetry_space_group_name_H-M   'P 1'
_cell_length_a   11.38947500
_cell_length_b   8.18088700
_cell_length_c   9.44577627
_cell_angle_alpha   72.95549735
_cell_angle_beta   90.00000000
_cell_angle_gamma   90.00000000
_symmetry_Int_Tables_number   1
_chemical_formula_structural   Na2Nd4NCl9O
_chemical_formula_sum   'Na4 Nd8 N2 Cl18 O2'
_cell_volume   841.46255809
_cell_formula_units_Z   2
loop_
 _symmetry_equiv_pos_site_id
 _symmetry_equiv_pos_as_xyz
  1  'x, y, z'
loop_
 _atom_site_type_symbol
 _atom_site_label
 _atom_site_symmetry_multiplicity
 _atom_site_fract_x
 _atom_site_fract_y
 _atom_site_fract_z
 _atom_site_occupancy
  Na  Na0  1  0.99017700  0.77082500  0.42963200  1
  Na  Na1  1  0.49017700  0.22917500  0.57036800  1
  Na  Na2  1  0.00832200  0.22817500  0.57087000  1
  Na  Na3  1  0.50832200  0.77182500  0.42913000  1
  Nd  Nd0  1  0.24803700  0.38726400  0.21884000  1
  Nd  Nd1  1  0.74803700  0.61273600  0.78116000  1
  Nd  Nd2  1  0.04931300  0.71571800  0.95057700  1
  Nd  Nd3  1  0.54931300  0.28428200  0.04942300  1
  Nd  Nd4  1  0.95963300  0.27864700  0.05087700  1
  Nd  Nd5  1  0.45963300  0.72135300  0.94912300  1
  Nd  Nd6  1  0.24778700  0.40391000  0.82921000  1
  Nd  Nd7  1  0.74778700  0.59609000  0.17079000  1
  N  N0  1  0.12589600  0.43870500  0.01472200  1
  N  N1  1  0.62589600  0.56129500  0.98527800  1
  Cl  Cl0  1  0.25026100  0.76749600  0.74339200  1
  Cl  Cl1  1  0.75026100  0.23250400  0.25660800  1
  Cl  Cl2  1  0.99533600  0.49353200  0.30194000  1
  Cl  Cl3  1  0.49533600  0.50646800  0.69806000  1
  Cl  Cl4  1  0.00135900  0.50649100  0.69745200  1
  Cl  Cl5  1  0.50135900  0.49350900  0.30254800  1
  Cl  Cl6  1  0.24761900  0.36225100  0.53214800  1
  Cl  Cl7  1  0.74761900  0.63774900  0.46785200  1
  Cl  Cl8  1  0.40315100  0.11157700  0.87864200  1
  Cl  Cl9  1  0.90315100  0.88842300  0.12135800  1
  Cl  Cl10  1  0.59688000  0.89166600  0.12415200  1
  Cl  Cl11  1  0.09688000  0.10833400  0.87584800  1
  Cl  Cl12  1  0.08908800  0.09595800  0.31505700  1
  Cl  Cl13  1  0.58908800  0.90404200  0.68494300  1
  Cl  Cl14  1  0.90951900  0.90028100  0.68930700  1
  Cl  Cl15  1  0.40951900  0.09971900  0.31069300  1
  Cl  Cl16  1  0.25040400  0.74742400  0.13884200  1
  Cl  Cl17  1  0.75040400  0.25257600  0.86115800  1
  O  O0  1  0.87722000  0.55983800  0.98545400  1
  O  O1  1  0.37722000  0.44016200  0.01454600  1
loop_
_geom_bond_atom_site_label_1
_geom_bond_atom_site_label_2
_geom_bond_distance
_geom_bond_site_symmetry_2
Nd0 O1 2.363541 1_555
Nd1 O0 2.363541 1_555
Nd2 O0 2.308737 1_455
Nd3 O1 2.308737 1_555
Nd4 O0 2.391938 1_554
Nd5 O1 2.391938 1_556
Nd6 O1 2.372817 1_556
Nd7 O0 2.372817 1_554
N0 Nd4 2.270453 1_455
N0 Nd0 2.313882 1_555
N0 Nd6 2.317610 1_554
N0 Nd2 2.336383 1_554
N1 Nd5 2.270453 1_555
N1 Nd1 2.313882 1_555
N1 Nd7 2.317610 1_556
N1 Nd3 2.336383 1_556
Cl0 Nd6 2.844609 1_555
Cl0 Nd2 2.959985 1_555
Cl0 Nd5 3.029080 1_555
Cl1 Nd7 2.844609 1_555
Cl1 Nd3 2.959985 1_555
Cl1 Nd4 3.029080 1_555
Cl2 Na2 2.820390 1_655
Cl2 Na0 2.865025 1_555
Cl2 Nd7 3.094932 1_555
Cl2 Nd0 3.171060 1_655
Cl2 Nd2 3.340724 1_654
Cl2 Nd4 3.365062 1_555
Cl3 Na3 2.820390 1_555
Cl3 Na1 2.865025 1_555
Cl3 Nd6 3.094932 1_555
Cl3 Nd1 3.171060 1_555
Cl3 Nd3 3.340724 1_556
Cl3 Nd5 3.365062 1_555
Cl4 Na0 2.808073 1_455
Cl4 Na2 2.866354 1_555
Cl4 Nd6 3.085189 1_555
Cl4 Nd1 3.179300 1_455
Cl4 Nd4 3.346204 1_456
Cl4 Nd2 3.368077 1_555
Cl5 Na1 2.808073 1_555
Cl5 Na3 2.866354 1_555
Cl5 Nd7 3.085189 1_555
Cl5 Nd0 3.179300 1_555
Cl5 Nd5 3.346204 1_554
Cl5 Nd3 3.368077 1_555
Cl6 Nd0 2.906055 1_555
Cl6 Na2 2.920594 1_555
Cl6 Nd6 2.924089 1_555
Cl6 Na1 2.952483 1_555
Cl7 Nd1 2.906055 1_555
Cl7 Na3 2.920594 1_555
Cl7 Nd7 2.924089 1_555
Cl7 Na0 2.952483 1_555
Cl8 Nd6 2.900699 1_555
Cl8 Nd3 2.950576 1_556
Cl8 Na1 2.957164 1_555
Cl8 Nd5 3.130880 1_545
Cl9 Nd7 2.900699 1_555
Cl9 Nd2 2.950576 1_654
Cl9 Na0 2.957164 1_555
Cl9 Nd4 3.130880 1_565
Cl10 Nd7 2.893230 1_555
Cl10 Nd5 2.910081 1_554
Cl10 Na3 2.936253 1_555
Cl10 Nd3 3.127180 1_565
Cl11 Nd6 2.893230 1_555
Cl11 Nd4 2.910081 1_456
Cl11 Na2 2.936253 1_555
Cl11 Nd2 3.127180 1_545
Cl12 Na0 2.797814 1_445
Cl12 Nd4 2.906586 1_455
Cl12 Nd0 2.917704 1_555
Cl12 Na2 3.063840 1_555
Cl13 Na1 2.797814 1_565
Cl13 Nd5 2.906586 1_555
Cl13 Nd1 2.917704 1_555
Cl13 Na3 3.063840 1_555
Cl14 Na2 2.820329 1_665
Cl14 Nd1 2.910772 1_555
Cl14 Nd2 2.953115 1_655
Cl14 Na0 3.082982 1_555
Cl15 Na3 2.820329 1_545
Cl15 Nd0 2.910772 1_555
Cl15 Nd3 2.953115 1_555
Cl15 Na1 3.082982 1_555
Cl16 Nd0 2.819212 1_555
Cl16 Nd2 2.957303 1_554
Cl16 Nd5 3.026500 1_554
Cl17 Nd1 2.819212 1_555
Cl17 Nd3 2.957303 1_556
Cl17 Nd4 3.026500 1_556
