# generated using pymatgen
data_Sn2Pd2Au
_symmetry_space_group_name_H-M   'P 1'
_cell_length_a   4.53628967
_cell_length_b   4.53628967
_cell_length_c   5.69743000
_cell_angle_alpha   90.00000000
_cell_angle_beta   90.00000000
_cell_angle_gamma   119.99999521
_symmetry_Int_Tables_number   1
_chemical_formula_structural   Sn2Pd2Au
_chemical_formula_sum   'Sn2 Pd2 Au1'
_cell_volume   101.53393301
_cell_formula_units_Z   1
loop_
 _symmetry_equiv_pos_site_id
 _symmetry_equiv_pos_as_xyz
  1  'x, y, z'
loop_
 _atom_site_type_symbol
 _atom_site_label
 _atom_site_symmetry_multiplicity
 _atom_site_fract_x
 _atom_site_fract_y
 _atom_site_fract_z
 _atom_site_occupancy
  Sn  Sn0  1  0.66666700  0.33333300  0.26384500  1
  Sn  Sn1  1  0.00000000  0.00000000  0.68745700  1
  Pd  Pd0  1  0.66666700  0.33333300  0.77231600  1
  Pd  Pd1  1  0.33333300  0.66666700  0.50779400  1
  Au  Au0  1  0.33333300  0.66666700  0.01858800  1
loop_
_geom_bond_atom_site_label_1
_geom_bond_atom_site_label_2
_geom_bond_distance
_geom_bond_site_symmetry_2
Pd0 Sn1 2.663277 1_655
Pd0 Sn1 2.663281 1_665
Pd0 Sn1 2.663281 1_555
Pd0 Sn0 2.800452 1_556
Pd0 Sn0 2.896978 1_555
Pd0 Pd1 3.021694 1_545
Pd0 Pd1 3.021694 1_655
Pd0 Pd1 3.021700 1_555
Pd1 Sn1 2.811954 1_565
Pd1 Sn1 2.811958 1_665
Pd1 Sn1 2.811958 1_555
Pd1 Sn0 2.964974 1_455
Pd1 Sn0 2.964974 1_565
Pd1 Sn0 2.964980 1_555
Au0 Pd1 2.787217 1_555
Au0 Pd1 2.910213 1_554
Au0 Sn0 2.968474 1_455
Au0 Sn0 2.968474 1_565
Au0 Sn0 2.968481 1_555
Au0 Pd0 2.971201 1_454
Au0 Pd0 2.971201 1_564
Au0 Pd0 2.971207 1_554
Au0 Sn1 3.227776 1_564
Au0 Sn1 3.227779 1_664
Au0 Sn1 3.227779 1_554
