# generated using pymatgen
data_Ho4Co3
_symmetry_space_group_name_H-M   'P 1'
_cell_length_a   4.04348636
_cell_length_b   11.13594434
_cell_length_c   11.13575248
_cell_angle_alpha   60.00332720
_cell_angle_beta   90.00003881
_cell_angle_gamma   90.00060509
_symmetry_Int_Tables_number   1
_chemical_formula_structural   Ho4Co3
_chemical_formula_sum   'Ho12 Co9'
_cell_volume   434.25796627
_cell_formula_units_Z   3
loop_
 _symmetry_equiv_pos_site_id
 _symmetry_equiv_pos_as_xyz
  1  'x, y, z'
loop_
 _atom_site_type_symbol
 _atom_site_label
 _atom_site_symmetry_multiplicity
 _atom_site_fract_x
 _atom_site_fract_y
 _atom_site_fract_z
 _atom_site_occupancy
  Ho  Ho0  1  0.74960748  0.61959445  0.86635259  1
  Ho  Ho1  1  0.74962143  0.51403859  0.61957953  1
  Ho  Ho2  1  0.74961194  0.86631914  0.51406167  1
  Ho  Ho3  1  0.25039252  0.38040555  0.13364741  1
  Ho  Ho4  1  0.25037857  0.48596141  0.38042047  1
  Ho  Ho5  1  0.25038806  0.13368086  0.48593833  1
  Ho  Ho6  1  0.75020531  0.77912077  0.24912465  1
  Ho  Ho7  1  0.75021472  0.97170254  0.77918234  1
  Ho  Ho8  1  0.75021591  0.24913548  0.97173404  1
  Ho  Ho9  1  0.24979469  0.22087923  0.75087535  1
  Ho  Ho10  1  0.24978528  0.02829746  0.22081766  1
  Ho  Ho11  1  0.24978409  0.75086452  0.02826596  1
  Co  Co0  1  0.74873213  0.33333891  0.33335558  1
  Co  Co1  1  0.25126787  0.66666109  0.66664442  1
  Co  Co2  1  0.74865366  0.28432771  0.55768385  1
  Co  Co3  1  0.74864904  0.15805432  0.28426241  1
  Co  Co4  1  0.74863147  0.55771286  0.15800968  1
  Co  Co5  1  0.25134634  0.71567229  0.44231615  1
  Co  Co6  1  0.25135096  0.84194568  0.71573759  1
  Co  Co7  1  0.25136853  0.44228714  0.84199032  1
  Co  Co8  1  0.50000000  0.00000000  -0.00000000  1
loop_
_geom_bond_atom_site_label_1
_geom_bond_atom_site_label_2
_geom_bond_distance
_geom_bond_site_symmetry_2
Co0 Co2 2.274848 1_555
Co0 Co3 2.275088 1_555
Co0 Co4 2.275397 1_555
Co0 Ho5 2.848394 1_555
Co0 Ho4 2.848619 1_555
Co0 Ho3 2.848738 1_555
Co0 Ho5 2.857915 1_655
Co0 Ho4 2.858027 1_655
Co0 Ho3 2.858246 1_655
Co1 Co5 2.274848 1_555
Co1 Co6 2.275088 1_555
Co1 Co7 2.275397 1_555
Co1 Ho2 2.848394 1_555
Co1 Ho1 2.848619 1_555
Co1 Ho0 2.848738 1_555
Co1 Ho2 2.857915 1_455
Co1 Ho1 2.858027 1_455
Co1 Ho0 2.858246 1_455
Co2 Ho9 2.770624 1_555
Co2 Ho9 2.777357 1_655
Co2 Ho4 2.926738 1_555
Co2 Ho4 2.936327 1_655
Co2 Ho1 2.963387 1_555
Co2 Ho5 2.975207 1_555
Co2 Ho5 2.984748 1_655
Co2 Ho7 3.101253 1_545
Co3 Ho10 2.770681 1_555
Co3 Ho10 2.777401 1_655
Co3 Ho5 2.926927 1_555
Co3 Ho5 2.936627 1_655
Co3 Ho2 2.964814 1_545
Co3 Ho3 2.975003 1_555
Co3 Ho3 2.984536 1_655
Co3 Ho8 3.100208 1_554
Co4 Ho11 2.770431 1_555
Co4 Ho11 2.777194 1_655
Co4 Ho3 2.926844 1_555
Co4 Ho3 2.936694 1_655
Co4 Ho0 2.964009 1_554
Co4 Ho4 2.975348 1_555
Co4 Ho4 2.984942 1_655
Co4 Ho6 3.100008 1_555
Co5 Ho6 2.770624 1_555
Co5 Ho6 2.777357 1_455
Co5 Ho1 2.926738 1_555
Co5 Ho1 2.936327 1_455
Co5 Ho4 2.963387 1_555
Co5 Ho2 2.975207 1_555
Co5 Ho2 2.984748 1_455
Co5 Ho10 3.101253 1_565
Co6 Ho7 2.770681 1_555
Co6 Ho7 2.777401 1_455
Co6 Ho2 2.926927 1_555
Co6 Ho2 2.936627 1_455
Co6 Ho5 2.964814 1_565
Co6 Ho0 2.975003 1_555
Co6 Ho0 2.984536 1_455
Co6 Ho11 3.100208 1_556
Co7 Ho8 2.770431 1_555
Co7 Ho8 2.777194 1_455
Co7 Ho0 2.926844 1_555
Co7 Ho0 2.936694 1_455
Co7 Ho3 2.964009 1_556
Co7 Ho1 2.975348 1_555
Co7 Ho1 2.984942 1_455
Co7 Ho9 3.100008 1_555
Co8 Ho10 2.818556 1_555
Co8 Ho7 2.818556 1_544
Co8 Ho8 2.818960 1_554
Co8 Ho11 2.818960 1_545
Co8 Ho9 2.819016 1_554
Co8 Ho6 2.819016 1_545
