# generated using pymatgen
data_Mg5Si9
_symmetry_space_group_name_H-M   'P 1'
_cell_length_a   5.48836100
_cell_length_b   7.16104873
_cell_length_c   13.76919105
_cell_angle_alpha   77.87493083
_cell_angle_beta   85.39905784
_cell_angle_gamma   67.80183448
_symmetry_Int_Tables_number   1
_chemical_formula_structural   Mg5Si9
_chemical_formula_sum   'Mg10 Si18'
_cell_volume   489.87502342
_cell_formula_units_Z   2
loop_
 _symmetry_equiv_pos_site_id
 _symmetry_equiv_pos_as_xyz
  1  'x, y, z'
loop_
 _atom_site_type_symbol
 _atom_site_label
 _atom_site_symmetry_multiplicity
 _atom_site_fract_x
 _atom_site_fract_y
 _atom_site_fract_z
 _atom_site_occupancy
  Mg  Mg0  1  0.86219900  0.71985300  0.67901500  1
  Mg  Mg1  1  0.89412700  0.28069700  0.41807500  1
  Mg  Mg2  1  0.47649700  0.56530600  0.55116400  1
  Mg  Mg3  1  0.38015600  0.31157700  0.41783200  1
  Mg  Mg4  1  0.24694100  0.97888300  0.61531300  1
  Mg  Mg5  1  0.86180900  0.83925500  0.44675500  1
  Mg  Mg6  1  0.31182300  0.66170400  0.13359200  1
  Mg  Mg7  1  0.95646400  0.42451800  0.87008700  1
  Mg  Mg8  1  0.62187500  0.94175300  0.15101100  1
  Mg  Mg9  1  0.54634300  0.17246500  0.92258400  1
  Si  Si0  1  0.77475600  0.28264300  0.05811400  1
  Si  Si1  1  0.43453600  0.58289600  0.94554000  1
  Si  Si2  1  0.09854500  0.95352600  0.25506500  1
  Si  Si3  1  0.84173500  0.25953900  0.71940100  1
  Si  Si4  1  0.53355400  0.64423900  0.32206600  1
  Si  Si5  1  0.29562900  0.27459200  0.71951300  1
  Si  Si6  1  0.21354900  0.28580800  0.22974700  1
  Si  Si7  1  0.51367400  0.88815400  0.82948600  1
  Si  Si8  1  0.98483600  0.62388600  0.29185600  1
  Si  Si9  1  0.02864100  0.44238700  0.56340400  1
  Si  Si10  1  0.97354600  0.88633700  0.83173100  1
  Si  Si11  1  0.10754600  0.98383400  0.97446900  1
  Si  Si12  1  0.67034400  0.26045400  0.23715700  1
  Si  Si13  1  0.41089100  0.57480900  0.76470400  1
  Si  Si14  1  0.15811000  0.38394300  0.04953400  1
  Si  Si15  1  0.79244600  0.72610200  0.99752300  1
  Si  Si16  1  0.68343200  0.11795600  0.59310400  1
  Si  Si17  1  0.32607500  0.93286400  0.41196400  1
loop_
_geom_bond_atom_site_label_1
_geom_bond_atom_site_label_2
_geom_bond_distance
_geom_bond_site_symmetry_2
Mg0 Si9 2.653380 1_655
Mg0 Si16 2.673049 1_565
Mg0 Si10 2.833071 1_555
Mg0 Si7 2.841702 1_555
Mg0 Si13 3.038303 1_655
Mg0 Si13 3.092974 1_555
Mg0 Si5 3.141817 1_655
Mg1 Si17 2.725003 1_645
Mg1 Si4 2.742681 1_555
Mg1 Mg3 2.745179 1_555
Mg1 Mg3 2.758344 1_655
Mg1 Si9 2.783201 1_655
Mg1 Si16 2.809769 1_555
Mg1 Si8 2.880876 1_555
Mg1 Si12 2.917555 1_555
Mg1 Si6 3.013021 1_655
Mg2 Si17 2.788501 1_555
Mg2 Si9 2.826726 1_655
Mg2 Si9 2.889815 1_555
Mg2 Si16 2.909404 1_555
Mg2 Si13 2.945366 1_555
Mg2 Si3 3.078369 1_555
Mg2 Si4 3.097518 1_555
Mg2 Si5 3.139705 1_555
Mg3 Si9 2.723955 1_555
Mg3 Si16 2.830571 1_555
Mg3 Si8 2.832934 1_455
Mg3 Si4 2.853110 1_555
Mg3 Si17 2.855454 1_545
Mg3 Si12 2.857595 1_555
Mg3 Si6 2.878421 1_555
Mg4 Si17 2.867287 1_555
Mg4 Si16 2.889083 1_465
Mg4 Si3 2.891457 1_465
Mg4 Si5 2.894736 1_565
Mg4 Si16 2.895109 1_565
Mg4 Si9 3.016473 1_565
Mg4 Si13 3.040208 1_555
Mg4 Si10 3.282519 1_455
Mg5 Si8 2.783419 1_555
Mg5 Si9 2.801268 1_655
Mg5 Si17 2.815307 1_555
Mg5 Si17 2.851555 1_655
Mg5 Si2 2.944516 1_655
Mg5 Si16 2.983101 1_565
Mg6 Si1 2.742914 1_554
Mg6 Si8 2.744940 1_455
Mg6 Si11 2.774048 1_554
Mg6 Si2 2.800118 1_555
Mg6 Si14 2.898173 1_555
Mg6 Si4 2.913179 1_555
Mg6 Si12 2.935677 1_555
Mg6 Si6 2.962262 1_555
Mg7 Si14 2.703404 1_656
Mg7 Si5 2.778854 1_655
Mg7 Si3 2.810446 1_555
Mg7 Si0 2.824178 1_556
Mg7 Si1 2.851994 1_555
Mg7 Si15 2.902230 1_555
Mg7 Si11 3.003436 1_645
Mg7 Mg9 3.110217 1_655
Mg7 Si13 3.136174 1_555
Mg7 Si13 3.205581 1_655
Mg7 Si10 3.273727 1_555
Mg7 Mg9 3.332824 1_555
Mg8 Si15 2.772895 1_554
Mg8 Si8 2.872217 1_555
Mg8 Si12 2.886681 1_565
Mg8 Si0 2.891900 1_565
Mg8 Si4 2.968269 1_555
Mg8 Si6 2.971206 1_565
Mg8 Si2 3.084979 1_555
Mg8 Si2 3.118134 1_655
Mg8 Mg9 3.209787 1_564
Mg9 Si7 2.688797 1_545
Mg9 Si0 2.723554 1_556
Mg9 Si14 2.822291 1_556
Mg9 Si1 2.848020 1_555
Mg9 Si10 2.869969 1_545
Mg9 Si11 2.936965 1_645
Mg9 Si15 2.946515 1_545
Mg9 Si5 3.040454 1_555
Mg9 Si13 3.096666 1_555
Mg9 Si11 3.148256 1_545
Mg9 Si3 3.185506 1_555
Si0 Si14 2.458523 1_655
Si0 Si12 2.471604 1_555
Si0 Si1 2.557908 1_554
Si0 Si11 2.643066 1_644
Si1 Si13 2.517582 1_555
Si1 Si7 2.580553 1_555
Si1 Si14 2.609515 1_556
Si1 Si15 2.734719 1_555
Si1 Si11 2.845192 1_555
Si1 Si10 2.937700 1_455
Si2 Si8 2.603549 1_455
Si2 Si6 2.633054 1_565
Si2 Si4 2.637421 1_555
Si3 Si5 2.533963 1_655
Si3 Si9 2.619237 1_655
Si4 Si8 2.432327 1_555
Si5 Si9 2.510214 1_555
Si5 Si7 2.722317 1_545
Si6 Si8 2.563096 1_455
Si10 Si11 2.467266 1_655
Si10 Si7 2.521696 1_555
Si10 Si15 2.629298 1_555
Si10 Si3 2.653316 1_565
Si10 Si13 2.837842 1_655
Si10 Si7 2.967014 1_655
Si11 Si7 2.851269 1_555
Si11 Si15 2.928394 1_455
Si12 Si6 2.453164 1_555
Si12 Si2 2.525264 1_645
Si13 Si5 2.657458 1_555
Si13 Si3 2.720051 1_555
Si13 Si7 2.833176 1_555
Si14 Si6 2.443506 1_555
Si14 Si15 2.514329 1_454
Si16 Si3 2.540799 1_555
Si16 Si5 2.690659 1_555
Si17 Si4 2.484152 1_555
Si17 Si2 2.531290 1_555
