# generated using pymatgen
data_TmBeCu4
_symmetry_space_group_name_H-M   'P 1'
_cell_length_a   4.74833776
_cell_length_b   4.74833776
_cell_length_c   4.74833759
_cell_angle_alpha   61.96237818
_cell_angle_beta   61.96237818
_cell_angle_gamma   61.96237888
_symmetry_Int_Tables_number   1
_chemical_formula_structural   TmBeCu4
_chemical_formula_sum   'Tm1 Be1 Cu4'
_cell_volume   79.02618565
_cell_formula_units_Z   1
loop_
 _symmetry_equiv_pos_site_id
 _symmetry_equiv_pos_as_xyz
  1  'x, y, z'
loop_
 _atom_site_type_symbol
 _atom_site_label
 _atom_site_symmetry_multiplicity
 _atom_site_fract_x
 _atom_site_fract_y
 _atom_site_fract_z
 _atom_site_occupancy
  Tm  Tm0  1  0.99801140  0.99801140  0.99801140  1
  Be  Be0  1  0.37959957  0.37959957  0.37959957  1
  Cu  Cu0  1  0.37752695  0.37752695  0.87204814  1
  Cu  Cu1  1  0.87204814  0.37752695  0.37752695  1
  Cu  Cu2  1  0.37752695  0.87204814  0.37752695  1
  Cu  Cu3  1  0.74528699  0.74528699  0.74528699  1
loop_
_geom_bond_atom_site_label_1
_geom_bond_atom_site_label_2
_geom_bond_distance
_geom_bond_site_symmetry_2
Be0 Cu0 2.329103 1_555
Be0 Cu1 2.329103 1_555
Be0 Cu2 2.329103 1_555
Be0 Cu0 2.419319 1_554
Be0 Cu2 2.419319 1_545
Be0 Cu1 2.419319 1_455
Be0 Cu3 2.846595 1_554
Be0 Cu3 2.846595 1_455
Be0 Cu3 2.846595 1_545
Be0 Tm0 2.875988 1_445
Be0 Tm0 2.875988 1_544
Be0 Tm0 2.875988 1_454
Cu0 Cu2 2.417455 1_555
Cu0 Cu1 2.417455 1_555
Cu0 Cu1 2.471021 1_456
Cu0 Cu2 2.471021 1_546
Cu0 Cu3 2.711375 1_555
Cu0 Tm0 2.806957 1_445
Cu0 Tm0 2.817394 1_545
Cu0 Tm0 2.817394 1_455
Cu0 Cu3 2.864689 1_545
Cu0 Cu3 2.864689 1_455
Cu1 Cu2 2.417455 1_555
Cu1 Cu2 2.471021 1_645
Cu1 Cu3 2.711375 1_555
Cu1 Tm0 2.806956 1_544
Cu1 Tm0 2.817394 1_545
Cu1 Tm0 2.817394 1_554
Cu1 Cu3 2.864689 1_554
Cu1 Cu3 2.864689 1_545
Cu2 Cu3 2.711375 1_555
Cu2 Tm0 2.806956 1_454
Cu2 Tm0 2.817394 1_455
Cu2 Tm0 2.817394 1_554
Cu2 Cu3 2.864689 1_554
Cu2 Cu3 2.864689 1_455
Cu3 Tm0 2.895088 1_555
Cu3 Tm0 2.969585 1_554
Cu3 Tm0 2.969585 1_455
Cu3 Tm0 2.969585 1_545
