# generated using pymatgen
data_YMgVS4
_symmetry_space_group_name_H-M   'P 1'
_cell_length_a   7.65711938
_cell_length_b   7.57323679
_cell_length_c   7.56755424
_cell_angle_alpha   59.55370507
_cell_angle_beta   59.62284310
_cell_angle_gamma   59.60501838
_symmetry_Int_Tables_number   1
_chemical_formula_structural   YMgVS4
_chemical_formula_sum   'Y2 Mg2 V2 S8'
_cell_volume   307.43926107
_cell_formula_units_Z   2
loop_
 _symmetry_equiv_pos_site_id
 _symmetry_equiv_pos_as_xyz
  1  'x, y, z'
loop_
 _atom_site_type_symbol
 _atom_site_label
 _atom_site_symmetry_multiplicity
 _atom_site_fract_x
 _atom_site_fract_y
 _atom_site_fract_z
 _atom_site_occupancy
  Y  Y0  1  0.50000400  0.50001400  0.49997900  1
  Y  Y1  1  0.99999600  0.49998800  0.50000900  1
  Mg  Mg0  1  0.87706600  0.87300400  0.87286100  1
  Mg  Mg1  1  0.12293500  0.12698800  0.12714300  1
  V  V0  1  0.50000400  0.49999000  0.99999900  1
  V  V1  1  0.49999000  0.00004800  0.50002300  1
  S  S0  1  0.71157000  0.75447000  0.75426300  1
  S  S1  1  0.26870700  0.23133700  0.73117200  1
  S  S2  1  0.26877600  0.73113500  0.23145600  1
  S  S3  1  0.72028100  0.24559000  0.24563500  1
  S  S4  1  0.73120900  0.26885800  0.76853300  1
  S  S5  1  0.27972100  0.75440200  0.75435400  1
  S  S6  1  0.28843300  0.24551200  0.24574400  1
  S  S7  1  0.73131100  0.76865800  0.26883200  1
loop_
_geom_bond_atom_site_label_1
_geom_bond_atom_site_label_2
_geom_bond_distance
_geom_bond_site_symmetry_2
Mg0 S7 2.441212 1_556
Mg0 S4 2.441932 1_565
Mg0 S5 2.516858 1_655
Mg0 S0 2.516963 1_555
Mg1 S1 2.441211 1_554
Mg1 S2 2.441933 1_545
Mg1 S3 2.516860 1_455
Mg1 S6 2.516934 1_555
S0 V1 2.502479 1_565
S0 V0 2.505409 1_555
S0 Y1 2.728961 1_555
S1 V1 2.469289 1_555
S1 Y1 2.688924 1_455
S1 Y0 2.691246 1_555
S2 V0 2.470164 1_554
S2 Y0 2.688107 1_555
S2 Y1 2.690768 1_455
S3 V0 2.503057 1_554
S3 V1 2.504207 1_555
S3 Y0 2.729237 1_555
S4 V0 2.470142 1_555
S4 Y0 2.688142 1_555
S4 Y1 2.690714 1_555
S5 V0 2.503140 1_555
S5 V1 2.504620 1_565
S5 Y0 2.729204 1_555
S6 V1 2.502553 1_555
S6 V0 2.505425 1_554
S6 Y1 2.728994 1_455
S7 V1 2.470052 1_565
S7 Y1 2.688858 1_555
S7 Y0 2.691134 1_555
