# generated using pymatgen
data_ZnCu3H6(ClO3)2
_symmetry_space_group_name_H-M   'P 1'
_cell_length_a   6.15771648
_cell_length_b   6.15771648
_cell_length_c   6.15771611
_cell_angle_alpha   69.08901542
_cell_angle_beta   69.08901542
_cell_angle_gamma   69.08901429
_symmetry_Int_Tables_number   1
_chemical_formula_structural   ZnCu3H6(ClO3)2
_chemical_formula_sum   'Zn1 Cu3 H6 Cl2 O6'
_cell_volume   196.56690650
_cell_formula_units_Z   1
loop_
 _symmetry_equiv_pos_site_id
 _symmetry_equiv_pos_as_xyz
  1  'x, y, z'
loop_
 _atom_site_type_symbol
 _atom_site_label
 _atom_site_symmetry_multiplicity
 _atom_site_fract_x
 _atom_site_fract_y
 _atom_site_fract_z
 _atom_site_occupancy
  Zn  Zn0  1  0.50000000  0.50000000  0.50000000  1
  Cu  Cu0  1  0.50000000  0.50000000  0.00000000  1
  Cu  Cu1  1  0.50000000  0.00000000  0.50000000  1
  Cu  Cu2  1  0.00000000  0.50000000  0.50000000  1
  H  H0  1  0.17761100  0.77763300  0.77763300  1
  H  H1  1  0.77763300  0.77763300  0.17761100  1
  H  H2  1  0.77763300  0.17761100  0.77763300  1
  H  H3  1  0.82238900  0.22236700  0.22236700  1
  H  H4  1  0.22236700  0.22236700  0.82238900  1
  H  H5  1  0.22236700  0.82238900  0.22236700  1
  Cl  Cl0  1  0.81961300  0.81961300  0.81961300  1
  Cl  Cl1  1  0.18038700  0.18038700  0.18038700  1
  O  O0  1  0.35690500  0.73262300  0.73262300  1
  O  O1  1  0.73262300  0.73262300  0.35690500  1
  O  O2  1  0.73262300  0.35690500  0.73262300  1
  O  O3  1  0.64309500  0.26737700  0.26737700  1
  O  O4  1  0.26737700  0.26737700  0.64309500  1
  O  O5  1  0.26737700  0.64309500  0.26737700  1
loop_
_geom_bond_atom_site_label_1
_geom_bond_atom_site_label_2
_geom_bond_distance
_geom_bond_site_symmetry_2
Cu0 O5 1.997522 1_555
Cu0 O2 1.997522 1_554
Cu0 O3 1.997522 1_555
Cu0 O0 1.997522 1_554
Cu1 O4 1.997522 1_555
Cu1 O1 1.997522 1_545
Cu1 O3 1.997522 1_555
Cu1 O0 1.997522 1_545
Cu2 O4 1.997522 1_555
Cu2 O1 1.997522 1_455
Cu2 O5 1.997522 1_555
Cu2 O2 1.997522 1_455
H0 O0 0.995247 1_555
H1 O1 0.995247 1_555
H2 O2 0.995247 1_555
H3 O3 0.995247 1_555
H4 O4 0.995247 1_555
H5 O5 0.995247 1_555
Cl0 H1 2.056061 1_556
Cl0 H2 2.056061 1_565
Cl0 H0 2.056061 1_655
Cl0 Cu2 2.936743 1_655
Cl0 Cu1 2.936743 1_565
Cl0 Cu0 2.936743 1_556
Cl1 H4 2.056061 1_554
Cl1 H5 2.056061 1_545
Cl1 H3 2.056061 1_455
Cl1 Cu1 2.936743 1_555
Cl1 Cu2 2.936743 1_555
Cl1 Cu0 2.936743 1_555
O0 Zn0 2.131389 1_555
O1 Zn0 2.131389 1_555
O2 Zn0 2.131389 1_555
O3 Zn0 2.131389 1_555
O4 Zn0 2.131389 1_555
O5 Zn0 2.131389 1_555
