# generated using pymatgen
data_Li2MnO2F
_symmetry_space_group_name_H-M   'P 1'
_cell_length_a   2.94620972
_cell_length_b   3.04886165
_cell_length_c   14.52899634
_cell_angle_alpha   89.91884942
_cell_angle_beta   88.08410509
_cell_angle_gamma   58.81920166
_symmetry_Int_Tables_number   1
_chemical_formula_structural   Li2MnO2F
_chemical_formula_sum   'Li4 Mn2 O4 F2'
_cell_volume   111.57279757
_cell_formula_units_Z   2
loop_
 _symmetry_equiv_pos_site_id
 _symmetry_equiv_pos_as_xyz
  1  'x, y, z'
loop_
 _atom_site_type_symbol
 _atom_site_label
 _atom_site_symmetry_multiplicity
 _atom_site_fract_x
 _atom_site_fract_y
 _atom_site_fract_z
 _atom_site_occupancy
  Li  Li0  1  0.98580000  0.99987000  0.99334300  1
  Li  Li1  1  0.33560300  0.32504600  0.83309800  1
  Li  Li2  1  0.33210800  0.34820900  0.33358800  1
  Li  Li3  1  0.68463900  0.65156600  0.67312100  1
  Mn  Mn0  1  0.00732000  0.00065800  0.50299100  1
  Mn  Mn1  1  0.65709000  0.67779000  0.16403100  1
  O  O0  1  0.00896700  0.05978300  0.24248700  1
  O  O1  1  0.30412700  0.29775700  0.08552500  1
  O  O2  1  0.35898000  0.26775100  0.58126300  1
  O  O3  1  0.65550400  0.73362000  0.42447200  1
  F  F0  1  0.00734900  0.98277900  0.75283400  1
  F  F1  1  0.66251300  0.65517100  0.91324800  1
loop_
_geom_bond_atom_site_label_1
_geom_bond_atom_site_label_2
_geom_bond_distance
_geom_bond_site_symmetry_2
Li0 O1 2.113676 1_666
Li0 O1 2.141716 1_566
Li0 O1 2.291879 1_656
Li2 O0 2.094294 1_555
Li2 O3 2.095461 1_545
Li2 O3 2.121550 1_455
Li2 O0 2.124361 1_655
Li2 O3 2.297830 1_555
Li2 O0 2.302694 1_565
Li3 O2 2.107883 1_565
Li3 O2 2.125431 1_655
Li3 O2 2.307322 1_555
Mn0 O2 1.962586 1_455
Mn0 O3 1.964228 1_545
Mn0 O2 1.996210 1_555
Mn0 O3 1.998551 1_445
Mn0 O2 2.243689 1_545
Mn0 O3 2.245670 1_455
Mn1 O1 1.961817 1_655
Mn1 O0 1.964020 1_565
Mn1 O0 1.993646 1_655
Mn1 O1 1.998267 1_565
Mn1 O1 2.248470 1_555
Mn1 O0 2.250222 1_665
F0 Li1 2.018991 1_465
F0 Li3 2.026100 1_555
F0 Li3 2.082339 1_455
F0 Li1 2.092174 1_555
F0 Li3 2.112451 1_465
F0 Li1 2.123209 1_565
F1 Li1 2.020837 1_655
F1 Li0 2.027894 1_455
F1 Li0 2.085698 1_545
F1 Li1 2.092578 1_555
F1 Li0 2.116591 1_555
F1 Li1 2.118090 1_565
