# generated using pymatgen
data_Nb(NCl3)2
_symmetry_space_group_name_H-M   'P 1'
_cell_length_a   7.14864733
_cell_length_b   7.14864733
_cell_length_c   7.14864733
_cell_angle_alpha   60.00000000
_cell_angle_beta   60.00000000
_cell_angle_gamma   60.00000000
_symmetry_Int_Tables_number   1
_chemical_formula_structural   Nb(NCl3)2
_chemical_formula_sum   'Nb1 N2 Cl6'
_cell_volume   258.31915887
_cell_formula_units_Z   1
loop_
 _symmetry_equiv_pos_site_id
 _symmetry_equiv_pos_as_xyz
  1  'x, y, z'
loop_
 _atom_site_type_symbol
 _atom_site_label
 _atom_site_symmetry_multiplicity
 _atom_site_fract_x
 _atom_site_fract_y
 _atom_site_fract_z
 _atom_site_occupancy
  Nb  Nb0  1  0.00000000  0.00000000  0.00000000  1
  N  N0  1  0.25000000  0.25000000  0.25000000  1
  N  N1  1  0.75000000  0.75000000  0.75000000  1
  Cl  Cl0  1  0.76532800  0.23467200  0.23467200  1
  Cl  Cl1  1  0.23467200  0.76532800  0.76532800  1
  Cl  Cl2  1  0.23467200  0.76532800  0.23467200  1
  Cl  Cl3  1  0.76532800  0.23467200  0.76532800  1
  Cl  Cl4  1  0.23467200  0.23467200  0.76532800  1
  Cl  Cl5  1  0.76532800  0.76532800  0.23467200  1
loop_
_geom_bond_atom_site_label_1
_geom_bond_atom_site_label_2
_geom_bond_distance
_geom_bond_site_symmetry_2
Cl0 Nb0 2.372467 1_655
Cl1 Nb0 2.372467 1_566
Cl2 Nb0 2.372467 1_565
Cl3 Nb0 2.372467 1_656
Cl4 Nb0 2.372467 1_556
Cl5 Nb0 2.372467 1_665
