# generated using pymatgen
data_Al2Cd3(SiO4)3
_symmetry_space_group_name_H-M   'P 1'
_cell_length_a   10.36994580
_cell_length_b   10.36994580
_cell_length_c   10.36994580
_cell_angle_alpha   109.47122063
_cell_angle_beta   109.47122063
_cell_angle_gamma   109.47122063
_symmetry_Int_Tables_number   1
_chemical_formula_structural   Al2Cd3(SiO4)3
_chemical_formula_sum   'Al8 Cd12 Si12 O48'
_cell_volume   858.43530164
_cell_formula_units_Z   4
loop_
 _symmetry_equiv_pos_site_id
 _symmetry_equiv_pos_as_xyz
  1  'x, y, z'
loop_
 _atom_site_type_symbol
 _atom_site_label
 _atom_site_symmetry_multiplicity
 _atom_site_fract_x
 _atom_site_fract_y
 _atom_site_fract_z
 _atom_site_occupancy
  Al  Al0  1  0.50000000  0.50000000  0.00000000  1
  Al  Al1  1  0.00000000  0.50000000  0.50000000  1
  Al  Al2  1  0.50000000  0.50000000  0.50000000  1
  Al  Al3  1  0.00000000  0.00000000  0.50000000  1
  Al  Al4  1  0.00000000  0.50000000  0.00000000  1
  Al  Al5  1  0.50000000  0.00000000  0.00000000  1
  Al  Al6  1  0.00000000  0.00000000  0.00000000  1
  Al  Al7  1  0.50000000  0.00000000  0.50000000  1
  Cd  Cd0  1  0.87500000  0.62500000  0.25000000  1
  Cd  Cd1  1  0.62500000  0.25000000  0.87500000  1
  Cd  Cd2  1  0.87500000  0.75000000  0.62500000  1
  Cd  Cd3  1  0.75000000  0.62500000  0.87500000  1
  Cd  Cd4  1  0.25000000  0.87500000  0.62500000  1
  Cd  Cd5  1  0.62500000  0.87500000  0.75000000  1
  Cd  Cd6  1  0.12500000  0.37500000  0.75000000  1
  Cd  Cd7  1  0.37500000  0.75000000  0.12500000  1
  Cd  Cd8  1  0.12500000  0.25000000  0.37500000  1
  Cd  Cd9  1  0.25000000  0.37500000  0.12500000  1
  Cd  Cd10  1  0.75000000  0.12500000  0.37500000  1
  Cd  Cd11  1  0.37500000  0.12500000  0.25000000  1
  Si  Si0  1  0.87500000  0.25000000  0.12500000  1
  Si  Si1  1  0.62500000  0.75000000  0.37500000  1
  Si  Si2  1  0.75000000  0.37500000  0.62500000  1
  Si  Si3  1  0.62500000  0.37500000  0.25000000  1
  Si  Si4  1  0.37500000  0.62500000  0.75000000  1
  Si  Si5  1  0.12500000  0.75000000  0.87500000  1
  Si  Si6  1  0.75000000  0.87500000  0.12500000  1
  Si  Si7  1  0.37500000  0.25000000  0.62500000  1
  Si  Si8  1  0.25000000  0.62500000  0.37500000  1
  Si  Si9  1  0.87500000  0.12500000  0.75000000  1
  Si  Si10  1  0.25000000  0.12500000  0.87500000  1
  Si  Si11  1  0.12500000  0.87500000  0.25000000  1
  O  O0  1  0.68873700  0.08154800  0.69452800  1
  O  O1  1  0.10718900  0.99420900  0.68873700  1
  O  O2  1  0.69452800  0.50579100  0.61298000  1
  O  O3  1  0.61298000  0.69452800  0.50579100  1
  O  O4  1  0.88702000  0.39281100  0.08154800  1
  O  O5  1  0.08154800  0.88702000  0.39281100  1
  O  O6  1  0.99420900  0.68873700  0.10718900  1
  O  O7  1  0.41845200  0.10718900  0.61298000  1
  O  O8  1  0.39281100  0.81126300  0.50579100  1
  O  O9  1  0.99420900  0.80547200  0.88702000  1
  O  O10  1  0.10718900  0.61298000  0.41845200  1
  O  O11  1  0.50579100  0.39281100  0.81126300  1
  O  O12  1  0.80547200  0.88702000  0.99420900  1
  O  O13  1  0.69452800  0.68873700  0.08154800  1
  O  O14  1  0.08154800  0.69452800  0.68873700  1
  O  O15  1  0.61298000  0.41845200  0.10718900  1
  O  O16  1  0.80547200  0.41845200  0.81126300  1
  O  O17  1  0.81126300  0.50579100  0.39281100  1
  O  O18  1  0.81126300  0.80547200  0.41845200  1
  O  O19  1  0.88702000  0.99420900  0.80547200  1
  O  O20  1  0.41845200  0.81126300  0.80547200  1
  O  O21  1  0.39281100  0.08154800  0.88702000  1
  O  O22  1  0.68873700  0.10718900  0.99420900  1
  O  O23  1  0.50579100  0.61298000  0.69452800  1
  O  O24  1  0.31126300  0.91845200  0.30547200  1
  O  O25  1  0.89281100  0.00579100  0.31126300  1
  O  O26  1  0.30547200  0.49420900  0.38702000  1
  O  O27  1  0.38702000  0.30547200  0.49420900  1
  O  O28  1  0.11298000  0.60718900  0.91845200  1
  O  O29  1  0.91845200  0.11298000  0.60718900  1
  O  O30  1  0.00579100  0.31126300  0.89281100  1
  O  O31  1  0.58154800  0.89281100  0.38702000  1
  O  O32  1  0.60718900  0.18873700  0.49420900  1
  O  O33  1  0.00579100  0.19452800  0.11298000  1
  O  O34  1  0.89281100  0.38702000  0.58154800  1
  O  O35  1  0.49420900  0.60718900  0.18873700  1
  O  O36  1  0.19452800  0.11298000  0.00579100  1
  O  O37  1  0.30547200  0.31126300  0.91845200  1
  O  O38  1  0.91845200  0.30547200  0.31126300  1
  O  O39  1  0.38702000  0.58154800  0.89281100  1
  O  O40  1  0.19452800  0.58154800  0.18873700  1
  O  O41  1  0.18873700  0.49420900  0.60718900  1
  O  O42  1  0.18873700  0.19452800  0.58154800  1
  O  O43  1  0.11298000  0.00579100  0.19452800  1
  O  O44  1  0.58154800  0.18873700  0.19452800  1
  O  O45  1  0.60718900  0.91845200  0.11298000  1
  O  O46  1  0.31126300  0.89281100  0.00579100  1
  O  O47  1  0.49420900  0.38702000  0.30547200  1
loop_
_geom_bond_atom_site_label_1
_geom_bond_atom_site_label_2
_geom_bond_distance
_geom_bond_site_symmetry_2
Al0 O13 1.934492 1_555
Al0 O15 1.934492 1_555
Al0 O11 1.934492 1_554
Al0 O37 1.934492 1_554
Al0 O39 1.934492 1_554
Al0 O35 1.934492 1_555
Al1 O14 1.934492 1_555
Al1 O10 1.934492 1_555
Al1 O17 1.934492 1_455
Al1 O38 1.934492 1_455
Al1 O34 1.934492 1_455
Al1 O41 1.934492 1_555
Al2 O3 1.934492 1_555
Al2 O2 1.934492 1_555
Al2 O23 1.934492 1_555
Al2 O27 1.934492 1_555
Al2 O47 1.934492 1_555
Al2 O26 1.934492 1_555
Al3 O1 1.934492 1_545
Al3 O42 1.934492 1_555
Al3 O18 1.934492 1_445
Al3 O25 1.934492 1_455
Al3 O5 1.934492 1_545
Al3 O29 1.934492 1_455
Al4 O6 1.934492 1_455
Al4 O40 1.934492 1_555
Al4 O16 1.934492 1_454
Al4 O30 1.934492 1_554
Al4 O4 1.934492 1_455
Al4 O28 1.934492 1_554
Al5 O22 1.934492 1_554
Al5 O44 1.934492 1_555
Al5 O20 1.934492 1_544
Al5 O46 1.934492 1_545
Al5 O21 1.934492 1_554
Al5 O45 1.934492 1_545
Al6 O43 1.934492 1_555
Al6 O36 1.934492 1_555
Al6 O33 1.934492 1_555
Al6 O12 1.934492 1_444
Al6 O19 1.934492 1_444
Al6 O9 1.934492 1_444
Al7 O0 1.934492 1_555
Al7 O7 1.934492 1_555
Al7 O8 1.934492 1_545
Al7 O24 1.934492 1_545
Al7 O31 1.934492 1_545
Al7 O32 1.934492 1_555
Cd0 O17 2.342337 1_555
Cd0 O15 2.342337 1_555
Cd0 O5 2.342337 1_655
Cd0 O6 2.342337 1_555
Cd0 O10 2.530939 1_655
Cd0 O13 2.530939 1_555
Cd0 O18 2.530939 1_555
Cd0 O4 2.530939 1_555
Cd1 O11 2.342337 1_555
Cd1 O7 2.342337 1_555
Cd1 O4 2.342337 1_556
Cd1 O22 2.342337 1_555
Cd1 O15 2.530939 1_556
Cd1 O0 2.530939 1_555
Cd1 O16 2.530939 1_555
Cd1 O21 2.530939 1_555
Cd2 O3 2.342337 1_555
Cd2 O18 2.342337 1_555
Cd2 O9 2.342337 1_555
Cd2 O14 2.342337 1_655
Cd2 O1 2.530939 1_655
Cd2 O19 2.530939 1_555
Cd2 O2 2.530939 1_555
Cd2 O17 2.530939 1_555
Cd3 O2 2.342337 1_555
Cd3 O16 2.342337 1_555
Cd3 O12 2.342337 1_555
Cd3 O13 2.342337 1_556
Cd3 O6 2.530939 1_556
Cd3 O9 2.530939 1_555
Cd3 O23 2.530939 1_555
Cd3 O11 2.530939 1_555
Cd4 O8 2.342337 1_555
Cd4 O10 2.342337 1_555
Cd4 O21 2.342337 1_565
Cd4 O1 2.342337 1_555
Cd4 O7 2.530939 1_565
Cd4 O14 2.530939 1_555
Cd4 O20 2.530939 1_555
Cd4 O5 2.530939 1_555
Cd5 O23 2.342337 1_555
Cd5 O19 2.342337 1_555
Cd5 O20 2.342337 1_555
Cd5 O0 2.342337 1_565
Cd5 O22 2.530939 1_565
Cd5 O12 2.530939 1_555
Cd5 O3 2.530939 1_555
Cd5 O8 2.530939 1_555
Cd6 O30 2.342337 1_555
Cd6 O41 2.342337 1_555
Cd6 O39 2.342337 1_555
Cd6 O29 2.342337 1_455
Cd6 O37 2.530939 1_555
Cd6 O28 2.530939 1_555
Cd6 O42 2.530939 1_555
Cd6 O34 2.530939 1_455
Cd7 O46 2.342337 1_555
Cd7 O35 2.342337 1_555
Cd7 O31 2.342337 1_555
Cd7 O28 2.342337 1_554
Cd7 O24 2.530939 1_555
Cd7 O45 2.530939 1_555
Cd7 O40 2.530939 1_555
Cd7 O39 2.530939 1_554
Cd8 O33 2.342337 1_555
Cd8 O38 2.342337 1_455
Cd8 O27 2.342337 1_555
Cd8 O42 2.342337 1_555
Cd8 O26 2.530939 1_555
Cd8 O41 2.530939 1_555
Cd8 O43 2.530939 1_555
Cd8 O25 2.530939 1_455
Cd9 O36 2.342337 1_555
Cd9 O37 2.342337 1_554
Cd9 O26 2.342337 1_555
Cd9 O40 2.342337 1_555
Cd9 O47 2.530939 1_555
Cd9 O35 2.530939 1_555
Cd9 O33 2.530939 1_555
Cd9 O30 2.530939 1_554
Cd10 O25 2.342337 1_555
Cd10 O32 2.342337 1_555
Cd10 O34 2.342337 1_555
Cd10 O45 2.342337 1_545
Cd10 O38 2.530939 1_555
Cd10 O29 2.530939 1_555
Cd10 O44 2.530939 1_555
Cd10 O31 2.530939 1_545
Cd11 O43 2.342337 1_555
Cd11 O24 2.342337 1_545
Cd11 O47 2.342337 1_555
Cd11 O44 2.342337 1_555
Cd11 O27 2.530939 1_555
Cd11 O32 2.530939 1_555
Cd11 O36 2.530939 1_555
Cd11 O46 2.530939 1_545
O0 Si9 1.664636 1_555
O1 Si10 1.664636 1_565
O2 Si2 1.664636 1_555
O3 Si1 1.664636 1_555
O4 Si0 1.664636 1_555
O5 Si11 1.664636 1_555
O6 Si11 1.664636 1_655
O7 Si7 1.664636 1_555
O8 Si8 1.664636 1_555
O9 Si5 1.664636 1_655
O10 Si8 1.664636 1_555
O11 Si7 1.664636 1_555
O12 Si6 1.664636 1_556
O13 Si6 1.664636 1_555
O14 Si5 1.664636 1_555
O15 Si3 1.664636 1_555
O16 Si2 1.664636 1_555
O17 Si3 1.664636 1_555
O18 Si1 1.664636 1_555
O19 Si9 1.664636 1_565
O20 Si4 1.664636 1_555
O21 Si10 1.664636 1_555
O22 Si0 1.664636 1_556
O23 Si4 1.664636 1_555
O24 Si11 1.664636 1_555
O25 Si6 1.664636 1_545
O26 Si8 1.664636 1_555
O27 Si7 1.664636 1_555
O28 Si5 1.664636 1_555
O29 Si9 1.664636 1_555
O30 Si9 1.664636 1_455
O31 Si1 1.664636 1_555
O32 Si2 1.664636 1_555
O33 Si0 1.664636 1_455
O34 Si2 1.664636 1_555
O35 Si1 1.664636 1_555
O36 Si10 1.664636 1_554
O37 Si10 1.664636 1_555
O38 Si0 1.664636 1_555
O39 Si4 1.664636 1_555
O40 Si8 1.664636 1_555
O41 Si4 1.664636 1_555
O42 Si7 1.664636 1_555
O43 Si11 1.664636 1_545
O44 Si3 1.664636 1_555
O45 Si6 1.664636 1_555
O46 Si5 1.664636 1_554
O47 Si3 1.664636 1_555
