# generated using pymatgen
data_Al(MoS2)12
_symmetry_space_group_name_H-M   'P 1'
_cell_length_a   6.83795548
_cell_length_b   6.83795548
_cell_length_c   16.85900800
_cell_angle_alpha   90.00000000
_cell_angle_beta   90.00000000
_cell_angle_gamma   119.99999492
_symmetry_Int_Tables_number   1
_chemical_formula_structural   Al(MoS2)12
_chemical_formula_sum   'Al1 Mo12 S24'
_cell_volume   682.67690022
_cell_formula_units_Z   1
loop_
 _symmetry_equiv_pos_site_id
 _symmetry_equiv_pos_as_xyz
  1  'x, y, z'
loop_
 _atom_site_type_symbol
 _atom_site_label
 _atom_site_symmetry_multiplicity
 _atom_site_fract_x
 _atom_site_fract_y
 _atom_site_fract_z
 _atom_site_occupancy
  Al  Al0  1  0.33333300  0.66666700  0.33264600  1
  Mo  Mo0  1  0.47753900  0.95507800  0.86904400  1
  Mo  Mo1  1  0.14103600  0.28207200  0.53847400  1
  Mo  Mo2  1  0.80810900  0.61621800  0.19525600  1
  Mo  Mo3  1  0.33333300  0.66666700  0.72477500  1
  Mo  Mo4  1  0.00000000  0.00000000  0.39663300  1
  Mo  Mo5  1  0.66666700  0.33333300  0.05708000  1
  Mo  Mo6  1  0.04492200  0.52246100  0.86904400  1
  Mo  Mo7  1  0.71792800  0.85896400  0.53847400  1
  Mo  Mo8  1  0.38378200  0.19189100  0.19525600  1
  Mo  Mo9  1  0.47753900  0.52246100  0.86904400  1
  Mo  Mo10  1  0.14103600  0.85896400  0.53847400  1
  Mo  Mo11  1  0.80810900  0.19189100  0.19525600  1
  S  S0  1  0.15472900  0.84527100  0.78811400  1
  S  S1  1  0.82380800  0.17619200  0.45791400  1
  S  S2  1  0.48524700  0.51475300  0.11697000  1
  S  S3  1  0.33333300  0.66666700  0.96729100  1
  S  S4  1  0.00000000  0.00000000  0.63795700  1
  S  S5  1  0.66666700  0.33333300  0.29379700  1
  S  S6  1  0.69054200  0.84527100  0.78811400  1
  S  S7  1  0.35238400  0.17619200  0.45791400  1
  S  S8  1  0.02950700  0.51475300  0.11697000  1
  S  S9  1  0.35675700  0.17837900  0.95319000  1
  S  S10  1  0.02616700  0.51308400  0.62006700  1
  S  S11  1  0.69118200  0.84559100  0.28686000  1
  S  S12  1  0.82162100  0.17837900  0.95319000  1
  S  S13  1  0.48691600  0.51308400  0.62006700  1
  S  S14  1  0.15440900  0.84559100  0.28686000  1
  S  S15  1  0.82162100  0.64324300  0.95319000  1
  S  S16  1  0.48691600  0.97383300  0.62006700  1
  S  S17  1  0.15440900  0.30881800  0.28686000  1
  S  S18  1  0.66666700  0.33333300  0.79922100  1
  S  S19  1  0.33333300  0.66666700  0.46667400  1
  S  S20  1  0.00000000  0.00000000  0.13460100  1
  S  S21  1  0.15472900  0.30945800  0.78811400  1
  S  S22  1  0.82380800  0.64761600  0.45791400  1
  S  S23  1  0.48524700  0.97049300  0.11697000  1
loop_
_geom_bond_atom_site_label_1
_geom_bond_atom_site_label_2
_geom_bond_distance
_geom_bond_site_symmetry_2
Al0 S14 2.255329 1_555
Al0 S11 2.255334 1_555
Al0 S17 2.255334 1_555
Al0 S19 2.259579 1_555
Mo0 S6 2.374953 1_555
Mo0 S0 2.374953 1_555
Mo0 S3 2.379179 1_555
Mo0 S12 2.507419 1_565
Mo0 S9 2.507423 1_565
Mo0 S18 2.530440 1_565
Mo1 S7 2.345991 1_555
Mo1 S1 2.345991 1_455
Mo1 S4 2.367095 1_555
Mo1 S13 2.499042 1_555
Mo1 S10 2.499046 1_555
Mo1 S19 2.579208 1_555
Mo2 S2 2.359148 1_555
Mo2 S8 2.359154 1_655
Mo2 S5 2.359285 1_555
Mo2 S20 2.492153 1_665
Mo2 S11 2.595831 1_555
Mo2 S14 2.595831 1_655
Mo3 S0 2.369575 1_555
Mo3 S6 2.369581 1_555
Mo3 S21 2.369581 1_555
Mo3 S13 2.534740 1_555
Mo3 S16 2.534741 1_555
Mo3 S10 2.534741 1_555
Mo4 S1 2.328508 1_455
Mo4 S7 2.328508 1_555
Mo4 S22 2.328508 1_445
Mo4 S14 2.601800 1_545
Mo4 S17 2.601800 1_555
Mo4 S11 2.601800 1_445
Mo5 S2 2.374089 1_555
Mo5 S8 2.374089 1_655
Mo5 S23 2.374089 1_545
Mo5 S12 2.536877 1_554
Mo5 S15 2.536886 1_554
Mo5 S9 2.536886 1_554
Mo6 S21 2.374953 1_555
Mo6 S0 2.374953 1_555
Mo6 S3 2.379179 1_555
Mo6 S12 2.507419 1_455
Mo6 S15 2.507423 1_455
Mo6 S18 2.530440 1_455
Mo7 S22 2.345991 1_555
Mo7 S1 2.345991 1_565
Mo7 S4 2.367095 1_665
Mo7 S13 2.499042 1_555
Mo7 S16 2.499046 1_555
Mo7 S19 2.579208 1_555
Mo8 S2 2.359148 1_555
Mo8 S23 2.359154 1_545
Mo8 S5 2.359285 1_555
Mo8 S20 2.492153 1_555
Mo8 S17 2.595831 1_555
Mo8 S14 2.595831 1_545
Mo9 S21 2.374953 1_555
Mo9 S6 2.374953 1_555
Mo9 S3 2.379183 1_555
Mo9 S15 2.507418 1_555
Mo9 S9 2.507418 1_555
Mo9 S18 2.530445 1_555
Mo10 S7 2.345991 1_565
Mo10 S22 2.345991 1_455
Mo10 S4 2.367095 1_565
Mo10 S16 2.499041 1_555
Mo10 S10 2.499041 1_555
Mo10 S19 2.579202 1_555
Mo11 S23 2.359150 1_545
Mo11 S8 2.359150 1_655
Mo11 S5 2.359281 1_555
Mo11 S20 2.492153 1_655
Mo11 S11 2.595831 1_545
Mo11 S17 2.595831 1_655
