# generated using pymatgen
data_Mo(WSe3)2
_symmetry_space_group_name_H-M   'P 1'
_cell_length_a   3.32395571
_cell_length_b   3.32395571
_cell_length_c   30.71338200
_cell_angle_alpha   90.00000000
_cell_angle_beta   90.00000000
_cell_angle_gamma   119.99999419
_symmetry_Int_Tables_number   1
_chemical_formula_structural   Mo(WSe3)2
_chemical_formula_sum   'Mo1 W2 Se6'
_cell_volume   293.87913629
_cell_formula_units_Z   1
loop_
 _symmetry_equiv_pos_site_id
 _symmetry_equiv_pos_as_xyz
  1  'x, y, z'
loop_
 _atom_site_type_symbol
 _atom_site_label
 _atom_site_symmetry_multiplicity
 _atom_site_fract_x
 _atom_site_fract_y
 _atom_site_fract_z
 _atom_site_occupancy
  Mo  Mo0  1  0.00000000  0.00000000  0.11563100  1
  W  W0  1  0.00000000  0.00000000  0.57833600  1
  W  W1  1  0.33333300  0.66666700  0.34699900  1
  Se  Se0  1  0.00000000  0.00000000  0.40171800  1
  Se  Se1  1  0.33333300  0.66666700  0.06116900  1
  Se  Se2  1  0.33333300  0.66666700  0.52357800  1
  Se  Se3  1  0.33333300  0.66666700  0.17011100  1
  Se  Se4  1  0.33333300  0.66666700  0.63307000  1
  Se  Se5  1  0.00000000  0.00000000  0.29223100  1
loop_
_geom_bond_atom_site_label_1
_geom_bond_atom_site_label_2
_geom_bond_distance
_geom_bond_site_symmetry_2
Mo0 Se1 2.545752 1_545
Mo0 Se1 2.545754 1_555
Mo0 Se1 2.545754 1_445
Mo0 Se3 2.546115 1_545
Mo0 Se3 2.546117 1_555
Mo0 Se3 2.546117 1_445
Se0 W1 2.550945 1_545
Se0 W1 2.550947 1_555
Se0 W1 2.550947 1_445
Se2 W0 2.551734 1_565
Se2 W0 2.551737 1_555
Se2 W0 2.551737 1_665
Se4 W0 2.551249 1_565
Se4 W0 2.551251 1_665
Se4 W0 2.551251 1_555
Se5 W1 2.551937 1_545
Se5 W1 2.551939 1_445
Se5 W1 2.551939 1_555
