# generated using pymatgen
data_Li2Ni3SbO8
_symmetry_space_group_name_H-M   'P 1'
_cell_length_a   5.87675501
_cell_length_b   5.99322962
_cell_length_c   10.17511522
_cell_angle_alpha   106.47375290
_cell_angle_beta   90.11922872
_cell_angle_gamma   60.67301937
_symmetry_Int_Tables_number   1
_chemical_formula_structural   Li2Ni3SbO8
_chemical_formula_sum   'Li4 Ni6 Sb2 O16'
_cell_volume   295.58041582
_cell_formula_units_Z   2
loop_
 _symmetry_equiv_pos_site_id
 _symmetry_equiv_pos_as_xyz
  1  'x, y, z'
loop_
 _atom_site_type_symbol
 _atom_site_label
 _atom_site_symmetry_multiplicity
 _atom_site_fract_x
 _atom_site_fract_y
 _atom_site_fract_z
 _atom_site_occupancy
  Li  Li0  1  0.30632800  0.38613900  0.56447000  1
  Li  Li1  1  0.80639600  0.38655600  0.06460600  1
  Li  Li2  1  0.19347100  0.61347400  0.93537700  1
  Li  Li3  1  0.69372300  0.61385300  0.43551500  1
  Ni  Ni0  1  0.25031600  0.99966700  0.75026100  1
  Ni  Ni1  1  0.74991200  0.00017600  0.24969700  1
  Ni  Ni2  1  0.99999100  0.00002200  0.49995600  1
  Ni  Ni3  1  0.75025600  0.99967600  0.74986800  1
  Ni  Ni4  1  0.24973500  0.00036500  0.25015000  1
  Ni  Ni5  1  0.49996100  0.99991400  0.00002700  1
  Sb  Sb0  1  0.75016100  0.49980200  0.75002000  1
  Sb  Sb1  1  0.24984800  0.50019000  0.24999700  1
  O  O0  1  0.09263700  0.81465700  0.63572900  1
  O  O1  1  0.59205300  0.81491600  0.13559900  1
  O  O2  1  0.40794100  0.18501800  0.86447500  1
  O  O3  1  0.90737600  0.18547600  0.36423000  1
  O  O4  1  0.90578200  0.24596400  0.86134000  1
  O  O5  1  0.40561300  0.24610500  0.36119400  1
  O  O6  1  0.63239500  0.24590300  0.64501100  1
  O  O7  1  0.13304200  0.24553300  0.14470700  1
  O  O8  1  0.09285200  0.24592500  0.61692300  1
  O  O9  1  0.59292900  0.24612700  0.11698200  1
  O  O10  1  0.40699300  0.75380700  0.88301500  1
  O  O11  1  0.90710400  0.75419900  0.38306100  1
  O  O12  1  0.86683500  0.75452900  0.85535400  1
  O  O13  1  0.36760200  0.75411700  0.35498500  1
  O  O14  1  0.59447800  0.75387300  0.63879900  1
  O  O15  1  0.09426900  0.75401800  0.13865000  1
loop_
_geom_bond_atom_site_label_1
_geom_bond_atom_site_label_2
_geom_bond_distance
_geom_bond_site_symmetry_2
Li0 O8 1.963357 1_555
Li0 O6 1.963756 1_555
Li0 O5 1.965634 1_555
Li0 O0 2.118209 1_555
Li1 O9 1.964058 1_555
Li1 O7 1.964286 1_655
Li1 O4 1.965539 1_554
Li1 O1 2.117433 1_555
Li2 O10 1.963805 1_555
Li2 O12 1.963830 1_455
Li2 O15 1.965513 1_556
Li2 O2 2.117910 1_555
Li3 O11 1.963535 1_555
Li3 O13 1.963950 1_555
Li3 O14 1.965690 1_555
Li3 O3 2.117512 1_555
Ni0 O14 1.921048 1_555
Ni0 O4 1.921330 1_465
Ni0 O2 1.927170 1_565
Ni0 O0 1.927526 1_555
Ni0 O10 2.153658 1_555
Ni0 O8 2.160514 1_565
Ni1 O15 1.920431 1_645
Ni1 O5 1.921796 1_555
Ni1 O1 1.927351 1_545
Ni1 O3 1.927680 1_555
Ni1 O9 2.153853 1_555
Ni1 O11 2.159486 1_545
Ni2 O11 1.916897 1_545
Ni2 O8 1.917441 1_655
Ni2 O3 1.927089 1_555
Ni2 O0 1.927167 1_645
Ni2 O13 2.162518 1_645
Ni2 O6 2.162879 1_555
Ni3 O6 1.919478 1_565
Ni3 O12 1.919719 1_555
Ni3 O0 1.928895 1_655
Ni3 O2 1.930499 1_565
Ni3 O14 2.158249 1_555
Ni3 O4 2.160636 1_565
Ni4 O13 1.919399 1_545
Ni4 O7 1.919461 1_555
Ni4 O3 1.928473 1_455
Ni4 O1 1.930192 1_545
Ni4 O5 2.158330 1_555
Ni4 O15 2.160725 1_545
Ni5 O10 1.918935 1_554
Ni5 O9 1.919168 1_565
Ni5 O1 1.923963 1_555
Ni5 O2 1.924193 1_564
Ni5 O12 2.158146 1_554
Ni5 O7 2.158356 1_565
O4 Sb0 2.010935 1_555
O5 Sb1 2.011060 1_555
O6 Sb0 2.010609 1_555
O7 Sb1 2.011012 1_555
O8 Sb0 2.011462 1_455
O9 Sb1 2.012611 1_555
O10 Sb0 2.012815 1_555
O11 Sb1 2.011564 1_655
O12 Sb0 2.010927 1_555
O13 Sb1 2.010621 1_555
O14 Sb0 2.011152 1_555
O15 Sb1 2.011086 1_555
