# generated using pymatgen
data_U2TlSe6
_symmetry_space_group_name_H-M   'P 1'
_cell_length_a   11.58730877
_cell_length_b   11.58730877
_cell_length_c   11.58730877
_cell_angle_alpha   159.67732757
_cell_angle_beta   152.44139894
_cell_angle_gamma   34.48345857
_symmetry_Int_Tables_number   1
_chemical_formula_structural   U2TlSe6
_chemical_formula_sum   'U2 Tl1 Se6'
_cell_volume   249.74617298
_cell_formula_units_Z   1
loop_
 _symmetry_equiv_pos_site_id
 _symmetry_equiv_pos_as_xyz
  1  'x, y, z'
loop_
 _atom_site_type_symbol
 _atom_site_label
 _atom_site_symmetry_multiplicity
 _atom_site_fract_x
 _atom_site_fract_y
 _atom_site_fract_z
 _atom_site_occupancy
  U  U0  1  0.67899290  0.17899290  0.50000000  1
  U  U1  1  0.32100710  0.82100710  0.50000000  1
  Tl  Tl0  1  -0.00000000  0.00000000  -0.00000000  1
  Se  Se0  1  0.77121465  0.77121465  -0.00000000  1
  Se  Se1  1  0.22878535  0.22878535  -0.00000000  1
  Se  Se2  1  0.85042273  0.60544532  0.24497741  1
  Se  Se3  1  0.14957727  0.39455468  0.75502259  1
  Se  Se4  1  0.63953209  0.39455468  0.24497741  1
  Se  Se5  1  0.36046791  0.60544532  0.75502259  1
loop_
_geom_bond_atom_site_label_1
_geom_bond_atom_site_label_2
_geom_bond_distance
_geom_bond_site_symmetry_2
Se0 U0 2.888817 1_554
Se0 U0 2.888817 1_565
Se0 U1 2.971796 1_554
Se0 U1 2.971796 1_655
Se1 U1 2.888817 1_555
Se1 U1 2.888817 1_544
Se1 U0 2.971796 1_555
Se1 U0 2.971796 1_454
Se2 U0 2.942329 1_554
Se2 U0 2.942329 1_565
Se2 Tl0 3.406946 1_655
Se2 Tl0 3.406946 1_666
Se3 U1 2.942329 1_556
Se3 U1 2.942329 1_545
Se3 Tl0 3.406946 1_555
Se3 Tl0 3.406946 1_566
Se4 U1 2.942329 1_555
Se4 U1 2.942329 1_544
Se4 Tl0 3.406946 1_655
Se4 Tl0 3.406946 1_666
Se5 U0 2.942329 1_566
Se5 U0 2.942329 1_555
Se5 Tl0 3.406946 1_566
Se5 Tl0 3.406946 1_555
