# generated using pymatgen
data_PrGe2Pt
_symmetry_space_group_name_H-M   'P 1'
_cell_length_a   9.66718815
_cell_length_b   9.66718815
_cell_length_c   9.66718815
_cell_angle_alpha   153.33946260
_cell_angle_beta   125.62700960
_cell_angle_gamma   61.56334598
_symmetry_Int_Tables_number   1
_chemical_formula_structural   PrGe2Pt
_chemical_formula_sum   'Pr4 Ge8 Pt4'
_cell_volume   327.05241101
_cell_formula_units_Z   4
loop_
 _symmetry_equiv_pos_site_id
 _symmetry_equiv_pos_as_xyz
  1  'x, y, z'
loop_
 _atom_site_type_symbol
 _atom_site_label
 _atom_site_symmetry_multiplicity
 _atom_site_fract_x
 _atom_site_fract_y
 _atom_site_fract_z
 _atom_site_occupancy
  Pr  Pr0  1  0.74226582  -0.00000000  0.74226582  1
  Pr  Pr1  1  0.25773418  0.00000000  0.25773418  1
  Pr  Pr2  1  0.29729796  0.79729796  0.50000000  1
  Pr  Pr3  1  0.70270204  0.20270204  0.50000000  1
  Ge  Ge0  1  0.92628330  0.42628330  0.50000000  1
  Ge  Ge1  1  0.07371670  0.57371670  0.50000000  1
  Ge  Ge2  1  0.42581947  0.42581947  0.00000000  1
  Ge  Ge3  1  0.57418053  0.57418053  -0.00000000  1
  Ge  Ge4  1  0.34923557  0.19857723  0.15065834  1
  Ge  Ge5  1  0.65076443  0.80142277  0.84934166  1
  Ge  Ge6  1  0.04791889  0.19857723  0.84934166  1
  Ge  Ge7  1  0.95208111  0.80142277  0.15065834  1
  Pt  Pt0  1  0.60481370  0.35043766  0.25437604  1
  Pt  Pt1  1  0.39518630  0.64956234  0.74562396  1
  Pt  Pt2  1  0.09606163  0.35043766  0.74562396  1
  Pt  Pt3  1  0.90393837  0.64956234  0.25437604  1
loop_
_geom_bond_atom_site_label_1
_geom_bond_atom_site_label_2
_geom_bond_distance
_geom_bond_site_symmetry_2
Pr0 Pt3 3.339359 1_545
Pr0 Pt3 3.339359 1_556
Pr0 Pt0 3.339359 1_545
Pr0 Pt0 3.339359 1_556
Pr1 Pt2 3.339359 1_555
Pr1 Pt2 3.339359 1_544
Pr1 Pt1 3.339359 1_555
Pr1 Pt1 3.339359 1_544
Pr2 Pt1 3.275647 1_555
Pr2 Pt3 3.275647 1_455
Pr2 Pt2 3.285797 1_565
Pr2 Pt0 3.285797 1_555
Pr2 Pt0 3.285797 1_566
Pr2 Pt2 3.285797 1_554
Pr3 Pt0 3.275647 1_555
Pr3 Pt2 3.275647 1_655
Pr3 Pt3 3.285797 1_545
Pr3 Pt1 3.285797 1_544
Pr3 Pt1 3.285797 1_555
Pr3 Pt3 3.285797 1_556
Ge0 Ge1 2.448960 1_655
Ge0 Pt2 2.508993 1_655
Ge0 Pt0 2.508993 1_555
Ge0 Pr0 3.413338 1_565
Ge0 Pr0 3.413338 1_554
Ge0 Pr1 3.413338 1_666
Ge0 Pr1 3.413338 1_655
Ge1 Pt3 2.508993 1_455
Ge1 Pt1 2.508993 1_555
Ge1 Pr1 3.413338 1_566
Ge1 Pr1 3.413338 1_555
Ge1 Pr0 3.413338 1_465
Ge1 Pr0 3.413338 1_454
Ge2 Ge3 2.464369 1_555
Ge2 Pt2 2.572386 1_554
Ge2 Pt0 2.572386 1_555
Ge2 Pr2 3.086337 1_544
Ge2 Pr2 3.086337 1_555
Ge2 Pr0 3.326602 1_554
Ge2 Pr0 3.326602 1_565
Ge2 Pr1 3.326602 1_565
Ge2 Pr1 3.326602 1_554
Ge3 Pt3 2.572386 1_555
Ge3 Pt1 2.572386 1_554
Ge3 Pr3 3.086337 1_565
Ge3 Pr3 3.086337 1_554
Ge3 Pr0 3.326602 1_554
Ge3 Pr1 3.326602 1_554
Ge3 Pr0 3.326602 1_565
Ge3 Pr1 3.326602 1_565
Ge4 Pt1 2.516868 1_555
Ge4 Pt1 2.516868 1_544
Ge4 Ge6 2.661726 1_554
Ge4 Pt0 2.683732 1_555
Ge4 Pr2 3.070536 1_555
Ge4 Pr2 3.070536 1_544
Ge4 Pr3 3.086722 1_555
Ge4 Pr1 3.431430 1_555
Ge5 Pt0 2.516868 1_566
Ge5 Pt0 2.516868 1_555
Ge5 Ge7 2.661726 1_556
Ge5 Pt1 2.683732 1_555
Ge5 Pr3 3.070536 1_555
Ge5 Pr3 3.070536 1_566
Ge5 Pr2 3.086722 1_555
Ge5 Pr0 3.431430 1_565
Ge6 Pt3 2.516868 1_445
Ge6 Pt3 2.516868 1_456
Ge6 Pt2 2.683732 1_555
Ge6 Pr2 3.070536 1_556
Ge6 Pr2 3.070536 1_545
Ge6 Pr3 3.086722 1_455
Ge6 Pr0 3.431430 1_455
Ge7 Pt2 2.516868 1_665
Ge7 Pt2 2.516868 1_654
Ge7 Pt3 2.683732 1_555
Ge7 Pr3 3.070536 1_565
Ge7 Pr3 3.070536 1_554
Ge7 Pr2 3.086722 1_655
Ge7 Pr1 3.431430 1_665
