# generated using pymatgen
data_Be3Si3(NiO6)2
_symmetry_space_group_name_H-M   'P 1'
_cell_length_a   7.62180252
_cell_length_b   7.97779551
_cell_length_c   13.74174517
_cell_angle_alpha   90.18420090
_cell_angle_beta   89.89205109
_cell_angle_gamma   89.93785121
_symmetry_Int_Tables_number   1
_chemical_formula_structural   Be3Si3(NiO6)2
_chemical_formula_sum   'Be12 Si12 Ni8 O48'
_cell_volume   835.56301659
_cell_formula_units_Z   4
loop_
 _symmetry_equiv_pos_site_id
 _symmetry_equiv_pos_as_xyz
  1  'x, y, z'
loop_
 _atom_site_type_symbol
 _atom_site_label
 _atom_site_symmetry_multiplicity
 _atom_site_fract_x
 _atom_site_fract_y
 _atom_site_fract_z
 _atom_site_occupancy
  Be  Be0  1  0.85818200  0.92141900  0.76531000  1
  Be  Be1  1  0.64399600  0.93068200  0.40504600  1
  Be  Be2  1  0.14402500  0.56948300  0.09510800  1
  Be  Be3  1  0.35594900  0.06930700  0.59496200  1
  Be  Be4  1  0.85608600  0.43054800  0.90486600  1
  Be  Be5  1  0.14077700  0.61134000  0.41765100  1
  Be  Be6  1  0.64070700  0.88852400  0.08241300  1
  Be  Be7  1  0.85917700  0.38856600  0.58233000  1
  Be  Be8  1  0.35935600  0.11136500  0.91762600  1
  Be  Be9  1  0.64171500  0.42155200  0.26529900  1
  Be  Be10  1  0.14185800  0.07846800  0.23466600  1
  Be  Be11  1  0.35824100  0.57834400  0.73464600  1
  Si  Si0  1  0.23097200  0.92157100  0.77070800  1
  Si  Si1  1  0.73107400  0.57851900  0.72937500  1
  Si  Si2  1  0.76897000  0.07839100  0.22932100  1
  Si  Si3  1  0.26896500  0.42154100  0.27059300  1
  Si  Si4  1  0.73422800  0.11440000  0.92573800  1
  Si  Si5  1  0.23397200  0.38571900  0.57428500  1
  Si  Si6  1  0.26583400  0.88561200  0.07430600  1
  Si  Si7  1  0.76597300  0.61428600  0.42570100  1
  Si  Si8  1  0.23591100  0.44950800  0.90326800  1
  Si  Si9  1  0.73575300  0.05050900  0.59674400  1
  Si  Si10  1  0.76414900  0.55055400  0.09675100  1
  Si  Si11  1  0.26418400  0.94949700  0.40328800  1
  Ni  Ni0  1  0.44950500  0.24881700  0.09051100  1
  Ni  Ni1  1  0.05057900  0.74870700  0.59037500  1
  Ni  Ni2  1  0.55049200  0.75121800  0.90951500  1
  Ni  Ni3  1  0.94936400  0.25131000  0.40962300  1
  Ni  Ni4  1  0.56132900  0.25081000  0.42671800  1
  Ni  Ni5  1  0.06114600  0.24943700  0.07307500  1
  Ni  Ni6  1  0.43865200  0.74914900  0.57322400  1
  Ni  Ni7  1  0.93880900  0.75063600  0.92699900  1
  O  O0  1  0.11668900  0.74949900  0.04099900  1
  O  O1  1  0.04071100  0.90683700  0.82456000  1
  O  O2  1  0.54106800  0.59309200  0.67549300  1
  O  O3  1  0.95926200  0.09313000  0.17548400  1
  O  O4  1  0.45894500  0.40694200  0.32448300  1
  O  O5  1  0.54188700  0.18783300  0.95715400  1
  O  O6  1  0.04207200  0.31187400  0.54290600  1
  O  O7  1  0.45819100  0.81209800  0.04291500  1
  O  O8  1  0.95786600  0.68814300  0.45706700  1
  O  O9  1  0.03923300  0.52623700  0.88447600  1
  O  O10  1  0.53916000  0.97363800  0.61555800  1
  O  O11  1  0.96082900  0.47383300  0.11554900  1
  O  O12  1  0.11947000  0.07418000  0.35267800  1
  O  O13  1  0.61972400  0.42561100  0.14743900  1
  O  O14  1  0.88046200  0.92582800  0.64734400  1
  O  O15  1  0.38036900  0.57439300  0.85255100  1
  O  O16  1  0.61641100  0.75053400  0.45901100  1
  O  O17  1  0.46081300  0.02628200  0.38443200  1
  O  O18  1  0.38350100  0.24943900  0.54093900  1
  O  O19  1  0.88334500  0.25055100  0.95902800  1
  O  O20  1  0.75666500  0.07196600  0.47600900  1
  O  O21  1  0.61606500  0.06006600  0.14626200  1
  O  O22  1  0.88404700  0.56006900  0.64602500  1
  O  O23  1  0.38383800  0.93993200  0.85377500  1
  O  O24  1  0.73923000  0.42530100  0.80857000  1
  O  O25  1  0.23872300  0.07502500  0.69155800  1
  O  O26  1  0.26089400  0.57468600  0.19137600  1
  O  O27  1  0.76129000  0.92494700  0.30845500  1
  O  O28  1  0.74401600  0.07179400  0.80895200  1
  O  O29  1  0.24394800  0.42858200  0.69102900  1
  O  O30  1  0.25609200  0.92835600  0.19105100  1
  O  O31  1  0.75614600  0.57138400  0.30895700  1
  O  O32  1  0.25039000  0.25544600  0.86492500  1
  O  O33  1  0.75010200  0.24456100  0.63498400  1
  O  O34  1  0.74969000  0.74459200  0.13505600  1
  O  O35  1  0.24980600  0.75554800  0.36493400  1
  O  O36  1  0.75078700  0.74698600  0.80116000  1
  O  O37  1  0.25099600  0.75314900  0.69872500  1
  O  O38  1  0.24919800  0.25301900  0.19884300  1
  O  O39  1  0.74890000  0.24680700  0.30131200  1
  O  O40  1  0.75428200  0.92585200  0.97700500  1
  O  O41  1  0.25388900  0.57422700  0.52294200  1
  O  O42  1  0.24567200  0.07416200  0.02298600  1
  O  O43  1  0.74601200  0.42577100  0.47704300  1
  O  O44  1  0.74340100  0.57215000  0.97609600  1
  O  O45  1  0.24327500  0.92802200  0.52401900  1
  O  O46  1  0.25670500  0.42784800  0.02388600  1
  O  O47  1  0.11600600  0.43998900  0.35396200  1
loop_
_geom_bond_atom_site_label_1
_geom_bond_atom_site_label_2
_geom_bond_distance
_geom_bond_site_symmetry_2
Be0 O28 1.595980 1_565
Be0 O1 1.617534 1_655
Be0 O14 1.630107 1_555
Be0 O36 1.689554 1_555
Be1 O27 1.599427 1_555
Be1 O17 1.616113 1_565
Be1 O16 1.632958 1_555
Be1 O20 1.719589 1_565
Be2 O26 1.596674 1_555
Be2 O11 1.616480 1_455
Be2 O0 1.632652 1_555
Be2 O46 1.720416 1_555
Be3 O25 1.599191 1_555
Be3 O10 1.616513 1_545
Be3 O18 1.633178 1_555
Be3 O45 1.719457 1_545
Be4 O24 1.596947 1_555
Be4 O9 1.616183 1_655
Be4 O19 1.632778 1_555
Be4 O44 1.720325 1_555
Be5 O35 1.595015 1_555
Be5 O8 1.614162 1_455
Be5 O47 1.632117 1_555
Be5 O41 1.712098 1_555
Be6 O34 1.592899 1_555
Be6 O7 1.613712 1_555
Be6 O21 1.633728 1_565
Be6 O40 1.713113 1_554
Be7 O33 1.593633 1_555
Be7 O6 1.613759 1_655
Be7 O22 1.633263 1_555
Be7 O43 1.712384 1_555
Be8 O32 1.594055 1_555
Be8 O5 1.614076 1_555
Be8 O23 1.632878 1_545
Be8 O42 1.712798 1_556
Be9 O31 1.596571 1_555
Be9 O4 1.616253 1_555
Be9 O13 1.628988 1_555
Be9 O39 1.690932 1_555
Be10 O30 1.594551 1_545
Be10 O3 1.617548 1_455
Be10 O12 1.630796 1_555
Be10 O38 1.690019 1_555
Be11 O29 1.595366 1_555
Be11 O2 1.616496 1_555
Be11 O15 1.629693 1_555
Be11 O37 1.691174 1_555
Ni0 O5 2.019755 1_554
Ni0 O13 2.070064 1_555
Ni0 O21 2.114935 1_555
Ni0 O38 2.130512 1_555
Ni0 O46 2.246439 1_555
Ni0 O42 2.284269 1_555
Ni1 O8 2.022009 1_455
Ni1 O14 2.067797 1_455
Ni1 O22 2.113888 1_455
Ni1 O37 2.135382 1_555
Ni1 O45 2.245631 1_555
Ni1 O41 2.275760 1_555
Ni2 O7 2.019880 1_556
Ni2 O15 2.069959 1_555
Ni2 O23 2.115100 1_555
Ni2 O36 2.130670 1_555
Ni2 O44 2.246922 1_555
Ni2 O40 2.283749 1_555
Ni3 O6 2.021684 1_655
Ni3 O12 2.067669 1_655
Ni3 O47 2.114680 1_655
Ni3 O39 2.135272 1_555
Ni3 O20 2.245961 1_555
Ni3 O43 2.275813 1_555
Ni4 O17 2.032507 1_555
Ni4 O4 2.036522 1_555
Ni4 O18 2.071933 1_555
Ni4 O43 2.099910 1_555
Ni4 O20 2.171743 1_555
Ni4 O39 2.237158 1_555
Ni5 O11 2.029450 1_455
Ni5 O3 2.036587 1_455
Ni5 O19 2.073824 1_454
Ni5 O42 2.095937 1_555
Ni5 O46 2.170570 1_555
Ni5 O38 2.247483 1_555
Ni6 O10 2.032397 1_555
Ni6 O2 2.036572 1_555
Ni6 O16 2.071507 1_555
Ni6 O41 2.099919 1_555
Ni6 O45 2.171737 1_555
Ni6 O37 2.238575 1_555
Ni7 O9 2.029969 1_655
Ni7 O1 2.036404 1_655
Ni7 O0 2.073731 1_656
Ni7 O40 2.095259 1_555
Ni7 O44 2.169779 1_555
Ni7 O36 2.248095 1_555
O0 Si6 1.637766 1_555
O1 Si0 1.631323 1_555
O2 Si1 1.631942 1_555
O3 Si2 1.631443 1_555
O4 Si3 1.631831 1_555
O5 Si4 1.634874 1_555
O6 Si5 1.635506 1_555
O7 Si6 1.635124 1_555
O8 Si7 1.635445 1_555
O9 Si8 1.639815 1_555
O10 Si9 1.640020 1_565
O11 Si10 1.639819 1_555
O12 Si11 1.641531 1_545
O13 Si10 1.641460 1_555
O14 Si9 1.641437 1_565
O15 Si8 1.641516 1_555
O16 Si7 1.637863 1_555
O17 Si11 1.640104 1_545
O18 Si5 1.637994 1_555
O19 Si4 1.637753 1_555
O20 Si9 1.675780 1_555
O21 Si2 1.639086 1_555
O22 Si1 1.639040 1_555
O23 Si0 1.638977 1_555
O24 Si1 1.640419 1_555
O25 Si0 1.641248 1_545
O26 Si3 1.640161 1_555
O27 Si2 1.641023 1_565
O28 Si4 1.640917 1_555
O29 Si5 1.641150 1_555
O30 Si6 1.640576 1_555
O31 Si7 1.641159 1_555
O32 Si8 1.637330 1_555
O33 Si9 1.637096 1_555
O34 Si10 1.636973 1_555
O35 Si11 1.636834 1_555
O36 Si1 1.671663 1_555
O37 Si0 1.672589 1_555
O38 Si3 1.671770 1_555
O39 Si2 1.672646 1_555
O40 Si4 1.670033 1_565
O41 Si5 1.670149 1_555
O42 Si6 1.670432 1_545
O43 Si7 1.670224 1_555
O44 Si10 1.675248 1_556
O45 Si11 1.675739 1_555
O46 Si8 1.674832 1_554
O47 Si3 1.639145 1_555
