# generated using pymatgen
data_Ga2FeSe4
_symmetry_space_group_name_H-M   'P 1'
_cell_length_a   5.51653200
_cell_length_b   5.51653200
_cell_length_c   5.74486600
_cell_angle_alpha   90.00000000
_cell_angle_beta   90.00000000
_cell_angle_gamma   90.00000000
_symmetry_Int_Tables_number   1
_chemical_formula_structural   Ga2FeSe4
_chemical_formula_sum   'Ga2 Fe1 Se4'
_cell_volume   174.82848198
_cell_formula_units_Z   1
loop_
 _symmetry_equiv_pos_site_id
 _symmetry_equiv_pos_as_xyz
  1  'x, y, z'
loop_
 _atom_site_type_symbol
 _atom_site_label
 _atom_site_symmetry_multiplicity
 _atom_site_fract_x
 _atom_site_fract_y
 _atom_site_fract_z
 _atom_site_occupancy
  Ga  Ga0  1  0.00000000  0.50000000  0.50000000  1
  Ga  Ga1  1  0.50000000  0.00000000  0.50000000  1
  Fe  Fe0  1  0.00000000  0.00000000  0.00000000  1
  Se  Se0  1  0.74121500  0.74121500  0.23743300  1
  Se  Se1  1  0.25878500  0.25878500  0.23743300  1
  Se  Se2  1  0.25878500  0.74121500  0.76256700  1
  Se  Se3  1  0.74121500  0.25878500  0.76256700  1
loop_
_geom_bond_atom_site_label_1
_geom_bond_atom_site_label_2
_geom_bond_distance
_geom_bond_site_symmetry_2
Ga0 Se2 2.466581 1_555
Ga0 Se3 2.466581 1_455
Ga0 Se0 2.466581 1_455
Ga0 Se1 2.466581 1_555
Ga1 Se3 2.466581 1_555
Ga1 Se2 2.466581 1_545
Ga1 Se0 2.466581 1_545
Ga1 Se1 2.466581 1_555
Fe0 Se1 2.436516 1_555
Fe0 Se0 2.436516 1_445
Fe0 Se2 2.436516 1_544
Fe0 Se3 2.436516 1_454
