# generated using pymatgen
data_Cs2Ba3(P2O7)2
_symmetry_space_group_name_H-M   'P 1'
_cell_length_a   9.12952200
_cell_length_b   9.78993200
_cell_length_c   19.05096300
_cell_angle_alpha   90.00000000
_cell_angle_beta   90.00000000
_cell_angle_gamma   90.00000000
_symmetry_Int_Tables_number   1
_chemical_formula_structural   Cs2Ba3(P2O7)2
_chemical_formula_sum   'Cs8 Ba12 P16 O56'
_cell_volume   1702.72553229
_cell_formula_units_Z   4
loop_
 _symmetry_equiv_pos_site_id
 _symmetry_equiv_pos_as_xyz
  1  'x, y, z'
loop_
 _atom_site_type_symbol
 _atom_site_label
 _atom_site_symmetry_multiplicity
 _atom_site_fract_x
 _atom_site_fract_y
 _atom_site_fract_z
 _atom_site_occupancy
  Cs  Cs0  1  0.73139600  0.16694300  0.32938700  1
  Cs  Cs1  1  0.76860400  0.83305700  0.82938700  1
  Cs  Cs2  1  0.23139600  0.33305700  0.67061300  1
  Cs  Cs3  1  0.26860400  0.66694300  0.17061300  1
  Cs  Cs4  1  0.91800400  0.30834700  0.12852300  1
  Cs  Cs5  1  0.58199600  0.69165300  0.62852300  1
  Cs  Cs6  1  0.41800400  0.19165300  0.87147700  1
  Cs  Cs7  1  0.08199600  0.80834700  0.37147700  1
  Ba  Ba0  1  0.43539500  0.03054400  0.49298600  1
  Ba  Ba1  1  0.06460500  0.96945600  0.99298600  1
  Ba  Ba2  1  0.93539500  0.46945600  0.50701400  1
  Ba  Ba3  1  0.56460500  0.53054400  0.00701400  1
  Ba  Ba4  1  0.58422200  0.64953800  0.38455800  1
  Ba  Ba5  1  0.91577800  0.35046200  0.88455800  1
  Ba  Ba6  1  0.08422200  0.85046200  0.61544200  1
  Ba  Ba7  1  0.41577800  0.14953800  0.11544200  1
  Ba  Ba8  1  0.24906800  0.33112500  0.33780900  1
  Ba  Ba9  1  0.25093200  0.66887500  0.83780900  1
  Ba  Ba10  1  0.74906800  0.16887500  0.66219100  1
  Ba  Ba11  1  0.75093200  0.83112500  0.16219100  1
  P  P0  1  0.78679300  0.90965300  0.49510300  1
  P  P1  1  0.71320700  0.09034700  0.99510300  1
  P  P2  1  0.28679300  0.59034700  0.50489700  1
  P  P3  1  0.21320700  0.40965300  0.00489700  1
  P  P4  1  0.51906800  0.37220500  0.50996100  1
  P  P5  1  0.98093200  0.62779500  0.00996100  1
  P  P6  1  0.01906800  0.12779500  0.49003900  1
  P  P7  1  0.48093200  0.87220500  0.99003900  1
  P  P8  1  0.87910600  0.54464200  0.29499800  1
  P  P9  1  0.62089400  0.45535800  0.79499800  1
  P  P10  1  0.37910600  0.95535800  0.70500200  1
  P  P11  1  0.12089400  0.04464200  0.20500200  1
  P  P12  1  0.60361000  0.45874500  0.21443300  1
  P  P13  1  0.89639000  0.54125500  0.71443300  1
  P  P14  1  0.10361000  0.04125500  0.78556700  1
  P  P15  1  0.39639000  0.95874500  0.28556700  1
  O  O0  1  0.14442700  0.02571800  0.50071900  1
  O  O1  1  0.35557300  0.97428200  0.00071900  1
  O  O2  1  0.64442700  0.47428200  0.49928100  1
  O  O3  1  0.85557300  0.52571800  0.99928100  1
  O  O4  1  0.66744500  0.88960100  0.43925900  1
  O  O5  1  0.83255500  0.11039900  0.93925900  1
  O  O6  1  0.16744500  0.61039900  0.56074100  1
  O  O7  1  0.33255500  0.38960100  0.06074100  1
  O  O8  1  0.72395300  0.96413600  0.56432200  1
  O  O9  1  0.77604700  0.03586400  0.06432200  1
  O  O10  1  0.22395300  0.53586400  0.43567800  1
  O  O11  1  0.27604700  0.46413600  0.93567800  1
  O  O12  1  0.54540100  0.26595200  0.56763800  1
  O  O13  1  0.95459900  0.73404800  0.06763800  1
  O  O14  1  0.04540100  0.23404800  0.43236200  1
  O  O15  1  0.45459900  0.76595200  0.93236200  1
  O  O16  1  0.38306300  0.46546200  0.54104600  1
  O  O17  1  0.11693700  0.53453800  0.04104600  1
  O  O18  1  0.88306300  0.03453800  0.45895400  1
  O  O19  1  0.61693700  0.96546200  0.95895400  1
  O  O20  1  0.46623900  0.30480900  0.44168900  1
  O  O21  1  0.03376100  0.69519100  0.94168900  1
  O  O22  1  0.96623900  0.19519100  0.55831100  1
  O  O23  1  0.53376100  0.80480900  0.05831100  1
  O  O24  1  0.49348600  0.48518300  0.27425300  1
  O  O25  1  0.00651400  0.51481700  0.77425300  1
  O  O26  1  0.99348600  0.01481700  0.72574700  1
  O  O27  1  0.50651400  0.98518300  0.22574700  1
  O  O28  1  0.58724900  0.31832400  0.18086200  1
  O  O29  1  0.91275100  0.68167600  0.68086200  1
  O  O30  1  0.08724900  0.18167600  0.81913800  1
  O  O31  1  0.41275100  0.81832400  0.31913800  1
  O  O32  1  0.61324800  0.57527700  0.16062200  1
  O  O33  1  0.88675200  0.42472300  0.66062200  1
  O  O34  1  0.11324700  0.92472300  0.83937800  1
  O  O35  1  0.38675200  0.07527700  0.33937800  1
  O  O36  1  0.76813600  0.44217900  0.25113600  1
  O  O37  1  0.73186400  0.55782100  0.75113600  1
  O  O38  1  0.26813600  0.05782100  0.74886400  1
  O  O39  1  0.23186400  0.94217900  0.24886400  1
  O  O40  1  0.85187100  0.50980200  0.37276000  1
  O  O41  1  0.64812900  0.49019800  0.87276000  1
  O  O42  1  0.35187100  0.99019800  0.62724000  1
  O  O43  1  0.14812900  0.00980200  0.12724000  1
  O  O44  1  0.82502600  0.69040700  0.27936600  1
  O  O45  1  0.67497400  0.30959300  0.77936600  1
  O  O46  1  0.32502600  0.80959300  0.72063400  1
  O  O47  1  0.17497400  0.19040700  0.22063400  1
  O  O48  1  0.03297200  0.50964500  0.26962600  1
  O  O49  1  0.46702800  0.49035500  0.76962600  1
  O  O50  1  0.53297200  0.99035500  0.73037400  1
  O  O51  1  0.96702800  0.00964500  0.23037400  1
  O  O52  1  0.88704000  0.78579900  0.50483600  1
  O  O53  1  0.61296000  0.21420100  0.00483600  1
  O  O54  1  0.38704000  0.71420100  0.49516400  1
  O  O55  1  0.11296000  0.28579900  0.99516400  1
loop_
_geom_bond_atom_site_label_1
_geom_bond_atom_site_label_2
_geom_bond_distance
_geom_bond_site_symmetry_2
Cs0 O36 3.097647 1_555
Cs0 O18 3.112934 1_555
Cs0 O51 3.249185 1_555
Cs0 O35 3.277440 1_555
Cs0 O27 3.358545 1_545
Cs0 O28 3.454636 1_555
Cs0 O4 3.477688 1_545
Cs0 O20 3.501292 1_555
Cs0 O14 3.535279 1_655
Cs0 O40 3.627539 1_555
Cs1 O37 3.097647 1_555
Cs1 O19 3.112934 1_555
Cs1 O50 3.249185 1_555
Cs1 O34 3.277432 1_655
Cs1 O26 3.358545 1_565
Cs1 O29 3.454636 1_555
Cs1 O5 3.477688 1_565
Cs1 O21 3.501292 1_655
Cs1 O15 3.535279 1_555
Cs1 O41 3.627539 1_555
Cs2 O38 3.097647 1_555
Cs2 O16 3.112934 1_555
Cs2 O49 3.249185 1_555
Cs2 O33 3.277440 1_455
Cs2 O25 3.358545 1_555
Cs2 O30 3.454636 1_555
Cs2 O6 3.477688 1_555
Cs2 O22 3.501292 1_455
Cs2 O12 3.535279 1_555
Cs2 O42 3.627539 1_545
Cs3 O39 3.097647 1_555
Cs3 O17 3.112934 1_555
Cs3 O48 3.249185 1_555
Cs3 O32 3.277440 1_555
Cs3 O24 3.358545 1_555
Cs3 O31 3.454636 1_555
Cs3 O7 3.477688 1_555
Cs3 O23 3.501292 1_555
Cs3 O13 3.535279 1_455
Cs3 O43 3.627539 1_565
Cs4 O36 3.007505 1_555
Cs4 O55 3.109879 1_654
Cs4 O47 3.149011 1_655
Cs4 O28 3.181503 1_555
Cs4 O9 3.208053 1_555
Cs4 O3 3.303907 1_554
Cs4 O17 3.313500 1_655
Cs4 O48 3.494487 1_655
Cs4 O51 3.537892 1_555
Cs4 O43 3.599568 1_655
Cs4 O53 3.762661 1_555
Cs5 O37 3.007505 1_555
Cs5 O54 3.109879 1_555
Cs5 O46 3.149011 1_555
Cs5 O29 3.181503 1_555
Cs5 O8 3.208053 1_555
Cs5 O2 3.303907 1_555
Cs5 O16 3.313500 1_555
Cs5 O49 3.494487 1_555
Cs5 O50 3.537892 1_555
Cs5 O42 3.599568 1_555
Cs5 O52 3.762661 1_555
Cs6 O38 3.007505 1_555
Cs6 O53 3.109879 1_556
Cs6 O45 3.149011 1_555
Cs6 O30 3.181503 1_555
Cs6 O11 3.208053 1_555
Cs6 O1 3.303907 1_546
Cs6 O19 3.313500 1_545
Cs6 O50 3.494487 1_545
Cs6 O49 3.537892 1_555
Cs6 O41 3.599568 1_555
Cs6 O55 3.762661 1_555
Cs7 O39 3.007505 1_555
Cs7 O52 3.109879 1_455
Cs7 O44 3.149011 1_455
Cs7 O31 3.181503 1_555
Cs7 O10 3.208053 1_555
Cs7 O0 3.303907 1_565
Cs7 O18 3.313500 1_465
Cs7 O51 3.494487 1_465
Cs7 O48 3.537892 1_555
Cs7 O40 3.599568 1_455
Cs7 O54 3.762661 1_555
Ba0 O0 2.660900 1_555
Ba0 O42 2.697988 1_545
Ba0 O4 2.727569 1_545
Ba0 O20 2.871192 1_555
Ba0 O12 2.888350 1_555
Ba0 O35 2.992106 1_555
Ba0 O8 3.034740 1_545
Ba0 O54 3.128557 1_545
Ba1 O1 2.660900 1_556
Ba1 O43 2.697988 1_566
Ba1 O5 2.727569 1_465
Ba1 O21 2.871192 1_555
Ba1 O13 2.888350 1_456
Ba1 O34 2.992105 1_555
Ba1 O9 3.034740 1_466
Ba1 O55 3.128557 1_565
Ba2 O2 2.660900 1_555
Ba2 O40 2.697988 1_555
Ba2 O6 2.727569 1_655
Ba2 O22 2.871192 1_555
Ba2 O14 2.888350 1_655
Ba2 O33 2.992106 1_555
Ba2 O10 3.034740 1_655
Ba2 O52 3.128557 1_555
Ba3 O3 2.660900 1_554
Ba3 O41 2.697988 1_554
Ba3 O7 2.727569 1_555
Ba3 O23 2.871192 1_555
Ba3 O15 2.888350 1_554
Ba3 O32 2.992106 1_555
Ba3 O11 3.034740 1_554
Ba3 O53 3.128557 1_555
Ba4 O31 2.595065 1_555
Ba4 O4 2.680803 1_555
Ba4 O24 2.773286 1_555
Ba4 O40 2.809393 1_555
Ba4 O2 2.832430 1_555
Ba4 O54 2.842793 1_555
Ba4 O44 3.001535 1_555
Ba5 O30 2.595065 1_655
Ba5 O5 2.680803 1_555
Ba5 O25 2.773286 1_655
Ba5 O41 2.809393 1_555
Ba5 O3 2.832430 1_555
Ba5 O55 2.842793 1_655
Ba5 O45 3.001535 1_555
Ba6 O29 2.595065 1_455
Ba6 O6 2.680803 1_555
Ba6 O26 2.773286 1_465
Ba6 O42 2.809393 1_555
Ba6 O0 2.832430 1_565
Ba6 O52 2.842793 1_455
Ba6 O46 3.001535 1_555
Ba7 O28 2.595065 1_555
Ba7 O7 2.680803 1_555
Ba7 O27 2.773286 1_545
Ba7 O43 2.809393 1_555
Ba7 O1 2.832430 1_545
Ba7 O53 2.842793 1_555
Ba7 O47 3.001535 1_555
Ba8 O47 2.708977 1_555
Ba8 O10 2.747084 1_555
Ba8 O14 2.757770 1_555
Ba8 O35 2.802608 1_555
Ba8 O20 2.813155 1_555
Ba8 O48 2.938346 1_555
Ba8 O24 2.952964 1_555
Ba9 O46 2.708977 1_555
Ba9 O11 2.747084 1_555
Ba9 O15 2.757770 1_555
Ba9 O34 2.802612 1_555
Ba9 O21 2.813155 1_555
Ba9 O49 2.938346 1_555
Ba9 O25 2.952964 1_555
Ba10 O45 2.708977 1_555
Ba10 O8 2.747084 1_545
Ba10 O12 2.757770 1_555
Ba10 O33 2.802608 1_555
Ba10 O22 2.813155 1_555
Ba10 O50 2.938346 1_545
Ba10 O26 2.952964 1_555
Ba11 O44 2.708977 1_555
Ba11 O9 2.747084 1_565
Ba11 O13 2.757770 1_555
Ba11 O32 2.802608 1_555
Ba11 O23 2.813155 1_555
Ba11 O51 2.938346 1_565
Ba11 O27 2.952964 1_555
O0 P6 1.532925 1_555
O1 P7 1.532925 1_554
O2 P4 1.532925 1_555
O3 P5 1.532925 1_556
O4 P0 1.535444 1_555
O5 P1 1.535444 1_555
O6 P2 1.535444 1_555
O7 P3 1.535444 1_555
O8 P0 1.533809 1_555
O9 P1 1.533809 1_554
O10 P2 1.533809 1_555
O11 P3 1.533809 1_556
O12 P4 1.532057 1_555
O13 P5 1.532057 1_555
O14 P6 1.532057 1_555
O15 P7 1.532057 1_555
O16 P4 1.651046 1_555
O16 P2 1.655755 1_555
O17 P5 1.651046 1_455
O17 P3 1.655755 1_555
O18 P6 1.651046 1_655
O18 P0 1.655755 1_545
O19 P7 1.651046 1_555
O19 P1 1.655755 1_565
O20 P4 1.536112 1_555
O21 P5 1.536112 1_456
O22 P6 1.536112 1_655
O23 P7 1.536112 1_554
O24 P12 1.541601 1_555
O25 P13 1.541601 1_455
O26 P14 1.541601 1_655
O27 P15 1.541601 1_555
O28 P12 1.523542 1_555
O29 P13 1.523542 1_555
O30 P14 1.523542 1_555
O31 P15 1.523542 1_555
O32 P12 1.536292 1_555
O33 P13 1.536292 1_555
O34 P14 1.536292 1_565
O35 P15 1.536292 1_545
O36 P8 1.652528 1_555
O36 P12 1.664739 1_555
O37 P9 1.652528 1_555
O37 P13 1.664739 1_555
O38 P10 1.652528 1_545
O38 P14 1.664739 1_555
O39 P11 1.652528 1_565
O39 P15 1.664739 1_555
O40 P8 1.540398 1_555
O41 P9 1.540398 1_555
O42 P10 1.540398 1_555
O43 P11 1.540398 1_555
O44 P8 1.539112 1_555
O45 P9 1.539112 1_555
O46 P10 1.539112 1_555
O47 P11 1.539112 1_555
O48 P8 1.524556 1_455
O49 P9 1.524556 1_555
O50 P10 1.524556 1_555
O51 P11 1.524556 1_655
O52 P0 1.530423 1_555
O53 P1 1.530423 1_554
O54 P2 1.530423 1_555
O55 P3 1.530423 1_556
