# generated using pymatgen
data_Ho2Fe17C2
_symmetry_space_group_name_H-M   'P 1'
_cell_length_a   6.45865169
_cell_length_b   6.45865169
_cell_length_c   6.48066277
_cell_angle_alpha   83.57206738
_cell_angle_beta   83.57206738
_cell_angle_gamma   83.36749278
_symmetry_Int_Tables_number   1
_chemical_formula_structural   Ho2Fe17C2
_chemical_formula_sum   'Ho2 Fe17 C2'
_cell_volume   265.49203907
_cell_formula_units_Z   1
loop_
 _symmetry_equiv_pos_site_id
 _symmetry_equiv_pos_as_xyz
  1  'x, y, z'
loop_
 _atom_site_type_symbol
 _atom_site_label
 _atom_site_symmetry_multiplicity
 _atom_site_fract_x
 _atom_site_fract_y
 _atom_site_fract_z
 _atom_site_occupancy
  Ho  Ho0  1  0.65393700  0.65393700  0.66199500  1
  Ho  Ho1  1  0.34606300  0.34606300  0.33800500  1
  Fe  Fe0  1  0.90319800  0.90319800  0.90333300  1
  Fe  Fe1  1  0.09680200  0.09680200  0.09666700  1
  Fe  Fe2  1  0.34512800  0.34512800  0.85503800  1
  Fe  Fe3  1  0.34345600  0.85261000  0.34218700  1
  Fe  Fe4  1  0.85261000  0.34345600  0.34218700  1
  Fe  Fe5  1  0.65487200  0.65487200  0.14496200  1
  Fe  Fe6  1  0.65654400  0.14739000  0.65781300  1
  Fe  Fe7  1  0.14739000  0.65654400  0.65781300  1
  Fe  Fe8  1  0.28556900  0.71443100  0.00000000  1
  Fe  Fe9  1  0.71559700  0.99915100  0.28446800  1
  Fe  Fe10  1  0.00084900  0.28440300  0.71553200  1
  Fe  Fe11  1  0.28440300  0.00084900  0.71553200  1
  Fe  Fe12  1  0.99915100  0.71559700  0.28446800  1
  Fe  Fe13  1  0.71443100  0.28556900  0.00000000  1
  Fe  Fe14  1  0.00000000  0.00000000  0.50000000  1
  Fe  Fe15  1  0.00000000  0.50000000  0.00000000  1
  Fe  Fe16  1  0.50000000  0.00000000  0.00000000  1
  C  C0  1  0.50000000  0.00000000  0.50000000  1
  C  C1  1  0.00000000  0.50000000  0.50000000  1
loop_
_geom_bond_atom_site_label_1
_geom_bond_atom_site_label_2
_geom_bond_distance
_geom_bond_site_symmetry_2
Fe0 Fe1 2.399940 1_666
Fe0 Fe16 2.628894 1_566
Fe0 Fe15 2.628894 1_656
Fe0 Fe14 2.640557 1_665
Fe0 Fe6 2.642385 1_565
Fe0 Fe7 2.642385 1_655
Fe0 Fe5 2.658252 1_556
Fe0 Fe12 2.729885 1_556
Fe0 Fe9 2.729885 1_556
Fe0 Fe10 2.730700 1_665
Fe0 Fe11 2.730700 1_665
Fe0 Fe8 2.730873 1_656
Fe0 Fe13 2.730873 1_566
Fe0 Ho0 3.058747 1_555
Fe1 Fe16 2.628894 1_555
Fe1 Fe15 2.628894 1_555
Fe1 Fe14 2.640557 1_555
Fe1 Fe3 2.642385 1_545
Fe1 Fe4 2.642385 1_455
Fe1 Fe2 2.658252 1_554
Fe1 Fe11 2.729885 1_554
Fe1 Fe10 2.729885 1_554
Fe1 Fe12 2.730700 1_445
Fe1 Fe9 2.730700 1_445
Fe1 Fe13 2.730873 1_455
Fe1 Fe8 2.730873 1_545
Fe1 Ho1 3.058747 1_555
Fe2 Fe7 2.550813 1_555
Fe2 Fe6 2.550813 1_555
Fe2 Fe8 2.632219 1_556
Fe2 Ho0 3.053299 1_555
Fe2 Ho1 3.131311 1_556
Fe2 Ho1 3.349376 1_555
Fe3 Fe5 2.550813 1_555
Fe3 Fe8 2.561219 1_555
Fe4 Fe5 2.550813 1_555
Fe5 Fe9 2.578076 1_555
Fe5 Fe8 2.632219 1_555
Fe5 Ho1 3.053299 1_555
Fe5 Ho0 3.131311 1_554
Fe5 Ho0 3.349376 1_555
Fe7 Fe8 2.561219 1_556
Fe8 Ho0 3.069419 1_554
Fe8 Ho1 3.069419 1_555
Fe10 Fe14 2.429738 1_555
Fe10 Fe15 2.430718 1_556
Fe10 Fe13 2.461104 1_456
Fe10 Fe2 2.578076 1_555
Fe11 Fe14 2.429738 1_555
Fe11 Fe16 2.430718 1_556
Fe11 Fe8 2.461104 1_546
Fe11 Fe2 2.578076 1_555
Fe12 Fe14 2.429738 1_665
Fe12 Fe15 2.430718 1_655
Fe12 Fe8 2.461104 1_655
Fe12 Fe5 2.578076 1_555
Fe13 Fe15 2.431025 1_655
Fe13 Fe16 2.431025 1_555
Fe13 Fe9 2.461104 1_545
Fe13 Fe4 2.561219 1_555
Fe13 Fe6 2.561219 1_554
Fe13 Fe5 2.632219 1_555
Fe13 Fe2 2.632219 1_554
Fe13 Ho0 3.069419 1_554
Fe13 Ho1 3.069419 1_555
Fe14 Fe9 2.429738 1_445
Fe14 Fe3 2.468822 1_545
Fe14 Fe7 2.468822 1_545
Fe14 Fe6 2.468822 1_455
Fe14 Fe4 2.468822 1_455
Fe14 Ho1 3.346150 1_555
Fe14 Ho0 3.346150 1_445
Fe15 Fe8 2.431025 1_555
Fe15 Fe5 2.465417 1_455
Fe15 Fe2 2.465417 1_554
Fe15 Fe4 2.468565 1_455
Fe15 Fe7 2.468565 1_554
Fe15 Ho1 3.298137 1_555
Fe15 Ho0 3.298137 1_454
Fe16 Fe9 2.430718 1_545
Fe16 Fe8 2.431025 1_545
Fe16 Fe5 2.465417 1_545
Fe16 Fe2 2.465417 1_554
Fe16 Fe6 2.468565 1_554
Fe16 Fe3 2.468565 1_545
Fe16 Ho0 3.298137 1_544
Fe16 Ho1 3.298137 1_555
C0 Fe11 1.858621 1_555
C0 Fe9 1.858621 1_545
C0 Fe6 1.909523 1_555
C0 Fe3 1.909523 1_545
C0 Ho0 2.506251 1_545
C0 Ho1 2.506251 1_555
C1 Fe10 1.858621 1_555
C1 Fe12 1.858621 1_455
C1 Fe4 1.909523 1_455
C1 Fe7 1.909523 1_555
C1 Ho1 2.506251 1_555
C1 Ho0 2.506251 1_455
