# generated using pymatgen
data_Ba3SrLu2(BiO6)2
_symmetry_space_group_name_H-M   'P 1'
_cell_length_a   6.06662300
_cell_length_b   6.06662300
_cell_length_c   8.57617500
_cell_angle_alpha   90.00000000
_cell_angle_beta   90.00000000
_cell_angle_gamma   90.00000000
_symmetry_Int_Tables_number   1
_chemical_formula_structural   Ba3SrLu2(BiO6)2
_chemical_formula_sum   'Ba3 Sr1 Lu2 Bi2 O12'
_cell_volume   315.63681250
_cell_formula_units_Z   1
loop_
 _symmetry_equiv_pos_site_id
 _symmetry_equiv_pos_as_xyz
  1  'x, y, z'
loop_
 _atom_site_type_symbol
 _atom_site_label
 _atom_site_symmetry_multiplicity
 _atom_site_fract_x
 _atom_site_fract_y
 _atom_site_fract_z
 _atom_site_occupancy
  Ba  Ba0  1  0.00000000  0.00000000  0.00000000  1
  Ba  Ba1  1  0.50000000  0.50000000  0.00000000  1
  Ba  Ba2  1  0.00000000  0.00000000  0.50000000  1
  Sr  Sr0  1  0.50000000  0.50000000  0.50000000  1
  Lu  Lu0  1  0.50000000  0.00000000  0.74908700  1
  Lu  Lu1  1  0.00000000  0.50000000  0.25091300  1
  Bi  Bi0  1  0.50000000  0.00000000  0.25056200  1
  Bi  Bi1  1  0.00000000  0.50000000  0.74943800  1
  O  O0  1  0.50000000  0.00000000  0.49680000  1
  O  O1  1  0.00000000  0.50000000  0.99675200  1
  O  O2  1  0.74550400  0.75199500  0.25136600  1
  O  O3  1  0.24800500  0.25449600  0.74863400  1
  O  O4  1  0.25449600  0.75199500  0.25136600  1
  O  O5  1  0.75199500  0.25449600  0.74863400  1
  O  O6  1  0.50000000  0.00000000  0.00324800  1
  O  O7  1  0.00000000  0.50000000  0.50320000  1
  O  O8  1  0.25449600  0.24800500  0.25136600  1
  O  O9  1  0.75199500  0.74550400  0.74863400  1
  O  O10  1  0.74550400  0.24800500  0.25136600  1
  O  O11  1  0.24800500  0.74550400  0.74863400  1
loop_
_geom_bond_atom_site_label_1
_geom_bond_atom_site_label_2
_geom_bond_distance
_geom_bond_site_symmetry_2
Ba0 O1 3.033439 1_544
Ba0 O6 3.033439 1_455
Ba0 O6 3.033439 1_555
Ba0 O1 3.033439 1_554
Ba0 O3 3.048721 1_554
Ba0 O2 3.048721 1_445
Ba0 O9 3.048721 1_444
Ba0 O5 3.048721 1_454
Ba0 O4 3.048721 1_545
Ba0 O8 3.048721 1_555
Ba0 O10 3.048721 1_455
Ba0 O11 3.048721 1_544
Ba1 O1 3.033439 1_654
Ba1 O6 3.033439 1_555
Ba1 O6 3.033439 1_565
Ba1 O1 3.033439 1_554
Ba1 O11 3.033587 1_554
Ba1 O8 3.033587 1_555
Ba1 O5 3.033587 1_554
Ba1 O9 3.033587 1_554
Ba1 O10 3.033587 1_555
Ba1 O2 3.033587 1_555
Ba1 O3 3.033587 1_554
Ba1 O4 3.033587 1_555
Ba2 O8 3.032199 1_555
Ba2 O10 3.032199 1_455
Ba2 O4 3.032199 1_545
Ba2 O3 3.032199 1_555
Ba2 O11 3.032199 1_545
Ba2 O9 3.032199 1_445
Ba2 O5 3.032199 1_455
Ba2 O2 3.032199 1_445
Ba2 O0 3.033436 1_455
Ba2 O7 3.033436 1_545
Ba2 O0 3.033436 1_555
Ba2 O7 3.033436 1_555
Lu0 O0 2.163657 1_555
Lu0 O5 2.172750 1_555
Lu0 O3 2.172750 1_555
Lu0 O11 2.172750 1_545
Lu0 O9 2.172750 1_545
Lu0 O6 2.179729 1_556
Lu1 O7 2.163657 1_555
Lu1 O4 2.172750 1_555
Lu1 O8 2.172750 1_555
Lu1 O2 2.172750 1_455
Lu1 O10 2.172750 1_455
Lu1 O1 2.179729 1_554
Bi0 O0 2.111780 1_555
Bi0 O2 2.117069 1_545
Bi0 O8 2.117069 1_555
Bi0 O10 2.117069 1_555
Bi0 O4 2.117069 1_545
Bi0 O6 2.121008 1_555
Bi1 O7 2.111780 1_555
Bi1 O9 2.117069 1_455
Bi1 O11 2.117069 1_555
Bi1 O3 2.117069 1_555
Bi1 O5 2.117069 1_455
Bi1 O1 2.121008 1_555
O0 Sr0 3.033436 1_555
O0 Sr0 3.033436 1_545
O2 Sr0 3.016982 1_555
O3 Sr0 3.016982 1_555
O4 Sr0 3.016982 1_555
O5 Sr0 3.016982 1_555
O7 Sr0 3.033436 1_555
O7 Sr0 3.033436 1_455
O8 Sr0 3.016982 1_555
O9 Sr0 3.016982 1_555
O10 Sr0 3.016982 1_555
O11 Sr0 3.016982 1_555
