# generated using pymatgen
data_GdAlGe2O7
_symmetry_space_group_name_H-M   'P 1'
_cell_length_a   6.55159000
_cell_length_b   7.26088200
_cell_length_c   12.77336171
_cell_angle_alpha   62.44489102
_cell_angle_beta   90.00000000
_cell_angle_gamma   90.00000000
_symmetry_Int_Tables_number   1
_chemical_formula_structural   GdAlGe2O7
_chemical_formula_sum   'Gd4 Al4 Ge8 O28'
_cell_volume   538.70687560
_cell_formula_units_Z   4
loop_
 _symmetry_equiv_pos_site_id
 _symmetry_equiv_pos_as_xyz
  1  'x, y, z'
loop_
 _atom_site_type_symbol
 _atom_site_label
 _atom_site_symmetry_multiplicity
 _atom_site_fract_x
 _atom_site_fract_y
 _atom_site_fract_z
 _atom_site_occupancy
  Gd  Gd0  1  0.35368400  0.74207900  0.52790200  1
  Gd  Gd1  1  0.64631600  0.25792100  0.47209800  1
  Gd  Gd2  1  0.85368400  0.25792100  0.97209800  1
  Gd  Gd3  1  0.14631600  0.74207900  0.02790200  1
  Al  Al0  1  0.39827600  0.71166900  0.27087200  1
  Al  Al1  1  0.60172400  0.28833100  0.72912800  1
  Al  Al2  1  0.89827600  0.28833100  0.22912800  1
  Al  Al3  1  0.10172400  0.71166900  0.77087200  1
  Ge  Ge0  1  0.65709100  0.71078200  0.04843600  1
  Ge  Ge1  1  0.34290900  0.28921800  0.95156400  1
  Ge  Ge2  1  0.15709100  0.28921800  0.45156400  1
  Ge  Ge3  1  0.84290900  0.71078200  0.54843600  1
  Ge  Ge4  1  0.90993700  0.80283200  0.27954200  1
  Ge  Ge5  1  0.09006300  0.19716800  0.72045800  1
  Ge  Ge6  1  0.40993700  0.19716800  0.22045800  1
  Ge  Ge7  1  0.59006300  0.80283200  0.77954200  1
  O  O0  1  0.37605300  0.92561800  0.30492200  1
  O  O1  1  0.62394700  0.07438200  0.69507800  1
  O  O2  1  0.87605300  0.07438200  0.19507800  1
  O  O3  1  0.12394700  0.92561800  0.80492200  1
  O  O4  1  0.82711700  0.90994100  0.02264200  1
  O  O5  1  0.17288300  0.09005900  0.97735800  1
  O  O6  1  0.32711700  0.09005900  0.47735800  1
  O  O7  1  0.67288300  0.90994100  0.52264200  1
  O  O8  1  0.61553400  0.27656300  0.27898100  1
  O  O9  1  0.38446600  0.72343700  0.72101900  1
  O  O10  1  0.11553400  0.72343700  0.22101900  1
  O  O11  1  0.88446600  0.27656300  0.77898100  1
  O  O12  1  0.00148900  0.74833300  0.42625300  1
  O  O13  1  0.99851100  0.25166700  0.57374700  1
  O  O14  1  0.50148900  0.25166700  0.07374700  1
  O  O15  1  0.49851100  0.74833300  0.92625300  1
  O  O16  1  0.44546700  0.70539400  0.13364300  1
  O  O17  1  0.55453300  0.29460600  0.86635700  1
  O  O18  1  0.94546700  0.29460600  0.36635700  1
  O  O19  1  0.05453300  0.70539400  0.63364300  1
  O  O20  1  0.84304100  0.50866100  0.08413700  1
  O  O21  1  0.15695900  0.49133900  0.91586300  1
  O  O22  1  0.34304100  0.49133900  0.41586300  1
  O  O23  1  0.65695900  0.50866100  0.58413700  1
  O  O24  1  0.68158800  0.65824100  0.31279600  1
  O  O25  1  0.31841200  0.34175900  0.68720400  1
  O  O26  1  0.18158800  0.34175900  0.18720400  1
  O  O27  1  0.81841200  0.65824100  0.81279600  1
loop_
_geom_bond_atom_site_label_1
_geom_bond_atom_site_label_2
_geom_bond_distance
_geom_bond_site_symmetry_2
Gd0 O6 2.306904 1_565
Gd0 O19 2.324577 1_555
Gd0 O7 2.405755 1_555
Gd0 O9 2.415563 1_555
Gd0 O23 2.491976 1_555
Gd0 O0 2.529416 1_555
Gd0 O12 2.637730 1_555
Gd0 O25 2.677777 1_555
Gd0 O22 2.788926 1_555
Gd1 O7 2.306904 1_545
Gd1 O18 2.324577 1_555
Gd1 O6 2.405755 1_555
Gd1 O8 2.415563 1_555
Gd1 O22 2.491976 1_555
Gd1 O1 2.529416 1_555
Gd1 O13 2.637730 1_555
Gd1 O24 2.677777 1_555
Gd1 O23 2.788926 1_555
Gd2 O4 2.306904 1_546
Gd2 O17 2.324577 1_555
Gd2 O5 2.405755 1_655
Gd2 O11 2.415563 1_555
Gd2 O21 2.491976 1_655
Gd2 O2 2.529416 1_556
Gd2 O14 2.637730 1_556
Gd2 O27 2.677777 1_555
Gd2 O20 2.788926 1_556
Gd3 O5 2.306904 1_564
Gd3 O16 2.324577 1_555
Gd3 O4 2.405755 1_455
Gd3 O10 2.415563 1_555
Gd3 O20 2.491976 1_455
Gd3 O3 2.529416 1_554
Gd3 O15 2.637730 1_554
Gd3 O26 2.677777 1_555
Gd3 O21 2.788926 1_554
Al0 O16 1.801147 1_555
Al0 O0 1.802418 1_555
Al0 O22 1.838215 1_555
Al0 O24 1.921023 1_555
Al0 O10 1.947789 1_555
Al1 O17 1.801147 1_555
Al1 O1 1.802418 1_555
Al1 O23 1.838215 1_555
Al1 O25 1.921023 1_555
Al1 O11 1.947789 1_555
Al2 O18 1.801147 1_555
Al2 O2 1.802418 1_555
Al2 O20 1.838215 1_555
Al2 O26 1.921023 1_655
Al2 O8 1.947789 1_555
Al3 O19 1.801147 1_555
Al3 O3 1.802418 1_555
Al3 O21 1.838215 1_555
Al3 O27 1.921023 1_455
Al3 O9 1.947789 1_555
Ge0 O4 1.731972 1_555
Ge0 O16 1.751861 1_555
Ge0 O15 1.787682 1_554
Ge0 O20 1.796309 1_555
Ge1 O5 1.731972 1_555
Ge1 O17 1.751861 1_555
Ge1 O14 1.787682 1_556
Ge1 O21 1.796309 1_555
Ge2 O6 1.731972 1_555
Ge2 O18 1.751861 1_455
Ge2 O13 1.787682 1_455
Ge2 O22 1.796309 1_555
Ge3 O7 1.731972 1_555
Ge3 O19 1.751861 1_655
Ge3 O12 1.787682 1_655
Ge3 O23 1.796309 1_555
Ge4 O10 1.761878 1_655
Ge4 O24 1.763009 1_555
Ge4 O2 1.769951 1_565
Ge4 O12 1.828146 1_655
Ge5 O11 1.761878 1_455
Ge5 O25 1.763009 1_555
Ge5 O3 1.769951 1_545
Ge5 O13 1.828146 1_455
Ge6 O8 1.761878 1_555
Ge6 O26 1.763009 1_555
Ge6 O0 1.769951 1_545
Ge6 O14 1.828146 1_555
Ge7 O9 1.761878 1_555
Ge7 O27 1.763009 1_555
Ge7 O1 1.769951 1_565
Ge7 O15 1.828146 1_555
