# generated using pymatgen
data_Ca2YbRuO6
_symmetry_space_group_name_H-M   'P 1'
_cell_length_a   5.83237600
_cell_length_b   5.54615900
_cell_length_c   9.71206772
_cell_angle_alpha   55.23033270
_cell_angle_beta   90.00000000
_cell_angle_gamma   90.00000000
_symmetry_Int_Tables_number   1
_chemical_formula_structural   Ca2YbRuO6
_chemical_formula_sum   'Ca4 Yb2 Ru2 O12'
_cell_volume   258.06631342
_cell_formula_units_Z   2
loop_
 _symmetry_equiv_pos_site_id
 _symmetry_equiv_pos_as_xyz
  1  'x, y, z'
loop_
 _atom_site_type_symbol
 _atom_site_label
 _atom_site_symmetry_multiplicity
 _atom_site_fract_x
 _atom_site_fract_y
 _atom_site_fract_z
 _atom_site_occupancy
  Ca  Ca0  1  0.43937600  0.23834000  0.74493100  1
  Ca  Ca1  1  0.56062400  0.76166000  0.25506900  1
  Ca  Ca2  1  0.93937600  0.76166000  0.75506900  1
  Ca  Ca3  1  0.06062400  0.23834000  0.24493100  1
  Yb  Yb0  1  0.00000000  0.50000000  0.50000000  1
  Yb  Yb1  1  0.50000000  0.50000000  0.00000000  1
  Ru  Ru0  1  0.00000000  0.00000000  0.00000000  1
  Ru  Ru1  1  0.50000000  0.00000000  0.50000000  1
  O  O0  1  0.04982300  0.34062400  0.77161100  1
  O  O1  1  0.95017700  0.65937600  0.22838900  1
  O  O2  1  0.54982300  0.65937600  0.72838900  1
  O  O3  1  0.45017700  0.34062400  0.27161100  1
  O  O4  1  0.72090200  0.89757500  0.93159700  1
  O  O5  1  0.27909800  0.10242500  0.06840300  1
  O  O6  1  0.22090200  0.10242500  0.56840300  1
  O  O7  1  0.77909800  0.89757500  0.43159700  1
  O  O8  1  0.17957500  0.76602200  0.94803800  1
  O  O9  1  0.82042500  0.23397800  0.05196200  1
  O  O10  1  0.67957500  0.23397800  0.55196200  1
  O  O11  1  0.32042500  0.76602200  0.44803800  1
loop_
_geom_bond_atom_site_label_1
_geom_bond_atom_site_label_2
_geom_bond_distance
_geom_bond_site_symmetry_2
Ca0 O2 2.337888 1_555
Ca0 O10 2.351013 1_555
Ca0 O4 2.376275 1_545
Ca0 O0 2.391376 1_555
Ca0 O6 2.570064 1_555
Ca0 O8 2.674987 1_545
Ca0 O11 2.781324 1_555
Ca0 O5 2.934384 1_556
Ca1 O3 2.337888 1_555
Ca1 O11 2.351013 1_555
Ca1 O5 2.376275 1_565
Ca1 O1 2.391376 1_555
Ca1 O7 2.570064 1_555
Ca1 O9 2.674987 1_565
Ca1 O10 2.781324 1_555
Ca1 O4 2.934384 1_554
Ca2 O0 2.337888 1_655
Ca2 O8 2.351013 1_655
Ca2 O6 2.376275 1_665
Ca2 O2 2.391376 1_555
Ca2 O4 2.570064 1_555
Ca2 O10 2.674987 1_565
Ca2 O9 2.781324 1_556
Ca2 O7 2.934384 1_555
Ca3 O1 2.337888 1_455
Ca3 O9 2.351013 1_455
Ca3 O7 2.376275 1_445
Ca3 O3 2.391376 1_555
Ca3 O5 2.570064 1_555
Ca3 O11 2.674987 1_545
Ca3 O8 2.781324 1_554
Ca3 O6 2.934384 1_555
O0 Ru0 1.947836 1_556
O0 Yb0 2.272632 1_555
O1 Ru0 1.947836 1_665
O1 Yb0 2.272632 1_655
O2 Ru1 1.947836 1_565
O2 Yb1 2.272632 1_556
O3 Ru1 1.947836 1_555
O3 Yb1 2.272632 1_555
O4 Ru0 1.960667 1_666
O4 Yb1 2.300564 1_556
O5 Ru0 1.960667 1_555
O5 Yb1 2.300564 1_555
O6 Ru1 1.960667 1_555
O6 Yb0 2.300564 1_555
O7 Ru1 1.960667 1_565
O7 Yb0 2.300564 1_655
O8 Ru0 1.944871 1_566
O8 Yb1 2.252735 1_556
O9 Ru0 1.944871 1_655
O9 Yb1 2.252735 1_555
O10 Ru1 1.944871 1_555
O10 Yb0 2.252735 1_655
O11 Ru1 1.944871 1_565
O11 Yb0 2.252735 1_555
