# generated using pymatgen
data_Ba2Ni2F11
_symmetry_space_group_name_H-M   'P 1'
_cell_length_a   7.60116389
_cell_length_b   7.60116389
_cell_length_c   13.93896200
_cell_angle_alpha   90.00000000
_cell_angle_beta   90.00000000
_cell_angle_gamma   119.99999908
_symmetry_Int_Tables_number   1
_chemical_formula_structural   Ba2Ni2F11
_chemical_formula_sum   'Ba6 Ni6 F33'
_cell_volume   697.46314437
_cell_formula_units_Z   3
loop_
 _symmetry_equiv_pos_site_id
 _symmetry_equiv_pos_as_xyz
  1  'x, y, z'
loop_
 _atom_site_type_symbol
 _atom_site_label
 _atom_site_symmetry_multiplicity
 _atom_site_fract_x
 _atom_site_fract_y
 _atom_site_fract_z
 _atom_site_occupancy
  Ba  Ba0  1  0.53000600  0.18136700  0.67569500  1
  Ba  Ba1  1  0.15370800  0.47749900  0.82763100  1
  Ba  Ba2  1  0.65136100  0.46999400  0.00902900  1
  Ba  Ba3  1  0.52250100  0.67620900  0.49429700  1
  Ba  Ba4  1  0.32379100  0.84629200  0.16096400  1
  Ba  Ba5  1  0.81863300  0.34863900  0.34236200  1
  Ni  Ni0  1  0.64928600  0.97589300  0.88180800  1
  Ni  Ni1  1  0.85634400  0.77511700  0.72628800  1
  Ni  Ni2  1  0.22488300  0.08122700  0.39295400  1
  Ni  Ni3  1  0.32660700  0.35071400  0.21514100  1
  Ni  Ni4  1  0.91877300  0.14365600  0.05962100  1
  Ni  Ni5  1  0.02410700  0.67339300  0.54847500  1
  F  F0  1  0.63210800  0.05091900  0.01548600  1
  F  F1  1  0.51882900  0.71166200  0.93027800  1
  F  F2  1  0.41881000  0.36789200  0.34881900  1
  F  F3  1  0.10922100  0.50531500  0.48601800  1
  F  F4  1  0.51862000  0.26995800  0.18122600  1
  F  F5  1  0.93730400  0.60485900  0.18539100  1
  F  F6  1  0.49468500  0.60390600  0.15268500  1
  F  F7  1  0.39514100  0.33244500  0.85205800  1
  F  F8  1  0.75133700  0.48138000  0.51456000  1
  F  F9  1  0.20825800  0.26768400  0.08966300  1
  F  F10  1  0.39609400  0.89077900  0.81935200  1
  F  F11  1  0.94908100  0.58119000  0.68215300  1
  F  F12  1  0.32786900  0.04338700  0.99904600  1
  F  F13  1  0.99230200  0.41456800  0.01419000  1
  F  F14  1  0.71551800  0.67213100  0.33237900  1
  F  F15  1  0.28833800  0.80716700  0.59694500  1
  F  F16  1  0.93682800  0.09163600  0.92099400  1
  F  F17  1  0.05942600  0.79174200  0.42299600  1
  F  F18  1  0.01207600  0.12660300  0.40589900  1
  F  F19  1  0.95661300  0.28448200  0.66571300  1
  F  F20  1  0.11452600  0.98792400  0.73923300  1
  F  F21  1  0.58543200  0.57773500  0.68085600  1
  F  F22  1  0.42226500  0.00769800  0.34752300  1
  F  F23  1  0.15480800  0.06317200  0.25432700  1
  F  F24  1  0.73231600  0.94057400  0.75632900  1
  F  F25  1  0.73004200  0.24866300  0.84789300  1
  F  F26  1  0.19283300  0.48117100  0.26361200  1
  F  F27  1  0.83718200  0.66816800  0.84645200  1
  F  F28  1  0.83098700  0.16281800  0.17978500  1
  F  F29  1  0.87339700  0.88547400  0.07256600  1
  F  F30  1  0.66755500  0.06269600  0.51872500  1
  F  F31  1  0.90836400  0.84519200  0.58766100  1
  F  F32  1  0.33183200  0.16901300  0.51311900  1
loop_
_geom_bond_atom_site_label_1
_geom_bond_atom_site_label_2
_geom_bond_distance
_geom_bond_site_symmetry_2
Ba0 F32 2.696638 1_555
Ba0 F15 2.728505 1_545
Ba0 F25 2.749013 1_555
Ba0 F30 2.763559 1_555
Ba0 F10 2.770619 1_545
Ba0 F21 2.826776 1_555
Ba0 F20 2.876897 1_545
Ba0 F19 2.933810 1_555
Ba0 F8 3.039576 1_555
Ba0 F7 3.096804 1_555
Ba0 F11 3.116169 1_555
Ba0 F24 3.129334 1_545
Ba1 F7 2.592854 1_555
Ba1 F19 2.700535 1_455
Ba1 F10 2.736509 1_555
Ba1 F25 2.806151 1_455
Ba1 F13 2.812373 1_456
Ba1 F1 2.824522 1_555
Ba1 F16 2.859832 1_455
Ba1 F11 2.894554 1_455
Ba2 F27 2.696652 1_554
Ba2 F1 2.728511 1_554
Ba2 F4 2.749002 1_555
Ba2 F7 2.763570 1_554
Ba2 F6 2.770609 1_555
Ba2 F13 2.826768 1_555
Ba2 F29 2.876893 1_555
Ba2 F12 2.933811 1_554
Ba2 F25 3.039582 1_554
Ba2 F5 3.096793 1_555
Ba2 F0 3.116165 1_555
Ba2 F9 3.129334 1_555
Ba3 F30 2.592856 1_565
Ba3 F14 2.700535 1_555
Ba3 F3 2.736509 1_555
Ba3 F8 2.806146 1_555
Ba3 F21 2.812371 1_555
Ba3 F15 2.824529 1_555
Ba3 F31 2.859838 1_555
Ba3 F2 2.894549 1_555
Ba4 F5 2.592854 1_455
Ba4 F12 2.700535 1_564
Ba4 F6 2.736509 1_555
Ba4 F4 2.806152 1_565
Ba4 F22 2.812373 1_565
Ba4 F26 2.824529 1_555
Ba4 F23 2.859832 1_565
Ba4 F0 2.894550 1_565
Ba5 F28 2.696654 1_555
Ba5 F26 2.728505 1_655
Ba5 F8 2.749017 1_555
Ba5 F5 2.763570 1_555
Ba5 F3 2.770609 1_655
Ba5 F22 2.826773 1_555
Ba5 F18 2.876887 1_655
Ba5 F14 2.933811 1_555
Ba5 F4 3.039587 1_555
Ba5 F30 3.096804 1_555
Ba5 F2 3.116172 1_555
Ba5 F17 3.129334 1_655
F0 Ni0 1.971990 1_544
F0 Ni4 2.021723 1_555
F1 Ni0 1.866030 1_555
F2 Ni3 1.971988 1_555
F2 Ni2 2.021721 1_555
F3 Ni5 1.906639 1_555
F4 Ni3 1.904311 1_555
F6 Ni3 1.906632 1_555
F8 Ni5 1.904316 1_655
F9 Ni3 1.923264 1_555
F9 Ni4 1.957433 1_455
F10 Ni0 1.906632 1_555
F11 Ni5 1.971989 1_655
F11 Ni1 2.021716 1_555
F13 Ni4 1.950120 1_555
F15 Ni5 1.866030 1_555
F16 Ni0 1.981552 1_545
F16 Ni4 1.990804 1_556
F17 Ni5 1.923277 1_555
F17 Ni2 1.957433 1_565
F18 Ni2 1.823735 1_555
F20 Ni1 1.823730 1_455
F21 Ni1 1.950122 1_555
F22 Ni2 1.950113 1_555
F23 Ni3 1.981552 1_555
F23 Ni2 1.990804 1_555
F24 Ni0 1.923277 1_555
F24 Ni1 1.957430 1_555
F25 Ni0 1.904318 1_545
F26 Ni3 1.866035 1_555
F27 Ni1 1.835530 1_555
F28 Ni4 1.835527 1_555
F29 Ni4 1.823728 1_565
F31 Ni5 1.981552 1_655
F31 Ni1 1.990804 1_555
F32 Ni2 1.835542 1_555
