# generated using pymatgen
data_NaAu(IO3)4
_symmetry_space_group_name_H-M   'P 1'
_cell_length_a   10.98972139
_cell_length_b   4.40341884
_cell_length_c   12.36262292
_cell_angle_alpha   90.00000000
_cell_angle_beta   116.24067406
_cell_angle_gamma   90.00000000
_symmetry_Int_Tables_number   1
_chemical_formula_structural   NaAu(IO3)4
_chemical_formula_sum   'Na2 Au2 I8 O24'
_cell_volume   536.60285517
_cell_formula_units_Z   2
loop_
 _symmetry_equiv_pos_site_id
 _symmetry_equiv_pos_as_xyz
  1  'x, y, z'
loop_
 _atom_site_type_symbol
 _atom_site_label
 _atom_site_symmetry_multiplicity
 _atom_site_fract_x
 _atom_site_fract_y
 _atom_site_fract_z
 _atom_site_occupancy
  Na  Na0  1  0.50000000  -0.00000000  0.50000000  1
  Na  Na1  1  0.50000000  0.50000000  0.00000000  1
  Au  Au0  1  -0.00000000  -0.00000000  0.00000000  1
  Au  Au1  1  -0.00000000  0.50000000  0.50000000  1
  I  I0  1  0.34217135  0.53684216  0.67915412  1
  I  I1  1  0.65782865  0.03684216  0.82084588  1
  I  I2  1  0.65782865  0.46315784  0.32084588  1
  I  I3  1  0.34217135  0.96315784  0.17915412  1
  I  I4  1  0.17961408  0.97737209  0.84585038  1
  I  I5  1  0.82038592  0.47737209  0.65414962  1
  I  I6  1  0.82038592  0.02262791  0.15414962  1
  I  I7  1  0.17961408  0.52262791  0.34585038  1
  O  O0  1  0.17761494  0.72315774  0.56867025  1
  O  O1  1  0.82238506  0.22315774  0.93132975  1
  O  O2  1  0.82238506  0.27684226  0.43132975  1
  O  O3  1  0.17761494  0.77684226  0.06867025  1
  O  O4  1  0.35185821  0.72498651  0.81404070  1
  O  O5  1  0.64814179  0.22498651  0.68595930  1
  O  O6  1  0.64814179  0.27501349  0.18595930  1
  O  O7  1  0.35185821  0.77501349  0.31404070  1
  O  O8  1  0.44431880  0.82146996  0.65297454  1
  O  O9  1  0.55568120  0.32146996  0.84702546  1
  O  O10  1  0.55568120  0.17853004  0.34702546  1
  O  O11  1  0.44431880  0.67853004  0.15297454  1
  O  O12  1  0.16109035  0.23448265  0.72787092  1
  O  O13  1  0.83890965  0.73448265  0.77212908  1
  O  O14  1  0.83890965  0.76551735  0.27212908  1
  O  O15  1  0.16109035  0.26551735  0.22787092  1
  O  O16  1  0.32525790  0.13593936  0.97134433  1
  O  O17  1  0.67474210  0.63593936  0.52865567  1
  O  O18  1  0.67474210  0.86406064  0.02865567  1
  O  O19  1  0.32525790  0.36406064  0.47134433  1
  O  O20  1  0.04950136  0.19904576  0.87868466  1
  O  O21  1  0.95049864  0.69904576  0.62131534  1
  O  O22  1  0.95049864  0.80095424  0.12131534  1
  O  O23  1  0.04950136  0.30095424  0.37868466  1
loop_
_geom_bond_atom_site_label_1
_geom_bond_atom_site_label_2
_geom_bond_distance
_geom_bond_site_symmetry_2
Na0 O10 2.364807 1_555
Na0 O8 2.364807 1_545
Na0 O5 2.368012 1_555
Na0 O7 2.368012 1_545
Na0 O19 2.404514 1_555
Na0 O17 2.404514 1_545
Na1 O9 2.364807 1_554
Na1 O11 2.364807 1_555
Na1 O6 2.368012 1_555
Na1 O4 2.368012 1_554
Na1 O18 2.404514 1_555
Na1 O16 2.404514 1_554
Au0 O3 2.007747 1_545
Au0 O1 2.007747 1_454
Au0 O22 2.008723 1_445
Au0 O20 2.008723 1_554
Au1 O0 2.007747 1_555
Au1 O2 2.007747 1_455
Au1 O21 2.008723 1_455
Au1 O23 2.008723 1_555
I0 O8 1.804728 1_555
I0 O4 1.822487 1_555
I0 O0 1.903907 1_555
I0 O9 2.531001 1_555
I1 O9 1.804728 1_555
I1 O5 1.822487 1_555
I1 O1 1.903907 1_555
I1 O8 2.531001 1_545
I2 O10 1.804728 1_555
I2 O6 1.822487 1_555
I2 O2 1.903907 1_555
I2 O11 2.531001 1_555
I3 O11 1.804728 1_555
I3 O7 1.822487 1_555
I3 O3 1.903907 1_555
I3 O10 2.531001 1_565
I4 O12 1.785499 1_565
I4 O16 1.805685 1_565
I4 O20 1.917150 1_565
I4 O4 2.373004 1_555
I5 O13 1.785499 1_555
I5 O17 1.805685 1_555
I5 O21 1.917150 1_555
I5 O5 2.373004 1_555
I6 O14 1.785499 1_545
I6 O18 1.805685 1_545
I6 O22 1.917150 1_545
I6 O6 2.373004 1_555
I7 O15 1.785499 1_555
I7 O19 1.805685 1_555
I7 O23 1.917150 1_555
I7 O7 2.373004 1_555
