# generated using pymatgen
data_MoW(SeS)2
_symmetry_space_group_name_H-M   'P 1'
_cell_length_a   3.25740880
_cell_length_b   3.25740880
_cell_length_c   23.01774200
_cell_angle_alpha   90.00000000
_cell_angle_beta   90.00000000
_cell_angle_gamma   120.00001621
_symmetry_Int_Tables_number   1
_chemical_formula_structural   MoW(SeS)2
_chemical_formula_sum   'Mo1 W1 Se2 S2'
_cell_volume   211.51336215
_cell_formula_units_Z   1
loop_
 _symmetry_equiv_pos_site_id
 _symmetry_equiv_pos_as_xyz
  1  'x, y, z'
loop_
 _atom_site_type_symbol
 _atom_site_label
 _atom_site_symmetry_multiplicity
 _atom_site_fract_x
 _atom_site_fract_y
 _atom_site_fract_z
 _atom_site_occupancy
  Mo  Mo0  1  0.66666700  0.33333300  0.45143500  1
  W  W0  1  0.33333300  0.66666700  0.15044600  1
  Se  Se0  1  0.66666700  0.33333300  0.07624200  1
  Se  Se1  1  0.66666700  0.33333300  0.22461500  1
  S  S0  1  0.33333300  0.66666700  0.51847700  1
  S  S1  1  0.33333300  0.66666700  0.38438800  1
loop_
_geom_bond_atom_site_label_1
_geom_bond_atom_site_label_2
_geom_bond_distance
_geom_bond_site_symmetry_2
Mo0 S0 2.432740 1_545
Mo0 S0 2.432740 1_655
Mo0 S0 2.432745 1_555
Mo0 S1 2.432813 1_545
Mo0 S1 2.432813 1_655
Mo0 S1 2.432818 1_555
Se0 W0 2.540510 1_545
Se0 W0 2.540510 1_655
Se0 W0 2.540514 1_555
Se1 W0 2.539968 1_545
Se1 W0 2.539968 1_655
Se1 W0 2.539973 1_555
