# generated using pymatgen
data_Sr3V5S11
_symmetry_space_group_name_H-M   'P 1'
_cell_length_a   8.65566937
_cell_length_b   8.65566937
_cell_length_c   23.50860668
_cell_angle_alpha   85.78508658
_cell_angle_beta   85.78508658
_cell_angle_gamma   120.22025004
_symmetry_Int_Tables_number   1
_chemical_formula_structural   Sr3V5S11
_chemical_formula_sum   'Sr12 V20 S44'
_cell_volume   1505.27237246
_cell_formula_units_Z   4
loop_
 _symmetry_equiv_pos_site_id
 _symmetry_equiv_pos_as_xyz
  1  'x, y, z'
loop_
 _atom_site_type_symbol
 _atom_site_label
 _atom_site_symmetry_multiplicity
 _atom_site_fract_x
 _atom_site_fract_y
 _atom_site_fract_z
 _atom_site_occupancy
  Sr  Sr0  1  0.80719800  0.85718100  0.17853200  1
  Sr  Sr1  1  0.14281900  0.19280200  0.32146800  1
  Sr  Sr2  1  0.19280200  0.14281900  0.82146800  1
  Sr  Sr3  1  0.85718100  0.80719800  0.67853200  1
  Sr  Sr4  1  0.61155400  0.25900500  0.17601500  1
  Sr  Sr5  1  0.74099500  0.38844600  0.32398500  1
  Sr  Sr6  1  0.38844600  0.74099500  0.82398500  1
  Sr  Sr7  1  0.25900500  0.61155400  0.67601500  1
  Sr  Sr8  1  0.20223000  0.45307700  0.17883100  1
  Sr  Sr9  1  0.54692300  0.79777000  0.32116900  1
  Sr  Sr10  1  0.79777000  0.54692300  0.82116900  1
  Sr  Sr11  1  0.45307700  0.20223000  0.67883100  1
  V  V0  1  0.23578600  0.88016200  0.12429600  1
  V  V1  1  0.11983800  0.76421400  0.37570400  1
  V  V2  1  0.76421400  0.11983800  0.87570400  1
  V  V3  1  0.88016200  0.23578600  0.62429600  1
  V  V4  1  0.17588900  0.82411100  0.25000000  1
  V  V5  1  0.82411100  0.17588900  0.75000000  1
  V  V6  1  0.84718000  0.76040800  0.99760900  1
  V  V7  1  0.23959200  0.15282000  0.50239100  1
  V  V8  1  0.15282000  0.23959200  0.00239100  1
  V  V9  1  0.76040800  0.84718000  0.49760900  1
  V  V10  1  0.00000000  0.50000000  0.00000000  1
  V  V11  1  0.50000000  0.00000000  0.50000000  1
  V  V12  1  0.54729300  0.37113100  0.99980600  1
  V  V13  1  0.62886900  0.45270700  0.50019400  1
  V  V14  1  0.45270700  0.62886900  0.00019400  1
  V  V15  1  0.37113100  0.54729300  0.49980600  1
  V  V16  1  0.25976200  0.93553300  0.99656200  1
  V  V17  1  0.06446700  0.74023800  0.50343800  1
  V  V18  1  0.74023800  0.06446700  0.00343800  1
  V  V19  1  0.93553300  0.25976200  0.49656200  1
  S  S0  1  0.35633000  0.20224800  0.93512500  1
  S  S1  1  0.79775200  0.64367000  0.56487500  1
  S  S2  1  0.64367000  0.79775200  0.06487500  1
  S  S3  1  0.20224800  0.35633000  0.43512500  1
  S  S4  1  0.05829300  0.94978400  0.06004500  1
  S  S5  1  0.05021600  0.94170700  0.43995500  1
  S  S6  1  0.94170700  0.05021600  0.93995500  1
  S  S7  1  0.94978400  0.05829300  0.56004500  1
  S  S8  1  0.98101900  0.63199200  0.18446000  1
  S  S9  1  0.36800800  0.01898100  0.31554000  1
  S  S10  1  0.01898100  0.36800800  0.81554000  1
  S  S11  1  0.63199200  0.98101900  0.68446000  1
  S  S12  1  0.20768000  0.07503500  0.18636600  1
  S  S13  1  0.92496500  0.79232000  0.31363400  1
  S  S14  1  0.79232000  0.92496500  0.81363400  1
  S  S15  1  0.07503500  0.20768000  0.68636600  1
  S  S16  1  0.78049100  0.51731500  0.06166100  1
  S  S17  1  0.48268500  0.21950900  0.43833900  1
  S  S18  1  0.21950900  0.48268500  0.93833900  1
  S  S19  1  0.51731500  0.78049100  0.56166100  1
  S  S20  1  0.49797500  0.09852100  0.05577000  1
  S  S21  1  0.90147900  0.50202500  0.44423000  1
  S  S22  1  0.50202500  0.90147900  0.94423000  1
  S  S23  1  0.09852100  0.49797500  0.55577000  1
  S  S24  1  0.06970100  0.75995500  0.93178100  1
  S  S25  1  0.24004500  0.93029900  0.56821900  1
  S  S26  1  0.93029900  0.24004500  0.06821900  1
  S  S27  1  0.75995500  0.06970100  0.43178100  1
  S  S28  1  0.84171500  0.15828500  0.25000000  1
  S  S29  1  0.15828500  0.84171500  0.75000000  1
  S  S30  1  0.35151900  0.38059600  0.06854700  1
  S  S31  1  0.61940400  0.64848100  0.43145300  1
  S  S32  1  0.64848100  0.61940400  0.93145300  1
  S  S33  1  0.38059600  0.35151900  0.56854700  1
  S  S34  1  0.77556000  0.32553900  0.94283900  1
  S  S35  1  0.67446100  0.22444000  0.55716100  1
  S  S36  1  0.22444000  0.67446100  0.05716100  1
  S  S37  1  0.32553900  0.77556000  0.44283900  1
  S  S38  1  0.42658800  0.84983900  0.18618400  1
  S  S39  1  0.15016100  0.57341200  0.31381600  1
  S  S40  1  0.57341200  0.15016100  0.81381600  1
  S  S41  1  0.84983900  0.42658800  0.68618400  1
  S  S42  1  0.50974600  0.49025400  0.25000000  1
  S  S43  1  0.49025400  0.50974600  0.75000000  1
loop_
_geom_bond_atom_site_label_1
_geom_bond_atom_site_label_2
_geom_bond_distance
_geom_bond_site_symmetry_2
S0 V12 2.333445 1_555
S0 V16 2.346102 1_545
S0 V8 2.438621 1_556
S0 Sr2 3.071197 1_555
S1 V13 2.333445 1_555
S1 V17 2.346102 1_655
S1 V9 2.438621 1_555
S1 Sr3 3.071197 1_555
S2 V14 2.333445 1_555
S2 V18 2.346102 1_565
S2 V6 2.438621 1_554
S2 Sr0 3.071197 1_555
S3 V15 2.333445 1_555
S3 V19 2.346102 1_455
S3 V7 2.438621 1_555
S3 Sr1 3.071197 1_555
S4 V16 2.268152 1_554
S4 V6 2.431686 1_454
S4 V8 2.463753 1_565
S4 V0 2.478748 1_555
S4 Sr0 3.186406 1_455
S5 V17 2.268152 1_555
S5 V7 2.431686 1_565
S5 V9 2.463753 1_455
S5 V1 2.478748 1_555
S5 Sr1 3.186406 1_565
S6 V18 2.268152 1_556
S6 V8 2.431686 1_656
S6 V6 2.463753 1_545
S6 V2 2.478748 1_555
S6 Sr2 3.186406 1_655
S7 V19 2.268152 1_555
S7 V9 2.431686 1_545
S7 V7 2.463753 1_655
S7 V3 2.478748 1_555
S7 Sr3 3.186406 1_545
S8 V0 2.409155 1_655
S8 V4 2.432976 1_655
S8 Sr0 3.004208 1_555
S8 Sr8 3.009943 1_655
S8 Sr4 3.237855 1_555
S9 V1 2.409155 1_545
S9 V4 2.432976 1_545
S9 Sr1 3.004208 1_555
S9 Sr9 3.009943 1_545
S9 Sr5 3.237855 1_555
S10 V2 2.409155 1_455
S10 V5 2.432976 1_455
S10 Sr2 3.004208 1_555
S10 Sr10 3.009943 1_455
S10 Sr6 3.237855 1_555
S11 V3 2.409155 1_565
S11 V5 2.432976 1_565
S11 Sr3 3.004208 1_555
S11 Sr11 3.009943 1_565
S11 Sr7 3.237855 1_555
S12 V0 2.399214 1_545
S12 V4 2.427150 1_545
S12 Sr4 3.004969 1_555
S12 Sr0 3.028321 1_445
S12 Sr8 3.288214 1_555
S12 Sr1 3.497357 1_555
S13 V1 2.399214 1_655
S13 V4 2.427150 1_655
S13 Sr5 3.004969 1_555
S13 Sr1 3.028321 1_665
S13 Sr9 3.288214 1_555
S13 Sr0 3.497357 1_555
S14 V2 2.399214 1_565
S14 V5 2.427150 1_565
S14 Sr6 3.004969 1_555
S14 Sr2 3.028321 1_665
S14 Sr10 3.288214 1_555
S14 Sr3 3.497357 1_555
S15 V3 2.399214 1_455
S15 V5 2.427150 1_455
S15 Sr7 3.004969 1_555
S15 Sr3 3.028321 1_445
S15 Sr11 3.288214 1_555
S15 Sr2 3.497357 1_555
S16 V6 2.282930 1_554
S16 V10 2.376431 1_655
S16 V12 2.433247 1_554
S16 Sr4 3.100271 1_555
S17 V7 2.282930 1_555
S17 V11 2.376431 1_555
S17 V13 2.433247 1_555
S17 Sr5 3.100271 1_555
S18 V8 2.282930 1_556
S18 V10 2.376431 1_556
S18 V14 2.433247 1_556
S18 Sr6 3.100271 1_555
S19 V9 2.282930 1_555
S19 V11 2.376431 1_565
S19 V15 2.433247 1_555
S19 Sr7 3.100271 1_555
S20 V12 2.434764 1_554
S20 V16 2.441591 1_544
S20 V0 2.452528 1_545
S20 V18 2.508763 1_555
S20 Sr4 3.240037 1_555
S21 V13 2.434764 1_555
S21 V17 2.441591 1_655
S21 V1 2.452528 1_655
S21 V19 2.508763 1_555
S21 Sr5 3.240037 1_555
S22 V14 2.434764 1_556
S22 V18 2.441591 1_566
S22 V2 2.452528 1_565
S22 V16 2.508763 1_555
S22 Sr6 3.240037 1_555
S23 V15 2.434764 1_555
S23 V19 2.441591 1_455
S23 V3 2.452528 1_455
S23 V17 2.508763 1_555
S23 Sr7 3.240037 1_555
S24 V16 2.350952 1_555
S24 V6 2.382213 1_455
S24 V10 2.441236 1_556
S24 Sr10 3.596865 1_455
S24 Sr2 3.690360 1_565
S25 V17 2.350952 1_555
S25 V7 2.382213 1_565
S25 V11 2.441236 1_565
S25 Sr11 3.596865 1_565
S25 Sr3 3.690360 1_455
S26 V18 2.350952 1_555
S26 V8 2.382213 1_655
S26 V10 2.441236 1_655
S26 Sr8 3.596865 1_655
S26 Sr0 3.690360 1_545
S27 V19 2.350952 1_555
S27 V9 2.382213 1_545
S27 V11 2.441236 1_555
S27 Sr9 3.596865 1_545
S27 Sr1 3.690360 1_655
S28 Sr9 3.104389 1_545
S28 Sr8 3.104389 1_655
S28 Sr0 3.104549 1_545
S28 Sr1 3.104549 1_655
S28 Sr5 3.128704 1_555
S28 Sr4 3.128704 1_555
S29 Sr10 3.104389 1_455
S29 Sr11 3.104389 1_565
S29 Sr3 3.104549 1_455
S29 Sr2 3.104549 1_565
S29 Sr6 3.128704 1_555
S29 Sr7 3.128704 1_555
S30 V12 2.290498 1_554
S30 V14 2.314754 1_555
S30 V8 2.329263 1_555
S30 Sr8 3.057413 1_555
S31 V13 2.290498 1_555
S31 V15 2.314754 1_555
S31 V9 2.329263 1_555
S31 Sr9 3.057413 1_555
S32 V14 2.290498 1_556
S32 V12 2.314754 1_555
S32 V6 2.329263 1_555
S32 Sr10 3.057413 1_555
S33 V15 2.290498 1_555
S33 V13 2.314754 1_555
S33 V7 2.329263 1_555
S33 Sr11 3.057413 1_555
S34 V10 2.364102 1_656
S34 V2 2.435253 1_555
S34 V18 2.448820 1_556
S34 V12 2.515285 1_555
S34 Sr10 3.260800 1_555
S35 V11 2.364102 1_555
S35 V3 2.435253 1_555
S35 V19 2.448820 1_555
S35 V13 2.515285 1_555
S35 Sr11 3.260800 1_555
S36 V10 2.364102 1_555
S36 V0 2.435253 1_555
S36 V16 2.448820 1_554
S36 V14 2.515285 1_555
S36 Sr8 3.260800 1_555
S37 V11 2.364102 1_565
S37 V1 2.435253 1_555
S37 V17 2.448820 1_555
S37 V15 2.515285 1_555
S37 Sr9 3.260800 1_555
S38 V0 2.376249 1_555
S38 V4 2.448455 1_555
S38 Sr8 3.003031 1_555
S38 Sr4 3.045453 1_565
S38 Sr0 3.254251 1_555
S38 Sr9 3.479380 1_555
S39 V1 2.376249 1_555
S39 V4 2.448455 1_555
S39 Sr9 3.003031 1_555
S39 Sr5 3.045453 1_455
S39 Sr1 3.254251 1_555
S39 Sr8 3.479380 1_555
S40 V2 2.376249 1_555
S40 V5 2.448455 1_555
S40 Sr10 3.003031 1_555
S40 Sr6 3.045453 1_545
S40 Sr2 3.254251 1_555
S40 Sr11 3.479380 1_555
S41 V3 2.376249 1_555
S41 V5 2.448455 1_555
S41 Sr11 3.003031 1_555
S41 Sr7 3.045453 1_655
S41 Sr3 3.254251 1_555
S41 Sr10 3.479380 1_555
S42 Sr8 3.139943 1_555
S42 Sr9 3.139943 1_555
S42 Sr5 3.141679 1_555
S42 Sr4 3.141679 1_555
S42 Sr1 3.144338 1_555
S42 Sr0 3.144338 1_555
S43 Sr10 3.139943 1_555
S43 Sr11 3.139943 1_555
S43 Sr6 3.141679 1_555
S43 Sr7 3.141679 1_555
S43 Sr2 3.144338 1_555
S43 Sr3 3.144338 1_555
