# generated using pymatgen
data_CrInCoS4
_symmetry_space_group_name_H-M   'P 1'
_cell_length_a   7.27556555
_cell_length_b   7.27556555
_cell_length_c   7.27556555
_cell_angle_alpha   120.44668855
_cell_angle_beta   119.73795162
_cell_angle_gamma   89.84127008
_symmetry_Int_Tables_number   1
_chemical_formula_structural   CrInCoS4
_chemical_formula_sum   'Cr2 In2 Co2 S8'
_cell_volume   271.92941416
_cell_formula_units_Z   2
loop_
 _symmetry_equiv_pos_site_id
 _symmetry_equiv_pos_as_xyz
  1  'x, y, z'
loop_
 _atom_site_type_symbol
 _atom_site_label
 _atom_site_symmetry_multiplicity
 _atom_site_fract_x
 _atom_site_fract_y
 _atom_site_fract_z
 _atom_site_occupancy
  Cr  Cr0  1  0.00000000  0.00000000  0.50000000  1
  Cr  Cr1  1  0.00000000  0.50000000  0.00000000  1
  In  In0  1  0.50000000  0.00000000  0.50000000  1
  In  In1  1  0.00000000  0.00000000  0.00000000  1
  Co  Co0  1  0.62430800  0.37430800  0.25000000  1
  Co  Co1  1  0.37569200  0.62569200  0.75000000  1
  S  S0  1  0.23282300  0.25423300  0.97859000  1
  S  S1  1  0.77564300  0.25423300  0.52141000  1
  S  S2  1  0.76295300  0.26821400  0.00526100  1
  S  S3  1  0.76295300  0.75769200  0.49473900  1
  S  S4  1  0.76717700  0.74576700  0.02141000  1
  S  S5  1  0.22435700  0.74576700  0.47859000  1
  S  S6  1  0.23704700  0.73178600  0.99473900  1
  S  S7  1  0.23704700  0.24230800  0.50526100  1
loop_
_geom_bond_atom_site_label_1
_geom_bond_atom_site_label_2
_geom_bond_distance
_geom_bond_site_symmetry_2
Cr0 S7 2.442697 1_555
Cr0 S3 2.442697 1_445
Cr0 S1 2.460408 1_455
Cr0 S0 2.460408 1_555
Cr0 S5 2.460408 1_545
Cr0 S4 2.460408 1_445
Cr1 S6 2.442697 1_554
Cr1 S2 2.442697 1_455
Cr1 S1 2.460408 1_454
Cr1 S4 2.460408 1_455
Cr1 S0 2.460408 1_554
Cr1 S5 2.460408 1_555
In0 S2 2.599043 1_556
In0 S3 2.599043 1_545
In0 S6 2.599043 1_544
In0 S7 2.599043 1_555
In0 S5 2.624140 1_545
In0 S1 2.624140 1_555
In1 S3 2.599043 1_444
In1 S7 2.599043 1_555
In1 S2 2.599043 1_455
In1 S6 2.599043 1_544
In1 S0 2.624140 1_554
In1 S4 2.624140 1_445
Co0 S3 2.273443 1_555
Co0 S2 2.273443 1_555
Co0 S0 2.336845 1_554
Co0 S1 2.336845 1_555
Co1 S6 2.273443 1_555
Co1 S7 2.273443 1_555
Co1 S5 2.336845 1_555
Co1 S4 2.336845 1_556
