# generated using pymatgen
data_CeNi9Ge4
_symmetry_space_group_name_H-M   'P 1'
_cell_length_a   8.11003215
_cell_length_b   8.11003215
_cell_length_c   8.11003215
_cell_angle_alpha   121.35466742
_cell_angle_beta   121.35466742
_cell_angle_gamma   87.66923675
_symmetry_Int_Tables_number   1
_chemical_formula_structural   CeNi9Ge4
_chemical_formula_sum   'Ce2 Ni18 Ge8'
_cell_volume   369.12859857
_cell_formula_units_Z   2
loop_
 _symmetry_equiv_pos_site_id
 _symmetry_equiv_pos_as_xyz
  1  'x, y, z'
loop_
 _atom_site_type_symbol
 _atom_site_label
 _atom_site_symmetry_multiplicity
 _atom_site_fract_x
 _atom_site_fract_y
 _atom_site_fract_z
 _atom_site_occupancy
  Ce  Ce0  1  0.75000000  0.75000000  0.00000000  1
  Ce  Ce1  1  0.25000000  0.25000000  0.00000000  1
  Ni  Ni0  1  0.94148600  0.44148600  0.74560100  1
  Ni  Ni1  1  0.69588500  0.19588500  0.25439900  1
  Ni  Ni2  1  0.44148600  0.69588500  0.50000000  1
  Ni  Ni3  1  0.19588500  0.94148600  0.50000000  1
  Ni  Ni4  1  0.05851400  0.55851400  0.25439900  1
  Ni  Ni5  1  0.30411500  0.80411500  0.74560100  1
  Ni  Ni6  1  0.55851400  0.30411500  0.50000000  1
  Ni  Ni7  1  0.80411500  0.05851400  0.50000000  1
  Ni  Ni8  1  0.20359300  0.06618500  0.26977700  1
  Ni  Ni9  1  0.79640700  0.93381500  0.73022300  1
  Ni  Ni10  1  0.70359300  0.43381500  0.13740800  1
  Ni  Ni11  1  0.29640700  0.56618500  0.86259200  1
  Ni  Ni12  1  0.93381500  0.20359300  0.13740800  1
  Ni  Ni13  1  0.06618500  0.79640700  0.86259200  1
  Ni  Ni14  1  0.56618500  0.70359300  0.26977700  1
  Ni  Ni15  1  0.43381500  0.29640700  0.73022300  1
  Ni  Ni16  1  0.00000000  0.50000000  0.50000000  1
  Ni  Ni17  1  0.50000000  0.00000000  0.50000000  1
  Ge  Ge0  1  0.20209600  0.70209600  0.14858000  1
  Ge  Ge1  1  0.55351600  0.05351600  0.85142000  1
  Ge  Ge2  1  0.70209600  0.55351600  0.50000000  1
  Ge  Ge3  1  0.05351600  0.20209600  0.50000000  1
  Ge  Ge4  1  0.79790400  0.29790400  0.85142000  1
  Ge  Ge5  1  0.44648400  0.94648400  0.14858000  1
  Ge  Ge6  1  0.29790400  0.44648400  0.50000000  1
  Ge  Ge7  1  0.94648400  0.79790400  0.50000000  1
loop_
_geom_bond_atom_site_label_1
_geom_bond_atom_site_label_2
_geom_bond_distance
_geom_bond_site_symmetry_2
Ce0 Ni6 3.251900 1_554
Ce0 Ni7 3.251900 1_565
Ce0 Ni4 3.251900 1_655
Ce0 Ni5 3.251900 1_554
Ce0 Ni3 3.251900 1_655
Ce0 Ni2 3.251900 1_554
Ce0 Ni0 3.251900 1_554
Ce0 Ni1 3.251900 1_565
Ce0 Ge1 3.289345 1_564
Ce0 Ge4 3.289345 1_554
Ce0 Ge6 3.289345 1_554
Ce0 Ge3 3.289345 1_665
Ce0 Ge5 3.289345 1_555
Ce0 Ge2 3.289345 1_554
Ce0 Ge7 3.289345 1_555
Ce0 Ge0 3.289345 1_655
Ce0 Ni14 3.383443 1_555
Ce0 Ni9 3.383443 1_554
Ce0 Ni12 3.383451 1_565
Ce0 Ni13 3.383451 1_654
Ce0 Ni10 3.383451 1_555
Ce0 Ni11 3.383451 1_554
Ce0 Ni8 3.383454 1_665
Ce0 Ni15 3.383454 1_554
Ce1 Ni6 3.251900 1_555
Ce1 Ni1 3.251900 1_555
Ce1 Ni2 3.251900 1_555
Ce1 Ni0 3.251900 1_454
Ce1 Ni7 3.251900 1_454
Ce1 Ni3 3.251900 1_544
Ce1 Ni4 3.251900 1_555
Ce1 Ni5 3.251900 1_544
Ce1 Ge6 3.289345 1_555
Ce1 Ge5 3.289345 1_545
Ce1 Ge0 3.289345 1_555
Ce1 Ge2 3.289345 1_555
Ce1 Ge1 3.289345 1_554
Ce1 Ge7 3.289345 1_444
Ce1 Ge3 3.289345 1_554
Ce1 Ge4 3.289345 1_454
Ce1 Ni8 3.383443 1_555
Ce1 Ni15 3.383443 1_554
Ce1 Ni10 3.383451 1_555
Ce1 Ni13 3.383451 1_544
Ce1 Ni11 3.383451 1_554
Ce1 Ni12 3.383451 1_455
Ce1 Ni9 3.383454 1_444
Ce1 Ni14 3.383454 1_555
Ni0 Ni6 2.527719 1_555
Ni0 Ni7 2.527719 1_555
Ni0 Ni16 2.530502 1_655
Ni0 Ni11 2.569899 1_655
Ni0 Ni13 2.569899 1_655
Ni0 Ni1 2.759003 1_555
Ni1 Ni6 2.527719 1_555
Ni1 Ni7 2.527719 1_555
Ni1 Ni16 2.530502 1_655
Ni1 Ni10 2.569899 1_555
Ni1 Ni12 2.569899 1_555
Ni2 Ni5 2.527719 1_555
Ni2 Ni4 2.527719 1_555
Ni2 Ni9 2.569897 1_555
Ni2 Ni3 2.759003 1_555
Ni3 Ni5 2.527719 1_555
Ni3 Ni4 2.527719 1_555
Ni3 Ni8 2.569906 1_565
Ni4 Ni5 2.759003 1_555
Ni6 Ni8 2.569897 1_555
Ni6 Ni7 2.759003 1_555
Ni7 Ni9 2.569906 1_545
Ni10 Ni15 2.404909 1_554
Ni10 Ni14 2.404912 1_555
Ni10 Ni16 2.412464 1_655
Ni10 Ni4 2.569899 1_655
Ni10 Ni12 2.586240 1_555
Ni11 Ni14 2.404909 1_556
Ni11 Ni15 2.404912 1_555
Ni11 Ni16 2.412464 1_555
Ni11 Ni5 2.569899 1_555
Ni11 Ni13 2.586240 1_555
Ni12 Ni9 2.404909 1_544
Ni12 Ni8 2.404912 1_655
Ni12 Ni16 2.412464 1_655
Ni12 Ni4 2.569899 1_655
Ni13 Ni8 2.404909 1_566
Ni13 Ni9 2.404912 1_455
Ni13 Ni16 2.412464 1_555
Ni13 Ni5 2.569899 1_555
Ni14 Ni17 2.412467 1_565
Ni14 Ni7 2.569897 1_565
Ni14 Ni2 2.569906 1_555
Ni14 Ni9 2.586251 1_555
Ni15 Ni17 2.412467 1_555
Ni15 Ni3 2.569897 1_545
Ni15 Ni6 2.569906 1_555
Ni15 Ni8 2.586251 1_555
Ni16 Ni4 2.530502 1_555
Ni16 Ni5 2.530502 1_555
Ni17 Ni9 2.412467 1_545
Ni17 Ni8 2.412467 1_555
Ni17 Ni3 2.530502 1_545
Ni17 Ni6 2.530502 1_555
Ni17 Ni7 2.530502 1_555
Ni17 Ni2 2.530502 1_545
Ge0 Ni0 2.366805 1_454
Ge0 Ni4 2.374582 1_555
Ge0 Ni17 2.437251 1_565
Ge0 Ni3 2.505527 1_555
Ge0 Ni2 2.505527 1_555
Ge0 Ni13 2.509292 1_554
Ge0 Ni11 2.509292 1_554
Ge0 Ni8 2.579784 1_565
Ge0 Ni14 2.579784 1_555
Ge1 Ni1 2.366805 1_556
Ge1 Ni5 2.374582 1_545
Ge1 Ni17 2.437251 1_555
Ge1 Ni2 2.505527 1_545
Ge1 Ni3 2.505527 1_545
Ge1 Ni12 2.509292 1_556
Ge1 Ni10 2.509292 1_556
Ge1 Ni15 2.579777 1_555
Ge1 Ni9 2.579777 1_545
Ge2 Ni2 2.366805 1_555
Ge2 Ni6 2.374582 1_555
Ge2 Ni16 2.437251 1_655
Ge2 Ni0 2.505527 1_555
Ge2 Ni1 2.505527 1_555
Ge2 Ni9 2.509291 1_555
Ge2 Ni14 2.509298 1_555
Ge2 Ni13 2.579782 1_655
Ge2 Ni10 2.579782 1_555
Ge3 Ni3 2.366805 1_545
Ge3 Ni7 2.374582 1_455
Ge3 Ni16 2.437251 1_555
Ge3 Ni0 2.505527 1_455
Ge3 Ni1 2.505527 1_455
Ge3 Ni15 2.509291 1_555
Ge3 Ni8 2.509298 1_555
Ge3 Ni12 2.579782 1_455
Ge3 Ni11 2.579782 1_555
Ge4 Ni4 2.366805 1_656
Ge4 Ni0 2.374582 1_555
Ge4 Ni17 2.437251 1_555
Ge4 Ni6 2.505527 1_555
Ge4 Ni7 2.505527 1_555
Ge4 Ni10 2.509292 1_556
Ge4 Ni12 2.509292 1_556
Ge4 Ni15 2.579784 1_555
Ge4 Ni9 2.579784 1_545
Ge5 Ni5 2.366805 1_554
Ge5 Ni1 2.374582 1_565
Ge5 Ni17 2.437251 1_565
Ge5 Ni6 2.505527 1_565
Ge5 Ni7 2.505527 1_565
Ge5 Ni11 2.509292 1_554
Ge5 Ni13 2.509292 1_554
Ge5 Ni14 2.579777 1_555
Ge5 Ni8 2.579777 1_565
Ge6 Ni6 2.366805 1_555
Ge6 Ni2 2.374582 1_555
Ge6 Ni16 2.437251 1_555
Ge6 Ni4 2.505527 1_555
Ge6 Ni5 2.505527 1_555
Ge6 Ni8 2.509291 1_555
Ge6 Ni15 2.509298 1_555
Ge6 Ni12 2.579782 1_455
Ge6 Ni11 2.579782 1_555
Ge7 Ni7 2.366805 1_565
Ge7 Ni3 2.374582 1_655
Ge7 Ni16 2.437251 1_655
Ge7 Ni5 2.505527 1_655
Ge7 Ni4 2.505527 1_655
Ge7 Ni14 2.509291 1_555
Ge7 Ni9 2.509298 1_555
Ge7 Ni10 2.579782 1_555
Ge7 Ni13 2.579782 1_655
