# generated using pymatgen
data_Y2BePb
_symmetry_space_group_name_H-M   'P 1'
_cell_length_a   12.77502744
_cell_length_b   12.77502744
_cell_length_c   12.77502744
_cell_angle_alpha   127.16612513
_cell_angle_beta   118.07298268
_cell_angle_gamma   85.71463881
_symmetry_Int_Tables_number   1
_chemical_formula_structural   Y2BePb
_chemical_formula_sum   'Y2 Be1 Pb1'
_cell_volume   1399.32952565
_cell_formula_units_Z   1
loop_
 _symmetry_equiv_pos_site_id
 _symmetry_equiv_pos_as_xyz
  1  'x, y, z'
loop_
 _atom_site_type_symbol
 _atom_site_label
 _atom_site_symmetry_multiplicity
 _atom_site_fract_x
 _atom_site_fract_y
 _atom_site_fract_z
 _atom_site_occupancy
  Y  Y0  1  0.00000000  0.24685900  0.24685900  1
  Y  Y1  1  0.00000000  0.75314100  0.75314100  1
  Be  Be0  1  0.00000000  0.00000000  0.00000000  1
  Pb  Pb0  1  0.00000000  0.50000000  0.50000000  1
loop_
_geom_bond_atom_site_label_1
_geom_bond_atom_site_label_2
_geom_bond_distance
_geom_bond_site_symmetry_2
Be0 Y0 2.806100 1_555
Be0 Y1 2.806100 1_544
Pb0 Y1 2.877509 1_555
Pb0 Y0 2.877509 1_555
