# generated using pymatgen
data_Li7Mn2(CoO4)3
_symmetry_space_group_name_H-M   'P 1'
_cell_length_a   5.08232900
_cell_length_b   5.15909264
_cell_length_c   8.73241877
_cell_angle_alpha   73.20140774
_cell_angle_beta   84.95668974
_cell_angle_gamma   79.95523847
_symmetry_Int_Tables_number   1
_chemical_formula_structural   Li7Mn2(CoO4)3
_chemical_formula_sum   'Li7 Mn2 Co3 O12'
_cell_volume   215.66434321
_cell_formula_units_Z   1
loop_
 _symmetry_equiv_pos_site_id
 _symmetry_equiv_pos_as_xyz
  1  'x, y, z'
loop_
 _atom_site_type_symbol
 _atom_site_label
 _atom_site_symmetry_multiplicity
 _atom_site_fract_x
 _atom_site_fract_y
 _atom_site_fract_z
 _atom_site_occupancy
  Li  Li0  1  0.26050900  0.08973400  0.91678200  1
  Li  Li1  1  0.74120900  0.24852100  0.75371700  1
  Li  Li2  1  0.25073000  0.41879400  0.58224200  1
  Li  Li3  1  0.25879100  0.75147900  0.24628300  1
  Li  Li4  1  0.73949100  0.91026600  0.08321800  1
  Li  Li5  1  0.74927000  0.58120600  0.41775800  1
  Li  Li6  1  0.50000000  0.50000000  0.00000000  1
  Mn  Mn0  1  0.00120000  0.65841700  0.83617700  1
  Mn  Mn1  1  0.99880000  0.34158300  0.16382300  1
  Co  Co0  1  0.49742200  0.82138600  0.67534500  1
  Co  Co1  1  0.00000000  0.00000000  0.50000000  1
  Co  Co2  1  0.50257800  0.17861400  0.32465500  1
  O  O0  1  0.10599700  0.68392800  0.03765200  1
  O  O1  1  0.64048700  0.86396800  0.86085500  1
  O  O2  1  0.11722400  0.00664200  0.71801700  1
  O  O3  1  0.12147500  0.36809200  0.36579300  1
  O  O4  1  0.64882800  0.52276300  0.20951600  1
  O  O5  1  0.63375200  0.18884600  0.53272600  1
  O  O6  1  0.35117200  0.47723700  0.79048400  1
  O  O7  1  0.87852500  0.63190800  0.63420700  1
  O  O8  1  0.36624800  0.81115400  0.46727400  1
  O  O9  1  0.35951300  0.13603200  0.13914500  1
  O  O10  1  0.89400300  0.31607200  0.96234800  1
  O  O11  1  0.88277600  0.99335800  0.28198300  1
loop_
_geom_bond_atom_site_label_1
_geom_bond_atom_site_label_2
_geom_bond_distance
_geom_bond_site_symmetry_2
Li0 O10 2.090699 1_455
Li0 O6 2.093533 1_555
Li0 O2 2.118473 1_555
Li0 O9 2.135997 1_556
Li0 O1 2.168620 1_545
Li0 O0 2.294415 1_546
Li1 O1 2.066537 1_545
Li1 O2 2.143517 1_655
Li1 O7 2.156086 1_555
Li1 O5 2.168981 1_555
Li1 O6 2.171645 1_555
Li1 O10 2.180314 1_555
Li2 O6 2.047462 1_555
Li2 O7 2.098836 1_455
Li2 O8 2.141577 1_555
Li2 O3 2.153265 1_555
Li2 O5 2.174093 1_555
Li2 O2 2.300445 1_555
Li3 O9 2.066537 1_565
Li3 O11 2.143517 1_455
Li3 O3 2.156086 1_555
Li3 O8 2.168981 1_555
Li3 O4 2.171645 1_555
Li3 O0 2.180314 1_555
Li4 O0 2.090699 1_655
Li4 O4 2.093533 1_555
Li4 O11 2.118473 1_555
Li4 O1 2.135997 1_554
Li4 O9 2.168620 1_565
Li4 O10 2.294415 1_564
Li5 O4 2.047462 1_555
Li5 O3 2.098836 1_655
Li5 O5 2.141577 1_555
Li5 O7 2.153265 1_555
Li5 O8 2.174093 1_555
Li5 O11 2.300445 1_555
Li6 O4 2.081293 1_555
Li6 O6 2.081293 1_554
Li6 O0 2.102400 1_555
Li6 O10 2.102400 1_554
Li6 O1 2.123318 1_554
Li6 O9 2.123318 1_555
Mn0 O6 1.925470 1_555
Mn0 O0 1.928577 1_556
Mn0 O10 1.932743 1_455
Mn0 O2 1.957288 1_565
Mn0 O7 1.969902 1_455
Mn0 O1 1.978970 1_455
Mn1 O4 1.925470 1_555
Mn1 O10 1.928577 1_554
Mn1 O0 1.932743 1_655
Mn1 O11 1.957288 1_545
Mn1 O3 1.969902 1_655
Mn1 O9 1.978970 1_655
Co0 O1 1.915645 1_555
Co0 O6 2.003222 1_555
Co0 O8 2.007306 1_555
Co0 O2 2.054532 1_565
Co0 O7 2.063089 1_555
Co0 O5 2.137011 1_565
Co1 O5 1.982538 1_455
Co1 O8 1.982538 1_545
Co1 O2 2.055451 1_555
Co1 O11 2.055451 1_445
Co1 O7 2.087166 1_445
Co1 O3 2.087166 1_555
Co2 O9 1.915645 1_555
Co2 O4 2.003222 1_555
Co2 O5 2.007306 1_555
Co2 O11 2.054532 1_545
Co2 O3 2.063089 1_555
Co2 O8 2.137011 1_545
