# generated using pymatgen
data_K2CO3
_symmetry_space_group_name_H-M   'P 1'
_cell_length_a   5.74212842
_cell_length_b   5.74212763
_cell_length_c   6.81586195
_cell_angle_alpha   90.00000000
_cell_angle_beta   90.00000000
_cell_angle_gamma   119.99999870
_symmetry_Int_Tables_number   1
_chemical_formula_structural   K2CO3
_chemical_formula_sum   'K4 C2 O6'
_cell_volume   194.62434542
_cell_formula_units_Z   2
loop_
 _symmetry_equiv_pos_site_id
 _symmetry_equiv_pos_as_xyz
  1  'x, y, z'
loop_
 _atom_site_type_symbol
 _atom_site_label
 _atom_site_symmetry_multiplicity
 _atom_site_fract_x
 _atom_site_fract_y
 _atom_site_fract_z
 _atom_site_occupancy
  K  K0  1  0.66666700  0.33333300  0.75000000  1
  K  K1  1  0.33333300  0.66666700  0.25000000  1
  K  K2  1  -0.00000000  -0.00000000  0.50000000  1
  K  K3  1  -0.00000000  -0.00000000  0.00000000  1
  C  C0  1  0.33333300  0.66666700  0.75000000  1
  C  C1  1  0.66666700  0.33333300  0.25000000  1
  O  O0  1  0.59379565  0.79689782  0.75000000  1
  O  O1  1  0.40620435  0.20310218  0.25000000  1
  O  O2  1  0.79689782  0.59379565  0.25000000  1
  O  O3  1  0.20310218  0.79689782  0.75000000  1
  O  O4  1  0.20310218  0.40620435  0.75000000  1
  O  O5  1  0.79689782  0.20310218  0.25000000  1
loop_
_geom_bond_atom_site_label_1
_geom_bond_atom_site_label_2
_geom_bond_distance
_geom_bond_site_symmetry_2
K0 O0 2.893840 1_545
K0 O4 2.893840 1_655
K0 O3 2.893842 1_545
K0 O3 2.893842 1_655
K0 O0 2.893845 1_555
K0 O4 2.893846 1_555
K1 O1 2.893840 1_565
K1 O2 2.893840 1_455
K1 O5 2.893842 1_565
K1 O5 2.893842 1_455
K1 O1 2.893845 1_555
K1 O2 2.893846 1_555
K2 O4 2.642695 1_555
K2 O2 2.642695 1_445
K2 O5 2.642695 1_455
K2 O3 2.642695 1_545
K2 O1 2.642695 1_555
K2 O0 2.642695 1_445
K3 O4 2.642695 1_554
K3 O2 2.642695 1_445
K3 O5 2.642695 1_455
K3 O3 2.642695 1_544
K3 O1 2.642695 1_555
K3 O0 2.642695 1_444
C0 O3 1.295231 1_555
C0 O4 1.295236 1_555
C0 O0 1.295236 1_555
C1 O5 1.295231 1_555
C1 O2 1.295236 1_555
C1 O1 1.295236 1_555
