# generated using pymatgen
data_CeMg30BO32
_symmetry_space_group_name_H-M   'P 1'
_cell_length_a   8.62998200
_cell_length_b   8.62998200
_cell_length_c   8.63926400
_cell_angle_alpha   90.00000000
_cell_angle_beta   90.00000000
_cell_angle_gamma   90.00000000
_symmetry_Int_Tables_number   1
_chemical_formula_structural   CeMg30BO32
_chemical_formula_sum   'Ce1 Mg30 B1 O32'
_cell_volume   643.42291696
_cell_formula_units_Z   1
loop_
 _symmetry_equiv_pos_site_id
 _symmetry_equiv_pos_as_xyz
  1  'x, y, z'
loop_
 _atom_site_type_symbol
 _atom_site_label
 _atom_site_symmetry_multiplicity
 _atom_site_fract_x
 _atom_site_fract_y
 _atom_site_fract_z
 _atom_site_occupancy
  Ce  Ce0  1  0.00000000  0.00000000  0.00000000  1
  Mg  Mg0  1  0.00000000  0.50000000  0.00000000  1
  Mg  Mg1  1  0.00000000  0.50000000  0.50000000  1
  Mg  Mg2  1  0.50000000  0.00000000  0.00000000  1
  Mg  Mg3  1  0.50000000  0.00000000  0.50000000  1
  Mg  Mg4  1  0.50000000  0.50000000  0.00000000  1
  Mg  Mg5  1  0.50000000  0.50000000  0.50000000  1
  Mg  Mg6  1  0.00000000  0.25574600  0.26092300  1
  Mg  Mg7  1  0.00000000  0.25574600  0.73907700  1
  Mg  Mg8  1  0.00000000  0.74425400  0.26092300  1
  Mg  Mg9  1  0.00000000  0.74425400  0.73907700  1
  Mg  Mg10  1  0.50000000  0.25025600  0.25192800  1
  Mg  Mg11  1  0.50000000  0.25025600  0.74807200  1
  Mg  Mg12  1  0.50000000  0.74974400  0.25192800  1
  Mg  Mg13  1  0.50000000  0.74974400  0.74807200  1
  Mg  Mg14  1  0.25574600  0.00000000  0.26092300  1
  Mg  Mg15  1  0.25574600  0.00000000  0.73907700  1
  Mg  Mg16  1  0.25025600  0.50000000  0.25192800  1
  Mg  Mg17  1  0.25025600  0.50000000  0.74807200  1
  Mg  Mg18  1  0.74425400  0.00000000  0.26092300  1
  Mg  Mg19  1  0.74425400  0.00000000  0.73907700  1
  Mg  Mg20  1  0.74974400  0.50000000  0.25192800  1
  Mg  Mg21  1  0.74974400  0.50000000  0.74807200  1
  Mg  Mg22  1  0.25733600  0.25733600  0.00000000  1
  Mg  Mg23  1  0.24826900  0.24826900  0.50000000  1
  Mg  Mg24  1  0.25733600  0.74266400  0.00000000  1
  Mg  Mg25  1  0.24826900  0.75173100  0.50000000  1
  Mg  Mg26  1  0.74266400  0.25733600  0.00000000  1
  Mg  Mg27  1  0.75173100  0.24826900  0.50000000  1
  Mg  Mg28  1  0.74266400  0.74266400  0.00000000  1
  Mg  Mg29  1  0.75173100  0.75173100  0.50000000  1
  B  B0  1  0.00000000  0.00000000  0.50000000  1
  O  O0  1  0.26629200  0.00000000  0.00000000  1
  O  O1  1  0.26727000  0.00000000  0.50000000  1
  O  O2  1  0.25267300  0.50000000  0.00000000  1
  O  O3  1  0.25230000  0.50000000  0.50000000  1
  O  O4  1  0.73370800  0.00000000  0.00000000  1
  O  O5  1  0.73273000  0.00000000  0.50000000  1
  O  O6  1  0.74732700  0.50000000  0.00000000  1
  O  O7  1  0.74770000  0.50000000  0.50000000  1
  O  O8  1  0.24886800  0.24886800  0.24915800  1
  O  O9  1  0.24886800  0.24886800  0.75084200  1
  O  O10  1  0.24886800  0.75113200  0.24915800  1
  O  O11  1  0.24886800  0.75113200  0.75084200  1
  O  O12  1  0.75113200  0.24886800  0.24915800  1
  O  O13  1  0.75113200  0.24886800  0.75084200  1
  O  O14  1  0.75113200  0.75113200  0.24915800  1
  O  O15  1  0.75113200  0.75113200  0.75084200  1
  O  O16  1  0.00000000  0.00000000  0.25669300  1
  O  O17  1  0.00000000  0.00000000  0.74330700  1
  O  O18  1  0.00000000  0.50000000  0.24948700  1
  O  O19  1  0.00000000  0.50000000  0.75051300  1
  O  O20  1  0.50000000  0.00000000  0.24948700  1
  O  O21  1  0.50000000  0.00000000  0.75051300  1
  O  O22  1  0.50000000  0.50000000  0.24911600  1
  O  O23  1  0.50000000  0.50000000  0.75088400  1
  O  O24  1  0.00000000  0.26629200  0.00000000  1
  O  O25  1  0.00000000  0.26727000  0.50000000  1
  O  O26  1  0.00000000  0.73370800  0.00000000  1
  O  O27  1  0.00000000  0.73273000  0.50000000  1
  O  O28  1  0.50000000  0.25267300  0.00000000  1
  O  O29  1  0.50000000  0.25230000  0.50000000  1
  O  O30  1  0.50000000  0.74732700  0.00000000  1
  O  O31  1  0.50000000  0.74770000  0.50000000  1
loop_
_geom_bond_atom_site_label_1
_geom_bond_atom_site_label_2
_geom_bond_distance
_geom_bond_site_symmetry_2
Ce0 O17 2.217639 1_554
Ce0 O16 2.217639 1_555
Ce0 O26 2.298095 1_545
Ce0 O0 2.298095 1_555
Ce0 O24 2.298095 1_555
Ce0 O4 2.298095 1_455
Mg0 O24 2.016896 1_555
Mg0 O26 2.016896 1_555
Mg0 O18 2.155384 1_555
Mg0 O19 2.155384 1_554
Mg0 O2 2.180563 1_555
Mg0 O6 2.180563 1_455
Mg1 O25 2.008456 1_555
Mg1 O27 2.008456 1_555
Mg1 O18 2.164248 1_555
Mg1 O19 2.164248 1_555
Mg1 O7 2.177344 1_455
Mg1 O3 2.177344 1_555
Mg2 O0 2.016896 1_555
Mg2 O4 2.016896 1_555
Mg2 O20 2.155384 1_555
Mg2 O21 2.155384 1_554
Mg2 O28 2.180563 1_555
Mg2 O30 2.180563 1_545
Mg3 O1 2.008456 1_555
Mg3 O5 2.008456 1_555
Mg3 O21 2.164248 1_555
Mg3 O20 2.164248 1_555
Mg3 O31 2.177344 1_545
Mg3 O29 2.177344 1_555
Mg4 O6 2.134428 1_555
Mg4 O30 2.134428 1_555
Mg4 O2 2.134428 1_555
Mg4 O28 2.134428 1_555
Mg4 O22 2.152179 1_555
Mg4 O23 2.152179 1_554
Mg5 O3 2.137647 1_555
Mg5 O29 2.137647 1_555
Mg5 O31 2.137647 1_555
Mg5 O7 2.137647 1_555
Mg5 O23 2.167453 1_555
Mg5 O22 2.167453 1_555
Mg6 O25 2.067842 1_555
Mg6 O18 2.110222 1_555
Mg6 O12 2.150949 1_455
Mg6 O8 2.150949 1_555
Mg6 O16 2.207386 1_555
Mg6 O24 2.256019 1_555
Mg7 O25 2.067842 1_555
Mg7 O19 2.110222 1_555
Mg7 O13 2.150949 1_455
Mg7 O9 2.150949 1_555
Mg7 O17 2.207386 1_555
Mg7 O24 2.256019 1_556
Mg8 O27 2.067842 1_555
Mg8 O18 2.110222 1_555
Mg8 O14 2.150949 1_455
Mg8 O10 2.150949 1_555
Mg8 O16 2.207386 1_565
Mg8 O26 2.256019 1_555
Mg9 O27 2.067842 1_555
Mg9 O19 2.110222 1_555
Mg9 O15 2.150949 1_455
Mg9 O11 2.150949 1_555
Mg9 O17 2.207386 1_565
Mg9 O26 2.256019 1_556
Mg10 O29 2.143232 1_555
Mg10 O22 2.155423 1_555
Mg10 O20 2.159808 1_555
Mg10 O8 2.167430 1_555
Mg10 O12 2.167430 1_555
Mg10 O28 2.176572 1_555
Mg11 O29 2.143232 1_555
Mg11 O23 2.155423 1_555
Mg11 O21 2.159808 1_555
Mg11 O9 2.167430 1_555
Mg11 O13 2.167430 1_555
Mg11 O28 2.176572 1_556
Mg12 O31 2.143232 1_555
Mg12 O22 2.155423 1_555
Mg12 O20 2.159808 1_565
Mg12 O14 2.167430 1_555
Mg12 O10 2.167430 1_555
Mg12 O30 2.176572 1_555
Mg13 O31 2.143232 1_555
Mg13 O23 2.155423 1_555
Mg13 O21 2.159808 1_565
Mg13 O15 2.167430 1_555
Mg13 O11 2.167430 1_555
Mg13 O30 2.176572 1_556
Mg14 O1 2.067842 1_555
Mg14 O20 2.110222 1_555
Mg14 O10 2.150949 1_545
Mg14 O8 2.150949 1_555
Mg14 O16 2.207386 1_555
Mg14 O0 2.256019 1_555
Mg15 O1 2.067842 1_555
Mg15 O21 2.110222 1_555
Mg15 O11 2.150949 1_545
Mg15 O9 2.150949 1_555
Mg15 O17 2.207386 1_555
Mg15 O0 2.256019 1_556
Mg16 O3 2.143232 1_555
Mg16 O22 2.155423 1_555
Mg16 O18 2.159808 1_555
Mg16 O8 2.167430 1_555
Mg16 O10 2.167430 1_555
Mg16 O2 2.176572 1_555
Mg17 O3 2.143232 1_555
Mg17 O23 2.155423 1_555
Mg17 O19 2.159808 1_555
Mg17 O9 2.167430 1_555
Mg17 O11 2.167430 1_555
Mg17 O2 2.176572 1_556
Mg18 O5 2.067842 1_555
Mg18 O20 2.110222 1_555
Mg18 O14 2.150949 1_545
Mg18 O12 2.150949 1_555
Mg18 O16 2.207386 1_655
Mg18 O4 2.256019 1_555
Mg19 O5 2.067842 1_555
Mg19 O21 2.110222 1_555
Mg19 O15 2.150949 1_545
Mg19 O13 2.150949 1_555
Mg19 O17 2.207386 1_655
Mg19 O4 2.256019 1_556
Mg20 O7 2.143232 1_555
Mg20 O22 2.155423 1_555
Mg20 O18 2.159808 1_655
Mg20 O14 2.167430 1_555
Mg20 O12 2.167430 1_555
Mg20 O6 2.176572 1_555
Mg21 O7 2.143232 1_555
Mg21 O23 2.155423 1_555
Mg21 O19 2.159808 1_655
Mg21 O15 2.167430 1_555
Mg21 O13 2.167430 1_555
Mg21 O6 2.176572 1_556
Mg22 O2 2.094573 1_555
Mg22 O28 2.094573 1_555
Mg22 O9 2.155021 1_554
Mg22 O8 2.155021 1_555
Mg22 O24 2.222150 1_555
Mg22 O0 2.222150 1_555
Mg23 O1 2.148823 1_555
Mg23 O25 2.148823 1_555
Mg23 O8 2.167103 1_555
Mg23 O9 2.167103 1_555
Mg23 O3 2.172713 1_555
Mg23 O29 2.172713 1_555
Mg24 O30 2.094573 1_555
Mg24 O2 2.094573 1_555
Mg24 O11 2.155021 1_554
Mg24 O10 2.155021 1_555
Mg24 O26 2.222150 1_555
Mg24 O0 2.222150 1_565
Mg25 O1 2.148823 1_565
Mg25 O27 2.148823 1_555
Mg25 O10 2.167103 1_555
Mg25 O11 2.167103 1_555
Mg25 O3 2.172713 1_555
Mg25 O31 2.172713 1_555
Mg26 O28 2.094573 1_555
Mg26 O6 2.094573 1_555
Mg26 O12 2.155021 1_555
Mg26 O13 2.155021 1_554
Mg26 O24 2.222150 1_655
Mg26 O4 2.222150 1_555
Mg27 O25 2.148823 1_655
Mg27 O5 2.148823 1_555
Mg27 O13 2.167103 1_555
Mg27 O12 2.167103 1_555
Mg27 O29 2.172713 1_555
Mg27 O7 2.172713 1_555
Mg28 O30 2.094573 1_555
Mg28 O6 2.094573 1_555
Mg28 O14 2.155021 1_555
Mg28 O15 2.155021 1_554
Mg28 O4 2.222150 1_565
Mg28 O26 2.222150 1_655
Mg29 O27 2.148823 1_655
Mg29 O5 2.148823 1_565
Mg29 O15 2.167103 1_555
Mg29 O14 2.167103 1_555
Mg29 O7 2.172713 1_555
Mg29 O31 2.172713 1_555
B0 O16 2.101993 1_555
B0 O17 2.101993 1_555
