# generated using pymatgen
data_CaAsO5
_symmetry_space_group_name_H-M   'P 1'
_cell_length_a   6.78200100
_cell_length_b   7.72302500
_cell_length_c   16.11597900
_cell_angle_alpha   90.00000000
_cell_angle_beta   90.00000000
_cell_angle_gamma   90.00000000
_symmetry_Int_Tables_number   1
_chemical_formula_structural   CaAsO5
_chemical_formula_sum   'Ca8 As8 O40'
_cell_volume   844.11570978
_cell_formula_units_Z   8
loop_
 _symmetry_equiv_pos_site_id
 _symmetry_equiv_pos_as_xyz
  1  'x, y, z'
loop_
 _atom_site_type_symbol
 _atom_site_label
 _atom_site_symmetry_multiplicity
 _atom_site_fract_x
 _atom_site_fract_y
 _atom_site_fract_z
 _atom_site_occupancy
  Ca  Ca0  1  0.36528600  0.18580100  0.44601700  1
  Ca  Ca1  1  0.13471400  0.31419900  0.94601700  1
  Ca  Ca2  1  0.86528600  0.31419900  0.55398300  1
  Ca  Ca3  1  0.63471400  0.18580100  0.05398300  1
  Ca  Ca4  1  0.63471400  0.81419900  0.55398300  1
  Ca  Ca5  1  0.86528600  0.68580100  0.05398300  1
  Ca  Ca6  1  0.13471400  0.68580100  0.44601700  1
  Ca  Ca7  1  0.36528600  0.81419900  0.94601700  1
  As  As0  1  0.84241900  0.07054700  0.38491100  1
  As  As1  1  0.65758100  0.42945300  0.88491100  1
  As  As2  1  0.34241900  0.42945300  0.61508900  1
  As  As3  1  0.15758100  0.07054700  0.11508900  1
  As  As4  1  0.15758100  0.92945300  0.61508900  1
  As  As5  1  0.34241900  0.57054700  0.11508900  1
  As  As6  1  0.65758100  0.57054700  0.38491100  1
  As  As7  1  0.84241900  0.92945300  0.88491100  1
  O  O0  1  0.69842800  0.13963400  0.30077500  1
  O  O1  1  0.80157200  0.36036600  0.80077500  1
  O  O2  1  0.19842800  0.36036600  0.69922500  1
  O  O3  1  0.30157200  0.13963400  0.19922500  1
  O  O4  1  0.30157200  0.86036600  0.69922500  1
  O  O5  1  0.19842800  0.63963400  0.19922500  1
  O  O6  1  0.80157200  0.63963400  0.30077500  1
  O  O7  1  0.69842800  0.86036600  0.80077500  1
  O  O8  1  0.02490400  0.21100700  0.41583200  1
  O  O9  1  0.47509600  0.28899300  0.91583200  1
  O  O10  1  0.52490400  0.28899300  0.58416800  1
  O  O11  1  0.97509600  0.21100700  0.08416800  1
  O  O12  1  0.97509600  0.78899300  0.58416800  1
  O  O13  1  0.52490400  0.71100700  0.08416800  1
  O  O14  1  0.47509600  0.71100700  0.41583200  1
  O  O15  1  0.02490400  0.78899300  0.91583200  1
  O  O16  1  0.95161300  0.87496700  0.36177000  1
  O  O17  1  0.54838700  0.62503300  0.86177000  1
  O  O18  1  0.45161300  0.62503300  0.63823000  1
  O  O19  1  0.04838700  0.87496700  0.13823000  1
  O  O20  1  0.04838700  0.12503300  0.63823000  1
  O  O21  1  0.45161300  0.37496700  0.13823000  1
  O  O22  1  0.54838700  0.37496700  0.36177000  1
  O  O23  1  0.95161300  0.12503300  0.86177000  1
  O  O24  1  0.69491200  0.06380100  0.47254100  1
  O  O25  1  0.80508800  0.43619900  0.97254100  1
  O  O26  1  0.19491200  0.43619900  0.52745900  1
  O  O27  1  0.30508800  0.06380100  0.02745900  1
  O  O28  1  0.30508800  0.93619900  0.52745900  1
  O  O29  1  0.19491200  0.56380100  0.02745900  1
  O  O30  1  0.80508800  0.56380100  0.47254100  1
  O  O31  1  0.69491200  0.93619900  0.97254100  1
  O  O32  1  0.40495900  0.98274400  0.33196000  1
  O  O33  1  0.09504100  0.51725600  0.83196000  1
  O  O34  1  0.90495900  0.51725600  0.66804000  1
  O  O35  1  0.59504100  0.98274400  0.16804000  1
  O  O36  1  0.59504100  0.01725600  0.66804000  1
  O  O37  1  0.90495900  0.48274400  0.16804000  1
  O  O38  1  0.09504100  0.48274400  0.33196000  1
  O  O39  1  0.40495900  0.01725600  0.83196000  1
loop_
_geom_bond_atom_site_label_1
_geom_bond_atom_site_label_2
_geom_bond_distance
_geom_bond_site_symmetry_2
Ca0 O22 2.349422 1_555
Ca0 O8 2.367188 1_555
Ca0 O28 2.367560 1_545
Ca0 O32 2.431142 1_545
Ca0 O24 2.463341 1_555
Ca0 O10 2.600776 1_555
Ca0 O26 2.607207 1_555
Ca1 O23 2.349422 1_455
Ca1 O9 2.367188 1_555
Ca1 O29 2.367560 1_556
Ca1 O33 2.431142 1_555
Ca1 O25 2.463341 1_455
Ca1 O11 2.600776 1_456
Ca1 O27 2.607207 1_556
Ca2 O20 2.349422 1_655
Ca2 O10 2.367188 1_555
Ca2 O30 2.367560 1_555
Ca2 O34 2.431142 1_555
Ca2 O26 2.463341 1_655
Ca2 O8 2.600776 1_655
Ca2 O24 2.607207 1_555
Ca3 O21 2.349422 1_555
Ca3 O11 2.367188 1_555
Ca3 O31 2.367560 1_544
Ca3 O35 2.431142 1_545
Ca3 O27 2.463341 1_555
Ca3 O9 2.600776 1_554
Ca3 O25 2.607207 1_554
Ca4 O18 2.349422 1_555
Ca4 O12 2.367188 1_555
Ca4 O24 2.367560 1_565
Ca4 O36 2.431142 1_565
Ca4 O28 2.463341 1_555
Ca4 O14 2.600776 1_555
Ca4 O30 2.607207 1_555
Ca5 O19 2.349422 1_655
Ca5 O13 2.367188 1_555
Ca5 O25 2.367560 1_554
Ca5 O37 2.431142 1_555
Ca5 O29 2.463341 1_655
Ca5 O15 2.600776 1_654
Ca5 O31 2.607207 1_554
Ca6 O16 2.349422 1_455
Ca6 O14 2.367188 1_555
Ca6 O26 2.367560 1_555
Ca6 O38 2.431142 1_555
Ca6 O30 2.463341 1_455
Ca6 O12 2.600776 1_455
Ca6 O28 2.607207 1_555
Ca7 O17 2.349422 1_555
Ca7 O15 2.367188 1_555
Ca7 O27 2.367560 1_566
Ca7 O39 2.431142 1_565
Ca7 O31 2.463341 1_555
Ca7 O13 2.600776 1_556
Ca7 O29 2.607207 1_556
As0 O8 1.719521 1_655
As0 O16 1.723085 1_545
As0 O24 1.731453 1_555
As0 O0 1.754106 1_555
As1 O9 1.719521 1_555
As1 O17 1.723085 1_555
As1 O25 1.731453 1_555
As1 O1 1.754106 1_555
As2 O10 1.719521 1_555
As2 O18 1.723085 1_555
As2 O26 1.731453 1_555
As2 O2 1.754106 1_555
As3 O11 1.719521 1_455
As3 O19 1.723085 1_545
As3 O27 1.731453 1_555
As3 O3 1.754106 1_555
As4 O12 1.719521 1_455
As4 O20 1.723085 1_565
As4 O28 1.731453 1_555
As4 O4 1.754106 1_555
As5 O13 1.719521 1_555
As5 O21 1.723085 1_555
As5 O29 1.731453 1_555
As5 O5 1.754106 1_555
As6 O14 1.719521 1_555
As6 O22 1.723085 1_555
As6 O30 1.731453 1_555
As6 O6 1.754106 1_555
As7 O15 1.719521 1_655
As7 O23 1.723085 1_565
As7 O31 1.731453 1_555
As7 O7 1.754106 1_555
