# generated using pymatgen
data_Ba10MgAs6(ClO12)2
_symmetry_space_group_name_H-M   'P 1'
_cell_length_a   11.01435563
_cell_length_b   10.88151151
_cell_length_c   7.79570230
_cell_angle_alpha   88.39603404
_cell_angle_beta   91.79108805
_cell_angle_gamma   117.05474815
_symmetry_Int_Tables_number   1
_chemical_formula_structural   Ba10MgAs6(ClO12)2
_chemical_formula_sum   'Ba10 Mg1 As6 Cl2 O24'
_cell_volume   831.58858041
_cell_formula_units_Z   1
loop_
 _symmetry_equiv_pos_site_id
 _symmetry_equiv_pos_as_xyz
  1  'x, y, z'
loop_
 _atom_site_type_symbol
 _atom_site_label
 _atom_site_symmetry_multiplicity
 _atom_site_fract_x
 _atom_site_fract_y
 _atom_site_fract_z
 _atom_site_occupancy
  Ba  Ba0  1  0.66262219  0.30828792  0.52103235  1
  Ba  Ba1  1  0.33161985  0.66033240  0.50185567  1
  Ba  Ba2  1  0.03590981  0.29044114  0.24373761  1
  Ba  Ba3  1  0.32050763  0.65397476  0.00151562  1
  Ba  Ba4  1  0.76134313  0.76520193  0.23905229  1
  Ba  Ba5  1  0.26327837  0.01516814  0.23641476  1
  Ba  Ba6  1  0.78280619  0.01172904  0.73559545  1
  Ba  Ba7  1  0.99107259  0.73951580  0.73925731  1
  Ba  Ba8  1  0.68682651  0.39061695  0.00594031  1
  Ba  Ba9  1  0.26705701  0.27553754  0.75185250  1
  Mg  Mg0  1  0.57531043  0.07942744  0.92090060  1
  As  As0  1  0.96914560  0.59208551  0.25074185  1
  As  As1  1  0.61720467  0.64270976  0.73218703  1
  As  As2  1  0.33717328  0.94919714  0.75281242  1
  As  As3  1  0.41864904  0.38208082  0.25830439  1
  As  As4  1  0.04172902  0.42821150  0.73683235  1
  As  As5  1  0.61515825  0.00759149  0.25048808  1
  Cl  Cl0  1  0.02409551  0.02609511  0.99575643  1
  Cl  Cl1  1  0.01295724  0.01896856  0.48195404  1
  O  O0  1  0.69138939  0.74820571  0.90498497  1
  O  O1  1  0.32615048  0.47422173  0.25967079  1
  O  O2  1  0.38142027  0.26696729  0.43031741  1
  O  O3  1  0.44213136  0.55253000  0.75641639  1
  O  O4  1  0.12118428  0.38130972  0.56813599  1
  O  O5  1  0.68744211  0.52917975  0.71930541  1
  O  O6  1  0.72086939  0.22032359  0.80037887  1
  O  O7  1  0.14840886  0.61367312  0.73862670  1
  O  O8  1  0.59233960  0.48902642  0.26241490  1
  O  O9  1  0.71522951  0.01783111  0.07985563  1
  O  O10  1  0.11780857  0.38421830  0.92269534  1
  O  O11  1  0.87343721  0.41302275  0.26786683  1
  O  O12  1  0.46551925  0.89727724  0.79432754  1
  O  O13  1  0.90897287  0.63860979  0.06408666  1
  O  O14  1  0.92822907  0.66919637  0.41244889  1
  O  O15  1  0.42711870  0.12564459  0.77944991  1
  O  O16  1  0.37868419  0.28233840  0.07655469  1
  O  O17  1  0.70884546  0.08330123  0.43028581  1
  O  O18  1  0.13942060  0.63433737  0.24534879  1
  O  O19  1  0.22711573  0.88156893  0.92108900  1
  O  O20  1  0.49145076  0.84042494  0.26896937  1
  O  O21  1  0.26066966  0.89806277  0.55596786  1
  O  O22  1  0.65169381  0.75107112  0.55541443  1
  O  O23  1  0.53625252  0.10798483  0.17082379  1
loop_
_geom_bond_atom_site_label_1
_geom_bond_atom_site_label_2
_geom_bond_distance
_geom_bond_site_symmetry_2
Ba0 O6 2.534715 1_555
Ba0 O5 2.797347 1_555
Ba0 O17 2.829602 1_555
Ba0 O11 2.887707 1_555
Ba0 O2 2.984849 1_555
Ba0 O8 3.097951 1_555
Ba0 O15 3.185842 1_555
Ba0 O23 3.387830 1_555
Ba1 O7 2.642957 1_555
Ba1 O20 2.664183 1_555
Ba1 O1 2.786652 1_555
Ba1 O18 2.789698 1_555
Ba1 O3 2.795246 1_555
Ba1 O4 2.905682 1_555
Ba1 O21 3.066137 1_555
Ba1 O22 3.215944 1_555
Ba1 O12 3.268195 1_555
Ba2 O11 2.687663 1_455
Ba2 O10 2.698066 1_554
Ba2 O4 2.720653 1_555
Ba2 O1 2.899612 1_555
Ba2 Cl1 3.358838 1_555
Ba2 Cl0 3.461702 1_554
Ba3 O7 2.652693 1_554
Ba3 O18 2.731977 1_555
Ba3 O1 2.786091 1_555
Ba3 O10 2.834081 1_554
Ba3 O12 2.871289 1_554
Ba3 O3 2.878752 1_554
Ba3 O20 2.919748 1_555
Ba3 O19 3.126471 1_554
Ba4 O0 2.679943 1_554
Ba4 O8 2.726022 1_555
Ba4 O22 2.749676 1_555
Ba4 O14 2.794607 1_555
Ba4 O13 2.946768 1_555
Ba4 O9 3.224106 1_565
Ba4 O20 3.439305 1_555
Ba4 Cl1 3.448824 1_665
Ba4 Cl0 3.549654 1_664
Ba5 O21 2.761135 1_545
Ba5 O23 2.761552 1_555
Ba5 O19 2.815467 1_544
Ba5 O16 2.855741 1_555
Ba5 O2 2.889829 1_555
Ba5 Cl0 3.230742 1_554
Ba5 Cl1 3.421328 1_555
Ba6 O17 2.699488 1_555
Ba6 O6 2.714197 1_555
Ba6 O9 2.817930 1_556
Ba6 O0 2.867913 1_545
Ba6 O22 2.910932 1_545
Ba6 O12 3.175300 1_545
Ba6 Cl1 3.234961 1_655
Ba6 Cl0 3.240948 1_655
Ba7 O7 2.652910 1_655
Ba7 O14 2.659415 1_555
Ba7 O19 2.719277 1_655
Ba7 O13 2.742263 1_556
Ba7 O21 3.050017 1_655
Ba7 O5 3.077560 1_555
Ba7 Cl1 3.514318 1_665
Ba7 Cl0 3.623118 1_665
Ba8 O6 2.641637 1_554
Ba8 O5 2.658861 1_554
Ba8 O13 2.732601 1_555
Ba8 O8 2.736989 1_555
Ba8 O11 2.786236 1_555
Ba8 O23 3.022130 1_555
Ba8 O16 3.106955 1_555
Ba9 O4 2.720932 1_555
Ba9 O3 2.742076 1_555
Ba9 O16 2.767256 1_556
Ba9 O10 2.805033 1_555
Ba9 O2 2.862814 1_555
Ba9 O15 2.896066 1_555
Ba9 Cl0 3.400830 1_555
Ba9 Cl1 3.592661 1_555
Mg0 O6 1.892410 1_555
Mg0 O12 2.054041 1_545
Mg0 O23 2.070147 1_556
Mg0 O15 2.176294 1_555
Mg0 O9 2.265748 1_556
As0 O14 1.713199 1_555
As0 O18 1.717553 1_655
As0 O13 1.736833 1_555
As0 O11 1.746817 1_555
As1 O0 1.721792 1_555
As1 O22 1.722795 1_555
As1 O3 1.734381 1_555
As1 O5 1.736643 1_555
As2 O21 1.707312 1_555
As2 O19 1.722144 1_555
As2 O15 1.729208 1_565
As2 O12 1.763527 1_555
As3 O1 1.724493 1_555
As3 O8 1.728646 1_555
As3 O16 1.729668 1_555
As3 O2 1.734488 1_555
As4 O4 1.808779 1_555
As4 O10 1.811339 1_555
As4 O7 1.815768 1_555
As5 O17 1.705592 1_555
As5 O20 1.711461 1_545
As5 O9 1.722896 1_555
As5 O23 1.768158 1_555
