# generated using pymatgen
data_UGaPt
_symmetry_space_group_name_H-M   'P 1'
_cell_length_a   7.05139838
_cell_length_b   7.06202802
_cell_length_c   4.12050429
_cell_angle_alpha   90.00000000
_cell_angle_beta   90.00000000
_cell_angle_gamma   119.92701566
_symmetry_Int_Tables_number   1
_chemical_formula_structural   UGaPt
_chemical_formula_sum   'U3 Ga3 Pt3'
_cell_volume   177.82983164
_cell_formula_units_Z   3
loop_
 _symmetry_equiv_pos_site_id
 _symmetry_equiv_pos_as_xyz
  1  'x, y, z'
loop_
 _atom_site_type_symbol
 _atom_site_label
 _atom_site_symmetry_multiplicity
 _atom_site_fract_x
 _atom_site_fract_y
 _atom_site_fract_z
 _atom_site_occupancy
  U  U0  1  0.42338592  0.99863689  0.50000000  1
  U  U1  1  0.99700535  0.42160454  0.50000000  1
  U  U2  1  0.57599946  0.57807304  0.50000000  1
  Ga  Ga0  1  0.76085547  0.99954801  -0.00000000  1
  Ga  Ga1  1  0.99969103  0.76006725  0.00000000  1
  Ga  Ga2  1  0.24073890  0.24095031  0.00000000  1
  Pt  Pt0  1  0.33361124  0.66846458  0.00000000  1
  Pt  Pt1  1  0.66767773  0.33243282  -0.00000000  1
  Pt  Pt2  1  1.00103590  1.00021956  0.50000000  1
loop_
_geom_bond_atom_site_label_1
_geom_bond_atom_site_label_2
_geom_bond_distance
_geom_bond_site_symmetry_2
Ga0 Pt2 2.665512 1_555
Ga0 Pt2 2.665512 1_554
Ga0 Pt1 2.738489 1_565
Ga0 Pt0 2.741267 1_555
Ga0 Ga2 2.932699 1_665
Ga0 U0 3.145163 1_555
Ga0 U0 3.145163 1_554
Ga0 U2 3.306335 1_555
Ga0 U2 3.306335 1_554
Ga0 U1 3.308935 1_565
Ga0 U1 3.308935 1_564
Ga1 Pt2 2.665515 1_555
Ga1 Pt2 2.665515 1_554
Ga1 Pt0 2.735411 1_655
Ga1 Pt1 2.747108 1_555
Ga1 Ga2 2.943196 1_665
Ga1 U1 3.148499 1_555
Ga1 U1 3.148499 1_554
Ga1 U0 3.314622 1_654
Ga1 U0 3.314622 1_655
Ga1 U2 3.315269 1_554
Ga1 U2 3.315269 1_555
Ga2 Pt2 2.669189 1_444
Ga2 Pt2 2.669189 1_445
Ga2 Pt1 2.745894 1_555
Ga2 Pt0 2.751571 1_555
Ga2 U2 3.144140 1_555
Ga2 U2 3.144140 1_554
Ga2 U1 3.318715 1_454
Ga2 U1 3.318715 1_455
Ga2 U0 3.321251 1_545
Ga2 U0 3.321251 1_544
Pt0 U0 2.934169 1_554
Pt0 U0 2.934169 1_555
Pt0 U2 2.943136 1_555
Pt0 U2 2.943136 1_554
Pt0 U1 2.964593 1_455
Pt0 U1 2.964593 1_454
Pt1 U1 2.928269 1_554
Pt1 U1 2.928269 1_555
Pt1 U0 2.952466 1_545
Pt1 U0 2.952466 1_544
Pt1 U2 2.964919 1_555
Pt1 U2 2.964919 1_554
Pt2 U0 2.983750 1_655
Pt2 U1 2.990113 1_565
Pt2 U2 2.992484 1_555
