# generated using pymatgen
data_Sm2Fe17C2
_symmetry_space_group_name_H-M   'P 1'
_cell_length_a   6.49204013
_cell_length_b   6.49204013
_cell_length_c   6.50137879
_cell_angle_alpha   83.72628803
_cell_angle_beta   83.72628803
_cell_angle_gamma   83.67700985
_symmetry_Int_Tables_number   1
_chemical_formula_structural   Sm2Fe17C2
_chemical_formula_sum   'Sm2 Fe17 C2'
_cell_volume   269.39852027
_cell_formula_units_Z   1
loop_
 _symmetry_equiv_pos_site_id
 _symmetry_equiv_pos_as_xyz
  1  'x, y, z'
loop_
 _atom_site_type_symbol
 _atom_site_label
 _atom_site_symmetry_multiplicity
 _atom_site_fract_x
 _atom_site_fract_y
 _atom_site_fract_z
 _atom_site_occupancy
  Sm  Sm0  1  0.34734300  0.34734300  0.33344500  1
  Sm  Sm1  1  0.65265700  0.65265700  0.66655500  1
  Fe  Fe0  1  0.65804500  0.65804500  0.14744300  1
  Fe  Fe1  1  0.65632300  0.14580700  0.65856600  1
  Fe  Fe2  1  0.14580700  0.65632300  0.65856600  1
  Fe  Fe3  1  0.34195500  0.34195500  0.85255700  1
  Fe  Fe4  1  0.34367700  0.85419300  0.34143400  1
  Fe  Fe5  1  0.85419300  0.34367700  0.34143400  1
  Fe  Fe6  1  0.09562800  0.09562800  0.09564800  1
  Fe  Fe7  1  0.90437200  0.90437200  0.90435200  1
  Fe  Fe8  1  0.00000000  0.00000000  0.50000000  1
  Fe  Fe9  1  0.00000000  0.50000000  0.00000000  1
  Fe  Fe10  1  0.50000000  0.00000000  0.00000000  1
  Fe  Fe11  1  0.71402400  0.28597600  0.00000000  1
  Fe  Fe12  1  0.28555100  0.00086500  0.71390400  1
  Fe  Fe13  1  0.99913500  0.71444900  0.28609600  1
  Fe  Fe14  1  0.71444900  0.99913500  0.28609600  1
  Fe  Fe15  1  0.00086500  0.28555100  0.71390400  1
  Fe  Fe16  1  0.28597600  0.71402400  0.00000000  1
  C  C0  1  0.50000000  0.00000000  0.50000000  1
  C  C1  1  0.00000000  0.50000000  0.50000000  1
loop_
_geom_bond_atom_site_label_1
_geom_bond_atom_site_label_2
_geom_bond_distance
_geom_bond_site_symmetry_2
Fe0 Fe10 2.479538 1_565
Fe0 Fe9 2.479538 1_655
Fe0 Fe14 2.556778 1_555
Fe0 Fe13 2.556778 1_555
Fe0 Fe5 2.567767 1_555
Fe0 Fe4 2.567767 1_555
Fe0 Fe7 2.659127 1_554
Fe0 Fe11 2.668725 1_555
Fe0 Fe16 2.668725 1_555
Fe0 Sm0 3.070768 1_555
Fe0 Sm1 3.134504 1_554
Fe0 Sm1 3.367694 1_555
Fe1 Fe10 2.472536 1_556
Fe1 Fe8 2.486412 1_655
Fe1 Fe3 2.567767 1_555
Fe1 Fe11 2.567911 1_556
Fe1 Fe7 2.657524 1_545
Fe2 Fe9 2.472536 1_556
Fe2 Fe8 2.486412 1_565
Fe2 Fe3 2.567767 1_555
Fe2 Fe7 2.657524 1_455
Fe3 Fe9 2.479538 1_556
Fe3 Fe6 2.659127 1_556
Fe3 Sm1 3.070768 1_555
Fe3 Sm0 3.134504 1_556
Fe3 Sm0 3.367694 1_555
Fe4 Fe8 2.486412 1_565
Fe4 Fe6 2.657524 1_565
Fe5 Fe9 2.472536 1_655
Fe5 Fe8 2.486412 1_655
Fe5 Fe6 2.657524 1_655
Fe6 Fe7 2.375854 1_444
Fe6 Fe9 2.651864 1_555
Fe6 Fe8 2.655781 1_555
Fe6 Sm0 3.069775 1_555
Fe7 Fe9 2.651864 1_656
Fe7 Fe8 2.655781 1_665
Fe7 Sm1 3.069775 1_555
Fe8 Sm0 3.375643 1_555
Fe8 Sm1 3.375643 1_445
Fe9 Sm0 3.297458 1_555
Fe9 Sm1 3.297458 1_454
Fe10 Fe11 2.438365 1_555
Fe10 Fe16 2.438365 1_545
Fe10 Fe14 2.441292 1_545
Fe10 Fe12 2.441292 1_554
Fe10 Fe4 2.472536 1_545
Fe10 Fe3 2.479538 1_554
Fe10 Fe7 2.651864 1_544
Fe10 Fe6 2.651864 1_555
Fe10 Sm0 3.297458 1_555
Fe10 Sm1 3.297458 1_544
Fe11 Fe9 2.438365 1_655
Fe11 Fe14 2.484025 1_545
Fe11 Fe15 2.484025 1_654
Fe11 Fe5 2.567911 1_555
Fe11 Fe3 2.668725 1_554
Fe11 Fe6 2.746932 1_655
Fe11 Fe7 2.746932 1_544
Fe11 Sm1 3.062205 1_554
Fe11 Sm0 3.062205 1_555
Fe12 Fe8 2.436811 1_555
Fe12 Fe16 2.484025 1_546
Fe12 Fe3 2.556778 1_555
Fe12 Fe7 2.748011 1_445
Fe12 Fe6 2.748853 1_556
Fe13 Fe8 2.436811 1_665
Fe13 Fe9 2.441292 1_655
Fe13 Fe16 2.484025 1_655
Fe13 Fe6 2.748011 1_665
Fe13 Fe7 2.748853 1_554
Fe14 Fe8 2.436811 1_665
Fe14 Fe6 2.748011 1_665
Fe14 Fe7 2.748853 1_554
Fe15 Fe8 2.436811 1_555
Fe15 Fe9 2.441292 1_556
Fe15 Fe3 2.556778 1_555
Fe15 Fe7 2.748011 1_445
Fe15 Fe6 2.748853 1_556
Fe16 Fe9 2.438365 1_555
Fe16 Fe4 2.567911 1_555
Fe16 Fe2 2.567911 1_554
Fe16 Fe3 2.668725 1_554
Fe16 Fe6 2.746932 1_565
Fe16 Fe7 2.746932 1_454
Fe16 Sm1 3.062205 1_554
Fe16 Sm0 3.062205 1_555
C0 Fe12 1.857171 1_555
C0 Fe14 1.857171 1_545
C0 Fe1 1.908463 1_555
C0 Fe4 1.908463 1_545
C0 Sm0 2.539335 1_555
C0 Sm1 2.539335 1_545
C1 Fe15 1.857171 1_555
C1 Fe13 1.857171 1_455
C1 Fe2 1.908463 1_555
C1 Fe5 1.908463 1_455
C1 Sm0 2.539335 1_555
C1 Sm1 2.539335 1_455
