# generated using pymatgen
data_CaMgB6O17
_symmetry_space_group_name_H-M   'P 1'
_cell_length_a   6.12642600
_cell_length_b   8.41500900
_cell_length_c   12.37290406
_cell_angle_alpha   84.34469636
_cell_angle_beta   90.00000000
_cell_angle_gamma   90.00000000
_symmetry_Int_Tables_number   1
_chemical_formula_structural   CaMgB6O17
_chemical_formula_sum   'Ca2 Mg2 B12 O34'
_cell_volume   634.76714505
_cell_formula_units_Z   2
loop_
 _symmetry_equiv_pos_site_id
 _symmetry_equiv_pos_as_xyz
  1  'x, y, z'
loop_
 _atom_site_type_symbol
 _atom_site_label
 _atom_site_symmetry_multiplicity
 _atom_site_fract_x
 _atom_site_fract_y
 _atom_site_fract_z
 _atom_site_occupancy
  Ca  Ca0  1  0.42952400  0.25000000  0.50000000  1
  Ca  Ca1  1  0.57047600  0.75000000  0.50000000  1
  Mg  Mg0  1  0.00000000  0.50000000  0.00000000  1
  Mg  Mg1  1  0.00000000  0.00000000  0.00000000  1
  B  B0  1  0.27760000  0.39952000  0.21778500  1
  B  B1  1  0.27760000  0.10048000  0.78221500  1
  B  B2  1  0.72240000  0.60048000  0.78221500  1
  B  B3  1  0.72240000  0.89952000  0.21778500  1
  B  B4  1  0.24946400  0.54993700  0.38707800  1
  B  B5  1  0.24946400  0.95006300  0.61292200  1
  B  B6  1  0.75053600  0.45006300  0.61292200  1
  B  B7  1  0.75053600  0.04993700  0.38707800  1
  B  B8  1  0.50340800  0.64476100  0.23566200  1
  B  B9  1  0.50340800  0.85523900  0.76433800  1
  B  B10  1  0.49659200  0.35523900  0.76433800  1
  B  B11  1  0.49659200  0.14476100  0.23566200  1
  O  O0  1  0.08156700  0.25000000  0.00000000  1
  O  O1  1  0.91843300  0.75000000  0.00000000  1
  O  O2  1  0.34845900  0.68814400  0.97695400  1
  O  O3  1  0.34845900  0.81185600  0.02304600  1
  O  O4  1  0.65154100  0.31185600  0.02304600  1
  O  O5  1  0.65154100  0.18814400  0.97695400  1
  O  O6  1  0.09719900  0.47050300  0.15487500  1
  O  O7  1  0.09719900  0.02949700  0.84512500  1
  O  O8  1  0.90280100  0.52949700  0.84512500  1
  O  O9  1  0.90280100  0.97050300  0.15487500  1
  O  O10  1  0.33541100  0.24098800  0.19240500  1
  O  O11  1  0.33541100  0.25901200  0.80759500  1
  O  O12  1  0.66458900  0.75901200  0.80759500  1
  O  O13  1  0.66458900  0.74098800  0.19240500  1
  O  O14  1  0.45200400  0.51372100  0.18060600  1
  O  O15  1  0.45200400  0.98627900  0.81939400  1
  O  O16  1  0.54799600  0.48627900  0.81939400  1
  O  O17  1  0.54799600  0.01372100  0.18060600  1
  O  O18  1  0.24483200  0.39759100  0.33741300  1
  O  O19  1  0.24483200  0.10240900  0.66258700  1
  O  O20  1  0.75516800  0.60240900  0.66258700  1
  O  O21  1  0.75516800  0.89759100  0.33741300  1
  O  O22  1  0.39514700  0.67178000  0.33080500  1
  O  O23  1  0.39514700  0.82822000  0.66919500  1
  O  O24  1  0.60485300  0.32822000  0.66919500  1
  O  O25  1  0.60485300  0.17178000  0.33080500  1
  O  O26  1  0.01734600  0.58978500  0.37491700  1
  O  O27  1  0.01734600  0.91021500  0.62508300  1
  O  O28  1  0.98265400  0.41021500  0.62508300  1
  O  O29  1  0.98265400  0.08978500  0.37491700  1
  O  O30  1  0.30327400  0.52978700  0.50040400  1
  O  O31  1  0.30327400  0.97021300  0.49959600  1
  O  O32  1  0.69672600  0.47021300  0.49959600  1
  O  O33  1  0.69672600  0.02978700  0.50040400  1
loop_
_geom_bond_atom_site_label_1
_geom_bond_atom_site_label_2
_geom_bond_distance
_geom_bond_site_symmetry_2
Ca0 O32 2.472227 1_555
Ca0 O33 2.472227 1_555
Ca0 O30 2.478676 1_555
Ca0 O31 2.478676 1_545
Ca0 O24 2.498214 1_555
Ca0 O25 2.498214 1_555
Ca0 O19 2.525317 1_555
Ca0 O18 2.525317 1_555
Ca1 O30 2.472227 1_555
Ca1 O31 2.472227 1_555
Ca1 O33 2.478676 1_565
Ca1 O32 2.478676 1_555
Ca1 O23 2.498214 1_555
Ca1 O22 2.498214 1_555
Ca1 O20 2.525317 1_555
Ca1 O21 2.525317 1_555
Mg0 O6 1.998623 1_555
Mg0 O8 1.998623 1_454
Mg0 O0 2.162288 1_555
Mg0 O1 2.162288 1_455
Mg0 O2 2.656382 1_554
Mg0 O4 2.656382 1_455
Mg1 O9 1.998623 1_445
Mg1 O7 1.998623 1_554
Mg1 O0 2.162288 1_555
Mg1 O1 2.162288 1_445
Mg1 O3 2.656382 1_545
Mg1 O5 2.656382 1_454
B0 O10 1.444403 1_555
B0 O6 1.446558 1_555
B0 O14 1.479745 1_555
B0 O18 1.492200 1_555
B1 O11 1.444403 1_555
B1 O7 1.446558 1_555
B1 O15 1.479745 1_545
B1 O19 1.492200 1_555
B2 O12 1.444403 1_555
B2 O8 1.446558 1_555
B2 O16 1.479745 1_555
B2 O20 1.492200 1_555
B3 O13 1.444403 1_555
B3 O9 1.446558 1_555
B3 O17 1.479745 1_565
B3 O21 1.492200 1_555
B4 O30 1.434105 1_555
B4 O26 1.465392 1_555
B4 O18 1.475528 1_555
B4 O22 1.480516 1_555
B5 O31 1.434105 1_555
B5 O27 1.465392 1_555
B5 O19 1.475528 1_565
B5 O23 1.480516 1_555
B6 O32 1.434105 1_555
B6 O28 1.465392 1_555
B6 O20 1.475528 1_555
B6 O24 1.480516 1_555
B7 O33 1.434105 1_555
B7 O29 1.465392 1_555
B7 O21 1.475528 1_545
B7 O25 1.480516 1_555
B8 O13 1.353447 1_555
B8 O14 1.388240 1_555
B8 O22 1.389294 1_555
B9 O12 1.353447 1_555
B9 O15 1.388240 1_555
B9 O23 1.389294 1_555
B10 O11 1.353447 1_555
B10 O16 1.388240 1_555
B10 O24 1.389294 1_555
B11 O10 1.353447 1_555
B11 O17 1.388240 1_555
B11 O25 1.389294 1_555
O2 O3 1.235314 1_556
O4 O5 1.235314 1_554
