# generated using pymatgen
data_FePO4
_symmetry_space_group_name_H-M   'P 1'
_cell_length_a   9.29499673
_cell_length_b   9.29499673
_cell_length_c   15.72212442
_cell_angle_alpha   62.44477469
_cell_angle_beta   62.44477469
_cell_angle_gamma   31.27294174
_symmetry_Int_Tables_number   1
_chemical_formula_structural   FePO4
_chemical_formula_sum   'Fe8 P8 O32'
_cell_volume   618.44745070
_cell_formula_units_Z   8
loop_
 _symmetry_equiv_pos_site_id
 _symmetry_equiv_pos_as_xyz
  1  'x, y, z'
loop_
 _atom_site_type_symbol
 _atom_site_label
 _atom_site_symmetry_multiplicity
 _atom_site_fract_x
 _atom_site_fract_y
 _atom_site_fract_z
 _atom_site_occupancy
  Fe  Fe0  1  0.40871700  0.79820900  0.52298800  1
  Fe  Fe1  1  0.20179100  0.59128300  0.97701200  1
  Fe  Fe2  1  0.59128300  0.20179100  0.47701200  1
  Fe  Fe3  1  0.00000000  0.50000000  0.50000000  1
  Fe  Fe4  1  0.79820900  0.40871700  0.02298800  1
  Fe  Fe5  1  0.67318100  0.32681900  0.25000000  1
  Fe  Fe6  1  0.32681900  0.67318100  0.75000000  1
  Fe  Fe7  1  0.50000000  0.00000000  0.00000000  1
  P  P0  1  0.48615400  0.94006000  0.64432600  1
  P  P1  1  0.81127300  0.22327900  0.87877700  1
  P  P2  1  0.51384600  0.05994000  0.35567400  1
  P  P3  1  0.22327900  0.81127300  0.37877700  1
  P  P4  1  0.94006000  0.48615400  0.14432600  1
  P  P5  1  0.05994000  0.51384600  0.85567400  1
  P  P6  1  0.18872700  0.77672100  0.12122300  1
  P  P7  1  0.77672100  0.18872700  0.62122300  1
  O  O0  1  0.19901300  0.29299200  0.40289200  1
  O  O1  1  0.71680200  0.14047200  0.57125800  1
  O  O2  1  0.29299200  0.19901300  0.90289200  1
  O  O3  1  0.60849200  0.24195100  0.94925400  1
  O  O4  1  0.64875800  0.80045400  0.44352300  1
  O  O5  1  0.67753800  0.43183400  0.78707600  1
  O  O6  1  0.75804900  0.39150800  0.55074600  1
  O  O7  1  0.90787300  0.10046100  0.36067500  1
  O  O8  1  0.39150800  0.75804900  0.05074600  1
  O  O9  1  0.85952800  0.28319800  0.92874200  1
  O  O10  1  0.62209200  0.12724000  0.36331800  1
  O  O11  1  0.99812600  0.40501700  0.23977800  1
  O  O12  1  0.28319800  0.85952800  0.42874200  1
  O  O13  1  0.10046100  0.90787300  0.86067500  1
  O  O14  1  0.80098700  0.70700800  0.59710800  1
  O  O15  1  0.37790800  0.87276000  0.63668200  1
  O  O16  1  0.40501700  0.99812600  0.73977800  1
  O  O17  1  0.24195100  0.60849200  0.44925400  1
  O  O18  1  0.12724000  0.62209200  0.86331800  1
  O  O19  1  0.00187400  0.59498300  0.76022200  1
  O  O20  1  0.89953900  0.09212700  0.13932500  1
  O  O21  1  0.80045400  0.64875800  0.94352300  1
  O  O22  1  0.09212700  0.89953900  0.63932500  1
  O  O23  1  0.43183400  0.67753800  0.28707600  1
  O  O24  1  0.14047200  0.71680200  0.07125800  1
  O  O25  1  0.70700800  0.80098700  0.09710800  1
  O  O26  1  0.59498300  0.00187400  0.26022200  1
  O  O27  1  0.19954600  0.35124200  0.05647700  1
  O  O28  1  0.35124200  0.19954600  0.55647700  1
  O  O29  1  0.56816600  0.32246200  0.71292400  1
  O  O30  1  0.32246200  0.56816600  0.21292400  1
  O  O31  1  0.87276000  0.37790800  0.13668200  1
loop_
_geom_bond_atom_site_label_1
_geom_bond_atom_site_label_2
_geom_bond_distance
_geom_bond_site_symmetry_2
Fe0 O12 1.887588 1_555
Fe0 O6 1.956128 1_555
Fe0 O4 2.003974 1_555
Fe0 O15 2.022519 1_555
Fe0 O22 2.183645 1_555
Fe1 O24 1.887588 1_556
Fe1 O3 1.956128 1_555
Fe1 O27 2.003974 1_556
Fe1 O18 2.022519 1_555
Fe1 O13 2.183645 1_555
Fe2 O1 1.887588 1_555
Fe2 O17 1.956128 1_555
Fe2 O28 2.003974 1_555
Fe2 O10 2.022519 1_555
Fe2 O7 2.183645 1_555
Fe3 O14 1.864337 1_455
Fe3 O0 1.864337 1_555
Fe3 O28 2.012120 1_555
Fe3 O4 2.012120 1_455
Fe4 O9 1.887588 1_554
Fe4 O8 1.956128 1_555
Fe4 O21 2.003974 1_554
Fe4 O31 2.022519 1_555
Fe4 O20 2.183645 1_555
Fe5 O30 2.011637 1_555
Fe5 O23 2.011637 1_555
Fe5 O7 2.119487 1_555
Fe5 O20 2.119487 1_555
Fe5 O10 2.122788 1_555
Fe5 O31 2.122788 1_555
Fe6 O29 2.011637 1_555
Fe6 O5 2.011637 1_555
Fe6 O13 2.119487 1_555
Fe6 O22 2.119487 1_555
Fe6 O18 2.122788 1_555
Fe6 O15 2.122788 1_555
Fe7 O25 1.864337 1_545
Fe7 O2 1.864337 1_554
Fe7 O21 2.012120 1_544
Fe7 O27 2.012120 1_555
O0 P2 1.564910 1_555
O1 P7 1.512042 1_555
O2 P5 1.564910 1_555
O3 P1 1.580184 1_555
O4 P2 1.627161 1_565
O5 P1 1.528014 1_555
O6 P7 1.580184 1_555
O7 P3 1.579410 1_645
O8 P6 1.580184 1_555
O9 P1 1.512042 1_555
O10 P2 1.635671 1_555
O11 P4 1.455557 1_555
O12 P3 1.512042 1_555
O13 P1 1.579410 1_465
O14 P0 1.564910 1_555
O15 P0 1.635671 1_555
O16 P0 1.455557 1_555
O17 P3 1.580184 1_555
O18 P5 1.635671 1_555
O19 P5 1.455557 1_555
O20 P6 1.579410 1_645
O21 P5 1.627161 1_655
O22 P7 1.579410 1_465
O23 P3 1.528014 1_555
O24 P6 1.512042 1_555
O25 P4 1.564910 1_555
O26 P2 1.455557 1_555
O27 P4 1.627161 1_455
O28 P0 1.627161 1_545
O29 P7 1.528014 1_555
O30 P6 1.528014 1_555
O31 P4 1.635671 1_555
