# generated using pymatgen
data_MgAg14(PbO3)6
_symmetry_space_group_name_H-M   'P 1'
_cell_length_a   8.85167123
_cell_length_b   8.99241814
_cell_length_c   8.94237160
_cell_angle_alpha   73.68982495
_cell_angle_beta   105.33475156
_cell_angle_gamma   106.29707489
_symmetry_Int_Tables_number   1
_chemical_formula_structural   MgAg14(PbO3)6
_chemical_formula_sum   'Mg1 Ag14 Pb6 O18'
_cell_volume   642.24549348
_cell_formula_units_Z   1
loop_
 _symmetry_equiv_pos_site_id
 _symmetry_equiv_pos_as_xyz
  1  'x, y, z'
loop_
 _atom_site_type_symbol
 _atom_site_label
 _atom_site_symmetry_multiplicity
 _atom_site_fract_x
 _atom_site_fract_y
 _atom_site_fract_z
 _atom_site_occupancy
  Mg  Mg0  1  0.99082456  0.12602063  0.86362339  1
  Ag  Ag0  1  0.77605714  0.19869098  0.58458935  1
  Ag  Ag1  1  0.22014044  0.40722387  0.80244043  1
  Ag  Ag2  1  0.65947947  0.82671876  0.83229265  1
  Ag  Ag3  1  0.47808577  0.99643239  0.48621809  1
  Ag  Ag4  1  0.07532048  0.83373758  0.93551540  1
  Ag  Ag5  1  0.26735673  0.76294619  0.72846140  1
  Ag  Ag6  1  0.43265268  0.58109078  0.59167909  1
  Ag  Ag7  1  0.57633701  0.41823717  0.42671668  1
  Ag  Ag8  1  0.72238489  0.26097129  0.22645690  1
  Ag  Ag9  1  0.93223163  0.06672160  0.16518785  1
  Ag  Ag10  1  0.00322891  0.50789500  0.49589010  1
  Ag  Ag11  1  0.83732042  0.65824180  0.17088485  1
  Ag  Ag12  1  0.16374048  0.83143780  0.33769866  1
  Ag  Ag13  1  0.51953575  0.50342671  0.01551157  1
  Pb  Pb0  1  0.48884343  0.15842745  0.84683101  1
  Pb  Pb1  1  0.84095910  0.49054651  0.83496947  1
  Pb  Pb2  1  0.16213073  0.17086318  0.49913888  1
  Pb  Pb3  1  0.82910171  0.83226373  0.50186776  1
  Pb  Pb4  1  0.17388679  0.49132427  0.17208441  1
  Pb  Pb5  1  0.50070080  0.83265557  0.17103651  1
  O  O0  1  0.81247693  0.22923026  0.83436842  1
  O  O1  1  0.57495349  0.44414004  0.82508268  1
  O  O2  1  0.88913265  0.10475934  0.45324724  1
  O  O3  1  0.17742734  0.16014700  0.76643989  1
  O  O4  1  0.85205707  0.77780432  0.76894557  1
  O  O5  1  0.47655412  0.87830149  0.90506455  1
  O  O6  1  0.11766196  0.54498390  0.89950713  1
  O  O7  1  0.42460315  0.18303767  0.55294971  1
  O  O8  1  0.81386270  0.56324093  0.56256133  1
  O  O9  1  0.52157946  0.08723829  0.12177564  1
  O  O10  1  0.19306419  0.44094689  0.44253069  1
  O  O11  1  0.90118769  0.47544703  0.10881597  1
  O  O12  1  0.55629467  0.81131979  0.43946685  1
  O  O13  1  0.14824151  0.23306375  0.22763528  1
  O  O14  1  0.76896697  0.84015185  0.22907963  1
  O  O15  1  0.44555148  0.56277408  0.19615817  1
  O  O16  1  0.10369888  0.89973787  0.52071008  1
  O  O17  1  0.23178980  0.76266527  0.16112672  1
loop_
_geom_bond_atom_site_label_1
_geom_bond_atom_site_label_2
_geom_bond_distance
_geom_bond_site_symmetry_2
Mg0 O0 1.972187 1_555
Mg0 O3 1.975512 1_655
Ag0 O2 2.179049 1_555
Ag0 O0 2.254413 1_555
Ag1 O6 2.182195 1_555
Ag1 O3 2.246993 1_555
Ag2 O5 2.099719 1_555
Ag2 O4 2.119350 1_555
Ag3 O7 2.133941 1_565
Ag3 O12 2.148411 1_555
Ag4 O4 2.164077 1_455
Ag4 O17 2.166027 1_556
Ag5 O5 2.300949 1_555
Ag5 O16 2.314335 1_555
Ag5 O6 2.422280 1_555
Ag6 O12 2.295683 1_555
Ag6 O1 2.344334 1_555
Ag6 O10 2.410953 1_555
Ag7 O15 2.314564 1_555
Ag7 O7 2.327673 1_555
Ag7 O8 2.365710 1_555
Ag8 O9 2.204371 1_555
Ag8 O11 2.314999 1_555
Ag8 O2 2.499010 1_555
Ag9 O13 2.122379 1_655
Ag9 O14 2.167112 1_545
Ag10 O10 2.137034 1_555
Ag10 O8 2.139220 1_455
Ag11 O14 2.124363 1_555
Ag11 O11 2.128286 1_555
Ag12 O17 2.121089 1_555
Ag12 O16 2.132087 1_555
Ag13 O1 2.126781 1_554
Ag13 O15 2.136152 1_555
O0 Pb1 2.293325 1_555
O0 Pb0 2.780223 1_555
O1 Pb1 2.255045 1_555
O1 Pb0 2.432797 1_555
O2 Pb2 2.273214 1_655
O2 Pb3 2.295398 1_545
O3 Pb2 2.334082 1_555
O3 Pb0 2.661799 1_555
O4 Pb3 2.264369 1_555
O4 Pb1 2.462215 1_555
O5 Pb5 2.258997 1_556
O5 Pb0 2.401626 1_565
O6 Pb4 2.292248 1_556
O6 Pb1 2.304304 1_455
O7 Pb2 2.221907 1_555
O7 Pb0 2.496448 1_555
O8 Pb3 2.298529 1_555
O8 Pb1 2.302908 1_555
O9 Pb5 2.169871 1_545
O9 Pb0 2.319917 1_554
O10 Pb2 2.288968 1_555
O10 Pb4 2.300762 1_555
O11 Pb4 2.301464 1_655
O11 Pb1 2.337266 1_554
O12 Pb5 2.282641 1_555
O12 Pb3 2.295468 1_555
O13 Pb4 2.192615 1_555
O13 Pb2 2.310966 1_555
O14 Pb5 2.278290 1_555
O14 Pb3 2.340114 1_555
O15 Pb4 2.275618 1_555
O15 Pb5 2.294652 1_555
O16 Pb3 2.306006 1_455
O16 Pb2 2.308638 1_565
O17 Pb5 2.269100 1_555
O17 Pb4 2.327304 1_555
