# generated using pymatgen
data_TbSiNi
_symmetry_space_group_name_H-M   'P 1'
_cell_length_a   4.15448482
_cell_length_b   6.90065568
_cell_length_c   7.12211528
_cell_angle_alpha   90.00000000
_cell_angle_beta   90.00000000
_cell_angle_gamma   90.00000000
_symmetry_Int_Tables_number   1
_chemical_formula_structural   TbSiNi
_chemical_formula_sum   'Tb4 Si4 Ni4'
_cell_volume   204.18156747
_cell_formula_units_Z   4
loop_
 _symmetry_equiv_pos_site_id
 _symmetry_equiv_pos_as_xyz
  1  'x, y, z'
loop_
 _atom_site_type_symbol
 _atom_site_label
 _atom_site_symmetry_multiplicity
 _atom_site_fract_x
 _atom_site_fract_y
 _atom_site_fract_z
 _atom_site_occupancy
  Tb  Tb0  1  0.25000000  0.48956158  0.20103558  1
  Tb  Tb1  1  0.75000000  0.51043842  0.79896442  1
  Tb  Tb2  1  0.75000000  0.01043842  0.70103558  1
  Tb  Tb3  1  0.25000000  0.98956158  0.29896442  1
  Si  Si0  1  0.25000000  0.80957147  0.91120324  1
  Si  Si1  1  0.75000000  0.19042853  0.08879676  1
  Si  Si2  1  0.75000000  0.69042853  0.41120324  1
  Si  Si3  1  0.25000000  0.30957147  0.58879676  1
  Ni  Ni0  1  0.25000000  0.68393415  0.58092359  1
  Ni  Ni1  1  0.75000000  0.31606585  0.41907641  1
  Ni  Ni2  1  0.75000000  0.81606585  0.08092359  1
  Ni  Ni3  1  0.25000000  0.18393415  0.91907641  1
loop_
_geom_bond_atom_site_label_1
_geom_bond_atom_site_label_2
_geom_bond_distance
_geom_bond_site_symmetry_2
Si0 Tb2 2.911490 1_465
Si0 Tb2 2.911490 1_565
Si0 Tb0 3.022829 1_556
Si0 Tb3 3.028129 1_556
Si0 Tb1 3.035609 1_455
Si0 Tb1 3.035609 1_555
Si1 Tb3 2.911490 1_545
Si1 Tb3 2.911490 1_645
Si1 Tb1 3.022829 1_554
Si1 Tb2 3.028129 1_554
Si1 Tb0 3.035609 1_555
Si1 Tb0 3.035609 1_655
Si2 Tb0 2.911490 1_555
Si2 Tb0 2.911490 1_655
Si2 Tb2 3.022829 1_565
Si2 Tb1 3.028129 1_555
Si2 Tb3 3.035609 1_655
Si2 Tb3 3.035609 1_555
Si3 Tb1 2.911490 1_555
Si3 Tb1 2.911490 1_455
Si3 Tb3 3.022829 1_545
Si3 Tb0 3.028129 1_555
Si3 Tb2 3.035609 1_555
Si3 Tb2 3.035609 1_455
Ni0 Si2 2.403760 1_555
Ni0 Si2 2.403760 1_455
Ni0 Si0 2.506975 1_555
Ni0 Si3 2.583956 1_555
Ni0 Tb1 2.856544 1_555
Ni0 Tb1 2.856544 1_455
Ni0 Tb3 2.912156 1_555
Ni0 Tb0 3.019832 1_555
Ni0 Tb2 3.181692 1_465
Ni0 Tb2 3.181692 1_565
Ni1 Si3 2.403760 1_555
Ni1 Si3 2.403760 1_655
Ni1 Si1 2.506975 1_555
Ni1 Si2 2.583956 1_555
Ni1 Tb0 2.856544 1_655
Ni1 Tb0 2.856544 1_555
Ni1 Tb2 2.912156 1_555
Ni1 Tb1 3.019832 1_555
Ni1 Tb3 3.181692 1_545
Ni1 Tb3 3.181692 1_645
Ni2 Si0 2.403760 1_554
Ni2 Si0 2.403760 1_654
Ni2 Si2 2.506975 1_555
Ni2 Si1 2.583956 1_565
Ni2 Tb3 2.856544 1_655
Ni2 Tb3 2.856544 1_555
Ni2 Tb1 2.912156 1_554
Ni2 Tb2 3.019832 1_564
Ni2 Tb0 3.181692 1_655
Ni2 Tb0 3.181692 1_555
Ni3 Si1 2.403760 1_456
Ni3 Si1 2.403760 1_556
Ni3 Si3 2.506975 1_555
Ni3 Si0 2.583956 1_545
Ni3 Tb2 2.856544 1_455
Ni3 Tb2 2.856544 1_555
Ni3 Tb0 2.912156 1_556
Ni3 Tb3 3.019832 1_546
Ni3 Tb1 3.181692 1_455
Ni3 Tb1 3.181692 1_555
