# generated using pymatgen
data_Ba8ZrNb19O36
_symmetry_space_group_name_H-M   'P 1'
_cell_length_a   4.23082600
_cell_length_b   4.23082600
_cell_length_c   49.78427900
_cell_angle_alpha   90.00000000
_cell_angle_beta   90.00000000
_cell_angle_gamma   90.00000000
_symmetry_Int_Tables_number   1
_chemical_formula_structural   Ba8ZrNb19O36
_chemical_formula_sum   'Ba8 Zr1 Nb19 O36'
_cell_volume   891.13305024
_cell_formula_units_Z   1
loop_
 _symmetry_equiv_pos_site_id
 _symmetry_equiv_pos_as_xyz
  1  'x, y, z'
loop_
 _atom_site_type_symbol
 _atom_site_label
 _atom_site_symmetry_multiplicity
 _atom_site_fract_x
 _atom_site_fract_y
 _atom_site_fract_z
 _atom_site_occupancy
  Ba  Ba0  1  0.00000000  0.00000000  0.20796800  1
  Ba  Ba1  1  0.00000000  0.00000000  0.45798900  1
  Ba  Ba2  1  0.00000000  0.00000000  0.70801000  1
  Ba  Ba3  1  0.00000000  0.00000000  0.95813300  1
  Ba  Ba4  1  0.00000000  0.00000000  0.04186700  1
  Ba  Ba5  1  0.00000000  0.00000000  0.29199000  1
  Ba  Ba6  1  0.00000000  0.00000000  0.54201100  1
  Ba  Ba7  1  0.00000000  0.00000000  0.79203200  1
  Zr  Zr0  1  0.50000000  0.50000000  0.00000000  1
  Nb  Nb0  1  0.50000000  0.00000000  0.12518000  1
  Nb  Nb1  1  0.50000000  0.00000000  0.37499200  1
  Nb  Nb2  1  0.50000000  0.00000000  0.62500800  1
  Nb  Nb3  1  0.50000000  0.00000000  0.87482000  1
  Nb  Nb4  1  0.00000000  0.50000000  0.12518000  1
  Nb  Nb5  1  0.00000000  0.50000000  0.37499200  1
  Nb  Nb6  1  0.00000000  0.50000000  0.62500800  1
  Nb  Nb7  1  0.00000000  0.50000000  0.87482000  1
  Nb  Nb8  1  0.50000000  0.50000000  0.16578000  1
  Nb  Nb9  1  0.50000000  0.50000000  0.41569400  1
  Nb  Nb10  1  0.50000000  0.50000000  0.66571100  1
  Nb  Nb11  1  0.50000000  0.50000000  0.91548400  1
  Nb  Nb12  1  0.50000000  0.50000000  0.08451600  1
  Nb  Nb13  1  0.50000000  0.50000000  0.33428900  1
  Nb  Nb14  1  0.50000000  0.50000000  0.58430600  1
  Nb  Nb15  1  0.50000000  0.50000000  0.83422000  1
  Nb  Nb16  1  0.50000000  0.50000000  0.24999100  1
  Nb  Nb17  1  0.50000000  0.50000000  0.50000000  1
  Nb  Nb18  1  0.50000000  0.50000000  0.75000900  1
  O  O0  1  0.50000000  0.50000000  0.20969200  1
  O  O1  1  0.50000000  0.50000000  0.45966400  1
  O  O2  1  0.50000000  0.50000000  0.70963400  1
  O  O3  1  0.50000000  0.50000000  0.95771100  1
  O  O4  1  0.50000000  0.50000000  0.04228900  1
  O  O5  1  0.50000000  0.50000000  0.29036600  1
  O  O6  1  0.50000000  0.50000000  0.54033600  1
  O  O7  1  0.50000000  0.50000000  0.79030800  1
  O  O8  1  0.00000000  0.50000000  0.00000000  1
  O  O9  1  0.00000000  0.50000000  0.25002600  1
  O  O10  1  0.00000000  0.50000000  0.50000000  1
  O  O11  1  0.00000000  0.50000000  0.74997400  1
  O  O12  1  0.50000000  0.00000000  0.00000000  1
  O  O13  1  0.50000000  0.00000000  0.25002600  1
  O  O14  1  0.50000000  0.00000000  0.50000000  1
  O  O15  1  0.50000000  0.00000000  0.74997400  1
  O  O16  1  0.00000000  0.50000000  0.16807500  1
  O  O17  1  0.00000000  0.50000000  0.41788100  1
  O  O18  1  0.00000000  0.50000000  0.66788000  1
  O  O19  1  0.00000000  0.50000000  0.91750100  1
  O  O20  1  0.50000000  0.00000000  0.16807500  1
  O  O21  1  0.50000000  0.00000000  0.41788100  1
  O  O22  1  0.50000000  0.00000000  0.66788000  1
  O  O23  1  0.50000000  0.00000000  0.91750100  1
  O  O24  1  0.00000000  0.50000000  0.08249900  1
  O  O25  1  0.00000000  0.50000000  0.33212000  1
  O  O26  1  0.00000000  0.50000000  0.58211900  1
  O  O27  1  0.00000000  0.50000000  0.83192500  1
  O  O28  1  0.50000000  0.00000000  0.08249900  1
  O  O29  1  0.50000000  0.00000000  0.33212000  1
  O  O30  1  0.50000000  0.00000000  0.58211900  1
  O  O31  1  0.50000000  0.00000000  0.83192500  1
  O  O32  1  0.00000000  0.00000000  0.12524900  1
  O  O33  1  0.00000000  0.00000000  0.37500600  1
  O  O34  1  0.00000000  0.00000000  0.62499400  1
  O  O35  1  0.00000000  0.00000000  0.87475100  1
loop_
_geom_bond_atom_site_label_1
_geom_bond_atom_site_label_2
_geom_bond_distance
_geom_bond_site_symmetry_2
Ba0 O20 2.901611 1_555
Ba0 O16 2.901611 1_545
Ba0 O16 2.901611 1_555
Ba0 O20 2.901611 1_455
Ba0 O9 2.976421 1_555
Ba0 O13 2.976421 1_455
Ba0 O13 2.976421 1_555
Ba0 O9 2.976421 1_545
Ba0 O0 2.992877 1_455
Ba0 O0 2.992877 1_445
Ba0 O0 2.992877 1_555
Ba0 O0 2.992877 1_545
Ba1 O17 2.908947 1_555
Ba1 O21 2.908947 1_455
Ba1 O21 2.908947 1_555
Ba1 O17 2.908947 1_545
Ba1 O10 2.974776 1_555
Ba1 O14 2.974776 1_455
Ba1 O14 2.974776 1_555
Ba1 O10 2.974776 1_545
Ba1 O1 2.992808 1_445
Ba1 O1 2.992808 1_455
Ba1 O1 2.992808 1_545
Ba1 O1 2.992808 1_555
Ba2 O18 2.909699 1_555
Ba2 O22 2.909699 1_555
Ba2 O18 2.909699 1_545
Ba2 O22 2.909699 1_455
Ba2 O11 2.973131 1_555
Ba2 O15 2.973131 1_455
Ba2 O11 2.973131 1_545
Ba2 O15 2.973131 1_555
Ba2 O2 2.992738 1_545
Ba2 O2 2.992738 1_455
Ba2 O2 2.992738 1_555
Ba2 O2 2.992738 1_445
Ba3 O23 2.926915 1_455
Ba3 O19 2.926915 1_555
Ba3 O19 2.926915 1_545
Ba3 O23 2.926915 1_555
Ba3 O8 2.969740 1_556
Ba3 O12 2.969740 1_456
Ba3 O12 2.969740 1_556
Ba3 O8 2.969740 1_546
Ba3 O3 2.991720 1_455
Ba3 O3 2.991720 1_545
Ba3 O3 2.991720 1_555
Ba3 O3 2.991720 1_445
Ba4 O24 2.926915 1_545
Ba4 O24 2.926915 1_555
Ba4 O28 2.926915 1_455
Ba4 O28 2.926915 1_555
Ba4 O8 2.969740 1_555
Ba4 O12 2.969740 1_455
Ba4 O8 2.969740 1_545
Ba4 O12 2.969740 1_555
Ba4 O4 2.991720 1_445
Ba4 O4 2.991720 1_545
Ba4 O4 2.991720 1_455
Ba4 O4 2.991720 1_555
Ba5 O25 2.909699 1_555
Ba5 O29 2.909699 1_555
Ba5 O29 2.909699 1_455
Ba5 O25 2.909699 1_545
Ba5 O13 2.973131 1_555
Ba5 O9 2.973131 1_545
Ba5 O9 2.973131 1_555
Ba5 O13 2.973131 1_455
Ba5 O5 2.992738 1_545
Ba5 O5 2.992738 1_455
Ba5 O5 2.992738 1_555
Ba5 O5 2.992738 1_445
Ba6 O26 2.908947 1_555
Ba6 O30 2.908947 1_555
Ba6 O26 2.908947 1_545
Ba6 O30 2.908947 1_455
Ba6 O10 2.974776 1_555
Ba6 O14 2.974776 1_455
Ba6 O14 2.974776 1_555
Ba6 O10 2.974776 1_545
Ba6 O6 2.992808 1_555
Ba6 O6 2.992808 1_545
Ba6 O6 2.992808 1_455
Ba6 O6 2.992808 1_445
Ba7 O27 2.901611 1_545
Ba7 O27 2.901611 1_555
Ba7 O31 2.901611 1_455
Ba7 O31 2.901611 1_555
Ba7 O11 2.976421 1_555
Ba7 O15 2.976421 1_455
Ba7 O15 2.976421 1_555
Ba7 O11 2.976421 1_545
Ba7 O7 2.992877 1_455
Ba7 O7 2.992877 1_555
Ba7 O7 2.992877 1_545
Ba7 O7 2.992877 1_445
Nb0 O32 2.115416 1_655
Nb0 O32 2.115416 1_555
Nb0 O28 2.124843 1_555
Nb0 O20 2.135497 1_555
Nb1 O33 2.115413 1_655
Nb1 O33 2.115413 1_555
Nb1 O29 2.134352 1_555
Nb1 O21 2.135198 1_555
Nb2 O34 2.115413 1_555
Nb2 O34 2.115413 1_655
Nb2 O22 2.134352 1_555
Nb2 O30 2.135198 1_555
Nb3 O35 2.115416 1_555
Nb3 O35 2.115416 1_655
Nb3 O23 2.124843 1_555
Nb3 O31 2.135497 1_555
Nb4 O32 2.115416 1_555
Nb4 O32 2.115416 1_565
Nb4 O24 2.124843 1_555
Nb4 O16 2.135497 1_555
Nb5 O33 2.115413 1_565
Nb5 O33 2.115413 1_555
Nb5 O25 2.134352 1_555
Nb5 O17 2.135198 1_555
Nb6 O34 2.115413 1_555
Nb6 O34 2.115413 1_565
Nb6 O18 2.134352 1_555
Nb6 O26 2.135198 1_555
Nb7 O35 2.115416 1_555
Nb7 O35 2.115416 1_565
Nb7 O19 2.124843 1_555
Nb7 O27 2.135497 1_555
Nb8 O16 2.118496 1_655
Nb8 O20 2.118496 1_555
Nb8 O20 2.118496 1_565
Nb8 O16 2.118496 1_555
Nb8 O0 2.186127 1_555
Nb9 O17 2.118213 1_555
Nb9 O17 2.118213 1_655
Nb9 O21 2.118213 1_555
Nb9 O21 2.118213 1_565
Nb9 O1 2.189015 1_555
Nb10 O22 2.118167 1_565
Nb10 O18 2.118167 1_555
Nb10 O18 2.118167 1_655
Nb10 O22 2.118167 1_555
Nb10 O2 2.186675 1_555
Nb11 O3 2.102241 1_555
Nb11 O19 2.117795 1_555
Nb11 O23 2.117795 1_555
Nb11 O23 2.117795 1_565
Nb11 O19 2.117795 1_655
Nb12 O4 2.102241 1_555
Nb12 O28 2.117795 1_555
Nb12 O28 2.117795 1_565
Nb12 O24 2.117795 1_655
Nb12 O24 2.117795 1_555
Nb13 O25 2.118167 1_555
Nb13 O29 2.118167 1_555
Nb13 O25 2.118167 1_655
Nb13 O29 2.118167 1_565
Nb13 O5 2.186675 1_555
Nb14 O26 2.118213 1_555
Nb14 O30 2.118213 1_555
Nb14 O26 2.118213 1_655
Nb14 O30 2.118213 1_565
Nb14 O6 2.189015 1_555
Nb15 O27 2.118496 1_555
Nb15 O27 2.118496 1_655
Nb15 O31 2.118496 1_555
Nb15 O31 2.118496 1_565
Nb15 O7 2.186127 1_555
Nb16 O0 2.006257 1_555
Nb16 O5 2.010040 1_555
Nb16 O13 2.115414 1_565
Nb16 O9 2.115414 1_555
Nb16 O9 2.115414 1_655
Nb16 O13 2.115414 1_555
Nb17 O6 2.008099 1_555
Nb17 O1 2.008099 1_555
Nb17 O10 2.115413 1_555
Nb17 O14 2.115413 1_555
Nb17 O14 2.115413 1_565
Nb17 O10 2.115413 1_655
Nb18 O7 2.006257 1_555
Nb18 O2 2.010040 1_555
Nb18 O11 2.115414 1_655
Nb18 O11 2.115414 1_555
Nb18 O15 2.115414 1_555
Nb18 O15 2.115414 1_565
O3 Zr0 2.105327 1_556
O4 Zr0 2.105327 1_555
O8 Zr0 2.115413 1_455
O8 Zr0 2.115413 1_555
O12 Zr0 2.115413 1_545
O12 Zr0 2.115413 1_555
