# generated using pymatgen
data_Mn5SnO8
_symmetry_space_group_name_H-M   'P 1'
_cell_length_a   6.10761206
_cell_length_b   6.10751706
_cell_length_c   9.29331100
_cell_angle_alpha   89.99951571
_cell_angle_beta   89.99901578
_cell_angle_gamma   90.01643572
_symmetry_Int_Tables_number   1
_chemical_formula_structural   Mn5SnO8
_chemical_formula_sum   'Mn10 Sn2 O16'
_cell_volume   346.66227777
_cell_formula_units_Z   2
loop_
 _symmetry_equiv_pos_site_id
 _symmetry_equiv_pos_as_xyz
  1  'x, y, z'
loop_
 _atom_site_type_symbol
 _atom_site_label
 _atom_site_symmetry_multiplicity
 _atom_site_fract_x
 _atom_site_fract_y
 _atom_site_fract_z
 _atom_site_occupancy
  Mn  Mn0  1  0.00001900  0.50000300  0.75045100  1
  Mn  Mn1  1  0.99999000  0.24080700  0.37832000  1
  Mn  Mn2  1  0.50000700  0.74221400  0.87838000  1
  Mn  Mn3  1  0.00002100  0.75921200  0.37833600  1
  Mn  Mn4  1  0.50000800  0.25778500  0.87837800  1
  Mn  Mn5  1  0.50001000  0.99999000  0.24953100  1
  Mn  Mn6  1  0.74221200  0.49999300  0.12162700  1
  Mn  Mn7  1  0.24081800  0.99998600  0.62166500  1
  Mn  Mn8  1  0.25779700  0.50000000  0.12161900  1
  Mn  Mn9  1  0.75912000  0.00001600  0.62167600  1
  Sn  Sn0  1  0.00000800  0.99999400  0.00000100  1
  Sn  Sn1  1  0.49996700  0.50001000  0.50002700  1
  O  O0  1  0.77129200  0.50009400  0.37294600  1
  O  O1  1  0.26990700  0.00000100  0.87328700  1
  O  O2  1  0.22870700  0.49997600  0.37291100  1
  O  O3  1  0.73009900  0.99995900  0.87329300  1
  O  O4  1  0.00004100  0.26989500  0.12667900  1
  O  O5  1  0.49994700  0.77131200  0.62707400  1
  O  O6  1  0.99999400  0.73010300  0.12668200  1
  O  O7  1  0.49983100  0.22869600  0.62706300  1
  O  O8  1  0.77196200  0.00002300  0.38177100  1
  O  O9  1  0.27147700  0.50004200  0.88095000  1
  O  O10  1  0.22804100  0.99990200  0.38177000  1
  O  O11  1  0.72852900  0.50000400  0.88093100  1
  O  O12  1  0.50000400  0.27146700  0.11904900  1
  O  O13  1  0.00017900  0.77199800  0.61826500  1
  O  O14  1  0.49995800  0.72852100  0.11904900  1
  O  O15  1  0.00005700  0.22799800  0.61826800  1
loop_
_geom_bond_atom_site_label_1
_geom_bond_atom_site_label_2
_geom_bond_distance
_geom_bond_site_symmetry_2
Mn0 O9 2.054192 1_555
Mn0 O11 2.054212 1_455
Mn0 O13 2.066078 1_555
Mn0 O15 2.066127 1_555
Mn1 O8 2.025370 1_555
Mn1 O10 2.026584 1_645
Mn1 O2 2.111429 1_655
Mn1 O0 2.112486 1_555
Mn1 O15 2.231283 1_655
Mn1 O4 2.345315 1_655
Mn2 O9 2.033522 1_555
Mn2 O11 2.034238 1_555
Mn2 O3 2.110430 1_555
Mn2 O1 2.111258 1_565
Mn2 O14 2.238174 1_556
Mn2 O5 2.342215 1_555
Mn3 O10 2.024919 1_555
Mn3 O8 2.026198 1_465
Mn3 O0 2.111241 1_455
Mn3 O2 2.112215 1_555
Mn3 O13 2.231103 1_555
Mn3 O6 2.345448 1_455
Mn4 O11 2.033692 1_555
Mn4 O9 2.034487 1_555
Mn4 O1 2.110647 1_555
Mn4 O3 2.111396 1_545
Mn4 O12 2.238192 1_556
Mn4 O7 2.342298 1_555
Mn5 O14 2.054124 1_555
Mn5 O12 2.054147 1_565
Mn5 O8 2.066211 1_565
Mn5 O10 2.066255 1_555
Mn6 O12 2.033669 1_555
Mn6 O14 2.034464 1_555
Mn6 O6 2.110670 1_555
Mn6 O4 2.111436 1_655
Mn6 O11 2.238425 1_554
Mn6 O0 2.342332 1_555
Mn7 O13 2.024555 1_555
Mn7 O15 2.025776 1_565
Mn7 O7 2.110690 1_565
Mn7 O5 2.111678 1_555
Mn7 O10 2.230786 1_555
Mn7 O1 2.345144 1_565
Mn8 O14 2.033437 1_555
Mn8 O12 2.034275 1_555
Mn8 O4 2.110531 1_555
Mn8 O6 2.111340 1_455
Mn8 O9 2.238171 1_554
Mn8 O2 2.342080 1_555
Mn9 O15 2.025851 1_655
Mn9 O13 2.027124 1_645
Mn9 O5 2.111396 1_545
Mn9 O7 2.112429 1_555
Mn9 O8 2.230890 1_555
Mn9 O3 2.345060 1_545
O0 Sn1 2.034905 1_555
O1 Sn0 2.025835 1_546
O2 Sn1 2.034804 1_555
O3 Sn0 2.025885 1_656
O4 Sn0 2.025654 1_545
O5 Sn1 2.034611 1_555
O6 Sn0 2.025604 1_655
O7 Sn1 2.034595 1_555
