# generated using pymatgen
data_MoPb3
_symmetry_space_group_name_H-M   'P 1'
_cell_length_a   4.77614300
_cell_length_b   4.77614300
_cell_length_c   4.77614300
_cell_angle_alpha   90.00000000
_cell_angle_beta   90.00000000
_cell_angle_gamma   90.00000000
_symmetry_Int_Tables_number   1
_chemical_formula_structural   MoPb3
_chemical_formula_sum   'Mo1 Pb3'
_cell_volume   108.95118643
_cell_formula_units_Z   1
loop_
 _symmetry_equiv_pos_site_id
 _symmetry_equiv_pos_as_xyz
  1  'x, y, z'
loop_
 _atom_site_type_symbol
 _atom_site_label
 _atom_site_symmetry_multiplicity
 _atom_site_fract_x
 _atom_site_fract_y
 _atom_site_fract_z
 _atom_site_occupancy
  Mo  Mo0  1  0.00000000  0.00000000  0.00000000  1
  Pb  Pb0  1  0.00000000  0.50000000  0.50000000  1
  Pb  Pb1  1  0.50000000  0.00000000  0.50000000  1
  Pb  Pb2  1  0.50000000  0.50000000  0.00000000  1
loop_
_geom_bond_atom_site_label_1
_geom_bond_atom_site_label_2
_geom_bond_distance
_geom_bond_site_symmetry_2
Mo0 Pb0 3.377243 1_544
Mo0 Pb0 3.377243 1_545
Mo0 Pb1 3.377243 1_454
Mo0 Pb1 3.377243 1_555
Mo0 Pb2 3.377243 1_555
Mo0 Pb2 3.377243 1_445
Mo0 Pb1 3.377243 1_455
Mo0 Pb0 3.377243 1_554
Mo0 Pb2 3.377243 1_455
Mo0 Pb0 3.377243 1_555
Mo0 Pb2 3.377243 1_545
Mo0 Pb1 3.377243 1_554
Pb0 Pb2 3.377243 1_556
Pb0 Pb1 3.377243 1_555
Pb0 Pb1 3.377243 1_565
Pb0 Pb1 3.377243 1_465
Pb0 Pb2 3.377243 1_555
Pb0 Pb1 3.377243 1_455
Pb0 Pb2 3.377243 1_456
Pb0 Pb2 3.377243 1_455
Pb1 Pb2 3.377243 1_556
Pb1 Pb2 3.377243 1_546
Pb1 Pb2 3.377243 1_555
Pb1 Pb2 3.377243 1_545
