# generated using pymatgen
data_NaMg3P3(HO6)2
_symmetry_space_group_name_H-M   'P 1'
_cell_length_a   6.48459557
_cell_length_b   8.39733868
_cell_length_c   8.39733868
_cell_angle_alpha   91.32251988
_cell_angle_beta   106.30750004
_cell_angle_gamma   106.30750004
_symmetry_Int_Tables_number   1
_chemical_formula_structural   NaMg3P3(HO6)2
_chemical_formula_sum   'Na2 Mg6 P6 H4 O24'
_cell_volume   418.62416127
_cell_formula_units_Z   2
loop_
 _symmetry_equiv_pos_site_id
 _symmetry_equiv_pos_as_xyz
  1  'x, y, z'
loop_
 _atom_site_type_symbol
 _atom_site_label
 _atom_site_symmetry_multiplicity
 _atom_site_fract_x
 _atom_site_fract_y
 _atom_site_fract_z
 _atom_site_occupancy
  Na  Na0  1  0.75000000  0.03904806  0.96095194  1
  Na  Na1  1  0.25000000  0.96095194  0.03904806  1
  Mg  Mg0  1  0.25000000  0.27762564  0.72237436  1
  Mg  Mg1  1  0.75000000  0.72237436  0.27762564  1
  Mg  Mg2  1  0.12552407  0.37303011  0.04842431  1
  Mg  Mg3  1  0.37447593  0.95157569  0.62696989  1
  Mg  Mg4  1  0.87447593  0.62696989  0.95157569  1
  Mg  Mg5  1  0.62552407  0.04842431  0.37303011  1
  P  P0  1  0.25000000  0.68495591  0.31504409  1
  P  P1  1  0.75000000  0.31504409  0.68495591  1
  P  P2  1  0.11239204  0.10614664  0.32826604  1
  P  P3  1  0.38760796  0.67173396  0.89385336  1
  P  P4  1  0.88760796  0.89385336  0.67173396  1
  P  P5  1  0.61239204  0.32826604  0.10614664  1
  H  H0  1  0.19292132  0.37764527  0.38861821  1
  H  H1  1  0.30707868  0.61138179  0.62235473  1
  H  H2  1  0.80707868  0.62235473  0.61138179  1
  H  H3  1  0.69292132  0.38861821  0.37764527  1
  O  O0  1  0.03785516  0.72255627  0.20452730  1
  O  O1  1  0.46214484  0.79547270  0.27744373  1
  O  O2  1  0.96214484  0.27744373  0.79547270  1
  O  O3  1  0.53785516  0.20452730  0.72255627  1
  O  O4  1  0.23546283  0.50084693  0.28185659  1
  O  O5  1  0.26453717  0.71814341  0.49915307  1
  O  O6  1  0.76453717  0.49915307  0.71814341  1
  O  O7  1  0.73546283  0.28185659  0.50084693  1
  O  O8  1  0.88893671  0.98248765  0.32858833  1
  O  O9  1  0.61106329  0.67141167  0.01751235  1
  O  O10  1  0.11106329  0.01751235  0.67141167  1
  O  O11  1  0.38893671  0.32858833  0.98248765  1
  O  O12  1  0.15898283  0.26857521  0.45075716  1
  O  O13  1  0.34101717  0.54924284  0.73142479  1
  O  O14  1  0.84101717  0.73142479  0.54924284  1
  O  O15  1  0.65898283  0.45075716  0.26857521  1
  O  O16  1  0.30826427  0.03614886  0.39342449  1
  O  O17  1  0.19173573  0.60657551  0.96385114  1
  O  O18  1  0.69173573  0.96385114  0.60657551  1
  O  O19  1  0.80826427  0.39342449  0.03614886  1
  O  O20  1  0.09654326  0.15624699  0.15345740  1
  O  O21  1  0.40345674  0.84654260  0.84375301  1
  O  O22  1  0.90345674  0.84375301  0.84654260  1
  O  O23  1  0.59654326  0.15345740  0.15624699  1
loop_
_geom_bond_atom_site_label_1
_geom_bond_atom_site_label_2
_geom_bond_distance
_geom_bond_site_symmetry_2
Na0 O21 2.296985 1_545
Na0 O20 2.296985 1_656
Na0 O22 2.446086 1_545
Na0 O23 2.446086 1_556
Na0 O2 2.736120 1_555
Na0 O3 2.736120 1_555
Na1 O22 2.296985 1_454
Na1 O23 2.296985 1_565
Na1 O21 2.446086 1_554
Na1 O20 2.446086 1_565
Na1 O1 2.736120 1_555
Na1 O0 2.736120 1_555
Mg0 O10 2.097861 1_555
Mg0 O11 2.097861 1_555
Mg0 O3 2.122022 1_555
Mg0 O2 2.122022 1_455
Mg0 O12 2.183406 1_555
Mg0 O13 2.183406 1_555
Mg1 O9 2.097861 1_555
Mg1 O8 2.097861 1_555
Mg1 O0 2.122022 1_655
Mg1 O1 2.122022 1_555
Mg1 O14 2.183406 1_555
Mg1 O15 2.183406 1_555
Mg2 O20 2.025383 1_555
Mg2 O4 2.047208 1_555
Mg2 O11 2.059883 1_554
Mg2 O17 2.073047 1_554
Mg2 O19 2.086152 1_455
Mg2 O2 2.111526 1_454
Mg3 O21 2.025383 1_555
Mg3 O5 2.047208 1_555
Mg3 O10 2.059883 1_565
Mg3 O16 2.073047 1_565
Mg3 O18 2.086152 1_555
Mg3 O3 2.111526 1_565
Mg4 O22 2.025383 1_555
Mg4 O6 2.047208 1_555
Mg4 O9 2.059883 1_556
Mg4 O19 2.073047 1_556
Mg4 O17 2.086152 1_655
Mg4 O0 2.111526 1_656
Mg5 O23 2.025383 1_555
Mg5 O7 2.047208 1_555
Mg5 O8 2.059883 1_545
Mg5 O18 2.073047 1_545
Mg5 O16 2.086152 1_555
Mg5 O1 2.111526 1_545
H0 O12 1.064394 1_555
H0 O4 1.404134 1_555
H1 O13 1.064394 1_555
H1 O5 1.404134 1_555
H2 O14 1.064394 1_555
H2 O6 1.404134 1_555
H3 O15 1.064394 1_555
H3 O7 1.404134 1_555
O0 P0 1.547233 1_555
O1 P0 1.547233 1_555
O2 P1 1.547233 1_555
O3 P1 1.547233 1_555
O4 P0 1.536314 1_555
O5 P0 1.536314 1_555
O6 P1 1.536314 1_555
O7 P1 1.536314 1_555
O8 P2 1.528162 1_665
O9 P3 1.528162 1_554
O10 P4 1.528162 1_445
O11 P5 1.528162 1_556
O12 P2 1.593424 1_555
O13 P3 1.593424 1_555
O14 P4 1.593424 1_555
O15 P5 1.593424 1_555
O16 P2 1.517236 1_555
O17 P3 1.517236 1_555
O18 P4 1.517236 1_555
O19 P5 1.517236 1_555
O20 P2 1.520012 1_555
O21 P3 1.520012 1_555
O22 P4 1.520012 1_555
O23 P5 1.520012 1_555
