# generated using pymatgen
data_Ba10Pr5Sn2(SbO10)3
_symmetry_space_group_name_H-M   'P 1'
_cell_length_a   30.87067582
_cell_length_b   16.33833601
_cell_length_c   10.67471698
_cell_angle_alpha   29.30429341
_cell_angle_beta   30.10023770
_cell_angle_gamma   19.14674812
_symmetry_Int_Tables_number   1
_chemical_formula_structural   Ba10Pr5Sn2(SbO10)3
_chemical_formula_sum   'Ba10 Pr5 Sn2 Sb3 O30'
_cell_volume   835.14882549
_cell_formula_units_Z   1
loop_
 _symmetry_equiv_pos_site_id
 _symmetry_equiv_pos_as_xyz
  1  'x, y, z'
loop_
 _atom_site_type_symbol
 _atom_site_label
 _atom_site_symmetry_multiplicity
 _atom_site_fract_x
 _atom_site_fract_y
 _atom_site_fract_z
 _atom_site_occupancy
  Ba  Ba0  1  0.10046000  0.24950900  0.24958900  1
  Ba  Ba1  1  0.29981100  0.25037500  0.24934600  1
  Ba  Ba2  1  0.10018900  0.74962500  0.75065400  1
  Ba  Ba3  1  0.49980600  0.24904600  0.25161900  1
  Ba  Ba4  1  0.29954000  0.75049100  0.75041100  1
  Ba  Ba5  1  0.70006800  0.25154200  0.24804000  1
  Ba  Ba6  1  0.49972100  0.75099000  0.75058600  1
  Ba  Ba7  1  0.90027900  0.24901000  0.24941400  1
  Ba  Ba8  1  0.69993200  0.74845800  0.75196000  1
  Ba  Ba9  1  0.90019400  0.75095400  0.74838100  1
  Pr  Pr0  1  0.99845600  0.50216800  0.50117300  1
  Pr  Pr1  1  0.20000000  0.50000000  0.50000000  1
  Pr  Pr2  1  0.40154400  0.49783200  0.49882700  1
  Pr  Pr3  1  0.59911700  0.50079100  0.50175000  1
  Pr  Pr4  1  0.80088300  0.49920900  0.49825000  1
  Sn  Sn0  1  0.99939700  0.00076800  0.00072100  1
  Sn  Sn1  1  0.40060300  0.99923200  0.99927900  1
  Sb  Sb0  1  0.20000000  0.00000000  0.00000000  1
  Sb  Sb1  1  0.59984900  0.00027300  0.00010200  1
  Sb  Sb2  1  0.80015100  0.99972700  0.99989800  1
  O  O0  1  0.02376800  0.19462400  0.26338600  1
  O  O1  1  0.21789000  0.20085700  0.27292300  1
  O  O2  1  0.09439400  0.22870700  0.80593100  1
  O  O3  1  0.02255800  0.72653100  0.23531700  1
  O  O4  1  0.17886800  0.26496600  0.77066800  1
  O  O5  1  0.10884900  0.76388200  0.20077100  1
  O  O6  1  0.42320300  0.19500300  0.26491700  1
  O  O7  1  0.29115100  0.23611800  0.79922900  1
  O  O8  1  0.22113200  0.73503400  0.22933200  1
  O  O9  1  0.37744200  0.27346900  0.76468300  1
  O  O10  1  0.30560600  0.77129300  0.19406900  1
  O  O11  1  0.18211000  0.79914300  0.72707700  1
  O  O12  1  0.62391100  0.19451800  0.26317900  1
  O  O13  1  0.49464300  0.22828400  0.80574800  1
  O  O14  1  0.42137300  0.72822100  0.23606900  1
  O  O15  1  0.57871000  0.26497500  0.77157000  1
  O  O16  1  0.50950200  0.76282700  0.20110600  1
  O  O17  1  0.37623200  0.80537600  0.73661400  1
  O  O18  1  0.81731300  0.20119100  0.27399100  1
  O  O19  1  0.69492500  0.22807900  0.80533000  1
  O  O20  1  0.62107700  0.73496200  0.22992000  1
  O  O21  1  0.77892300  0.26503800  0.77008000  1
  O  O22  1  0.70507500  0.77192100  0.19467000  1
  O  O23  1  0.58268700  0.79880900  0.72600900  1
  O  O24  1  0.89049800  0.23717300  0.79889400  1
  O  O25  1  0.82129000  0.73502500  0.22843000  1
  O  O26  1  0.97862700  0.27177900  0.76393100  1
  O  O27  1  0.90535700  0.77171600  0.19425200  1
  O  O28  1  0.77608900  0.80548200  0.73682100  1
  O  O29  1  0.97679700  0.80499700  0.73508300  1
loop_
_geom_bond_atom_site_label_1
_geom_bond_atom_site_label_2
_geom_bond_distance
_geom_bond_site_symmetry_2
Ba0 O7 2.871659 1_554
Ba0 O11 2.872834 1_545
Ba0 O25 2.885822 1_455
Ba0 O4 3.090369 1_554
Ba0 O26 3.096951 1_455
Ba0 O10 3.098158 1_545
Ba0 O1 3.099719 1_555
Ba0 O0 3.099766 1_555
Ba0 O27 3.113792 1_455
Ba0 O14 3.310193 1_545
Ba0 O29 3.315198 1_454
Ba0 O24 3.328658 1_455
Ba1 O3 2.860524 1_555
Ba1 O13 2.885740 1_554
Ba1 O17 2.889823 1_545
Ba1 O9 3.082624 1_554
Ba1 O1 3.085900 1_555
Ba1 O16 3.095749 1_545
Ba1 O4 3.105887 1_555
Ba1 O5 3.109077 1_555
Ba1 O6 3.111003 1_555
Ba1 O11 3.315560 1_554
Ba1 O20 3.318159 1_545
Ba1 O2 3.319616 1_555
Ba2 O9 2.860524 1_555
Ba2 O27 2.885740 1_456
Ba2 O0 2.889823 1_565
Ba2 O3 3.082624 1_556
Ba2 O11 3.085900 1_555
Ba2 O24 3.095749 1_465
Ba2 O8 3.105887 1_555
Ba2 O7 3.109077 1_555
Ba2 O29 3.111003 1_455
Ba2 O1 3.315560 1_556
Ba2 O21 3.318159 1_465
Ba2 O10 3.319616 1_555
Ba3 O23 2.862305 1_545
Ba3 O8 2.880951 1_555
Ba3 O19 2.896649 1_554
Ba3 O15 3.087771 1_554
Ba3 O6 3.088306 1_555
Ba3 O22 3.092241 1_545
Ba3 O9 3.096830 1_555
Ba3 O12 3.108788 1_555
Ba3 O10 3.115542 1_555
Ba3 O7 3.312371 1_555
Ba3 O25 3.314630 1_545
Ba3 O17 3.319457 1_554
Ba4 O5 2.871659 1_556
Ba4 O1 2.872834 1_565
Ba4 O15 2.885822 1_555
Ba4 O8 3.090369 1_556
Ba4 O14 3.096951 1_555
Ba4 O2 3.098158 1_565
Ba4 O11 3.099719 1_555
Ba4 O17 3.099766 1_555
Ba4 O13 3.113792 1_555
Ba4 O26 3.310193 1_465
Ba4 O6 3.315198 1_556
Ba4 O16 3.328658 1_555
Ba5 O24 2.861435 1_554
Ba5 O14 2.874192 1_555
Ba5 O28 2.897979 1_545
Ba5 O18 3.092827 1_555
Ba5 O21 3.093125 1_554
Ba5 O16 3.097213 1_555
Ba5 O27 3.104379 1_545
Ba5 O12 3.104815 1_555
Ba5 O15 3.110302 1_555
Ba5 O23 3.309964 1_554
Ba5 O3 3.325160 1_645
Ba5 O13 3.329393 1_555
Ba6 O21 2.880653 1_555
Ba6 O6 2.881666 1_565
Ba6 O10 2.885797 1_556
Ba6 O14 3.081362 1_556
Ba6 O23 3.082142 1_555
Ba6 O7 3.085711 1_565
Ba6 O20 3.106627 1_555
Ba6 O17 3.114032 1_555
Ba6 O19 3.124208 1_555
Ba6 O12 3.313115 1_556
Ba6 O22 3.314187 1_555
Ba6 O4 3.314571 1_565
Ba7 O20 2.880653 1_555
Ba7 O29 2.881666 1_545
Ba7 O2 2.885797 1_654
Ba7 O26 3.081362 1_554
Ba7 O18 3.082142 1_555
Ba7 O5 3.085711 1_645
Ba7 O21 3.106627 1_555
Ba7 O0 3.114032 1_655
Ba7 O22 3.124208 1_555
Ba7 O28 3.313115 1_554
Ba7 O19 3.314187 1_555
Ba7 O8 3.314571 1_645
Ba8 O16 2.861435 1_556
Ba8 O26 2.874192 1_555
Ba8 O12 2.897979 1_565
Ba8 O23 3.092827 1_555
Ba8 O20 3.093125 1_556
Ba8 O24 3.097213 1_555
Ba8 O13 3.104379 1_565
Ba8 O28 3.104815 1_555
Ba8 O25 3.110302 1_555
Ba8 O18 3.309964 1_556
Ba8 O9 3.325160 1_565
Ba8 O27 3.329393 1_555
Ba9 O18 2.862305 1_565
Ba9 O4 2.880951 1_655
Ba9 O22 2.896649 1_556
Ba9 O25 3.087771 1_556
Ba9 O29 3.088306 1_555
Ba9 O19 3.092241 1_565
Ba9 O3 3.096830 1_655
Ba9 O28 3.108788 1_555
Ba9 O2 3.115542 1_655
Ba9 O5 3.312371 1_655
Ba9 O15 3.314630 1_565
Ba9 O0 3.319457 1_656
O0 Sb0 2.013654 1_555
O0 Pr4 2.368777 1_455
O1 Sn1 2.089746 1_544
O1 Pr0 2.326746 1_455
O2 Sb0 2.012891 1_556
O2 Pr0 2.374318 1_455
O3 Sn0 2.081874 1_465
O3 Pr0 2.323979 1_455
O4 Sb0 2.025780 1_556
O4 Pr1 2.375039 1_555
O5 Sn0 2.078190 1_465
O5 Pr1 2.306824 1_555
O6 Sb1 2.020756 1_555
O6 Pr1 2.371586 1_555
O7 Sn1 2.078190 1_545
O7 Pr1 2.306824 1_555
O8 Sb0 2.025780 1_565
O8 Pr1 2.375039 1_555
O9 Sn1 2.081874 1_545
O9 Pr2 2.323979 1_555
O10 Sb0 2.012891 1_565
O10 Pr2 2.374318 1_555
O11 Sn0 2.089746 1_466
O11 Pr2 2.326746 1_555
O12 Sb2 2.013833 1_544
O12 Pr2 2.366065 1_555
O13 Sb1 2.012520 1_556
O13 Pr2 2.367142 1_555
O14 Sn1 2.080047 1_554
O14 Pr2 2.319423 1_555
O15 Sb1 2.025500 1_556
O15 Pr3 2.372594 1_555
O16 Sn1 2.085163 1_554
O16 Pr3 2.302990 1_555
O17 Sb0 2.013654 1_566
O17 Pr3 2.368777 1_555
O18 Sn0 2.083171 1_555
O18 Pr3 2.316757 1_555
O19 Sb2 2.011658 1_545
O19 Pr3 2.367539 1_555
O20 Sb1 2.026290 1_565
O20 Pr3 2.377371 1_555
O21 Sb2 2.026290 1_545
O21 Pr4 2.377371 1_555
O22 Sb1 2.011658 1_565
O22 Pr4 2.367539 1_555
O23 Sn1 2.083171 1_555
O23 Pr4 2.316757 1_555
O24 Sn0 2.085163 1_556
O24 Pr4 2.302990 1_555
O25 Sb2 2.025500 1_554
O25 Pr4 2.372594 1_555
O26 Sn0 2.080047 1_556
O26 Pr0 2.319423 1_555
O27 Sb2 2.012520 1_554
O27 Pr0 2.367142 1_555
O28 Sb1 2.013833 1_566
O28 Pr0 2.366065 1_555
O29 Sb2 2.020756 1_555
O29 Pr1 2.371586 1_655
