# generated using pymatgen
data_UH13C3N6ClO10
_symmetry_space_group_name_H-M   'P 1'
_cell_length_a   7.36881500
_cell_length_b   10.53099532
_cell_length_c   11.33633214
_cell_angle_alpha   102.32032883
_cell_angle_beta   103.62123716
_cell_angle_gamma   109.29574273
_symmetry_Int_Tables_number   1
_chemical_formula_structural   UH13C3N6ClO10
_chemical_formula_sum   'U2 H26 C6 N12 Cl2 O20'
_cell_volume   765.19887408
_cell_formula_units_Z   2
loop_
 _symmetry_equiv_pos_site_id
 _symmetry_equiv_pos_as_xyz
  1  'x, y, z'
loop_
 _atom_site_type_symbol
 _atom_site_label
 _atom_site_symmetry_multiplicity
 _atom_site_fract_x
 _atom_site_fract_y
 _atom_site_fract_z
 _atom_site_occupancy
  U  U0  1  0.44589100  0.41689000  0.13358300  1
  U  U1  1  0.55410900  0.58311000  0.86641700  1
  H  H0  1  0.27401000  0.31294500  0.85539900  1
  H  H1  1  0.72599000  0.68705500  0.14460100  1
  H  H2  1  0.82420100  0.04066400  0.06595600  1
  H  H3  1  0.17579900  0.95933600  0.93404400  1
  H  H4  1  0.64316200  0.09010700  0.98232900  1
  H  H5  1  0.35683800  0.90989300  0.01767100  1
  H  H6  1  0.99818000  0.36310100  0.92048600  1
  H  H7  1  0.00182000  0.63689900  0.07951400  1
  H  H8  1  0.73905500  0.27439200  0.89836200  1
  H  H9  1  0.26094500  0.72560800  0.10163800  1
  H  H10  1  0.05336500  0.75431300  0.39260000  1
  H  H11  1  0.94663500  0.24568700  0.60740000  1
  H  H12  1  0.23368100  0.67885000  0.39990300  1
  H  H13  1  0.76631900  0.32115000  0.60009700  1
  H  H14  1  0.86159000  0.32651100  0.29705400  1
  H  H15  1  0.13841000  0.67348900  0.70294600  1
  H  H16  1  0.11982900  0.42963800  0.33748900  1
  H  H17  1  0.88017100  0.57036200  0.66251100  1
  H  H18  1  0.35063500  0.10832300  0.19973700  1
  H  H19  1  0.64936500  0.89167700  0.80026300  1
  H  H20  1  0.39873200  0.05869200  0.33736500  1
  H  H21  1  0.60126800  0.94130800  0.66263500  1
  H  H22  1  0.39275700  0.36211200  0.53634500  1
  H  H23  1  0.60724300  0.63788800  0.46365500  1
  H  H24  1  0.38408800  0.19460600  0.52499700  1
  H  H25  1  0.61591200  0.80539400  0.47500300  1
  C  C0  1  0.93676700  0.20332000  0.99793600  1
  C  C1  1  0.06323300  0.79668000  0.00206400  1
  C  C2  1  0.93242300  0.53930000  0.33822100  1
  C  C3  1  0.06757700  0.46070000  0.66177900  1
  C  C4  1  0.38411700  0.25411300  0.36403000  1
  C  C5  1  0.61588300  0.74588700  0.63597000  1
  N  N0  1  0.78577200  0.09149900  0.00383200  1
  N  N1  1  0.21422800  0.90850100  0.99616800  1
  N  N2  1  0.88662300  0.28976700  0.93796400  1
  N  N3  1  0.11337700  0.71023300  0.06203600  1
  N  N4  1  0.08564200  0.66713300  0.37290700  1
  N  N5  1  0.91435800  0.33286700  0.62709300  1
  N  N6  1  0.97622700  0.42399700  0.32730200  1
  N  N7  1  0.02377300  0.57600300  0.67269800  1
  N  N8  1  0.37449700  0.13013600  0.29505200  1
  N  N9  1  0.62550300  0.86986400  0.70494800  1
  N  N10  1  0.42178900  0.27981400  0.49201300  1
  N  N11  1  0.57821100  0.72018600  0.50798700  1
  Cl  Cl0  1  0.24661400  0.03055900  0.68680200  1
  Cl  Cl1  1  0.75338600  0.96944100  0.31319800  1
  O  O0  1  0.12222200  0.22126300  0.04594400  1
  O  O1  1  0.87777800  0.77873700  0.95405600  1
  O  O2  1  0.74847000  0.52912200  0.31718200  1
  O  O3  1  0.25153000  0.47087800  0.68281800  1
  O  O4  1  0.36544700  0.34884600  0.31405800  1
  O  O5  1  0.63455300  0.65115400  0.68594200  1
  O  O6  1  0.31502200  0.40615700  0.91799100  1
  O  O7  1  0.68497800  0.59384300  0.08200900  1
  O  O8  1  0.54174000  0.28160600  0.08883500  1
  O  O9  1  0.45826000  0.71839400  0.91116500  1
  O  O10  1  0.34315800  0.54666300  0.18278800  1
  O  O11  1  0.65684200  0.45333700  0.81721200  1
  O  O12  1  0.09927500  0.88945200  0.66738900  1
  O  O13  1  0.90072500  0.11054800  0.33261100  1
  O  O14  1  0.40423400  0.08221800  0.81256200  1
  O  O15  1  0.59576600  0.91778200  0.18743800  1
  O  O16  1  0.34383700  0.02492700  0.58698600  1
  O  O17  1  0.65616300  0.97507300  0.41301400  1
  O  O18  1  0.14595000  0.12885400  0.68077800  1
  O  O19  1  0.85405000  0.87114600  0.31922200  1
loop_
_geom_bond_atom_site_label_1
_geom_bond_atom_site_label_2
_geom_bond_distance
_geom_bond_site_symmetry_2
H0 O6 0.981877 1_555
H1 O7 0.981877 1_555
H2 N0 1.014846 1_555
H3 N1 1.014846 1_555
H4 N0 1.015675 1_556
H5 N1 1.015675 1_554
H6 N2 1.016800 1_555
H7 N3 1.016800 1_555
H8 N2 1.016312 1_555
H9 N3 1.016312 1_555
H10 N4 1.015458 1_555
H11 N5 1.015458 1_555
H12 N4 1.018120 1_555
H13 N5 1.018120 1_555
H14 N6 1.012580 1_555
H15 N7 1.012580 1_555
H16 N6 1.017140 1_455
H17 N7 1.017140 1_655
H18 N8 1.014450 1_555
H19 N9 1.014450 1_555
H20 N8 1.015143 1_555
H21 N9 1.015143 1_555
H22 N10 1.018218 1_555
H23 N11 1.018218 1_555
H24 N10 1.024475 1_555
H25 N11 1.024475 1_555
C0 O0 1.278513 1_656
C0 N2 1.340017 1_555
C0 N0 1.353465 1_556
C1 O1 1.278513 1_454
C1 N3 1.340017 1_555
C1 N1 1.353465 1_554
C2 O2 1.283196 1_555
C2 N4 1.342432 1_655
C2 N6 1.344483 1_555
C3 O3 1.283196 1_555
C3 N5 1.342432 1_455
C3 N7 1.344483 1_555
C4 O4 1.276833 1_555
C4 N8 1.340940 1_555
C4 N10 1.359548 1_555
C5 O5 1.276833 1_555
C5 N9 1.340940 1_555
C5 N11 1.359548 1_555
Cl0 O12 1.455004 1_545
Cl0 O18 1.462937 1_555
Cl0 O14 1.465940 1_555
Cl0 O16 1.475954 1_555
Cl1 O13 1.455004 1_565
Cl1 O19 1.462937 1_555
Cl1 O15 1.465940 1_555
Cl1 O17 1.475954 1_555
O0 U0 2.383882 1_555
O1 U1 2.383882 1_555
O2 U0 2.392289 1_555
O3 U1 2.392289 1_555
O4 U0 2.442705 1_555
O5 U1 2.442705 1_555
O6 U0 2.369801 1_556
O6 U1 2.387192 1_555
O7 U1 2.369801 1_554
O7 U0 2.387192 1_555
O8 U0 1.819678 1_555
O9 U1 1.819678 1_555
O10 U0 1.819130 1_555
O11 U1 1.819130 1_555
