# generated using pymatgen
data_Sr2Ti2O5
_symmetry_space_group_name_H-M   'P 1'
_cell_length_a   5.62891000
_cell_length_b   5.65345700
_cell_length_c   15.80429200
_cell_angle_alpha   90.00000000
_cell_angle_beta   90.00000000
_cell_angle_gamma   90.00000000
_symmetry_Int_Tables_number   1
_chemical_formula_structural   Sr2Ti2O5
_chemical_formula_sum   'Sr8 Ti8 O20'
_cell_volume   502.93683360
_cell_formula_units_Z   4
loop_
 _symmetry_equiv_pos_site_id
 _symmetry_equiv_pos_as_xyz
  1  'x, y, z'
loop_
 _atom_site_type_symbol
 _atom_site_label
 _atom_site_symmetry_multiplicity
 _atom_site_fract_x
 _atom_site_fract_y
 _atom_site_fract_z
 _atom_site_occupancy
  Sr  Sr0  1  0.00448400  0.49888300  0.11515200  1
  Sr  Sr1  1  0.49551600  0.99888300  0.38484800  1
  Sr  Sr2  1  0.99551600  0.50111700  0.61515200  1
  Sr  Sr3  1  0.50448400  0.00111700  0.88484800  1
  Sr  Sr4  1  0.99551600  0.50111700  0.88484800  1
  Sr  Sr5  1  0.50448400  0.00111700  0.61515200  1
  Sr  Sr6  1  0.00448400  0.49888300  0.38484800  1
  Sr  Sr7  1  0.49551600  0.99888300  0.11515200  1
  Ti  Ti0  1  0.50000000  0.50000000  0.00000000  1
  Ti  Ti1  1  0.00000000  0.00000000  0.50000000  1
  Ti  Ti2  1  0.50000000  0.50000000  0.50000000  1
  Ti  Ti3  1  0.00000000  0.00000000  0.00000000  1
  Ti  Ti4  1  0.52712300  0.47946200  0.25000000  1
  Ti  Ti5  1  0.97287700  0.97946200  0.25000000  1
  Ti  Ti6  1  0.47287700  0.52053800  0.75000000  1
  Ti  Ti7  1  0.02712300  0.02053800  0.75000000  1
  O  O0  1  0.24482200  0.74449800  0.99502500  1
  O  O1  1  0.25517800  0.24449800  0.50497500  1
  O  O2  1  0.75517800  0.25550200  0.49502500  1
  O  O3  1  0.74482200  0.75550200  0.00497500  1
  O  O4  1  0.75517800  0.25550200  0.00497500  1
  O  O5  1  0.74482200  0.75550200  0.49502500  1
  O  O6  1  0.24482200  0.74449800  0.50497500  1
  O  O7  1  0.25517800  0.24449800  0.99502500  1
  O  O8  1  0.47351100  0.49497300  0.12921800  1
  O  O9  1  0.02648900  0.99497300  0.37078200  1
  O  O10  1  0.52648900  0.50502700  0.62921800  1
  O  O11  1  0.97351100  0.00502700  0.87078200  1
  O  O12  1  0.52648900  0.50502700  0.87078200  1
  O  O13  1  0.97351100  0.00502700  0.62921800  1
  O  O14  1  0.47351100  0.49497300  0.37078200  1
  O  O15  1  0.02648900  0.99497300  0.12921800  1
  O  O16  1  0.79425600  0.69164600  0.25000000  1
  O  O17  1  0.70574400  0.19164600  0.25000000  1
  O  O18  1  0.20574400  0.30835400  0.75000000  1
  O  O19  1  0.29425600  0.80835400  0.75000000  1
loop_
_geom_bond_atom_site_label_1
_geom_bond_atom_site_label_2
_geom_bond_distance
_geom_bond_site_symmetry_2
O0 Ti0 1.994992 1_556
O0 Ti3 1.997944 1_566
O0 Sr4 2.625748 1_455
O0 Sr3 2.696871 1_565
O0 Sr0 2.713430 1_556
O0 Sr7 2.768388 1_556
O1 Ti1 1.994992 1_555
O1 Ti2 1.997944 1_555
O1 Sr5 2.625748 1_555
O1 Sr2 2.696871 1_455
O1 Sr1 2.713430 1_545
O1 Sr6 2.768388 1_555
O2 Ti2 1.994992 1_555
O2 Ti1 1.997944 1_655
O2 Sr6 2.625748 1_655
O2 Sr1 2.696871 1_545
O2 Sr2 2.713430 1_555
O2 Sr5 2.768388 1_555
O3 Ti3 1.994992 1_665
O3 Ti0 1.997944 1_555
O3 Sr7 2.625748 1_555
O3 Sr0 2.696871 1_655
O3 Sr3 2.713430 1_564
O3 Sr4 2.768388 1_554
O4 Ti0 1.994992 1_555
O4 Ti3 1.997944 1_655
O4 Sr0 2.625748 1_655
O4 Sr7 2.696871 1_545
O4 Sr4 2.713430 1_554
O4 Sr3 2.768388 1_554
O5 Ti1 1.994992 1_665
O5 Ti2 1.997944 1_555
O5 Sr1 2.625748 1_555
O5 Sr6 2.696871 1_655
O5 Sr5 2.713430 1_565
O5 Sr2 2.768388 1_555
O6 Ti2 1.994992 1_555
O6 Ti1 1.997944 1_565
O6 Sr2 2.625748 1_455
O6 Sr5 2.696871 1_565
O6 Sr6 2.713430 1_555
O6 Sr1 2.768388 1_555
O7 Ti3 1.994992 1_556
O7 Ti0 1.997944 1_556
O7 Sr3 2.625748 1_555
O7 Sr4 2.696871 1_455
O7 Sr7 2.713430 1_546
O7 Sr0 2.768388 1_556
O8 Ti4 1.934569 1_555
O8 Ti0 2.047832 1_555
O8 Sr0 2.649546 1_555
O8 Sr7 2.816145 1_545
O8 Sr7 2.860177 1_555
O8 Sr0 2.997137 1_655
O9 Ti5 1.934569 1_455
O9 Ti1 2.047832 1_565
O9 Sr1 2.649546 1_555
O9 Sr6 2.816145 1_555
O9 Sr6 2.860177 1_565
O9 Sr1 2.997137 1_455
O10 Ti6 1.934569 1_555
O10 Ti2 2.047832 1_555
O10 Sr2 2.649546 1_555
O10 Sr5 2.816145 1_565
O10 Sr5 2.860177 1_555
O10 Sr2 2.997137 1_455
O11 Ti7 1.934569 1_655
O11 Ti3 2.047832 1_656
O11 Sr3 2.649546 1_555
O11 Sr4 2.816145 1_555
O11 Sr4 2.860177 1_545
O11 Sr3 2.997137 1_655
O12 Ti6 1.934569 1_555
O12 Ti0 2.047832 1_556
O12 Sr4 2.649546 1_555
O12 Sr3 2.816145 1_565
O12 Sr3 2.860177 1_555
O12 Sr4 2.997137 1_455
O13 Ti7 1.934569 1_655
O13 Ti1 2.047832 1_655
O13 Sr5 2.649546 1_555
O13 Sr2 2.816145 1_555
O13 Sr2 2.860177 1_545
O13 Sr5 2.997137 1_655
O14 Ti4 1.934569 1_555
O14 Ti2 2.047832 1_555
O14 Sr6 2.649546 1_555
O14 Sr1 2.816145 1_545
O14 Sr1 2.860177 1_555
O14 Sr6 2.997137 1_655
O15 Ti5 1.934569 1_455
O15 Ti3 2.047832 1_565
O15 Sr7 2.649546 1_555
O15 Sr0 2.816145 1_555
O15 Sr0 2.860177 1_565
O15 Sr7 2.997137 1_455
O16 Ti5 1.912733 1_555
O16 Ti4 1.923536 1_555
O16 Sr6 2.670180 1_655
O16 Sr0 2.670180 1_655
O16 Sr1 3.222829 1_555
O16 Sr7 3.222829 1_555
O17 Ti4 1.912733 1_555
O17 Ti5 1.923536 1_545
O17 Sr1 2.670180 1_545
O17 Sr7 2.670180 1_545
O17 Sr6 3.222829 1_655
O17 Sr0 3.222829 1_655
O18 Ti7 1.912733 1_555
O18 Ti6 1.923536 1_555
O18 Sr4 2.670180 1_455
O18 Sr2 2.670180 1_455
O18 Sr3 3.222829 1_555
O18 Sr5 3.222829 1_555
O19 Ti6 1.912733 1_555
O19 Ti7 1.923536 1_565
O19 Sr3 2.670180 1_565
O19 Sr5 2.670180 1_565
O19 Sr4 3.222829 1_455
O19 Sr2 3.222829 1_455
