# generated using pymatgen
data_YWO3
_symmetry_space_group_name_H-M   'P 1'
_cell_length_a   5.54625300
_cell_length_b   5.90712100
_cell_length_c   8.01414800
_cell_angle_alpha   90.00000000
_cell_angle_beta   90.00000000
_cell_angle_gamma   90.00000000
_symmetry_Int_Tables_number   1
_chemical_formula_structural   YWO3
_chemical_formula_sum   'Y4 W4 O12'
_cell_volume   262.56262280
_cell_formula_units_Z   4
loop_
 _symmetry_equiv_pos_site_id
 _symmetry_equiv_pos_as_xyz
  1  'x, y, z'
loop_
 _atom_site_type_symbol
 _atom_site_label
 _atom_site_symmetry_multiplicity
 _atom_site_fract_x
 _atom_site_fract_y
 _atom_site_fract_z
 _atom_site_occupancy
  Y  Y0  1  0.51935400  0.43234900  0.25000000  1
  Y  Y1  1  0.01935400  0.06765100  0.75000000  1
  Y  Y2  1  0.98064600  0.93234900  0.25000000  1
  Y  Y3  1  0.48064600  0.56765100  0.75000000  1
  W  W0  1  0.50000000  0.00000000  0.00000000  1
  W  W1  1  0.00000000  0.50000000  0.00000000  1
  W  W2  1  0.00000000  0.50000000  0.50000000  1
  W  W3  1  0.50000000  0.00000000  0.50000000  1
  O  O0  1  0.17864500  0.81395400  0.93194200  1
  O  O1  1  0.67864500  0.68604600  0.06805800  1
  O  O2  1  0.32135500  0.31395400  0.56805800  1
  O  O3  1  0.82135500  0.18604600  0.43194200  1
  O  O4  1  0.82135500  0.18604600  0.06805800  1
  O  O5  1  0.32135500  0.31395400  0.93194200  1
  O  O6  1  0.67864500  0.68604600  0.43194200  1
  O  O7  1  0.17864500  0.81395400  0.56805800  1
  O  O8  1  0.63907300  0.93477500  0.75000000  1
  O  O9  1  0.13907300  0.56522500  0.25000000  1
  O  O10  1  0.86092700  0.43477500  0.75000000  1
  O  O11  1  0.36092700  0.06522500  0.25000000  1
loop_
_geom_bond_atom_site_label_1
_geom_bond_atom_site_label_2
_geom_bond_distance
_geom_bond_site_symmetry_2
O0 W0 2.163778 1_566
O0 W1 2.172235 1_556
O0 Y1 2.269903 1_565
O0 Y3 2.654897 1_555
O0 Y2 2.862216 1_456
O1 W1 2.163778 1_655
O1 W0 2.172235 1_565
O1 Y0 2.269903 1_555
O1 Y2 2.654897 1_555
O1 Y3 2.862216 1_554
O2 W2 2.163778 1_555
O2 W3 2.172235 1_555
O2 Y3 2.269903 1_555
O2 Y1 2.654897 1_555
O2 Y0 2.862216 1_555
O3 W3 2.163778 1_555
O3 W2 2.172235 1_655
O3 Y2 2.269903 1_545
O3 Y0 2.654897 1_555
O3 Y1 2.862216 1_655
O4 W0 2.163778 1_555
O4 W1 2.172235 1_655
O4 Y2 2.269903 1_545
O4 Y0 2.654897 1_555
O4 Y1 2.862216 1_654
O5 W1 2.163778 1_556
O5 W0 2.172235 1_556
O5 Y3 2.269903 1_555
O5 Y1 2.654897 1_555
O5 Y0 2.862216 1_556
O6 W2 2.163778 1_655
O6 W3 2.172235 1_565
O6 Y0 2.269903 1_555
O6 Y2 2.654897 1_555
O6 Y3 2.862216 1_555
O7 W3 2.163778 1_565
O7 W2 2.172235 1_555
O7 Y1 2.269903 1_565
O7 Y3 2.654897 1_555
O7 Y2 2.862216 1_455
O8 W3 2.181185 1_565
O8 W0 2.181185 1_566
O8 Y1 2.250453 1_665
O8 Y3 2.339892 1_555
O9 W1 2.181185 1_555
O9 W2 2.181185 1_555
O9 Y0 2.250453 1_555
O9 Y2 2.339892 1_455
O10 W1 2.181185 1_656
O10 W2 2.181185 1_655
O10 Y3 2.250453 1_555
O10 Y1 2.339892 1_655
O11 W0 2.181185 1_555
O11 W3 2.181185 1_555
O11 Y2 2.250453 1_445
O11 Y0 2.339892 1_555
