# generated using pymatgen
data_Dy3Ni7B2
_symmetry_space_group_name_H-M   'P 1'
_cell_length_a   5.03948967
_cell_length_b   5.03948452
_cell_length_c   14.15258646
_cell_angle_alpha   89.99999082
_cell_angle_beta   89.99997895
_cell_angle_gamma   119.99664813
_symmetry_Int_Tables_number   1
_chemical_formula_structural   Dy3Ni7B2
_chemical_formula_sum   'Dy6 Ni14 B4'
_cell_volume   311.28184414
_cell_formula_units_Z   2
loop_
 _symmetry_equiv_pos_site_id
 _symmetry_equiv_pos_as_xyz
  1  'x, y, z'
loop_
 _atom_site_type_symbol
 _atom_site_label
 _atom_site_symmetry_multiplicity
 _atom_site_fract_x
 _atom_site_fract_y
 _atom_site_fract_z
 _atom_site_occupancy
  Dy  Dy0  1  0.33332865  0.66667110  0.46821782  1
  Dy  Dy1  1  0.66667203  0.33332956  0.96821997  1
  Dy  Dy2  1  0.66667048  0.33332818  0.53177053  1
  Dy  Dy3  1  0.33332848  0.66667031  0.03179450  1
  Dy  Dy4  1  0.66666708  0.33333202  0.74998753  1
  Dy  Dy5  1  0.33333318  0.66666790  0.25001387  1
  Ni  Ni0  1  0.83470416  0.66941742  0.35112467  1
  Ni  Ni1  1  0.33058263  0.16529581  0.35112461  1
  Ni  Ni2  1  0.00000047  0.00000003  -0.00002295  1
  Ni  Ni3  1  0.00000009  0.00000014  0.50002826  1
  Ni  Ni4  1  0.83470472  0.16529620  0.14892976  1
  Ni  Ni5  1  0.66941695  0.83470376  0.64890374  1
  Ni  Ni6  1  0.16529575  0.33058271  0.64890359  1
  Ni  Ni7  1  0.83469660  0.66940138  0.14893064  1
  Ni  Ni8  1  0.33059909  0.16530465  0.14893027  1
  Ni  Ni9  1  0.66939960  0.83469523  0.85103856  1
  Ni  Ni10  1  0.16530374  0.33059967  0.85103855  1
  Ni  Ni11  1  0.16528769  0.83471207  0.64890309  1
  Ni  Ni12  1  0.16529550  0.83470265  0.85103931  1
  Ni  Ni13  1  0.83471261  0.16528742  0.35112528  1
  B  B0  1  0.66666849  0.33333346  0.25003035  1
  B  B1  1  0.33333287  0.66666652  0.74996916  1
  B  B2  1  -0.00000349  0.00000334  0.74997276  1
  B  B3  1  0.00000262  -0.00000353  0.25002714  1
loop_
_geom_bond_atom_site_label_1
_geom_bond_atom_site_label_2
_geom_bond_distance
_geom_bond_site_symmetry_2
Dy0 Ni3 2.944086 1_565
Dy0 Ni3 2.944287 1_555
Dy0 Ni3 2.944293 1_665
Dy0 Ni11 2.947953 1_555
Dy0 Ni6 2.948010 1_555
Dy0 Ni5 2.948013 1_555
Dy0 Ni1 3.015858 1_565
Dy0 Ni0 3.015860 1_455
Dy0 Ni1 3.015879 1_555
Dy0 Ni0 3.015880 1_555
Dy0 Ni13 3.015971 1_565
Dy0 Ni13 3.015972 1_455
Dy0 Dy5 3.088150 1_555
Dy1 Ni2 2.943972 1_656
Dy1 Ni2 2.944170 1_666
Dy1 Ni2 2.944177 1_556
Dy1 Ni4 2.948220 1_556
Dy1 Ni8 2.948278 1_556
Dy1 Ni7 2.948280 1_556
Dy1 Ni10 3.016541 1_655
Dy1 Ni9 3.016546 1_545
Dy1 Ni9 3.016563 1_555
Dy1 Ni10 3.016572 1_555
Dy1 Ni12 3.016649 1_655
Dy1 Ni12 3.016665 1_545
Dy1 Dy4 3.088553 1_555
Dy2 Ni3 2.943938 1_655
Dy2 Ni3 2.944141 1_555
Dy2 Ni3 2.944144 1_665
Dy2 Ni13 2.947464 1_555
Dy2 Ni1 2.947521 1_555
Dy2 Ni0 2.947522 1_555
Dy2 Ni5 3.016169 1_545
Dy2 Ni6 3.016172 1_655
Dy2 Ni6 3.016189 1_555
Dy2 Ni5 3.016190 1_555
Dy2 Ni11 3.016280 1_545
Dy2 Ni11 3.016286 1_655
Dy2 Dy4 3.088335 1_555
Dy3 Ni2 2.944101 1_565
Dy3 Ni2 2.944300 1_555
Dy3 Ni2 2.944310 1_665
Dy3 Ni12 2.948776 1_554
Dy3 Ni10 2.948834 1_554
Dy3 Ni9 2.948834 1_554
Dy3 Ni7 3.016192 1_455
Dy3 Ni8 3.016195 1_565
Dy3 Ni8 3.016204 1_555
Dy3 Ni7 3.016216 1_555
Dy3 Ni4 3.016298 1_455
Dy3 Ni4 3.016309 1_565
Dy3 Dy5 3.088369 1_555
Dy4 Ni9 2.897318 1_555
Dy4 Ni10 2.897321 1_555
Dy4 Ni9 2.897343 1_545
Dy4 Ni10 2.897345 1_655
Dy4 Ni12 2.897447 1_655
Dy4 Ni12 2.897450 1_545
Dy4 Ni5 2.897546 1_555
Dy4 Ni6 2.897550 1_555
Dy4 Ni5 2.897573 1_545
Dy4 Ni6 2.897577 1_655
Dy4 Ni11 2.897676 1_545
Dy4 Ni11 2.897677 1_655
Dy5 Ni8 2.897542 1_555
Dy5 Ni7 2.897543 1_555
Dy5 Ni7 2.897572 1_455
Dy5 Ni8 2.897574 1_565
Dy5 Ni4 2.897673 1_565
Dy5 Ni4 2.897675 1_455
Dy5 Ni1 2.897735 1_555
Dy5 Ni0 2.897735 1_555
Dy5 Ni1 2.897762 1_565
Dy5 Ni0 2.897766 1_455
Dy5 Ni13 2.897864 1_565
Dy5 Ni13 2.897867 1_455
Ni0 Ni3 2.553965 1_665
Ni1 Ni3 2.553965 1_555
Ni2 Ni9 2.554419 1_444
Ni2 Ni4 2.554520 1_455
Ni2 Ni8 2.554585 1_555
Ni2 Ni7 2.554588 1_445
Ni3 Ni6 2.553635 1_555
Ni3 Ni5 2.553638 1_445
Ni10 Ni2 2.554414 1_556
Ni11 Ni3 2.553571 1_565
Ni12 Ni2 2.554346 1_566
Ni13 Ni3 2.553897 1_655
B0 Ni13 2.049026 1_555
B0 Ni4 2.049030 1_555
B0 Ni0 2.049054 1_555
B0 Ni7 2.049056 1_555
B0 Ni1 2.049059 1_555
B0 Ni8 2.049066 1_555
B0 Dy5 2.909514 1_555
B0 Dy5 2.909640 1_655
B0 Dy5 2.909641 1_545
B1 Ni12 2.048729 1_555
B1 Ni11 2.048743 1_555
B1 Ni10 2.048753 1_555
B1 Ni9 2.048755 1_555
B1 Ni5 2.048769 1_555
B1 Ni6 2.048769 1_555
B1 Dy4 2.909509 1_555
B1 Dy4 2.909641 1_565
B1 Dy4 2.909645 1_455
B2 Ni11 2.031637 1_545
B2 Ni12 2.031659 1_545
B2 Ni6 2.031673 1_555
B2 Ni5 2.031674 1_445
B2 Ni10 2.031693 1_555
B2 Ni9 2.031695 1_445
B2 Dy4 2.909463 1_455
B2 Dy4 2.909666 1_555
B2 Dy4 2.909666 1_445
B3 Ni13 2.031916 1_455
B3 Ni0 2.031955 1_445
B3 Ni1 2.031959 1_555
B3 Ni4 2.031960 1_455
B3 Ni7 2.031995 1_445
B3 Ni8 2.032003 1_555
B3 Dy5 2.909467 1_545
B3 Dy5 2.909661 1_445
B3 Dy5 2.909667 1_555
