# generated using pymatgen
data_La2InNi2
_symmetry_space_group_name_H-M   'P 1'
_cell_length_a   3.89157681
_cell_length_b   7.53423313
_cell_length_c   15.40259675
_cell_angle_alpha   90.00000000
_cell_angle_beta   90.00000000
_cell_angle_gamma   90.00000000
_symmetry_Int_Tables_number   1
_chemical_formula_structural   La2InNi2
_chemical_formula_sum   'La8 In4 Ni8'
_cell_volume   451.60485955
_cell_formula_units_Z   4
loop_
 _symmetry_equiv_pos_site_id
 _symmetry_equiv_pos_as_xyz
  1  'x, y, z'
loop_
 _atom_site_type_symbol
 _atom_site_label
 _atom_site_symmetry_multiplicity
 _atom_site_fract_x
 _atom_site_fract_y
 _atom_site_fract_z
 _atom_site_occupancy
  La  La0  1  -0.00000000  0.60732226  0.21646354  1
  La  La1  1  0.00000000  0.39267774  0.78353646  1
  La  La2  1  -0.00000000  0.10732226  0.28353646  1
  La  La3  1  0.00000000  0.89267774  0.71646354  1
  La  La4  1  -0.00000000  0.74548415  0.96405201  1
  La  La5  1  -0.00000000  0.25451585  0.03594799  1
  La  La6  1  0.00000000  0.24548415  0.53594799  1
  La  La7  1  0.00000000  0.75451585  0.46405201  1
  In  In0  1  0.50000000  0.42411032  0.37090724  1
  In  In1  1  0.50000000  0.57588968  0.62909276  1
  In  In2  1  0.50000000  0.92411032  0.12909276  1
  In  In3  1  0.50000000  0.07588968  0.87090724  1
  Ni  Ni0  1  0.50000000  0.55658467  0.07338681  1
  Ni  Ni1  1  0.50000000  0.44341533  0.92661319  1
  Ni  Ni2  1  0.50000000  0.05658467  0.42661319  1
  Ni  Ni3  1  0.50000000  0.94341533  0.57338681  1
  Ni  Ni4  1  0.50000000  0.30736265  0.18026763  1
  Ni  Ni5  1  0.50000000  0.69263735  0.81973237  1
  Ni  Ni6  1  0.50000000  0.80736265  0.31973237  1
  Ni  Ni7  1  0.50000000  0.19263735  0.68026763  1
loop_
_geom_bond_atom_site_label_1
_geom_bond_atom_site_label_2
_geom_bond_distance
_geom_bond_site_symmetry_2
La0 Ni6 2.930466 1_555
La0 Ni6 2.930466 1_455
La0 Ni0 2.964583 1_455
La0 Ni0 2.964583 1_555
La0 Ni4 3.033868 1_555
La0 Ni4 3.033868 1_455
La1 Ni7 2.930466 1_555
La1 Ni7 2.930466 1_455
La1 Ni1 2.964583 1_455
La1 Ni1 2.964583 1_555
La1 Ni5 3.033868 1_555
La1 Ni5 3.033868 1_455
La2 Ni4 2.930466 1_455
La2 Ni4 2.930466 1_555
La2 Ni2 2.964583 1_455
La2 Ni2 2.964583 1_555
La2 Ni6 3.033868 1_445
La2 Ni6 3.033868 1_545
La3 Ni5 2.930466 1_455
La3 Ni5 2.930466 1_555
La3 Ni3 2.964583 1_455
La3 Ni3 2.964583 1_555
La3 Ni7 3.033868 1_565
La3 Ni7 3.033868 1_465
La4 Ni0 2.940683 1_456
La4 Ni0 2.940683 1_556
La4 Ni5 2.980922 1_555
La4 Ni5 2.980922 1_455
La4 Ni1 3.049287 1_455
La4 Ni1 3.049287 1_555
La5 Ni1 2.940683 1_454
La5 Ni1 2.940683 1_554
La5 Ni4 2.980922 1_555
La5 Ni4 2.980922 1_455
La5 Ni0 3.049287 1_555
La5 Ni0 3.049287 1_455
La6 Ni2 2.940683 1_555
La6 Ni2 2.940683 1_455
La6 Ni7 2.980922 1_455
La6 Ni7 2.980922 1_555
La6 Ni3 3.049287 1_545
La6 Ni3 3.049287 1_445
La7 Ni3 2.940683 1_455
La7 Ni3 2.940683 1_555
La7 Ni6 2.980922 1_455
La7 Ni6 2.980922 1_555
La7 Ni2 3.049287 1_565
La7 Ni2 3.049287 1_465
In0 Ni2 2.898911 1_555
In0 Ni6 2.993164 1_555
In0 Ni4 3.065261 1_555
In0 La2 3.360610 1_655
In0 La2 3.360610 1_555
In0 La0 3.369027 1_555
In0 La0 3.369027 1_655
In0 La7 3.470050 1_555
In0 La7 3.470050 1_655
In0 La6 3.472657 1_555
In0 La6 3.472657 1_655
In1 Ni3 2.898911 1_555
In1 Ni7 2.993164 1_555
In1 Ni5 3.065261 1_555
In1 La3 3.360610 1_555
In1 La3 3.360610 1_655
In1 La1 3.369027 1_555
In1 La1 3.369027 1_655
In1 La6 3.470050 1_655
In1 La6 3.470050 1_555
In1 La7 3.472657 1_655
In1 La7 3.472657 1_555
In2 Ni0 2.898911 1_555
In2 Ni4 2.993164 1_565
In2 Ni6 3.065261 1_555
In2 La0 3.360610 1_555
In2 La0 3.360610 1_655
In2 La2 3.369027 1_565
In2 La2 3.369027 1_665
In2 La5 3.470050 1_565
In2 La5 3.470050 1_665
In2 La4 3.472657 1_554
In2 La4 3.472657 1_654
In3 Ni1 2.898911 1_555
In3 Ni5 2.993164 1_545
In3 Ni7 3.065261 1_555
In3 La1 3.360610 1_555
In3 La1 3.360610 1_655
In3 La3 3.369027 1_645
In3 La3 3.369027 1_545
In3 La4 3.470050 1_545
In3 La4 3.470050 1_645
In3 La5 3.472657 1_556
In3 La5 3.472657 1_656
Ni0 Ni1 2.416142 1_554
Ni0 Ni4 2.497170 1_555
Ni1 Ni5 2.497170 1_555
Ni2 Ni3 2.416142 1_545
Ni2 Ni6 2.497170 1_545
Ni3 Ni7 2.497170 1_565
