# generated using pymatgen
data_MgGa
_symmetry_space_group_name_H-M   'P 1'
_cell_length_a   11.65592747
_cell_length_b   11.65592747
_cell_length_c   13.61806990
_cell_angle_alpha   75.75324344
_cell_angle_beta   75.75324344
_cell_angle_gamma   32.10542719
_symmetry_Int_Tables_number   1
_chemical_formula_structural   MgGa
_chemical_formula_sum   'Mg24 Ga24'
_cell_volume   950.53150830
_cell_formula_units_Z   24
loop_
 _symmetry_equiv_pos_site_id
 _symmetry_equiv_pos_as_xyz
  1  'x, y, z'
loop_
 _atom_site_type_symbol
 _atom_site_label
 _atom_site_symmetry_multiplicity
 _atom_site_fract_x
 _atom_site_fract_y
 _atom_site_fract_z
 _atom_site_occupancy
  Mg  Mg0_0  1  0.49617700  0.49617700  0.01192100  1
  Mg  Mg0_1  1  0.49617700  0.49617700  0.51192100  1
  Mg  Mg0_2  1  0.49617700  0.99617700  0.01192100  1
  Mg  Mg0_3  1  0.49617700  0.99617700  0.51192100  1
  Mg  Mg0_4  1  0.99617700  0.49617700  0.01192100  1
  Mg  Mg0_5  1  0.99617700  0.49617700  0.51192100  1
  Mg  Mg0_6  1  0.99617700  0.99617700  0.01192100  1
  Mg  Mg0_7  1  0.99617700  0.99617700  0.51192100  1
  Mg  Mg1_0  1  0.47460100  0.47460100  0.29553000  1
  Mg  Mg1_1  1  0.47460100  0.47460100  0.79553000  1
  Mg  Mg1_2  1  0.47460100  0.97460100  0.29553000  1
  Mg  Mg1_3  1  0.47460100  0.97460100  0.79553000  1
  Mg  Mg1_4  1  0.97460100  0.47460100  0.29553000  1
  Mg  Mg1_5  1  0.97460100  0.47460100  0.79553000  1
  Mg  Mg1_6  1  0.97460100  0.97460100  0.29553000  1
  Mg  Mg1_7  1  0.97460100  0.97460100  0.79553000  1
  Mg  Mg2_0  1  0.33525450  0.33525450  0.33290100  1
  Mg  Mg2_1  1  0.33525450  0.33525450  0.83290100  1
  Mg  Mg2_2  1  0.33525450  0.83525450  0.33290100  1
  Mg  Mg2_3  1  0.33525450  0.83525450  0.83290100  1
  Mg  Mg2_4  1  0.83525450  0.33525450  0.33290100  1
  Mg  Mg2_5  1  0.83525450  0.33525450  0.83290100  1
  Mg  Mg2_6  1  0.83525450  0.83525450  0.33290100  1
  Mg  Mg2_7  1  0.83525450  0.83525450  0.83290100  1
  Ga  Ga0_0  1  0.31048100  0.31048100  0.13591600  1
  Ga  Ga0_1  1  0.31048100  0.31048100  0.63591600  1
  Ga  Ga0_2  1  0.31048100  0.81048100  0.13591600  1
  Ga  Ga0_3  1  0.31048100  0.81048100  0.63591600  1
  Ga  Ga0_4  1  0.81048100  0.31048100  0.13591600  1
  Ga  Ga0_5  1  0.81048100  0.31048100  0.63591600  1
  Ga  Ga0_6  1  0.81048100  0.81048100  0.13591600  1
  Ga  Ga0_7  1  0.81048100  0.81048100  0.63591600  1
  Ga  Ga1_0  1  0.16314900  0.16314900  0.16553500  1
  Ga  Ga1_1  1  0.16314900  0.16314900  0.66553500  1
  Ga  Ga1_2  1  0.16314900  0.66314900  0.16553500  1
  Ga  Ga1_3  1  0.16314900  0.66314900  0.66553500  1
  Ga  Ga1_4  1  0.66314900  0.16314900  0.16553500  1
  Ga  Ga1_5  1  0.66314900  0.16314900  0.66553500  1
  Ga  Ga1_6  1  0.66314900  0.66314900  0.16553500  1
  Ga  Ga1_7  1  0.66314900  0.66314900  0.66553500  1
  Ga  Ga2_0  1  0.13700400  0.13700400  0.47486350  1
  Ga  Ga2_1  1  0.13700400  0.13700400  0.97486350  1
  Ga  Ga2_2  1  0.13700400  0.63700400  0.47486350  1
  Ga  Ga2_3  1  0.13700400  0.63700400  0.97486350  1
  Ga  Ga2_4  1  0.63700400  0.13700400  0.47486350  1
  Ga  Ga2_5  1  0.63700400  0.13700400  0.97486350  1
  Ga  Ga2_6  1  0.63700400  0.63700400  0.47486350  1
  Ga  Ga2_7  1  0.63700400  0.63700400  0.97486350  1
loop_
_geom_bond_atom_site_label_1
_geom_bond_atom_site_label_2
_geom_bond_distance
_geom_bond_site_symmetry_2
Mg0_0 Mg1_1 3.105956 1_554
Mg0_0 Mg2_5 3.167202 1_554
Mg0_0 Mg2_3 3.167202 1_554
Mg0_0 Mg0_6 3.223116 1_545
Mg0_0 Mg0_6 3.223116 1_455
Mg0_1 Mg1_0 3.105956 1_555
Mg0_1 Mg2_4 3.167202 1_555
Mg0_1 Mg2_2 3.167202 1_555
Mg0_1 Mg0_7 3.223116 1_545
Mg0_1 Mg0_7 3.223116 1_455
Mg0_2 Mg1_3 3.105956 1_554
Mg0_2 Mg2_1 3.167202 1_564
Mg0_2 Mg2_7 3.167202 1_554
Mg0_2 Mg0_4 3.223116 1_465
Mg0_2 Mg0_4 3.223116 1_555
Mg0_3 Mg1_2 3.105956 1_555
Mg0_3 Mg2_0 3.167202 1_565
Mg0_3 Mg2_6 3.167202 1_555
Mg0_3 Mg0_5 3.223116 1_465
Mg0_3 Mg0_5 3.223116 1_555
Mg0_4 Mg1_5 3.105956 1_554
Mg0_4 Mg2_1 3.167202 1_654
Mg0_4 Mg2_7 3.167202 1_554
Mg0_5 Mg1_4 3.105956 1_555
Mg0_5 Mg2_0 3.167202 1_655
Mg0_5 Mg2_6 3.167202 1_555
Mg0_6 Mg1_7 3.105956 1_554
Mg0_6 Mg2_3 3.167202 1_654
Mg0_6 Mg2_5 3.167202 1_564
Mg0_7 Mg1_6 3.105956 1_555
Mg0_7 Mg2_2 3.167202 1_655
Mg0_7 Mg2_4 3.167202 1_565
Mg1_0 Mg2_0 3.031617 1_555
Mg1_0 Mg2_2 3.106041 1_555
Mg1_0 Mg2_4 3.106041 1_555
Mg1_0 Mg1_6 3.223116 1_455
Mg1_0 Mg1_6 3.223116 1_545
Mg1_1 Mg2_1 3.031617 1_555
Mg1_1 Mg2_5 3.106041 1_555
Mg1_1 Mg2_3 3.106041 1_555
Mg1_1 Mg1_7 3.223116 1_455
Mg1_1 Mg1_7 3.223116 1_545
Mg1_2 Mg2_2 3.031617 1_555
Mg1_2 Mg2_6 3.106041 1_555
Mg1_2 Mg2_0 3.106041 1_565
Mg1_2 Mg1_4 3.223116 1_555
Mg1_2 Mg1_4 3.223116 1_465
Mg1_3 Mg2_3 3.031617 1_555
Mg1_3 Mg2_7 3.106041 1_555
Mg1_3 Mg2_1 3.106041 1_565
Mg1_3 Mg1_5 3.223116 1_465
Mg1_3 Mg1_5 3.223116 1_555
Mg1_4 Mg2_4 3.031617 1_555
Mg1_4 Mg2_6 3.106041 1_555
Mg1_4 Mg2_0 3.106041 1_655
Mg1_5 Mg2_5 3.031617 1_555
Mg1_5 Mg2_1 3.106041 1_655
Mg1_5 Mg2_7 3.106041 1_555
Mg1_6 Mg2_6 3.031617 1_555
Mg1_6 Mg2_4 3.106041 1_565
Mg1_6 Mg2_2 3.106041 1_655
Mg1_7 Mg2_7 3.031617 1_555
Mg1_7 Mg2_3 3.106041 1_655
Mg1_7 Mg2_5 3.106041 1_565
Mg2_0 Mg2_6 3.223116 1_545
Mg2_0 Mg2_6 3.223116 1_455
Mg2_1 Mg2_7 3.223116 1_545
Mg2_1 Mg2_7 3.223116 1_455
Mg2_2 Mg2_4 3.223116 1_555
Mg2_2 Mg2_4 3.223116 1_465
Mg2_3 Mg2_5 3.223116 1_465
Mg2_3 Mg2_5 3.223116 1_555
Ga0_0 Mg2_0 2.875178 1_555
Ga0_0 Ga2_5 2.901825 1_554
Ga0_0 Ga2_3 2.901825 1_554
Ga0_0 Ga1_4 2.919801 1_555
Ga0_0 Ga1_2 2.919801 1_555
Ga0_0 Mg0_2 2.961348 1_545
Ga0_0 Mg0_4 2.961348 1_455
Ga0_0 Mg1_2 2.980193 1_545
Ga0_0 Mg1_4 2.980193 1_455
Ga0_1 Mg2_1 2.875178 1_555
Ga0_1 Ga2_4 2.901825 1_555
Ga0_1 Ga2_2 2.901825 1_555
Ga0_1 Ga1_3 2.919801 1_555
Ga0_1 Ga1_5 2.919801 1_555
Ga0_1 Mg0_3 2.961348 1_545
Ga0_1 Mg0_5 2.961348 1_455
Ga0_1 Mg1_3 2.980193 1_545
Ga0_1 Mg1_5 2.980193 1_455
Ga0_2 Mg2_2 2.875178 1_555
Ga0_2 Ga2_1 2.901825 1_564
Ga0_2 Ga2_7 2.901825 1_554
Ga0_2 Ga1_6 2.919801 1_555
Ga0_2 Ga1_0 2.919801 1_565
Ga0_2 Mg0_6 2.961348 1_455
Ga0_2 Mg0_0 2.961348 1_555
Ga0_2 Mg1_0 2.980193 1_555
Ga0_2 Mg1_6 2.980193 1_455
Ga0_3 Mg2_3 2.875178 1_555
Ga0_3 Ga2_0 2.901825 1_565
Ga0_3 Ga2_6 2.901825 1_555
Ga0_3 Ga1_1 2.919801 1_565
Ga0_3 Ga1_7 2.919801 1_555
Ga0_3 Mg0_7 2.961348 1_455
Ga0_3 Mg0_1 2.961348 1_555
Ga0_3 Mg1_7 2.980193 1_455
Ga0_3 Mg1_1 2.980193 1_555
Ga0_4 Mg2_4 2.875178 1_555
Ga0_4 Ga2_1 2.901825 1_654
Ga0_4 Ga2_7 2.901825 1_554
Ga0_4 Ga1_0 2.919801 1_655
Ga0_4 Ga1_6 2.919801 1_555
Ga0_4 Mg0_6 2.961348 1_545
Ga0_4 Mg0_0 2.961348 1_555
Ga0_4 Mg1_0 2.980193 1_555
Ga0_4 Mg1_6 2.980193 1_545
Ga0_5 Mg2_5 2.875178 1_555
Ga0_5 Ga2_0 2.901825 1_655
Ga0_5 Ga2_6 2.901825 1_555
Ga0_5 Ga1_1 2.919801 1_655
Ga0_5 Ga1_7 2.919801 1_555
Ga0_5 Mg0_7 2.961348 1_545
Ga0_5 Mg0_1 2.961348 1_555
Ga0_5 Mg1_1 2.980193 1_555
Ga0_5 Mg1_7 2.980193 1_545
Ga0_6 Mg2_6 2.875178 1_555
Ga0_6 Ga2_5 2.901825 1_564
Ga0_6 Ga2_3 2.901825 1_654
Ga0_6 Ga1_4 2.919801 1_565
Ga0_6 Ga1_2 2.919801 1_655
Ga0_6 Mg0_2 2.961348 1_555
Ga0_6 Mg0_4 2.961348 1_555
Ga0_6 Mg1_4 2.980193 1_555
Ga0_6 Mg1_2 2.980193 1_555
Ga0_7 Mg2_7 2.875178 1_555
Ga0_7 Ga2_2 2.901825 1_655
Ga0_7 Ga2_4 2.901825 1_565
Ga0_7 Ga1_5 2.919801 1_565
Ga0_7 Ga1_3 2.919801 1_655
Ga0_7 Mg0_5 2.961348 1_555
Ga0_7 Mg0_3 2.961348 1_555
Ga0_7 Mg1_3 2.980193 1_555
Ga0_7 Mg1_5 2.980193 1_555
Ga1_0 Ga2_1 2.804324 1_554
Ga1_0 Mg0_2 2.905205 1_545
Ga1_0 Mg0_4 2.905205 1_455
Ga1_0 Mg2_2 2.966488 1_545
Ga1_0 Mg2_4 2.966488 1_455
Ga1_0 Mg1_4 2.979018 1_455
Ga1_0 Mg1_2 2.979018 1_545
Ga1_1 Ga2_0 2.804324 1_555
Ga1_1 Mg0_5 2.905205 1_455
Ga1_1 Mg0_3 2.905205 1_545
Ga1_1 Mg2_5 2.966488 1_455
Ga1_1 Mg2_3 2.966488 1_545
Ga1_1 Mg1_3 2.979018 1_545
Ga1_1 Mg1_5 2.979018 1_455
Ga1_2 Ga2_3 2.804324 1_554
Ga1_2 Mg0_0 2.905205 1_555
Ga1_2 Mg0_6 2.905205 1_455
Ga1_2 Mg2_6 2.966488 1_455
Ga1_2 Mg2_0 2.966488 1_555
Ga1_2 Mg1_6 2.979018 1_455
Ga1_2 Mg1_0 2.979018 1_555
Ga1_3 Ga2_2 2.804324 1_555
Ga1_3 Mg0_1 2.905205 1_555
Ga1_3 Mg0_7 2.905205 1_455
Ga1_3 Mg2_7 2.966488 1_455
Ga1_3 Mg2_1 2.966488 1_555
Ga1_3 Mg1_7 2.979018 1_455
Ga1_3 Mg1_1 2.979018 1_555
Ga1_4 Ga2_5 2.804324 1_554
Ga1_4 Mg0_0 2.905205 1_555
Ga1_4 Mg0_6 2.905205 1_545
Ga1_4 Mg2_6 2.966488 1_545
Ga1_4 Mg2_0 2.966488 1_555
Ga1_4 Mg1_6 2.979018 1_545
Ga1_4 Mg1_0 2.979018 1_555
Ga1_5 Ga2_4 2.804324 1_555
Ga1_5 Mg0_1 2.905205 1_555
Ga1_5 Mg0_7 2.905205 1_545
Ga1_5 Mg2_7 2.966488 1_545
Ga1_5 Mg2_1 2.966488 1_555
Ga1_5 Mg1_7 2.979018 1_545
Ga1_5 Mg1_1 2.979018 1_555
Ga1_6 Ga2_7 2.804324 1_554
Ga1_6 Mg0_4 2.905205 1_555
Ga1_6 Mg0_2 2.905205 1_555
Ga1_6 Mg2_2 2.966488 1_555
Ga1_6 Mg2_4 2.966488 1_555
Ga1_6 Mg1_4 2.979018 1_555
Ga1_6 Mg1_2 2.979018 1_555
Ga1_7 Ga2_6 2.804324 1_555
Ga1_7 Mg0_3 2.905205 1_555
Ga1_7 Mg0_5 2.905205 1_555
Ga1_7 Mg2_3 2.966488 1_555
Ga1_7 Mg2_5 2.966488 1_555
Ga1_7 Mg1_3 2.979018 1_555
Ga1_7 Mg1_5 2.979018 1_555
Ga2_0 Mg2_4 2.970956 1_455
Ga2_0 Mg2_2 2.970956 1_545
Ga2_0 Mg0_7 3.064769 1_445
Ga2_0 Mg0_3 3.076659 1_545
Ga2_0 Mg0_5 3.076659 1_455
Ga2_0 Mg1_2 3.155606 1_545
Ga2_0 Mg1_4 3.155606 1_455
Ga2_1 Mg2_5 2.970956 1_455
Ga2_1 Mg2_3 2.970956 1_545
Ga2_1 Mg0_6 3.064769 1_446
Ga2_1 Mg0_4 3.076659 1_456
Ga2_1 Mg0_2 3.076659 1_546
Ga2_1 Mg1_5 3.155606 1_455
Ga2_1 Mg1_3 3.155606 1_545
Ga2_2 Mg2_6 2.970956 1_455
Ga2_2 Mg2_0 2.970956 1_555
Ga2_2 Mg0_5 3.064769 1_455
Ga2_2 Mg0_1 3.076659 1_555
Ga2_2 Mg0_7 3.076659 1_455
Ga2_2 Mg1_6 3.155606 1_455
Ga2_2 Mg1_0 3.155606 1_555
Ga2_3 Mg2_1 2.970956 1_555
Ga2_3 Mg2_7 2.970956 1_455
Ga2_3 Mg0_4 3.064769 1_456
Ga2_3 Mg0_0 3.076659 1_556
Ga2_3 Mg0_6 3.076659 1_456
Ga2_3 Mg1_1 3.155606 1_555
Ga2_3 Mg1_7 3.155606 1_455
Ga2_4 Mg2_6 2.970956 1_545
Ga2_4 Mg2_0 2.970956 1_555
Ga2_4 Mg0_3 3.064769 1_545
Ga2_4 Mg0_1 3.076659 1_555
Ga2_4 Mg0_7 3.076659 1_545
Ga2_4 Mg1_6 3.155606 1_545
Ga2_4 Mg1_0 3.155606 1_555
Ga2_5 Mg2_1 2.970956 1_555
Ga2_5 Mg2_7 2.970956 1_545
Ga2_5 Mg0_2 3.064769 1_546
Ga2_5 Mg0_0 3.076659 1_556
Ga2_5 Mg0_6 3.076659 1_546
Ga2_5 Mg1_1 3.155606 1_555
Ga2_5 Mg1_7 3.155606 1_545
Ga2_6 Mg2_4 2.970956 1_555
Ga2_6 Mg2_2 2.970956 1_555
Ga2_6 Mg0_1 3.064769 1_555
Ga2_6 Mg0_5 3.076659 1_555
Ga2_6 Mg0_3 3.076659 1_555
Ga2_6 Mg1_4 3.155606 1_555
Ga2_6 Mg1_2 3.155606 1_555
Ga2_7 Mg2_5 2.970956 1_555
Ga2_7 Mg2_3 2.970956 1_555
Ga2_7 Mg0_0 3.064769 1_556
Ga2_7 Mg0_2 3.076659 1_556
Ga2_7 Mg0_4 3.076659 1_556
Ga2_7 Mg1_5 3.155606 1_555
Ga2_7 Mg1_3 3.155606 1_555
