# generated using pymatgen
data_Dy5(In2Pt)2
_symmetry_space_group_name_H-M   'P 1'
_cell_length_a   3.62579284
_cell_length_b   8.06412769
_cell_length_c   18.16178203
_cell_angle_alpha   90.00000000
_cell_angle_beta   90.00000000
_cell_angle_gamma   90.00000000
_symmetry_Int_Tables_number   1
_chemical_formula_structural   Dy5(In2Pt)2
_chemical_formula_sum   'Dy10 In8 Pt4'
_cell_volume   531.02973746
_cell_formula_units_Z   2
loop_
 _symmetry_equiv_pos_site_id
 _symmetry_equiv_pos_as_xyz
  1  'x, y, z'
loop_
 _atom_site_type_symbol
 _atom_site_label
 _atom_site_symmetry_multiplicity
 _atom_site_fract_x
 _atom_site_fract_y
 _atom_site_fract_z
 _atom_site_occupancy
  Dy  Dy0  1  -0.00000000  0.11584594  0.41550072  1
  Dy  Dy1  1  -0.00000000  0.88415406  0.58449928  1
  Dy  Dy2  1  0.00000000  0.38415406  0.91550072  1
  Dy  Dy3  1  -0.00000000  0.61584594  0.08449928  1
  Dy  Dy4  1  -0.00000000  0.24351260  0.22031351  1
  Dy  Dy5  1  -0.00000000  0.75648740  0.77968649  1
  Dy  Dy6  1  -0.00000000  0.25648740  0.72031351  1
  Dy  Dy7  1  0.00000000  0.74351260  0.27968649  1
  Dy  Dy8  1  -0.00000000  0.00000000  0.00000000  1
  Dy  Dy9  1  0.00000000  0.50000000  0.50000000  1
  In  In0  1  0.50000000  0.42505656  0.35142152  1
  In  In1  1  0.50000000  0.57494344  0.64857848  1
  In  In2  1  0.50000000  0.07494344  0.85142152  1
  In  In3  1  0.50000000  0.92505656  0.14857848  1
  In  In4  1  0.50000000  0.29040669  0.06777331  1
  In  In5  1  0.50000000  0.70959331  0.93222669  1
  In  In6  1  0.50000000  0.20959331  0.56777331  1
  In  In7  1  0.50000000  0.79040669  0.43222669  1
  Pt  Pt0  1  0.50000000  0.02690032  0.30391201  1
  Pt  Pt1  1  0.50000000  0.97309968  0.69608799  1
  Pt  Pt2  1  0.50000000  0.47309968  0.80391201  1
  Pt  Pt3  1  0.50000000  0.52690032  0.19608799  1
loop_
_geom_bond_atom_site_label_1
_geom_bond_atom_site_label_2
_geom_bond_distance
_geom_bond_site_symmetry_2
Dy0 Pt0 2.812184 1_455
Dy0 Pt0 2.812184 1_555
Dy0 In7 3.204101 1_445
Dy0 In7 3.204101 1_545
Dy0 In0 3.295242 1_555
Dy0 In0 3.295242 1_455
Dy0 In6 3.392099 1_555
Dy0 In6 3.392099 1_455
Dy1 Pt1 2.812184 1_555
Dy1 Pt1 2.812184 1_455
Dy1 In6 3.204101 1_465
Dy1 In6 3.204101 1_565
Dy1 In1 3.295242 1_555
Dy1 In1 3.295242 1_455
Dy1 In7 3.392099 1_555
Dy1 In7 3.392099 1_455
Dy2 Pt2 2.812184 1_555
Dy2 Pt2 2.812184 1_455
Dy2 In5 3.204101 1_555
Dy2 In5 3.204101 1_455
Dy2 In2 3.295242 1_555
Dy2 In2 3.295242 1_455
Dy2 In4 3.392099 1_456
Dy2 In4 3.392099 1_556
Dy3 Pt3 2.812184 1_555
Dy3 Pt3 2.812184 1_455
Dy3 In4 3.204101 1_455
Dy3 In4 3.204101 1_555
Dy3 In3 3.295242 1_455
Dy3 In3 3.295242 1_555
Dy3 In5 3.392099 1_554
Dy3 In5 3.392099 1_454
Dy4 Pt0 2.939914 1_455
Dy4 Pt0 2.939914 1_555
Dy4 Pt3 2.950026 1_555
Dy4 Pt3 2.950026 1_455
Dy4 In0 3.331632 1_455
Dy4 In0 3.331632 1_555
Dy4 In4 3.332375 1_455
Dy4 In4 3.332375 1_555
Dy4 In3 3.402787 1_445
Dy4 In3 3.402787 1_545
Dy5 Pt1 2.939914 1_555
Dy5 Pt1 2.939914 1_455
Dy5 Pt2 2.950026 1_455
Dy5 Pt2 2.950026 1_555
Dy5 In1 3.331632 1_455
Dy5 In1 3.331632 1_555
Dy5 In5 3.332375 1_455
Dy5 In5 3.332375 1_555
Dy5 In2 3.402787 1_565
Dy5 In2 3.402787 1_465
Dy6 Pt2 2.939914 1_455
Dy6 Pt2 2.939914 1_555
Dy6 Pt1 2.950026 1_445
Dy6 Pt1 2.950026 1_545
Dy6 In2 3.331632 1_455
Dy6 In2 3.331632 1_555
Dy6 In6 3.332375 1_455
Dy6 In6 3.332375 1_555
Dy6 In1 3.402787 1_555
Dy6 In1 3.402787 1_455
Dy7 Pt3 2.939914 1_455
Dy7 Pt3 2.939914 1_555
Dy7 Pt0 2.950026 1_465
Dy7 Pt0 2.950026 1_565
Dy7 In3 3.331632 1_455
Dy7 In3 3.331632 1_555
Dy7 In7 3.332375 1_455
Dy7 In7 3.332375 1_555
Dy7 In0 3.402787 1_455
Dy7 In0 3.402787 1_555
Dy8 In5 3.207188 1_444
Dy8 In5 3.207188 1_544
Dy8 In4 3.207188 1_455
Dy8 In4 3.207188 1_555
Dy8 In2 3.306580 1_454
Dy8 In2 3.306580 1_554
Dy8 In3 3.306580 1_545
Dy8 In3 3.306580 1_445
Dy9 In6 3.207188 1_555
Dy9 In7 3.207188 1_455
Dy9 In7 3.207188 1_555
Dy9 In6 3.207188 1_455
Dy9 In0 3.306580 1_455
Dy9 In0 3.306580 1_555
Dy9 In1 3.306580 1_555
Dy9 In1 3.306580 1_455
In0 Pt3 2.938247 1_555
In0 In7 3.291507 1_555
In0 Pt0 3.324703 1_555
In1 Pt2 2.938247 1_555
In1 In6 3.291507 1_555
In1 Pt1 3.324703 1_555
In2 Pt1 2.938247 1_545
In2 In5 3.291507 1_545
In2 Pt2 3.324703 1_555
In3 Pt0 2.938247 1_565
In3 In4 3.291507 1_565
In3 Pt3 3.324703 1_555
In4 Pt3 3.011305 1_555
In5 Pt2 3.011305 1_555
In6 Pt1 3.011305 1_545
In7 Pt0 3.011305 1_565
