# generated using pymatgen
data_V9Te8
_symmetry_space_group_name_H-M   'P 1'
_cell_length_a   7.23245137
_cell_length_b   7.38839893
_cell_length_c   7.83689710
_cell_angle_alpha   105.16352690
_cell_angle_beta   105.41102381
_cell_angle_gamma   89.75212275
_symmetry_Int_Tables_number   1
_chemical_formula_structural   V9Te8
_chemical_formula_sum   'V9 Te8'
_cell_volume   388.70347041
_cell_formula_units_Z   1
loop_
 _symmetry_equiv_pos_site_id
 _symmetry_equiv_pos_as_xyz
  1  'x, y, z'
loop_
 _atom_site_type_symbol
 _atom_site_label
 _atom_site_symmetry_multiplicity
 _atom_site_fract_x
 _atom_site_fract_y
 _atom_site_fract_z
 _atom_site_occupancy
  V  V0  1  0.50721440  0.50611433  0.72276663  1
  V  V1  1  0.50006651  0.49979484  0.27651927  1
  V  V2  1  0.57659856  0.19701580  0.44758284  1
  V  V3  1  0.57784961  0.21184708  0.94373665  1
  V  V4  1  0.42515661  0.80347074  0.55644380  1
  V  V5  1  0.43635308  0.78745548  0.05605860  1
  V  V6  1  0.73279900  0.57566515  0.07611348  1
  V  V7  1  0.22428323  0.41787967  0.41072674  1
  V  V8  1  0.27254100  0.42968164  0.92556191  1
  Te  Te0  1  0.16278685  0.68219830  0.70911244  1
  Te  Te1  1  0.15741827  0.68606523  0.21234102  1
  Te  Te2  1  0.83026903  0.31116910  0.28466954  1
  Te  Te3  1  0.84292277  0.31844691  0.78975967  1
  Te  Te4  1  0.71380395  0.85299057  0.88747833  1
  Te  Te5  1  0.71603977  0.84226095  0.39813276  1
  Te  Te6  1  0.28561597  0.14792814  0.11090928  1
  Te  Te7  1  0.28758239  0.15471507  0.61059005  1
loop_
_geom_bond_atom_site_label_1
_geom_bond_atom_site_label_2
_geom_bond_distance
_geom_bond_site_symmetry_2
V0 V6 2.730516 1_556
V0 V8 2.763494 1_555
V1 V8 2.719843 1_554
V1 V6 2.736405 1_555
V3 V8 2.721850 1_555
V3 V6 2.739881 1_556
V5 V6 2.643989 1_555
V5 V8 2.721372 1_554
Te0 V4 2.759948 1_555
Te0 V7 2.763332 1_555
Te0 V0 2.795080 1_555
Te0 V8 2.813452 1_555
Te0 V5 2.821390 1_556
Te1 V7 2.789440 1_555
Te1 V4 2.791006 1_555
Te1 V5 2.817326 1_555
Te1 V1 2.821094 1_555
Te1 V8 2.843637 1_554
Te1 V6 3.009974 1_455
Te2 V3 2.720953 1_554
Te2 V2 2.743906 1_555
Te2 V1 2.754340 1_555
Te2 V7 2.798930 1_655
Te2 V6 2.834411 1_555
Te3 V3 2.737084 1_555
Te3 V2 2.777979 1_555
Te3 V0 2.787034 1_555
Te3 V6 2.826273 1_556
Te3 V8 3.044619 1_655
Te4 V0 2.782867 1_555
Te4 V5 2.785424 1_556
Te4 V3 2.790578 1_565
Te4 V4 2.802490 1_555
Te4 V6 2.806585 1_556
Te5 V4 2.761490 1_555
Te5 V2 2.773215 1_565
Te5 V1 2.780632 1_555
Te5 V6 2.797000 1_555
Te5 V5 2.828345 1_555
Te6 V7 2.791103 1_555
Te6 V8 2.821263 1_554
Te6 V1 2.836993 1_555
Te6 V2 2.841989 1_555
Te6 V5 2.844571 1_545
Te6 V3 2.865412 1_554
Te7 V4 2.744223 1_545
Te7 V7 2.765482 1_555
Te7 V2 2.780770 1_555
Te7 V8 2.783783 1_555
Te7 V3 2.814236 1_555
Te7 V0 2.852403 1_555
