# generated using pymatgen
data_H5CN7O2
_symmetry_space_group_name_H-M   'P 1'
_cell_length_a   7.54820833
_cell_length_b   8.13625749
_cell_length_c   10.44465100
_cell_angle_alpha   90.00000000
_cell_angle_beta   90.00000000
_cell_angle_gamma   103.50878263
_symmetry_Int_Tables_number   1
_chemical_formula_structural   H5CN7O2
_chemical_formula_sum   'H20 C4 N28 O8'
_cell_volume   623.70327348
_cell_formula_units_Z   4
loop_
 _symmetry_equiv_pos_site_id
 _symmetry_equiv_pos_as_xyz
  1  'x, y, z'
loop_
 _atom_site_type_symbol
 _atom_site_label
 _atom_site_symmetry_multiplicity
 _atom_site_fract_x
 _atom_site_fract_y
 _atom_site_fract_z
 _atom_site_occupancy
  H  H0  1  0.14055600  0.77581400  0.36954800  1
  H  H1  1  0.85944400  0.22418600  0.63045200  1
  H  H2  1  0.35944400  0.22418600  0.86954800  1
  H  H3  1  0.64055600  0.77581400  0.13045200  1
  H  H4  1  0.31885700  0.09852500  0.66619900  1
  H  H5  1  0.68114300  0.90147500  0.33380100  1
  H  H6  1  0.18114300  0.90147500  0.16619900  1
  H  H7  1  0.81885700  0.09852500  0.83380100  1
  H  H8  1  0.05737100  0.58991200  0.30303000  1
  H  H9  1  0.94262900  0.41008800  0.69697000  1
  H  H10  1  0.44262900  0.41008800  0.80303000  1
  H  H11  1  0.55737100  0.58991200  0.19697000  1
  H  H12  1  0.09898300  0.70745900  0.10242000  1
  H  H13  1  0.90101700  0.29254100  0.89758000  1
  H  H14  1  0.40101700  0.29254100  0.60242000  1
  H  H15  1  0.59898300  0.70745900  0.39758000  1
  H  H16  1  0.19914800  0.25328000  0.68497800  1
  H  H17  1  0.80085200  0.74672000  0.31502200  1
  H  H18  1  0.30085200  0.74672000  0.18497800  1
  H  H19  1  0.69914800  0.25328000  0.81502200  1
  C  C0  1  0.12766400  0.24011300  0.22622400  1
  C  C1  1  0.87233600  0.75988700  0.77377600  1
  C  C2  1  0.37233600  0.75988700  0.72622400  1
  C  C3  1  0.62766400  0.24011300  0.27377600  1
  N  N0  1  0.08934600  0.32487300  0.04075900  1
  N  N1  1  0.91065400  0.67512700  0.95924100  1
  N  N2  1  0.41065400  0.67512700  0.54075900  1
  N  N3  1  0.58934600  0.32487300  0.45924100  1
  N  N4  1  0.07631400  0.36504500  0.16388700  1
  N  N5  1  0.92368600  0.63495500  0.83611300  1
  N  N6  1  0.42368600  0.63495500  0.66388700  1
  N  N7  1  0.57631400  0.36504500  0.33611300  1
  N  N8  1  0.14838100  0.18219600  0.03118800  1
  N  N9  1  0.85161900  0.81780400  0.96881200  1
  N  N10  1  0.35161900  0.81780400  0.53118800  1
  N  N11  1  0.64838100  0.18219600  0.46881200  1
  N  N12  1  0.17243400  0.12527300  0.14807100  1
  N  N13  1  0.82756600  0.87472700  0.85192900  1
  N  N14  1  0.32756600  0.87472700  0.64807100  1
  N  N15  1  0.67243400  0.12527300  0.35192900  1
  N  N16  1  0.13334600  0.23056300  0.36343300  1
  N  N17  1  0.86665400  0.76943700  0.63656700  1
  N  N18  1  0.36665400  0.76943700  0.86343300  1
  N  N19  1  0.63334600  0.23056300  0.13656700  1
  N  N20  1  0.32988400  0.22944900  0.68014400  1
  N  N21  1  0.67011600  0.77055100  0.31985600  1
  N  N22  1  0.17011600  0.77055100  0.18014400  1
  N  N23  1  0.82988400  0.22944900  0.81985600  1
  N  N24  1  0.06263200  0.71722300  0.29443800  1
  N  N25  1  0.93736800  0.28277700  0.70556200  1
  N  N26  1  0.43736800  0.28277700  0.79443800  1
  N  N27  1  0.56263200  0.71722300  0.20556200  1
  O  O0  1  0.10122900  0.35055600  0.42557100  1
  O  O1  1  0.89877100  0.64944400  0.57442900  1
  O  O2  1  0.39877100  0.64944400  0.92557100  1
  O  O3  1  0.60122900  0.35055600  0.07442900  1
  O  O4  1  0.17098900  0.10282300  0.41163100  1
  O  O5  1  0.82901100  0.89717700  0.58836900  1
  O  O6  1  0.32901100  0.89717700  0.91163100  1
  O  O7  1  0.67098900  0.10282300  0.08836900  1
loop_
_geom_bond_atom_site_label_1
_geom_bond_atom_site_label_2
_geom_bond_distance
_geom_bond_site_symmetry_2
H0 N24 1.028424 1_555
H1 N25 1.028424 1_555
H2 N26 1.028424 1_555
H3 N27 1.028424 1_555
H4 N20 1.058979 1_555
H5 N21 1.058979 1_555
H6 N22 1.058979 1_555
H7 N23 1.058979 1_555
H8 N24 1.031197 1_555
H9 N25 1.031197 1_555
H10 N26 1.031197 1_555
H11 N27 1.031197 1_555
H12 N22 1.040218 1_555
H13 N23 1.040218 1_555
H14 N20 1.040218 1_555
H15 N21 1.040218 1_555
H16 N20 1.050407 1_555
H17 N21 1.050407 1_555
H18 N22 1.050407 1_555
H19 N23 1.050407 1_555
C0 N4 1.338449 1_555
C0 N12 1.342041 1_555
C0 N16 1.436388 1_555
C1 N5 1.338449 1_555
C1 N13 1.342041 1_555
C1 N17 1.436388 1_555
C2 N6 1.338449 1_555
C2 N14 1.342041 1_555
C2 N18 1.436388 1_555
C3 N7 1.338449 1_555
C3 N15 1.342041 1_555
C3 N19 1.436388 1_555
N0 N4 1.336188 1_555
N0 N8 1.340828 1_555
N1 N5 1.336188 1_555
N1 N9 1.340828 1_555
N2 N6 1.336188 1_555
N3 N7 1.336188 1_555
N10 N14 1.333081 1_555
N10 N2 1.340828 1_555
N11 N15 1.333081 1_555
N11 N3 1.340828 1_555
N12 N8 1.333081 1_555
N13 N9 1.333081 1_555
N16 O0 1.242460 1_555
N16 O4 1.245922 1_555
N17 O1 1.242460 1_555
N17 O5 1.245922 1_555
N18 O2 1.242460 1_555
N18 O6 1.245922 1_555
N19 O3 1.242460 1_555
N19 O7 1.245922 1_555
