# generated using pymatgen
data_AlTl2F5
_symmetry_space_group_name_H-M   'P 1'
_cell_length_a   6.21804543
_cell_length_b   6.21804474
_cell_length_c   7.42774887
_cell_angle_alpha   90.00000000
_cell_angle_beta   90.00000000
_cell_angle_gamma   89.27310268
_symmetry_Int_Tables_number   1
_chemical_formula_structural   AlTl2F5
_chemical_formula_sum   'Al2 Tl4 F10'
_cell_volume   287.16399975
_cell_formula_units_Z   2
loop_
 _symmetry_equiv_pos_site_id
 _symmetry_equiv_pos_as_xyz
  1  'x, y, z'
loop_
 _atom_site_type_symbol
 _atom_site_label
 _atom_site_symmetry_multiplicity
 _atom_site_fract_x
 _atom_site_fract_y
 _atom_site_fract_z
 _atom_site_occupancy
  Al  Al0  1  -0.00000000  0.00000000  0.50000000  1
  Al  Al1  1  -0.00000000  0.00000000  -0.00000000  1
  Tl  Tl0  1  0.49498618  0.98243005  0.75000000  1
  Tl  Tl1  1  0.50501382  0.01756995  0.25000000  1
  Tl  Tl2  1  0.98243005  0.49498618  0.75000000  1
  Tl  Tl3  1  0.01756995  0.50501382  0.25000000  1
  F  F0  1  0.79766633  0.79766633  0.48349991  1
  F  F1  1  0.20531703  0.79468297  -0.00000000  1
  F  F2  1  0.98591271  0.98591271  0.75000000  1
  F  F3  1  0.79468297  0.20531703  -0.00000000  1
  F  F4  1  0.79468297  0.20531703  0.50000000  1
  F  F5  1  0.20531703  0.79468297  0.50000000  1
  F  F6  1  0.20233367  0.20233367  0.51650009  1
  F  F7  1  0.79766633  0.79766633  0.01650009  1
  F  F8  1  0.20233367  0.20233367  0.98349991  1
  F  F9  1  0.01408729  0.01408729  0.25000000  1
loop_
_geom_bond_atom_site_label_1
_geom_bond_atom_site_label_2
_geom_bond_distance
_geom_bond_site_symmetry_2
Al0 F4 1.793996 1_455
Al0 F5 1.793996 1_545
Al0 F6 1.794690 1_555
Al0 F0 1.794690 1_445
Al0 F2 1.861117 1_445
Al0 F9 1.861117 1_555
Al1 F3 1.793996 1_455
Al1 F1 1.793996 1_545
Al1 F8 1.794690 1_554
Al1 F7 1.794690 1_445
Al1 F2 1.861117 1_444
Al1 F9 1.861117 1_555
