# generated using pymatgen
data_Nd4Mg
_symmetry_space_group_name_H-M   'P 1'
_cell_length_a   8.17064997
_cell_length_b   8.17064997
_cell_length_c   8.17064997
_cell_angle_alpha   60.00000000
_cell_angle_beta   60.00000000
_cell_angle_gamma   60.00000000
_symmetry_Int_Tables_number   1
_chemical_formula_structural   Nd4Mg
_chemical_formula_sum   'Nd8 Mg2'
_cell_volume   385.70460083
_cell_formula_units_Z   2
loop_
 _symmetry_equiv_pos_site_id
 _symmetry_equiv_pos_as_xyz
  1  'x, y, z'
loop_
 _atom_site_type_symbol
 _atom_site_label
 _atom_site_symmetry_multiplicity
 _atom_site_fract_x
 _atom_site_fract_y
 _atom_site_fract_z
 _atom_site_occupancy
  Nd  Nd0  1  0.60431800  0.60431800  0.60431800  1
  Nd  Nd1  1  0.18704500  0.60431800  0.60431800  1
  Nd  Nd2  1  0.60431800  0.18704500  0.60431800  1
  Nd  Nd3  1  0.56295500  0.14568200  0.14568200  1
  Nd  Nd4  1  0.14568200  0.14568200  0.14568200  1
  Nd  Nd5  1  0.60431800  0.60431800  0.18704500  1
  Nd  Nd6  1  0.14568200  0.56295500  0.14568200  1
  Nd  Nd7  1  0.14568200  0.14568200  0.56295500  1
  Mg  Mg0  1  0.00000000  0.00000000  0.00000000  1
  Mg  Mg1  1  0.75000000  0.75000000  0.75000000  1
loop_
_geom_bond_atom_site_label_1
_geom_bond_atom_site_label_2
_geom_bond_distance
_geom_bond_site_symmetry_2
Nd0 Nd2 3.409392 1_555
Nd0 Nd1 3.409392 1_555
Nd0 Nd5 3.409392 1_555
Nd0 Nd6 4.113190 1_655
Nd0 Nd6 4.113190 1_556
Nd0 Nd7 4.113190 1_565
Nd0 Nd7 4.113190 1_655
Nd0 Nd3 4.113190 1_556
Nd0 Nd3 4.113190 1_565
Nd1 Nd2 3.409392 1_555
Nd1 Nd5 3.409392 1_555
Nd1 Nd6 4.113180 1_555
Nd1 Nd7 4.113180 1_555
Nd1 Nd4 4.113190 1_556
Nd1 Nd4 4.113190 1_565
Nd1 Nd6 4.113196 1_556
Nd1 Nd7 4.113196 1_565
Nd2 Nd5 3.409392 1_555
Nd2 Nd3 4.113180 1_555
Nd2 Nd7 4.113180 1_555
Nd2 Nd4 4.113190 1_556
Nd2 Nd4 4.113190 1_655
Nd2 Nd7 4.113196 1_655
Nd2 Nd3 4.113196 1_556
Nd3 Nd6 3.409392 1_555
Nd3 Nd7 3.409392 1_555
Nd3 Nd4 3.409392 1_555
Nd3 Nd5 4.113180 1_555
Nd3 Nd5 4.113196 1_545
Nd4 Nd6 3.409392 1_555
Nd4 Nd7 3.409392 1_555
Nd4 Nd5 4.113190 1_545
Nd4 Nd5 4.113190 1_455
Nd5 Nd6 4.113180 1_555
Nd5 Nd6 4.113196 1_655
Nd6 Nd7 3.409392 1_555
Mg0 Nd7 2.915662 1_554
Mg0 Nd6 2.915662 1_545
Mg0 Nd3 2.915662 1_455
Mg0 Nd4 2.915668 1_555
Mg1 Nd2 2.915662 1_565
Mg1 Nd5 2.915662 1_556
Mg1 Nd1 2.915662 1_655
Mg1 Nd0 2.915668 1_555
