# generated using pymatgen
data_Nd(Al2Fe)4
_symmetry_space_group_name_H-M   'P 1'
_cell_length_a   5.04994500
_cell_length_b   6.70973632
_cell_length_c   6.70973632
_cell_angle_alpha   81.85882257
_cell_angle_beta   67.89441113
_cell_angle_gamma   67.89441113
_symmetry_Int_Tables_number   1
_chemical_formula_structural   Nd(Al2Fe)4
_chemical_formula_sum   'Nd1 Al8 Fe4'
_cell_volume   195.15551781
_cell_formula_units_Z   1
loop_
 _symmetry_equiv_pos_site_id
 _symmetry_equiv_pos_as_xyz
  1  'x, y, z'
loop_
 _atom_site_type_symbol
 _atom_site_label
 _atom_site_symmetry_multiplicity
 _atom_site_fract_x
 _atom_site_fract_y
 _atom_site_fract_z
 _atom_site_occupancy
  Nd  Nd0  1  0.00000000  0.00000000  0.00000000  1
  Al  Al0  1  0.00000000  0.34206100  0.65793900  1
  Al  Al1  1  0.00000000  0.65793900  0.34206100  1
  Al  Al2  1  0.65793900  0.34206100  0.34206100  1
  Al  Al3  1  0.34206100  0.65793900  0.65793900  1
  Al  Al4  1  0.50000000  0.77667700  0.22332300  1
  Al  Al5  1  0.50000000  0.22332300  0.77667700  1
  Al  Al6  1  0.72332300  0.77667700  0.77667700  1
  Al  Al7  1  0.27667700  0.22332300  0.22332300  1
  Fe  Fe0  1  0.00000000  0.00000000  0.50000000  1
  Fe  Fe1  1  0.50000000  0.00000000  0.50000000  1
  Fe  Fe2  1  0.50000000  0.50000000  0.00000000  1
  Fe  Fe3  1  0.00000000  0.50000000  0.00000000  1
loop_
_geom_bond_atom_site_label_1
_geom_bond_atom_site_label_2
_geom_bond_distance
_geom_bond_site_symmetry_2
Al0 Fe3 2.660744 1_556
Al0 Fe0 2.660744 1_555
Al0 Fe1 2.660744 1_555
Al0 Fe2 2.660744 1_456
Al0 Al5 2.732248 1_555
Al0 Al5 2.732248 1_455
Al0 Al1 2.777036 1_555
Al0 Al6 2.800813 1_455
Al0 Al7 2.800813 1_555
Al0 Nd0 3.007223 1_556
Al1 Fe0 2.660744 1_565
Al1 Fe3 2.660744 1_555
Al1 Fe1 2.660744 1_465
Al1 Fe2 2.660744 1_555
Al1 Al4 2.732248 1_555
Al1 Al4 2.732248 1_455
Al1 Al6 2.800813 1_455
Al1 Al7 2.800813 1_555
Al1 Nd0 3.007223 1_565
Al2 Fe2 2.660744 1_555
Al2 Fe1 2.660744 1_555
Al2 Fe3 2.660744 1_655
Al2 Fe0 2.660744 1_655
Al2 Al7 2.732248 1_555
Al2 Al7 2.732248 1_655
Al2 Al3 2.777036 1_555
Al2 Al5 2.800813 1_555
Al2 Al4 2.800813 1_555
Al2 Nd0 3.007223 1_655
Al3 Fe1 2.660744 1_565
Al3 Fe2 2.660744 1_556
Al3 Fe0 2.660744 1_565
Al3 Fe3 2.660744 1_556
Al3 Al6 2.732248 1_555
Al3 Al6 2.732248 1_455
Al3 Al4 2.800813 1_555
Al3 Al5 2.800813 1_555
Al3 Nd0 3.007223 1_566
Al4 Fe2 2.545488 1_555
Al4 Fe1 2.545488 1_565
Al4 Fe3 2.545488 1_655
Al4 Fe0 2.545488 1_565
Al4 Al7 2.776582 1_565
Al4 Al6 2.776582 1_554
Al4 Nd0 3.198467 1_665
Al4 Nd0 3.198467 1_565
Al5 Fe1 2.545488 1_555
Al5 Fe2 2.545488 1_556
Al5 Fe0 2.545488 1_655
Al5 Fe3 2.545488 1_556
Al5 Al7 2.776582 1_556
Al5 Al6 2.776582 1_545
Al5 Nd0 3.198467 1_556
Al5 Nd0 3.198467 1_656
Al6 Fe1 2.545488 1_565
Al6 Fe2 2.545488 1_556
Al6 Fe3 2.545488 1_656
Al6 Fe0 2.545488 1_665
Al6 Nd0 3.198467 1_666
Al6 Nd0 3.198467 1_566
Al7 Fe2 2.545488 1_555
Al7 Fe1 2.545488 1_555
Al7 Fe3 2.545488 1_555
Al7 Fe0 2.545488 1_555
Al7 Nd0 3.198467 1_555
Al7 Nd0 3.198467 1_655
Fe0 Fe1 2.524973 1_555
Fe0 Fe1 2.524973 1_455
Fe0 Nd0 3.354868 1_555
Fe0 Nd0 3.354868 1_556
Fe1 Nd0 3.354868 1_655
Fe1 Nd0 3.354868 1_556
Fe2 Fe3 2.524973 1_655
Fe2 Fe3 2.524973 1_555
Fe2 Nd0 3.354868 1_655
Fe2 Nd0 3.354868 1_565
Fe3 Nd0 3.354868 1_565
Fe3 Nd0 3.354868 1_555
