# generated using pymatgen
data_Eu2BiAu
_symmetry_space_group_name_H-M   'P 1'
_cell_length_a   5.52002783
_cell_length_b   5.52002783
_cell_length_c   5.52002783
_cell_angle_alpha   60.00000000
_cell_angle_beta   60.00000000
_cell_angle_gamma   60.00000000
_symmetry_Int_Tables_number   1
_chemical_formula_structural   Eu2BiAu
_chemical_formula_sum   'Eu2 Bi1 Au1'
_cell_volume   118.93476087
_cell_formula_units_Z   1
loop_
 _symmetry_equiv_pos_site_id
 _symmetry_equiv_pos_as_xyz
  1  'x, y, z'
loop_
 _atom_site_type_symbol
 _atom_site_label
 _atom_site_symmetry_multiplicity
 _atom_site_fract_x
 _atom_site_fract_y
 _atom_site_fract_z
 _atom_site_occupancy
  Eu  Eu0  1  0.25000000  0.25000000  0.25000000  1
  Eu  Eu1  1  0.75000000  0.75000000  0.75000000  1
  Bi  Bi0  1  -0.00000000  0.00000000  0.00000000  1
  Au  Au0  1  0.50000000  0.50000000  0.50000000  1
loop_
_geom_bond_atom_site_label_1
_geom_bond_atom_site_label_2
_geom_bond_distance
_geom_bond_site_symmetry_2
Bi0 Eu1 3.380313 1_544
Bi0 Eu0 3.380313 1_455
Bi0 Eu0 3.380313 1_555
Bi0 Eu1 3.380313 1_454
Bi0 Eu0 3.380313 1_545
Bi0 Eu1 3.380313 1_444
Bi0 Eu0 3.380313 1_554
Bi0 Eu1 3.380313 1_445
Au0 Eu0 3.380313 1_655
Au0 Eu1 3.380313 1_455
Au0 Eu0 3.380313 1_565
Au0 Eu1 3.380313 1_554
Au0 Eu0 3.380313 1_556
Au0 Eu0 3.380313 1_555
Au0 Eu1 3.380313 1_555
Au0 Eu1 3.380313 1_545
