# generated using pymatgen
data_Dy4In5S13
_symmetry_space_group_name_H-M   'P 1'
_cell_length_a   3.87153300
_cell_length_b   11.87752500
_cell_length_c   21.51993100
_cell_angle_alpha   90.00000000
_cell_angle_beta   90.00000000
_cell_angle_gamma   90.00000000
_symmetry_Int_Tables_number   1
_chemical_formula_structural   Dy4In5S13
_chemical_formula_sum   'Dy8 In10 S26'
_cell_volume   989.57745660
_cell_formula_units_Z   2
loop_
 _symmetry_equiv_pos_site_id
 _symmetry_equiv_pos_as_xyz
  1  'x, y, z'
loop_
 _atom_site_type_symbol
 _atom_site_label
 _atom_site_symmetry_multiplicity
 _atom_site_fract_x
 _atom_site_fract_y
 _atom_site_fract_z
 _atom_site_occupancy
  Dy  Dy0  1  0.00000000  0.67196900  0.34041200  1
  Dy  Dy1  1  0.00000000  0.32803100  0.65958800  1
  Dy  Dy2  1  0.00000000  0.82803100  0.84041200  1
  Dy  Dy3  1  0.00000000  0.17196900  0.15958800  1
  Dy  Dy4  1  0.00000000  0.51512400  0.17182100  1
  Dy  Dy5  1  0.00000000  0.48487600  0.82817900  1
  Dy  Dy6  1  0.00000000  0.98487600  0.67182100  1
  Dy  Dy7  1  0.00000000  0.01512400  0.32817900  1
  In  In0  1  0.00000000  0.50000000  0.50000000  1
  In  In1  1  0.00000000  0.00000000  0.00000000  1
  In  In2  1  0.50000000  0.84472500  0.49339900  1
  In  In3  1  0.50000000  0.15527500  0.50660100  1
  In  In4  1  0.50000000  0.65527500  0.99339900  1
  In  In5  1  0.50000000  0.34472500  0.00660100  1
  In  In6  1  0.50000000  0.84406900  0.17078600  1
  In  In7  1  0.50000000  0.15593100  0.82921400  1
  In  In8  1  0.50000000  0.65593100  0.67078600  1
  In  In9  1  0.50000000  0.34406900  0.32921400  1
  S  S0  1  0.50000000  0.84863800  0.36566600  1
  S  S1  1  0.50000000  0.15136200  0.63433400  1
  S  S2  1  0.50000000  0.65136200  0.86566600  1
  S  S3  1  0.50000000  0.34863800  0.13433400  1
  S  S4  1  0.50000000  0.58014200  0.26107100  1
  S  S5  1  0.50000000  0.41985800  0.73892900  1
  S  S6  1  0.50000000  0.91985800  0.76107100  1
  S  S7  1  0.50000000  0.08014200  0.23892900  1
  S  S8  1  0.50000000  0.50516200  0.40539900  1
  S  S9  1  0.50000000  0.49483800  0.59460100  1
  S  S10  1  0.50000000  0.99483800  0.90539900  1
  S  S11  1  0.50000000  0.00516200  0.09460100  1
  S  S12  1  0.00000000  0.70330000  0.47288000  1
  S  S13  1  0.00000000  0.29670000  0.52712000  1
  S  S14  1  0.00000000  0.79670000  0.97288000  1
  S  S15  1  0.00000000  0.20330000  0.02712000  1
  S  S16  1  0.00000000  0.83256400  0.24276800  1
  S  S17  1  0.00000000  0.16743600  0.75723200  1
  S  S18  1  0.00000000  0.66743600  0.74276800  1
  S  S19  1  0.00000000  0.33256400  0.25723200  1
  S  S20  1  0.50000000  0.65572000  0.11542400  1
  S  S21  1  0.50000000  0.34428000  0.88457600  1
  S  S22  1  0.50000000  0.84428000  0.61542400  1
  S  S23  1  0.50000000  0.15572000  0.38457600  1
  S  S24  1  0.00000000  0.00000000  0.50000000  1
  S  S25  1  0.00000000  0.50000000  0.00000000  1
loop_
_geom_bond_atom_site_label_1
_geom_bond_atom_site_label_2
_geom_bond_distance
_geom_bond_site_symmetry_2
Dy0 S4 2.802147 1_555
Dy0 S4 2.802147 1_455
Dy0 S16 2.837935 1_555
Dy0 S12 2.874889 1_555
Dy0 S0 2.906164 1_555
Dy0 S0 2.906164 1_455
Dy0 S8 3.102967 1_455
Dy0 S8 3.102967 1_555
Dy1 S5 2.802147 1_455
Dy1 S5 2.802147 1_555
Dy1 S17 2.837935 1_555
Dy1 S13 2.874889 1_555
Dy1 S1 2.906164 1_555
Dy1 S1 2.906164 1_455
Dy1 S9 3.102967 1_455
Dy1 S9 3.102967 1_555
Dy2 S6 2.802147 1_455
Dy2 S6 2.802147 1_555
Dy2 S18 2.837935 1_555
Dy2 S14 2.874889 1_555
Dy2 S2 2.906164 1_455
Dy2 S2 2.906164 1_555
Dy2 S10 3.102967 1_455
Dy2 S10 3.102967 1_555
Dy3 S7 2.802147 1_455
Dy3 S7 2.802147 1_555
Dy3 S19 2.837935 1_555
Dy3 S15 2.874889 1_555
Dy3 S3 2.906164 1_455
Dy3 S3 2.906164 1_555
Dy3 S11 3.102967 1_555
Dy3 S11 3.102967 1_455
Dy4 S20 2.829989 1_555
Dy4 S20 2.829989 1_455
Dy4 S4 2.834163 1_455
Dy4 S4 2.834163 1_555
Dy4 S19 2.842565 1_555
Dy4 S3 2.882405 1_455
Dy4 S3 2.882405 1_555
Dy5 S21 2.829989 1_555
Dy5 S21 2.829989 1_455
Dy5 S5 2.834163 1_455
Dy5 S5 2.834163 1_555
Dy5 S18 2.842565 1_555
Dy5 S2 2.882405 1_455
Dy5 S2 2.882405 1_555
Dy6 S22 2.829989 1_455
Dy6 S22 2.829989 1_555
Dy6 S6 2.834163 1_555
Dy6 S6 2.834163 1_455
Dy6 S17 2.842565 1_565
Dy6 S1 2.882405 1_565
Dy6 S1 2.882405 1_465
Dy7 S23 2.829989 1_455
Dy7 S23 2.829989 1_555
Dy7 S7 2.834163 1_555
Dy7 S7 2.834163 1_455
Dy7 S16 2.842565 1_545
Dy7 S0 2.882405 1_445
Dy7 S0 2.882405 1_545
In0 S13 2.484229 1_555
In0 S12 2.484229 1_555
In0 S9 2.809886 1_455
In0 S9 2.809886 1_555
In0 S8 2.809886 1_555
In0 S8 2.809886 1_455
In1 S14 2.484229 1_544
In1 S15 2.484229 1_555
In1 S11 2.809886 1_555
In1 S11 2.809886 1_455
In1 S10 2.809886 1_444
In1 S10 2.809886 1_544
In2 S12 2.600737 1_555
In2 S12 2.600737 1_655
In2 S22 2.625975 1_555
In2 S24 2.677452 1_665
In2 S24 2.677452 1_565
In2 S0 2.749198 1_555
In3 S13 2.600737 1_555
In3 S13 2.600737 1_655
In3 S23 2.625975 1_555
In3 S24 2.677452 1_555
In3 S24 2.677452 1_655
In3 S1 2.749198 1_555
In4 S14 2.600737 1_555
In4 S14 2.600737 1_655
In4 S20 2.625975 1_556
In4 S25 2.677452 1_556
In4 S25 2.677452 1_656
In4 S2 2.749198 1_555
In5 S15 2.600737 1_555
In5 S15 2.600737 1_655
In5 S21 2.625975 1_554
In5 S25 2.677452 1_655
In5 S25 2.677452 1_555
In5 S3 2.749198 1_555
In6 S16 2.483025 1_655
In6 S16 2.483025 1_555
In6 S11 2.519721 1_565
In6 S20 2.534582 1_555
In7 S17 2.483025 1_555
In7 S17 2.483025 1_655
In7 S10 2.519721 1_545
In7 S21 2.534582 1_555
In8 S18 2.483025 1_655
In8 S18 2.483025 1_555
In8 S9 2.519721 1_555
In8 S22 2.534582 1_555
In9 S19 2.483025 1_555
In9 S19 2.483025 1_655
In9 S8 2.519721 1_555
In9 S23 2.534582 1_555
