# generated using pymatgen
data_BaH6(C2O5)2
_symmetry_space_group_name_H-M   'P 1'
_cell_length_a   7.78801498
_cell_length_b   7.78801498
_cell_length_c   12.56105459
_cell_angle_alpha   66.04131716
_cell_angle_beta   66.04131716
_cell_angle_gamma   41.20567411
_symmetry_Int_Tables_number   1
_chemical_formula_structural   BaH6(C2O5)2
_chemical_formula_sum   'Ba2 H12 C8 O20'
_cell_volume   452.20263875
_cell_formula_units_Z   2
loop_
 _symmetry_equiv_pos_site_id
 _symmetry_equiv_pos_as_xyz
  1  'x, y, z'
loop_
 _atom_site_type_symbol
 _atom_site_label
 _atom_site_symmetry_multiplicity
 _atom_site_fract_x
 _atom_site_fract_y
 _atom_site_fract_z
 _atom_site_occupancy
  Ba  Ba0  1  0.82658200  0.17341800  0.25000000  1
  Ba  Ba1  1  0.17341800  0.82658200  0.75000000  1
  H  H0  1  0.20294400  0.01474100  0.95679400  1
  H  H1  1  0.98525900  0.79705600  0.54320600  1
  H  H2  1  0.79705600  0.98525900  0.04320600  1
  H  H3  1  0.01474100  0.20294400  0.45679400  1
  H  H4  1  0.44506800  0.92320600  0.18817500  1
  H  H5  1  0.07679400  0.55493200  0.31182500  1
  H  H6  1  0.55493200  0.07679400  0.81182500  1
  H  H7  1  0.92320600  0.44506800  0.68817500  1
  H  H8  1  0.30236500  0.14078200  0.25716800  1
  H  H9  1  0.85921800  0.69763500  0.24283200  1
  H  H10  1  0.69763500  0.85921800  0.74283200  1
  H  H11  1  0.14078200  0.30236500  0.75716800  1
  C  C0  1  0.92370000  0.60636100  0.03776100  1
  C  C1  1  0.39363900  0.07630000  0.46223900  1
  C  C2  1  0.07630000  0.39363900  0.96223900  1
  C  C3  1  0.60636100  0.92370000  0.53776100  1
  C  C4  1  0.41720600  0.63228300  0.01798400  1
  C  C5  1  0.36771700  0.58279400  0.48201600  1
  C  C6  1  0.58279400  0.36771700  0.98201600  1
  C  C7  1  0.63228300  0.41720600  0.51798400  1
  O  O0  1  0.37975500  0.64662900  0.12043500  1
  O  O1  1  0.35337100  0.62024500  0.37956500  1
  O  O2  1  0.62024500  0.35337100  0.87956500  1
  O  O3  1  0.64662900  0.37975500  0.62043500  1
  O  O4  1  0.77625100  0.61754300  0.13346800  1
  O  O5  1  0.38245700  0.22374900  0.36653200  1
  O  O6  1  0.22374900  0.38245700  0.86653200  1
  O  O7  1  0.61754300  0.77625100  0.63346800  1
  O  O8  1  0.03592500  0.24453600  0.00480600  1
  O  O9  1  0.75546400  0.96407500  0.49519400  1
  O  O10  1  0.96407500  0.75546400  0.99519400  1
  O  O11  1  0.24453600  0.03592500  0.50480600  1
  O  O12  1  0.26961100  0.09097400  0.21330300  1
  O  O13  1  0.90902600  0.73038900  0.28669700  1
  O  O14  1  0.73038900  0.90902600  0.78669700  1
  O  O15  1  0.09097400  0.26961100  0.71330300  1
  O  O16  1  0.32634300  0.82958700  0.92838500  1
  O  O17  1  0.17041300  0.67365700  0.57161500  1
  O  O18  1  0.67365700  0.17041300  0.07161500  1
  O  O19  1  0.82958700  0.32634300  0.42838500  1
loop_
_geom_bond_atom_site_label_1
_geom_bond_atom_site_label_2
_geom_bond_distance
_geom_bond_site_symmetry_2
Ba0 O12 2.853885 1_655
Ba0 O13 2.853885 1_545
Ba0 O8 2.888915 1_655
Ba0 O9 2.888915 1_545
Ba0 O4 2.928128 1_555
Ba0 O5 2.928128 1_555
Ba0 O19 2.948155 1_555
Ba0 O18 2.948155 1_555
Ba0 O1 2.961653 1_555
Ba0 O0 2.961653 1_555
Ba0 O0 3.342689 1_645
Ba0 O1 3.342689 1_645
Ba1 O14 2.853885 1_455
Ba1 O15 2.853885 1_565
Ba1 O11 2.888915 1_565
Ba1 O10 2.888915 1_455
Ba1 O6 2.928128 1_555
Ba1 O7 2.928128 1_555
Ba1 O16 2.948155 1_555
Ba1 O17 2.948155 1_555
Ba1 O2 2.961653 1_555
Ba1 O3 2.961653 1_555
Ba1 O3 3.342689 1_465
Ba1 O2 3.342689 1_465
H0 O16 1.088312 1_545
H0 O8 1.412512 1_556
H1 O17 1.088312 1_655
H1 O9 1.412512 1_555
H2 O18 1.088312 1_565
H2 O10 1.412512 1_554
H3 O19 1.088312 1_455
H3 O11 1.412512 1_555
H4 O12 0.985985 1_565
H5 O13 0.985985 1_455
H6 O14 0.985985 1_545
H7 O15 0.985985 1_655
H8 O12 0.977627 1_555
H9 O13 0.977627 1_555
H10 O14 0.977627 1_555
H11 O15 0.977627 1_555
C0 O4 1.258913 1_555
C0 O10 1.281328 1_554
C1 O5 1.258913 1_555
C1 O11 1.281328 1_555
C2 O6 1.258913 1_555
C2 O8 1.281328 1_556
C3 O7 1.258913 1_555
C3 O9 1.281328 1_555
C4 O0 1.231481 1_555
C4 O16 1.317080 1_554
C5 O1 1.231481 1_555
C5 O17 1.317080 1_555
C6 O2 1.231481 1_555
C6 O18 1.317080 1_556
C7 O3 1.231481 1_555
C7 O19 1.317080 1_555
