# generated using pymatgen
data_CaMg
_symmetry_space_group_name_H-M   'P 1'
_cell_length_a   14.18828100
_cell_length_b   14.18828100
_cell_length_c   16.10167626
_cell_angle_alpha   75.78767876
_cell_angle_beta   75.78767876
_cell_angle_gamma   29.26227481
_symmetry_Int_Tables_number   1
_chemical_formula_structural   CaMg
_chemical_formula_sum   'Ca24 Mg24'
_cell_volume   1532.55973829
_cell_formula_units_Z   24
loop_
 _symmetry_equiv_pos_site_id
 _symmetry_equiv_pos_as_xyz
  1  'x, y, z'
loop_
 _atom_site_type_symbol
 _atom_site_label
 _atom_site_symmetry_multiplicity
 _atom_site_fract_x
 _atom_site_fract_y
 _atom_site_fract_z
 _atom_site_occupancy
  Ca  Ca0_0  1  0.30136250  0.30136250  0.13817800  1
  Ca  Ca0_1  1  0.30136250  0.30136250  0.63817800  1
  Ca  Ca0_2  1  0.30136250  0.80136250  0.13817800  1
  Ca  Ca0_3  1  0.30136250  0.80136250  0.63817800  1
  Ca  Ca0_4  1  0.80136250  0.30136250  0.13817800  1
  Ca  Ca0_5  1  0.80136250  0.30136250  0.63817800  1
  Ca  Ca0_6  1  0.80136250  0.80136250  0.13817800  1
  Ca  Ca0_7  1  0.80136250  0.80136250  0.63817800  1
  Ca  Ca1_0  1  0.16708900  0.16708900  0.18002450  1
  Ca  Ca1_1  1  0.16708900  0.16708900  0.68002450  1
  Ca  Ca1_2  1  0.16708900  0.66708900  0.18002450  1
  Ca  Ca1_3  1  0.16708900  0.66708900  0.68002450  1
  Ca  Ca1_4  1  0.66708900  0.16708900  0.18002450  1
  Ca  Ca1_5  1  0.66708900  0.16708900  0.68002450  1
  Ca  Ca1_6  1  0.66708900  0.66708900  0.18002450  1
  Ca  Ca1_7  1  0.66708900  0.66708900  0.68002450  1
  Ca  Ca2_0  1  0.14400700  0.14400700  0.45586450  1
  Ca  Ca2_1  1  0.14400700  0.14400700  0.95586450  1
  Ca  Ca2_2  1  0.14400700  0.64400700  0.45586450  1
  Ca  Ca2_3  1  0.14400700  0.64400700  0.95586450  1
  Ca  Ca2_4  1  0.64400700  0.14400700  0.45586450  1
  Ca  Ca2_5  1  0.64400700  0.14400700  0.95586450  1
  Ca  Ca2_6  1  0.64400700  0.64400700  0.45586450  1
  Ca  Ca2_7  1  0.64400700  0.64400700  0.95586450  1
  Mg  Mg0_0  1  0.49993300  0.49993300  0.49567000  1
  Mg  Mg0_1  1  0.49993300  0.49993300  0.99567000  1
  Mg  Mg0_2  1  0.49993300  0.99993300  0.49567000  1
  Mg  Mg0_3  1  0.49993300  0.99993300  0.99567000  1
  Mg  Mg0_4  1  0.99993300  0.49993300  0.49567000  1
  Mg  Mg0_5  1  0.99993300  0.49993300  0.99567000  1
  Mg  Mg0_6  1  0.99993300  0.99993300  0.49567000  1
  Mg  Mg0_7  1  0.99993300  0.99993300  0.99567000  1
  Mg  Mg1_0  1  0.47953000  0.47953000  0.30776700  1
  Mg  Mg1_1  1  0.47953000  0.47953000  0.80776700  1
  Mg  Mg1_2  1  0.47953000  0.97953000  0.30776700  1
  Mg  Mg1_3  1  0.47953000  0.97953000  0.80776700  1
  Mg  Mg1_4  1  0.97953000  0.47953000  0.30776700  1
  Mg  Mg1_5  1  0.97953000  0.47953000  0.80776700  1
  Mg  Mg1_6  1  0.97953000  0.97953000  0.30776700  1
  Mg  Mg1_7  1  0.97953000  0.97953000  0.80776700  1
  Mg  Mg2_0  1  0.32474450  0.32474450  0.33916300  1
  Mg  Mg2_1  1  0.32474450  0.32474450  0.83916300  1
  Mg  Mg2_2  1  0.32474450  0.82474450  0.33916300  1
  Mg  Mg2_3  1  0.32474450  0.82474450  0.83916300  1
  Mg  Mg2_4  1  0.82474450  0.32474450  0.33916300  1
  Mg  Mg2_5  1  0.82474450  0.32474450  0.83916300  1
  Mg  Mg2_6  1  0.82474450  0.82474450  0.33916300  1
  Mg  Mg2_7  1  0.82474450  0.82474450  0.83916300  1
loop_
_geom_bond_atom_site_label_1
_geom_bond_atom_site_label_2
_geom_bond_distance
_geom_bond_site_symmetry_2
Ca0_0 Mg1_2 3.438648 1_545
Ca0_0 Mg1_4 3.438648 1_455
Ca0_0 Mg2_0 3.455352 1_555
Ca0_0 Mg0_3 3.480606 1_544
Ca0_0 Mg0_5 3.480606 1_454
Ca0_0 Ca1_0 3.575591 1_555
Ca0_0 Ca2_5 3.809118 1_554
Ca0_0 Ca2_3 3.809118 1_554
Ca0_0 Ca1_4 3.853263 1_555
Ca0_0 Ca1_2 3.853263 1_555
Ca0_1 Mg1_3 3.438648 1_545
Ca0_1 Mg1_5 3.438648 1_455
Ca0_1 Mg2_1 3.455352 1_555
Ca0_1 Mg0_2 3.480606 1_545
Ca0_1 Mg0_4 3.480606 1_455
Ca0_1 Ca1_1 3.575591 1_555
Ca0_1 Ca2_4 3.809118 1_555
Ca0_1 Ca2_2 3.809118 1_555
Ca0_1 Ca1_5 3.853263 1_555
Ca0_1 Ca1_3 3.853263 1_555
Ca0_2 Mg1_0 3.438648 1_555
Ca0_2 Mg1_6 3.438648 1_455
Ca0_2 Mg2_2 3.455352 1_555
Ca0_2 Mg0_1 3.480606 1_554
Ca0_2 Mg0_7 3.480606 1_454
Ca0_2 Ca1_2 3.575591 1_555
Ca0_2 Ca2_7 3.809118 1_554
Ca0_2 Ca2_1 3.809118 1_564
Ca0_2 Ca1_6 3.853263 1_555
Ca0_2 Ca1_0 3.853263 1_565
Ca0_3 Mg1_7 3.438648 1_455
Ca0_3 Mg1_1 3.438648 1_555
Ca0_3 Mg2_3 3.455352 1_555
Ca0_3 Mg0_6 3.480606 1_455
Ca0_3 Mg0_0 3.480606 1_555
Ca0_3 Ca1_3 3.575591 1_555
Ca0_3 Ca2_0 3.809118 1_565
Ca0_3 Ca2_6 3.809118 1_555
Ca0_3 Ca1_1 3.853263 1_565
Ca0_3 Ca1_7 3.853263 1_555
Ca0_4 Mg1_0 3.438648 1_555
Ca0_4 Mg1_6 3.438648 1_545
Ca0_4 Mg2_4 3.455352 1_555
Ca0_4 Mg0_1 3.480606 1_554
Ca0_4 Mg0_7 3.480606 1_544
Ca0_4 Ca1_4 3.575591 1_555
Ca0_4 Ca2_7 3.809118 1_554
Ca0_4 Ca2_1 3.809118 1_654
Ca0_4 Ca1_6 3.853263 1_555
Ca0_4 Ca1_0 3.853263 1_655
Ca0_5 Mg1_7 3.438648 1_545
Ca0_5 Mg1_1 3.438648 1_555
Ca0_5 Mg2_5 3.455352 1_555
Ca0_5 Mg0_6 3.480606 1_545
Ca0_5 Mg0_0 3.480606 1_555
Ca0_5 Ca1_5 3.575591 1_555
Ca0_5 Ca2_0 3.809118 1_655
Ca0_5 Ca2_6 3.809118 1_555
Ca0_5 Ca1_1 3.853263 1_655
Ca0_5 Ca1_7 3.853263 1_555
Ca0_6 Mg1_2 3.438648 1_555
Ca0_6 Mg1_4 3.438648 1_555
Ca0_6 Mg2_6 3.455352 1_555
Ca0_6 Mg0_3 3.480606 1_554
Ca0_6 Mg0_5 3.480606 1_554
Ca0_6 Ca1_6 3.575591 1_555
Ca0_6 Ca2_3 3.809118 1_654
Ca0_6 Ca2_5 3.809118 1_564
Ca0_6 Ca1_4 3.853263 1_565
Ca0_6 Ca1_2 3.853263 1_655
Ca0_7 Mg1_5 3.438648 1_555
Ca0_7 Mg1_3 3.438648 1_555
Ca0_7 Mg2_7 3.455352 1_555
Ca0_7 Mg0_2 3.480606 1_555
Ca0_7 Mg0_4 3.480606 1_555
Ca0_7 Ca1_7 3.575591 1_555
Ca0_7 Ca2_4 3.809118 1_565
Ca0_7 Ca2_2 3.809118 1_655
Ca0_7 Ca1_5 3.853263 1_565
Ca0_7 Ca1_3 3.853263 1_655
Ca1_0 Mg1_4 3.488626 1_455
Ca1_0 Mg1_2 3.488626 1_545
Ca1_0 Ca1_6 3.583892 1_545
Ca1_0 Ca1_6 3.583892 1_455
Ca1_0 Mg2_2 3.592822 1_545
Ca1_0 Mg2_4 3.592822 1_455
Ca1_0 Mg0_5 3.710770 1_454
Ca1_0 Mg0_3 3.710770 1_544
Ca1_0 Ca2_1 3.819672 1_554
Ca1_1 Mg1_3 3.488626 1_545
Ca1_1 Mg1_5 3.488626 1_455
Ca1_1 Ca1_7 3.583892 1_455
Ca1_1 Ca1_7 3.583892 1_545
Ca1_1 Mg2_3 3.592822 1_545
Ca1_1 Mg2_5 3.592822 1_455
Ca1_1 Mg0_2 3.710770 1_545
Ca1_1 Mg0_4 3.710770 1_455
Ca1_1 Ca2_0 3.819672 1_555
Ca1_2 Mg1_0 3.488626 1_555
Ca1_2 Mg1_6 3.488626 1_455
Ca1_2 Ca1_4 3.583892 1_555
Ca1_2 Ca1_4 3.583892 1_465
Ca1_2 Mg2_6 3.592822 1_455
Ca1_2 Mg2_0 3.592822 1_555
Ca1_2 Mg0_7 3.710770 1_454
Ca1_2 Mg0_1 3.710770 1_554
Ca1_2 Ca2_3 3.819672 1_554
Ca1_3 Mg1_1 3.488626 1_555
Ca1_3 Mg1_7 3.488626 1_455
Ca1_3 Ca1_5 3.583892 1_555
Ca1_3 Ca1_5 3.583892 1_465
Ca1_3 Mg2_1 3.592822 1_555
Ca1_3 Mg2_7 3.592822 1_455
Ca1_3 Mg0_0 3.710770 1_555
Ca1_3 Mg0_6 3.710770 1_455
Ca1_3 Ca2_2 3.819672 1_555
Ca1_4 Mg1_6 3.488626 1_545
Ca1_4 Mg1_0 3.488626 1_555
Ca1_4 Mg2_6 3.592822 1_545
Ca1_4 Mg2_0 3.592822 1_555
Ca1_4 Mg0_7 3.710770 1_544
Ca1_4 Mg0_1 3.710770 1_554
Ca1_4 Ca2_5 3.819672 1_554
Ca1_5 Mg1_1 3.488626 1_555
Ca1_5 Mg1_7 3.488626 1_545
Ca1_5 Mg2_1 3.592822 1_555
Ca1_5 Mg2_7 3.592822 1_545
Ca1_5 Mg0_0 3.710770 1_555
Ca1_5 Mg0_6 3.710770 1_545
Ca1_5 Ca2_4 3.819672 1_555
Ca1_6 Mg1_4 3.488626 1_555
Ca1_6 Mg1_2 3.488626 1_555
Ca1_6 Mg2_2 3.592822 1_555
Ca1_6 Mg2_4 3.592822 1_555
Ca1_6 Mg0_3 3.710770 1_554
Ca1_6 Mg0_5 3.710770 1_554
Ca1_6 Ca2_7 3.819672 1_554
Ca1_7 Mg1_3 3.488626 1_555
Ca1_7 Mg1_5 3.488626 1_555
Ca1_7 Mg2_3 3.592822 1_555
Ca1_7 Mg2_5 3.592822 1_555
Ca1_7 Mg0_2 3.710770 1_555
Ca1_7 Mg0_4 3.710770 1_555
Ca1_7 Ca2_6 3.819672 1_555
Ca2_0 Mg1_2 3.401416 1_545
Ca2_0 Mg1_4 3.401416 1_455
Ca2_0 Mg2_2 3.488838 1_545
Ca2_0 Mg2_4 3.488838 1_455
Ca2_0 Ca2_6 3.583892 1_545
Ca2_0 Ca2_6 3.583892 1_455
Ca2_0 Mg0_2 3.609199 1_545
Ca2_0 Mg0_4 3.609199 1_455
Ca2_0 Mg0_6 3.843445 1_445
Ca2_1 Mg1_3 3.401416 1_545
Ca2_1 Mg1_5 3.401416 1_455
Ca2_1 Mg2_3 3.488838 1_545
Ca2_1 Mg2_5 3.488838 1_455
Ca2_1 Ca2_7 3.583892 1_455
Ca2_1 Ca2_7 3.583892 1_545
Ca2_1 Mg0_5 3.609199 1_455
Ca2_1 Mg0_3 3.609199 1_545
Ca2_1 Mg0_7 3.843445 1_445
Ca2_2 Mg1_0 3.401416 1_555
Ca2_2 Mg1_6 3.401416 1_455
Ca2_2 Mg2_6 3.488838 1_455
Ca2_2 Mg2_0 3.488838 1_555
Ca2_2 Ca2_4 3.583892 1_555
Ca2_2 Ca2_4 3.583892 1_465
Ca2_2 Mg0_0 3.609199 1_555
Ca2_2 Mg0_6 3.609199 1_455
Ca2_2 Mg0_4 3.843445 1_455
Ca2_3 Mg1_1 3.401416 1_555
Ca2_3 Mg1_7 3.401416 1_455
Ca2_3 Mg2_1 3.488838 1_555
Ca2_3 Mg2_7 3.488838 1_455
Ca2_3 Ca2_5 3.583892 1_555
Ca2_3 Ca2_5 3.583892 1_465
Ca2_3 Mg0_7 3.609199 1_455
Ca2_3 Mg0_1 3.609199 1_555
Ca2_3 Mg0_5 3.843445 1_455
Ca2_4 Mg1_0 3.401416 1_555
Ca2_4 Mg1_6 3.401416 1_545
Ca2_4 Mg2_6 3.488838 1_545
Ca2_4 Mg2_0 3.488838 1_555
Ca2_4 Mg0_0 3.609199 1_555
Ca2_4 Mg0_6 3.609199 1_545
Ca2_4 Mg0_2 3.843445 1_545
Ca2_5 Mg1_1 3.401416 1_555
Ca2_5 Mg1_7 3.401416 1_545
Ca2_5 Mg2_1 3.488838 1_555
Ca2_5 Mg2_7 3.488838 1_545
Ca2_5 Mg0_7 3.609199 1_545
Ca2_5 Mg0_1 3.609199 1_555
Ca2_5 Mg0_3 3.843445 1_545
Ca2_6 Mg1_4 3.401416 1_555
Ca2_6 Mg1_2 3.401416 1_555
Ca2_6 Mg2_2 3.488838 1_555
Ca2_6 Mg2_4 3.488838 1_555
Ca2_6 Mg0_4 3.609199 1_555
Ca2_6 Mg0_2 3.609199 1_555
Ca2_6 Mg0_0 3.843445 1_555
Ca2_7 Mg1_3 3.401416 1_555
Ca2_7 Mg1_5 3.401416 1_555
Ca2_7 Mg2_3 3.488838 1_555
Ca2_7 Mg2_5 3.488838 1_555
Ca2_7 Mg0_5 3.609199 1_555
Ca2_7 Mg0_3 3.609199 1_555
Ca2_7 Mg0_1 3.843445 1_555
Mg0_0 Mg1_0 3.213709 1_555
Mg0_0 Mg2_4 3.339735 1_555
Mg0_0 Mg2_2 3.339735 1_555
Mg0_1 Mg1_1 3.213709 1_555
Mg0_1 Mg2_5 3.339735 1_555
Mg0_1 Mg2_3 3.339735 1_555
Mg0_2 Mg1_2 3.213709 1_555
Mg0_2 Mg2_0 3.339735 1_565
Mg0_2 Mg2_6 3.339735 1_555
Mg0_3 Mg1_3 3.213709 1_555
Mg0_3 Mg2_7 3.339735 1_555
Mg0_3 Mg2_1 3.339735 1_565
Mg0_4 Mg1_4 3.213709 1_555
Mg0_4 Mg2_0 3.339735 1_655
Mg0_4 Mg2_6 3.339735 1_555
Mg0_5 Mg1_5 3.213709 1_555
Mg0_5 Mg2_7 3.339735 1_555
Mg0_5 Mg2_1 3.339735 1_655
Mg0_6 Mg1_6 3.213709 1_555
Mg0_6 Mg2_4 3.339735 1_565
Mg0_6 Mg2_2 3.339735 1_655
Mg0_7 Mg1_7 3.213709 1_555
Mg0_7 Mg2_5 3.339735 1_565
Mg0_7 Mg2_3 3.339735 1_655
Mg1_0 Mg2_4 3.312339 1_555
Mg1_0 Mg2_2 3.312339 1_555
Mg1_1 Mg2_5 3.312339 1_555
Mg1_1 Mg2_3 3.312339 1_555
Mg1_2 Mg2_0 3.312339 1_565
Mg1_2 Mg2_6 3.312339 1_555
Mg1_3 Mg2_7 3.312339 1_555
Mg1_3 Mg2_1 3.312339 1_565
Mg1_4 Mg2_0 3.312339 1_655
Mg1_4 Mg2_6 3.312339 1_555
Mg1_5 Mg2_7 3.312339 1_555
Mg1_5 Mg2_1 3.312339 1_655
Mg1_6 Mg2_4 3.312339 1_565
Mg1_6 Mg2_2 3.312339 1_655
Mg1_7 Mg2_5 3.312339 1_565
Mg1_7 Mg2_3 3.312339 1_655
