# generated using pymatgen
data_TiNi
_symmetry_space_group_name_H-M   'P 1'
_cell_length_a   5.59977200
_cell_length_b   8.34218027
_cell_length_c   9.34195847
_cell_angle_alpha   89.89054516
_cell_angle_beta   95.55133370
_cell_angle_gamma   89.98201905
_symmetry_Int_Tables_number   1
_chemical_formula_structural   TiNi
_chemical_formula_sum   'Ti16 Ni16'
_cell_volume   434.35551081
_cell_formula_units_Z   16
loop_
 _symmetry_equiv_pos_site_id
 _symmetry_equiv_pos_as_xyz
  1  'x, y, z'
loop_
 _atom_site_type_symbol
 _atom_site_label
 _atom_site_symmetry_multiplicity
 _atom_site_fract_x
 _atom_site_fract_y
 _atom_site_fract_z
 _atom_site_occupancy
  Ti  Ti0_0  1  0.28230400  0.12522350  0.14416100  1
  Ti  Ti0_1  1  0.28230400  0.12522350  0.64416100  1
  Ti  Ti0_2  1  0.28230400  0.62522350  0.14416100  1
  Ti  Ti0_3  1  0.28230400  0.62522350  0.64416100  1
  Ti  Ti0_4  1  0.78230400  0.12522350  0.14416100  1
  Ti  Ti0_5  1  0.78230400  0.12522350  0.64416100  1
  Ti  Ti0_6  1  0.78230400  0.62522350  0.14416100  1
  Ti  Ti0_7  1  0.78230400  0.62522350  0.64416100  1
  Ti  Ti1_0  1  0.21769600  0.37477650  0.35583900  1
  Ti  Ti1_1  1  0.21769600  0.37477650  0.85583900  1
  Ti  Ti1_2  1  0.21769600  0.87477650  0.35583900  1
  Ti  Ti1_3  1  0.21769600  0.87477650  0.85583900  1
  Ti  Ti1_4  1  0.71769600  0.37477650  0.35583900  1
  Ti  Ti1_5  1  0.71769600  0.37477650  0.85583900  1
  Ti  Ti1_6  1  0.71769600  0.87477650  0.35583900  1
  Ti  Ti1_7  1  0.71769600  0.87477650  0.85583900  1
  Ni  Ni0_0  1  0.01047950  0.37527000  0.08902350  1
  Ni  Ni0_1  1  0.01047950  0.37527000  0.58902350  1
  Ni  Ni0_2  1  0.01047950  0.87527000  0.08902350  1
  Ni  Ni0_3  1  0.01047950  0.87527000  0.58902350  1
  Ni  Ni0_4  1  0.51047950  0.37527000  0.08902350  1
  Ni  Ni0_5  1  0.51047950  0.37527000  0.58902350  1
  Ni  Ni0_6  1  0.51047950  0.87527000  0.08902350  1
  Ni  Ni0_7  1  0.51047950  0.87527000  0.58902350  1
  Ni  Ni1_0  1  0.48952050  0.12473000  0.41097650  1
  Ni  Ni1_1  1  0.48952050  0.12473000  0.91097650  1
  Ni  Ni1_2  1  0.48952050  0.62473000  0.41097650  1
  Ni  Ni1_3  1  0.48952050  0.62473000  0.91097650  1
  Ni  Ni1_4  1  0.98952050  0.12473000  0.41097650  1
  Ni  Ni1_5  1  0.98952050  0.12473000  0.91097650  1
  Ni  Ni1_6  1  0.98952050  0.62473000  0.41097650  1
  Ni  Ni1_7  1  0.98952050  0.62473000  0.91097650  1
loop_
_geom_bond_atom_site_label_1
_geom_bond_atom_site_label_2
_geom_bond_distance
_geom_bond_site_symmetry_2
Ti0_0 Ti0_4 2.799886 1_555
Ti0_0 Ti0_4 2.799886 1_455
Ti0_0 Ti1_0 2.920442 1_555
Ti0_0 Ti1_2 2.920534 1_545
Ti0_1 Ti0_5 2.799886 1_455
Ti0_1 Ti0_5 2.799886 1_555
Ti0_1 Ti1_1 2.920442 1_555
Ti0_1 Ti1_3 2.920534 1_545
Ti0_2 Ti0_6 2.799886 1_455
Ti0_2 Ti0_6 2.799886 1_555
Ti0_2 Ti1_2 2.920442 1_555
Ti0_2 Ti1_0 2.920534 1_555
Ti0_3 Ti0_7 2.799886 1_455
Ti0_3 Ti0_7 2.799886 1_555
Ti0_3 Ti1_3 2.920442 1_555
Ti0_3 Ti1_1 2.920534 1_555
Ti0_4 Ti1_4 2.920442 1_555
Ti0_4 Ti1_6 2.920534 1_545
Ti0_5 Ti1_5 2.920442 1_555
Ti0_5 Ti1_7 2.920534 1_545
Ti0_6 Ti1_6 2.920442 1_555
Ti0_6 Ti1_4 2.920534 1_555
Ti0_7 Ti1_7 2.920442 1_555
Ti0_7 Ti1_5 2.920534 1_555
Ti1_0 Ti1_4 2.799886 1_555
Ti1_0 Ti1_4 2.799886 1_455
Ti1_1 Ti1_5 2.799886 1_555
Ti1_1 Ti1_5 2.799886 1_455
Ti1_2 Ti1_6 2.799886 1_555
Ti1_2 Ti1_6 2.799886 1_455
Ti1_3 Ti1_7 2.799886 1_455
Ti1_3 Ti1_7 2.799886 1_555
Ni0_0 Ti0_4 2.524665 1_455
Ni0_0 Ti0_6 2.524988 1_455
Ni0_0 Ti1_1 2.565341 1_554
Ni0_0 Ti1_5 2.596634 1_454
Ni0_0 Ti0_0 2.602998 1_555
Ni0_0 Ti0_2 2.604718 1_555
Ni0_0 Ti1_0 2.645711 1_555
Ni0_0 Ni1_7 2.657056 1_454
Ni0_0 Ni1_5 2.669146 1_454
Ni0_0 Ni0_4 2.799886 1_555
Ni0_0 Ni0_4 2.799886 1_455
Ni0_0 Ti1_4 3.113137 1_455
Ni0_1 Ti0_5 2.524665 1_455
Ni0_1 Ti0_7 2.524988 1_455
Ni0_1 Ti1_0 2.565341 1_555
Ni0_1 Ti1_4 2.596634 1_455
Ni0_1 Ti0_1 2.602998 1_555
Ni0_1 Ti0_3 2.604718 1_555
Ni0_1 Ti1_1 2.645711 1_555
Ni0_1 Ni1_6 2.657056 1_455
Ni0_1 Ni1_4 2.669146 1_455
Ni0_1 Ni0_5 2.799886 1_455
Ni0_1 Ni0_5 2.799886 1_555
Ni0_1 Ti1_5 3.113137 1_455
Ni0_2 Ti0_6 2.524665 1_455
Ni0_2 Ti0_4 2.524988 1_465
Ni0_2 Ti1_3 2.565341 1_554
Ni0_2 Ti1_7 2.596634 1_454
Ni0_2 Ti0_2 2.602998 1_555
Ni0_2 Ti0_0 2.604718 1_565
Ni0_2 Ti1_2 2.645711 1_555
Ni0_2 Ni1_5 2.657056 1_464
Ni0_2 Ni1_7 2.669146 1_454
Ni0_2 Ni0_6 2.799886 1_455
Ni0_2 Ni0_6 2.799886 1_555
Ni0_2 Ti1_6 3.113137 1_455
Ni0_3 Ti0_7 2.524665 1_455
Ni0_3 Ti0_5 2.524988 1_465
Ni0_3 Ti1_2 2.565341 1_555
Ni0_3 Ti1_6 2.596634 1_455
Ni0_3 Ti0_3 2.602998 1_555
Ni0_3 Ti0_1 2.604718 1_565
Ni0_3 Ti1_3 2.645711 1_555
Ni0_3 Ni1_4 2.657056 1_465
Ni0_3 Ni1_6 2.669146 1_455
Ni0_3 Ni0_7 2.799886 1_455
Ni0_3 Ni0_7 2.799886 1_555
Ni0_3 Ti1_7 3.113137 1_455
Ni0_4 Ti0_0 2.524665 1_555
Ni0_4 Ti0_2 2.524988 1_555
Ni0_4 Ti1_5 2.565341 1_554
Ni0_4 Ti1_1 2.596634 1_554
Ni0_4 Ti0_4 2.602998 1_555
Ni0_4 Ti0_6 2.604718 1_555
Ni0_4 Ti1_4 2.645711 1_555
Ni0_4 Ni1_3 2.657056 1_554
Ni0_4 Ni1_1 2.669146 1_554
Ni0_4 Ti1_0 3.113137 1_555
Ni0_5 Ti0_1 2.524665 1_555
Ni0_5 Ti0_3 2.524988 1_555
Ni0_5 Ti1_4 2.565341 1_555
Ni0_5 Ti1_0 2.596634 1_555
Ni0_5 Ti0_5 2.602998 1_555
Ni0_5 Ti0_7 2.604718 1_555
Ni0_5 Ti1_5 2.645711 1_555
Ni0_5 Ni1_2 2.657056 1_555
Ni0_5 Ni1_0 2.669146 1_555
Ni0_5 Ti1_1 3.113137 1_555
Ni0_6 Ti0_2 2.524665 1_555
Ni0_6 Ti0_0 2.524988 1_565
Ni0_6 Ti1_7 2.565341 1_554
Ni0_6 Ti1_3 2.596634 1_554
Ni0_6 Ti0_6 2.602998 1_555
Ni0_6 Ti0_4 2.604718 1_565
Ni0_6 Ti1_6 2.645711 1_555
Ni0_6 Ni1_1 2.657056 1_564
Ni0_6 Ni1_3 2.669146 1_554
Ni0_6 Ti1_2 3.113137 1_555
Ni0_7 Ti0_3 2.524665 1_555
Ni0_7 Ti0_1 2.524988 1_565
Ni0_7 Ti1_6 2.565341 1_555
Ni0_7 Ti1_2 2.596634 1_555
Ni0_7 Ti0_7 2.602998 1_555
Ni0_7 Ti0_5 2.604718 1_565
Ni0_7 Ti1_7 2.645711 1_555
Ni0_7 Ni1_0 2.657056 1_565
Ni0_7 Ni1_2 2.669146 1_555
Ni0_7 Ti1_3 3.113137 1_555
Ni1_0 Ti1_4 2.524665 1_555
Ni1_0 Ti1_6 2.524988 1_545
Ni1_0 Ti0_1 2.565341 1_555
Ni1_0 Ti0_5 2.596634 1_555
Ni1_0 Ti1_0 2.602998 1_555
Ni1_0 Ti1_2 2.604718 1_545
Ni1_0 Ti0_0 2.645711 1_555
Ni1_0 Ni1_4 2.799886 1_455
Ni1_0 Ni1_4 2.799886 1_555
Ni1_0 Ti0_4 3.113137 1_555
Ni1_1 Ti1_5 2.524665 1_555
Ni1_1 Ti1_7 2.524988 1_545
Ni1_1 Ti0_0 2.565341 1_556
Ni1_1 Ti0_4 2.596634 1_556
Ni1_1 Ti1_1 2.602998 1_555
Ni1_1 Ti1_3 2.604718 1_545
Ni1_1 Ti0_1 2.645711 1_555
Ni1_1 Ni1_5 2.799886 1_455
Ni1_1 Ni1_5 2.799886 1_555
Ni1_1 Ti0_5 3.113137 1_555
Ni1_2 Ti1_6 2.524665 1_555
Ni1_2 Ti1_4 2.524988 1_555
Ni1_2 Ti0_3 2.565341 1_555
Ni1_2 Ti0_7 2.596634 1_555
Ni1_2 Ti1_2 2.602998 1_555
Ni1_2 Ti1_0 2.604718 1_555
Ni1_2 Ti0_2 2.645711 1_555
Ni1_2 Ni1_6 2.799886 1_455
Ni1_2 Ni1_6 2.799886 1_555
Ni1_2 Ti0_6 3.113137 1_555
Ni1_3 Ti1_7 2.524665 1_555
Ni1_3 Ti1_5 2.524988 1_555
Ni1_3 Ti0_2 2.565341 1_556
Ni1_3 Ti0_6 2.596634 1_556
Ni1_3 Ti1_3 2.602998 1_555
Ni1_3 Ti1_1 2.604718 1_555
Ni1_3 Ti0_3 2.645711 1_555
Ni1_3 Ni1_7 2.799886 1_455
Ni1_3 Ni1_7 2.799886 1_555
Ni1_3 Ti0_7 3.113137 1_555
Ni1_4 Ti1_0 2.524665 1_655
Ni1_4 Ti1_2 2.524988 1_645
Ni1_4 Ti0_5 2.565341 1_555
Ni1_4 Ti0_1 2.596634 1_655
Ni1_4 Ti1_4 2.602998 1_555
Ni1_4 Ti1_6 2.604718 1_545
Ni1_4 Ti0_4 2.645711 1_555
Ni1_4 Ti0_0 3.113137 1_655
Ni1_5 Ti1_1 2.524665 1_655
Ni1_5 Ti1_3 2.524988 1_645
Ni1_5 Ti0_4 2.565341 1_556
Ni1_5 Ti0_0 2.596634 1_656
Ni1_5 Ti1_5 2.602998 1_555
Ni1_5 Ti1_7 2.604718 1_545
Ni1_5 Ti0_5 2.645711 1_555
Ni1_5 Ti0_1 3.113137 1_655
Ni1_6 Ti1_2 2.524665 1_655
Ni1_6 Ti1_0 2.524988 1_655
Ni1_6 Ti0_7 2.565341 1_555
Ni1_6 Ti0_3 2.596634 1_655
Ni1_6 Ti1_6 2.602998 1_555
Ni1_6 Ti1_4 2.604718 1_555
Ni1_6 Ti0_6 2.645711 1_555
Ni1_6 Ti0_2 3.113137 1_655
Ni1_7 Ti1_3 2.524665 1_655
Ni1_7 Ti1_1 2.524988 1_655
Ni1_7 Ti0_6 2.565341 1_556
Ni1_7 Ti0_2 2.596634 1_656
Ni1_7 Ti1_7 2.602998 1_555
Ni1_7 Ti1_5 2.604718 1_555
Ni1_7 Ti0_7 2.645711 1_555
Ni1_7 Ti0_3 3.113137 1_655
