# generated using pymatgen
data_MgFe3Co2Sb(PO4)6
_symmetry_space_group_name_H-M   'P 1'
_cell_length_a   8.93671520
_cell_length_b   8.80897725
_cell_length_c   8.79664598
_cell_angle_alpha   59.87642583
_cell_angle_beta   60.69635529
_cell_angle_gamma   59.79178612
_symmetry_Int_Tables_number   1
_chemical_formula_structural   MgFe3Co2Sb(PO4)6
_chemical_formula_sum   'Mg1 Fe3 Co2 Sb1 P6 O24'
_cell_volume   490.94557946
_cell_formula_units_Z   1
loop_
 _symmetry_equiv_pos_site_id
 _symmetry_equiv_pos_as_xyz
  1  'x, y, z'
loop_
 _atom_site_type_symbol
 _atom_site_label
 _atom_site_symmetry_multiplicity
 _atom_site_fract_x
 _atom_site_fract_y
 _atom_site_fract_z
 _atom_site_occupancy
  Mg  Mg0  1  0.96547400  0.01447900  0.00821600  1
  Fe  Fe0  1  0.08641900  0.63326100  0.64129500  1
  Fe  Fe1  1  0.70896600  0.77310700  0.75662800  1
  Fe  Fe2  1  0.91477000  0.36013200  0.36418000  1
  Co  Co0  1  0.35037100  0.87040700  0.89599300  1
  Co  Co1  1  0.49630900  0.51523600  0.48852000  1
  Sb  Sb0  1  0.52016200  0.15672600  0.16173300  1
  P  P0  1  0.20791300  0.25513200  0.56797000  1
  P  P1  1  0.21398600  0.96149600  0.26329600  1
  P  P2  1  0.20379800  0.56254200  0.97232500  1
  P  P3  1  0.73478200  0.46557200  0.05342900  1
  P  P4  1  0.74199600  0.06141900  0.73984000  1
  P  P5  1  0.74327800  0.74559900  0.45542800  1
  O  O0  1  0.05151400  0.11405100  0.33714800  1
  O  O1  1  0.04194500  0.49962100  0.12107000  1
  O  O2  1  0.04013700  0.33117400  0.51046900  1
  O  O3  1  0.17846100  0.10656100  0.76402800  1
  O  O4  1  0.38247400  0.17403700  0.42508200  1
  O  O5  1  0.24536000  0.41091200  0.57034100  1
  O  O6  1  0.17519300  0.94558800  0.11909500  1
  O  O7  1  0.25431100  0.76213800  0.41981000  1
  O  O8  1  0.56378400  0.62176200  0.98843000  1
  O  O9  1  0.24388100  0.56262500  0.77661100  1
  O  O10  1  0.78077600  0.27333600  0.05527200  1
  O  O11  1  0.56998200  0.00354300  0.81977900  1
  O  O12  1  0.39281800  0.00206300  0.17838200  1
  O  O13  1  0.16718500  0.76084900  0.95487600  1
  O  O14  1  0.70165400  0.46052500  0.24577700  1
  O  O15  1  0.38183800  0.42510100  0.02086800  1
  O  O16  1  0.70930400  0.25344700  0.58284200  1
  O  O17  1  0.78784900  0.06406300  0.88354200  1
  O  O18  1  0.70921800  0.59238100  0.44986700  1
  O  O19  1  0.57066200  0.82796300  0.60524500  1
  O  O20  1  0.78981100  0.88875900  0.26337600  1
  O  O21  1  0.89577800  0.66876600  0.54297200  1
  O  O22  1  0.88777700  0.54978500  0.89407600  1
  O  O23  1  0.89475500  0.89615500  0.66468900  1
loop_
_geom_bond_atom_site_label_1
_geom_bond_atom_site_label_2
_geom_bond_distance
_geom_bond_site_symmetry_2
Mg0 O17 2.106884 1_554
Mg0 O20 2.129363 1_545
Mg0 O10 2.141624 1_555
Mg0 O13 2.152411 1_644
Mg0 O3 2.167377 1_654
Mg0 O6 2.209751 1_645
Fe0 O9 1.949192 1_555
Fe0 O5 1.950169 1_555
Fe0 O7 1.992096 1_555
Fe0 O21 2.093610 1_455
Fe0 O22 2.108304 1_455
Fe0 O23 2.116828 1_455
Fe1 O11 1.972602 1_565
Fe1 O19 1.974518 1_555
Fe1 O8 2.010200 1_555
Fe1 O23 2.049971 1_555
Fe1 O22 2.055705 1_555
Fe1 O21 2.069469 1_555
Fe2 O1 1.939971 1_655
Fe2 O2 1.941778 1_655
Fe2 O0 1.953505 1_655
Fe2 O16 2.102233 1_555
Fe2 O18 2.130455 1_555
Fe2 O14 2.194674 1_555
Co0 O6 1.998703 1_556
Co0 O13 2.034158 1_555
Co0 O3 2.034987 1_565
Co0 O8 2.150080 1_555
Co0 O19 2.418105 1_555
Co0 O11 2.432225 1_565
Co1 O14 2.113457 1_555
Co1 O18 2.152593 1_555
Co1 O16 2.199536 1_555
Co1 O7 2.235990 1_555
Co1 O9 2.490715 1_555
Co1 O5 2.494407 1_555
O0 P1 1.525006 1_545
O1 P2 1.528934 1_554
O2 P0 1.531104 1_555
O3 P0 1.547017 1_555
O4 P0 1.544102 1_555
O4 Sb0 2.068665 1_555
O5 P0 1.578991 1_555
O6 P1 1.551341 1_555
O7 P1 1.591046 1_555
O8 P3 1.582760 1_556
O9 P2 1.577224 1_555
O10 P3 1.521633 1_555
O10 Sb0 2.581359 1_555
O11 P4 1.577397 1_555
O12 P1 1.542085 1_545
O12 Sb0 2.090354 1_555
O13 P2 1.545014 1_555
O14 P3 1.549173 1_555
O15 P2 1.545128 1_554
O15 Sb0 2.066592 1_555
O16 P4 1.551405 1_555
O17 P4 1.520725 1_555
O17 Sb0 2.585950 1_556
O18 P5 1.552730 1_555
O19 P5 1.576813 1_555
O20 P5 1.522815 1_555
O20 Sb0 2.538714 1_565
O21 P5 1.576221 1_555
O22 P3 1.576546 1_556
O23 P4 1.582004 1_565
