# generated using pymatgen
data_BiSbO5
_symmetry_space_group_name_H-M   'P 1'
_cell_length_a   5.81740800
_cell_length_b   10.71552200
_cell_length_c   16.76032900
_cell_angle_alpha   90.00000000
_cell_angle_beta   90.00000000
_cell_angle_gamma   90.00000000
_symmetry_Int_Tables_number   1
_chemical_formula_structural   BiSbO5
_chemical_formula_sum   'Bi8 Sb8 O40'
_cell_volume   1044.78131143
_cell_formula_units_Z   8
loop_
 _symmetry_equiv_pos_site_id
 _symmetry_equiv_pos_as_xyz
  1  'x, y, z'
loop_
 _atom_site_type_symbol
 _atom_site_label
 _atom_site_symmetry_multiplicity
 _atom_site_fract_x
 _atom_site_fract_y
 _atom_site_fract_z
 _atom_site_occupancy
  Bi  Bi0  1  0.94193200  0.83839400  0.80218400  1
  Bi  Bi1  1  0.05806800  0.16160600  0.19781600  1
  Bi  Bi2  1  0.55806800  0.33839400  0.19781600  1
  Bi  Bi3  1  0.05806800  0.66160600  0.30218400  1
  Bi  Bi4  1  0.44193200  0.16160600  0.69781600  1
  Bi  Bi5  1  0.44193200  0.66160600  0.80218400  1
  Bi  Bi6  1  0.55806800  0.83839400  0.30218400  1
  Bi  Bi7  1  0.94193200  0.33839400  0.69781600  1
  Sb  Sb0  1  0.97147600  0.35020700  0.39180800  1
  Sb  Sb1  1  0.52852400  0.85020700  0.60819200  1
  Sb  Sb2  1  0.02852400  0.64979300  0.60819200  1
  Sb  Sb3  1  0.47147600  0.14979300  0.39180800  1
  Sb  Sb4  1  0.02852400  0.14979300  0.89180800  1
  Sb  Sb5  1  0.97147600  0.85020700  0.10819200  1
  Sb  Sb6  1  0.52852400  0.35020700  0.89180800  1
  Sb  Sb7  1  0.47147600  0.64979300  0.10819200  1
  O  O0  1  0.86355800  0.29029700  0.28549900  1
  O  O1  1  0.20433700  0.02309300  0.94587800  1
  O  O2  1  0.29566300  0.52309300  0.05412200  1
  O  O3  1  0.25633200  0.80043500  0.86072600  1
  O  O4  1  0.24366800  0.30043500  0.13927400  1
  O  O5  1  0.86355800  0.79029700  0.21450100  1
  O  O6  1  0.24366800  0.80043500  0.36072600  1
  O  O7  1  0.63644200  0.79029700  0.71450100  1
  O  O8  1  0.20433700  0.52309300  0.55412200  1
  O  O9  1  0.13644200  0.70970300  0.71450100  1
  O  O10  1  0.63644200  0.29029700  0.78549900  1
  O  O11  1  0.71978100  0.24132000  0.44155000  1
  O  O12  1  0.70433700  0.97690700  0.55412200  1
  O  O13  1  0.74366800  0.69956500  0.36072600  1
  O  O14  1  0.17317800  0.97782400  0.15936100  1
  O  O15  1  0.70433700  0.47690700  0.94587800  1
  O  O16  1  0.13644200  0.20970300  0.78549900  1
  O  O17  1  0.75633200  0.19956500  0.63927400  1
  O  O18  1  0.21978100  0.75868000  0.05845000  1
  O  O19  1  0.29566300  0.02309300  0.44587800  1
  O  O20  1  0.28021900  0.75868000  0.55845000  1
  O  O21  1  0.82682200  0.02217600  0.84063900  1
  O  O22  1  0.74366800  0.19956500  0.13927400  1
  O  O23  1  0.67317800  0.02217600  0.34063900  1
  O  O24  1  0.28021900  0.25868000  0.94155000  1
  O  O25  1  0.21978100  0.25868000  0.44155000  1
  O  O26  1  0.79566300  0.47690700  0.44587800  1
  O  O27  1  0.79566300  0.97690700  0.05412200  1
  O  O28  1  0.67317800  0.52217600  0.15936100  1
  O  O29  1  0.78021900  0.74132000  0.55845000  1
  O  O30  1  0.78021900  0.24132000  0.94155000  1
  O  O31  1  0.71978100  0.74132000  0.05845000  1
  O  O32  1  0.82682200  0.52217600  0.65936100  1
  O  O33  1  0.75633200  0.69956500  0.86072600  1
  O  O34  1  0.25633200  0.30043500  0.63927400  1
  O  O35  1  0.17317800  0.47782400  0.34063900  1
  O  O36  1  0.32682200  0.47782400  0.84063900  1
  O  O37  1  0.36355800  0.20970300  0.28549900  1
  O  O38  1  0.32682200  0.97782400  0.65936100  1
  O  O39  1  0.36355800  0.70970300  0.21450100  1
loop_
_geom_bond_atom_site_label_1
_geom_bond_atom_site_label_2
_geom_bond_distance
_geom_bond_site_symmetry_2
Bi0 O33 2.083633 1_555
Bi0 O3 2.115037 1_655
Bi0 O21 2.177624 1_565
Bi0 O9 2.311216 1_655
Bi0 O7 2.362971 1_555
Bi1 O4 2.083633 1_555
Bi1 O22 2.115037 1_455
Bi1 O14 2.177624 1_545
Bi1 O0 2.311216 1_455
Bi1 O37 2.362971 1_555
Bi2 O22 2.083633 1_555
Bi2 O4 2.115037 1_555
Bi2 O28 2.177624 1_555
Bi2 O37 2.311216 1_555
Bi2 O0 2.362971 1_555
Bi3 O6 2.083633 1_555
Bi3 O13 2.115037 1_455
Bi3 O35 2.177624 1_555
Bi3 O5 2.311216 1_455
Bi3 O39 2.362971 1_555
Bi4 O34 2.083633 1_555
Bi4 O17 2.115037 1_555
Bi4 O38 2.177624 1_545
Bi4 O10 2.311216 1_555
Bi4 O16 2.362971 1_555
Bi5 O3 2.083633 1_555
Bi5 O33 2.115037 1_555
Bi5 O36 2.177624 1_555
Bi5 O7 2.311216 1_555
Bi5 O9 2.362971 1_555
Bi6 O13 2.083633 1_555
Bi6 O6 2.115037 1_555
Bi6 O23 2.177624 1_565
Bi6 O39 2.311216 1_555
Bi6 O5 2.362971 1_555
Bi7 O17 2.083633 1_555
Bi7 O34 2.115037 1_655
Bi7 O32 2.177624 1_555
Bi7 O16 2.311216 1_655
Bi7 O10 2.362971 1_555
O0 Sb0 1.995238 1_555
O1 Sb4 1.926281 1_555
O2 Sb7 1.926281 1_555
O5 Sb5 1.995238 1_555
O7 Sb1 1.995238 1_555
O8 Sb2 1.926281 1_555
O9 Sb2 1.995238 1_555
O10 Sb6 1.995238 1_555
O11 Sb3 1.934810 1_555
O11 Sb0 2.049473 1_555
O12 Sb1 1.926281 1_555
O14 Sb5 1.995578 1_455
O15 Sb6 1.926281 1_555
O16 Sb4 1.995238 1_555
O18 Sb5 1.934810 1_455
O18 Sb7 2.049473 1_555
O19 Sb3 1.926281 1_555
O20 Sb1 1.934810 1_555
O20 Sb2 2.049473 1_555
O21 Sb4 1.995578 1_655
O23 Sb3 1.995578 1_555
O24 Sb6 1.934810 1_555
O24 Sb4 2.049473 1_555
O25 Sb0 1.934810 1_455
O25 Sb3 2.049473 1_555
O26 Sb0 1.926281 1_555
O27 Sb5 1.926281 1_555
O28 Sb7 1.995578 1_555
O29 Sb2 1.934810 1_655
O29 Sb1 2.049473 1_555
O30 Sb4 1.934810 1_655
O30 Sb6 2.049473 1_555
O31 Sb7 1.934810 1_555
O31 Sb5 2.049473 1_555
O32 Sb2 1.995578 1_655
O35 Sb0 1.995578 1_455
O36 Sb6 1.995578 1_555
O37 Sb3 1.995238 1_555
O38 Sb1 1.995578 1_555
O39 Sb7 1.995238 1_555
