# generated using pymatgen
data_EuNi5As3
_symmetry_space_group_name_H-M   'P 1'
_cell_length_a   6.32852940
_cell_length_b   6.32852920
_cell_length_c   11.75343729
_cell_angle_alpha   90.00066178
_cell_angle_beta   89.99933845
_cell_angle_gamma   145.87666716
_symmetry_Int_Tables_number   1
_chemical_formula_structural   EuNi5As3
_chemical_formula_sum   'Eu2 Ni10 As6'
_cell_volume   264.06746298
_cell_formula_units_Z   2
loop_
 _symmetry_equiv_pos_site_id
 _symmetry_equiv_pos_as_xyz
  1  'x, y, z'
loop_
 _atom_site_type_symbol
 _atom_site_label
 _atom_site_symmetry_multiplicity
 _atom_site_fract_x
 _atom_site_fract_y
 _atom_site_fract_z
 _atom_site_occupancy
  Eu  Eu0  1  0.16325683  0.83674327  0.24994983  1
  Eu  Eu1  1  0.83674060  0.16325962  0.75004566  1
  Ni  Ni0  1  0.19345051  0.80654969  0.93347449  1
  Ni  Ni1  1  0.80654897  0.19345085  0.43337607  1
  Ni  Ni2  1  -0.00000923  0.00000929  0.00003239  1
  Ni  Ni3  1  -0.00000795  0.00000795  0.49996443  1
  Ni  Ni4  1  0.54895777  0.45104198  0.64445613  1
  Ni  Ni5  1  0.45103329  0.54896654  0.35552358  1
  Ni  Ni6  1  0.45101770  0.54898193  0.14436476  1
  Ni  Ni7  1  0.19346248  0.80653780  0.56658806  1
  Ni  Ni8  1  0.80655904  0.19344083  0.06656440  1
  Ni  Ni9  1  0.54896643  0.45103383  0.85565270  1
  As  As0  1  0.62108708  0.37891304  0.45715994  1
  As  As1  1  0.11502547  0.88497467  0.75006375  1
  As  As2  1  0.62110192  0.37889797  0.04286498  1
  As  As3  1  0.37891321  0.62108694  0.95712788  1
  As  As4  1  0.88497361  0.11502619  0.24994307  1
  As  As5  1  0.37892127  0.62107862  0.54285088  1
loop_
_geom_bond_atom_site_label_1
_geom_bond_atom_site_label_2
_geom_bond_distance
_geom_bond_site_symmetry_2
Eu0 Ni8 3.331667 1_565
Eu0 Ni8 3.331667 1_455
Eu0 Ni1 3.331941 1_565
Eu0 Ni1 3.331942 1_455
Eu0 Ni5 3.403156 1_565
Eu0 Ni5 3.403157 1_455
Eu0 Ni6 3.403369 1_565
Eu0 Ni6 3.403370 1_455
Eu1 Ni0 3.331920 1_655
Eu1 Ni0 3.331920 1_545
Eu1 Ni7 3.332091 1_545
Eu1 Ni7 3.332091 1_655
Eu1 Ni4 3.403169 1_655
Eu1 Ni4 3.403170 1_545
Eu1 Ni9 3.403344 1_545
Eu1 Ni9 3.403344 1_655
As0 Ni1 2.261434 1_555
As0 Ni4 2.368062 1_555
As0 Ni5 2.379286 1_555
As0 Ni3 2.418210 1_665
As0 Ni3 2.418211 1_555
As0 Ni7 2.422569 1_545
As0 Ni7 2.422569 1_655
As0 Eu0 3.104729 1_545
As0 Eu0 3.104729 1_655
As1 Ni0 2.355338 1_555
As1 Ni7 2.356073 1_555
As1 Ni9 2.372074 1_455
As1 Ni9 2.372074 1_565
As1 Ni4 2.372233 1_565
As1 Ni4 2.372234 1_455
As1 Eu1 3.262647 1_455
As1 Eu1 3.262648 1_565
As1 Eu1 3.367252 1_465
As2 Ni8 2.261259 1_555
As2 Ni9 2.367194 1_554
As2 Ni6 2.378774 1_555
As2 Ni2 2.418406 1_555
As2 Ni2 2.418406 1_665
As2 Ni0 2.422205 1_544
As2 Ni0 2.422206 1_654
As2 Eu0 3.103554 1_545
As2 Eu0 3.103555 1_655
As3 Ni0 2.261260 1_555
As3 Ni6 2.367325 1_556
As3 Ni9 2.378306 1_555
As3 Ni2 2.418335 1_666
As3 Ni2 2.418335 1_556
As3 Ni8 2.422517 1_566
As3 Ni8 2.422517 1_456
As3 Eu1 3.103566 1_455
As3 Eu1 3.103566 1_565
As4 Ni8 2.354942 1_555
As4 Ni1 2.355554 1_555
As4 Ni6 2.371948 1_655
As4 Ni6 2.371948 1_545
As4 Ni5 2.372034 1_545
As4 Ni5 2.372035 1_655
As4 Eu0 3.262666 1_545
As4 Eu0 3.262666 1_655
As4 Eu0 3.367229 1_645
As5 Ni7 2.261330 1_555
As5 Ni5 2.368326 1_555
As5 Ni4 2.378924 1_555
As5 Ni3 2.418233 1_555
As5 Ni3 2.418234 1_665
As5 Ni1 2.422847 1_565
As5 Ni1 2.422847 1_455
As5 Eu1 3.104610 1_455
As5 Eu1 3.104610 1_565
