# generated using pymatgen
data_YMg6Al
_symmetry_space_group_name_H-M   'P 1'
_cell_length_a   5.01793700
_cell_length_b   6.58368000
_cell_length_c   11.32259200
_cell_angle_alpha   90.00000000
_cell_angle_beta   90.00000000
_cell_angle_gamma   90.00000000
_symmetry_Int_Tables_number   1
_chemical_formula_structural   YMg6Al
_chemical_formula_sum   'Y2 Mg12 Al2'
_cell_volume   374.05871401
_cell_formula_units_Z   2
loop_
 _symmetry_equiv_pos_site_id
 _symmetry_equiv_pos_as_xyz
  1  'x, y, z'
loop_
 _atom_site_type_symbol
 _atom_site_label
 _atom_site_symmetry_multiplicity
 _atom_site_fract_x
 _atom_site_fract_y
 _atom_site_fract_z
 _atom_site_occupancy
  Y  Y0  1  0.00000000  0.50000000  0.17401300  1
  Y  Y1  1  0.00000000  0.00000000  0.67401300  1
  Mg  Mg0  1  0.50000000  0.24232000  0.08059900  1
  Mg  Mg1  1  0.50000000  0.75768000  0.08059900  1
  Mg  Mg2  1  0.50000000  0.50000000  0.83255200  1
  Mg  Mg3  1  0.00000000  0.24317900  0.91841100  1
  Mg  Mg4  1  0.00000000  0.75682100  0.91841100  1
  Mg  Mg5  1  0.00000000  0.50000000  0.66450400  1
  Mg  Mg6  1  0.50000000  0.74232000  0.58059900  1
  Mg  Mg7  1  0.50000000  0.25768000  0.58059900  1
  Mg  Mg8  1  0.50000000  0.00000000  0.33255200  1
  Mg  Mg9  1  0.00000000  0.74317900  0.41841100  1
  Mg  Mg10  1  0.00000000  0.25682100  0.41841100  1
  Mg  Mg11  1  0.00000000  0.00000000  0.16450400  1
  Al  Al0  1  0.50000000  0.50000000  0.33091100  1
  Al  Al1  1  0.50000000  0.00000000  0.83091100  1
loop_
_geom_bond_atom_site_label_1
_geom_bond_atom_site_label_2
_geom_bond_distance
_geom_bond_site_symmetry_2
Mg0 Mg3 3.109225 1_654
Mg0 Mg3 3.109225 1_554
Mg0 Mg11 3.121319 1_555
Mg0 Mg11 3.121319 1_655
Mg0 Mg1 3.190715 1_545
Mg0 Y0 3.208065 1_655
Mg0 Y0 3.208065 1_555
Mg0 Mg8 3.268549 1_555
Mg0 Mg2 3.281146 1_554
Mg0 Mg1 3.392965 1_555
Mg1 Mg4 3.109225 1_554
Mg1 Mg4 3.109225 1_654
Mg1 Mg11 3.121319 1_565
Mg1 Mg11 3.121319 1_665
Mg1 Y0 3.208065 1_655
Mg1 Y0 3.208065 1_555
Mg1 Mg8 3.268549 1_565
Mg1 Mg2 3.281146 1_554
Mg2 Mg5 3.148863 1_655
Mg2 Mg5 3.148863 1_555
Mg2 Mg4 3.177875 1_555
Mg2 Mg3 3.177875 1_555
Mg2 Mg4 3.177875 1_655
Mg2 Mg3 3.177875 1_655
Mg2 Mg7 3.268549 1_555
Mg2 Mg6 3.268549 1_555
Mg3 Y1 3.196989 1_555
Mg3 Mg4 3.202025 1_545
Mg3 Mg5 3.335246 1_555
Mg3 Y0 3.351802 1_556
Mg3 Mg4 3.381655 1_555
Mg4 Y1 3.196989 1_565
Mg4 Mg5 3.335246 1_555
Mg4 Y0 3.351802 1_556
Mg5 Mg6 3.121319 1_455
Mg5 Mg6 3.121319 1_555
Mg5 Mg7 3.121319 1_455
Mg5 Mg7 3.121319 1_555
Mg5 Mg9 3.213616 1_555
Mg5 Y1 3.293600 1_565
Mg5 Y1 3.293600 1_555
Mg6 Mg9 3.109225 1_555
Mg6 Mg9 3.109225 1_655
Mg6 Mg7 3.190715 1_555
Mg6 Y1 3.208065 1_565
Mg6 Y1 3.208065 1_665
Mg6 Mg8 3.281146 1_565
Mg6 Mg7 3.392965 1_565
Mg7 Y1 3.208065 1_555
Mg7 Y1 3.208065 1_655
Mg7 Mg8 3.281146 1_555
Mg8 Mg9 3.177875 1_645
Mg8 Mg9 3.177875 1_545
Mg9 Y0 3.196989 1_555
Mg9 Y1 3.351802 1_565
Mg10 Mg7 3.109225 1_455
Mg10 Mg7 3.109225 1_555
Mg10 Mg8 3.177875 1_455
Mg10 Mg8 3.177875 1_555
Mg10 Y0 3.196989 1_555
Mg10 Mg9 3.202025 1_555
Mg10 Mg5 3.213616 1_555
Mg10 Mg11 3.335246 1_555
Mg10 Y1 3.351802 1_555
Mg10 Mg9 3.381655 1_545
Mg11 Mg8 3.148863 1_455
Mg11 Mg8 3.148863 1_555
Mg11 Mg3 3.213616 1_554
Mg11 Mg4 3.213616 1_544
Mg11 Y0 3.293600 1_545
Mg11 Y0 3.293600 1_555
Mg11 Mg9 3.335246 1_545
Al0 Y0 3.074223 1_655
Al0 Y0 3.074223 1_555
Al0 Mg10 3.136830 1_555
Al0 Mg10 3.136830 1_655
Al0 Mg9 3.136830 1_655
Al0 Mg9 3.136830 1_555
Al0 Mg7 3.246189 1_555
Al0 Mg6 3.246189 1_555
Al0 Mg8 3.291892 1_565
Al0 Mg8 3.291892 1_555
Al0 Mg1 3.303125 1_555
Al0 Mg0 3.303125 1_555
Al1 Y1 3.074223 1_555
Al1 Y1 3.074223 1_655
Al1 Mg3 3.136830 1_555
Al1 Mg4 3.136830 1_645
Al1 Mg4 3.136830 1_545
Al1 Mg3 3.136830 1_655
Al1 Mg0 3.246189 1_556
Al1 Mg1 3.246189 1_546
Al1 Mg2 3.291892 1_545
Al1 Mg2 3.291892 1_555
Al1 Mg7 3.303125 1_555
Al1 Mg6 3.303125 1_545
