# generated using pymatgen
data_Sr2YV2GaO7
_symmetry_space_group_name_H-M   'P 1'
_cell_length_a   12.12171438
_cell_length_b   12.12171438
_cell_length_c   5.68982631
_cell_angle_alpha   76.47526258
_cell_angle_beta   76.47526258
_cell_angle_gamma   26.59278057
_symmetry_Int_Tables_number   1
_chemical_formula_structural   Sr2YV2GaO7
_chemical_formula_sum   'Sr4 Y2 V4 Ga2 O14'
_cell_volume   363.28367148
_cell_formula_units_Z   2
loop_
 _symmetry_equiv_pos_site_id
 _symmetry_equiv_pos_as_xyz
  1  'x, y, z'
loop_
 _atom_site_type_symbol
 _atom_site_label
 _atom_site_symmetry_multiplicity
 _atom_site_fract_x
 _atom_site_fract_y
 _atom_site_fract_z
 _atom_site_occupancy
  Sr  Sr0  1  0.83647800  0.85551300  0.63385700  1
  Sr  Sr1  1  0.14448700  0.16352200  0.36614300  1
  Sr  Sr2  1  0.33871900  0.35344800  0.17851400  1
  Sr  Sr3  1  0.64655200  0.66128100  0.82148600  1
  Y  Y0  1  0.50109500  0.49890500  0.00000000  1
  Y  Y1  1  0.00224400  0.99775600  0.50000000  1
  V  V0  1  0.56949900  0.56862300  0.43284200  1
  V  V1  1  0.92975900  0.92954100  0.07201600  1
  V  V2  1  0.07045900  0.07024100  0.92798400  1
  V  V3  1  0.43137700  0.43050100  0.56715800  1
  Ga  Ga0  1  0.71154400  0.78902100  0.18236800  1
  Ga  Ga1  1  0.21097900  0.28845600  0.81763200  1
  O  O0  1  0.67644300  0.19051900  0.31118200  1
  O  O1  1  0.36823100  0.13093700  0.12639500  1
  O  O2  1  0.17564500  0.69080400  0.32662000  1
  O  O3  1  0.19359800  0.15334500  0.78707200  1
  O  O4  1  0.82631900  0.31315000  0.18944500  1
  O  O5  1  0.32615300  0.81331200  0.17679700  1
  O  O6  1  0.86906300  0.63176900  0.87360500  1
  O  O7  1  0.30919600  0.82435500  0.67338000  1
  O  O8  1  0.80948100  0.32355700  0.68881800  1
  O  O9  1  0.70255000  0.65011900  0.37704200  1
  O  O10  1  0.84665500  0.80640200  0.21292800  1
  O  O11  1  0.34988100  0.29745000  0.62295800  1
  O  O12  1  0.68685000  0.17368100  0.81055500  1
  O  O13  1  0.18668800  0.67384700  0.82320300  1
loop_
_geom_bond_atom_site_label_1
_geom_bond_atom_site_label_2
_geom_bond_distance
_geom_bond_site_symmetry_2
Ga0 O9 1.863662 1_555
Ga0 O10 1.877334 1_555
Ga0 O1 1.937405 1_565
Ga0 O6 1.963108 1_554
Ga1 O11 1.863662 1_555
Ga1 O3 1.877334 1_555
Ga1 O6 1.937405 1_455
Ga1 O1 1.963108 1_556
O0 V3 1.977738 1_555
O0 V1 1.993693 1_545
O0 Y0 2.465999 1_555
O0 Y1 2.552966 1_645
O0 Sr2 2.741883 1_555
O0 Sr0 2.777515 1_545
O1 Sr1 2.445064 1_555
O1 Sr2 2.467742 1_555
O2 V3 1.977426 1_555
O2 V1 1.997444 1_455
O2 Y1 2.448592 1_555
O2 Y0 2.570765 1_555
O2 Sr0 2.745112 1_455
O2 Sr2 2.777804 1_555
O3 V2 2.374289 1_555
O3 Sr1 2.550106 1_555
O3 Sr3 2.673716 1_545
O3 Sr3 2.976250 1_455
O3 Sr1 3.219745 1_556
O4 V0 1.986791 1_555
O4 V2 2.011632 1_654
O4 Y1 2.511605 1_645
O4 Y0 2.598172 1_555
O4 Sr1 2.761404 1_655
O4 Sr3 2.914695 1_554
O5 V0 1.990660 1_555
O5 V2 2.009202 1_564
O5 Y0 2.524933 1_555
O5 Y1 2.577400 1_555
O5 Sr3 2.799444 1_554
O5 Sr1 2.888268 1_565
O6 Sr0 2.445064 1_555
O6 Sr3 2.467742 1_555
O7 V0 1.977426 1_555
O7 V2 1.997444 1_565
O7 Y1 2.448592 1_555
O7 Y0 2.570765 1_556
O7 Sr1 2.745112 1_565
O7 Sr3 2.777804 1_555
O8 V0 1.977738 1_555
O8 V2 1.993693 1_655
O8 Y0 2.465999 1_556
O8 Y1 2.552966 1_645
O8 Sr3 2.741883 1_555
O8 Sr1 2.777515 1_655
O9 Sr3 2.463097 1_555
O9 V0 2.478109 1_555
O9 Sr1 2.645383 1_655
O9 Sr1 3.036416 1_565
O10 V1 2.374289 1_555
O10 Sr0 2.550106 1_555
O10 Sr2 2.673716 1_655
O10 Sr2 2.976250 1_565
O10 Sr0 3.219745 1_554
O11 Sr2 2.463097 1_555
O11 V3 2.478109 1_555
O11 Sr0 2.645383 1_545
O11 Sr0 3.036416 1_455
O12 V3 1.986791 1_555
O12 V1 2.011632 1_546
O12 Y1 2.511605 1_645
O12 Y0 2.598172 1_556
O12 Sr0 2.761404 1_545
O12 Sr2 2.914695 1_556
O13 V3 1.990660 1_555
O13 V1 2.009202 1_456
O13 Y0 2.524933 1_556
O13 Y1 2.577400 1_555
O13 Sr2 2.799444 1_556
O13 Sr0 2.888268 1_455
