# generated using pymatgen
data_Sr6Mn3FeO14
_symmetry_space_group_name_H-M   'P 1'
_cell_length_a   10.50619458
_cell_length_b   10.50619458
_cell_length_c   5.51039900
_cell_angle_alpha   90.00000000
_cell_angle_beta   90.00000000
_cell_angle_gamma   149.57579544
_symmetry_Int_Tables_number   1
_chemical_formula_structural   Sr6Mn3FeO14
_chemical_formula_sum   'Sr6 Mn3 Fe1 O14'
_cell_volume   308.01082737
_cell_formula_units_Z   1
loop_
 _symmetry_equiv_pos_site_id
 _symmetry_equiv_pos_as_xyz
  1  'x, y, z'
loop_
 _atom_site_type_symbol
 _atom_site_label
 _atom_site_symmetry_multiplicity
 _atom_site_fract_x
 _atom_site_fract_y
 _atom_site_fract_z
 _atom_site_occupancy
  Sr  Sr0  1  0.49987700  0.50012300  0.00000000  1
  Sr  Sr1  1  0.99983700  0.00016300  0.50000000  1
  Sr  Sr2  1  0.81709100  0.18290900  0.50000000  1
  Sr  Sr3  1  0.31726200  0.68273800  0.00000000  1
  Sr  Sr4  1  0.68305000  0.31695000  0.00000000  1
  Sr  Sr5  1  0.18267000  0.81733000  0.50000000  1
  Mn  Mn0  1  0.90258700  0.09741300  0.00000000  1
  Mn  Mn1  1  0.09747200  0.90252800  0.00000000  1
  Mn  Mn2  1  0.59762500  0.40237500  0.50000000  1
  Fe  Fe0  1  0.40300400  0.59699600  0.50000000  1
  O  O0  1  0.80627400  0.19372600  0.00000000  1
  O  O1  1  0.30561500  0.69438500  0.50000000  1
  O  O2  1  0.69309700  0.30690300  0.50000000  1
  O  O3  1  0.19274100  0.80725900  0.00000000  1
  O  O4  1  0.50076400  0.49923600  0.50000000  1
  O  O5  1  0.00068600  0.99931400  0.00000000  1
  O  O6  1  0.65641100  0.84791700  0.75232400  1
  O  O7  1  0.15208300  0.34358900  0.24767600  1
  O  O8  1  0.15208300  0.34358900  0.75232400  1
  O  O9  1  0.65641100  0.84791700  0.24767600  1
  O  O10  1  0.84577600  0.65409600  0.75014900  1
  O  O11  1  0.34590400  0.15422400  0.24985100  1
  O  O12  1  0.34590400  0.15422400  0.75014900  1
  O  O13  1  0.84577600  0.65409600  0.24985100  1
loop_
_geom_bond_atom_site_label_1
_geom_bond_atom_site_label_2
_geom_bond_distance
_geom_bond_site_symmetry_2
Mn0 O9 1.931571 1_545
Mn0 O7 1.931571 1_655
Mn0 O6 1.931571 1_544
Mn0 O8 1.931571 1_654
Mn0 O0 1.952856 1_555
Mn0 O5 1.989069 1_645
Mn1 O3 1.931687 1_555
Mn1 O13 1.948720 1_455
Mn1 O10 1.948720 1_454
Mn1 O11 1.948720 1_565
Mn1 O12 1.948720 1_564
Mn1 O5 1.962446 1_555
Mn2 O2 1.935803 1_555
Mn2 O12 1.949436 1_555
Mn2 O10 1.949436 1_555
Mn2 O11 1.949436 1_555
Mn2 O13 1.949436 1_555
Mn2 O4 1.963967 1_555
Fe0 O6 1.966423 1_555
Fe0 O8 1.966423 1_555
Fe0 O9 1.966423 1_555
Fe0 O7 1.966423 1_555
Fe0 O1 1.974673 1_555
Fe0 O4 1.982195 1_555
O0 Sr4 2.498507 1_555
O0 Sr2 2.763915 1_555
O0 Sr2 2.763915 1_554
O0 Sr3 2.765740 1_545
O0 Sr3 2.765740 1_655
O1 Sr5 2.492850 1_555
O1 Sr3 2.765302 1_555
O1 Sr3 2.765302 1_556
O1 Sr2 2.766555 1_455
O1 Sr2 2.766555 1_565
O2 Sr2 2.514119 1_555
O2 Sr4 2.762720 1_556
O2 Sr4 2.762720 1_555
O2 Sr5 2.764847 1_545
O2 Sr5 2.764847 1_655
O3 Sr3 2.524805 1_555
O3 Sr5 2.762756 1_555
O3 Sr5 2.762756 1_554
O3 Sr4 2.763746 1_455
O3 Sr4 2.763746 1_565
O4 Sr0 2.755258 1_555
O4 Sr0 2.755258 1_556
O4 Sr1 2.756816 1_455
O4 Sr1 2.756816 1_565
O5 Sr1 2.755253 1_464
O5 Sr1 2.755253 1_465
O5 Sr0 2.756801 1_565
O5 Sr0 2.756801 1_455
O6 Sr3 2.627988 1_556
O6 Sr2 2.631226 1_565
O6 Sr0 2.748702 1_556
O6 Sr1 2.749001 1_565
O7 Sr3 2.627988 1_555
O7 Sr2 2.631226 1_455
O7 Sr0 2.748702 1_555
O7 Sr1 2.749001 1_455
O8 Sr3 2.627988 1_556
O8 Sr2 2.631226 1_455
O8 Sr0 2.748702 1_556
O8 Sr1 2.749001 1_455
O9 Sr3 2.627988 1_555
O9 Sr2 2.631226 1_565
O9 Sr0 2.748702 1_555
O9 Sr1 2.749001 1_565
O10 Sr5 2.626893 1_655
O10 Sr4 2.630834 1_556
O10 Sr0 2.753261 1_556
O10 Sr1 2.755009 1_565
O11 Sr5 2.626893 1_545
O11 Sr4 2.630834 1_555
O11 Sr0 2.753261 1_555
O11 Sr1 2.755009 1_455
O12 Sr5 2.626893 1_545
O12 Sr4 2.630834 1_556
O12 Sr0 2.753261 1_556
O12 Sr1 2.755009 1_455
O13 Sr5 2.626893 1_655
O13 Sr4 2.630834 1_555
O13 Sr0 2.753261 1_555
O13 Sr1 2.755009 1_565
