# generated using pymatgen
data_Eu2Zn3Ge
_symmetry_space_group_name_H-M   'P 1'
_cell_length_a   4.55334500
_cell_length_b   7.49005300
_cell_length_c   7.75244700
_cell_angle_alpha   90.00000000
_cell_angle_beta   90.00000000
_cell_angle_gamma   90.00000000
_symmetry_Int_Tables_number   1
_chemical_formula_structural   Eu2Zn3Ge
_chemical_formula_sum   'Eu4 Zn6 Ge2'
_cell_volume   264.39561861
_cell_formula_units_Z   2
loop_
 _symmetry_equiv_pos_site_id
 _symmetry_equiv_pos_as_xyz
  1  'x, y, z'
loop_
 _atom_site_type_symbol
 _atom_site_label
 _atom_site_symmetry_multiplicity
 _atom_site_fract_x
 _atom_site_fract_y
 _atom_site_fract_z
 _atom_site_occupancy
  Eu  Eu0  1  0.00000000  0.74896400  0.54966300  1
  Eu  Eu1  1  0.00000000  0.24896400  0.45033700  1
  Eu  Eu2  1  0.50000000  0.75287300  0.95934300  1
  Eu  Eu3  1  0.50000000  0.25287300  0.04065700  1
  Zn  Zn0  1  0.00000000  0.06081800  0.83884700  1
  Zn  Zn1  1  0.00000000  0.56081800  0.16115300  1
  Zn  Zn2  1  0.00000000  0.44449000  0.83731300  1
  Zn  Zn3  1  0.00000000  0.94449000  0.16268700  1
  Zn  Zn4  1  0.50000000  0.43567500  0.66723200  1
  Zn  Zn5  1  0.50000000  0.93567500  0.33276800  1
  Ge  Ge0  1  0.50000000  0.05717900  0.65947100  1
  Ge  Ge1  1  0.50000000  0.55717900  0.34052900  1
loop_
_geom_bond_atom_site_label_1
_geom_bond_atom_site_label_2
_geom_bond_distance
_geom_bond_site_symmetry_2
Eu0 Ge1 3.142503 1_555
Eu0 Ge1 3.142503 1_455
Eu0 Zn5 3.156945 1_455
Eu0 Zn5 3.156945 1_555
Eu0 Zn2 3.189618 1_555
Eu0 Zn0 3.237594 1_565
Eu0 Zn1 3.325278 1_555
Eu0 Zn3 3.338387 1_555
Eu0 Ge0 3.352209 1_565
Eu0 Ge0 3.352209 1_465
Eu0 Zn4 3.394153 1_455
Eu0 Zn4 3.394153 1_555
Eu1 Ge0 3.142503 1_455
Eu1 Ge0 3.142503 1_555
Eu1 Zn4 3.156945 1_455
Eu1 Zn4 3.156945 1_555
Eu1 Zn3 3.189618 1_545
Eu1 Zn1 3.237594 1_555
Eu1 Zn0 3.325278 1_555
Eu1 Zn2 3.338387 1_555
Eu1 Ge1 3.352209 1_455
Eu1 Ge1 3.352209 1_555
Eu1 Zn5 3.394153 1_445
Eu1 Zn5 3.394153 1_545
Eu2 Zn1 3.114523 1_656
Eu2 Zn1 3.114523 1_556
Eu2 Zn3 3.119003 1_656
Eu2 Zn3 3.119003 1_556
Eu2 Zn5 3.202418 1_556
Eu2 Ge0 3.255685 1_565
Eu2 Zn4 3.282205 1_555
Eu2 Ge1 3.298667 1_556
Eu2 Zn0 3.372819 1_565
Eu2 Zn0 3.372819 1_665
Eu2 Zn2 3.378374 1_555
Eu2 Zn2 3.378374 1_655
Eu3 Zn0 3.114523 1_654
Eu3 Zn0 3.114523 1_554
Eu3 Zn2 3.119003 1_554
Eu3 Zn2 3.119003 1_654
Eu3 Zn4 3.202418 1_554
Eu3 Ge1 3.255685 1_555
Eu3 Zn5 3.282205 1_545
Eu3 Ge0 3.298667 1_554
Eu3 Zn1 3.372819 1_555
Eu3 Zn1 3.372819 1_655
Eu3 Zn3 3.378374 1_645
Eu3 Zn3 3.378374 1_545
Zn0 Zn3 2.657450 1_546
Zn0 Zn2 2.873748 1_555
Zn1 Zn2 2.657450 1_554
Zn1 Zn3 2.873748 1_555
Zn2 Zn4 2.631759 1_455
Zn2 Zn4 2.631759 1_555
Zn3 Zn5 2.631759 1_455
Zn3 Zn5 2.631759 1_555
Ge0 Zn0 2.667912 1_655
Ge0 Zn0 2.667912 1_555
Ge0 Zn5 2.691290 1_545
Ge0 Zn4 2.835593 1_555
Ge1 Zn1 2.667912 1_555
Ge1 Zn1 2.667912 1_655
Ge1 Zn4 2.691290 1_555
Ge1 Zn5 2.835593 1_555
