# generated using pymatgen
data_K3SmF6
_symmetry_space_group_name_H-M   'P 1'
_cell_length_a   6.93751518
_cell_length_b   6.93751518
_cell_length_c   6.93751518
_cell_angle_alpha   95.87030188
_cell_angle_beta   116.67066437
_cell_angle_gamma   116.67066437
_symmetry_Int_Tables_number   1
_chemical_formula_structural   K3SmF6
_chemical_formula_sum   'K3 Sm1 F6'
_cell_volume   246.58051397
_cell_formula_units_Z   1
loop_
 _symmetry_equiv_pos_site_id
 _symmetry_equiv_pos_as_xyz
  1  'x, y, z'
loop_
 _atom_site_type_symbol
 _atom_site_label
 _atom_site_symmetry_multiplicity
 _atom_site_fract_x
 _atom_site_fract_y
 _atom_site_fract_z
 _atom_site_occupancy
  K  K0  1  0.50000000  0.75000000  0.25000000  1
  K  K1  1  0.50000000  0.25000000  0.75000000  1
  K  K2  1  0.00000000  0.50000000  0.50000000  1
  Sm  Sm0  1  0.00000000  0.00000000  0.00000000  1
  F  F0  1  0.69118100  0.00000000  0.69118100  1
  F  F1  1  0.30881900  0.00000000  0.30881900  1
  F  F2  1  0.69118100  0.69118100  0.00000000  1
  F  F3  1  0.30881900  0.30881900  0.00000000  1
  F  F4  1  0.00000000  0.24272100  0.24272100  1
  F  F5  1  0.00000000  0.75727900  0.75727900  1
loop_
_geom_bond_atom_site_label_1
_geom_bond_atom_site_label_2
_geom_bond_distance
_geom_bond_site_symmetry_2
F0 Sm0 2.249331 1_656
F0 K0 2.709220 1_545
F0 K1 2.709220 1_555
F1 Sm0 2.249331 1_555
F1 K0 2.709220 1_545
F1 K1 2.709220 1_555
F2 Sm0 2.249331 1_665
F2 K0 2.709220 1_555
F2 K1 2.709220 1_554
F3 Sm0 2.249331 1_555
F3 K0 2.709220 1_555
F3 K1 2.709220 1_554
F4 Sm0 2.256303 1_555
F4 K2 2.391633 1_555
F5 Sm0 2.256303 1_566
F5 K2 2.391633 1_555
