# generated using pymatgen
data_PrCrO4
_symmetry_space_group_name_H-M   'P 1'
_cell_length_a   6.13224803
_cell_length_b   6.13221227
_cell_length_c   6.13225062
_cell_angle_alpha   106.04149278
_cell_angle_beta   106.04444426
_cell_angle_gamma   116.56934790
_symmetry_Int_Tables_number   1
_chemical_formula_structural   PrCrO4
_chemical_formula_sum   'Pr2 Cr2 O8'
_cell_volume   175.44773906
_cell_formula_units_Z   2
loop_
 _symmetry_equiv_pos_site_id
 _symmetry_equiv_pos_as_xyz
  1  'x, y, z'
loop_
 _atom_site_type_symbol
 _atom_site_label
 _atom_site_symmetry_multiplicity
 _atom_site_fract_x
 _atom_site_fract_y
 _atom_site_fract_z
 _atom_site_occupancy
  Pr  Pr0  1  -0.00000312  -0.00000009  -0.00000084  1
  Pr  Pr1  1  0.25000618  0.75000416  0.50000533  1
  Cr  Cr0  1  0.74998589  0.24998791  0.49999783  1
  Cr  Cr1  1  0.50000898  0.50001150  -0.00000228  1
  O  O0  1  0.32651664  0.50891963  0.17229579  1
  O  O1  1  0.40417026  0.07652218  0.31760330  1
  O  O2  1  0.75891868  0.08656512  0.68239589  1
  O  O3  1  0.33661870  0.15421949  0.82770239  1
  O  O4  1  0.84576364  0.66337127  0.17229036  1
  O  O5  1  0.91344521  0.24108552  0.31760255  1
  O  O6  1  0.92348617  0.59584122  0.68240394  1
  O  O7  1  0.49108377  0.67347210  0.82770674  1
loop_
_geom_bond_atom_site_label_1
_geom_bond_atom_site_label_2
_geom_bond_distance
_geom_bond_site_symmetry_2
Cr0 O1 1.700888 1_555
Cr0 O2 1.700907 1_555
Cr0 O6 1.701079 1_555
Cr0 O5 1.701087 1_555
Cr1 O7 1.700566 1_554
Cr1 O4 1.700597 1_555
Cr1 O3 1.700782 1_554
Cr1 O0 1.700783 1_555
O0 Pr1 2.438023 1_555
O0 Pr0 2.506650 1_555
O1 Pr0 2.437739 1_555
O1 Pr1 2.506577 1_545
O2 Pr0 2.437701 1_656
O2 Pr1 2.506558 1_545
O3 Pr1 2.437998 1_545
O3 Pr0 2.506650 1_556
O4 Pr1 2.438040 1_655
O4 Pr0 2.506635 1_665
O5 Pr0 2.437742 1_655
O5 Pr1 2.506589 1_655
O6 Pr0 2.437751 1_666
O6 Pr1 2.506600 1_655
O7 Pr1 2.437982 1_555
O7 Pr0 2.506618 1_666
