# generated using pymatgen
data_MgCd
_symmetry_space_group_name_H-M   'P 1'
_cell_length_a   10.32883353
_cell_length_b   10.32883353
_cell_length_c   10.32883491
_cell_angle_alpha   36.38698544
_cell_angle_beta   36.38698544
_cell_angle_gamma   36.38698888
_symmetry_Int_Tables_number   1
_chemical_formula_structural   MgCd
_chemical_formula_sum   'Mg8 Cd8'
_cell_volume   347.09623392
_cell_formula_units_Z   8
loop_
 _symmetry_equiv_pos_site_id
 _symmetry_equiv_pos_as_xyz
  1  'x, y, z'
loop_
 _atom_site_type_symbol
 _atom_site_label
 _atom_site_symmetry_multiplicity
 _atom_site_fract_x
 _atom_site_fract_y
 _atom_site_fract_z
 _atom_site_occupancy
  Mg  Mg0_0  1  0.25000000  0.25000000  0.25000000  1
  Mg  Mg0_1  1  0.25000000  0.25000000  0.75000000  1
  Mg  Mg0_2  1  0.25000000  0.75000000  0.25000000  1
  Mg  Mg0_3  1  0.25000000  0.75000000  0.75000000  1
  Mg  Mg0_4  1  0.75000000  0.25000000  0.25000000  1
  Mg  Mg0_5  1  0.75000000  0.25000000  0.75000000  1
  Mg  Mg0_6  1  0.75000000  0.75000000  0.25000000  1
  Mg  Mg0_7  1  0.75000000  0.75000000  0.75000000  1
  Cd  Cd0_0  1  0.00000000  0.00000000  0.00000000  1
  Cd  Cd0_1  1  0.00000000  0.00000000  0.50000000  1
  Cd  Cd0_2  1  0.00000000  0.50000000  0.00000000  1
  Cd  Cd0_3  1  0.00000000  0.50000000  0.50000000  1
  Cd  Cd0_4  1  0.50000000  0.00000000  0.00000000  1
  Cd  Cd0_5  1  0.50000000  0.00000000  0.50000000  1
  Cd  Cd0_6  1  0.50000000  0.50000000  0.00000000  1
  Cd  Cd0_7  1  0.50000000  0.50000000  0.50000000  1
loop_
_geom_bond_atom_site_label_1
_geom_bond_atom_site_label_2
_geom_bond_distance
_geom_bond_site_symmetry_2
Mg0_0 Mg0_3 3.224941 1_554
Mg0_0 Mg0_5 3.224941 1_554
Mg0_0 Mg0_5 3.224941 1_455
Mg0_0 Mg0_3 3.224941 1_545
Mg0_0 Mg0_6 3.224941 1_455
Mg0_0 Mg0_6 3.224941 1_545
Mg0_1 Mg0_2 3.224941 1_555
Mg0_1 Mg0_4 3.224941 1_555
Mg0_1 Mg0_4 3.224941 1_456
Mg0_1 Mg0_2 3.224941 1_546
Mg0_1 Mg0_7 3.224941 1_455
Mg0_1 Mg0_7 3.224941 1_545
Mg0_2 Mg0_7 3.224941 1_554
Mg0_2 Mg0_7 3.224941 1_455
Mg0_2 Mg0_4 3.224941 1_555
Mg0_2 Mg0_4 3.224941 1_465
Mg0_3 Mg0_6 3.224941 1_555
Mg0_3 Mg0_6 3.224941 1_456
Mg0_3 Mg0_5 3.224941 1_555
Mg0_3 Mg0_5 3.224941 1_465
Mg0_4 Mg0_7 3.224941 1_554
Mg0_4 Mg0_7 3.224941 1_545
Mg0_5 Mg0_6 3.224941 1_555
Mg0_5 Mg0_6 3.224941 1_546
Cd0_0 Mg0_1 3.044316 1_554
Cd0_0 Mg0_6 3.044316 1_445
Cd0_0 Mg0_2 3.044317 1_545
Cd0_0 Mg0_4 3.044317 1_455
Cd0_0 Mg0_5 3.044317 1_454
Cd0_0 Mg0_3 3.044317 1_544
Cd0_0 Cd0_3 3.224941 1_554
Cd0_0 Cd0_5 3.224941 1_455
Cd0_0 Cd0_5 3.224941 1_554
Cd0_0 Cd0_3 3.224941 1_545
Cd0_0 Cd0_6 3.224941 1_455
Cd0_0 Cd0_6 3.224941 1_545
Cd0_1 Mg0_0 3.044316 1_555
Cd0_1 Mg0_7 3.044316 1_445
Cd0_1 Mg0_4 3.044317 1_455
Cd0_1 Mg0_3 3.044317 1_545
Cd0_1 Mg0_5 3.044317 1_455
Cd0_1 Mg0_2 3.044317 1_545
Cd0_1 Cd0_4 3.224941 1_456
Cd0_1 Cd0_2 3.224941 1_555
Cd0_1 Cd0_4 3.224941 1_555
Cd0_1 Cd0_2 3.224941 1_546
Cd0_1 Cd0_7 3.224941 1_455
Cd0_1 Cd0_7 3.224941 1_545
Cd0_2 Mg0_4 3.044316 1_455
Cd0_2 Mg0_3 3.044316 1_554
Cd0_2 Mg0_6 3.044317 1_455
Cd0_2 Mg0_1 3.044317 1_554
Cd0_2 Mg0_7 3.044317 1_454
Cd0_2 Mg0_0 3.044317 1_555
Cd0_2 Cd0_7 3.224941 1_455
Cd0_2 Cd0_7 3.224941 1_554
Cd0_2 Cd0_4 3.224941 1_555
Cd0_2 Cd0_4 3.224941 1_465
Cd0_3 Mg0_5 3.044316 1_455
Cd0_3 Mg0_2 3.044316 1_555
Cd0_3 Mg0_7 3.044317 1_455
Cd0_3 Mg0_0 3.044317 1_555
Cd0_3 Mg0_1 3.044317 1_555
Cd0_3 Mg0_6 3.044317 1_455
Cd0_3 Cd0_6 3.224941 1_555
Cd0_3 Cd0_6 3.224941 1_456
Cd0_3 Cd0_5 3.224941 1_555
Cd0_3 Cd0_5 3.224941 1_465
Cd0_4 Mg0_5 3.044316 1_554
Cd0_4 Mg0_2 3.044316 1_545
Cd0_4 Mg0_6 3.044317 1_545
Cd0_4 Mg0_0 3.044317 1_555
Cd0_4 Mg0_1 3.044317 1_554
Cd0_4 Mg0_7 3.044317 1_544
Cd0_4 Cd0_7 3.224941 1_545
Cd0_4 Cd0_7 3.224941 1_554
Cd0_5 Mg0_3 3.044316 1_545
Cd0_5 Mg0_4 3.044316 1_555
Cd0_5 Mg0_7 3.044317 1_545
Cd0_5 Mg0_1 3.044317 1_555
Cd0_5 Mg0_0 3.044317 1_555
Cd0_5 Mg0_6 3.044317 1_545
Cd0_5 Cd0_6 3.224941 1_555
Cd0_5 Cd0_6 3.224941 1_546
Cd0_6 Mg0_7 3.044316 1_554
Cd0_6 Mg0_0 3.044316 1_555
Cd0_6 Mg0_2 3.044317 1_555
Cd0_6 Mg0_4 3.044317 1_555
Cd0_6 Mg0_5 3.044317 1_554
Cd0_6 Mg0_3 3.044317 1_554
Cd0_7 Mg0_6 3.044316 1_555
Cd0_7 Mg0_1 3.044316 1_555
Cd0_7 Mg0_3 3.044317 1_555
Cd0_7 Mg0_2 3.044317 1_555
Cd0_7 Mg0_4 3.044317 1_555
Cd0_7 Mg0_5 3.044317 1_555
