# generated using pymatgen
data_K2H4Pd(N2O5)2
_symmetry_space_group_name_H-M   'P 1'
_cell_length_a   6.96838542
_cell_length_b   7.22541865
_cell_length_c   7.49708956
_cell_angle_alpha   116.74948873
_cell_angle_beta   104.81718331
_cell_angle_gamma   97.84862780
_symmetry_Int_Tables_number   1
_chemical_formula_structural   K2H4Pd(N2O5)2
_chemical_formula_sum   'K2 H4 Pd1 N4 O10'
_cell_volume   311.71590880
_cell_formula_units_Z   1
loop_
 _symmetry_equiv_pos_site_id
 _symmetry_equiv_pos_as_xyz
  1  'x, y, z'
loop_
 _atom_site_type_symbol
 _atom_site_label
 _atom_site_symmetry_multiplicity
 _atom_site_fract_x
 _atom_site_fract_y
 _atom_site_fract_z
 _atom_site_occupancy
  K  K0  1  0.67955700  0.73191500  0.36067200  1
  K  K1  1  0.32044300  0.26808500  0.63932800  1
  H  H0  1  0.18150000  0.79317300  0.63299400  1
  H  H1  1  0.81850000  0.20682700  0.36700600  1
  H  H2  1  0.15899100  0.74470100  0.40433700  1
  H  H3  1  0.84100900  0.25529900  0.59566300  1
  Pd  Pd0  1  0.00000000  0.00000000  0.00000000  1
  N  N0  1  0.75017200  0.11789200  0.95257300  1
  N  N1  1  0.24982800  0.88210800  0.04742700  1
  N  N2  1  0.80291100  0.69622100  0.86796100  1
  N  N3  1  0.19708900  0.30377900  0.13203900  1
  O  O0  1  0.70356100  0.23524600  0.10850000  1
  O  O1  1  0.29643900  0.76475400  0.89150000  1
  O  O2  1  0.64956000  0.07430600  0.76828400  1
  O  O3  1  0.35044000  0.92569400  0.23171600  1
  O  O4  1  0.71166200  0.58483100  0.66959900  1
  O  O5  1  0.28833800  0.41516900  0.33040100  1
  O  O6  1  0.77628400  0.62235100  0.98438800  1
  O  O7  1  0.22371600  0.37764900  0.01561200  1
  O  O8  1  0.11802700  0.82917900  0.52423800  1
  O  O9  1  0.88197300  0.17082100  0.47576200  1
loop_
_geom_bond_atom_site_label_1
_geom_bond_atom_site_label_2
_geom_bond_distance
_geom_bond_site_symmetry_2
K0 O8 2.838077 1_655
K0 O6 2.854329 1_554
K0 O9 2.912684 1_565
K0 O4 2.925607 1_555
K0 O3 3.019315 1_555
K0 O2 3.027382 1_565
K0 O5 3.198951 1_555
K0 O0 3.270919 1_555
K0 O7 3.309076 1_555
K1 O9 2.838077 1_455
K1 O7 2.854329 1_556
K1 O8 2.912684 1_545
K1 O5 2.925607 1_555
K1 O2 3.019315 1_555
K1 O3 3.027382 1_545
K1 O4 3.198951 1_555
K1 O1 3.270919 1_555
K1 O6 3.309076 1_555
H0 O8 0.982872 1_555
H1 O9 0.982872 1_555
H2 O8 0.973143 1_555
H3 O9 0.973143 1_555
N0 O2 1.245874 1_555
N0 O0 1.252269 1_556
N0 Pd0 2.060048 1_656
N1 O3 1.245874 1_555
N1 O1 1.252269 1_554
N1 Pd0 2.060048 1_565
N2 O6 1.247545 1_555
N2 O4 1.250123 1_555
N2 Pd0 2.051655 1_666
N3 O7 1.247545 1_555
N3 O5 1.250123 1_555
N3 Pd0 2.051655 1_555
