# generated using pymatgen
data_Li9Mn2Co5O16
_symmetry_space_group_name_H-M   'P 1'
_cell_length_a   2.96817800
_cell_length_b   9.98258289
_cell_length_c   10.76537386
_cell_angle_alpha   114.47329291
_cell_angle_beta   97.60199480
_cell_angle_gamma   89.95637349
_symmetry_Int_Tables_number   1
_chemical_formula_structural   Li9Mn2Co5O16
_chemical_formula_sum   'Li9 Mn2 Co5 O16'
_cell_volume   287.25165943
_cell_formula_units_Z   1
loop_
 _symmetry_equiv_pos_site_id
 _symmetry_equiv_pos_as_xyz
  1  'x, y, z'
loop_
 _atom_site_type_symbol
 _atom_site_label
 _atom_site_symmetry_multiplicity
 _atom_site_fract_x
 _atom_site_fract_y
 _atom_site_fract_z
 _atom_site_occupancy
  Li  Li0  1  0.38765100  0.31391900  0.26405300  1
  Li  Li1  1  0.11179200  0.42975700  0.73604100  1
  Li  Li2  1  0.88820800  0.57024300  0.26395900  1
  Li  Li3  1  0.87253700  0.06702500  0.25474400  1
  Li  Li4  1  0.62408300  0.18126900  0.74651000  1
  Li  Li5  1  0.37591700  0.81873100  0.25349000  1
  Li  Li6  1  0.12746300  0.93297500  0.74525600  1
  Li  Li7  1  0.61234900  0.68608100  0.73594700  1
  Li  Li8  1  0.00000000  0.50000000  0.50000000  1
  Mn  Mn0  1  0.26251600  0.37192000  0.00193800  1
  Mn  Mn1  1  0.73748400  0.62808000  0.99806200  1
  Co  Co0  1  0.50376300  0.74086800  0.50102000  1
  Co  Co1  1  0.22256700  0.88518700  0.99847600  1
  Co  Co2  1  0.00000000  0.00000000  0.50000000  1
  Co  Co3  1  0.77743300  0.11481300  0.00152400  1
  Co  Co4  1  0.49623700  0.25913200  0.49898000  1
  O  O0  1  0.81979200  0.35018600  0.11277800  1
  O  O1  1  0.55975400  0.44737200  0.61901000  1
  O  O2  1  0.29753100  0.58886200  0.10599900  1
  O  O3  1  0.32134000  0.09563900  0.12232100  1
  O  O4  1  0.08166000  0.20693200  0.61654900  1
  O  O5  1  0.78543100  0.83130300  0.11153000  1
  O  O6  1  0.56047800  0.95595700  0.61179300  1
  O  O7  1  0.07736100  0.71942800  0.61558900  1
  O  O8  1  0.92263900  0.28057200  0.38441100  1
  O  O9  1  0.70246900  0.41113800  0.89400100  1
  O  O10  1  0.44024600  0.55262800  0.38099000  1
  O  O11  1  0.43952200  0.04404300  0.38820700  1
  O  O12  1  0.21456900  0.16869700  0.88847000  1
  O  O13  1  0.91834000  0.79306800  0.38345100  1
  O  O14  1  0.67866000  0.90436100  0.87767900  1
  O  O15  1  0.18020800  0.64981400  0.88722200  1
loop_
_geom_bond_atom_site_label_1
_geom_bond_atom_site_label_2
_geom_bond_distance
_geom_bond_site_symmetry_2
Li0 O8 2.030614 1_555
Li0 O3 2.069149 1_555
Li0 O8 2.127428 1_455
Li0 O10 2.179590 1_555
Li0 O0 2.320655 1_455
Li0 O0 2.338871 1_555
Li1 O1 1.984939 1_455
Li1 O1 2.003316 1_555
Li1 O4 2.051752 1_555
Li1 O15 2.113464 1_555
Li1 O9 2.282799 1_455
Li1 O9 2.339365 1_555
Li2 O10 1.984939 1_655
Li2 O10 2.003316 1_555
Li2 O13 2.051752 1_555
Li2 O0 2.113464 1_555
Li2 O2 2.282799 1_655
Li2 O2 2.339365 1_555
Li3 O8 1.998774 1_555
Li3 O3 2.123705 1_555
Li3 O11 2.128619 1_555
Li3 O11 2.140544 1_655
Li3 O3 2.174595 1_655
Li3 O5 2.206940 1_545
Li4 O4 2.077387 1_555
Li4 O6 2.103183 1_545
Li4 O12 2.116460 1_555
Li4 O4 2.160538 1_655
Li4 O9 2.173732 1_555
Li4 O12 2.207496 1_655
Li5 O13 2.077387 1_555
Li5 O11 2.103183 1_565
Li5 O5 2.116460 1_555
Li5 O13 2.160538 1_455
Li5 O2 2.173732 1_555
Li5 O5 2.207496 1_455
Li6 O7 1.998774 1_555
Li6 O14 2.123705 1_555
Li6 O6 2.128619 1_555
Li6 O6 2.140544 1_455
Li6 O14 2.174595 1_455
Li6 O12 2.206940 1_565
Li7 O7 2.030614 1_555
Li7 O14 2.069149 1_555
Li7 O7 2.127428 1_655
Li7 O1 2.179590 1_555
Li7 O15 2.320655 1_655
Li7 O15 2.338871 1_555
Li8 O7 2.016450 1_555
Li8 O8 2.016450 1_455
Li8 O10 2.150968 1_555
Li8 O1 2.150968 1_455
Li8 O1 2.161253 1_555
Li8 O10 2.161253 1_455
Mn0 O12 1.878619 1_554
Mn0 O0 1.956398 1_455
Mn0 O0 1.974499 1_555
Mn0 O2 1.978692 1_555
Mn0 O9 1.996973 1_554
Mn0 O9 2.032643 1_454
Mn1 O5 1.878619 1_556
Mn1 O15 1.956398 1_655
Mn1 O15 1.974499 1_555
Mn1 O9 1.978692 1_555
Mn1 O2 1.996973 1_556
Mn1 O2 2.032643 1_656
Co0 O10 1.777812 1_555
Co0 O7 1.949617 1_555
Co0 O6 1.971451 1_555
Co0 O7 2.031808 1_655
Co0 O13 2.084992 1_555
Co0 O13 2.203641 1_455
Co1 O3 1.963135 1_566
Co1 O14 1.996086 1_455
Co1 O14 2.057385 1_555
Co1 O5 2.101281 1_456
Co1 O5 2.136546 1_556
Co1 O15 2.144768 1_555
Co2 O4 1.916520 1_555
Co2 O13 1.916520 1_445
Co2 O6 2.048979 1_445
Co2 O11 2.048979 1_555
Co2 O6 2.077697 1_545
Co2 O11 2.077697 1_455
Co3 O14 1.963135 1_544
Co3 O3 1.996086 1_655
Co3 O3 2.057385 1_555
Co3 O12 2.101281 1_654
Co3 O12 2.136546 1_554
Co3 O0 2.144768 1_555
Co4 O1 1.777812 1_555
Co4 O8 1.949617 1_555
Co4 O11 1.971451 1_555
Co4 O8 2.031808 1_455
Co4 O4 2.084992 1_555
Co4 O4 2.203641 1_655
