# generated using pymatgen
data_LiBi3PbWClO8
_symmetry_space_group_name_H-M   'P 1'
_cell_length_a   4.12654500
_cell_length_b   4.08425800
_cell_length_c   14.98887900
_cell_angle_alpha   90.00000000
_cell_angle_beta   90.00000000
_cell_angle_gamma   90.00000000
_symmetry_Int_Tables_number   1
_chemical_formula_structural   LiBi3PbWClO8
_chemical_formula_sum   'Li1 Bi3 Pb1 W1 Cl1 O8'
_cell_volume   252.62068449
_cell_formula_units_Z   1
loop_
 _symmetry_equiv_pos_site_id
 _symmetry_equiv_pos_as_xyz
  1  'x, y, z'
loop_
 _atom_site_type_symbol
 _atom_site_label
 _atom_site_symmetry_multiplicity
 _atom_site_fract_x
 _atom_site_fract_y
 _atom_site_fract_z
 _atom_site_occupancy
  Li  Li0  1  0.50000000  0.00000000  0.44323800  1
  Bi  Bi0  1  0.50000000  0.50000000  0.14510000  1
  Bi  Bi1  1  0.00000000  0.00000000  0.29653600  1
  Bi  Bi2  1  0.00000000  0.00000000  0.67264300  1
  Pb  Pb0  1  0.50000000  0.50000000  0.83091000  1
  W  W0  1  0.00000000  0.00000000  0.01166100  1
  Cl  Cl0  1  0.50000000  0.50000000  0.50434900  1
  O  O0  1  0.00000000  0.00000000  0.14429700  1
  O  O1  1  0.50000000  0.00000000  0.02934100  1
  O  O2  1  0.00000000  0.50000000  0.02809200  1
  O  O3  1  0.00000000  0.00000000  0.88824700  1
  O  O4  1  0.50000000  0.00000000  0.73234000  1
  O  O5  1  0.00000000  0.50000000  0.73431500  1
  O  O6  1  0.50000000  0.00000000  0.25147100  1
  O  O7  1  0.00000000  0.50000000  0.24640600  1
loop_
_geom_bond_atom_site_label_1
_geom_bond_atom_site_label_2
_geom_bond_distance
_geom_bond_site_symmetry_2
Bi0 O7 2.561801 1_555
Bi0 O7 2.561801 1_655
Bi0 O6 2.590819 1_555
Bi0 O6 2.590819 1_565
Bi0 O1 2.679712 1_555
Bi0 O1 2.679712 1_565
Bi0 O2 2.707946 1_555
Bi0 O2 2.707946 1_655
Bi1 O6 2.171027 1_555
Bi1 O6 2.171027 1_455
Bi1 O7 2.175978 1_555
Bi1 O7 2.175978 1_545
Bi1 O0 2.281892 1_555
Bi1 Li0 3.015335 1_455
Bi1 Li0 3.015335 1_555
Bi2 O5 2.241606 1_545
Bi2 O5 2.241606 1_555
Bi2 O4 2.248943 1_555
Bi2 O4 2.248943 1_455
Cl0 Li0 2.238151 1_565
Cl0 Li0 2.238151 1_555
O0 W0 1.988065 1_555
O1 W0 2.080221 1_655
O1 W0 2.080221 1_555
O2 W0 2.056926 1_555
O2 W0 2.056926 1_565
O3 W0 1.849838 1_556
O4 Pb0 2.520548 1_555
O4 Pb0 2.520548 1_545
O5 Pb0 2.520588 1_555
O5 Pb0 2.520588 1_455
