# generated using pymatgen
data_RbLuS2O9
_symmetry_space_group_name_H-M   'P 1'
_cell_length_a   8.49171800
_cell_length_b   10.55436862
_cell_length_c   10.07693123
_cell_angle_alpha   120.22738489
_cell_angle_beta   90.00000000
_cell_angle_gamma   90.00000000
_symmetry_Int_Tables_number   1
_chemical_formula_structural   RbLuS2O9
_chemical_formula_sum   'Rb4 Lu4 S8 O36'
_cell_volume   780.34578704
_cell_formula_units_Z   4
loop_
 _symmetry_equiv_pos_site_id
 _symmetry_equiv_pos_as_xyz
  1  'x, y, z'
loop_
 _atom_site_type_symbol
 _atom_site_label
 _atom_site_symmetry_multiplicity
 _atom_site_fract_x
 _atom_site_fract_y
 _atom_site_fract_z
 _atom_site_occupancy
  Rb  Rb0  1  0.33378000  0.68183800  0.96255300  1
  Rb  Rb1  1  0.66622000  0.31816200  0.03744700  1
  Rb  Rb2  1  0.83378000  0.81816200  0.53744700  1
  Rb  Rb3  1  0.16622000  0.18183800  0.46255300  1
  Lu  Lu0  1  0.37115600  0.96952900  0.71795100  1
  Lu  Lu1  1  0.62884400  0.03047100  0.28204900  1
  Lu  Lu2  1  0.87115600  0.53047100  0.78204900  1
  Lu  Lu3  1  0.12884400  0.46952900  0.21795100  1
  S  S0  1  0.13146100  0.31604400  0.87709100  1
  S  S1  1  0.86853900  0.68395600  0.12290900  1
  S  S2  1  0.63146100  0.18395600  0.62290900  1
  S  S3  1  0.36853900  0.81604400  0.37709100  1
  S  S4  1  0.19583000  0.60997800  0.59792900  1
  S  S5  1  0.80417000  0.39002200  0.40207100  1
  S  S6  1  0.69583000  0.89002200  0.90207100  1
  S  S7  1  0.30417000  0.10997800  0.09792900  1
  O  O0  1  0.79385300  0.02374700  0.96989200  1
  O  O1  1  0.20614700  0.97625300  0.03010800  1
  O  O2  1  0.29385300  0.47625300  0.53010800  1
  O  O3  1  0.70614700  0.52374700  0.46989200  1
  O  O4  1  0.20691300  0.17683900  0.76424800  1
  O  O5  1  0.79308700  0.82316100  0.23575200  1
  O  O6  1  0.70691300  0.32316100  0.73575200  1
  O  O7  1  0.29308700  0.67683900  0.26424800  1
  O  O8  1  0.29868200  0.74395300  0.68058200  1
  O  O9  1  0.70131800  0.25604700  0.31941800  1
  O  O10  1  0.79868200  0.75604700  0.81941800  1
  O  O11  1  0.20131800  0.24395300  0.18058200  1
  O  O12  1  0.39407500  0.11939100  0.97616300  1
  O  O13  1  0.60592500  0.88060900  0.02383700  1
  O  O14  1  0.89407500  0.38060900  0.52383700  1
  O  O15  1  0.10592500  0.61939100  0.47616300  1
  O  O16  1  0.12356400  0.93767500  0.78000000  1
  O  O17  1  0.87643600  0.06232500  0.22000000  1
  O  O18  1  0.62356400  0.56232500  0.72000000  1
  O  O19  1  0.37643600  0.43767500  0.28000000  1
  O  O20  1  0.25063200  0.42156100  0.98979600  1
  O  O21  1  0.74936800  0.57843900  0.01020400  1
  O  O22  1  0.75063200  0.07843900  0.51020400  1
  O  O23  1  0.24936800  0.92156100  0.48979600  1
  O  O24  1  0.01152900  0.29954100  0.97512400  1
  O  O25  1  0.98847100  0.70045900  0.02487600  1
  O  O26  1  0.51152900  0.20045900  0.52487600  1
  O  O27  1  0.48847100  0.79954100  0.47512400  1
  O  O28  1  0.05860800  0.38125600  0.78997900  1
  O  O29  1  0.94139200  0.61874400  0.21002100  1
  O  O30  1  0.55860800  0.11874400  0.71002100  1
  O  O31  1  0.44139200  0.88125600  0.28997900  1
  O  O32  1  0.58843800  0.88796700  0.78499900  1
  O  O33  1  0.41156200  0.11203300  0.21500100  1
  O  O34  1  0.08843800  0.61203300  0.71500100  1
  O  O35  1  0.91156200  0.38796700  0.28499900  1
loop_
_geom_bond_atom_site_label_1
_geom_bond_atom_site_label_2
_geom_bond_distance
_geom_bond_site_symmetry_2
Lu0 O16 2.266290 1_555
Lu0 O30 2.268724 1_565
Lu0 O12 2.272919 1_565
Lu0 O32 2.277612 1_555
Lu0 O8 2.299160 1_555
Lu0 O23 2.332331 1_555
Lu0 O27 2.403870 1_555
Lu0 O4 2.433623 1_565
Lu1 O17 2.266290 1_555
Lu1 O31 2.268724 1_545
Lu1 O13 2.272919 1_545
Lu1 O33 2.277612 1_555
Lu1 O9 2.299160 1_555
Lu1 O22 2.332331 1_555
Lu1 O26 2.403870 1_555
Lu1 O5 2.433623 1_545
Lu2 O18 2.266290 1_555
Lu2 O28 2.268724 1_655
Lu2 O14 2.272919 1_555
Lu2 O34 2.277612 1_655
Lu2 O10 2.299160 1_555
Lu2 O21 2.332331 1_556
Lu2 O25 2.403870 1_556
Lu2 O6 2.433623 1_555
Lu3 O19 2.266290 1_555
Lu3 O29 2.268724 1_455
Lu3 O15 2.272919 1_555
Lu3 O35 2.277612 1_455
Lu3 O11 2.299160 1_555
Lu3 O20 2.332331 1_554
Lu3 O24 2.403870 1_554
Lu3 O7 2.433623 1_555
O0 S6 1.476732 1_545
O0 Rb1 3.027202 1_556
O1 S7 1.476732 1_565
O1 Rb0 3.027202 1_554
O2 S4 1.476732 1_555
O2 Rb3 3.027202 1_555
O3 S5 1.476732 1_555
O3 Rb2 3.027202 1_555
O4 S0 1.476486 1_555
O4 Rb3 3.086465 1_555
O5 S1 1.476486 1_555
O5 Rb2 3.086465 1_555
O6 S2 1.476486 1_555
O6 Rb1 3.086465 1_556
O7 S3 1.476486 1_555
O7 Rb0 3.086465 1_554
O8 S4 1.506706 1_555
O8 Rb0 3.235391 1_555
O9 S5 1.506706 1_555
O9 Rb1 3.235391 1_555
O10 S6 1.506706 1_555
O10 Rb2 3.235391 1_555
O11 S7 1.506706 1_555
O11 Rb3 3.235391 1_555
O12 S7 1.490322 1_556
O12 Rb1 2.969634 1_556
O13 S6 1.490322 1_554
O13 Rb0 2.969634 1_554
O14 S5 1.490322 1_555
O14 Rb3 2.969634 1_655
O15 S4 1.490322 1_555
O15 Rb2 2.969634 1_455
O16 Rb2 3.242882 1_455
O17 Rb3 3.242882 1_655
O18 Rb0 3.242882 1_555
O19 Rb1 3.242882 1_555
O20 S0 1.510196 1_555
O20 Rb0 2.979857 1_555
O21 S1 1.510196 1_555
O21 Rb1 2.979857 1_555
O22 S2 1.510196 1_555
O22 Rb2 2.979857 1_545
O23 S3 1.510196 1_555
O23 Rb3 2.979857 1_565
O24 S0 1.488850 1_555
O24 Rb1 2.984452 1_456
O25 S1 1.488850 1_555
O25 Rb0 2.984452 1_654
O26 S2 1.488850 1_555
O26 Rb3 2.984452 1_555
O27 S3 1.488850 1_555
O27 Rb2 2.984452 1_555
O28 S0 1.495106 1_555
O28 Rb3 3.026413 1_555
O29 S1 1.495106 1_555
O29 Rb2 3.026413 1_555
O30 S2 1.495106 1_555
O30 Rb1 3.026413 1_556
O31 S3 1.495106 1_555
O31 Rb0 3.026413 1_554
O32 S6 1.482599 1_555
O32 Rb2 3.042305 1_555
O33 S7 1.482599 1_555
O33 Rb3 3.042305 1_555
O34 S4 1.482599 1_555
O34 Rb0 3.042305 1_555
O35 S5 1.482599 1_555
O35 Rb1 3.042305 1_555
