# generated using pymatgen
data_MoSeS
_symmetry_space_group_name_H-M   'P 1'
_cell_length_a   3.24993478
_cell_length_b   3.24968015
_cell_length_c   22.18203533
_cell_angle_alpha   90.00419115
_cell_angle_beta   89.99973481
_cell_angle_gamma   120.00261764
_symmetry_Int_Tables_number   1
_chemical_formula_structural   MoSeS
_chemical_formula_sum   'Mo2 Se2 S2'
_cell_volume   202.87840880
_cell_formula_units_Z   2
loop_
 _symmetry_equiv_pos_site_id
 _symmetry_equiv_pos_as_xyz
  1  'x, y, z'
loop_
 _atom_site_type_symbol
 _atom_site_label
 _atom_site_symmetry_multiplicity
 _atom_site_fract_x
 _atom_site_fract_y
 _atom_site_fract_z
 _atom_site_occupancy
  Mo  Mo0  1  0.33348941  0.66697315  0.15159088  1
  Mo  Mo1  1  0.66646277  0.33292985  0.45028040  1
  Se  Se0  1  0.33323374  0.66648200  0.52593652  1
  Se  Se1  1  0.33314184  0.66628198  0.37456760  1
  S  S0  1  0.66684432  0.33368139  0.08254398  1
  S  S1  1  0.66682791  0.33365263  0.22068462  1
loop_
_geom_bond_atom_site_label_1
_geom_bond_atom_site_label_2
_geom_bond_distance
_geom_bond_site_symmetry_2
Mo0 S0 2.421950 1_555
Mo0 S0 2.421955 1_455
Mo0 S0 2.422120 1_565
Mo0 S1 2.422520 1_565
Mo0 S1 2.422736 1_455
Mo0 S1 2.422740 1_555
Mo1 Se0 2.516851 1_545
Mo1 Se0 2.517490 1_655
Mo1 Se0 2.517501 1_555
Mo1 Se1 2.517904 1_545
Mo1 Se1 2.518225 1_555
Mo1 Se1 2.518227 1_655
