# generated using pymatgen
data_Ca4MnN4
_symmetry_space_group_name_H-M   'P 1'
_cell_length_a   5.94184966
_cell_length_b   5.97619646
_cell_length_c   8.72718805
_cell_angle_alpha   71.63786219
_cell_angle_beta   79.17965575
_cell_angle_gamma   68.76651265
_symmetry_Int_Tables_number   1
_chemical_formula_structural   Ca4MnN4
_chemical_formula_sum   'Ca8 Mn2 N8'
_cell_volume   273.20213252
_cell_formula_units_Z   2
loop_
 _symmetry_equiv_pos_site_id
 _symmetry_equiv_pos_as_xyz
  1  'x, y, z'
loop_
 _atom_site_type_symbol
 _atom_site_label
 _atom_site_symmetry_multiplicity
 _atom_site_fract_x
 _atom_site_fract_y
 _atom_site_fract_z
 _atom_site_occupancy
  Ca  Ca0  1  0.79071972  0.56765711  0.16798401  1
  Ca  Ca1  1  0.20928028  0.43234289  0.83201599  1
  Ca  Ca2  1  0.72643842  0.21506854  0.97750786  1
  Ca  Ca3  1  0.27356158  0.78493146  0.02249214  1
  Ca  Ca4  1  0.72941941  0.48372094  0.57180300  1
  Ca  Ca5  1  0.27058059  0.51627906  0.42819700  1
  Ca  Ca6  1  0.23151302  0.95763466  0.61510474  1
  Ca  Ca7  1  0.76848698  0.04236534  0.38489526  1
  Mn  Mn0  1  0.72089870  0.84560252  0.75414901  1
  Mn  Mn1  1  0.27910130  0.15439748  0.24585099  1
  N  N0  1  0.96999089  0.70640648  0.61197981  1
  N  N1  1  0.03000911  0.29359352  0.38802019  1
  N  N2  1  0.91163163  0.82504275  0.91042363  1
  N  N3  1  0.08836837  0.17495725  0.08957637  1
  N  N4  1  0.52676189  0.63851315  0.80307655  1
  N  N5  1  0.47323811  0.36148685  0.19692345  1
  N  N6  1  0.48656712  0.83670046  0.34833787  1
  N  N7  1  0.51343288  0.16329954  0.65166213  1
loop_
_geom_bond_atom_site_label_1
_geom_bond_atom_site_label_2
_geom_bond_distance
_geom_bond_site_symmetry_2
Ca0 N1 2.397588 1_655
Ca0 N2 2.439352 1_554
Ca0 N5 2.539515 1_555
Ca0 N3 2.579689 1_655
Ca0 N6 2.598153 1_555
Ca1 N0 2.397588 1_455
Ca1 N3 2.439352 1_556
Ca1 N4 2.539515 1_555
Ca1 N2 2.579689 1_455
Ca1 N7 2.598153 1_555
Ca2 N5 2.390889 1_556
Ca2 N2 2.397214 1_545
Ca2 N3 2.430518 1_656
Ca2 N4 2.491016 1_555
Ca3 N4 2.390889 1_554
Ca3 N3 2.397214 1_565
Ca3 N2 2.430518 1_454
Ca3 N5 2.491016 1_555
Ca4 N1 2.378283 1_655
Ca4 N0 2.407779 1_555
Ca4 N4 2.415893 1_555
Ca4 N7 2.530413 1_555
Ca4 N6 2.568124 1_555
Ca5 N0 2.378283 1_455
Ca5 N1 2.407779 1_555
Ca5 N5 2.415893 1_555
Ca5 N6 2.530413 1_555
Ca5 N7 2.568124 1_555
Ca6 N1 2.456608 1_565
Ca6 N4 2.468175 1_555
Ca6 N7 2.521420 1_565
Ca6 N0 2.530063 1_455
Ca6 N6 2.679785 1_555
Ca6 N2 2.974554 1_455
Ca7 N0 2.456608 1_545
Ca7 N5 2.468175 1_555
Ca7 N6 2.521420 1_545
Ca7 N1 2.530063 1_655
Ca7 N7 2.679785 1_555
Ca7 N3 2.974554 1_655
Mn0 N0 1.868424 1_555
Mn0 N2 1.879740 1_555
Mn0 N4 1.887015 1_555
Mn0 N7 1.890271 1_565
Mn1 N1 1.868424 1_555
Mn1 N3 1.879740 1_555
Mn1 N5 1.887015 1_555
Mn1 N6 1.890271 1_545
