# generated using pymatgen
data_Mn5Si2
_symmetry_space_group_name_H-M   'P 1'
_cell_length_a   8.73965600
_cell_length_b   8.73965600
_cell_length_c   8.55122800
_cell_angle_alpha   90.00000000
_cell_angle_beta   90.00000000
_cell_angle_gamma   90.00000000
_symmetry_Int_Tables_number   1
_chemical_formula_structural   Mn5Si2
_chemical_formula_sum   'Mn40 Si16'
_cell_volume   653.15636542
_cell_formula_units_Z   8
loop_
 _symmetry_equiv_pos_site_id
 _symmetry_equiv_pos_as_xyz
  1  'x, y, z'
loop_
 _atom_site_type_symbol
 _atom_site_label
 _atom_site_symmetry_multiplicity
 _atom_site_fract_x
 _atom_site_fract_y
 _atom_site_fract_z
 _atom_site_occupancy
  Mn  Mn0  1  0.31357300  0.92020200  0.41899800  1
  Mn  Mn1  1  0.68642700  0.07979800  0.91899800  1
  Mn  Mn2  1  0.57979800  0.81357300  0.16899800  1
  Mn  Mn3  1  0.42020200  0.18642700  0.66899800  1
  Mn  Mn4  1  0.07979800  0.68642700  0.08100200  1
  Mn  Mn5  1  0.92020200  0.31357300  0.58100200  1
  Mn  Mn6  1  0.81357300  0.57979800  0.83100200  1
  Mn  Mn7  1  0.18642700  0.42020200  0.33100200  1
  Mn  Mn8  1  0.27626000  0.67360900  0.59740200  1
  Mn  Mn9  1  0.72374000  0.32639100  0.09740200  1
  Mn  Mn10  1  0.82639100  0.77626000  0.34740200  1
  Mn  Mn11  1  0.17360900  0.22374000  0.84740200  1
  Mn  Mn12  1  0.32639100  0.72374000  0.90259800  1
  Mn  Mn13  1  0.67360900  0.27626000  0.40259800  1
  Mn  Mn14  1  0.77626000  0.82639100  0.65259800  1
  Mn  Mn15  1  0.22374000  0.17360900  0.15259800  1
  Mn  Mn16  1  0.36347500  0.63652500  0.25000000  1
  Mn  Mn17  1  0.63652500  0.36347500  0.75000000  1
  Mn  Mn18  1  0.86347500  0.86347500  0.00000000  1
  Mn  Mn19  1  0.13652500  0.13652500  0.50000000  1
  Mn  Mn20  1  0.04618100  0.95381900  0.25000000  1
  Mn  Mn21  1  0.95381900  0.04618100  0.75000000  1
  Mn  Mn22  1  0.54618100  0.54618100  0.00000000  1
  Mn  Mn23  1  0.45381900  0.45381900  0.50000000  1
  Mn  Mn24  1  0.04325000  0.86925600  0.53602200  1
  Mn  Mn25  1  0.95675000  0.13074400  0.03602200  1
  Mn  Mn26  1  0.63074400  0.54325000  0.28602200  1
  Mn  Mn27  1  0.36925600  0.45675000  0.78602200  1
  Mn  Mn28  1  0.13074400  0.95675000  0.96397800  1
  Mn  Mn29  1  0.86925600  0.04325000  0.46397800  1
  Mn  Mn30  1  0.54325000  0.63074400  0.71397800  1
  Mn  Mn31  1  0.45675000  0.36925600  0.21397800  1
  Mn  Mn32  1  0.49083400  0.89800900  0.67575500  1
  Mn  Mn33  1  0.50916600  0.10199100  0.17575500  1
  Mn  Mn34  1  0.60199100  0.99083400  0.42575500  1
  Mn  Mn35  1  0.39800900  0.00916600  0.92575500  1
  Mn  Mn36  1  0.10199100  0.50916600  0.82424500  1
  Mn  Mn37  1  0.89800900  0.49083400  0.32424500  1
  Mn  Mn38  1  0.99083400  0.60199100  0.57424500  1
  Mn  Mn39  1  0.00916600  0.39800900  0.07424500  1
  Si  Si0  1  0.23499400  0.96749400  0.70156500  1
  Si  Si1  1  0.76500600  0.03250600  0.20156500  1
  Si  Si2  1  0.53250600  0.73499400  0.45156500  1
  Si  Si3  1  0.46749400  0.26500600  0.95156500  1
  Si  Si4  1  0.03250600  0.76500600  0.79843500  1
  Si  Si5  1  0.96749400  0.23499400  0.29843500  1
  Si  Si6  1  0.73499400  0.53250600  0.54843500  1
  Si  Si7  1  0.26500600  0.46749400  0.04843500  1
  Si  Si8  1  0.30760600  0.88415500  0.14842100  1
  Si  Si9  1  0.69239400  0.11584500  0.64842100  1
  Si  Si10  1  0.61584500  0.80760600  0.89842100  1
  Si  Si11  1  0.38415500  0.19239400  0.39842100  1
  Si  Si12  1  0.11584500  0.69239400  0.35157900  1
  Si  Si13  1  0.88415500  0.30760600  0.85157900  1
  Si  Si14  1  0.80760600  0.61584500  0.10157900  1
  Si  Si15  1  0.19239400  0.38415500  0.60157900  1
loop_
_geom_bond_atom_site_label_1
_geom_bond_atom_site_label_2
_geom_bond_distance
_geom_bond_site_symmetry_2
Mn0 Si8 2.335697 1_555
Mn0 Si11 2.463834 1_565
Mn0 Si2 2.521645 1_555
Mn0 Si0 2.545769 1_555
Mn0 Mn24 2.604073 1_555
Mn0 Si12 2.698620 1_555
Mn0 Mn20 2.763316 1_555
Mn1 Si9 2.335697 1_555
Mn1 Si10 2.463834 1_545
Mn1 Si3 2.521645 1_555
Mn1 Si1 2.545769 1_556
Mn1 Mn25 2.604073 1_556
Mn1 Si13 2.698620 1_555
Mn1 Mn21 2.763316 1_555
Mn2 Si10 2.335697 1_554
Mn2 Si8 2.463834 1_555
Mn2 Si1 2.521645 1_565
Mn2 Si2 2.545769 1_555
Mn2 Mn26 2.604073 1_555
Mn2 Si14 2.698620 1_555
Mn2 Mn22 2.763316 1_555
Mn3 Si11 2.335697 1_555
Mn3 Si9 2.463834 1_555
Mn3 Si0 2.521645 1_545
Mn3 Si3 2.545769 1_555
Mn3 Si15 2.698620 1_555
Mn4 Si12 2.335697 1_555
Mn4 Si14 2.463834 1_455
Mn4 Si7 2.521645 1_555
Mn4 Si4 2.545769 1_554
Mn4 Si8 2.698620 1_555
Mn5 Si13 2.335697 1_555
Mn5 Si15 2.463834 1_655
Mn5 Si6 2.521645 1_555
Mn5 Si5 2.545769 1_555
Mn5 Si9 2.698620 1_555
Mn6 Si14 2.335697 1_556
Mn6 Si13 2.463834 1_555
Mn6 Si4 2.521645 1_655
Mn6 Si6 2.545769 1_555
Mn6 Si10 2.698620 1_555
Mn7 Si15 2.335697 1_555
Mn7 Si12 2.463834 1_555
Mn7 Si5 2.521645 1_455
Mn7 Si7 2.545769 1_555
Mn7 Si11 2.698620 1_555
Mn8 Si12 2.532046 1_555
Mn8 Si2 2.618856 1_555
Mn8 Si15 2.634014 1_555
Mn8 Si0 2.742336 1_555
Mn8 Si4 2.851591 1_555
Mn9 Si13 2.532046 1_554
Mn9 Si3 2.618856 1_554
Mn9 Si14 2.634014 1_555
Mn9 Si1 2.742336 1_555
Mn9 Si5 2.851591 1_555
Mn10 Si14 2.532046 1_555
Mn10 Mn29 2.564927 1_565
Mn10 Mn20 2.606079 1_655
Mn10 Mn24 2.618049 1_655
Mn10 Si1 2.618856 1_565
Mn10 Si12 2.634014 1_655
Mn10 Mn26 2.710396 1_555
Mn10 Si2 2.742336 1_555
Mn10 Si6 2.851591 1_555
Mn11 Si15 2.532046 1_555
Mn11 Mn28 2.564927 1_545
Mn11 Mn21 2.606079 1_455
Mn11 Mn25 2.618049 1_456
Mn11 Si0 2.618856 1_545
Mn11 Si13 2.634014 1_455
Mn11 Mn27 2.710396 1_555
Mn11 Si3 2.742336 1_555
Mn11 Si7 2.851591 1_556
Mn12 Si8 2.532046 1_556
Mn12 Mn27 2.564927 1_555
Mn12 Mn22 2.606079 1_556
Mn12 Mn30 2.618049 1_555
Mn12 Si7 2.618856 1_556
Mn12 Si10 2.634014 1_555
Mn12 Mn28 2.710396 1_555
Mn12 Si4 2.742336 1_555
Mn12 Si0 2.851591 1_555
Mn13 Si9 2.532046 1_555
Mn13 Mn26 2.564927 1_555
Mn13 Mn23 2.606079 1_555
Mn13 Mn31 2.618049 1_555
Mn13 Si6 2.618856 1_555
Mn13 Si11 2.634014 1_555
Mn13 Mn29 2.710396 1_555
Mn13 Si5 2.742336 1_555
Mn13 Si1 2.851591 1_555
Mn14 Si10 2.532046 1_555
Mn14 Mn24 2.564927 1_655
Mn14 Mn21 2.606079 1_565
Mn14 Mn29 2.618049 1_565
Mn14 Si4 2.618856 1_655
Mn14 Si9 2.634014 1_565
Mn14 Mn30 2.710396 1_555
Mn14 Si6 2.742336 1_555
Mn14 Si2 2.851591 1_555
Mn15 Si11 2.532046 1_555
Mn15 Mn25 2.564927 1_455
Mn15 Mn20 2.606079 1_545
Mn15 Mn28 2.618049 1_544
Mn15 Si5 2.618856 1_455
Mn15 Si8 2.634014 1_545
Mn15 Mn31 2.710396 1_555
Mn15 Si7 2.742336 1_555
Mn15 Si3 2.851591 1_554
Mn16 Si8 2.382580 1_555
Mn16 Si12 2.382580 1_555
Mn16 Si2 2.427722 1_555
Mn16 Si7 2.427722 1_555
Mn16 Mn26 2.493104 1_555
Mn16 Mn31 2.493104 1_555
Mn16 Mn22 2.782693 1_555
Mn16 Mn23 2.782693 1_555
Mn17 Si13 2.382580 1_555
Mn17 Si9 2.382580 1_555
Mn17 Si6 2.427722 1_555
Mn17 Si3 2.427722 1_555
Mn17 Mn30 2.493104 1_555
Mn17 Mn27 2.493104 1_555
Mn17 Mn22 2.782693 1_556
Mn17 Mn23 2.782693 1_555
Mn18 Si14 2.382580 1_555
Mn18 Si10 2.382580 1_554
Mn18 Si4 2.427722 1_654
Mn18 Si1 2.427722 1_565
Mn18 Mn25 2.493104 1_565
Mn18 Mn28 2.493104 1_654
Mn18 Mn21 2.782693 1_564
Mn18 Mn20 2.782693 1_655
Mn19 Si15 2.382580 1_555
Mn19 Si11 2.382580 1_555
Mn19 Si5 2.427722 1_455
Mn19 Si0 2.427722 1_545
Mn19 Mn24 2.493104 1_545
Mn19 Mn29 2.493104 1_455
Mn19 Mn20 2.782693 1_545
Mn19 Mn21 2.782693 1_455
Mn20 Si12 2.518997 1_555
Mn20 Si8 2.518997 1_555
Mn20 Mn25 2.519901 1_465
Mn20 Mn29 2.519901 1_465
Mn20 Mn28 2.555188 1_554
Mn20 Mn24 2.555188 1_555
Mn20 Si5 2.585179 1_465
Mn20 Si1 2.585179 1_465
Mn20 Mn4 2.763316 1_555
Mn21 Si9 2.518997 1_555
Mn21 Si13 2.518997 1_555
Mn21 Mn28 2.519901 1_645
Mn21 Mn24 2.519901 1_645
Mn21 Mn25 2.555188 1_556
Mn21 Mn29 2.555188 1_555
Mn21 Si0 2.585179 1_645
Mn21 Si4 2.585179 1_645
Mn21 Mn5 2.763316 1_555
Mn22 Si14 2.518997 1_555
Mn22 Si10 2.518997 1_554
Mn22 Mn27 2.519901 1_554
Mn22 Mn31 2.519901 1_555
Mn22 Mn26 2.555188 1_555
Mn22 Mn30 2.555188 1_554
Mn22 Si3 2.585179 1_554
Mn22 Si7 2.585179 1_555
Mn22 Mn9 2.606079 1_555
Mn22 Mn6 2.763316 1_554
Mn23 Si15 2.518997 1_555
Mn23 Si11 2.518997 1_555
Mn23 Mn26 2.519901 1_555
Mn23 Mn30 2.519901 1_555
Mn23 Mn31 2.555188 1_555
Mn23 Mn27 2.555188 1_555
Mn23 Si6 2.585179 1_555
Mn23 Si2 2.585179 1_555
Mn23 Mn8 2.606079 1_555
Mn23 Mn3 2.763316 1_555
Mn23 Mn7 2.763316 1_555
Mn24 Mn29 2.237024 1_465
Mn24 Si12 2.297687 1_555
Mn24 Si0 2.355690 1_555
Mn24 Mn38 2.402638 1_455
Mn24 Si4 2.423688 1_555
Mn24 Mn8 2.710396 1_555
Mn25 Mn28 2.237024 1_644
Mn25 Si13 2.297687 1_554
Mn25 Si1 2.355690 1_555
Mn25 Mn39 2.402638 1_655
Mn25 Si5 2.423688 1_555
Mn25 Mn9 2.710396 1_555
Mn26 Mn31 2.237024 1_555
Mn26 Si14 2.297687 1_555
Mn26 Si2 2.355690 1_555
Mn26 Mn37 2.402638 1_555
Mn26 Si6 2.423688 1_555
Mn26 Mn9 2.618049 1_555
Mn27 Mn30 2.237024 1_555
Mn27 Si15 2.297687 1_555
Mn27 Si3 2.355690 1_555
Mn27 Mn36 2.402638 1_555
Mn27 Si7 2.423688 1_556
Mn27 Mn3 2.604073 1_555
Mn27 Mn8 2.618049 1_555
Mn28 Si8 2.297687 1_556
Mn28 Si4 2.355690 1_555
Mn28 Mn35 2.402638 1_565
Mn28 Si0 2.423688 1_555
Mn28 Mn4 2.604073 1_556
Mn29 Si9 2.297687 1_555
Mn29 Si5 2.355690 1_555
Mn29 Mn34 2.402638 1_545
Mn29 Si1 2.423688 1_555
Mn29 Mn5 2.604073 1_555
Mn30 Si10 2.297687 1_555
Mn30 Si6 2.355690 1_555
Mn30 Mn32 2.402638 1_555
Mn30 Si2 2.423688 1_555
Mn30 Mn8 2.564927 1_555
Mn30 Mn6 2.604073 1_555
Mn31 Si11 2.297687 1_555
Mn31 Si7 2.355690 1_555
Mn31 Mn33 2.402638 1_555
Mn31 Si3 2.423688 1_554
Mn31 Mn9 2.564927 1_555
Mn31 Mn7 2.604073 1_555
Mn32 Si0 2.327441 1_555
Mn32 Si10 2.333107 1_555
Mn32 Si2 2.416127 1_555
Mn32 Si9 2.604274 1_565
Mn33 Si1 2.327441 1_555
Mn33 Si11 2.333107 1_555
Mn33 Si3 2.416127 1_554
Mn33 Si8 2.604274 1_545
Mn34 Si2 2.327441 1_555
Mn34 Si9 2.333107 1_565
Mn34 Si1 2.416127 1_565
Mn34 Si11 2.604274 1_565
Mn35 Si3 2.327441 1_555
Mn35 Si8 2.333107 1_546
Mn35 Si0 2.416127 1_545
Mn35 Si10 2.604274 1_545
Mn36 Si4 2.327441 1_555
Mn36 Si15 2.333107 1_555
Mn36 Si7 2.416127 1_556
Mn36 Si13 2.604274 1_455
Mn37 Si5 2.327441 1_555
Mn37 Si14 2.333107 1_555
Mn37 Si6 2.416127 1_555
Mn37 Si12 2.604274 1_655
Mn38 Si6 2.327441 1_555
Mn38 Si12 2.333107 1_655
Mn38 Si4 2.416127 1_655
Mn38 Si15 2.604274 1_655
Mn39 Si7 2.327441 1_555
Mn39 Si13 2.333107 1_454
Mn39 Si5 2.416127 1_455
Mn39 Si14 2.604274 1_455
Si0 Si4 2.636224 1_555
Si1 Si5 2.636224 1_555
Si2 Si6 2.636224 1_555
Si3 Si7 2.636224 1_556
