# generated using pymatgen
data_Li5Mn2CoO8
_symmetry_space_group_name_H-M   'P 1'
_cell_length_a   2.87922608
_cell_length_b   5.88032079
_cell_length_c   16.30627208
_cell_angle_alpha   89.07552377
_cell_angle_beta   89.99111497
_cell_angle_gamma   89.98426149
_symmetry_Int_Tables_number   1
_chemical_formula_structural   Li5Mn2CoO8
_chemical_formula_sum   'Li10 Mn4 Co2 O16'
_cell_volume   276.04184071
_cell_formula_units_Z   2
loop_
 _symmetry_equiv_pos_site_id
 _symmetry_equiv_pos_as_xyz
  1  'x, y, z'
loop_
 _atom_site_type_symbol
 _atom_site_label
 _atom_site_symmetry_multiplicity
 _atom_site_fract_x
 _atom_site_fract_y
 _atom_site_fract_z
 _atom_site_occupancy
  Li  Li0  1  0.49999800  0.24993200  0.12498500  1
  Li  Li1  1  0.49999500  0.25007900  0.62502400  1
  Li  Li2  1  0.49999600  0.75001100  0.37498900  1
  Li  Li3  1  0.49999600  0.75002300  0.87499000  1
  Li  Li4  1  0.49999800  0.74990000  0.12499700  1
  Li  Li5  1  0.49999800  0.75011400  0.62501800  1
  Li  Li6  1  0.99891100  0.50871400  0.01023800  1
  Li  Li7  1  0.99892200  0.50886500  0.51028000  1
  Li  Li8  1  0.00106800  0.99113700  0.23973300  1
  Li  Li9  1  0.00107300  0.99132500  0.73977400  1
  Mn  Mn0  1  0.00070500  0.99938700  0.50358400  1
  Mn  Mn1  1  0.99929700  0.50060100  0.24642100  1
  Mn  Mn2  1  0.00067700  0.99911600  0.00354800  1
  Mn  Mn3  1  0.99934200  0.50088000  0.74645300  1
  Co  Co0  1  0.49999400  0.25000100  0.37500200  1
  Co  Co1  1  0.49999900  0.25002100  0.87500200  1
  O  O0  1  0.50018200  0.22995500  0.99365200  1
  O  O1  1  0.50017900  0.23016300  0.49366400  1
  O  O2  1  0.49980700  0.26981700  0.25636400  1
  O  O3  1  0.49983100  0.27003800  0.75637400  1
  O  O4  1  0.00027400  0.00364900  0.11480000  1
  O  O5  1  0.00028600  0.00386800  0.61484100  1
  O  O6  1  0.99974200  0.49607700  0.13516900  1
  O  O7  1  0.99975000  0.49629500  0.63520800  1
  O  O8  1  0.99975900  0.47251300  0.37066300  1
  O  O9  1  0.99975800  0.47257300  0.87068900  1
  O  O10  1  0.00022600  0.02749000  0.37931500  1
  O  O11  1  0.00023500  0.02747200  0.87928700  1
  O  O12  1  0.49949900  0.72010200  0.25223700  1
  O  O13  1  0.49953400  0.72032900  0.75227100  1
  O  O14  1  0.50049000  0.77988800  0.49773000  1
  O  O15  1  0.50048200  0.77966200  0.99769700  1
loop_
_geom_bond_atom_site_label_1
_geom_bond_atom_site_label_2
_geom_bond_distance
_geom_bond_site_symmetry_2
Li0 O6 2.049857 1_555
Li0 O6 2.050298 1_455
Li0 O4 2.050393 1_555
Li0 O4 2.050914 1_655
Li0 O0 2.146663 1_554
Li0 O2 2.147373 1_555
Li1 O5 2.050060 1_555
Li1 O7 2.050175 1_555
Li1 O7 2.050571 1_455
Li1 O5 2.050642 1_655
Li1 O3 2.146932 1_555
Li1 O1 2.147077 1_555
Li2 O14 2.011967 1_555
Li2 O12 2.012165 1_555
Li2 O10 2.177219 1_565
Li2 O8 2.177289 1_555
Li2 O10 2.178701 1_665
Li2 O8 2.178798 1_455
Li3 O15 2.011270 1_555
Li3 O13 2.011498 1_555
Li3 O11 2.177048 1_565
Li3 O9 2.177057 1_555
Li3 O11 2.178565 1_665
Li3 O9 2.178570 1_455
Li4 O4 2.077299 1_565
Li4 O6 2.077623 1_555
Li4 O4 2.078933 1_665
Li4 O6 2.079177 1_455
Li4 O12 2.079377 1_555
Li4 O15 2.080338 1_554
Li5 O5 2.077274 1_565
Li5 O7 2.077643 1_555
Li5 O5 2.078955 1_665
Li5 O7 2.079164 1_455
Li5 O13 2.079583 1_555
Li5 O14 2.080147 1_555
Li6 O6 2.037317 1_555
Li6 O15 2.151303 1_554
Li6 O15 2.157890 1_654
Li6 O0 2.199495 1_554
Li6 O0 2.203638 1_654
Li6 O9 2.288839 1_554
Li7 O7 2.037260 1_555
Li7 O14 2.151647 1_555
Li7 O14 2.158221 1_655
Li7 O1 2.199337 1_555
Li7 O1 2.203427 1_655
Li7 O8 2.290078 1_555
Li8 O4 2.037335 1_565
Li8 O12 2.151635 1_555
Li8 O12 2.158213 1_455
Li8 O2 2.199266 1_565
Li8 O2 2.203371 1_465
Li8 O10 2.289511 1_565
Li9 O5 2.037338 1_565
Li9 O13 2.151513 1_555
Li9 O13 2.157977 1_455
Li9 O3 2.199379 1_565
Li9 O3 2.203412 1_465
Li9 O11 2.288258 1_565
Mn0 O5 1.814804 1_565
Mn0 O14 1.936156 1_555
Mn0 O14 1.937625 1_455
Mn0 O1 1.982362 1_565
Mn0 O1 1.984056 1_465
Mn0 O10 2.030433 1_565
Mn1 O6 1.814730 1_555
Mn1 O12 1.936154 1_555
Mn1 O12 1.937568 1_655
Mn1 O2 1.982454 1_555
Mn1 O2 1.984081 1_655
Mn1 O8 2.029988 1_555
Mn2 O4 1.814731 1_565
Mn2 O15 1.936019 1_554
Mn2 O15 1.937403 1_454
Mn2 O0 1.982652 1_564
Mn2 O0 1.984216 1_464
Mn2 O11 2.030400 1_564
Mn3 O7 1.814627 1_555
Mn3 O13 1.935974 1_555
Mn3 O13 1.937344 1_655
Mn3 O3 1.982706 1_555
Mn3 O3 1.984245 1_655
Mn3 O9 2.029975 1_555
Co0 O2 1.936172 1_555
Co0 O1 1.936569 1_555
Co0 O10 1.945648 1_555
Co0 O8 1.945657 1_555
Co0 O10 1.946121 1_655
Co0 O8 1.946142 1_455
Co1 O3 1.936062 1_555
Co1 O0 1.936433 1_555
Co1 O11 1.945779 1_555
Co1 O9 1.945791 1_555
Co1 O11 1.946268 1_655
Co1 O9 1.946302 1_455
