# generated using pymatgen
data_Mn3Fe3N5
_symmetry_space_group_name_H-M   'P 1'
_cell_length_a   5.46380983
_cell_length_b   5.94509781
_cell_length_c   7.54315765
_cell_angle_alpha   112.35683764
_cell_angle_beta   101.07388257
_cell_angle_gamma   99.17400638
_symmetry_Int_Tables_number   1
_chemical_formula_structural   Mn3Fe3N5
_chemical_formula_sum   'Mn6 Fe6 N10'
_cell_volume   214.96644491
_cell_formula_units_Z   2
loop_
 _symmetry_equiv_pos_site_id
 _symmetry_equiv_pos_as_xyz
  1  'x, y, z'
loop_
 _atom_site_type_symbol
 _atom_site_label
 _atom_site_symmetry_multiplicity
 _atom_site_fract_x
 _atom_site_fract_y
 _atom_site_fract_z
 _atom_site_occupancy
  Mn  Mn0  1  0.82627100  0.41310800  0.59970200  1
  Mn  Mn1  1  0.17372900  0.58689200  0.40029800  1
  Mn  Mn2  1  0.58285500  0.87675700  0.85571500  1
  Mn  Mn3  1  0.41714500  0.12324300  0.14428500  1
  Mn  Mn4  1  0.71176600  0.55312300  0.21059200  1
  Mn  Mn5  1  0.28823400  0.44687700  0.78940800  1
  Fe  Fe0  1  0.03076800  0.27224800  0.01844000  1
  Fe  Fe1  1  0.96923200  0.72775200  0.98156000  1
  Fe  Fe2  1  0.71701600  0.94505500  0.54176200  1
  Fe  Fe3  1  0.28298400  0.05494600  0.45823800  1
  Fe  Fe4  1  0.12745800  0.91809900  0.72663200  1
  Fe  Fe5  1  0.87254200  0.08190100  0.27336800  1
  N  N0  1  0.99385300  0.19656200  0.75519800  1
  N  N1  1  0.00614700  0.80343800  0.24480200  1
  N  N2  1  0.85305900  0.66153500  0.50020700  1
  N  N3  1  0.14694100  0.33846500  0.49979300  1
  N  N4  1  0.65113400  0.55824300  0.79894800  1
  N  N5  1  0.34886600  0.44175700  0.20105200  1
  N  N6  1  0.41185700  0.87737600  0.60935000  1
  N  N7  1  0.58814300  0.12262400  0.39065000  1
  N  N8  1  0.27191200  0.79610600  0.92116300  1
  N  N9  1  0.72808800  0.20389400  0.07883700  1
loop_
_geom_bond_atom_site_label_1
_geom_bond_atom_site_label_2
_geom_bond_distance
_geom_bond_site_symmetry_2
Mn0 N2 1.892748 1_555
Mn0 N7 1.893546 1_555
Mn0 N4 1.936037 1_555
Mn0 N3 2.082163 1_655
Mn0 N0 2.232391 1_555
Mn1 N3 1.892748 1_555
Mn1 N6 1.893546 1_555
Mn1 N5 1.936037 1_555
Mn1 N2 2.082163 1_455
Mn1 N1 2.232391 1_555
Mn2 N4 1.891566 1_555
Mn2 N8 1.898032 1_555
Mn2 N6 1.914623 1_555
Mn2 N9 1.936365 1_566
Mn3 N5 1.891566 1_555
Mn3 N9 1.898032 1_555
Mn3 N7 1.914623 1_555
Mn3 N8 1.936365 1_544
Mn4 N1 1.911395 1_655
Mn4 N9 1.956946 1_555
Mn4 N5 1.966070 1_555
Mn4 N2 1.976419 1_555
Mn5 N0 1.911395 1_455
Mn5 N8 1.956946 1_555
Mn5 N4 1.966070 1_555
Mn5 N3 1.976419 1_555
Fe0 N0 1.823061 1_454
Fe0 N9 1.823097 1_455
Fe0 N5 1.843778 1_555
Fe1 N1 1.823061 1_656
Fe1 N8 1.823097 1_655
Fe1 N4 1.843778 1_555
Fe2 N6 1.862926 1_555
Fe2 N2 1.891807 1_555
Fe2 N0 1.904643 1_565
Fe2 N7 1.937431 1_565
Fe3 N7 1.862925 1_555
Fe3 N3 1.891802 1_555
Fe3 N1 1.904645 1_545
Fe3 N6 1.937436 1_545
Fe4 N0 1.869322 1_465
Fe4 N6 1.934163 1_555
Fe4 N2 1.948516 1_455
Fe4 N8 1.961984 1_555
Fe5 N1 1.869322 1_645
Fe5 N7 1.934163 1_555
Fe5 N3 1.948516 1_655
Fe5 N9 1.961984 1_555
