# generated using pymatgen
data_TmH3
_symmetry_space_group_name_H-M   'P 1'
_cell_length_a   6.17224778
_cell_length_b   6.17224999
_cell_length_c   6.45023590
_cell_angle_alpha   90.00003455
_cell_angle_beta   90.00014025
_cell_angle_gamma   120.00008486
_symmetry_Int_Tables_number   1
_chemical_formula_structural   TmH3
_chemical_formula_sum   'Tm6 H18'
_cell_volume   212.81033652
_cell_formula_units_Z   6
loop_
 _symmetry_equiv_pos_site_id
 _symmetry_equiv_pos_as_xyz
  1  'x, y, z'
loop_
 _atom_site_type_symbol
 _atom_site_label
 _atom_site_symmetry_multiplicity
 _atom_site_fract_x
 _atom_site_fract_y
 _atom_site_fract_z
 _atom_site_occupancy
  Tm  Tm0  1  0.33741167  0.33741293  0.74999982  1
  Tm  Tm1  1  0.66258900  0.00000142  0.75000022  1
  Tm  Tm2  1  0.00000020  0.66258951  0.75000010  1
  Tm  Tm3  1  0.33741100  -0.00000142  0.24999978  1
  Tm  Tm4  1  -0.00000020  0.33741049  0.24999990  1
  Tm  Tm5  1  0.66258833  0.66258807  0.25000018  1
  H  H0  1  0.67971982  0.64715478  0.59001136  1
  H  H1  1  0.35284606  0.03256608  0.59001102  1
  H  H2  1  0.96743571  0.32028168  0.59001107  1
  H  H3  1  0.67972023  0.03256425  0.09001148  1
  H  H4  1  0.96743799  0.64715772  0.09001190  1
  H  H5  1  0.35284404  0.32027931  0.09001099  1
  H  H6  1  0.32028018  0.35284522  0.40998864  1
  H  H7  1  0.64715494  0.96743392  0.40998898  1
  H  H8  1  0.03256429  0.67971932  0.40998893  1
  H  H9  1  0.32027977  0.96743575  0.90998852  1
  H  H10  1  0.03256201  0.35284228  0.90998810  1
  H  H11  1  0.64715596  0.67972069  0.90998901  1
  H  H12  1  -0.00000019  0.00000005  0.74999806  1
  H  H13  1  0.00000019  -0.00000005  0.25000194  1
  H  H14  1  0.33333342  0.66666752  0.68789796  1
  H  H15  1  0.33333342  0.66666527  0.18789639  1
  H  H16  1  0.66666658  0.33333248  0.31210204  1
  H  H17  1  0.66666658  0.33333473  0.81210361  1
loop_
_geom_bond_atom_site_label_1
_geom_bond_atom_site_label_2
_geom_bond_distance
_geom_bond_site_symmetry_2
H0 Tm2 2.189435 1_655
H0 Tm5 2.200055 1_555
H0 Tm0 2.268179 1_555
H0 Tm1 2.459568 1_565
H1 Tm0 2.189443 1_555
H1 Tm3 2.200057 1_555
H1 Tm1 2.268179 1_555
H1 Tm2 2.459564 1_545
H2 Tm1 2.189442 1_555
H2 Tm4 2.200056 1_655
H2 Tm2 2.268182 1_655
H2 Tm0 2.459555 1_655
H3 Tm4 2.189430 1_655
H3 Tm1 2.200055 1_554
H3 Tm3 2.268187 1_555
H3 Tm5 2.459558 1_545
H4 Tm5 2.189447 1_555
H4 Tm2 2.200059 1_654
H4 Tm4 2.268193 1_655
H4 Tm3 2.459531 1_665
H5 Tm3 2.189445 1_555
H5 Tm0 2.200056 1_554
H5 Tm5 2.268183 1_555
H5 Tm4 2.459557 1_555
H6 Tm4 2.189435 1_555
H6 Tm0 2.200055 1_555
H6 Tm5 2.268181 1_555
H6 Tm3 2.459568 1_555
H7 Tm5 2.189435 1_555
H7 Tm1 2.200057 1_565
H7 Tm3 2.268185 1_565
H7 Tm4 2.459561 1_665
H8 Tm3 2.189439 1_565
H8 Tm2 2.200056 1_555
H8 Tm4 2.268187 1_555
H8 Tm5 2.459555 1_455
H9 Tm2 2.189430 1_555
H9 Tm3 2.200055 1_566
H9 Tm1 2.268187 1_565
H9 Tm0 2.459564 1_565
H10 Tm0 2.189444 1_555
H10 Tm4 2.200059 1_556
H10 Tm2 2.268193 1_555
H10 Tm1 2.459531 1_455
H11 Tm1 2.189445 1_565
H11 Tm5 2.200055 1_556
H11 Tm0 2.268180 1_555
H11 Tm2 2.459557 1_655
H12 Tm2 2.082583 1_545
H12 Tm1 2.082587 1_455
H12 Tm0 2.082590 1_555
H13 Tm4 2.082583 1_555
H13 Tm3 2.082587 1_555
H13 Tm5 2.082587 1_445
H14 Tm0 2.083808 1_555
H14 Tm1 2.083810 1_565
H14 Tm2 2.083811 1_555
H15 Tm5 2.083807 1_555
H15 Tm4 2.083811 1_555
H15 Tm3 2.083814 1_565
H16 Tm3 2.083810 1_555
H16 Tm4 2.083811 1_655
H16 Tm5 2.083814 1_555
H17 Tm0 2.083810 1_555
H17 Tm2 2.083811 1_655
H17 Tm1 2.083814 1_555
