# generated using pymatgen
data_Li4Co3NiO8
_symmetry_space_group_name_H-M   'P 1'
_cell_length_a   5.83109219
_cell_length_b   5.87548958
_cell_length_c   10.18882956
_cell_angle_alpha   106.92243780
_cell_angle_beta   89.76894644
_cell_angle_gamma   60.53094325
_symmetry_Int_Tables_number   1
_chemical_formula_structural   Li4Co3NiO8
_chemical_formula_sum   'Li8 Co6 Ni2 O16'
_cell_volume   286.17410267
_cell_formula_units_Z   2
loop_
 _symmetry_equiv_pos_site_id
 _symmetry_equiv_pos_as_xyz
  1  'x, y, z'
loop_
 _atom_site_type_symbol
 _atom_site_label
 _atom_site_symmetry_multiplicity
 _atom_site_fract_x
 _atom_site_fract_y
 _atom_site_fract_z
 _atom_site_occupancy
  Li  Li0  1  0.74924600  0.50001800  0.74995800  1
  Li  Li1  1  0.25114500  0.49994800  0.24998200  1
  Li  Li2  1  0.00006700  0.49970700  0.51315100  1
  Li  Li3  1  0.49832700  0.50054700  0.98650500  1
  Li  Li4  1  0.24884400  0.50008200  0.75028100  1
  Li  Li5  1  0.75131400  0.49966800  0.24978000  1
  Li  Li6  1  0.00257000  0.49182400  0.99006900  1
  Li  Li7  1  0.49582800  0.50837900  0.50995700  1
  Co  Co0  1  0.99445900  0.00143900  0.50259200  1
  Co  Co1  1  0.50551400  0.99879800  0.99750000  1
  Co  Co2  1  0.75071200  0.99996400  0.25000600  1
  Co  Co3  1  0.25076400  0.99986800  0.25003400  1
  Co  Co4  1  0.74944100  0.99998100  0.74993500  1
  Co  Co5  1  0.24943100  0.99989600  0.75003800  1
  Ni  Ni0  1  0.50192600  0.99915100  0.49983600  1
  Ni  Ni1  1  0.99817600  0.00100000  0.00021300  1
  O  O0  1  0.89559800  0.21823200  0.35855300  1
  O  O1  1  0.37665100  0.24400000  0.87839000  1
  O  O2  1  0.60611800  0.78166900  0.14147200  1
  O  O3  1  0.12211200  0.75599800  0.62160500  1
  O  O4  1  0.84915500  0.77047100  0.88462500  1
  O  O5  1  0.34544700  0.78890700  0.37154100  1
  O  O6  1  0.13430800  0.22690500  0.62942000  1
  O  O7  1  0.63753400  0.21991400  0.13543900  1
  O  O8  1  0.86807200  0.23264700  0.86876100  1
  O  O9  1  0.39631000  0.21321000  0.35819500  1
  O  O10  1  0.63079400  0.76735700  0.63123100  1
  O  O11  1  0.10535200  0.78666700  0.14181900  1
  O  O12  1  0.36515900  0.77299100  0.87059800  1
  O  O13  1  0.86362000  0.78009000  0.36462000  1
  O  O14  1  0.65039100  0.22965300  0.61537600  1
  O  O15  1  0.15562600  0.21102400  0.12851800  1
loop_
_geom_bond_atom_site_label_1
_geom_bond_atom_site_label_2
_geom_bond_distance
_geom_bond_site_symmetry_2
Li0 O14 2.091702 1_555
Li0 O12 2.096453 1_555
Li0 O4 2.096454 1_555
Li0 O6 2.100060 1_655
Li0 O10 2.110238 1_555
Li0 O8 2.110913 1_555
Li1 O7 2.087827 1_555
Li1 O13 2.092771 1_455
Li1 O5 2.102075 1_555
Li1 O15 2.106274 1_555
Li1 O11 2.110550 1_555
Li1 O9 2.110978 1_555
Li2 O3 2.021658 1_555
Li2 O10 2.025587 1_455
Li2 O6 2.112731 1_555
Li2 O0 2.251614 1_455
Li2 O9 2.293780 1_555
Li2 O13 2.410107 1_455
Li3 O1 2.020109 1_555
Li3 O8 2.026333 1_555
Li3 O12 2.108297 1_555
Li3 O2 2.264406 1_556
Li3 O11 2.283201 1_556
Li3 O7 2.414533 1_556
Li4 O6 2.109353 1_555
Li4 O12 2.113378 1_555
Li4 O1 2.137965 1_555
Li4 O3 2.141972 1_555
Li4 O4 2.212382 1_455
Li4 O14 2.222274 1_555
Li5 O2 2.090844 1_555
Li5 O0 2.091882 1_555
Li5 O13 2.111414 1_555
Li5 O7 2.112717 1_555
Li5 O15 2.187147 1_655
Li5 O5 2.195428 1_555
Li6 O1 2.015793 1_555
Li6 O4 2.055619 1_455
Li6 O8 2.132795 1_455
Li6 O2 2.278680 1_456
Li6 O11 2.284852 1_556
Li6 O15 2.329083 1_556
Li7 O3 2.014110 1_555
Li7 O14 2.056082 1_555
Li7 O10 2.133786 1_555
Li7 O9 2.274134 1_555
Li7 O0 2.291278 1_555
Li7 O5 2.327165 1_555
Co0 O14 1.892398 1_555
Co0 O5 2.005916 1_645
Co0 O3 2.018220 1_645
Co0 O6 2.040729 1_655
Co0 O13 2.042115 1_545
Co0 O0 2.116890 1_555
Co1 O4 1.891009 1_555
Co1 O15 2.001326 1_566
Co1 O1 2.018181 1_565
Co1 O12 2.044520 1_555
Co1 O7 2.045852 1_566
Co1 O2 2.117426 1_556
Co2 O7 1.874427 1_565
Co2 O13 1.874486 1_555
Co2 O9 1.919791 1_565
Co2 O11 1.920815 1_655
Co2 O2 1.955665 1_555
Co2 O0 1.956891 1_565
Co3 O5 1.897202 1_555
Co3 O15 1.898009 1_565
Co3 O0 1.923289 1_465
Co3 O2 1.924302 1_555
Co3 O11 1.937097 1_555
Co3 O9 1.938056 1_565
Co4 O10 1.945329 1_555
Co4 O8 1.945956 1_565
Co4 O3 2.075520 1_655
Co4 O1 2.076548 1_565
Co4 O14 2.085849 1_565
Co4 O4 2.086165 1_555
Co5 O12 1.953583 1_555
Co5 O6 1.954459 1_565
Co5 O3 2.068825 1_555
Co5 O1 2.068893 1_565
Co5 O8 2.074031 1_465
Co5 O10 2.074427 1_555
Ni0 O14 2.050151 1_565
Ni0 O5 2.060529 1_555
Ni0 O6 2.062830 1_565
Ni0 O10 2.067447 1_555
Ni0 O13 2.067903 1_555
Ni0 O9 2.084587 1_565
Ni1 O4 2.052881 1_544
Ni1 O12 2.060245 1_644
Ni1 O7 2.063657 1_555
Ni1 O15 2.063953 1_655
Ni1 O8 2.067675 1_554
Ni1 O11 2.085369 1_645
