# generated using pymatgen
data_CdBi8(Br5O4)2
_symmetry_space_group_name_H-M   'P 1'
_cell_length_a   20.67737829
_cell_length_b   20.67737829
_cell_length_c   5.58328100
_cell_angle_alpha   90.00000000
_cell_angle_beta   90.00000000
_cell_angle_gamma   164.48032761
_symmetry_Int_Tables_number   1
_chemical_formula_structural   CdBi8(Br5O4)2
_chemical_formula_sum   'Cd1 Bi8 Br10 O8'
_cell_volume   638.72892853
_cell_formula_units_Z   1
loop_
 _symmetry_equiv_pos_site_id
 _symmetry_equiv_pos_as_xyz
  1  'x, y, z'
loop_
 _atom_site_type_symbol
 _atom_site_label
 _atom_site_symmetry_multiplicity
 _atom_site_fract_x
 _atom_site_fract_y
 _atom_site_fract_z
 _atom_site_occupancy
  Cd  Cd0  1  0.00000000  0.00000000  0.50000000  1
  Bi  Bi0  1  0.67622500  0.32377500  0.00000000  1
  Bi  Bi1  1  0.17676700  0.82323300  0.50000000  1
  Bi  Bi2  1  0.82323300  0.17676700  0.50000000  1
  Bi  Bi3  1  0.32377500  0.67622500  0.00000000  1
  Bi  Bi4  1  0.88545500  0.11454500  0.00000000  1
  Bi  Bi5  1  0.38545900  0.61454100  0.50000000  1
  Bi  Bi6  1  0.61454100  0.38545900  0.50000000  1
  Bi  Bi7  1  0.11454500  0.88545500  0.00000000  1
  Br  Br0  1  0.78469100  0.21530900  0.00000000  1
  Br  Br1  1  0.28470300  0.71529700  0.50000000  1
  Br  Br2  1  0.71529700  0.28470300  0.50000000  1
  Br  Br3  1  0.21530900  0.78469100  0.00000000  1
  Br  Br4  1  0.57651700  0.42348300  0.00000000  1
  Br  Br5  1  0.07459800  0.92540200  0.50000000  1
  Br  Br6  1  0.92540200  0.07459800  0.50000000  1
  Br  Br7  1  0.42348300  0.57651700  0.00000000  1
  Br  Br8  1  0.50000000  0.50000000  0.50000000  1
  Br  Br9  1  0.00000000  0.00000000  0.00000000  1
  O  O0  1  0.60561400  0.89676100  0.74879900  1
  O  O1  1  0.10323900  0.39438600  0.25120100  1
  O  O2  1  0.10323900  0.39438600  0.74879900  1
  O  O3  1  0.60561400  0.89676100  0.25120100  1
  O  O4  1  0.89676100  0.60561400  0.74879900  1
  O  O5  1  0.39438600  0.10323900  0.25120100  1
  O  O6  1  0.39438600  0.10323900  0.74879900  1
  O  O7  1  0.89676100  0.60561400  0.25120100  1
loop_
_geom_bond_atom_site_label_1
_geom_bond_atom_site_label_2
_geom_bond_distance
_geom_bond_site_symmetry_2
Bi0 O7 2.347715 1_555
Bi0 O4 2.347715 1_554
Bi0 O5 2.347715 1_555
Bi0 O6 2.347715 1_554
Bi0 Br2 3.218153 1_555
Bi0 Br2 3.218153 1_554
Bi0 Br3 3.218607 1_545
Bi0 Br3 3.218607 1_655
Bi1 O7 2.343839 1_455
Bi1 O4 2.343839 1_455
Bi1 O6 2.343839 1_565
Bi1 O5 2.343839 1_565
Bi1 Br2 3.207372 1_455
Bi1 Br2 3.207372 1_565
Bi1 Br3 3.207404 1_555
Bi1 Br3 3.207404 1_556
Bi2 O3 2.343839 1_545
Bi2 O0 2.343839 1_545
Bi2 O1 2.343839 1_655
Bi2 O2 2.343839 1_655
Bi2 Br1 3.207372 1_545
Bi2 Br1 3.207372 1_655
Bi2 Br0 3.207404 1_555
Bi2 Br0 3.207404 1_556
Bi3 O1 2.347715 1_555
Bi3 O2 2.347715 1_554
Bi3 O3 2.347715 1_555
Bi3 O0 2.347715 1_554
Bi3 Br1 3.218153 1_554
Bi3 Br1 3.218153 1_555
Bi3 Br0 3.218607 1_455
Bi3 Br0 3.218607 1_565
Bi4 O2 2.348145 1_654
Bi4 O1 2.348145 1_655
Bi4 O3 2.348145 1_545
Bi4 O0 2.348145 1_544
Bi4 Br7 3.197296 1_545
Bi4 Br7 3.197296 1_655
Bi4 Br6 3.236140 1_555
Bi4 Br6 3.236140 1_554
Bi5 O1 2.348145 1_555
Bi5 O2 2.348145 1_555
Bi5 O3 2.348145 1_555
Bi5 O0 2.348145 1_555
Bi5 Br7 3.197006 1_556
Bi5 Br7 3.197006 1_555
Bi5 Br6 3.236265 1_565
Bi5 Br6 3.236265 1_455
Bi6 O5 2.348145 1_555
Bi6 O4 2.348145 1_555
Bi6 O7 2.348145 1_555
Bi6 O6 2.348145 1_555
Bi6 Br4 3.197006 1_555
Bi6 Br4 3.197006 1_556
Bi6 Br5 3.236265 1_655
Bi6 Br5 3.236265 1_545
Bi7 O5 2.348145 1_565
Bi7 O6 2.348145 1_564
Bi7 O4 2.348145 1_454
Bi7 O7 2.348145 1_455
Bi7 Br4 3.197296 1_455
Bi7 Br4 3.197296 1_565
Bi7 Br5 3.236140 1_554
Bi7 Br5 3.236140 1_555
Br5 Cd0 3.056732 1_565
Br6 Cd0 3.056732 1_655
Br8 Cd0 2.791881 1_665
Br8 Cd0 2.791881 1_555
Br9 Cd0 2.791641 1_554
Br9 Cd0 2.791641 1_555
