# generated using pymatgen
data_Y2Hf2O7
_symmetry_space_group_name_H-M   'P 1'
_cell_length_a   5.91721133
_cell_length_b   5.91721133
_cell_length_c   5.57522932
_cell_angle_alpha   84.11705090
_cell_angle_beta   84.11705090
_cell_angle_gamma   108.67842955
_symmetry_Int_Tables_number   1
_chemical_formula_structural   Y2Hf2O7
_chemical_formula_sum   'Y2 Hf2 O7'
_cell_volume   182.04577167
_cell_formula_units_Z   1
loop_
 _symmetry_equiv_pos_site_id
 _symmetry_equiv_pos_as_xyz
  1  'x, y, z'
loop_
 _atom_site_type_symbol
 _atom_site_label
 _atom_site_symmetry_multiplicity
 _atom_site_fract_x
 _atom_site_fract_y
 _atom_site_fract_z
 _atom_site_occupancy
  Y  Y0  1  0.69088600  0.30911400  0.00000000  1
  Y  Y1  1  0.30911400  0.69088600  0.00000000  1
  Hf  Hf0  1  0.74381700  0.74381700  0.39741000  1
  Hf  Hf1  1  0.25618300  0.25618300  0.60259000  1
  O  O0  1  0.94015100  0.59748000  0.19984400  1
  O  O1  1  0.59748000  0.94015100  0.19984400  1
  O  O2  1  0.55914600  0.55914600  0.72696800  1
  O  O3  1  0.00000000  0.00000000  0.50000000  1
  O  O4  1  0.44085400  0.44085400  0.27303200  1
  O  O5  1  0.40252000  0.05984900  0.80015600  1
  O  O6  1  0.05984900  0.40252000  0.80015600  1
loop_
_geom_bond_atom_site_label_1
_geom_bond_atom_site_label_2
_geom_bond_distance
_geom_bond_site_symmetry_2
Hf0 O3 1.951052 1_665
Hf0 O1 1.972369 1_555
Hf0 O0 1.972369 1_555
Hf0 O2 2.043545 1_555
Hf0 O4 2.315077 1_555
Hf1 O3 1.951052 1_555
Hf1 O5 1.972369 1_555
Hf1 O6 1.972369 1_555
Hf1 O4 2.043545 1_555
Hf1 O2 2.315077 1_555
O0 Y1 2.217114 1_655
O0 Y0 2.333025 1_555
O1 Y0 2.217114 1_565
O1 Y1 2.333025 1_555
O2 Y1 2.373606 1_556
O2 Y0 2.373606 1_556
O4 Y1 2.373606 1_555
O4 Y0 2.373606 1_555
O5 Y1 2.217114 1_546
O5 Y0 2.333025 1_556
O6 Y0 2.217114 1_456
O6 Y1 2.333025 1_556
