# generated using pymatgen
data_Ti2AgMo
_symmetry_space_group_name_H-M   'P 1'
_cell_length_a   10.85750954
_cell_length_b   10.85750954
_cell_length_c   10.85750954
_cell_angle_alpha   125.37197932
_cell_angle_beta   118.43888834
_cell_angle_gamma   86.84119603
_symmetry_Int_Tables_number   1
_chemical_formula_structural   Ti2AgMo
_chemical_formula_sum   'Ti2 Ag1 Mo1'
_cell_volume   873.23042042
_cell_formula_units_Z   1
loop_
 _symmetry_equiv_pos_site_id
 _symmetry_equiv_pos_as_xyz
  1  'x, y, z'
loop_
 _atom_site_type_symbol
 _atom_site_label
 _atom_site_symmetry_multiplicity
 _atom_site_fract_x
 _atom_site_fract_y
 _atom_site_fract_z
 _atom_site_occupancy
  Ti  Ti0  1  0.00000000  0.22164900  0.22164900  1
  Ti  Ti1  1  0.00000000  0.77835100  0.77835100  1
  Ag  Ag0  1  0.00000000  0.50000000  0.50000000  1
  Mo  Mo0  1  0.00000000  0.00000000  0.00000000  1
loop_
_geom_bond_atom_site_label_1
_geom_bond_atom_site_label_2
_geom_bond_distance
_geom_bond_site_symmetry_2
Ag0 Ti1 2.773573 1_555
Ag0 Ti0 2.773573 1_555
Mo0 Ti1 2.208578 1_544
Mo0 Ti0 2.208578 1_555
