# generated using pymatgen
data_BaAl2Si3(W2O5)2
_symmetry_space_group_name_H-M   'P 1'
_cell_length_a   6.71730600
_cell_length_b   10.05188800
_cell_length_c   10.18101400
_cell_angle_alpha   90.00000000
_cell_angle_beta   90.00000000
_cell_angle_gamma   90.00000000
_symmetry_Int_Tables_number   1
_chemical_formula_structural   BaAl2Si3(W2O5)2
_chemical_formula_sum   'Ba2 Al4 Si6 W8 O20'
_cell_volume   687.43843201
_cell_formula_units_Z   2
loop_
 _symmetry_equiv_pos_site_id
 _symmetry_equiv_pos_as_xyz
  1  'x, y, z'
loop_
 _atom_site_type_symbol
 _atom_site_label
 _atom_site_symmetry_multiplicity
 _atom_site_fract_x
 _atom_site_fract_y
 _atom_site_fract_z
 _atom_site_occupancy
  Ba  Ba0  1  0.97184100  0.00000000  0.00000000  1
  Ba  Ba1  1  0.02815900  0.50000000  0.50000000  1
  Al  Al0  1  0.87334300  0.84399700  0.60837500  1
  Al  Al1  1  0.87334300  0.15600300  0.39162500  1
  Al  Al2  1  0.12665700  0.34399700  0.89162500  1
  Al  Al3  1  0.12665700  0.65600300  0.10837500  1
  Si  Si0  1  0.89796900  0.61420200  0.84216900  1
  Si  Si1  1  0.89796900  0.38579800  0.15783100  1
  Si  Si2  1  0.10203100  0.11420200  0.65783100  1
  Si  Si3  1  0.10203100  0.88579800  0.34216900  1
  Si  Si4  1  0.52732500  0.50000000  0.00000000  1
  Si  Si5  1  0.47267500  0.00000000  0.50000000  1
  W  W0  1  0.45033900  0.70236200  0.65185800  1
  W  W1  1  0.45033900  0.29763800  0.34814200  1
  W  W2  1  0.54966100  0.20236200  0.84814200  1
  W  W3  1  0.54966100  0.79763800  0.15185800  1
  W  W4  1  0.48448000  0.90524400  0.87234000  1
  W  W5  1  0.48448000  0.09475600  0.12766000  1
  W  W6  1  0.51552000  0.40524400  0.62766000  1
  W  W7  1  0.51552000  0.59475600  0.37234000  1
  O  O0  1  0.61603600  0.88594000  0.56838700  1
  O  O1  1  0.61603600  0.11406000  0.43161300  1
  O  O2  1  0.38396400  0.38594000  0.93161300  1
  O  O3  1  0.38396400  0.61406000  0.06838700  1
  O  O4  1  0.87660300  0.69750900  0.70437100  1
  O  O5  1  0.87660300  0.30249100  0.29562900  1
  O  O6  1  0.12339700  0.19750900  0.79562900  1
  O  O7  1  0.12339700  0.80249100  0.20437100  1
  O  O8  1  0.97969300  0.97814100  0.69288800  1
  O  O9  1  0.97969300  0.02185900  0.30711200  1
  O  O10  1  0.02030700  0.47814100  0.80711200  1
  O  O11  1  0.02030700  0.52185900  0.19288800  1
  O  O12  1  0.67067500  0.57097600  0.89036800  1
  O  O13  1  0.67067500  0.42902400  0.10963200  1
  O  O14  1  0.32932500  0.07097600  0.60963200  1
  O  O15  1  0.32932500  0.92902400  0.39036800  1
  O  O16  1  0.00448500  0.69976500  0.95985400  1
  O  O17  1  0.00448500  0.30023500  0.04014600  1
  O  O18  1  0.99551500  0.19976500  0.54014600  1
  O  O19  1  0.99551500  0.80023500  0.45985400  1
loop_
_geom_bond_atom_site_label_1
_geom_bond_atom_site_label_2
_geom_bond_distance
_geom_bond_site_symmetry_2
Ba0 O6 3.050790 1_654
Ba0 O7 3.050790 1_645
Ba0 O17 3.053364 1_655
Ba0 O16 3.053364 1_644
Ba0 O9 3.134866 1_555
Ba0 O8 3.134866 1_544
Ba0 W5 3.648823 1_555
Ba0 W4 3.648823 1_544
Ba0 W4 3.801909 1_644
Ba0 W5 3.801909 1_655
Ba1 O5 3.050790 1_455
Ba1 O4 3.050790 1_455
Ba1 O18 3.053364 1_455
Ba1 O19 3.053364 1_455
Ba1 O11 3.134866 1_555
Ba1 O10 3.134866 1_555
Ba1 W6 3.648823 1_555
Ba1 W7 3.648823 1_555
Ba1 W6 3.801909 1_455
Ba1 W7 3.801909 1_455
Al0 O8 1.751818 1_555
Al0 O4 1.767446 1_555
Al0 O19 1.775789 1_555
Al0 O0 1.825075 1_555
Al1 O9 1.751818 1_555
Al1 O5 1.767446 1_555
Al1 O18 1.775789 1_555
Al1 O1 1.825075 1_555
Al2 O10 1.751818 1_555
Al2 O6 1.767446 1_555
Al2 O17 1.775789 1_556
Al2 O2 1.825075 1_555
Al3 O11 1.751818 1_555
Al3 O7 1.767446 1_555
Al3 O16 1.775789 1_554
Al3 O3 1.825075 1_555
W0 W6 3.028557 1_555
W0 W4 3.041438 1_555
W0 W7 3.075728 1_555
W1 W7 3.028557 1_555
W1 W5 3.041438 1_555
W1 W6 3.075728 1_555
W2 W4 3.028557 1_545
W2 W6 3.041438 1_555
W2 W5 3.075728 1_556
W3 W5 3.028557 1_565
W3 W7 3.041438 1_555
W3 W4 3.075728 1_554
W4 W5 3.222703 1_566
W6 W7 3.222703 1_555
O0 Si5 1.651253 1_565
O0 W0 2.316506 1_555
O1 Si5 1.651253 1_555
O1 W1 2.316506 1_555
O2 Si4 1.651253 1_556
O2 W2 2.316506 1_555
O3 Si4 1.651253 1_555
O3 W3 2.316506 1_555
O4 Si0 1.640128 1_555
O5 Si1 1.640128 1_555
O6 Si2 1.640128 1_555
O7 Si3 1.640128 1_555
O8 Si2 1.635003 1_665
O9 Si3 1.635003 1_645
O10 Si0 1.635003 1_455
O11 Si1 1.635003 1_455
O12 Si4 1.637697 1_556
O12 Si0 1.661542 1_555
O13 Si4 1.637697 1_555
O13 Si1 1.661542 1_555
O14 Si5 1.637697 1_555
O14 Si2 1.661542 1_555
O15 Si5 1.637697 1_565
O15 Si3 1.661542 1_555
O16 Si0 1.639277 1_455
O17 Si1 1.639277 1_455
O18 Si2 1.639277 1_655
O19 Si3 1.639277 1_655
