# generated using pymatgen
data_FePH5CO4
_symmetry_space_group_name_H-M   'P 1'
_cell_length_a   5.78821385
_cell_length_b   9.07984976
_cell_length_c   9.69881681
_cell_angle_alpha   89.94277742
_cell_angle_beta   90.13920609
_cell_angle_gamma   89.95851585
_symmetry_Int_Tables_number   1
_chemical_formula_structural   FePH5CO4
_chemical_formula_sum   'Fe4 P4 H20 C4 O16'
_cell_volume   509.73021066
_cell_formula_units_Z   4
loop_
 _symmetry_equiv_pos_site_id
 _symmetry_equiv_pos_as_xyz
  1  'x, y, z'
loop_
 _atom_site_type_symbol
 _atom_site_label
 _atom_site_symmetry_multiplicity
 _atom_site_fract_x
 _atom_site_fract_y
 _atom_site_fract_z
 _atom_site_occupancy
  Fe  Fe0  1  0.50574900  0.02488500  0.86046200  1
  Fe  Fe1  1  0.00875000  0.97374500  0.61064400  1
  Fe  Fe2  1  0.49605600  0.02501000  0.36000300  1
  Fe  Fe3  1  0.99097100  0.97586800  0.11069600  1
  P  P0  1  0.99526000  0.18974500  0.32801300  1
  P  P1  1  0.00697800  0.18867900  0.82808700  1
  P  P2  1  0.48647800  0.81149300  0.07849000  1
  P  P3  1  0.51155200  0.81059300  0.57815200  1
  H  H0  1  0.49685700  0.59948400  0.42987000  1
  H  H1  1  0.50346700  0.60013100  0.93102300  1
  H  H2  1  0.00296900  0.40186400  0.18056400  1
  H  H3  1  0.99806200  0.39985600  0.67952200  1
  H  H4  1  0.36303300  0.19500800  0.07436700  1
  H  H5  1  0.36499600  0.19587200  0.57334500  1
  H  H6  1  0.13992500  0.79681600  0.30609800  1
  H  H7  1  0.12157600  0.81095600  0.84098700  1
  H  H8  1  0.87369500  0.81112300  0.33849600  1
  H  H9  1  0.85647500  0.79467900  0.80436700  1
  H  H10  1  0.63323100  0.19660900  0.07721600  1
  H  H11  1  0.63594200  0.19345700  0.57521900  1
  H  H12  1  0.34928300  0.56176200  0.08671900  1
  H  H13  1  0.34422100  0.56835900  0.58787500  1
  H  H14  1  0.85315800  0.43844500  0.33811900  1
  H  H15  1  0.83985400  0.43121900  0.83550600  1
  H  H16  1  0.16169000  0.43237900  0.33688900  1
  H  H17  1  0.14832900  0.43726600  0.83722600  1
  H  H18  1  0.65764200  0.57024400  0.08917700  1
  H  H19  1  0.65265800  0.56162400  0.58558800  1
  C  C0  1  0.00431200  0.38443200  0.29251700  1
  C  C1  1  0.99712300  0.38305900  0.79155500  1
  C  C2  1  0.50077400  0.61711600  0.04299000  1
  C  C3  1  0.49999600  0.61623700  0.54187400  1
  O  O0  1  0.49942600  0.20416500  0.01466100  1
  O  O1  1  0.50156800  0.20294200  0.51345500  1
  O  O2  1  0.98604200  0.79686000  0.26300200  1
  O  O3  1  0.01194500  0.79540100  0.76388600  1
  O  O4  1  0.47601600  0.83420400  0.23442400  1
  O  O5  1  0.52378400  0.83291500  0.73389600  1
  O  O6  1  0.00234100  0.16577300  0.48356900  1
  O  O7  1  0.00004500  0.16595400  0.98375200  1
  O  O8  1  0.20322200  0.11440100  0.25176000  1
  O  O9  1  0.22882700  0.12383400  0.75843500  1
  O  O10  1  0.70165300  0.88724600  0.01038800  1
  O  O11  1  0.72421800  0.87766200  0.50032500  1
  O  O12  1  0.27243900  0.87728700  0.00083900  1
  O  O13  1  0.29482000  0.88560100  0.51012900  1
  O  O14  1  0.77314300  0.12558400  0.25740000  1
  O  O15  1  0.79944400  0.11216400  0.75181900  1
loop_
_geom_bond_atom_site_label_1
_geom_bond_atom_site_label_2
_geom_bond_distance
_geom_bond_site_symmetry_2
Fe0 O9 2.084240 1_555
Fe0 O5 2.135565 1_545
Fe0 O15 2.153418 1_555
Fe0 O0 2.211989 1_556
Fe0 O10 2.224497 1_546
Fe0 O12 2.341223 1_546
Fe1 O13 2.083312 1_555
Fe1 O6 2.134446 1_565
Fe1 O11 2.147954 1_455
Fe1 O3 2.196952 1_555
Fe1 O15 2.220685 1_465
Fe1 O9 2.352033 1_565
Fe2 O14 2.098706 1_555
Fe2 O4 2.121848 1_545
Fe2 O8 2.149782 1_555
Fe2 O1 2.197922 1_555
Fe2 O13 2.255171 1_545
Fe2 O11 2.317620 1_545
Fe3 O10 2.096181 1_555
Fe3 O7 2.119844 1_664
Fe3 O12 2.144521 1_655
Fe3 O2 2.195493 1_555
Fe3 O8 2.227309 1_665
Fe3 O14 2.339292 1_565
H4 O0 0.983733 1_555
H5 O1 0.984203 1_555
H6 O2 0.982984 1_455
H7 O3 0.989872 1_555
H8 O2 0.989014 1_555
H9 O3 0.982711 1_655
H10 O0 0.984986 1_555
H11 O1 0.984251 1_555
C0 H14 1.096951 1_455
C0 H16 1.097082 1_555
C0 H2 1.097139 1_555
C0 P0 1.801427 1_455
C1 H15 1.096935 1_555
C1 H17 1.097102 1_655
C1 H3 1.097115 1_555
C1 P1 1.800644 1_655
C2 H18 1.096958 1_555
C2 H12 1.096995 1_555
C2 H1 1.097143 1_554
C2 P2 1.800405 1_555
C3 H13 1.096888 1_555
C3 H19 1.097084 1_555
C3 H0 1.097164 1_555
C3 P3 1.801061 1_555
O4 P2 1.527913 1_555
O5 P3 1.525750 1_555
O6 P0 1.524562 1_455
O7 P1 1.524226 1_555
O8 P0 1.571009 1_455
O9 P1 1.567123 1_555
O10 P2 1.570008 1_555
O11 P3 1.568616 1_555
O12 P2 1.566033 1_555
O13 P3 1.570572 1_555
O14 P0 1.568105 1_555
O15 P1 1.571866 1_655
