# generated using pymatgen
data_SrLiY2(BO3)3
_symmetry_space_group_name_H-M   'P 1'
_cell_length_a   6.44158600
_cell_length_b   10.43280600
_cell_length_c   10.43279458
_cell_angle_alpha   59.99998747
_cell_angle_beta   90.00005795
_cell_angle_gamma   89.99987733
_symmetry_Int_Tables_number   1
_chemical_formula_structural   SrLiY2(BO3)3
_chemical_formula_sum   'Sr3 Li3 Y6 B9 O27'
_cell_volume   607.19078827
_cell_formula_units_Z   3
loop_
 _symmetry_equiv_pos_site_id
 _symmetry_equiv_pos_as_xyz
  1  'x, y, z'
loop_
 _atom_site_type_symbol
 _atom_site_label
 _atom_site_symmetry_multiplicity
 _atom_site_fract_x
 _atom_site_fract_y
 _atom_site_fract_z
 _atom_site_occupancy
  Sr  Sr0  1  0.99999900  0.99999900  0.50336800  1
  Sr  Sr1  1  0.99999900  0.49663300  0.99999900  1
  Sr  Sr2  1  0.00000000  0.50336800  0.49663400  1
  Li  Li0  1  0.50000000  0.00000000  0.50288200  1
  Li  Li1  1  0.50000000  0.49711900  0.00000100  1
  Li  Li2  1  0.50000000  0.50288100  0.49711900  1
  Y  Y0  1  0.36271100  0.81685000  0.82781900  1
  Y  Y1  1  0.36271000  0.35532600  0.81685100  1
  Y  Y2  1  0.36271300  0.82782400  0.35532900  1
  Y  Y3  1  0.63728800  0.17218600  0.18314200  1
  Y  Y4  1  0.63729100  0.64467500  0.17218700  1
  Y  Y5  1  0.63728900  0.18313900  0.64467100  1
  B  B0  1  0.80474700  0.80865000  0.81248500  1
  B  B1  1  0.80474600  0.37886000  0.80864900  1
  B  B2  1  0.80474500  0.81249400  0.37886400  1
  B  B3  1  0.19525600  0.18751800  0.19134600  1
  B  B4  1  0.19525600  0.62114100  0.18752100  1
  B  B5  1  0.19525500  0.19133700  0.62113600  1
  B  B6  1  0.33526300  0.66667700  0.66666100  1
  B  B7  1  0.66473600  0.33332300  0.33333800  1
  B  B8  1  0.49999900  0.00000000  0.00000800  1
  O  O0  1  0.31346200  0.07119600  0.63813400  1
  O  O1  1  0.31346500  0.29066400  0.07120200  1
  O  O2  1  0.31346400  0.63813700  0.29066400  1
  O  O3  1  0.30372100  0.07719400  0.31291300  1
  O  O4  1  0.30372200  0.60989500  0.07719500  1
  O  O5  1  0.30372200  0.31290800  0.60989200  1
  O  O6  1  0.69627900  0.92281900  0.39010400  1
  O  O7  1  0.69627400  0.68708300  0.92281300  1
  O  O8  1  0.69627400  0.39010200  0.68707900  1
  O  O9  1  0.68654000  0.92879100  0.70933800  1
  O  O10  1  0.68654000  0.36186700  0.92878900  1
  O  O11  1  0.68653900  0.70934400  0.36187000  1
  O  O12  1  0.01562500  0.80510300  0.80122600  1
  O  O13  1  0.01562500  0.39366800  0.80510300  1
  O  O14  1  0.01562600  0.80122900  0.39367200  1
  O  O15  1  0.98437500  0.19878900  0.19488300  1
  O  O16  1  0.98437400  0.60633300  0.19878900  1
  O  O17  1  0.98437500  0.19487800  0.60633000  1
  O  O18  1  0.33711900  0.81917100  0.58957700  1
  O  O19  1  0.33711100  0.59124500  0.81918400  1
  O  O20  1  0.33711100  0.58956900  0.59124800  1
  O  O21  1  0.66288000  0.18083000  0.40874200  1
  O  O22  1  0.66288800  0.41043600  0.18081600  1
  O  O23  1  0.66288800  0.40875000  0.41043400  1
  O  O24  1  0.49999700  0.86819900  0.00000100  1
  O  O25  1  0.50000200  0.13180000  0.86819800  1
  O  O26  1  0.50000000  0.00000200  0.13179100  1
loop_
_geom_bond_atom_site_label_1
_geom_bond_atom_site_label_2
_geom_bond_distance
_geom_bond_site_symmetry_2
Li0 O18 1.942080 1_545
Li0 O21 1.942085 1_555
Li0 O6 2.139793 1_545
Li0 O3 2.139856 1_555
Li0 O0 2.243821 1_555
Li0 O9 2.243871 1_545
Li1 O22 1.941993 1_555
Li1 O19 1.942010 1_554
Li1 O7 2.139811 1_554
Li1 O4 2.139862 1_555
Li1 O1 2.243865 1_555
Li1 O10 2.243935 1_554
Li2 O23 1.942003 1_555
Li2 O20 1.942013 1_555
Li2 O8 2.139779 1_555
Li2 O5 2.139884 1_555
Li2 O2 2.243864 1_555
Li2 O11 2.243925 1_555
B0 O12 1.365553 1_655
B0 O9 1.400009 1_555
B0 O7 1.400651 1_555
B1 O13 1.365562 1_655
B1 O10 1.400003 1_555
B1 O8 1.400660 1_555
B2 O14 1.365575 1_655
B2 O11 1.400035 1_555
B2 O6 1.400604 1_555
B3 O15 1.365577 1_455
B3 O1 1.400033 1_555
B3 O3 1.400605 1_555
B4 O16 1.365583 1_455
B4 O2 1.399990 1_555
B4 O4 1.400644 1_555
B5 O17 1.365567 1_455
B5 O0 1.399997 1_555
B5 O5 1.400648 1_555
B6 O18 1.377874 1_555
B6 O20 1.378118 1_555
B6 O19 1.378134 1_555
B7 O21 1.377865 1_555
B7 O22 1.378126 1_555
B7 O23 1.378135 1_555
B8 O26 1.374875 1_555
B8 O24 1.375091 1_545
B8 O25 1.375095 1_554
O0 Y5 2.408211 1_555
O0 Y0 2.409758 1_545
O0 Sr0 2.765870 1_445
O1 Y3 2.408170 1_555
O1 Y1 2.409801 1_554
O1 Sr1 2.765913 1_454
O2 Y4 2.408191 1_555
O2 Y2 2.409808 1_555
O2 Sr2 2.765919 1_555
O3 Y2 2.440784 1_545
O3 Y3 2.467857 1_555
O3 Sr0 2.612311 1_445
O4 Y0 2.440823 1_554
O4 Y4 2.467868 1_555
O4 Sr1 2.612334 1_454
O5 Y1 2.440842 1_555
O5 Y5 2.467841 1_555
O5 Sr2 2.612332 1_555
O6 Y3 2.440791 1_565
O6 Y2 2.467850 1_555
O6 Sr0 2.612241 1_555
O7 Y4 2.440843 1_556
O7 Y0 2.467816 1_555
O7 Sr1 2.612295 1_555
O8 Y5 2.440817 1_555
O8 Y1 2.467847 1_555
O8 Sr2 2.612280 1_655
O9 Y0 2.408221 1_555
O9 Y5 2.409764 1_565
O9 Sr0 2.765886 1_555
O10 Y1 2.408209 1_555
O10 Y3 2.409800 1_556
O10 Sr1 2.765924 1_555
O11 Y2 2.408191 1_555
O11 Y4 2.409794 1_555
O11 Sr2 2.765925 1_655
O12 Y0 2.263786 1_555
O12 Sr0 2.735414 1_455
O12 Sr1 2.827310 1_455
O13 Y1 2.263781 1_555
O13 Sr1 2.735439 1_455
O13 Sr2 2.827291 1_555
O14 Y2 2.263797 1_555
O14 Sr2 2.735447 1_555
O14 Sr0 2.827272 1_455
O15 Y3 2.263801 1_555
O15 Sr1 2.735283 1_554
O15 Sr0 2.827456 1_545
O16 Y4 2.263771 1_555
O16 Sr2 2.735281 1_655
O16 Sr1 2.827498 1_554
O17 Y5 2.263791 1_555
O17 Sr0 2.735249 1_545
O17 Sr2 2.827507 1_655
O18 Y2 2.405654 1_555
O18 Y0 2.478999 1_555
O18 Sr0 2.717900 1_455
O19 Y0 2.405664 1_555
O19 Y1 2.479047 1_555
O19 Sr1 2.717794 1_455
O20 Y1 2.405668 1_555
O20 Y2 2.479063 1_555
O20 Sr2 2.717787 1_555
O21 Y3 2.405655 1_555
O21 Y5 2.479019 1_555
O21 Sr0 2.717912 1_545
O22 Y4 2.405681 1_555
O22 Y3 2.479063 1_555
O22 Sr1 2.717801 1_554
O23 Y5 2.405675 1_555
O23 Y4 2.479048 1_555
O23 Sr2 2.717810 1_655
O24 Y4 2.293062 1_555
O24 Y0 2.293078 1_554
O25 Y1 2.293051 1_555
O25 Y5 2.293072 1_555
O26 Y2 2.293117 1_545
O26 Y3 2.293117 1_555
