# generated using pymatgen
data_MgCr3O7
_symmetry_space_group_name_H-M   'P 1'
_cell_length_a   5.24339668
_cell_length_b   9.67197186
_cell_length_c   10.09474867
_cell_angle_alpha   90.00000000
_cell_angle_beta   90.00000000
_cell_angle_gamma   90.00000000
_symmetry_Int_Tables_number   1
_chemical_formula_structural   MgCr3O7
_chemical_formula_sum   'Mg4 Cr12 O28'
_cell_volume   511.94493404
_cell_formula_units_Z   4
loop_
 _symmetry_equiv_pos_site_id
 _symmetry_equiv_pos_as_xyz
  1  'x, y, z'
loop_
 _atom_site_type_symbol
 _atom_site_label
 _atom_site_symmetry_multiplicity
 _atom_site_fract_x
 _atom_site_fract_y
 _atom_site_fract_z
 _atom_site_occupancy
  Mg  Mg0  1  0.34722981  0.07170810  0.25000000  1
  Mg  Mg1  1  0.84722981  0.42829190  0.75000000  1
  Mg  Mg2  1  0.65277019  0.92829190  0.75000000  1
  Mg  Mg3  1  0.15277019  0.57170810  0.25000000  1
  Cr  Cr0  1  0.71647900  0.68798379  0.97929274  1
  Cr  Cr1  1  0.21647900  0.81201621  0.02070726  1
  Cr  Cr2  1  0.28352100  0.31201621  0.47929274  1
  Cr  Cr3  1  0.78352100  0.18798379  0.52070726  1
  Cr  Cr4  1  0.70620406  0.78302912  0.25000000  1
  Cr  Cr5  1  0.20620406  0.71697088  0.75000000  1
  Cr  Cr6  1  0.29379594  0.21697088  0.75000000  1
  Cr  Cr7  1  0.79379594  0.28302912  0.25000000  1
  Cr  Cr8  1  0.21647900  0.81201621  0.47929274  1
  Cr  Cr9  1  0.71647900  0.68798379  0.52070726  1
  Cr  Cr10  1  0.78352100  0.18798379  0.97929274  1
  Cr  Cr11  1  0.28352100  0.31201621  0.02070726  1
  O  O0  1  0.04358175  0.28108076  0.87888679  1
  O  O1  1  0.54358175  0.21891924  0.12111321  1
  O  O2  1  0.95641825  0.71891924  0.37888679  1
  O  O3  1  0.45641825  0.78108076  0.62111321  1
  O  O4  1  0.95641825  0.71891924  0.12111321  1
  O  O5  1  0.45641825  0.78108076  0.87888679  1
  O  O6  1  0.04358175  0.28108076  0.62111321  1
  O  O7  1  0.54358175  0.21891924  0.37888679  1
  O  O8  1  0.52616591  0.28292949  0.88024503  1
  O  O9  1  0.02616591  0.21707051  0.11975497  1
  O  O10  1  0.47383409  0.71707051  0.38024503  1
  O  O11  1  0.97383409  0.78292949  0.61975497  1
  O  O12  1  0.47383409  0.71707051  0.11975497  1
  O  O13  1  0.97383409  0.78292949  0.88024503  1
  O  O14  1  0.52616591  0.28292949  0.61975497  1
  O  O15  1  0.02616591  0.21707051  0.38024503  1
  O  O16  1  0.82167228  0.45459141  0.25000000  1
  O  O17  1  0.32167228  0.04540859  0.75000000  1
  O  O18  1  0.17832772  0.54540859  0.75000000  1
  O  O19  1  0.67832772  0.95459141  0.25000000  1
  O  O20  1  0.76458664  0.03212002  0.58607709  1
  O  O21  1  0.26458664  0.46787998  0.41392291  1
  O  O22  1  0.23541336  0.96787998  0.08607709  1
  O  O23  1  0.73541336  0.53212002  0.91392291  1
  O  O24  1  0.23541336  0.96787998  0.41392291  1
  O  O25  1  0.73541336  0.53212002  0.58607709  1
  O  O26  1  0.76458664  0.03212002  0.91392291  1
  O  O27  1  0.26458664  0.46787998  0.08607709  1
loop_
_geom_bond_atom_site_label_1
_geom_bond_atom_site_label_2
_geom_bond_distance
_geom_bond_site_symmetry_2
Mg0 O22 2.022484 1_545
Mg0 O24 2.022484 1_545
Mg0 O19 2.072942 1_545
Mg0 O7 2.186333 1_555
Mg0 O1 2.186333 1_555
Mg0 O15 2.557225 1_555
Mg0 O9 2.557225 1_555
Mg1 O25 2.022484 1_555
Mg1 O23 2.022484 1_555
Mg1 O18 2.072942 1_655
Mg1 O0 2.186333 1_655
Mg1 O6 2.186333 1_655
Mg1 O8 2.557225 1_555
Mg1 O14 2.557225 1_555
Mg2 O26 2.022484 1_565
Mg2 O20 2.022484 1_565
Mg2 O17 2.072942 1_565
Mg2 O5 2.186333 1_555
Mg2 O3 2.186333 1_555
Mg2 O11 2.557225 1_555
Mg2 O13 2.557225 1_555
Mg3 O27 2.022484 1_555
Mg3 O21 2.022484 1_555
Mg3 O16 2.072942 1_455
Mg3 O4 2.186333 1_455
Mg3 O2 2.186333 1_455
Mg3 O10 2.557225 1_555
Mg3 O12 2.557225 1_555
Cr0 O23 1.648606 1_555
Cr0 O13 1.914142 1_555
Cr0 O5 1.922893 1_555
Cr0 O12 1.925715 1_556
Cr0 O4 1.929231 1_556
Cr1 O22 1.648606 1_555
Cr1 O12 1.914142 1_555
Cr1 O4 1.922893 1_455
Cr1 O13 1.925715 1_454
Cr1 O5 1.929231 1_554
Cr2 O21 1.648606 1_555
Cr2 O15 1.914142 1_555
Cr2 O7 1.922893 1_555
Cr2 O14 1.925715 1_555
Cr2 O6 1.929231 1_555
Cr3 O20 1.648606 1_555
Cr3 O14 1.914142 1_555
Cr3 O6 1.922893 1_655
Cr3 O15 1.925715 1_655
Cr3 O7 1.929231 1_555
Cr4 O19 1.665771 1_555
Cr4 O12 1.902675 1_555
Cr4 O10 1.902675 1_555
Cr4 O4 1.948991 1_555
Cr4 O2 1.948991 1_555
Cr5 O18 1.665771 1_555
Cr5 O11 1.902675 1_455
Cr5 O13 1.902675 1_455
Cr5 O3 1.948991 1_555
Cr5 O5 1.948991 1_555
Cr6 O17 1.665771 1_555
Cr6 O14 1.902675 1_555
Cr6 O8 1.902675 1_555
Cr6 O6 1.948991 1_555
Cr6 O0 1.948991 1_555
Cr7 O16 1.665771 1_555
Cr7 O9 1.902675 1_655
Cr7 O15 1.902675 1_655
Cr7 O7 1.948991 1_555
Cr7 O1 1.948991 1_555
Cr8 O24 1.648606 1_555
Cr8 O10 1.914142 1_555
Cr8 O2 1.922893 1_455
Cr8 O11 1.925715 1_455
Cr8 O3 1.929231 1_555
Cr9 O25 1.648606 1_555
Cr9 O11 1.914142 1_555
Cr9 O3 1.922893 1_555
Cr9 O10 1.925715 1_555
Cr9 O2 1.929231 1_555
Cr10 O26 1.648606 1_555
Cr10 O8 1.914142 1_555
Cr10 O0 1.922893 1_655
Cr10 O9 1.925715 1_656
Cr10 O1 1.929231 1_556
Cr11 O27 1.648606 1_555
Cr11 O9 1.914142 1_555
Cr11 O1 1.922893 1_555
Cr11 O8 1.925715 1_554
Cr11 O0 1.929231 1_554
