# generated using pymatgen
data_KSrCeWO6
_symmetry_space_group_name_H-M   'P 1'
_cell_length_a   8.42086632
_cell_length_b   8.47047197
_cell_length_c   8.48011535
_cell_angle_alpha   90.00000000
_cell_angle_beta   90.00000000
_cell_angle_gamma   90.00000000
_symmetry_Int_Tables_number   1
_chemical_formula_structural   KSrCeWO6
_chemical_formula_sum   'K4 Sr4 Ce4 W4 O24'
_cell_volume   604.87570660
_cell_formula_units_Z   4
loop_
 _symmetry_equiv_pos_site_id
 _symmetry_equiv_pos_as_xyz
  1  'x, y, z'
loop_
 _atom_site_type_symbol
 _atom_site_label
 _atom_site_symmetry_multiplicity
 _atom_site_fract_x
 _atom_site_fract_y
 _atom_site_fract_z
 _atom_site_occupancy
  K  K0  1  0.00000000  0.50000000  0.50000000  1
  K  K1  1  0.50000000  0.50000000  0.00000000  1
  K  K2  1  0.50000000  0.00000000  0.00000000  1
  K  K3  1  0.00000000  0.00000000  0.50000000  1
  Sr  Sr0  1  0.50000000  0.00000000  0.50000000  1
  Sr  Sr1  1  0.00000000  0.50000000  0.00000000  1
  Sr  Sr2  1  0.00000000  0.00000000  0.00000000  1
  Sr  Sr3  1  0.50000000  0.50000000  0.50000000  1
  Ce  Ce0  1  0.75000000  0.75000000  0.75000000  1
  Ce  Ce1  1  0.25000000  0.25000000  0.75000000  1
  Ce  Ce2  1  0.25000000  0.75000000  0.25000000  1
  Ce  Ce3  1  0.75000000  0.25000000  0.25000000  1
  W  W0  1  0.25000000  0.25000000  0.25000000  1
  W  W1  1  0.75000000  0.75000000  0.25000000  1
  W  W2  1  0.75000000  0.25000000  0.75000000  1
  W  W3  1  0.25000000  0.75000000  0.75000000  1
  O  O0  1  0.01988360  0.22520739  0.26720863  1
  O  O1  1  0.98011640  0.77479261  0.26720863  1
  O  O2  1  0.98011640  0.22520739  0.73279137  1
  O  O3  1  0.01988360  0.77479261  0.73279137  1
  O  O4  1  0.26923564  0.01002686  0.23074864  1
  O  O5  1  0.26923564  0.98997314  0.76925136  1
  O  O6  1  0.73076436  0.98997314  0.23074864  1
  O  O7  1  0.73076436  0.01002686  0.76925136  1
  O  O8  1  0.21037060  0.26792497  0.01122536  1
  O  O9  1  0.78962940  0.26792497  0.98877464  1
  O  O10  1  0.21037060  0.73207503  0.98877464  1
  O  O11  1  0.78962940  0.73207503  0.01122536  1
  O  O12  1  0.48011640  0.27479261  0.23279137  1
  O  O13  1  0.51988360  0.72520739  0.23279137  1
  O  O14  1  0.51988360  0.27479261  0.76720863  1
  O  O15  1  0.48011640  0.72520739  0.76720863  1
  O  O16  1  0.23076436  0.48997314  0.26925136  1
  O  O17  1  0.23076436  0.51002686  0.73074864  1
  O  O18  1  0.76923564  0.51002686  0.26925136  1
  O  O19  1  0.76923564  0.48997314  0.73074864  1
  O  O20  1  0.28962940  0.23207503  0.48877464  1
  O  O21  1  0.71037060  0.23207503  0.51122536  1
  O  O22  1  0.28962940  0.76792497  0.51122536  1
  O  O23  1  0.71037060  0.76792497  0.48877464  1
loop_
_geom_bond_atom_site_label_1
_geom_bond_atom_site_label_2
_geom_bond_distance
_geom_bond_site_symmetry_2
K0 O19 2.759048 1_455
K0 O17 2.759048 1_555
K0 O18 2.759048 1_455
K0 O16 2.759048 1_555
K0 O1 3.056620 1_455
K0 O0 3.056620 1_555
K0 O2 3.056620 1_455
K0 O3 3.056620 1_555
K0 O21 3.332844 1_455
K0 O20 3.332844 1_555
K0 O22 3.332844 1_555
K0 O23 3.332844 1_455
K1 O13 2.750288 1_555
K1 O12 2.750288 1_555
K1 O15 2.750288 1_554
K1 O14 2.750288 1_554
K1 O8 3.133968 1_555
K1 O9 3.133968 1_554
K1 O10 3.133968 1_554
K1 O11 3.133968 1_555
K1 O18 3.218816 1_555
K1 O16 3.218816 1_555
K1 O19 3.218816 1_554
K1 O17 3.218816 1_554
K2 O7 2.759048 1_554
K2 O5 2.759048 1_544
K2 O4 2.759048 1_555
K2 O6 2.759048 1_545
K2 O13 3.056620 1_545
K2 O12 3.056620 1_555
K2 O15 3.056620 1_544
K2 O14 3.056620 1_554
K2 O10 3.332844 1_544
K2 O8 3.332844 1_555
K2 O9 3.332844 1_554
K2 O11 3.332844 1_545
K3 O0 2.750288 1_555
K3 O1 2.750288 1_445
K3 O3 2.750288 1_545
K3 O2 2.750288 1_455
K3 O20 3.133968 1_555
K3 O22 3.133968 1_545
K3 O21 3.133968 1_455
K3 O23 3.133968 1_445
K3 O6 3.218816 1_445
K3 O4 3.218816 1_555
K3 O5 3.218816 1_545
K3 O7 3.218816 1_455
Ce0 O7 2.214524 1_565
Ce0 O19 2.214524 1_555
Ce0 O23 2.245356 1_555
Ce0 O11 2.245356 1_556
Ce0 O3 2.286996 1_655
Ce0 O15 2.286996 1_555
Ce1 O5 2.214524 1_545
Ce1 O17 2.214524 1_555
Ce1 O20 2.245356 1_555
Ce1 O8 2.245356 1_556
Ce1 O2 2.286996 1_455
Ce1 O14 2.286996 1_555
Ce2 O4 2.214524 1_565
Ce2 O16 2.214524 1_555
Ce2 O22 2.245356 1_555
Ce2 O10 2.245356 1_554
Ce2 O1 2.286996 1_455
Ce2 O13 2.286996 1_555
Ce3 O6 2.214524 1_545
Ce3 O18 2.214524 1_555
Ce3 O9 2.245356 1_554
Ce3 O21 2.245356 1_555
Ce3 O12 2.286996 1_555
Ce3 O0 2.286996 1_655
O0 W0 1.954581 1_555
O0 Sr2 2.966749 1_555
O1 W1 1.954581 1_555
O1 Sr2 2.966749 1_665
O2 W2 1.954581 1_555
O2 Sr2 2.966749 1_656
O3 W3 1.954581 1_555
O3 Sr2 2.966749 1_566
O4 W0 2.045654 1_555
O4 Sr2 2.996058 1_555
O4 Sr0 2.999460 1_555
O5 W3 2.045654 1_555
O5 Sr2 2.996058 1_566
O5 Sr0 2.999460 1_565
O6 W1 2.045654 1_555
O6 Sr2 2.996058 1_665
O6 Sr0 2.999460 1_565
O7 W2 2.045654 1_555
O7 Sr2 2.996058 1_656
O7 Sr0 2.999460 1_555
O8 W0 2.057761 1_555
O8 Sr1 2.647942 1_555
O8 Sr2 2.880571 1_555
O9 W2 2.057761 1_555
O9 Sr1 2.647942 1_656
O9 Sr2 2.880571 1_656
O10 W3 2.057761 1_555
O10 Sr1 2.647942 1_556
O10 Sr2 2.880571 1_566
O11 W1 2.057761 1_555
O11 Sr1 2.647942 1_655
O11 Sr2 2.880571 1_665
O12 W0 1.954581 1_555
O12 Sr3 2.966749 1_555
O13 W1 1.954581 1_555
O13 Sr3 2.966749 1_555
O14 W2 1.954581 1_555
O14 Sr3 2.966749 1_555
O15 W3 1.954581 1_555
O15 Sr3 2.966749 1_555
O16 W0 2.045654 1_555
O16 Sr3 2.996058 1_555
O16 Sr1 2.999460 1_555
O17 W3 2.045654 1_555
O17 Sr3 2.996058 1_555
O17 Sr1 2.999460 1_556
O18 W1 2.045654 1_555
O18 Sr3 2.996058 1_555
O18 Sr1 2.999460 1_655
O19 W2 2.045654 1_555
O19 Sr3 2.996058 1_555
O19 Sr1 2.999460 1_656
O20 W0 2.057761 1_555
O20 Sr0 2.647942 1_555
O20 Sr3 2.880571 1_555
O21 W2 2.057761 1_555
O21 Sr0 2.647942 1_555
O21 Sr3 2.880571 1_555
O22 W3 2.057761 1_555
O22 Sr0 2.647942 1_565
O22 Sr3 2.880571 1_555
O23 W1 2.057761 1_555
O23 Sr0 2.647942 1_565
O23 Sr3 2.880571 1_555
