# generated using pymatgen
data_TiZn2O4
_symmetry_space_group_name_H-M   'P 1'
_cell_length_a   6.07440300
_cell_length_b   6.07440300
_cell_length_c   12.83441400
_cell_angle_alpha   90.00000000
_cell_angle_beta   90.00000000
_cell_angle_gamma   90.00000000
_symmetry_Int_Tables_number   1
_chemical_formula_structural   TiZn2O4
_chemical_formula_sum   'Ti4 Zn8 O16'
_cell_volume   473.56897969
_cell_formula_units_Z   4
loop_
 _symmetry_equiv_pos_site_id
 _symmetry_equiv_pos_as_xyz
  1  'x, y, z'
loop_
 _atom_site_type_symbol
 _atom_site_label
 _atom_site_symmetry_multiplicity
 _atom_site_fract_x
 _atom_site_fract_y
 _atom_site_fract_z
 _atom_site_occupancy
  Ti  Ti0  1  0.15366900  0.50000000  0.25000000  1
  Ti  Ti1  1  0.50000000  0.84633100  0.50000000  1
  Ti  Ti2  1  0.50000000  0.15366900  0.00000000  1
  Ti  Ti3  1  0.84633100  0.50000000  0.75000000  1
  Zn  Zn0  1  0.00000000  0.44966500  0.00000000  1
  Zn  Zn1  1  0.00000000  0.55033500  0.50000000  1
  Zn  Zn2  1  0.36144300  0.36144300  0.62500000  1
  Zn  Zn3  1  0.36144300  0.63855700  0.87500000  1
  Zn  Zn4  1  0.44966500  0.00000000  0.25000000  1
  Zn  Zn5  1  0.55033500  0.00000000  0.75000000  1
  Zn  Zn6  1  0.63855700  0.36144300  0.37500000  1
  Zn  Zn7  1  0.63855700  0.63855700  0.12500000  1
  O  O0  1  0.57299300  0.04414700  0.39599000  1
  O  O1  1  0.57299300  0.95585300  0.10401000  1
  O  O2  1  0.37887800  0.70166100  0.24880900  1
  O  O3  1  0.37887800  0.29833900  0.25119100  1
  O  O4  1  0.04414700  0.57299300  0.85401000  1
  O  O5  1  0.04414700  0.42700700  0.64599000  1
  O  O6  1  0.70166100  0.37887800  0.00119100  1
  O  O7  1  0.70166100  0.62112200  0.49880900  1
  O  O8  1  0.29833900  0.37887800  0.99880900  1
  O  O9  1  0.29833900  0.62112200  0.50119100  1
  O  O10  1  0.95585300  0.57299300  0.14599000  1
  O  O11  1  0.95585300  0.42700700  0.35401000  1
  O  O12  1  0.62112200  0.70166100  0.75119100  1
  O  O13  1  0.62112200  0.29833900  0.74880900  1
  O  O14  1  0.42700700  0.04414700  0.60401000  1
  O  O15  1  0.42700700  0.95585300  0.89599000  1
loop_
_geom_bond_atom_site_label_1
_geom_bond_atom_site_label_2
_geom_bond_distance
_geom_bond_site_symmetry_2
O0 Ti1 1.849986 1_545
O0 Zn6 1.986453 1_555
O0 Zn4 2.035649 1_555
O1 Ti2 1.849986 1_565
O1 Zn7 1.986453 1_555
O1 Zn4 2.035649 1_565
O2 Ti0 1.836365 1_555
O2 Zn4 1.862607 1_565
O2 Zn7 2.271581 1_555
O3 Ti0 1.836365 1_555
O3 Zn4 1.862607 1_555
O3 Zn6 2.271581 1_555
O4 Ti3 1.849986 1_455
O4 Zn3 1.986453 1_555
O4 Zn0 2.035649 1_556
O5 Ti3 1.849986 1_455
O5 Zn2 1.986453 1_555
O5 Zn1 2.035649 1_555
O6 Ti2 1.836365 1_555
O6 Zn0 1.862607 1_655
O6 Zn7 2.271581 1_555
O7 Ti1 1.836365 1_555
O7 Zn1 1.862607 1_655
O7 Zn6 2.271581 1_555
O8 Ti2 1.836365 1_556
O8 Zn0 1.862607 1_556
O8 Zn3 2.271581 1_555
O9 Ti1 1.836365 1_555
O9 Zn1 1.862607 1_555
O9 Zn2 2.271581 1_555
O10 Ti0 1.849986 1_655
O10 Zn7 1.986453 1_555
O10 Zn0 2.035649 1_655
O11 Ti0 1.849986 1_655
O11 Zn6 1.986453 1_555
O11 Zn1 2.035649 1_655
O12 Ti3 1.836365 1_555
O12 Zn5 1.862607 1_565
O12 Zn3 2.271581 1_555
O13 Ti3 1.836365 1_555
O13 Zn5 1.862607 1_555
O13 Zn2 2.271581 1_555
O14 Ti1 1.849986 1_545
O14 Zn2 1.986453 1_555
O14 Zn5 2.035649 1_555
O15 Ti2 1.849986 1_566
O15 Zn3 1.986453 1_555
O15 Zn5 2.035649 1_565
