# generated using pymatgen
data_TiZnSnO4
_symmetry_space_group_name_H-M   'P 1'
_cell_length_a   3.11508400
_cell_length_b   10.08201600
_cell_length_c   11.70743000
_cell_angle_alpha   90.00000000
_cell_angle_beta   90.00000000
_cell_angle_gamma   90.00000000
_symmetry_Int_Tables_number   1
_chemical_formula_structural   TiZnSnO4
_chemical_formula_sum   'Ti4 Zn4 Sn4 O16'
_cell_volume   367.68737174
_cell_formula_units_Z   4
loop_
 _symmetry_equiv_pos_site_id
 _symmetry_equiv_pos_as_xyz
  1  'x, y, z'
loop_
 _atom_site_type_symbol
 _atom_site_label
 _atom_site_symmetry_multiplicity
 _atom_site_fract_x
 _atom_site_fract_y
 _atom_site_fract_z
 _atom_site_occupancy
  Ti  Ti0  1  0.75000000  0.18443700  0.78023700  1
  Ti  Ti1  1  0.75000000  0.31556300  0.28023700  1
  Ti  Ti2  1  0.25000000  0.81556300  0.21976300  1
  Ti  Ti3  1  0.25000000  0.68443700  0.71976300  1
  Zn  Zn0  1  0.75000000  0.48122000  0.91891100  1
  Zn  Zn1  1  0.75000000  0.01878000  0.41891100  1
  Zn  Zn2  1  0.25000000  0.51878000  0.08108900  1
  Zn  Zn3  1  0.25000000  0.98122000  0.58108900  1
  Sn  Sn0  1  0.25000000  0.35065200  0.53421700  1
  Sn  Sn1  1  0.25000000  0.14934800  0.03421700  1
  Sn  Sn2  1  0.75000000  0.64934800  0.46578300  1
  Sn  Sn3  1  0.75000000  0.85065200  0.96578300  1
  O  O0  1  0.75000000  0.30931200  0.65466600  1
  O  O1  1  0.75000000  0.19068800  0.15466600  1
  O  O2  1  0.25000000  0.69068800  0.34533400  1
  O  O3  1  0.25000000  0.80931200  0.84533400  1
  O  O4  1  0.25000000  0.08778700  0.71886400  1
  O  O5  1  0.25000000  0.41221300  0.21886400  1
  O  O6  1  0.75000000  0.91221300  0.28113600  1
  O  O7  1  0.75000000  0.58778700  0.78113600  1
  O  O8  1  0.25000000  0.27577100  0.86946600  1
  O  O9  1  0.25000000  0.22422900  0.36946600  1
  O  O10  1  0.75000000  0.72422900  0.13053400  1
  O  O11  1  0.75000000  0.77577100  0.63053400  1
  O  O12  1  0.75000000  0.06396600  0.92536100  1
  O  O13  1  0.75000000  0.43603400  0.42536100  1
  O  O14  1  0.25000000  0.93603400  0.07463900  1
  O  O15  1  0.25000000  0.56396600  0.57463900  1
loop_
_geom_bond_atom_site_label_1
_geom_bond_atom_site_label_2
_geom_bond_distance
_geom_bond_site_symmetry_2
O0 Ti0 1.935535 1_555
O0 Sn0 2.142001 1_555
O0 Sn0 2.142001 1_655
O1 Ti1 1.935535 1_555
O1 Sn1 2.142001 1_655
O1 Sn1 2.142001 1_555
O2 Ti2 1.935535 1_555
O2 Sn2 2.142001 1_555
O2 Sn2 2.142001 1_455
O3 Ti3 1.935535 1_555
O3 Sn3 2.142001 1_555
O3 Sn3 2.142001 1_455
O4 Zn3 1.938065 1_545
O4 Ti0 1.972743 1_555
O4 Ti0 1.972743 1_455
O5 Zn2 1.938065 1_555
O5 Ti1 1.972743 1_555
O5 Ti1 1.972743 1_455
O6 Zn1 1.938065 1_565
O6 Ti2 1.972743 1_555
O6 Ti2 1.972743 1_655
O7 Zn0 1.938065 1_555
O7 Ti3 1.972743 1_655
O7 Ti3 1.972743 1_555
O8 Ti0 2.089293 1_455
O8 Ti0 2.089293 1_555
O8 Sn1 2.311907 1_556
O9 Ti1 2.089293 1_555
O9 Ti1 2.089293 1_455
O9 Sn0 2.311907 1_555
O10 Ti2 2.089293 1_555
O10 Ti2 2.089293 1_655
O10 Sn3 2.311907 1_554
O11 Ti3 2.089293 1_655
O11 Ti3 2.089293 1_555
O11 Sn2 2.311907 1_555
O12 Ti0 2.088523 1_555
O12 Sn1 2.188860 1_556
O12 Sn1 2.188860 1_656
O12 Sn3 2.202087 1_545
O13 Ti1 2.088523 1_555
O13 Sn0 2.188860 1_555
O13 Sn0 2.188860 1_655
O13 Sn2 2.202087 1_555
O14 Ti2 2.088523 1_555
O14 Sn3 2.188860 1_454
O14 Sn3 2.188860 1_554
O14 Sn1 2.202087 1_565
O15 Ti3 2.088523 1_555
O15 Sn2 2.188860 1_555
O15 Sn2 2.188860 1_455
O15 Sn0 2.202087 1_555
