# generated using pymatgen
data_DyFe5P3
_symmetry_space_group_name_H-M   'P 1'
_cell_length_a   3.66177789
_cell_length_b   10.39745870
_cell_length_c   11.92761589
_cell_angle_alpha   90.00000000
_cell_angle_beta   90.00000000
_cell_angle_gamma   90.00000000
_symmetry_Int_Tables_number   1
_chemical_formula_structural   DyFe5P3
_chemical_formula_sum   'Dy4 Fe20 P12'
_cell_volume   454.12231899
_cell_formula_units_Z   4
loop_
 _symmetry_equiv_pos_site_id
 _symmetry_equiv_pos_as_xyz
  1  'x, y, z'
loop_
 _atom_site_type_symbol
 _atom_site_label
 _atom_site_symmetry_multiplicity
 _atom_site_fract_x
 _atom_site_fract_y
 _atom_site_fract_z
 _atom_site_occupancy
  Dy  Dy0  1  0.25000000  0.58097539  0.70348298  1
  Dy  Dy1  1  0.25000000  0.91902461  0.20348298  1
  Dy  Dy2  1  0.75000000  0.41902461  0.29651702  1
  Dy  Dy3  1  0.75000000  0.08097539  0.79651702  1
  Fe  Fe0  1  0.25000000  0.70869366  0.98807998  1
  Fe  Fe1  1  0.25000000  0.79130634  0.48807998  1
  Fe  Fe2  1  0.75000000  0.29130634  0.01192002  1
  Fe  Fe3  1  0.75000000  0.20869366  0.51192002  1
  Fe  Fe4  1  0.25000000  0.40571663  0.49172286  1
  Fe  Fe5  1  0.25000000  0.09428337  0.99172286  1
  Fe  Fe6  1  0.75000000  0.59428337  0.50827714  1
  Fe  Fe7  1  0.75000000  0.90571663  0.00827714  1
  Fe  Fe8  1  0.25000000  0.21735781  0.17913344  1
  Fe  Fe9  1  0.25000000  0.28264219  0.67913344  1
  Fe  Fe10  1  0.75000000  0.78264219  0.82086656  1
  Fe  Fe11  1  0.75000000  0.71735781  0.32086656  1
  Fe  Fe12  1  0.25000000  0.87183821  0.70518831  1
  Fe  Fe13  1  0.25000000  0.62816179  0.20518831  1
  Fe  Fe14  1  0.75000000  0.12816179  0.29481169  1
  Fe  Fe15  1  0.75000000  0.37183821  0.79481169  1
  Fe  Fe16  1  0.25000000  0.46194501  0.93131959  1
  Fe  Fe17  1  0.25000000  0.03805499  0.43131959  1
  Fe  Fe18  1  0.75000000  0.53805499  0.06868041  1
  Fe  Fe19  1  0.75000000  0.96194501  0.56868041  1
  P  P0  1  0.25000000  0.42787471  0.11268468  1
  P  P1  1  0.25000000  0.07212529  0.61268468  1
  P  P2  1  0.75000000  0.57212529  0.88731532  1
  P  P3  1  0.75000000  0.92787471  0.38731532  1
  P  P4  1  0.25000000  0.26399938  0.87588365  1
  P  P5  1  0.25000000  0.23600062  0.37588365  1
  P  P6  1  0.75000000  0.73600062  0.12411635  1
  P  P7  1  0.75000000  0.76399938  0.62411635  1
  P  P8  1  0.25000000  0.59561655  0.39970877  1
  P  P9  1  0.25000000  0.90438345  0.89970877  1
  P  P10  1  0.75000000  0.40438345  0.60029123  1
  P  P11  1  0.75000000  0.09561655  0.10029123  1
loop_
_geom_bond_atom_site_label_1
_geom_bond_atom_site_label_2
_geom_bond_distance
_geom_bond_site_symmetry_2
Dy0 P7 2.805291 1_455
Dy0 P7 2.805291 1_555
Dy0 P2 2.858054 1_455
Dy0 P2 2.858054 1_555
Dy0 P10 2.870260 1_555
Dy0 P10 2.870260 1_455
Dy0 Fe6 2.965210 1_455
Dy0 Fe6 2.965210 1_555
Dy0 Fe16 2.986093 1_555
Dy0 Fe12 3.024303 1_555
Dy0 Fe15 3.044213 1_555
Dy0 Fe15 3.044213 1_455
Dy0 Fe4 3.114516 1_555
Dy0 Fe9 3.115474 1_555
Dy0 Fe10 3.115945 1_455
Dy0 Fe10 3.115945 1_555
Dy1 P6 2.805291 1_555
Dy1 P6 2.805291 1_455
Dy1 P3 2.858054 1_455
Dy1 P3 2.858054 1_555
Dy1 P11 2.870260 1_465
Dy1 P11 2.870260 1_565
Dy1 Fe7 2.965210 1_555
Dy1 Fe7 2.965210 1_455
Dy1 Fe17 2.986093 1_565
Dy1 Fe13 3.024303 1_555
Dy1 Fe14 3.044213 1_565
Dy1 Fe14 3.044213 1_465
Dy1 Fe5 3.114516 1_564
Dy1 Fe8 3.115474 1_565
Dy1 Fe11 3.115945 1_455
Dy1 Fe11 3.115945 1_555
Dy2 P5 2.805291 1_655
Dy2 P5 2.805291 1_555
Dy2 P0 2.858054 1_555
Dy2 P0 2.858054 1_655
Dy2 P8 2.870260 1_655
Dy2 P8 2.870260 1_555
Dy2 Fe4 2.965210 1_555
Dy2 Fe4 2.965210 1_655
Dy2 Fe18 2.986093 1_555
Dy2 Fe14 3.024303 1_555
Dy2 Fe13 3.044213 1_555
Dy2 Fe13 3.044213 1_655
Dy2 Fe6 3.114516 1_555
Dy2 Fe11 3.115474 1_555
Dy2 Fe8 3.115945 1_555
Dy2 Fe8 3.115945 1_655
Dy3 P4 2.805291 1_655
Dy3 P4 2.805291 1_555
Dy3 P1 2.858054 1_555
Dy3 P1 2.858054 1_655
Dy3 P9 2.870260 1_545
Dy3 P9 2.870260 1_645
Dy3 Fe5 2.965210 1_555
Dy3 Fe5 2.965210 1_655
Dy3 Fe19 2.986093 1_545
Dy3 Fe15 3.024303 1_555
Dy3 Fe12 3.044213 1_545
Dy3 Fe12 3.044213 1_645
Dy3 Fe7 3.114516 1_546
Dy3 Fe10 3.115474 1_545
Dy3 Fe9 3.115945 1_655
Dy3 Fe9 3.115945 1_555
Fe0 P9 2.291494 1_555
Fe0 P6 2.462836 1_456
Fe0 P6 2.462836 1_556
Fe0 P2 2.610167 1_455
Fe0 P2 2.610167 1_555
Fe1 P8 2.291494 1_555
Fe1 P7 2.462836 1_555
Fe1 P7 2.462836 1_455
Fe1 P3 2.610167 1_455
Fe1 P3 2.610167 1_555
Fe2 P11 2.291494 1_555
Fe2 P4 2.462836 1_554
Fe2 P4 2.462836 1_654
Fe2 P0 2.610167 1_555
Fe2 P0 2.610167 1_655
Fe3 P10 2.291494 1_555
Fe3 P5 2.462836 1_655
Fe3 P5 2.462836 1_555
Fe3 P1 2.610167 1_655
Fe3 P1 2.610167 1_555
Fe4 P5 2.241188 1_555
Fe4 P10 2.242604 1_555
Fe4 P10 2.242604 1_455
Fe4 P8 2.259000 1_555
Fe5 P4 2.241188 1_555
Fe5 P11 2.242604 1_556
Fe5 P11 2.242604 1_456
Fe5 P9 2.259000 1_545
Fe6 P7 2.241188 1_555
Fe6 P8 2.242604 1_555
Fe6 P8 2.242604 1_655
Fe6 P10 2.259000 1_555
Fe7 P6 2.241188 1_555
Fe7 P9 2.242604 1_554
Fe7 P9 2.242604 1_654
Fe7 P11 2.259000 1_565
Fe8 P0 2.327917 1_555
Fe8 P5 2.354753 1_555
Fe8 P11 2.416352 1_455
Fe8 P11 2.416352 1_555
Fe9 P1 2.327917 1_555
Fe9 P4 2.354753 1_555
Fe9 P10 2.416352 1_455
Fe9 P10 2.416352 1_555
Fe10 P2 2.327917 1_555
Fe10 P7 2.354753 1_555
Fe10 P9 2.416352 1_655
Fe10 P9 2.416352 1_555
Fe11 P3 2.327917 1_555
Fe11 P6 2.354753 1_555
Fe11 P8 2.416352 1_655
Fe11 P8 2.416352 1_555
Fe12 P9 2.344712 1_555
Fe12 P7 2.354662 1_455
Fe12 P7 2.354662 1_555
Fe12 P1 2.356711 1_565
Fe13 P8 2.344712 1_555
Fe13 P6 2.354662 1_555
Fe13 P6 2.354662 1_455
Fe13 P0 2.356711 1_555
Fe14 P11 2.344712 1_555
Fe14 P5 2.354662 1_655
Fe14 P5 2.354662 1_555
Fe14 P3 2.356711 1_545
Fe15 P10 2.344712 1_555
Fe15 P4 2.354662 1_555
Fe15 P4 2.354662 1_655
Fe15 P2 2.356711 1_555
Fe16 P4 2.161739 1_555
Fe16 P0 2.192066 1_556
Fe16 P2 2.222617 1_555
Fe16 P2 2.222617 1_455
Fe17 P5 2.161739 1_555
Fe17 P1 2.192066 1_555
Fe17 P3 2.222617 1_545
Fe17 P3 2.222617 1_445
Fe18 P6 2.161739 1_555
Fe18 P2 2.192066 1_554
Fe18 P0 2.222617 1_655
Fe18 P0 2.222617 1_555
Fe19 P7 2.161739 1_555
Fe19 P3 2.192066 1_555
Fe19 P1 2.222617 1_565
Fe19 P1 2.222617 1_665
