# generated using pymatgen
data_Li7Mn4CoO12
_symmetry_space_group_name_H-M   'P 1'
_cell_length_a   5.02654041
_cell_length_b   8.88196708
_cell_length_c   9.89886515
_cell_angle_alpha   100.83531531
_cell_angle_beta   93.52212353
_cell_angle_gamma   92.27760814
_symmetry_Int_Tables_number   1
_chemical_formula_structural   Li7Mn4CoO12
_chemical_formula_sum   'Li14 Mn8 Co2 O24'
_cell_volume   432.64808264
_cell_formula_units_Z   2
loop_
 _symmetry_equiv_pos_site_id
 _symmetry_equiv_pos_as_xyz
  1  'x, y, z'
loop_
 _atom_site_type_symbol
 _atom_site_label
 _atom_site_symmetry_multiplicity
 _atom_site_fract_x
 _atom_site_fract_y
 _atom_site_fract_z
 _atom_site_occupancy
  Li  Li0  1  0.00000600  0.33331100  0.99999900  1
  Li  Li1  1  0.50001000  0.83336300  0.99999800  1
  Li  Li2  1  0.36901000  0.37559900  0.24882700  1
  Li  Li3  1  0.86901700  0.87562400  0.24881600  1
  Li  Li4  1  0.63097400  0.29103900  0.75118200  1
  Li  Li5  1  0.13098000  0.79106400  0.75117000  1
  Li  Li6  1  0.87711000  0.20826500  0.24870800  1
  Li  Li7  1  0.37707400  0.70828400  0.24872800  1
  Li  Li8  1  0.12292800  0.45839600  0.75127300  1
  Li  Li9  1  0.62289100  0.95841500  0.75129100  1
  Li  Li10  1  0.37908100  0.04002000  0.24368200  1
  Li  Li11  1  0.87907000  0.54001100  0.24369000  1
  Li  Li12  1  0.12091300  0.12663800  0.75631100  1
  Li  Li13  1  0.62092500  0.62664700  0.75630200  1
  Mn  Mn0  1  0.99831400  0.99936000  0.00006400  1
  Mn  Mn1  1  0.50169000  0.16730100  0.99993700  1
  Mn  Mn2  1  0.75058500  0.41696600  0.49951800  1
  Mn  Mn3  1  0.74941500  0.74969200  0.50048600  1
  Mn  Mn4  1  0.49830800  0.49934600  0.00006900  1
  Mn  Mn5  1  0.00169600  0.66731800  0.99993300  1
  Mn  Mn6  1  0.25078700  0.91696200  0.49964600  1
  Mn  Mn7  1  0.24920600  0.24969800  0.50035700  1
  Co  Co0  1  0.24999500  0.58333900  0.49999700  1
  Co  Co1  1  0.74999600  0.08333800  0.49999600  1
  O  O0  1  0.69029900  0.03612300  0.10903200  1
  O  O1  1  0.19029100  0.53612100  0.10903200  1
  O  O2  1  0.80970300  0.13055700  0.89097400  1
  O  O3  1  0.30970900  0.63055800  0.89097500  1
  O  O4  1  0.44282000  0.42681700  0.61563700  1
  O  O5  1  0.94275100  0.92680800  0.61563200  1
  O  O6  1  0.55723300  0.23985900  0.38436600  1
  O  O7  1  0.05716700  0.73985000  0.38436200  1
  O  O8  1  0.65589600  0.35849300  0.11003200  1
  O  O9  1  0.15588900  0.85852700  0.11001500  1
  O  O10  1  0.34410700  0.30814600  0.88998100  1
  O  O11  1  0.84409900  0.80817900  0.88996500  1
  O  O12  1  0.19775100  0.17466100  0.11276700  1
  O  O13  1  0.69774800  0.67465900  0.11276600  1
  O  O14  1  0.80226300  0.49200100  0.88723300  1
  O  O15  1  0.30226300  0.99199700  0.88723100  1
  O  O16  1  0.45039100  0.08961800  0.61650400  1
  O  O17  1  0.95037200  0.58961700  0.61644800  1
  O  O18  1  0.04962300  0.07703800  0.38350200  1
  O  O19  1  0.54964100  0.57703600  0.38355700  1
  O  O20  1  0.94173300  0.25381200  0.61855100  1
  O  O21  1  0.44173100  0.75381700  0.61855200  1
  O  O22  1  0.05826800  0.41285200  0.38145100  1
  O  O23  1  0.55826500  0.91285600  0.38145300  1
loop_
_geom_bond_atom_site_label_1
_geom_bond_atom_site_label_2
_geom_bond_distance
_geom_bond_site_symmetry_2
Li0 O2 2.080467 1_455
Li0 O1 2.080830 1_556
Li0 O10 2.097211 1_555
Li0 O8 2.097338 1_456
Li0 O12 2.187710 1_556
Li0 O14 2.187963 1_455
Li1 O0 2.080508 1_566
Li1 O3 2.080796 1_555
Li1 O11 2.097248 1_555
Li1 O9 2.097292 1_556
Li1 O15 2.187601 1_555
Li1 O13 2.188058 1_556
Li2 O8 2.042688 1_555
Li2 O22 2.098194 1_555
Li2 O12 2.138213 1_555
Li2 O19 2.151537 1_555
Li2 O6 2.166025 1_555
Li2 O1 2.333572 1_555
Li3 O9 2.042679 1_655
Li3 O23 2.098303 1_555
Li3 O13 2.138353 1_555
Li3 O18 2.151160 1_665
Li3 O7 2.166128 1_655
Li3 O0 2.333345 1_565
Li4 O10 2.042644 1_555
Li4 O20 2.098290 1_555
Li4 O14 2.138372 1_555
Li4 O16 2.151128 1_555
Li4 O4 2.166154 1_555
Li4 O2 2.333308 1_555
Li5 O11 2.042667 1_455
Li5 O21 2.098188 1_555
Li5 O15 2.138226 1_555
Li5 O17 2.151524 1_455
Li5 O5 2.166056 1_455
Li5 O3 2.333554 1_555
Li6 O0 2.015614 1_555
Li6 O18 2.100885 1_655
Li6 O6 2.150989 1_555
Li6 O12 2.156669 1_655
Li6 O22 2.163683 1_655
Li6 O8 2.349524 1_555
Li7 O1 2.015775 1_555
Li7 O19 2.101369 1_555
Li7 O7 2.150945 1_555
Li7 O13 2.156944 1_555
Li7 O23 2.163571 1_555
Li7 O9 2.349793 1_555
Li8 O3 2.015796 1_555
Li8 O17 2.101153 1_455
Li8 O4 2.150903 1_555
Li8 O14 2.156886 1_455
Li8 O20 2.163641 1_455
Li8 O10 2.349789 1_555
Li9 O2 2.015652 1_565
Li9 O16 2.100663 1_565
Li9 O5 2.150933 1_555
Li9 O15 2.156601 1_555
Li9 O21 2.163739 1_555
Li9 O11 2.349547 1_555
Li10 O23 2.110891 1_545
Li10 O12 2.112922 1_555
Li10 O0 2.113791 1_555
Li10 O9 2.116574 1_545
Li10 O6 2.163991 1_555
Li10 O18 2.218102 1_555
Li11 O22 2.110818 1_655
Li11 O13 2.113011 1_555
Li11 O1 2.113861 1_655
Li11 O8 2.116630 1_555
Li11 O7 2.163842 1_655
Li11 O19 2.218289 1_555
Li12 O20 2.110864 1_455
Li12 O15 2.112998 1_545
Li12 O2 2.113832 1_455
Li12 O10 2.116675 1_555
Li12 O5 2.163931 1_445
Li12 O16 2.218100 1_555
Li13 O21 2.110797 1_555
Li13 O14 2.113080 1_555
Li13 O3 2.113927 1_555
Li13 O11 2.116730 1_555
Li13 O4 2.163769 1_555
Li13 O17 2.218281 1_555
Mn0 O12 1.938901 1_665
Mn0 O11 1.941101 1_554
Mn0 O15 1.943229 1_654
Mn0 O0 1.944263 1_565
Mn0 O2 1.964168 1_564
Mn0 O9 1.965026 1_655
Mn1 O15 1.938908 1_545
Mn1 O8 1.941145 1_556
Mn1 O12 1.943171 1_556
Mn1 O2 1.944210 1_555
Mn1 O0 1.964074 1_556
Mn1 O10 1.965154 1_555
Mn2 O17 1.940938 1_555
Mn2 O6 1.945922 1_555
Mn2 O4 1.978256 1_555
Mn2 O22 1.992411 1_655
Mn2 O19 2.223610 1_555
Mn2 O20 2.241661 1_555
Mn3 O19 1.940934 1_555
Mn3 O5 1.945918 1_555
Mn3 O7 1.978236 1_655
Mn3 O21 1.992402 1_555
Mn3 O17 2.223679 1_555
Mn3 O23 2.241733 1_555
Mn4 O13 1.938956 1_555
Mn4 O10 1.941164 1_554
Mn4 O14 1.943279 1_554
Mn4 O1 1.944253 1_555
Mn4 O3 1.964260 1_554
Mn4 O8 1.965263 1_555
Mn5 O14 1.938976 1_455
Mn5 O9 1.941189 1_556
Mn5 O13 1.943233 1_456
Mn5 O3 1.944195 1_555
Mn5 O1 1.964186 1_556
Mn5 O11 1.965367 1_455
Mn6 O16 1.940258 1_565
Mn6 O7 1.947060 1_555
Mn6 O5 1.978558 1_455
Mn6 O23 1.992365 1_555
Mn6 O18 2.225249 1_565
Mn6 O21 2.240387 1_555
Mn7 O18 1.940222 1_555
Mn7 O4 1.947074 1_555
Mn7 O6 1.978553 1_555
Mn7 O20 1.992346 1_455
Mn7 O16 2.225341 1_555
Mn7 O22 2.240436 1_555
Co0 O22 1.917226 1_555
Co0 O21 1.917232 1_555
Co0 O17 1.948322 1_455
Co0 O19 1.948335 1_555
Co0 O7 2.179719 1_555
Co0 O4 2.179817 1_555
Co1 O23 1.917193 1_545
Co1 O20 1.917211 1_555
Co1 O18 1.948598 1_655
Co1 O16 1.948605 1_555
Co1 O6 2.179613 1_555
Co1 O5 2.179692 1_545
