# generated using pymatgen
data_MgMn8(OF)8
_symmetry_space_group_name_H-M   'P 1'
_cell_length_a   4.83734656
_cell_length_b   4.99214151
_cell_length_c   12.40724954
_cell_angle_alpha   91.98451660
_cell_angle_beta   90.93695621
_cell_angle_gamma   88.84252384
_symmetry_Int_Tables_number   1
_chemical_formula_structural   MgMn8(OF)8
_chemical_formula_sum   'Mg1 Mn8 O8 F8'
_cell_volume   299.34163600
_cell_formula_units_Z   1
loop_
 _symmetry_equiv_pos_site_id
 _symmetry_equiv_pos_as_xyz
  1  'x, y, z'
loop_
 _atom_site_type_symbol
 _atom_site_label
 _atom_site_symmetry_multiplicity
 _atom_site_fract_x
 _atom_site_fract_y
 _atom_site_fract_z
 _atom_site_occupancy
  Mg  Mg0  1  0.50300100  0.97763200  0.12456700  1
  Mn  Mn0  1  0.98294500  0.96960700  0.98790800  1
  Mn  Mn1  1  0.03900700  0.02296500  0.25967700  1
  Mn  Mn2  1  0.97175400  0.94602000  0.49949800  1
  Mn  Mn3  1  0.04826000  0.03960500  0.74422600  1
  Mn  Mn4  1  0.47407800  0.52617600  0.62119200  1
  Mn  Mn5  1  0.58141400  0.46782300  0.12222100  1
  Mn  Mn6  1  0.46277800  0.49668300  0.37719900  1
  Mn  Mn7  1  0.48823800  0.55250200  0.86630600  1
  O  O0  1  0.16664500  0.78500000  0.37091600  1
  O  O1  1  0.17362600  0.80885000  0.61851700  1
  O  O2  1  0.17753500  0.81454900  0.87027800  1
  O  O3  1  0.35853200  0.25926200  0.24111300  1
  O  O4  1  0.32484200  0.35330200  0.74708400  1
  O  O5  1  0.66743900  0.72427200  0.00193200  1
  O  O6  1  0.64639000  0.67740800  0.49572400  1
  O  O7  1  0.85736400  0.16179700  0.12316900  1
  F  F0  1  0.19919700  0.73811100  0.12549200  1
  F  F1  1  0.33108500  0.21726600  0.01164400  1
  F  F2  1  0.27550600  0.27910800  0.49599100  1
  F  F3  1  0.68583800  0.75277800  0.24272200  1
  F  F4  1  0.69192500  0.75266000  0.74515200  1
  F  F5  1  0.79207600  0.20035300  0.38275000  1
  F  F6  1  0.79328100  0.21130100  0.61846800  1
  F  F7  1  0.80724200  0.25108400  0.87396000  1
loop_
_geom_bond_atom_site_label_1
_geom_bond_atom_site_label_2
_geom_bond_distance
_geom_bond_site_symmetry_2
Mg0 O7 1.962067 1_565
Mg0 O3 2.099656 1_565
Mg0 O5 2.100780 1_555
Mn0 O2 1.884812 1_655
Mn0 O5 1.989615 1_556
Mn0 O7 2.001061 1_566
Mn1 O0 1.937364 1_545
Mn1 O3 1.984374 1_555
Mn1 O7 2.031997 1_455
Mn2 O1 1.897106 1_655
Mn2 O0 2.002456 1_655
Mn2 O6 2.087103 1_555
Mn3 O1 2.001432 1_545
Mn3 O2 2.039762 1_545
Mn3 O4 2.079174 1_555
Mn4 O6 1.958921 1_555
Mn4 O4 1.964970 1_555
Mn4 O1 2.005889 1_555
Mn5 O7 2.008554 1_555
Mn5 O5 2.052741 1_555
Mn5 O3 2.150854 1_555
Mn6 O6 1.913950 1_555
Mn6 O0 2.012607 1_555
Mn6 O3 2.089894 1_555
Mn7 O4 1.921812 1_555
Mn7 O2 1.972617 1_555
Mn7 O5 2.049578 1_556
F0 Mg0 1.913667 1_555
F0 Mn5 2.266862 1_555
F0 Mn1 2.286508 1_565
F0 Mn0 2.318020 1_454
F1 Mg0 2.030629 1_545
F1 Mn0 2.119923 1_444
F1 Mn5 2.191155 1_555
F1 Mn7 2.633552 1_554
F2 Mn6 2.089744 1_555
F2 Mn4 2.173332 1_555
F2 Mn2 2.243142 1_445
F3 Mg0 2.054947 1_555
F3 Mn5 2.090713 1_555
F3 Mn1 2.200880 1_665
F3 Mn6 2.417634 1_555
F4 Mn7 2.102635 1_555
F4 Mn4 2.151509 1_555
F4 Mn3 2.263812 1_665
F5 Mn1 2.113288 1_655
F5 Mn2 2.123048 1_545
F5 Mn6 2.153793 1_555
F6 Mn2 2.130285 1_545
F6 Mn3 2.162764 1_655
F6 Mn4 2.180874 1_555
F7 Mn7 2.136763 1_555
F7 Mn0 2.178468 1_545
F7 Mn3 2.226829 1_655
