# generated using pymatgen
data_Y16C7(I7O)2
_symmetry_space_group_name_H-M   'P 1'
_cell_length_a   26.23215335
_cell_length_b   26.23215335
_cell_length_c   11.14395765
_cell_angle_alpha   89.60250231
_cell_angle_beta   89.60250231
_cell_angle_gamma   8.45281812
_symmetry_Int_Tables_number   1
_chemical_formula_structural   Y16C7(I7O)2
_chemical_formula_sum   'Y16 C7 I14 O2'
_cell_volume   1127.19531954
_cell_formula_units_Z   1
loop_
 _symmetry_equiv_pos_site_id
 _symmetry_equiv_pos_as_xyz
  1  'x, y, z'
loop_
 _atom_site_type_symbol
 _atom_site_label
 _atom_site_symmetry_multiplicity
 _atom_site_fract_x
 _atom_site_fract_y
 _atom_site_fract_z
 _atom_site_occupancy
  Y  Y0  1  0.98671000  0.98671000  0.14182700  1
  Y  Y1  1  0.01329000  0.01329000  0.85817300  1
  Y  Y2  1  0.54619300  0.54619300  0.06229300  1
  Y  Y3  1  0.45380700  0.45380700  0.93770700  1
  Y  Y4  1  0.89026300  0.89026300  0.02177800  1
  Y  Y5  1  0.10973700  0.10973700  0.97822200  1
  Y  Y6  1  0.23447700  0.23447700  0.10622700  1
  Y  Y7  1  0.76552300  0.76552300  0.89377300  1
  Y  Y8  1  0.67453100  0.67453100  0.04565300  1
  Y  Y9  1  0.32546900  0.32546900  0.95434700  1
  Y  Y10  1  0.79499000  0.79499000  0.16862600  1
  Y  Y11  1  0.20501000  0.20501000  0.83137400  1
  Y  Y12  1  0.42778500  0.42778500  0.21216600  1
  Y  Y13  1  0.57221500  0.57221500  0.78783400  1
  Y  Y14  1  0.35429200  0.35429200  0.22072600  1
  Y  Y15  1  0.64570800  0.64570800  0.77927400  1
  C  C0  1  0.84107600  0.84107600  0.09416300  1
  C  C1  1  0.15892400  0.15892400  0.90583700  1
  C  C2  1  0.50000000  0.50000000  0.00000000  1
  C  C3  1  0.94025200  0.94025200  0.08150900  1
  C  C4  1  0.05974800  0.05974800  0.91849100  1
  C  C5  1  0.28091400  0.28091400  0.03118800  1
  C  C6  1  0.71908600  0.71908600  0.96881200  1
  I  I0  1  0.60993800  0.60993800  0.19528600  1
  I  I1  1  0.39006200  0.39006200  0.80471400  1
  I  I2  1  0.68986400  0.68986400  0.60527500  1
  I  I3  1  0.31013600  0.31013600  0.39472500  1
  I  I4  1  0.89167200  0.89167200  0.39023300  1
  I  I5  1  0.10832800  0.10832800  0.60976700  1
  I  I6  1  0.95924700  0.95924700  0.72121300  1
  I  I7  1  0.04075300  0.04075300  0.27878700  1
  I  I8  1  0.47479000  0.47479000  0.36766700  1
  I  I9  1  0.52521000  0.52521000  0.63233300  1
  I  I10  1  0.74543000  0.74543000  0.32200900  1
  I  I11  1  0.25457000  0.25457000  0.67799100  1
  I  I12  1  0.81922000  0.81922000  0.74162000  1
  I  I13  1  0.18078000  0.18078000  0.25838000  1
  O  O0  1  0.39072200  0.39072200  0.12144600  1
  O  O1  1  0.60927800  0.60927800  0.87855400  1
loop_
_geom_bond_atom_site_label_1
_geom_bond_atom_site_label_2
_geom_bond_distance
_geom_bond_site_symmetry_2
C0 Y14 2.493683 1_565
C0 Y14 2.493683 1_655
C0 Y10 2.544620 1_555
C0 Y9 2.617187 1_654
C0 Y9 2.617187 1_564
C0 Y4 2.691643 1_555
C1 Y15 2.493683 1_545
C1 Y15 2.493683 1_455
C1 Y11 2.544620 1_555
C1 Y8 2.617187 1_456
C1 Y8 2.617187 1_546
C1 Y5 2.691643 1_555
C2 Y2 2.519249 1_555
C2 Y3 2.519249 1_554
C2 Y0 2.589155 1_455
C2 Y0 2.589155 1_545
C2 Y1 2.589155 1_564
C2 Y1 2.589155 1_654
C3 Y12 2.503954 1_565
C3 Y12 2.503954 1_655
C3 Y0 2.526489 1_555
C3 Y3 2.606287 1_564
C3 Y3 2.606287 1_654
C3 Y4 2.703363 1_555
C4 Y13 2.503954 1_545
C4 Y13 2.503954 1_455
C4 Y1 2.526489 1_555
C4 Y2 2.606287 1_546
C4 Y2 2.606287 1_456
C4 Y5 2.703363 1_555
C5 Y9 2.477892 1_554
C5 Y6 2.564032 1_555
C5 Y10 2.577087 1_545
C5 Y10 2.577087 1_455
C5 Y7 2.597717 1_544
C5 Y7 2.597717 1_454
C6 Y8 2.477892 1_556
C6 Y7 2.564032 1_555
C6 Y11 2.577087 1_565
C6 Y11 2.577087 1_655
C6 Y6 2.597717 1_566
C6 Y6 2.597717 1_656
I0 Y5 3.096654 1_654
I0 Y5 3.096654 1_564
I0 Y2 3.659118 1_555
I0 Y8 3.758182 1_555
I1 Y4 3.096654 1_456
I1 Y4 3.096654 1_546
I1 Y3 3.659118 1_555
I1 Y9 3.758182 1_555
I2 Y15 3.005843 1_555
I2 Y11 3.277472 1_565
I2 Y11 3.277472 1_655
I3 Y14 3.005843 1_555
I3 Y10 3.277472 1_545
I3 Y10 3.277472 1_455
I4 Y14 3.343980 1_655
I4 Y14 3.343980 1_565
I4 Y12 3.345626 1_565
I4 Y12 3.345626 1_655
I5 Y15 3.343980 1_545
I5 Y15 3.343980 1_455
I5 Y13 3.345626 1_545
I5 Y13 3.345626 1_455
I6 Y3 3.103155 1_655
I6 Y3 3.103155 1_565
I6 Y1 3.222575 1_665
I7 Y2 3.103155 1_545
I7 Y2 3.103155 1_455
I7 Y0 3.222575 1_445
I8 Y12 3.018405 1_555
I8 Y0 3.230888 1_545
I8 Y0 3.230888 1_455
I9 Y13 3.018405 1_555
I9 Y1 3.230888 1_655
I9 Y1 3.230888 1_565
I10 Y10 3.095800 1_555
I10 Y6 3.141254 1_655
I10 Y6 3.141254 1_565
I11 Y11 3.095800 1_555
I11 Y7 3.141254 1_455
I11 Y7 3.141254 1_545
I12 Y9 3.078149 1_565
I12 Y9 3.078149 1_655
I12 Y7 3.271408 1_555
I13 Y8 3.078149 1_455
I13 Y8 3.078149 1_545
I13 Y6 3.271408 1_555
O0 Y12 2.193135 1_555
O0 Y14 2.197237 1_555
O0 Y4 2.229813 1_545
O0 Y4 2.229813 1_455
O1 Y13 2.193135 1_555
O1 Y15 2.197237 1_555
O1 Y5 2.229813 1_565
O1 Y5 2.229813 1_655
