# generated using pymatgen
data_LiGaHg2
_symmetry_space_group_name_H-M   'P 1'
_cell_length_a   11.04865209
_cell_length_b   11.04865209
_cell_length_c   11.04865209
_cell_angle_alpha   119.81669461
_cell_angle_beta   119.80651729
_cell_angle_gamma   90.32661920
_symmetry_Int_Tables_number   1
_chemical_formula_structural   LiGaHg2
_chemical_formula_sum   'Li1 Ga1 Hg2'
_cell_volume   956.40134738
_cell_formula_units_Z   1
loop_
 _symmetry_equiv_pos_site_id
 _symmetry_equiv_pos_as_xyz
  1  'x, y, z'
loop_
 _atom_site_type_symbol
 _atom_site_label
 _atom_site_symmetry_multiplicity
 _atom_site_fract_x
 _atom_site_fract_y
 _atom_site_fract_z
 _atom_site_occupancy
  Li  Li0  1  0.00000000  0.00000000  0.00000000  1
  Ga  Ga0  1  0.50000000  0.00000000  0.50000000  1
  Hg  Hg0  1  0.75654200  0.00000000  0.75654200  1
  Hg  Hg1  1  0.24345800  0.00000000  0.24345800  1
loop_
_geom_bond_atom_site_label_1
_geom_bond_atom_site_label_2
_geom_bond_distance
_geom_bond_site_symmetry_2
Ga0 Hg0 2.842729 1_555
Ga0 Hg1 2.842729 1_555
Hg0 Li0 2.697745 1_656
Hg1 Li0 2.697745 1_555
