# generated using pymatgen
data_Li4VCo3(PO4)4
_symmetry_space_group_name_H-M   'P 1'
_cell_length_a   6.00988200
_cell_length_b   4.75189700
_cell_length_c   10.33610827
_cell_angle_alpha   89.90479439
_cell_angle_beta   90.00000000
_cell_angle_gamma   90.00000000
_symmetry_Int_Tables_number   1
_chemical_formula_structural   Li4VCo3(PO4)4
_chemical_formula_sum   'Li4 V1 Co3 P4 O16'
_cell_volume   295.18168927
_cell_formula_units_Z   1
loop_
 _symmetry_equiv_pos_site_id
 _symmetry_equiv_pos_as_xyz
  1  'x, y, z'
loop_
 _atom_site_type_symbol
 _atom_site_label
 _atom_site_symmetry_multiplicity
 _atom_site_fract_x
 _atom_site_fract_y
 _atom_site_fract_z
 _atom_site_occupancy
  Li  Li0  1  0.24847000  0.00058700  0.00156000  1
  Li  Li1  1  0.75153000  0.00058700  0.00156000  1
  Li  Li2  1  0.74950600  0.50051300  0.49941800  1
  Li  Li3  1  0.25049400  0.50051300  0.49941800  1
  V  V0  1  0.50000000  0.98021000  0.72400600  1
  Co  Co0  1  0.00000000  0.02431200  0.28054300  1
  Co  Co1  1  0.00000000  0.47665400  0.77905600  1
  Co  Co2  1  0.50000000  0.52475800  0.21981200  1
  P  P0  1  0.50000000  0.08681700  0.40479500  1
  P  P1  1  0.50000000  0.41475100  0.90776400  1
  P  P2  1  0.00000000  0.58601900  0.09447900  1
  P  P3  1  0.00000000  0.90965900  0.59236600  1
  O  O0  1  0.50000000  0.21025600  0.54422800  1
  O  O1  1  0.29465200  0.22525800  0.33392200  1
  O  O2  1  0.70534800  0.22525800  0.33392200  1
  O  O3  1  0.00000000  0.23341700  0.59791300  1
  O  O4  1  0.00000000  0.26316500  0.09808300  1
  O  O5  1  0.29358900  0.27893900  0.83649600  1
  O  O6  1  0.70641100  0.27893900  0.83649600  1
  O  O7  1  0.50000000  0.29152100  0.04695300  1
  O  O8  1  0.00000000  0.70759800  0.95380400  1
  O  O9  1  0.79486600  0.72465900  0.16497400  1
  O  O10  1  0.20513400  0.72465900  0.16497400  1
  O  O11  1  0.50000000  0.73769300  0.90505000  1
  O  O12  1  0.50000000  0.76394300  0.40147900  1
  O  O13  1  0.79666600  0.76823300  0.66254300  1
  O  O14  1  0.20333400  0.76823300  0.66254300  1
  O  O15  1  0.00000000  0.79284600  0.45184500  1
loop_
_geom_bond_atom_site_label_1
_geom_bond_atom_site_label_2
_geom_bond_distance
_geom_bond_site_symmetry_2
Li0 O8 2.100994 1_544
Li0 O7 2.102070 1_555
Li0 O10 2.152349 1_545
Li0 O5 2.174030 1_554
Li0 O4 2.187744 1_555
Li0 O11 2.201129 1_544
Li1 O8 2.100994 1_644
Li1 O7 2.102070 1_555
Li1 O9 2.152349 1_545
Li1 O6 2.174030 1_554
Li1 O4 2.187744 1_655
Li1 O11 2.201129 1_544
Li2 O0 2.088849 1_555
Li2 O15 2.106078 1_655
Li2 O13 2.132781 1_555
Li2 O2 2.171355 1_555
Li2 O12 2.199101 1_555
Li2 O3 2.215714 1_655
Li3 O0 2.088849 1_555
Li3 O15 2.106078 1_555
Li3 O14 2.132781 1_555
Li3 O1 2.171355 1_555
Li3 O12 2.199101 1_555
Li3 O3 2.215714 1_555
Co0 O15 2.082864 1_545
Co0 O1 2.086567 1_555
Co0 O2 2.086567 1_455
Co0 O4 2.199509 1_555
Co0 O10 2.231588 1_545
Co0 O9 2.231588 1_445
Co1 O6 2.084842 1_455
Co1 O5 2.084842 1_555
Co1 O8 2.115025 1_555
Co1 O3 2.201979 1_555
Co1 O13 2.204052 1_455
Co1 O14 2.204052 1_555
Co2 O9 2.088585 1_555
Co2 O10 2.088585 1_555
Co2 O7 2.104093 1_555
Co2 O12 2.196539 1_555
Co2 O2 2.221273 1_555
Co2 O1 2.221273 1_555
O0 P0 1.556893 1_555
O0 V0 2.154336 1_545
O1 P0 1.578243 1_555
O2 P0 1.578243 1_555
O3 P3 1.539628 1_545
O4 P2 1.534559 1_555
O5 P1 1.580999 1_555
O5 V0 2.216144 1_545
O6 P1 1.580999 1_555
O6 V0 2.216144 1_545
O7 P1 1.552378 1_554
O8 P2 1.563710 1_556
O9 P2 1.576836 1_655
O10 P2 1.576836 1_555
O11 P1 1.534797 1_555
O11 V0 2.196047 1_555
O12 P0 1.534704 1_565
O13 P3 1.571458 1_655
O13 V0 2.144572 1_555
O14 P3 1.571458 1_555
O14 V0 2.144572 1_555
O15 P3 1.555757 1_555
