# generated using pymatgen
data_RbMg(BrO2)3
_symmetry_space_group_name_H-M   'P 1'
_cell_length_a   6.76048812
_cell_length_b   6.76048812
_cell_length_c   13.53987908
_cell_angle_alpha   87.49794186
_cell_angle_beta   87.49794186
_cell_angle_gamma   111.96867406
_symmetry_Int_Tables_number   1
_chemical_formula_structural   RbMg(BrO2)3
_chemical_formula_sum   'Rb2 Mg2 Br6 O12'
_cell_volume   572.14512555
_cell_formula_units_Z   2
loop_
 _symmetry_equiv_pos_site_id
 _symmetry_equiv_pos_as_xyz
  1  'x, y, z'
loop_
 _atom_site_type_symbol
 _atom_site_label
 _atom_site_symmetry_multiplicity
 _atom_site_fract_x
 _atom_site_fract_y
 _atom_site_fract_z
 _atom_site_occupancy
  Rb  Rb0  1  0.68526300  0.31473700  0.75000000  1
  Rb  Rb1  1  0.31473700  0.68526300  0.25000000  1
  Mg  Mg0  1  0.00000000  0.50000000  0.00000000  1
  Mg  Mg1  1  0.50000000  0.00000000  0.50000000  1
  Br  Br0  1  0.50000000  0.00000000  0.00000000  1
  Br  Br1  1  0.00000000  0.50000000  0.50000000  1
  Br  Br2  1  0.17716300  0.31602700  0.79240900  1
  Br  Br3  1  0.68397300  0.82283700  0.70759100  1
  Br  Br4  1  0.82283700  0.68397300  0.20759100  1
  Br  Br5  1  0.31602700  0.17716300  0.29240900  1
  O  O0  1  0.94439100  0.91988200  0.97938900  1
  O  O1  1  0.08011800  0.05560900  0.52061100  1
  O  O2  1  0.05560900  0.08011800  0.02061100  1
  O  O3  1  0.91988200  0.94439100  0.47938900  1
  O  O4  1  0.29269600  0.72052900  0.01148000  1
  O  O5  1  0.27947100  0.70730400  0.48852000  1
  O  O6  1  0.70730400  0.27947100  0.98852000  1
  O  O7  1  0.72052900  0.29269600  0.51148000  1
  O  O8  1  0.94355600  0.52114200  0.14627500  1
  O  O9  1  0.47885800  0.05644400  0.35372500  1
  O  O10  1  0.05644400  0.47885800  0.85372500  1
  O  O11  1  0.52114200  0.94355600  0.64627500  1
loop_
_geom_bond_atom_site_label_1
_geom_bond_atom_site_label_2
_geom_bond_distance
_geom_bond_site_symmetry_2
Mg0 O4 2.000558 1_555
Mg0 O6 2.000558 1_454
Mg0 O10 2.021915 1_554
Mg0 O8 2.021915 1_455
Mg1 O7 2.000558 1_555
Mg1 O5 2.000558 1_545
Mg1 O11 2.021915 1_545
Mg1 O9 2.021915 1_555
Br0 O6 1.879406 1_554
Br0 O4 1.879406 1_545
Br1 O5 1.879406 1_555
Br1 O7 1.879406 1_455
Br2 O10 1.805524 1_555
Br2 Rb0 3.461168 1_555
Br3 O11 1.805524 1_555
Br3 Rb0 3.461168 1_555
Br4 O8 1.805524 1_555
Br4 Rb1 3.461168 1_555
Br5 O9 1.805524 1_555
Br5 Rb1 3.461168 1_555
O0 O2 1.237077 1_666
O1 O3 1.237077 1_445
O4 Rb1 3.241958 1_555
O5 Rb1 3.241958 1_555
O6 Rb0 3.241958 1_555
O7 Rb0 3.241958 1_555
O8 Rb1 2.803745 1_655
O9 Rb1 2.803745 1_545
O10 Rb0 2.803745 1_455
O11 Rb0 2.803745 1_565
