# generated using pymatgen
data_Tb20In40Rh19
_symmetry_space_group_name_H-M   'P 1'
_cell_length_a   13.61223400
_cell_length_b   13.61223400
_cell_length_c   9.43492300
_cell_angle_alpha   90.00000000
_cell_angle_beta   90.00000000
_cell_angle_gamma   90.00000000
_symmetry_Int_Tables_number   1
_chemical_formula_structural   Tb20In40Rh19
_chemical_formula_sum   'Tb20 In40 Rh19'
_cell_volume   1748.22438048
_cell_formula_units_Z   1
loop_
 _symmetry_equiv_pos_site_id
 _symmetry_equiv_pos_as_xyz
  1  'x, y, z'
loop_
 _atom_site_type_symbol
 _atom_site_label
 _atom_site_symmetry_multiplicity
 _atom_site_fract_x
 _atom_site_fract_y
 _atom_site_fract_z
 _atom_site_occupancy
  Tb  Tb0  1  0.70412400  0.79864600  0.26464500  1
  Tb  Tb1  1  0.29587600  0.79864600  0.26464500  1
  Tb  Tb2  1  0.70412400  0.20135400  0.26464500  1
  Tb  Tb3  1  0.29587600  0.20135400  0.26464500  1
  Tb  Tb4  1  0.79864600  0.70412400  0.73535500  1
  Tb  Tb5  1  0.20135400  0.70412400  0.73535500  1
  Tb  Tb6  1  0.79864600  0.29587600  0.73535500  1
  Tb  Tb7  1  0.20135400  0.29587600  0.73535500  1
  Tb  Tb8  1  0.50000000  0.00000000  0.35725400  1
  Tb  Tb9  1  0.00000000  0.50000000  0.64274600  1
  Tb  Tb10  1  0.77517600  0.00000000  0.76967200  1
  Tb  Tb11  1  0.22482400  0.00000000  0.76967200  1
  Tb  Tb12  1  0.50000000  0.72201500  0.76617800  1
  Tb  Tb13  1  0.50000000  0.27798500  0.76617800  1
  Tb  Tb14  1  0.72201500  0.50000000  0.23382200  1
  Tb  Tb15  1  0.27798500  0.50000000  0.23382200  1
  Tb  Tb16  1  0.00000000  0.77517600  0.23032800  1
  Tb  Tb17  1  0.00000000  0.22482400  0.23032800  1
  Tb  Tb18  1  0.50000000  0.00000000  0.85141600  1
  Tb  Tb19  1  0.00000000  0.50000000  0.14858400  1
  In  In0  1  0.11372800  0.00000000  0.23715800  1
  In  In1  1  0.88627200  0.00000000  0.23715800  1
  In  In2  1  0.50000000  0.38544100  0.23905400  1
  In  In3  1  0.50000000  0.61455900  0.23905400  1
  In  In4  1  0.38544100  0.50000000  0.76094600  1
  In  In5  1  0.61455900  0.50000000  0.76094600  1
  In  In6  1  0.00000000  0.11372800  0.76284200  1
  In  In7  1  0.00000000  0.88627200  0.76284200  1
  In  In8  1  0.63985100  0.63985100  0.50000000  1
  In  In9  1  0.36014900  0.63985100  0.50000000  1
  In  In10  1  0.63985100  0.36014900  0.50000000  1
  In  In11  1  0.36014900  0.36014900  0.50000000  1
  In  In12  1  0.86906600  0.86906600  0.50000000  1
  In  In13  1  0.13093400  0.86906600  0.50000000  1
  In  In14  1  0.86906600  0.13093400  0.50000000  1
  In  In15  1  0.13093400  0.13093400  0.50000000  1
  In  In16  1  0.62936900  0.87062500  0.59480100  1
  In  In17  1  0.37063100  0.87062500  0.59480100  1
  In  In18  1  0.62936900  0.12937500  0.59480100  1
  In  In19  1  0.37063100  0.12937500  0.59480100  1
  In  In20  1  0.87062500  0.62936900  0.40519900  1
  In  In21  1  0.12937500  0.62936900  0.40519900  1
  In  In22  1  0.87062500  0.37063100  0.40519900  1
  In  In23  1  0.12937500  0.37063100  0.40519900  1
  In  In24  1  0.15113800  0.15113800  0.00000000  1
  In  In25  1  0.84886200  0.15113800  0.00000000  1
  In  In26  1  0.15113800  0.84886200  0.00000000  1
  In  In27  1  0.84886200  0.84886200  0.00000000  1
  In  In28  1  0.34920400  0.34920400  0.00000000  1
  In  In29  1  0.65079600  0.34920400  0.00000000  1
  In  In30  1  0.34920400  0.65079600  0.00000000  1
  In  In31  1  0.65079600  0.65079600  0.00000000  1
  In  In32  1  0.33057700  0.00000000  0.09918800  1
  In  In33  1  0.66942300  0.00000000  0.09918800  1
  In  In34  1  0.50000000  0.16981600  0.09922500  1
  In  In35  1  0.50000000  0.83018400  0.09922500  1
  In  In36  1  0.16981600  0.50000000  0.90077500  1
  In  In37  1  0.83018400  0.50000000  0.90077500  1
  In  In38  1  0.00000000  0.33057700  0.90081200  1
  In  In39  1  0.00000000  0.66942300  0.90081200  1
  Rh  Rh0  1  0.27591900  0.00000000  0.40814000  1
  Rh  Rh1  1  0.72408100  0.00000000  0.40814000  1
  Rh  Rh2  1  0.50000000  0.22168500  0.40742300  1
  Rh  Rh3  1  0.50000000  0.77831500  0.40742300  1
  Rh  Rh4  1  0.22168500  0.50000000  0.59257700  1
  Rh  Rh5  1  0.77831500  0.50000000  0.59257700  1
  Rh  Rh6  1  0.00000000  0.27591900  0.59186000  1
  Rh  Rh7  1  0.00000000  0.72408100  0.59186000  1
  Rh  Rh8  1  0.84518400  0.65401300  0.10423300  1
  Rh  Rh9  1  0.15481600  0.65401300  0.10423300  1
  Rh  Rh10  1  0.84518400  0.34598700  0.10423300  1
  Rh  Rh11  1  0.15481600  0.34598700  0.10423300  1
  Rh  Rh12  1  0.65401300  0.84518400  0.89576700  1
  Rh  Rh13  1  0.34598700  0.84518400  0.89576700  1
  Rh  Rh14  1  0.65401300  0.15481600  0.89576700  1
  Rh  Rh15  1  0.34598700  0.15481600  0.89576700  1
  Rh  Rh16  1  0.00000000  0.00000000  0.00000000  1
  Rh  Rh17  1  0.50000000  0.50000000  0.00000000  1
  Rh  Rh18  1  0.50000000  0.50000000  0.50000000  1
loop_
_geom_bond_atom_site_label_1
_geom_bond_atom_site_label_2
_geom_bond_distance
_geom_bond_site_symmetry_2
In0 Rh16 2.720900 1_555
In0 Rh0 2.734359 1_555
In0 In32 3.226087 1_555
In0 Tb3 3.705037 1_555
In0 Tb1 3.705037 1_545
In1 Rh16 2.720900 1_655
In1 Rh1 2.734359 1_555
In1 In33 3.226087 1_555
In1 Tb2 3.705037 1_555
In1 Tb0 3.705037 1_545
In2 Rh2 2.737208 1_555
In2 Rh17 2.742047 1_555
In2 Rh18 2.914311 1_555
In2 In34 3.218000 1_555
In2 Tb2 3.749405 1_555
In2 Tb3 3.749405 1_555
In3 Rh3 2.737208 1_555
In3 Rh17 2.742047 1_555
In3 Rh18 2.914311 1_555
In3 In35 3.218000 1_555
In3 Tb0 3.749405 1_555
In3 Tb1 3.749405 1_555
In4 Rh4 2.737208 1_555
In4 Rh17 2.742047 1_556
In4 Rh18 2.914311 1_555
In4 Tb5 3.749405 1_555
In4 Tb7 3.749405 1_555
In5 Rh5 2.737208 1_555
In5 Rh17 2.742047 1_556
In5 Rh18 2.914311 1_555
In5 Tb4 3.749405 1_555
In5 Tb6 3.749405 1_555
In6 Rh16 2.720900 1_556
In6 Rh6 2.734359 1_555
In6 Tb7 3.705037 1_555
In6 Tb6 3.705037 1_455
In7 Rh16 2.720900 1_566
In7 Rh7 2.734359 1_555
In7 Tb5 3.705037 1_555
In7 Tb4 3.705037 1_455
In8 Rh18 2.692216 1_555
In8 Rh5 2.817699 1_555
In8 Rh3 2.817699 1_555
In8 Tb4 3.220037 1_555
In8 Tb0 3.220037 1_555
In8 Tb12 3.343933 1_555
In8 Tb14 3.343933 1_555
In9 Rh18 2.692216 1_555
In9 Rh4 2.817699 1_555
In9 Rh3 2.817699 1_555
In9 Tb1 3.220037 1_555
In9 Tb5 3.220037 1_555
In9 Tb12 3.343933 1_555
In9 Tb15 3.343933 1_555
In10 Rh18 2.692216 1_555
In10 Rh2 2.817699 1_555
In10 Rh5 2.817699 1_555
In10 Tb6 3.220037 1_555
In10 Tb2 3.220037 1_555
In10 Tb13 3.343933 1_555
In10 Tb14 3.343933 1_555
In11 Rh18 2.692216 1_555
In11 Rh2 2.817699 1_555
In11 Rh4 2.817699 1_555
In11 Tb7 3.220037 1_555
In11 Tb3 3.220037 1_555
In11 Tb13 3.343933 1_555
In11 Tb15 3.343933 1_555
In12 Rh1 2.796916 1_565
In12 Rh7 2.796916 1_655
In12 Tb4 3.300119 1_555
In12 Tb0 3.300119 1_555
In12 Tb10 3.359117 1_565
In12 Tb16 3.359117 1_655
In13 Rh0 2.796916 1_565
In13 Rh7 2.796916 1_555
In13 Tb5 3.300119 1_555
In13 Tb1 3.300119 1_555
In13 Tb11 3.359117 1_565
In13 Tb16 3.359117 1_555
In14 Rh6 2.796916 1_655
In14 Rh1 2.796916 1_555
In14 Tb6 3.300119 1_555
In14 Tb2 3.300119 1_555
In14 Tb10 3.359117 1_555
In14 Tb17 3.359117 1_655
In15 Rh0 2.796916 1_555
In15 Rh6 2.796916 1_555
In15 Tb7 3.300119 1_555
In15 Tb3 3.300119 1_555
In15 Tb11 3.359117 1_555
In15 Tb17 3.359117 1_555
In16 Rh3 2.793831 1_555
In16 Rh1 2.804486 1_565
In16 Rh12 2.880233 1_555
In16 Tb10 3.124553 1_565
In16 Tb12 3.131735 1_555
In16 Tb8 3.350475 1_565
In16 Tb0 3.420333 1_555
In16 Tb18 3.473395 1_565
In16 Tb4 3.493551 1_555
In17 Rh3 2.793831 1_555
In17 Rh0 2.804486 1_565
In17 Rh13 2.880233 1_555
In17 Tb11 3.124553 1_565
In17 Tb12 3.131735 1_555
In17 Tb8 3.350475 1_565
In17 Tb1 3.420333 1_555
In17 Tb18 3.473395 1_565
In17 Tb5 3.493551 1_555
In18 Rh2 2.793831 1_555
In18 Rh1 2.804486 1_555
In18 Rh14 2.880233 1_555
In18 Tb10 3.124553 1_555
In18 Tb13 3.131735 1_555
In18 Tb8 3.350475 1_555
In18 Tb2 3.420333 1_555
In18 Tb18 3.473395 1_555
In18 Tb6 3.493551 1_555
In19 Rh2 2.793831 1_555
In19 Rh0 2.804486 1_555
In19 Rh15 2.880233 1_555
In19 Tb11 3.124553 1_555
In19 Tb13 3.131735 1_555
In19 Tb8 3.350475 1_555
In19 Tb3 3.420333 1_555
In19 Tb18 3.473395 1_555
In19 Tb7 3.493551 1_555
In20 Rh5 2.793831 1_555
In20 Rh7 2.804486 1_655
In20 Rh8 2.880233 1_555
In20 Tb16 3.124553 1_655
In20 Tb14 3.131735 1_555
In20 Tb9 3.350475 1_655
In20 Tb4 3.420333 1_555
In20 Tb19 3.473395 1_655
In20 Tb0 3.493551 1_555
In21 Rh4 2.793831 1_555
In21 Rh7 2.804486 1_555
In21 Rh9 2.880233 1_555
In21 Tb16 3.124553 1_555
In21 Tb15 3.131735 1_555
In21 Tb9 3.350475 1_555
In21 Tb5 3.420333 1_555
In21 Tb19 3.473395 1_555
In21 Tb1 3.493551 1_555
In22 Rh5 2.793831 1_555
In22 Rh6 2.804486 1_655
In22 Rh10 2.880233 1_555
In22 Tb17 3.124553 1_655
In22 Tb14 3.131735 1_555
In22 Tb9 3.350475 1_655
In22 Tb6 3.420333 1_555
In22 Tb19 3.473395 1_655
In22 Tb2 3.493551 1_555
In23 Rh4 2.793831 1_555
In23 Rh6 2.804486 1_555
In23 Rh11 2.880233 1_555
In23 Tb17 3.124553 1_555
In23 Tb15 3.131735 1_555
In23 Tb9 3.350475 1_555
In23 Tb7 3.420333 1_555
In23 Tb19 3.473395 1_555
In23 Tb3 3.493551 1_555
In24 Rh11 2.829222 1_555
In24 Rh15 2.829222 1_554
In24 Rh16 2.909498 1_555
In24 Tb17 3.156128 1_555
In24 Tb11 3.156128 1_554
In24 Tb3 3.253229 1_555
In24 Tb7 3.253229 1_554
In24 In32 3.327837 1_555
In24 In38 3.327837 1_554
In25 Rh10 2.829222 1_555
In25 Rh14 2.829222 1_554
In25 Rh16 2.909498 1_655
In25 Tb17 3.156128 1_655
In25 Tb10 3.156128 1_554
In25 Tb2 3.253229 1_555
In25 Tb6 3.253229 1_554
In25 In33 3.327837 1_555
In25 In38 3.327837 1_654
In26 Rh9 2.829222 1_555
In26 Rh13 2.829222 1_554
In26 Rh16 2.909498 1_565
In26 Tb16 3.156128 1_555
In26 Tb11 3.156128 1_564
In26 Tb1 3.253229 1_555
In26 Tb5 3.253229 1_554
In26 In32 3.327837 1_565
In26 In39 3.327837 1_554
In27 Rh8 2.829222 1_555
In27 Rh12 2.829222 1_554
In27 Rh16 2.909498 1_665
In27 Tb16 3.156128 1_655
In27 Tb10 3.156128 1_564
In27 Tb0 3.253229 1_555
In27 Tb4 3.253229 1_554
In27 In33 3.327837 1_565
In27 In39 3.327837 1_654
In28 Rh11 2.823236 1_555
In28 Rh15 2.823236 1_554
In28 Rh17 2.902914 1_555
In28 Tb15 3.165459 1_555
In28 Tb13 3.165459 1_554
In28 Tb3 3.288148 1_555
In28 Tb7 3.288148 1_554
In28 In34 3.324549 1_555
In28 In36 3.324549 1_554
In29 Rh10 2.823236 1_555
In29 Rh14 2.823236 1_554
In29 Rh17 2.902914 1_555
In29 Tb13 3.165459 1_554
In29 Tb14 3.165459 1_555
In29 Tb2 3.288148 1_555
In29 Tb6 3.288148 1_554
In29 In34 3.324549 1_555
In29 In37 3.324549 1_554
In30 Rh9 2.823236 1_555
In30 Rh13 2.823236 1_554
In30 Rh17 2.902914 1_555
In30 Tb15 3.165459 1_555
In30 Tb12 3.165459 1_554
In30 Tb1 3.288148 1_555
In30 Tb5 3.288148 1_554
In30 In36 3.324549 1_554
In30 In35 3.324549 1_555
In31 Rh8 2.823236 1_555
In31 Rh12 2.823236 1_554
In31 Rh17 2.902914 1_555
In31 Tb14 3.165459 1_555
In31 Tb12 3.165459 1_554
In31 Tb0 3.288148 1_555
In31 Tb4 3.288148 1_554
In31 In35 3.324549 1_555
In31 In37 3.324549 1_554
In32 Rh15 2.858088 1_554
In32 Rh13 2.858088 1_544
In32 Rh0 3.008393 1_555
In32 Tb3 3.189433 1_555
In32 Tb1 3.189433 1_545
In32 In34 3.265280 1_555
In32 In35 3.265280 1_545
In32 Tb18 3.283834 1_554
In32 Tb8 3.353668 1_555
In32 Tb11 3.426059 1_554
In33 Rh14 2.858088 1_554
In33 Rh12 2.858088 1_544
In33 Rh1 3.008393 1_555
In33 Tb2 3.189433 1_555
In33 Tb0 3.189433 1_545
In33 In34 3.265280 1_555
In33 In35 3.265280 1_545
In33 Tb18 3.283834 1_554
In33 Tb8 3.353668 1_555
In33 Tb10 3.426059 1_554
In34 Rh14 2.849867 1_554
In34 Rh15 2.849867 1_554
In34 Rh2 2.992316 1_555
In34 Tb2 3.215694 1_555
In34 Tb3 3.215694 1_555
In34 Tb18 3.287841 1_554
In34 Tb8 3.357096 1_555
In34 Tb13 3.470145 1_554
In35 Rh12 2.849867 1_554
In35 Rh13 2.849867 1_554
In35 Rh3 2.992316 1_555
In35 Tb0 3.215694 1_555
In35 Tb1 3.215694 1_555
In35 Tb18 3.287841 1_564
In35 Tb8 3.357096 1_565
In35 Tb12 3.470145 1_554
In36 Rh9 2.849867 1_556
In36 Rh11 2.849867 1_556
In36 Rh4 2.992316 1_555
In36 Tb5 3.215694 1_555
In36 Tb7 3.215694 1_555
In36 In4 3.218000 1_555
In36 In38 3.265280 1_555
In36 In39 3.265280 1_555
In36 Tb19 3.287841 1_556
In36 Tb9 3.357096 1_555
In36 Tb15 3.470145 1_556
In37 Rh8 2.849867 1_556
In37 Rh10 2.849867 1_556
In37 Rh5 2.992316 1_555
In37 Tb4 3.215694 1_555
In37 Tb6 3.215694 1_555
In37 In5 3.218000 1_555
In37 In39 3.265280 1_655
In37 In38 3.265280 1_655
In37 Tb19 3.287841 1_656
In37 Tb9 3.357096 1_655
In37 Tb14 3.470145 1_556
In38 Rh11 2.858088 1_556
In38 Rh10 2.858088 1_456
In38 Rh6 3.008393 1_555
In38 Tb7 3.189433 1_555
In38 Tb6 3.189433 1_455
In38 In6 3.226087 1_555
In38 Tb19 3.283834 1_556
In38 Tb9 3.353668 1_555
In38 Tb17 3.426059 1_556
In39 Rh9 2.858088 1_556
In39 Rh8 2.858088 1_456
In39 Rh7 3.008393 1_555
In39 Tb5 3.189433 1_555
In39 Tb4 3.189433 1_455
In39 In7 3.226087 1_555
In39 Tb19 3.283834 1_556
In39 Tb9 3.353668 1_555
In39 Tb16 3.426059 1_556
Rh0 Tb3 3.069065 1_555
Rh0 Tb1 3.069065 1_545
Rh0 Tb8 3.087796 1_555
Rh0 Tb11 3.481213 1_555
Rh1 Tb2 3.069065 1_555
Rh1 Tb0 3.069065 1_545
Rh1 Tb8 3.087796 1_555
Rh1 Tb10 3.481213 1_555
Rh2 Tb8 3.054526 1_555
Rh2 Tb2 3.100289 1_555
Rh2 Tb3 3.100289 1_555
Rh2 Tb13 3.470500 1_555
Rh3 Tb8 3.054526 1_565
Rh3 Tb0 3.100289 1_555
Rh3 Tb1 3.100289 1_555
Rh3 Tb12 3.470500 1_555
Rh4 Tb9 3.054526 1_555
Rh4 Tb5 3.100289 1_555
Rh4 Tb7 3.100289 1_555
Rh4 Tb15 3.470500 1_555
Rh5 Tb9 3.054526 1_655
Rh5 Tb4 3.100289 1_555
Rh5 Tb6 3.100289 1_555
Rh5 Tb14 3.470500 1_555
Rh6 Tb7 3.069065 1_555
Rh6 Tb6 3.069065 1_455
Rh6 Tb9 3.087796 1_555
Rh6 Tb17 3.481213 1_555
Rh7 Tb5 3.069065 1_555
Rh7 Tb4 3.069065 1_455
Rh7 Tb9 3.087796 1_555
Rh7 Tb16 3.481213 1_555
Rh8 Tb16 2.928594 1_655
Rh8 Tb14 2.949755 1_555
Rh8 Tb19 3.001891 1_655
Rh8 Tb0 3.139051 1_555
Rh8 Tb4 3.602684 1_554
Rh9 Tb16 2.928594 1_555
Rh9 Tb15 2.949755 1_555
Rh9 Tb19 3.001891 1_555
Rh9 Tb1 3.139051 1_555
Rh9 Tb5 3.602684 1_554
Rh10 Tb17 2.928594 1_655
Rh10 Tb14 2.949755 1_555
Rh10 Tb19 3.001891 1_655
Rh10 Tb2 3.139051 1_555
Rh10 Tb6 3.602684 1_554
Rh11 Tb17 2.928594 1_555
Rh11 Tb15 2.949755 1_555
Rh11 Tb19 3.001891 1_555
Rh11 Tb3 3.139051 1_555
Rh11 Tb7 3.602684 1_554
Rh12 Tb10 2.928594 1_565
Rh12 Tb12 2.949755 1_555
Rh12 Tb18 3.001891 1_565
Rh12 Tb4 3.139051 1_555
Rh12 Tb0 3.602684 1_556
Rh13 Tb11 2.928594 1_565
Rh13 Tb12 2.949755 1_555
Rh13 Tb18 3.001891 1_565
Rh13 Tb5 3.139051 1_555
Rh13 Tb1 3.602684 1_556
Rh14 Tb10 2.928594 1_555
Rh14 Tb13 2.949755 1_555
Rh14 Tb18 3.001891 1_555
Rh14 Tb6 3.139051 1_555
Rh14 Tb2 3.602684 1_556
Rh15 Tb11 2.928594 1_555
Rh15 Tb13 2.949755 1_555
Rh15 Tb18 3.001891 1_555
Rh15 Tb7 3.139051 1_555
Rh15 Tb3 3.602684 1_556
