# generated using pymatgen
data_LaNb2CuClO7
_symmetry_space_group_name_H-M   'P 1'
_cell_length_a   3.94335100
_cell_length_b   3.95597800
_cell_length_c   11.82173300
_cell_angle_alpha   90.00000000
_cell_angle_beta   90.00000000
_cell_angle_gamma   90.00000000
_symmetry_Int_Tables_number   1
_chemical_formula_structural   LaNb2CuClO7
_chemical_formula_sum   'La1 Nb2 Cu1 Cl1 O7'
_cell_volume   184.41678633
_cell_formula_units_Z   1
loop_
 _symmetry_equiv_pos_site_id
 _symmetry_equiv_pos_as_xyz
  1  'x, y, z'
loop_
 _atom_site_type_symbol
 _atom_site_label
 _atom_site_symmetry_multiplicity
 _atom_site_fract_x
 _atom_site_fract_y
 _atom_site_fract_z
 _atom_site_occupancy
  La  La0  1  0.99937800  0.00000000  0.00000000  1
  Nb  Nb0  1  0.49595100  0.50000000  0.19019400  1
  Nb  Nb1  1  0.49595100  0.50000000  0.80980600  1
  Cu  Cu0  1  0.54693200  0.50000000  0.50000000  1
  Cl  Cl0  1  0.86323400  0.00000000  0.50000000  1
  O  O0  1  0.99836200  0.50000000  0.15326200  1
  O  O1  1  0.50024400  0.00000000  0.15315700  1
  O  O2  1  0.99836200  0.50000000  0.84673800  1
  O  O3  1  0.50024400  0.00000000  0.84684300  1
  O  O4  1  0.49848300  0.50000000  0.00000000  1
  O  O5  1  0.48342900  0.50000000  0.34370300  1
  O  O6  1  0.48342900  0.50000000  0.65629700  1
loop_
_geom_bond_atom_site_label_1
_geom_bond_atom_site_label_2
_geom_bond_distance
_geom_bond_site_symmetry_2
La0 O1 2.674370 1_555
La0 O3 2.674370 1_554
La0 O1 2.679400 1_655
La0 O3 2.679400 1_654
La0 O0 2.682379 1_545
La0 O2 2.682379 1_554
La0 O0 2.682379 1_555
La0 O2 2.682379 1_544
La0 O4 2.790348 1_655
La0 O4 2.790348 1_645
La0 O4 2.795331 1_545
La0 O4 2.795331 1_555
Nb0 O5 1.815414 1_555
Nb0 O0 2.010155 1_455
Nb0 O1 2.025940 1_555
Nb0 O1 2.025940 1_565
Nb0 O0 2.028720 1_555
Nb0 O4 2.248445 1_555
Nb1 O6 1.815414 1_555
Nb1 O2 2.010155 1_455
Nb1 O3 2.025940 1_555
Nb1 O3 2.025940 1_565
Nb1 O2 2.028720 1_555
Nb1 O4 2.248445 1_556
Cu0 O5 1.864593 1_555
Cu0 O6 1.864593 1_555
Cl0 Cu0 2.338412 1_555
Cl0 Cu0 2.338412 1_545
