# generated using pymatgen
data_ZnSnBiO5
_symmetry_space_group_name_H-M   'P 1'
_cell_length_a   11.15786400
_cell_length_b   5.33282100
_cell_length_c   8.81112013
_cell_angle_alpha   73.00569278
_cell_angle_beta   90.00000000
_cell_angle_gamma   90.00000000
_symmetry_Int_Tables_number   1
_chemical_formula_structural   ZnSnBiO5
_chemical_formula_sum   'Zn4 Sn4 Bi4 O20'
_cell_volume   501.39349847
_cell_formula_units_Z   4
loop_
 _symmetry_equiv_pos_site_id
 _symmetry_equiv_pos_as_xyz
  1  'x, y, z'
loop_
 _atom_site_type_symbol
 _atom_site_label
 _atom_site_symmetry_multiplicity
 _atom_site_fract_x
 _atom_site_fract_y
 _atom_site_fract_z
 _atom_site_occupancy
  Zn  Zn0  1  0.10617800  0.52446700  0.85584200  1
  Zn  Zn1  1  0.89382200  0.47553300  0.14415800  1
  Zn  Zn2  1  0.60617800  0.47553300  0.64415800  1
  Zn  Zn3  1  0.39382200  0.52446700  0.35584200  1
  Sn  Sn0  1  0.38781900  0.13321700  0.07024300  1
  Sn  Sn1  1  0.61218100  0.86678300  0.92975700  1
  Sn  Sn2  1  0.88781900  0.86678300  0.42975700  1
  Sn  Sn3  1  0.11218100  0.13321700  0.57024300  1
  Bi  Bi0  1  0.89252400  0.05699000  0.84695600  1
  Bi  Bi1  1  0.10747600  0.94301000  0.15304400  1
  Bi  Bi2  1  0.60747600  0.05699000  0.34695600  1
  Bi  Bi3  1  0.39252400  0.94301000  0.65304400  1
  O  O0  1  0.94674000  0.90811600  0.63973700  1
  O  O1  1  0.03523400  0.34836400  0.69849900  1
  O  O2  1  0.79774900  0.19000100  0.29519600  1
  O  O3  1  0.46713700  0.76903400  0.47191700  1
  O  O4  1  0.72088300  0.72162000  0.49454600  1
  O  O5  1  0.77911700  0.72162000  0.99454600  1
  O  O6  1  0.46476600  0.34836400  0.19849900  1
  O  O7  1  0.53523400  0.65163600  0.80150100  1
  O  O8  1  0.53286300  0.23096600  0.52808300  1
  O  O9  1  0.44674000  0.09188400  0.86026300  1
  O  O10  1  0.27911700  0.27838000  0.50545400  1
  O  O11  1  0.05326000  0.09188400  0.36026300  1
  O  O12  1  0.55326000  0.90811600  0.13973700  1
  O  O13  1  0.22088300  0.27838000  0.00545400  1
  O  O14  1  0.96713700  0.23096600  0.02808300  1
  O  O15  1  0.03286300  0.76903400  0.97191700  1
  O  O16  1  0.20225100  0.80999900  0.70480400  1
  O  O17  1  0.96476600  0.65163600  0.30150100  1
  O  O18  1  0.29774900  0.80999900  0.20480400  1
  O  O19  1  0.70225100  0.19000100  0.79519600  1
loop_
_geom_bond_atom_site_label_1
_geom_bond_atom_site_label_2
_geom_bond_distance
_geom_bond_site_symmetry_2
Bi0 O14 2.228544 1_556
Bi0 O19 2.242617 1_555
Bi0 O15 2.243671 1_645
Bi0 O5 2.265256 1_545
Bi0 O0 2.275359 1_545
Bi0 O1 2.339424 1_655
Bi1 O15 2.228544 1_554
Bi1 O18 2.242617 1_555
Bi1 O14 2.243671 1_465
Bi1 O13 2.265256 1_565
Bi1 O11 2.275359 1_565
Bi1 O17 2.339424 1_455
Bi2 O8 2.228544 1_555
Bi2 O2 2.242617 1_555
Bi2 O3 2.243671 1_545
Bi2 O4 2.265256 1_545
Bi2 O12 2.275359 1_545
Bi2 O6 2.339424 1_555
Bi3 O3 2.228544 1_555
Bi3 O16 2.242617 1_555
Bi3 O8 2.243671 1_565
Bi3 O10 2.265256 1_565
Bi3 O9 2.275359 1_565
Bi3 O7 2.339424 1_555
O0 Sn2 2.035259 1_555
O0 Sn3 2.189493 1_665
O1 Sn3 2.022010 1_555
O1 Zn0 2.047352 1_555
O2 Zn1 2.013510 1_555
O2 Sn2 2.047470 1_545
O3 Zn3 2.048406 1_555
O3 Zn2 2.402361 1_555
O4 Zn2 2.021581 1_555
O4 Sn2 2.033788 1_555
O5 Zn1 2.021581 1_556
O5 Sn1 2.033788 1_555
O6 Sn0 2.022010 1_555
O6 Zn3 2.047352 1_555
O7 Sn1 2.022010 1_555
O7 Zn2 2.047352 1_555
O8 Zn2 2.048406 1_555
O8 Zn3 2.402361 1_555
O9 Sn0 2.035259 1_556
O9 Sn1 2.189493 1_545
O10 Zn3 2.021581 1_555
O10 Sn3 2.033788 1_555
O11 Sn3 2.035259 1_555
O11 Sn2 2.189493 1_445
O12 Sn1 2.035259 1_554
O12 Sn0 2.189493 1_565
O13 Zn0 2.021581 1_554
O13 Sn0 2.033788 1_555
O14 Zn1 2.048406 1_555
O14 Zn0 2.402361 1_654
O15 Zn0 2.048406 1_555
O15 Zn1 2.402361 1_456
O16 Zn0 2.013510 1_555
O16 Sn3 2.047470 1_565
O17 Sn2 2.022010 1_555
O17 Zn1 2.047352 1_555
O18 Zn3 2.013510 1_555
O18 Sn0 2.047470 1_565
O19 Zn2 2.013510 1_555
O19 Sn1 2.047470 1_545
