# generated using pymatgen
data_Li3IrN2
_symmetry_space_group_name_H-M   'P 1'
_cell_length_a   5.20549720
_cell_length_b   8.13668600
_cell_length_c   7.63746744
_cell_angle_alpha   90.00000000
_cell_angle_beta   103.75624224
_cell_angle_gamma   90.00000000
_symmetry_Int_Tables_number   1
_chemical_formula_structural   Li3IrN2
_chemical_formula_sum   'Li12 Ir4 N8'
_cell_volume   314.20982721
_cell_formula_units_Z   4
loop_
 _symmetry_equiv_pos_site_id
 _symmetry_equiv_pos_as_xyz
  1  'x, y, z'
loop_
 _atom_site_type_symbol
 _atom_site_label
 _atom_site_symmetry_multiplicity
 _atom_site_fract_x
 _atom_site_fract_y
 _atom_site_fract_z
 _atom_site_occupancy
  Li  Li0  1  0.24572900  0.02712100  0.98630300  1
  Li  Li1  1  0.75427100  0.52712100  0.51369700  1
  Li  Li2  1  0.75427100  0.97287900  0.01369700  1
  Li  Li3  1  0.24572900  0.47287900  0.48630300  1
  Li  Li4  1  0.21360800  0.45713400  0.82912400  1
  Li  Li5  1  0.78639200  0.95713400  0.67087600  1
  Li  Li6  1  0.78639200  0.54286600  0.17087600  1
  Li  Li7  1  0.21360800  0.04286600  0.32912400  1
  Li  Li8  1  0.74273300  0.28606200  0.82008700  1
  Li  Li9  1  0.25726700  0.78606200  0.67991300  1
  Li  Li10  1  0.25726700  0.71393800  0.17991300  1
  Li  Li11  1  0.74273300  0.21393800  0.32008700  1
  Ir  Ir0  1  0.20825600  0.15896200  0.65810600  1
  Ir  Ir1  1  0.79174400  0.65896200  0.84189400  1
  Ir  Ir2  1  0.79174400  0.84103800  0.34189400  1
  Ir  Ir3  1  0.20825600  0.34103800  0.15810600  1
  N  N0  1  0.03213600  0.81660100  0.91513800  1
  N  N1  1  0.96786400  0.31660100  0.58486200  1
  N  N2  1  0.96786400  0.18339900  0.08486200  1
  N  N3  1  0.03213600  0.68339900  0.41513800  1
  N  N4  1  0.50663600  0.54871000  0.72213500  1
  N  N5  1  0.49336400  0.04871000  0.77786500  1
  N  N6  1  0.49336400  0.45129000  0.27786500  1
  N  N7  1  0.50663600  0.95129000  0.22213500  1
loop_
_geom_bond_atom_site_label_1
_geom_bond_atom_site_label_2
_geom_bond_distance
_geom_bond_site_symmetry_2
Li0 N0 2.044110 1_545
Li0 N7 2.075105 1_546
Li0 N2 2.189407 1_456
Li0 N5 2.280956 1_555
Li1 N1 2.044110 1_555
Li1 N6 2.075105 1_555
Li1 N3 2.189407 1_655
Li1 N4 2.280956 1_555
Li2 N2 2.044110 1_565
Li2 N5 2.075105 1_564
Li2 N0 2.189407 1_654
Li2 N7 2.280956 1_555
Li3 N3 2.044110 1_555
Li3 N4 2.075105 1_555
Li3 N1 2.189407 1_455
Li3 N6 2.280956 1_555
Li4 N4 2.035286 1_555
Li4 N1 2.299833 1_455
Li5 N5 2.035286 1_565
Li5 N0 2.299833 1_655
Li6 N6 2.035286 1_555
Li6 N3 2.299833 1_655
Li7 N7 2.035286 1_545
Li7 N2 2.299833 1_455
Li8 N2 2.243534 1_556
Li8 N5 2.306449 1_555
Li8 N1 2.379899 1_555
Li8 N4 2.489975 1_555
Li9 N3 2.243534 1_555
Li9 N4 2.306449 1_555
Li9 N0 2.379899 1_555
Li9 N5 2.489975 1_565
Li10 N0 2.243534 1_554
Li10 N7 2.306449 1_555
Li10 N3 2.379899 1_555
Li10 N6 2.489975 1_555
Li11 N1 2.243534 1_555
Li11 N6 2.306449 1_555
Li11 N2 2.379899 1_555
Li11 N7 2.489975 1_545
Ir0 N1 1.786373 1_455
Ir0 N5 1.788409 1_555
Ir1 N0 1.786373 1_655
Ir1 N4 1.788409 1_555
Ir2 N3 1.786373 1_655
Ir2 N7 1.788409 1_555
Ir3 N2 1.786373 1_455
Ir3 N6 1.788409 1_555
