# generated using pymatgen
data_RbTh2F9
_symmetry_space_group_name_H-M   'P 1'
_cell_length_a   7.26281000
_cell_length_b   8.97910100
_cell_length_c   12.02010300
_cell_angle_alpha   90.00000000
_cell_angle_beta   90.00000000
_cell_angle_gamma   90.00000000
_symmetry_Int_Tables_number   1
_chemical_formula_structural   RbTh2F9
_chemical_formula_sum   'Rb4 Th8 F36'
_cell_volume   783.87304149
_cell_formula_units_Z   4
loop_
 _symmetry_equiv_pos_site_id
 _symmetry_equiv_pos_as_xyz
  1  'x, y, z'
loop_
 _atom_site_type_symbol
 _atom_site_label
 _atom_site_symmetry_multiplicity
 _atom_site_fract_x
 _atom_site_fract_y
 _atom_site_fract_z
 _atom_site_occupancy
  Rb  Rb0  1  0.63905600  0.96617800  0.25000000  1
  Rb  Rb1  1  0.86094400  0.46617800  0.25000000  1
  Rb  Rb2  1  0.36094400  0.03382200  0.75000000  1
  Rb  Rb3  1  0.13905600  0.53382200  0.75000000  1
  Th  Th0  1  0.15156800  0.82514600  0.44860200  1
  Th  Th1  1  0.34843200  0.32514600  0.05139800  1
  Th  Th2  1  0.84843200  0.17485400  0.94860200  1
  Th  Th3  1  0.65156800  0.67485400  0.55139800  1
  Th  Th4  1  0.84843200  0.17485400  0.55139800  1
  Th  Th5  1  0.65156800  0.67485400  0.94860200  1
  Th  Th6  1  0.15156800  0.82514600  0.05139800  1
  Th  Th7  1  0.34843200  0.32514600  0.44860200  1
  F  F0  1  0.42646600  0.49390100  0.59569500  1
  F  F1  1  0.07353400  0.99390100  0.90430500  1
  F  F2  1  0.57353400  0.50609900  0.09569500  1
  F  F3  1  0.92646600  0.00609900  0.40430500  1
  F  F4  1  0.57353400  0.50609900  0.40430500  1
  F  F5  1  0.92646600  0.00609900  0.09569500  1
  F  F6  1  0.42646600  0.49390100  0.90430500  1
  F  F7  1  0.07353400  0.99390100  0.59569500  1
  F  F8  1  0.46697600  0.78647800  0.09312200  1
  F  F9  1  0.03302400  0.28647800  0.40687800  1
  F  F10  1  0.53302400  0.21352200  0.59312200  1
  F  F11  1  0.96697600  0.71352200  0.90687800  1
  F  F12  1  0.53302400  0.21352200  0.90687800  1
  F  F13  1  0.96697600  0.71352200  0.59312200  1
  F  F14  1  0.46697600  0.78647800  0.40687800  1
  F  F15  1  0.03302400  0.28647800  0.09312200  1
  F  F16  1  0.35249900  0.77923800  0.60336600  1
  F  F17  1  0.14750100  0.27923800  0.89663400  1
  F  F18  1  0.64750100  0.22076200  0.10336600  1
  F  F19  1  0.85249900  0.72076200  0.39663400  1
  F  F20  1  0.64750100  0.22076200  0.39663400  1
  F  F21  1  0.85249900  0.72076200  0.10336600  1
  F  F22  1  0.35249900  0.77923800  0.89663400  1
  F  F23  1  0.14750100  0.27923800  0.60336600  1
  F  F24  1  0.19551700  0.56317200  0.42062600  1
  F  F25  1  0.30448300  0.06317200  0.07937400  1
  F  F26  1  0.80448300  0.43682800  0.92062600  1
  F  F27  1  0.69551700  0.93682800  0.57937400  1
  F  F28  1  0.80448300  0.43682800  0.57937400  1
  F  F29  1  0.69551700  0.93682800  0.92062600  1
  F  F30  1  0.19551700  0.56317200  0.07937400  1
  F  F31  1  0.30448300  0.06317200  0.42062600  1
  F  F32  1  0.16090800  0.82230600  0.25000000  1
  F  F33  1  0.33909200  0.32230600  0.25000000  1
  F  F34  1  0.83909200  0.17769400  0.75000000  1
  F  F35  1  0.66090800  0.67769400  0.75000000  1
loop_
_geom_bond_atom_site_label_1
_geom_bond_atom_site_label_2
_geom_bond_distance
_geom_bond_site_symmetry_2
F0 Th3 2.365645 1_555
F0 Th7 2.396523 1_555
F0 Rb3 2.815295 1_555
F1 Th2 2.365645 1_465
F1 Th6 2.396523 1_556
F1 Rb2 2.815295 1_565
F2 Th1 2.365645 1_555
F2 Th5 2.396523 1_554
F2 Rb1 2.815295 1_555
F3 Th0 2.365645 1_645
F3 Th4 2.396523 1_555
F3 Rb0 2.815295 1_545
F4 Th7 2.365645 1_555
F4 Th3 2.396523 1_555
F4 Rb1 2.815295 1_555
F5 Th6 2.365645 1_645
F5 Th2 2.396523 1_554
F5 Rb0 2.815295 1_545
F6 Th5 2.365645 1_555
F6 Th1 2.396523 1_556
F6 Rb3 2.815295 1_555
F7 Th4 2.365645 1_465
F7 Th0 2.396523 1_555
F7 Rb2 2.815295 1_565
F8 Th6 2.370571 1_555
F8 Th5 2.412386 1_554
F8 Rb0 2.778725 1_555
F9 Th7 2.370571 1_555
F9 Th4 2.412386 1_455
F9 Rb1 2.778725 1_455
F10 Th4 2.370571 1_555
F10 Th7 2.412386 1_555
F10 Rb2 2.778725 1_555
F11 Th5 2.370571 1_555
F11 Th6 2.412386 1_656
F11 Rb3 2.778725 1_655
F12 Th2 2.370571 1_555
F12 Th1 2.412386 1_556
F12 Rb2 2.778725 1_555
F13 Th3 2.370571 1_555
F13 Th0 2.412386 1_655
F13 Rb3 2.778725 1_655
F14 Th0 2.370571 1_555
F14 Th3 2.412386 1_555
F14 Rb0 2.778725 1_555
F15 Th1 2.370571 1_555
F15 Th2 2.412386 1_454
F15 Rb1 2.778725 1_455
F16 Th0 2.400038 1_555
F16 Th3 2.446757 1_555
F16 Rb2 2.887190 1_565
F16 Rb3 3.219570 1_555
F17 Th1 2.400038 1_556
F17 Th2 2.446757 1_455
F17 Rb3 2.887190 1_555
F17 Rb2 3.219570 1_555
F18 Th2 2.400038 1_554
F18 Th1 2.446757 1_555
F18 Rb0 2.887190 1_545
F18 Rb1 3.219570 1_555
F19 Th3 2.400038 1_555
F19 Th0 2.446757 1_655
F19 Rb1 2.887190 1_555
F19 Rb0 3.219570 1_555
F20 Th4 2.400038 1_555
F20 Th7 2.446757 1_555
F20 Rb0 2.887190 1_545
F20 Rb1 3.219570 1_555
F21 Th5 2.400038 1_554
F21 Th6 2.446757 1_655
F21 Rb1 2.887190 1_555
F21 Rb0 3.219570 1_555
F22 Th6 2.400038 1_556
F22 Th5 2.446757 1_555
F22 Rb2 2.887190 1_565
F22 Rb3 3.219570 1_555
F23 Th7 2.400038 1_555
F23 Th4 2.446757 1_455
F23 Rb3 2.887190 1_555
F23 Rb2 3.219570 1_555
F24 Th0 2.397548 1_555
F24 Th7 2.431949 1_555
F24 Rb1 3.296888 1_455
F25 Th1 2.397548 1_555
F25 Th6 2.431949 1_545
F25 Rb0 3.296888 1_545
F26 Th2 2.397548 1_555
F26 Th5 2.431949 1_555
F26 Rb3 3.296888 1_655
F27 Th3 2.397548 1_555
F27 Th4 2.431949 1_565
F27 Rb2 3.296888 1_565
F28 Th4 2.397548 1_555
F28 Th3 2.431949 1_555
F28 Rb3 3.296888 1_655
F29 Th5 2.397548 1_555
F29 Th2 2.431949 1_565
F29 Rb2 3.296888 1_565
F30 Th6 2.397548 1_555
F30 Th1 2.431949 1_555
F30 Rb1 3.296888 1_455
F31 Th7 2.397548 1_555
F31 Th0 2.431949 1_545
F31 Rb0 3.296888 1_545
F32 Th6 2.388316 1_555
F32 Th0 2.388316 1_555
F33 Th1 2.388316 1_555
F33 Th7 2.388316 1_555
F34 Th2 2.388316 1_555
F34 Th4 2.388316 1_555
F35 Th5 2.388316 1_555
F35 Th3 2.388316 1_555
