# generated using pymatgen
data_Mn4Cu3BiO12
_symmetry_space_group_name_H-M   'P 1'
_cell_length_a   6.47590860
_cell_length_b   6.47828922
_cell_length_c   6.47662408
_cell_angle_alpha   109.69239272
_cell_angle_beta   109.34933130
_cell_angle_gamma   109.38734039
_symmetry_Int_Tables_number   1
_chemical_formula_structural   Mn4Cu3BiO12
_chemical_formula_sum   'Mn4 Cu3 Bi1 O12'
_cell_volume   209.12297568
_cell_formula_units_Z   1
loop_
 _symmetry_equiv_pos_site_id
 _symmetry_equiv_pos_as_xyz
  1  'x, y, z'
loop_
 _atom_site_type_symbol
 _atom_site_label
 _atom_site_symmetry_multiplicity
 _atom_site_fract_x
 _atom_site_fract_y
 _atom_site_fract_z
 _atom_site_occupancy
  Mn  Mn0  1  0.49999800  0.49999400  0.49999600  1
  Mn  Mn1  1  0.50000100  0.99999900  0.99999900  1
  Mn  Mn2  1  0.99999600  0.50000500  0.99999600  1
  Mn  Mn3  1  0.99999700  0.00000000  0.49999800  1
  Cu  Cu0  1  0.49999500  0.50000100  0.00000100  1
  Cu  Cu1  1  0.50002300  0.99999900  0.50002500  1
  Cu  Cu2  1  0.00000200  0.49999900  0.50000000  1
  Bi  Bi0  1  0.00000000  0.00000000  0.99999900  1
  O  O0  1  0.82950500  0.69067600  0.52041300  1
  O  O1  1  0.17049300  0.30932500  0.47958500  1
  O  O2  1  0.17040400  0.69080300  0.86117000  1
  O  O3  1  0.82959400  0.30919800  0.13882800  1
  O  O4  1  0.69025000  0.52026600  0.83005100  1
  O  O5  1  0.30974800  0.47973400  0.16994700  1
  O  O6  1  0.69036200  0.86025900  0.17008700  1
  O  O7  1  0.30963600  0.13974100  0.82991000  1
  O  O8  1  0.52061300  0.82947800  0.69114200  1
  O  O9  1  0.47938500  0.17052300  0.30885500  1
  O  O10  1  0.13833500  0.82945100  0.30887600  1
  O  O11  1  0.86166200  0.17055000  0.69112100  1
loop_
_geom_bond_atom_site_label_1
_geom_bond_atom_site_label_2
_geom_bond_distance
_geom_bond_site_symmetry_2
Mn0 O9 2.006646 1_555
Mn0 O8 2.006717 1_555
Mn0 O1 2.012375 1_555
Mn0 O0 2.012387 1_555
Mn0 O4 2.015657 1_555
Mn0 O5 2.015660 1_555
Mn1 O8 2.006274 1_555
Mn1 O9 2.006288 1_566
Mn1 O3 2.013087 1_566
Mn1 O2 2.013092 1_555
Mn1 O6 2.016395 1_556
Mn1 O7 2.016424 1_565
Mn2 O10 2.006282 1_656
Mn2 O11 2.006308 1_555
Mn2 O2 2.013690 1_655
Mn2 O3 2.013737 1_556
Mn2 O4 2.015298 1_555
Mn2 O5 2.015377 1_656
Mn3 O11 2.006426 1_555
Mn3 O10 2.006435 1_645
Mn3 O6 2.014417 1_545
Mn3 O7 2.014434 1_655
Mn3 O0 2.014572 1_545
Mn3 O1 2.014576 1_655
Cu0 O5 1.906621 1_555
Cu0 O4 1.906684 1_554
Cu0 O6 1.907204 1_555
Cu0 O7 1.907210 1_554
Cu1 O11 1.917561 1_565
Cu1 O10 1.917837 1_555
Cu1 O8 1.918382 1_555
Cu1 O9 1.918692 1_565
Cu2 O2 1.911177 1_555
Cu2 O3 1.911185 1_455
Cu2 O1 1.911651 1_555
Cu2 O0 1.911698 1_455
Bi0 O0 2.635571 1_445
Bi0 O1 2.635575 1_556
Bi0 O2 2.636231 1_545
Bi0 O3 2.636246 1_456
Bi0 O9 2.641627 1_556
Bi0 O8 2.641640 1_445
Bi0 O10 2.642791 1_546
Bi0 O11 2.642805 1_455
Bi0 O7 2.642815 1_555
Bi0 O6 2.642820 1_446
Bi0 O5 2.643225 1_556
Bi0 O4 2.643228 1_445
