# generated using pymatgen
data_Mg6ZnW
_symmetry_space_group_name_H-M   'P 1'
_cell_length_a   4.86684700
_cell_length_b   5.99430500
_cell_length_c   10.62130000
_cell_angle_alpha   90.00000000
_cell_angle_beta   90.00000000
_cell_angle_gamma   90.00000000
_symmetry_Int_Tables_number   1
_chemical_formula_structural   Mg6ZnW
_chemical_formula_sum   'Mg12 Zn2 W2'
_cell_volume   309.85906493
_cell_formula_units_Z   2
loop_
 _symmetry_equiv_pos_site_id
 _symmetry_equiv_pos_as_xyz
  1  'x, y, z'
loop_
 _atom_site_type_symbol
 _atom_site_label
 _atom_site_symmetry_multiplicity
 _atom_site_fract_x
 _atom_site_fract_y
 _atom_site_fract_z
 _atom_site_occupancy
  Mg  Mg0  1  0.00000000  0.25252200  0.41851600  1
  Mg  Mg1  1  0.00000000  0.74747800  0.41851600  1
  Mg  Mg2  1  0.50000000  0.74042300  0.08757500  1
  Mg  Mg3  1  0.50000000  0.25957700  0.08757500  1
  Mg  Mg4  1  0.50000000  0.00000000  0.32908200  1
  Mg  Mg5  1  0.50000000  0.50000000  0.32356100  1
  Mg  Mg6  1  0.00000000  0.75252200  0.91851600  1
  Mg  Mg7  1  0.00000000  0.24747800  0.91851600  1
  Mg  Mg8  1  0.50000000  0.24042300  0.58757500  1
  Mg  Mg9  1  0.50000000  0.75957700  0.58757500  1
  Mg  Mg10  1  0.50000000  0.50000000  0.82908200  1
  Mg  Mg11  1  0.50000000  0.00000000  0.82356100  1
  Zn  Zn0  1  0.00000000  0.00000000  0.16599100  1
  Zn  Zn1  1  0.00000000  0.50000000  0.66599100  1
  W  W0  1  0.00000000  0.50000000  0.16917900  1
  W  W1  1  0.00000000  0.00000000  0.66917900  1
loop_
_geom_bond_atom_site_label_1
_geom_bond_atom_site_label_2
_geom_bond_distance
_geom_bond_site_symmetry_2
Mg0 Mg1 2.966917 1_555
Mg0 Zn1 3.018227 1_555
Mg0 Mg4 3.019129 1_455
Mg0 Mg4 3.019129 1_555
Mg0 Mg5 3.023138 1_555
Mg0 Mg5 3.023138 1_455
Mg0 Mg8 3.025076 1_555
Mg0 Mg8 3.025076 1_455
Mg0 Mg1 3.027388 1_545
Mg0 W0 3.035466 1_555
Mg0 W1 3.062592 1_555
Mg0 Zn0 3.079799 1_555
Mg1 Zn1 3.018227 1_555
Mg1 Mg4 3.019129 1_465
Mg1 Mg4 3.019129 1_565
Mg1 Mg5 3.023138 1_555
Mg1 Mg5 3.023138 1_455
Mg1 Mg9 3.025076 1_555
Mg1 Mg9 3.025076 1_455
Mg1 W0 3.035466 1_555
Mg1 W1 3.062592 1_565
Mg1 Zn0 3.079799 1_565
Mg2 Mg3 2.882338 1_555
Mg2 Mg5 2.891263 1_555
Mg2 W0 2.957999 1_655
Mg2 W0 2.957999 1_555
Mg2 Mg4 3.000153 1_565
Mg2 Zn0 3.006048 1_565
Mg2 Zn0 3.006048 1_665
Mg2 Mg6 3.025076 1_554
Mg2 Mg6 3.025076 1_654
Mg2 Mg3 3.111967 1_565
Mg3 Mg5 2.891263 1_555
Mg3 W0 2.957999 1_655
Mg3 W0 2.957999 1_555
Mg3 Mg4 3.000153 1_555
Mg3 Zn0 3.006048 1_655
Mg3 Zn0 3.006048 1_555
Mg3 Mg7 3.025076 1_654
Mg3 Mg7 3.025076 1_554
Mg4 Zn0 2.987005 1_555
Mg4 Zn0 2.987005 1_655
Mg4 Mg5 2.997726 1_545
Mg4 Mg5 2.997726 1_555
Mg4 Mg8 3.100792 1_555
Mg4 Mg9 3.100792 1_545
Mg5 W0 2.934329 1_655
Mg5 W0 2.934329 1_555
Mg5 Mg9 3.206940 1_555
Mg5 Mg8 3.206940 1_555
Mg6 Mg7 2.966917 1_565
Mg6 Zn0 3.018227 1_566
Mg6 Mg7 3.027388 1_555
Mg6 W1 3.035466 1_565
Mg6 W0 3.062592 1_556
Mg6 Zn1 3.079799 1_555
Mg7 Zn0 3.018227 1_556
Mg7 W1 3.035466 1_555
Mg7 W0 3.062592 1_556
Mg7 Zn1 3.079799 1_555
Mg8 Mg9 2.882338 1_545
Mg8 W1 2.957999 1_555
Mg8 W1 2.957999 1_655
Mg8 Zn1 3.006048 1_655
Mg8 Zn1 3.006048 1_555
Mg8 Mg9 3.111967 1_555
Mg9 W1 2.957999 1_665
Mg9 W1 2.957999 1_565
Mg9 Zn1 3.006048 1_655
Mg9 Zn1 3.006048 1_555
Mg10 Zn1 2.987005 1_655
Mg10 Zn1 2.987005 1_555
Mg10 Mg11 2.997726 1_565
Mg10 Mg11 2.997726 1_555
Mg10 Mg8 3.000153 1_555
Mg10 Mg9 3.000153 1_555
Mg10 Mg6 3.019129 1_555
Mg10 Mg7 3.019129 1_555
Mg10 Mg6 3.019129 1_655
Mg10 Mg7 3.019129 1_655
Mg10 Mg3 3.100792 1_556
Mg10 Mg2 3.100792 1_556
Mg11 Mg8 2.891263 1_555
Mg11 Mg9 2.891263 1_545
Mg11 W1 2.934329 1_555
Mg11 W1 2.934329 1_655
Mg11 Mg7 3.023138 1_655
Mg11 Mg6 3.023138 1_645
Mg11 Mg6 3.023138 1_545
Mg11 Mg7 3.023138 1_555
Mg11 Mg2 3.206940 1_546
Mg11 Mg3 3.206940 1_556
W0 Zn0 2.997344 1_555
W0 Zn0 2.997344 1_565
W1 Zn1 2.997344 1_555
W1 Zn1 2.997344 1_545
