# generated using pymatgen
data_MgFe3Co5O16
_symmetry_space_group_name_H-M   'P 1'
_cell_length_a   5.73327193
_cell_length_b   5.79642759
_cell_length_c   8.93097122
_cell_angle_alpha   89.84556700
_cell_angle_beta   92.30034439
_cell_angle_gamma   118.80033096
_symmetry_Int_Tables_number   1
_chemical_formula_structural   MgFe3Co5O16
_chemical_formula_sum   'Mg1 Fe3 Co5 O16'
_cell_volume   259.82911939
_cell_formula_units_Z   1
loop_
 _symmetry_equiv_pos_site_id
 _symmetry_equiv_pos_as_xyz
  1  'x, y, z'
loop_
 _atom_site_type_symbol
 _atom_site_label
 _atom_site_symmetry_multiplicity
 _atom_site_fract_x
 _atom_site_fract_y
 _atom_site_fract_z
 _atom_site_occupancy
  Mg  Mg0  1  0.82582500  0.17316600  0.44690100  1
  Fe  Fe0  1  0.65122100  0.82340500  0.19012500  1
  Fe  Fe1  1  0.85308100  0.66635200  0.70761300  1
  Fe  Fe2  1  0.82681400  0.15064000  0.74273100  1
  Co  Co0  1  0.16040000  0.84153700  0.20130800  1
  Co  Co1  1  0.34052600  0.66536100  0.48153600  1
  Co  Co2  1  0.16620000  0.34406300  0.20042200  1
  Co  Co3  1  0.34226100  0.16771800  0.70536700  1
  Co  Co4  1  0.66080100  0.33958200  0.98476600  1
  O  O0  1  0.19094700  0.83473700  0.60153500  1
  O  O1  1  0.04235500  0.50685500  0.34149800  1
  O  O2  1  0.29505400  0.66013700  0.09472600  1
  O  O3  1  0.00725200  0.01974500  0.30526300  1
  O  O4  1  0.03324000  0.00776300  0.81911200  1
  O  O5  1  0.17510400  0.33766900  0.59739000  1
  O  O6  1  0.46523500  0.94811400  0.34326600  1
  O  O7  1  0.46616100  0.51767400  0.33866500  1
  O  O8  1  0.34351300  0.19390400  0.10419500  1
  O  O9  1  0.68096700  0.85073400  0.59559800  1
  O  O10  1  0.51812300  0.46681100  0.83734400  1
  O  O11  1  0.49890200  0.04156800  0.85233600  1
  O  O12  1  0.67216800  0.31385700  0.60480200  1
  O  O13  1  0.83685800  0.66471000  0.09406200  1
  O  O14  1  0.95518800  0.45820400  0.86046300  1
  O  O15  1  0.82513800  0.18297700  0.10219500  1
loop_
_geom_bond_atom_site_label_1
_geom_bond_atom_site_label_2
_geom_bond_distance
_geom_bond_site_symmetry_2
Mg0 O1 1.984654 1_655
Mg0 O6 2.021579 1_545
Mg0 O12 2.056203 1_555
Mg0 O3 2.115631 1_655
Mg0 O9 2.127426 1_545
Mg0 O5 2.162569 1_655
Fe0 O13 1.932824 1_555
Fe0 O2 1.947819 1_555
Fe0 O15 2.001648 1_565
Fe0 O3 2.029456 1_665
Fe0 O7 2.077204 1_555
Fe0 O6 2.096480 1_555
Fe1 O0 1.980680 1_655
Fe1 O4 1.983266 1_665
Fe1 O12 1.996334 1_555
Fe1 O9 2.011943 1_555
Fe1 O14 2.066248 1_555
Fe1 O10 2.097471 1_555
Fe2 O4 1.851596 1_655
Fe2 O14 1.873306 1_555
Fe2 O11 1.972692 1_555
Fe2 O12 1.978093 1_555
Fe2 O9 1.992841 1_545
Fe2 O5 2.227607 1_655
Co0 O13 1.854610 1_455
Co0 O2 1.858543 1_555
Co0 O3 1.909044 1_565
Co0 O6 1.956921 1_555
Co0 O8 2.005888 1_565
Co0 O1 2.139851 1_555
Co1 O7 1.885092 1_555
Co1 O1 1.911003 1_555
Co1 O6 1.911338 1_555
Co1 O0 1.933536 1_555
Co1 O9 1.956400 1_555
Co1 O5 1.977472 1_555
Co2 O8 1.859109 1_555
Co2 O2 1.880422 1_555
Co2 O15 1.890116 1_455
Co2 O3 1.910373 1_555
Co2 O7 1.913989 1_555
Co2 O1 1.925045 1_555
Co3 O4 1.893988 1_555
Co3 O11 1.896571 1_555
Co3 O10 1.908636 1_555
Co3 O5 1.910280 1_555
Co3 O0 1.915608 1_545
Co3 O12 1.921013 1_555
Co4 O10 1.853663 1_555
Co4 O15 1.884471 1_556
Co4 O14 1.892617 1_555
Co4 O13 1.902963 1_556
Co4 O11 1.903251 1_555
Co4 O8 1.957216 1_556
