# generated using pymatgen
data_Ba6MgNb2Ir(ClO6)2
_symmetry_space_group_name_H-M   'P 1'
_cell_length_a   6.06989812
_cell_length_b   6.07113675
_cell_length_c   15.02677002
_cell_angle_alpha   90.00055047
_cell_angle_beta   90.00437261
_cell_angle_gamma   120.01515196
_symmetry_Int_Tables_number   1
_chemical_formula_structural   Ba6MgNb2Ir(ClO6)2
_chemical_formula_sum   'Ba6 Mg1 Nb2 Ir1 Cl2 O12'
_cell_volume   479.49199100
_cell_formula_units_Z   1
loop_
 _symmetry_equiv_pos_site_id
 _symmetry_equiv_pos_as_xyz
  1  'x, y, z'
loop_
 _atom_site_type_symbol
 _atom_site_label
 _atom_site_symmetry_multiplicity
 _atom_site_fract_x
 _atom_site_fract_y
 _atom_site_fract_z
 _atom_site_occupancy
  Ba  Ba0  1  0.33331700  0.66667800  0.36392300  1
  Ba  Ba1  1  0.33320600  0.66662400  0.79288400  1
  Ba  Ba2  1  0.66668300  0.33332200  0.63607700  1
  Ba  Ba3  1  0.66657200  0.33330300  0.92843900  1
  Ba  Ba4  1  0.33342800  0.66669700  0.07156000  1
  Ba  Ba5  1  0.66679400  0.33337600  0.20711600  1
  Mg  Mg0  1  0.00000000  0.00000000  0.50000000  1
  Nb  Nb0  1  0.00024100  0.00002300  0.81365700  1
  Nb  Nb1  1  0.99975900  0.99997700  0.18634300  1
  Ir  Ir0  1  0.00000000  0.00000000  0.00000000  1
  Cl  Cl0  1  0.66668000  0.33333100  0.41897000  1
  Cl  Cl1  1  0.33332000  0.66666900  0.58103000  1
  O  O0  1  0.15358000  0.30728100  0.91746900  1
  O  O1  1  0.32415400  0.16209000  0.75773300  1
  O  O2  1  0.16202600  0.32395800  0.24220900  1
  O  O3  1  0.83797400  0.67604200  0.75779100  1
  O  O4  1  0.83802600  0.16190600  0.75783800  1
  O  O5  1  0.84642000  0.69271900  0.08253100  1
  O  O6  1  0.16197400  0.83809400  0.24216200  1
  O  O7  1  0.30705200  0.15351400  0.08242900  1
  O  O8  1  0.84638600  0.15370600  0.08260700  1
  O  O9  1  0.69294800  0.84648600  0.91757100  1
  O  O10  1  0.67584600  0.83791000  0.24226700  1
  O  O11  1  0.15361400  0.84629400  0.91739300  1
loop_
_geom_bond_atom_site_label_1
_geom_bond_atom_site_label_2
_geom_bond_distance
_geom_bond_site_symmetry_2
Ba0 O10 2.565854 1_555
Ba0 O2 2.567247 1_555
Ba0 O6 2.568076 1_555
Ba0 Cl1 3.262417 1_555
Ba0 Cl0 3.600159 1_455
Ba0 Cl0 3.600817 1_565
Ba0 Cl0 3.601555 1_555
Ba1 O11 2.658684 1_555
Ba1 O0 2.659642 1_555
Ba1 O9 2.661739 1_555
Ba1 O4 3.079992 1_455
Ba1 O3 3.080446 1_455
Ba1 O4 3.080667 1_565
Ba1 O3 3.081194 1_555
Ba1 O1 3.081512 1_565
Ba1 O1 3.081584 1_555
Ba1 Cl1 3.183481 1_555
Ba2 O1 2.565854 1_555
Ba2 O3 2.567247 1_555
Ba2 O4 2.568076 1_555
Ba2 Cl0 3.262417 1_555
Ba2 Cl1 3.600159 1_655
Ba2 Cl1 3.600817 1_545
Ba2 Cl1 3.601555 1_555
Ba3 O7 2.987617 1_556
Ba3 O5 2.988485 1_556
Ba3 O8 2.989529 1_556
Ba3 O11 3.042014 1_545
Ba3 O11 3.042306 1_655
Ba3 O0 3.042319 1_555
Ba3 O0 3.042679 1_655
Ba3 O9 3.043069 1_555
Ba3 O9 3.043167 1_545
Ba3 O1 3.133390 1_555
Ba3 O4 3.133945 1_555
Ba3 O3 3.134077 1_555
Ba4 O9 2.987606 1_554
Ba4 O0 2.988473 1_554
Ba4 O11 2.989518 1_554
Ba4 O8 3.042015 1_565
Ba4 O8 3.042307 1_455
Ba4 O5 3.042320 1_555
Ba4 O5 3.042680 1_455
Ba4 O7 3.043070 1_555
Ba4 O7 3.043168 1_565
Ba4 O10 3.133402 1_555
Ba4 O6 3.133957 1_555
Ba4 O2 3.134089 1_555
Ba5 O8 2.658684 1_555
Ba5 O5 2.659642 1_555
Ba5 O7 2.661739 1_555
Ba5 O6 3.079992 1_655
Ba5 O2 3.080446 1_655
Ba5 O6 3.080667 1_545
Ba5 O2 3.081194 1_555
Ba5 O10 3.081512 1_545
Ba5 O10 3.081584 1_555
Ba5 Cl0 3.183481 1_555
Nb0 O1 1.898631 1_555
Nb0 O3 1.898766 1_445
Nb0 O4 1.899212 1_455
Nb0 O11 2.244268 1_545
Nb0 O0 2.245486 1_555
Nb0 O9 2.246612 1_445
Nb1 O10 1.898631 1_555
Nb1 O2 1.898766 1_665
Nb1 O6 1.899212 1_655
Nb1 O8 2.244268 1_565
Nb1 O5 2.245486 1_555
Nb1 O7 2.246612 1_665
Ir0 O9 2.034282 1_444
Ir0 O7 2.034282 1_555
Ir0 O5 2.036578 1_445
Ir0 O0 2.036578 1_554
Ir0 O8 2.037583 1_455
Ir0 O11 2.037583 1_544
