# generated using pymatgen
data_YCo9Si4
_symmetry_space_group_name_H-M   'P 1'
_cell_length_a   7.90853993
_cell_length_b   7.90853993
_cell_length_c   7.90853993
_cell_angle_alpha   121.57930991
_cell_angle_beta   121.57930991
_cell_angle_gamma   87.28565097
_symmetry_Int_Tables_number   1
_chemical_formula_structural   YCo9Si4
_chemical_formula_sum   'Y2 Co18 Si8'
_cell_volume   340.99780593
_cell_formula_units_Z   2
loop_
 _symmetry_equiv_pos_site_id
 _symmetry_equiv_pos_as_xyz
  1  'x, y, z'
loop_
 _atom_site_type_symbol
 _atom_site_label
 _atom_site_symmetry_multiplicity
 _atom_site_fract_x
 _atom_site_fract_y
 _atom_site_fract_z
 _atom_site_occupancy
  Y  Y0  1  0.75000000  0.75000000  0.00000000  1
  Y  Y1  1  0.25000000  0.25000000  0.00000000  1
  Co  Co0  1  0.06947100  0.19844500  0.26791600  1
  Co  Co1  1  0.93052900  0.80155500  0.73208400  1
  Co  Co2  1  0.56947100  0.30155500  0.87102600  1
  Co  Co3  1  0.43052900  0.69844500  0.12897400  1
  Co  Co4  1  0.80155500  0.06947100  0.87102600  1
  Co  Co5  1  0.19844500  0.93052900  0.12897400  1
  Co  Co6  1  0.69844500  0.56947100  0.26791600  1
  Co  Co7  1  0.30155500  0.43052900  0.73208400  1
  Co  Co8  1  0.45006900  0.95006900  0.76118100  1
  Co  Co9  1  0.18888800  0.68888800  0.23881900  1
  Co  Co10  1  0.95006900  0.18888800  0.50000000  1
  Co  Co11  1  0.68888800  0.45006900  0.50000000  1
  Co  Co12  1  0.54993100  0.04993100  0.23881900  1
  Co  Co13  1  0.81111200  0.31111200  0.76118100  1
  Co  Co14  1  0.04993100  0.81111200  0.50000000  1
  Co  Co15  1  0.31111200  0.54993100  0.50000000  1
  Co  Co16  1  0.00000000  0.50000000  0.50000000  1
  Co  Co17  1  0.50000000  0.00000000  0.50000000  1
  Si  Si0  1  0.04609400  0.54609400  0.83777800  1
  Si  Si1  1  0.70831600  0.20831600  0.16222200  1
  Si  Si2  1  0.54609400  0.70831600  0.50000000  1
  Si  Si3  1  0.20831600  0.04609400  0.50000000  1
  Si  Si4  1  0.95390600  0.45390600  0.16222200  1
  Si  Si5  1  0.29168400  0.79168400  0.83777800  1
  Si  Si6  1  0.45390600  0.29168400  0.50000000  1
  Si  Si7  1  0.79168400  0.95390600  0.50000000  1
loop_
_geom_bond_atom_site_label_1
_geom_bond_atom_site_label_2
_geom_bond_distance
_geom_bond_site_symmetry_2
Co0 Co4 2.295198 1_454
Co0 Co5 2.295198 1_545
Co0 Co16 2.388676 1_555
Co0 Si3 2.471102 1_555
Co0 Si6 2.471102 1_555
Co0 Co10 2.496719 1_455
Co0 Co15 2.496719 1_555
Co0 Si1 2.531685 1_455
Co0 Si4 2.531685 1_455
Co0 Co7 2.533505 1_555
Co0 Y0 3.289731 1_445
Co0 Y1 3.289731 1_555
Co1 Co4 2.295198 1_565
Co1 Co5 2.295198 1_656
Co1 Co16 2.388676 1_655
Co1 Si7 2.471102 1_555
Co1 Si2 2.471102 1_555
Co1 Co14 2.496719 1_655
Co1 Co11 2.496719 1_555
Co1 Si0 2.531685 1_655
Co1 Si5 2.531685 1_655
Co1 Co6 2.533505 1_555
Co1 Y0 3.289731 1_556
Co1 Y1 3.289731 1_666
Co2 Co6 2.295198 1_556
Co2 Co7 2.295198 1_555
Co2 Si4 2.471102 1_556
Co2 Si1 2.471102 1_556
Co2 Co8 2.496719 1_545
Co2 Si3 2.531685 1_555
Co2 Si6 2.531685 1_555
Co2 Co4 2.533505 1_555
Co2 Y1 3.289731 1_556
Co2 Y0 3.289731 1_556
Co3 Co7 2.295198 1_554
Co3 Co6 2.295198 1_555
Co3 Si5 2.471102 1_554
Co3 Si0 2.471102 1_554
Co3 Co9 2.496719 1_555
Co3 Si7 2.531685 1_555
Co3 Si2 2.531685 1_555
Co3 Co5 2.533505 1_555
Co3 Y1 3.289731 1_555
Co3 Y0 3.289731 1_555
Co4 Si1 2.471102 1_556
Co4 Si4 2.471102 1_556
Co4 Co8 2.496719 1_545
Co4 Si2 2.531685 1_545
Co4 Si7 2.531685 1_545
Co4 Y0 3.289731 1_546
Co4 Y1 3.289731 1_656
Co5 Si0 2.471102 1_554
Co5 Si5 2.471102 1_554
Co5 Co9 2.496719 1_555
Co5 Si3 2.531685 1_565
Co5 Si6 2.531685 1_565
Co5 Y0 3.289731 1_455
Co5 Y1 3.289731 1_565
Co6 Si7 2.471102 1_555
Co6 Si2 2.471102 1_555
Co6 Si4 2.531685 1_555
Co6 Si1 2.531685 1_555
Co6 Y1 3.289731 1_555
Co6 Y0 3.289731 1_555
Co7 Si6 2.471102 1_555
Co7 Si3 2.471102 1_555
Co7 Si5 2.531685 1_555
Co7 Si0 2.531685 1_555
Co7 Y1 3.289731 1_556
Co7 Y0 3.289731 1_556
Co8 Si1 2.286498 1_566
Co8 Si5 2.289756 1_555
Co8 Si2 2.422368 1_555
Co8 Si3 2.422368 1_565
Co8 Y0 3.127214 1_556
Co8 Y1 3.127214 1_566
Co9 Si0 2.286498 1_554
Co9 Si4 2.289756 1_455
Co9 Si3 2.422368 1_565
Co9 Si2 2.422368 1_555
Co9 Y1 3.127214 1_555
Co9 Y0 3.127214 1_455
Co10 Si3 2.286498 1_655
Co10 Si7 2.289756 1_545
Co10 Si0 2.422368 1_655
Co10 Si1 2.422368 1_555
Co10 Co7 2.496719 1_655
Co10 Co16 2.510324 1_655
Co10 Co12 2.567926 1_555
Co10 Co13 2.567926 1_555
Co10 Y0 3.127214 1_545
Co10 Y1 3.127214 1_656
Co11 Si2 2.286498 1_555
Co11 Si6 2.289756 1_555
Co11 Si0 2.422368 1_655
Co11 Si1 2.422368 1_555
Co11 Co6 2.496719 1_555
Co11 Co16 2.510324 1_655
Co11 Co13 2.567926 1_555
Co11 Co12 2.567926 1_555
Co11 Y0 3.127214 1_556
Co11 Y1 3.127214 1_555
Co12 Si5 2.286498 1_544
Co12 Si1 2.289756 1_555
Co12 Si7 2.422368 1_545
Co12 Si6 2.422368 1_555
Co12 Co3 2.496719 1_545
Co12 Co5 2.496719 1_545
Co12 Co17 2.510324 1_555
Co12 Y0 3.127214 1_545
Co12 Y1 3.127214 1_555
Co13 Si4 2.286498 1_556
Co13 Si0 2.289756 1_655
Co13 Si6 2.422368 1_555
Co13 Si7 2.422368 1_545
Co13 Co2 2.496719 1_555
Co13 Co4 2.496719 1_555
Co13 Co17 2.510324 1_555
Co13 Y0 3.127214 1_556
Co13 Y1 3.127214 1_656
Co14 Si7 2.286498 1_455
Co14 Si3 2.289756 1_565
Co14 Si4 2.422368 1_455
Co14 Si5 2.422368 1_555
Co14 Co6 2.496719 1_455
Co14 Co16 2.510324 1_555
Co14 Co8 2.567926 1_555
Co14 Co9 2.567926 1_555
Co14 Y1 3.127214 1_566
Co14 Y0 3.127214 1_455
Co15 Si6 2.286498 1_555
Co15 Si2 2.289756 1_555
Co15 Si5 2.422368 1_555
Co15 Si4 2.422368 1_455
Co15 Co7 2.496719 1_555
Co15 Co16 2.510324 1_555
Co15 Co8 2.567926 1_555
Co15 Co9 2.567926 1_555
Co15 Y0 3.127214 1_556
Co15 Y1 3.127214 1_555
Co16 Si0 2.318306 1_555
Co16 Si5 2.318306 1_555
Co16 Si4 2.318306 1_455
Co16 Si1 2.318306 1_455
Co16 Co7 2.388676 1_555
Co16 Co6 2.388676 1_455
Co17 Si7 2.318306 1_545
Co17 Si3 2.318306 1_555
Co17 Si6 2.318306 1_555
Co17 Si2 2.318306 1_545
Co17 Co2 2.388676 1_555
Co17 Co5 2.388676 1_545
Co17 Co3 2.388676 1_545
Co17 Co4 2.388676 1_555
Co17 Co9 2.510324 1_545
Co17 Co8 2.510324 1_545
Si0 Y0 3.217426 1_456
Si0 Y1 3.217426 1_556
Si1 Y1 3.217426 1_555
Si1 Y0 3.217426 1_545
Si2 Y1 3.217426 1_555
Si2 Y0 3.217426 1_556
Si3 Y1 3.217426 1_556
Si3 Y0 3.217426 1_445
Si4 Y0 3.217426 1_555
Si4 Y1 3.217426 1_655
Si5 Y0 3.217426 1_556
Si5 Y1 3.217426 1_566
Si6 Y0 3.217426 1_556
Si6 Y1 3.217426 1_555
Si7 Y0 3.217426 1_555
Si7 Y1 3.217426 1_666
