# generated using pymatgen
data_Yb9Y3Al20O48
_symmetry_space_group_name_H-M   'P 1'
_cell_length_a   10.48647143
_cell_length_b   10.48647143
_cell_length_c   12.10008428
_cell_angle_alpha   54.82151587
_cell_angle_beta   54.82151587
_cell_angle_gamma   70.55748805
_symmetry_Int_Tables_number   1
_chemical_formula_structural   Yb9Y3Al20O48
_chemical_formula_sum   'Yb9 Y3 Al20 O48'
_cell_volume   888.94495193
_cell_formula_units_Z   1
loop_
 _symmetry_equiv_pos_site_id
 _symmetry_equiv_pos_as_xyz
  1  'x, y, z'
loop_
 _atom_site_type_symbol
 _atom_site_label
 _atom_site_symmetry_multiplicity
 _atom_site_fract_x
 _atom_site_fract_y
 _atom_site_fract_z
 _atom_site_occupancy
  Yb  Yb0  1  0.12437300  0.87562700  0.00000000  1
  Yb  Yb1  1  0.25012800  0.24872900  0.87530800  1
  Yb  Yb2  1  0.75127100  0.74987200  0.12469200  1
  Yb  Yb3  1  0.62490700  0.12514800  0.37496100  1
  Yb  Yb4  1  0.87485200  0.37509300  0.62503900  1
  Yb  Yb5  1  0.62477800  0.37522200  0.00000000  1
  Yb  Yb6  1  0.87486700  0.12513300  0.50000000  1
  Yb  Yb7  1  0.75003300  0.74985000  0.62502000  1
  Yb  Yb8  1  0.25015000  0.24996700  0.37498000  1
  Y  Y0  1  0.37453300  0.87657400  0.12331800  1
  Y  Y1  1  0.12342600  0.62546700  0.87668200  1
  Y  Y2  1  0.37612100  0.62387900  0.50000000  1
  Al  Al0  1  0.12419800  0.62485400  0.37553700  1
  Al  Al1  1  0.37514600  0.87580200  0.62446300  1
  Al  Al2  1  0.62550400  0.37449600  0.50000000  1
  Al  Al3  1  0.87518400  0.12481600  0.00000000  1
  Al  Al4  1  0.24990400  0.25020200  0.12402800  1
  Al  Al5  1  0.74979800  0.75009600  0.87597200  1
  Al  Al6  1  0.87448100  0.37426900  0.12542700  1
  Al  Al7  1  0.62573100  0.12551900  0.87457300  1
  Al  Al8  1  0.37439100  0.62560900  0.00000000  1
  Al  Al9  1  0.12486400  0.87513600  0.50000000  1
  Al  Al10  1  0.75008800  0.74970100  0.37445200  1
  Al  Al11  1  0.25029900  0.24991200  0.62554800  1
  Al  Al12  1  0.50100700  0.00070100  0.24917600  1
  Al  Al13  1  0.49997300  0.00065700  0.74964900  1
  Al  Al14  1  0.99929900  0.49899300  0.75082400  1
  Al  Al15  1  0.99934300  0.50002700  0.25035100  1
  Al  Al16  1  0.50075600  0.49914600  0.24989400  1
  Al  Al17  1  0.50085400  0.49924400  0.75010600  1
  Al  Al18  1  0.99983300  0.00007700  0.24966500  1
  Al  Al19  1  0.99992300  0.00016700  0.75033500  1
  O  O0  1  0.32011600  0.61832100  0.33152100  1
  O  O1  1  0.11735900  0.82065500  0.23260500  1
  O  O2  1  0.38167900  0.67988400  0.66847900  1
  O  O3  1  0.17934500  0.88264100  0.76739500  1
  O  O4  1  0.48286100  0.42125800  0.64979100  1
  O  O5  1  0.57874200  0.51713900  0.35020900  1
  O  O6  1  0.01668900  0.08284100  0.05320800  1
  O  O7  1  0.91715900  0.98331100  0.94679200  1
  O  O8  1  0.19992200  0.09552800  0.13477700  1
  O  O9  1  0.30024900  0.40488700  0.93003700  1
  O  O10  1  0.59511300  0.69975100  0.06996300  1
  O  O11  1  0.90447200  0.80007800  0.86522300  1
  O  O12  1  0.68016300  0.38635900  0.16611400  1
  O  O13  1  0.88661700  0.17991300  0.26697600  1
  O  O14  1  0.61364100  0.31983700  0.83388600  1
  O  O15  1  0.82008700  0.11338300  0.73302400  1
  O  O16  1  0.51672400  0.58384100  0.84662300  1
  O  O17  1  0.41615900  0.48327600  0.15337700  1
  O  O18  1  0.98266600  0.91619300  0.44772000  1
  O  O19  1  0.08380700  0.01733400  0.55228000  1
  O  O20  1  0.80226600  0.90296900  0.36386600  1
  O  O21  1  0.69737800  0.59704700  0.56975600  1
  O  O22  1  0.40295300  0.30262200  0.43024400  1
  O  O23  1  0.09703100  0.19773400  0.63613400  1
  O  O24  1  0.68031900  0.11356200  0.15340000  1
  O  O25  1  0.88643800  0.31968100  0.84660000  1
  O  O26  1  0.61419400  0.18013900  0.55242400  1
  O  O27  1  0.81986100  0.38580600  0.44757600  1
  O  O28  1  0.51692400  0.91627600  0.63664700  1
  O  O29  1  0.41662000  0.01719100  0.42962700  1
  O  O30  1  0.98280900  0.58338000  0.57037300  1
  O  O31  1  0.08372400  0.48307600  0.36335300  1
  O  O32  1  0.80214200  0.59696300  0.83400100  1
  O  O33  1  0.69773200  0.90299400  0.73312400  1
  O  O34  1  0.40303700  0.19785800  0.16599900  1
  O  O35  1  0.09700600  0.30226800  0.26687600  1
  O  O36  1  0.32050000  0.88160100  0.34833200  1
  O  O37  1  0.11839900  0.67950000  0.65166800  1
  O  O38  1  0.38485800  0.81954800  0.95014300  1
  O  O39  1  0.18045200  0.61514200  0.04985700  1
  O  O40  1  0.48283600  0.07924200  0.86730500  1
  O  O41  1  0.57909100  0.98263900  0.07088400  1
  O  O42  1  0.01736100  0.42090900  0.92911600  1
  O  O43  1  0.92075800  0.51716400  0.13269500  1
  O  O44  1  0.19975700  0.40445700  0.66518900  1
  O  O45  1  0.30357800  0.09715100  0.76666900  1
  O  O46  1  0.59554300  0.80024300  0.33481100  1
  O  O47  1  0.90284900  0.69642200  0.23333100  1
loop_
_geom_bond_atom_site_label_1
_geom_bond_atom_site_label_2
_geom_bond_distance
_geom_bond_site_symmetry_2
Al0 O31 1.776808 1_555
Al0 O1 1.779128 1_555
Al0 O30 1.779225 1_455
Al0 O0 1.787962 1_555
Al1 O28 1.776808 1_555
Al1 O3 1.779128 1_555
Al1 O29 1.779225 1_565
Al1 O2 1.787962 1_555
Al2 O26 1.776210 1_555
Al2 O27 1.776210 1_555
Al2 O5 1.781827 1_555
Al2 O4 1.781827 1_555
Al3 O6 1.774720 1_655
Al3 O7 1.774720 1_544
Al3 O24 1.781183 1_555
Al3 O25 1.781183 1_554
Al4 O8 1.779548 1_555
Al4 O35 1.779833 1_555
Al4 O34 1.780328 1_555
Al4 O9 1.781769 1_554
Al5 O11 1.779548 1_555
Al5 O33 1.779833 1_555
Al5 O32 1.780328 1_555
Al5 O10 1.781769 1_556
Al6 O12 1.776150 1_555
Al6 O13 1.777595 1_555
Al6 O43 1.781501 1_555
Al6 O42 1.781807 1_654
Al7 O14 1.776150 1_555
Al7 O15 1.777595 1_555
Al7 O40 1.781501 1_555
Al7 O41 1.781807 1_546
Al8 O39 1.780641 1_555
Al8 O38 1.780641 1_554
Al8 O16 1.781443 1_554
Al8 O17 1.781443 1_555
Al9 O18 1.776168 1_455
Al9 O19 1.776168 1_565
Al9 O36 1.786721 1_555
Al9 O37 1.786721 1_555
Al10 O47 1.773618 1_555
Al10 O20 1.779464 1_555
Al10 O46 1.779995 1_555
Al10 O21 1.782623 1_555
Al11 O45 1.773618 1_555
Al11 O23 1.779464 1_555
Al11 O44 1.779995 1_555
Al11 O22 1.782623 1_555
Al12 O24 1.915639 1_555
Al12 O29 1.920246 1_555
Al12 O41 1.921624 1_545
Al12 O34 1.929417 1_555
Al12 O46 1.939534 1_545
Al12 O36 1.952621 1_545
Al13 O45 1.916216 1_555
Al13 O28 1.921851 1_545
Al13 O40 1.922658 1_555
Al13 O26 1.924554 1_555
Al13 O33 1.932287 1_545
Al13 O38 1.947436 1_545
Al14 O25 1.915639 1_555
Al14 O30 1.920246 1_555
Al14 O42 1.921624 1_655
Al14 O32 1.929417 1_555
Al14 O44 1.939534 1_655
Al14 O37 1.952621 1_655
Al15 O47 1.916216 1_555
Al15 O31 1.921851 1_655
Al15 O43 1.922658 1_555
Al15 O27 1.924554 1_555
Al15 O35 1.932287 1_655
Al15 O39 1.947436 1_655
Al16 O12 1.915372 1_555
Al16 O5 1.920460 1_555
Al16 O17 1.922134 1_555
Al16 O22 1.925452 1_555
Al16 O10 1.941804 1_555
Al16 O0 1.953487 1_555
Al17 O14 1.915372 1_555
Al17 O4 1.920460 1_555
Al17 O16 1.922134 1_555
Al17 O21 1.925452 1_555
Al17 O9 1.941804 1_555
Al17 O2 1.953487 1_555
Al18 O6 1.917303 1_655
Al18 O13 1.920395 1_555
Al18 O1 1.926720 1_645
Al18 O20 1.929531 1_545
Al18 O18 1.930964 1_545
Al18 O8 1.941870 1_655
Al19 O7 1.917303 1_545
Al19 O15 1.920395 1_555
Al19 O3 1.926720 1_645
Al19 O23 1.929531 1_655
Al19 O19 1.930964 1_655
Al19 O11 1.941870 1_545
O0 Y0 2.348933 1_555
O0 Y2 2.458351 1_555
O1 Y0 2.327143 1_555
O1 Yb0 2.485870 1_555
O2 Y1 2.348933 1_555
O2 Y2 2.458351 1_555
O3 Y1 2.327143 1_555
O3 Yb0 2.485870 1_556
O4 Y2 2.317229 1_555
O4 Yb1 2.500598 1_555
O5 Y2 2.317229 1_555
O5 Yb2 2.500598 1_555
O6 Yb0 2.356291 1_545
O6 Yb1 2.469964 1_554
O7 Yb0 2.356291 1_656
O7 Yb2 2.469964 1_556
O8 Yb1 2.358362 1_554
O8 Y0 2.432964 1_545
O9 Yb1 2.370634 1_555
O9 Y1 2.451291 1_555
O10 Yb2 2.370634 1_555
O10 Y0 2.451291 1_555
O11 Yb2 2.358362 1_556
O11 Y1 2.432964 1_655
O12 Yb3 2.370306 1_555
O12 Yb5 2.460040 1_555
O13 Yb3 2.370995 1_555
O13 Yb6 2.464925 1_555
O14 Yb4 2.370306 1_555
O14 Yb5 2.460040 1_556
O15 Yb4 2.370995 1_555
O15 Yb6 2.464925 1_555
O16 Yb5 2.368282 1_556
O16 Yb7 2.470621 1_555
O17 Yb5 2.368282 1_555
O17 Yb8 2.470621 1_555
O18 Yb6 2.367051 1_565
O18 Yb7 2.467169 1_555
O19 Yb6 2.367051 1_455
O19 Yb8 2.467169 1_555
O20 Yb7 2.368212 1_555
O20 Yb3 2.468483 1_565
O21 Yb7 2.359812 1_555
O21 Yb4 2.466816 1_555
O22 Yb8 2.359812 1_555
O22 Yb3 2.466816 1_555
O23 Yb8 2.368212 1_555
O23 Yb4 2.468483 1_455
O24 Yb5 2.372071 1_555
O24 Yb3 2.464345 1_555
O25 Yb5 2.372071 1_556
O25 Yb4 2.464345 1_555
O26 Yb6 2.362474 1_555
O26 Yb3 2.462082 1_555
O27 Yb6 2.362474 1_555
O27 Yb4 2.462082 1_555
O28 Yb3 2.373666 1_565
O28 Yb7 2.467323 1_555
O29 Yb3 2.368211 1_555
O29 Yb8 2.465070 1_555
O30 Yb4 2.368211 1_555
O30 Yb7 2.465070 1_555
O31 Yb4 2.373666 1_455
O31 Yb8 2.467323 1_555
O32 Yb7 2.366608 1_555
O32 Yb5 2.468517 1_556
O33 Yb7 2.366093 1_555
O33 Yb6 2.470923 1_565
O34 Yb8 2.366608 1_555
O34 Yb5 2.468517 1_555
O35 Yb8 2.366093 1_555
O35 Yb6 2.470923 1_455
O36 Y2 2.341200 1_555
O36 Y0 2.470782 1_555
O37 Y2 2.341200 1_555
O37 Y1 2.470782 1_555
O38 Yb0 2.368935 1_556
O38 Y0 2.428887 1_556
O39 Yb0 2.368935 1_555
O39 Y1 2.428887 1_554
O40 Y0 2.317303 1_546
O40 Yb1 2.482321 1_555
O41 Y0 2.334114 1_555
O41 Yb2 2.496269 1_555
O42 Y1 2.334114 1_555
O42 Yb1 2.496269 1_555
O43 Y1 2.317303 1_654
O43 Yb2 2.482321 1_555
O44 Yb1 2.366227 1_555
O44 Y2 2.446252 1_555
O45 Yb1 2.352503 1_555
O45 Yb0 2.476808 1_546
O46 Yb2 2.366227 1_555
O46 Y2 2.446252 1_555
O47 Yb2 2.352503 1_555
O47 Yb0 2.476808 1_655
