# generated using pymatgen
data_LiZr4(NCl)4
_symmetry_space_group_name_H-M   'P 1'
_cell_length_a   19.43607019
_cell_length_b   19.43607019
_cell_length_c   19.43607020
_cell_angle_alpha   10.86983155
_cell_angle_beta   10.86983155
_cell_angle_gamma   10.86983080
_symmetry_Int_Tables_number   1
_chemical_formula_structural   LiZr4(NCl)4
_chemical_formula_sum   'Li1 Zr4 N4 Cl4'
_cell_volume   226.79860271
_cell_formula_units_Z   1
loop_
 _symmetry_equiv_pos_site_id
 _symmetry_equiv_pos_as_xyz
  1  'x, y, z'
loop_
 _atom_site_type_symbol
 _atom_site_label
 _atom_site_symmetry_multiplicity
 _atom_site_fract_x
 _atom_site_fract_y
 _atom_site_fract_z
 _atom_site_occupancy
  Li  Li0  1  0.00000000  0.00000000  0.00000000  1
  Zr  Zr0  1  0.39705100  0.39705100  0.39705100  1
  Zr  Zr1  1  0.89343200  0.89343200  0.89343200  1
  Zr  Zr2  1  0.10656800  0.10656800  0.10656800  1
  Zr  Zr3  1  0.60294900  0.60294900  0.60294900  1
  N  N0  1  0.43301800  0.43301800  0.43301800  1
  N  N1  1  0.93229100  0.93229100  0.93229100  1
  N  N2  1  0.06770900  0.06770900  0.06770900  1
  N  N3  1  0.56698200  0.56698200  0.56698200  1
  Cl  Cl0  1  0.80449400  0.80449400  0.80449400  1
  Cl  Cl1  1  0.30873300  0.30873300  0.30873300  1
  Cl  Cl2  1  0.69126700  0.69126700  0.69126700  1
  Cl  Cl3  1  0.19550600  0.19550600  0.19550600  1
loop_
_geom_bond_atom_site_label_1
_geom_bond_atom_site_label_2
_geom_bond_distance
_geom_bond_site_symmetry_2
N0 Zr0 2.084591 1_555
N0 Zr2 2.162787 1_655
N0 Zr2 2.162787 1_565
N0 Zr2 2.162787 1_556
N1 Zr3 2.138224 1_655
N1 Zr3 2.138224 1_565
N1 Zr3 2.138224 1_556
N1 Zr1 2.252207 1_555
N2 Zr0 2.138224 1_545
N2 Zr0 2.138224 1_455
N2 Zr0 2.138224 1_554
N2 Zr2 2.252207 1_555
N3 Zr3 2.084591 1_555
N3 Zr1 2.162787 1_455
N3 Zr1 2.162787 1_545
N3 Zr1 2.162787 1_554
Cl0 Zr2 2.793009 1_566
Cl0 Zr2 2.793009 1_656
Cl0 Zr2 2.793009 1_665
Cl1 Li0 2.559567 1_655
Cl1 Li0 2.559567 1_565
Cl1 Li0 2.559567 1_556
Cl1 Zr3 3.107827 1_545
Cl1 Zr3 3.107827 1_455
Cl1 Zr3 3.107827 1_554
Cl2 Li0 2.559567 1_566
Cl2 Li0 2.559567 1_656
Cl2 Li0 2.559567 1_665
Cl2 Zr0 3.107827 1_565
Cl2 Zr0 3.107827 1_655
Cl2 Zr0 3.107827 1_556
Cl3 Zr1 2.793009 1_454
Cl3 Zr1 2.793009 1_544
Cl3 Zr1 2.793009 1_445
