# generated using pymatgen
data_Tb5Mg
_symmetry_space_group_name_H-M   'P 1'
_cell_length_a   6.61606080
_cell_length_b   6.61606080
_cell_length_c   6.61606003
_cell_angle_alpha   55.50044547
_cell_angle_beta   55.50044547
_cell_angle_gamma   55.50043864
_symmetry_Int_Tables_number   1
_chemical_formula_structural   Tb5Mg
_chemical_formula_sum   'Tb5 Mg1'
_cell_volume   183.38459989
_cell_formula_units_Z   1
loop_
 _symmetry_equiv_pos_site_id
 _symmetry_equiv_pos_as_xyz
  1  'x, y, z'
loop_
 _atom_site_type_symbol
 _atom_site_label
 _atom_site_symmetry_multiplicity
 _atom_site_fract_x
 _atom_site_fract_y
 _atom_site_fract_z
 _atom_site_occupancy
  Tb  Tb0  1  0.65944186  0.34055814  0.00000000  1
  Tb  Tb1  1  -0.00000000  0.65944186  0.34055814  1
  Tb  Tb2  1  0.34055814  0.00000000  0.65944186  1
  Tb  Tb3  1  0.83212006  0.83212006  0.83212006  1
  Tb  Tb4  1  0.16787994  0.16787994  0.16787994  1
  Mg  Mg0  1  0.50000000  0.50000000  0.50000000  1
loop_
_geom_bond_atom_site_label_1
_geom_bond_atom_site_label_2
_geom_bond_distance
_geom_bond_site_symmetry_2
Tb0 Tb4 3.434414 1_555
Tb0 Tb3 3.434414 1_554
Tb0 Tb3 3.506563 1_544
Tb0 Tb4 3.506563 1_655
Tb0 Tb1 3.519204 1_555
Tb0 Tb2 3.519204 1_564
Tb0 Tb1 3.519205 1_654
Tb0 Tb2 3.519205 1_555
Tb0 Tb2 3.634219 1_654
Tb0 Tb1 3.634219 1_645
Tb1 Tb3 3.434414 1_455
Tb1 Tb4 3.434414 1_555
Tb1 Tb3 3.506563 1_454
Tb1 Tb4 3.506563 1_565
Tb1 Tb2 3.519204 1_555
Tb1 Tb2 3.519204 1_465
Tb1 Tb2 3.634219 1_564
Tb2 Tb4 3.434414 1_555
Tb2 Tb3 3.434414 1_545
Tb2 Tb4 3.506563 1_556
Tb2 Tb3 3.506563 1_445
Tb3 Tb4 3.557352 1_656
Tb3 Tb4 3.557352 1_566
Tb3 Tb4 3.557352 1_665
Mg0 Tb0 3.450805 1_555
Mg0 Tb0 3.450805 1_556
Mg0 Tb1 3.450805 1_555
Mg0 Tb2 3.450805 1_565
Mg0 Tb2 3.450805 1_555
Mg0 Tb1 3.450805 1_655
Mg0 Tb3 3.557178 1_545
Mg0 Tb3 3.557178 1_455
Mg0 Tb4 3.557178 1_565
Mg0 Tb4 3.557178 1_655
Mg0 Tb4 3.557178 1_556
Mg0 Tb3 3.557178 1_554
