# generated using pymatgen
data_FeH8N3O13
_symmetry_space_group_name_H-M   'P 1'
_cell_length_a   14.96349093
_cell_length_b   7.04897543
_cell_length_c   11.04619457
_cell_angle_alpha   56.76809556
_cell_angle_beta   90.00000000
_cell_angle_gamma   90.00000000
_symmetry_Int_Tables_number   1
_chemical_formula_structural   FeH8N3O13
_chemical_formula_sum   'Fe4 H32 N12 O52'
_cell_volume   974.57757499
_cell_formula_units_Z   4
loop_
 _symmetry_equiv_pos_site_id
 _symmetry_equiv_pos_as_xyz
  1  'x, y, z'
loop_
 _atom_site_type_symbol
 _atom_site_label
 _atom_site_symmetry_multiplicity
 _atom_site_fract_x
 _atom_site_fract_y
 _atom_site_fract_z
 _atom_site_occupancy
  Fe  Fe0  1  0.90450215  0.89573217  0.27953710  1
  Fe  Fe1  1  0.59549785  0.89573217  0.77953710  1
  Fe  Fe2  1  0.09549785  0.10426783  0.72046290  1
  Fe  Fe3  1  0.40450215  0.10426783  0.22046290  1
  H  H0  1  0.74279411  0.88569102  0.17681256  1
  H  H1  1  0.75720589  0.88569102  0.67681256  1
  H  H2  1  0.25720589  0.11430898  0.82318744  1
  H  H3  1  0.24279411  0.11430898  0.32318744  1
  H  H4  1  0.81963353  0.94207454  0.05685752  1
  H  H5  1  0.68036647  0.94207454  0.55685752  1
  H  H6  1  0.18036647  0.05792546  0.94314248  1
  H  H7  1  0.31963353  0.05792546  0.44314248  1
  H  H8  1  0.99226755  0.78535834  0.52191944  1
  H  H9  1  0.50773245  0.78535834  0.02191944  1
  H  H10  1  0.00773245  0.21464166  0.47808056  1
  H  H11  1  0.49226755  0.21464166  0.97808056  1
  H  H12  1  0.05049302  0.97770982  0.38243817  1
  H  H13  1  0.44950698  0.97770982  0.88243817  1
  H  H14  1  0.94950698  0.02229018  0.61756183  1
  H  H15  1  0.55049302  0.02229018  0.11756183  1
  H  H16  1  0.05144879  0.92517506  0.13200259  1
  H  H17  1  0.44855121  0.92517506  0.63200259  1
  H  H18  1  0.94855121  0.07482494  0.86799741  1
  H  H19  1  0.55144879  0.07482494  0.36799741  1
  H  H20  1  0.01088884  0.67861970  0.20897817  1
  H  H21  1  0.48911116  0.67861970  0.70897817  1
  H  H22  1  0.98911116  0.32138030  0.79102183  1
  H  H23  1  0.51088884  0.32138030  0.29102183  1
  H  H24  1  0.19945268  0.88439449  0.17002454  1
  H  H25  1  0.30054732  0.88439449  0.67002454  1
  H  H26  1  0.80054732  0.11560551  0.82997546  1
  H  H27  1  0.69945268  0.11560551  0.32997546  1
  H  H28  1  0.17334691  0.13897022  0.09958576  1
  H  H29  1  0.32665309  0.13897022  0.59958576  1
  H  H30  1  0.82665309  0.86102978  0.90041424  1
  H  H31  1  0.67334691  0.86102978  0.40041424  1
  N  N0  1  0.88305241  0.31869670  0.16929294  1
  N  N1  1  0.61694759  0.31869670  0.66929294  1
  N  N2  1  0.11694759  0.68130330  0.83070706  1
  N  N3  1  0.38305241  0.68130330  0.33070706  1
  N  N4  1  0.11617343  0.36772039  0.25362650  1
  N  N5  1  0.38382657  0.36772039  0.75362650  1
  N  N6  1  0.88382657  0.63227961  0.74637350  1
  N  N7  1  0.61617343  0.63227961  0.24637350  1
  N  N8  1  0.84222642  0.51292842  0.48444210  1
  N  N9  1  0.65777358  0.51292842  0.98444210  1
  N  N10  1  0.15777358  0.48707158  0.51555790  1
  N  N11  1  0.34222642  0.48707158  0.01555790  1
  O  O0  1  0.80720538  0.91634643  0.15379228  1
  O  O1  1  0.69279462  0.91634643  0.65379228  1
  O  O2  1  0.19279462  0.08365357  0.84620772  1
  O  O3  1  0.30720538  0.08365357  0.34620772  1
  O  O4  1  0.99464977  0.83944698  0.16650691  1
  O  O5  1  0.50535023  0.83944698  0.66650691  1
  O  O6  1  0.00535023  0.16055302  0.83349309  1
  O  O7  1  0.49464977  0.16055302  0.33349309  1
  O  O8  1  0.99495340  0.88589272  0.41599751  1
  O  O9  1  0.50504660  0.88589272  0.91599751  1
  O  O10  1  0.00504660  0.11410728  0.58400249  1
  O  O11  1  0.49495340  0.11410728  0.08400249  1
  O  O12  1  0.16007486  0.00445202  0.09936302  1
  O  O13  1  0.33992514  0.00445202  0.59936302  1
  O  O14  1  0.83992514  -0.00445202  0.90063698  1
  O  O15  1  0.66007486  -0.00445202  0.40063698  1
  O  O16  1  0.90192044  0.52928835  0.39696994  1
  O  O17  1  0.59807956  0.52928835  0.89696994  1
  O  O18  1  0.09807956  0.47071165  0.60303006  1
  O  O19  1  0.40192044  0.47071165  0.10303006  1
  O  O20  1  0.81684660  0.70683321  0.45966687  1
  O  O21  1  0.68315340  0.70683321  0.95966687  1
  O  O22  1  0.18315340  0.29316679  0.54033313  1
  O  O23  1  0.31684660  0.29316679  0.04033313  1
  O  O24  1  0.81232878  0.33335653  0.58242373  1
  O  O25  1  0.68767122  0.33335653  0.08242373  1
  O  O26  1  0.18767122  0.66664347  0.41757627  1
  O  O27  1  0.31232878  0.66664347  0.91757627  1
  O  O28  1  0.94177202  0.23544723  0.12564236  1
  O  O29  1  0.55822798  0.23544723  0.62564236  1
  O  O30  1  0.05822798  0.76455277  0.87435764  1
  O  O31  1  0.44177202  0.76455277  0.37435764  1
  O  O32  1  0.83972217  0.16681365  0.28184483  1
  O  O33  1  0.66027783  0.16681365  0.78184483  1
  O  O34  1  0.16027783  0.83318635  0.71815517  1
  O  O35  1  0.33972217  0.83318635  0.21815517  1
  O  O36  1  0.87009950  0.52035805  0.10992399  1
  O  O37  1  0.62990050  0.52035805  0.60992399  1
  O  O38  1  0.12990050  0.47964195  0.89007601  1
  O  O39  1  0.37009950  0.47964195  0.39007601  1
  O  O40  1  0.04317957  0.40393764  0.29671101  1
  O  O41  1  0.45682043  0.40393764  0.79671101  1
  O  O42  1  0.95682043  0.59606236  0.70328899  1
  O  O43  1  0.54317957  0.59606236  0.20328899  1
  O  O44  1  0.13439701  0.16119246  0.29787877  1
  O  O45  1  0.36560299  0.16119246  0.79787877  1
  O  O46  1  0.86560299  0.83880754  0.70212123  1
  O  O47  1  0.63439701  0.83880754  0.20212123  1
  O  O48  1  0.16766663  0.52183325  0.17316004  1
  O  O49  1  0.33233337  0.52183325  0.67316004  1
  O  O50  1  0.83233337  0.47816675  0.82683996  1
  O  O51  1  0.66766663  0.47816675  0.32683996  1
loop_
_geom_bond_atom_site_label_1
_geom_bond_atom_site_label_2
_geom_bond_distance
_geom_bond_site_symmetry_2
Fe0 O0 1.961851 1_555
Fe0 O8 1.998562 1_555
Fe0 O4 2.019615 1_555
Fe0 O28 2.115031 1_565
Fe0 O20 2.132733 1_555
Fe0 O32 2.155223 1_565
Fe0 O16 2.164206 1_555
Fe1 O1 1.961851 1_555
Fe1 O9 1.998562 1_555
Fe1 O5 2.019615 1_555
Fe1 O29 2.115031 1_565
Fe1 O21 2.132733 1_555
Fe1 O33 2.155223 1_565
Fe1 O17 2.164206 1_555
Fe2 O2 1.961851 1_555
Fe2 O10 1.998562 1_555
Fe2 O6 2.019615 1_555
Fe2 O30 2.115031 1_545
Fe2 O22 2.132733 1_555
Fe2 O34 2.155223 1_545
Fe2 O18 2.164206 1_555
Fe3 O3 1.961851 1_555
Fe3 O11 1.998562 1_555
Fe3 O7 2.019615 1_555
Fe3 O31 2.115031 1_545
Fe3 O23 2.132733 1_555
Fe3 O35 2.155223 1_545
Fe3 O19 2.164206 1_555
H0 O0 0.989987 1_555
H0 O47 1.648329 1_555
H1 O1 0.989987 1_555
H1 O46 1.648329 1_555
H2 O2 0.989987 1_555
H2 O45 1.648329 1_555
H3 O3 0.989987 1_555
H3 O44 1.648329 1_555
H4 O0 1.000579 1_555
H4 O14 1.580880 1_564
H5 O1 1.000579 1_555
H5 O15 1.580880 1_565
H6 O2 1.000579 1_555
H6 O12 1.580880 1_556
H7 O3 1.000579 1_555
H7 O13 1.580880 1_555
H8 O8 0.981831 1_555
H8 O42 1.773562 1_555
H9 O9 0.981831 1_554
H9 O43 1.773562 1_555
H10 O10 0.981831 1_555
H10 O40 1.773562 1_555
H11 O11 0.981831 1_556
H11 O41 1.773562 1_555
H12 O8 0.991973 1_455
H12 O44 1.672545 1_565
H13 O9 0.991973 1_555
H13 O45 1.672545 1_565
H14 O10 0.991973 1_655
H14 O46 1.672545 1_545
H15 O11 0.991973 1_555
H15 O47 1.672545 1_545
H16 O4 0.990124 1_455
H17 O5 0.990124 1_555
H18 O6 0.990124 1_655
H19 O7 0.990124 1_555
H20 O4 0.990657 1_455
H20 O40 1.692617 1_555
H21 O5 0.990657 1_555
H21 O41 1.692617 1_555
H22 O6 0.990657 1_655
H22 O42 1.692617 1_555
H23 O7 0.990657 1_555
H23 O43 1.692617 1_555
H24 O12 0.973971 1_565
H25 O13 0.973971 1_565
H26 O14 0.973971 1_555
H27 O15 0.973971 1_555
H28 O12 0.970111 1_555
H29 O13 0.970111 1_555
H30 O14 0.970111 1_565
H31 O15 0.970111 1_565
N0 O36 1.211011 1_555
N0 O32 1.285847 1_555
N0 O28 1.288025 1_555
N1 O37 1.211011 1_555
N1 O33 1.285847 1_555
N1 O29 1.288025 1_555
N2 O38 1.211011 1_555
N2 O34 1.285847 1_555
N2 O30 1.288025 1_555
N3 O39 1.211011 1_555
N3 O35 1.285847 1_555
N3 O31 1.288025 1_555
N4 O48 1.227003 1_555
N4 O40 1.271944 1_555
N4 O44 1.285574 1_555
N5 O49 1.227003 1_555
N5 O41 1.271944 1_555
N5 O45 1.285574 1_555
N6 O50 1.227003 1_555
N6 O42 1.271944 1_555
N6 O46 1.285574 1_555
N7 O51 1.227003 1_555
N7 O43 1.271944 1_555
N7 O47 1.285574 1_555
N8 O24 1.213346 1_555
N8 O16 1.273829 1_555
N8 O20 1.295126 1_555
N9 O25 1.213346 1_556
N9 O17 1.273829 1_555
N9 O21 1.295126 1_555
N10 O26 1.213346 1_555
N10 O18 1.273829 1_555
N10 O22 1.295126 1_555
N11 O27 1.213346 1_554
N11 O19 1.273829 1_555
N11 O23 1.295126 1_555
