# generated using pymatgen
data_BaTbMn2O6
_symmetry_space_group_name_H-M   'P 1'
_cell_length_a   5.58259100
_cell_length_b   7.79015800
_cell_length_c   11.14421943
_cell_angle_alpha   89.99825029
_cell_angle_beta   89.89582177
_cell_angle_gamma   89.99908064
_symmetry_Int_Tables_number   1
_chemical_formula_structural   BaTbMn2O6
_chemical_formula_sum   'Ba4 Tb4 Mn8 O24'
_cell_volume   484.65312097
_cell_formula_units_Z   4
loop_
 _symmetry_equiv_pos_site_id
 _symmetry_equiv_pos_as_xyz
  1  'x, y, z'
loop_
 _atom_site_type_symbol
 _atom_site_label
 _atom_site_symmetry_multiplicity
 _atom_site_fract_x
 _atom_site_fract_y
 _atom_site_fract_z
 _atom_site_occupancy
  Ba  Ba0  1  0.74765800  0.99817400  0.12513600  1
  Ba  Ba1  1  0.25234200  0.00182600  0.87486400  1
  Ba  Ba2  1  0.74710800  0.99789800  0.62558200  1
  Ba  Ba3  1  0.25289200  0.00210200  0.37441800  1
  Tb  Tb0  1  0.72988100  0.49669800  0.12940700  1
  Tb  Tb1  1  0.27011900  0.50330200  0.87059300  1
  Tb  Tb2  1  0.77832700  0.49559100  0.62100300  1
  Tb  Tb3  1  0.22167300  0.50440900  0.37899700  1
  Mn  Mn0  1  0.25055000  0.26009600  0.12496100  1
  Mn  Mn1  1  0.74945000  0.73990400  0.87503900  1
  Mn  Mn2  1  0.24885300  0.25530000  0.62378000  1
  Mn  Mn3  1  0.75114700  0.74470000  0.37622000  1
  Mn  Mn4  1  0.24898000  0.74152100  0.12463900  1
  Mn  Mn5  1  0.75102000  0.25847900  0.87536100  1
  Mn  Mn6  1  0.25071500  0.74574700  0.62397900  1
  Mn  Mn7  1  0.74928500  0.25425300  0.37602100  1
  O  O0  1  0.51776000  0.27507000  0.25099400  1
  O  O1  1  0.48224000  0.72493000  0.74900600  1
  O  O2  1  0.48430200  0.27634500  0.74654000  1
  O  O3  1  0.51569800  0.72365500  0.25346000  1
  O  O4  1  0.50808200  0.27016200  0.00240300  1
  O  O5  1  0.49191800  0.72983800  0.99759700  1
  O  O6  1  0.49256000  0.28121800  0.49868000  1
  O  O7  1  0.50744000  0.71878200  0.50132000  1
  O  O8  1  0.23736300  0.00044300  0.12416500  1
  O  O9  1  0.76263700  0.99955700  0.87583500  1
  O  O10  1  0.24513500  0.00016600  0.62706100  1
  O  O11  1  0.75486500  0.99983400  0.37293900  1
  O  O12  1  0.30433000  0.50055400  0.13397100  1
  O  O13  1  0.69567000  0.49944600  0.86602900  1
  O  O14  1  0.20971100  0.50042400  0.60971300  1
  O  O15  1  0.79028900  0.49957600  0.39028700  1
  O  O16  1  0.00672900  0.30176200  0.00046100  1
  O  O17  1  0.99327100  0.69823800  0.99953900  1
  O  O18  1  0.99070900  0.26274500  0.50319600  1
  O  O19  1  0.00929100  0.73725500  0.49680400  1
  O  O20  1  0.00861000  0.28964600  0.24977700  1
  O  O21  1  0.99139000  0.71035400  0.75022300  1
  O  O22  1  0.99291500  0.28897900  0.75062600  1
  O  O23  1  0.00708500  0.71102100  0.24937400  1
loop_
_geom_bond_atom_site_label_1
_geom_bond_atom_site_label_2
_geom_bond_distance
_geom_bond_site_symmetry_2
Ba0 O8 2.733882 1_665
Ba0 O11 2.761968 1_555
Ba0 O9 2.779392 1_554
Ba0 O8 2.848863 1_565
Ba0 O4 2.855763 1_565
Ba0 O0 2.874180 1_565
Ba0 O3 2.878978 1_555
Ba0 O5 2.904446 1_554
Ba0 O23 3.004240 1_655
Ba0 O20 3.035617 1_665
Ba0 O17 3.048238 1_554
Ba0 O16 3.099680 1_665
Ba1 O9 2.733882 1_445
Ba1 O10 2.761968 1_555
Ba1 O8 2.779392 1_556
Ba1 O9 2.848863 1_545
Ba1 O5 2.855763 1_545
Ba1 O1 2.874180 1_545
Ba1 O2 2.878978 1_555
Ba1 O4 2.904446 1_556
Ba1 O22 3.004240 1_455
Ba1 O21 3.035617 1_445
Ba1 O16 3.048238 1_556
Ba1 O17 3.099680 1_445
Ba2 O10 2.780416 1_665
Ba2 O9 2.790409 1_555
Ba2 O10 2.802384 1_565
Ba2 O11 2.815803 1_555
Ba2 O18 2.821272 1_565
Ba2 O19 2.883934 1_655
Ba2 O7 2.905630 1_555
Ba2 O1 2.931328 1_555
Ba2 O2 2.944084 1_565
Ba2 O21 2.968738 1_555
Ba2 O6 2.982904 1_565
Ba2 O22 2.995670 1_565
Ba3 O11 2.780416 1_445
Ba3 O8 2.790409 1_555
Ba3 O11 2.802384 1_545
Ba3 O10 2.815803 1_555
Ba3 O19 2.821272 1_545
Ba3 O18 2.883934 1_455
Ba3 O6 2.905630 1_555
Ba3 O0 2.931328 1_555
Ba3 O3 2.944084 1_545
Ba3 O20 2.968738 1_555
Ba3 O7 2.982904 1_545
Ba3 O23 2.995670 1_545
Mn0 O12 1.899805 1_555
Mn0 O20 1.950704 1_555
Mn0 O16 1.972296 1_555
Mn0 O4 1.982781 1_555
Mn0 O8 2.024099 1_555
Mn0 O0 2.054072 1_555
Mn1 O13 1.899805 1_555
Mn1 O21 1.950704 1_555
Mn1 O17 1.972296 1_555
Mn1 O5 1.982781 1_555
Mn1 O9 2.024099 1_555
Mn1 O1 2.054072 1_555
Mn2 O2 1.905971 1_555
Mn2 O14 1.928423 1_555
Mn2 O6 1.956654 1_555
Mn2 O18 1.973079 1_455
Mn2 O10 1.987977 1_555
Mn2 O22 2.025148 1_455
Mn3 O3 1.905971 1_555
Mn3 O15 1.928423 1_555
Mn3 O7 1.956654 1_555
Mn3 O19 1.973079 1_655
Mn3 O11 1.987977 1_555
Mn3 O23 2.025148 1_655
Mn4 O12 1.905296 1_555
Mn4 O23 1.950771 1_555
Mn4 O5 1.960890 1_554
Mn4 O8 2.018092 1_565
Mn4 O17 2.025442 1_454
Mn4 O3 2.074886 1_555
Mn5 O13 1.905296 1_555
Mn5 O22 1.950771 1_555
Mn5 O4 1.960890 1_556
Mn5 O9 2.018092 1_545
Mn5 O16 2.025442 1_656
Mn5 O2 2.074886 1_555
Mn6 O1 1.909128 1_555
Mn6 O14 1.931363 1_555
Mn6 O19 1.958689 1_555
Mn6 O10 1.982506 1_565
Mn6 O7 1.989866 1_555
Mn6 O21 2.035631 1_455
Mn7 O0 1.909128 1_555
Mn7 O15 1.931363 1_555
Mn7 O18 1.958689 1_555
Mn7 O11 1.982506 1_545
Mn7 O6 1.989866 1_555
Mn7 O20 2.035631 1_655
O0 Tb0 2.492638 1_555
O0 Tb3 2.819654 1_555
O1 Tb1 2.492638 1_555
O1 Tb2 2.819654 1_555
O2 Tb1 2.541835 1_555
O2 Tb2 2.749586 1_555
O3 Tb0 2.541835 1_555
O3 Tb3 2.749586 1_555
O4 Tb0 2.580186 1_555
O4 Tb1 2.688482 1_554
O5 Tb1 2.580186 1_555
O5 Tb0 2.688482 1_556
O6 Tb3 2.663835 1_555
O6 Tb2 2.683352 1_555
O7 Tb2 2.663835 1_555
O7 Tb3 2.683352 1_555
O12 Tb0 2.376319 1_555
O12 Tb3 2.768674 1_555
O13 Tb1 2.376319 1_555
O13 Tb2 2.768674 1_555
O14 Tb2 2.411591 1_455
O14 Tb3 2.572082 1_555
O15 Tb3 2.411591 1_655
O15 Tb2 2.572082 1_555
O16 Tb1 2.591114 1_554
O16 Tb0 2.598405 1_455
O17 Tb0 2.591114 1_556
O17 Tb1 2.598405 1_655
O18 Tb2 2.532596 1_555
O18 Tb3 2.667554 1_655
O19 Tb3 2.532596 1_555
O19 Tb2 2.667554 1_455
O20 Tb3 2.508791 1_555
O20 Tb0 2.613371 1_455
O21 Tb2 2.508791 1_555
O21 Tb1 2.613371 1_655
O22 Tb2 2.473565 1_555
O22 Tb1 2.641506 1_655
O23 Tb3 2.473565 1_555
O23 Tb0 2.641506 1_455
