# generated using pymatgen
data_Cs2Tm2Mg(WO4)4
_symmetry_space_group_name_H-M   'P 1'
_cell_length_a   6.94983134
_cell_length_b   8.88375644
_cell_length_c   7.62076725
_cell_angle_alpha   59.36765503
_cell_angle_beta   67.28768370
_cell_angle_gamma   90.10152586
_symmetry_Int_Tables_number   1
_chemical_formula_structural   Cs2Tm2Mg(WO4)4
_chemical_formula_sum   'Cs2 Tm2 Mg1 W4 O16'
_cell_volume   361.59148708
_cell_formula_units_Z   1
loop_
 _symmetry_equiv_pos_site_id
 _symmetry_equiv_pos_as_xyz
  1  'x, y, z'
loop_
 _atom_site_type_symbol
 _atom_site_label
 _atom_site_symmetry_multiplicity
 _atom_site_fract_x
 _atom_site_fract_y
 _atom_site_fract_z
 _atom_site_occupancy
  Cs  Cs0  1  0.77767157  0.15630550  0.74434168  1
  Cs  Cs1  1  0.21095480  0.84625159  0.25871806  1
  Tm  Tm0  1  0.25844886  0.86666208  0.74651276  1
  Tm  Tm1  1  0.73403526  0.13314695  0.25107289  1
  Mg  Mg0  1  0.99019058  0.49917517  0.99601154  1
  W  W0  1  0.29745203  0.32867548  0.69711606  1
  W  W1  1  0.69145149  0.66946337  0.29515583  1
  W  W2  1  0.68106629  0.67791513  0.79791969  1
  W  W3  1  0.30771874  0.31886657  0.19559761  1
  O  O0  1  0.37388145  0.27483042  0.95260475  1
  O  O1  1  0.61347262  0.72303013  0.06024868  1
  O  O2  1  0.75320849  0.63631667  0.56641704  1
  O  O3  1  0.24226375  0.36615460  0.42375222  1
  O  O4  1  0.61926038  0.91774262  0.61569773  1
  O  O5  1  0.36560792  0.09137727  0.37624529  1
  O  O6  1  0.00453547  0.31819684  0.89773084  1
  O  O7  1  0.97733135  0.68214533  0.11620736  1
  O  O8  1  0.38104220  0.59602475  0.53413026  1
  O  O9  1  0.62255528  0.40900249  0.45292522  1
  O  O10  1  0.34390528  0.58190726  0.94900664  1
  O  O11  1  0.64156195  0.41486594  0.06259616  1
  O  O12  1  0.25886144  0.08376046  0.79093512  1
  O  O13  1  0.72833848  0.91330756  0.21190171  1
  O  O14  1  0.98936190  0.73848214  0.73827942  1
  O  O15  1  0.01082240  0.26472666  0.26887544  1
loop_
_geom_bond_atom_site_label_1
_geom_bond_atom_site_label_2
_geom_bond_distance
_geom_bond_site_symmetry_2
Cs0 O9 2.812575 1_555
Cs0 O15 2.930284 1_655
Cs0 O13 2.947770 1_546
Cs0 O6 3.008174 1_655
Cs0 O3 3.019178 1_655
Cs0 O4 3.099556 1_545
Cs0 O0 3.126813 1_555
Cs0 O1 3.214587 1_546
Cs1 O8 2.813295 1_555
Cs1 O12 2.947369 1_564
Cs1 O14 2.954250 1_455
Cs1 O2 2.976431 1_455
Cs1 O7 2.984608 1_455
Cs1 O5 3.069551 1_565
Cs1 O1 3.121272 1_555
Cs1 O0 3.180275 1_564
Mg0 O14 2.032496 1_555
Mg0 O6 2.079867 1_655
Mg0 O15 2.121405 1_656
Mg0 O7 2.223446 1_556
Mg0 O11 2.312106 1_556
Mg0 O10 2.399342 1_655
O0 W3 1.968491 1_556
O0 W0 2.037712 1_555
O1 W1 1.899165 1_555
O1 W2 2.114208 1_554
O2 W2 1.866131 1_555
O2 W1 2.146993 1_555
O3 W3 1.881698 1_555
O3 W0 2.123321 1_555
O4 W2 2.025107 1_555
O4 Tm1 2.209919 1_565
O4 Tm0 2.256607 1_555
O5 W3 1.933063 1_555
O5 Tm0 2.265750 1_545
O5 Tm1 2.313794 1_555
O6 W0 1.985229 1_555
O6 Tm1 2.248659 1_456
O7 W1 1.889508 1_555
O7 Tm0 2.339540 1_654
O8 W0 1.988181 1_555
O8 W1 2.036315 1_555
O9 W1 1.935286 1_555
O9 W0 2.114570 1_555
O10 W3 2.052618 1_556
O10 W2 2.110115 1_555
O10 Tm0 2.422469 1_555
O11 W2 2.090812 1_554
O11 W3 2.105687 1_555
O11 Tm1 2.407278 1_555
O12 W0 1.892531 1_555
O12 Tm0 2.121410 1_545
O13 W1 1.905978 1_555
O13 Tm1 2.123169 1_565
O14 W2 2.020282 1_555
O14 Tm0 2.225713 1_655
O15 W3 1.906228 1_555
O15 Tm1 2.332441 1_455
