# generated using pymatgen
data_ScO2
_symmetry_space_group_name_H-M   'P 1'
_cell_length_a   3.28637900
_cell_length_b   4.36749300
_cell_length_c   5.03596200
_cell_angle_alpha   90.00000000
_cell_angle_beta   90.00000000
_cell_angle_gamma   90.00000000
_symmetry_Int_Tables_number   1
_chemical_formula_structural   ScO2
_chemical_formula_sum   'Sc2 O4'
_cell_volume   72.28235751
_cell_formula_units_Z   2
loop_
 _symmetry_equiv_pos_site_id
 _symmetry_equiv_pos_as_xyz
  1  'x, y, z'
loop_
 _atom_site_type_symbol
 _atom_site_label
 _atom_site_symmetry_multiplicity
 _atom_site_fract_x
 _atom_site_fract_y
 _atom_site_fract_z
 _atom_site_occupancy
  Sc  Sc0  1  0.00000000  0.00000000  0.50000000  1
  Sc  Sc1  1  0.50000000  0.50000000  0.00000000  1
  O  O0  1  0.00000000  0.77196600  0.86911000  1
  O  O1  1  0.50000000  0.72803400  0.36911000  1
  O  O2  1  0.00000000  0.22803400  0.13089000  1
  O  O3  1  0.50000000  0.27196600  0.63089000  1
loop_
_geom_bond_atom_site_label_1
_geom_bond_atom_site_label_2
_geom_bond_distance
_geom_bond_site_symmetry_2
O0 Sc0 2.108819 1_565
O0 Sc1 2.132006 1_556
O0 Sc1 2.132006 1_456
O1 Sc1 2.108819 1_555
O1 Sc0 2.132006 1_565
O1 Sc0 2.132006 1_665
O2 Sc0 2.108819 1_555
O2 Sc1 2.132006 1_555
O2 Sc1 2.132006 1_455
O3 Sc1 2.108819 1_556
O3 Sc0 2.132006 1_655
O3 Sc0 2.132006 1_555
