# generated using pymatgen
data_Li4MnCo2O7
_symmetry_space_group_name_H-M   'P 1'
_cell_length_a   14.73592584
_cell_length_b   14.73592584
_cell_length_c   5.88276503
_cell_angle_alpha   83.74538301
_cell_angle_beta   83.74538301
_cell_angle_gamma   11.38903981
_symmetry_Int_Tables_number   1
_chemical_formula_structural   Li4MnCo2O7
_chemical_formula_sum   'Li8 Mn2 Co4 O14'
_cell_volume   250.73693460
_cell_formula_units_Z   2
loop_
 _symmetry_equiv_pos_site_id
 _symmetry_equiv_pos_as_xyz
  1  'x, y, z'
loop_
 _atom_site_type_symbol
 _atom_site_label
 _atom_site_symmetry_multiplicity
 _atom_site_fract_x
 _atom_site_fract_y
 _atom_site_fract_z
 _atom_site_occupancy
  Li  Li0  1  0.00000000  0.00000000  0.00000000  1
  Li  Li1  1  0.14253300  0.14253300  0.42748000  1
  Li  Li2  1  0.28534800  0.28534800  0.85768700  1
  Li  Li3  1  0.56698600  0.56698600  0.71033900  1
  Li  Li4  1  0.71465200  0.71465200  0.14231300  1
  Li  Li5  1  0.85746700  0.85746700  0.57252000  1
  Li  Li6  1  0.43301400  0.43301400  0.28966100  1
  Li  Li7  1  0.00000000  0.00000000  0.50000000  1
  Mn  Mn0  1  0.43207800  0.43207800  0.77959600  1
  Mn  Mn1  1  0.56792200  0.56792200  0.22040400  1
  Co  Co0  1  0.71395800  0.71395800  0.64251800  1
  Co  Co1  1  0.85729100  0.85729100  0.07205100  1
  Co  Co2  1  0.14270900  0.14270900  0.92794900  1
  Co  Co3  1  0.28604200  0.28604200  0.35748200  1
  O  O0  1  0.92730500  0.92730500  0.01111400  1
  O  O1  1  0.07189900  0.07189900  0.43722100  1
  O  O2  1  0.21242500  0.21242500  0.87944500  1
  O  O3  1  0.49427600  0.49427600  0.75367600  1
  O  O4  1  0.63923100  0.63923100  0.16269600  1
  O  O5  1  0.78450100  0.78450100  0.59110700  1
  O  O6  1  0.35644400  0.35644400  0.30409200  1
  O  O7  1  0.07269500  0.07269500  0.98888600  1
  O  O8  1  0.21549900  0.21549900  0.40889300  1
  O  O9  1  0.36076900  0.36076900  0.83730400  1
  O  O10  1  0.64355600  0.64355600  0.69590800  1
  O  O11  1  0.78757500  0.78757500  0.12055500  1
  O  O12  1  0.92810100  0.92810100  0.56277900  1
  O  O13  1  0.50572400  0.50572400  0.24632400  1
loop_
_geom_bond_atom_site_label_1
_geom_bond_atom_site_label_2
_geom_bond_distance
_geom_bond_site_symmetry_2
Li0 O13 2.078260 1_455
Li0 O3 2.078260 1_454
Li0 O3 2.078260 1_544
Li0 O13 2.078260 1_545
Li0 O0 2.125719 1_445
Li0 O7 2.125719 1_554
Li1 O1 2.065953 1_555
Li1 O8 2.130633 1_555
Li1 O4 2.146310 1_545
Li1 O4 2.146310 1_455
Li1 O10 2.154706 1_455
Li1 O10 2.154706 1_545
Li2 O2 2.128362 1_555
Li2 O11 2.134393 1_546
Li2 O11 2.134393 1_456
Li2 O5 2.146256 1_545
Li2 O5 2.146256 1_455
Li2 O9 2.201927 1_555
Li3 O3 2.119613 1_555
Li3 O1 2.165513 1_565
Li3 O1 2.165513 1_655
Li3 O7 2.216107 1_655
Li3 O7 2.216107 1_565
Li3 O10 2.237820 1_555
Li4 O11 2.128362 1_555
Li4 O2 2.134393 1_564
Li4 O2 2.134393 1_654
Li4 O8 2.146256 1_565
Li4 O8 2.146256 1_655
Li4 O4 2.201927 1_555
Li5 O12 2.065953 1_555
Li5 O5 2.130633 1_555
Li5 O9 2.146310 1_655
Li5 O9 2.146310 1_565
Li5 O6 2.154706 1_565
Li5 O6 2.154706 1_655
Li6 O13 2.119613 1_555
Li6 O12 2.165513 1_545
Li6 O12 2.165513 1_455
Li6 O0 2.216107 1_545
Li6 O0 2.216107 1_455
Li6 O6 2.237820 1_555
Li7 O3 2.082849 1_455
Li7 O13 2.082849 1_545
Li7 O13 2.082849 1_455
Li7 O3 2.082849 1_545
Li7 O1 2.100432 1_555
Li7 O12 2.100432 1_445
Mn0 O3 1.813693 1_555
Mn0 O12 1.952169 1_455
Mn0 O12 1.952169 1_545
Mn0 O0 1.992669 1_546
Mn0 O0 1.992669 1_456
Mn0 O9 2.081601 1_555
Mn1 O13 1.813693 1_555
Mn1 O1 1.952169 1_655
Mn1 O1 1.952169 1_565
Mn1 O7 1.992669 1_654
Mn1 O7 1.992669 1_564
Mn1 O4 2.081601 1_555
Co0 O8 2.003806 1_565
Co0 O8 2.003806 1_655
Co0 O2 2.017144 1_655
Co0 O2 2.017144 1_565
Co0 O10 2.054113 1_555
Co0 O5 2.057737 1_555
Co1 O6 1.998615 1_565
Co1 O6 1.998615 1_655
Co1 O9 2.006127 1_564
Co1 O9 2.006127 1_654
Co1 O11 2.033159 1_555
Co1 O0 2.045288 1_555
Co2 O10 1.998615 1_455
Co2 O10 1.998615 1_545
Co2 O4 2.006127 1_456
Co2 O4 2.006127 1_546
Co2 O2 2.033159 1_555
Co2 O7 2.045288 1_555
Co3 O5 2.003806 1_455
Co3 O5 2.003806 1_545
Co3 O11 2.017144 1_455
Co3 O11 2.017144 1_545
Co3 O6 2.054113 1_555
Co3 O8 2.057737 1_555
