# generated using pymatgen
data_HfMg14Sn
_symmetry_space_group_name_H-M   'P 1'
_cell_length_a   6.38792212
_cell_length_b   6.29641110
_cell_length_c   10.30696410
_cell_angle_alpha   90.00000000
_cell_angle_beta   90.00000000
_cell_angle_gamma   119.52723803
_symmetry_Int_Tables_number   1
_chemical_formula_structural   HfMg14Sn
_chemical_formula_sum   'Hf1 Mg14 Sn1'
_cell_volume   360.71429413
_cell_formula_units_Z   1
loop_
 _symmetry_equiv_pos_site_id
 _symmetry_equiv_pos_as_xyz
  1  'x, y, z'
loop_
 _atom_site_type_symbol
 _atom_site_label
 _atom_site_symmetry_multiplicity
 _atom_site_fract_x
 _atom_site_fract_y
 _atom_site_fract_z
 _atom_site_occupancy
  Hf  Hf0  1  0.16496447  0.83248174  0.12500000  1
  Mg  Mg0  1  0.16617958  0.33308929  0.62500000  1
  Mg  Mg1  1  0.16655816  0.83327858  0.62500000  1
  Mg  Mg2  1  0.66683797  0.33485983  0.12500000  1
  Mg  Mg3  1  0.66647276  0.33292733  0.62500000  1
  Mg  Mg4  1  0.66683797  0.83197713  0.12500000  1
  Mg  Mg5  1  0.66647276  0.83354443  0.62500000  1
  Mg  Mg6  1  0.33316946  0.16419905  0.37508650  1
  Mg  Mg7  1  0.33316946  0.16419905  0.87491350  1
  Mg  Mg8  1  0.33316946  0.66897141  0.37508650  1
  Mg  Mg9  1  0.33316946  0.66897141  0.87491350  1
  Mg  Mg10  1  0.83246816  0.16623458  0.37521352  1
  Mg  Mg11  1  0.83246816  0.16623458  0.87478648  1
  Mg  Mg12  1  0.83597628  0.66798864  0.37444835  1
  Mg  Mg13  1  0.83597628  0.66798864  0.87555165  1
  Sn  Sn0  1  0.16610962  0.33305431  0.12500000  1
loop_
_geom_bond_atom_site_label_1
_geom_bond_atom_site_label_2
_geom_bond_distance
_geom_bond_site_symmetry_2
Hf0 Sn0 3.148212 1_565
Hf0 Sn0 3.148212 1_555
Hf0 Mg9 3.154202 1_554
Hf0 Mg8 3.154202 1_555
Hf0 Mg7 3.154208 1_564
Hf0 Mg6 3.154208 1_565
Hf0 Mg12 3.155015 1_455
Hf0 Mg13 3.155015 1_454
Hf0 Mg2 3.180428 1_455
Hf0 Mg4 3.180429 1_455
Hf0 Mg2 3.207496 1_565
Hf0 Mg4 3.207496 1_555
Mg0 Mg1 3.148206 1_555
Mg0 Mg1 3.148206 1_545
Mg0 Mg6 3.165725 1_555
Mg0 Mg7 3.165725 1_555
Mg0 Mg8 3.165731 1_555
Mg0 Mg9 3.165731 1_555
Mg0 Mg11 3.173130 1_455
Mg0 Mg10 3.173130 1_455
Mg0 Mg5 3.191586 1_445
Mg0 Mg3 3.191586 1_455
Mg0 Mg5 3.196336 1_555
Mg0 Mg3 3.196337 1_555
Mg1 Mg9 3.150129 1_555
Mg1 Mg8 3.150129 1_555
Mg1 Mg6 3.150135 1_565
Mg1 Mg7 3.150135 1_565
Mg1 Mg13 3.169416 1_455
Mg1 Mg12 3.169416 1_455
Mg1 Mg3 3.192591 1_565
Mg1 Mg5 3.192591 1_555
Mg1 Mg3 3.195332 1_455
Mg1 Mg5 3.195332 1_455
Mg2 Mg4 3.130055 1_555
Mg2 Mg4 3.166356 1_545
Mg2 Mg6 3.175592 1_555
Mg2 Mg7 3.175592 1_554
Mg2 Sn0 3.193026 1_555
Mg2 Sn0 3.194926 1_655
Mg3 Mg5 3.144320 1_545
Mg3 Mg5 3.152091 1_555
Mg3 Mg7 3.172894 1_555
Mg3 Mg6 3.172894 1_555
Mg4 Mg9 3.175592 1_554
Mg4 Mg8 3.175592 1_555
Mg4 Sn0 3.193026 1_555
Mg4 Sn0 3.194926 1_665
Mg5 Mg9 3.172894 1_555
Mg5 Mg8 3.172894 1_555
Mg6 Mg8 3.118157 1_545
Mg6 Sn0 3.167290 1_555
Mg6 Mg8 3.178254 1_555
Mg7 Mg9 3.118157 1_545
Mg7 Sn0 3.167290 1_556
Mg7 Mg9 3.178254 1_555
Mg8 Sn0 3.167296 1_555
Mg9 Sn0 3.167296 1_556
Mg10 Mg12 3.148276 1_555
Mg10 Mg12 3.148276 1_545
Mg10 Mg3 3.154553 1_555
Mg10 Mg5 3.154559 1_545
Mg10 Mg2 3.163054 1_555
Mg10 Mg4 3.163060 1_545
Mg10 Sn0 3.176475 1_655
Mg10 Mg8 3.183184 1_545
Mg10 Mg6 3.183185 1_555
Mg10 Mg8 3.204777 1_655
Mg10 Mg6 3.204777 1_655
Mg11 Mg13 3.148276 1_555
Mg11 Mg13 3.148276 1_545
Mg11 Mg3 3.154553 1_555
Mg11 Mg5 3.154559 1_545
Mg11 Mg2 3.163054 1_556
Mg11 Mg4 3.163060 1_546
Mg11 Sn0 3.176475 1_656
Mg11 Mg9 3.183184 1_545
Mg11 Mg7 3.183185 1_555
Mg11 Mg9 3.204777 1_655
Mg11 Mg7 3.204777 1_655
Mg12 Mg4 3.153321 1_555
Mg12 Mg2 3.153327 1_555
Mg12 Mg5 3.168670 1_555
Mg12 Mg3 3.168676 1_555
Mg12 Mg6 3.172993 1_665
Mg12 Mg8 3.172993 1_655
Mg12 Mg6 3.214951 1_555
Mg12 Mg8 3.214952 1_555
Mg13 Mg4 3.153321 1_556
Mg13 Mg2 3.153327 1_556
Mg13 Mg5 3.168670 1_555
Mg13 Mg3 3.168676 1_555
Mg13 Mg7 3.172993 1_665
Mg13 Mg9 3.172993 1_655
Mg13 Mg7 3.214951 1_555
Mg13 Mg9 3.214952 1_555
