# generated using pymatgen
data_Rb2CoO3
_symmetry_space_group_name_H-M   'P 1'
_cell_length_a   6.40217537
_cell_length_b   6.40218700
_cell_length_c   5.43194402
_cell_angle_alpha   89.99411784
_cell_angle_beta   89.99510788
_cell_angle_gamma   109.36422914
_symmetry_Int_Tables_number   1
_chemical_formula_structural   Rb2CoO3
_chemical_formula_sum   'Rb4 Co2 O6'
_cell_volume   210.04909466
_cell_formula_units_Z   2
loop_
 _symmetry_equiv_pos_site_id
 _symmetry_equiv_pos_as_xyz
  1  'x, y, z'
loop_
 _atom_site_type_symbol
 _atom_site_label
 _atom_site_symmetry_multiplicity
 _atom_site_fract_x
 _atom_site_fract_y
 _atom_site_fract_z
 _atom_site_occupancy
  Rb  Rb0  1  0.18198100  0.50191100  0.74520500  1
  Rb  Rb1  1  0.49388400  0.81767300  0.24446500  1
  Rb  Rb2  1  0.50191100  0.18198100  0.74520500  1
  Rb  Rb3  1  0.81767300  0.49388400  0.24446500  1
  Co  Co0  1  0.07451500  0.07451500  0.23861500  1
  Co  Co1  1  0.92001400  0.92001400  0.73873100  1
  O  O0  1  0.11927400  0.88076200  0.99362900  1
  O  O1  1  0.12519900  0.88703300  0.48725000  1
  O  O2  1  0.31779400  0.31779500  0.23045000  1
  O  O3  1  0.67995900  0.67995900  0.73110500  1
  O  O4  1  0.88076200  0.11927400  0.99362800  1
  O  O5  1  0.88703300  0.12519800  0.48725000  1
loop_
_geom_bond_atom_site_label_1
_geom_bond_atom_site_label_2
_geom_bond_distance
_geom_bond_site_symmetry_2
Co0 O2 1.801381 1_555
Co0 O4 1.904636 1_454
Co0 O0 1.904652 1_544
Co0 O1 1.904749 1_545
Co0 O5 1.904764 1_455
Co1 O3 1.777463 1_555
Co1 O5 1.954445 1_565
Co1 O1 1.954467 1_655
Co1 O0 1.954602 1_655
Co1 O4 1.954619 1_565
O0 Rb2 2.899496 1_565
O0 Rb1 2.900756 1_556
O0 Rb0 2.917423 1_555
O0 Rb3 2.923532 1_456
O1 Rb1 2.863998 1_555
O1 Rb2 2.885616 1_565
O1 Rb3 2.943764 1_455
O1 Rb0 2.961178 1_555
O2 Rb3 3.020966 1_555
O2 Rb1 3.020967 1_555
O2 Rb0 3.126093 1_554
O2 Rb2 3.126128 1_554
O2 Rb2 3.262441 1_555
O2 Rb0 3.262466 1_555
O3 Rb0 3.009893 1_555
O3 Rb2 3.009897 1_555
O3 Rb1 3.143350 1_555
O3 Rb3 3.143380 1_555
O3 Rb3 3.266302 1_556
O3 Rb1 3.266332 1_556
O4 Rb0 2.899491 1_655
O4 Rb3 2.900785 1_556
O4 Rb2 2.917394 1_555
O4 Rb1 2.923537 1_546
O5 Rb3 2.863985 1_555
O5 Rb0 2.885626 1_655
O5 Rb1 2.943755 1_545
O5 Rb2 2.961200 1_555
