# generated using pymatgen
data_K3Ti4Si3O20
_symmetry_space_group_name_H-M   'P 1'
_cell_length_a   7.83744500
_cell_length_b   7.83744500
_cell_length_c   7.83744500
_cell_angle_alpha   90.00000000
_cell_angle_beta   90.00000000
_cell_angle_gamma   90.00000000
_symmetry_Int_Tables_number   1
_chemical_formula_structural   K3Ti4Si3O20
_chemical_formula_sum   'K3 Ti4 Si3 O20'
_cell_volume   481.41932370
_cell_formula_units_Z   1
loop_
 _symmetry_equiv_pos_site_id
 _symmetry_equiv_pos_as_xyz
  1  'x, y, z'
loop_
 _atom_site_type_symbol
 _atom_site_label
 _atom_site_symmetry_multiplicity
 _atom_site_fract_x
 _atom_site_fract_y
 _atom_site_fract_z
 _atom_site_occupancy
  K  K0  1  0.50000000  0.50000000  0.00000000  1
  K  K1  1  0.50000000  0.00000000  0.50000000  1
  K  K2  1  0.00000000  0.50000000  0.50000000  1
  Ti  Ti0  1  0.85354900  0.85354900  0.14645100  1
  Ti  Ti1  1  0.85354900  0.14645100  0.85354900  1
  Ti  Ti2  1  0.14645100  0.85354900  0.85354900  1
  Ti  Ti3  1  0.14645100  0.14645100  0.14645100  1
  Si  Si0  1  0.00000000  0.00000000  0.50000000  1
  Si  Si1  1  0.00000000  0.50000000  0.00000000  1
  Si  Si2  1  0.50000000  0.00000000  0.00000000  1
  O  O0  1  0.61636000  0.87693400  0.12306600  1
  O  O1  1  0.87693400  0.87693400  0.38364000  1
  O  O2  1  0.87693400  0.61636000  0.12306600  1
  O  O3  1  0.61636000  0.12306600  0.87693400  1
  O  O4  1  0.87693400  0.12306600  0.61636000  1
  O  O5  1  0.87693400  0.38364000  0.87693400  1
  O  O6  1  0.38364000  0.87693400  0.87693400  1
  O  O7  1  0.12306600  0.87693400  0.61636000  1
  O  O8  1  0.12306600  0.61636000  0.87693400  1
  O  O9  1  0.38364000  0.12306600  0.12306600  1
  O  O10  1  0.12306600  0.12306600  0.38364000  1
  O  O11  1  0.12306600  0.38364000  0.12306600  1
  O  O12  1  0.11218400  0.11218400  0.88781600  1
  O  O13  1  0.11218400  0.88781600  0.11218400  1
  O  O14  1  0.88781600  0.11218400  0.11218400  1
  O  O15  1  0.88781600  0.88781600  0.88781600  1
  O  O16  1  0.32154100  0.32154100  0.67845900  1
  O  O17  1  0.32154100  0.67845900  0.32154100  1
  O  O18  1  0.67845900  0.32154100  0.32154100  1
  O  O19  1  0.67845900  0.67845900  0.67845900  1
loop_
_geom_bond_atom_site_label_1
_geom_bond_atom_site_label_2
_geom_bond_distance
_geom_bond_site_symmetry_2
K0 O16 3.203625 1_554
K0 O19 3.203625 1_554
K0 O18 3.203625 1_555
K0 O17 3.203625 1_555
K0 O2 3.238716 1_555
K0 O5 3.238716 1_554
K0 O11 3.238716 1_555
K0 O8 3.238716 1_554
K0 O6 3.238716 1_554
K0 O9 3.238716 1_555
K0 O3 3.238716 1_554
K0 O0 3.238716 1_555
K1 O17 3.203625 1_545
K1 O18 3.203625 1_555
K1 O19 3.203625 1_545
K1 O16 3.203625 1_555
K1 O9 3.238716 1_555
K1 O3 3.238716 1_555
K1 O6 3.238716 1_545
K1 O1 3.238716 1_545
K1 O7 3.238716 1_545
K1 O4 3.238716 1_555
K1 O0 3.238716 1_545
K1 O10 3.238716 1_555
K2 O18 3.203625 1_455
K2 O19 3.203625 1_455
K2 O16 3.203625 1_555
K2 O17 3.203625 1_555
K2 O8 3.238716 1_555
K2 O11 3.238716 1_555
K2 O5 3.238716 1_455
K2 O2 3.238716 1_455
K2 O4 3.238716 1_455
K2 O1 3.238716 1_455
K2 O7 3.238716 1_555
K2 O10 3.238716 1_555
O0 Si2 1.640820 1_565
O0 Ti0 1.876939 1_555
O1 Si0 1.640820 1_665
O1 Ti0 1.876939 1_555
O2 Si1 1.640820 1_655
O2 Ti0 1.876939 1_555
O3 Si2 1.640820 1_556
O3 Ti1 1.876939 1_555
O4 Si0 1.640820 1_655
O4 Ti1 1.876939 1_555
O5 Si1 1.640820 1_656
O5 Ti1 1.876939 1_555
O6 Si2 1.640820 1_566
O6 Ti2 1.876939 1_555
O7 Si0 1.640820 1_565
O7 Ti2 1.876939 1_555
O8 Si1 1.640820 1_556
O8 Ti2 1.876939 1_555
O9 Si2 1.640820 1_555
O9 Ti3 1.876939 1_555
O10 Si0 1.640820 1_555
O10 Ti3 1.876939 1_555
O11 Si1 1.640820 1_555
O11 Ti3 1.876939 1_555
O12 Ti3 2.062313 1_556
O12 Ti2 2.062313 1_545
O12 Ti1 2.062313 1_455
O13 Ti3 2.062313 1_565
O13 Ti2 2.062313 1_554
O13 Ti0 2.062313 1_455
O14 Ti3 2.062313 1_655
O14 Ti1 2.062313 1_554
O14 Ti0 2.062313 1_545
O15 Ti2 2.062313 1_655
O15 Ti0 2.062313 1_556
O15 Ti1 2.062313 1_565
