# generated using pymatgen
data_Ba2MgNb6(NO7)2
_symmetry_space_group_name_H-M   'P 1'
_cell_length_a   9.06065781
_cell_length_b   10.59318813
_cell_length_c   4.01816800
_cell_angle_alpha   79.06210514
_cell_angle_beta   90.00111601
_cell_angle_gamma   89.23208743
_symmetry_Int_Tables_number   1
_chemical_formula_structural   Ba2MgNb6(NO7)2
_chemical_formula_sum   'Ba2 Mg1 Nb6 N2 O14'
_cell_volume   378.62722178
_cell_formula_units_Z   1
loop_
 _symmetry_equiv_pos_site_id
 _symmetry_equiv_pos_as_xyz
  1  'x, y, z'
loop_
 _atom_site_type_symbol
 _atom_site_label
 _atom_site_symmetry_multiplicity
 _atom_site_fract_x
 _atom_site_fract_y
 _atom_site_fract_z
 _atom_site_occupancy
  Ba  Ba0  1  0.25137000  0.97145400  0.01163900  1
  Ba  Ba1  1  0.73900500  0.04002300  0.97821800  1
  Mg  Mg0  1  0.06757800  0.55708300  0.21936300  1
  Nb  Nb0  1  0.04344500  0.26470200  0.36577400  1
  Nb  Nb1  1  0.28101200  0.45110900  0.77242200  1
  Nb  Nb2  1  0.43524700  0.26277500  0.36663800  1
  Nb  Nb3  1  0.56331000  0.73278700  0.63148200  1
  Nb  Nb4  1  0.73557700  0.52523000  0.23520200  1
  Nb  Nb5  1  0.92993100  0.74180700  0.62689800  1
  N  N0  1  0.74832300  0.58866500  0.70343400  1
  N  N1  1  0.90878700  0.41517200  0.29031100  1
  O  O0  1  0.06896400  0.87020200  0.56232200  1
  O  O1  1  0.09754300  0.29205500  0.85196000  1
  O  O2  1  0.09938300  0.58528700  0.70525000  1
  O  O3  1  0.24275200  0.43009200  0.28292500  1
  O  O4  1  0.24894400  0.16141600  0.41722700  1
  O  O5  1  0.41548200  0.58142600  0.70722900  1
  O  O6  1  0.42230500  0.27643900  0.85977200  1
  O  O7  1  0.42330300  0.86647800  0.56423000  1
  O  O8  1  0.57156100  0.12875600  0.43390100  1
  O  O9  1  0.58913400  0.71381000  0.14091100  1
  O  O10  1  0.57731100  0.41181700  0.29191500  1
  O  O11  1  0.75089400  0.85246700  0.57171100  1
  O  O12  1  0.92374400  0.70764900  0.14396300  1
  O  O13  1  0.91836200  0.12932200  0.43367000  1
loop_
_geom_bond_atom_site_label_1
_geom_bond_atom_site_label_2
_geom_bond_distance
_geom_bond_site_symmetry_2
Ba0 O7 2.758211 1_554
Ba0 O7 2.758630 1_555
Ba0 O0 2.814918 1_554
Ba0 O0 2.815158 1_555
Ba0 O4 2.815920 1_564
Ba0 O4 2.819430 1_565
Ba1 O8 2.674026 1_555
Ba1 O8 2.674492 1_556
Ba1 O13 2.753061 1_555
Ba1 O13 2.753730 1_556
Ba1 O11 2.800411 1_546
Ba1 O11 2.802304 1_545
Mg0 O12 2.023618 1_455
Mg0 O3 2.050962 1_555
Mg0 O2 2.051274 1_555
Mg0 O2 2.051321 1_554
Mg0 N1 2.075214 1_455
Nb0 O13 1.819516 1_455
Nb0 O1 2.087885 1_555
Nb0 O1 2.088918 1_554
Nb0 O4 2.136885 1_555
Nb0 O3 2.510966 1_555
Nb1 O5 1.834845 1_555
Nb1 O3 2.050928 1_556
Nb1 O3 2.050996 1_555
Nb1 O2 2.143153 1_555
Nb1 O6 2.208124 1_555
Nb1 O1 2.361175 1_555
Nb2 O8 1.849702 1_555
Nb2 O4 2.002346 1_555
Nb2 O6 2.017281 1_555
Nb2 O6 2.017523 1_554
Nb2 O10 2.028377 1_555
Nb2 O3 2.446933 1_555
Nb3 O7 1.869363 1_555
Nb3 O9 2.031702 1_556
Nb3 O9 2.032218 1_555
Nb3 O5 2.080851 1_555
Nb3 O11 2.120368 1_555
Nb4 O10 1.869208 1_555
Nb4 O9 2.352976 1_555
Nb4 O12 2.568034 1_555
Nb5 O0 1.848287 1_655
Nb5 O11 1.976159 1_555
Nb5 O12 2.041072 1_556
Nb5 O12 2.041242 1_555
Nb5 O2 2.222425 1_655
N0 Nb4 2.118147 1_555
N0 Nb4 2.118425 1_556
N0 Nb3 2.233478 1_555
N0 Nb5 2.305686 1_555
N1 Nb4 1.929832 1_555
N1 Nb0 1.971219 1_655
