# generated using pymatgen
data_TbTiFe11N
_symmetry_space_group_name_H-M   'P 1'
_cell_length_a   4.82043800
_cell_length_b   6.53410935
_cell_length_c   6.53410935
_cell_angle_alpha   97.36558815
_cell_angle_beta   111.64576568
_cell_angle_gamma   68.35423432
_symmetry_Int_Tables_number   1
_chemical_formula_structural   TbTiFe11N
_chemical_formula_sum   'Tb1 Ti1 Fe11 N1'
_cell_volume   177.79658428
_cell_formula_units_Z   1
loop_
 _symmetry_equiv_pos_site_id
 _symmetry_equiv_pos_as_xyz
  1  'x, y, z'
loop_
 _atom_site_type_symbol
 _atom_site_label
 _atom_site_symmetry_multiplicity
 _atom_site_fract_x
 _atom_site_fract_y
 _atom_site_fract_z
 _atom_site_occupancy
  Tb  Tb0  1  0.00636000  0.99364000  0.00636000  1
  Ti  Ti0  1  0.63490100  0.36509900  0.63490100  1
  Fe  Fe0  1  0.72591100  0.77408900  0.22591100  1
  Fe  Fe1  1  0.27730000  0.22270000  0.77730000  1
  Fe  Fe2  1  0.49708700  0.78004800  0.77422300  1
  Fe  Fe3  1  0.49708700  0.22577700  0.21995200  1
  Fe  Fe4  1  0.50006600  0.99693600  0.49856400  1
  Fe  Fe5  1  0.00156200  0.99693600  0.49856400  1
  Fe  Fe6  1  0.50006600  0.50143600  0.00306400  1
  Fe  Fe7  1  0.00156200  0.50143600  0.00306400  1
  Fe  Fe8  1  0.35760600  0.64239400  0.35760600  1
  Fe  Fe9  1  0.99964200  0.35954600  0.35883000  1
  Fe  Fe10  1  0.99964200  0.64117000  0.64045400  1
  N  N0  1  0.50120700  0.99879300  0.00120700  1
loop_
_geom_bond_atom_site_label_1
_geom_bond_atom_site_label_2
_geom_bond_distance
_geom_bond_site_symmetry_2
Tb0 Ti0 3.175908 1_464
Fe0 N0 1.921179 1_555
Fe0 Fe6 2.464873 1_555
Fe0 Fe4 2.464873 1_555
Fe0 Fe7 2.464873 1_655
Fe0 Fe5 2.464873 1_655
Fe0 Fe9 2.636909 1_555
Fe0 Fe10 2.636909 1_555
Fe1 N0 1.914365 1_546
Fe1 Fe6 2.496329 1_556
Fe1 Fe4 2.496329 1_545
Fe1 Fe7 2.496329 1_556
Fe1 Fe5 2.496329 1_545
Fe1 Fe9 2.666753 1_455
Fe1 Fe10 2.666753 1_455
Fe1 Ti0 2.700264 1_555
Fe1 Ti0 2.700265 1_455
Fe2 N0 1.923196 1_556
Fe2 Fe5 2.437502 1_555
Fe2 Fe4 2.437504 1_555
Fe2 Fe6 2.492593 1_556
Fe2 Fe7 2.492596 1_656
Fe2 Ti0 2.665674 1_555
Fe3 N0 1.923196 1_545
Fe3 Fe7 2.437502 1_555
Fe3 Fe6 2.437504 1_555
Fe3 Fe4 2.492593 1_545
Fe3 Fe5 2.492596 1_645
Fe3 Ti0 2.665674 1_555
Fe3 Fe9 2.681989 1_455
Fe3 Fe9 2.681993 1_555
Fe4 Fe5 2.403008 1_555
Fe4 Fe5 2.417430 1_655
Fe4 Fe8 2.616591 1_555
Fe4 Fe9 2.641916 1_465
Fe4 Ti0 2.679535 1_565
Fe4 Tb0 3.221978 1_555
Fe4 Tb0 3.312315 1_656
Fe5 Fe8 2.616591 1_555
Fe5 Fe9 2.641916 1_465
Fe5 Ti0 2.679536 1_465
Fe5 Tb0 3.221978 1_555
Fe5 Tb0 3.312314 1_556
Fe6 Fe7 2.403008 1_555
Fe6 Fe7 2.417430 1_655
Fe6 Fe9 2.615010 1_555
Fe6 Fe8 2.616591 1_555
Fe6 Ti0 2.679535 1_554
Fe6 Tb0 3.221978 1_555
Fe6 Tb0 3.312315 1_645
Fe7 Fe9 2.615009 1_455
Fe7 Fe8 2.616591 1_555
Fe7 Ti0 2.679536 1_454
Fe7 Tb0 3.221978 1_555
Fe7 Tb0 3.312314 1_545
Fe8 Ti0 2.370823 1_555
Fe8 Fe9 2.959717 1_455
Fe8 Fe9 2.959717 1_555
Fe9 Ti0 2.936418 1_555
Fe9 Ti0 2.936419 1_655
Fe9 Tb0 3.099604 1_645
Fe10 Fe9 2.429850 1_555
Fe10 Fe5 2.615009 1_655
Fe10 Fe4 2.615010 1_555
Fe10 Fe7 2.641916 1_656
Fe10 Fe6 2.641916 1_656
Fe10 Fe2 2.681989 1_655
Fe10 Fe2 2.681993 1_555
Fe10 Ti0 2.936418 1_555
Fe10 Ti0 2.936419 1_655
Fe10 Fe8 2.959717 1_655
Fe10 Fe8 2.959717 1_555
Fe10 Tb0 3.099604 1_656
N0 Tb0 2.410622 1_555
N0 Tb0 2.410622 1_655
