# generated using pymatgen
data_Ba4NaGe3S10Cl
_symmetry_space_group_name_H-M   'P 1'
_cell_length_a   9.97263503
_cell_length_b   9.97263503
_cell_length_c   12.32710000
_cell_angle_alpha   90.00000000
_cell_angle_beta   90.00000000
_cell_angle_gamma   119.99999357
_symmetry_Int_Tables_number   1
_chemical_formula_structural   Ba4NaGe3S10Cl
_chemical_formula_sum   'Ba8 Na2 Ge6 S20 Cl2'
_cell_volume   1061.72349934
_cell_formula_units_Z   2
loop_
 _symmetry_equiv_pos_site_id
 _symmetry_equiv_pos_as_xyz
  1  'x, y, z'
loop_
 _atom_site_type_symbol
 _atom_site_label
 _atom_site_symmetry_multiplicity
 _atom_site_fract_x
 _atom_site_fract_y
 _atom_site_fract_z
 _atom_site_occupancy
  Ba  Ba0  1  0.26249500  0.91023000  0.63543300  1
  Ba  Ba1  1  0.08977000  0.35226500  0.63543300  1
  Ba  Ba2  1  0.64773500  0.73750500  0.63543300  1
  Ba  Ba3  1  0.73750500  0.08977000  0.13543300  1
  Ba  Ba4  1  0.91023000  0.64773500  0.13543300  1
  Ba  Ba5  1  0.35226500  0.26249500  0.13543300  1
  Ba  Ba6  1  0.33333300  0.66666700  0.94523800  1
  Ba  Ba7  1  0.66666700  0.33333300  0.44523800  1
  Na  Na0  1  0.00000000  0.00000000  0.88834400  1
  Na  Na1  1  0.00000000  0.00000000  0.38834400  1
  Ge  Ge0  1  0.67068700  0.11821200  0.79749300  1
  Ge  Ge1  1  0.88178800  0.55247400  0.79749300  1
  Ge  Ge2  1  0.44752600  0.32931300  0.79749300  1
  Ge  Ge3  1  0.32931300  0.88178800  0.29749300  1
  Ge  Ge4  1  0.11821200  0.44752600  0.29749300  1
  Ge  Ge5  1  0.55247400  0.67068700  0.29749300  1
  S  S0  1  0.45358600  0.11553900  0.86180200  1
  S  S1  1  0.88446100  0.33804700  0.86180200  1
  S  S2  1  0.66195300  0.54641400  0.86180200  1
  S  S3  1  0.54641400  0.88446100  0.36180200  1
  S  S4  1  0.11553900  0.66195300  0.36180200  1
  S  S5  1  0.33804700  0.45358600  0.36180200  1
  S  S6  1  0.66714500  0.08940300  0.62234000  1
  S  S7  1  0.91059700  0.57774100  0.62234000  1
  S  S8  1  0.42225900  0.33285500  0.62234000  1
  S  S9  1  0.33285500  0.91059700  0.12234000  1
  S  S10  1  0.08940300  0.42225900  0.12234000  1
  S  S11  1  0.57774100  0.66714500  0.12234000  1
  S  S12  1  0.68939900  0.93932200  0.89002000  1
  S  S13  1  0.06067800  0.75007700  0.89002000  1
  S  S14  1  0.24992300  0.31060100  0.89002000  1
  S  S15  1  0.31060100  0.06067800  0.39002000  1
  S  S16  1  0.93932200  0.24992300  0.39002000  1
  S  S17  1  0.75007700  0.68939900  0.39002000  1
  S  S18  1  0.33333300  0.66666700  0.69907500  1
  S  S19  1  0.66666700  0.33333300  0.19907500  1
  Cl  Cl0  1  0.00000000  0.00000000  0.64114900  1
  Cl  Cl1  1  0.00000000  0.00000000  0.14114900  1
loop_
_geom_bond_atom_site_label_1
_geom_bond_atom_site_label_2
_geom_bond_distance
_geom_bond_site_symmetry_2
Ba0 S18 2.954712 1_555
Ba0 Cl0 3.162699 1_565
Ba0 S15 3.303555 1_565
Ba0 S7 3.420496 1_455
Ba0 S0 3.421794 1_565
Ba0 S6 3.506118 1_565
Ba0 S13 3.638157 1_555
Ba0 S8 3.689580 1_565
Ba1 S18 2.954719 1_555
Ba1 Cl0 3.162699 1_555
Ba1 S16 3.303555 1_455
Ba1 S8 3.420501 1_555
Ba1 S1 3.421794 1_455
Ba1 S7 3.506108 1_455
Ba1 S14 3.638157 1_555
Ba1 S6 3.689581 1_455
Ba2 S18 2.954722 1_555
Ba2 Cl0 3.162700 1_665
Ba2 S17 3.303555 1_555
Ba2 S6 3.420491 1_565
Ba2 S2 3.421794 1_555
Ba2 S8 3.506117 1_555
Ba2 S12 3.638157 1_555
Ba2 S7 3.689589 1_555
Ba3 S19 2.954712 1_555
Ba3 Cl1 3.162699 1_655
Ba3 S12 3.303555 1_544
Ba3 S10 3.420496 1_655
Ba3 S3 3.421794 1_545
Ba3 S9 3.506118 1_545
Ba3 S16 3.638157 1_555
Ba3 S11 3.689580 1_545
Ba4 S19 2.954719 1_555
Ba4 Cl1 3.162699 1_665
Ba4 S13 3.303555 1_654
Ba4 S11 3.420501 1_555
Ba4 S4 3.421794 1_655
Ba4 S10 3.506108 1_655
Ba4 S17 3.638157 1_555
Ba4 S9 3.689581 1_655
Ba5 S19 2.954722 1_555
Ba5 Cl1 3.162700 1_555
Ba5 S14 3.303555 1_554
Ba5 S9 3.420491 1_545
Ba5 S5 3.421794 1_555
Ba5 S11 3.506117 1_555
Ba5 S15 3.638157 1_555
Ba5 S10 3.689589 1_555
Ba6 S18 3.034476 1_555
Ba6 S9 3.270389 1_556
Ba6 S11 3.270389 1_556
Ba6 S10 3.270389 1_556
Ba6 S13 3.287928 1_555
Ba6 S12 3.287935 1_555
Ba6 S14 3.287938 1_555
Ba7 S19 3.034476 1_555
Ba7 S6 3.270389 1_555
Ba7 S8 3.270389 1_555
Ba7 S7 3.270389 1_555
Ba7 S16 3.287928 1_555
Ba7 S15 3.287935 1_555
Ba7 S17 3.287938 1_555
Na0 S13 2.843730 1_545
Na0 S12 2.843731 1_445
Na0 S14 2.843731 1_555
Na1 S16 2.843730 1_455
Na1 S15 2.843731 1_555
Na1 S17 2.843731 1_445
Ge0 S6 2.176115 1_555
Ge0 S12 2.202578 1_545
Ge0 S0 2.293243 1_555
Ge0 S1 2.303457 1_555
Ge1 S7 2.176115 1_555
Ge1 S13 2.202583 1_655
Ge1 S1 2.293234 1_555
Ge1 S2 2.303461 1_555
Ge2 S8 2.176115 1_555
Ge2 S14 2.202586 1_555
Ge2 S2 2.293238 1_555
Ge2 S0 2.303451 1_555
Ge3 S9 2.176115 1_555
Ge3 S15 2.202578 1_565
Ge3 S3 2.293243 1_555
Ge3 S4 2.303457 1_555
Ge4 S10 2.176115 1_555
Ge4 S16 2.202583 1_455
Ge4 S4 2.293234 1_555
Ge4 S5 2.303461 1_555
Ge5 S11 2.176115 1_555
Ge5 S17 2.202586 1_555
Ge5 S5 2.293238 1_555
Ge5 S3 2.303451 1_555
Cl0 Na0 3.047197 1_555
Cl0 Na1 3.116353 1_555
Cl1 Na1 3.047197 1_555
Cl1 Na0 3.116353 1_554
