# generated using pymatgen
data_Cs2WO4
_symmetry_space_group_name_H-M   'P 1'
_cell_length_a   6.57682389
_cell_length_b   8.55938432
_cell_length_c   11.66288926
_cell_angle_alpha   90.00000000
_cell_angle_beta   90.00000000
_cell_angle_gamma   90.00000000
_symmetry_Int_Tables_number   1
_chemical_formula_structural   Cs2WO4
_chemical_formula_sum   'Cs8 W4 O16'
_cell_volume   656.54559458
_cell_formula_units_Z   4
loop_
 _symmetry_equiv_pos_site_id
 _symmetry_equiv_pos_as_xyz
  1  'x, y, z'
loop_
 _atom_site_type_symbol
 _atom_site_label
 _atom_site_symmetry_multiplicity
 _atom_site_fract_x
 _atom_site_fract_y
 _atom_site_fract_z
 _atom_site_occupancy
  Cs  Cs0  1  0.75000000  0.50955372  0.79275294  1
  Cs  Cs1  1  0.75000000  0.00955372  0.70724706  1
  Cs  Cs2  1  0.25000000  0.49044628  0.20724706  1
  Cs  Cs3  1  0.25000000  0.99044628  0.29275294  1
  Cs  Cs4  1  0.75000000  0.82979565  0.08268214  1
  Cs  Cs5  1  0.75000000  0.32979565  0.41731786  1
  Cs  Cs6  1  0.25000000  0.17020435  0.91731786  1
  Cs  Cs7  1  0.25000000  0.67020435  0.58268214  1
  W  W0  1  0.75000000  0.27508377  0.07933403  1
  W  W1  1  0.75000000  0.77508377  0.42066597  1
  W  W2  1  0.25000000  0.72491623  0.92066597  1
  W  W3  1  0.25000000  0.22491623  0.57933403  1
  O  O0  1  0.75000000  0.48391970  0.08120712  1
  O  O1  1  0.75000000  0.98391970  0.41879288  1
  O  O2  1  0.25000000  0.51608030  0.91879288  1
  O  O3  1  0.25000000  0.01608030  0.58120712  1
  O  O4  1  0.75000000  0.20464058  0.93438639  1
  O  O5  1  0.75000000  0.70464058  0.56561361  1
  O  O6  1  0.25000000  0.79535942  0.06561361  1
  O  O7  1  0.25000000  0.29535942  0.43438639  1
  O  O8  1  0.97308897  0.20295075  0.14990456  1
  O  O9  1  0.52691103  0.70295075  0.35009544  1
  O  O10  1  0.47308897  0.79704925  0.85009544  1
  O  O11  1  0.02691103  0.29704925  0.64990456  1
  O  O12  1  0.02691103  0.79704925  0.85009544  1
  O  O13  1  0.47308897  0.29704925  0.64990456  1
  O  O14  1  0.52691103  0.20295075  0.14990456  1
  O  O15  1  0.97308897  0.70295075  0.35009544  1
loop_
_geom_bond_atom_site_label_1
_geom_bond_atom_site_label_2
_geom_bond_distance
_geom_bond_site_symmetry_2
Cs0 O13 3.066075 1_555
Cs0 O11 3.066075 1_655
Cs0 O4 3.088696 1_555
Cs0 O5 3.131461 1_555
Cs0 O10 3.133605 1_555
Cs0 O12 3.133605 1_655
Cs0 O0 3.371356 1_556
Cs0 O2 3.602450 1_655
Cs0 O2 3.602450 1_555
Cs1 O12 3.066075 1_645
Cs1 O10 3.066075 1_545
Cs1 O5 3.088696 1_545
Cs1 O4 3.131461 1_555
Cs1 O13 3.133605 1_555
Cs1 O11 3.133605 1_655
Cs1 O1 3.371356 1_545
Cs1 O3 3.602450 1_555
Cs1 O3 3.602450 1_655
Cs2 O15 3.066075 1_455
Cs2 O9 3.066075 1_555
Cs2 O6 3.088696 1_555
Cs2 O7 3.131461 1_555
Cs2 O8 3.133605 1_455
Cs2 O14 3.133605 1_555
Cs2 O2 3.371356 1_554
Cs2 O0 3.602450 1_455
Cs2 O0 3.602450 1_555
Cs3 O14 3.066075 1_565
Cs3 O8 3.066075 1_465
Cs3 O7 3.088696 1_565
Cs3 O6 3.131461 1_555
Cs3 O9 3.133605 1_555
Cs3 O15 3.133605 1_455
Cs3 O3 3.371356 1_565
Cs3 O1 3.602450 1_455
Cs3 O1 3.602450 1_555
Cs4 O0 2.960535 1_555
Cs4 O10 3.279282 1_554
Cs4 O12 3.279282 1_654
Cs4 O6 3.307591 1_655
Cs4 O6 3.307591 1_555
Cs4 O8 3.601234 1_565
Cs4 O14 3.601234 1_565
Cs4 O15 3.613653 1_555
Cs4 O9 3.613653 1_555
Cs4 O4 3.644923 1_564
Cs5 O1 2.960535 1_545
Cs5 O13 3.279282 1_555
Cs5 O11 3.279282 1_655
Cs5 O7 3.307591 1_655
Cs5 O7 3.307591 1_555
Cs5 O9 3.601234 1_555
Cs5 O15 3.601234 1_555
Cs5 O14 3.613653 1_555
Cs5 O8 3.613653 1_555
Cs5 O5 3.644923 1_555
Cs6 O2 2.960535 1_555
Cs6 O14 3.279282 1_556
Cs6 O8 3.279282 1_456
Cs6 O4 3.307591 1_455
Cs6 O4 3.307591 1_555
Cs6 O12 3.601234 1_545
Cs6 O10 3.601234 1_545
Cs6 O13 3.613653 1_555
Cs6 O11 3.613653 1_555
Cs6 O6 3.644923 1_546
Cs7 O3 2.960535 1_565
Cs7 O15 3.279282 1_455
Cs7 O9 3.279282 1_555
Cs7 O5 3.307591 1_555
Cs7 O5 3.307591 1_455
Cs7 O11 3.601234 1_555
Cs7 O13 3.601234 1_555
Cs7 O10 3.613653 1_555
Cs7 O12 3.613653 1_555
Cs7 O7 3.644923 1_555
O0 W0 1.787640 1_555
O1 W1 1.787640 1_555
O2 W2 1.787640 1_555
O3 W3 1.787640 1_555
O4 W0 1.794817 1_556
O5 W1 1.794817 1_555
O6 W2 1.794817 1_554
O7 W3 1.794817 1_555
O8 W0 1.792023 1_555
O9 W1 1.792023 1_555
O10 W2 1.792023 1_555
O11 W3 1.792023 1_555
O12 W2 1.792023 1_555
O13 W3 1.792023 1_555
O14 W0 1.792023 1_555
O15 W1 1.792023 1_555
