# generated using pymatgen
data_MnCd2S3
_symmetry_space_group_name_H-M   'P 1'
_cell_length_a   7.86909608
_cell_length_b   7.86909608
_cell_length_c   9.80618884
_cell_angle_alpha   75.42762003
_cell_angle_beta   75.42762003
_cell_angle_gamma   30.45446627
_symmetry_Int_Tables_number   1
_chemical_formula_structural   MnCd2S3
_chemical_formula_sum   'Mn2 Cd4 S6'
_cell_volume   297.12664094
_cell_formula_units_Z   2
loop_
 _symmetry_equiv_pos_site_id
 _symmetry_equiv_pos_as_xyz
  1  'x, y, z'
loop_
 _atom_site_type_symbol
 _atom_site_label
 _atom_site_symmetry_multiplicity
 _atom_site_fract_x
 _atom_site_fract_y
 _atom_site_fract_z
 _atom_site_occupancy
  Mn  Mn0  1  0.90452200  0.90452200  0.56812800  1
  Mn  Mn1  1  0.56866100  0.56866100  0.23952000  1
  Cd  Cd0  1  0.84797700  0.84797700  0.18219100  1
  Cd  Cd1  1  0.51212800  0.51212800  0.84733200  1
  Cd  Cd2  1  0.17993100  0.17993100  0.51041400  1
  Cd  Cd3  1  0.23783200  0.23783200  0.90272600  1
  S  S0  1  0.71589000  0.71589000  0.06447500  1
  S  S1  1  0.38965100  0.38965100  0.70897200  1
  S  S2  1  0.05074900  0.05074900  0.38323200  1
  S  S3  1  0.11054000  0.11054000  0.77667200  1
  S  S4  1  0.78280500  0.78280500  0.45043400  1
  S  S5  1  0.44960300  0.44960300  0.11590500  1
loop_
_geom_bond_atom_site_label_1
_geom_bond_atom_site_label_2
_geom_bond_distance
_geom_bond_site_symmetry_2
Mn0 S4 2.420937 1_555
Mn0 S1 2.463242 1_565
Mn0 S1 2.463242 1_655
Mn0 S2 2.473577 1_665
Mn1 S5 2.425105 1_555
Mn1 S0 2.437964 1_555
Mn1 S2 2.476242 1_565
Mn1 S2 2.476242 1_655
Cd0 S4 2.557544 1_555
Cd0 S5 2.559819 1_565
Cd0 S5 2.559819 1_655
Cd0 S0 2.561910 1_555
Cd1 S3 2.538726 1_565
Cd1 S3 2.538726 1_655
Cd1 S5 2.556102 1_556
Cd1 S1 2.572177 1_555
Cd2 S3 2.548084 1_555
Cd2 S4 2.564940 1_455
Cd2 S4 2.564940 1_545
Cd2 S2 2.584509 1_555
Cd3 S3 2.551591 1_555
Cd3 S0 2.573502 1_546
Cd3 S0 2.573502 1_456
Cd3 S1 2.576960 1_555
