# generated using pymatgen
data_La2Al(Ni3H4)3
_symmetry_space_group_name_H-M   'P 1'
_cell_length_a   5.58041671
_cell_length_b   5.58041671
_cell_length_c   7.81067700
_cell_angle_alpha   90.00000000
_cell_angle_beta   90.00000000
_cell_angle_gamma   115.68546481
_symmetry_Int_Tables_number   1
_chemical_formula_structural   La2Al(Ni3H4)3
_chemical_formula_sum   'La2 Al1 Ni9 H12'
_cell_volume   219.19813816
_cell_formula_units_Z   1
loop_
 _symmetry_equiv_pos_site_id
 _symmetry_equiv_pos_as_xyz
  1  'x, y, z'
loop_
 _atom_site_type_symbol
 _atom_site_label
 _atom_site_symmetry_multiplicity
 _atom_site_fract_x
 _atom_site_fract_y
 _atom_site_fract_z
 _atom_site_occupancy
  La  La0  1  0.00000000  0.00000000  0.24869300  1
  La  La1  1  0.00000000  0.00000000  0.75130700  1
  Al  Al0  1  0.50000000  0.50000000  0.00000000  1
  Ni  Ni0  1  0.65448600  0.34551400  0.24722200  1
  Ni  Ni1  1  0.34551400  0.65448600  0.24722200  1
  Ni  Ni2  1  0.65448600  0.34551400  0.75277800  1
  Ni  Ni3  1  0.34551400  0.65448600  0.75277800  1
  Ni  Ni4  1  0.50000000  0.00000000  0.50000000  1
  Ni  Ni5  1  0.00000000  0.50000000  0.50000000  1
  Ni  Ni6  1  0.50000000  0.50000000  0.50000000  1
  Ni  Ni7  1  0.50000000  0.00000000  0.00000000  1
  Ni  Ni8  1  0.00000000  0.50000000  0.00000000  1
  H  H0  1  0.18424900  0.35463300  0.50000000  1
  H  H1  1  0.64536700  0.81575100  0.50000000  1
  H  H2  1  0.18485400  0.81514600  0.50000000  1
  H  H3  1  0.81575100  0.64536700  0.50000000  1
  H  H4  1  0.35463300  0.18424900  0.50000000  1
  H  H5  1  0.81514600  0.18485400  0.50000000  1
  H  H6  1  0.12459300  0.29894900  0.00000000  1
  H  H7  1  0.70105100  0.87540700  0.00000000  1
  H  H8  1  0.19932000  0.80068000  0.00000000  1
  H  H9  1  0.87540700  0.70105100  0.00000000  1
  H  H10  1  0.29894900  0.12459300  0.00000000  1
  H  H11  1  0.80068000  0.19932000  0.00000000  1
loop_
_geom_bond_atom_site_label_1
_geom_bond_atom_site_label_2
_geom_bond_distance
_geom_bond_site_symmetry_2
Al0 H9 1.900005 1_555
Al0 H7 1.900005 1_555
Al0 H10 1.900005 1_555
Al0 H6 1.900005 1_555
Al0 Ni0 2.420605 1_555
Al0 Ni1 2.420605 1_555
Al0 Ni2 2.420605 1_554
Al0 Ni3 2.420605 1_554
H0 Ni5 1.561490 1_555
H0 Ni6 1.588622 1_555
H0 La1 2.657560 1_555
H0 La0 2.657560 1_555
H1 Ni4 1.561490 1_565
H1 Ni6 1.588622 1_555
H1 La1 2.657560 1_665
H1 La0 2.657560 1_665
H2 Ni5 1.607588 1_555
H2 Ni4 1.607588 1_565
H2 La1 2.627466 1_565
H2 La0 2.627466 1_565
H3 Ni5 1.561490 1_655
H3 Ni6 1.588622 1_555
H3 La1 2.657560 1_665
H3 La0 2.657560 1_665
H4 Ni4 1.561490 1_555
H4 Ni6 1.588622 1_555
H4 La1 2.657560 1_555
H4 La0 2.657560 1_555
H5 Ni4 1.607588 1_555
H5 Ni5 1.607588 1_655
H5 La1 2.627466 1_655
H5 La0 2.627466 1_655
H6 Ni8 1.555119 1_555
H6 La0 2.456457 1_555
H6 La1 2.456457 1_554
H7 Ni7 1.555119 1_565
H7 La0 2.456457 1_665
H7 La1 2.456457 1_664
H8 Ni7 1.560369 1_565
H8 Ni8 1.560369 1_555
H9 Ni8 1.555119 1_655
H9 La0 2.456457 1_665
H9 La1 2.456457 1_664
H10 Ni7 1.555119 1_555
H10 La0 2.456457 1_555
H10 La1 2.456457 1_554
H11 Ni8 1.560369 1_655
H11 Ni7 1.560369 1_555
