# generated using pymatgen
data_GdAl3(BO3)4
_symmetry_space_group_name_H-M   'P 1'
_cell_length_a   5.94365762
_cell_length_b   5.94365762
_cell_length_c   5.94365718
_cell_angle_alpha   104.23563862
_cell_angle_beta   104.23563862
_cell_angle_gamma   104.23564114
_symmetry_Int_Tables_number   1
_chemical_formula_structural   GdAl3(BO3)4
_chemical_formula_sum   'Gd1 Al3 B4 O12'
_cell_volume   186.49044926
_cell_formula_units_Z   1
loop_
 _symmetry_equiv_pos_site_id
 _symmetry_equiv_pos_as_xyz
  1  'x, y, z'
loop_
 _atom_site_type_symbol
 _atom_site_label
 _atom_site_symmetry_multiplicity
 _atom_site_fract_x
 _atom_site_fract_y
 _atom_site_fract_z
 _atom_site_occupancy
  Gd  Gd0  1  0.00000000  0.00000000  0.00000000  1
  Al  Al0  1  0.00000000  0.44457400  0.55542600  1
  Al  Al1  1  0.55542600  0.00000000  0.44457400  1
  Al  Al2  1  0.44457400  0.55542600  0.00000000  1
  B  B0  1  0.50000000  0.05710100  0.94289900  1
  B  B1  1  0.94289900  0.50000000  0.05710100  1
  B  B2  1  0.05710100  0.94289900  0.50000000  1
  B  B3  1  0.50000000  0.50000000  0.50000000  1
  O  O0  1  0.22258400  0.97215200  0.37487900  1
  O  O1  1  0.62512100  0.02784800  0.77741600  1
  O  O2  1  0.02784800  0.77741600  0.62512100  1
  O  O3  1  0.77741600  0.62512100  0.02784800  1
  O  O4  1  0.64860700  0.35139300  0.50000000  1
  O  O5  1  0.35139300  0.50000000  0.64860700  1
  O  O6  1  0.50000000  0.64860700  0.35139300  1
  O  O7  1  0.90869500  0.09130500  0.50000000  1
  O  O8  1  0.09130500  0.50000000  0.90869500  1
  O  O9  1  0.50000000  0.90869500  0.09130500  1
  O  O10  1  0.97215200  0.37487900  0.22258400  1
  O  O11  1  0.37487900  0.22258400  0.97215200  1
loop_
_geom_bond_atom_site_label_1
_geom_bond_atom_site_label_2
_geom_bond_distance
_geom_bond_site_symmetry_2
Gd0 O2 2.362541 1_544
Gd0 O0 2.362541 1_545
Gd0 O3 2.362541 1_445
Gd0 O11 2.362541 1_554
Gd0 O1 2.362541 1_454
Gd0 O10 2.362541 1_455
Al0 O10 1.874793 1_455
Al0 O2 1.874793 1_555
Al0 O4 1.944304 1_455
Al0 O5 1.944304 1_555
Al0 O8 1.955318 1_555
Al0 O7 1.955318 1_455
Al1 O1 1.874793 1_555
Al1 O0 1.874793 1_545
Al1 O4 1.944304 1_555
Al1 O6 1.944304 1_545
Al1 O9 1.955318 1_545
Al1 O7 1.955318 1_555
Al2 O3 1.874793 1_555
Al2 O11 1.874793 1_554
Al2 O5 1.944304 1_554
Al2 O6 1.944304 1_555
Al2 O8 1.955318 1_554
Al2 O9 1.955318 1_555
B0 O1 1.374750 1_555
B0 O11 1.374750 1_555
B0 O9 1.392399 1_546
B1 O10 1.374750 1_555
B1 O3 1.374750 1_555
B1 O8 1.392399 1_654
B2 O0 1.374750 1_555
B2 O2 1.374750 1_555
B2 O7 1.392399 1_465
B3 O6 1.394285 1_555
B3 O5 1.394285 1_555
B3 O4 1.394285 1_555
