# generated using pymatgen
data_Sr2CrSO3
_symmetry_space_group_name_H-M   'P 1'
_cell_length_a   3.99331600
_cell_length_b   3.99331600
_cell_length_c   14.66869300
_cell_angle_alpha   90.00000000
_cell_angle_beta   90.00000000
_cell_angle_gamma   90.00000000
_symmetry_Int_Tables_number   1
_chemical_formula_structural   Sr2CrSO3
_chemical_formula_sum   'Sr4 Cr2 S2 O6'
_cell_volume   233.91537898
_cell_formula_units_Z   2
loop_
 _symmetry_equiv_pos_site_id
 _symmetry_equiv_pos_as_xyz
  1  'x, y, z'
loop_
 _atom_site_type_symbol
 _atom_site_label
 _atom_site_symmetry_multiplicity
 _atom_site_fract_x
 _atom_site_fract_y
 _atom_site_fract_z
 _atom_site_occupancy
  Sr  Sr0  1  0.00000000  0.50000000  0.16467200  1
  Sr  Sr1  1  0.50000000  0.00000000  0.83532800  1
  Sr  Sr2  1  0.00000000  0.50000000  0.40788200  1
  Sr  Sr3  1  0.50000000  0.00000000  0.59211800  1
  Cr  Cr0  1  0.50000000  0.00000000  0.29272000  1
  Cr  Cr1  1  0.00000000  0.50000000  0.70728000  1
  S  S0  1  0.50000000  0.00000000  0.11983000  1
  S  S1  1  0.00000000  0.50000000  0.88017000  1
  O  O0  1  0.00000000  0.00000000  0.29001800  1
  O  O1  1  0.50000000  0.50000000  0.29001800  1
  O  O2  1  0.50000000  0.50000000  0.70998200  1
  O  O3  1  0.00000000  0.00000000  0.70998200  1
  O  O4  1  0.50000000  0.00000000  0.42346300  1
  O  O5  1  0.00000000  0.50000000  0.57653700  1
loop_
_geom_bond_atom_site_label_1
_geom_bond_atom_site_label_2
_geom_bond_distance
_geom_bond_site_symmetry_2
Cr0 O4 1.917829 1_555
Cr0 O1 1.997051 1_545
Cr0 O0 1.997051 1_555
Cr0 O0 1.997051 1_655
Cr0 O1 1.997051 1_555
Cr0 S0 2.536070 1_555
Cr1 O5 1.917829 1_555
Cr1 O2 1.997051 1_455
Cr1 O2 1.997051 1_555
Cr1 O3 1.997051 1_555
Cr1 O3 1.997051 1_565
Cr1 S1 2.536070 1_555
S0 Sr0 2.899302 1_645
S0 Sr0 2.899302 1_555
S0 Sr0 2.899302 1_655
S0 Sr0 2.899302 1_545
S1 Sr1 2.899302 1_455
S1 Sr1 2.899302 1_555
S1 Sr1 2.899302 1_565
S1 Sr1 2.899302 1_465
O0 Sr2 2.641169 1_545
O0 Sr2 2.641169 1_555
O0 Sr0 2.714281 1_555
O0 Sr0 2.714281 1_545
O1 Sr2 2.641169 1_555
O1 Sr2 2.641169 1_655
O1 Sr0 2.714281 1_555
O1 Sr0 2.714281 1_655
O2 Sr3 2.641169 1_565
O2 Sr3 2.641169 1_555
O2 Sr1 2.714281 1_555
O2 Sr1 2.714281 1_565
O3 Sr3 2.641169 1_555
O3 Sr3 2.641169 1_455
O3 Sr1 2.714281 1_555
O3 Sr1 2.714281 1_455
O4 Sr3 2.473948 1_555
O4 Sr2 2.832935 1_645
O4 Sr2 2.832935 1_555
O4 Sr2 2.832935 1_545
O4 Sr2 2.832935 1_655
O5 Sr2 2.473948 1_555
O5 Sr3 2.832935 1_465
O5 Sr3 2.832935 1_455
O5 Sr3 2.832935 1_555
O5 Sr3 2.832935 1_565
