# generated using pymatgen
data_AgSbPd2
_symmetry_space_group_name_H-M   'P 1'
_cell_length_a   10.70003542
_cell_length_b   10.70003542
_cell_length_c   10.70003542
_cell_angle_alpha   123.84130784
_cell_angle_beta   118.84339548
_cell_angle_gamma   87.74701802
_symmetry_Int_Tables_number   1
_chemical_formula_structural   AgSbPd2
_chemical_formula_sum   'Ag1 Sb1 Pd2'
_cell_volume   845.83764353
_cell_formula_units_Z   1
loop_
 _symmetry_equiv_pos_site_id
 _symmetry_equiv_pos_as_xyz
  1  'x, y, z'
loop_
 _atom_site_type_symbol
 _atom_site_label
 _atom_site_symmetry_multiplicity
 _atom_site_fract_x
 _atom_site_fract_y
 _atom_site_fract_z
 _atom_site_occupancy
  Ag  Ag0  1  0.00000000  0.00000000  0.00000000  1
  Sb  Sb0  1  0.00000000  0.50000000  0.50000000  1
  Pd  Pd0  1  0.00000000  0.26272900  0.26272900  1
  Pd  Pd1  1  0.00000000  0.73727100  0.73727100  1
loop_
_geom_bond_atom_site_label_1
_geom_bond_atom_site_label_2
_geom_bond_distance
_geom_bond_site_symmetry_2
Ag0 Pd1 2.646438 1_544
Ag0 Pd0 2.646438 1_555
Pd0 Sb0 2.390003 1_555
Pd1 Sb0 2.390003 1_555
