# generated using pymatgen
data_In3Mo15Se19
_symmetry_space_group_name_H-M   'P 1'
_cell_length_a   19.68753800
_cell_length_b   9.91627300
_cell_length_c   9.98722598
_cell_angle_alpha   60.50439227
_cell_angle_beta   90.00000000
_cell_angle_gamma   90.00000000
_symmetry_Int_Tables_number   1
_chemical_formula_structural   In3Mo15Se19
_chemical_formula_sum   'In6 Mo30 Se38'
_cell_volume   1697.07240232
_cell_formula_units_Z   2
loop_
 _symmetry_equiv_pos_site_id
 _symmetry_equiv_pos_as_xyz
  1  'x, y, z'
loop_
 _atom_site_type_symbol
 _atom_site_label
 _atom_site_symmetry_multiplicity
 _atom_site_fract_x
 _atom_site_fract_y
 _atom_site_fract_z
 _atom_site_occupancy
  In  In0  1  0.37555600  0.32353300  0.33385800  1
  In  In1  1  0.87555600  0.67646700  0.66614200  1
  In  In2  1  0.62444400  0.67646700  0.66614200  1
  In  In3  1  0.12444400  0.32353300  0.33385800  1
  In  In4  1  0.25000000  0.77934200  0.18120500  1
  In  In5  1  0.75000000  0.22065800  0.81879500  1
  Mo  Mo0  1  0.36601300  0.68251900  0.81305100  1
  Mo  Mo1  1  0.36447600  0.50383800  0.68602500  1
  Mo  Mo2  1  0.36544100  0.81153400  0.50924200  1
  Mo  Mo3  1  0.86601300  0.31748100  0.18694900  1
  Mo  Mo4  1  0.86447600  0.49616200  0.31397500  1
  Mo  Mo5  1  0.86544100  0.18846600  0.49075800  1
  Mo  Mo6  1  0.63398700  0.31748100  0.18694900  1
  Mo  Mo7  1  0.63552400  0.49616200  0.31397500  1
  Mo  Mo8  1  0.63455900  0.18846600  0.49075800  1
  Mo  Mo9  1  0.13398700  0.68251900  0.81305100  1
  Mo  Mo10  1  0.13552400  0.50383800  0.68602500  1
  Mo  Mo11  1  0.13455900  0.81153400  0.50924200  1
  Mo  Mo12  1  0.44422400  0.98336700  0.85269500  1
  Mo  Mo13  1  0.44423300  0.16242600  0.98729600  1
  Mo  Mo14  1  0.44246800  0.85149600  0.16239800  1
  Mo  Mo15  1  0.94422400  0.01663300  0.14730500  1
  Mo  Mo16  1  0.94423300  0.83757400  0.01270400  1
  Mo  Mo17  1  0.94246800  0.14850400  0.83760200  1
  Mo  Mo18  1  0.55577600  0.01663300  0.14730500  1
  Mo  Mo19  1  0.55576700  0.83757400  0.01270400  1
  Mo  Mo20  1  0.55753200  0.14850400  0.83760200  1
  Mo  Mo21  1  0.05577600  0.98336700  0.85269500  1
  Mo  Mo22  1  0.05576700  0.16242600  0.98729600  1
  Mo  Mo23  1  0.05753200  0.85149600  0.16239800  1
  Mo  Mo24  1  0.25000000  0.82834300  0.65679400  1
  Mo  Mo25  1  0.25000000  0.51093300  0.83019700  1
  Mo  Mo26  1  0.25000000  0.65436100  0.51016900  1
  Mo  Mo27  1  0.75000000  0.17165700  0.34320600  1
  Mo  Mo28  1  0.75000000  0.48906700  0.16980300  1
  Mo  Mo29  1  0.75000000  0.34563900  0.48983100  1
  Se  Se0  1  0.25000000  0.68745500  0.95522500  1
  Se  Se1  1  0.25000000  0.35489300  0.68523600  1
  Se  Se2  1  0.25000000  0.95860700  0.35876500  1
  Se  Se3  1  0.75000000  0.31254500  0.04477500  1
  Se  Se4  1  0.75000000  0.64510700  0.31476400  1
  Se  Se5  1  0.75000000  0.04139300  0.64123500  1
  Se  Se6  1  0.33970200  0.00633000  0.98995700  1
  Se  Se7  1  0.83970200  0.99367000  0.01004300  1
  Se  Se8  1  0.66029800  0.99367000  0.01004300  1
  Se  Se9  1  0.16029800  0.00633000  0.98995700  1
  Se  Se10  1  0.35843100  0.98840800  0.63486600  1
  Se  Se11  1  0.35801300  0.37871100  0.98887000  1
  Se  Se12  1  0.36643500  0.62485300  0.38961500  1
  Se  Se13  1  0.85843100  0.01159200  0.36513400  1
  Se  Se14  1  0.85801300  0.62128900  0.01113000  1
  Se  Se15  1  0.86643500  0.37514700  0.61038500  1
  Se  Se16  1  0.64156900  0.01159200  0.36513400  1
  Se  Se17  1  0.64198700  0.62128900  0.01113000  1
  Se  Se18  1  0.63356500  0.37514700  0.61038500  1
  Se  Se19  1  0.14156900  0.98840800  0.63486600  1
  Se  Se20  1  0.14198700  0.37871100  0.98887000  1
  Se  Se21  1  0.13356500  0.62485300  0.38961500  1
  Se  Se22  1  0.44746500  0.68023000  0.03390200  1
  Se  Se23  1  0.45015300  0.28680500  0.68593300  1
  Se  Se24  1  0.44665500  0.02900400  0.28724000  1
  Se  Se25  1  0.94746500  0.31977000  0.96609800  1
  Se  Se26  1  0.95015300  0.71319500  0.31406700  1
  Se  Se27  1  0.94665500  0.97099600  0.71276000  1
  Se  Se28  1  0.55253500  0.31977000  0.96609800  1
  Se  Se29  1  0.54984700  0.71319500  0.31406700  1
  Se  Se30  1  0.55334500  0.97099600  0.71276000  1
  Se  Se31  1  0.05253500  0.68023000  0.03390200  1
  Se  Se32  1  0.04984700  0.28680500  0.68593300  1
  Se  Se33  1  0.05334500  0.02900400  0.28724000  1
  Se  Se34  1  0.96883800  0.33204700  0.33088700  1
  Se  Se35  1  0.46883800  0.66795300  0.66911300  1
  Se  Se36  1  0.03116200  0.66795300  0.66911300  1
  Se  Se37  1  0.53116200  0.33204700  0.33088700  1
loop_
_geom_bond_atom_site_label_1
_geom_bond_atom_site_label_2
_geom_bond_distance
_geom_bond_site_symmetry_2
In0 Se37 3.064403 1_555
In0 Se10 3.218251 1_545
In0 Se11 3.230100 1_554
In0 Se12 3.302840 1_555
In1 Se36 3.064403 1_655
In1 Se13 3.218251 1_565
In1 Se14 3.230100 1_556
In1 Se15 3.302840 1_555
In2 Se35 3.064403 1_555
In2 Se16 3.218251 1_565
In2 Se17 3.230100 1_556
In2 Se18 3.302840 1_555
In3 Se34 3.064403 1_455
In3 Se19 3.218251 1_545
In3 Se20 3.230100 1_554
In3 Se21 3.302840 1_555
In4 Se6 2.756799 1_564
In4 Se9 2.756799 1_564
In4 Se0 2.819381 1_554
In4 Mo26 2.884533 1_555
In4 Se21 2.965479 1_555
In4 Se12 2.965479 1_555
In4 Se2 3.067388 1_555
In5 Se7 2.756799 1_546
In5 Se8 2.756799 1_546
In5 Se3 2.819381 1_556
In5 Mo29 2.884533 1_555
In5 Se15 2.965479 1_555
In5 Se18 2.965479 1_555
In5 Se5 3.067388 1_555
Mo0 Se35 2.527831 1_555
Mo0 Se11 2.641022 1_555
Mo0 Se10 2.659796 1_555
Mo0 Se0 2.702540 1_555
Mo0 Se22 2.718047 1_556
Mo1 Se35 2.574456 1_555
Mo1 Se12 2.589761 1_555
Mo1 Se11 2.647327 1_555
Mo1 Se1 2.696735 1_555
Mo1 Se23 2.734762 1_555
Mo1 Mo26 2.794730 1_555
Mo2 Se35 2.545929 1_555
Mo2 Se10 2.614639 1_555
Mo2 Se12 2.651892 1_555
Mo2 Se2 2.718942 1_555
Mo2 Se24 2.722977 1_565
Mo2 Mo26 2.753254 1_555
Mo3 Se34 2.527831 1_555
Mo3 Se14 2.641022 1_555
Mo3 Se13 2.659796 1_555
Mo3 Se3 2.702540 1_555
Mo3 Se25 2.718047 1_554
Mo4 Se34 2.574456 1_555
Mo4 Se15 2.589761 1_555
Mo4 Se14 2.647327 1_555
Mo4 Se4 2.696735 1_555
Mo4 Se26 2.734762 1_555
Mo5 Se34 2.545929 1_555
Mo5 Se13 2.614639 1_555
Mo5 Se15 2.651892 1_555
Mo5 Se5 2.718942 1_555
Mo5 Se27 2.722977 1_545
Mo6 Se37 2.527831 1_555
Mo6 Se17 2.641022 1_555
Mo6 Se16 2.659796 1_555
Mo6 Se3 2.702540 1_555
Mo6 Se28 2.718047 1_554
Mo7 Se37 2.574456 1_555
Mo7 Se18 2.589761 1_555
Mo7 Se17 2.647327 1_555
Mo7 Se4 2.696735 1_555
Mo7 Se29 2.734762 1_555
Mo8 Se37 2.545929 1_555
Mo8 Se16 2.614639 1_555
Mo8 Se18 2.651892 1_555
Mo8 Se5 2.718942 1_555
Mo8 Se30 2.722977 1_545
Mo9 Se36 2.527831 1_555
Mo9 Se20 2.641022 1_555
Mo9 Se19 2.659796 1_555
Mo9 Se0 2.702540 1_555
Mo9 Se31 2.718047 1_556
Mo10 Se36 2.574456 1_555
Mo10 Se21 2.589761 1_555
Mo10 Se20 2.647327 1_555
Mo10 Se1 2.696735 1_555
Mo10 Se32 2.734762 1_555
Mo10 Mo26 2.794730 1_555
Mo11 Se36 2.545929 1_555
Mo11 Se19 2.614639 1_555
Mo11 Se21 2.651892 1_555
Mo11 Se2 2.718942 1_555
Mo11 Se33 2.722977 1_565
Mo11 Mo26 2.753254 1_555
Mo12 Se6 2.544204 1_565
Mo12 Se30 2.598528 1_555
Mo12 Se23 2.628041 1_565
Mo12 Se22 2.637861 1_556
Mo12 Se10 2.735168 1_555
Mo13 Se6 2.567363 1_555
Mo13 Se28 2.588485 1_555
Mo13 Se24 2.612212 1_556
Mo13 Se23 2.634034 1_555
Mo13 Se11 2.741301 1_555
Mo14 Se29 2.568811 1_555
Mo14 Se22 2.585933 1_555
Mo14 Se6 2.610161 1_564
Mo14 Se24 2.611680 1_565
Mo14 Se12 2.723826 1_555
Mo15 Se7 2.544204 1_545
Mo15 Se33 2.598528 1_655
Mo15 Se26 2.628041 1_545
Mo15 Se25 2.637861 1_554
Mo15 Se13 2.735168 1_555
Mo16 Se7 2.567363 1_555
Mo16 Se31 2.588485 1_655
Mo16 Se27 2.612212 1_554
Mo16 Se26 2.634034 1_555
Mo16 Se14 2.741301 1_555
Mo17 Se32 2.568811 1_655
Mo17 Se25 2.585933 1_555
Mo17 Se7 2.610161 1_546
Mo17 Se27 2.611680 1_545
Mo17 Se15 2.723826 1_555
Mo18 Se8 2.544204 1_545
Mo18 Se24 2.598528 1_555
Mo18 Se29 2.628041 1_545
Mo18 Se28 2.637861 1_554
Mo18 Se16 2.735168 1_555
Mo19 Se8 2.567363 1_555
Mo19 Se22 2.588485 1_555
Mo19 Se30 2.612212 1_554
Mo19 Se29 2.634034 1_555
Mo19 Se17 2.741301 1_555
Mo20 Se23 2.568811 1_555
Mo20 Se28 2.585933 1_555
Mo20 Se8 2.610161 1_546
Mo20 Se30 2.611680 1_545
Mo20 Se18 2.723826 1_555
Mo21 Se9 2.544204 1_565
Mo21 Se27 2.598528 1_455
Mo21 Se32 2.628041 1_565
Mo21 Se31 2.637861 1_556
Mo21 Se19 2.735168 1_555
Mo22 Se9 2.567363 1_555
Mo22 Se25 2.588485 1_455
Mo22 Se33 2.612212 1_556
Mo22 Se32 2.634034 1_555
Mo22 Se20 2.741301 1_555
Mo23 Se26 2.568811 1_455
Mo23 Se31 2.585933 1_555
Mo23 Se9 2.610161 1_564
Mo23 Se33 2.611680 1_565
Mo23 Se21 2.723826 1_555
Mo24 Se0 2.595160 1_555
Mo24 Se2 2.596532 1_555
Mo24 Se10 2.604254 1_555
Mo24 Se19 2.604254 1_555
Mo24 Mo26 2.758387 1_555
Mo25 Se1 2.587697 1_555
Mo25 Se11 2.589676 1_555
Mo25 Se20 2.589676 1_555
Mo25 Se0 2.602995 1_555
Mo25 Mo26 2.786061 1_555
Mo26 Se1 2.600537 1_555
Mo26 Se2 2.626101 1_555
Mo26 Se12 2.671493 1_555
Mo26 Se21 2.671493 1_555
Mo27 Se3 2.595160 1_555
Mo27 Se5 2.596532 1_555
Mo27 Se13 2.604254 1_555
Mo27 Se16 2.604254 1_555
Mo27 Mo29 2.758387 1_555
Mo28 Se4 2.587697 1_555
Mo28 Se14 2.589676 1_555
Mo28 Se17 2.589676 1_555
Mo28 Se3 2.602995 1_555
Mo28 Mo29 2.786061 1_555
Mo29 Se4 2.600537 1_555
Mo29 Se5 2.626101 1_555
Mo29 Se15 2.671493 1_555
Mo29 Se18 2.671493 1_555
Mo29 Mo8 2.753254 1_555
Mo29 Mo5 2.753254 1_555
Mo29 Mo4 2.794730 1_555
Mo29 Mo7 2.794730 1_555
