# generated using pymatgen
data_ErCdGa
_symmetry_space_group_name_H-M   'P 1'
_cell_length_a   7.14633216
_cell_length_b   7.14633216
_cell_length_c   4.35581384
_cell_angle_alpha   90.00000000
_cell_angle_beta   90.00000000
_cell_angle_gamma   120.00000134
_symmetry_Int_Tables_number   1
_chemical_formula_structural   ErCdGa
_chemical_formula_sum   'Er3 Cd3 Ga3'
_cell_volume   192.64881118
_cell_formula_units_Z   3
loop_
 _symmetry_equiv_pos_site_id
 _symmetry_equiv_pos_as_xyz
  1  'x, y, z'
loop_
 _atom_site_type_symbol
 _atom_site_label
 _atom_site_symmetry_multiplicity
 _atom_site_fract_x
 _atom_site_fract_y
 _atom_site_fract_z
 _atom_site_occupancy
  Er  Er0  1  0.42466334  0.42466334  0.50000000  1
  Er  Er1  1  0.57533666  0.00000000  0.50000000  1
  Er  Er2  1  0.00000000  0.57533666  0.50000000  1
  Cd  Cd0  1  0.75040220  0.75040220  0.00000000  1
  Cd  Cd1  1  0.24959780  -0.00000000  -0.00000000  1
  Cd  Cd2  1  -0.00000000  0.24959780  0.00000000  1
  Ga  Ga0  1  0.66666700  0.33333300  -0.00000000  1
  Ga  Ga1  1  0.33333300  0.66666700  -0.00000000  1
  Ga  Ga2  1  0.00000000  -0.00000000  0.50000000  1
loop_
_geom_bond_atom_site_label_1
_geom_bond_atom_site_label_2
_geom_bond_distance
_geom_bond_site_symmetry_2
Er0 Ga2 3.034785 1_555
Er0 Ga0 3.047784 1_556
Er0 Ga0 3.047784 1_555
Er0 Ga1 3.047784 1_556
Er0 Ga1 3.047784 1_555
Er1 Ga2 3.034785 1_655
Er1 Ga0 3.047779 1_556
Er1 Ga0 3.047779 1_555
Er1 Ga1 3.047781 1_546
Er1 Ga1 3.047781 1_545
Er2 Ga2 3.034785 1_565
Er2 Ga1 3.047779 1_555
Er2 Ga1 3.047779 1_556
Er2 Ga0 3.047781 1_456
Er2 Ga0 3.047781 1_455
Cd0 Ga0 2.730936 1_555
Cd0 Ga1 2.730936 1_555
Cd0 Ga2 2.815119 1_665
Cd0 Ga2 2.815119 1_664
Cd0 Cd1 3.089474 1_665
Cd0 Cd2 3.089474 1_665
Cd0 Er0 3.187806 1_555
Cd0 Er0 3.187806 1_554
Cd0 Er1 3.423689 1_564
Cd0 Er2 3.423689 1_654
Cd0 Er2 3.423689 1_655
Cd0 Er1 3.423689 1_565
Cd1 Ga1 2.730929 1_545
Cd1 Ga0 2.730934 1_555
Cd1 Ga2 2.815119 1_555
Cd1 Ga2 2.815119 1_554
Cd1 Cd2 3.089474 1_555
Cd1 Er1 3.187806 1_554
Cd1 Er1 3.187806 1_555
Cd1 Er2 3.423689 1_544
Cd1 Er2 3.423689 1_545
Cd1 Er0 3.423689 1_555
Cd1 Er0 3.423689 1_554
Cd2 Ga0 2.730929 1_455
Cd2 Ga1 2.730934 1_555
Cd2 Ga2 2.815119 1_555
Cd2 Ga2 2.815119 1_554
Cd2 Er2 3.187806 1_555
Cd2 Er2 3.187806 1_554
Cd2 Er1 3.423689 1_455
Cd2 Er1 3.423689 1_454
Cd2 Er0 3.423689 1_555
Cd2 Er0 3.423689 1_554
