# generated using pymatgen
data_SnRh3
_symmetry_space_group_name_H-M   'P 1'
_cell_length_a   5.59898994
_cell_length_b   5.59898994
_cell_length_c   4.47245745
_cell_angle_alpha   90.00000000
_cell_angle_beta   90.00000000
_cell_angle_gamma   120.00000849
_symmetry_Int_Tables_number   1
_chemical_formula_structural   SnRh3
_chemical_formula_sum   'Sn2 Rh6'
_cell_volume   121.42166564
_cell_formula_units_Z   2
loop_
 _symmetry_equiv_pos_site_id
 _symmetry_equiv_pos_as_xyz
  1  'x, y, z'
loop_
 _atom_site_type_symbol
 _atom_site_label
 _atom_site_symmetry_multiplicity
 _atom_site_fract_x
 _atom_site_fract_y
 _atom_site_fract_z
 _atom_site_occupancy
  Sn  Sn0  1  0.33333300  0.66666700  0.75000000  1
  Sn  Sn1  1  0.66666700  0.33333300  0.25000000  1
  Rh  Rh0  1  0.16283596  0.32567292  0.25000000  1
  Rh  Rh1  1  0.67432708  0.83716404  0.25000000  1
  Rh  Rh2  1  0.16283596  0.83716404  0.25000000  1
  Rh  Rh3  1  0.83716404  0.67432708  0.75000000  1
  Rh  Rh4  1  0.32567292  0.16283596  0.75000000  1
  Rh  Rh5  1  0.83716404  0.16283596  0.75000000  1
loop_
_geom_bond_atom_site_label_1
_geom_bond_atom_site_label_2
_geom_bond_distance
_geom_bond_site_symmetry_2
Rh0 Rh1 2.735156 1_445
Rh0 Rh2 2.735156 1_545
Rh0 Rh5 2.737590 1_454
Rh0 Rh5 2.737590 1_455
Rh0 Rh4 2.737596 1_555
Rh0 Rh4 2.737596 1_554
Rh0 Sn0 2.781109 1_554
Rh0 Sn0 2.781109 1_555
Rh0 Sn1 2.799736 1_455
Rh0 Sn1 2.799747 1_555
Rh0 Rh1 2.863833 1_555
Rh0 Rh2 2.863834 1_555
Rh1 Rh2 2.735156 1_655
Rh1 Rh5 2.737590 1_564
Rh1 Rh5 2.737590 1_565
Rh1 Rh3 2.737596 1_554
Rh1 Rh3 2.737596 1_555
Rh1 Sn0 2.781109 1_554
Rh1 Sn0 2.781109 1_555
Rh1 Sn1 2.799736 1_565
Rh1 Sn1 2.799747 1_555
Rh1 Rh2 2.863834 1_555
Rh2 Rh3 2.737590 1_454
Rh2 Rh3 2.737590 1_455
Rh2 Rh4 2.737590 1_565
Rh2 Rh4 2.737590 1_564
Rh2 Sn0 2.781109 1_554
Rh2 Sn0 2.781109 1_555
Rh2 Sn1 2.799741 1_455
Rh2 Sn1 2.799741 1_565
Rh3 Rh4 2.735156 1_665
Rh3 Rh5 2.735156 1_565
Rh3 Sn1 2.781109 1_555
Rh3 Sn1 2.781109 1_556
Rh3 Sn0 2.799736 1_655
Rh3 Sn0 2.799747 1_555
Rh3 Rh4 2.863833 1_555
Rh3 Rh5 2.863834 1_555
Rh4 Rh5 2.735156 1_455
Rh4 Sn1 2.781109 1_556
Rh4 Sn1 2.781109 1_555
Rh4 Sn0 2.799736 1_545
Rh4 Sn0 2.799747 1_555
Rh4 Rh5 2.863834 1_555
Rh5 Sn1 2.781109 1_555
Rh5 Sn1 2.781109 1_556
Rh5 Sn0 2.799741 1_655
Rh5 Sn0 2.799741 1_545
