# generated using pymatgen
data_Cr7Se10
_symmetry_space_group_name_H-M   'P 1'
_cell_length_a   29.86441997
_cell_length_b   29.86441997
_cell_length_c   6.37051907
_cell_angle_alpha   85.19569636
_cell_angle_beta   85.19569636
_cell_angle_gamma   7.03440916
_symmetry_Int_Tables_number   1
_chemical_formula_structural   Cr7Se10
_chemical_formula_sum   'Cr14 Se20'
_cell_volume   693.36520318
_cell_formula_units_Z   2
loop_
 _symmetry_equiv_pos_site_id
 _symmetry_equiv_pos_as_xyz
  1  'x, y, z'
loop_
 _atom_site_type_symbol
 _atom_site_label
 _atom_site_symmetry_multiplicity
 _atom_site_fract_x
 _atom_site_fract_y
 _atom_site_fract_z
 _atom_site_occupancy
  Cr  Cr0  1  0.05009200  0.05009200  0.93316000  1
  Cr  Cr1  1  0.65190800  0.65190800  0.32751800  1
  Cr  Cr2  1  0.25213000  0.25213000  0.72734400  1
  Cr  Cr3  1  0.85239100  0.85239100  0.12739400  1
  Cr  Cr4  1  0.45287200  0.45287200  0.53037500  1
  Cr  Cr5  1  0.54712800  0.54712800  0.46962500  1
  Cr  Cr6  1  0.14760900  0.14760900  0.87260600  1
  Cr  Cr7  1  0.74787000  0.74787000  0.27265600  1
  Cr  Cr8  1  0.34809200  0.34809200  0.67248200  1
  Cr  Cr9  1  0.94990800  0.94990800  0.06684000  1
  Cr  Cr10  1  0.59906700  0.59906700  0.40494800  1
  Cr  Cr11  1  0.19992600  0.19992600  0.80029400  1
  Cr  Cr12  1  0.80007400  0.80007400  0.19970600  1
  Cr  Cr13  1  0.40093300  0.40093300  0.59505200  1
  Se  Se0  1  0.07429400  0.07429400  0.26621800  1
  Se  Se1  1  0.67344200  0.67344200  0.66788500  1
  Se  Se2  1  0.27336800  0.27336800  0.06815600  1
  Se  Se3  1  0.87338500  0.87338500  0.46843100  1
  Se  Se4  1  0.47162300  0.47162300  0.86824900  1
  Se  Se5  1  0.52837700  0.52837700  0.13175100  1
  Se  Se6  1  0.12661500  0.12661500  0.53156900  1
  Se  Se7  1  0.72663200  0.72663200  0.93184400  1
  Se  Se8  1  0.32655800  0.32655800  0.33211500  1
  Se  Se9  1  0.92570600  0.92570600  0.73378200  1
  Se  Se10  1  0.02496800  0.02496800  0.64244900  1
  Se  Se11  1  0.62430600  0.62430600  0.04633900  1
  Se  Se12  1  0.22435100  0.22435100  0.44482300  1
  Se  Se13  1  0.82449200  0.82449200  0.84497400  1
  Se  Se14  1  0.42489900  0.42489900  0.24404200  1
  Se  Se15  1  0.57510100  0.57510100  0.75595800  1
  Se  Se16  1  0.17550800  0.17550800  0.15502600  1
  Se  Se17  1  0.77564900  0.77564900  0.55517700  1
  Se  Se18  1  0.37569400  0.37569400  0.95366100  1
  Se  Se19  1  0.97503200  0.97503200  0.35755100  1
loop_
_geom_bond_atom_site_label_1
_geom_bond_atom_site_label_2
_geom_bond_distance
_geom_bond_site_symmetry_2
Cr0 Se10 2.477651 1_555
Cr0 Se5 2.521567 1_546
Cr0 Se5 2.521567 1_456
Cr0 Se15 2.563495 1_455
Cr0 Se15 2.563495 1_545
Cr0 Se0 2.664088 1_556
Cr1 Se16 2.506838 1_655
Cr1 Se16 2.506838 1_565
Cr1 Se11 2.532002 1_555
Cr1 Se1 2.610906 1_555
Cr1 Se6 2.644090 1_655
Cr1 Se6 2.644090 1_565
Cr2 Se17 2.503499 1_455
Cr2 Se17 2.503499 1_545
Cr2 Se12 2.546001 1_555
Cr2 Se2 2.603520 1_556
Cr2 Se7 2.651842 1_455
Cr2 Se7 2.651842 1_545
Cr3 Se18 2.500718 1_564
Cr3 Se18 2.500718 1_654
Cr3 Se13 2.550595 1_554
Cr3 Se3 2.596713 1_555
Cr3 Se8 2.663141 1_565
Cr3 Se8 2.663141 1_655
Cr4 Se19 2.463749 1_545
Cr4 Se19 2.463749 1_455
Cr4 Se4 2.507268 1_555
Cr4 Se14 2.572714 1_555
Cr4 Se9 2.703059 1_545
Cr4 Se9 2.703059 1_455
Cr5 Se10 2.463749 1_565
Cr5 Se10 2.463749 1_655
Cr5 Se5 2.507268 1_555
Cr5 Se15 2.572714 1_555
Cr5 Se0 2.703059 1_655
Cr5 Se0 2.703059 1_565
Cr6 Se11 2.500718 1_546
Cr6 Se11 2.500718 1_456
Cr6 Se16 2.550595 1_556
Cr6 Se6 2.596713 1_555
Cr6 Se1 2.663141 1_545
Cr6 Se1 2.663141 1_455
Cr7 Se12 2.503499 1_655
Cr7 Se12 2.503499 1_565
Cr7 Se17 2.546001 1_555
Cr7 Se7 2.603520 1_554
Cr7 Se2 2.651842 1_655
Cr7 Se2 2.651842 1_565
Cr8 Se13 2.506838 1_455
Cr8 Se13 2.506838 1_545
Cr8 Se18 2.532002 1_555
Cr8 Se8 2.610906 1_555
Cr8 Se3 2.644090 1_455
Cr8 Se3 2.644090 1_545
Cr9 Se19 2.477651 1_555
Cr9 Se4 2.521567 1_654
Cr9 Se4 2.521567 1_564
Cr9 Se14 2.563495 1_655
Cr9 Se14 2.563495 1_565
Cr9 Se9 2.664088 1_554
Cr10 Se15 2.550571 1_555
Cr10 Se0 2.556947 1_655
Cr10 Se0 2.556947 1_565
Cr10 Se11 2.627960 1_555
Cr10 Se6 2.631896 1_565
Cr10 Se6 2.631896 1_655
Cr11 Se16 2.583378 1_556
Cr11 Se12 2.587479 1_555
Cr11 Se1 2.604723 1_455
Cr11 Se1 2.604723 1_545
Cr11 Se7 2.611084 1_455
Cr11 Se7 2.611084 1_545
Cr12 Se13 2.583378 1_554
Cr12 Se17 2.587479 1_555
Cr12 Se8 2.604723 1_655
Cr12 Se8 2.604723 1_565
Cr12 Se2 2.611084 1_655
Cr12 Se2 2.611084 1_565
Cr13 Se14 2.550571 1_555
Cr13 Se9 2.556947 1_545
Cr13 Se9 2.556947 1_455
Cr13 Se18 2.627960 1_555
Cr13 Se3 2.631896 1_455
Cr13 Se3 2.631896 1_545
