# generated using pymatgen
data_GdHg3
_symmetry_space_group_name_H-M   'P 1'
_cell_length_a   4.98890687
_cell_length_b   6.66325846
_cell_length_c   6.66325846
_cell_angle_alpha   119.98274147
_cell_angle_beta   90.00000000
_cell_angle_gamma   90.00000000
_symmetry_Int_Tables_number   1
_chemical_formula_structural   GdHg3
_chemical_formula_sum   'Gd2 Hg6'
_cell_volume   191.86018044
_cell_formula_units_Z   2
loop_
 _symmetry_equiv_pos_site_id
 _symmetry_equiv_pos_as_xyz
  1  'x, y, z'
loop_
 _atom_site_type_symbol
 _atom_site_label
 _atom_site_symmetry_multiplicity
 _atom_site_fract_x
 _atom_site_fract_y
 _atom_site_fract_z
 _atom_site_occupancy
  Gd  Gd0  1  0.75000000  0.66669390  0.33330610  1
  Gd  Gd1  1  0.25000000  0.33330610  0.66669390  1
  Hg  Hg0  1  0.75000000  0.16394900  0.32792953  1
  Hg  Hg1  1  0.75000000  0.16406197  0.83593803  1
  Hg  Hg2  1  0.75000000  0.67207047  0.83605100  1
  Hg  Hg3  1  0.25000000  0.83605100  0.67207047  1
  Hg  Hg4  1  0.25000000  0.83593803  0.16406197  1
  Hg  Hg5  1  0.25000000  0.32792953  0.16394900  1
loop_
_geom_bond_atom_site_label_1
_geom_bond_atom_site_label_2
_geom_bond_distance
_geom_bond_site_symmetry_2
Gd0 Hg4 3.168103 1_555
Gd0 Hg4 3.168103 1_655
Gd0 Hg5 3.169400 1_655
Gd0 Hg5 3.169400 1_555
Gd0 Hg3 3.169400 1_555
Gd0 Hg3 3.169400 1_655
Gd0 Hg0 3.331387 1_565
Gd0 Hg2 3.331387 1_554
Gd0 Hg2 3.332160 1_555
Gd0 Hg0 3.332160 1_555
Gd0 Hg1 3.332637 1_554
Gd0 Hg1 3.332637 1_565
Gd1 Hg1 3.168103 1_555
Gd1 Hg1 3.168103 1_455
Gd1 Hg0 3.169400 1_455
Gd1 Hg0 3.169400 1_555
Gd1 Hg2 3.169400 1_555
Gd1 Hg2 3.169400 1_455
Gd1 Hg5 3.331387 1_556
Gd1 Hg3 3.331387 1_545
Gd1 Hg3 3.332160 1_555
Gd1 Hg5 3.332160 1_555
Gd1 Hg4 3.332637 1_545
Gd1 Hg4 3.332637 1_556
