# generated using pymatgen
data_HfMg30TiO32
_symmetry_space_group_name_H-M   'P 1'
_cell_length_a   8.62228200
_cell_length_b   8.62228200
_cell_length_c   8.59338000
_cell_angle_alpha   90.00000000
_cell_angle_beta   90.00000000
_cell_angle_gamma   90.00000000
_symmetry_Int_Tables_number   1
_chemical_formula_structural   HfMg30TiO32
_chemical_formula_sum   'Hf1 Mg30 Ti1 O32'
_cell_volume   638.86406763
_cell_formula_units_Z   1
loop_
 _symmetry_equiv_pos_site_id
 _symmetry_equiv_pos_as_xyz
  1  'x, y, z'
loop_
 _atom_site_type_symbol
 _atom_site_label
 _atom_site_symmetry_multiplicity
 _atom_site_fract_x
 _atom_site_fract_y
 _atom_site_fract_z
 _atom_site_occupancy
  Hf  Hf0  1  0.00000000  0.00000000  0.50000000  1
  Mg  Mg0  1  0.50000000  0.00000000  0.00000000  1
  Mg  Mg1  1  0.50000000  0.00000000  0.50000000  1
  Mg  Mg2  1  0.00000000  0.50000000  0.00000000  1
  Mg  Mg3  1  0.00000000  0.50000000  0.50000000  1
  Mg  Mg4  1  0.50000000  0.50000000  0.00000000  1
  Mg  Mg5  1  0.50000000  0.50000000  0.50000000  1
  Mg  Mg6  1  0.25558000  0.00000000  0.24363800  1
  Mg  Mg7  1  0.25558000  0.00000000  0.75636200  1
  Mg  Mg8  1  0.74442000  0.00000000  0.24363800  1
  Mg  Mg9  1  0.74442000  0.00000000  0.75636200  1
  Mg  Mg10  1  0.25093300  0.50000000  0.24831600  1
  Mg  Mg11  1  0.25093300  0.50000000  0.75168400  1
  Mg  Mg12  1  0.74906700  0.50000000  0.24831600  1
  Mg  Mg13  1  0.74906700  0.50000000  0.75168400  1
  Mg  Mg14  1  0.00000000  0.25558000  0.24363800  1
  Mg  Mg15  1  0.00000000  0.25558000  0.75636200  1
  Mg  Mg16  1  0.50000000  0.25093300  0.24831600  1
  Mg  Mg17  1  0.50000000  0.25093300  0.75168400  1
  Mg  Mg18  1  0.00000000  0.74442000  0.24363800  1
  Mg  Mg19  1  0.00000000  0.74442000  0.75636200  1
  Mg  Mg20  1  0.50000000  0.74906700  0.24831600  1
  Mg  Mg21  1  0.50000000  0.74906700  0.75168400  1
  Mg  Mg22  1  0.25050300  0.25050300  0.00000000  1
  Mg  Mg23  1  0.25589900  0.25589900  0.50000000  1
  Mg  Mg24  1  0.74949700  0.25050300  0.00000000  1
  Mg  Mg25  1  0.74410100  0.25589900  0.50000000  1
  Mg  Mg26  1  0.25050300  0.74949700  0.00000000  1
  Mg  Mg27  1  0.25589900  0.74410100  0.50000000  1
  Mg  Mg28  1  0.74949700  0.74949700  0.00000000  1
  Mg  Mg29  1  0.74410100  0.74410100  0.50000000  1
  Ti  Ti0  1  0.00000000  0.00000000  0.00000000  1
  O  O0  1  0.00000000  0.26136300  0.00000000  1
  O  O1  1  0.00000000  0.24896400  0.50000000  1
  O  O2  1  0.50000000  0.25138600  0.00000000  1
  O  O3  1  0.50000000  0.24956200  0.50000000  1
  O  O4  1  0.00000000  0.73863700  0.00000000  1
  O  O5  1  0.00000000  0.75103600  0.50000000  1
  O  O6  1  0.50000000  0.74861400  0.00000000  1
  O  O7  1  0.50000000  0.75043800  0.50000000  1
  O  O8  1  0.24927800  0.24927800  0.25109700  1
  O  O9  1  0.24927800  0.24927800  0.74890300  1
  O  O10  1  0.75072200  0.24927800  0.25109700  1
  O  O11  1  0.75072200  0.24927800  0.74890300  1
  O  O12  1  0.24927800  0.75072200  0.25109700  1
  O  O13  1  0.24927800  0.75072200  0.74890300  1
  O  O14  1  0.75072200  0.75072200  0.25109700  1
  O  O15  1  0.75072200  0.75072200  0.74890300  1
  O  O16  1  0.00000000  0.00000000  0.25402800  1
  O  O17  1  0.00000000  0.00000000  0.74597200  1
  O  O18  1  0.50000000  0.00000000  0.25271100  1
  O  O19  1  0.50000000  0.00000000  0.74728900  1
  O  O20  1  0.00000000  0.50000000  0.25271100  1
  O  O21  1  0.00000000  0.50000000  0.74728900  1
  O  O22  1  0.50000000  0.50000000  0.25103300  1
  O  O23  1  0.50000000  0.50000000  0.74896700  1
  O  O24  1  0.26136300  0.00000000  0.00000000  1
  O  O25  1  0.24896400  0.00000000  0.50000000  1
  O  O26  1  0.73863700  0.00000000  0.00000000  1
  O  O27  1  0.75103600  0.00000000  0.50000000  1
  O  O28  1  0.25138600  0.50000000  0.00000000  1
  O  O29  1  0.24956200  0.50000000  0.50000000  1
  O  O30  1  0.74861400  0.50000000  0.00000000  1
  O  O31  1  0.75043800  0.50000000  0.50000000  1
loop_
_geom_bond_atom_site_label_1
_geom_bond_atom_site_label_2
_geom_bond_distance
_geom_bond_site_symmetry_2
Hf0 O17 2.113731 1_555
Hf0 O16 2.113731 1_555
Hf0 O1 2.146638 1_555
Hf0 O27 2.146638 1_455
Hf0 O25 2.146638 1_555
Hf0 O5 2.146638 1_545
Mg0 O26 2.057596 1_555
Mg0 O24 2.057596 1_555
Mg0 O6 2.167521 1_545
Mg0 O2 2.167521 1_555
Mg0 O18 2.171642 1_555
Mg0 O19 2.171642 1_554
Mg1 O18 2.125048 1_555
Mg1 O19 2.125048 1_555
Mg1 O7 2.151794 1_545
Mg1 O3 2.151794 1_555
Mg1 O27 2.164503 1_555
Mg1 O25 2.164503 1_555
Mg2 O4 2.057596 1_555
Mg2 O0 2.057596 1_555
Mg2 O30 2.167521 1_455
Mg2 O28 2.167521 1_555
Mg2 O21 2.171642 1_554
Mg2 O20 2.171642 1_555
Mg3 O21 2.125048 1_555
Mg3 O20 2.125048 1_555
Mg3 O31 2.151794 1_455
Mg3 O29 2.151794 1_555
Mg3 O1 2.164503 1_555
Mg3 O5 2.164503 1_555
Mg4 O2 2.143620 1_555
Mg4 O6 2.143620 1_555
Mg4 O28 2.143620 1_555
Mg4 O30 2.143620 1_555
Mg4 O23 2.157222 1_554
Mg4 O22 2.157222 1_555
Mg5 O22 2.139468 1_555
Mg5 O23 2.139468 1_555
Mg5 O29 2.159347 1_555
Mg5 O3 2.159347 1_555
Mg5 O31 2.159347 1_555
Mg5 O7 2.159347 1_555
Mg6 O24 2.094268 1_555
Mg6 O18 2.108900 1_555
Mg6 O12 2.150987 1_545
Mg6 O8 2.150987 1_555
Mg6 O25 2.203755 1_555
Mg6 O16 2.205491 1_555
Mg7 O24 2.094268 1_556
Mg7 O19 2.108900 1_555
Mg7 O9 2.150987 1_555
Mg7 O13 2.150987 1_545
Mg7 O25 2.203755 1_555
Mg7 O17 2.205491 1_555
Mg8 O26 2.094268 1_555
Mg8 O18 2.108900 1_555
Mg8 O14 2.150987 1_545
Mg8 O10 2.150987 1_555
Mg8 O27 2.203755 1_555
Mg8 O16 2.205491 1_655
Mg9 O26 2.094268 1_556
Mg9 O19 2.108900 1_555
Mg9 O15 2.150987 1_545
Mg9 O11 2.150987 1_555
Mg9 O27 2.203755 1_555
Mg9 O17 2.205491 1_655
Mg10 O28 2.133877 1_555
Mg10 O22 2.147653 1_555
Mg10 O12 2.161975 1_555
Mg10 O8 2.161975 1_555
Mg10 O29 2.162849 1_555
Mg10 O20 2.163945 1_555
Mg11 O28 2.133877 1_556
Mg11 O23 2.147653 1_555
Mg11 O9 2.161975 1_555
Mg11 O13 2.161975 1_555
Mg11 O29 2.162849 1_555
Mg11 O21 2.163945 1_555
Mg12 O30 2.133877 1_555
Mg12 O22 2.147653 1_555
Mg12 O14 2.161975 1_555
Mg12 O10 2.161975 1_555
Mg12 O31 2.162849 1_555
Mg12 O20 2.163945 1_655
Mg13 O30 2.133877 1_556
Mg13 O23 2.147653 1_555
Mg13 O11 2.161975 1_555
Mg13 O15 2.161975 1_555
Mg13 O31 2.162849 1_555
Mg13 O21 2.163945 1_655
Mg14 O0 2.094268 1_555
Mg14 O20 2.108900 1_555
Mg14 O10 2.150987 1_455
Mg14 O8 2.150987 1_555
Mg14 O1 2.203755 1_555
Mg14 O16 2.205491 1_555
Mg15 O0 2.094268 1_556
Mg15 O21 2.108900 1_555
Mg15 O9 2.150987 1_555
Mg15 O11 2.150987 1_455
Mg15 O1 2.203755 1_555
Mg15 O17 2.205491 1_555
Mg16 O2 2.133877 1_555
Mg16 O22 2.147653 1_555
Mg16 O8 2.161975 1_555
Mg16 O10 2.161975 1_555
Mg16 O3 2.162849 1_555
Mg16 O18 2.163945 1_555
Mg17 O2 2.133877 1_556
Mg17 O23 2.147653 1_555
Mg17 O11 2.161975 1_555
Mg17 O9 2.161975 1_555
Mg17 O3 2.162849 1_555
Mg17 O19 2.163945 1_555
Mg18 O4 2.094268 1_555
Mg18 O20 2.108900 1_555
Mg18 O14 2.150987 1_455
Mg18 O12 2.150987 1_555
Mg18 O5 2.203755 1_555
Mg18 O16 2.205491 1_565
Mg19 O4 2.094268 1_556
Mg19 O21 2.108900 1_555
Mg19 O13 2.150987 1_555
Mg19 O15 2.150987 1_455
Mg19 O5 2.203755 1_555
Mg19 O17 2.205491 1_565
Mg20 O6 2.133877 1_555
Mg20 O22 2.147653 1_555
Mg20 O12 2.161975 1_555
Mg20 O14 2.161975 1_555
Mg20 O7 2.162849 1_555
Mg20 O18 2.163945 1_565
Mg21 O6 2.133877 1_556
Mg21 O23 2.147653 1_555
Mg21 O15 2.161975 1_555
Mg21 O13 2.161975 1_555
Mg21 O7 2.162849 1_555
Mg21 O19 2.163945 1_565
Mg22 O2 2.151247 1_555
Mg22 O28 2.151247 1_555
Mg22 O8 2.157824 1_555
Mg22 O9 2.157824 1_554
Mg22 O0 2.161936 1_555
Mg22 O24 2.161936 1_555
Mg23 O3 2.105417 1_555
Mg23 O29 2.105417 1_555
Mg23 O9 2.140441 1_555
Mg23 O8 2.140441 1_555
Mg23 O25 2.207243 1_555
Mg23 O1 2.207243 1_555
Mg24 O2 2.151247 1_555
Mg24 O30 2.151247 1_555
Mg24 O11 2.157824 1_554
Mg24 O10 2.157824 1_555
Mg24 O26 2.161936 1_555
Mg24 O0 2.161936 1_655
Mg25 O3 2.105417 1_555
Mg25 O31 2.105417 1_555
Mg25 O10 2.140441 1_555
Mg25 O11 2.140441 1_555
Mg25 O1 2.207243 1_655
Mg25 O27 2.207243 1_555
Mg26 O28 2.151247 1_555
Mg26 O6 2.151247 1_555
Mg26 O13 2.157824 1_554
Mg26 O12 2.157824 1_555
Mg26 O4 2.161936 1_555
Mg26 O24 2.161936 1_565
Mg27 O7 2.105417 1_555
Mg27 O29 2.105417 1_555
Mg27 O13 2.140441 1_555
Mg27 O12 2.140441 1_555
Mg27 O25 2.207243 1_565
Mg27 O5 2.207243 1_555
Mg28 O30 2.151247 1_555
Mg28 O6 2.151247 1_555
Mg28 O14 2.157824 1_555
Mg28 O15 2.157824 1_554
Mg28 O26 2.161936 1_565
Mg28 O4 2.161936 1_655
Mg29 O7 2.105417 1_555
Mg29 O31 2.105417 1_555
Mg29 O15 2.140441 1_555
Mg29 O14 2.140441 1_555
Mg29 O27 2.207243 1_565
Mg29 O5 2.207243 1_655
O0 Ti0 2.253545 1_555
O4 Ti0 2.253545 1_565
O16 Ti0 2.182959 1_555
O17 Ti0 2.182959 1_556
O24 Ti0 2.253545 1_555
O26 Ti0 2.253545 1_655
