# generated using pymatgen
data_LiLa2Co2Sb2(PbO6)2
_symmetry_space_group_name_H-M   'P 1'
_cell_length_a   5.76852874
_cell_length_b   6.12962073
_cell_length_c   8.09359664
_cell_angle_alpha   90.80591307
_cell_angle_beta   88.59496955
_cell_angle_gamma   90.65995367
_symmetry_Int_Tables_number   1
_chemical_formula_structural   LiLa2Co2Sb2(PbO6)2
_chemical_formula_sum   'Li1 La2 Co2 Sb2 Pb2 O12'
_cell_volume   286.04840522
_cell_formula_units_Z   1
loop_
 _symmetry_equiv_pos_site_id
 _symmetry_equiv_pos_as_xyz
  1  'x, y, z'
loop_
 _atom_site_type_symbol
 _atom_site_label
 _atom_site_symmetry_multiplicity
 _atom_site_fract_x
 _atom_site_fract_y
 _atom_site_fract_z
 _atom_site_occupancy
  Li  Li0  1  0.93553800  0.66133600  0.42721600  1
  La  La0  1  0.51653800  0.44159900  0.75036600  1
  La  La1  1  0.00703300  0.09512100  0.23226400  1
  Co  Co0  1  0.03638700  0.35084000  0.58387400  1
  Co  Co1  1  0.50108400  0.98122000  0.99275600  1
  Sb  Sb0  1  0.99415300  0.52659200  0.99525100  1
  Sb  Sb1  1  0.48792700  0.99696200  0.48756700  1
  Pb  Pb0  1  0.48016900  0.54542500  0.25279200  1
  Pb  Pb1  1  0.99972800  0.96398600  0.75641100  1
  O  O0  1  0.59830600  0.98368300  0.24150900  1
  O  O1  1  0.10910100  0.54927200  0.75800300  1
  O  O2  1  0.42219600  0.04271600  0.73926400  1
  O  O3  1  0.91276900  0.49182100  0.23229800  1
  O  O4  1  0.19047400  0.84911200  0.43144000  1
  O  O5  1  0.70343900  0.69625900  0.94163700  1
  O  O6  1  0.76013000  0.20483600  0.51519700  1
  O  O7  1  0.26550600  0.32149600  0.02874300  1
  O  O8  1  0.30585700  0.27351600  0.44535000  1
  O  O9  1  0.79474300  0.25135000  0.94592500  1
  O  O10  1  0.64281000  0.71616000  0.53326700  1
  O  O11  1  0.16944600  0.81711500  0.03386800  1
loop_
_geom_bond_atom_site_label_1
_geom_bond_atom_site_label_2
_geom_bond_distance
_geom_bond_site_symmetry_2
Li0 O4 1.857689 1_655
Li0 O3 1.883239 1_555
Li0 O10 1.906555 1_555
La0 O5 2.443490 1_555
La0 O1 2.447620 1_555
La0 O2 2.499568 1_555
La0 O10 2.538214 1_555
La0 O9 2.580734 1_555
La0 O6 2.746193 1_555
La0 O7 2.752699 1_556
La0 O8 2.946114 1_555
La1 O0 2.446809 1_445
La1 O4 2.486191 1_545
La1 O3 2.497777 1_455
La1 O11 2.499206 1_545
La1 O7 2.599623 1_555
La1 O8 2.681567 1_555
La1 O6 2.746536 1_455
La1 O9 2.831286 1_454
Co0 O1 1.900154 1_555
Co0 O6 1.909460 1_455
Co0 O8 1.953074 1_555
Co1 O0 2.102969 1_556
Co1 O5 2.141885 1_555
Co1 O2 2.151740 1_565
Co1 O11 2.171690 1_556
Co1 O9 2.382529 1_565
Co1 O7 2.512121 1_566
O0 Sb1 2.076666 1_555
O0 Pb0 2.766032 1_555
O1 Sb0 2.022147 1_455
O1 Pb1 2.626492 1_455
O2 Sb1 2.078663 1_545
O2 Pb1 2.479801 1_445
O3 Sb0 1.977811 1_554
O3 Pb0 2.521880 1_555
O4 Sb1 1.990652 1_555
O5 Sb0 2.042240 1_555
O6 Sb1 2.025399 1_545
O7 Sb0 2.044467 1_454
O7 Pb0 2.589714 1_555
O8 Sb1 2.041652 1_545
O8 Pb0 2.485047 1_555
O9 Sb0 2.070712 1_555
O9 Pb1 2.595494 1_545
O10 Sb1 1.991773 1_555
O10 Pb0 2.672750 1_555
O11 Sb0 2.061498 1_454
O11 Pb1 2.645143 1_454
