# generated using pymatgen
data_Ag2PO2
_symmetry_space_group_name_H-M   'P 1'
_cell_length_a   7.62515800
_cell_length_b   6.53208158
_cell_length_c   10.07756445
_cell_angle_alpha   77.24303549
_cell_angle_beta   67.77012780
_cell_angle_gamma   54.29092433
_symmetry_Int_Tables_number   1
_chemical_formula_structural   Ag2PO2
_chemical_formula_sum   'Ag8 P4 O8'
_cell_volume   377.28114912
_cell_formula_units_Z   4
loop_
 _symmetry_equiv_pos_site_id
 _symmetry_equiv_pos_as_xyz
  1  'x, y, z'
loop_
 _atom_site_type_symbol
 _atom_site_label
 _atom_site_symmetry_multiplicity
 _atom_site_fract_x
 _atom_site_fract_y
 _atom_site_fract_z
 _atom_site_occupancy
  Ag  Ag0  1  0.50343500  0.74290600  0.32154100  1
  Ag  Ag1  1  0.17502400  0.25709400  0.32154100  1
  Ag  Ag2  1  0.75365900  0.74290600  0.67845900  1
  Ag  Ag3  1  0.24656500  0.75709400  0.17845900  1
  Ag  Ag4  1  0.56788200  0.25709400  0.67845900  1
  Ag  Ag5  1  0.57497600  0.24290600  0.17845900  1
  Ag  Ag6  1  0.99634100  0.75709400  0.82154100  1
  Ag  Ag7  1  0.18211800  0.24290600  0.82154100  1
  P  P0  1  0.87500000  0.25000000  0.25000000  1
  P  P1  1  0.87500000  0.75000000  0.25000000  1
  P  P2  1  0.87500000  0.25000000  0.75000000  1
  P  P3  1  0.37500000  0.75000000  0.75000000  1
  O  O0  1  0.01332300  0.23174900  0.09113900  1
  O  O1  1  0.89553800  0.76825100  0.09113900  1
  O  O2  1  0.75492900  0.23174900  0.90886100  1
  O  O3  1  0.73667700  0.26825100  0.40886100  1
  O  O4  1  0.33621100  0.76825100  0.90886100  1
  O  O5  1  0.85446200  0.73174900  0.40886100  1
  O  O6  1  0.99507100  0.26825100  0.59113900  1
  O  O7  1  0.41378900  0.73174900  0.59113900  1
loop_
_geom_bond_atom_site_label_1
_geom_bond_atom_site_label_2
_geom_bond_distance
_geom_bond_site_symmetry_2
Ag0 O7 2.533684 1_555
Ag0 O3 2.663216 1_555
Ag0 P1 2.672476 1_555
Ag0 Ag1 2.780937 1_565
Ag0 P0 2.782877 1_555
Ag0 Ag3 2.791086 1_555
Ag1 O6 2.533685 1_455
Ag1 O5 2.663216 1_455
Ag1 P0 2.672476 1_455
Ag1 P1 2.782877 1_455
Ag1 Ag5 2.791086 1_555
Ag2 O5 2.533684 1_555
Ag2 O6 2.663217 1_555
Ag2 P3 2.672476 1_555
Ag2 Ag4 2.780937 1_565
Ag2 P2 2.782877 1_555
Ag2 Ag6 2.791086 1_555
Ag3 O4 2.533684 1_554
Ag3 O0 2.663216 1_565
Ag3 P1 2.672476 1_455
Ag3 Ag5 2.780937 1_555
Ag3 P0 2.782877 1_465
Ag4 O3 2.533684 1_555
Ag4 O7 2.663216 1_555
Ag4 P2 2.672476 1_555
Ag4 P3 2.782877 1_555
Ag4 Ag7 2.791086 1_555
Ag5 O2 2.533685 1_554
Ag5 O1 2.663216 1_545
Ag5 P0 2.672476 1_555
Ag5 P1 2.782877 1_545
Ag6 O1 2.533684 1_556
Ag6 O2 2.663217 1_565
Ag6 P3 2.672476 1_655
Ag6 Ag7 2.780937 1_655
Ag6 P2 2.782877 1_565
Ag7 O0 2.533684 1_556
Ag7 O4 2.663216 1_545
Ag7 P2 2.672476 1_455
Ag7 P3 2.782877 1_545
O0 P0 1.532816 1_455
O1 P1 1.532816 1_555
O2 P2 1.532814 1_555
O3 P0 1.532816 1_555
O4 P3 1.532816 1_555
O5 P1 1.532816 1_555
O6 P2 1.532814 1_555
O7 P3 1.532816 1_555
