# generated using pymatgen
data_Ba3Y2N4
_symmetry_space_group_name_H-M   'P 1'
_cell_length_a   6.58433800
_cell_length_b   12.52162900
_cell_length_c   10.84391200
_cell_angle_alpha   90.00000000
_cell_angle_beta   90.00000000
_cell_angle_gamma   90.00000000
_symmetry_Int_Tables_number   1
_chemical_formula_structural   Ba3Y2N4
_chemical_formula_sum   'Ba12 Y8 N16'
_cell_volume   894.04408334
_cell_formula_units_Z   4
loop_
 _symmetry_equiv_pos_site_id
 _symmetry_equiv_pos_as_xyz
  1  'x, y, z'
loop_
 _atom_site_type_symbol
 _atom_site_label
 _atom_site_symmetry_multiplicity
 _atom_site_fract_x
 _atom_site_fract_y
 _atom_site_fract_z
 _atom_site_occupancy
  Ba  Ba0  1  0.66591500  0.16602700  0.40111000  1
  Ba  Ba1  1  0.83408500  0.83397300  0.40111000  1
  Ba  Ba2  1  0.66591500  0.33397300  0.09889000  1
  Ba  Ba3  1  0.83408500  0.66602700  0.09889000  1
  Ba  Ba4  1  0.33408500  0.83397300  0.59889000  1
  Ba  Ba5  1  0.16591500  0.16602700  0.59889000  1
  Ba  Ba6  1  0.33408500  0.66602700  0.90111000  1
  Ba  Ba7  1  0.16591500  0.33397300  0.90111000  1
  Ba  Ba8  1  0.75000000  0.50000000  0.43692800  1
  Ba  Ba9  1  0.75000000  0.00000000  0.06307200  1
  Ba  Ba10  1  0.25000000  0.50000000  0.56307200  1
  Ba  Ba11  1  0.25000000  0.00000000  0.93692800  1
  Y  Y0  1  0.75000000  0.50000000  0.77510300  1
  Y  Y1  1  0.75000000  0.00000000  0.72489700  1
  Y  Y2  1  0.25000000  0.50000000  0.22489700  1
  Y  Y3  1  0.25000000  0.00000000  0.27510300  1
  Y  Y4  1  0.71645700  0.25000000  0.75000000  1
  Y  Y5  1  0.78354300  0.75000000  0.75000000  1
  Y  Y6  1  0.28354300  0.75000000  0.25000000  1
  Y  Y7  1  0.21645700  0.25000000  0.25000000  1
  N  N0  1  0.92820500  0.37886200  0.65806400  1
  N  N1  1  0.57179500  0.62113800  0.65806400  1
  N  N2  1  0.92820500  0.12113800  0.84193600  1
  N  N3  1  0.57179500  0.87886200  0.84193600  1
  N  N4  1  0.07179500  0.62113800  0.34193600  1
  N  N5  1  0.42820500  0.37886200  0.34193600  1
  N  N6  1  0.07179500  0.87886200  0.15806400  1
  N  N7  1  0.42820500  0.12113800  0.15806400  1
  N  N8  1  0.55628800  0.37203500  0.86866900  1
  N  N9  1  0.94371200  0.62796500  0.86866900  1
  N  N10  1  0.55628800  0.12796500  0.63133100  1
  N  N11  1  0.94371200  0.87203500  0.63133100  1
  N  N12  1  0.44371200  0.62796500  0.13133100  1
  N  N13  1  0.05628800  0.37203500  0.13133100  1
  N  N14  1  0.44371200  0.87203500  0.36866900  1
  N  N15  1  0.05628800  0.12796500  0.36866900  1
loop_
_geom_bond_atom_site_label_1
_geom_bond_atom_site_label_2
_geom_bond_distance
_geom_bond_site_symmetry_2
Ba0 N15 2.637724 1_655
Ba0 N10 2.642095 1_555
Ba0 N7 3.116392 1_555
Ba0 N5 3.156569 1_555
Ba1 N14 2.637724 1_555
Ba1 N11 2.642095 1_555
Ba1 N6 3.116392 1_655
Ba1 N4 3.156569 1_655
Ba2 N13 2.637724 1_655
Ba2 N8 2.642095 1_554
Ba2 N5 3.116392 1_555
Ba2 N7 3.156569 1_555
Ba3 N12 2.637724 1_555
Ba3 N9 2.642095 1_554
Ba3 N4 3.116392 1_655
Ba3 N6 3.156569 1_655
Ba4 N11 2.637724 1_455
Ba4 N14 2.642095 1_555
Ba4 N3 3.116392 1_555
Ba4 N1 3.156569 1_555
Ba5 N10 2.637724 1_555
Ba5 N15 2.642095 1_555
Ba5 N2 3.116392 1_455
Ba5 N0 3.156569 1_455
Ba6 N9 2.637724 1_455
Ba6 N12 2.642095 1_556
Ba6 N1 3.116392 1_555
Ba6 N3 3.156569 1_555
Ba7 N8 2.637724 1_555
Ba7 N13 2.642095 1_556
Ba7 N0 3.116392 1_455
Ba7 N2 3.156569 1_455
Ba8 N5 2.802006 1_555
Ba8 N4 2.802006 1_655
Ba8 N1 3.070489 1_555
Ba8 N0 3.070489 1_555
Ba9 N7 2.802006 1_555
Ba9 N6 2.802006 1_645
Ba9 N3 3.070489 1_544
Ba9 N2 3.070489 1_554
Ba10 N1 2.802006 1_555
Ba10 N0 2.802006 1_455
Ba10 N4 3.070489 1_555
Ba10 N5 3.070489 1_555
Ba11 N3 2.802006 1_545
Ba11 N2 2.802006 1_455
Ba11 N6 3.070489 1_546
Ba11 N7 3.070489 1_556
N0 Y0 2.299645 1_555
N0 Y4 2.354004 1_555
N1 Y0 2.299645 1_555
N1 Y5 2.354004 1_555
N2 Y1 2.299645 1_555
N2 Y4 2.354004 1_555
N3 Y1 2.299645 1_565
N3 Y5 2.354004 1_555
N4 Y2 2.299645 1_555
N4 Y6 2.354004 1_555
N5 Y2 2.299645 1_555
N5 Y7 2.354004 1_555
N6 Y3 2.299645 1_565
N6 Y6 2.354004 1_555
N7 Y3 2.299645 1_555
N7 Y7 2.354004 1_555
N8 Y4 2.259018 1_555
N8 Y0 2.285548 1_555
N9 Y5 2.259018 1_555
N9 Y0 2.285548 1_555
N10 Y4 2.259018 1_555
N10 Y1 2.285548 1_555
N11 Y5 2.259018 1_555
N11 Y1 2.285548 1_565
N12 Y6 2.259018 1_555
N12 Y2 2.285548 1_555
N13 Y7 2.259018 1_555
N13 Y2 2.285548 1_555
N14 Y6 2.259018 1_555
N14 Y3 2.285548 1_565
N15 Y7 2.259018 1_555
N15 Y3 2.285548 1_555
