# generated using pymatgen
data_La15Ge9O
_symmetry_space_group_name_H-M   'P 1'
_cell_length_a   6.89542368
_cell_length_b   15.55092740
_cell_length_c   15.55092739
_cell_angle_alpha   119.99999722
_cell_angle_beta   90.00000000
_cell_angle_gamma   90.00000000
_symmetry_Int_Tables_number   1
_chemical_formula_structural   La15Ge9O
_chemical_formula_sum   'La30 Ge18 O2'
_cell_volume   1444.12300829
_cell_formula_units_Z   2
loop_
 _symmetry_equiv_pos_site_id
 _symmetry_equiv_pos_as_xyz
  1  'x, y, z'
loop_
 _atom_site_type_symbol
 _atom_site_label
 _atom_site_symmetry_multiplicity
 _atom_site_fract_x
 _atom_site_fract_y
 _atom_site_fract_z
 _atom_site_occupancy
  La  La0  1  0.98213877  0.65685533  0.67520602  1
  La  La1  1  0.98213877  0.01835069  0.34314467  1
  La  La2  1  0.48213877  0.34314467  0.32479398  1
  La  La3  1  0.98215335  0.01838819  0.67523294  1
  La  La4  1  0.98213877  0.32479398  0.98164931  1
  La  La5  1  0.48213877  0.98164931  0.65685533  1
  La  La6  1  0.98215335  0.32476706  0.34315524  1
  La  La7  1  0.48215335  0.98161181  0.32476706  1
  La  La8  1  0.48213877  0.67520602  0.01835069  1
  La  La9  1  0.48215335  0.67523294  0.65684476  1
  La  La10  1  0.98215335  0.65684476  0.98161181  1
  La  La11  1  0.48215335  0.34315524  0.01838819  1
  La  La12  1  0.71918468  0.41386332  0.82772894  1
  La  La13  1  0.71918468  0.41386561  0.58613668  1
  La  La14  1  0.21918468  0.58613668  0.17227106  1
  La  La15  1  0.71918468  0.17227106  0.58613439  1
  La  La16  1  0.21918468  0.58613439  0.41386332  1
  La  La17  1  0.21918468  0.82772894  0.41386561  1
  La  La18  1  0.70428604  0.08246516  0.16498824  1
  La  La19  1  0.70428604  0.08252308  0.91753484  1
  La  La20  1  0.20428604  0.91753484  0.83501176  1
  La  La21  1  0.70428604  0.83501176  0.91747692  1
  La  La22  1  0.20428604  0.91747692  0.08246516  1
  La  La23  1  0.20428604  0.16498824  0.08252308  1
  La  La24  1  0.76948886  0.74611675  0.49221680  1
  La  La25  1  0.76948886  0.74610005  0.25388325  1
  La  La26  1  0.26948886  0.25388325  0.50778320  1
  La  La27  1  0.76948886  0.50778320  0.25389995  1
  La  La28  1  0.26948886  0.25389995  0.74611675  1
  La  La29  1  0.26948886  0.49221680  0.74610005  1
  Ge  Ge0  1  0.76107976  0.86798510  0.73588384  1
  Ge  Ge1  1  0.76107976  0.86789874  0.13201490  1
  Ge  Ge2  1  0.26107976  0.13201490  0.26411616  1
  Ge  Ge3  1  0.76107976  0.26411616  0.13210126  1
  Ge  Ge4  1  0.26107976  0.13210126  0.86798510  1
  Ge  Ge5  1  0.26107976  0.73588384  0.86789874  1
  Ge  Ge6  1  0.69442470  0.20004062  0.40010169  1
  Ge  Ge7  1  0.69442470  0.20006107  0.79995938  1
  Ge  Ge8  1  0.19442470  0.79995938  0.59989831  1
  Ge  Ge9  1  0.69442470  0.59989831  0.79993893  1
  Ge  Ge10  1  0.19442470  0.79993893  0.20004062  1
  Ge  Ge11  1  0.19442470  0.40010169  0.20006107  1
  Ge  Ge12  1  0.74779879  0.53320302  0.06639137  1
  Ge  Ge13  1  0.74779879  0.53318836  0.46679698  1
  Ge  Ge14  1  0.24779879  0.46679698  0.93360863  1
  Ge  Ge15  1  0.74779879  0.93360863  0.46681164  1
  Ge  Ge16  1  0.24779879  0.46681164  0.53320302  1
  Ge  Ge17  1  0.24779879  0.06639137  0.53318836  1
  O  O0  1  0.99413512  0.66666700  0.33333300  1
  O  O1  1  0.49413512  0.33333300  0.66666700  1
loop_
_geom_bond_atom_site_label_1
_geom_bond_atom_site_label_2
_geom_bond_distance
_geom_bond_site_symmetry_2
La12 O1 2.667044 1_555
La13 O1 2.667054 1_555
La14 O0 2.667044 1_455
La15 O1 2.667044 1_555
La16 O0 2.667054 1_455
La17 O0 2.667044 1_455
La24 O0 2.641610 1_555
La25 O0 2.641599 1_555
La26 O1 2.641610 1_555
La27 O0 2.641610 1_555
La28 O1 2.641599 1_555
La29 O1 2.641610 1_555
Ge0 La21 3.136711 1_555
Ge0 La19 3.136772 1_565
Ge0 La5 3.241380 1_555
Ge0 La9 3.241986 1_555
Ge0 La24 3.282098 1_555
Ge0 La3 3.299979 1_565
Ge0 La0 3.300848 1_555
Ge0 La20 3.334960 1_655
Ge1 La18 3.136711 1_565
Ge1 La21 3.136772 1_554
Ge1 La8 3.241380 1_555
Ge1 La7 3.241986 1_555
Ge1 La25 3.282098 1_555
Ge1 La10 3.299979 1_554
Ge1 La1 3.300848 1_565
Ge1 La22 3.334960 1_655
Ge2 La23 3.136711 1_555
Ge2 La22 3.136772 1_545
Ge2 La1 3.241380 1_455
Ge2 La6 3.241986 1_455
Ge2 La26 3.282098 1_555
Ge2 La7 3.299979 1_545
Ge2 La2 3.300848 1_555
Ge2 La18 3.334960 1_555
Ge3 La19 3.136711 1_554
Ge3 La18 3.136772 1_555
Ge3 La2 3.241380 1_555
Ge3 La11 3.241986 1_555
Ge3 La27 3.282098 1_555
Ge3 La6 3.299979 1_555
Ge3 La4 3.300848 1_554
Ge3 La23 3.334960 1_655
Ge4 La20 3.136711 1_545
Ge4 La23 3.136772 1_556
Ge4 La4 3.241380 1_455
Ge4 La3 3.241986 1_455
Ge4 La28 3.282098 1_555
Ge4 La11 3.299979 1_556
Ge4 La5 3.300848 1_545
Ge4 La19 3.334960 1_555
Ge5 La22 3.136711 1_556
Ge5 La20 3.136772 1_555
Ge5 La0 3.241380 1_455
Ge5 La10 3.241986 1_455
Ge5 La29 3.282098 1_555
Ge5 La9 3.299979 1_555
Ge5 La8 3.300848 1_556
Ge5 La21 3.334960 1_555
Ge6 La15 3.135967 1_555
Ge6 La13 3.136193 1_555
Ge6 La18 3.167120 1_555
Ge6 La6 3.193789 1_555
Ge6 La1 3.193897 1_555
Ge6 La26 3.269349 1_555
Ge6 La2 3.327580 1_555
Ge6 La7 3.327693 1_545
Ge7 La12 3.135967 1_555
Ge7 La15 3.136192 1_555
Ge7 La19 3.167120 1_555
Ge7 La3 3.193789 1_555
Ge7 La4 3.193897 1_555
Ge7 La28 3.269349 1_555
Ge7 La5 3.327580 1_545
Ge7 La11 3.327693 1_556
Ge8 La17 3.135967 1_555
Ge8 La16 3.136193 1_555
Ge8 La20 3.167120 1_555
Ge8 La9 3.193789 1_555
Ge8 La5 3.193897 1_555
Ge8 La24 3.269349 1_455
Ge8 La0 3.327580 1_455
Ge8 La3 3.327693 1_465
Ge9 La13 3.135967 1_555
Ge9 La12 3.136193 1_555
Ge9 La21 3.167120 1_555
Ge9 La10 3.193789 1_555
Ge9 La0 3.193897 1_555
Ge9 La29 3.269349 1_555
Ge9 La8 3.327580 1_556
Ge9 La9 3.327693 1_555
Ge10 La14 3.135967 1_555
Ge10 La17 3.136192 1_555
Ge10 La22 3.167120 1_555
Ge10 La7 3.193789 1_555
Ge10 La8 3.193897 1_555
Ge10 La25 3.269349 1_455
Ge10 La1 3.327580 1_465
Ge10 La10 3.327693 1_454
Ge11 La16 3.135967 1_555
Ge11 La14 3.136193 1_555
Ge11 La23 3.167120 1_555
Ge11 La11 3.193789 1_555
Ge11 La2 3.193897 1_555
Ge11 La27 3.269349 1_455
Ge11 La4 3.327580 1_454
Ge11 La6 3.327693 1_455
Ge12 La25 3.135523 1_555
Ge12 La27 3.135916 1_555
Ge12 La12 3.220236 1_554
Ge12 La8 3.231099 1_555
Ge12 La11 3.231225 1_555
Ge12 La4 3.252766 1_554
Ge12 La10 3.252913 1_554
Ge12 La14 3.549426 1_655
Ge12 La14 3.914007 1_555
Ge13 La27 3.135523 1_555
Ge13 La24 3.135915 1_555
Ge13 La13 3.220236 1_555
Ge13 La2 3.231100 1_555
Ge13 La9 3.231225 1_555
Ge13 La0 3.252766 1_555
Ge13 La6 3.252913 1_555
Ge13 La16 3.549426 1_655
Ge13 La16 3.914007 1_555
Ge14 La28 3.135523 1_555
Ge14 La29 3.135916 1_555
Ge14 La14 3.220236 1_556
Ge14 La4 3.231099 1_455
Ge14 La10 3.231225 1_455
Ge14 La8 3.252766 1_556
Ge14 La11 3.252913 1_556
Ge14 La12 3.549426 1_555
Ge14 La12 3.914007 1_455
Ge15 La24 3.135523 1_555
Ge15 La25 3.135916 1_555
Ge15 La15 3.220236 1_565
Ge15 La5 3.231100 1_555
Ge15 La7 3.231225 1_555
Ge15 La1 3.252766 1_565
Ge15 La3 3.252913 1_565
Ge15 La17 3.549426 1_655
Ge15 La17 3.914007 1_555
Ge16 La29 3.135523 1_555
Ge16 La26 3.135915 1_555
Ge16 La16 3.220236 1_555
Ge16 La0 3.231100 1_455
Ge16 La6 3.231225 1_455
Ge16 La2 3.252766 1_555
Ge16 La9 3.252913 1_555
Ge16 La13 3.549426 1_555
Ge16 La13 3.914007 1_455
Ge17 La26 3.135523 1_555
Ge17 La28 3.135916 1_555
Ge17 La17 3.220236 1_545
Ge17 La1 3.231100 1_455
Ge17 La3 3.231225 1_455
Ge17 La5 3.252766 1_545
Ge17 La7 3.252913 1_545
Ge17 La15 3.549426 1_555
Ge17 La15 3.914007 1_455
