# generated using pymatgen
data_Ca2NbFeO6
_symmetry_space_group_name_H-M   'P 1'
_cell_length_a   5.47365861
_cell_length_b   9.65300858
_cell_length_c   9.65308697
_cell_angle_alpha   71.55314298
_cell_angle_beta   90.15460502
_cell_angle_gamma   90.15448843
_symmetry_Int_Tables_number   1
_chemical_formula_structural   Ca2NbFeO6
_chemical_formula_sum   'Ca8 Nb4 Fe4 O24'
_cell_volume   483.83287627
_cell_formula_units_Z   4
loop_
 _symmetry_equiv_pos_site_id
 _symmetry_equiv_pos_as_xyz
  1  'x, y, z'
loop_
 _atom_site_type_symbol
 _atom_site_label
 _atom_site_symmetry_multiplicity
 _atom_site_fract_x
 _atom_site_fract_y
 _atom_site_fract_z
 _atom_site_occupancy
  Ca  Ca0  1  0.01321700  0.34833200  0.90050700  1
  Ca  Ca1  1  0.01322000  0.84833100  0.40050700  1
  Ca  Ca2  1  0.98678000  0.65166700  0.09949300  1
  Ca  Ca3  1  0.98678100  0.15166800  0.59949300  1
  Ca  Ca4  1  0.48677700  0.59949300  0.65166700  1
  Ca  Ca5  1  0.48677800  0.09949300  0.15166800  1
  Ca  Ca6  1  0.51322200  0.40050700  0.34833300  1
  Ca  Ca7  1  0.51322200  0.90050600  0.84833300  1
  Nb  Nb0  1  0.00000200  0.25000000  0.25000000  1
  Nb  Nb1  1  0.99999900  0.75000000  0.74999900  1
  Nb  Nb2  1  0.50000000  0.25000100  0.74999900  1
  Nb  Nb3  1  0.50000100  0.75000000  0.25000000  1
  Fe  Fe0  1  0.00000000  0.50000000  0.50000000  1
  Fe  Fe1  1  0.50000000  0.00000000  0.50000000  1
  Fe  Fe2  1  0.00000100  0.00000000  0.00000000  1
  Fe  Fe3  1  0.50000000  0.50000000  0.00000000  1
  O  O0  1  0.90759400  0.13974500  0.11160200  1
  O  O1  1  0.90759700  0.63974500  0.61160300  1
  O  O2  1  0.09240200  0.86025400  0.88839800  1
  O  O3  1  0.09240500  0.36025500  0.38839700  1
  O  O4  1  0.59240600  0.38840100  0.86025000  1
  O  O5  1  0.59240500  0.88840100  0.36025000  1
  O  O6  1  0.40759500  0.61160000  0.13974900  1
  O  O7  1  0.40759600  0.11160000  0.63975000  1
  O  O8  1  0.20464200  0.37521000  0.67219400  1
  O  O9  1  0.20464100  0.87521000  0.17219300  1
  O  O10  1  0.79535900  0.62479000  0.32780700  1
  O  O11  1  0.79535800  0.12478900  0.82780700  1
  O  O12  1  0.29535900  0.32780700  0.12479400  1
  O  O13  1  0.29535800  0.82780700  0.62479300  1
  O  O14  1  0.70464000  0.67219400  0.87520600  1
  O  O15  1  0.70464200  0.17219300  0.37520700  1
  O  O16  1  0.29847100  0.12867500  0.92108300  1
  O  O17  1  0.29847300  0.62867400  0.42108200  1
  O  O18  1  0.70152900  0.87132600  0.07891700  1
  O  O19  1  0.70152800  0.37132600  0.57891800  1
  O  O20  1  0.20152700  0.57891400  0.87132500  1
  O  O21  1  0.20152700  0.07891400  0.37132400  1
  O  O22  1  0.79847400  0.42108600  0.12867500  1
  O  O23  1  0.79847400  0.92108500  0.62867500  1
loop_
_geom_bond_atom_site_label_1
_geom_bond_atom_site_label_2
_geom_bond_distance
_geom_bond_site_symmetry_2
Ca0 O4 2.347554 1_455
Ca0 O8 2.381512 1_555
Ca0 O20 2.385040 1_555
Ca0 O0 2.438081 1_456
Ca0 O16 2.592858 1_555
Ca0 O12 2.612260 1_556
Ca0 O11 2.740592 1_455
Ca0 O22 2.779083 1_456
Ca1 O5 2.347576 1_455
Ca1 O9 2.381509 1_555
Ca1 O21 2.385040 1_565
Ca1 O1 2.438081 1_455
Ca1 O17 2.592856 1_555
Ca1 O13 2.612241 1_555
Ca1 O10 2.740580 1_455
Ca1 O23 2.779090 1_455
Ca2 O6 2.347572 1_655
Ca2 O10 2.381513 1_555
Ca2 O22 2.385022 1_555
Ca2 O2 2.438080 1_654
Ca2 O18 2.592863 1_555
Ca2 O14 2.612250 1_554
Ca2 O9 2.740597 1_655
Ca2 O20 2.779087 1_654
Ca3 O7 2.347574 1_655
Ca3 O11 2.381514 1_555
Ca3 O23 2.385041 1_545
Ca3 O3 2.438088 1_655
Ca3 O19 2.592864 1_555
Ca3 O15 2.612242 1_555
Ca3 O8 2.740594 1_655
Ca3 O21 2.779098 1_655
Ca4 O1 2.347593 1_555
Ca4 O13 2.381495 1_555
Ca4 O17 2.385067 1_555
Ca4 O4 2.438048 1_555
Ca4 O20 2.592864 1_555
Ca4 O8 2.612191 1_555
Ca4 O14 2.740584 1_555
Ca4 O19 2.779055 1_555
Ca5 O0 2.347574 1_555
Ca5 O12 2.381495 1_555
Ca5 O16 2.385073 1_554
Ca5 O5 2.438040 1_545
Ca5 O21 2.592852 1_555
Ca5 O9 2.612201 1_545
Ca5 O15 2.740582 1_555
Ca5 O18 2.779065 1_545
Ca6 O3 2.347577 1_555
Ca6 O15 2.381497 1_555
Ca6 O19 2.385072 1_555
Ca6 O6 2.438057 1_555
Ca6 O22 2.592870 1_555
Ca6 O10 2.612199 1_555
Ca6 O12 2.740579 1_555
Ca6 O17 2.779050 1_555
Ca7 O2 2.347594 1_555
Ca7 O14 2.381477 1_555
Ca7 O18 2.385068 1_556
Ca7 O7 2.438055 1_565
Ca7 O23 2.592870 1_555
Ca7 O11 2.612196 1_565
Ca7 O13 2.740585 1_555
Ca7 O16 2.779077 1_565
Nb0 O3 2.016578 1_555
Nb0 O0 2.016593 1_455
Nb0 O12 2.016945 1_555
Nb0 O15 2.016962 1_455
Nb0 O21 2.023521 1_555
Nb0 O22 2.023533 1_455
Nb1 O1 2.016569 1_555
Nb1 O2 2.016587 1_655
Nb1 O13 2.016953 1_655
Nb1 O14 2.016956 1_555
Nb1 O23 2.023515 1_555
Nb1 O20 2.023536 1_655
Nb2 O7 2.016566 1_555
Nb2 O4 2.016575 1_555
Nb2 O8 2.016953 1_555
Nb2 O11 2.016972 1_555
Nb2 O19 2.023511 1_555
Nb2 O16 2.023536 1_555
Nb3 O5 2.016573 1_555
Nb3 O6 2.016575 1_555
Nb3 O10 2.016961 1_555
Nb3 O9 2.016970 1_555
Nb3 O17 2.023521 1_555
Nb3 O18 2.023527 1_555
Fe0 O1 2.040202 1_455
Fe0 O3 2.040204 1_555
Fe0 O19 2.046747 1_455
Fe0 O17 2.046751 1_555
Fe0 O10 2.049082 1_455
Fe0 O8 2.049091 1_555
Fe1 O5 2.040219 1_545
Fe1 O7 2.040224 1_555
Fe1 O21 2.046754 1_555
Fe1 O23 2.046756 1_545
Fe1 O15 2.049093 1_555
Fe1 O13 2.049093 1_545
Fe2 O2 2.040200 1_544
Fe2 O0 2.040200 1_455
Fe2 O16 2.046741 1_554
Fe2 O18 2.046745 1_445
Fe2 O9 2.049079 1_545
Fe2 O11 2.049085 1_454
Fe3 O6 2.040218 1_555
Fe3 O4 2.040220 1_554
Fe3 O20 2.046749 1_554
Fe3 O22 2.046754 1_555
Fe3 O12 2.049093 1_555
Fe3 O14 2.049096 1_554
