# generated using pymatgen
data_KRb2InF6
_symmetry_space_group_name_H-M   'P 1'
_cell_length_a   6.55130800
_cell_length_b   6.55506400
_cell_length_c   11.35741468
_cell_angle_alpha   54.79755426
_cell_angle_beta   90.00000000
_cell_angle_gamma   90.00000000
_symmetry_Int_Tables_number   1
_chemical_formula_structural   KRb2InF6
_chemical_formula_sum   'K2 Rb4 In2 F12'
_cell_volume   398.53863826
_cell_formula_units_Z   2
loop_
 _symmetry_equiv_pos_site_id
 _symmetry_equiv_pos_as_xyz
  1  'x, y, z'
loop_
 _atom_site_type_symbol
 _atom_site_label
 _atom_site_symmetry_multiplicity
 _atom_site_fract_x
 _atom_site_fract_y
 _atom_site_fract_z
 _atom_site_occupancy
  K  K0  1  0.00000000  0.50000000  0.50000000  1
  K  K1  1  0.50000000  0.50000000  0.00000000  1
  Rb  Rb0  1  0.47202600  0.75051400  0.25122300  1
  Rb  Rb1  1  0.52797400  0.24948600  0.74877700  1
  Rb  Rb2  1  0.97202600  0.24948600  0.24877700  1
  Rb  Rb3  1  0.02797400  0.75051400  0.75122300  1
  In  In0  1  0.00000000  0.00000000  0.00000000  1
  In  In1  1  0.50000000  0.00000000  0.50000000  1
  F  F0  1  0.18285900  0.22856200  0.03345900  1
  F  F1  1  0.81714100  0.77143800  0.96654100  1
  F  F2  1  0.68285900  0.77143800  0.46654100  1
  F  F3  1  0.31714100  0.22856200  0.53345900  1
  F  F4  1  0.01643200  0.71083600  0.22334900  1
  F  F5  1  0.98356800  0.28916400  0.77665100  1
  F  F6  1  0.51643200  0.28916400  0.27665100  1
  F  F7  1  0.48356800  0.71083600  0.72334900  1
  F  F8  1  0.73487900  0.14362900  0.03550000  1
  F  F9  1  0.26512100  0.85637100  0.96450000  1
  F  F10  1  0.23487900  0.85637100  0.46450000  1
  F  F11  1  0.76512100  0.14362900  0.53550000  1
loop_
_geom_bond_atom_site_label_1
_geom_bond_atom_site_label_2
_geom_bond_distance
_geom_bond_site_symmetry_2
F0 In0 2.116757 1_555
F0 K1 2.616778 1_555
F0 Rb2 2.879857 1_455
F0 Rb3 3.219669 1_554
F0 Rb0 3.254214 1_545
F1 In0 2.116757 1_666
F1 K1 2.616778 1_556
F1 Rb3 2.879857 1_655
F1 Rb2 3.219669 1_556
F1 Rb1 3.254214 1_565
F2 In1 2.116757 1_565
F2 K0 2.616778 1_655
F2 Rb0 2.879857 1_555
F2 Rb1 3.219669 1_555
F2 Rb2 3.254214 1_565
F3 In1 2.116757 1_555
F3 K0 2.616778 1_555
F3 Rb1 2.879857 1_555
F3 Rb0 3.219669 1_555
F3 Rb3 3.254214 1_545
F4 In0 2.120278 1_565
F4 K0 2.605284 1_555
F4 Rb2 2.882144 1_455
F4 Rb0 3.028441 1_555
F5 In0 2.120278 1_656
F5 K0 2.605284 1_655
F5 Rb3 2.882144 1_655
F5 Rb1 3.028441 1_555
F6 In1 2.120278 1_555
F6 K1 2.605284 1_555
F6 Rb0 2.882144 1_555
F6 Rb2 3.028441 1_555
F7 In1 2.120278 1_565
F7 K1 2.605284 1_556
F7 Rb1 2.882144 1_555
F7 Rb3 3.028441 1_555
F8 In0 2.122126 1_655
F8 K1 2.627073 1_555
F8 Rb0 2.886080 1_545
F8 Rb1 3.212166 1_554
F8 Rb2 3.271166 1_555
F9 In0 2.122126 1_566
F9 K1 2.627073 1_556
F9 Rb1 2.886080 1_565
F9 Rb0 3.212166 1_556
F9 Rb3 3.271166 1_555
F10 In1 2.122126 1_565
F10 K0 2.627073 1_555
F10 Rb2 2.886080 1_465
F10 Rb3 3.212166 1_555
F10 Rb0 3.271166 1_555
F11 In1 2.122126 1_555
F11 K0 2.627073 1_655
F11 Rb3 2.886080 1_645
F11 Rb2 3.212166 1_555
F11 Rb1 3.271166 1_555
