# generated using pymatgen
data_SrMg14Zr
_symmetry_space_group_name_H-M   'P 1'
_cell_length_a   6.61835397
_cell_length_b   6.61835340
_cell_length_c   10.29988288
_cell_angle_alpha   90.00000000
_cell_angle_beta   90.00000000
_cell_angle_gamma   120.00000289
_symmetry_Int_Tables_number   1
_chemical_formula_structural   SrMg14Zr
_chemical_formula_sum   'Sr1 Mg14 Zr1'
_cell_volume   390.71748774
_cell_formula_units_Z   1
loop_
 _symmetry_equiv_pos_site_id
 _symmetry_equiv_pos_as_xyz
  1  'x, y, z'
loop_
 _atom_site_type_symbol
 _atom_site_label
 _atom_site_symmetry_multiplicity
 _atom_site_fract_x
 _atom_site_fract_y
 _atom_site_fract_z
 _atom_site_occupancy
  Sr  Sr0  1  0.16666700  0.33333300  0.62500000  1
  Mg  Mg0  1  0.16830925  0.83415413  0.12500000  1
  Mg  Mg1  1  0.17642591  0.83821245  0.62500000  1
  Mg  Mg2  1  0.66584587  0.33169075  0.12500000  1
  Mg  Mg3  1  0.66178755  0.32357409  0.62500000  1
  Mg  Mg4  1  0.66584587  0.83415413  0.12500000  1
  Mg  Mg5  1  0.66178755  0.83821245  0.62500000  1
  Mg  Mg6  1  0.33644657  0.16355343  0.36392414  1
  Mg  Mg7  1  0.33644657  0.16355343  0.88607586  1
  Mg  Mg8  1  0.33644657  0.67289414  0.36392414  1
  Mg  Mg9  1  0.33644657  0.67289414  0.88607586  1
  Mg  Mg10  1  0.82710586  0.16355343  0.36392414  1
  Mg  Mg11  1  0.82710586  0.16355343  0.88607586  1
  Mg  Mg12  1  0.83333300  0.66666700  0.37693754  1
  Mg  Mg13  1  0.83333300  0.66666700  0.87306246  1
  Zr  Zr0  1  0.16666700  0.33333300  0.12500000  1
loop_
_geom_bond_atom_site_label_1
_geom_bond_atom_site_label_2
_geom_bond_distance
_geom_bond_site_symmetry_2
Mg0 Mg9 3.101777 1_554
Mg0 Mg8 3.101777 1_555
Mg0 Mg7 3.101784 1_564
Mg0 Mg6 3.101784 1_565
Mg0 Mg12 3.227992 1_455
Mg0 Mg13 3.227992 1_454
Mg0 Mg2 3.292873 1_565
Mg0 Mg4 3.292873 1_555
Mg0 Zr0 3.309190 1_565
Mg0 Zr0 3.309190 1_555
Mg0 Mg2 3.325480 1_455
Mg0 Mg4 3.325481 1_455
Mg1 Mg3 3.212295 1_565
Mg1 Mg5 3.212295 1_555
Mg1 Mg13 3.224158 1_455
Mg1 Mg12 3.224158 1_455
Mg1 Mg8 3.272389 1_555
Mg1 Mg9 3.272389 1_555
Mg1 Mg6 3.272396 1_565
Mg1 Mg7 3.272396 1_565
Mg1 Sr0 3.309649 1_555
Mg1 Sr0 3.309649 1_565
Mg1 Mg3 3.406059 1_455
Mg1 Mg5 3.406059 1_455
Mg2 Mg7 3.101784 1_554
Mg2 Mg6 3.101784 1_555
Mg2 Mg4 3.292873 1_545
Mg2 Zr0 3.309190 1_555
Mg2 Zr0 3.309190 1_655
Mg2 Mg4 3.325480 1_555
Mg3 Mg5 3.212295 1_545
Mg3 Mg6 3.272396 1_555
Mg3 Mg7 3.272396 1_555
Mg3 Sr0 3.309650 1_655
Mg3 Sr0 3.309650 1_555
Mg3 Mg5 3.406059 1_555
Mg4 Mg9 3.101784 1_554
Mg4 Mg8 3.101784 1_555
Mg4 Zr0 3.309190 1_555
Mg4 Zr0 3.309190 1_665
Mg5 Mg8 3.272396 1_555
Mg5 Mg9 3.272396 1_555
Mg5 Sr0 3.309649 1_555
Mg5 Sr0 3.309649 1_665
Mg6 Zr0 3.137487 1_555
Mg6 Mg8 3.247357 1_545
Mg6 Sr0 3.319464 1_555
Mg6 Mg8 3.370997 1_555
Mg7 Zr0 3.137487 1_556
Mg7 Mg9 3.247357 1_545
Mg7 Sr0 3.319464 1_555
Mg7 Mg9 3.370997 1_555
Mg8 Zr0 3.137494 1_555
Mg8 Sr0 3.319470 1_555
Mg9 Zr0 3.137494 1_556
Mg9 Sr0 3.319470 1_555
Mg10 Mg2 3.101777 1_555
Mg10 Mg4 3.101784 1_545
Mg10 Zr0 3.137494 1_655
Mg10 Mg8 3.247357 1_545
Mg10 Mg6 3.247357 1_555
Mg10 Mg3 3.272389 1_555
Mg10 Mg5 3.272396 1_545
Mg10 Mg12 3.312082 1_555
Mg10 Mg12 3.312082 1_545
Mg10 Sr0 3.319470 1_655
Mg10 Mg8 3.370997 1_655
Mg10 Mg6 3.370997 1_655
Mg11 Mg2 3.101777 1_556
Mg11 Mg4 3.101784 1_546
Mg11 Zr0 3.137494 1_656
Mg11 Mg9 3.247357 1_545
Mg11 Mg7 3.247357 1_555
Mg11 Mg3 3.272389 1_555
Mg11 Mg5 3.272396 1_545
Mg11 Mg13 3.312082 1_555
Mg11 Mg13 3.312082 1_545
Mg11 Sr0 3.319470 1_655
Mg11 Mg9 3.370997 1_655
Mg11 Mg7 3.370997 1_655
Mg12 Mg5 3.224151 1_555
Mg12 Mg3 3.224157 1_555
Mg12 Mg4 3.227986 1_555
Mg12 Mg2 3.227992 1_555
Mg12 Mg6 3.312082 1_555
Mg12 Mg6 3.312082 1_665
Mg12 Mg8 3.312083 1_655
Mg12 Mg8 3.312083 1_555
Mg13 Mg5 3.224151 1_555
Mg13 Mg3 3.224157 1_555
Mg13 Mg4 3.227986 1_556
Mg13 Mg2 3.227992 1_556
Mg13 Mg7 3.312082 1_555
Mg13 Mg7 3.312082 1_665
Mg13 Mg9 3.312083 1_655
Mg13 Mg9 3.312083 1_555
