# generated using pymatgen
data_Ca3MnS2O17
_symmetry_space_group_name_H-M   'P 1'
_cell_length_a   8.60879374
_cell_length_b   8.62565912
_cell_length_c   10.64847800
_cell_angle_alpha   90.00000000
_cell_angle_beta   90.00000000
_cell_angle_gamma   119.93533883
_symmetry_Int_Tables_number   1
_chemical_formula_structural   Ca3MnS2O17
_chemical_formula_sum   'Ca6 Mn2 S4 O34'
_cell_volume   685.22842102
_cell_formula_units_Z   2
loop_
 _symmetry_equiv_pos_site_id
 _symmetry_equiv_pos_as_xyz
  1  'x, y, z'
loop_
 _atom_site_type_symbol
 _atom_site_label
 _atom_site_symmetry_multiplicity
 _atom_site_fract_x
 _atom_site_fract_y
 _atom_site_fract_z
 _atom_site_occupancy
  Ca  Ca0  1  0.30838600  0.15057500  0.25000000  1
  Ca  Ca1  1  0.84127200  0.69128000  0.25000000  1
  Ca  Ca2  1  0.85086500  0.15937800  0.25000000  1
  Ca  Ca3  1  0.15781000  0.84942500  0.75000000  1
  Ca  Ca4  1  0.14999200  0.30872000  0.75000000  1
  Ca  Ca5  1  0.69148700  0.84062200  0.75000000  1
  Mn  Mn0  1  0.00031800  0.00000000  0.00000000  1
  Mn  Mn1  1  0.00031800  0.00000000  0.50000000  1
  S  S0  1  0.66679000  0.33339100  0.02280200  1
  S  S1  1  0.66679000  0.33339100  0.47719800  1
  S  S2  1  0.33340000  0.66660900  0.52280200  1
  S  S3  1  0.33340000  0.66660900  0.97719800  1
  O  O0  1  0.66670600  0.33340400  0.88391200  1
  O  O1  1  0.66670600  0.33340400  0.61608800  1
  O  O2  1  0.33330200  0.66659600  0.38391200  1
  O  O3  1  0.33330200  0.66659600  0.11608800  1
  O  O4  1  0.50079600  0.98501100  0.25000000  1
  O  O5  1  0.48443500  0.49935500  0.25000000  1
  O  O6  1  0.01498500  0.51585600  0.25000000  1
  O  O7  1  0.51578600  0.01498900  0.75000000  1
  O  O8  1  0.98508000  0.50064500  0.75000000  1
  O  O9  1  0.49912900  0.48414400  0.75000000  1
  O  O10  1  0.09260900  0.18422000  0.11616400  1
  O  O11  1  0.09058000  0.90746500  0.11493000  1
  O  O12  1  0.81673900  0.90860200  0.11494300  1
  O  O13  1  0.09260900  0.18422000  0.38383600  1
  O  O14  1  0.09058000  0.90746500  0.38507000  1
  O  O15  1  0.81673900  0.90860200  0.38505700  1
  O  O16  1  0.90838900  0.81578000  0.61616400  1
  O  O17  1  0.18311400  0.09253500  0.61493000  1
  O  O18  1  0.90813700  0.09139800  0.61494300  1
  O  O19  1  0.90838900  0.81578000  0.88383600  1
  O  O20  1  0.18311400  0.09253500  0.88507000  1
  O  O21  1  0.90813700  0.09139800  0.88505700  1
  O  O22  1  0.47982200  0.25628400  0.07118800  1
  O  O23  1  0.77624900  0.51993200  0.07129900  1
  O  O24  1  0.74384100  0.22368300  0.07117600  1
  O  O25  1  0.47982200  0.25628400  0.42881200  1
  O  O26  1  0.77624900  0.51993200  0.42870100  1
  O  O27  1  0.74384100  0.22368300  0.42882400  1
  O  O28  1  0.22353800  0.74371600  0.57118800  1
  O  O29  1  0.25631700  0.48006800  0.57129900  1
  O  O30  1  0.52015800  0.77631700  0.57117600  1
  O  O31  1  0.22353800  0.74371600  0.92881200  1
  O  O32  1  0.25631700  0.48006800  0.92870100  1
  O  O33  1  0.52015800  0.77631700  0.92882400  1
loop_
_geom_bond_atom_site_label_1
_geom_bond_atom_site_label_2
_geom_bond_distance
_geom_bond_site_symmetry_2
Ca0 O25 2.300432 1_555
Ca0 O22 2.300432 1_555
Ca0 O11 2.461212 1_545
Ca0 O14 2.461212 1_545
Ca0 O13 2.470609 1_555
Ca0 O10 2.470609 1_555
Ca0 O5 2.607136 1_555
Ca0 O4 2.672843 1_545
Ca1 O26 2.300670 1_555
Ca1 O23 2.300670 1_555
Ca1 O15 2.453963 1_555
Ca1 O12 2.453963 1_555
Ca1 O14 2.481517 1_655
Ca1 O11 2.481517 1_655
Ca1 O6 2.604696 1_655
Ca1 O5 2.664924 1_555
Ca2 O24 2.300561 1_555
Ca2 O27 2.300561 1_555
Ca2 O13 2.441921 1_655
Ca2 O10 2.441921 1_655
Ca2 O15 2.489856 1_545
Ca2 O12 2.489856 1_545
Ca2 O4 2.611615 1_545
Ca2 O6 2.667409 1_655
Ca3 O31 2.300435 1_555
Ca3 O28 2.300435 1_555
Ca3 O17 2.461212 1_565
Ca3 O20 2.461212 1_565
Ca3 O19 2.470602 1_455
Ca3 O16 2.470602 1_455
Ca3 O8 2.607136 1_455
Ca3 O7 2.672858 1_565
Ca4 O29 2.300670 1_555
Ca4 O32 2.300670 1_555
Ca4 O21 2.453963 1_455
Ca4 O18 2.453963 1_455
Ca4 O17 2.481512 1_555
Ca4 O20 2.481512 1_555
Ca4 O9 2.604696 1_555
Ca4 O8 2.664924 1_455
Ca5 O33 2.300561 1_555
Ca5 O30 2.300561 1_555
Ca5 O19 2.441921 1_555
Ca5 O16 2.441921 1_555
Ca5 O18 2.489856 1_565
Ca5 O21 2.489856 1_565
Ca5 O7 2.611608 1_565
Ca5 O9 2.667409 1_555
Mn0 O20 1.832384 1_554
Mn0 O11 1.832390 1_545
Mn0 O21 1.836783 1_454
Mn0 O12 1.836783 1_445
Mn0 O19 1.851026 1_444
Mn0 O10 1.851026 1_555
Mn1 O17 1.832384 1_555
Mn1 O14 1.832390 1_545
Mn1 O18 1.836783 1_455
Mn1 O15 1.836783 1_445
Mn1 O16 1.851026 1_445
Mn1 O13 1.851026 1_555
O0 S0 1.478967 1_556
O1 S1 1.478967 1_555
O2 S2 1.478967 1_555
O3 S3 1.478967 1_554
O22 S0 1.493355 1_555
O23 S0 1.493451 1_555
O24 S0 1.492410 1_555
O25 S1 1.493355 1_555
O26 S1 1.493451 1_555
O27 S1 1.492410 1_555
O28 S2 1.493362 1_555
O29 S2 1.493450 1_555
O30 S2 1.492404 1_555
O31 S3 1.493362 1_555
O32 S3 1.493450 1_555
O33 S3 1.492404 1_555
