# generated using pymatgen
data_MgMn2O4
_symmetry_space_group_name_H-M   'P 1'
_cell_length_a   6.07118433
_cell_length_b   10.34759386
_cell_length_c   6.07130399
_cell_angle_alpha   106.03060478
_cell_angle_beta   119.79448758
_cell_angle_gamma   73.96871648
_symmetry_Int_Tables_number   1
_chemical_formula_structural   MgMn2O4
_chemical_formula_sum   'Mg4 Mn8 O16'
_cell_volume   313.67849887
_cell_formula_units_Z   4
loop_
 _symmetry_equiv_pos_site_id
 _symmetry_equiv_pos_as_xyz
  1  'x, y, z'
loop_
 _atom_site_type_symbol
 _atom_site_label
 _atom_site_symmetry_multiplicity
 _atom_site_fract_x
 _atom_site_fract_y
 _atom_site_fract_z
 _atom_site_occupancy
  Mg  Mg0  1  0.51161200  0.48783400  0.48841900  1
  Mg  Mg1  1  0.01132900  0.98782100  0.98870800  1
  Mg  Mg2  1  0.31311800  0.06131900  0.68687900  1
  Mg  Mg3  1  0.81310500  0.56188200  0.18691900  1
  Mn  Mn0  1  0.11407600  0.63654700  0.88592800  1
  Mn  Mn1  1  0.61469900  0.13798200  0.38525800  1
  Mn  Mn2  1  0.06229200  0.31332800  0.43743600  1
  Mn  Mn3  1  0.56186100  0.81285100  0.93691000  1
  Mn  Mn4  1  0.06213800  0.31222000  0.93783400  1
  Mn  Mn5  1  0.56208300  0.81196500  0.43793800  1
  Mn  Mn6  1  0.56252100  0.31334800  0.93770400  1
  Mn  Mn7  1  0.06310300  0.81285400  0.43815800  1
  O  O0  1  0.17178700  0.42946400  0.82804500  1
  O  O1  1  0.67052200  0.93211400  0.32946800  1
  O  O2  1  0.95450100  0.19101400  0.04558200  1
  O  O3  1  0.45389300  0.69066100  0.54616000  1
  O  O4  1  0.96685200  0.20173000  0.59027600  1
  O  O5  1  0.46796700  0.70373900  0.09253000  1
  O  O6  1  0.40969600  0.20779700  0.59026900  1
  O  O7  1  0.90816000  0.70918500  0.09185600  1
  O  O8  1  0.40973700  0.20175700  0.03312200  1
  O  O9  1  0.90749700  0.70374600  0.53204800  1
  O  O10  1  0.71233400  0.42363200  0.83601300  1
  O  O11  1  0.21252800  0.92267500  0.33649200  1
  O  O12  1  0.71251100  0.41836500  0.28749100  1
  O  O13  1  0.21256100  0.91784100  0.78746700  1
  O  O14  1  0.16399000  0.42365200  0.28760600  1
  O  O15  1  0.66353200  0.92268300  0.78748500  1
loop_
_geom_bond_atom_site_label_1
_geom_bond_atom_site_label_2
_geom_bond_distance
_geom_bond_site_symmetry_2
Mg0 O3 1.989986 1_555
Mg0 O12 2.000650 1_555
Mg0 O10 2.037498 1_555
Mg0 O14 2.037521 1_555
Mg1 O2 1.993934 1_466
Mg1 O13 2.003963 1_555
Mg1 O11 2.042816 1_556
Mg1 O15 2.042821 1_455
Mg2 O6 2.075770 1_555
Mg2 O13 2.078881 1_545
Mg2 O4 2.105399 1_455
Mg2 O8 2.105489 1_556
Mg2 O11 2.112777 1_545
Mg2 O15 2.112796 1_545
Mg3 O7 2.071750 1_555
Mg3 O12 2.079316 1_555
Mg3 O5 2.108598 1_555
Mg3 O9 2.108646 1_555
Mg3 O14 2.112704 1_655
Mg3 O10 2.112927 1_554
Mn0 O0 2.032162 1_555
Mn0 O7 2.050912 1_456
Mn0 O5 2.082825 1_556
Mn0 O9 2.082825 1_455
Mn1 O1 2.020969 1_545
Mn1 O6 2.041192 1_555
Mn1 O4 2.058217 1_555
Mn1 O8 2.058277 1_555
Mn2 O6 1.960761 1_555
Mn2 O12 1.967267 1_455
Mn2 O4 2.006498 1_455
Mn2 O14 2.008216 1_555
Mn2 O0 2.193317 1_555
Mn2 O2 2.222009 1_455
Mn3 O7 1.949891 1_556
Mn3 O13 1.964806 1_555
Mn3 O5 1.993054 1_556
Mn3 O15 2.002266 1_555
Mn3 O1 2.213859 1_556
Mn3 O3 2.216330 1_555
Mn4 O0 1.921710 1_555
Mn4 O2 1.938718 1_456
Mn4 O4 1.978436 1_455
Mn4 O8 1.978473 1_556
Mn4 O14 1.989457 1_556
Mn4 O10 1.989488 1_455
Mn5 O1 1.935960 1_555
Mn5 O3 1.943826 1_555
Mn5 O9 1.960544 1_555
Mn5 O5 1.960589 1_555
Mn5 O11 1.985806 1_555
Mn5 O15 1.985849 1_555
Mn6 O6 1.961013 1_555
Mn6 O12 1.967282 1_556
Mn6 O8 2.006086 1_556
Mn6 O10 2.007783 1_555
Mn6 O0 2.193701 1_555
Mn6 O2 2.222571 1_556
Mn7 O7 1.949959 1_455
Mn7 O13 1.964886 1_555
Mn7 O9 1.992935 1_455
Mn7 O11 2.002153 1_555
Mn7 O1 2.213885 1_455
Mn7 O3 2.216454 1_555
