# generated using pymatgen
data_Co7NiP4
_symmetry_space_group_name_H-M   'P 1'
_cell_length_a   3.46520214
_cell_length_b   5.52026879
_cell_length_c   6.52093767
_cell_angle_alpha   89.77038561
_cell_angle_beta   90.00000000
_cell_angle_gamma   90.00000000
_symmetry_Int_Tables_number   1
_chemical_formula_structural   Co7NiP4
_chemical_formula_sum   'Co7 Ni1 P4'
_cell_volume   124.73701880
_cell_formula_units_Z   1
loop_
 _symmetry_equiv_pos_site_id
 _symmetry_equiv_pos_as_xyz
  1  'x, y, z'
loop_
 _atom_site_type_symbol
 _atom_site_label
 _atom_site_symmetry_multiplicity
 _atom_site_fract_x
 _atom_site_fract_y
 _atom_site_fract_z
 _atom_site_occupancy
  Co  Co0  1  0.50000000  0.64591252  0.06625891  1
  Co  Co1  1  0.50000000  0.14034726  0.43432457  1
  Co  Co2  1  -0.00000000  0.36067328  0.93219548  1
  Co  Co3  1  0.00000000  0.85132695  0.56574921  1
  Co  Co4  1  0.50000000  0.03765988  0.83482481  1
  Co  Co5  1  -0.00000000  0.46063844  0.33376592  1
  Co  Co6  1  -0.00000000  0.97386864  0.16686943  1
  Ni  Ni0  1  0.50000000  0.52861778  0.66368946  1
  P  P0  1  0.50000000  0.25571390  0.12170572  1
  P  P1  1  0.50000000  0.75259502  0.37681049  1
  P  P2  1  0.00000000  0.75319406  0.88171851  1
  P  P3  1  -0.00000000  0.23944926  0.62208750  1
loop_
_geom_bond_atom_site_label_1
_geom_bond_atom_site_label_2
_geom_bond_distance
_geom_bond_site_symmetry_2
Co0 P1 2.111246 1_555
Co0 P0 2.182707 1_555
Co0 P2 2.189757 1_554
Co0 P2 2.189757 1_654
Co1 P0 2.133293 1_555
Co1 P1 2.174585 1_545
Co1 P3 2.192189 1_555
Co1 P3 2.192189 1_655
Co2 P3 2.132588 1_555
Co2 P2 2.190374 1_555
Co2 P0 2.204323 1_556
Co2 P0 2.204323 1_456
Co3 P2 2.128339 1_555
Co3 P3 2.175259 1_565
Co3 P1 2.195976 1_555
Co3 P1 2.195976 1_455
Co4 P0 2.228592 1_556
Co4 P2 2.357434 1_645
Co4 P2 2.357434 1_545
Co4 P3 2.480891 1_655
Co4 P3 2.480891 1_555
Co5 P3 2.237717 1_555
Co5 P1 2.383659 1_455
Co5 P1 2.383659 1_555
Co5 P0 2.491258 1_555
Co5 P0 2.491258 1_455
Co6 P2 2.227035 1_554
Co6 P0 2.346418 1_465
Co6 P0 2.346418 1_565
Co6 P1 2.520860 1_555
Co6 P1 2.520860 1_455
Ni0 P1 2.238253 1_555
Ni0 P3 2.372153 1_555
Ni0 P3 2.372153 1_655
Ni0 P2 2.564045 1_555
Ni0 P2 2.564045 1_655
