# generated using pymatgen
data_Gd(Tl3Te2)3
_symmetry_space_group_name_H-M   'P 1'
_cell_length_a   8.85831200
_cell_length_b   8.85831200
_cell_length_c   9.05035566
_cell_angle_alpha   119.30051365
_cell_angle_beta   119.30051365
_cell_angle_gamma   90.00000000
_symmetry_Int_Tables_number   1
_chemical_formula_structural   Gd(Tl3Te2)3
_chemical_formula_sum   'Gd1 Tl9 Te6'
_cell_volume   512.60647691
_cell_formula_units_Z   1
loop_
 _symmetry_equiv_pos_site_id
 _symmetry_equiv_pos_as_xyz
  1  'x, y, z'
loop_
 _atom_site_type_symbol
 _atom_site_label
 _atom_site_symmetry_multiplicity
 _atom_site_fract_x
 _atom_site_fract_y
 _atom_site_fract_z
 _atom_site_occupancy
  Gd  Gd0  1  0.00000000  0.00000000  0.00000000  1
  Tl  Tl0  1  0.50000000  0.50000000  0.00000000  1
  Tl  Tl1  1  0.79958400  0.31335400  0.31878000  1
  Tl  Tl2  1  0.51919600  0.00542600  0.31878000  1
  Tl  Tl3  1  0.00542600  0.79958400  0.31878000  1
  Tl  Tl4  1  0.31335400  0.51919600  0.31878000  1
  Tl  Tl5  1  0.20041600  0.68664600  0.68122000  1
  Tl  Tl6  1  0.48080400  0.99457400  0.68122000  1
  Tl  Tl7  1  0.99457400  0.20041600  0.68122000  1
  Tl  Tl8  1  0.68664600  0.48080400  0.68122000  1
  Te  Te0  1  0.23585700  0.23585700  0.47171400  1
  Te  Te1  1  0.76414300  0.76414300  0.52828600  1
  Te  Te2  1  0.84937900  0.32239200  0.00000000  1
  Te  Te3  1  0.15062100  0.67760800  0.00000000  1
  Te  Te4  1  0.67760800  0.84937900  0.00000000  1
  Te  Te5  1  0.32239200  0.15062100  0.00000000  1
loop_
_geom_bond_atom_site_label_1
_geom_bond_atom_site_label_2
_geom_bond_distance
_geom_bond_site_symmetry_2
Gd0 Te0 3.081491 1_555
Gd0 Te1 3.081491 1_444
Gd0 Te4 3.152156 1_445
Gd0 Te3 3.152156 1_545
Gd0 Te2 3.152156 1_455
Gd0 Te5 3.152156 1_555
Te0 Tl0 3.451050 1_556
Te1 Tl0 3.451050 1_555
Te2 Tl1 3.161693 1_555
Te2 Tl6 3.161693 1_544
Te2 Tl4 3.424355 1_655
Te2 Tl7 3.424355 1_554
Te2 Tl0 3.471851 1_555
Te2 Tl8 3.501819 1_554
Te2 Tl3 3.501819 1_655
Te3 Tl5 3.161693 1_554
Te3 Tl2 3.161693 1_565
Te3 Tl8 3.424355 1_454
Te3 Tl3 3.424355 1_555
Te3 Tl0 3.471851 1_555
Te3 Tl4 3.501819 1_555
Te3 Tl7 3.501819 1_454
Te4 Tl3 3.161693 1_655
Te4 Tl8 3.161693 1_554
Te4 Tl1 3.424355 1_565
Te4 Tl6 3.424355 1_554
Te4 Tl0 3.471851 1_555
Te4 Tl2 3.501819 1_565
Te4 Tl5 3.501819 1_554
Te5 Tl7 3.161693 1_454
Te5 Tl4 3.161693 1_555
Te5 Tl5 3.424355 1_544
Te5 Tl2 3.424355 1_555
Te5 Tl0 3.471851 1_555
Te5 Tl6 3.501819 1_544
Te5 Tl1 3.501819 1_555
