# generated using pymatgen
data_Ba6Li2Si4ClO15
_symmetry_space_group_name_H-M   'P 1'
_cell_length_a   5.77536628
_cell_length_b   5.77536628
_cell_length_c   29.75666600
_cell_angle_alpha   90.00000000
_cell_angle_beta   90.00000000
_cell_angle_gamma   120.00000325
_symmetry_Int_Tables_number   1
_chemical_formula_structural   Ba6Li2Si4ClO15
_chemical_formula_sum   'Ba12 Li4 Si8 Cl2 O30'
_cell_volume   859.55556045
_cell_formula_units_Z   2
loop_
 _symmetry_equiv_pos_site_id
 _symmetry_equiv_pos_as_xyz
  1  'x, y, z'
loop_
 _atom_site_type_symbol
 _atom_site_label
 _atom_site_symmetry_multiplicity
 _atom_site_fract_x
 _atom_site_fract_y
 _atom_site_fract_z
 _atom_site_occupancy
  Ba  Ba0  1  0.00000000  0.00000000  0.00000000  1
  Ba  Ba1  1  0.00000000  0.00000000  0.50000000  1
  Ba  Ba2  1  0.00000000  0.00000000  0.85265500  1
  Ba  Ba3  1  0.00000000  0.00000000  0.64734500  1
  Ba  Ba4  1  0.00000000  0.00000000  0.35265500  1
  Ba  Ba5  1  0.00000000  0.00000000  0.14734500  1
  Ba  Ba6  1  0.66666700  0.33333300  0.91549200  1
  Ba  Ba7  1  0.66666700  0.33333300  0.58450800  1
  Ba  Ba8  1  0.33333300  0.66666700  0.41549200  1
  Ba  Ba9  1  0.33333300  0.66666700  0.08450800  1
  Ba  Ba10  1  0.33333300  0.66666700  0.75000000  1
  Ba  Ba11  1  0.66666700  0.33333300  0.25000000  1
  Li  Li0  1  0.33333300  0.66666700  0.85413200  1
  Li  Li1  1  0.33333300  0.66666700  0.64586800  1
  Li  Li2  1  0.66666700  0.33333300  0.35413200  1
  Li  Li3  1  0.66666700  0.33333300  0.14586800  1
  Si  Si0  1  0.33333300  0.66666700  0.94396800  1
  Si  Si1  1  0.33333300  0.66666700  0.55603200  1
  Si  Si2  1  0.66666700  0.33333300  0.44396800  1
  Si  Si3  1  0.66666700  0.33333300  0.05603200  1
  Si  Si4  1  0.66666700  0.33333300  0.80636200  1
  Si  Si5  1  0.66666700  0.33333300  0.69363800  1
  Si  Si6  1  0.33333300  0.66666700  0.30636200  1
  Si  Si7  1  0.33333300  0.66666700  0.19363800  1
  Cl  Cl0  1  0.00000000  0.00000000  0.75000000  1
  Cl  Cl1  1  0.00000000  0.00000000  0.25000000  1
  O  O0  1  0.51259400  0.02518700  0.82581500  1
  O  O1  1  0.97481300  0.48740600  0.82581500  1
  O  O2  1  0.51259400  0.48740600  0.82581500  1
  O  O3  1  0.51259400  0.02518700  0.67418500  1
  O  O4  1  0.97481300  0.48740600  0.67418500  1
  O  O5  1  0.51259400  0.48740600  0.67418500  1
  O  O6  1  0.02518700  0.51259400  0.32581500  1
  O  O7  1  0.48740600  0.97481300  0.32581500  1
  O  O8  1  0.48740600  0.51259400  0.32581500  1
  O  O9  1  0.02518700  0.51259400  0.17418500  1
  O  O10  1  0.48740600  0.97481300  0.17418500  1
  O  O11  1  0.48740600  0.51259400  0.17418500  1
  O  O12  1  0.64179900  0.82090000  0.92390300  1
  O  O13  1  0.17910000  0.82090000  0.92390300  1
  O  O14  1  0.17910000  0.35820100  0.92390300  1
  O  O15  1  0.64179900  0.82090000  0.57609700  1
  O  O16  1  0.17910000  0.82090000  0.57609700  1
  O  O17  1  0.17910000  0.35820100  0.57609700  1
  O  O18  1  0.82090000  0.64179900  0.42390300  1
  O  O19  1  0.82090000  0.17910000  0.42390300  1
  O  O20  1  0.35820100  0.17910000  0.42390300  1
  O  O21  1  0.82090000  0.64179900  0.07609700  1
  O  O22  1  0.82090000  0.17910000  0.07609700  1
  O  O23  1  0.35820100  0.17910000  0.07609700  1
  O  O24  1  0.66666700  0.33333300  0.75000000  1
  O  O25  1  0.33333300  0.66666700  0.25000000  1
  O  O26  1  0.33333300  0.66666700  0.99890600  1
  O  O27  1  0.33333300  0.66666700  0.50109400  1
  O  O28  1  0.66666700  0.33333300  0.49890600  1
  O  O29  1  0.66666700  0.33333300  0.00109400  1
loop_
_geom_bond_atom_site_label_1
_geom_bond_atom_site_label_2
_geom_bond_distance
_geom_bond_site_symmetry_2
Ba0 O22 2.887426 1_455
Ba0 O13 2.887426 1_544
Ba0 O21 2.887429 1_445
Ba0 O23 2.887429 1_555
Ba0 O12 2.887429 1_444
Ba0 O14 2.887429 1_554
Ba0 O26 3.334565 1_544
Ba0 O29 3.334565 1_455
Ba0 O26 3.334570 1_444
Ba0 O29 3.334570 1_445
Ba0 O29 3.334570 1_555
Ba0 O26 3.334570 1_554
Ba1 O16 2.887426 1_545
Ba1 O19 2.887426 1_455
Ba1 O17 2.887429 1_555
Ba1 O15 2.887429 1_445
Ba1 O20 2.887429 1_555
Ba1 O18 2.887429 1_445
Ba1 O27 3.334565 1_545
Ba1 O28 3.334565 1_455
Ba1 O27 3.334570 1_445
Ba1 O27 3.334570 1_555
Ba1 O28 3.334570 1_445
Ba1 O28 3.334570 1_555
Ba2 O13 2.775714 1_545
Ba2 O14 2.775717 1_555
Ba2 O12 2.775717 1_445
Ba2 O0 2.998740 1_455
Ba2 O1 2.998740 1_455
Ba2 O2 2.998742 1_555
Ba2 O2 2.998742 1_445
Ba2 O1 2.998745 1_445
Ba2 O0 2.998745 1_555
Ba2 Cl0 3.054671 1_555
Ba3 O16 2.775714 1_545
Ba3 O15 2.775717 1_445
Ba3 O17 2.775717 1_555
Ba3 O3 2.998740 1_455
Ba3 O4 2.998740 1_455
Ba3 O5 2.998742 1_555
Ba3 O5 2.998742 1_445
Ba3 O4 2.998745 1_445
Ba3 O3 2.998745 1_555
Ba3 Cl0 3.054671 1_555
Ba4 O19 2.775714 1_455
Ba4 O20 2.775717 1_555
Ba4 O18 2.775717 1_445
Ba4 O6 2.998740 1_545
Ba4 O7 2.998740 1_545
Ba4 O8 2.998742 1_555
Ba4 O8 2.998742 1_445
Ba4 O7 2.998745 1_445
Ba4 O6 2.998745 1_555
Ba4 Cl1 3.054671 1_555
Ba5 O22 2.775714 1_455
Ba5 O21 2.775717 1_445
Ba5 O23 2.775717 1_555
Ba5 O9 2.998740 1_545
Ba5 O10 2.998740 1_545
Ba5 O11 2.998742 1_555
Ba5 O11 2.998742 1_445
Ba5 O10 2.998745 1_445
Ba5 O9 2.998745 1_555
Ba5 Cl1 3.054671 1_555
Ba6 O29 2.547230 1_556
Ba6 O12 2.901171 1_545
Ba6 O14 2.901171 1_655
Ba6 O13 2.901176 1_545
Ba6 O13 2.901176 1_655
Ba6 O14 2.901182 1_555
Ba6 O12 2.901182 1_555
Ba6 O1 3.081593 1_555
Ba6 O0 3.081593 1_555
Ba6 O2 3.081593 1_555
Ba7 O28 2.547230 1_555
Ba7 O15 2.901171 1_545
Ba7 O17 2.901171 1_655
Ba7 O16 2.901176 1_545
Ba7 O16 2.901176 1_655
Ba7 O17 2.901182 1_555
Ba7 O15 2.901182 1_555
Ba7 O4 3.081593 1_555
Ba7 O3 3.081593 1_555
Ba7 O5 3.081593 1_555
Ba8 O27 2.547230 1_555
Ba8 O18 2.901171 1_455
Ba8 O20 2.901171 1_565
Ba8 O19 2.901176 1_455
Ba8 O19 2.901176 1_565
Ba8 O20 2.901182 1_555
Ba8 O18 2.901182 1_555
Ba8 O7 3.081593 1_555
Ba8 O6 3.081593 1_555
Ba8 O8 3.081593 1_555
Ba9 O26 2.547230 1_554
Ba9 O21 2.901171 1_455
Ba9 O23 2.901171 1_565
Ba9 O22 2.901176 1_455
Ba9 O22 2.901176 1_565
Ba9 O23 2.901182 1_555
Ba9 O21 2.901182 1_555
Ba9 O10 3.081593 1_555
Ba9 O9 3.081593 1_555
Ba9 O11 3.081593 1_555
Ba10 O0 2.881845 1_565
Ba10 O1 2.881845 1_455
Ba10 O3 2.881845 1_565
Ba10 O4 2.881845 1_455
Ba10 O2 2.881852 1_555
Ba10 O5 2.881852 1_555
Ba10 O24 3.334406 1_455
Ba10 O24 3.334406 1_565
Ba10 Cl0 3.334406 1_565
Ba10 Cl0 3.334411 1_555
Ba10 Cl0 3.334411 1_665
Ba10 O24 3.334416 1_555
Ba11 O6 2.881845 1_655
Ba11 O7 2.881845 1_545
Ba11 O9 2.881845 1_655
Ba11 O10 2.881845 1_545
Ba11 O8 2.881852 1_555
Ba11 O11 2.881852 1_555
Ba11 O25 3.334406 1_545
Ba11 O25 3.334406 1_655
Ba11 Cl1 3.334406 1_655
Ba11 Cl1 3.334411 1_665
Ba11 Cl1 3.334411 1_555
Ba11 O25 3.334416 1_555
Li0 O0 1.981287 1_565
Li0 O1 1.981287 1_455
Li0 O2 1.981296 1_555
Li1 O3 1.981287 1_565
Li1 O4 1.981287 1_455
Li1 O5 1.981296 1_555
Li2 O6 1.981287 1_655
Li2 O7 1.981287 1_545
Li2 O8 1.981296 1_555
Li3 O9 1.981287 1_655
Li3 O10 1.981287 1_545
Li3 O11 1.981296 1_555
O0 Si4 1.646346 1_555
O1 Si4 1.646346 1_555
O2 Si4 1.646346 1_555
O3 Si5 1.646346 1_555
O4 Si5 1.646346 1_555
O5 Si5 1.646346 1_555
O6 Si6 1.646346 1_555
O7 Si6 1.646346 1_555
O8 Si6 1.646346 1_555
O9 Si7 1.646346 1_555
O10 Si7 1.646346 1_555
O11 Si7 1.646346 1_555
O12 Si0 1.654330 1_555
O13 Si0 1.654330 1_555
O14 Si0 1.654330 1_555
O15 Si1 1.654330 1_555
O16 Si1 1.654330 1_555
O17 Si1 1.654330 1_555
O18 Si2 1.654330 1_555
O19 Si2 1.654330 1_555
O20 Si2 1.654330 1_555
O21 Si3 1.654330 1_555
O22 Si3 1.654330 1_555
O23 Si3 1.654330 1_555
O24 Si4 1.677145 1_555
O24 Si5 1.677145 1_555
O25 Si6 1.677145 1_555
O25 Si7 1.677145 1_555
O26 Si0 1.634772 1_555
O27 Si1 1.634772 1_555
O28 Si2 1.634772 1_555
O29 Si3 1.634772 1_555
