# generated using pymatgen
data_Cr3SbAs2
_symmetry_space_group_name_H-M   'P 1'
_cell_length_a   3.74279610
_cell_length_b   8.89560623
_cell_length_c   13.76662880
_cell_angle_alpha   75.05464394
_cell_angle_beta   90.00000000
_cell_angle_gamma   90.00000000
_symmetry_Int_Tables_number   1
_chemical_formula_structural   Cr3SbAs2
_chemical_formula_sum   'Cr12 Sb4 As8'
_cell_volume   442.84716657
_cell_formula_units_Z   4
loop_
 _symmetry_equiv_pos_site_id
 _symmetry_equiv_pos_as_xyz
  1  'x, y, z'
loop_
 _atom_site_type_symbol
 _atom_site_label
 _atom_site_symmetry_multiplicity
 _atom_site_fract_x
 _atom_site_fract_y
 _atom_site_fract_z
 _atom_site_occupancy
  Cr  Cr0  1  0.00000000  0.01205479  0.74360749  1
  Cr  Cr1  1  -0.00000000  0.32927786  0.08487417  1
  Cr  Cr2  1  -0.00000000  0.67728165  0.40657647  1
  Cr  Cr3  1  0.00000000  0.84376031  0.58131240  1
  Cr  Cr4  1  -0.00000000  0.16434453  0.91951941  1
  Cr  Cr5  1  -0.00000000  0.50907760  0.24793763  1
  Cr  Cr6  1  0.50000000  0.31539137  0.58692759  1
  Cr  Cr7  1  0.50000000  0.66575769  0.91693194  1
  Cr  Cr8  1  0.50000000  0.98460481  0.25166701  1
  Cr  Cr9  1  0.50000000  0.51139704  0.74356263  1
  Cr  Cr10  1  0.50000000  0.82389099  0.09298351  1
  Cr  Cr11  1  0.50000000  0.16214383  0.42699927  1
  Sb  Sb0  1  -0.00000000  0.86053846  0.94516211  1
  Sb  Sb1  1  0.00000000  0.19179935  0.28175595  1
  Sb  Sb2  1  -0.00000000  0.52856739  0.60265488  1
  Sb  Sb3  1  -0.00000000  0.47172406  0.88632748  1
  As  As0  1  0.00000000  0.80495750  0.22038577  1
  As  As1  1  -0.00000000  0.13811155  0.55607491  1
  As  As2  1  0.50000000  0.13329316  0.05853707  1
  As  As3  1  0.50000000  0.47281595  0.38898131  1
  As  As4  1  0.50000000  0.81185064  0.72228431  1
  As  As5  1  0.50000000  0.52410998  0.11016664  1
  As  As6  1  0.50000000  0.86270995  0.44427204  1
  As  As7  1  0.50000000  0.20054053  0.78049700  1
loop_
_geom_bond_atom_site_label_1
_geom_bond_atom_site_label_2
_geom_bond_distance
_geom_bond_site_symmetry_2
Cr0 Sb0 2.754407 1_545
Cr1 Sb1 2.670613 1_555
Cr1 Sb3 2.700042 1_554
Cr2 Sb2 2.682278 1_555
Cr3 Sb2 2.742788 1_555
Cr4 Sb0 2.633676 1_545
Cr4 Sb3 2.653468 1_555
Cr5 Sb1 2.739496 1_555
Cr6 Sb2 2.712351 1_655
Cr6 Sb2 2.712351 1_555
Cr7 Sb0 2.646265 1_555
Cr7 Sb0 2.646265 1_655
Cr7 Sb3 2.652164 1_655
Cr7 Sb3 2.652164 1_555
Cr8 Sb1 2.732142 1_665
Cr8 Sb1 2.732142 1_565
Cr9 Sb3 2.670520 1_555
Cr9 Sb3 2.670520 1_655
Cr9 Sb2 2.671246 1_655
Cr9 Sb2 2.671246 1_555
Cr10 Sb0 2.721664 1_554
Cr10 Sb0 2.721664 1_654
Cr11 Sb1 2.701425 1_555
Cr11 Sb1 2.701425 1_655
As0 Cr2 2.521597 1_555
As0 Cr10 2.540531 1_555
As0 Cr10 2.540531 1_455
As0 Cr5 2.560571 1_555
As0 Cr8 2.568341 1_455
As0 Cr8 2.568341 1_555
As1 Cr0 2.535614 1_555
As1 Cr3 2.551012 1_545
As1 Cr11 2.551352 1_455
As1 Cr11 2.551352 1_555
As1 Cr6 2.552447 1_555
As1 Cr6 2.552447 1_455
As2 Cr4 2.639775 1_654
As2 Cr4 2.639775 1_554
As2 Cr1 2.645578 1_655
As2 Cr1 2.645578 1_555
As2 Cr8 2.646608 1_545
As2 Cr10 2.669632 1_545
As3 Cr5 2.655806 1_555
As3 Cr5 2.655806 1_655
As3 Cr2 2.663879 1_655
As3 Cr2 2.663879 1_555
As3 Cr11 2.676835 1_555
As3 Cr6 2.723721 1_555
As4 Cr9 2.612546 1_555
As4 Cr0 2.651357 1_565
As4 Cr0 2.651357 1_665
As4 Cr3 2.657990 1_655
As4 Cr3 2.657990 1_555
As4 Cr7 2.659546 1_555
As5 Cr10 2.615731 1_555
As5 Cr7 2.633514 1_554
As5 Cr1 2.634092 1_655
As5 Cr1 2.634092 1_555
As5 Cr5 2.643189 1_655
As5 Cr5 2.643189 1_555
As6 Cr8 2.592945 1_555
As6 Cr11 2.612443 1_565
As6 Cr3 2.631675 1_655
As6 Cr3 2.631675 1_555
As6 Cr2 2.633209 1_555
As6 Cr2 2.633209 1_655
As7 Cr6 2.596282 1_555
As7 Cr4 2.636447 1_655
As7 Cr4 2.636447 1_555
As7 Cr0 2.647743 1_555
As7 Cr0 2.647743 1_655
As7 Cr9 2.679544 1_555
