# generated using pymatgen
data_Zn(MoO3)2
_symmetry_space_group_name_H-M   'P 1'
_cell_length_a   5.50890100
_cell_length_b   5.32320300
_cell_length_c   9.25703486
_cell_angle_alpha   55.67013972
_cell_angle_beta   90.00000000
_cell_angle_gamma   90.00000000
_symmetry_Int_Tables_number   1
_chemical_formula_structural   Zn(MoO3)2
_chemical_formula_sum   'Zn2 Mo4 O12'
_cell_volume   224.17497906
_cell_formula_units_Z   2
loop_
 _symmetry_equiv_pos_site_id
 _symmetry_equiv_pos_as_xyz
  1  'x, y, z'
loop_
 _atom_site_type_symbol
 _atom_site_label
 _atom_site_symmetry_multiplicity
 _atom_site_fract_x
 _atom_site_fract_y
 _atom_site_fract_z
 _atom_site_occupancy
  Zn  Zn0  1  0.71424200  0.75514300  0.74981700  1
  Zn  Zn1  1  0.28575800  0.75514300  0.24981700  1
  Mo  Mo0  1  0.23389200  0.49345900  0.00386500  1
  Mo  Mo1  1  0.74754100  0.00560200  0.00454400  1
  Mo  Mo2  1  0.76610800  0.49345900  0.50386500  1
  Mo  Mo3  1  0.25245900  0.00560200  0.50454400  1
  O  O0  1  0.56390500  0.76044900  0.55616900  1
  O  O1  1  0.44236600  0.37775100  0.44340500  1
  O  O2  1  0.04267100  0.24674900  0.95176500  1
  O  O3  1  0.96521500  0.65399600  0.04155100  1
  O  O4  1  0.95732900  0.24674900  0.45176500  1
  O  O5  1  0.03478500  0.65399600  0.54155100  1
  O  O6  1  0.43609500  0.76044900  0.05616900  1
  O  O7  1  0.55763400  0.37775100  0.94340500  1
  O  O8  1  0.72705600  0.11641900  0.75406900  1
  O  O9  1  0.27294400  0.11641900  0.25406900  1
  O  O10  1  0.22542300  0.82959400  0.74450300  1
  O  O11  1  0.77457700  0.82959400  0.24450300  1
loop_
_geom_bond_atom_site_label_1
_geom_bond_atom_site_label_2
_geom_bond_distance
_geom_bond_site_symmetry_2
Mo0 O3 1.838205 1_455
Mo0 O2 1.944588 1_554
Mo0 O10 2.030452 1_554
Mo0 O9 2.048375 1_555
Mo0 O7 2.064505 1_554
Mo0 O6 2.066719 1_555
Mo1 O11 1.867300 1_545
Mo1 O2 1.955119 1_654
Mo1 O7 2.018578 1_554
Mo1 O6 2.042472 1_545
Mo1 O8 2.047962 1_554
Mo1 O3 2.082126 1_545
Mo2 O5 1.838205 1_655
Mo2 O4 1.944588 1_555
Mo2 O11 2.030452 1_555
Mo2 O8 2.048375 1_555
Mo2 O1 2.064505 1_555
Mo2 O0 2.066719 1_555
Mo3 O10 1.867300 1_545
Mo3 O4 1.955119 1_455
Mo3 O1 2.018578 1_555
Mo3 O0 2.042472 1_545
Mo3 O9 2.047962 1_555
Mo3 O5 2.082126 1_545
O0 Zn0 1.960364 1_555
O1 Zn1 1.982666 1_555
O6 Zn1 1.960364 1_555
O7 Zn0 1.982666 1_555
O8 Zn0 1.946895 1_545
O9 Zn1 1.946895 1_545
