# generated using pymatgen
data_Cr2(NiB2)3
_symmetry_space_group_name_H-M   'P 1'
_cell_length_a   10.17262470
_cell_length_b   10.17262470
_cell_length_c   2.94205700
_cell_angle_alpha   90.00000000
_cell_angle_beta   90.00000000
_cell_angle_gamma   163.27680993
_symmetry_Int_Tables_number   1
_chemical_formula_structural   Cr2(NiB2)3
_chemical_formula_sum   'Cr2 Ni3 B6'
_cell_volume   87.60516165
_cell_formula_units_Z   1
loop_
 _symmetry_equiv_pos_site_id
 _symmetry_equiv_pos_as_xyz
  1  'x, y, z'
loop_
 _atom_site_type_symbol
 _atom_site_label
 _atom_site_symmetry_multiplicity
 _atom_site_fract_x
 _atom_site_fract_y
 _atom_site_fract_z
 _atom_site_occupancy
  Cr  Cr0  1  0.00052600  0.99947400  0.00000000  1
  Cr  Cr1  1  0.38411300  0.61588700  0.00000000  1
  Ni  Ni0  1  0.61809200  0.38190800  0.00000000  1
  Ni  Ni1  1  0.19457100  0.80542900  0.50000000  1
  Ni  Ni2  1  0.80183600  0.19816400  0.50000000  1
  B  B0  1  0.45790900  0.54209100  0.50000000  1
  B  B1  1  0.54371500  0.45628500  0.50000000  1
  B  B2  1  0.27531500  0.72468500  0.00000000  1
  B  B3  1  0.72469000  0.27531000  0.00000000  1
  B  B4  1  0.08909900  0.91090100  0.50000000  1
  B  B5  1  0.91013400  0.08986600  0.50000000  1
loop_
_geom_bond_atom_site_label_1
_geom_bond_atom_site_label_2
_geom_bond_distance
_geom_bond_site_symmetry_2
B0 B1 1.727187 1_555
B0 B5 1.764406 1_455
B0 B5 1.764406 1_565
B0 Cr1 2.090562 1_555
B0 Cr1 2.090562 1_556
B0 Cr0 2.255691 1_546
B0 Cr0 2.255691 1_545
B0 Cr0 2.255691 1_656
B0 Cr0 2.255691 1_655
B1 B4 1.738643 1_655
B1 B4 1.738643 1_545
B1 Ni0 2.098888 1_555
B1 Ni0 2.098888 1_556
B1 Cr0 2.260095 1_546
B1 Cr0 2.260095 1_545
B1 Cr0 2.260095 1_656
B1 Cr0 2.260095 1_655
B2 B3 1.796317 1_455
B2 B3 1.796317 1_565
B2 Ni2 2.153426 1_454
B2 Ni2 2.153426 1_565
B2 Ni2 2.153426 1_564
B2 Ni2 2.153426 1_455
B2 Cr1 2.189993 1_555
B2 Ni1 2.192147 1_554
B2 Ni1 2.192147 1_555
B3 Ni2 2.139002 1_554
B3 Ni2 2.139002 1_555
B3 Ni0 2.145709 1_555
B3 Ni1 2.172514 1_544
B3 Ni1 2.172514 1_545
B3 Ni1 2.172514 1_655
B3 Ni1 2.172514 1_654
B4 Ni1 2.123044 1_555
B4 Ni0 2.166298 1_565
B4 Ni0 2.166298 1_566
B4 Ni0 2.166298 1_456
B4 Ni0 2.166298 1_455
B4 Cr0 2.311407 1_555
B4 Cr0 2.311407 1_556
B5 Cr1 2.150953 1_656
B5 Cr1 2.150953 1_655
B5 Cr1 2.150953 1_546
B5 Cr1 2.150953 1_545
B5 Ni2 2.179928 1_555
B5 Cr0 2.339765 1_646
B5 Cr0 2.339765 1_645
