# generated using pymatgen
data_FeCu2Sn3S8
_symmetry_space_group_name_H-M   'P 1'
_cell_length_a   7.32385047
_cell_length_b   7.32385047
_cell_length_c   7.32385071
_cell_angle_alpha   59.83706580
_cell_angle_beta   59.83706580
_cell_angle_gamma   59.83706344
_symmetry_Int_Tables_number   1
_chemical_formula_structural   FeCu2Sn3S8
_chemical_formula_sum   'Fe1 Cu2 Sn3 S8'
_cell_volume   276.75435472
_cell_formula_units_Z   1
loop_
 _symmetry_equiv_pos_site_id
 _symmetry_equiv_pos_as_xyz
  1  'x, y, z'
loop_
 _atom_site_type_symbol
 _atom_site_label
 _atom_site_symmetry_multiplicity
 _atom_site_fract_x
 _atom_site_fract_y
 _atom_site_fract_z
 _atom_site_occupancy
  Fe  Fe0  1  0.00000000  0.00000000  0.00000000  1
  Cu  Cu0  1  0.37887800  0.37887800  0.37887800  1
  Cu  Cu1  1  0.62112200  0.62112200  0.62112200  1
  Sn  Sn0  1  0.00000000  0.50000000  0.00000000  1
  Sn  Sn1  1  0.00000000  0.00000000  0.50000000  1
  Sn  Sn2  1  0.50000000  0.00000000  0.00000000  1
  S  S0  1  0.77340500  0.22624300  0.77340500  1
  S  S1  1  0.74873700  0.74873700  0.74873700  1
  S  S2  1  0.77375700  0.22659500  0.22659500  1
  S  S3  1  0.22659500  0.22659500  0.77375700  1
  S  S4  1  0.22659500  0.77375700  0.22659500  1
  S  S5  1  0.25126300  0.25126300  0.25126300  1
  S  S6  1  0.22624300  0.77340500  0.77340500  1
  S  S7  1  0.77340500  0.77340500  0.22624300  1
loop_
_geom_bond_atom_site_label_1
_geom_bond_atom_site_label_2
_geom_bond_distance
_geom_bond_site_symmetry_2
Fe0 S4 2.344076 1_545
Fe0 S0 2.344076 1_454
Fe0 S6 2.344076 1_544
Fe0 S2 2.344076 1_455
Fe0 S3 2.344076 1_554
Fe0 S7 2.344076 1_445
Cu0 S5 2.292189 1_555
Cu0 S2 2.370432 1_555
Cu0 S4 2.370432 1_555
Cu0 S3 2.370432 1_555
Cu1 S1 2.292189 1_555
Cu1 S0 2.370432 1_555
Cu1 S6 2.370432 1_555
Cu1 S7 2.370432 1_555
S0 Sn1 2.596271 1_655
S0 Sn2 2.596271 1_556
S1 Sn0 2.599380 1_656
S1 Sn2 2.599380 1_566
S1 Sn1 2.599380 1_665
S2 Sn1 2.596271 1_655
S2 Sn0 2.596271 1_655
S3 Sn2 2.596271 1_556
S3 Sn0 2.596271 1_556
S4 Sn1 2.596271 1_565
S4 Sn2 2.596271 1_565
S5 Sn2 2.599380 1_555
S5 Sn0 2.599380 1_555
S5 Sn1 2.599380 1_555
S6 Sn1 2.596271 1_565
S6 Sn0 2.596271 1_556
S7 Sn2 2.596271 1_565
S7 Sn0 2.596271 1_655
