# generated using pymatgen
data_HfCo7
_symmetry_space_group_name_H-M   'P 1'
_cell_length_a   3.56147500
_cell_length_b   5.19314738
_cell_length_c   5.19314738
_cell_angle_alpha   90.46109990
_cell_angle_beta   90.00000000
_cell_angle_gamma   90.00000000
_symmetry_Int_Tables_number   1
_chemical_formula_structural   HfCo7
_chemical_formula_sum   'Hf1 Co7'
_cell_volume   96.04552442
_cell_formula_units_Z   1
loop_
 _symmetry_equiv_pos_site_id
 _symmetry_equiv_pos_as_xyz
  1  'x, y, z'
loop_
 _atom_site_type_symbol
 _atom_site_label
 _atom_site_symmetry_multiplicity
 _atom_site_fract_x
 _atom_site_fract_y
 _atom_site_fract_z
 _atom_site_occupancy
  Hf  Hf0  1  0.50000000  0.50000000  0.50000000  1
  Co  Co0  1  0.50000000  0.00000000  0.00000000  1
  Co  Co1  1  0.00000000  0.23284500  0.23284500  1
  Co  Co2  1  0.00000000  0.76715500  0.76715500  1
  Co  Co3  1  0.00000000  0.23126300  0.76873700  1
  Co  Co4  1  0.00000000  0.76873700  0.23126300  1
  Co  Co5  1  0.50000000  0.50000000  0.00000000  1
  Co  Co6  1  0.50000000  0.00000000  0.50000000  1
loop_
_geom_bond_atom_site_label_1
_geom_bond_atom_site_label_2
_geom_bond_distance
_geom_bond_site_symmetry_2
Co0 Co1 2.464105 1_655
Co0 Co2 2.464105 1_544
Co0 Co2 2.464105 1_644
Co0 Co1 2.464105 1_555
Co0 Co3 2.465555 1_554
Co0 Co4 2.465555 1_545
Co0 Co4 2.465555 1_645
Co0 Co3 2.465555 1_654
Co0 Co6 2.596574 1_554
Co0 Co5 2.596574 1_555
Co0 Co6 2.596574 1_555
Co0 Co5 2.596574 1_545
Co1 Co3 2.410129 1_554
Co1 Co4 2.410129 1_545
Co1 Co5 2.566125 1_455
Co1 Co6 2.566125 1_555
Co1 Co6 2.566125 1_455
Co1 Co5 2.566125 1_555
Co1 Hf0 2.643798 1_555
Co1 Hf0 2.643798 1_455
Co1 Co4 2.783044 1_555
Co1 Co3 2.783044 1_555
Co2 Co3 2.410129 1_565
Co2 Co4 2.410129 1_556
Co2 Co5 2.566125 1_456
Co2 Co6 2.566125 1_565
Co2 Co5 2.566125 1_556
Co2 Co6 2.566125 1_465
Co2 Hf0 2.643798 1_455
Co2 Hf0 2.643798 1_555
Co2 Co3 2.783044 1_555
Co2 Co4 2.783044 1_555
Co3 Co6 2.556185 1_555
Co3 Co5 2.556185 1_456
Co3 Co6 2.556185 1_455
Co3 Co5 2.556185 1_556
Co3 Hf0 2.664155 1_455
Co3 Hf0 2.664155 1_555
Co4 Co5 2.556185 1_555
Co4 Co5 2.556185 1_455
Co4 Co6 2.556185 1_565
Co4 Co6 2.556185 1_465
Co4 Hf0 2.664155 1_455
Co4 Hf0 2.664155 1_555
Co5 Hf0 2.596574 1_555
Co5 Hf0 2.596574 1_554
Co6 Hf0 2.596574 1_545
Co6 Hf0 2.596574 1_555
