# generated using pymatgen
data_SrCoP2O7
_symmetry_space_group_name_H-M   'P 1'
_cell_length_a   8.20436280
_cell_length_b   5.33280806
_cell_length_c   13.72563347
_cell_angle_alpha   67.19931449
_cell_angle_beta   90.00000000
_cell_angle_gamma   90.00000000
_symmetry_Int_Tables_number   1
_chemical_formula_structural   SrCoP2O7
_chemical_formula_sum   'Sr4 Co4 P8 O28'
_cell_volume   553.60178021
_cell_formula_units_Z   4
loop_
 _symmetry_equiv_pos_site_id
 _symmetry_equiv_pos_as_xyz
  1  'x, y, z'
loop_
 _atom_site_type_symbol
 _atom_site_label
 _atom_site_symmetry_multiplicity
 _atom_site_fract_x
 _atom_site_fract_y
 _atom_site_fract_z
 _atom_site_occupancy
  Sr  Sr0  1  0.16024432  0.99292455  0.22123377  1
  Sr  Sr1  1  0.66024432  0.00707545  0.27876623  1
  Sr  Sr2  1  0.83975568  0.00707545  0.77876623  1
  Sr  Sr3  1  0.33975568  0.99292455  0.72123377  1
  Co  Co0  1  0.35133428  0.28293283  0.39489257  1
  Co  Co1  1  0.85133428  0.71706717  0.10510743  1
  Co  Co2  1  0.64866572  0.71706717  0.60510743  1
  Co  Co3  1  0.14866572  0.28293283  0.89489257  1
  P  P0  1  0.30117579  0.66667176  0.51833030  1
  P  P1  1  0.80117579  0.33332824  0.98166970  1
  P  P2  1  0.69882421  0.33332824  0.48166970  1
  P  P3  1  0.19882421  0.66667176  0.01833030  1
  P  P4  1  0.96510466  0.41531597  0.33560343  1
  P  P5  1  0.46510466  0.58468403  0.16439657  1
  P  P6  1  0.03489534  0.58468403  0.66439657  1
  P  P7  1  0.53489534  0.41531597  0.83560343  1
  O  O0  1  0.31710876  0.88799218  0.40840616  1
  O  O1  1  0.81710876  0.11200782  0.09159384  1
  O  O2  1  0.68289124  0.11200782  0.59159384  1
  O  O3  1  0.18289124  0.88799218  0.90840616  1
  O  O4  1  0.16576481  0.37894022  0.02584344  1
  O  O5  1  0.66576481  0.62105978  0.47415656  1
  O  O6  1  0.83423519  0.62105978  0.97415656  1
  O  O7  1  0.33423519  0.37894022  0.52584344  1
  O  O8  1  0.43987010  0.80944886  0.20351272  1
  O  O9  1  0.93987010  0.19055114  0.29648728  1
  O  O10  1  0.56012990  0.19055114  0.79648728  1
  O  O11  1  0.06012990  0.80944886  0.70351272  1
  O  O12  1  0.38624647  0.68104048  0.04874422  1
  O  O13  1  0.88624647  0.31895952  0.45125578  1
  O  O14  1  0.61375353  0.31895952  0.95125578  1
  O  O15  1  0.11375353  0.68104048  0.54874422  1
  O  O16  1  0.35778597  0.47543594  0.84859225  1
  O  O17  1  0.85778597  0.52456406  0.65140775  1
  O  O18  1  0.64221403  0.52456406  0.15140775  1
  O  O19  1  0.14221403  0.47543594  0.34859225  1
  O  O20  1  0.40186926  0.73164861  0.59962735  1
  O  O21  1  0.90186926  0.26835139  0.90037265  1
  O  O22  1  0.59813074  0.26835139  0.40037265  1
  O  O23  1  0.09813074  0.73164861  0.09962735  1
  O  O24  1  0.11873747  0.32014922  0.73380483  1
  O  O25  1  0.61873747  0.67985078  0.76619517  1
  O  O26  1  0.88126253  0.67985078  0.26619517  1
  O  O27  1  0.38126253  0.32014922  0.23380483  1
loop_
_geom_bond_atom_site_label_1
_geom_bond_atom_site_label_2
_geom_bond_distance
_geom_bond_site_symmetry_2
Co0 O19 1.973756 1_555
Co0 O22 2.026578 1_555
Co0 O7 2.055635 1_555
Co0 O0 2.060658 1_545
Co0 O27 2.155976 1_555
Co1 O18 1.973756 1_555
Co1 O23 2.026578 1_655
Co1 O6 2.055635 1_554
Co1 O1 2.060658 1_565
Co1 O26 2.155976 1_555
Co2 O17 1.973756 1_555
Co2 O20 2.026578 1_555
Co2 O5 2.055635 1_555
Co2 O2 2.060658 1_565
Co2 O25 2.155976 1_555
Co3 O16 1.973756 1_555
Co3 O21 2.026578 1_455
Co3 O4 2.055635 1_556
Co3 O3 2.060658 1_545
Co3 O24 2.155976 1_555
O0 P0 1.518663 1_555
O0 Sr0 2.730436 1_555
O1 P1 1.518663 1_554
O1 Sr1 2.730436 1_555
O2 P2 1.518663 1_555
O2 Sr2 2.730436 1_555
O3 P3 1.518663 1_556
O3 Sr3 2.730436 1_555
O4 P3 1.521840 1_555
O4 Sr0 2.674540 1_545
O5 P2 1.521840 1_555
O5 Sr1 2.674540 1_565
O6 P1 1.521840 1_555
O6 Sr2 2.674540 1_565
O7 P0 1.521840 1_555
O7 Sr3 2.674540 1_545
O8 P5 1.505523 1_555
O8 Sr1 2.508043 1_565
O8 Sr0 2.542458 1_555
O9 P4 1.505523 1_555
O9 Sr0 2.508043 1_645
O9 Sr1 2.542458 1_555
O10 P7 1.505523 1_555
O10 Sr3 2.508043 1_545
O10 Sr2 2.542458 1_555
O11 P6 1.505523 1_555
O11 Sr2 2.508043 1_465
O11 Sr3 2.542458 1_555
O12 P3 1.602931 1_555
O12 P5 1.603206 1_555
O13 P2 1.602931 1_555
O13 P4 1.603206 1_555
O14 P1 1.602931 1_555
O14 P7 1.603206 1_555
O15 P0 1.602931 1_555
O15 P6 1.603206 1_555
O16 P7 1.513369 1_555
O16 Sr3 2.637134 1_555
O17 P6 1.513369 1_655
O17 Sr2 2.637134 1_555
O18 P5 1.513369 1_555
O18 Sr1 2.637134 1_555
O19 P4 1.513369 1_455
O19 Sr0 2.637134 1_555
O20 P0 1.532109 1_555
O20 Sr3 2.605678 1_555
O21 P1 1.532109 1_555
O21 Sr2 2.605678 1_555
O22 P2 1.532109 1_555
O22 Sr1 2.605678 1_555
O23 P3 1.532109 1_555
O23 Sr0 2.605678 1_555
O24 P6 1.526182 1_555
O24 Sr3 2.568338 1_545
O24 Sr2 2.758376 1_455
O25 P7 1.526182 1_555
O25 Sr2 2.568338 1_565
O25 Sr3 2.758376 1_555
O26 P4 1.526182 1_555
O26 Sr1 2.568338 1_565
O26 Sr0 2.758376 1_655
O27 P5 1.526182 1_555
O27 Sr0 2.568338 1_545
O27 Sr1 2.758376 1_555
