# generated using pymatgen
data_Cr(OF)3
_symmetry_space_group_name_H-M   'P 1'
_cell_length_a   4.98405529
_cell_length_b   5.56441765
_cell_length_c   5.38484293
_cell_angle_alpha   116.78735244
_cell_angle_beta   77.02483164
_cell_angle_gamma   74.68632001
_symmetry_Int_Tables_number   1
_chemical_formula_structural   Cr(OF)3
_chemical_formula_sum   'Cr1 O3 F3'
_cell_volume   117.90033102
_cell_formula_units_Z   1
loop_
 _symmetry_equiv_pos_site_id
 _symmetry_equiv_pos_as_xyz
  1  'x, y, z'
loop_
 _atom_site_type_symbol
 _atom_site_label
 _atom_site_symmetry_multiplicity
 _atom_site_fract_x
 _atom_site_fract_y
 _atom_site_fract_z
 _atom_site_occupancy
  Cr  Cr0  1  0.88965100  0.01150600  0.05225900  1
  O  O0  1  0.31443300  0.28829700  0.77766800  1
  O  O1  1  0.37828100  0.50059400  0.83154100  1
  O  O2  1  0.99208100  0.88506200  0.70267900  1
  F  F0  1  0.11852700  0.13443500  0.23585100  1
  F  F1  1  0.72432800  0.82560600  0.17947000  1
  F  F2  1  0.58269900  0.35449900  0.22053200  1
loop_
_geom_bond_atom_site_label_1
_geom_bond_atom_site_label_2
_geom_bond_distance
_geom_bond_site_symmetry_2
Cr0 O2 1.576111 1_544
Cr0 F1 1.747474 1_545
Cr0 F0 1.748016 1_655
Cr0 F2 1.755150 1_555
O0 O1 1.229650 1_555
