# generated using pymatgen
data_Li3PrBi2
_symmetry_space_group_name_H-M   'P 1'
_cell_length_a   4.70784880
_cell_length_b   4.70182633
_cell_length_c   7.51853191
_cell_angle_alpha   89.99997710
_cell_angle_beta   90.08698049
_cell_angle_gamma   119.95771792
_symmetry_Int_Tables_number   1
_chemical_formula_structural   Li3PrBi2
_chemical_formula_sum   'Li3 Pr1 Bi2'
_cell_volume   144.19061074
_cell_formula_units_Z   1
loop_
 _symmetry_equiv_pos_site_id
 _symmetry_equiv_pos_as_xyz
  1  'x, y, z'
loop_
 _atom_site_type_symbol
 _atom_site_label
 _atom_site_symmetry_multiplicity
 _atom_site_fract_x
 _atom_site_fract_y
 _atom_site_fract_z
 _atom_site_occupancy
  Li  Li0  1  0.66359203  0.33179551  0.64572436  1
  Li  Li1  1  0.33640797  0.66820449  0.35427564  1
  Li  Li2  1  -0.00000000  -0.00000000  0.50000000  1
  Pr  Pr0  1  -0.00000000  -0.00000000  -0.00000000  1
  Bi  Bi0  1  0.66807090  0.33403445  0.25534341  1
  Bi  Bi1  1  0.33192910  0.66596555  0.74465659  1
loop_
_geom_bond_atom_site_label_1
_geom_bond_atom_site_label_2
_geom_bond_distance
_geom_bond_site_symmetry_2
Li0 Li2 2.918255 1_555
Li0 Li2 2.935181 1_655
Li0 Li2 2.935183 1_665
Li1 Li2 2.918255 1_665
Li1 Li2 2.935181 1_565
Li1 Li2 2.935183 1_555
Li2 Pr0 3.759266 1_555
Li2 Pr0 3.759266 1_556
Bi0 Li1 2.813119 1_545
Bi0 Li1 2.813132 1_555
Bi0 Li1 2.824449 1_655
Bi0 Li0 2.935180 1_555
Bi0 Li2 3.276380 1_655
Bi0 Li2 3.276387 1_665
Bi0 Li2 3.290379 1_555
Bi0 Pr0 3.324840 1_655
Bi0 Pr0 3.324845 1_665
Bi0 Pr0 3.330578 1_555
Bi1 Li0 2.813119 1_565
Bi1 Li0 2.813132 1_555
Bi1 Li0 2.824449 1_455
Bi1 Li1 2.935180 1_555
Bi1 Li2 3.276380 1_565
Bi1 Li2 3.276387 1_555
Bi1 Li2 3.290379 1_665
Bi1 Pr0 3.324840 1_566
Bi1 Pr0 3.324845 1_556
Bi1 Pr0 3.330578 1_666
