# generated using pymatgen
data_LaP3H3WO9
_symmetry_space_group_name_H-M   'P 1'
_cell_length_a   7.62648032
_cell_length_b   9.43196894
_cell_length_c   8.58781959
_cell_angle_alpha   122.75589771
_cell_angle_beta   98.51097987
_cell_angle_gamma   99.52963675
_symmetry_Int_Tables_number   1
_chemical_formula_structural   LaP3H3WO9
_chemical_formula_sum   'La2 P6 H6 W2 O18'
_cell_volume   490.87445462
_cell_formula_units_Z   2
loop_
 _symmetry_equiv_pos_site_id
 _symmetry_equiv_pos_as_xyz
  1  'x, y, z'
loop_
 _atom_site_type_symbol
 _atom_site_label
 _atom_site_symmetry_multiplicity
 _atom_site_fract_x
 _atom_site_fract_y
 _atom_site_fract_z
 _atom_site_occupancy
  La  La0  1  0.29479200  0.63641400  0.13559800  1
  La  La1  1  0.70519400  0.36352300  0.86436400  1
  P  P0  1  0.15188400  0.25922000  0.71341500  1
  P  P1  1  0.84813200  0.74074700  0.28653600  1
  P  P2  1  0.52664100  0.11949400  0.31617900  1
  P  P3  1  0.47337900  0.88048100  0.68374200  1
  P  P4  1  0.00852800  0.30553600  0.19909000  1
  P  P5  1  0.99142600  0.69450800  0.80100000  1
  H  H0  1  0.07103400  0.45789300  0.39020000  1
  H  H1  1  0.92893900  0.54213400  0.60990400  1
  H  H2  1  0.69613100  0.13186400  0.25711200  1
  H  H3  1  0.30389000  0.86845300  0.74290300  1
  H  H4  1  0.13260900  0.22516300  0.53023800  1
  H  H5  1  0.86748100  0.77477600  0.46972400  1
  W  W0  1  0.76660700  0.91798900  0.06946700  1
  W  W1  1  0.23332300  0.08207800  0.93066700  1
  O  O0  1  0.82445200  0.29514700  0.09271100  1
  O  O1  1  0.17548600  0.70492600  0.90742400  1
  O  O2  1  0.17095200  0.32294300  0.11192600  1
  O  O3  1  0.82898900  0.67713900  0.88811900  1
  O  O4  1  0.99756500  0.14496300  0.20972300  1
  O  O5  1  0.00245700  0.85504900  0.79026000  1
  O  O6  1  0.40384100  0.15716700  0.19333100  1
  O  O7  1  0.59602800  0.84291800  0.80681500  1
  O  O8  1  0.59262600  0.26716900  0.52973600  1
  O  O9  1  0.40722600  0.73272300  0.47031000  1
  O  O10  1  0.99021800  0.64524200  0.19604300  1
  O  O11  1  0.00973500  0.35457800  0.80378700  1
  O  O12  1  0.12566700  0.08187100  0.68837400  1
  O  O13  1  0.87446700  0.91803700  0.31160400  1
  O  O14  1  0.64875300  0.61453300  0.15346600  1
  O  O15  1  0.35123500  0.38543800  0.84654100  1
  O  O16  1  0.46196700  0.93281800  0.26170100  1
  O  O17  1  0.53834800  0.06706400  0.73798800  1
loop_
_geom_bond_atom_site_label_1
_geom_bond_atom_site_label_2
_geom_bond_distance
_geom_bond_site_symmetry_2
La0 O16 2.397702 1_555
La0 O9 2.451502 1_555
La0 O10 2.458879 1_455
La0 O1 2.474338 1_554
La0 O15 2.499189 1_554
La0 O14 2.729367 1_555
La0 O11 2.822828 1_554
La0 O2 2.836060 1_555
La1 O17 2.396850 1_555
La1 O8 2.450819 1_555
La1 O11 2.459094 1_655
La1 O0 2.474574 1_556
La1 O14 2.499518 1_556
La1 O15 2.729457 1_555
La1 O10 2.821978 1_556
La1 O3 2.836920 1_555
H0 P4 1.405462 1_555
H1 P5 1.405449 1_555
H2 P2 1.466273 1_555
H2 W0 2.013140 1_545
H3 P3 1.466299 1_555
H3 W1 2.012383 1_565
H4 P0 1.403037 1_555
H5 P1 1.403179 1_555
O0 P4 1.514253 1_655
O1 P5 1.514205 1_455
O2 P4 1.569022 1_555
O2 W1 2.135589 1_554
O3 P5 1.568771 1_555
O3 W0 2.135674 1_556
O4 P4 1.555341 1_655
O4 W0 2.114115 1_545
O5 P5 1.555534 1_455
O5 W1 2.113870 1_565
O6 P2 1.529627 1_555
O6 W1 2.092600 1_554
O7 P3 1.529664 1_555
O7 W0 2.092765 1_556
O8 P2 1.512375 1_555
O9 P3 1.511828 1_555
O10 P1 1.550660 1_555
O11 P0 1.550187 1_555
O12 P0 1.539995 1_555
O12 W1 2.119693 1_555
O13 P1 1.539273 1_555
O13 W0 2.119724 1_555
O14 P1 1.565043 1_555
O15 P0 1.564978 1_555
O16 P2 1.521528 1_565
O17 P3 1.521635 1_545
