# generated using pymatgen
data_KMg6Cr
_symmetry_space_group_name_H-M   'P 1'
_cell_length_a   5.27080000
_cell_length_b   6.71335200
_cell_length_c   11.44825000
_cell_angle_alpha   90.00000000
_cell_angle_beta   90.00000000
_cell_angle_gamma   90.00000000
_symmetry_Int_Tables_number   1
_chemical_formula_structural   KMg6Cr
_chemical_formula_sum   'K2 Mg12 Cr2'
_cell_volume   405.09330072
_cell_formula_units_Z   2
loop_
 _symmetry_equiv_pos_site_id
 _symmetry_equiv_pos_as_xyz
  1  'x, y, z'
loop_
 _atom_site_type_symbol
 _atom_site_label
 _atom_site_symmetry_multiplicity
 _atom_site_fract_x
 _atom_site_fract_y
 _atom_site_fract_z
 _atom_site_occupancy
  K  K0  1  0.00000000  0.00000000  0.83488400  1
  K  K1  1  0.00000000  0.50000000  0.33488400  1
  Mg  Mg0  1  0.00000000  0.24749700  0.58297700  1
  Mg  Mg1  1  0.00000000  0.75250300  0.58297700  1
  Mg  Mg2  1  0.50000000  0.22730000  0.41819400  1
  Mg  Mg3  1  0.50000000  0.77270000  0.41819400  1
  Mg  Mg4  1  0.50000000  0.00000000  0.65703800  1
  Mg  Mg5  1  0.50000000  0.00000000  0.17138600  1
  Mg  Mg6  1  0.00000000  0.74749700  0.08297700  1
  Mg  Mg7  1  0.00000000  0.25250300  0.08297700  1
  Mg  Mg8  1  0.50000000  0.72730000  0.91819400  1
  Mg  Mg9  1  0.50000000  0.27270000  0.91819400  1
  Mg  Mg10  1  0.50000000  0.50000000  0.15703800  1
  Mg  Mg11  1  0.50000000  0.50000000  0.67138600  1
  Cr  Cr0  1  0.00000000  0.00000000  0.33435300  1
  Cr  Cr1  1  0.00000000  0.50000000  0.83435300  1
loop_
_geom_bond_atom_site_label_1
_geom_bond_atom_site_label_2
_geom_bond_distance
_geom_bond_site_symmetry_2
K0 Mg7 3.307630 1_556
K0 Mg6 3.307630 1_546
K0 Mg0 3.328294 1_555
K0 Mg1 3.328294 1_545
K0 Mg4 3.330275 1_455
K0 Mg4 3.330275 1_555
K0 Mg8 3.347619 1_445
K0 Mg8 3.347619 1_545
K0 Mg9 3.347619 1_455
K0 Mg9 3.347619 1_555
K1 Mg1 3.307630 1_555
K1 Mg0 3.307630 1_555
K1 Mg7 3.328294 1_555
K1 Mg6 3.328294 1_555
K1 Mg10 3.330275 1_555
K1 Mg10 3.330275 1_455
K1 Mg2 3.347619 1_455
K1 Mg2 3.347619 1_555
K1 Mg3 3.347619 1_455
K1 Mg3 3.347619 1_555
Mg0 Mg4 3.228763 1_455
Mg0 Mg4 3.228763 1_555
Mg0 Mg2 3.243842 1_455
Mg0 Mg2 3.243842 1_555
Mg0 Mg11 3.292908 1_455
Mg0 Mg11 3.292908 1_555
Mg0 Mg1 3.323069 1_545
Mg0 Mg1 3.390283 1_555
Mg1 Mg4 3.228763 1_465
Mg1 Mg4 3.228763 1_565
Mg1 Mg3 3.243842 1_455
Mg1 Mg3 3.243842 1_555
Mg1 Mg11 3.292908 1_555
Mg1 Mg11 3.292908 1_455
Mg2 Mg3 3.051890 1_545
Mg2 Mg4 3.131318 1_555
Mg2 Mg5 3.211241 1_555
Mg3 Mg4 3.131318 1_565
Mg3 Mg5 3.211241 1_565
Mg4 Mg9 3.505760 1_555
Mg4 Mg8 3.505760 1_545
Mg5 Mg7 3.292908 1_555
Mg5 Mg7 3.292908 1_655
Mg5 Mg6 3.292908 1_645
Mg5 Mg6 3.292908 1_545
Mg5 Mg8 3.428336 1_544
Mg5 Mg9 3.428336 1_554
Mg6 Mg8 3.243842 1_554
Mg6 Mg8 3.243842 1_454
Mg6 Mg7 3.323069 1_555
Mg6 Mg7 3.390283 1_565
Mg7 Mg9 3.243842 1_454
Mg7 Mg9 3.243842 1_554
Mg8 Mg9 3.051890 1_555
Mg10 Mg9 3.131318 1_554
Mg10 Mg8 3.131318 1_554
Mg10 Mg7 3.228763 1_555
Mg10 Mg6 3.228763 1_555
Mg10 Mg6 3.228763 1_655
Mg10 Mg7 3.228763 1_655
Mg10 Mg5 3.360693 1_555
Mg10 Mg5 3.360693 1_565
Mg10 Mg3 3.505760 1_555
Mg10 Mg2 3.505760 1_555
Mg11 Mg9 3.211241 1_555
Mg11 Mg8 3.211241 1_555
Mg11 Mg4 3.360693 1_555
Mg11 Mg4 3.360693 1_565
Mg11 Mg3 3.428336 1_555
Mg11 Mg2 3.428336 1_555
Cr0 Mg2 3.192980 1_555
Cr0 Mg2 3.192980 1_455
Cr0 Mg3 3.192980 1_545
Cr0 Mg3 3.192980 1_445
Cr0 Mg5 3.228950 1_455
Cr0 Mg5 3.228950 1_555
Cr0 Mg0 3.295782 1_555
Cr0 Mg1 3.295782 1_545
Cr0 Mg6 3.339959 1_545
Cr0 Mg7 3.339959 1_555
Cr0 K1 3.356682 1_555
Cr0 K1 3.356682 1_545
Cr1 Mg8 3.192980 1_555
Cr1 Mg9 3.192980 1_455
Cr1 Mg9 3.192980 1_555
Cr1 Mg8 3.192980 1_455
Cr1 Mg11 3.228950 1_455
Cr1 Mg11 3.228950 1_555
Cr1 Mg6 3.295782 1_556
Cr1 Mg7 3.295782 1_556
Cr1 Mg1 3.339959 1_555
Cr1 Mg0 3.339959 1_555
Cr1 K0 3.356682 1_555
Cr1 K0 3.356682 1_565
