# generated using pymatgen
data_Nb6Ni7
_symmetry_space_group_name_H-M   'P 1'
_cell_length_a   9.21742713
_cell_length_b   9.21742713
_cell_length_c   9.21742599
_cell_angle_alpha   30.56449563
_cell_angle_beta   30.56449563
_cell_angle_gamma   30.56449101
_symmetry_Int_Tables_number   1
_chemical_formula_structural   Nb6Ni7
_chemical_formula_sum   'Nb6 Ni7'
_cell_volume   179.52212697
_cell_formula_units_Z   1
loop_
 _symmetry_equiv_pos_site_id
 _symmetry_equiv_pos_as_xyz
  1  'x, y, z'
loop_
 _atom_site_type_symbol
 _atom_site_label
 _atom_site_symmetry_multiplicity
 _atom_site_fract_x
 _atom_site_fract_y
 _atom_site_fract_z
 _atom_site_occupancy
  Nb  Nb0  1  0.83115278  0.83115278  0.83115278  1
  Nb  Nb1  1  0.16884722  0.16884722  0.16884722  1
  Nb  Nb2  1  0.65591396  0.65591396  0.65591396  1
  Nb  Nb3  1  0.34408604  0.34408604  0.34408604  1
  Nb  Nb4  1  0.54938124  0.54938124  0.54938124  1
  Nb  Nb5  1  0.45061876  0.45061876  0.45061876  1
  Ni  Ni0  1  0.00000000  -0.00000000  0.00000000  1
  Ni  Ni1  1  0.40797097  0.90963693  0.90963693  1
  Ni  Ni2  1  0.90963693  0.90963693  0.40797097  1
  Ni  Ni3  1  0.90963693  0.40797097  0.90963693  1
  Ni  Ni4  1  0.59202903  0.09036307  0.09036307  1
  Ni  Ni5  1  0.09036307  0.09036307  0.59202903  1
  Ni  Ni6  1  0.09036307  0.59202903  0.09036307  1
loop_
_geom_bond_atom_site_label_1
_geom_bond_atom_site_label_2
_geom_bond_distance
_geom_bond_site_symmetry_2
Nb0 Ni2 2.728370 1_555
Nb0 Ni1 2.728371 1_555
Nb0 Ni3 2.728371 1_555
Nb0 Nb1 2.807668 1_656
Nb0 Nb1 2.807668 1_566
Nb0 Nb1 2.807668 1_665
Nb0 Ni6 2.822763 1_656
Nb0 Ni4 2.822763 1_566
Nb0 Ni5 2.822763 1_665
Nb0 Nb5 3.068480 1_655
Nb0 Nb5 3.068480 1_565
Nb0 Nb5 3.068480 1_556
Nb0 Nb4 3.116794 1_556
Nb0 Nb4 3.116794 1_655
Nb0 Nb4 3.116794 1_565
Nb1 Ni5 2.728370 1_555
Nb1 Ni6 2.728371 1_555
Nb1 Ni4 2.728371 1_555
Nb1 Ni1 2.822763 1_544
Nb1 Ni3 2.822763 1_454
Nb1 Ni2 2.822763 1_445
Nb1 Nb4 3.068480 1_455
Nb1 Nb4 3.068480 1_545
Nb1 Nb4 3.068480 1_554
Nb1 Nb5 3.116794 1_554
Nb1 Nb5 3.116794 1_455
Nb1 Nb5 3.116794 1_545
Nb2 Ni1 2.678066 1_555
Nb2 Ni3 2.678066 1_555
Nb2 Ni2 2.678067 1_555
Nb2 Nb4 2.806122 1_555
Nb2 Ni0 2.819578 1_566
Nb2 Ni0 2.819578 1_656
Nb2 Ni0 2.819579 1_665
Nb2 Nb3 2.861937 1_556
Nb2 Nb3 2.861937 1_565
Nb2 Nb3 2.861937 1_655
Nb2 Ni4 2.972097 1_565
Nb2 Ni6 2.972097 1_655
Nb2 Ni5 2.972098 1_565
Nb2 Ni5 2.972098 1_655
Nb2 Ni6 2.972098 1_556
Nb2 Ni4 2.972098 1_556
Nb3 Ni6 2.678066 1_555
Nb3 Ni4 2.678066 1_555
Nb3 Ni5 2.678067 1_555
Nb3 Nb5 2.806122 1_555
Nb3 Ni0 2.819578 1_655
Nb3 Ni0 2.819578 1_565
Nb3 Ni0 2.819579 1_556
Nb3 Ni1 2.972097 1_545
Nb3 Ni3 2.972097 1_455
Nb3 Ni2 2.972098 1_545
Nb3 Ni2 2.972098 1_455
Nb3 Ni3 2.972098 1_554
Nb3 Ni1 2.972098 1_554
Nb4 Nb5 2.601450 1_555
Nb4 Ni6 2.664478 1_556
Nb4 Ni4 2.664478 1_556
Nb4 Ni5 2.664478 1_565
Nb4 Ni5 2.664478 1_655
Nb4 Ni6 2.664479 1_655
Nb4 Ni4 2.664479 1_565
Nb5 Ni3 2.664478 1_554
Nb5 Ni1 2.664478 1_554
Nb5 Ni2 2.664478 1_545
Nb5 Ni2 2.664478 1_455
Nb5 Ni3 2.664479 1_455
Nb5 Ni1 2.664479 1_545
Ni0 Ni2 2.436260 1_445
Ni0 Ni5 2.436260 1_554
Ni0 Ni1 2.436261 1_544
Ni0 Ni3 2.436261 1_454
Ni0 Ni6 2.436261 1_545
Ni0 Ni4 2.436261 1_455
Ni1 Ni3 2.421381 1_465
Ni1 Ni2 2.421381 1_456
Ni1 Ni3 2.437570 1_555
Ni1 Ni2 2.437571 1_555
Ni2 Ni3 2.421381 1_564
Ni2 Ni3 2.437571 1_555
Ni4 Ni6 2.421381 1_645
Ni4 Ni5 2.421381 1_654
Ni4 Ni6 2.437570 1_555
Ni4 Ni5 2.437571 1_555
Ni5 Ni6 2.421381 1_546
Ni5 Ni6 2.437571 1_555
