# generated using pymatgen
data_Li4Fe(BO3)2
_symmetry_space_group_name_H-M   'P 1'
_cell_length_a   9.34968746
_cell_length_b   7.95618849
_cell_length_c   3.32895062
_cell_angle_alpha   90.87822377
_cell_angle_beta   89.72495272
_cell_angle_gamma   90.05988371
_symmetry_Int_Tables_number   1
_chemical_formula_structural   Li4Fe(BO3)2
_chemical_formula_sum   'Li8 Fe2 B4 O12'
_cell_volume   247.60150532
_cell_formula_units_Z   2
loop_
 _symmetry_equiv_pos_site_id
 _symmetry_equiv_pos_as_xyz
  1  'x, y, z'
loop_
 _atom_site_type_symbol
 _atom_site_label
 _atom_site_symmetry_multiplicity
 _atom_site_fract_x
 _atom_site_fract_y
 _atom_site_fract_z
 _atom_site_occupancy
  Li  Li0  1  0.05715500  0.17017600  0.50072400  1
  Li  Li1  1  0.20322800  0.00225500  0.99434000  1
  Li  Li2  1  0.29666900  0.50254200  0.49784500  1
  Li  Li3  1  0.44301000  0.67062700  0.00214700  1
  Li  Li4  1  0.55728100  0.32966700  0.99743800  1
  Li  Li5  1  0.70398300  0.49770000  0.50198700  1
  Li  Li6  1  0.79623900  0.99787900  0.00522500  1
  Li  Li7  1  0.94263500  0.82977800  0.49919700  1
  Fe  Fe0  1  0.00032000  0.49960400  0.00048900  1
  Fe  Fe1  1  0.49970100  0.99967800  0.49977500  1
  B  B0  1  0.19924200  0.76378200  0.49307900  1
  B  B1  1  0.30041500  0.26418100  0.98900800  1
  B  B2  1  0.69942900  0.73589500  0.01081800  1
  B  B3  1  0.80081900  0.23611900  0.50724900  1
  O  O0  1  0.11213300  0.61639500  0.48404700  1
  O  O1  1  0.15271200  0.24676800  0.00201300  1
  O  O2  1  0.13530300  0.91815000  0.49102700  1
  O  O3  1  0.36469300  0.41848900  0.99315500  1
  O  O4  1  0.34696100  0.74689100  0.50743900  1
  O  O5  1  0.38742000  0.11702500  0.97533200  1
  O  O6  1  0.61200600  0.88288400  0.02417500  1
  O  O7  1  0.65320800  0.25346200  0.49222400  1
  O  O8  1  0.63538100  0.58144000  0.00668100  1
  O  O9  1  0.86463800  0.08165700  0.50852800  1
  O  O10  1  0.84710500  0.75363900  0.99823900  1
  O  O11  1  0.88831500  0.38331700  0.51781900  1
loop_
_geom_bond_atom_site_label_1
_geom_bond_atom_site_label_2
_geom_bond_distance
_geom_bond_site_symmetry_2
Li0 O9 1.932368 1_455
Li0 O1 1.984022 1_556
Li0 O1 1.985297 1_555
Li0 O2 2.134584 1_545
Li0 O11 2.317908 1_455
Li1 O2 1.899454 1_546
Li1 O2 1.906139 1_545
Li1 O5 1.949618 1_555
Li1 O1 2.002138 1_556
Li2 O3 1.901374 1_555
Li2 O3 1.905413 1_554
Li2 O0 1.950589 1_555
Li2 O4 1.999481 1_555
Li3 O8 1.934423 1_555
Li3 O4 1.983113 1_554
Li3 O4 1.989826 1_555
Li3 O3 2.134628 1_554
Li3 O6 2.312056 1_555
Li4 O3 1.935231 1_555
Li4 O7 1.982660 1_556
Li4 O7 1.988961 1_555
Li4 O8 2.131208 1_556
Li4 O5 2.319821 1_555
Li5 O8 1.902293 1_555
Li5 O8 1.906376 1_556
Li5 O11 1.951118 1_555
Li5 O7 1.999687 1_555
Li6 O9 1.900001 1_564
Li6 O9 1.906733 1_565
Li6 O6 1.950787 1_555
Li6 O10 2.000815 1_554
Li7 O2 1.933275 1_655
Li7 O10 1.981927 1_554
Li7 O10 1.984961 1_555
Li7 O9 2.133002 1_565
Li7 O0 2.323458 1_655
Fe0 O11 2.122019 1_454
Fe0 O0 2.125057 1_555
Fe0 O0 2.222993 1_554
Fe0 O11 2.224412 1_455
Fe0 O1 2.466391 1_555
Fe0 O10 2.478672 1_454
Fe1 O6 2.100873 1_555
Fe1 O5 2.102557 1_565
Fe1 O6 2.254518 1_556
Fe1 O5 2.256396 1_564
Fe1 O4 2.465820 1_555
Fe1 O7 2.476426 1_565
B0 O2 1.366632 1_555
B0 O4 1.388911 1_555
B0 O0 1.427046 1_555
B1 O3 1.366250 1_555
B1 O1 1.388299 1_556
B1 O5 1.426388 1_555
B2 O8 1.366359 1_555
B2 O10 1.388273 1_554
B2 O6 1.427517 1_555
B3 O9 1.366762 1_555
B3 O7 1.388357 1_555
B3 O11 1.427946 1_555
