# generated using pymatgen
data_SrCo(GeO3)2
_symmetry_space_group_name_H-M   'P 1'
_cell_length_a   7.99035736
_cell_length_b   8.02282252
_cell_length_c   9.81335400
_cell_angle_alpha   76.32047399
_cell_angle_beta   109.21471229
_cell_angle_gamma   71.79756834
_symmetry_Int_Tables_number   1
_chemical_formula_structural   SrCo(GeO3)2
_chemical_formula_sum   'Sr4 Co4 Ge8 O24'
_cell_volume   522.39083298
_cell_formula_units_Z   4
loop_
 _symmetry_equiv_pos_site_id
 _symmetry_equiv_pos_as_xyz
  1  'x, y, z'
loop_
 _atom_site_type_symbol
 _atom_site_label
 _atom_site_symmetry_multiplicity
 _atom_site_fract_x
 _atom_site_fract_y
 _atom_site_fract_z
 _atom_site_occupancy
  Sr  Sr0  1  0.19357800  0.17911400  0.62341400  1
  Sr  Sr1  1  0.19754800  0.68160000  0.12434700  1
  Sr  Sr2  1  0.80604800  0.31873000  0.87500700  1
  Sr  Sr3  1  0.80340400  0.82064000  0.37438700  1
  Co  Co0  1  0.59068200  0.28501200  0.12574200  1
  Co  Co1  1  0.40746800  0.21758100  0.37426400  1
  Co  Co2  1  0.59020900  0.78322700  0.62453300  1
  Co  Co3  1  0.40735200  0.71721700  0.87416200  1
  Ge  Ge0  1  0.12501900  0.98895400  0.32525500  1
  Ge  Ge1  1  0.12073800  0.49503500  0.81987400  1
  Ge  Ge2  1  0.87948700  0.50533800  0.17794400  1
  Ge  Ge3  1  0.87514100  0.00854300  0.67758100  1
  Ge  Ge4  1  0.68241100  0.95039200  0.93028500  1
  Ge  Ge5  1  0.68571100  0.45013300  0.42436600  1
  Ge  Ge6  1  0.31735800  0.54743800  0.57017000  1
  Ge  Ge7  1  0.31490400  0.05238500  0.07452000  1
  O  O0  1  0.87117100  0.97135600  0.86601300  1
  O  O1  1  0.88076500  0.46594600  0.36737700  1
  O  O2  1  0.12592200  0.53049100  0.63206600  1
  O  O3  1  0.12285200  0.03392000  0.13414800  1
  O  O4  1  0.16488200  0.73768900  0.38101800  1
  O  O5  1  0.16296200  0.24349300  0.88423900  1
  O  O6  1  0.83747100  0.75670900  0.11768300  1
  O  O7  1  0.83506600  0.25900900  0.61545900  1
  O  O8  1  0.31380100  0.01056400  0.46287200  1
  O  O9  1  0.30527000  0.52395200  0.95478100  1
  O  O10  1  0.68929600  0.48060900  0.04229900  1
  O  O11  1  0.68732700  0.98345100  0.54132600  1
  O  O12  1  0.52089400  0.89728700  0.79649700  1
  O  O13  1  0.52567900  0.40001900  0.28710800  1
  O  O14  1  0.47898900  0.60054600  0.70413600  1
  O  O15  1  0.47476200  0.10611700  0.20995600  1
  O  O16  1  0.88035900  0.60728100  0.79302500  1
  O  O17  1  0.88926100  0.10153900  0.30444400  1
  O  O18  1  0.11531200  0.89406700  0.70537100  1
  O  O19  1  0.11885700  0.39560400  0.20277400  1
  O  O20  1  0.59572000  0.66334700  0.44634400  1
  O  O21  1  0.59884800  0.16318500  0.95697500  1
  O  O22  1  0.40686500  0.83925400  0.05270400  1
  O  O23  1  0.40060900  0.33322400  0.54553300  1
loop_
_geom_bond_atom_site_label_1
_geom_bond_atom_site_label_2
_geom_bond_distance
_geom_bond_site_symmetry_2
Co0 O10 2.084071 1_555
Co0 O15 2.091455 1_555
Co0 O21 2.121174 1_554
Co0 O13 2.135829 1_555
Co0 O17 2.182910 1_555
Co0 O9 2.218006 1_554
Co1 O19 2.107381 1_555
Co1 O23 2.110692 1_555
Co1 O13 2.137611 1_555
Co1 O8 2.143967 1_555
Co1 O15 2.154288 1_555
Co1 O11 2.173187 1_545
Co2 O14 2.068135 1_555
Co2 O11 2.103518 1_555
Co2 O16 2.104706 1_555
Co2 O8 2.128327 1_565
Co2 O20 2.191882 1_555
Co2 O12 2.240736 1_555
Co3 O12 2.060151 1_555
Co3 O9 2.080881 1_555
Co3 O18 2.116082 1_555
Co3 O10 2.191180 1_556
Co3 O22 2.200440 1_556
Co3 O14 2.240622 1_555
Ge0 O17 1.732837 1_465
Ge0 O8 1.750001 1_565
Ge0 O3 1.817222 1_565
Ge0 O4 1.851201 1_555
Ge1 O16 1.744587 1_455
Ge1 O9 1.747769 1_555
Ge1 O2 1.813566 1_555
Ge1 O5 1.848480 1_555
Ge2 O19 1.741396 1_655
Ge2 O10 1.761391 1_555
Ge2 O1 1.806481 1_555
Ge2 O6 1.847098 1_555
Ge3 O18 1.742574 1_645
Ge3 O11 1.753790 1_545
Ge3 O0 1.814651 1_545
Ge3 O7 1.844492 1_555
Ge4 O21 1.744537 1_565
Ge4 O12 1.750326 1_555
Ge4 O6 1.810369 1_556
Ge4 O0 1.853488 1_555
Ge5 O20 1.731408 1_555
Ge5 O13 1.747770 1_555
Ge5 O7 1.820899 1_555
Ge5 O1 1.849765 1_555
Ge6 O23 1.744334 1_555
Ge6 O14 1.751845 1_555
Ge6 O4 1.808095 1_555
Ge6 O2 1.851936 1_555
Ge7 O22 1.732424 1_545
Ge7 O15 1.755394 1_555
Ge7 O5 1.817212 1_554
Ge7 O3 1.846973 1_555
O0 Sr2 2.699268 1_565
O0 Sr1 2.775842 1_656
O1 Sr0 2.719209 1_655
O1 Sr3 2.739740 1_555
O2 Sr0 2.727222 1_555
O2 Sr3 2.762771 1_455
O3 Sr1 2.732679 1_545
O3 Sr2 2.738029 1_454
O4 Sr3 2.728468 1_455
O4 Sr1 2.740520 1_555
O5 Sr2 2.689671 1_455
O5 Sr0 2.799376 1_555
O6 Sr1 2.723915 1_655
O6 Sr3 2.767387 1_555
O7 Sr0 2.702793 1_655
O7 Sr2 2.768980 1_555
O8 Sr0 2.534893 1_555
O9 Sr1 2.523398 1_556
O10 Sr2 2.551811 1_554
O11 Sr3 2.550605 1_555
O12 Sr0 2.530335 1_565
O13 Sr1 2.522959 1_555
O14 Sr2 2.526689 1_555
O15 Sr3 2.539792 1_545
O16 Sr2 2.579011 1_555
O17 Sr3 2.562163 1_545
O18 Sr0 2.573399 1_565
O19 Sr1 2.576238 1_555
O20 Sr3 2.550118 1_555
O21 Sr2 2.576409 1_555
O22 Sr1 2.562502 1_555
O23 Sr0 2.551939 1_555
