# generated using pymatgen
data_KRbMg14O15
_symmetry_space_group_name_H-M   'P 1'
_cell_length_a   8.60222017
_cell_length_b   8.94134231
_cell_length_c   4.48366134
_cell_angle_alpha   90.00000000
_cell_angle_beta   90.00000000
_cell_angle_gamma   90.00000000
_symmetry_Int_Tables_number   1
_chemical_formula_structural   KRbMg14O15
_chemical_formula_sum   'K1 Rb1 Mg14 O15'
_cell_volume   344.86258376
_cell_formula_units_Z   1
loop_
 _symmetry_equiv_pos_site_id
 _symmetry_equiv_pos_as_xyz
  1  'x, y, z'
loop_
 _atom_site_type_symbol
 _atom_site_label
 _atom_site_symmetry_multiplicity
 _atom_site_fract_x
 _atom_site_fract_y
 _atom_site_fract_z
 _atom_site_occupancy
  K  K0  1  0.98240346  0.00000000  0.00000000  1
  Rb  Rb0  1  0.11046381  0.50000000  0.00000000  1
  Mg  Mg0  1  0.49605633  0.00000000  0.00000000  1
  Mg  Mg1  1  0.51880929  0.50000000  0.00000000  1
  Mg  Mg2  1  0.99584299  0.24907530  0.50000000  1
  Mg  Mg3  1  0.99584299  0.75092470  0.50000000  1
  Mg  Mg4  1  0.49590273  0.25458866  0.50000000  1
  Mg  Mg5  1  0.49590273  0.74541134  0.50000000  1
  Mg  Mg6  1  0.24666577  0.00000000  0.50000000  1
  Mg  Mg7  1  0.25341632  0.50000000  0.50000000  1
  Mg  Mg8  1  0.74018933  0.00000000  0.50000000  1
  Mg  Mg9  1  0.76921320  0.50000000  0.50000000  1
  Mg  Mg10  1  0.24065809  0.21592188  -0.00000000  1
  Mg  Mg11  1  0.24065809  0.78407812  0.00000000  1
  Mg  Mg12  1  0.75852853  0.26137606  0.00000000  1
  Mg  Mg13  1  0.75852853  0.73862394  0.00000000  1
  O  O0  1  0.27116559  0.00000000  0.00000000  1
  O  O1  1  0.71443843  0.00000000  0.00000000  1
  O  O2  1  0.74174744  0.50000000  0.00000000  1
  O  O3  1  0.24638269  0.26040017  0.50000000  1
  O  O4  1  0.24638269  0.73959983  0.50000000  1
  O  O5  1  0.74403216  0.25252732  0.50000000  1
  O  O6  1  0.74403216  0.74747268  0.50000000  1
  O  O7  1  0.01136380  0.00000000  0.50000000  1
  O  O8  1  0.00443741  0.50000000  0.50000000  1
  O  O9  1  0.49002401  0.00000000  0.50000000  1
  O  O10  1  0.48418166  0.50000000  0.50000000  1
  O  O11  1  0.99921568  0.25899667  0.00000000  1
  O  O12  1  0.99921568  0.74100333  -0.00000000  1
  O  O13  1  0.47714920  0.27025139  0.00000000  1
  O  O14  1  0.47714920  0.72974861  0.00000000  1
loop_
_geom_bond_atom_site_label_1
_geom_bond_atom_site_label_2
_geom_bond_distance
_geom_bond_site_symmetry_2
K0 O7 2.255630 1_654
K0 O7 2.255630 1_655
K0 O1 2.305094 1_555
K0 O11 2.320289 1_555
K0 O12 2.320289 1_545
K0 O0 2.483995 1_655
Mg0 O1 1.878571 1_555
Mg0 O0 1.934560 1_555
Mg0 O9 2.242431 1_555
Mg0 O9 2.242431 1_554
Mg0 O14 2.421878 1_545
Mg0 O13 2.421878 1_555
Mg1 O2 1.917763 1_555
Mg1 O14 2.085286 1_555
Mg1 O13 2.085286 1_555
Mg1 O10 2.261534 1_555
Mg1 O10 2.261534 1_554
Mg2 O3 2.157575 1_655
Mg2 O5 2.166352 1_555
Mg2 O7 2.231066 1_655
Mg2 O11 2.243773 1_556
Mg2 O11 2.243773 1_555
Mg2 O8 2.244821 1_655
Mg3 O4 2.157575 1_655
Mg3 O6 2.166352 1_555
Mg3 O7 2.231066 1_665
Mg3 O12 2.243773 1_556
Mg3 O12 2.243773 1_555
Mg3 O8 2.244821 1_655
Mg4 O5 2.134544 1_555
Mg4 O3 2.147055 1_555
Mg4 O10 2.196622 1_555
Mg4 O13 2.251986 1_555
Mg4 O13 2.251986 1_556
Mg4 O9 2.276926 1_555
Mg5 O6 2.134544 1_555
Mg5 O4 2.147055 1_555
Mg5 O10 2.196622 1_555
Mg5 O14 2.251986 1_556
Mg5 O14 2.251986 1_555
Mg5 O9 2.276926 1_565
Mg6 O7 2.024119 1_555
Mg6 O9 2.093421 1_555
Mg6 O0 2.251715 1_555
Mg6 O0 2.251715 1_556
Mg6 O4 2.328328 1_545
Mg6 O3 2.328328 1_555
Mg7 O10 1.985094 1_555
Mg7 O8 2.141771 1_555
Mg7 O3 2.143198 1_555
Mg7 O4 2.143198 1_555
Mg8 O9 2.151977 1_555
Mg8 O1 2.252748 1_556
Mg8 O1 2.252748 1_555
Mg8 O6 2.258175 1_545
Mg8 O5 2.258175 1_555
Mg8 O7 2.332702 1_655
Mg9 O8 2.023450 1_655
Mg9 O6 2.223315 1_555
Mg9 O5 2.223315 1_555
Mg9 O2 2.254246 1_556
Mg9 O2 2.254246 1_555
Mg9 O10 2.451904 1_555
Mg10 O0 1.948386 1_555
Mg10 O13 2.091544 1_555
Mg10 O11 2.112350 1_455
Mg10 O3 2.277365 1_554
Mg10 O3 2.277365 1_555
Mg11 O0 1.948386 1_565
Mg11 O14 2.091544 1_555
Mg11 O12 2.112350 1_455
Mg11 O4 2.277365 1_554
Mg11 O4 2.277365 1_555
Mg12 O11 2.070553 1_555
Mg12 O2 2.138496 1_555
Mg12 O5 2.246690 1_555
Mg12 O5 2.246690 1_554
Mg12 O1 2.367628 1_555
Mg12 O13 2.421787 1_555
Mg13 O12 2.070553 1_555
Mg13 O2 2.138496 1_555
Mg13 O6 2.246690 1_555
Mg13 O6 2.246690 1_554
Mg13 O1 2.367628 1_565
Mg13 O14 2.421787 1_555
O8 Rb0 2.420261 1_555
O8 Rb0 2.420261 1_556
O11 Rb0 2.357833 1_655
O12 Rb0 2.357833 1_655
