# generated using pymatgen
data_CsP2H5O8
_symmetry_space_group_name_H-M   'P 1'
_cell_length_a   7.72774465
_cell_length_b   9.48588301
_cell_length_c   10.75631134
_cell_angle_alpha   85.25379636
_cell_angle_beta   90.00000000
_cell_angle_gamma   90.00000000
_symmetry_Int_Tables_number   1
_chemical_formula_structural   CsP2H5O8
_chemical_formula_sum   'Cs4 P8 H20 O32'
_cell_volume   785.78209921
_cell_formula_units_Z   4
loop_
 _symmetry_equiv_pos_site_id
 _symmetry_equiv_pos_as_xyz
  1  'x, y, z'
loop_
 _atom_site_type_symbol
 _atom_site_label
 _atom_site_symmetry_multiplicity
 _atom_site_fract_x
 _atom_site_fract_y
 _atom_site_fract_z
 _atom_site_occupancy
  Cs  Cs0  1  0.67676619  0.45649093  0.23710591  1
  Cs  Cs1  1  0.17676619  0.04350907  0.76289409  1
  Cs  Cs2  1  0.32323381  0.54350907  0.76289409  1
  Cs  Cs3  1  0.82323381  0.95649093  0.23710591  1
  P  P0  1  0.19590356  0.32374969  0.44158197  1
  P  P1  1  0.69590356  0.17625031  0.55841803  1
  P  P2  1  0.80409644  0.67625031  0.55841803  1
  P  P3  1  0.30409644  0.82374969  0.44158197  1
  P  P4  1  0.18665297  0.26396499  0.07130013  1
  P  P5  1  0.68665297  0.23603501  0.92869987  1
  P  P6  1  0.81334703  0.73603501  0.92869987  1
  P  P7  1  0.31334703  0.76396499  0.07130013  1
  H  H0  1  0.29074371  0.54252497  0.42679542  1
  H  H1  1  0.79074371  0.95747503  0.57320458  1
  H  H2  1  0.70925629  0.45747503  0.57320458  1
  H  H3  1  0.20925629  0.04252497  0.42679542  1
  H  H4  1  0.48554090  0.17854867  0.42230750  1
  H  H5  1  0.98554090  0.32145133  0.57769250  1
  H  H6  1  0.51445910  0.82145133  0.57769250  1
  H  H7  1  0.01445910  0.67854867  0.42230750  1
  H  H8  1  0.04590370  0.30082078  0.26257629  1
  H  H9  1  0.54590370  0.19917922  0.73742371  1
  H  H10  1  0.95409630  0.69917922  0.73742371  1
  H  H11  1  0.45409630  0.80082078  0.26257629  1
  H  H12  1  0.26500759  0.48364583  0.09613082  1
  H  H13  1  0.76500759  0.01635417  0.90386918  1
  H  H14  1  0.73499241  0.51635417  0.90386918  1
  H  H15  1  0.23499241  -0.01635417  0.09613082  1
  H  H16  1  0.98766952  0.33767633  0.93653528  1
  H  H17  1  0.48766952  0.16232367  0.06346472  1
  H  H18  1  0.01233048  0.66232367  0.06346472  1
  H  H19  1  0.51233048  0.83767633  0.93653528  1
  O  O0  1  0.28810346  0.18682355  0.42397631  1
  O  O1  1  0.78810346  0.31317645  0.57602369  1
  O  O2  1  0.71189654  0.81317645  0.57602369  1
  O  O3  1  0.21189654  0.68682355  0.42397631  1
  O  O4  1  0.04531479  0.35434580  0.35094459  1
  O  O5  1  0.54531479  0.14565420  0.64905541  1
  O  O6  1  0.95468521  0.64565420  0.64905541  1
  O  O7  1  0.45468521  0.85434580  0.35094459  1
  O  O8  1  0.33650751  0.44120089  0.42909930  1
  O  O9  1  0.83650751  0.05879911  0.57090070  1
  O  O10  1  0.66349249  0.55879911  0.57090070  1
  O  O11  1  0.16349249  0.94120089  0.42909930  1
  O  O12  1  0.11742354  0.32655932  0.57554148  1
  O  O13  1  0.61742354  0.17344068  0.42445852  1
  O  O14  1  0.88257646  0.67344068  0.42445852  1
  O  O15  1  0.38257646  0.82655932  0.57554148  1
  O  O16  1  0.29758172  0.13352522  0.06332951  1
  O  O17  1  0.79758172  0.36647478  0.93667049  1
  O  O18  1  0.70241828  0.86647478  0.93667049  1
  O  O19  1  0.20241828  0.63352522  0.06332951  1
  O  O20  1  0.03414537  0.24158908  0.15942256  1
  O  O21  1  0.53414537  0.25841092  0.84057744  1
  O  O22  1  0.96585463  0.75841092  0.84057744  1
  O  O23  1  0.46585463  0.74158908  0.15942256  1
  O  O24  1  0.31026658  0.38266913  0.11197293  1
  O  O25  1  0.81026658  0.11733087  0.88802707  1
  O  O26  1  0.68973342  0.61733087  0.88802707  1
  O  O27  1  0.18973342  0.88266913  0.11197293  1
  O  O28  1  0.11744511  0.31489923  0.93808624  1
  O  O29  1  0.61744511  0.18510077  0.06191376  1
  O  O30  1  0.88255489  0.68510077  0.06191376  1
  O  O31  1  0.38255489  0.81489923  0.93808624  1
loop_
_geom_bond_atom_site_label_1
_geom_bond_atom_site_label_2
_geom_bond_distance
_geom_bond_site_symmetry_2
Cs0 O30 3.179068 1_555
Cs0 O23 3.208512 1_555
Cs0 H8 3.213408 1_655
Cs0 O4 3.217646 1_655
Cs0 O24 3.237194 1_555
Cs0 O13 3.253481 1_555
Cs0 O8 3.339190 1_555
Cs0 O29 3.345355 1_555
Cs0 O14 3.392957 1_555
Cs0 O17 3.535606 1_554
Cs1 O31 3.179068 1_545
Cs1 O22 3.208512 1_445
Cs1 H9 3.213408 1_555
Cs1 O5 3.217646 1_555
Cs1 O25 3.237194 1_455
Cs1 O12 3.253481 1_555
Cs1 O9 3.339190 1_455
Cs1 O28 3.345355 1_555
Cs1 O15 3.392957 1_545
Cs1 O16 3.535606 1_556
Cs2 O28 3.179068 1_555
Cs2 O21 3.208512 1_555
Cs2 H10 3.213408 1_455
Cs2 O6 3.217646 1_455
Cs2 O26 3.237194 1_555
Cs2 O15 3.253481 1_555
Cs2 O10 3.339190 1_555
Cs2 O31 3.345355 1_555
Cs2 O12 3.392957 1_555
Cs2 O19 3.535606 1_556
Cs3 O29 3.179068 1_565
Cs3 O20 3.208512 1_665
Cs3 H11 3.213408 1_555
Cs3 O7 3.217646 1_555
Cs3 O27 3.237194 1_655
Cs3 O14 3.253481 1_555
Cs3 O11 3.339190 1_655
Cs3 O30 3.345355 1_555
Cs3 O13 3.392957 1_565
Cs3 O18 3.535606 1_554
H0 O8 1.022520 1_555
H0 O3 1.496303 1_555
H1 O9 1.022520 1_565
H1 O2 1.496303 1_555
H2 O10 1.022520 1_555
H2 O1 1.496303 1_555
H3 O11 1.022520 1_545
H3 O0 1.496303 1_555
H4 O13 1.020478 1_555
H4 O0 1.527946 1_555
H5 O12 1.020478 1_655
H5 O1 1.527946 1_555
H6 O15 1.020478 1_555
H6 O2 1.527946 1_555
H7 O14 1.020478 1_455
H7 O3 1.527946 1_555
H8 O4 1.114073 1_555
H8 O20 1.287721 1_555
H9 O5 1.114073 1_555
H9 O21 1.287721 1_555
H10 O6 1.114073 1_555
H10 O22 1.287721 1_555
H11 O7 1.114073 1_555
H11 O23 1.287721 1_555
H12 O24 1.020703 1_555
H12 O19 1.515504 1_555
H13 O25 1.020703 1_555
H13 O18 1.515504 1_545
H14 O26 1.020703 1_555
H14 O17 1.515504 1_555
H15 O27 1.020703 1_545
H15 O16 1.515504 1_555
H16 O28 1.025728 1_655
H16 O17 1.494158 1_555
H17 O29 1.025728 1_555
H17 O16 1.494158 1_555
H18 O30 1.025728 1_455
H18 O19 1.494158 1_555
H19 O31 1.025728 1_555
H19 O18 1.494158 1_555
O0 P0 1.507073 1_555
O1 P1 1.507073 1_555
O2 P2 1.507073 1_555
O3 P3 1.507073 1_555
O4 P0 1.530396 1_555
O5 P1 1.530396 1_555
O6 P2 1.530396 1_555
O7 P3 1.530396 1_555
O8 P0 1.554075 1_555
O9 P1 1.554075 1_555
O10 P2 1.554075 1_555
O11 P3 1.554075 1_555
O12 P0 1.565598 1_555
O13 P1 1.565598 1_555
O14 P2 1.565598 1_555
O15 P3 1.565598 1_555
O16 P4 1.513522 1_555
O17 P5 1.513522 1_555
O18 P6 1.513522 1_555
O19 P7 1.513522 1_555
O20 P4 1.516303 1_555
O21 P5 1.516303 1_555
O22 P6 1.516303 1_555
O23 P7 1.516303 1_555
O24 P4 1.566313 1_555
O25 P5 1.566313 1_555
O26 P6 1.566313 1_555
O27 P7 1.566313 1_555
O28 P4 1.567827 1_556
O29 P5 1.567827 1_554
O30 P6 1.567827 1_554
O31 P7 1.567827 1_556
