# generated using pymatgen
data_Zn(CoO2)2
_symmetry_space_group_name_H-M   'P 1'
_cell_length_a   5.95306207
_cell_length_b   5.95306207
_cell_length_c   14.70612000
_cell_angle_alpha   90.00000000
_cell_angle_beta   90.00000000
_cell_angle_gamma   120.00000075
_symmetry_Int_Tables_number   1
_chemical_formula_structural   Zn(CoO2)2
_chemical_formula_sum   'Zn6 Co12 O24'
_cell_volume   451.34595540
_cell_formula_units_Z   6
loop_
 _symmetry_equiv_pos_site_id
 _symmetry_equiv_pos_as_xyz
  1  'x, y, z'
loop_
 _atom_site_type_symbol
 _atom_site_label
 _atom_site_symmetry_multiplicity
 _atom_site_fract_x
 _atom_site_fract_y
 _atom_site_fract_z
 _atom_site_occupancy
  Zn  Zn0  1  0.33333300  0.66666700  0.95669900  1
  Zn  Zn1  1  0.00000000  0.00000000  0.62291800  1
  Zn  Zn2  1  0.66666700  0.33333300  0.66588700  1
  Zn  Zn3  1  0.66666700  0.33333300  0.29083600  1
  Zn  Zn4  1  0.00000000  0.00000000  0.99992500  1
  Zn  Zn5  1  0.00000000  0.00000000  0.37529800  1
  Co  Co0  1  0.83408500  0.16591500  0.83328200  1
  Co  Co1  1  0.83408500  0.66817100  0.83328200  1
  Co  Co2  1  0.50066500  0.49933500  0.49969900  1
  Co  Co3  1  0.33182900  0.16591500  0.83328200  1
  Co  Co4  1  0.50066500  0.00132900  0.49969900  1
  Co  Co5  1  0.33333300  0.66666700  0.33571700  1
  Co  Co6  1  0.33333300  0.66666700  0.71040800  1
  Co  Co7  1  0.16646700  0.83353300  0.16707900  1
  Co  Co8  1  0.99867100  0.49933500  0.49969900  1
  Co  Co9  1  0.16646700  0.33293500  0.16707900  1
  Co  Co10  1  0.66706500  0.83353300  0.16707900  1
  Co  Co11  1  0.66666700  0.33333300  0.04335400  1
  O  O0  1  0.15504200  0.84495800  0.90729800  1
  O  O1  1  0.00000000  0.00000000  0.75772400  1
  O  O2  1  0.15504200  0.31008400  0.90729800  1
  O  O3  1  0.68991600  0.84495800  0.90729800  1
  O  O4  1  0.82399000  0.17601000  0.57189900  1
  O  O5  1  0.97987300  0.48993600  0.75820800  1
  O  O6  1  0.66666700  0.33333300  0.42486900  1
  O  O7  1  0.51006400  0.02012700  0.75820800  1
  O  O8  1  0.66666700  0.33333300  0.90909000  1
  O  O9  1  0.82399000  0.64797900  0.57189900  1
  O  O10  1  0.35202100  0.17601000  0.57189900  1
  O  O11  1  0.51006400  0.48993600  0.75820800  1
  O  O12  1  0.48208200  0.51791800  0.24901800  1
  O  O13  1  0.63915600  0.81957800  0.42112600  1
  O  O14  1  0.18042200  0.36084400  0.42112600  1
  O  O15  1  0.33333300  0.66666700  0.09295300  1
  O  O16  1  0.33333300  0.66666700  0.57529100  1
  O  O17  1  0.48208200  0.96416400  0.24901800  1
  O  O18  1  0.03583600  0.51791800  0.24901800  1
  O  O19  1  0.18042200  0.81957800  0.42112600  1
  O  O20  1  0.31150500  0.15575300  0.09298800  1
  O  O21  1  0.84424700  0.68849500  0.09298800  1
  O  O22  1  0.00000000  0.00000000  0.24060100  1
  O  O23  1  0.84424700  0.15575300  0.09298800  1
loop_
_geom_bond_atom_site_label_1
_geom_bond_atom_site_label_2
_geom_bond_distance
_geom_bond_site_symmetry_2
Co0 O2 1.982990 1_655
Co0 O3 1.982990 1_545
Co0 O7 2.004691 1_555
Co0 O5 2.004691 1_555
Co0 O1 2.039940 1_655
Co0 O8 2.054946 1_555
Co1 O3 1.982985 1_555
Co1 O0 1.982989 1_655
Co1 O11 2.004692 1_555
Co1 O5 2.004700 1_555
Co1 O1 2.039936 1_665
Co1 O8 2.054955 1_555
Co2 O10 1.977866 1_555
Co2 O9 1.977866 1_555
Co2 O13 2.019311 1_555
Co2 O14 2.019311 1_555
Co2 O6 2.034883 1_555
Co2 O16 2.052479 1_555
Co3 O2 1.982985 1_555
Co3 O0 1.982989 1_545
Co3 O11 2.004692 1_555
Co3 O7 2.004700 1_555
Co3 O1 2.039936 1_555
Co3 O8 2.054955 1_555
Co4 O4 1.977866 1_555
Co4 O10 1.977866 1_555
Co4 O13 2.019307 1_545
Co4 O19 2.019311 1_545
Co4 O6 2.034883 1_555
Co4 O16 2.052470 1_545
Co5 O17 1.994497 1_555
Co5 O18 1.994497 1_555
Co5 O12 1.994501 1_555
Co5 O19 2.015813 1_555
Co5 O13 2.015817 1_555
Co5 O14 2.015817 1_555
Co6 O7 1.953148 1_565
Co6 O5 1.953148 1_455
Co6 O11 1.953158 1_555
Co6 O16 1.987047 1_555
Co7 O21 1.988962 1_455
Co7 O20 1.988962 1_565
Co7 O22 2.028600 1_565
Co7 O17 2.031217 1_555
Co7 O18 2.031217 1_555
Co7 O15 2.036822 1_555
Co8 O4 1.977866 1_555
Co8 O9 1.977866 1_555
Co8 O14 2.019307 1_655
Co8 O19 2.019311 1_655
Co8 O6 2.034883 1_555
Co8 O16 2.052470 1_655
Co9 O23 1.988962 1_455
Co9 O20 1.988962 1_555
Co9 O22 2.028604 1_555
Co9 O18 2.031212 1_555
Co9 O12 2.031216 1_555
Co9 O15 2.036822 1_555
Co10 O23 1.988962 1_565
Co10 O21 1.988962 1_555
Co10 O22 2.028604 1_665
Co10 O17 2.031212 1_555
Co10 O12 2.031216 1_555
Co10 O15 2.036822 1_555
Co11 O23 1.971155 1_555
Co11 O21 1.971165 1_555
Co11 O20 1.971165 1_555
Co11 O8 1.974502 1_554
O0 Zn0 1.976705 1_555
O0 Zn4 2.100284 1_565
O1 Zn1 1.982473 1_555
O2 Zn0 1.976710 1_555
O2 Zn4 2.100284 1_555
O3 Zn0 1.976710 1_555
O3 Zn4 2.100284 1_665
O4 Zn1 1.963818 1_655
O4 Zn2 2.131167 1_555
O5 Zn2 2.109662 1_555
O6 Zn3 1.971105 1_555
O7 Zn2 2.109662 1_555
O9 Zn1 1.963823 1_665
O9 Zn2 2.131167 1_555
O10 Zn1 1.963823 1_555
O10 Zn2 2.131167 1_555
O11 Zn2 2.109662 1_555
O12 Zn3 2.000147 1_555
O13 Zn5 1.978648 1_665
O14 Zn5 1.978648 1_555
O15 Zn0 2.003768 1_554
O17 Zn3 2.000142 1_565
O18 Zn3 2.000142 1_455
O19 Zn5 1.978648 1_565
O20 Zn4 2.110018 1_554
O21 Zn4 2.110018 1_664
O22 Zn5 1.980870 1_555
O23 Zn4 2.110022 1_654
