# generated using pymatgen
data_NaTi5(NCl)5
_symmetry_space_group_name_H-M   'P 1'
_cell_length_a   5.21790100
_cell_length_b   9.47050067
_cell_length_c   12.45463306
_cell_angle_alpha   69.82599680
_cell_angle_beta   87.56463731
_cell_angle_gamma   86.86692720
_symmetry_Int_Tables_number   1
_chemical_formula_structural   NaTi5(NCl)5
_chemical_formula_sum   'Na2 Ti10 N10 Cl10'
_cell_volume   576.65405426
_cell_formula_units_Z   2
loop_
 _symmetry_equiv_pos_site_id
 _symmetry_equiv_pos_as_xyz
  1  'x, y, z'
loop_
 _atom_site_type_symbol
 _atom_site_label
 _atom_site_symmetry_multiplicity
 _atom_site_fract_x
 _atom_site_fract_y
 _atom_site_fract_z
 _atom_site_occupancy
  Na  Na0  1  0.00200200  0.73555900  0.74377900  1
  Na  Na1  1  0.99799800  0.26444100  0.25622100  1
  Ti  Ti0  1  0.94290700  0.15413200  0.92248100  1
  Ti  Ti1  1  0.14272900  0.75253400  0.32438000  1
  Ti  Ti2  1  0.54147800  0.95445400  0.12269400  1
  Ti  Ti3  1  0.34235400  0.35297800  0.72526300  1
  Ti  Ti4  1  0.74198900  0.55629800  0.52098600  1
  Ti  Ti5  1  0.85727100  0.24746600  0.67562000  1
  Ti  Ti6  1  0.05709300  0.84586800  0.07751900  1
  Ti  Ti7  1  0.45852200  0.04554600  0.87730600  1
  Ti  Ti8  1  0.25801100  0.44370200  0.47901400  1
  Ti  Ti9  1  0.65764600  0.64702200  0.27473700  1
  N  N0  1  0.15543800  0.16450200  0.78433000  1
  N  N1  1  0.35474200  0.76426200  0.18514100  1
  N  N2  1  0.75536300  0.96400500  0.98441200  1
  N  N3  1  0.55508600  0.36565400  0.58515600  1
  N  N4  1  0.95484100  0.56325400  0.38458000  1
  N  N5  1  0.64525800  0.23573800  0.81485900  1
  N  N6  1  0.84456200  0.83549800  0.21567000  1
  N  N7  1  0.24463700  0.03599500  0.01558800  1
  N  N8  1  0.04515900  0.43674600  0.61542000  1
  N  N9  1  0.44491400  0.63434600  0.41484400  1
  Cl  Cl0  1  0.51959000  0.61356000  0.69137500  1
  Cl  Cl1  1  0.92104600  0.80788800  0.49177700  1
  Cl  Cl2  1  0.32638500  0.00766100  0.29239300  1
  Cl  Cl3  1  0.71364700  0.21216000  0.08766000  1
  Cl  Cl4  1  0.11879000  0.41192000  0.88804000  1
  Cl  Cl5  1  0.07895400  0.19211200  0.50822300  1
  Cl  Cl6  1  0.48041000  0.38644000  0.30862500  1
  Cl  Cl7  1  0.88121000  0.58808000  0.11196000  1
  Cl  Cl8  1  0.28635300  0.78784000  0.91234000  1
  Cl  Cl9  1  0.67361500  0.99233900  0.70760700  1
loop_
_geom_bond_atom_site_label_1
_geom_bond_atom_site_label_2
_geom_bond_distance
_geom_bond_site_symmetry_2
N0 Ti3 1.975377 1_555
N0 Ti0 1.983223 1_455
N0 Ti7 2.042593 1_555
N0 Ti5 2.045159 1_455
N1 Ti2 1.989936 1_555
N1 Ti1 1.990236 1_555
N1 Ti9 2.019787 1_555
N1 Ti6 2.034027 1_555
N2 Ti2 1.989998 1_556
N2 Ti0 1.991291 1_565
N2 Ti7 2.027111 1_565
N2 Ti6 2.035416 1_656
N3 Ti4 1.995143 1_555
N3 Ti3 1.999242 1_555
N3 Ti8 2.017844 1_555
N3 Ti5 2.024030 1_555
N4 Ti4 1.973456 1_555
N4 Ti1 1.984751 1_655
N4 Ti9 2.050108 1_555
N4 Ti8 2.052195 1_655
N5 Ti7 1.989936 1_555
N5 Ti5 1.990236 1_555
N5 Ti3 2.019787 1_555
N5 Ti0 2.034027 1_555
N6 Ti9 1.975377 1_555
N6 Ti6 1.983223 1_655
N6 Ti2 2.042593 1_555
N6 Ti1 2.045159 1_655
N7 Ti7 1.989998 1_554
N7 Ti6 1.991291 1_545
N7 Ti2 2.027111 1_545
N7 Ti0 2.035416 1_454
N8 Ti8 1.973456 1_555
N8 Ti5 1.984751 1_455
N8 Ti3 2.050108 1_555
N8 Ti4 2.052195 1_455
N9 Ti8 1.995143 1_555
N9 Ti9 1.999242 1_555
N9 Ti4 2.017844 1_555
N9 Ti1 2.024030 1_555
Cl0 Ti3 2.573230 1_555
Cl0 Ti4 2.580678 1_555
Cl0 Na0 3.012434 1_655
Cl0 Na0 3.013976 1_555
Cl1 Ti4 2.509787 1_555
Cl1 Ti1 2.538132 1_655
Cl1 Na0 3.016052 1_655
Cl2 Ti2 2.540032 1_545
Cl2 Ti1 2.543954 1_545
Cl2 Na1 2.811990 1_455
Cl3 Ti2 2.534921 1_545
Cl3 Ti0 2.542457 1_554
Cl3 Na1 2.813516 1_555
Cl4 Ti3 2.508159 1_555
Cl4 Ti0 2.544745 1_455
Cl4 Na0 3.014032 1_555
Cl5 Ti8 2.509787 1_555
Cl5 Ti5 2.538132 1_455
Cl5 Na1 3.016052 1_455
Cl6 Ti9 2.573230 1_555
Cl6 Ti8 2.580678 1_555
Cl6 Na1 3.012434 1_455
Cl6 Na1 3.013976 1_555
Cl7 Ti9 2.508159 1_555
Cl7 Ti6 2.544745 1_655
Cl7 Na1 3.014032 1_555
Cl8 Ti7 2.534921 1_565
Cl8 Ti6 2.542457 1_556
Cl8 Na0 2.813516 1_555
Cl9 Ti7 2.540032 1_565
Cl9 Ti5 2.543954 1_565
Cl9 Na0 2.811990 1_655
