# generated using pymatgen
data_Ba3Ge2(B3O8)2
_symmetry_space_group_name_H-M   'P 1'
_cell_length_a   5.11775058
_cell_length_b   7.67074442
_cell_length_c   8.65399837
_cell_angle_alpha   102.56583706
_cell_angle_beta   102.65715655
_cell_angle_gamma   88.31552957
_symmetry_Int_Tables_number   1
_chemical_formula_structural   Ba3Ge2(B3O8)2
_chemical_formula_sum   'Ba3 Ge2 B6 O16'
_cell_volume   323.47426787
_cell_formula_units_Z   1
loop_
 _symmetry_equiv_pos_site_id
 _symmetry_equiv_pos_as_xyz
  1  'x, y, z'
loop_
 _atom_site_type_symbol
 _atom_site_label
 _atom_site_symmetry_multiplicity
 _atom_site_fract_x
 _atom_site_fract_y
 _atom_site_fract_z
 _atom_site_occupancy
  Ba  Ba0  1  0.50000000  0.50000000  0.00000000  1
  Ba  Ba1  1  0.61855454  0.07940838  0.26017910  1
  Ba  Ba2  1  0.38144546  0.92059162  0.73982090  1
  Ge  Ge0  1  0.22936010  0.33056114  0.55804935  1
  Ge  Ge1  1  0.77063990  0.66943886  0.44195065  1
  B  B0  1  0.80878191  0.25583644  0.70503693  1
  B  B1  1  0.19121809  0.74416356  0.29496307  1
  B  B2  1  0.97021041  0.59148492  0.75379126  1
  B  B3  1  0.02978959  0.40851508  0.24620874  1
  B  B4  1  0.03876499  0.19549990  0.97294796  1
  B  B5  1  0.96123501  0.80450010  0.02705204  1
  O  O0  1  0.96102407  0.20303021  0.57440373  1
  O  O1  1  0.03897593  0.79696979  0.42559627  1
  O  O2  1  0.21039391  0.54420222  0.67856653  1
  O  O3  1  0.78960609  0.45579778  0.32143347  1
  O  O4  1  0.51795053  0.21793185  0.62733383  1
  O  O5  1  0.48204947  0.78206815  0.37266617  1
  O  O6  1  0.76821880  0.67596400  0.64439359  1
  O  O7  1  0.23178120  0.32403600  0.35560641  1
  O  O8  1  0.86668694  0.43893893  0.79625888  1
  O  O9  1  0.13331306  0.56106107  0.20374112  1
  O  O10  1  0.30400424  0.17697658  0.99532493  1
  O  O11  1  0.69599576  0.82302342  0.00467507  1
  O  O12  1  0.91318352  0.27550529  0.09751934  1
  O  O13  1  0.08681648  0.72449471  0.90248066  1
  O  O14  1  0.86892911  0.13403070  0.81970772  1
  O  O15  1  0.13107089  0.86596930  0.18029228  1
loop_
_geom_bond_atom_site_label_1
_geom_bond_atom_site_label_2
_geom_bond_distance
_geom_bond_site_symmetry_2
Ba0 O11 2.689260 1_555
Ba0 O10 2.689260 1_554
Ba0 O12 2.790212 1_555
Ba0 O13 2.790212 1_554
Ba0 O9 2.808710 1_555
Ba0 O8 2.808710 1_554
Ba0 O2 2.936586 1_554
Ba0 O3 2.936586 1_555
Ba1 O11 2.712932 1_545
Ba1 O10 2.731972 1_554
Ba1 O7 2.818674 1_555
Ba1 O5 2.827652 1_545
Ba1 O0 2.872755 1_555
Ba1 O15 2.893855 1_545
Ba1 O12 2.915914 1_555
Ba1 O3 2.943205 1_555
Ba1 O15 3.176153 1_645
Ba1 O4 3.271918 1_555
Ba1 O1 3.331383 1_645
Ba2 O10 2.712932 1_565
Ba2 O11 2.731972 1_556
Ba2 O6 2.818674 1_555
Ba2 O4 2.827652 1_565
Ba2 O1 2.872755 1_555
Ba2 O14 2.893855 1_565
Ba2 O13 2.915914 1_555
Ba2 O2 2.943205 1_555
Ba2 O14 3.176153 1_465
Ba2 O5 3.271918 1_555
Ba2 O0 3.331383 1_465
Ge0 O7 1.744499 1_555
Ge0 O4 1.746297 1_555
Ge0 O2 1.753313 1_555
Ge0 O0 1.757074 1_455
Ge1 O6 1.744499 1_555
Ge1 O5 1.746297 1_555
Ge1 O3 1.753313 1_555
Ge1 O1 1.757074 1_655
B0 O8 1.457130 1_555
B0 O14 1.484991 1_555
B0 O0 1.489079 1_555
B0 O4 1.501272 1_555
B1 O9 1.457130 1_555
B1 O15 1.484991 1_555
B1 O1 1.489079 1_555
B1 O5 1.501272 1_555
B2 O8 1.447029 1_555
B2 O13 1.476779 1_655
B2 O6 1.477674 1_555
B2 O2 1.512613 1_655
B3 O9 1.447029 1_555
B3 O12 1.476779 1_455
B3 O7 1.477674 1_555
B3 O3 1.512613 1_455
B4 O10 1.336315 1_555
B4 O12 1.394426 1_456
B4 O14 1.408307 1_455
B5 O11 1.336315 1_555
B5 O13 1.394426 1_654
B5 O15 1.408307 1_655
