# generated using pymatgen
data_Sr2La2CrNiO8
_symmetry_space_group_name_H-M   'P 1'
_cell_length_a   6.89304090
_cell_length_b   6.89304090
_cell_length_c   5.49907400
_cell_angle_alpha   90.00000000
_cell_angle_beta   90.00000000
_cell_angle_gamma   133.17814728
_symmetry_Int_Tables_number   1
_chemical_formula_structural   Sr2La2CrNiO8
_chemical_formula_sum   'Sr2 La2 Cr1 Ni1 O8'
_cell_volume   190.53536668
_cell_formula_units_Z   1
loop_
 _symmetry_equiv_pos_site_id
 _symmetry_equiv_pos_as_xyz
  1  'x, y, z'
loop_
 _atom_site_type_symbol
 _atom_site_label
 _atom_site_symmetry_multiplicity
 _atom_site_fract_x
 _atom_site_fract_y
 _atom_site_fract_z
 _atom_site_occupancy
  Sr  Sr0  1  0.85543800  0.14456200  0.50000000  1
  Sr  Sr1  1  0.64382600  0.35617400  0.00000000  1
  La  La0  1  0.36037200  0.63962800  0.00000000  1
  La  La1  1  0.13902300  0.86097700  0.50000000  1
  Cr  Cr0  1  0.50042600  0.49957400  0.50000000  1
  Ni  Ni0  1  0.99736900  0.00263100  0.00000000  1
  O  O0  1  0.75431700  0.75353000  0.24755900  1
  O  O1  1  0.24647000  0.24568300  0.75244100  1
  O  O2  1  0.75431700  0.75353000  0.75244100  1
  O  O3  1  0.24647000  0.24568300  0.24755900  1
  O  O4  1  0.17740600  0.82259400  0.00000000  1
  O  O5  1  0.66073900  0.33926100  0.50000000  1
  O  O6  1  0.32867100  0.67132900  0.50000000  1
  O  O7  1  0.83515600  0.16484400  0.00000000  1
loop_
_geom_bond_atom_site_label_1
_geom_bond_atom_site_label_2
_geom_bond_distance
_geom_bond_site_symmetry_2
La0 O4 2.314739 1_555
La0 O0 2.631689 1_555
La0 O2 2.631689 1_554
La0 O3 2.631689 1_555
La0 O1 2.631689 1_554
La0 O7 2.757280 1_455
La0 O7 2.757280 1_565
La0 O6 2.778633 1_555
La0 O6 2.778633 1_554
La1 O6 2.399274 1_555
La1 O1 2.611475 1_565
La1 O3 2.611475 1_565
La1 O2 2.611475 1_455
La1 O0 2.611475 1_455
La1 O5 2.752508 1_455
La1 O5 2.752508 1_565
La1 O4 2.792087 1_556
La1 O4 2.792087 1_555
Cr0 O1 1.965096 1_555
Cr0 O3 1.965096 1_555
Cr0 O2 1.965096 1_555
Cr0 O0 1.965096 1_555
Cr0 O5 2.028151 1_555
Cr0 O6 2.172906 1_555
Ni0 O3 1.916125 1_655
Ni0 O0 1.916125 1_545
Ni0 O1 1.916125 1_654
Ni0 O2 1.916125 1_544
Ni0 O7 2.052188 1_555
Ni0 O4 2.277683 1_645
O0 Sr1 2.660927 1_555
O0 Sr0 2.665882 1_565
O1 Sr1 2.660927 1_556
O1 Sr0 2.665882 1_455
O2 Sr1 2.660927 1_556
O2 Sr0 2.665882 1_565
O3 Sr1 2.660927 1_555
O3 Sr0 2.665882 1_455
O4 Sr1 2.771516 1_455
O4 Sr1 2.771516 1_565
O5 Sr0 2.463175 1_555
O5 Sr1 2.757850 1_556
O5 Sr1 2.757850 1_555
O6 Sr0 2.759619 1_565
O6 Sr0 2.759619 1_455
O7 Sr1 2.420553 1_555
O7 Sr0 2.761484 1_555
O7 Sr0 2.761484 1_554
