# generated using pymatgen
data_Mg(NiS2)2
_symmetry_space_group_name_H-M   'P 1'
_cell_length_a   6.97297654
_cell_length_b   6.97297654
_cell_length_c   6.97297654
_cell_angle_alpha   60.00000000
_cell_angle_beta   60.00000000
_cell_angle_gamma   60.00000000
_symmetry_Int_Tables_number   1
_chemical_formula_structural   Mg(NiS2)2
_chemical_formula_sum   'Mg2 Ni4 S8'
_cell_volume   239.73951107
_cell_formula_units_Z   2
loop_
 _symmetry_equiv_pos_site_id
 _symmetry_equiv_pos_as_xyz
  1  'x, y, z'
loop_
 _atom_site_type_symbol
 _atom_site_label
 _atom_site_symmetry_multiplicity
 _atom_site_fract_x
 _atom_site_fract_y
 _atom_site_fract_z
 _atom_site_occupancy
  Mg  Mg0  1  0.50000000  0.50000000  0.50000000  1
  Mg  Mg1  1  0.75000000  0.75000000  0.75000000  1
  Ni  Ni0  1  0.12826500  0.12826500  0.12826500  1
  Ni  Ni1  1  0.63479500  0.12173500  0.12173500  1
  Ni  Ni2  1  0.12826500  0.61520500  0.12826500  1
  Ni  Ni3  1  0.12173500  0.12173500  0.63479500  1
  S  S0  1  0.36096800  0.36096800  0.36096800  1
  S  S1  1  0.33290300  0.88903200  0.88903200  1
  S  S2  1  0.88903200  0.88903200  0.33290300  1
  S  S3  1  0.88903200  0.33290300  0.88903200  1
  S  S4  1  0.36096800  0.36096800  0.91709700  1
  S  S5  1  0.36096800  0.91709700  0.36096800  1
  S  S6  1  0.88903200  0.88903200  0.88903200  1
  S  S7  1  0.91709700  0.36096800  0.36096800  1
loop_
_geom_bond_atom_site_label_1
_geom_bond_atom_site_label_2
_geom_bond_distance
_geom_bond_site_symmetry_2
Mg0 S0 2.374699 1_555
Mg0 S5 2.374705 1_555
Mg0 S4 2.374705 1_555
Mg0 S7 2.374705 1_555
Mg1 S6 2.374699 1_555
Mg1 S2 2.374705 1_555
Mg1 S1 2.374705 1_555
Mg1 S3 2.374705 1_555
Ni0 S5 2.299657 1_545
Ni0 S7 2.299657 1_455
Ni0 S4 2.299657 1_554
Ni0 S3 2.371444 1_454
Ni0 S1 2.371444 1_544
Ni0 S2 2.371444 1_445
Ni1 S3 2.299652 1_554
Ni1 S2 2.299652 1_545
Ni1 S6 2.299656 1_544
Ni1 S4 2.371439 1_554
Ni1 S5 2.371439 1_545
Ni1 S0 2.371444 1_555
Ni2 S4 2.299652 1_554
Ni2 S7 2.299652 1_455
Ni2 S0 2.299656 1_555
Ni2 S2 2.371439 1_455
Ni2 S1 2.371439 1_554
Ni2 S6 2.371444 1_454
Ni3 S3 2.299652 1_455
Ni3 S1 2.299652 1_545
Ni3 S6 2.299656 1_445
Ni3 S5 2.371439 1_545
Ni3 S7 2.371439 1_455
Ni3 S0 2.371444 1_555
