# generated using pymatgen
data_Mn2AsO5
_symmetry_space_group_name_H-M   'P 1'
_cell_length_a   6.02396897
_cell_length_b   8.64729966
_cell_length_c   8.46188928
_cell_angle_alpha   90.00000000
_cell_angle_beta   90.00000000
_cell_angle_gamma   90.00000000
_symmetry_Int_Tables_number   1
_chemical_formula_structural   Mn2AsO5
_chemical_formula_sum   'Mn8 As4 O20'
_cell_volume   440.78882304
_cell_formula_units_Z   4
loop_
 _symmetry_equiv_pos_site_id
 _symmetry_equiv_pos_as_xyz
  1  'x, y, z'
loop_
 _atom_site_type_symbol
 _atom_site_label
 _atom_site_symmetry_multiplicity
 _atom_site_fract_x
 _atom_site_fract_y
 _atom_site_fract_z
 _atom_site_occupancy
  Mn  Mn0  1  0.73975523  0.50000000  0.50000000  1
  Mn  Mn1  1  0.76024477  -0.00000000  -0.00000000  1
  Mn  Mn2  1  0.26024477  0.50000000  0.50000000  1
  Mn  Mn3  1  0.23975523  -0.00000000  -0.00000000  1
  Mn  Mn4  1  -0.00000000  0.87360051  0.35274359  1
  Mn  Mn5  1  -0.00000000  0.12639949  0.64725641  1
  Mn  Mn6  1  0.50000000  0.37360051  0.14725641  1
  Mn  Mn7  1  0.50000000  0.62639949  0.85274359  1
  As  As0  1  0.50000000  0.74510839  0.23887860  1
  As  As1  1  0.50000000  0.25489161  0.76112140  1
  As  As2  1  -0.00000000  0.24510839  0.26112140  1
  As  As3  1  -0.00000000  0.75489161  0.73887860  1
  O  O0  1  -0.00000000  0.92971108  0.13177875  1
  O  O1  1  -0.00000000  0.07028892  0.86822125  1
  O  O2  1  0.50000000  0.42971108  0.36822125  1
  O  O3  1  0.50000000  0.57028892  0.63177875  1
  O  O4  1  0.50000000  0.91755711  0.13427062  1
  O  O5  1  0.50000000  0.08244289  0.86572938  1
  O  O6  1  -0.00000000  0.41755711  0.36572938  1
  O  O7  1  -0.00000000  0.58244289  0.63427062  1
  O  O8  1  0.50000000  0.60758554  0.09518716  1
  O  O9  1  0.50000000  0.39241446  0.90481284  1
  O  O10  1  -0.00000000  0.10758554  0.40481284  1
  O  O11  1  -0.00000000  0.89241446  0.59518716  1
  O  O12  1  0.73039688  0.72994337  0.35241152  1
  O  O13  1  0.73039688  0.27005663  0.64758848  1
  O  O14  1  0.76960312  0.22994337  0.14758848  1
  O  O15  1  0.76960312  0.77005663  0.85241152  1
  O  O16  1  0.26960312  0.27005663  0.64758848  1
  O  O17  1  0.26960312  0.72994337  0.35241152  1
  O  O18  1  0.23039688  0.77005663  0.85241152  1
  O  O19  1  0.23039688  0.22994337  0.14758848  1
loop_
_geom_bond_atom_site_label_1
_geom_bond_atom_site_label_2
_geom_bond_distance
_geom_bond_site_symmetry_2
Mn0 O2 1.923230 1_555
Mn0 O3 1.923230 1_555
Mn0 O6 2.063214 1_655
Mn0 O7 2.063214 1_655
Mn0 O12 2.348737 1_555
Mn0 O13 2.348737 1_555
Mn1 O1 1.923230 1_654
Mn1 O0 1.923230 1_645
Mn1 O5 2.063214 1_554
Mn1 O4 2.063214 1_545
Mn1 O15 2.348737 1_544
Mn1 O14 2.348737 1_555
Mn2 O2 1.923230 1_555
Mn2 O3 1.923230 1_555
Mn2 O6 2.063214 1_555
Mn2 O7 2.063214 1_555
Mn2 O17 2.348737 1_555
Mn2 O16 2.348737 1_555
Mn3 O1 1.923230 1_554
Mn3 O0 1.923230 1_545
Mn3 O5 2.063214 1_554
Mn3 O4 2.063214 1_545
Mn3 O18 2.348737 1_544
Mn3 O19 2.348737 1_555
Mn4 O0 1.931709 1_555
Mn4 O12 2.044706 1_455
Mn4 O17 2.044706 1_555
Mn4 O11 2.057971 1_555
Mn4 O10 2.070756 1_565
Mn5 O1 1.931709 1_555
Mn5 O13 2.044706 1_455
Mn5 O16 2.044706 1_555
Mn5 O10 2.057971 1_555
Mn5 O11 2.070756 1_545
Mn6 O2 1.931709 1_555
Mn6 O19 2.044706 1_555
Mn6 O14 2.044706 1_555
Mn6 O9 2.057971 1_554
Mn6 O8 2.070756 1_555
Mn7 O3 1.931709 1_555
Mn7 O15 2.044706 1_555
Mn7 O18 2.044706 1_555
Mn7 O8 2.057971 1_556
Mn7 O9 2.070756 1_555
As0 O17 1.693052 1_555
As0 O12 1.693052 1_555
As0 O8 1.700769 1_555
As0 O4 1.734148 1_555
As1 O16 1.693052 1_555
As1 O13 1.693052 1_555
As1 O9 1.700769 1_555
As1 O5 1.734148 1_555
As2 O19 1.693052 1_555
As2 O14 1.693052 1_455
As2 O10 1.700769 1_555
As2 O6 1.734148 1_555
As3 O18 1.693052 1_555
As3 O15 1.693052 1_455
As3 O11 1.700769 1_555
As3 O7 1.734148 1_555
