# generated using pymatgen
data_Sm2NbInO7
_symmetry_space_group_name_H-M   'P 1'
_cell_length_a   7.53478794
_cell_length_b   7.53478794
_cell_length_c   7.53478794
_cell_angle_alpha   120.96676405
_cell_angle_beta   119.01224802
_cell_angle_gamma   90.02650844
_symmetry_Int_Tables_number   1
_chemical_formula_structural   Sm2NbInO7
_chemical_formula_sum   'Sm4 Nb2 In2 O14'
_cell_volume   302.41898581
_cell_formula_units_Z   2
loop_
 _symmetry_equiv_pos_site_id
 _symmetry_equiv_pos_as_xyz
  1  'x, y, z'
loop_
 _atom_site_type_symbol
 _atom_site_label
 _atom_site_symmetry_multiplicity
 _atom_site_fract_x
 _atom_site_fract_y
 _atom_site_fract_z
 _atom_site_occupancy
  Sm  Sm0  1  0.50000000  0.50000000  0.50000000  1
  Sm  Sm1  1  0.50000000  0.00000000  0.00000000  1
  Sm  Sm2  1  0.50000000  0.50000000  0.00000000  1
  Sm  Sm3  1  0.00000000  0.50000000  0.50000000  1
  Nb  Nb0  1  0.00000000  0.00000000  0.00000000  1
  Nb  Nb1  1  0.50000000  0.00000000  0.50000000  1
  In  In0  1  0.00000000  0.00000000  0.50000000  1
  In  In1  1  0.00000000  0.50000000  0.00000000  1
  O  O0  1  0.37887000  0.62887000  0.75000000  1
  O  O1  1  0.62113000  0.37113000  0.25000000  1
  O  O2  1  0.31195300  0.06195300  0.25000000  1
  O  O3  1  0.89574900  0.64574900  0.25000000  1
  O  O4  1  0.34916300  0.67471900  0.27357800  1
  O  O5  1  0.90114200  0.07558600  0.22642200  1
  O  O6  1  0.34916300  0.07558600  0.67444400  1
  O  O7  1  0.90114200  0.67471900  0.82555600  1
  O  O8  1  0.68804700  0.93804700  0.75000000  1
  O  O9  1  0.10425100  0.35425100  0.75000000  1
  O  O10  1  0.65083700  0.32528100  0.72642200  1
  O  O11  1  0.09885800  0.92441400  0.77357800  1
  O  O12  1  0.65083700  0.92441400  0.32555600  1
  O  O13  1  0.09885800  0.32528100  0.17444400  1
loop_
_geom_bond_atom_site_label_1
_geom_bond_atom_site_label_2
_geom_bond_distance
_geom_bond_site_symmetry_2
Nb0 O11 2.005725 1_544
Nb0 O5 2.005725 1_455
Nb0 O13 2.005731 1_555
Nb0 O7 2.005731 1_444
Nb0 O8 2.022473 1_444
Nb0 O2 2.022473 1_555
Nb1 O6 2.005731 1_555
Nb1 O12 2.005731 1_545
Nb1 O10 2.005732 1_555
Nb1 O4 2.005732 1_545
Nb1 O2 2.022473 1_555
Nb1 O8 2.022473 1_545
In0 O9 2.163008 1_555
In0 O3 2.163008 1_445
In0 O6 2.201701 1_555
In0 O12 2.201701 1_445
In0 O11 2.201708 1_545
In0 O5 2.201708 1_455
In1 O3 2.163008 1_455
In1 O9 2.163008 1_554
In1 O13 2.201701 1_555
In1 O7 2.201701 1_454
In1 O4 2.201702 1_555
In1 O10 2.201702 1_454
O0 Sm1 2.260609 1_566
O0 Sm0 2.260609 1_555
O0 Sm3 2.353642 1_555
O0 Sm2 2.353642 1_556
O1 Sm1 2.260609 1_555
O1 Sm0 2.260609 1_555
O1 Sm2 2.353642 1_555
O1 Sm3 2.353642 1_655
O2 Sm0 2.731015 1_555
O2 Sm1 2.731015 1_555
O3 Sm2 2.462865 1_555
O3 Sm3 2.462865 1_655
O4 Sm0 2.523339 1_555
O4 Sm2 2.599075 1_555
O5 Sm1 2.523345 1_555
O5 Sm3 2.599070 1_655
O6 Sm1 2.523344 1_556
O6 Sm2 2.599069 1_556
O7 Sm0 2.523344 1_555
O7 Sm3 2.599069 1_655
O8 Sm1 2.731015 1_566
O8 Sm0 2.731015 1_555
O9 Sm3 2.462865 1_555
O9 Sm2 2.462865 1_556
O10 Sm0 2.523339 1_555
O10 Sm2 2.599075 1_556
O11 Sm1 2.523345 1_566
O11 Sm3 2.599070 1_555
O12 Sm1 2.523344 1_565
O12 Sm2 2.599069 1_555
O13 Sm0 2.523344 1_555
O13 Sm3 2.599069 1_555
