# generated using pymatgen
data_NaLaTi8(CuO4)6
_symmetry_space_group_name_H-M   'P 1'
_cell_length_a   7.48504100
_cell_length_b   7.48504100
_cell_length_c   7.48504100
_cell_angle_alpha   90.00000000
_cell_angle_beta   90.00000000
_cell_angle_gamma   90.00000000
_symmetry_Int_Tables_number   1
_chemical_formula_structural   NaLaTi8(CuO4)6
_chemical_formula_sum   'Na1 La1 Ti8 Cu6 O24'
_cell_volume   419.35570027
_cell_formula_units_Z   1
loop_
 _symmetry_equiv_pos_site_id
 _symmetry_equiv_pos_as_xyz
  1  'x, y, z'
loop_
 _atom_site_type_symbol
 _atom_site_label
 _atom_site_symmetry_multiplicity
 _atom_site_fract_x
 _atom_site_fract_y
 _atom_site_fract_z
 _atom_site_occupancy
  Na  Na0  1  0.00000000  0.00000000  0.00000000  1
  La  La0  1  0.50000000  0.50000000  0.50000000  1
  Ti  Ti0  1  0.24495100  0.75504900  0.75504900  1
  Ti  Ti1  1  0.75504900  0.24495100  0.24495100  1
  Ti  Ti2  1  0.75504900  0.75504900  0.24495100  1
  Ti  Ti3  1  0.24495100  0.24495100  0.75504900  1
  Ti  Ti4  1  0.24495100  0.75504900  0.24495100  1
  Ti  Ti5  1  0.75504900  0.24495100  0.75504900  1
  Ti  Ti6  1  0.75504900  0.75504900  0.75504900  1
  Ti  Ti7  1  0.24495100  0.24495100  0.24495100  1
  Cu  Cu0  1  0.50000000  0.00000000  0.50000000  1
  Cu  Cu1  1  0.00000000  0.50000000  0.00000000  1
  Cu  Cu2  1  0.00000000  0.00000000  0.50000000  1
  Cu  Cu3  1  0.50000000  0.50000000  0.00000000  1
  Cu  Cu4  1  0.50000000  0.00000000  0.00000000  1
  Cu  Cu5  1  0.00000000  0.50000000  0.50000000  1
  O  O0  1  0.50000000  0.80299000  0.67808400  1
  O  O1  1  0.00000000  0.30656900  0.17806700  1
  O  O2  1  0.00000000  0.30656900  0.82193300  1
  O  O3  1  0.50000000  0.80299000  0.32191600  1
  O  O4  1  0.50000000  0.19701000  0.67808400  1
  O  O5  1  0.00000000  0.69343100  0.17806700  1
  O  O6  1  0.00000000  0.69343100  0.82193300  1
  O  O7  1  0.50000000  0.19701000  0.32191600  1
  O  O8  1  0.67808400  0.50000000  0.80299000  1
  O  O9  1  0.17806700  0.00000000  0.30656900  1
  O  O10  1  0.82193300  0.00000000  0.30656900  1
  O  O11  1  0.32191600  0.50000000  0.80299000  1
  O  O12  1  0.67808400  0.50000000  0.19701000  1
  O  O13  1  0.17806700  0.00000000  0.69343100  1
  O  O14  1  0.82193300  0.00000000  0.69343100  1
  O  O15  1  0.32191600  0.50000000  0.19701000  1
  O  O16  1  0.80299000  0.67808400  0.50000000  1
  O  O17  1  0.30656900  0.17806700  0.00000000  1
  O  O18  1  0.30656900  0.82193300  0.00000000  1
  O  O19  1  0.80299000  0.32191600  0.50000000  1
  O  O20  1  0.19701000  0.67808400  0.50000000  1
  O  O21  1  0.69343100  0.17806700  0.00000000  1
  O  O22  1  0.69343100  0.82193300  0.00000000  1
  O  O23  1  0.19701000  0.32191600  0.50000000  1
loop_
_geom_bond_atom_site_label_1
_geom_bond_atom_site_label_2
_geom_bond_distance
_geom_bond_site_symmetry_2
Na0 O17 2.653681 1_555
Na0 O1 2.653681 1_555
Na0 O21 2.653681 1_455
Na0 O2 2.653681 1_554
Na0 O14 2.653681 1_454
Na0 O10 2.653681 1_455
Na0 O5 2.653681 1_545
Na0 O9 2.653681 1_555
Na0 O13 2.653681 1_554
Na0 O6 2.653681 1_544
Na0 O18 2.653681 1_545
Na0 O22 2.653681 1_445
La0 O0 2.630615 1_555
La0 O3 2.630615 1_555
La0 O20 2.630615 1_555
La0 O23 2.630615 1_555
La0 O11 2.630615 1_555
La0 O4 2.630615 1_555
La0 O15 2.630615 1_555
La0 O12 2.630615 1_555
La0 O8 2.630615 1_555
La0 O7 2.630615 1_555
La0 O19 2.630615 1_555
La0 O16 2.630615 1_555
Cu0 O7 1.987794 1_555
Cu0 O4 1.987794 1_555
Cu0 O3 1.987794 1_545
Cu0 O0 1.987794 1_545
Cu1 O2 1.967917 1_554
Cu1 O1 1.967917 1_555
Cu1 O6 1.967917 1_554
Cu1 O5 1.967917 1_555
Cu2 O14 1.967917 1_455
Cu2 O13 1.967917 1_555
Cu2 O9 1.967917 1_555
Cu2 O10 1.967917 1_455
Cu3 O15 1.987794 1_555
Cu3 O12 1.987794 1_555
Cu3 O11 1.987794 1_554
Cu3 O8 1.987794 1_554
Cu4 O18 1.967917 1_545
Cu4 O17 1.967917 1_555
Cu4 O22 1.967917 1_545
Cu4 O21 1.967917 1_555
Cu5 O20 1.987794 1_555
Cu5 O23 1.987794 1_555
Cu5 O16 1.987794 1_455
Cu5 O19 1.987794 1_455
O0 Ti6 2.026110 1_555
O0 Ti0 2.026110 1_555
O1 Ti1 1.955749 1_455
O1 Ti7 1.955749 1_555
O2 Ti3 1.955749 1_555
O2 Ti5 1.955749 1_455
O3 Ti2 2.026110 1_555
O3 Ti4 2.026110 1_555
O4 Ti5 2.026110 1_555
O4 Ti3 2.026110 1_555
O5 Ti4 1.955749 1_555
O5 Ti2 1.955749 1_455
O6 Ti0 1.955749 1_555
O6 Ti6 1.955749 1_455
O7 Ti1 2.026110 1_555
O7 Ti7 2.026110 1_555
O8 Ti5 2.026110 1_555
O8 Ti6 2.026110 1_555
O9 Ti7 1.955749 1_555
O9 Ti4 1.955749 1_545
O10 Ti1 1.955749 1_555
O10 Ti2 1.955749 1_545
O11 Ti0 2.026110 1_555
O11 Ti3 2.026110 1_555
O12 Ti1 2.026110 1_555
O12 Ti2 2.026110 1_555
O13 Ti3 1.955749 1_555
O13 Ti0 1.955749 1_545
O14 Ti5 1.955749 1_555
O14 Ti6 1.955749 1_545
O15 Ti7 2.026110 1_555
O15 Ti4 2.026110 1_555
O16 Ti6 2.026110 1_555
O16 Ti2 2.026110 1_555
O17 Ti7 1.955749 1_555
O17 Ti3 1.955749 1_554
O18 Ti4 1.955749 1_555
O18 Ti0 1.955749 1_554
O19 Ti1 2.026110 1_555
O19 Ti5 2.026110 1_555
O20 Ti0 2.026110 1_555
O20 Ti4 2.026110 1_555
O21 Ti1 1.955749 1_555
O21 Ti5 1.955749 1_554
O22 Ti2 1.955749 1_555
O22 Ti6 1.955749 1_554
O23 Ti3 2.026110 1_555
O23 Ti7 2.026110 1_555
