# generated using pymatgen
data_K8NbSnAs5
_symmetry_space_group_name_H-M   'P 1'
_cell_length_a   16.61705398
_cell_length_b   16.61705398
_cell_length_c   13.59332875
_cell_angle_alpha   85.06358182
_cell_angle_beta   85.06358182
_cell_angle_gamma   33.28859195
_symmetry_Int_Tables_number   1
_chemical_formula_structural   K8NbSnAs5
_chemical_formula_sum   'K32 Nb4 Sn4 As20'
_cell_volume   2051.79470029
_cell_formula_units_Z   4
loop_
 _symmetry_equiv_pos_site_id
 _symmetry_equiv_pos_as_xyz
  1  'x, y, z'
loop_
 _atom_site_type_symbol
 _atom_site_label
 _atom_site_symmetry_multiplicity
 _atom_site_fract_x
 _atom_site_fract_y
 _atom_site_fract_z
 _atom_site_occupancy
  K  K0  1  0.47961400  0.81542400  0.04267000  1
  K  K1  1  0.18457600  0.52038600  0.45733000  1
  K  K2  1  0.52038600  0.18457600  0.95733000  1
  K  K3  1  0.81542400  0.47961400  0.54267000  1
  K  K4  1  0.27782200  0.19132200  0.94536500  1
  K  K5  1  0.80867800  0.72217800  0.55463500  1
  K  K6  1  0.72217800  0.80867800  0.05463500  1
  K  K7  1  0.19132200  0.27782200  0.44536500  1
  K  K8  1  0.39536200  0.73185600  0.79318900  1
  K  K9  1  0.26814400  0.60463800  0.70681100  1
  K  K10  1  0.60463800  0.26814400  0.20681100  1
  K  K11  1  0.73185600  0.39536200  0.29318900  1
  K  K12  1  0.63564000  0.71536300  0.78337800  1
  K  K13  1  0.28463700  0.36436000  0.71662200  1
  K  K14  1  0.36436000  0.28463700  0.21662200  1
  K  K15  1  0.71536300  0.63564000  0.28337800  1
  K  K16  1  0.01430300  0.06361800  0.87994300  1
  K  K17  1  0.93638200  0.98569700  0.62005700  1
  K  K18  1  0.98569700  0.93638200  0.12005700  1
  K  K19  1  0.06361800  0.01430300  0.37994300  1
  K  K20  1  0.07671700  0.15342400  0.10252200  1
  K  K21  1  0.84657600  0.92328300  0.39747800  1
  K  K22  1  0.92328300  0.84657600  0.89747800  1
  K  K23  1  0.15342400  0.07671700  0.60252200  1
  K  K24  1  0.59347200  0.36592500  0.89517700  1
  K  K25  1  0.63407500  0.40652800  0.60482300  1
  K  K26  1  0.40652800  0.63407500  0.10482300  1
  K  K27  1  0.36592500  0.59347200  0.39517700  1
  K  K28  1  0.93175700  0.62034600  0.83152300  1
  K  K29  1  0.37965400  0.06824300  0.66847700  1
  K  K30  1  0.06824300  0.37965400  0.16847700  1
  K  K31  1  0.62034600  0.93175700  0.33152300  1
  Nb  Nb0  1  0.99625500  0.31654600  0.81943700  1
  Nb  Nb1  1  0.68345400  0.00374500  0.68056300  1
  Nb  Nb2  1  0.00374500  0.68345400  0.18056300  1
  Nb  Nb3  1  0.31654600  0.99625500  0.31943700  1
  Sn  Sn0  1  0.71459000  0.46702700  0.96283000  1
  Sn  Sn1  1  0.53297300  0.28541000  0.53717000  1
  Sn  Sn2  1  0.28541000  0.53297300  0.03717000  1
  Sn  Sn3  1  0.46702700  0.71459000  0.46283000  1
  As  As0  1  0.78744600  0.27391300  0.07657800  1
  As  As1  1  0.72608700  0.21255400  0.42342200  1
  As  As2  1  0.21255400  0.72608700  0.92342200  1
  As  As3  1  0.27391300  0.78744600  0.57657800  1
  As  As4  1  0.87790600  0.47165000  0.97368400  1
  As  As5  1  0.52835000  0.12209400  0.52631600  1
  As  As6  1  0.12209400  0.52835000  0.02631600  1
  As  As7  1  0.47165000  0.87790600  0.47368400  1
  As  As8  1  0.02940000  0.40021900  0.68586400  1
  As  As9  1  0.59978100  0.97060000  0.81413600  1
  As  As10  1  0.97060000  0.59978100  0.31413600  1
  As  As11  1  0.40021900  0.02940000  0.18586400  1
  As  As12  1  0.23562300  0.04649400  0.85207300  1
  As  As13  1  0.95350600  0.76437700  0.64792700  1
  As  As14  1  0.76437700  0.95350600  0.14792700  1
  As  As15  1  0.04649400  0.23562300  0.35207300  1
  As  As16  1  0.79830200  0.38644200  0.76698500  1
  As  As17  1  0.61355800  0.20169800  0.73301500  1
  As  As18  1  0.20169800  0.61355800  0.23301500  1
  As  As19  1  0.38644200  0.79830200  0.26698500  1
loop_
_geom_bond_atom_site_label_1
_geom_bond_atom_site_label_2
_geom_bond_distance
_geom_bond_site_symmetry_2
K0 Sn0 3.535576 1_554
K0 K12 3.760124 1_554
K0 K15 3.991905 1_555
K1 Sn1 3.535576 1_555
K1 K13 3.760124 1_555
K1 K14 3.991905 1_555
K2 Sn2 3.535576 1_556
K3 Sn3 3.535576 1_555
K8 Sn0 3.762200 1_555
K9 Sn1 3.762200 1_555
K10 K14 3.757642 1_555
K10 Sn2 3.762200 1_555
K11 K15 3.757642 1_555
K11 Sn3 3.762200 1_555
K12 K29 3.575557 1_565
K12 Nb0 3.690793 1_555
K12 K8 3.757642 1_555
K12 Sn0 3.803671 1_555
K12 K28 3.810662 1_555
K12 K3 3.991905 1_555
K12 K5 4.110229 1_555
K13 K28 3.575557 1_455
K13 Nb1 3.690793 1_555
K13 K9 3.757642 1_555
K13 Sn1 3.803671 1_555
K13 K29 3.810662 1_555
K13 K2 3.991905 1_555
K13 K4 4.110229 1_555
K14 K31 3.575557 1_545
K14 Nb2 3.690793 1_555
K14 K2 3.760124 1_554
K14 Sn2 3.803671 1_555
K14 K30 3.810662 1_555
K14 K7 4.110229 1_555
K15 K30 3.575557 1_655
K15 Nb3 3.690793 1_555
K15 K3 3.760124 1_555
K15 Sn3 3.803671 1_555
K15 K31 3.810662 1_555
K15 K6 4.110229 1_555
K16 Sn0 3.940659 1_455
K17 Sn1 3.940659 1_565
K18 Sn2 3.940659 1_655
K19 Sn3 3.940659 1_545
K20 Sn0 3.848387 1_454
K21 Sn1 3.848387 1_565
K22 Sn2 3.848387 1_656
K23 Sn3 3.848387 1_545
K24 Sn2 3.619540 1_556
K24 Sn0 3.735792 1_555
K25 Sn3 3.619540 1_555
K25 Sn1 3.735792 1_555
K26 Sn0 3.619540 1_554
K26 Sn2 3.735792 1_555
K27 Sn1 3.619540 1_555
K27 Sn3 3.735792 1_555
Nb0 Sn0 3.414786 1_555
Nb1 Sn1 3.414786 1_555
Nb2 Sn2 3.414786 1_555
Nb3 Sn3 3.414786 1_555
As0 Sn0 2.669694 1_554
As0 K11 3.321730 1_555
As0 K24 3.359670 1_554
As0 K20 3.364376 1_655
As0 K16 3.378853 1_654
As0 K18 3.396184 1_545
As0 K10 3.450087 1_555
As0 K26 3.560242 1_555
As1 Sn1 2.669694 1_555
As1 K10 3.321730 1_555
As1 K25 3.359670 1_555
As1 K21 3.364376 1_545
As1 K17 3.378853 1_545
As1 K19 3.396184 1_655
As1 K11 3.450087 1_555
As1 K27 3.560242 1_555
As2 Sn2 2.669694 1_556
As2 K9 3.321730 1_555
As2 K26 3.359670 1_556
As2 K22 3.364376 1_455
As2 K18 3.378853 1_456
As2 K16 3.396184 1_565
As2 K8 3.450087 1_555
As2 K24 3.560242 1_555
As3 Sn3 2.669694 1_555
As3 K8 3.321730 1_555
As3 K27 3.359670 1_555
As3 K23 3.364376 1_565
As3 K19 3.378853 1_565
As3 K17 3.396184 1_455
As3 K9 3.450087 1_555
As3 K25 3.560242 1_555
As4 Nb0 2.579355 1_555
As4 Sn0 2.794986 1_555
As4 K30 3.465989 1_656
As4 K12 3.468736 1_555
As4 K20 3.484193 1_656
As4 K28 3.635594 1_555
As4 K0 3.736465 1_556
As5 Nb1 2.579355 1_555
As5 Sn1 2.794986 1_555
As5 K31 3.465989 1_545
As5 K13 3.468736 1_555
As5 K21 3.484193 1_545
As5 K29 3.635594 1_555
As5 K1 3.736465 1_555
As6 Nb2 2.579355 1_555
As6 Sn2 2.794986 1_555
As6 K28 3.465989 1_454
As6 K14 3.468736 1_555
As6 K22 3.484193 1_454
As6 K30 3.635594 1_555
As6 K2 3.736465 1_554
As7 Nb3 2.579355 1_555
As7 Sn3 2.794986 1_555
As7 K29 3.465989 1_565
As7 K15 3.468736 1_555
As7 K23 3.484193 1_565
As7 K31 3.635594 1_555
As7 K3 3.736465 1_555
As8 Nb0 2.491391 1_455
As8 K29 3.266827 1_555
As8 K28 3.271717 1_455
As8 K3 3.328453 1_455
As8 K5 3.454718 1_455
As8 K7 3.541932 1_555
As8 K12 3.796078 1_455
As8 K13 3.815172 1_555
As9 Nb1 2.491391 1_565
As9 K28 3.266827 1_555
As9 K29 3.271717 1_565
As9 K2 3.328453 1_565
As9 K4 3.454718 1_565
As9 K6 3.541932 1_556
As9 K13 3.796078 1_565
As9 K12 3.815172 1_555
As10 Nb2 2.491391 1_655
As10 K31 3.266827 1_555
As10 K30 3.271717 1_655
As10 K1 3.328453 1_655
As10 K7 3.454718 1_655
As10 K5 3.541932 1_555
As10 K14 3.796078 1_655
As10 K15 3.815172 1_555
As11 Nb3 2.491391 1_545
As11 K30 3.266827 1_555
As11 K31 3.271717 1_545
As11 K0 3.328453 1_545
As11 K6 3.454718 1_545
As11 K4 3.541932 1_554
As11 K15 3.796078 1_545
As11 K14 3.815172 1_555
As12 Nb0 2.505076 1_455
As12 K4 3.375105 1_555
As12 K16 3.432067 1_555
As12 K0 3.458777 1_546
As12 K8 3.489254 1_545
As12 K29 3.514279 1_555
As12 K23 3.603126 1_555
As12 K20 3.656477 1_556
As12 K12 3.741799 1_545
As13 Nb1 2.505076 1_565
As13 K5 3.375105 1_555
As13 K17 3.432067 1_555
As13 K1 3.458777 1_655
As13 K9 3.489254 1_655
As13 K28 3.514279 1_555
As13 K22 3.603126 1_555
As13 K21 3.656477 1_555
As13 K13 3.741799 1_655
As14 Nb2 2.505076 1_655
As14 K6 3.375105 1_555
As14 K18 3.432067 1_555
As14 K2 3.458777 1_564
As14 K10 3.489254 1_565
As14 K31 3.514279 1_555
As14 K21 3.603126 1_555
As14 K22 3.656477 1_554
As14 K14 3.741799 1_565
As15 Nb3 2.505076 1_545
As15 K7 3.375105 1_555
As15 K19 3.432067 1_555
As15 K3 3.458777 1_455
As15 K11 3.489254 1_455
As15 K30 3.514279 1_555
As15 K20 3.603126 1_555
As15 K23 3.656477 1_555
As15 K15 3.741799 1_455
As16 Nb0 2.559557 1_555
As16 Sn0 2.770814 1_555
As16 K16 3.370189 1_655
As16 K3 3.398563 1_555
As16 K25 3.435633 1_555
As16 K12 3.554787 1_555
As16 K8 3.687006 1_555
As17 Nb1 2.559557 1_555
As17 Sn1 2.770814 1_555
As17 K17 3.370189 1_545
As17 K2 3.398563 1_555
As17 K24 3.435633 1_555
As17 K13 3.554787 1_555
As17 K9 3.687006 1_555
As18 Nb2 2.559557 1_555
As18 Sn2 2.770814 1_555
As18 K18 3.370189 1_455
As18 K1 3.398563 1_555
As18 K27 3.435633 1_555
As18 K14 3.554787 1_555
As18 K10 3.687006 1_555
As19 Nb3 2.559557 1_555
As19 Sn3 2.770814 1_555
As19 K19 3.370189 1_565
As19 K0 3.398563 1_555
As19 K26 3.435633 1_555
As19 K15 3.554787 1_555
As19 K11 3.687006 1_555
