# generated using pymatgen
data_LiCu2(C2O5)2
_symmetry_space_group_name_H-M   'P 1'
_cell_length_a   7.01124697
_cell_length_b   7.01124697
_cell_length_c   9.95802941
_cell_angle_alpha   72.14173597
_cell_angle_beta   72.14173597
_cell_angle_gamma   88.77608662
_symmetry_Int_Tables_number   1
_chemical_formula_structural   LiCu2(C2O5)2
_chemical_formula_sum   'Li2 Cu4 C8 O20'
_cell_volume   442.04819573
_cell_formula_units_Z   2
loop_
 _symmetry_equiv_pos_site_id
 _symmetry_equiv_pos_as_xyz
  1  'x, y, z'
loop_
 _atom_site_type_symbol
 _atom_site_label
 _atom_site_symmetry_multiplicity
 _atom_site_fract_x
 _atom_site_fract_y
 _atom_site_fract_z
 _atom_site_occupancy
  Li  Li0  1  0.96175100  0.63079500  0.13044800  1
  Li  Li1  1  0.63079500  0.96175100  0.63044800  1
  Cu  Cu0  1  0.85369700  0.15826600  0.23677700  1
  Cu  Cu1  1  0.30677000  0.69662400  0.25464800  1
  Cu  Cu2  1  0.69662400  0.30677000  0.75464800  1
  Cu  Cu3  1  0.15826600  0.85369700  0.73677700  1
  C  C0  1  0.58777200  0.25692200  0.05020800  1
  C  C1  1  0.20846900  0.23186300  0.11700300  1
  C  C2  1  0.23186300  0.20846900  0.61700300  1
  C  C3  1  0.74345400  0.41790300  0.45915100  1
  C  C4  1  0.25692200  0.58777200  0.55020800  1
  C  C5  1  0.77345700  0.78655700  0.37981500  1
  C  C6  1  0.78655700  0.77345700  0.87981500  1
  C  C7  1  0.41790300  0.74345400  0.95915100  1
  O  O0  1  0.15986800  0.12667700  0.25136300  1
  O  O1  1  0.59477300  0.20263400  0.17979900  1
  O  O2  1  0.07535200  0.30474900  0.05525700  1
  O  O3  1  0.30474900  0.07535200  0.55525700  1
  O  O4  1  0.68751600  0.26821000  0.57939300  1
  O  O5  1  0.12667700  0.15986800  0.75136300  1
  O  O6  1  0.80788000  0.41220800  0.33020400  1
  O  O7  1  0.27425200  0.40085500  0.52019700  1
  O  O8  1  0.26821000  0.68751600  0.07939300  1
  O  O9  1  0.60017400  0.72267200  0.99108400  1
  O  O10  1  0.40085500  0.27425200  0.02019700  1
  O  O11  1  0.73245500  0.30824200  0.92981100  1
  O  O12  1  0.72267200  0.60017400  0.49108400  1
  O  O13  1  0.20263400  0.59477300  0.67979900  1
  O  O14  1  0.85569200  0.80548300  0.24632400  1
  O  O15  1  0.30824200  0.73245500  0.42981100  1
  O  O16  1  0.72949000  0.93228300  0.43202200  1
  O  O17  1  0.93228300  0.72949000  0.93202200  1
  O  O18  1  0.41220800  0.80788000  0.83020400  1
  O  O19  1  0.80548300  0.85569200  0.74632400  1
loop_
_geom_bond_atom_site_label_1
_geom_bond_atom_site_label_2
_geom_bond_distance
_geom_bond_site_symmetry_2
Li0 O14 1.919933 1_555
Li0 O17 1.957422 1_554
Li0 O8 2.067818 1_655
Li0 O6 2.086659 1_555
Li1 O19 1.919933 1_555
Li1 O16 1.957422 1_555
Li1 O4 2.067818 1_565
Li1 O18 2.086659 1_555
Cu0 O2 1.985942 1_655
Cu0 O16 2.044510 1_545
Cu0 O1 2.052722 1_555
Cu0 O0 2.197591 1_655
Cu0 O6 2.224174 1_555
Cu0 O14 2.445873 1_545
Cu1 O15 1.840009 1_555
Cu1 O8 1.865836 1_555
Cu2 O11 1.840009 1_555
Cu2 O4 1.865836 1_555
Cu3 O3 1.985942 1_565
Cu3 O17 2.044510 1_455
Cu3 O13 2.052722 1_555
Cu3 O5 2.197591 1_565
Cu3 O18 2.224174 1_555
Cu3 O19 2.445873 1_455
C0 O1 1.244747 1_555
C0 O11 1.265299 1_554
C0 O10 1.425720 1_555
C1 O0 1.255413 1_555
C1 O2 1.284198 1_555
C1 O10 1.371479 1_555
C2 O5 1.255413 1_555
C2 O3 1.284198 1_555
C2 O7 1.371479 1_555
C3 O6 1.236678 1_555
C3 O4 1.283685 1_555
C3 O12 1.402984 1_555
C4 O13 1.244747 1_555
C4 O15 1.265299 1_555
C4 O7 1.425720 1_555
C5 O14 1.241815 1_555
C5 O16 1.274068 1_555
C5 O12 1.397141 1_555
C6 O19 1.241815 1_555
C6 O17 1.274068 1_555
C6 O9 1.397141 1_555
C7 O18 1.236678 1_555
C7 O8 1.283685 1_556
C7 O9 1.402984 1_555
