# generated using pymatgen
data_Li8MnFe7(BO3)8
_symmetry_space_group_name_H-M   'P 1'
_cell_length_a   5.99365600
_cell_length_b   8.98614684
_cell_length_c   9.73185536
_cell_angle_alpha   81.21517060
_cell_angle_beta   79.68440142
_cell_angle_gamma   77.20917552
_symmetry_Int_Tables_number   1
_chemical_formula_structural   Li8MnFe7(BO3)8
_chemical_formula_sum   'Li8 Mn1 Fe7 B8 O24'
_cell_volume   499.38226763
_cell_formula_units_Z   1
loop_
 _symmetry_equiv_pos_site_id
 _symmetry_equiv_pos_as_xyz
  1  'x, y, z'
loop_
 _atom_site_type_symbol
 _atom_site_label
 _atom_site_symmetry_multiplicity
 _atom_site_fract_x
 _atom_site_fract_y
 _atom_site_fract_z
 _atom_site_occupancy
  Li  Li0  1  0.97085900  0.96568400  0.70092300  1
  Li  Li1  1  0.72119900  0.46706300  0.95300000  1
  Li  Li2  1  0.77934800  0.53415400  0.54780700  1
  Li  Li3  1  0.47302800  0.96669100  0.20361200  1
  Li  Li4  1  0.52775200  0.03545300  0.79632800  1
  Li  Li5  1  0.22050100  0.46536500  0.45259500  1
  Li  Li6  1  0.28067300  0.53312600  0.04882600  1
  Li  Li7  1  0.02786800  0.03357400  0.29708800  1
  Mn  Mn0  1  0.78855600  0.79281000  0.97856900  1
  Fe  Fe0  1  0.96280900  0.70366200  0.27786500  1
  Fe  Fe1  1  0.71070400  0.21005700  0.52435400  1
  Fe  Fe2  1  0.46293200  0.70523300  0.77455600  1
  Fe  Fe3  1  0.53954700  0.29141800  0.22516500  1
  Fe  Fe4  1  0.28844100  0.79604300  0.47478400  1
  Fe  Fe5  1  0.03925800  0.29197800  0.72536100  1
  Fe  Fe6  1  0.21198400  0.20357500  0.02528700  1
  B  B0  1  0.98208300  0.36595900  0.27719000  1
  B  B1  1  0.73226800  0.86797400  0.52720900  1
  B  B2  1  0.76782200  0.13511400  0.97025000  1
  B  B3  1  0.47968500  0.36777300  0.77791000  1
  B  B4  1  0.51576600  0.63217200  0.22464600  1
  B  B5  1  0.23298500  0.86655900  0.02779000  1
  B  B6  1  0.26972400  0.13336600  0.47242300  1
  B  B7  1  0.01809800  0.63157400  0.72055400  1
  O  O0  1  0.90757800  0.86500200  0.41050000  1
  O  O1  1  0.84122600  0.63420200  0.83530300  1
  O  O2  1  0.88772700  0.25636300  0.93693800  1
  O  O3  1  0.93154000  0.48454600  0.36009400  1
  O  O4  1  0.68414100  0.98655600  0.60954200  1
  O  O5  1  0.81502300  0.01838700  0.88627800  1
  O  O6  1  0.86339300  0.24380900  0.31345400  1
  O  O7  1  0.61279400  0.74655800  0.56218600  1
  O  O8  1  0.65430500  0.36500800  0.66112900  1
  O  O9  1  0.40635500  0.86424700  0.91093700  1
  O  O10  1  0.63465100  0.75424900  0.19156400  1
  O  O11  1  0.43245200  0.48596100  0.86064600  1
  O  O12  1  0.56686600  0.51487800  0.14054000  1
  O  O13  1  0.36041600  0.24647800  0.81378000  1
  O  O14  1  0.59385100  0.13684700  0.08789800  1
  O  O15  1  0.33865500  0.63471500  0.33971300  1
  O  O16  1  0.38860100  0.25502300  0.43600500  1
  O  O17  1  0.13859000  0.75274100  0.68632300  1
  O  O18  1  0.18436900  0.98607300  0.11018100  1
  O  O19  1  0.31722000  0.01449300  0.38982000  1
  O  O20  1  0.06823500  0.51297200  0.63769600  1
  O  O21  1  0.11453700  0.74514400  0.06478700  1
  O  O22  1  0.15759000  0.36361200  0.16152300  1
  O  O23  1  0.09599200  0.13576000  0.58906800  1
loop_
_geom_bond_atom_site_label_1
_geom_bond_atom_site_label_2
_geom_bond_distance
_geom_bond_site_symmetry_2
Li0 O23 1.946852 1_665
Li0 O5 1.952495 1_565
Li0 O17 1.967887 1_655
Li0 O4 2.032958 1_555
Li1 O1 1.934723 1_555
Li1 O2 1.950205 1_555
Li1 O12 1.957096 1_556
Li1 O11 2.052342 1_555
Li2 O8 1.945411 1_555
Li2 O3 1.959562 1_555
Li2 O7 1.961405 1_555
Li2 O20 2.035980 1_655
Li3 O19 1.947964 1_565
Li3 O14 1.950082 1_565
Li3 O10 1.950747 1_555
Li3 O18 2.057185 1_555
Li4 O9 1.954801 1_545
Li4 O13 1.956006 1_555
Li4 O4 1.956363 1_545
Li4 O5 2.033788 1_555
Li5 O15 1.926692 1_555
Li5 O20 1.932512 1_555
Li5 O16 1.950801 1_555
Li5 O3 2.053892 1_455
Li6 O22 1.940354 1_555
Li6 O11 1.957222 1_554
Li6 O21 1.959725 1_555
Li6 O12 2.035927 1_555
Li7 O0 1.928873 1_445
Li7 O6 1.943530 1_455
Li7 O18 1.954346 1_545
Li7 O19 2.057457 1_555
Mn0 O1 2.079688 1_555
Mn0 O5 2.115682 1_565
Mn0 O10 2.122495 1_556
Mn0 O21 2.193555 1_656
Mn0 O9 2.419250 1_555
Fe0 O0 2.020836 1_555
Fe0 O3 2.044725 1_555
Fe0 O21 2.122403 1_655
Fe0 O10 2.204471 1_555
Fe0 O15 2.361030 1_655
Fe1 O8 2.005343 1_555
Fe1 O4 2.081369 1_545
Fe1 O6 2.098122 1_555
Fe1 O16 2.184627 1_555
Fe1 O23 2.425887 1_655
Fe2 O9 2.030253 1_555
Fe2 O11 2.053814 1_555
Fe2 O7 2.112957 1_555
Fe2 O17 2.194781 1_555
Fe2 O1 2.371041 1_555
Fe3 O14 2.007647 1_555
Fe3 O12 2.080736 1_555
Fe3 O16 2.096861 1_555
Fe3 O6 2.192297 1_555
Fe3 O22 2.402688 1_555
Fe4 O15 2.041407 1_555
Fe4 O19 2.042051 1_565
Fe4 O17 2.108096 1_555
Fe4 O7 2.189636 1_555
Fe4 O0 2.398557 1_455
Fe5 O23 2.010327 1_555
Fe5 O20 2.069759 1_555
Fe5 O2 2.103475 1_455
Fe5 O13 2.179480 1_555
Fe5 O8 2.421926 1_455
Fe6 O18 2.032509 1_545
Fe6 O22 2.037714 1_555
Fe6 O13 2.104896 1_554
Fe6 O2 2.192504 1_454
Fe6 O14 2.397815 1_555
B0 O3 1.382187 1_555
B0 O22 1.395510 1_655
B0 O6 1.404631 1_555
B1 O4 1.379356 1_555
B1 O0 1.401513 1_555
B1 O7 1.401524 1_555
B2 O5 1.376857 1_555
B2 O2 1.401467 1_555
B2 O14 1.403238 1_556
B3 O11 1.379437 1_555
B3 O8 1.399554 1_555
B3 O13 1.400121 1_555
B4 O12 1.380404 1_555
B4 O15 1.397399 1_555
B4 O10 1.403879 1_555
B5 O18 1.386369 1_555
B5 O9 1.395660 1_554
B5 O21 1.398384 1_555
B6 O19 1.383482 1_555
B6 O23 1.395552 1_555
B6 O16 1.401619 1_555
B7 O20 1.382139 1_555
B7 O1 1.394433 1_455
B7 O17 1.403315 1_555
