# generated using pymatgen
data_MnGa
_symmetry_space_group_name_H-M   'P 1'
_cell_length_a   5.49480859
_cell_length_b   5.49480859
_cell_length_c   8.23767600
_cell_angle_alpha   90.00000000
_cell_angle_beta   90.00000000
_cell_angle_gamma   120.00000712
_symmetry_Int_Tables_number   1
_chemical_formula_structural   MnGa
_chemical_formula_sum   'Mn8 Ga8'
_cell_volume   215.39739382
_cell_formula_units_Z   8
loop_
 _symmetry_equiv_pos_site_id
 _symmetry_equiv_pos_as_xyz
  1  'x, y, z'
loop_
 _atom_site_type_symbol
 _atom_site_label
 _atom_site_symmetry_multiplicity
 _atom_site_fract_x
 _atom_site_fract_y
 _atom_site_fract_z
 _atom_site_occupancy
  Mn  Mn0_0  1  0.00000000  0.00000000  0.00000000  1
  Mn  Mn0_1  1  0.00000000  0.00000000  0.50000000  1
  Mn  Mn0_2  1  0.00000000  0.50000000  0.00000000  1
  Mn  Mn0_3  1  0.00000000  0.50000000  0.50000000  1
  Mn  Mn0_4  1  0.50000000  0.00000000  0.00000000  1
  Mn  Mn0_5  1  0.50000000  0.00000000  0.50000000  1
  Mn  Mn0_6  1  0.50000000  0.50000000  0.00000000  1
  Mn  Mn0_7  1  0.50000000  0.50000000  0.50000000  1
  Ga  Ga0_0  1  0.16666650  0.33333350  0.25000000  1
  Ga  Ga0_1  1  0.16666650  0.33333350  0.75000000  1
  Ga  Ga0_2  1  0.16666650  0.83333350  0.25000000  1
  Ga  Ga0_3  1  0.16666650  0.83333350  0.75000000  1
  Ga  Ga0_4  1  0.66666650  0.33333350  0.25000000  1
  Ga  Ga0_5  1  0.66666650  0.33333350  0.75000000  1
  Ga  Ga0_6  1  0.66666650  0.83333350  0.25000000  1
  Ga  Ga0_7  1  0.66666650  0.83333350  0.75000000  1
loop_
_geom_bond_atom_site_label_1
_geom_bond_atom_site_label_2
_geom_bond_distance
_geom_bond_site_symmetry_2
Mn0_0 Mn0_6 2.747404 1_555
Mn0_0 Mn0_6 2.747404 1_445
Mn0_0 Mn0_4 2.747404 1_455
Mn0_0 Mn0_4 2.747404 1_555
Mn0_0 Mn0_2 2.747404 1_555
Mn0_0 Mn0_2 2.747404 1_545
Mn0_1 Mn0_7 2.747404 1_555
Mn0_1 Mn0_7 2.747404 1_445
Mn0_1 Mn0_3 2.747404 1_545
Mn0_1 Mn0_5 2.747404 1_455
Mn0_1 Mn0_3 2.747404 1_555
Mn0_1 Mn0_5 2.747404 1_555
Mn0_2 Mn0_4 2.747404 1_565
Mn0_2 Mn0_4 2.747404 1_455
Mn0_2 Mn0_6 2.747404 1_555
Mn0_2 Mn0_6 2.747404 1_455
Mn0_3 Mn0_5 2.747404 1_455
Mn0_3 Mn0_5 2.747404 1_565
Mn0_3 Mn0_7 2.747404 1_555
Mn0_3 Mn0_7 2.747404 1_455
Mn0_4 Mn0_6 2.747404 1_545
Mn0_4 Mn0_6 2.747404 1_555
Mn0_5 Mn0_7 2.747404 1_555
Mn0_5 Mn0_7 2.747404 1_545
Ga0_0 Mn0_3 2.599477 1_555
Ga0_0 Mn0_2 2.599477 1_555
Ga0_0 Mn0_7 2.599478 1_555
Ga0_0 Mn0_1 2.599478 1_555
Ga0_0 Mn0_6 2.599478 1_555
Ga0_0 Mn0_0 2.599478 1_555
Ga0_0 Ga0_6 2.747404 1_445
Ga0_0 Ga0_6 2.747404 1_555
Ga0_0 Ga0_4 2.747404 1_555
Ga0_0 Ga0_2 2.747404 1_555
Ga0_0 Ga0_4 2.747404 1_455
Ga0_0 Ga0_2 2.747404 1_545
Ga0_1 Mn0_3 2.599477 1_555
Ga0_1 Mn0_2 2.599477 1_556
Ga0_1 Mn0_7 2.599478 1_555
Ga0_1 Mn0_1 2.599478 1_555
Ga0_1 Mn0_6 2.599478 1_556
Ga0_1 Mn0_0 2.599478 1_556
Ga0_1 Ga0_7 2.747404 1_445
Ga0_1 Ga0_7 2.747404 1_555
Ga0_1 Ga0_3 2.747404 1_555
Ga0_1 Ga0_5 2.747404 1_555
Ga0_1 Ga0_5 2.747404 1_455
Ga0_1 Ga0_3 2.747404 1_545
Ga0_2 Mn0_1 2.599477 1_565
Ga0_2 Mn0_0 2.599477 1_565
Ga0_2 Mn0_3 2.599478 1_555
Ga0_2 Mn0_2 2.599478 1_555
Ga0_2 Mn0_4 2.599478 1_565
Ga0_2 Mn0_5 2.599478 1_565
Ga0_2 Ga0_4 2.747404 1_565
Ga0_2 Ga0_4 2.747404 1_455
Ga0_2 Ga0_6 2.747404 1_455
Ga0_2 Ga0_6 2.747404 1_555
Ga0_3 Mn0_1 2.599477 1_565
Ga0_3 Mn0_0 2.599477 1_566
Ga0_3 Mn0_2 2.599478 1_556
Ga0_3 Mn0_3 2.599478 1_555
Ga0_3 Mn0_4 2.599478 1_566
Ga0_3 Mn0_5 2.599478 1_565
Ga0_3 Ga0_5 2.747404 1_565
Ga0_3 Ga0_5 2.747404 1_455
Ga0_3 Ga0_7 2.747404 1_455
Ga0_3 Ga0_7 2.747404 1_555
Ga0_4 Mn0_6 2.599477 1_555
Ga0_4 Mn0_7 2.599477 1_555
Ga0_4 Mn0_3 2.599478 1_655
Ga0_4 Mn0_5 2.599478 1_555
Ga0_4 Mn0_2 2.599478 1_655
Ga0_4 Mn0_4 2.599478 1_555
Ga0_4 Ga0_6 2.747404 1_555
Ga0_4 Ga0_6 2.747404 1_545
Ga0_5 Mn0_6 2.599477 1_556
Ga0_5 Mn0_7 2.599477 1_555
Ga0_5 Mn0_3 2.599478 1_655
Ga0_5 Mn0_5 2.599478 1_555
Ga0_5 Mn0_2 2.599478 1_656
Ga0_5 Mn0_4 2.599478 1_556
Ga0_5 Ga0_7 2.747404 1_555
Ga0_5 Ga0_7 2.747404 1_545
Ga0_6 Mn0_4 2.599477 1_565
Ga0_6 Mn0_5 2.599477 1_565
Ga0_6 Mn0_1 2.599478 1_665
Ga0_6 Mn0_6 2.599478 1_555
Ga0_6 Mn0_7 2.599478 1_555
Ga0_6 Mn0_0 2.599478 1_665
Ga0_7 Mn0_4 2.599477 1_566
Ga0_7 Mn0_5 2.599477 1_565
Ga0_7 Mn0_1 2.599478 1_665
Ga0_7 Mn0_6 2.599478 1_556
Ga0_7 Mn0_7 2.599478 1_555
Ga0_7 Mn0_0 2.599478 1_666
