# generated using pymatgen
data_Li6NbNi3(PO4)6
_symmetry_space_group_name_H-M   'P 1'
_cell_length_a   8.73023700
_cell_length_b   8.78289375
_cell_length_c   8.79045406
_cell_angle_alpha   60.54599739
_cell_angle_beta   60.37841812
_cell_angle_gamma   60.67343367
_symmetry_Int_Tables_number   1
_chemical_formula_structural   Li6NbNi3(PO4)6
_chemical_formula_sum   'Li6 Nb1 Ni3 P6 O24'
_cell_volume   482.33590880
_cell_formula_units_Z   1
loop_
 _symmetry_equiv_pos_site_id
 _symmetry_equiv_pos_as_xyz
  1  'x, y, z'
loop_
 _atom_site_type_symbol
 _atom_site_label
 _atom_site_symmetry_multiplicity
 _atom_site_fract_x
 _atom_site_fract_y
 _atom_site_fract_z
 _atom_site_occupancy
  Li  Li0  1  0.03284100  0.02396300  0.01226500  1
  Li  Li1  1  0.74179600  0.15977400  0.35040600  1
  Li  Li2  1  0.47163400  0.49677600  0.48378400  1
  Li  Li3  1  0.31143900  0.83772600  0.64419500  1
  Li  Li4  1  0.64676600  0.31474900  0.83237500  1
  Li  Li5  1  0.83524100  0.64514000  0.31311500  1
  Nb  Nb0  1  0.85242500  0.85180100  0.85375400  1
  Ni  Ni0  1  0.14440600  0.14778200  0.14298200  1
  Ni  Ni1  1  0.35595600  0.35918600  0.35361000  1
  Ni  Ni2  1  0.64815700  0.65053700  0.64968900  1
  P  P0  1  0.04783900  0.75033900  0.44213800  1
  P  P1  1  0.44447700  0.04762400  0.74720900  1
  P  P2  1  0.74916200  0.44478400  0.04403500  1
  P  P3  1  0.25191500  0.53749400  0.95883100  1
  P  P4  1  0.53999600  0.96283400  0.25383200  1
  P  P5  1  0.95664400  0.25105800  0.53278200  1
  O  O0  1  0.13329300  0.26715300  0.50726900  1
  O  O1  1  0.27560400  0.52047300  0.12634600  1
  O  O2  1  0.05197900  0.92209800  0.26640600  1
  O  O3  1  0.54457400  0.12153500  0.27815000  1
  O  O4  1  0.23298800  0.59394800  0.44003500  1
  O  O5  1  0.98469200  0.81274600  0.61275300  1
  O  O6  1  0.26122600  0.07972400  0.90394800  1
  O  O7  1  0.47186900  0.22106600  0.57619400  1
  O  O8  1  0.59349200  0.44199800  0.23337500  1
  O  O9  1  0.19808600  0.38272700  0.98677200  1
  O  O10  1  0.09815300  0.73519600  0.90521800  1
  O  O11  1  0.37721300  0.00548400  0.20464600  1
  O  O12  1  0.61281200  0.97940900  0.81684500  1
  O  O13  1  0.90584000  0.25780500  0.07323100  1
  O  O14  1  0.81703700  0.61007200  0.98313300  1
  O  O15  1  0.42272100  0.55077300  0.77556200  1
  O  O16  1  0.55020700  0.77918100  0.42319300  1
  O  O17  1  0.73570700  0.90342500  0.09698200  1
  O  O18  1  0.96619000  0.20131300  0.38339500  1
  O  O19  1  0.77755700  0.42419400  0.55119900  1
  O  O20  1  0.46962100  0.88960200  0.69788100  1
  O  O21  1  0.90462700  0.09737700  0.73243600  1
  O  O22  1  0.69357900  0.47455500  0.88947700  1
  O  O23  1  0.89023900  0.69557900  0.47155200  1
loop_
_geom_bond_atom_site_label_1
_geom_bond_atom_site_label_2
_geom_bond_distance
_geom_bond_site_symmetry_2
Li0 O6 1.934720 1_554
Li0 O13 1.999773 1_455
Li0 O2 2.018935 1_545
Li1 O13 2.103385 1_555
Li1 O8 2.131657 1_555
Li1 O7 2.228651 1_555
Li1 O3 2.310439 1_555
Li1 O18 2.328232 1_555
Li1 O2 2.497556 1_645
Li2 O4 1.986066 1_555
Li2 O8 2.105652 1_555
Li2 O7 2.141485 1_555
Li2 O15 2.626966 1_555
Li2 O16 2.629173 1_555
Li3 O20 1.951773 1_555
Li3 O16 2.076763 1_555
Li3 O15 2.116013 1_555
Li3 O10 2.220334 1_555
Li4 O22 1.961253 1_555
Li4 O19 2.070176 1_555
Li4 O15 2.085209 1_555
Li4 O21 2.229092 1_555
Li5 O23 1.960274 1_555
Li5 O19 2.078639 1_555
Li5 O16 2.093998 1_555
Li5 O17 2.230078 1_555
Nb0 O12 1.937533 1_555
Nb0 O14 1.953697 1_555
Nb0 O5 1.961511 1_555
Nb0 O17 2.040200 1_556
Nb0 O10 2.051156 1_655
Nb0 O21 2.053633 1_565
Ni0 O9 1.971734 1_554
Ni0 O11 1.980219 1_555
Ni0 O18 2.029330 1_455
Ni0 O6 2.081389 1_554
Ni0 O2 2.084119 1_545
Ni0 O13 2.087038 1_455
Ni1 O1 2.029432 1_555
Ni1 O0 2.031366 1_555
Ni1 O3 2.103149 1_555
Ni1 O8 2.121633 1_555
Ni1 O4 2.132375 1_555
Ni1 O7 2.178185 1_555
Ni2 O22 2.002770 1_555
Ni2 O23 2.003354 1_555
Ni2 O20 2.008419 1_555
Ni2 O15 2.109168 1_555
Ni2 O16 2.120424 1_555
Ni2 O19 2.122164 1_555
O0 P5 1.512975 1_455
O1 P3 1.512528 1_554
O2 P0 1.539397 1_555
O3 P4 1.531720 1_545
O4 P0 1.523258 1_555
O5 P0 1.596500 1_655
O6 P1 1.516074 1_555
O7 P1 1.544981 1_555
O8 P2 1.540858 1_555
O9 P3 1.520584 1_555
O10 P3 1.605138 1_555
O11 P4 1.507827 1_545
O12 P1 1.599847 1_565
O13 P2 1.538133 1_555
O14 P2 1.584278 1_556
O15 P3 1.563135 1_555
O16 P4 1.566795 1_555
O17 P4 1.611844 1_555
O18 P5 1.530575 1_555
O19 P5 1.563960 1_555
O20 P1 1.536805 1_565
O21 P5 1.609707 1_555
O22 P2 1.525711 1_556
O23 P0 1.538010 1_655
