# generated using pymatgen
data_K2VO6
_symmetry_space_group_name_H-M   'P 1'
_cell_length_a   10.26821000
_cell_length_b   6.65515300
_cell_length_c   17.27619222
_cell_angle_alpha   88.49038887
_cell_angle_beta   90.00000000
_cell_angle_gamma   90.00000000
_symmetry_Int_Tables_number   1
_chemical_formula_structural   K2VO6
_chemical_formula_sum   'K16 V8 O48'
_cell_volume   1180.18489724
_cell_formula_units_Z   8
loop_
 _symmetry_equiv_pos_site_id
 _symmetry_equiv_pos_as_xyz
  1  'x, y, z'
loop_
 _atom_site_type_symbol
 _atom_site_label
 _atom_site_symmetry_multiplicity
 _atom_site_fract_x
 _atom_site_fract_y
 _atom_site_fract_z
 _atom_site_occupancy
  K  K0  1  0.42739900  0.78016800  0.48414600  1
  K  K1  1  0.92739900  0.21983200  0.01585400  1
  K  K2  1  0.57260100  0.21983200  0.51585400  1
  K  K3  1  0.07260100  0.78016800  0.98414600  1
  K  K4  1  0.19849300  0.78460800  0.63854000  1
  K  K5  1  0.69849300  0.21539200  0.86146000  1
  K  K6  1  0.80150700  0.21539200  0.36146000  1
  K  K7  1  0.30150700  0.78460800  0.13854000  1
  K  K8  1  0.93103000  0.69461200  0.79242200  1
  K  K9  1  0.43103000  0.30538800  0.70757800  1
  K  K10  1  0.06897000  0.30538800  0.20757800  1
  K  K11  1  0.56897000  0.69461200  0.29242200  1
  K  K12  1  0.91883200  0.22797900  0.63230500  1
  K  K13  1  0.41883200  0.77202100  0.86769500  1
  K  K14  1  0.08116800  0.77202100  0.36769500  1
  K  K15  1  0.58116800  0.22797900  0.13230500  1
  V  V0  1  0.80137400  0.74234200  0.54159200  1
  V  V1  1  0.30137400  0.25765800  0.95840800  1
  V  V2  1  0.19862600  0.25765800  0.45840800  1
  V  V3  1  0.69862600  0.74234200  0.04159200  1
  V  V4  1  0.62108500  0.75144000  0.68331600  1
  V  V5  1  0.12108500  0.24856000  0.81668400  1
  V  V6  1  0.37891500  0.24856000  0.31668400  1
  V  V7  1  0.87891500  0.75144000  0.18331600  1
  O  O0  1  0.68822000  0.58040600  0.47530500  1
  O  O1  1  0.18822000  0.41959400  0.02469500  1
  O  O2  1  0.31178000  0.41959400  0.52469500  1
  O  O3  1  0.81178000  0.58040600  0.97530500  1
  O  O4  1  0.81366900  0.48957500  0.48640600  1
  O  O5  1  0.31366900  0.51042500  0.01359400  1
  O  O6  1  0.18633100  0.51042500  0.51359400  1
  O  O7  1  0.68633100  0.48957500  0.98640600  1
  O  O8  1  0.87433000  0.80745100  0.64303000  1
  O  O9  1  0.37433000  0.19254900  0.85697000  1
  O  O10  1  0.12567000  0.19254900  0.35697000  1
  O  O11  1  0.62567000  0.80745100  0.14303000  1
  O  O12  1  0.94561200  0.64764300  0.60537800  1
  O  O13  1  0.44561200  0.35235700  0.89462200  1
  O  O14  1  0.05438800  0.35235700  0.39462200  1
  O  O15  1  0.55438800  0.64764300  0.10537800  1
  O  O16  1  0.65906200  0.02261200  0.71786300  1
  O  O17  1  0.15906200  0.97738800  0.78213700  1
  O  O18  1  0.34093800  0.97738800  0.28213700  1
  O  O19  1  0.84093800  0.02261200  0.21786300  1
  O  O20  1  0.66900900  0.87466900  0.78010100  1
  O  O21  1  0.16900900  0.12533100  0.71989900  1
  O  O22  1  0.33099100  0.12533100  0.21989900  1
  O  O23  1  0.83099100  0.87466900  0.28010100  1
  O  O24  1  0.67431700  0.49087300  0.64351000  1
  O  O25  1  0.17431700  0.50912700  0.85649000  1
  O  O26  1  0.32568300  0.50912700  0.35649000  1
  O  O27  1  0.82568300  0.49087300  0.14351000  1
  O  O28  1  0.69144900  0.50658400  0.72736300  1
  O  O29  1  0.19144900  0.49341600  0.77263700  1
  O  O30  1  0.30855100  0.49341600  0.27263700  1
  O  O31  1  0.80855100  0.50658400  0.22736300  1
  O  O32  1  0.86413700  0.91455700  0.48169700  1
  O  O33  1  0.36413700  0.08544300  0.01830300  1
  O  O34  1  0.13586300  0.08544300  0.51830300  1
  O  O35  1  0.63586300  0.91455700  0.98169700  1
  O  O36  1  0.64642800  0.85556700  0.58055800  1
  O  O37  1  0.14642800  0.14443300  0.91944200  1
  O  O38  1  0.35357200  0.14443300  0.41944200  1
  O  O39  1  0.85357200  0.85556700  0.08055800  1
  O  O40  1  0.46057900  0.72361500  0.69468700  1
  O  O41  1  0.96057900  0.27638500  0.80531300  1
  O  O42  1  0.53942100  0.27638500  0.30531300  1
  O  O43  1  0.03942100  0.72361500  0.19468700  1
  O  O44  1  0.61531300  0.95356000  0.40228600  1
  O  O45  1  0.11531300  0.04644000  0.09771400  1
  O  O46  1  0.38468700  0.04644000  0.59771400  1
  O  O47  1  0.88468700  0.95356000  0.90228600  1
loop_
_geom_bond_atom_site_label_1
_geom_bond_atom_site_label_2
_geom_bond_distance
_geom_bond_site_symmetry_2
K0 O44 2.639846 1_555
K0 O46 2.713917 1_565
K0 O38 2.749252 1_565
K0 O2 2.751374 1_555
K0 O36 2.851022 1_555
K0 O0 2.995667 1_555
K0 O26 3.068886 1_555
K0 O6 3.092034 1_555
K1 O45 2.639846 1_655
K1 O47 2.713917 1_544
K1 O39 2.749252 1_545
K1 O3 2.751374 1_554
K1 O37 2.851022 1_654
K1 O1 2.995667 1_655
K1 O27 3.068886 1_555
K1 O7 3.092034 1_554
K2 O46 2.639846 1_555
K2 O44 2.713917 1_545
K2 O36 2.749252 1_545
K2 O0 2.751374 1_555
K2 O38 2.851022 1_555
K2 O2 2.995667 1_555
K2 O24 3.068886 1_555
K2 O4 3.092034 1_555
K3 O47 2.639846 1_455
K3 O45 2.713917 1_566
K3 O37 2.749252 1_565
K3 O1 2.751374 1_556
K3 O39 2.851022 1_456
K3 O3 2.995667 1_455
K3 O25 3.068886 1_555
K3 O5 3.092034 1_556
K4 O46 2.669160 1_565
K4 O21 2.716077 1_565
K4 O12 2.815872 1_455
K4 O17 2.851681 1_555
K4 O6 2.865708 1_555
K4 O40 2.885697 1_555
K4 O34 2.918524 1_565
K4 O29 2.981824 1_555
K5 O47 2.669160 1_545
K5 O20 2.716077 1_545
K5 O13 2.815872 1_555
K5 O16 2.851681 1_555
K5 O7 2.865708 1_555
K5 O41 2.885697 1_555
K5 O35 2.918524 1_545
K5 O28 2.981824 1_555
K6 O44 2.669160 1_545
K6 O23 2.716077 1_545
K6 O14 2.815872 1_655
K6 O19 2.851681 1_555
K6 O4 2.865708 1_555
K6 O42 2.885697 1_555
K6 O32 2.918524 1_545
K6 O31 2.981824 1_555
K7 O45 2.669160 1_565
K7 O22 2.716077 1_565
K7 O15 2.815872 1_555
K7 O18 2.851681 1_555
K7 O5 2.865708 1_555
K7 O43 2.885697 1_555
K7 O33 2.918524 1_565
K7 O30 2.981824 1_555
K8 O47 2.640304 1_555
K8 O8 2.731659 1_555
K8 O41 2.802877 1_555
K8 O20 2.950683 1_555
K8 O25 2.986229 1_655
K8 O28 2.992531 1_555
K8 O17 3.006343 1_655
K8 O29 3.014020 1_655
K9 O46 2.640304 1_555
K9 O9 2.731659 1_555
K9 O40 2.802877 1_555
K9 O21 2.950683 1_555
K9 O24 2.986229 1_555
K9 O29 2.992531 1_555
K9 O16 3.006343 1_555
K9 O28 3.014020 1_555
K10 O45 2.640304 1_555
K10 O10 2.731659 1_555
K10 O43 2.802877 1_555
K10 O22 2.950683 1_555
K10 O27 2.986229 1_455
K10 O30 2.992531 1_555
K10 O19 3.006343 1_455
K10 O31 3.014020 1_455
K11 O44 2.640304 1_555
K11 O11 2.731659 1_555
K11 O42 2.802877 1_555
K11 O23 2.950683 1_555
K11 O26 2.986229 1_555
K11 O31 2.992531 1_555
K11 O18 3.006343 1_555
K11 O30 3.014020 1_555
K12 O12 2.832669 1_555
K12 O8 2.836973 1_545
K12 O41 3.044981 1_555
K12 O21 3.049812 1_655
K12 O24 3.069233 1_555
K12 O34 3.137450 1_655
K12 O4 3.212335 1_555
K12 O16 3.325848 1_555
K13 O13 2.832669 1_555
K13 O9 2.836973 1_565
K13 O40 3.044981 1_555
K13 O20 3.049812 1_555
K13 O25 3.069233 1_555
K13 O35 3.137450 1_555
K13 O5 3.212335 1_556
K13 O17 3.325848 1_555
K14 O14 2.832669 1_555
K14 O10 2.836973 1_565
K14 O43 3.044981 1_555
K14 O23 3.049812 1_455
K14 O26 3.069233 1_555
K14 O32 3.137450 1_455
K14 O6 3.212335 1_555
K14 O18 3.325848 1_555
K15 O15 2.832669 1_555
K15 O11 2.836973 1_545
K15 O42 3.044981 1_555
K15 O22 3.049812 1_555
K15 O27 3.069233 1_555
K15 O33 3.137450 1_555
K15 O7 3.212335 1_554
K15 O19 3.325848 1_555
O0 O4 1.433660 1_555
O0 V0 1.971782 1_555
O1 O5 1.433660 1_555
O1 V1 1.971782 1_554
O2 O6 1.433660 1_555
O2 V2 1.971782 1_555
O3 O7 1.433660 1_555
O3 V3 1.971782 1_556
O4 V0 1.959395 1_555
O5 V1 1.959395 1_554
O6 V2 1.959395 1_555
O7 V3 1.959395 1_556
O8 V0 1.964710 1_555
O8 V4 2.715073 1_555
O9 V1 1.964710 1_555
O9 V5 2.715073 1_555
O10 O14 1.458234 1_555
O10 V2 1.964710 1_555
O10 V6 2.715073 1_555
O11 O15 1.458234 1_555
O11 V3 1.964710 1_555
O11 V7 2.715073 1_555
O12 O8 1.458234 1_555
O12 V0 1.941268 1_555
O13 O9 1.458234 1_555
O13 V1 1.941268 1_555
O14 V2 1.941268 1_555
O15 V3 1.941268 1_555
O16 O20 1.442286 1_545
O16 V4 1.954980 1_545
O17 O21 1.442286 1_565
O17 V5 1.954980 1_565
O18 O22 1.442286 1_565
O18 V6 1.954980 1_565
O19 O23 1.442286 1_545
O19 V7 1.954980 1_545
O20 V4 1.944948 1_555
O21 V5 1.944948 1_555
O22 V6 1.944948 1_555
O23 V7 1.944948 1_555
O24 O28 1.465768 1_555
O24 V4 1.960020 1_555
O24 V0 2.729088 1_555
O25 O29 1.465768 1_555
O25 V5 1.960020 1_555
O25 V1 2.729088 1_555
O26 O30 1.465768 1_555
O26 V6 1.960020 1_555
O26 V2 2.729088 1_555
O27 O31 1.465768 1_555
O27 V7 1.960020 1_555
O27 V3 2.729088 1_555
O28 V4 1.921250 1_555
O29 V5 1.921250 1_555
O30 V6 1.921250 1_555
O31 V7 1.921250 1_555
O32 V0 1.654435 1_555
O33 V1 1.654435 1_554
O34 V2 1.654435 1_555
O35 V3 1.654435 1_556
O36 V0 1.891838 1_555
O36 V4 1.906487 1_555
O37 V1 1.891838 1_555
O37 V5 1.906487 1_555
O38 V2 1.891838 1_555
O38 V6 1.906487 1_555
O39 V3 1.891838 1_555
O39 V7 1.906487 1_555
O40 V4 1.669500 1_555
O41 V5 1.669500 1_655
O42 V6 1.669500 1_555
O43 V7 1.669500 1_455
