# generated using pymatgen
data_MgSi2
_symmetry_space_group_name_H-M   'P 1'
_cell_length_a   3.87427200
_cell_length_b   5.41867424
_cell_length_c   11.58791413
_cell_angle_alpha   77.41286819
_cell_angle_beta   81.14690942
_cell_angle_gamma   69.43224989
_symmetry_Int_Tables_number   1
_chemical_formula_structural   MgSi2
_chemical_formula_sum   'Mg4 Si8'
_cell_volume   221.49145897
_cell_formula_units_Z   4
loop_
 _symmetry_equiv_pos_site_id
 _symmetry_equiv_pos_as_xyz
  1  'x, y, z'
loop_
 _atom_site_type_symbol
 _atom_site_label
 _atom_site_symmetry_multiplicity
 _atom_site_fract_x
 _atom_site_fract_y
 _atom_site_fract_z
 _atom_site_occupancy
  Mg  Mg0  1  0.14946700  0.70617900  0.10925200  1
  Mg  Mg1  1  0.39550800  0.43165000  0.86551700  1
  Mg  Mg2  1  0.59427400  0.26157700  0.62954700  1
  Mg  Mg3  1  0.20474100  0.26652300  0.38196600  1
  Si  Si0  1  0.70062900  0.78043000  0.90656700  1
  Si  Si1  1  0.41072500  0.13385100  0.15766100  1
  Si  Si2  1  0.93850500  0.85904800  0.32150600  1
  Si  Si3  1  0.29933300  0.87312600  0.60049000  1
  Si  Si4  1  0.88076700  0.30754200  0.03374100  1
  Si  Si5  1  0.08446300  0.06003800  0.85979100  1
  Si  Si6  1  0.85525600  0.66030500  0.70367300  1
  Si  Si7  1  0.48600400  0.65982100  0.43007000  1
loop_
_geom_bond_atom_site_label_1
_geom_bond_atom_site_label_2
_geom_bond_distance
_geom_bond_site_symmetry_2
Mg0 Si2 2.682767 1_455
Mg0 Si1 2.857962 1_555
Mg0 Si0 2.980948 1_554
Mg0 Si0 3.009281 1_454
Mg0 Si1 3.016470 1_565
Mg0 Si4 3.020252 1_465
Mg0 Si4 3.033068 1_455
Mg0 Si4 3.036366 1_555
Mg0 Si1 3.047745 1_465
Mg0 Si5 3.092785 1_564
Mg1 Si5 2.701704 1_555
Mg1 Si0 2.707430 1_555
Mg1 Si4 2.720966 1_456
Mg1 Si5 2.722316 1_655
Mg1 Si4 2.730404 1_556
Mg1 Si0 2.732850 1_455
Mg1 Si6 2.781129 1_555
Mg1 Si6 2.794051 1_455
Mg1 Si5 3.177084 1_565
Mg2 Si7 2.768431 1_555
Mg2 Si3 2.822581 1_545
Mg2 Si3 2.826909 1_645
Mg2 Si6 3.006565 1_555
Mg2 Si6 3.017990 1_545
Mg2 Si6 3.051056 1_455
Mg2 Si3 3.061340 1_555
Mg2 Si5 3.278754 1_655
Mg2 Si5 3.291792 1_555
Mg3 Si1 2.771736 1_555
Mg3 Si7 2.894203 1_555
Mg3 Si3 2.911132 1_545
Mg3 Si7 2.911490 1_455
Mg3 Si2 2.962848 1_455
Mg3 Si2 2.987775 1_445
Mg3 Si2 3.016356 1_545
Mg3 Si7 3.029374 1_545
Si0 Si5 2.403702 1_665
Si0 Si5 2.405636 1_565
Si0 Si6 2.503963 1_555
Si0 Si4 2.576631 1_556
Si1 Si4 2.464638 1_555
Si1 Si4 2.474702 1_455
Si1 Si2 2.797593 1_545
Si2 Si7 2.422370 1_655
Si2 Si7 2.424966 1_555
Si3 Si7 2.393066 1_555
Si3 Si6 2.417620 1_555
Si3 Si6 2.424760 1_455
Si4 Si5 2.535653 1_654
