# generated using pymatgen
data_ReC2
_symmetry_space_group_name_H-M   'P 1'
_cell_length_a   3.90072352
_cell_length_b   3.90072352
_cell_length_c   3.90072352
_cell_angle_alpha   138.23488113
_cell_angle_beta   138.23488113
_cell_angle_gamma   60.54345709
_symmetry_Int_Tables_number   1
_chemical_formula_structural   ReC2
_chemical_formula_sum   'Re1 C2'
_cell_volume   26.05172611
_cell_formula_units_Z   1
loop_
 _symmetry_equiv_pos_site_id
 _symmetry_equiv_pos_as_xyz
  1  'x, y, z'
loop_
 _atom_site_type_symbol
 _atom_site_label
 _atom_site_symmetry_multiplicity
 _atom_site_fract_x
 _atom_site_fract_y
 _atom_site_fract_z
 _atom_site_occupancy
  Re  Re0  1  0.00000000  0.00000000  0.00000000  1
  C  C0  1  0.66652900  0.66652900  0.00000000  1
  C  C1  1  0.33347100  0.33347100  0.00000000  1
loop_
_geom_bond_atom_site_label_1
_geom_bond_atom_site_label_2
_geom_bond_distance
_geom_bond_site_symmetry_2
C0 Re0 2.246820 1_665
C0 Re0 2.263957 1_655
C0 Re0 2.263957 1_666
C0 Re0 2.263957 1_554
C0 Re0 2.263957 1_565
C1 Re0 2.246820 1_555
C1 Re0 2.263957 1_554
C1 Re0 2.263957 1_565
C1 Re0 2.263957 1_655
C1 Re0 2.263957 1_666
