# generated using pymatgen
data_HfO2
_symmetry_space_group_name_H-M   'P 1'
_cell_length_a   10.99487724
_cell_length_b   10.86933980
_cell_length_c   11.13548015
_cell_angle_alpha   92.29869497
_cell_angle_beta   90.80401809
_cell_angle_gamma   93.76473825
_symmetry_Int_Tables_number   1
_chemical_formula_structural   HfO2
_chemical_formula_sum   'Hf34 O68'
_cell_volume   1326.64282961
_cell_formula_units_Z   34
loop_
 _symmetry_equiv_pos_site_id
 _symmetry_equiv_pos_as_xyz
  1  'x, y, z'
loop_
 _atom_site_type_symbol
 _atom_site_label
 _atom_site_symmetry_multiplicity
 _atom_site_fract_x
 _atom_site_fract_y
 _atom_site_fract_z
 _atom_site_occupancy
  Hf  Hf0  1  0.64909227  0.50495241  0.01081502  1
  Hf  Hf1  1  0.39760746  0.39881175  0.04428893  1
  Hf  Hf2  1  0.64252639  0.74276625  0.48964949  1
  Hf  Hf3  1  0.15829817  0.53218912  0.40652434  1
  Hf  Hf4  1  0.54861306  0.01726244  0.15091291  1
  Hf  Hf5  1  0.65908666  0.68509202  0.75545398  1
  Hf  Hf6  1  0.50022934  0.95948070  0.65869269  1
  Hf  Hf7  1  0.40963626  0.69859164  0.90597408  1
  Hf  Hf8  1  0.90698895  0.48967334  0.87432000  1
  Hf  Hf9  1  0.13667759  0.32832386  0.62594578  1
  Hf  Hf10  1  0.01306784  0.02913448  0.11474761  1
  Hf  Hf11  1  0.07182364  0.80898427  0.31128402  1
  Hf  Hf12  1  0.86133654  0.56157939  0.28677666  1
  Hf  Hf13  1  0.41658088  0.22011424  0.60556401  1
  Hf  Hf14  1  0.98630805  0.28564030  0.28859426  1
  Hf  Hf15  1  0.26690712  0.21558188  0.29518555  1
  Hf  Hf16  1  0.28540793  0.91521036  0.13463926  1
  Hf  Hf17  1  0.69385218  0.44308214  0.54326815  1
  Hf  Hf18  1  0.11895393  0.63463586  0.07144977  1
  Hf  Hf19  1  0.37561617  0.75332720  0.35466576  1
  Hf  Hf20  1  0.66071454  0.77153934  0.21730508  1
  Hf  Hf21  1  0.61787792  0.22977256  0.81667538  1
  Hf  Hf22  1  0.54598335  0.33473218  0.31549832  1
  Hf  Hf23  1  0.20269629  0.98659461  0.63993644  1
  Hf  Hf24  1  0.97809980  0.84442466  0.84334492  1
  Hf  Hf25  1  0.72071598  0.94099518  0.90908835  1
  Hf  Hf26  1  0.69531766  0.09639437  0.42409342  1
  Hf  Hf27  1  0.38690259  0.56378588  0.64472560  1
  Hf  Hf28  1  0.95122961  0.61787584  0.59163719  1
  Hf  Hf29  1  0.96683774  0.04387191  0.45092540  1
  Hf  Hf30  1  0.74699490  0.25709451  0.11447844  1
  Hf  Hf31  1  0.12217165  0.32383616  0.99017043  1
  Hf  Hf32  1  0.30030448  0.07205893  0.89279469  1
  Hf  Hf33  1  0.94811913  0.16120756  0.78218241  1
  O  O0  1  0.24547244  0.49086711  0.01873372  1
  O  O1  1  0.37460216  0.35376272  0.21713582  1
  O  O2  1  0.10545594  0.85024556  0.13298260  1
  O  O3  1  0.37130404  0.08448650  0.22497939  1
  O  O4  1  0.87440918  0.99505598  0.79308257  1
  O  O5  1  0.58064384  0.33060063  0.66784874  1
  O  O6  1  0.48212146  0.57867392  0.03370020  1
  O  O7  1  0.87846798  0.48465579  0.69735528  1
  O  O8  1  0.12457409  0.99141599  0.80973484  1
  O  O9  1  0.03398543  0.67015307  0.43129344  1
  O  O10  1  0.89700535  0.16785532  0.15804525  1
  O  O11  1  0.44977720  0.84574851  0.19221979  1
  O  O12  1  0.13621290  0.28040061  0.16623699  1
  O  O13  1  0.64173914  0.94734433  0.30731546  1
  O  O14  1  0.87096158  0.18787662  0.39816065  1
  O  O15  1  0.30448835  0.66925612  0.75809772  1
  O  O16  1  0.73165176  0.61193089  0.14633515  1
  O  O17  1  0.62712387  0.03659963  0.79174146  1
  O  O18  1  0.33998431  0.93190239  0.75808553  1
  O  O19  1  0.18857718  0.04369475  0.04461862  1
  O  O20  1  0.32185691  0.38801345  0.64235353  1
  O  O21  1  0.10298799  0.50810352  0.58535847  1
  O  O22  1  0.44294658  0.15455891  0.77693150  1
  O  O23  1  0.09320557  0.92569254  0.50006246  1
  O  O24  1  0.66039160  0.11536718  0.01262213  1
  O  O25  1  0.79857884  0.24467545  0.78085094  1
  O  O26  1  0.01565926  0.46467151  0.02535285  1
  O  O27  1  0.80382116  0.97944672  0.49842410  1
  O  O28  1  0.98230548  0.66994238  0.19454259  1
  O  O29  1  0.23298547  0.17542212  0.67374346  1
  O  O30  1  0.41452161  0.99787290  0.00711845  1
  O  O31  1  0.79803200  0.78774282  0.84083872  1
  O  O32  1  0.90441655  0.93337448  0.00669448  1
  O  O33  1  0.82271308  0.37840360  0.23982585  1
  O  O34  1  0.01288809  0.17128725  0.60548137  1
  O  O35  1  0.85112899  0.49796825  0.45949490  1
  O  O36  1  0.27188222  0.75063943  0.01715297  1
  O  O37  1  0.09786830  0.12916214  0.32428292  1
  O  O38  1  0.53601450  0.35546961  0.92611105  1
  O  O39  1  0.16067170  0.33866339  0.42918869  1
  O  O40  1  0.35530442  0.03663447  0.55583696  1
  O  O41  1  0.21909664  0.64531789  0.26338307  1
  O  O42  1  0.74365266  0.56772652  0.87231631  1
  O  O43  1  0.00797951  0.66579774  0.92019243  1
  O  O44  1  0.46565368  0.82708291  0.50324135  1
  O  O45  1  0.40471323  0.26216429  0.42444756  1
  O  O46  1  0.78485479  0.37735399  0.98351099  1
  O  O47  1  0.66587009  0.28399845  0.45096266  1
  O  O48  1  0.63094151  0.83470350  0.65163659  1
  O  O49  1  0.66289498  0.88807145  0.07812645  1
  O  O50  1  0.25028754  0.87968432  0.31840478  1
  O  O51  1  0.56242762  0.80250186  0.87251646  1
  O  O52  1  0.29285084  0.25821344  0.95318525  1
  O  O53  1  0.77298846  0.66932882  0.60050650  1
  O  O54  1  0.32497507  0.60936303  0.47429048  1
  O  O55  1  0.54113666  0.69166914  0.32695758  1
  O  O56  1  0.01456372  0.76672525  0.68832880  1
  O  O57  1  0.62778702  0.17168861  0.24792620  1
  O  O58  1  0.02677267  0.46861814  0.29015958  1
  O  O59  1  0.06190209  0.34852737  0.79949411  1
  O  O60  1  0.00967827  0.17257870  0.95563019  1
  O  O61  1  0.61019106  0.48875087  0.39277374  1
  O  O62  1  0.56542163  0.59334164  0.58821631  1
  O  O63  1  0.50324108  0.57565955  0.79883691  1
  O  O64  1  0.59422086  0.37816550  0.14198764  1
  O  O65  1  0.57408824  0.09556198  0.55852887  1
  O  O66  1  0.77539752  0.72923563  0.35427653  1
  O  O67  1  0.95552097  0.94111448  0.28532570  1
loop_
_geom_bond_atom_site_label_1
_geom_bond_atom_site_label_2
_geom_bond_distance
_geom_bond_site_symmetry_2
Hf0 O42 1.990296 1_554
Hf0 O16 2.033608 1_555
Hf0 O6 2.065722 1_555
Hf0 O64 2.115110 1_555
Hf0 O46 2.120110 1_554
Hf0 O38 2.157357 1_554
Hf1 O1 2.020232 1_555
Hf1 O0 2.027155 1_555
Hf1 O52 2.074346 1_554
Hf1 O38 2.090478 1_554
Hf1 O6 2.117150 1_555
Hf1 O64 2.433997 1_555
Hf2 O48 2.036442 1_555
Hf2 O53 2.097202 1_555
Hf2 O66 2.121434 1_555
Hf2 O62 2.132967 1_555
Hf2 O55 2.148152 1_555
Hf2 O44 2.208128 1_555
Hf3 O58 1.998019 1_555
Hf3 O54 2.083268 1_555
Hf3 O9 2.107016 1_555
Hf3 O21 2.111622 1_555
Hf3 O39 2.130419 1_555
Hf3 O41 2.139792 1_555
Hf4 O49 2.092029 1_545
Hf4 O57 2.092482 1_555
Hf4 O30 2.155879 1_545
Hf4 O11 2.164405 1_545
Hf4 O13 2.194876 1_545
Hf4 O24 2.243129 1_555
Hf4 O3 2.280020 1_555
Hf5 O31 2.032988 1_555
Hf5 O48 2.069670 1_555
Hf5 O63 2.094268 1_555
Hf5 O42 2.107199 1_555
Hf5 O51 2.130920 1_555
Hf5 O53 2.154034 1_555
Hf5 O62 2.277166 1_555
Hf6 O65 2.022700 1_565
Hf6 O48 2.040000 1_555
Hf6 O18 2.104999 1_555
Hf6 O17 2.129085 1_565
Hf6 O40 2.180693 1_565
Hf6 O44 2.218506 1_555
Hf6 O22 2.569220 1_565
Hf7 O15 2.001448 1_555
Hf7 O51 2.009659 1_555
Hf7 O36 2.062936 1_556
Hf7 O63 2.086883 1_555
Hf7 O6 2.147161 1_556
Hf8 O7 1.989048 1_555
Hf8 O42 2.036136 1_555
Hf8 O26 2.086354 1_656
Hf8 O46 2.172948 1_555
Hf8 O43 2.187493 1_655
Hf8 O59 2.495879 1_655
Hf9 O21 2.078732 1_555
Hf9 O20 2.099115 1_555
Hf9 O29 2.110174 1_555
Hf9 O34 2.114914 1_555
Hf9 O59 2.119701 1_555
Hf9 O39 2.216917 1_555
Hf10 O32 1.911573 1_445
Hf10 O10 2.084698 1_455
Hf10 O19 2.090631 1_555
Hf10 O67 2.241348 1_445
Hf10 O2 2.266944 1_545
Hf10 O60 2.408143 1_554
Hf10 O37 2.664188 1_555
Hf11 O67 2.011315 1_455
Hf11 O50 2.059063 1_555
Hf11 O9 2.081096 1_555
Hf11 O2 2.085721 1_555
Hf11 O28 2.133969 1_455
Hf11 O23 2.411744 1_555
Hf11 O41 2.529333 1_555
Hf12 O28 2.034903 1_555
Hf12 O33 2.053532 1_555
Hf12 O35 2.071780 1_555
Hf12 O58 2.138562 1_655
Hf12 O16 2.210636 1_555
Hf12 O66 2.216930 1_555
Hf13 O22 2.086595 1_555
Hf13 O45 2.089946 1_555
Hf13 O40 2.112411 1_555
Hf13 O20 2.187363 1_555
Hf13 O5 2.188771 1_555
Hf13 O29 2.197950 1_555
Hf13 O65 2.320042 1_555
Hf14 O58 2.008623 1_655
Hf14 O14 2.048559 1_555
Hf14 O10 2.088538 1_555
Hf14 O12 2.155298 1_655
Hf14 O33 2.191244 1_555
Hf14 O37 2.206747 1_655
Hf14 O39 2.481291 1_655
Hf15 O3 2.027239 1_555
Hf15 O37 2.062432 1_555
Hf15 O1 2.076851 1_555
Hf15 O45 2.098456 1_555
Hf15 O12 2.186152 1_555
Hf15 O39 2.339805 1_555
Hf16 O2 2.056229 1_555
Hf16 O19 2.089554 1_565
Hf16 O11 2.105395 1_555
Hf16 O50 2.133451 1_555
Hf16 O36 2.169166 1_555
Hf16 O30 2.197806 1_555
Hf16 O3 2.210407 1_565
Hf17 O47 1.979839 1_555
Hf17 O61 1.996082 1_555
Hf17 O35 2.042262 1_555
Hf17 O5 2.225587 1_555
Hf17 O62 2.273546 1_555
Hf17 O53 2.605467 1_555
Hf17 O7 2.643500 1_555
Hf18 O28 2.091579 1_455
Hf18 O43 2.117261 1_554
Hf18 O36 2.143331 1_555
Hf18 O26 2.144356 1_555
Hf18 O0 2.226288 1_555
Hf18 O41 2.385580 1_555
Hf18 O2 2.429690 1_555
Hf19 O55 2.003904 1_555
Hf19 O44 2.025672 1_555
Hf19 O50 2.055608 1_555
Hf19 O54 2.146310 1_555
Hf19 O41 2.227754 1_555
Hf19 O11 2.241823 1_555
Hf20 O55 1.988300 1_555
Hf20 O49 2.039949 1_555
Hf20 O66 2.050890 1_555
Hf20 O16 2.080273 1_555
Hf20 O13 2.145742 1_555
Hf20 O11 2.520520 1_555
Hf21 O25 2.029250 1_555
Hf21 O38 2.054387 1_555
Hf21 O5 2.073822 1_555
Hf21 O22 2.074628 1_555
Hf21 O17 2.116143 1_555
Hf21 O24 2.605980 1_556
Hf22 O61 1.937415 1_555
Hf22 O64 2.075166 1_555
Hf22 O47 2.103191 1_555
Hf22 O45 2.115502 1_555
Hf22 O57 2.153389 1_555
Hf22 O1 2.191935 1_555
Hf23 O40 1.988297 1_565
Hf23 O23 2.018278 1_555
Hf23 O29 2.076015 1_565
Hf23 O8 2.087857 1_555
Hf23 O18 2.118406 1_555
Hf24 O56 1.949518 1_655
Hf24 O31 2.033948 1_555
Hf24 O4 2.143446 1_555
Hf24 O43 2.195222 1_655
Hf24 O32 2.214247 1_556
Hf24 O8 2.239042 1_655
Hf25 O17 2.014416 1_565
Hf25 O31 2.043890 1_555
Hf25 O49 2.085813 1_556
Hf25 O4 2.204832 1_555
Hf25 O51 2.246692 1_555
Hf25 O32 2.288062 1_556
Hf25 O24 2.317873 1_566
Hf26 O27 1.994979 1_545
Hf26 O65 2.018225 1_555
Hf26 O13 2.084906 1_545
Hf26 O47 2.095922 1_555
Hf26 O14 2.141987 1_555
Hf26 O57 2.288464 1_555
Hf27 O15 1.944608 1_555
Hf27 O20 1.994563 1_555
Hf27 O62 2.078415 1_555
Hf27 O54 2.096284 1_555
Hf27 O63 2.120562 1_555
Hf28 O56 1.988230 1_655
Hf28 O7 2.033139 1_555
Hf28 O53 2.075580 1_555
Hf28 O9 2.097114 1_655
Hf28 O21 2.114386 1_655
Hf28 O35 2.165063 1_555
Hf29 O27 1.968280 1_545
Hf29 O23 2.036972 1_645
Hf29 O14 2.044379 1_555
Hf29 O67 2.115067 1_545
Hf29 O34 2.197420 1_655
Hf29 O37 2.215891 1_655
Hf30 O33 2.013832 1_555
Hf30 O46 2.026644 1_554
Hf30 O10 2.030253 1_555
Hf30 O24 2.050150 1_555
Hf30 O57 2.189378 1_555
Hf30 O64 2.217988 1_555
Hf31 O60 2.012358 1_555
Hf31 O26 2.017036 1_556
Hf31 O12 2.041066 1_556
Hf31 O52 2.091386 1_555
Hf31 O0 2.203064 1_556
Hf31 O59 2.246999 1_555
Hf32 O30 2.004585 1_546
Hf32 O52 2.113567 1_555
Hf32 O19 2.124308 1_556
Hf32 O18 2.164162 1_545
Hf32 O22 2.212077 1_555
Hf32 O8 2.240386 1_545
Hf33 O25 1.929483 1_555
Hf33 O4 1.939371 1_545
Hf33 O60 2.033952 1_655
Hf33 O34 2.106454 1_655
Hf33 O59 2.318397 1_655
