# generated using pymatgen
data_V6O7F5
_symmetry_space_group_name_H-M   'P 1'
_cell_length_a   4.73536700
_cell_length_b   5.64068334
_cell_length_c   7.75890002
_cell_angle_alpha   85.33201565
_cell_angle_beta   87.26085664
_cell_angle_gamma   86.31387683
_symmetry_Int_Tables_number   1
_chemical_formula_structural   V6O7F5
_chemical_formula_sum   'V6 O7 F5'
_cell_volume   205.94217034
_cell_formula_units_Z   1
loop_
 _symmetry_equiv_pos_site_id
 _symmetry_equiv_pos_as_xyz
  1  'x, y, z'
loop_
 _atom_site_type_symbol
 _atom_site_label
 _atom_site_symmetry_multiplicity
 _atom_site_fract_x
 _atom_site_fract_y
 _atom_site_fract_z
 _atom_site_occupancy
  V  V0  1  0.49587100  0.83088200  0.66505400  1
  V  V1  1  0.53765700  0.52546700  0.01260200  1
  V  V2  1  0.49870600  0.16469000  0.33248800  1
  V  V3  1  0.00311100  0.33264900  0.67032400  1
  V  V4  1  0.98997200  0.66433300  0.32554400  1
  V  V5  1  0.99349200  0.99342300  0.99977800  1
  O  O0  1  0.79615600  0.70294600  0.09843200  1
  O  O1  1  0.69720100  0.20690700  0.09779900  1
  O  O2  1  0.69406600  0.53092300  0.77040300  1
  O  O3  1  0.69869800  0.86460400  0.43334100  1
  O  O4  1  0.29759500  0.13356300  0.56646300  1
  O  O5  1  0.30456900  0.46665200  0.22924000  1
  O  O6  1  0.30233900  0.79399300  0.90077300  1
  F  F0  1  0.80262700  0.36614300  0.43634300  1
  F  F1  1  0.80342900  0.03253800  0.76614500  1
  F  F2  1  0.19368800  0.96469900  0.23128300  1
  F  F3  1  0.19844700  0.29490300  0.90148300  1
  F  F4  1  0.19237500  0.63068600  0.56250500  1
loop_
_geom_bond_atom_site_label_1
_geom_bond_atom_site_label_2
_geom_bond_distance
_geom_bond_site_symmetry_2
O0 V1 1.813305 1_555
O0 V4 2.015271 1_555
O0 V5 2.016963 1_554
O1 V5 1.956240 1_544
O1 V1 1.978996 1_555
O1 V2 2.012611 1_555
O2 V3 1.953900 1_655
O2 V1 1.985293 1_556
O2 V0 2.013895 1_555
O3 V4 1.929068 1_555
O3 V0 1.998419 1_555
O3 V2 2.005871 1_565
O4 V3 1.921876 1_555
O4 V0 2.007893 1_545
O4 V2 2.009424 1_555
O5 V4 1.958726 1_455
O5 V1 1.983097 1_555
O5 V2 2.008725 1_555
O6 V5 1.953505 1_455
O6 V1 1.987526 1_556
O6 V0 2.007610 1_555
F0 V4 2.058836 1_555
F0 V3 2.078132 1_655
F0 V2 2.117063 1_555
F1 V5 2.051834 1_545
F1 V3 2.060654 1_655
F1 V0 2.120749 1_545
F2 V5 2.060828 1_454
F2 V4 2.068107 1_455
F2 V2 2.106532 1_565
F3 V3 2.046657 1_555
F3 V5 2.084671 1_445
F3 V1 2.366082 1_556
F4 V3 2.054857 1_555
F4 V4 2.103136 1_455
F4 V0 2.106639 1_555
