# generated using pymatgen
data_Ta
_symmetry_space_group_name_H-M   'P 1'
_cell_length_a   4.81344000
_cell_length_b   43.43430401
_cell_length_c   43.43430401
_cell_angle_alpha   89.99824291
_cell_angle_beta   90.00000000
_cell_angle_gamma   90.00000000
_symmetry_Int_Tables_number   1
_chemical_formula_structural   Ta
_chemical_formula_sum   Ta16
_cell_volume   9080.74114588
_cell_formula_units_Z   16
loop_
 _symmetry_equiv_pos_site_id
 _symmetry_equiv_pos_as_xyz
  1  'x, y, z'
loop_
 _atom_site_type_symbol
 _atom_site_label
 _atom_site_symmetry_multiplicity
 _atom_site_fract_x
 _atom_site_fract_y
 _atom_site_fract_z
 _atom_site_occupancy
  Ta  Ta0_0  1  0.00000000  0.40904500  0.15904500  1
  Ta  Ta0_1  1  0.00000000  0.40904500  0.65904500  1
  Ta  Ta0_2  1  0.00000000  0.90904500  0.15904500  1
  Ta  Ta0_3  1  0.00000000  0.90904500  0.65904500  1
  Ta  Ta0_4  1  0.50000000  0.40904500  0.15904500  1
  Ta  Ta0_5  1  0.50000000  0.40904500  0.65904500  1
  Ta  Ta0_6  1  0.50000000  0.90904500  0.15904500  1
  Ta  Ta0_7  1  0.50000000  0.90904500  0.65904500  1
  Ta  Ta1_0  1  0.00000000  0.09095500  0.34095500  1
  Ta  Ta1_1  1  0.00000000  0.09095500  0.84095500  1
  Ta  Ta1_2  1  0.00000000  0.59095500  0.34095500  1
  Ta  Ta1_3  1  0.00000000  0.59095500  0.84095500  1
  Ta  Ta1_4  1  0.50000000  0.09095500  0.34095500  1
  Ta  Ta1_5  1  0.50000000  0.09095500  0.84095500  1
  Ta  Ta1_6  1  0.50000000  0.59095500  0.34095500  1
  Ta  Ta1_7  1  0.50000000  0.59095500  0.84095500  1
loop_
_geom_bond_atom_site_label_1
_geom_bond_atom_site_label_2
_geom_bond_distance
_geom_bond_site_symmetry_2
Ta0_0 Ta0_4 2.406720 1_455
Ta0_0 Ta0_4 2.406720 1_555
Ta0_1 Ta0_5 2.406720 1_555
Ta0_1 Ta0_5 2.406720 1_455
Ta0_2 Ta0_6 2.406720 1_555
Ta0_2 Ta0_6 2.406720 1_455
Ta0_3 Ta0_7 2.406720 1_555
Ta0_3 Ta0_7 2.406720 1_455
Ta1_0 Ta1_4 2.406720 1_455
Ta1_0 Ta1_4 2.406720 1_555
Ta1_1 Ta1_5 2.406720 1_555
Ta1_1 Ta1_5 2.406720 1_455
Ta1_2 Ta1_6 2.406720 1_555
Ta1_2 Ta1_6 2.406720 1_455
Ta1_3 Ta1_7 2.406720 1_555
Ta1_3 Ta1_7 2.406720 1_455
