# generated using pymatgen
data_Sc2AlSi2
_symmetry_space_group_name_H-M   'P 1'
_cell_length_a   4.01474668
_cell_length_b   6.57784486
_cell_length_c   6.57784486
_cell_angle_alpha   90.00000000
_cell_angle_beta   90.00000000
_cell_angle_gamma   90.00000000
_symmetry_Int_Tables_number   1
_chemical_formula_structural   Sc2AlSi2
_chemical_formula_sum   'Sc4 Al2 Si4'
_cell_volume   173.71023199
_cell_formula_units_Z   2
loop_
 _symmetry_equiv_pos_site_id
 _symmetry_equiv_pos_as_xyz
  1  'x, y, z'
loop_
 _atom_site_type_symbol
 _atom_site_label
 _atom_site_symmetry_multiplicity
 _atom_site_fract_x
 _atom_site_fract_y
 _atom_site_fract_z
 _atom_site_occupancy
  Sc  Sc0  1  0.50000000  0.67597908  0.82402092  1
  Sc  Sc1  1  0.50000000  0.32402092  0.17597908  1
  Sc  Sc2  1  0.50000000  0.17597908  0.67597908  1
  Sc  Sc3  1  0.50000000  0.82402092  0.32402092  1
  Al  Al0  1  -0.00000000  -0.00000000  0.00000000  1
  Al  Al1  1  -0.00000000  0.50000000  0.50000000  1
  Si  Si0  1  0.00000000  0.87389537  0.62610463  1
  Si  Si1  1  -0.00000000  0.12610463  0.37389537  1
  Si  Si2  1  0.00000000  0.37389537  0.87389537  1
  Si  Si3  1  -0.00000000  0.62610463  0.12610463  1
loop_
_geom_bond_atom_site_label_1
_geom_bond_atom_site_label_2
_geom_bond_distance
_geom_bond_site_symmetry_2
Sc0 Si0 2.723828 1_555
Sc0 Si0 2.723828 1_655
Sc0 Si3 2.843516 1_556
Sc0 Si3 2.843516 1_656
Sc0 Si2 2.843516 1_655
Sc0 Si2 2.843516 1_555
Sc1 Si1 2.723828 1_655
Sc1 Si1 2.723828 1_555
Sc1 Si2 2.843516 1_554
Sc1 Si2 2.843516 1_654
Sc1 Si3 2.843516 1_555
Sc1 Si3 2.843516 1_655
Sc2 Si2 2.723828 1_655
Sc2 Si2 2.723828 1_555
Sc2 Si1 2.843516 1_655
Sc2 Si1 2.843516 1_555
Sc2 Si0 2.843516 1_645
Sc2 Si0 2.843516 1_545
Sc3 Si3 2.723828 1_655
Sc3 Si3 2.723828 1_555
Sc3 Si1 2.843516 1_665
Sc3 Si1 2.843516 1_565
Sc3 Si0 2.843516 1_655
Sc3 Si0 2.843516 1_555
Al0 Si0 2.595542 1_544
Al0 Si3 2.595542 1_545
Al0 Si2 2.595542 1_554
Al0 Si1 2.595542 1_555
Al1 Si2 2.595542 1_555
Al1 Si0 2.595542 1_555
Al1 Si1 2.595542 1_555
Al1 Si3 2.595542 1_555
Si0 Si1 2.346171 1_565
Si2 Si3 2.346171 1_556
