# generated using pymatgen
data_Li9Co7O16
_symmetry_space_group_name_H-M   'P 1'
_cell_length_a   5.17076386
_cell_length_b   5.17076386
_cell_length_c   19.79340840
_cell_angle_alpha   78.27036604
_cell_angle_beta   78.27036604
_cell_angle_gamma   33.75591664
_symmetry_Int_Tables_number   1
_chemical_formula_structural   Li9Co7O16
_chemical_formula_sum   'Li9 Co7 O16'
_cell_volume   287.34759916
_cell_formula_units_Z   1
loop_
 _symmetry_equiv_pos_site_id
 _symmetry_equiv_pos_as_xyz
  1  'x, y, z'
loop_
 _atom_site_type_symbol
 _atom_site_label
 _atom_site_symmetry_multiplicity
 _atom_site_fract_x
 _atom_site_fract_y
 _atom_site_fract_z
 _atom_site_occupancy
  Li  Li0  1  0.24814500  0.24814500  0.93821000  1
  Li  Li1  1  0.75185500  0.75185500  0.06179000  1
  Li  Li2  1  0.25168500  0.25168500  0.18701700  1
  Li  Li3  1  0.75003200  0.75003200  0.31233100  1
  Li  Li4  1  0.24870700  0.24870700  0.43766100  1
  Li  Li5  1  0.75129300  0.75129300  0.56233900  1
  Li  Li6  1  0.24996800  0.24996800  0.68766900  1
  Li  Li7  1  0.74831500  0.74831500  0.81298300  1
  Li  Li8  1  0.50000000  0.50000000  0.00000000  1
  Co  Co0  1  0.00087300  0.00087300  0.88006200  1
  Co  Co1  1  0.99912700  0.99912700  0.11993800  1
  Co  Co2  1  0.49977500  0.49977500  0.24902700  1
  Co  Co3  1  0.00092600  0.00092600  0.37529900  1
  Co  Co4  1  0.50000000  0.50000000  0.50000000  1
  Co  Co5  1  0.99907400  0.99907400  0.62470100  1
  Co  Co6  1  0.50022500  0.50022500  0.75097300  1
  O  O0  1  0.38685500  0.38685500  0.84083100  1
  O  O1  1  0.88347000  0.88347000  0.95909900  1
  O  O2  1  0.38619300  0.38619300  0.09633500  1
  O  O3  1  0.88865200  0.88865200  0.21322300  1
  O  O4  1  0.38353800  0.38353800  0.34050600  1
  O  O5  1  0.88569000  0.88569000  0.46666800  1
  O  O6  1  0.38630800  0.38630800  0.58981000  1
  O  O7  1  0.88357900  0.88357900  0.71564500  1
  O  O8  1  0.11653000  0.11653000  0.04090100  1
  O  O9  1  0.61314500  0.61314500  0.15916900  1
  O  O10  1  0.11642100  0.11642100  0.28435500  1
  O  O11  1  0.61369200  0.61369200  0.41019000  1
  O  O12  1  0.11431000  0.11431000  0.53333200  1
  O  O13  1  0.61646200  0.61646200  0.65949400  1
  O  O14  1  0.11134800  0.11134800  0.78677700  1
  O  O15  1  0.61380700  0.61380700  0.90366500  1
loop_
_geom_bond_atom_site_label_1
_geom_bond_atom_site_label_2
_geom_bond_distance
_geom_bond_site_symmetry_2
Li0 O1 2.110304 1_545
Li0 O1 2.110304 1_455
Li0 O0 2.115467 1_555
Li0 O8 2.168653 1_556
Li0 O15 2.207909 1_455
Li0 O15 2.207909 1_545
Li1 O8 2.110304 1_655
Li1 O8 2.110304 1_565
Li1 O9 2.115467 1_555
Li1 O1 2.168653 1_554
Li1 O2 2.207909 1_565
Li1 O2 2.207909 1_655
Li2 O2 1.994585 1_555
Li2 O10 2.099525 1_555
Li2 O3 2.158411 1_455
Li2 O3 2.158411 1_545
Li2 O9 2.181356 1_545
Li2 O9 2.181356 1_455
Li3 O11 2.112306 1_555
Li3 O3 2.141643 1_555
Li3 O10 2.149359 1_655
Li3 O10 2.149359 1_565
Li3 O4 2.150196 1_655
Li3 O4 2.150196 1_565
Li4 O12 2.069957 1_555
Li4 O4 2.094795 1_555
Li4 O11 2.154832 1_455
Li4 O11 2.154832 1_545
Li4 O5 2.179845 1_455
Li4 O5 2.179845 1_545
Li5 O5 2.069957 1_555
Li5 O13 2.094795 1_555
Li5 O6 2.154832 1_655
Li5 O6 2.154832 1_565
Li5 O12 2.179845 1_655
Li5 O12 2.179845 1_565
Li6 O6 2.112306 1_555
Li6 O14 2.141643 1_555
Li6 O7 2.149359 1_455
Li6 O7 2.149359 1_545
Li6 O13 2.150196 1_455
Li6 O13 2.150196 1_545
Li7 O15 1.994585 1_555
Li7 O7 2.099525 1_555
Li7 O14 2.158411 1_655
Li7 O14 2.158411 1_565
Li7 O0 2.181356 1_655
Li7 O0 2.181356 1_565
Li8 O15 1.997960 1_554
Li8 O2 1.997960 1_555
Li8 O1 2.153060 1_544
Li8 O8 2.153060 1_565
Li8 O1 2.153060 1_454
Li8 O8 2.153060 1_655
Co0 O1 1.739241 1_445
Co0 O14 1.935674 1_555
Co0 O15 1.985671 1_545
Co0 O15 1.985671 1_455
Co0 O0 2.121822 1_545
Co0 O0 2.121822 1_455
Co1 O8 1.739241 1_665
Co1 O3 1.935674 1_555
Co1 O2 1.985671 1_565
Co1 O2 1.985671 1_655
Co1 O9 2.121822 1_655
Co1 O9 2.121822 1_565
Co2 O9 1.890572 1_555
Co2 O4 1.927892 1_555
Co2 O3 2.072777 1_455
Co2 O3 2.072777 1_545
Co2 O10 2.101945 1_655
Co2 O10 2.101945 1_565
Co3 O10 1.916373 1_555
Co3 O5 1.922206 1_445
Co3 O11 2.074481 1_545
Co3 O11 2.074481 1_455
Co3 O4 2.101770 1_545
Co3 O4 2.101770 1_455
Co4 O6 1.891055 1_555
Co4 O11 1.891055 1_555
Co4 O12 2.070215 1_655
Co4 O5 2.070215 1_545
Co4 O12 2.070215 1_565
Co4 O5 2.070215 1_455
Co5 O7 1.916373 1_555
Co5 O12 1.922206 1_665
Co5 O6 2.074481 1_655
Co5 O6 2.074481 1_565
Co5 O13 2.101770 1_565
Co5 O13 2.101770 1_655
Co6 O0 1.890572 1_555
Co6 O13 1.927892 1_555
Co6 O14 2.072777 1_655
Co6 O14 2.072777 1_565
Co6 O7 2.101945 1_545
Co6 O7 2.101945 1_455
