# generated using pymatgen
data_CaCrF5
_symmetry_space_group_name_H-M   'P 1'
_cell_length_a   10.10274074
_cell_length_b   5.44833616
_cell_length_c   7.49410520
_cell_angle_alpha   70.25330625
_cell_angle_beta   90.00000000
_cell_angle_gamma   90.00000000
_symmetry_Int_Tables_number   1
_chemical_formula_structural   CaCrF5
_chemical_formula_sum   'Ca4 Cr4 F20'
_cell_volume   388.24219781
_cell_formula_units_Z   4
loop_
 _symmetry_equiv_pos_site_id
 _symmetry_equiv_pos_as_xyz
  1  'x, y, z'
loop_
 _atom_site_type_symbol
 _atom_site_label
 _atom_site_symmetry_multiplicity
 _atom_site_fract_x
 _atom_site_fract_y
 _atom_site_fract_z
 _atom_site_occupancy
  Ca  Ca0  1  0.02088315  0.53120563  0.74491441  1
  Ca  Ca1  1  0.52088315  0.46879437  0.75508559  1
  Ca  Ca2  1  0.97911685  0.46879437  0.25508559  1
  Ca  Ca3  1  0.47911685  0.53120563  0.24491441  1
  Cr  Cr0  1  0.75396958  0.10896735  0.59948052  1
  Cr  Cr1  1  0.25396958  0.89103265  0.90051948  1
  Cr  Cr2  1  0.24603042  0.89103265  0.40051948  1
  Cr  Cr3  1  0.74603042  0.10896735  0.09948052  1
  F  F0  1  0.87807589  0.39511308  0.55613653  1
  F  F1  1  0.37807589  0.60488692  0.94386347  1
  F  F2  1  0.12192411  0.60488692  0.44386347  1
  F  F3  1  0.62192411  0.39511308  0.05613653  1
  F  F4  1  0.61305170  0.35613827  0.50297850  1
  F  F5  1  0.11305170  0.64386173  0.99702150  1
  F  F6  1  0.38694830  0.64386173  0.49702150  1
  F  F7  1  0.88694830  0.35613827  0.00297850  1
  F  F8  1  0.39622157  0.11613267  0.80692183  1
  F  F9  1  0.89622157  0.88386733  0.69307817  1
  F  F10  1  0.60377843  0.88386733  0.19307817  1
  F  F11  1  0.10377843  0.11613267  0.30692183  1
  F  F12  1  0.13847003  0.17006360  0.86372405  1
  F  F13  1  0.63847003  0.82993640  0.63627595  1
  F  F14  1  0.86152997  0.82993640  0.13627595  1
  F  F15  1  0.36152997  0.17006360  0.36372405  1
  F  F16  1  0.69997635  0.13909762  0.84113572  1
  F  F17  1  0.19997635  0.86090238  0.65886428  1
  F  F18  1  0.30002365  0.86090238  0.15886428  1
  F  F19  1  0.80002365  0.13909762  0.34113572  1
loop_
_geom_bond_atom_site_label_1
_geom_bond_atom_site_label_2
_geom_bond_distance
_geom_bond_site_symmetry_2
Ca0 F12 2.211722 1_555
Ca0 F9 2.219131 1_455
Ca0 F7 2.287882 1_456
Ca0 F0 2.311182 1_455
Ca0 F5 2.365777 1_555
Ca0 F2 2.383525 1_555
Ca0 F17 2.476587 1_555
Ca1 F13 2.211722 1_555
Ca1 F8 2.219131 1_555
Ca1 F6 2.287882 1_555
Ca1 F1 2.311182 1_555
Ca1 F4 2.365777 1_555
Ca1 F3 2.383525 1_556
Ca1 F16 2.476587 1_555
Ca2 F14 2.211722 1_555
Ca2 F11 2.219131 1_655
Ca2 F5 2.287882 1_654
Ca2 F2 2.311182 1_655
Ca2 F7 2.365777 1_555
Ca2 F0 2.383525 1_555
Ca2 F19 2.476587 1_555
Ca3 F15 2.211722 1_555
Ca3 F10 2.219131 1_555
Ca3 F4 2.287882 1_555
Ca3 F3 2.311182 1_555
Ca3 F6 2.365777 1_555
Ca3 F1 2.383525 1_554
Ca3 F18 2.476587 1_555
Cr0 F13 1.861588 1_545
Cr0 F9 1.865523 1_545
Cr0 F4 1.924900 1_555
Cr0 F0 1.940594 1_555
Cr0 F19 1.943452 1_555
Cr0 F16 1.950658 1_555
Cr1 F12 1.861588 1_565
Cr1 F8 1.865523 1_565
Cr1 F5 1.924900 1_555
Cr1 F1 1.940594 1_555
Cr1 F18 1.943452 1_556
Cr1 F17 1.950658 1_555
Cr2 F15 1.861588 1_565
Cr2 F11 1.865523 1_565
Cr2 F6 1.924900 1_555
Cr2 F2 1.940594 1_555
Cr2 F17 1.943452 1_555
Cr2 F18 1.950658 1_555
Cr3 F14 1.861588 1_545
Cr3 F10 1.865523 1_545
Cr3 F7 1.924900 1_555
Cr3 F3 1.940594 1_555
Cr3 F16 1.943452 1_554
Cr3 F19 1.950658 1_555
