# generated using pymatgen
data_Li3Cr3FeO8
_symmetry_space_group_name_H-M   'P 1'
_cell_length_a   5.91986756
_cell_length_b   8.40508480
_cell_length_c   5.94568790
_cell_angle_alpha   89.99992219
_cell_angle_beta   89.98265758
_cell_angle_gamma   90.35109240
_symmetry_Int_Tables_number   1
_chemical_formula_structural   Li3Cr3FeO8
_chemical_formula_sum   'Li6 Cr6 Fe2 O16'
_cell_volume   295.83395884
_cell_formula_units_Z   2
loop_
 _symmetry_equiv_pos_site_id
 _symmetry_equiv_pos_as_xyz
  1  'x, y, z'
loop_
 _atom_site_type_symbol
 _atom_site_label
 _atom_site_symmetry_multiplicity
 _atom_site_fract_x
 _atom_site_fract_y
 _atom_site_fract_z
 _atom_site_occupancy
  Li  Li0  1  0.50000800  0.00000000  0.99999000  1
  Li  Li1  1  0.00000900  0.49999800  0.49999100  1
  Li  Li2  1  0.74852000  0.75113900  0.74767800  1
  Li  Li3  1  0.25147800  0.24884600  0.25231700  1
  Li  Li4  1  0.74861300  0.75131200  0.25223400  1
  Li  Li5  1  0.25140100  0.24869000  0.74774700  1
  Cr  Cr0  1  0.25296500  0.75057400  0.74786900  1
  Cr  Cr1  1  0.74705200  0.24942100  0.25211100  1
  Cr  Cr2  1  0.25305500  0.75045200  0.25225300  1
  Cr  Cr3  1  0.74693200  0.24955400  0.74775200  1
  Cr  Cr4  1  0.49999700  0.50000200  0.99999900  1
  Cr  Cr5  1  0.99998500  0.99998800  0.50003900  1
  Fe  Fe0  1  0.49999600  0.00000200  0.50000000  1
  Fe  Fe1  1  0.00000000  0.50000300  0.99999500  1
  O  O0  1  0.51549800  0.25936100  0.00002800  1
  O  O1  1  0.01752500  0.75748000  0.50008500  1
  O  O2  1  0.48450400  0.74064900  0.99996400  1
  O  O3  1  0.98247100  0.24250100  0.49993000  1
  O  O4  1  0.98354500  0.27204800  0.99983500  1
  O  O5  1  0.48115400  0.75804800  0.50003000  1
  O  O6  1  0.75769000  0.49229900  0.22384800  1
  O  O7  1  0.25459500  0.99114900  0.72914200  1
  O  O8  1  0.75724000  0.49227400  0.77577900  1
  O  O9  1  0.25480000  0.99111000  0.27103800  1
  O  O10  1  0.24275300  0.50773600  0.22421000  1
  O  O11  1  0.74514800  0.00889400  0.72901100  1
  O  O12  1  0.24231100  0.50770200  0.77613700  1
  O  O13  1  0.74541200  0.00884200  0.27088200  1
  O  O14  1  0.01646200  0.72795900  0.00015000  1
  O  O15  1  0.51885500  0.24195600  0.49995200  1
loop_
_geom_bond_atom_site_label_1
_geom_bond_atom_site_label_2
_geom_bond_distance
_geom_bond_site_symmetry_2
Li0 O11 2.169018 1_555
Li0 O9 2.169591 1_546
Li0 O7 2.170163 1_545
Li0 O13 2.170319 1_556
Li0 O2 2.181237 1_545
Li0 O0 2.181318 1_556
Li1 O1 2.166006 1_555
Li1 O3 2.166137 1_455
Li1 O10 2.180666 1_555
Li1 O8 2.180792 1_455
Li1 O12 2.181223 1_555
Li1 O6 2.181275 1_455
Li2 O5 2.163134 1_555
Li2 O2 2.167369 1_555
Li2 O1 2.168747 1_655
Li2 O11 2.169508 1_565
Li2 O8 2.183115 1_555
Li2 O14 2.193745 1_656
Li3 O15 2.163124 1_555
Li3 O0 2.167406 1_555
Li3 O3 2.168837 1_455
Li3 O9 2.169360 1_545
Li3 O10 2.183328 1_555
Li3 O4 2.193765 1_454
Li4 O5 2.163438 1_555
Li4 O13 2.167598 1_565
Li4 O2 2.168408 1_554
Li4 O1 2.170010 1_655
Li4 O6 2.184547 1_555
Li4 O14 2.191248 1_655
Li5 O15 2.163412 1_555
Li5 O7 2.167677 1_545
Li5 O0 2.168404 1_556
Li5 O3 2.169955 1_455
Li5 O12 2.184543 1_555
Li5 O4 2.191298 1_455
Cr0 O5 1.999478 1_555
Cr0 O7 2.025080 1_555
Cr0 O1 2.029449 1_555
Cr0 O2 2.033471 1_555
Cr0 O12 2.048851 1_555
Cr0 O14 2.059547 1_556
Cr1 O15 1.999516 1_555
Cr1 O13 2.025128 1_555
Cr1 O3 2.029519 1_555
Cr1 O0 2.033484 1_555
Cr1 O6 2.048897 1_555
Cr1 O4 2.059494 1_554
Cr2 O5 1.999477 1_555
Cr2 O9 2.025796 1_555
Cr2 O1 2.029444 1_555
Cr2 O2 2.033305 1_554
Cr2 O10 2.047389 1_555
Cr2 O14 2.059666 1_555
Cr3 O15 1.999491 1_555
Cr3 O11 2.025798 1_555
Cr3 O3 2.029444 1_555
Cr3 O0 2.033189 1_556
Cr3 O8 2.047415 1_555
Cr3 O4 2.059661 1_555
Cr4 O10 2.024947 1_556
Cr4 O8 2.024976 1_555
Cr4 O0 2.025250 1_556
Cr4 O2 2.025298 1_555
Cr4 O6 2.026129 1_556
Cr4 O12 2.026148 1_555
Cr5 O11 2.033475 1_565
Cr5 O9 2.033484 1_655
Cr5 O7 2.033588 1_655
Cr5 O13 2.033646 1_565
Cr5 O1 2.041579 1_655
Cr5 O3 2.041612 1_565
Fe0 O9 1.991387 1_545
Fe0 O11 1.991397 1_555
Fe0 O13 1.992355 1_555
Fe0 O7 1.992391 1_545
Fe0 O5 2.036018 1_545
Fe0 O15 2.036023 1_555
Fe1 O4 1.917860 1_455
Fe1 O14 1.917870 1_556
Fe1 O6 1.957289 1_456
Fe1 O12 1.957312 1_555
Fe1 O10 1.961272 1_556
Fe1 O8 1.961305 1_455
