# generated using pymatgen
data_Sr4Cd11
_symmetry_space_group_name_H-M   'P 1'
_cell_length_a   7.93605520
_cell_length_b   11.68310412
_cell_length_c   11.68310412
_cell_angle_alpha   83.37595275
_cell_angle_beta   70.14517113
_cell_angle_gamma   70.14517113
_symmetry_Int_Tables_number   1
_chemical_formula_structural   Sr4Cd11
_chemical_formula_sum   'Sr8 Cd22'
_cell_volume   958.27611091
_cell_formula_units_Z   2
loop_
 _symmetry_equiv_pos_site_id
 _symmetry_equiv_pos_as_xyz
  1  'x, y, z'
loop_
 _atom_site_type_symbol
 _atom_site_label
 _atom_site_symmetry_multiplicity
 _atom_site_fract_x
 _atom_site_fract_y
 _atom_site_fract_z
 _atom_site_occupancy
  Sr  Sr0  1  0.69338360  0.13635112  0.86364888  1
  Sr  Sr1  1  0.69338360  0.86364888  0.13635112  1
  Sr  Sr2  1  0.80703247  0.63635112  0.63635112  1
  Sr  Sr3  1  0.55661640  0.63635112  0.36364888  1
  Sr  Sr4  1  0.55661640  0.36364888  0.63635112  1
  Sr  Sr5  1  0.07973472  0.36364888  0.36364888  1
  Sr  Sr6  1  0.44296753  0.86364888  0.86364888  1
  Sr  Sr7  1  0.17026528  0.13635112  0.13635112  1
  Cd  Cd0  1  -0.00000000  0.00000000  0.00000000  1
  Cd  Cd1  1  0.25000000  0.50000000  0.50000000  1
  Cd  Cd2  1  0.12500000  0.75000000  0.25000000  1
  Cd  Cd3  1  0.12500000  0.25000000  0.75000000  1
  Cd  Cd4  1  0.62500000  0.25000000  0.25000000  1
  Cd  Cd5  1  0.12500000  0.75000000  0.75000000  1
  Cd  Cd6  1  0.37364344  0.87697974  0.59062746  1
  Cd  Cd7  1  0.84125065  0.12302026  0.40937254  1
  Cd  Cd8  1  0.21427091  0.90937254  0.37697974  1
  Cd  Cd9  1  -0.12364344  0.90937254  0.62302026  1
  Cd  Cd10  1  -0.12364344  0.62302026  0.90937254  1
  Cd  Cd11  1  0.50062319  0.09062746  0.62302026  1
  Cd  Cd12  1  0.40874935  0.09062746  0.37697974  1
  Cd  Cd13  1  0.40874935  0.37697974  0.09062746  1
  Cd  Cd14  1  0.03572909  0.12302026  0.59062746  1
  Cd  Cd15  1  0.03572909  0.59062746  0.12302026  1
  Cd  Cd16  1  0.74937681  0.87697974  0.40937254  1
  Cd  Cd17  1  0.74937681  0.40937254  0.87697974  1
  Cd  Cd18  1  0.37364344  0.59062746  0.87697974  1
  Cd  Cd19  1  0.84125065  0.40937254  0.12302026  1
  Cd  Cd20  1  0.50062319  0.62302026  0.09062746  1
  Cd  Cd21  1  0.21427091  0.37697974  0.90937254  1
loop_
_geom_bond_atom_site_label_1
_geom_bond_atom_site_label_2
_geom_bond_distance
_geom_bond_site_symmetry_2
Cd0 Sr1 3.226598 1_445
Cd0 Sr0 3.226598 1_454
Cd0 Sr7 3.226598 1_555
Cd0 Sr6 3.226598 1_544
Cd1 Sr4 3.226598 1_555
Cd1 Sr3 3.226598 1_555
Cd1 Sr5 3.226598 1_555
Cd1 Sr2 3.226598 1_455
Cd2 Cd20 2.901191 1_555
Cd2 Cd8 2.901191 1_555
Cd2 Sr3 3.853845 1_555
Cd2 Sr1 3.853845 1_455
Cd3 Sr0 3.853845 1_455
Cd3 Sr4 3.853845 1_555
Cd4 Cd7 2.901191 1_555
Cd4 Sr7 3.853845 1_655
Cd4 Sr5 3.853845 1_555
Cd5 Cd9 2.901191 1_555
Cd5 Cd6 2.901191 1_555
Cd5 Sr2 3.853845 1_455
Cd5 Sr6 3.853845 1_555
Cd6 Cd8 3.094297 1_555
Cd6 Sr6 3.394198 1_555
Cd6 Sr3 3.657229 1_555
Cd6 Sr2 3.788367 1_555
Cd7 Cd8 3.094297 1_645
Cd7 Cd9 3.331808 1_645
Cd7 Sr7 3.394198 1_655
Cd7 Sr4 3.657229 1_555
Cd7 Sr5 3.788367 1_655
Cd8 Cd9 3.196580 1_555
Cd8 Sr3 3.394198 1_555
Cd8 Sr7 3.657229 1_565
Cd8 Sr1 3.788367 1_555
Cd9 Sr2 3.394198 1_455
Cd9 Sr0 3.657229 1_465
Cd9 Sr6 3.788367 1_455
Cd10 Cd5 2.901191 1_555
Cd10 Cd20 3.014376 1_456
Cd10 Cd15 3.094297 1_556
Cd10 Cd17 3.094297 1_455
Cd10 Cd21 3.196580 1_555
Cd10 Cd19 3.331808 1_456
Cd10 Sr2 3.394198 1_455
Cd10 Sr1 3.657229 1_456
Cd10 Sr6 3.788367 1_455
Cd11 Cd3 2.901191 1_555
Cd11 Cd9 3.014376 1_645
Cd11 Cd7 3.094297 1_555
Cd11 Cd6 3.094297 1_545
Cd11 Cd12 3.196580 1_555
Cd11 Cd16 3.331808 1_545
Cd11 Sr4 3.394198 1_555
Cd11 Sr6 3.657229 1_545
Cd11 Sr0 3.788367 1_555
Cd12 Cd4 2.901191 1_555
Cd12 Cd8 3.014376 1_545
Cd12 Cd14 3.094297 1_555
Cd12 Cd16 3.094297 1_545
Cd12 Cd6 3.331808 1_545
Cd12 Sr5 3.394198 1_555
Cd12 Sr1 3.657229 1_545
Cd12 Sr7 3.788367 1_555
Cd13 Cd4 2.901191 1_555
Cd13 Cd21 3.014376 1_554
Cd13 Cd15 3.094297 1_555
Cd13 Cd17 3.094297 1_554
Cd13 Cd20 3.196580 1_555
Cd13 Cd18 3.331808 1_554
Cd13 Sr5 3.394198 1_555
Cd13 Sr0 3.657229 1_554
Cd13 Sr7 3.788367 1_555
Cd14 Cd3 2.901191 1_555
Cd14 Cd7 3.014376 1_455
Cd14 Cd9 3.094297 1_545
Cd14 Cd6 3.196580 1_545
Cd14 Cd8 3.331808 1_545
Cd14 Sr0 3.394198 1_455
Cd14 Sr5 3.657229 1_555
Cd14 Sr4 3.788367 1_455
Cd15 Cd2 2.901191 1_555
Cd15 Cd19 3.014376 1_455
Cd15 Cd18 3.196580 1_554
Cd15 Cd21 3.331808 1_554
Cd15 Sr1 3.394198 1_455
Cd15 Sr5 3.657229 1_555
Cd15 Sr3 3.788367 1_455
Cd16 Cd2 2.901191 1_655
Cd16 Cd6 3.014376 1_555
Cd16 Cd9 3.094297 1_655
Cd16 Cd7 3.196580 1_565
Cd16 Sr1 3.394198 1_555
Cd16 Sr2 3.657229 1_555
Cd16 Sr3 3.788367 1_555
Cd17 Cd3 2.901191 1_655
Cd17 Cd18 3.014376 1_555
Cd17 Cd19 3.196580 1_556
Cd17 Cd20 3.331808 1_556
Cd17 Sr0 3.394198 1_555
Cd17 Sr2 3.657229 1_555
Cd17 Sr4 3.788367 1_555
Cd18 Cd5 2.901191 1_555
Cd18 Cd21 3.094297 1_555
Cd18 Cd20 3.094297 1_556
Cd18 Sr6 3.394198 1_555
Cd18 Sr4 3.657229 1_555
Cd18 Sr2 3.788367 1_555
Cd19 Cd4 2.901191 1_555
Cd19 Cd21 3.094297 1_654
Cd19 Cd20 3.094297 1_555
Cd19 Sr7 3.394198 1_655
Cd19 Sr3 3.657229 1_555
Cd19 Sr5 3.788367 1_655
Cd20 Sr3 3.394198 1_555
Cd20 Sr6 3.657229 1_554
Cd20 Sr1 3.788367 1_555
Cd21 Cd3 2.901191 1_555
Cd21 Sr4 3.394198 1_555
Cd21 Sr7 3.657229 1_556
Cd21 Sr0 3.788367 1_555
