# generated using pymatgen
data_CaLaAl3O7
_symmetry_space_group_name_H-M   'P 1'
_cell_length_a   7.87545400
_cell_length_b   5.20631300
_cell_length_c   7.87079319
_cell_angle_alpha   89.24397565
_cell_angle_beta   90.00000000
_cell_angle_gamma   90.00000000
_symmetry_Int_Tables_number   1
_chemical_formula_structural   CaLaAl3O7
_chemical_formula_sum   'Ca2 La2 Al6 O14'
_cell_volume   322.69078634
_cell_formula_units_Z   2
loop_
 _symmetry_equiv_pos_site_id
 _symmetry_equiv_pos_as_xyz
  1  'x, y, z'
loop_
 _atom_site_type_symbol
 _atom_site_label
 _atom_site_symmetry_multiplicity
 _atom_site_fract_x
 _atom_site_fract_y
 _atom_site_fract_z
 _atom_site_occupancy
  Ca  Ca0  1  0.66527500  0.98703100  0.92091800  1
  Ca  Ca1  1  0.16527500  0.01296900  0.07908200  1
  La  La0  1  0.33974700  0.98664800  0.59530000  1
  La  La1  1  0.83974700  0.01335200  0.40470000  1
  Al  Al0  1  0.85660500  0.54180300  0.10281900  1
  Al  Al1  1  0.35660500  0.45819700  0.89718100  1
  Al  Al2  1  0.14382700  0.53889200  0.38962200  1
  Al  Al3  1  0.64382700  0.46110800  0.61037800  1
  Al  Al4  1  0.50054500  0.50048400  0.25060000  1
  Al  Al5  1  0.00054500  0.49951600  0.74940000  1
  O  O0  1  0.50451800  0.31622600  0.75669900  1
  O  O1  1  0.00451800  0.68377400  0.24330100  1
  O  O2  1  0.85496400  0.20537200  0.11620500  1
  O  O3  1  0.35496400  0.79462800  0.88379500  1
  O  O4  1  0.13718800  0.20242700  0.39810000  1
  O  O5  1  0.63718800  0.79757300  0.60190000  1
  O  O6  1  0.84080800  0.30990800  0.65324300  1
  O  O7  1  0.34080800  0.69009200  0.34675700  1
  O  O8  1  0.16430100  0.30313500  0.83486900  1
  O  O9  1  0.66430100  0.69686500  0.16513100  1
  O  O10  1  0.90520800  0.69073400  0.90612300  1
  O  O11  1  0.40520800  0.30926600  0.09387700  1
  O  O12  1  0.08701300  0.69504300  0.58305800  1
  O  O13  1  0.58701300  0.30495700  0.41694200  1
loop_
_geom_bond_atom_site_label_1
_geom_bond_atom_site_label_2
_geom_bond_distance
_geom_bond_site_symmetry_2
Ca0 O9 2.429051 1_556
Ca0 O2 2.435688 1_566
Ca0 O10 2.443047 1_555
Ca0 O0 2.480414 1_565
Ca0 O3 2.658736 1_555
Ca0 O5 2.718818 1_555
Ca0 O11 2.987123 1_566
Ca0 O6 3.013636 1_565
Ca1 O8 2.429051 1_554
Ca1 O3 2.435688 1_544
Ca1 O11 2.443047 1_555
Ca1 O1 2.480414 1_545
Ca1 O2 2.658736 1_455
Ca1 O4 2.718818 1_555
Ca1 O10 2.987123 1_444
Ca1 O7 3.013636 1_545
La0 O3 2.471821 1_555
La0 O4 2.483933 1_565
La0 O12 2.505935 1_555
La0 O7 2.508074 1_555
La0 O0 2.509867 1_565
La0 O5 2.541178 1_555
La0 O8 2.874305 1_565
La0 O13 2.906507 1_565
La1 O2 2.471821 1_555
La1 O5 2.483933 1_545
La1 O13 2.505935 1_555
La1 O6 2.508074 1_555
La1 O1 2.509867 1_645
La1 O4 2.541178 1_655
La1 O9 2.874305 1_545
La1 O12 2.906507 1_645
Al0 O2 1.753390 1_555
Al0 O10 1.764322 1_554
Al0 O1 1.774102 1_655
Al0 O9 1.787841 1_555
Al1 O3 1.753390 1_555
Al1 O11 1.764322 1_556
Al1 O0 1.774102 1_555
Al1 O8 1.787841 1_555
Al2 O4 1.752912 1_555
Al2 O1 1.753866 1_555
Al2 O7 1.770048 1_555
Al2 O12 1.792142 1_555
Al3 O5 1.752912 1_555
Al3 O0 1.753866 1_555
Al3 O6 1.770048 1_555
Al3 O13 1.792142 1_555
Al4 O11 1.763193 1_555
Al4 O9 1.772833 1_555
Al4 O7 1.774700 1_555
Al4 O13 1.782960 1_555
Al5 O10 1.763193 1_455
Al5 O8 1.772833 1_555
Al5 O6 1.774700 1_455
Al5 O12 1.782960 1_555
