# generated using pymatgen
data_CsMg6Mo
_symmetry_space_group_name_H-M   'P 1'
_cell_length_a   7.27382604
_cell_length_b   7.27382604
_cell_length_c   3.91651400
_cell_angle_alpha   90.00000000
_cell_angle_beta   90.00000000
_cell_angle_gamma   90.20487091
_symmetry_Int_Tables_number   1
_chemical_formula_structural   CsMg6Mo
_chemical_formula_sum   'Cs1 Mg6 Mo1'
_cell_volume   207.21573371
_cell_formula_units_Z   1
loop_
 _symmetry_equiv_pos_site_id
 _symmetry_equiv_pos_as_xyz
  1  'x, y, z'
loop_
 _atom_site_type_symbol
 _atom_site_label
 _atom_site_symmetry_multiplicity
 _atom_site_fract_x
 _atom_site_fract_y
 _atom_site_fract_z
 _atom_site_occupancy
  Cs  Cs0  1  0.87252700  0.12747300  0.50000000  1
  Mg  Mg0  1  0.37374400  0.11839800  0.50000000  1
  Mg  Mg1  1  0.88160200  0.62625600  0.50000000  1
  Mg  Mg2  1  0.17730500  0.42422200  0.00000000  1
  Mg  Mg3  1  0.57577800  0.82269500  0.00000000  1
  Mg  Mg4  1  0.57162800  0.42837200  0.00000000  1
  Mg  Mg5  1  0.17546300  0.82453700  0.00000000  1
  Mo  Mo0  1  0.37195900  0.62804100  0.50000000  1
loop_
_geom_bond_atom_site_label_1
_geom_bond_atom_site_label_2
_geom_bond_distance
_geom_bond_site_symmetry_2
Cs0 Mg1 3.628425 1_555
Cs0 Mg0 3.628425 1_555
Cs0 Mg0 3.646599 1_655
Cs0 Mg1 3.646599 1_545
Cs0 Mg3 3.657093 1_545
Cs0 Mg3 3.657093 1_546
Cs0 Mg2 3.657093 1_655
Cs0 Mg2 3.657093 1_656
Cs0 Mg4 3.667387 1_555
Cs0 Mg4 3.667387 1_556
Cs0 Mg5 3.685153 1_645
Cs0 Mg5 3.685153 1_646
Mg0 Mg5 3.234459 1_545
Mg0 Mg5 3.234459 1_546
Mg0 Mg3 3.262410 1_545
Mg0 Mg3 3.262410 1_546
Mg0 Mg2 3.293569 1_556
Mg0 Mg2 3.293569 1_555
Mg0 Mg4 3.311649 1_556
Mg0 Mg4 3.311649 1_555
Mg0 Mo0 3.566749 1_545
Mg1 Mg5 3.234459 1_656
Mg1 Mg5 3.234459 1_655
Mg1 Mg2 3.262410 1_655
Mg1 Mg2 3.262410 1_656
Mg1 Mg3 3.293569 1_555
Mg1 Mg3 3.293569 1_556
Mg1 Mg4 3.311649 1_556
Mg1 Mg4 3.311649 1_555
Mg1 Mo0 3.566749 1_655
Mg2 Mo0 2.832386 1_555
Mg2 Mo0 2.832386 1_554
Mg3 Mo0 2.832386 1_555
Mg3 Mo0 2.832386 1_554
Mg4 Mo0 2.840518 1_555
Mg4 Mo0 2.840518 1_554
Mg5 Mo0 2.816922 1_555
Mg5 Mo0 2.816922 1_554
