# generated using pymatgen
data_Li2MnCoO4
_symmetry_space_group_name_H-M   'P 1'
_cell_length_a   5.86080720
_cell_length_b   5.86080720
_cell_length_c   5.11271323
_cell_angle_alpha   70.16215159
_cell_angle_beta   70.16215159
_cell_angle_gamma   56.97671696
_symmetry_Int_Tables_number   1
_chemical_formula_structural   Li2MnCoO4
_chemical_formula_sum   'Li4 Mn2 Co2 O8'
_cell_volume   135.82720191
_cell_formula_units_Z   2
loop_
 _symmetry_equiv_pos_site_id
 _symmetry_equiv_pos_as_xyz
  1  'x, y, z'
loop_
 _atom_site_type_symbol
 _atom_site_label
 _atom_site_symmetry_multiplicity
 _atom_site_fract_x
 _atom_site_fract_y
 _atom_site_fract_z
 _atom_site_occupancy
  Li  Li0  1  0.37721620  0.12730536  0.76579481  1
  Li  Li1  1  0.87269464  0.62278380  0.73420519  1
  Li  Li2  1  0.62278380  0.87269464  0.23420519  1
  Li  Li3  1  0.12730536  0.37721620  0.26579481  1
  Mn  Mn0  1  0.37340892  0.62659108  0.75000000  1
  Mn  Mn1  1  0.62659108  0.37340892  0.25000000  1
  Co  Co0  1  0.87395400  0.12604600  0.75000000  1
  Co  Co1  1  0.12604600  0.87395400  0.25000000  1
  O  O0  1  0.23008203  0.98463272  0.49604016  1
  O  O1  1  0.74255617  0.49387398  0.52213588  1
  O  O2  1  0.49387398  0.74255617  0.02213588  1
  O  O3  1  0.98463272  0.23008203  -0.00395984  1
  O  O4  1  0.50612602  0.25744383  0.97786412  1
  O  O5  1  0.01536728  0.76991797  0.00395984  1
  O  O6  1  0.76991797  0.01536728  0.50395984  1
  O  O7  1  0.25744383  0.50612602  0.47786412  1
loop_
_geom_bond_atom_site_label_1
_geom_bond_atom_site_label_2
_geom_bond_distance
_geom_bond_site_symmetry_2
Li0 O4 2.018288 1_555
Li0 O3 2.043246 1_456
Li0 O2 2.047392 1_546
Li0 O7 2.091288 1_555
Li0 O6 2.092549 1_555
Li0 O0 2.391814 1_545
Li1 O1 2.018288 1_555
Li1 O6 2.043246 1_565
Li1 O7 2.047392 1_655
Li1 O2 2.091288 1_556
Li1 O3 2.092549 1_556
Li1 O5 2.391814 1_656
Li2 O2 2.018288 1_555
Li2 O5 2.043246 1_655
Li2 O4 2.047392 1_564
Li2 O1 2.091288 1_555
Li2 O0 2.092549 1_555
Li2 O6 2.391814 1_565
Li3 O7 2.018288 1_555
Li3 O0 2.043246 1_545
Li3 O1 2.047392 1_455
Li3 O4 2.091288 1_554
Li3 O5 2.092549 1_555
Li3 O3 2.391814 1_455
Mn0 O4 1.926941 1_555
Mn0 O1 1.926941 1_555
Mn0 O5 1.940261 1_556
Mn0 O0 1.940261 1_555
Mn0 O7 2.174352 1_555
Mn0 O2 2.174352 1_556
Mn1 O7 1.926941 1_555
Mn1 O2 1.926941 1_555
Mn1 O3 1.940261 1_555
Mn1 O6 1.940261 1_555
Mn1 O1 2.174352 1_555
Mn1 O4 2.174352 1_554
Co0 O1 1.921578 1_555
Co0 O4 1.921578 1_555
Co0 O0 1.932547 1_645
Co0 O5 1.932547 1_646
Co0 O6 1.969882 1_555
Co0 O3 1.969882 1_556
Co1 O2 1.921578 1_555
Co1 O7 1.921578 1_555
Co1 O3 1.932547 1_465
Co1 O6 1.932547 1_465
Co1 O0 1.969882 1_555
Co1 O5 1.969882 1_555
