# generated using pymatgen
data_SrNdMnCoO6
_symmetry_space_group_name_H-M   'P 1'
_cell_length_a   5.48048626
_cell_length_b   5.48048626
_cell_length_c   5.48048626
_cell_angle_alpha   60.00000000
_cell_angle_beta   60.00000000
_cell_angle_gamma   60.00000000
_symmetry_Int_Tables_number   1
_chemical_formula_structural   SrNdMnCoO6
_chemical_formula_sum   'Sr1 Nd1 Mn1 Co1 O6'
_cell_volume   116.39713279
_cell_formula_units_Z   1
loop_
 _symmetry_equiv_pos_site_id
 _symmetry_equiv_pos_as_xyz
  1  'x, y, z'
loop_
 _atom_site_type_symbol
 _atom_site_label
 _atom_site_symmetry_multiplicity
 _atom_site_fract_x
 _atom_site_fract_y
 _atom_site_fract_z
 _atom_site_occupancy
  Sr  Sr0  1  0.50000000  0.50000000  0.50000000  1
  Nd  Nd0  1  0.00000000  0.00000000  0.00000000  1
  Mn  Mn0  1  0.75000000  0.75000000  0.75000000  1
  Co  Co0  1  0.25000000  0.25000000  0.25000000  1
  O  O0  1  0.50623600  0.50623600  0.99376400  1
  O  O1  1  0.99376400  0.99376400  0.50623600  1
  O  O2  1  0.99376400  0.50623600  0.50623600  1
  O  O3  1  0.50623600  0.99376400  0.99376400  1
  O  O4  1  0.50623600  0.99376400  0.50623600  1
  O  O5  1  0.99376400  0.50623600  0.99376400  1
loop_
_geom_bond_atom_site_label_1
_geom_bond_atom_site_label_2
_geom_bond_distance
_geom_bond_site_symmetry_2
Nd0 O2 2.740669 1_445
Nd0 O3 2.740669 1_544
Nd0 O0 2.740669 1_544
Nd0 O2 2.740669 1_454
Nd0 O4 2.740669 1_445
Nd0 O4 2.740669 1_544
Nd0 O1 2.740669 1_444
Nd0 O1 2.740669 1_445
Nd0 O3 2.740669 1_444
Nd0 O5 2.740669 1_444
Nd0 O5 2.740669 1_454
Nd0 O0 2.740669 1_454
Mn0 O3 1.889312 1_555
Mn0 O0 1.889312 1_555
Mn0 O2 1.889312 1_555
Mn0 O4 1.889312 1_555
Mn0 O1 1.889312 1_555
Mn0 O5 1.889312 1_555
Co0 O1 1.985977 1_445
Co0 O4 1.985977 1_545
Co0 O0 1.985977 1_554
Co0 O5 1.985977 1_454
Co0 O3 1.985977 1_544
Co0 O2 1.985977 1_455
O0 Sr0 2.740669 1_556
O0 Sr0 2.740669 1_555
O1 Sr0 2.740669 1_565
O1 Sr0 2.740669 1_655
O2 Sr0 2.740669 1_655
O2 Sr0 2.740669 1_555
O3 Sr0 2.740669 1_556
O3 Sr0 2.740669 1_565
O4 Sr0 2.740669 1_565
O4 Sr0 2.740669 1_555
O5 Sr0 2.740669 1_556
O5 Sr0 2.740669 1_655
