# generated using pymatgen
data_LiAlSiH2O5
_symmetry_space_group_name_H-M   'P 1'
_cell_length_a   5.12029400
_cell_length_b   7.99906000
_cell_length_c   10.61565700
_cell_angle_alpha   90.00000000
_cell_angle_beta   90.00000000
_cell_angle_gamma   90.00000000
_symmetry_Int_Tables_number   1
_chemical_formula_structural   LiAlSiH2O5
_chemical_formula_sum   'Li4 Al4 Si4 H8 O20'
_cell_volume   434.79118478
_cell_formula_units_Z   4
loop_
 _symmetry_equiv_pos_site_id
 _symmetry_equiv_pos_as_xyz
  1  'x, y, z'
loop_
 _atom_site_type_symbol
 _atom_site_label
 _atom_site_symmetry_multiplicity
 _atom_site_fract_x
 _atom_site_fract_y
 _atom_site_fract_z
 _atom_site_occupancy
  Li  Li0  1  0.76475100  0.15764600  0.68552100  1
  Li  Li1  1  0.26475100  0.84235400  0.31447900  1
  Li  Li2  1  0.26475100  0.65764600  0.81447900  1
  Li  Li3  1  0.76475100  0.34235400  0.18552100  1
  Al  Al0  1  0.76128700  0.56668300  0.66104300  1
  Al  Al1  1  0.26128700  0.43331700  0.33895700  1
  Al  Al2  1  0.26128700  0.06668300  0.83895700  1
  Al  Al3  1  0.76128700  0.93331700  0.16104300  1
  Si  Si0  1  0.76167500  0.85337700  0.86821000  1
  Si  Si1  1  0.26167500  0.14662300  0.13179000  1
  Si  Si2  1  0.26167500  0.35337700  0.63179000  1
  Si  Si3  1  0.76167500  0.64662300  0.36821000  1
  H  H0  1  0.86181200  0.61052900  0.05325700  1
  H  H1  1  0.36181200  0.38947100  0.94674300  1
  H  H2  1  0.36181200  0.11052900  0.44674300  1
  H  H3  1  0.86181200  0.88947100  0.55325700  1
  H  H4  1  0.34542800  0.53949700  0.03410000  1
  H  H5  1  0.84542800  0.46050300  0.96590000  1
  H  H6  1  0.84542800  0.03949700  0.46590000  1
  H  H7  1  0.34542800  0.96050300  0.53410000  1
  O  O0  1  0.81108900  0.67734700  0.51920500  1
  O  O1  1  0.31108900  0.32265300  0.48079500  1
  O  O2  1  0.31108900  0.17734700  0.98079500  1
  O  O3  1  0.81108900  0.82265300  0.01920500  1
  O  O4  1  0.87115700  0.69026700  0.78949600  1
  O  O5  1  0.37115700  0.30973300  0.21050400  1
  O  O6  1  0.37115700  0.19026700  0.71050400  1
  O  O7  1  0.87115700  0.80973300  0.28949600  1
  O  O8  1  0.42564200  0.51962700  0.67741700  1
  O  O9  1  0.92564200  0.48037300  0.32258300  1
  O  O10  1  0.92564200  0.01962700  0.82258300  1
  O  O11  1  0.42564200  0.98037300  0.17741700  1
  O  O12  1  0.94990200  0.37988500  0.66491500  1
  O  O13  1  0.44990200  0.62011500  0.33508500  1
  O  O14  1  0.44990200  0.87988500  0.83508500  1
  O  O15  1  0.94990200  0.12011500  0.16491500  1
  O  O16  1  0.88715700  0.48739300  0.05324200  1
  O  O17  1  0.38715700  0.51260700  0.94675800  1
  O  O18  1  0.38715700  0.98739300  0.44675800  1
  O  O19  1  0.88715700  0.01260700  0.55324200  1
loop_
_geom_bond_atom_site_label_1
_geom_bond_atom_site_label_2
_geom_bond_distance
_geom_bond_site_symmetry_2
Li0 O19 1.926314 1_555
Li0 O10 2.003637 1_555
Li0 O12 2.026533 1_555
Li0 O6 2.049373 1_555
Li1 O18 1.926314 1_555
Li1 O11 2.003637 1_555
Li1 O13 2.026533 1_555
Li1 O7 2.049373 1_455
Li2 O17 1.926314 1_555
Li2 O8 2.003637 1_555
Li2 O14 2.026533 1_555
Li2 O4 2.049373 1_455
Li3 O16 1.926314 1_555
Li3 O9 2.003637 1_555
Li3 O15 2.026533 1_555
Li3 O5 2.049373 1_555
Al0 O0 1.765152 1_555
Al0 O8 1.767904 1_555
Al0 O4 1.775715 1_555
Al0 O12 1.779620 1_555
Al1 O1 1.765152 1_555
Al1 O9 1.767904 1_455
Al1 O5 1.775715 1_555
Al1 O13 1.779620 1_555
Al2 O2 1.765152 1_555
Al2 O10 1.767904 1_455
Al2 O6 1.775715 1_555
Al2 O14 1.779620 1_545
Al3 O3 1.765152 1_555
Al3 O11 1.767904 1_555
Al3 O7 1.775715 1_555
Al3 O15 1.779620 1_565
H0 O16 0.993485 1_555
H1 O17 0.993485 1_555
H2 O18 0.993485 1_545
H3 O19 0.993485 1_565
H4 O17 0.975502 1_554
H5 O16 0.975502 1_556
H6 O19 0.975502 1_555
H7 O18 0.975502 1_555
O0 Si3 1.641262 1_555
O1 Si2 1.641262 1_555
O2 Si1 1.641262 1_556
O3 Si0 1.641262 1_554
O4 Si0 1.647662 1_555
O5 Si1 1.647662 1_555
O6 Si2 1.647662 1_555
O7 Si3 1.647662 1_555
O8 Si2 1.645585 1_555
O9 Si3 1.645585 1_555
O10 Si0 1.645585 1_545
O11 Si1 1.645585 1_565
O12 Si2 1.648335 1_655
O13 Si3 1.648335 1_555
O14 Si0 1.648335 1_555
O15 Si1 1.648335 1_655
