# generated using pymatgen
data_Pu2SnPt2
_symmetry_space_group_name_H-M   'P 1'
_cell_length_a   7.74145187
_cell_length_b   7.74145187
_cell_length_c   3.78805988
_cell_angle_alpha   90.00000000
_cell_angle_beta   90.00000000
_cell_angle_gamma   90.00000000
_symmetry_Int_Tables_number   1
_chemical_formula_structural   Pu2SnPt2
_chemical_formula_sum   'Pu4 Sn2 Pt4'
_cell_volume   227.01872050
_cell_formula_units_Z   2
loop_
 _symmetry_equiv_pos_site_id
 _symmetry_equiv_pos_as_xyz
  1  'x, y, z'
loop_
 _atom_site_type_symbol
 _atom_site_label
 _atom_site_symmetry_multiplicity
 _atom_site_fract_x
 _atom_site_fract_y
 _atom_site_fract_z
 _atom_site_occupancy
  Pu  Pu0  1  0.32447776  0.82447776  0.50000000  1
  Pu  Pu1  1  0.82447776  0.67552224  0.50000000  1
  Pu  Pu2  1  0.17552224  0.32447776  0.50000000  1
  Pu  Pu3  1  0.67552224  0.17552224  0.50000000  1
  Sn  Sn0  1  0.50000000  0.50000000  0.00000000  1
  Sn  Sn1  1  0.00000000  0.00000000  0.00000000  1
  Pt  Pt0  1  0.12793590  0.62793590  -0.00000000  1
  Pt  Pt1  1  0.62793590  0.87206410  -0.00000000  1
  Pt  Pt2  1  0.87206410  0.37206410  0.00000000  1
  Pt  Pt3  1  0.37206410  0.12793590  0.00000000  1
loop_
_geom_bond_atom_site_label_1
_geom_bond_atom_site_label_2
_geom_bond_distance
_geom_bond_site_symmetry_2
Pu0 Sn0 3.426874 1_555
Pu0 Sn0 3.426874 1_556
Pu0 Sn1 3.426874 1_565
Pu0 Sn1 3.426874 1_566
Pu1 Sn1 3.426874 1_666
Pu1 Sn0 3.426874 1_555
Pu1 Sn0 3.426874 1_556
Pu1 Sn1 3.426874 1_665
Pu2 Sn0 3.426874 1_555
Pu2 Sn1 3.426874 1_556
Pu2 Sn0 3.426874 1_556
Pu2 Sn1 3.426874 1_555
Pu3 Sn1 3.426874 1_655
Pu3 Sn1 3.426874 1_656
Pu3 Sn0 3.426874 1_555
Pu3 Sn0 3.426874 1_556
Pt0 Pt2 2.801301 1_455
Pt0 Pu0 2.866599 1_554
Pt0 Pu0 2.866599 1_555
Pt0 Pu2 3.040038 1_555
Pt0 Pu2 3.040038 1_554
Pt0 Pu1 3.040038 1_455
Pt0 Pu1 3.040038 1_454
Pt0 Sn0 3.045839 1_555
Pt0 Sn1 3.045839 1_565
Pt1 Pt3 2.801301 1_565
Pt1 Pu1 2.866599 1_554
Pt1 Pu1 2.866599 1_555
Pt1 Pu0 3.040038 1_555
Pt1 Pu0 3.040038 1_554
Pt1 Pu3 3.040038 1_565
Pt1 Pu3 3.040038 1_564
Pt1 Sn1 3.045839 1_665
Pt1 Sn0 3.045839 1_555
Pt2 Pu3 2.866599 1_554
Pt2 Pu3 2.866599 1_555
Pt2 Pu1 3.040038 1_555
Pt2 Pu2 3.040038 1_654
Pt2 Pu2 3.040038 1_655
Pt2 Pu1 3.040038 1_554
Pt2 Sn0 3.045839 1_555
Pt2 Sn1 3.045839 1_655
Pt3 Pu2 2.866599 1_554
Pt3 Pu2 2.866599 1_555
Pt3 Pu0 3.040038 1_545
Pt3 Pu3 3.040038 1_554
Pt3 Pu0 3.040038 1_544
Pt3 Pu3 3.040038 1_555
Pt3 Sn1 3.045839 1_555
Pt3 Sn0 3.045839 1_555
