# generated using pymatgen
data_KAgC2
_symmetry_space_group_name_H-M   'P 1'
_cell_length_a   4.33670900
_cell_length_b   4.33670900
_cell_length_c   5.34355000
_cell_angle_alpha   90.00000000
_cell_angle_beta   90.00000000
_cell_angle_gamma   90.00000000
_symmetry_Int_Tables_number   1
_chemical_formula_structural   KAgC2
_chemical_formula_sum   'K1 Ag1 C2'
_cell_volume   100.49638505
_cell_formula_units_Z   1
loop_
 _symmetry_equiv_pos_site_id
 _symmetry_equiv_pos_as_xyz
  1  'x, y, z'
loop_
 _atom_site_type_symbol
 _atom_site_label
 _atom_site_symmetry_multiplicity
 _atom_site_fract_x
 _atom_site_fract_y
 _atom_site_fract_z
 _atom_site_occupancy
  K  K0  1  0.50000000  0.50000000  0.50000000  1
  Ag  Ag0  1  0.00000000  0.00000000  0.00000000  1
  C  C0  1  0.00000000  0.00000000  0.61690700  1
  C  C1  1  0.00000000  0.00000000  0.38309300  1
loop_
_geom_bond_atom_site_label_1
_geom_bond_atom_site_label_2
_geom_bond_distance
_geom_bond_site_symmetry_2
Ag0 C1 2.047077 1_555
Ag0 C0 2.047077 1_554
C0 C1 1.249397 1_555
C0 K0 3.129500 1_545
C0 K0 3.129500 1_455
C0 K0 3.129500 1_555
C0 K0 3.129500 1_445
C1 K0 3.129500 1_555
C1 K0 3.129500 1_445
C1 K0 3.129500 1_545
C1 K0 3.129500 1_455
