# generated using pymatgen
data_Pr(BC)2
_symmetry_space_group_name_H-M   'P 1'
_cell_length_a   3.89270627
_cell_length_b   5.38781869
_cell_length_c   5.38781869
_cell_angle_alpha   90.00000000
_cell_angle_beta   90.00000000
_cell_angle_gamma   90.00000000
_symmetry_Int_Tables_number   1
_chemical_formula_structural   Pr(BC)2
_chemical_formula_sum   'Pr2 B4 C4'
_cell_volume   112.99977522
_cell_formula_units_Z   2
loop_
 _symmetry_equiv_pos_site_id
 _symmetry_equiv_pos_as_xyz
  1  'x, y, z'
loop_
 _atom_site_type_symbol
 _atom_site_label
 _atom_site_symmetry_multiplicity
 _atom_site_fract_x
 _atom_site_fract_y
 _atom_site_fract_z
 _atom_site_occupancy
  Pr  Pr0  1  0.00000000  0.50000000  0.50000000  1
  Pr  Pr1  1  0.00000000  -0.00000000  -0.00000000  1
  B  B0  1  0.50000000  0.63779183  0.13779183  1
  B  B1  1  0.50000000  0.86220817  0.63779183  1
  B  B2  1  0.50000000  0.36220917  0.86220817  1
  B  B3  1  0.50000000  0.13779183  0.36220917  1
  C  C0  1  0.50000000  0.66080392  0.83919608  1
  C  C1  1  0.50000000  0.83919608  0.33919608  1
  C  C2  1  0.50000000  0.16080392  0.66080392  1
  C  C3  1  0.50000000  0.33919608  0.16080392  1
loop_
_geom_bond_atom_site_label_1
_geom_bond_atom_site_label_2
_geom_bond_distance
_geom_bond_site_symmetry_2
B0 C1 1.534605 1_555
B0 C0 1.613550 1_554
B0 C3 1.613550 1_555
B0 Pr1 2.854443 1_665
B0 Pr0 2.854443 1_555
B0 Pr0 2.854443 1_655
B0 Pr1 2.854443 1_565
B1 C0 1.534605 1_555
B1 C2 1.613550 1_565
B1 C1 1.613550 1_555
B1 Pr0 2.854443 1_555
B1 Pr0 2.854443 1_655
B1 Pr1 2.854443 1_566
B1 Pr1 2.854443 1_666
B2 C2 1.534609 1_555
B2 C0 1.613545 1_555
B2 C3 1.613551 1_556
B2 Pr0 2.854441 1_555
B2 Pr0 2.854441 1_655
B2 Pr1 2.854446 1_556
B2 Pr1 2.854446 1_656
B3 C3 1.534609 1_555
B3 C2 1.613545 1_555
B3 C1 1.613551 1_545
B3 Pr0 2.854441 1_555
B3 Pr0 2.854441 1_655
B3 Pr1 2.854446 1_555
B3 Pr1 2.854446 1_655
C0 Pr1 2.806914 1_566
C0 Pr1 2.806914 1_666
C0 Pr0 2.806914 1_555
C0 Pr0 2.806914 1_655
C1 Pr1 2.806914 1_565
C1 Pr1 2.806914 1_665
C1 Pr0 2.806914 1_555
C1 Pr0 2.806914 1_655
C2 Pr1 2.806914 1_556
C2 Pr1 2.806914 1_656
C2 Pr0 2.806914 1_555
C2 Pr0 2.806914 1_655
C3 Pr1 2.806914 1_655
C3 Pr1 2.806914 1_555
C3 Pr0 2.806914 1_555
C3 Pr0 2.806914 1_655
