# generated using pymatgen
data_Mg2Si3
_symmetry_space_group_name_H-M   'P 1'
_cell_length_a   6.18660242
_cell_length_b   6.18660242
_cell_length_c   17.50801525
_cell_angle_alpha   79.41369102
_cell_angle_beta   79.41369102
_cell_angle_gamma   36.14205971
_symmetry_Int_Tables_number   1
_chemical_formula_structural   Mg2Si3
_chemical_formula_sum   'Mg8 Si12'
_cell_volume   387.76940776
_cell_formula_units_Z   4
loop_
 _symmetry_equiv_pos_site_id
 _symmetry_equiv_pos_as_xyz
  1  'x, y, z'
loop_
 _atom_site_type_symbol
 _atom_site_label
 _atom_site_symmetry_multiplicity
 _atom_site_fract_x
 _atom_site_fract_y
 _atom_site_fract_z
 _atom_site_occupancy
  Mg  Mg0  1  0.03190000  0.03190000  0.75374700  1
  Mg  Mg1  1  0.47076700  0.47076700  0.25489600  1
  Mg  Mg2  1  0.04323500  0.04323500  0.92487100  1
  Mg  Mg3  1  0.45886100  0.45886100  0.07198700  1
  Mg  Mg4  1  0.18291400  0.18291400  0.24874200  1
  Mg  Mg5  1  0.30981700  0.30981700  0.74887600  1
  Mg  Mg6  1  0.92373800  0.92373800  0.42106700  1
  Mg  Mg7  1  0.30230300  0.30230300  0.57003600  1
  Si  Si0  1  0.33666000  0.33666000  0.95206800  1
  Si  Si1  1  0.15882600  0.15882600  0.04590100  1
  Si  Si2  1  0.83231600  0.83231600  0.86881000  1
  Si  Si3  1  0.66249400  0.66249400  0.13059600  1
  Si  Si4  1  0.81036300  0.81036300  0.30666900  1
  Si  Si5  1  0.69448000  0.69448000  0.67708800  1
  Si  Si6  1  0.17217900  0.17217900  0.45503000  1
  Si  Si7  1  0.00277000  0.00277000  0.55711300  1
  Si  Si8  1  0.61546400  0.61546400  0.38348300  1
  Si  Si9  1  0.50829300  0.50829300  0.63859400  1
  Si  Si10  1  0.65275300  0.65275300  0.82084700  1
  Si  Si11  1  0.84800700  0.84800700  0.16968000  1
loop_
_geom_bond_atom_site_label_1
_geom_bond_atom_site_label_2
_geom_bond_distance
_geom_bond_site_symmetry_2
Mg0 Si10 2.780156 1_455
Mg0 Si10 2.780156 1_545
Mg0 Si2 2.782443 1_445
Mg0 Si9 2.835654 1_455
Mg0 Si9 2.835654 1_545
Mg0 Si5 2.854717 1_545
Mg0 Si5 2.854717 1_455
Mg1 Si4 2.720929 1_455
Mg1 Si4 2.720929 1_545
Mg1 Si3 2.815193 1_555
Mg1 Si11 2.970955 1_455
Mg1 Si11 2.970955 1_545
Mg1 Si8 3.073490 1_555
Mg2 Si1 2.729915 1_556
Mg2 Si10 2.784334 1_545
Mg2 Si10 2.784334 1_455
Mg2 Si2 2.839010 1_445
Mg2 Si0 3.060524 1_455
Mg2 Si0 3.060524 1_545
Mg3 Si11 2.728845 1_545
Mg3 Si11 2.728845 1_455
Mg3 Si0 2.764188 1_554
Mg3 Si3 2.782159 1_555
Mg3 Si1 3.001472 1_565
Mg3 Si1 3.001472 1_655
Mg4 Si4 2.747090 1_455
Mg4 Si4 2.747090 1_545
Mg4 Si3 2.865521 1_455
Mg4 Si3 2.865521 1_545
Mg4 Si11 2.886370 1_455
Mg4 Si11 2.886370 1_545
Mg4 Si8 3.025555 1_455
Mg4 Si8 3.025555 1_545
Mg5 Si9 2.726975 1_555
Mg5 Si5 2.786066 1_545
Mg5 Si5 2.786066 1_455
Mg5 Si10 2.790005 1_455
Mg5 Si10 2.790005 1_545
Mg5 Si2 2.894269 1_455
Mg5 Si2 2.894269 1_545
Mg6 Si4 2.611978 1_555
Mg6 Si7 2.719097 1_665
Mg6 Si8 2.937406 1_565
Mg6 Si8 2.937406 1_655
Mg6 Si6 3.092814 1_665
Mg7 Si6 2.754686 1_555
Mg7 Si5 2.808114 1_545
Mg7 Si5 2.808114 1_455
Mg7 Si9 2.904468 1_555
Mg7 Si7 3.014672 1_565
Mg7 Si7 3.014672 1_655
Si0 Si1 2.397178 1_556
Si0 Si2 2.416407 1_455
Si0 Si2 2.416407 1_545
Si1 Si3 2.430677 1_455
Si1 Si3 2.430677 1_545
Si4 Si8 2.423404 1_555
Si5 Si9 2.412716 1_555
Si6 Si7 2.405992 1_555
Si6 Si8 2.453560 1_455
Si6 Si8 2.453560 1_545
Si7 Si9 2.399568 1_545
Si7 Si9 2.399568 1_455
Si10 Si2 2.419084 1_555
Si10 Si5 2.469494 1_555
Si11 Si4 2.353286 1_555
Si11 Si3 2.409816 1_555
