# generated using pymatgen
data_Na(CrS2)2
_symmetry_space_group_name_H-M   'P 1'
_cell_length_a   11.58898200
_cell_length_b   7.26358500
_cell_length_c   12.05719900
_cell_angle_alpha   90.00000000
_cell_angle_beta   90.00000000
_cell_angle_gamma   90.00000000
_symmetry_Int_Tables_number   1
_chemical_formula_structural   Na(CrS2)2
_chemical_formula_sum   'Na8 Cr16 S32'
_cell_volume   1014.94554186
_cell_formula_units_Z   8
loop_
 _symmetry_equiv_pos_site_id
 _symmetry_equiv_pos_as_xyz
  1  'x, y, z'
loop_
 _atom_site_type_symbol
 _atom_site_label
 _atom_site_symmetry_multiplicity
 _atom_site_fract_x
 _atom_site_fract_y
 _atom_site_fract_z
 _atom_site_occupancy
  Na  Na0  1  0.08556400  0.38355200  0.66963800  1
  Na  Na1  1  0.91443600  0.61644800  0.16963800  1
  Na  Na2  1  0.41443600  0.38355200  0.16963800  1
  Na  Na3  1  0.58556400  0.61644800  0.66963800  1
  Na  Na4  1  0.11684600  0.87624000  0.32910900  1
  Na  Na5  1  0.88315400  0.12376000  0.82910900  1
  Na  Na6  1  0.38315400  0.87624000  0.82910900  1
  Na  Na7  1  0.61684600  0.12376000  0.32910900  1
  Cr  Cr0  1  0.11929800  0.86968900  0.69456200  1
  Cr  Cr1  1  0.88070200  0.13031100  0.19456200  1
  Cr  Cr2  1  0.38070200  0.86968900  0.19456200  1
  Cr  Cr3  1  0.61929800  0.13031100  0.69456200  1
  Cr  Cr4  1  0.13467300  0.35097500  0.32510600  1
  Cr  Cr5  1  0.86532700  0.64902500  0.82510600  1
  Cr  Cr6  1  0.36532700  0.35097500  0.82510600  1
  Cr  Cr7  1  0.63467300  0.64902500  0.32510600  1
  Cr  Cr8  1  0.15438200  0.61824000  0.93885500  1
  Cr  Cr9  1  0.84561800  0.38176000  0.43885500  1
  Cr  Cr10  1  0.34561800  0.61824000  0.43885500  1
  Cr  Cr11  1  0.65438200  0.38176000  0.93885500  1
  Cr  Cr12  1  0.13023000  0.10970800  0.99330000  1
  Cr  Cr13  1  0.86977000  0.89029200  0.49330000  1
  Cr  Cr14  1  0.36977000  0.10970800  0.49330000  1
  Cr  Cr15  1  0.63023000  0.89029200  0.99330000  1
  S  S0  1  0.02928200  0.85416700  0.87734600  1
  S  S1  1  0.97071800  0.14583300  0.37734600  1
  S  S2  1  0.47071800  0.85416700  0.37734600  1
  S  S3  1  0.52928200  0.14583300  0.87734600  1
  S  S4  1  0.04750000  0.31165800  0.14750500  1
  S  S5  1  0.95250000  0.68834200  0.64750500  1
  S  S6  1  0.45250000  0.31165800  0.64750500  1
  S  S7  1  0.54750000  0.68834200  0.14750500  1
  S  S8  1  0.00070200  0.43634200  0.89853900  1
  S  S9  1  0.99929800  0.56365800  0.39853900  1
  S  S10  1  0.49929800  0.43634200  0.39853900  1
  S  S11  1  0.50070200  0.56365800  0.89853900  1
  S  S12  1  0.01266900  0.93690300  0.11772400  1
  S  S13  1  0.98733100  0.06309700  0.61772400  1
  S  S14  1  0.48733100  0.93690300  0.61772400  1
  S  S15  1  0.51266900  0.06309700  0.11772400  1
  S  S16  1  0.24178600  0.85521000  0.53378800  1
  S  S17  1  0.75821400  0.14479000  0.03378800  1
  S  S18  1  0.25821400  0.85521000  0.03378800  1
  S  S19  1  0.74178600  0.14479000  0.53378800  1
  S  S20  1  0.23752200  0.36295700  0.49789900  1
  S  S21  1  0.76247800  0.63704300  0.99789900  1
  S  S22  1  0.26247800  0.36295700  0.99789900  1
  S  S23  1  0.73752200  0.63704300  0.49789900  1
  S  S24  1  0.20806100  0.12433200  0.80285600  1
  S  S25  1  0.79193900  0.87566800  0.30285600  1
  S  S26  1  0.29193900  0.12433200  0.30285600  1
  S  S27  1  0.70806100  0.87566800  0.80285600  1
  S  S28  1  0.23940600  0.60770200  0.77077200  1
  S  S29  1  0.76059400  0.39229800  0.27077300  1
  S  S30  1  0.26059400  0.60770200  0.27077300  1
  S  S31  1  0.73940600  0.39229800  0.77077200  1
loop_
_geom_bond_atom_site_label_1
_geom_bond_atom_site_label_2
_geom_bond_distance
_geom_bond_site_symmetry_2
Na0 S13 2.665664 1_455
Na0 S28 2.704878 1_555
Na0 S5 2.711167 1_455
Na0 S20 2.722388 1_555
Na0 S24 2.853154 1_555
Na0 S8 2.954878 1_555
Na1 S12 2.665664 1_655
Na1 S29 2.704884 1_555
Na1 S4 2.711167 1_655
Na1 S21 2.722388 1_554
Na1 S25 2.853154 1_555
Na1 S9 2.954878 1_555
Na2 S15 2.665664 1_555
Na2 S30 2.704884 1_555
Na2 S7 2.711167 1_555
Na2 S22 2.722388 1_554
Na2 S26 2.853154 1_555
Na2 S10 2.954878 1_555
Na3 S14 2.665664 1_555
Na3 S31 2.704878 1_555
Na3 S6 2.711167 1_555
Na3 S23 2.722388 1_555
Na3 S27 2.853154 1_555
Na3 S11 2.954878 1_555
Na4 S1 2.653434 1_465
Na4 S30 2.659806 1_555
Na4 S26 2.732212 1_565
Na4 S9 2.776970 1_455
Na4 S12 2.854412 1_555
Na4 S16 2.865334 1_555
Na5 S0 2.653434 1_645
Na5 S31 2.659809 1_555
Na5 S27 2.732212 1_545
Na5 S8 2.776970 1_655
Na5 S13 2.854412 1_555
Na5 S17 2.865334 1_556
Na6 S3 2.653434 1_565
Na6 S28 2.659809 1_555
Na6 S24 2.732212 1_565
Na6 S11 2.776970 1_555
Na6 S14 2.854412 1_555
Na6 S18 2.865334 1_556
Na7 S2 2.653434 1_545
Na7 S29 2.659806 1_555
Na7 S25 2.732212 1_545
Na7 S10 2.776970 1_555
Na7 S15 2.854412 1_555
Na7 S19 2.865334 1_555
Cr0 S13 2.273945 1_465
Cr0 S16 2.404952 1_555
Cr0 S5 2.406984 1_455
Cr0 S0 2.440897 1_555
Cr0 S24 2.486800 1_565
Cr0 S28 2.530431 1_555
Cr1 S12 2.273945 1_645
Cr1 S17 2.404952 1_555
Cr1 S4 2.406984 1_655
Cr1 S1 2.440897 1_555
Cr1 S25 2.486800 1_545
Cr1 S29 2.530435 1_555
Cr2 S15 2.273945 1_565
Cr2 S18 2.404952 1_555
Cr2 S7 2.406984 1_555
Cr2 S2 2.440897 1_555
Cr2 S26 2.486800 1_565
Cr2 S30 2.530435 1_555
Cr3 S14 2.273945 1_545
Cr3 S19 2.404952 1_555
Cr3 S6 2.406984 1_555
Cr3 S3 2.440897 1_555
Cr3 S27 2.486800 1_545
Cr3 S31 2.530431 1_555
Cr4 S9 2.373137 1_455
Cr4 S4 2.384874 1_555
Cr4 S20 2.401831 1_555
Cr4 S30 2.456833 1_555
Cr4 S26 2.470582 1_555
Cr4 S1 2.495457 1_455
Cr5 S8 2.373137 1_655
Cr5 S5 2.384874 1_555
Cr5 S21 2.401831 1_555
Cr5 S31 2.456837 1_555
Cr5 S27 2.470582 1_555
Cr5 S0 2.495457 1_655
Cr6 S11 2.373137 1_555
Cr6 S6 2.384874 1_555
Cr6 S22 2.401831 1_555
Cr6 S28 2.456837 1_555
Cr6 S24 2.470582 1_555
Cr6 S3 2.495457 1_555
Cr7 S10 2.373137 1_555
Cr7 S7 2.384874 1_555
Cr7 S23 2.401831 1_555
Cr7 S29 2.456833 1_555
Cr7 S25 2.470582 1_555
Cr7 S2 2.495457 1_555
Cr8 S28 2.254752 1_555
Cr8 S8 2.270217 1_555
Cr8 S22 2.348284 1_555
Cr8 S0 2.364014 1_555
Cr8 S18 2.391825 1_556
Cr9 S29 2.254741 1_555
Cr9 S9 2.270217 1_555
Cr9 S23 2.348284 1_555
Cr9 S1 2.364014 1_555
Cr9 S19 2.391825 1_555
Cr10 S30 2.254741 1_555
Cr10 S10 2.270217 1_555
Cr10 S20 2.348284 1_555
Cr10 S2 2.364014 1_555
Cr10 S16 2.391825 1_555
Cr11 S31 2.254752 1_555
Cr11 S11 2.270217 1_555
Cr11 S21 2.348284 1_555
Cr11 S3 2.364014 1_555
Cr11 S17 2.391825 1_556
Cr12 S12 2.383751 1_546
Cr12 S22 2.394941 1_555
Cr12 S18 2.419795 1_546
Cr12 S24 2.469309 1_555
Cr12 S4 2.554971 1_556
Cr12 S0 2.601640 1_545
Cr12 S8 3.031111 1_555
Cr13 S13 2.383751 1_565
Cr13 S23 2.394941 1_555
Cr13 S19 2.419795 1_565
Cr13 S25 2.469309 1_555
Cr13 S5 2.554971 1_555
Cr13 S1 2.601640 1_565
Cr13 S9 3.031111 1_555
Cr14 S14 2.383751 1_545
Cr14 S20 2.394941 1_555
Cr14 S16 2.419795 1_545
Cr14 S26 2.469309 1_555
Cr14 S6 2.554971 1_555
Cr14 S2 2.601640 1_545
Cr14 S10 3.031111 1_555
Cr15 S15 2.383751 1_566
Cr15 S21 2.394941 1_555
Cr15 S17 2.419795 1_566
Cr15 S27 2.469309 1_555
Cr15 S7 2.554971 1_556
Cr15 S3 2.601640 1_565
Cr15 S11 3.031111 1_555
