# generated using pymatgen
data_HoB2Rh3
_symmetry_space_group_name_H-M   'P 1'
_cell_length_a   6.28887430
_cell_length_b   10.71600463
_cell_length_c   10.71471824
_cell_angle_alpha   59.99257824
_cell_angle_beta   89.99941001
_cell_angle_gamma   89.99933179
_symmetry_Int_Tables_number   1
_chemical_formula_structural   HoB2Rh3
_chemical_formula_sum   'Ho8 B16 Rh24'
_cell_volume   625.29464498
_cell_formula_units_Z   8
loop_
 _symmetry_equiv_pos_site_id
 _symmetry_equiv_pos_as_xyz
  1  'x, y, z'
loop_
 _atom_site_type_symbol
 _atom_site_label
 _atom_site_symmetry_multiplicity
 _atom_site_fract_x
 _atom_site_fract_y
 _atom_site_fract_z
 _atom_site_occupancy
  Ho  Ho0_0  1  0.25000000  0.25000000  0.49999950  1
  Ho  Ho0_1  1  0.25000000  0.25000000  0.99999950  1
  Ho  Ho0_2  1  0.25000000  0.75000000  0.49999950  1
  Ho  Ho0_3  1  0.25000000  0.75000000  0.99999950  1
  Ho  Ho0_4  1  0.75000000  0.25000000  0.49999950  1
  Ho  Ho0_5  1  0.75000000  0.25000000  0.99999950  1
  Ho  Ho0_6  1  0.75000000  0.75000000  0.49999950  1
  Ho  Ho0_7  1  0.75000000  0.75000000  0.99999950  1
  B  B0_0  1  0.25000000  0.08335217  0.33330986  1
  B  B0_1  1  0.25000000  0.08335217  0.83330985  1
  B  B0_2  1  0.25000000  0.58335217  0.33330986  1
  B  B0_3  1  0.25000000  0.58335218  0.83330986  1
  B  B0_4  1  0.75000000  0.08335218  0.33330986  1
  B  B0_5  1  0.75000000  0.08335218  0.83330985  1
  B  B0_6  1  0.75000000  0.58335218  0.33330985  1
  B  B0_7  1  0.75000000  0.58335218  0.83330986  1
  B  B1_0  1  0.25000000  0.41664783  0.16669064  1
  B  B1_1  1  0.25000000  0.41664782  0.66669064  1
  B  B1_2  1  0.25000000  0.91664782  0.16669064  1
  B  B1_3  1  0.25000000  0.91664783  0.66669064  1
  B  B1_4  1  0.75000000  0.41664783  0.16669064  1
  B  B1_5  1  0.75000000  0.41664782  0.66669065  1
  B  B1_6  1  0.75000000  0.91664782  0.16669064  1
  B  B1_7  1  0.75000000  0.91664783  0.66669065  1
  Rh  Rh0_0  1  0.00000000  0.00000000  0.25000050  1
  Rh  Rh0_1  1  0.00000000  0.00000000  0.75000050  1
  Rh  Rh0_2  1  0.00000000  0.50000000  0.25000050  1
  Rh  Rh0_3  1  0.00000000  0.50000000  0.75000050  1
  Rh  Rh0_4  1  0.50000000  0.00000000  0.25000050  1
  Rh  Rh0_5  1  0.50000000  0.00000000  0.75000050  1
  Rh  Rh0_6  1  0.50000000  0.50000000  0.25000050  1
  Rh  Rh0_7  1  0.50000000  0.50000000  0.75000050  1
  Rh  Rh1_0  1  0.00000000  0.25000000  0.24999950  1
  Rh  Rh1_1  1  0.00000000  0.25000000  0.74999950  1
  Rh  Rh1_2  1  0.00000000  0.75000000  0.24999950  1
  Rh  Rh1_3  1  0.00000000  0.75000000  0.74999950  1
  Rh  Rh1_4  1  0.50000000  0.25000000  0.24999950  1
  Rh  Rh1_5  1  0.50000000  0.25000000  0.74999950  1
  Rh  Rh1_6  1  0.50000000  0.75000000  0.24999950  1
  Rh  Rh1_7  1  0.50000000  0.75000000  0.74999950  1
  Rh  Rh2_0  1  0.00000000  0.00000000  0.00000000  1
  Rh  Rh2_1  1  0.00000000  0.00000000  0.50000000  1
  Rh  Rh2_2  1  0.00000000  0.50000000  0.00000000  1
  Rh  Rh2_3  1  0.00000000  0.50000000  0.50000000  1
  Rh  Rh2_4  1  0.50000000  0.00000000  0.00000000  1
  Rh  Rh2_5  1  0.50000000  0.00000000  0.50000000  1
  Rh  Rh2_6  1  0.50000000  0.50000000  0.00000000  1
  Rh  Rh2_7  1  0.50000000  0.50000000  0.50000000  1
loop_
_geom_bond_atom_site_label_1
_geom_bond_atom_site_label_2
_geom_bond_distance
_geom_bond_site_symmetry_2
Ho0_0 Rh0_2 3.105867 1_555
Ho0_0 Rh0_6 3.105870 1_555
Ho0_0 Rh0_5 3.105876 1_555
Ho0_0 Rh0_1 3.105879 1_555
Ho0_0 Rh1_4 3.105980 1_555
Ho0_0 Rh1_1 3.105980 1_555
Ho0_0 Rh1_0 3.106007 1_555
Ho0_0 Rh1_5 3.106007 1_555
Ho0_0 Rh2_5 3.106253 1_555
Ho0_0 Rh2_3 3.106257 1_555
Ho0_0 Rh2_1 3.106284 1_555
Ho0_0 Rh2_7 3.106289 1_555
Ho0_0 Ho0_4 3.144437 1_555
Ho0_0 Ho0_4 3.144437 1_455
Ho0_1 Rh0_3 3.105867 1_555
Ho0_1 Rh0_7 3.105870 1_555
Ho0_1 Rh0_4 3.105876 1_556
Ho0_1 Rh0_0 3.105879 1_556
Ho0_1 Rh1_0 3.105980 1_556
Ho0_1 Rh1_5 3.105980 1_555
Ho0_1 Rh1_4 3.106007 1_556
Ho0_1 Rh1_1 3.106007 1_555
Ho0_1 Rh2_4 3.106253 1_556
Ho0_1 Rh2_2 3.106257 1_556
Ho0_1 Rh2_0 3.106284 1_556
Ho0_1 Rh2_6 3.106289 1_556
Ho0_1 Ho0_5 3.144437 1_455
Ho0_1 Ho0_5 3.144437 1_555
Ho0_2 Rh0_0 3.105867 1_565
Ho0_2 Rh0_4 3.105870 1_565
Ho0_2 Rh0_7 3.105876 1_555
Ho0_2 Rh0_3 3.105879 1_555
Ho0_2 Rh1_6 3.105980 1_555
Ho0_2 Rh1_3 3.105980 1_555
Ho0_2 Rh1_2 3.106007 1_555
Ho0_2 Rh1_7 3.106007 1_555
Ho0_2 Rh2_7 3.106253 1_555
Ho0_2 Rh2_1 3.106257 1_565
Ho0_2 Rh2_3 3.106284 1_555
Ho0_2 Rh2_5 3.106289 1_565
Ho0_2 Ho0_6 3.144437 1_555
Ho0_2 Ho0_6 3.144437 1_455
Ho0_3 Rh0_1 3.105867 1_565
Ho0_3 Rh0_5 3.105870 1_565
Ho0_3 Rh0_6 3.105876 1_556
Ho0_3 Rh0_2 3.105879 1_556
Ho0_3 Rh1_2 3.105980 1_556
Ho0_3 Rh1_7 3.105980 1_555
Ho0_3 Rh1_6 3.106007 1_556
Ho0_3 Rh1_3 3.106007 1_555
Ho0_3 Rh2_6 3.106253 1_556
Ho0_3 Rh2_0 3.106257 1_566
Ho0_3 Rh2_2 3.106284 1_556
Ho0_3 Rh2_4 3.106289 1_566
Ho0_3 Ho0_7 3.144437 1_555
Ho0_3 Ho0_7 3.144437 1_455
Ho0_4 Rh0_6 3.105867 1_555
Ho0_4 Rh0_2 3.105870 1_655
Ho0_4 Rh0_1 3.105876 1_655
Ho0_4 Rh0_5 3.105879 1_555
Ho0_4 Rh1_5 3.105980 1_555
Ho0_4 Rh1_0 3.105980 1_655
Ho0_4 Rh1_1 3.106007 1_655
Ho0_4 Rh1_4 3.106007 1_555
Ho0_4 Rh2_1 3.106253 1_655
Ho0_4 Rh2_7 3.106257 1_555
Ho0_4 Rh2_5 3.106284 1_555
Ho0_4 Rh2_3 3.106289 1_655
Ho0_5 Rh0_7 3.105867 1_555
Ho0_5 Rh0_3 3.105870 1_655
Ho0_5 Rh0_0 3.105876 1_656
Ho0_5 Rh0_4 3.105879 1_556
Ho0_5 Rh1_4 3.105980 1_556
Ho0_5 Rh1_1 3.105980 1_655
Ho0_5 Rh1_0 3.106007 1_656
Ho0_5 Rh1_5 3.106007 1_555
Ho0_5 Rh2_0 3.106253 1_656
Ho0_5 Rh2_6 3.106257 1_556
Ho0_5 Rh2_4 3.106284 1_556
Ho0_5 Rh2_2 3.106289 1_656
Ho0_6 Rh0_4 3.105867 1_565
Ho0_6 Rh0_0 3.105870 1_665
Ho0_6 Rh0_3 3.105876 1_655
Ho0_6 Rh0_7 3.105879 1_555
Ho0_6 Rh1_2 3.105980 1_655
Ho0_6 Rh1_7 3.105980 1_555
Ho0_6 Rh1_6 3.106007 1_555
Ho0_6 Rh1_3 3.106007 1_655
Ho0_6 Rh2_3 3.106253 1_655
Ho0_6 Rh2_5 3.106257 1_565
Ho0_6 Rh2_7 3.106284 1_555
Ho0_6 Rh2_1 3.106289 1_665
Ho0_7 Rh0_5 3.105867 1_565
Ho0_7 Rh0_1 3.105870 1_665
Ho0_7 Rh0_2 3.105876 1_656
Ho0_7 Rh0_6 3.105879 1_556
Ho0_7 Rh1_6 3.105980 1_556
Ho0_7 Rh1_3 3.105980 1_655
Ho0_7 Rh1_2 3.106007 1_656
Ho0_7 Rh1_7 3.106007 1_555
Ho0_7 Rh2_2 3.106253 1_656
Ho0_7 Rh2_4 3.106257 1_566
Ho0_7 Rh2_6 3.106284 1_556
Ho0_7 Rh2_0 3.106289 1_666
B0_0 Rh1_0 2.205286 1_555
B0_0 Rh1_4 2.205302 1_555
B0_0 Rh0_4 2.205426 1_555
B0_0 Rh2_1 2.205434 1_555
B0_0 Rh2_5 2.205445 1_555
B0_0 Rh0_0 2.205454 1_555
B0_0 Ho0_1 3.092628 1_554
B0_0 Ho0_2 3.093388 1_545
B0_0 Ho0_0 3.093412 1_555
B0_1 Rh1_1 2.205286 1_555
B0_1 Rh1_5 2.205302 1_555
B0_1 Rh0_5 2.205426 1_555
B0_1 Rh2_0 2.205434 1_556
B0_1 Rh2_4 2.205445 1_556
B0_1 Rh0_1 2.205454 1_555
B0_1 Ho0_0 3.092628 1_555
B0_1 Ho0_3 3.093388 1_545
B0_1 Ho0_1 3.093412 1_555
B0_2 Rh1_2 2.205286 1_555
B0_2 Rh1_6 2.205302 1_555
B0_2 Rh0_6 2.205426 1_555
B0_2 Rh2_3 2.205434 1_555
B0_2 Rh2_7 2.205445 1_555
B0_2 Rh0_2 2.205454 1_555
B0_2 Ho0_3 3.092628 1_554
B0_2 Ho0_0 3.093388 1_555
B0_2 Ho0_2 3.093412 1_555
B0_3 Rh1_3 2.205286 1_555
B0_3 Rh1_7 2.205302 1_555
B0_3 Rh0_7 2.205426 1_555
B0_3 Rh2_2 2.205434 1_556
B0_3 Rh2_6 2.205445 1_556
B0_3 Rh0_3 2.205454 1_555
B0_3 Ho0_2 3.092628 1_555
B0_3 Ho0_1 3.093388 1_555
B0_3 Ho0_3 3.093412 1_555
B0_4 Rh1_4 2.205286 1_555
B0_4 Rh1_0 2.205302 1_655
B0_4 Rh0_0 2.205426 1_655
B0_4 Rh2_5 2.205434 1_555
B0_4 Rh2_1 2.205445 1_655
B0_4 Rh0_4 2.205454 1_555
B0_4 Ho0_5 3.092628 1_554
B0_4 Ho0_6 3.093388 1_545
B0_4 Ho0_4 3.093412 1_555
B0_5 Rh1_5 2.205286 1_555
B0_5 Rh1_1 2.205302 1_655
B0_5 Rh0_1 2.205426 1_655
B0_5 Rh2_4 2.205434 1_556
B0_5 Rh2_0 2.205445 1_656
B0_5 Rh0_5 2.205454 1_555
B0_5 Ho0_4 3.092628 1_555
B0_5 Ho0_7 3.093388 1_545
B0_5 Ho0_5 3.093412 1_555
B0_6 Rh1_6 2.205286 1_555
B0_6 Rh1_2 2.205302 1_655
B0_6 Rh0_2 2.205426 1_655
B0_6 Rh2_7 2.205434 1_555
B0_6 Rh2_3 2.205445 1_655
B0_6 Rh0_6 2.205454 1_555
B0_6 Ho0_7 3.092628 1_554
B0_6 Ho0_4 3.093388 1_555
B0_6 Ho0_6 3.093412 1_555
B0_7 Rh1_7 2.205286 1_555
B0_7 Rh1_3 2.205302 1_655
B0_7 Rh0_3 2.205426 1_655
B0_7 Rh2_6 2.205434 1_556
B0_7 Rh2_2 2.205445 1_656
B0_7 Rh0_7 2.205454 1_555
B0_7 Ho0_6 3.092628 1_555
B0_7 Ho0_5 3.093388 1_555
B0_7 Ho0_7 3.093412 1_555
B1_0 Rh1_4 2.205286 1_555
B1_0 Rh1_0 2.205302 1_555
B1_0 Rh0_2 2.205429 1_555
B1_0 Rh2_6 2.205437 1_555
B1_0 Rh2_2 2.205448 1_555
B1_0 Rh0_6 2.205457 1_555
B1_0 Ho0_0 3.092614 1_555
B1_0 Ho0_3 3.093388 1_554
B1_0 Ho0_1 3.093426 1_554
B1_1 Rh1_5 2.205286 1_555
B1_1 Rh1_1 2.205302 1_555
B1_1 Rh0_3 2.205429 1_555
B1_1 Rh2_7 2.205437 1_555
B1_1 Rh2_3 2.205448 1_555
B1_1 Rh0_7 2.205457 1_555
B1_1 Ho0_1 3.092614 1_555
B1_1 Ho0_2 3.093388 1_555
B1_1 Ho0_0 3.093426 1_555
B1_2 Rh1_6 2.205286 1_555
B1_2 Rh1_2 2.205302 1_555
B1_2 Rh0_0 2.205429 1_565
B1_2 Rh2_4 2.205437 1_565
B1_2 Rh2_0 2.205448 1_565
B1_2 Rh0_4 2.205457 1_565
B1_2 Ho0_2 3.092614 1_555
B1_2 Ho0_1 3.093388 1_564
B1_2 Ho0_3 3.093426 1_554
B1_3 Rh1_7 2.205286 1_555
B1_3 Rh1_3 2.205302 1_555
B1_3 Rh0_1 2.205429 1_565
B1_3 Rh2_5 2.205437 1_565
B1_3 Rh2_1 2.205448 1_565
B1_3 Rh0_5 2.205457 1_565
B1_3 Ho0_3 3.092614 1_555
B1_3 Ho0_0 3.093388 1_565
B1_3 Ho0_2 3.093426 1_555
B1_4 Rh1_0 2.205286 1_655
B1_4 Rh1_4 2.205302 1_555
B1_4 Rh0_6 2.205429 1_555
B1_4 Rh2_2 2.205437 1_655
B1_4 Rh2_6 2.205448 1_555
B1_4 Rh0_2 2.205457 1_655
B1_4 Ho0_4 3.092614 1_555
B1_4 Ho0_7 3.093388 1_554
B1_4 Ho0_5 3.093426 1_554
B1_5 Rh1_1 2.205286 1_655
B1_5 Rh1_5 2.205302 1_555
B1_5 Rh0_7 2.205429 1_555
B1_5 Rh2_3 2.205437 1_655
B1_5 Rh2_7 2.205448 1_555
B1_5 Rh0_3 2.205457 1_655
B1_5 Ho0_5 3.092614 1_555
B1_5 Ho0_6 3.093388 1_555
B1_5 Ho0_4 3.093426 1_555
B1_6 Rh1_2 2.205286 1_655
B1_6 Rh1_6 2.205302 1_555
B1_6 Rh0_4 2.205429 1_565
B1_6 Rh2_0 2.205437 1_665
B1_6 Rh2_4 2.205448 1_565
B1_6 Rh0_0 2.205457 1_665
B1_6 Ho0_6 3.092614 1_555
B1_6 Ho0_5 3.093388 1_564
B1_6 Ho0_7 3.093426 1_554
B1_7 Rh1_3 2.205286 1_655
B1_7 Rh1_7 2.205302 1_555
B1_7 Rh0_5 2.205429 1_565
B1_7 Rh2_1 2.205437 1_665
B1_7 Rh2_5 2.205448 1_565
B1_7 Rh0_1 2.205457 1_665
B1_7 Ho0_7 3.092614 1_555
B1_7 Ho0_4 3.093388 1_565
B1_7 Ho0_6 3.093426 1_555
