# generated using pymatgen
data_Sr10CaY4(CoO3)10
_symmetry_space_group_name_H-M   'P 1'
_cell_length_a   11.68192520
_cell_length_b   11.68192520
_cell_length_c   11.68192520
_cell_angle_alpha   137.15295760
_cell_angle_beta   137.15295760
_cell_angle_gamma   62.20279223
_symmetry_Int_Tables_number   1
_chemical_formula_structural   Sr10CaY4(CoO3)10
_chemical_formula_sum   'Sr10 Ca1 Y4 Co10 O30'
_cell_volume   728.46368720
_cell_formula_units_Z   1
loop_
 _symmetry_equiv_pos_site_id
 _symmetry_equiv_pos_as_xyz
  1  'x, y, z'
loop_
 _atom_site_type_symbol
 _atom_site_label
 _atom_site_symmetry_multiplicity
 _atom_site_fract_x
 _atom_site_fract_y
 _atom_site_fract_z
 _atom_site_occupancy
  Sr  Sr0  1  0.67850500  0.67850500  0.00000000  1
  Sr  Sr1  1  0.07577500  0.87238200  0.58147100  1
  Sr  Sr2  1  0.49430400  0.07577500  0.20339300  1
  Sr  Sr3  1  0.87238200  0.29091100  0.79660700  1
  Sr  Sr4  1  0.29091100  0.49430400  0.41852900  1
  Sr  Sr5  1  0.70908900  0.50569600  0.58147100  1
  Sr  Sr6  1  0.12761800  0.70908900  0.20339300  1
  Sr  Sr7  1  0.50569600  0.92422500  0.79660700  1
  Sr  Sr8  1  0.92422500  0.12761800  0.41852900  1
  Sr  Sr9  1  0.32149500  0.32149500  0.00000000  1
  Ca  Ca0  1  0.50000000  0.50000000  0.00000000  1
  Y  Y0  1  0.89777800  0.70137000  0.59914800  1
  Y  Y1  1  0.29863000  0.89777800  0.19640700  1
  Y  Y2  1  0.70137000  0.10222200  0.80359300  1
  Y  Y3  1  0.10222200  0.29863000  0.40085200  1
  Co  Co0  1  0.89745400  0.89745400  0.00000000  1
  Co  Co1  1  0.30705800  0.10810900  0.59841000  1
  Co  Co2  1  0.70864800  0.30705800  0.19894900  1
  Co  Co3  1  0.10810900  0.50969900  0.80105100  1
  Co  Co4  1  0.50969900  0.70864800  0.40159000  1
  Co  Co5  1  0.49030100  0.29135200  0.59841000  1
  Co  Co6  1  0.89189100  0.49030100  0.19894900  1
  Co  Co7  1  0.29135200  0.69294200  0.80105100  1
  Co  Co8  1  0.69294200  0.89189100  0.40159000  1
  Co  Co9  1  0.10254600  0.10254600  0.00000000  1
  O  O0  1  0.02485000  0.72958100  0.89799000  1
  O  O1  1  0.42756800  0.92756800  0.50000000  1
  O  O2  1  0.83159100  0.12686000  0.10201000  1
  O  O3  1  0.22024800  0.32320300  0.69441700  1
  O  O4  1  0.62878600  0.52583200  0.30558300  1
  O  O5  1  0.72958100  0.83159100  0.70473100  1
  O  O6  1  0.12686000  0.02485000  0.29526900  1
  O  O7  1  0.52583200  0.22024800  0.89704600  1
  O  O8  1  0.92756800  0.42756800  0.50000000  1
  O  O9  1  0.32320300  0.62878600  0.10295400  1
  O  O10  1  0.37121400  0.47416800  0.69441700  1
  O  O11  1  0.77975200  0.67679700  0.30558300  1
  O  O12  1  0.16840900  0.87314000  0.89799000  1
  O  O13  1  0.57243200  0.07243200  0.50000000  1
  O  O14  1  0.97515000  0.27041900  0.10201000  1
  O  O15  1  0.67679700  0.37121400  0.89704600  1
  O  O16  1  0.07243200  0.57243200  0.50000000  1
  O  O17  1  0.47416800  0.77975200  0.10295400  1
  O  O18  1  0.87314000  0.97515000  0.70473100  1
  O  O19  1  0.27041900  0.16840900  0.29526900  1
  O  O20  1  0.80840000  0.80840000  0.00000000  1
  O  O21  1  0.20396600  0.00545000  0.60054300  1
  O  O22  1  0.60342300  0.20396600  0.19851600  1
  O  O23  1  0.00545000  0.40490700  0.80148400  1
  O  O24  1  0.40490700  0.60342300  0.39945700  1
  O  O25  1  0.59509300  0.39657700  0.60054300  1
  O  O26  1  0.99455000  0.59509300  0.19851600  1
  O  O27  1  0.39657700  0.79603400  0.80148400  1
  O  O28  1  0.79603400  0.99455000  0.39945700  1
  O  O29  1  0.19160000  0.19160000  0.00000000  1
loop_
_geom_bond_atom_site_label_1
_geom_bond_atom_site_label_2
_geom_bond_distance
_geom_bond_site_symmetry_2
Ca0 O15 2.463037 1_554
Ca0 O9 2.463037 1_555
Ca0 O10 2.463037 1_554
Ca0 O4 2.463037 1_555
Ca0 O11 2.463045 1_555
Ca0 O3 2.463045 1_554
Ca0 O17 2.463048 1_555
Ca0 O7 2.463048 1_554
Co0 O20 1.781561 1_555
Co0 O2 1.983030 1_565
Co0 O6 1.983030 1_665
Co0 O5 1.983030 1_554
Co0 O0 1.983030 1_654
Co1 O3 1.938763 1_555
Co1 O7 1.940557 1_555
Co1 O1 1.949416 1_545
Co1 O6 1.961105 1_555
Co1 O21 2.079443 1_555
Co2 O7 1.938756 1_554
Co2 O4 1.940557 1_555
Co2 O8 1.949416 1_555
Co2 O2 1.961105 1_555
Co2 O22 2.079443 1_555
Co3 O9 1.938759 1_556
Co3 O3 1.940550 1_555
Co3 O8 1.949416 1_455
Co3 O0 1.961105 1_555
Co3 O23 2.079443 1_555
Co4 O4 1.938759 1_555
Co4 O9 1.940557 1_555
Co4 O1 1.949416 1_555
Co4 O5 1.961105 1_555
Co4 O24 2.079443 1_555
Co5 O10 1.938759 1_555
Co5 O15 1.940557 1_555
Co5 O13 1.949416 1_555
Co5 O19 1.961105 1_555
Co5 O25 2.079443 1_555
Co6 O15 1.938759 1_554
Co6 O11 1.940550 1_555
Co6 O16 1.949416 1_655
Co6 O14 1.961105 1_555
Co6 O26 2.079443 1_555
Co7 O17 1.938756 1_556
Co7 O10 1.940557 1_555
Co7 O16 1.949416 1_555
Co7 O12 1.961105 1_555
Co7 O27 2.079443 1_555
Co8 O11 1.938763 1_555
Co8 O17 1.940557 1_555
Co8 O13 1.949416 1_565
Co8 O18 1.961105 1_555
Co8 O28 2.079443 1_555
Co9 O29 1.781561 1_555
Co9 O12 1.983030 1_544
Co9 O18 1.983030 1_444
Co9 O19 1.983030 1_555
Co9 O14 1.983030 1_455
O0 Y0 2.381148 1_455
O0 Y1 2.389706 1_556
O0 Sr6 2.988443 1_556
O0 Sr5 2.989427 1_455
O1 Y2 2.411180 1_565
O1 Y1 2.411192 1_555
O1 Sr7 2.892809 1_555
O1 Sr6 2.892809 1_555
O2 Y3 2.381148 1_655
O2 Y2 2.389694 1_554
O2 Sr7 2.988443 1_544
O2 Sr8 2.989427 1_555
O3 Y3 2.395086 1_555
O3 Sr8 2.791940 1_455
O3 Sr9 2.834430 1_556
O4 Y0 2.395081 1_555
O4 Sr5 2.791949 1_555
O4 Sr9 2.834436 1_555
O5 Y2 2.381144 1_565
O5 Y0 2.389705 1_555
O5 Sr5 2.988443 1_555
O5 Sr7 2.989427 1_555
O6 Y1 2.381156 1_545
O6 Y3 2.389705 1_555
O6 Sr8 2.988443 1_455
O6 Sr6 2.989427 1_545
O7 Y2 2.395075 1_555
O7 Sr7 2.791938 1_545
O7 Sr9 2.834432 1_556
O8 Y0 2.411181 1_555
O8 Y3 2.411181 1_655
O8 Sr5 2.892809 1_555
O8 Sr8 2.892809 1_555
O9 Y1 2.395086 1_555
O9 Sr6 2.791949 1_555
O9 Sr9 2.834436 1_555
O10 Y3 2.395081 1_555
O10 Sr4 2.791949 1_555
O10 Sr0 2.834436 1_556
O11 Y0 2.395086 1_555
O11 Sr1 2.791940 1_655
O11 Sr0 2.834430 1_555
O12 Y0 2.381148 1_455
O12 Y1 2.389694 1_556
O12 Sr2 2.988443 1_566
O12 Sr1 2.989427 1_555
O13 Y1 2.411180 1_545
O13 Y2 2.411192 1_555
O13 Sr3 2.892809 1_555
O13 Sr2 2.892809 1_555
O14 Y3 2.381148 1_655
O14 Y2 2.389706 1_554
O14 Sr3 2.988443 1_554
O14 Sr4 2.989427 1_655
O15 Y2 2.395086 1_555
O15 Sr3 2.791949 1_555
O15 Sr0 2.834436 1_556
O16 Y3 2.411181 1_555
O16 Y0 2.411181 1_455
O16 Sr1 2.892809 1_555
O16 Sr4 2.892809 1_555
O17 Y1 2.395075 1_555
O17 Sr2 2.791938 1_565
O17 Sr0 2.834432 1_555
O18 Y2 2.381156 1_565
O18 Y0 2.389705 1_555
O18 Sr1 2.988443 1_655
O18 Sr3 2.989427 1_565
O19 Y1 2.381144 1_545
O19 Y3 2.389705 1_555
O19 Sr4 2.988443 1_555
O19 Sr2 2.989427 1_555
O20 Sr0 2.598602 1_555
O20 Sr8 2.812838 1_565
O20 Sr7 2.812838 1_554
O20 Sr5 2.812838 1_554
O20 Sr6 2.812838 1_655
O21 Sr1 2.425435 1_545
O21 Sr7 2.607627 1_545
O21 Sr8 2.673572 1_455
O21 Sr9 2.713261 1_556
O21 Sr6 2.750598 1_545
O22 Sr2 2.425435 1_555
O22 Sr5 2.607627 1_555
O22 Sr7 2.673572 1_544
O22 Sr9 2.713261 1_555
O22 Sr8 2.750598 1_555
O23 Sr3 2.425435 1_455
O23 Sr8 2.607627 1_455
O23 Sr6 2.673572 1_556
O23 Sr9 2.713261 1_556
O23 Sr5 2.750598 1_455
O24 Sr4 2.425435 1_555
O24 Sr6 2.607627 1_555
O24 Sr5 2.673572 1_555
O24 Sr9 2.713261 1_555
O24 Sr7 2.750598 1_555
O25 Sr5 2.425435 1_555
O25 Sr3 2.607627 1_555
O25 Sr4 2.673572 1_555
O25 Sr0 2.713261 1_556
O25 Sr2 2.750598 1_555
O26 Sr6 2.425435 1_655
O26 Sr1 2.607627 1_655
O26 Sr3 2.673572 1_554
O26 Sr0 2.713261 1_555
O26 Sr4 2.750598 1_655
O27 Sr7 2.425435 1_555
O27 Sr4 2.607627 1_555
O27 Sr2 2.673572 1_566
O27 Sr0 2.713261 1_556
O27 Sr1 2.750598 1_555
O28 Sr8 2.425435 1_565
O28 Sr2 2.607627 1_565
O28 Sr1 2.673572 1_655
O28 Sr0 2.713261 1_555
O28 Sr3 2.750598 1_565
O29 Sr9 2.598602 1_555
O29 Sr4 2.812838 1_555
O29 Sr2 2.812838 1_555
O29 Sr1 2.812838 1_544
O29 Sr3 2.812838 1_454
