# generated using pymatgen
data_Rb2UF6
_symmetry_space_group_name_H-M   'P 1'
_cell_length_a   6.99127300
_cell_length_b   6.99127293
_cell_length_c   7.51664684
_cell_angle_alpha   90.00000000
_cell_angle_beta   90.00000000
_cell_angle_gamma   120.57369155
_symmetry_Int_Tables_number   1
_chemical_formula_structural   Rb2UF6
_chemical_formula_sum   'Rb4 U2 F12'
_cell_volume   316.32065000
_cell_formula_units_Z   2
loop_
 _symmetry_equiv_pos_site_id
 _symmetry_equiv_pos_as_xyz
  1  'x, y, z'
loop_
 _atom_site_type_symbol
 _atom_site_label
 _atom_site_symmetry_multiplicity
 _atom_site_fract_x
 _atom_site_fract_y
 _atom_site_fract_z
 _atom_site_occupancy
  Rb  Rb0  1  0.34307181  0.65692819  0.50133173  1
  Rb  Rb1  1  0.65692819  0.34307181  0.00133173  1
  Rb  Rb2  1  0.65692819  0.34307181  0.49866827  1
  Rb  Rb3  1  0.34307181  0.65692819  0.99866827  1
  U  U0  1  0.94790201  0.05209799  0.25000000  1
  U  U1  1  0.05209799  0.94790201  0.75000000  1
  F  F0  1  0.10154632  0.89845368  0.04202021  1
  F  F1  1  0.89845368  0.10154632  0.54202021  1
  F  F2  1  0.89845368  0.10154632  0.95797979  1
  F  F3  1  0.10154632  0.89845368  0.45797979  1
  F  F4  1  0.00505662  0.60166079  0.75000000  1
  F  F5  1  0.99494338  0.39833921  0.25000000  1
  F  F6  1  0.29069009  0.30658511  0.75000000  1
  F  F7  1  0.70930991  0.69341489  0.25000000  1
  F  F8  1  0.30658511  0.29069009  0.25000000  1
  F  F9  1  0.69341489  0.70930991  0.75000000  1
  F  F10  1  0.39833921  0.99494338  0.75000000  1
  F  F11  1  0.60166079  0.00505662  0.25000000  1
loop_
_geom_bond_atom_site_label_1
_geom_bond_atom_site_label_2
_geom_bond_distance
_geom_bond_site_symmetry_2
F0 U1 2.275673 1_554
F0 U0 2.434217 1_465
F0 Rb3 2.951153 1_554
F1 U0 2.275673 1_555
F1 U1 2.434217 1_645
F1 Rb2 2.951153 1_555
F2 U0 2.275673 1_556
F2 U1 2.434217 1_645
F2 Rb1 2.951153 1_556
F3 U1 2.275673 1_555
F3 U0 2.434217 1_465
F3 Rb0 2.951153 1_555
F4 U1 2.271105 1_555
F4 Rb2 2.878341 1_455
F4 Rb1 2.878341 1_456
F4 Rb3 2.880737 1_555
F4 Rb0 2.880737 1_555
F5 U0 2.271105 1_555
F5 Rb0 2.878341 1_655
F5 Rb3 2.878341 1_654
F5 Rb1 2.880737 1_555
F5 Rb2 2.880737 1_555
F6 U1 2.194424 1_545
F6 Rb0 2.952055 1_555
F6 Rb3 2.952055 1_555
F6 Rb1 3.086359 1_556
F6 Rb2 3.086359 1_555
F7 U0 2.194424 1_565
F7 Rb1 2.952055 1_555
F7 Rb2 2.952055 1_555
F7 Rb0 3.086359 1_555
F7 Rb3 3.086359 1_554
F8 U0 2.194424 1_455
F8 Rb2 2.952055 1_555
F8 Rb1 2.952055 1_555
F8 Rb0 3.086358 1_555
F8 Rb3 3.086358 1_554
F9 U1 2.194424 1_655
F9 Rb3 2.952055 1_555
F9 Rb0 2.952055 1_555
F9 Rb2 3.086358 1_555
F9 Rb1 3.086358 1_556
F10 U1 2.271105 1_555
F10 Rb1 2.878341 1_566
F10 Rb2 2.878341 1_565
F10 Rb0 2.880737 1_555
F10 Rb3 2.880737 1_555
F11 U0 2.271105 1_555
F11 Rb3 2.878341 1_544
F11 Rb0 2.878341 1_545
F11 Rb2 2.880737 1_555
F11 Rb1 2.880737 1_555
