# generated using pymatgen
data_NaMnPCO7
_symmetry_space_group_name_H-M   'P 1'
_cell_length_a   6.23235300
_cell_length_b   10.41092924
_cell_length_c   10.45294515
_cell_angle_alpha   117.27907525
_cell_angle_beta   90.06746940
_cell_angle_gamma   91.32821124
_symmetry_Int_Tables_number   1
_chemical_formula_structural   NaMnPCO7
_chemical_formula_sum   'Na4 Mn4 P4 C4 O28'
_cell_volume   602.58977194
_cell_formula_units_Z   4
loop_
 _symmetry_equiv_pos_site_id
 _symmetry_equiv_pos_as_xyz
  1  'x, y, z'
loop_
 _atom_site_type_symbol
 _atom_site_label
 _atom_site_symmetry_multiplicity
 _atom_site_fract_x
 _atom_site_fract_y
 _atom_site_fract_z
 _atom_site_occupancy
  Na  Na0  1  0.95477200  0.76379500  0.75707500  1
  Na  Na1  1  0.55601800  0.76198000  0.25739600  1
  Na  Na2  1  0.03949100  0.23276300  0.73714900  1
  Na  Na3  1  0.04115900  0.23475500  0.23772400  1
  Mn  Mn0  1  0.25013600  0.65408700  0.93464700  1
  Mn  Mn1  1  0.25038700  0.65422000  0.43511100  1
  Mn  Mn2  1  0.73386700  0.34587600  0.56605500  1
  Mn  Mn3  1  0.73703300  0.34568800  0.06543700  1
  P  P0  1  0.74711100  0.56373100  0.92034900  1
  P  P1  1  0.75191400  0.56405300  0.42063400  1
  P  P2  1  0.24065500  0.43607900  0.58050800  1
  P  P3  1  0.24215700  0.43577600  0.07984900  1
  C  C0  1  0.25441800  0.91158500  0.09422600  1
  C  C1  1  0.26440500  0.91183700  0.59472600  1
  C  C2  1  0.75259500  0.09004700  0.40571800  1
  C  C3  1  0.74031400  0.08871300  0.90569800  1
  O  O0  1  0.76928300  0.96027600  0.32297400  1
  O  O1  1  0.74825700  0.95860900  0.82326200  1
  O  O2  1  0.24848800  0.85193400  0.95222900  1
  O  O3  1  0.27387400  0.85227900  0.45295700  1
  O  O4  1  0.26341800  0.80845000  0.13602000  1
  O  O5  1  0.25896400  0.80860300  0.63669400  1
  O  O6  1  0.94171300  0.66577600  0.93246500  1
  O  O7  1  0.55565000  0.66241300  0.93939500  1
  O  O8  1  0.94528600  0.67140100  0.44824500  1
  O  O9  1  0.55919200  0.65721100  0.42483800  1
  O  O10  1  0.74505200  0.52368700  0.54662400  1
  O  O11  1  0.23940700  0.57571900  0.72382900  1
  O  O12  1  0.74945100  0.52388300  0.04675600  1
  O  O13  1  0.24736300  0.57498400  0.22367700  1
  O  O14  1  0.74677000  0.42480600  0.77652800  1
  O  O15  1  0.23282700  0.47532500  0.95324400  1
  O  O16  1  0.76477900  0.42631700  0.27644400  1
  O  O17  1  0.23322800  0.47525500  0.45359300  1
  O  O18  1  0.43017600  0.33747100  0.56526800  1
  O  O19  1  0.04465700  0.33456200  0.56707200  1
  O  O20  1  0.43343100  0.33826500  0.06512600  1
  O  O21  1  0.04765300  0.33262400  0.06446700  1
  O  O22  1  0.74607300  0.19363600  0.36458700  1
  O  O23  1  0.73950700  0.19225200  0.86410700  1
  O  O24  1  0.74024000  0.14758500  0.54712300  1
  O  O25  1  0.73457900  0.14765800  0.04753000  1
  O  O26  1  0.25152900  0.04189200  0.17621600  1
  O  O27  1  0.25692200  0.04214000  0.67642900  1
loop_
_geom_bond_atom_site_label_1
_geom_bond_atom_site_label_2
_geom_bond_distance
_geom_bond_site_symmetry_2
Na0 O1 2.255140 1_555
Na0 O5 2.428559 1_655
Na0 O6 2.473976 1_555
Na0 O2 2.559631 1_655
Na0 O11 2.576885 1_655
Na0 O10 2.756348 1_555
Na0 O8 2.915553 1_555
Na1 O0 2.252088 1_555
Na1 O4 2.401524 1_555
Na1 O9 2.450390 1_555
Na1 O3 2.545206 1_555
Na1 O13 2.609692 1_555
Na1 O12 2.754565 1_555
Na2 O27 2.269302 1_555
Na2 O23 2.432448 1_455
Na2 O19 2.451636 1_555
Na2 O24 2.551517 1_455
Na2 O14 2.628976 1_455
Na2 O15 2.748648 1_555
Na3 O26 2.259343 1_555
Na3 O22 2.411142 1_455
Na3 O21 2.451416 1_555
Na3 O16 2.555228 1_455
Na3 O25 2.585306 1_455
Na3 O17 2.733040 1_555
Mn0 O7 1.903588 1_555
Mn0 O6 1.929630 1_455
Mn0 O15 1.958420 1_555
Mn0 O11 1.968588 1_555
Mn0 O4 1.978101 1_556
Mn0 O2 1.982555 1_555
Mn1 O8 1.913219 1_455
Mn1 O9 1.928027 1_555
Mn1 O17 1.959848 1_555
Mn1 O13 1.973171 1_555
Mn1 O5 1.979267 1_555
Mn1 O3 1.985280 1_555
Mn2 O18 1.892538 1_555
Mn2 O19 1.943566 1_655
Mn2 O10 1.952352 1_555
Mn2 O14 1.965026 1_555
Mn2 O22 1.974638 1_555
Mn2 O24 1.982876 1_555
Mn3 O20 1.891880 1_555
Mn3 O21 1.943521 1_655
Mn3 O12 1.952241 1_555
Mn3 O16 1.973480 1_555
Mn3 O23 1.974975 1_554
Mn3 O25 1.982567 1_555
C0 O26 1.229086 1_565
C0 O2 1.320607 1_554
C0 O4 1.334023 1_555
C1 O27 1.229991 1_565
C1 O3 1.320461 1_555
C1 O5 1.333883 1_555
C2 O0 1.232797 1_545
C2 O24 1.319213 1_555
C2 O22 1.332887 1_555
C3 O1 1.230030 1_545
C3 O25 1.320238 1_556
C3 O23 1.334465 1_555
O6 P0 1.559558 1_555
O7 P0 1.545601 1_555
O8 P1 1.557498 1_555
O9 P1 1.549288 1_555
O10 P1 1.555461 1_555
O11 P2 1.536900 1_555
O12 P0 1.555931 1_554
O13 P3 1.536943 1_555
O14 P0 1.535804 1_555
O15 P3 1.557143 1_556
O16 P1 1.535848 1_555
O17 P2 1.557294 1_555
O18 P2 1.543107 1_555
O19 P2 1.559663 1_555
O20 P3 1.545532 1_555
O21 P3 1.558690 1_555
