# generated using pymatgen
data_Mg6TiCr
_symmetry_space_group_name_H-M   'P 1'
_cell_length_a   4.91968300
_cell_length_b   6.20611100
_cell_length_c   10.85156900
_cell_angle_alpha   90.00000000
_cell_angle_beta   90.00000000
_cell_angle_gamma   90.00000000
_symmetry_Int_Tables_number   1
_chemical_formula_structural   Mg6TiCr
_chemical_formula_sum   'Mg12 Ti2 Cr2'
_cell_volume   331.32117666
_cell_formula_units_Z   2
loop_
 _symmetry_equiv_pos_site_id
 _symmetry_equiv_pos_as_xyz
  1  'x, y, z'
loop_
 _atom_site_type_symbol
 _atom_site_label
 _atom_site_symmetry_multiplicity
 _atom_site_fract_x
 _atom_site_fract_y
 _atom_site_fract_z
 _atom_site_occupancy
  Mg  Mg0  1  0.00000000  0.74198000  0.08292900  1
  Mg  Mg1  1  0.00000000  0.25802000  0.08292900  1
  Mg  Mg2  1  0.00000000  0.00000000  0.33568900  1
  Mg  Mg3  1  0.50000000  0.25857400  0.41525500  1
  Mg  Mg4  1  0.50000000  0.74142600  0.41525500  1
  Mg  Mg5  1  0.50000000  0.00000000  0.16680000  1
  Mg  Mg6  1  0.00000000  0.24198000  0.58292900  1
  Mg  Mg7  1  0.00000000  0.75802000  0.58292900  1
  Mg  Mg8  1  0.00000000  0.50000000  0.83568900  1
  Mg  Mg9  1  0.50000000  0.75857400  0.91525500  1
  Mg  Mg10  1  0.50000000  0.24142600  0.91525500  1
  Mg  Mg11  1  0.50000000  0.50000000  0.66680000  1
  Ti  Ti0  1  0.00000000  0.50000000  0.32115400  1
  Ti  Ti1  1  0.00000000  0.00000000  0.82115400  1
  Cr  Cr0  1  0.50000000  0.50000000  0.17999000  1
  Cr  Cr1  1  0.50000000  0.00000000  0.67999000  1
loop_
_geom_bond_atom_site_label_1
_geom_bond_atom_site_label_2
_geom_bond_distance
_geom_bond_site_symmetry_2
Mg0 Ti0 2.989663 1_555
Mg0 Mg1 3.003509 1_555
Mg0 Mg9 3.061389 1_554
Mg0 Mg9 3.061389 1_454
Mg0 Mg5 3.072999 1_465
Mg0 Mg5 3.072999 1_565
Mg0 Mg8 3.074645 1_554
Mg0 Mg2 3.176059 1_565
Mg0 Mg1 3.202602 1_565
Mg0 Ti1 3.260915 1_564
Mg1 Ti0 2.989663 1_555
Mg1 Mg10 3.061389 1_554
Mg1 Mg10 3.061389 1_454
Mg1 Mg5 3.072999 1_555
Mg1 Mg5 3.072999 1_455
Mg1 Mg8 3.074645 1_554
Mg1 Mg2 3.176059 1_555
Mg1 Ti1 3.260915 1_554
Mg2 Mg4 3.061290 1_545
Mg2 Mg3 3.061290 1_455
Mg2 Mg3 3.061290 1_555
Mg2 Mg4 3.061290 1_445
Mg2 Mg5 3.067515 1_455
Mg2 Mg5 3.067515 1_555
Mg2 Mg7 3.074645 1_545
Mg2 Mg6 3.074645 1_555
Mg2 Ti0 3.107062 1_555
Mg2 Ti0 3.107062 1_545
Mg3 Mg4 2.996633 1_555
Mg3 Ti0 3.055897 1_555
Mg3 Ti0 3.055897 1_655
Mg3 Mg6 3.061389 1_555
Mg3 Mg6 3.061389 1_655
Mg3 Mg5 3.137560 1_555
Mg3 Mg4 3.209478 1_545
Mg4 Ti0 3.055897 1_555
Mg4 Ti0 3.055897 1_655
Mg4 Mg7 3.061389 1_555
Mg4 Mg7 3.061389 1_655
Mg4 Mg5 3.137560 1_565
Mg5 Mg9 3.113838 1_544
Mg6 Ti1 2.989663 1_555
Mg6 Mg7 3.003509 1_545
Mg6 Mg8 3.176059 1_555
Mg6 Mg7 3.202602 1_555
Mg6 Ti0 3.260915 1_555
Mg7 Ti1 2.989663 1_565
Mg7 Mg8 3.176059 1_555
Mg7 Ti0 3.260915 1_555
Mg8 Mg9 3.061290 1_455
Mg8 Mg9 3.061290 1_555
Mg8 Ti1 3.107062 1_555
Mg8 Ti1 3.107062 1_565
Mg9 Ti1 3.055897 1_665
Mg9 Ti1 3.055897 1_565
Mg10 Mg9 2.996633 1_545
Mg10 Ti1 3.055897 1_555
Mg10 Ti1 3.055897 1_655
Mg10 Mg8 3.061290 1_555
Mg10 Mg8 3.061290 1_655
Mg10 Mg5 3.113838 1_556
Mg10 Mg11 3.137560 1_555
Mg10 Mg9 3.209478 1_555
Mg11 Mg8 3.067515 1_555
Mg11 Mg8 3.067515 1_655
Mg11 Mg6 3.072999 1_655
Mg11 Mg7 3.072999 1_555
Mg11 Mg7 3.072999 1_655
Mg11 Mg6 3.072999 1_555
Mg11 Mg3 3.113838 1_555
Mg11 Mg4 3.113838 1_555
Mg11 Mg9 3.137560 1_555
Cr0 Ti0 2.897825 1_555
Cr0 Ti0 2.897825 1_655
Cr0 Mg3 2.960191 1_555
Cr0 Mg4 2.960191 1_555
Cr0 Mg0 3.068461 1_655
Cr0 Mg1 3.068461 1_555
Cr0 Mg1 3.068461 1_655
Cr0 Mg0 3.068461 1_555
Cr0 Mg5 3.106355 1_555
Cr0 Mg5 3.106355 1_565
Cr0 Mg9 3.290609 1_554
Cr0 Mg10 3.290609 1_554
Cr1 Ti1 2.897825 1_655
Cr1 Ti1 2.897825 1_555
Cr1 Mg9 2.960191 1_545
Cr1 Mg10 2.960191 1_555
Cr1 Mg7 3.068461 1_545
Cr1 Mg7 3.068461 1_645
Cr1 Mg6 3.068461 1_655
Cr1 Mg6 3.068461 1_555
Cr1 Mg11 3.106355 1_545
Cr1 Mg11 3.106355 1_555
Cr1 Mg4 3.290609 1_545
Cr1 Mg3 3.290609 1_555
