# generated using pymatgen
data_P2H26AuC9Cl3O4
_symmetry_space_group_name_H-M   'P 1'
_cell_length_a   11.43370202
_cell_length_b   11.43370202
_cell_length_c   9.39378300
_cell_angle_alpha   90.00000000
_cell_angle_beta   90.00000000
_cell_angle_gamma   107.90655822
_symmetry_Int_Tables_number   1
_chemical_formula_structural   P2H26AuC9Cl3O4
_chemical_formula_sum   'P4 H52 Au2 C18 Cl6 O8'
_cell_volume   1168.55748963
_cell_formula_units_Z   2
loop_
 _symmetry_equiv_pos_site_id
 _symmetry_equiv_pos_as_xyz
  1  'x, y, z'
loop_
 _atom_site_type_symbol
 _atom_site_label
 _atom_site_symmetry_multiplicity
 _atom_site_fract_x
 _atom_site_fract_y
 _atom_site_fract_z
 _atom_site_occupancy
  P  P0  1  0.29639900  0.98399700  0.24991800  1
  P  P1  1  0.01600300  0.70360100  0.24991800  1
  P  P2  1  0.70360100  0.01600300  0.74991800  1
  P  P3  1  0.98399700  0.29639900  0.74991800  1
  H  H0  1  0.66600100  0.98253200  0.00030700  1
  H  H1  1  0.01746800  0.33399900  0.00030700  1
  H  H2  1  0.84744200  0.68183500  0.08220800  1
  H  H3  1  0.31816500  0.15255800  0.08220800  1
  H  H4  1  0.88503800  0.54207000  0.10407300  1
  H  H5  1  0.45793000  0.11496200  0.10407300  1
  H  H6  1  0.35843400  0.81425900  0.15466300  1
  H  H7  1  0.86796900  0.95433100  0.15524700  1
  H  H8  1  0.18574100  0.64156600  0.15466300  1
  H  H9  1  0.04566900  0.13203100  0.15524700  1
  H  H10  1  0.47925700  0.92320000  0.25004900  1
  H  H11  1  0.82553200  0.81166900  0.25014700  1
  H  H12  1  0.18833100  0.17446800  0.25014700  1
  H  H13  1  0.07680000  0.52074300  0.25004900  1
  H  H14  1  0.18557900  0.64159700  0.34541100  1
  H  H15  1  0.86790200  0.95438300  0.34445600  1
  H  H16  1  0.35840300  0.81442100  0.34541100  1
  H  H17  1  0.04561700  0.13209800  0.34445600  1
  H  H18  1  0.54672000  0.45327900  0.37218500  1
  H  H19  1  0.88514700  0.54210100  0.39589700  1
  H  H20  1  0.45789900  0.11485300  0.39589700  1
  H  H21  1  0.84744300  0.68196600  0.41726900  1
  H  H22  1  0.31803400  0.15255700  0.41726900  1
  H  H23  1  0.45759700  0.54240300  0.45608100  1
  H  H24  1  0.66586900  0.98253800  0.49963200  1
  H  H25  1  0.01746200  0.33413100  0.49963200  1
  H  H26  1  0.98253200  0.66600100  0.50030700  1
  H  H27  1  0.33399900  0.01746800  0.50030700  1
  H  H28  1  0.68183500  0.84744200  0.58220800  1
  H  H29  1  0.15255800  0.31816500  0.58220800  1
  H  H30  1  0.54207000  0.88503800  0.60407300  1
  H  H31  1  0.11496200  0.45793000  0.60407300  1
  H  H32  1  0.64156600  0.18574100  0.65466300  1
  H  H33  1  0.95433100  0.86796900  0.65524700  1
  H  H34  1  0.81425900  0.35843400  0.65466300  1
  H  H35  1  0.13203100  0.04566900  0.65524700  1
  H  H36  1  0.81166900  0.82553200  0.75014700  1
  H  H37  1  0.52074300  0.07680000  0.75004900  1
  H  H38  1  0.92320000  0.47925700  0.75004900  1
  H  H39  1  0.17446800  0.18833100  0.75014700  1
  H  H40  1  0.64159700  0.18557900  0.84541100  1
  H  H41  1  0.95438300  0.86790200  0.84445600  1
  H  H42  1  0.81442100  0.35840300  0.84541100  1
  H  H43  1  0.13209800  0.04561700  0.84445600  1
  H  H44  1  0.45327900  0.54672000  0.87218500  1
  H  H45  1  0.54210100  0.88514700  0.89589700  1
  H  H46  1  0.11485300  0.45789900  0.89589700  1
  H  H47  1  0.68196600  0.84744300  0.91726900  1
  H  H48  1  0.15255700  0.31803400  0.91726900  1
  H  H49  1  0.54240300  0.45759700  0.95608100  1
  H  H50  1  0.98253800  0.66586900  0.99963200  1
  H  H51  1  0.33413100  0.01746200  0.99963200  1
  Au  Au0  1  0.07599700  0.92400300  0.24991300  1
  Au  Au1  1  0.92400300  0.07599700  0.74991300  1
  C  C0  1  0.92304900  0.64244800  0.09394700  1
  C  C1  1  0.35755200  0.07695100  0.09394700  1
  C  C2  1  0.12775200  0.61955100  0.24997200  1
  C  C3  1  0.88614800  0.90677400  0.24988800  1
  C  C4  1  0.38044900  0.87224800  0.24997200  1
  C  C5  1  0.09322600  0.11385200  0.24988800  1
  C  C6  1  0.48812500  0.51187500  0.35639400  1
  C  C7  1  0.92305800  0.64250000  0.40597700  1
  C  C8  1  0.35750000  0.07694200  0.40597700  1
  C  C9  1  0.64244800  0.92304900  0.59394700  1
  C  C10  1  0.07695100  0.35755200  0.59394700  1
  C  C11  1  0.90677400  0.88614800  0.74988800  1
  C  C12  1  0.61955100  0.12775200  0.74997200  1
  C  C13  1  0.87224800  0.38044900  0.74997200  1
  C  C14  1  0.11385200  0.09322600  0.74988800  1
  C  C15  1  0.51187500  0.48812500  0.85639400  1
  C  C16  1  0.64250000  0.92305800  0.90597700  1
  C  C17  1  0.07694200  0.35750000  0.90597700  1
  Cl  Cl0  1  0.57417100  0.64533700  0.26159100  1
  Cl  Cl1  1  0.72390600  0.27609400  0.24979000  1
  Cl  Cl2  1  0.35466300  0.42582900  0.26159100  1
  Cl  Cl3  1  0.42582900  0.35466300  0.76159100  1
  Cl  Cl4  1  0.27609400  0.72390600  0.74979000  1
  Cl  Cl5  1  0.64533700  0.57417100  0.76159100  1
  O  O0  1  0.67880500  0.32119500  0.12132800  1
  O  O1  1  0.68022100  0.14113200  0.25068900  1
  O  O2  1  0.85886800  0.31977900  0.25068900  1
  O  O3  1  0.67755100  0.32244900  0.37632600  1
  O  O4  1  0.32119500  0.67880500  0.62132800  1
  O  O5  1  0.31977900  0.85886800  0.75068900  1
  O  O6  1  0.14113200  0.68022100  0.75068900  1
  O  O7  1  0.32244900  0.67755100  0.87632600  1
loop_
_geom_bond_atom_site_label_1
_geom_bond_atom_site_label_2
_geom_bond_distance
_geom_bond_site_symmetry_2
Au0 C3 2.118418 1_455
Au0 C5 2.118418 1_565
Au0 P0 2.399585 1_555
Au0 P1 2.399585 1_555
Au1 C11 2.118418 1_545
Au1 C14 2.118418 1_655
Au1 P3 2.399585 1_555
Au1 P2 2.399585 1_555
C0 H2 1.096205 1_555
C0 H50 1.098772 1_554
C0 H4 1.099274 1_555
C0 P1 1.818837 1_655
C1 H3 1.096205 1_555
C1 H51 1.098772 1_554
C1 H5 1.099274 1_555
C1 P0 1.818837 1_545
C2 H8 1.096322 1_555
C2 H14 1.096348 1_555
C2 H13 1.100447 1_555
C2 P1 1.819647 1_555
C3 H7 1.094877 1_555
C3 H15 1.094914 1_555
C3 H11 1.095149 1_555
C4 H6 1.096322 1_555
C4 H16 1.096348 1_555
C4 H10 1.100447 1_555
C4 P0 1.819647 1_555
C5 H9 1.094877 1_555
C5 H17 1.094914 1_555
C5 H12 1.095149 1_555
C6 H23 1.093392 1_555
C6 H18 1.093489 1_555
C6 Cl0 1.779435 1_555
C6 Cl2 1.779435 1_555
C7 H21 1.096465 1_555
C7 H26 1.098842 1_555
C7 H19 1.099374 1_555
C7 P1 1.819333 1_655
C8 H22 1.096465 1_555
C8 H27 1.098842 1_555
C8 H20 1.099374 1_555
C8 P0 1.819333 1_545
C9 H28 1.096205 1_555
C9 H24 1.098772 1_555
C9 H30 1.099274 1_555
C9 P2 1.818837 1_565
C10 H29 1.096205 1_555
C10 H25 1.098772 1_555
C10 H31 1.099274 1_555
C10 P3 1.818837 1_455
C11 H33 1.094877 1_555
C11 H41 1.094914 1_555
C11 H36 1.095149 1_555
C12 H32 1.096322 1_555
C12 H40 1.096348 1_555
C12 H37 1.100447 1_555
C12 P2 1.819647 1_555
C13 H34 1.096322 1_555
C13 H42 1.096348 1_555
C13 H38 1.100447 1_555
C13 P3 1.819647 1_555
C14 H35 1.094877 1_555
C14 H43 1.094914 1_555
C14 H39 1.095149 1_555
C15 H49 1.093392 1_555
C15 H44 1.093489 1_555
C15 Cl5 1.779435 1_555
C15 Cl3 1.779435 1_555
C16 H47 1.096465 1_555
C16 H0 1.098842 1_556
C16 H45 1.099374 1_555
C16 P2 1.819333 1_565
C17 H48 1.096465 1_555
C17 H1 1.098842 1_556
C17 H46 1.099374 1_555
C17 P3 1.819333 1_455
Cl1 O3 1.465419 1_555
Cl1 O0 1.466829 1_555
Cl1 O1 1.468603 1_555
Cl1 O2 1.468603 1_555
Cl4 O7 1.465419 1_555
Cl4 O4 1.466829 1_555
Cl4 O6 1.468603 1_555
Cl4 O5 1.468603 1_555
