# generated using pymatgen
data_K2MgFe4P6(O4F3)4
_symmetry_space_group_name_H-M   'P 1'
_cell_length_a   7.63172631
_cell_length_b   7.88983739
_cell_length_c   10.15183134
_cell_angle_alpha   99.51098108
_cell_angle_beta   102.15405461
_cell_angle_gamma   92.61796510
_symmetry_Int_Tables_number   1
_chemical_formula_structural   K2MgFe4P6(O4F3)4
_chemical_formula_sum   'K2 Mg1 Fe4 P6 O16 F12'
_cell_volume   587.30105599
_cell_formula_units_Z   1
loop_
 _symmetry_equiv_pos_site_id
 _symmetry_equiv_pos_as_xyz
  1  'x, y, z'
loop_
 _atom_site_type_symbol
 _atom_site_label
 _atom_site_symmetry_multiplicity
 _atom_site_fract_x
 _atom_site_fract_y
 _atom_site_fract_z
 _atom_site_occupancy
  K  K0  1  0.70435764  0.09844909  0.72072195  1
  K  K1  1  0.29564236  0.90155091  0.27927805  1
  Mg  Mg0  1  0.00000000  0.00000000  0.00000000  1
  Fe  Fe0  1  0.65628099  0.29269173  0.33806738  1
  Fe  Fe1  1  0.34371901  0.70730827  0.66193262  1
  Fe  Fe2  1  0.50000000  0.50000000  0.00000000  1
  Fe  Fe3  1  0.00000000  0.00000000  0.50000000  1
  P  P0  1  0.66771338  0.69125442  0.49692269  1
  P  P1  1  0.33228662  0.30874558  0.50307731  1
  P  P2  1  0.27462927  0.07689064  0.86886722  1
  P  P3  1  0.72537073  0.92310936  0.13113278  1
  P  P4  1  0.07826971  0.59378190  0.84781910  1
  P  P5  1  0.92173029  0.40621810  0.15218090  1
  O  O0  1  0.70265091  0.50252748  0.48348226  1
  O  O1  1  0.29734909  0.49747252  0.51651774  1
  O  O2  1  0.82519038  0.81166842  0.49371070  1
  O  O3  1  0.17480962  0.18833158  0.50628930  1
  O  O4  1  0.63448835  0.05624879  0.21226699  1
  O  O5  1  0.36551165  0.94375121  0.78773301  1
  O  O6  1  0.37451529  0.25092296  0.90817391  1
  O  O7  1  0.62548471  0.74907704  0.09182609  1
  O  O8  1  0.93263293  0.93519233  0.16934163  1
  O  O9  1  0.06736707  0.06480767  0.83065837  1
  O  O10  1  0.88700844  0.35103467  0.27839392  1
  O  O11  1  0.11299156  0.64896533  0.72160608  1
  O  O12  1  0.78292430  0.42688982  0.03110499  1
  O  O13  1  0.21707570  0.57311018  0.96889501  1
  O  O14  1  0.42067370  0.23654169  0.38558406  1
  O  O15  1  0.57932630  0.76345831  0.61441594  1
  F  F0  1  0.79401953  0.16497738  0.48048943  1
  F  F1  1  0.20598047  0.83502262  0.51951057  1
  F  F2  1  0.52903044  0.39826668  0.18891947  1
  F  F3  1  0.47096956  0.60173332  0.81108053  1
  F  F4  1  0.72114917  0.99772752  0.97856249  1
  F  F5  1  0.27885083  0.00227248  0.02143751  1
  F  F6  1  0.93201697  0.43809797  0.80144308  1
  F  F7  1  0.06798303  0.56190203  0.19855692  1
  F  F8  1  0.47886107  0.29755954  0.63885806  1
  F  F9  1  0.52113893  0.70244046  0.36114194  1
  F  F10  1  0.04956322  0.26437385  0.09429364  1
  F  F11  1  0.95043678  0.73562615  0.90570636  1
loop_
_geom_bond_atom_site_label_1
_geom_bond_atom_site_label_2
_geom_bond_distance
_geom_bond_site_symmetry_2
K0 O15 2.730222 1_545
K0 O9 2.802536 1_655
K0 O5 3.060495 1_545
K0 O2 3.262410 1_545
K1 O14 2.730222 1_565
K1 O8 2.802536 1_455
K1 O4 3.060495 1_565
K1 O3 3.262410 1_565
Mg0 O8 2.029736 1_445
Mg0 O9 2.029736 1_554
Fe0 O0 1.991034 1_555
Fe0 O14 2.006282 1_555
Fe0 O10 2.036357 1_555
Fe0 O4 2.057576 1_555
Fe1 O1 1.991034 1_555
Fe1 O15 2.006282 1_555
Fe1 O11 2.036357 1_555
Fe1 O5 2.057576 1_555
Fe2 O7 2.120094 1_555
Fe2 O6 2.120094 1_554
Fe2 O12 2.231919 1_555
Fe2 O13 2.231919 1_554
Fe3 O3 1.934813 1_555
Fe3 O2 1.934813 1_445
O0 P0 1.513721 1_555
O1 P1 1.513721 1_555
O2 P0 1.506805 1_555
O3 P1 1.506805 1_555
O4 P3 1.511327 1_545
O5 P2 1.511327 1_565
O6 P2 1.490277 1_555
O7 P3 1.490277 1_555
O8 P3 1.541813 1_555
O9 P2 1.541813 1_555
O10 P5 1.489389 1_555
O11 P4 1.489389 1_555
O12 P5 1.480988 1_555
O13 P4 1.480988 1_555
O14 P1 1.533490 1_555
O15 P0 1.533490 1_555
F0 Fe0 2.036922 1_555
F0 Fe3 2.084626 1_655
F0 K0 2.790060 1_555
F1 Fe1 2.036922 1_555
F1 Fe3 2.084626 1_565
F1 K1 2.790060 1_555
F2 Fe0 1.949629 1_555
F2 Fe2 2.172018 1_555
F3 Fe1 1.949629 1_555
F3 Fe2 2.172018 1_556
F4 P3 1.740314 1_556
F4 Mg0 2.092069 1_666
F4 K0 2.838133 1_565
F5 P2 1.740314 1_554
F5 Mg0 2.092069 1_555
F5 K1 2.838133 1_545
F6 P4 1.561605 1_655
F6 K0 3.020070 1_555
F7 P5 1.561605 1_455
F7 K1 3.020070 1_555
F8 P1 1.599715 1_555
F8 K0 2.489245 1_555
F9 P0 1.599715 1_555
F9 K1 2.489245 1_555
F10 P5 1.635045 1_455
F10 Mg0 2.127404 1_555
F11 P4 1.635045 1_655
F11 Mg0 2.127404 1_666
