# generated using pymatgen
data_NdGePt
_symmetry_space_group_name_H-M   'P 1'
_cell_length_a   5.76385512
_cell_length_b   5.76385512
_cell_length_c   7.32217387
_cell_angle_alpha   51.37552102
_cell_angle_beta   51.37552102
_cell_angle_gamma   44.63968870
_symmetry_Int_Tables_number   1
_chemical_formula_structural   NdGePt
_chemical_formula_sum   'Nd2 Ge2 Pt2'
_cell_volume   126.14690876
_cell_formula_units_Z   2
loop_
 _symmetry_equiv_pos_site_id
 _symmetry_equiv_pos_as_xyz
  1  'x, y, z'
loop_
 _atom_site_type_symbol
 _atom_site_label
 _atom_site_symmetry_multiplicity
 _atom_site_fract_x
 _atom_site_fract_y
 _atom_site_fract_z
 _atom_site_occupancy
  Nd  Nd0  1  0.54950564  0.54950564  0.68695118  1
  Nd  Nd1  1  0.45049436  0.45049436  0.31304882  1
  Ge  Ge0  1  0.83885570  0.83885570  0.09081811  1
  Ge  Ge1  1  0.16114430  0.16114430  0.90918189  1
  Pt  Pt0  1  0.17954039  0.17954039  0.27877308  1
  Pt  Pt1  1  0.82045961  0.82045961  0.72122692  1
loop_
_geom_bond_atom_site_label_1
_geom_bond_atom_site_label_2
_geom_bond_distance
_geom_bond_site_symmetry_2
Nd0 Pt1 3.064414 1_555
Nd0 Pt1 3.161233 1_545
Nd0 Pt1 3.161233 1_455
Nd0 Pt0 3.170811 1_655
Nd0 Pt0 3.170811 1_565
Nd0 Pt0 3.357295 1_556
Nd1 Pt0 3.064414 1_555
Nd1 Pt0 3.161233 1_655
Nd1 Pt0 3.161233 1_565
Nd1 Pt1 3.170811 1_455
Nd1 Pt1 3.170811 1_545
Nd1 Pt1 3.357295 1_554
Ge0 Pt0 2.533109 1_655
Ge0 Pt0 2.533109 1_565
Ge0 Ge1 2.722569 1_664
Ge0 Pt1 2.842275 1_554
Ge0 Nd0 3.101268 1_564
Ge0 Nd0 3.101268 1_654
Ge0 Nd0 3.224545 1_555
Ge0 Nd1 3.271876 1_555
Ge0 Nd1 3.386906 1_565
Ge0 Nd1 3.386906 1_655
Ge1 Pt1 2.533109 1_545
Ge1 Pt1 2.533109 1_455
Ge1 Pt0 2.842275 1_556
Ge1 Nd1 3.101268 1_546
Ge1 Nd1 3.101268 1_456
Ge1 Nd1 3.224545 1_555
Ge1 Nd0 3.271876 1_555
Ge1 Nd0 3.386906 1_455
Ge1 Nd0 3.386906 1_545
Pt0 Pt1 2.901207 1_445
