# generated using pymatgen
data_Zn2Cu9O13
_symmetry_space_group_name_H-M   'P 1'
_cell_length_a   5.12997359
_cell_length_b   5.12997359
_cell_length_c   16.35122558
_cell_angle_alpha   82.04840502
_cell_angle_beta   82.04840502
_cell_angle_gamma   33.25215116
_symmetry_Int_Tables_number   1
_chemical_formula_structural   Zn2Cu9O13
_chemical_formula_sum   'Zn2 Cu9 O13'
_cell_volume   233.47716307
_cell_formula_units_Z   1
loop_
 _symmetry_equiv_pos_site_id
 _symmetry_equiv_pos_as_xyz
  1  'x, y, z'
loop_
 _atom_site_type_symbol
 _atom_site_label
 _atom_site_symmetry_multiplicity
 _atom_site_fract_x
 _atom_site_fract_y
 _atom_site_fract_z
 _atom_site_occupancy
  Zn  Zn0  1  0.78592400  0.78592400  0.22730500  1
  Zn  Zn1  1  0.21407600  0.21407600  0.77269500  1
  Cu  Cu0  1  0.50000000  0.50000000  0.50000000  1
  Cu  Cu1  1  0.35653800  0.35653800  0.04118600  1
  Cu  Cu2  1  0.64346200  0.64346200  0.95881400  1
  Cu  Cu3  1  0.25168100  0.25168100  0.41852000  1
  Cu  Cu4  1  0.74831900  0.74831900  0.58148000  1
  Cu  Cu5  1  0.06784100  0.06784100  0.12282900  1
  Cu  Cu6  1  0.93215900  0.93215900  0.87717100  1
  Cu  Cu7  1  0.00907700  0.00907700  0.33244800  1
  Cu  Cu8  1  0.99092300  0.99092300  0.66755200  1
  O  O0  1  0.00000000  0.00000000  0.00000000  1
  O  O1  1  0.14459200  0.14459200  0.22690200  1
  O  O2  1  0.85540800  0.85540800  0.77309900  1
  O  O3  1  0.70145200  0.70145200  0.07035300  1
  O  O4  1  0.29854800  0.29854800  0.92964700  1
  O  O5  1  0.42036700  0.42036700  0.14582800  1
  O  O6  1  0.57963300  0.57963300  0.85417200  1
  O  O7  1  0.37429200  0.37429200  0.31592000  1
  O  O8  1  0.62570800  0.62570800  0.68408000  1
  O  O9  1  0.60902700  0.60902700  0.38784200  1
  O  O10  1  0.39097300  0.39097300  0.61215800  1
  O  O11  1  0.86912600  0.86912600  0.47034600  1
  O  O12  1  0.13087400  0.13087400  0.52965400  1
loop_
_geom_bond_atom_site_label_1
_geom_bond_atom_site_label_2
_geom_bond_distance
_geom_bond_site_symmetry_2
Cu0 O10 1.986086 1_555
Cu0 O9 1.986086 1_555
Cu0 O12 2.055507 1_655
Cu0 O12 2.055507 1_565
Cu0 O11 2.055507 1_545
Cu0 O11 2.055507 1_455
Cu1 O5 1.905619 1_555
Cu1 O4 1.987833 1_554
Cu1 O0 2.079159 1_565
Cu1 O0 2.079159 1_655
Cu1 O3 2.120501 1_545
Cu1 O3 2.120501 1_455
Cu2 O6 1.905619 1_555
Cu2 O3 1.987833 1_556
Cu2 O0 2.079159 1_656
Cu2 O0 2.079159 1_566
Cu2 O4 2.120501 1_565
Cu2 O4 2.120501 1_655
Cu3 O7 1.919251 1_555
Cu3 O12 2.022249 1_555
Cu3 O11 2.118540 1_545
Cu3 O11 2.118540 1_455
Cu3 O9 2.139168 1_455
Cu3 O9 2.139168 1_545
Cu4 O8 1.919251 1_555
Cu4 O11 2.022249 1_555
Cu4 O12 2.118540 1_655
Cu4 O12 2.118540 1_565
Cu4 O10 2.139168 1_565
Cu4 O10 2.139168 1_655
Cu5 O1 1.958555 1_555
Cu5 O5 2.059231 1_455
Cu5 O5 2.059231 1_545
Cu5 O3 2.071386 1_545
Cu5 O3 2.071386 1_455
Cu5 O0 2.205737 1_555
Cu6 O2 1.958540 1_555
Cu6 O6 2.059231 1_565
Cu6 O6 2.059231 1_655
Cu6 O4 2.071386 1_655
Cu6 O4 2.071386 1_565
Cu6 O0 2.205737 1_666
Cu7 O7 2.021564 1_455
Cu7 O7 2.021564 1_545
Cu7 O1 2.022229 1_555
Cu7 O9 2.048750 1_455
Cu7 O9 2.048750 1_545
Cu7 O11 2.466039 1_445
Cu8 O8 2.021564 1_565
Cu8 O8 2.021564 1_655
Cu8 O2 2.022242 1_555
Cu8 O10 2.048750 1_655
Cu8 O10 2.048750 1_565
Cu8 O12 2.466039 1_665
O1 Zn0 2.021803 1_545
O1 Zn0 2.021803 1_455
O2 Zn1 2.021805 1_565
O2 Zn1 2.021805 1_655
O5 Zn0 2.273288 1_455
O5 Zn0 2.273288 1_545
O6 Zn1 2.273288 1_655
O6 Zn1 2.273288 1_565
O7 Zn0 2.317790 1_455
O7 Zn0 2.317790 1_545
O8 Zn1 2.317790 1_565
O8 Zn1 2.317790 1_655
