# generated using pymatgen
data_LaMgCrBiO6
_symmetry_space_group_name_H-M   'P 1'
_cell_length_a   5.55880849
_cell_length_b   5.76034100
_cell_length_c   8.12273892
_cell_angle_alpha   90.00000000
_cell_angle_beta   89.04939831
_cell_angle_gamma   90.00000000
_symmetry_Int_Tables_number   1
_chemical_formula_structural   LaMgCrBiO6
_chemical_formula_sum   'La2 Mg2 Cr2 Bi2 O12'
_cell_volume   260.05944100
_cell_formula_units_Z   2
loop_
 _symmetry_equiv_pos_site_id
 _symmetry_equiv_pos_as_xyz
  1  'x, y, z'
loop_
 _atom_site_type_symbol
 _atom_site_label
 _atom_site_symmetry_multiplicity
 _atom_site_fract_x
 _atom_site_fract_y
 _atom_site_fract_z
 _atom_site_occupancy
  La  La0  1  0.01270800  0.94371200  0.75238500  1
  La  La1  1  0.51270800  0.55628800  0.25238500  1
  Mg  Mg0  1  0.48090600  0.45028200  0.74935800  1
  Mg  Mg1  1  0.98090600  0.04971800  0.24935800  1
  Cr  Cr0  1  0.50032500  0.00580000  0.50045100  1
  Cr  Cr1  1  0.00032500  0.49420000  0.00045100  1
  Bi  Bi0  1  0.49819900  0.00474300  0.00187700  1
  Bi  Bi1  1  0.99819900  0.49525700  0.50187700  1
  O  O0  1  0.11050100  0.41636400  0.23428000  1
  O  O1  1  0.18610600  0.21870300  0.92615700  1
  O  O2  1  0.21739800  0.19431700  0.56935700  1
  O  O3  1  0.30115300  0.66681400  0.92621000  1
  O  O4  1  0.34634700  0.69568500  0.57017000  1
  O  O5  1  0.34635500  0.95377200  0.26975500  1
  O  O6  1  0.61050100  0.08363600  0.73428000  1
  O  O7  1  0.68610600  0.28129700  0.42615700  1
  O  O8  1  0.71739800  0.30568300  0.06935700  1
  O  O9  1  0.80115300  0.83318600  0.42621000  1
  O  O10  1  0.84634700  0.80431500  0.07017000  1
  O  O11  1  0.84635500  0.54622800  0.76975500  1
loop_
_geom_bond_atom_site_label_1
_geom_bond_atom_site_label_2
_geom_bond_distance
_geom_bond_site_symmetry_2
La0 O1 2.340033 1_565
La0 O2 2.352163 1_565
La0 O6 2.383475 1_465
La0 O11 2.472481 1_455
La0 O3 2.680245 1_555
La0 O4 2.753268 1_555
La0 O10 2.843201 1_456
La0 O9 2.985162 1_455
La1 O7 2.340033 1_555
La1 O8 2.352163 1_555
La1 O0 2.383475 1_555
La1 O5 2.472481 1_555
La1 O9 2.680245 1_555
La1 O10 2.753268 1_555
La1 O4 2.843201 1_555
La1 O3 2.985162 1_554
Mg0 O11 2.114452 1_555
Mg0 O3 2.137791 1_555
Mg0 O4 2.170797 1_555
Mg0 O6 2.234191 1_555
Mg0 O1 2.539531 1_555
Mg0 O2 2.555074 1_555
Mg1 O5 2.114452 1_645
Mg1 O9 2.137791 1_545
Mg1 O10 2.170797 1_545
Mg1 O0 2.234191 1_655
Mg1 O7 2.539531 1_555
Mg1 O8 2.555074 1_555
Cr0 O7 1.982030 1_555
Cr0 O2 1.984135 1_555
Cr0 O9 2.028611 1_545
Cr0 O6 2.054794 1_555
Cr0 O4 2.056297 1_545
Cr0 O5 2.094522 1_545
Cr1 O1 1.982030 1_554
Cr1 O8 1.984135 1_455
Cr1 O3 2.028611 1_554
Cr1 O0 2.054794 1_555
Cr1 O10 2.056297 1_455
Cr1 O11 2.094522 1_454
Bi0 O8 2.193715 1_555
Bi0 O1 2.223166 1_554
Bi0 O6 2.296919 1_554
Bi0 O3 2.321437 1_544
Bi0 O10 2.328439 1_545
Bi0 O5 2.339290 1_545
Bi1 O2 2.193715 1_655
Bi1 O7 2.223166 1_555
Bi1 O0 2.296919 1_655
Bi1 O9 2.321437 1_555
Bi1 O4 2.328439 1_655
Bi1 O11 2.339290 1_555
