# generated using pymatgen
data_MgZn4(Se2O5)4
_symmetry_space_group_name_H-M   'P 1'
_cell_length_a   6.43904897
_cell_length_b   7.19798710
_cell_length_c   10.29967753
_cell_angle_alpha   90.00000000
_cell_angle_beta   90.00000000
_cell_angle_gamma   87.92909752
_symmetry_Int_Tables_number   1
_chemical_formula_structural   MgZn4(Se2O5)4
_chemical_formula_sum   'Mg1 Zn4 Se8 O20'
_cell_volume   477.05964235
_cell_formula_units_Z   1
loop_
 _symmetry_equiv_pos_site_id
 _symmetry_equiv_pos_as_xyz
  1  'x, y, z'
loop_
 _atom_site_type_symbol
 _atom_site_label
 _atom_site_symmetry_multiplicity
 _atom_site_fract_x
 _atom_site_fract_y
 _atom_site_fract_z
 _atom_site_occupancy
  Mg  Mg0  1  0.75000000  0.50000000  0.73655177  1
  Zn  Zn0  1  0.75000000  0.00000000  0.94455134  1
  Zn  Zn1  1  0.25000000  0.50000000  0.56084391  1
  Zn  Zn2  1  0.25000000  0.00000000  0.04851173  1
  Zn  Zn3  1  0.75000000  0.50000000  0.42639750  1
  Se  Se0  1  0.08596569  0.31914047  0.85965838  1
  Se  Se1  1  0.53876589  0.15366303  0.65881231  1
  Se  Se2  1  0.96123411  0.84633697  0.65881231  1
  Se  Se3  1  0.41403431  0.68085953  0.85965838  1
  Se  Se4  1  0.95527639  0.63278847  0.15516776  1
  Se  Se5  1  0.45588078  0.85912153  0.33952041  1
  Se  Se6  1  0.04411922  0.14087847  0.33952041  1
  Se  Se7  1  0.54472361  0.36721153  0.15516776  1
  O  O0  1  0.75000000  0.00000000  0.58009614  1
  O  O1  1  0.25000000  0.50000000  0.94063136  1
  O  O2  1  0.25000000  0.00000000  0.42869838  1
  O  O3  1  0.75000000  0.50000000  0.06737443  1
  O  O4  1  0.21608766  0.29361257  0.70856336  1
  O  O5  1  0.66854073  0.22913329  0.79207920  1
  O  O6  1  0.83145927  0.77086671  0.79207920  1
  O  O7  1  0.28391234  0.70638743  0.70856336  1
  O  O8  1  0.82721746  0.69636177  0.29507835  1
  O  O9  1  0.33506599  0.80713376  0.19776477  1
  O  O10  1  0.16493401  0.19286624  0.19776477  1
  O  O11  1  0.67278254  0.30363823  0.29507835  1
  O  O12  1  0.05964130  0.34461500  0.42778352  1
  O  O13  1  0.56145326  0.16492395  0.07132212  1
  O  O14  1  0.93854674  0.83507605  0.07132212  1
  O  O15  1  0.44035870  0.65538500  0.42778352  1
  O  O16  1  0.92700907  0.62669847  0.57888049  1
  O  O17  1  0.46081979  0.92440522  0.90166605  1
  O  O18  1  0.03918021  0.07559478  0.90166605  1
  O  O19  1  0.57299093  0.37330153  0.57888049  1
loop_
_geom_bond_atom_site_label_1
_geom_bond_atom_site_label_2
_geom_bond_distance
_geom_bond_site_symmetry_2
Mg0 O6 2.115993 1_555
Mg0 O5 2.115993 1_555
Mg0 O19 2.200716 1_555
Mg0 O16 2.200716 1_555
Mg0 Se3 2.789049 1_555
Mg0 Se0 2.789049 1_655
O0 Se2 1.903147 1_545
O0 Se1 1.903147 1_555
O1 Se3 1.898758 1_555
O1 Se0 1.898758 1_555
O2 Se5 1.879413 1_545
O2 Se6 1.879413 1_555
O3 Se7 1.889352 1_555
O3 Se4 1.889352 1_555
O4 Se0 1.773838 1_555
O4 Zn1 2.143107 1_555
O4 Se1 2.333040 1_555
O5 Se1 1.705939 1_555
O5 Zn0 2.323571 1_555
O6 Se2 1.705939 1_555
O6 Zn0 2.323571 1_565
O7 Se3 1.773838 1_555
O7 Zn1 2.143107 1_555
O7 Se2 2.333040 1_455
O8 Se4 1.714245 1_555
O8 Zn3 2.031036 1_555
O9 Se5 1.702339 1_555
O9 Zn2 2.129663 1_565
O10 Se6 1.702339 1_555
O10 Zn2 2.129663 1_555
O11 Se7 1.714245 1_555
O11 Zn3 2.031036 1_555
O12 Se6 1.731362 1_555
O12 Zn1 2.175007 1_555
O12 Zn3 2.250602 1_455
O13 Se7 1.692975 1_555
O13 Zn0 2.117519 1_554
O13 Zn2 2.378738 1_555
O14 Se4 1.692975 1_555
O14 Zn0 2.117519 1_564
O14 Zn2 2.378738 1_665
O15 Se5 1.731362 1_555
O15 Zn1 2.175007 1_555
O15 Zn3 2.250602 1_555
O16 Se2 1.803037 1_555
O16 Zn3 2.161584 1_555
O16 Zn1 2.248223 1_655
O17 Se3 1.840996 1_555
O17 Zn0 2.007890 1_565
O17 Zn2 2.091169 1_566
O18 Se0 1.840996 1_555
O18 Zn0 2.007890 1_455
O18 Zn2 2.091169 1_556
O19 Se1 1.803037 1_555
O19 Zn3 2.161584 1_555
O19 Zn1 2.248223 1_555
