# generated using pymatgen
data_NdSbPt
_symmetry_space_group_name_H-M   'P 1'
_cell_length_a   4.53773848
_cell_length_b   4.53773815
_cell_length_c   8.20486301
_cell_angle_alpha   90.00000000
_cell_angle_beta   90.00000000
_cell_angle_gamma   120.00000969
_symmetry_Int_Tables_number   1
_chemical_formula_structural   NdSbPt
_chemical_formula_sum   'Nd2 Sb2 Pt2'
_cell_volume   146.31229344
_cell_formula_units_Z   2
loop_
 _symmetry_equiv_pos_site_id
 _symmetry_equiv_pos_as_xyz
  1  'x, y, z'
loop_
 _atom_site_type_symbol
 _atom_site_label
 _atom_site_symmetry_multiplicity
 _atom_site_fract_x
 _atom_site_fract_y
 _atom_site_fract_z
 _atom_site_occupancy
  Nd  Nd0  1  -0.00000000  0.00000000  0.49809781  1
  Nd  Nd1  1  -0.00000000  0.00000000  0.99809781  1
  Sb  Sb0  1  0.66666700  0.33333300  0.23869741  1
  Sb  Sb1  1  0.33333300  0.66666700  0.73869741  1
  Pt  Pt0  1  0.33333300  0.66666700  0.28710479  1
  Pt  Pt1  1  0.66666700  0.33333300  0.78710479  1
loop_
_geom_bond_atom_site_label_1
_geom_bond_atom_site_label_2
_geom_bond_distance
_geom_bond_site_symmetry_2
Nd0 Pt0 3.140163 1_545
Nd0 Pt0 3.140166 1_555
Nd0 Pt0 3.140166 1_445
Nd0 Sb1 3.280350 1_545
Nd0 Sb1 3.280353 1_555
Nd0 Sb1 3.280353 1_445
Nd0 Sb0 3.375430 1_455
Nd0 Sb0 3.375433 1_445
Nd0 Sb0 3.375433 1_555
Nd0 Pt1 3.533633 1_455
Nd0 Pt1 3.533636 1_445
Nd0 Pt1 3.533636 1_555
Nd1 Pt1 3.140163 1_455
Nd1 Pt1 3.140166 1_445
Nd1 Pt1 3.140166 1_555
Nd1 Sb0 3.280350 1_456
Nd1 Sb0 3.280353 1_446
Nd1 Sb0 3.280353 1_556
Nd1 Sb1 3.375430 1_545
Nd1 Sb1 3.375433 1_555
Nd1 Sb1 3.375433 1_445
Nd1 Pt0 3.533633 1_546
Nd1 Pt0 3.533636 1_556
Nd1 Pt0 3.533636 1_446
Pt0 Sb0 2.649797 1_565
Pt0 Sb0 2.649797 1_455
Pt0 Sb0 2.649805 1_555
Pt1 Sb1 2.649797 1_545
Pt1 Sb1 2.649797 1_655
Pt1 Sb1 2.649805 1_555
