# generated using pymatgen
data_Li6V3P8O29
_symmetry_space_group_name_H-M   'P 1'
_cell_length_a   9.81168200
_cell_length_b   9.81512197
_cell_length_c   13.94155515
_cell_angle_alpha   90.09106779
_cell_angle_beta   90.03545860
_cell_angle_gamma   119.96821668
_symmetry_Int_Tables_number   1
_chemical_formula_structural   Li6V3P8O29
_chemical_formula_sum   'Li12 V6 P16 O58'
_cell_volume   1163.10492314
_cell_formula_units_Z   2
loop_
 _symmetry_equiv_pos_site_id
 _symmetry_equiv_pos_as_xyz
  1  'x, y, z'
loop_
 _atom_site_type_symbol
 _atom_site_label
 _atom_site_symmetry_multiplicity
 _atom_site_fract_x
 _atom_site_fract_y
 _atom_site_fract_z
 _atom_site_occupancy
  Li  Li0  1  0.67344000  0.77056300  0.05983200  1
  Li  Li1  1  0.22779800  0.32312800  0.56299600  1
  Li  Li2  1  0.33872400  0.66877300  0.88361400  1
  Li  Li3  1  0.09542700  0.33012600  0.06128900  1
  Li  Li4  1  0.23384500  0.90970700  0.06122100  1
  Li  Li5  1  0.91014100  0.22323700  0.44201800  1
  Li  Li6  1  0.08996200  0.77070300  0.56031500  1
  Li  Li7  1  0.90145600  0.66733200  0.93882200  1
  Li  Li8  1  0.66390800  0.32908200  0.61471400  1
  Li  Li9  1  0.77444100  0.69237100  0.43864500  1
  Li  Li10  1  0.31602800  0.08896800  0.43914700  1
  Li  Li11  1  0.01126900  0.03834900  0.99304000  1
  V  V0  1  0.99953000  0.43049100  0.24967500  1
  V  V1  1  0.99931400  0.56330100  0.75031800  1
  V  V2  1  0.56905600  0.00119900  0.75109600  1
  V  V3  1  0.43567800  0.99907000  0.24896800  1
  V  V4  1  0.56469500  0.56732700  0.24920400  1
  V  V5  1  0.43715600  0.43225300  0.75268100  1
  P  P0  1  0.68568300  0.77420800  0.84032900  1
  P  P1  1  0.68426100  0.91528400  0.34320200  1
  P  P2  1  0.23338000  0.32022300  0.34416600  1
  P  P3  1  0.33180000  0.66561600  0.12505800  1
  P  P4  1  0.33403300  0.66685500  0.62840200  1
  P  P5  1  0.09191000  0.31622300  0.84400100  1
  P  P6  1  0.90803500  0.22733700  0.65934200  1
  P  P7  1  0.22581500  0.91015500  0.84583500  1
  P  P8  1  0.77463600  0.08340000  0.15604800  1
  P  P9  1  0.08863700  0.76751400  0.34069600  1
  P  P10  1  0.91087600  0.68183200  0.15775800  1
  P  P11  1  0.66718500  0.33456500  0.37150600  1
  P  P12  1  0.66730400  0.33334200  0.87328500  1
  P  P13  1  0.77036300  0.67864900  0.65407200  1
  P  P14  1  0.31833200  0.08819600  0.65831200  1
  P  P15  1  0.31001900  0.22476000  0.15881300  1
  O  O0  1  0.75981800  0.75496200  0.56492700  1
  O  O1  1  0.66198900  0.74731400  0.34050300  1
  O  O2  1  0.79208800  0.99896200  0.07162200  1
  O  O3  1  0.66637700  0.91875400  0.83886900  1
  O  O4  1  0.51951100  0.62506400  0.83096600  1
  O  O5  1  0.48846900  0.67865000  0.16365900  1
  O  O6  1  0.38087100  0.48171300  0.32289900  1
  O  O7  1  0.20339600  0.20846200  0.07745600  1
  O  O8  1  0.25799900  0.34115400  0.83741400  1
  O  O9  1  0.47314200  0.81696500  0.67624800  1
  O  O10  1  0.52205800  0.90414400  0.32218000  1
  O  O11  1  0.33882100  0.51973000  0.66967800  1
  O  O12  1  0.33061700  0.66379800  0.01702200  1
  O  O13  1  0.32706300  0.66604800  0.52227600  1
  O  O14  1  0.18847500  0.50991800  0.16394400  1
  O  O15  1  0.37440000  0.89394900  0.83496800  1
  O  O16  1  0.32037200  0.80986200  0.16351700  1
  O  O17  1  0.08394200  0.33527900  0.34257100  1
  O  O18  1  0.99919600  0.21307500  0.75132100  1
  O  O19  1  0.00384900  0.24725300  0.57082800  1
  O  O20  1  0.01077200  0.23080100  0.93395200  1
  O  O21  1  0.10352800  0.48007900  0.83311300  1
  O  O22  1  0.17943400  0.66006000  0.67156600  1
  O  O23  1  0.91835900  0.25509600  0.16187500  1
  O  O24  1  0.09999700  0.61821700  0.32067700  1
  O  O25  1  0.25283200  0.91634900  0.34079900  1
  O  O26  1  0.79280300  0.00003600  0.25096200  1
  O  O27  1  0.76447800  0.00594300  0.43043500  1
  O  O28  1  0.23862600  0.99499400  0.56927500  1
  O  O29  1  0.74512600  0.08175200  0.65980800  1
  O  O30  1  0.88605200  0.37339100  0.67375100  1
  O  O31  1  0.07790500  0.74411500  0.84152000  1
  O  O32  1  0.81519000  0.32784600  0.33401900  1
  O  O33  1  0.90336700  0.52420700  0.17124300  1
  O  O34  1  0.99611600  0.77073200  0.06866900  1
  O  O35  1  0.99935600  0.75385200  0.43084300  1
  O  O36  1  0.99881900  0.79008400  0.25040900  1
  O  O37  1  0.92125400  0.66498900  0.65750500  1
  O  O38  1  0.66209500  0.18516200  0.82712400  1
  O  O39  1  0.62131800  0.08732000  0.16671900  1
  O  O40  1  0.81850900  0.48422800  0.83128000  1
  O  O41  1  0.67024600  0.34158900  0.97907700  1
  O  O42  1  0.66797800  0.33683900  0.47940800  1
  O  O43  1  0.67280300  0.48748900  0.33185800  1
  O  O44  1  0.48592200  0.11290100  0.67124300  1
  O  O45  1  0.51376300  0.18589200  0.33363900  1
  O  O46  1  0.74357400  0.66261400  0.16064100  1
  O  O47  1  0.78676900  0.78304000  0.74791400  1
  O  O48  1  0.77197100  0.76934800  0.92931400  1
  O  O49  1  0.62655200  0.51138500  0.67074700  1
  O  O50  1  0.52252100  0.33860600  0.82678600  1
  O  O51  1  0.46597500  0.37959000  0.16809100  1
  O  O52  1  0.33857500  0.08203200  0.16186000  1
  O  O53  1  0.21951700  0.99299000  0.93458100  1
  O  O54  1  0.21457100  0.99889200  0.75094200  1
  O  O55  1  0.32977300  0.25074500  0.65756800  1
  O  O56  1  0.24830200  0.24848200  0.43576100  1
  O  O57  1  0.21310800  0.20444900  0.25763300  1
loop_
_geom_bond_atom_site_label_1
_geom_bond_atom_site_label_2
_geom_bond_distance
_geom_bond_site_symmetry_2
Li0 O2 1.949133 1_555
Li0 O48 2.063835 1_554
Li0 O46 2.074444 1_555
Li0 O5 2.138837 1_555
Li1 O19 1.939193 1_555
Li1 O56 1.966567 1_555
Li1 O55 1.988899 1_555
Li1 O11 2.238574 1_555
Li2 O12 1.861340 1_556
Li2 O4 2.151771 1_555
Li2 O15 2.167793 1_555
Li2 O21 2.230508 1_555
Li3 O7 1.965553 1_555
Li3 O20 1.993896 1_554
Li3 O23 2.062833 1_455
Li3 O14 2.092047 1_555
Li4 O53 1.980970 1_554
Li4 O34 2.033274 1_455
Li4 O52 2.034604 1_565
Li4 O16 2.132890 1_555
Li5 O27 1.889652 1_555
Li5 O19 1.976348 1_655
Li5 O17 2.042996 1_655
Li5 O32 2.268923 1_555
Li6 O28 1.944341 1_555
Li6 O35 1.981418 1_455
Li6 O37 1.985945 1_455
Li6 O22 2.304720 1_555
Li7 O48 1.976199 1_555
Li7 O31 2.026847 1_655
Li7 O34 2.054281 1_556
Li7 O40 2.160748 1_555
Li8 O42 1.887675 1_555
Li8 O44 2.116164 1_555
Li8 O49 2.144154 1_555
Li8 O30 2.160302 1_555
Li9 O0 1.892757 1_555
Li9 O35 1.978895 1_555
Li9 O1 1.993791 1_555
Li9 O43 2.289107 1_555
Li10 O56 1.983591 1_555
Li10 O28 2.006490 1_545
Li10 O25 2.019170 1_545
Li10 O45 2.235356 1_555
Li11 O20 2.064188 1_555
Li11 O7 2.138457 1_556
Li11 O2 2.268960 1_446
Li11 O53 2.438662 1_545
O0 P13 1.482080 1_555
O1 P1 1.551474 1_555
O1 V4 1.989684 1_555
O2 P8 1.496831 1_565
O3 P0 1.522393 1_555
O3 V2 1.959004 1_565
O4 P0 1.559786 1_555
O4 V5 1.972348 1_555
O5 P3 1.572010 1_555
O5 V4 1.998765 1_555
O6 P2 1.550784 1_555
O6 V4 1.872342 1_555
O7 P15 1.495759 1_555
O8 P5 1.525064 1_555
O8 V5 1.928897 1_555
O9 P4 1.570146 1_555
O9 V2 1.880712 1_565
O10 P1 1.567210 1_555
O10 V3 1.849068 1_555
O11 P4 1.577661 1_555
O11 V5 1.958715 1_555
O12 P3 1.506236 1_555
O13 P4 1.480925 1_555
O14 P3 1.569540 1_555
O14 V0 2.008727 1_455
O15 P7 1.550969 1_555
O15 V2 2.030082 1_565
O16 P3 1.568689 1_555
O16 V3 2.010050 1_555
O17 P2 1.545517 1_555
O17 V0 2.003089 1_455
O18 P6 1.608798 1_555
O18 P5 1.611312 1_655
O19 P6 1.504466 1_455
O20 P5 1.499047 1_555
O21 P5 1.562114 1_555
O21 V1 1.970051 1_455
O22 P4 1.602399 1_555
O22 V1 1.886688 1_455
O23 P8 1.568564 1_555
O23 V0 1.928374 1_555
O24 P9 1.549043 1_555
O24 V0 1.877501 1_455
O25 P9 1.542160 1_555
O25 V3 2.016872 1_555
O26 P1 1.612426 1_545
O26 P8 1.612797 1_555
O27 P1 1.478518 1_545
O28 P14 1.506575 1_565
O29 P6 1.521521 1_555
O29 V2 1.967395 1_555
O30 P6 1.565231 1_555
O30 V1 1.942078 1_555
O31 P7 1.549974 1_555
O31 V1 1.996334 1_455
O32 P11 1.575695 1_555
O32 V0 1.963416 1_555
O33 P10 1.523609 1_555
O33 V0 1.949605 1_555
O34 P10 1.509693 1_555
O35 P9 1.499805 1_655
O36 P9 1.613903 1_655
O36 P10 1.618729 1_555
O37 P13 1.552536 1_555
O37 V1 2.005908 1_555
O38 P12 1.566778 1_555
O38 V2 1.887615 1_555
O39 P8 1.531220 1_555
O39 V3 1.952524 1_545
O40 P12 1.595625 1_555
O40 V1 1.911345 1_555
O41 P12 1.476470 1_555
O42 P11 1.504409 1_555
O43 P11 1.575277 1_555
O43 V4 1.974539 1_555
O44 P14 1.548000 1_555
O44 V2 2.000733 1_555
O45 P11 1.573578 1_555
O45 V3 1.982750 1_545
O46 P10 1.556449 1_555
O46 V4 1.961135 1_555
O47 P0 1.602269 1_555
O47 P13 1.618054 1_555
O48 P0 1.515703 1_555
O49 P13 1.558081 1_555
O49 V5 1.981121 1_555
O50 P12 1.585313 1_555
O50 V5 1.839790 1_555
O51 P15 1.530882 1_555
O51 V4 1.954821 1_555
O52 P15 1.560484 1_555
O52 V3 1.955086 1_545
O53 P7 1.497578 1_555
O54 P14 1.608171 1_565
O54 P7 1.618777 1_555
O55 P14 1.542486 1_555
O55 V5 2.039066 1_555
O56 P2 1.501183 1_555
O57 P2 1.598679 1_555
O57 P15 1.629437 1_555
