# generated using pymatgen
data_Cr(Si2O5)2
_symmetry_space_group_name_H-M   'P 1'
_cell_length_a   7.52688500
_cell_length_b   7.52688500
_cell_length_c   16.19972200
_cell_angle_alpha   90.00000000
_cell_angle_beta   90.00000000
_cell_angle_gamma   90.00000000
_symmetry_Int_Tables_number   1
_chemical_formula_structural   Cr(Si2O5)2
_chemical_formula_sum   'Cr4 Si16 O40'
_cell_volume   917.77901460
_cell_formula_units_Z   4
loop_
 _symmetry_equiv_pos_site_id
 _symmetry_equiv_pos_as_xyz
  1  'x, y, z'
loop_
 _atom_site_type_symbol
 _atom_site_label
 _atom_site_symmetry_multiplicity
 _atom_site_fract_x
 _atom_site_fract_y
 _atom_site_fract_z
 _atom_site_occupancy
  Cr  Cr0  1  0.50000000  0.00000000  0.08958900  1
  Cr  Cr1  1  0.00000000  0.50000000  0.41041100  1
  Cr  Cr2  1  0.00000000  0.50000000  0.91041100  1
  Cr  Cr3  1  0.50000000  0.00000000  0.58958900  1
  Si  Si0  1  0.18337600  0.26926700  0.65360800  1
  Si  Si1  1  0.81662400  0.73073300  0.65360800  1
  Si  Si2  1  0.26926700  0.18337600  0.84639200  1
  Si  Si3  1  0.76926700  0.31662400  0.65360800  1
  Si  Si4  1  0.23073300  0.68337600  0.65360800  1
  Si  Si5  1  0.31662400  0.76926700  0.84639200  1
  Si  Si6  1  0.68337600  0.23073300  0.84639200  1
  Si  Si7  1  0.73073300  0.81662400  0.84639200  1
  Si  Si8  1  0.31662400  0.23073300  0.34639200  1
  Si  Si9  1  0.68337600  0.76926700  0.34639200  1
  Si  Si10  1  0.23073300  0.31662400  0.15360800  1
  Si  Si11  1  0.73073300  0.18337600  0.34639200  1
  Si  Si12  1  0.26926700  0.81662400  0.34639200  1
  Si  Si13  1  0.18337600  0.73073300  0.15360800  1
  Si  Si14  1  0.81662400  0.26926700  0.15360800  1
  Si  Si15  1  0.76926700  0.68337600  0.15360800  1
  O  O0  1  0.29286800  0.13062300  0.59652400  1
  O  O1  1  0.70713200  0.86937700  0.59652400  1
  O  O2  1  0.13062300  0.29286800  0.90347600  1
  O  O3  1  0.63062300  0.20713200  0.59652400  1
  O  O4  1  0.36937700  0.79286800  0.59652400  1
  O  O5  1  0.20713200  0.63062300  0.90347600  1
  O  O6  1  0.79286800  0.36937700  0.90347600  1
  O  O7  1  0.86937700  0.70713200  0.90347600  1
  O  O8  1  0.20713200  0.36937700  0.40347600  1
  O  O9  1  0.79286800  0.63062300  0.40347600  1
  O  O10  1  0.36937700  0.20713200  0.09652400  1
  O  O11  1  0.86937700  0.29286800  0.40347600  1
  O  O12  1  0.13062300  0.70713200  0.40347600  1
  O  O13  1  0.29286800  0.86937700  0.09652400  1
  O  O14  1  0.70713200  0.13062300  0.09652400  1
  O  O15  1  0.25195200  0.02824300  0.36514400  1
  O  O16  1  0.63062300  0.79286800  0.09652400  1
  O  O17  1  0.75195200  0.52824300  0.63485600  1
  O  O18  1  0.47175700  0.24804800  0.86514400  1
  O  O19  1  0.97175700  0.25195200  0.63485600  1
  O  O20  1  0.02824300  0.74804800  0.63485600  1
  O  O21  1  0.25195200  0.97175700  0.86514400  1
  O  O22  1  0.74804800  0.02824300  0.86514400  1
  O  O23  1  0.52824300  0.75195200  0.86514400  1
  O  O24  1  0.72009800  0.72009800  0.25000000  1
  O  O25  1  0.77990200  0.22009800  0.25000000  1
  O  O26  1  0.22009800  0.77990200  0.25000000  1
  O  O27  1  0.27990200  0.27990200  0.25000000  1
  O  O28  1  0.77990200  0.77990200  0.75000000  1
  O  O29  1  0.72009800  0.27990200  0.75000000  1
  O  O30  1  0.27990200  0.72009800  0.75000000  1
  O  O31  1  0.22009800  0.22009800  0.75000000  1
  O  O32  1  0.97175700  0.74804800  0.13485600  1
  O  O33  1  0.75195200  0.47175700  0.13485600  1
  O  O34  1  0.24804800  0.52824300  0.13485600  1
  O  O35  1  0.47175700  0.75195200  0.36514400  1
  O  O36  1  0.52824300  0.24804800  0.36514400  1
  O  O37  1  0.02824300  0.25195200  0.13485600  1
  O  O38  1  0.74804800  0.97175700  0.36514400  1
  O  O39  1  0.24804800  0.47175700  0.63485600  1
loop_
_geom_bond_atom_site_label_1
_geom_bond_atom_site_label_2
_geom_bond_distance
_geom_bond_site_symmetry_2
Cr0 O14 1.846601 1_555
Cr0 O13 1.846601 1_545
Cr0 O10 1.846601 1_555
Cr0 O16 1.846601 1_545
Cr1 O12 1.846601 1_555
Cr1 O9 1.846601 1_455
Cr1 O8 1.846601 1_555
Cr1 O11 1.846601 1_455
Cr2 O6 1.846601 1_455
Cr2 O2 1.846601 1_555
Cr2 O7 1.846601 1_455
Cr2 O5 1.846601 1_555
Cr3 O0 1.846601 1_555
Cr3 O4 1.846601 1_545
Cr3 O1 1.846601 1_545
Cr3 O3 1.846601 1_555
O0 Si0 1.619679 1_555
O1 Si1 1.619679 1_555
O2 Si2 1.619679 1_555
O3 Si3 1.619679 1_555
O4 Si4 1.619679 1_555
O5 Si5 1.619679 1_555
O6 Si6 1.619679 1_555
O7 Si7 1.619679 1_555
O8 Si8 1.619679 1_555
O9 Si9 1.619679 1_555
O10 Si10 1.619679 1_555
O11 Si11 1.619679 1_555
O12 Si12 1.619679 1_555
O13 Si13 1.619679 1_555
O14 Si14 1.619679 1_555
O15 Si12 1.626770 1_545
O15 Si8 1.628549 1_555
O16 Si15 1.619679 1_555
O17 Si3 1.626770 1_555
O17 Si1 1.628549 1_555
O18 Si6 1.626770 1_555
O18 Si2 1.628549 1_555
O19 Si0 1.626770 1_655
O19 Si3 1.628549 1_555
O20 Si1 1.626770 1_455
O20 Si4 1.628549 1_555
O21 Si2 1.626770 1_565
O21 Si5 1.628549 1_555
O22 Si7 1.626770 1_545
O22 Si6 1.628549 1_555
O23 Si5 1.626770 1_555
O23 Si7 1.628549 1_555
O24 Si9 1.628410 1_555
O24 Si15 1.628410 1_555
O25 Si11 1.628410 1_555
O25 Si14 1.628410 1_555
O26 Si12 1.628410 1_555
O26 Si13 1.628410 1_555
O27 Si8 1.628410 1_555
O27 Si10 1.628410 1_555
O28 Si7 1.628410 1_555
O28 Si1 1.628410 1_555
O29 Si3 1.628410 1_555
O29 Si6 1.628410 1_555
O30 Si5 1.628410 1_555
O30 Si4 1.628410 1_555
O31 Si0 1.628410 1_555
O31 Si2 1.628410 1_555
O32 Si13 1.626770 1_655
O32 Si15 1.628549 1_555
O33 Si15 1.626770 1_555
O33 Si14 1.628549 1_555
O34 Si10 1.626770 1_555
O34 Si13 1.628549 1_555
O35 Si9 1.626770 1_555
O35 Si12 1.628549 1_555
O36 Si8 1.626770 1_555
O36 Si11 1.628549 1_555
O37 Si14 1.626770 1_455
O37 Si10 1.628549 1_555
O38 Si11 1.626770 1_565
O38 Si9 1.628549 1_555
O39 Si4 1.626770 1_555
O39 Si0 1.628549 1_555
