# generated using pymatgen
data_H9C3IN6O
_symmetry_space_group_name_H-M   'P 1'
_cell_length_a   6.16998200
_cell_length_b   7.13342300
_cell_length_c   11.64498657
_cell_angle_alpha   104.05347566
_cell_angle_beta   94.59936622
_cell_angle_gamma   109.12017428
_symmetry_Int_Tables_number   1
_chemical_formula_structural   H9C3IN6O
_chemical_formula_sum   'H18 C6 I2 N12 O2'
_cell_volume   462.57508059
_cell_formula_units_Z   2
loop_
 _symmetry_equiv_pos_site_id
 _symmetry_equiv_pos_as_xyz
  1  'x, y, z'
loop_
 _atom_site_type_symbol
 _atom_site_label
 _atom_site_symmetry_multiplicity
 _atom_site_fract_x
 _atom_site_fract_y
 _atom_site_fract_z
 _atom_site_occupancy
  H  H0  1  0.62060300  0.74461700  0.12569100  1
  H  H1  1  0.37939700  0.25538300  0.87430900  1
  H  H2  1  0.14092900  0.04650500  0.36232700  1
  H  H3  1  0.85907100  0.95349500  0.63767300  1
  H  H4  1  0.67508100  0.06016900  0.71282200  1
  H  H5  1  0.32491900  0.93983100  0.28717800  1
  H  H6  1  0.75832200  0.18407300  0.43175400  1
  H  H7  1  0.24167800  0.81592700  0.56824600  1
  H  H8  1  0.50286400  0.90702700  0.07190700  1
  H  H9  1  0.49713600  0.09297300  0.92809300  1
  H  H10  1  0.15933700  0.52382700  0.77446700  1
  H  H11  1  0.84066300  0.47617300  0.22553300  1
  H  H12  1  0.10115900  0.46476900  0.91029900  1
  H  H13  1  0.89884100  0.53523100  0.08970100  1
  H  H14  1  0.20961300  0.58171800  0.54944300  1
  H  H15  1  0.79038700  0.41828200  0.45055700  1
  H  H16  1  0.01293900  0.73817000  0.70707000  1
  H  H17  1  0.98706100  0.26183000  0.29293000  1
  C  C0  1  0.29074300  0.20699700  0.03401800  1
  C  C1  1  0.70925700  0.79300300  0.96598200  1
  C  C2  1  0.05255400  0.34429200  0.13610300  1
  C  C3  1  0.94744600  0.65570800  0.86389700  1
  C  C4  1  0.20963300  0.12453900  0.20718900  1
  C  C5  1  0.79036700  0.87546100  0.79281100  1
  I  I0  1  0.38979300  0.26422200  0.63432600  1
  I  I1  1  0.61020700  0.73577800  0.36567400  1
  N  N0  1  0.32166400  0.10424600  0.11450800  1
  N  N1  1  0.67833600  0.89575400  0.88549200  1
  N  N2  1  0.22286300  0.02772500  0.29040400  1
  N  N3  1  0.77713700  0.97227500  0.70959600  1
  N  N4  1  0.07931100  0.53952900  0.84749000  1
  N  N5  1  0.92068900  0.46047100  0.15251000  1
  N  N6  1  0.15877800  0.32754900  0.04104400  1
  N  N7  1  0.84122200  0.67245100  0.95895600  1
  N  N8  1  0.60103300  0.81416100  0.06066200  1
  N  N9  1  0.39896700  0.18583900  0.93933800  1
  N  N10  1  0.07264200  0.24276100  0.21967400  1
  N  N11  1  0.92735800  0.75723900  0.78032600  1
  O  O0  1  0.16287700  0.69331600  0.59369800  1
  O  O1  1  0.83712300  0.30668400  0.40630200  1
loop_
_geom_bond_atom_site_label_1
_geom_bond_atom_site_label_2
_geom_bond_distance
_geom_bond_site_symmetry_2
H0 N8 1.020367 1_555
H1 N9 1.020367 1_555
H2 N2 1.016250 1_555
H3 N3 1.016250 1_555
H4 N3 1.020791 1_545
H5 N2 1.020791 1_565
H6 O1 0.979619 1_555
H7 O0 0.979619 1_555
H8 N8 1.027771 1_555
H9 N9 1.027771 1_555
H10 N4 1.018210 1_555
H11 N5 1.018210 1_555
H12 N4 1.028713 1_555
H13 N5 1.028713 1_555
H14 O0 0.978491 1_555
H15 O1 0.978491 1_555
H16 N11 1.043064 1_455
H17 N10 1.043064 1_655
C0 N9 1.336991 1_554
C0 N6 1.358076 1_555
C0 N0 1.359690 1_555
C1 N8 1.336991 1_556
C1 N7 1.358076 1_555
C1 N1 1.359690 1_555
C2 N6 1.331391 1_555
C2 N5 1.332306 1_455
C2 N10 1.367032 1_555
C3 N7 1.331391 1_555
C3 N4 1.332306 1_655
C3 N11 1.367032 1_555
C4 N2 1.331130 1_555
C4 N0 1.331500 1_555
C4 N10 1.368897 1_555
C5 N3 1.331130 1_555
C5 N1 1.331500 1_555
C5 N11 1.368897 1_555
