# generated using pymatgen
data_Mg3Fe2H4(Se3O10)2
_symmetry_space_group_name_H-M   'P 1'
_cell_length_a   6.50455934
_cell_length_b   7.98903509
_cell_length_c   8.75257207
_cell_angle_alpha   85.78032201
_cell_angle_beta   79.05589844
_cell_angle_gamma   76.46124719
_symmetry_Int_Tables_number   1
_chemical_formula_structural   Mg3Fe2H4(Se3O10)2
_chemical_formula_sum   'Mg3 Fe2 H4 Se6 O20'
_cell_volume   433.94541395
_cell_formula_units_Z   1
loop_
 _symmetry_equiv_pos_site_id
 _symmetry_equiv_pos_as_xyz
  1  'x, y, z'
loop_
 _atom_site_type_symbol
 _atom_site_label
 _atom_site_symmetry_multiplicity
 _atom_site_fract_x
 _atom_site_fract_y
 _atom_site_fract_z
 _atom_site_occupancy
  Mg  Mg0  1  0.50000000  -0.00000000  0.00000000  1
  Mg  Mg1  1  0.30978051  0.67515763  0.26997950  1
  Mg  Mg2  1  0.69021949  0.32484237  0.73002050  1
  Fe  Fe0  1  0.13618521  0.39613170  0.12001326  1
  Fe  Fe1  1  0.86381479  0.60386830  0.87998674  1
  H  H0  1  0.32011790  0.46821301  0.54835881  1
  H  H1  1  0.67988210  0.53178699  0.45164119  1
  H  H2  1  0.13421423  0.63464765  0.56288518  1
  H  H3  1  0.86578677  0.36535235  0.43711482  1
  Se  Se0  1  0.23808411  0.07502518  0.37429772  1
  Se  Se1  1  0.76191589  0.92497482  0.62570228  1
  Se  Se2  1  0.66841396  0.29182077  0.13374494  1
  Se  Se3  1  0.33158604  0.70817923  0.86625506  1
  Se  Se4  1  0.20051192  0.21504625  0.77211326  1
  Se  Se5  1  0.79948808  0.78495375  0.22788674  1
  O  O0  1  0.33207735  0.79691821  0.03598786  1
  O  O1  1  0.66792265  0.20308179  0.96401214  1
  O  O2  1  0.45337535  0.05379461  0.22567633  1
  O  O3  1  0.54662465  0.94620539  0.77432367  1
  O  O4  1  0.13463960  0.90737572  0.35264034  1
  O  O5  1  0.86536040  0.09262428  0.64735966  1
  O  O6  1  0.06477860  0.24777172  0.29735135  1
  O  O7  1  0.93522140  0.75222828  0.70264865  1
  O  O8  1  0.22990446  0.20307807  0.96823554  1
  O  O9  1  0.77009554  0.79692193  0.03176446  1
  O  O10  1  0.83063839  0.43866058  0.07239465  1
  O  O11  1  0.16936161  0.56133942  0.92760535  1
  O  O12  1  0.41734112  0.43220852  0.16406205  1
  O  O13  1  0.58265888  0.56779148  0.83593795  1
  O  O14  1  0.39765111  0.31170195  0.68600259  1
  O  O15  1  0.60234889  0.68829805  0.31399741  1
  O  O16  1  0.25884872  0.57255476  0.49108199  1
  O  O17  1  0.74115128  0.42744524  0.50891801  1
  O  O18  1  0.02277610  0.61899868  0.23555755  1
  O  O19  1  0.97722390  0.38100132  0.76444245  1
loop_
_geom_bond_atom_site_label_1
_geom_bond_atom_site_label_2
_geom_bond_distance
_geom_bond_site_symmetry_2
Mg0 O3 2.003678 1_544
Mg0 O2 2.003678 1_555
Mg0 O1 2.132698 1_554
Mg0 O0 2.132698 1_545
Mg0 O8 2.140222 1_554
Mg0 O9 2.140222 1_545
Mg1 O4 2.039128 1_555
Mg1 O15 2.039326 1_555
Mg1 O16 2.043768 1_555
Mg1 O18 2.098273 1_555
Mg1 O12 2.121047 1_555
Mg1 O0 2.195858 1_555
Mg2 O5 2.039128 1_555
Mg2 O14 2.039326 1_555
Mg2 O17 2.043768 1_555
Mg2 O19 2.098273 1_555
Mg2 O13 2.121047 1_555
Mg2 O1 2.195858 1_555
Fe0 O6 1.934696 1_555
Fe0 O8 2.017158 1_554
Fe0 O18 2.025791 1_555
Fe0 O12 2.026589 1_555
Fe0 O10 2.053440 1_455
Fe0 O11 2.071934 1_554
Fe1 O7 1.934696 1_555
Fe1 O9 2.017158 1_556
Fe1 O19 2.025791 1_555
Fe1 O13 2.026589 1_555
Fe1 O11 2.053440 1_655
Fe1 O10 2.071934 1_556
H0 O16 0.981753 1_555
H0 O14 1.727117 1_555
H1 O17 0.981753 1_555
H1 O15 1.727117 1_555
H2 O16 0.981019 1_555
H2 O7 1.747230 1_455
H3 O17 0.981023 1_555
H3 O6 1.747227 1_655
O0 Se3 1.693358 1_554
O1 Se2 1.693358 1_556
O2 Se0 1.706321 1_555
O3 Se1 1.706321 1_555
O4 Se0 1.670417 1_565
O5 Se1 1.670417 1_545
O6 Se0 1.747005 1_555
O7 Se1 1.747005 1_555
O8 Se4 1.756195 1_555
O9 Se5 1.756195 1_555
O10 Se2 1.746338 1_555
O11 Se3 1.746338 1_555
O12 Se2 1.736967 1_555
O13 Se3 1.736967 1_555
O14 Se4 1.679171 1_555
O15 Se5 1.679171 1_555
O18 Se5 1.730344 1_455
O19 Se4 1.730344 1_655
