# generated using pymatgen
data_Li4MnCo2O7
_symmetry_space_group_name_H-M   'P 1'
_cell_length_a   7.78503578
_cell_length_b   7.78503578
_cell_length_c   12.82866875
_cell_angle_alpha   61.75082636
_cell_angle_beta   61.75082636
_cell_angle_gamma   21.68063552
_symmetry_Int_Tables_number   1
_chemical_formula_structural   Li4MnCo2O7
_chemical_formula_sum   'Li8 Mn2 Co4 O14'
_cell_volume   251.68227901
_cell_formula_units_Z   2
loop_
 _symmetry_equiv_pos_site_id
 _symmetry_equiv_pos_as_xyz
  1  'x, y, z'
loop_
 _atom_site_type_symbol
 _atom_site_label
 _atom_site_symmetry_multiplicity
 _atom_site_fract_x
 _atom_site_fract_y
 _atom_site_fract_z
 _atom_site_occupancy
  Li  Li0  1  0.07147500  0.07147500  0.64465700  1
  Li  Li1  1  0.35975500  0.35975500  0.20608000  1
  Li  Li2  1  0.64024500  0.64024500  0.79392000  1
  Li  Li3  1  0.50000000  0.50000000  0.50000000  1
  Li  Li4  1  0.79230700  0.79230700  0.06801700  1
  Li  Li5  1  0.92852500  0.92852500  0.35534300  1
  Li  Li6  1  0.20769300  0.20769300  0.93198300  1
  Li  Li7  1  0.00000000  0.00000000  0.00000000  1
  Mn  Mn0  1  0.42998700  0.42998700  0.86354000  1
  Mn  Mn1  1  0.57001300  0.57001300  0.13646000  1
  Co  Co0  1  0.71416100  0.71416100  0.42824700  1
  Co  Co1  1  0.28583900  0.28583900  0.57175300  1
  Co  Co2  1  0.85745200  0.85745200  0.71513300  1
  Co  Co3  1  0.14254800  0.14254800  0.28486700  1
  O  O0  1  0.02446200  0.02446200  0.82391200  1
  O  O1  1  0.31339800  0.31339800  0.39761100  1
  O  O2  1  0.60574900  0.60574900  0.97900400  1
  O  O3  1  0.45531400  0.45531400  0.69067400  1
  O  O4  1  0.74278900  0.74278900  0.25385300  1
  O  O5  1  0.88656100  0.88656100  0.54104700  1
  O  O6  1  0.16447500  0.16447500  0.11448000  1
  O  O7  1  0.11343900  0.11343900  0.45895300  1
  O  O8  1  0.39425100  0.39425100  0.02099600  1
  O  O9  1  0.68660200  0.68660200  0.60238900  1
  O  O10  1  0.54468600  0.54468600  0.30932600  1
  O  O11  1  0.83552500  0.83552500  0.88552000  1
  O  O12  1  0.97553800  0.97553800  0.17608800  1
  O  O13  1  0.25721100  0.25721100  0.74614700  1
loop_
_geom_bond_atom_site_label_1
_geom_bond_atom_site_label_2
_geom_bond_distance
_geom_bond_site_symmetry_2
Li0 O0 2.052219 1_555
Li0 O7 2.147988 1_555
Li0 O9 2.148766 1_545
Li0 O9 2.148766 1_455
Li0 O3 2.153367 1_545
Li0 O3 2.153367 1_455
Li1 O4 2.159199 1_455
Li1 O4 2.159199 1_545
Li1 O8 2.169967 1_555
Li1 O12 2.184064 1_455
Li1 O12 2.184064 1_545
Li1 O1 2.204772 1_555
Li2 O13 2.159199 1_565
Li2 O13 2.159199 1_655
Li2 O2 2.169967 1_555
Li2 O0 2.184064 1_655
Li2 O0 2.184064 1_565
Li2 O9 2.204772 1_555
Li3 O5 2.133052 1_545
Li3 O5 2.133052 1_455
Li3 O7 2.133052 1_565
Li3 O7 2.133052 1_655
Li3 O3 2.199839 1_555
Li3 O10 2.199839 1_555
Li4 O8 2.007880 1_655
Li4 O8 2.007880 1_565
Li4 O11 2.103966 1_554
Li4 O4 2.125335 1_555
Li4 O6 2.279775 1_655
Li4 O6 2.279775 1_565
Li5 O12 2.052219 1_555
Li5 O5 2.147988 1_555
Li5 O1 2.148766 1_655
Li5 O1 2.148766 1_565
Li5 O10 2.153367 1_565
Li5 O10 2.153367 1_655
Li6 O2 2.007880 1_455
Li6 O2 2.007880 1_545
Li6 O6 2.103966 1_556
Li6 O13 2.125335 1_555
Li6 O11 2.279775 1_545
Li6 O11 2.279775 1_455
Li7 O8 2.100383 1_455
Li7 O2 2.100383 1_454
Li7 O8 2.100383 1_545
Li7 O2 2.100383 1_544
Li7 O12 2.104387 1_445
Li7 O0 2.104387 1_554
Mn0 O8 1.820693 1_556
Mn0 O0 1.944621 1_565
Mn0 O0 1.944621 1_655
Mn0 O11 1.979228 1_545
Mn0 O11 1.979228 1_455
Mn0 O3 2.059153 1_555
Mn1 O2 1.820693 1_554
Mn1 O12 1.944621 1_455
Mn1 O12 1.944621 1_545
Mn1 O6 1.979228 1_565
Mn1 O6 1.979228 1_655
Mn1 O10 2.059153 1_555
Co0 O1 2.006572 1_655
Co0 O1 2.006572 1_565
Co0 O7 2.021519 1_565
Co0 O7 2.021519 1_655
Co0 O4 2.062261 1_555
Co0 O9 2.064215 1_555
Co1 O9 2.006572 1_455
Co1 O9 2.006572 1_545
Co1 O5 2.021519 1_545
Co1 O5 2.021519 1_455
Co1 O13 2.062261 1_555
Co1 O1 2.064215 1_555
Co2 O3 2.007288 1_655
Co2 O3 2.007288 1_565
Co2 O13 2.015941 1_565
Co2 O13 2.015941 1_655
Co2 O11 2.045460 1_555
Co2 O5 2.056110 1_555
Co3 O10 2.007288 1_455
Co3 O10 2.007288 1_545
Co3 O4 2.015941 1_545
Co3 O4 2.015941 1_455
Co3 O6 2.045460 1_555
Co3 O7 2.056110 1_555
