# generated using pymatgen
data_Ti3Fe
_symmetry_space_group_name_H-M   'P 1'
_cell_length_a   5.99713027
_cell_length_b   5.99713027
_cell_length_c   16.08311400
_cell_angle_alpha   90.00000000
_cell_angle_beta   90.00000000
_cell_angle_gamma   119.98184376
_symmetry_Int_Tables_number   1
_chemical_formula_structural   Ti3Fe
_chemical_formula_sum   'Ti24 Fe8'
_cell_volume   501.03396198
_cell_formula_units_Z   8
loop_
 _symmetry_equiv_pos_site_id
 _symmetry_equiv_pos_as_xyz
  1  'x, y, z'
loop_
 _atom_site_type_symbol
 _atom_site_label
 _atom_site_symmetry_multiplicity
 _atom_site_fract_x
 _atom_site_fract_y
 _atom_site_fract_z
 _atom_site_occupancy
  Ti  Ti0_0  1  0.33340800  0.16659200  0.43750000  1
  Ti  Ti0_1  1  0.33340800  0.16659200  0.93750000  1
  Ti  Ti0_2  1  0.33340800  0.66659200  0.43750000  1
  Ti  Ti0_3  1  0.33340800  0.66659200  0.93750000  1
  Ti  Ti0_4  1  0.83340800  0.16659200  0.43750000  1
  Ti  Ti0_5  1  0.83340800  0.16659200  0.93750000  1
  Ti  Ti0_6  1  0.83340800  0.66659200  0.43750000  1
  Ti  Ti0_7  1  0.83340800  0.66659200  0.93750000  1
  Ti  Ti1_0  1  0.16662300  0.33337700  0.07994250  1
  Ti  Ti1_1  1  0.16662300  0.33337700  0.57994250  1
  Ti  Ti1_2  1  0.16662300  0.83337700  0.07994250  1
  Ti  Ti1_3  1  0.16662300  0.83337700  0.57994250  1
  Ti  Ti1_4  1  0.66662300  0.33337700  0.07994250  1
  Ti  Ti1_5  1  0.66662300  0.33337700  0.57994250  1
  Ti  Ti1_6  1  0.66662300  0.83337700  0.07994250  1
  Ti  Ti1_7  1  0.66662300  0.83337700  0.57994250  1
  Ti  Ti2_0  1  0.16662300  0.33337700  0.29505750  1
  Ti  Ti2_1  1  0.16662300  0.33337700  0.79505750  1
  Ti  Ti2_2  1  0.16662300  0.83337700  0.29505750  1
  Ti  Ti2_3  1  0.16662300  0.83337700  0.79505750  1
  Ti  Ti2_4  1  0.66662300  0.33337700  0.29505750  1
  Ti  Ti2_5  1  0.66662300  0.33337700  0.79505750  1
  Ti  Ti2_6  1  0.66662300  0.83337700  0.29505750  1
  Ti  Ti2_7  1  0.66662300  0.83337700  0.79505750  1
  Fe  Fe0_0  1  0.33334600  0.16665400  0.18750000  1
  Fe  Fe0_1  1  0.33334600  0.16665400  0.68750000  1
  Fe  Fe0_2  1  0.33334600  0.66665400  0.18750000  1
  Fe  Fe0_3  1  0.33334600  0.66665400  0.68750000  1
  Fe  Fe0_4  1  0.83334600  0.16665400  0.18750000  1
  Fe  Fe0_5  1  0.83334600  0.16665400  0.68750000  1
  Fe  Fe0_6  1  0.83334600  0.66665400  0.18750000  1
  Fe  Fe0_7  1  0.83334600  0.66665400  0.68750000  1
loop_
_geom_bond_atom_site_label_1
_geom_bond_atom_site_label_2
_geom_bond_distance
_geom_bond_site_symmetry_2
Ti0_0 Ti1_5 2.871308 1_555
Ti0_0 Ti2_4 2.871308 1_555
Ti0_0 Ti1_3 2.871308 1_545
Ti0_0 Ti2_2 2.871308 1_545
Ti0_0 Ti1_1 2.872133 1_555
Ti0_0 Ti2_0 2.872133 1_555
Ti0_0 Ti0_2 2.998565 1_555
Ti0_0 Ti0_4 2.998565 1_555
Ti0_0 Ti0_4 2.998565 1_455
Ti0_0 Ti0_2 2.998565 1_545
Ti0_0 Ti0_6 2.999388 1_555
Ti0_0 Ti0_6 2.999388 1_445
Ti0_1 Ti1_4 2.871308 1_556
Ti0_1 Ti1_2 2.871308 1_546
Ti0_1 Ti2_5 2.871308 1_555
Ti0_1 Ti2_3 2.871308 1_545
Ti0_1 Ti1_0 2.872133 1_556
Ti0_1 Ti2_1 2.872133 1_555
Ti0_1 Ti0_3 2.998565 1_555
Ti0_1 Ti0_5 2.998565 1_555
Ti0_1 Ti0_5 2.998565 1_455
Ti0_1 Ti0_3 2.998565 1_545
Ti0_1 Ti0_7 2.999388 1_555
Ti0_1 Ti0_7 2.999388 1_445
Ti0_2 Ti1_1 2.871308 1_555
Ti0_2 Ti2_0 2.871308 1_555
Ti0_2 Ti1_7 2.871308 1_555
Ti0_2 Ti2_6 2.871308 1_555
Ti0_2 Ti1_3 2.872133 1_555
Ti0_2 Ti2_2 2.872133 1_555
Ti0_2 Ti0_6 2.998565 1_455
Ti0_2 Ti0_6 2.998565 1_555
Ti0_2 Ti0_4 2.999388 1_455
Ti0_2 Ti0_4 2.999388 1_565
Ti0_3 Ti1_0 2.871308 1_556
Ti0_3 Ti1_6 2.871308 1_556
Ti0_3 Ti2_1 2.871308 1_555
Ti0_3 Ti2_7 2.871308 1_555
Ti0_3 Ti1_2 2.872133 1_556
Ti0_3 Ti2_3 2.872133 1_555
Ti0_3 Ti0_7 2.998565 1_455
Ti0_3 Ti0_7 2.998565 1_555
Ti0_3 Ti0_5 2.999388 1_565
Ti0_3 Ti0_5 2.999388 1_455
Ti0_4 Ti1_7 2.871308 1_545
Ti0_4 Ti1_1 2.871308 1_655
Ti0_4 Ti2_0 2.871308 1_655
Ti0_4 Ti2_6 2.871308 1_545
Ti0_4 Ti1_5 2.872133 1_555
Ti0_4 Ti2_4 2.872133 1_555
Ti0_4 Ti0_6 2.998565 1_555
Ti0_4 Ti0_6 2.998565 1_545
Ti0_5 Ti1_0 2.871308 1_656
Ti0_5 Ti1_6 2.871308 1_546
Ti0_5 Ti2_1 2.871308 1_655
Ti0_5 Ti2_7 2.871308 1_545
Ti0_5 Ti1_4 2.872133 1_556
Ti0_5 Ti2_5 2.872133 1_555
Ti0_5 Ti0_7 2.998565 1_555
Ti0_5 Ti0_7 2.998565 1_545
Ti0_6 Ti1_5 2.871308 1_555
Ti0_6 Ti1_3 2.871308 1_655
Ti0_6 Ti2_4 2.871308 1_555
Ti0_6 Ti2_2 2.871308 1_655
Ti0_6 Ti1_7 2.872133 1_555
Ti0_6 Ti2_6 2.872133 1_555
Ti0_7 Ti1_4 2.871308 1_556
Ti0_7 Ti1_2 2.871308 1_656
Ti0_7 Ti2_5 2.871308 1_555
Ti0_7 Ti2_3 2.871308 1_655
Ti0_7 Ti1_6 2.872133 1_556
Ti0_7 Ti2_7 2.872133 1_555
Ti1_0 Ti1_2 2.998565 1_555
Ti1_0 Ti1_4 2.998565 1_455
Ti1_0 Ti1_4 2.998565 1_555
Ti1_0 Ti1_2 2.998565 1_545
Ti1_0 Ti1_6 2.999388 1_445
Ti1_0 Ti1_6 2.999388 1_555
Ti1_1 Ti1_3 2.998565 1_555
Ti1_1 Ti1_5 2.998565 1_455
Ti1_1 Ti1_5 2.998565 1_555
Ti1_1 Ti1_3 2.998565 1_545
Ti1_1 Ti1_7 2.999388 1_445
Ti1_1 Ti1_7 2.999388 1_555
Ti1_2 Ti1_6 2.998565 1_455
Ti1_2 Ti1_6 2.998565 1_555
Ti1_2 Ti1_4 2.999388 1_565
Ti1_2 Ti1_4 2.999388 1_455
Ti1_3 Ti1_7 2.998565 1_455
Ti1_3 Ti1_7 2.998565 1_555
Ti1_3 Ti1_5 2.999388 1_455
Ti1_3 Ti1_5 2.999388 1_565
Ti1_4 Ti1_6 2.998565 1_555
Ti1_4 Ti1_6 2.998565 1_545
Ti1_5 Ti1_7 2.998565 1_555
Ti1_5 Ti1_7 2.998565 1_545
Ti2_0 Ti2_2 2.998565 1_555
Ti2_0 Ti2_4 2.998565 1_455
Ti2_0 Ti2_4 2.998565 1_555
Ti2_0 Ti2_2 2.998565 1_545
Ti2_0 Ti2_6 2.999388 1_445
Ti2_0 Ti2_6 2.999388 1_555
Ti2_1 Ti2_3 2.998565 1_555
Ti2_1 Ti2_5 2.998565 1_455
Ti2_1 Ti2_5 2.998565 1_555
Ti2_1 Ti2_3 2.998565 1_545
Ti2_1 Ti2_7 2.999388 1_445
Ti2_1 Ti2_7 2.999388 1_555
Ti2_2 Ti2_6 2.998565 1_455
Ti2_2 Ti2_6 2.998565 1_555
Ti2_2 Ti2_4 2.999388 1_565
Ti2_2 Ti2_4 2.999388 1_455
Ti2_3 Ti2_7 2.998565 1_455
Ti2_3 Ti2_7 2.998565 1_555
Ti2_3 Ti2_5 2.999388 1_455
Ti2_3 Ti2_5 2.999388 1_565
Ti2_4 Ti2_6 2.998565 1_555
Ti2_4 Ti2_6 2.998565 1_545
Ti2_5 Ti2_7 2.998565 1_555
Ti2_5 Ti2_7 2.998565 1_545
Fe0_0 Ti2_4 2.447372 1_555
Fe0_0 Ti1_4 2.447372 1_555
Fe0_0 Ti2_2 2.447372 1_545
Fe0_0 Ti1_2 2.447372 1_545
Fe0_0 Ti2_0 2.447657 1_555
Fe0_0 Ti1_0 2.447657 1_555
Fe0_1 Ti1_5 2.447372 1_555
Fe0_1 Ti1_3 2.447372 1_545
Fe0_1 Ti2_5 2.447372 1_555
Fe0_1 Ti2_3 2.447372 1_545
Fe0_1 Ti1_1 2.447657 1_555
Fe0_1 Ti2_1 2.447657 1_555
Fe0_2 Ti1_0 2.447372 1_555
Fe0_2 Ti2_0 2.447372 1_555
Fe0_2 Ti2_6 2.447372 1_555
Fe0_2 Ti1_6 2.447372 1_555
Fe0_2 Ti2_2 2.447657 1_555
Fe0_2 Ti1_2 2.447657 1_555
Fe0_3 Ti1_1 2.447372 1_555
Fe0_3 Ti1_7 2.447372 1_555
Fe0_3 Ti2_1 2.447372 1_555
Fe0_3 Ti2_7 2.447372 1_555
Fe0_3 Ti1_3 2.447657 1_555
Fe0_3 Ti2_3 2.447657 1_555
Fe0_4 Ti2_0 2.447372 1_655
Fe0_4 Ti1_0 2.447372 1_655
Fe0_4 Ti2_6 2.447372 1_545
Fe0_4 Ti1_6 2.447372 1_545
Fe0_4 Ti2_4 2.447657 1_555
Fe0_4 Ti1_4 2.447657 1_555
Fe0_5 Ti1_1 2.447372 1_655
Fe0_5 Ti1_7 2.447372 1_545
Fe0_5 Ti2_1 2.447372 1_655
Fe0_5 Ti2_7 2.447372 1_545
Fe0_5 Ti1_5 2.447657 1_555
Fe0_5 Ti2_5 2.447657 1_555
Fe0_6 Ti2_4 2.447372 1_555
Fe0_6 Ti1_2 2.447372 1_655
Fe0_6 Ti1_4 2.447372 1_555
Fe0_6 Ti2_2 2.447372 1_655
Fe0_6 Ti2_6 2.447657 1_555
Fe0_6 Ti1_6 2.447657 1_555
Fe0_7 Ti1_5 2.447372 1_555
Fe0_7 Ti1_3 2.447372 1_655
Fe0_7 Ti2_5 2.447372 1_555
Fe0_7 Ti2_3 2.447372 1_655
Fe0_7 Ti1_7 2.447657 1_555
Fe0_7 Ti2_7 2.447657 1_555
