# generated using pymatgen
data_Mg2Ga
_symmetry_space_group_name_H-M   'P 1'
_cell_length_a   16.25872776
_cell_length_b   16.25872776
_cell_length_c   9.95288800
_cell_angle_alpha   90.00000000
_cell_angle_beta   90.00000000
_cell_angle_gamma   158.16166612
_symmetry_Int_Tables_number   1
_chemical_formula_structural   Mg2Ga
_chemical_formula_sum   'Mg32 Ga16'
_cell_volume   978.70607456
_cell_formula_units_Z   16
loop_
 _symmetry_equiv_pos_site_id
 _symmetry_equiv_pos_as_xyz
  1  'x, y, z'
loop_
 _atom_site_type_symbol
 _atom_site_label
 _atom_site_symmetry_multiplicity
 _atom_site_fract_x
 _atom_site_fract_y
 _atom_site_fract_z
 _atom_site_occupancy
  Mg  Mg0_0  1  0.22224400  0.27775600  0.12500000  1
  Mg  Mg0_1  1  0.22224400  0.27775600  0.62500000  1
  Mg  Mg0_2  1  0.22224400  0.77775600  0.12500000  1
  Mg  Mg0_3  1  0.22224400  0.77775600  0.62500000  1
  Mg  Mg0_4  1  0.72224400  0.27775600  0.12500000  1
  Mg  Mg0_5  1  0.72224400  0.27775600  0.62500000  1
  Mg  Mg0_6  1  0.72224400  0.77775600  0.12500000  1
  Mg  Mg0_7  1  0.72224400  0.77775600  0.62500000  1
  Mg  Mg1_0  1  0.38842350  0.11157650  0.12500000  1
  Mg  Mg1_1  1  0.38842350  0.11157650  0.62500000  1
  Mg  Mg1_2  1  0.38842350  0.61157650  0.12500000  1
  Mg  Mg1_3  1  0.38842350  0.61157650  0.62500000  1
  Mg  Mg1_4  1  0.88842350  0.11157650  0.12500000  1
  Mg  Mg1_5  1  0.88842350  0.11157650  0.62500000  1
  Mg  Mg1_6  1  0.88842350  0.61157650  0.12500000  1
  Mg  Mg1_7  1  0.88842350  0.61157650  0.62500000  1
  Mg  Mg2_0  1  0.11157650  0.38842350  0.37500000  1
  Mg  Mg2_1  1  0.11157650  0.38842350  0.87500000  1
  Mg  Mg2_2  1  0.11157650  0.88842350  0.37500000  1
  Mg  Mg2_3  1  0.11157650  0.88842350  0.87500000  1
  Mg  Mg2_4  1  0.61157650  0.38842350  0.37500000  1
  Mg  Mg2_5  1  0.61157650  0.38842350  0.87500000  1
  Mg  Mg2_6  1  0.61157650  0.88842350  0.37500000  1
  Mg  Mg2_7  1  0.61157650  0.88842350  0.87500000  1
  Mg  Mg3_0  1  0.27775600  0.22224400  0.37500000  1
  Mg  Mg3_1  1  0.27775600  0.22224400  0.87500000  1
  Mg  Mg3_2  1  0.27775600  0.72224400  0.37500000  1
  Mg  Mg3_3  1  0.27775600  0.72224400  0.87500000  1
  Mg  Mg3_4  1  0.77775600  0.22224400  0.37500000  1
  Mg  Mg3_5  1  0.77775600  0.22224400  0.87500000  1
  Mg  Mg3_6  1  0.77775600  0.72224400  0.37500000  1
  Mg  Mg3_7  1  0.77775600  0.72224400  0.87500000  1
  Ga  Ga0_0  1  0.05574150  0.44425850  0.12500000  1
  Ga  Ga0_1  1  0.05574150  0.44425850  0.62500000  1
  Ga  Ga0_2  1  0.05574150  0.94425850  0.12500000  1
  Ga  Ga0_3  1  0.05574150  0.94425850  0.62500000  1
  Ga  Ga0_4  1  0.55574150  0.44425850  0.12500000  1
  Ga  Ga0_5  1  0.55574150  0.44425850  0.62500000  1
  Ga  Ga0_6  1  0.55574150  0.94425850  0.12500000  1
  Ga  Ga0_7  1  0.55574150  0.94425850  0.62500000  1
  Ga  Ga1_0  1  0.44425850  0.05574150  0.37500000  1
  Ga  Ga1_1  1  0.44425850  0.05574150  0.87500000  1
  Ga  Ga1_2  1  0.44425850  0.55574150  0.37500000  1
  Ga  Ga1_3  1  0.44425850  0.55574150  0.87500000  1
  Ga  Ga1_4  1  0.94425850  0.05574150  0.37500000  1
  Ga  Ga1_5  1  0.94425850  0.05574150  0.87500000  1
  Ga  Ga1_6  1  0.94425850  0.55574150  0.37500000  1
  Ga  Ga1_7  1  0.94425850  0.55574150  0.87500000  1
loop_
_geom_bond_atom_site_label_1
_geom_bond_atom_site_label_2
_geom_bond_distance
_geom_bond_site_symmetry_2
Mg0_0 Mg3_1 3.054955 1_554
Mg0_0 Mg3_0 3.054955 1_555
Mg0_0 Mg0_6 3.079792 1_445
Mg0_0 Mg0_6 3.079792 1_555
Mg0_0 Mg1_2 3.087680 1_555
Mg0_0 Mg1_4 3.087680 1_455
Mg0_1 Mg3_1 3.054955 1_555
Mg0_1 Mg3_0 3.054955 1_555
Mg0_1 Mg0_7 3.079792 1_445
Mg0_1 Mg0_7 3.079792 1_555
Mg0_1 Mg1_3 3.087680 1_555
Mg0_1 Mg1_5 3.087680 1_455
Mg0_2 Mg3_3 3.054955 1_554
Mg0_2 Mg3_2 3.054955 1_555
Mg0_2 Mg0_4 3.079792 1_455
Mg0_2 Mg0_4 3.079792 1_565
Mg0_2 Mg1_6 3.087680 1_455
Mg0_2 Mg1_0 3.087680 1_565
Mg0_3 Mg3_3 3.054955 1_555
Mg0_3 Mg3_2 3.054955 1_555
Mg0_3 Mg0_5 3.079792 1_455
Mg0_3 Mg0_5 3.079792 1_565
Mg0_3 Mg1_7 3.087680 1_455
Mg0_3 Mg1_1 3.087680 1_565
Mg0_4 Mg3_5 3.054955 1_554
Mg0_4 Mg3_4 3.054955 1_555
Mg0_4 Mg1_6 3.087680 1_555
Mg0_4 Mg1_0 3.087680 1_555
Mg0_5 Mg3_5 3.054955 1_555
Mg0_5 Mg3_4 3.054955 1_555
Mg0_5 Mg1_7 3.087680 1_555
Mg0_5 Mg1_1 3.087680 1_555
Mg0_6 Mg3_6 3.054955 1_555
Mg0_6 Mg3_7 3.054955 1_554
Mg0_6 Mg1_4 3.087680 1_565
Mg0_6 Mg1_2 3.087680 1_555
Mg0_7 Mg3_7 3.054955 1_555
Mg0_7 Mg3_6 3.054955 1_555
Mg0_7 Mg1_5 3.087680 1_565
Mg0_7 Mg1_3 3.087680 1_555
Mg1_0 Mg2_2 3.049148 1_545
Mg1_0 Mg2_3 3.049148 1_544
Mg1_0 Mg2_5 3.049148 1_554
Mg1_0 Mg2_4 3.049148 1_555
Mg1_0 Mg1_6 3.079792 1_445
Mg1_0 Mg1_6 3.079792 1_555
Mg1_1 Mg2_5 3.049148 1_555
Mg1_1 Mg2_3 3.049148 1_545
Mg1_1 Mg2_2 3.049148 1_545
Mg1_1 Mg2_4 3.049148 1_555
Mg1_1 Mg1_7 3.079792 1_445
Mg1_1 Mg1_7 3.079792 1_555
Mg1_2 Mg2_0 3.049148 1_555
Mg1_2 Mg2_1 3.049148 1_554
Mg1_2 Mg2_7 3.049148 1_554
Mg1_2 Mg2_6 3.049148 1_555
Mg1_2 Mg1_4 3.079792 1_455
Mg1_2 Mg1_4 3.079792 1_565
Mg1_3 Mg2_1 3.049148 1_555
Mg1_3 Mg2_7 3.049148 1_555
Mg1_3 Mg2_0 3.049148 1_555
Mg1_3 Mg2_6 3.049148 1_555
Mg1_3 Mg1_5 3.079792 1_455
Mg1_3 Mg1_5 3.079792 1_565
Mg1_4 Mg2_6 3.049148 1_545
Mg1_4 Mg2_7 3.049148 1_544
Mg1_4 Mg2_0 3.049148 1_655
Mg1_4 Mg2_1 3.049148 1_654
Mg1_5 Mg2_7 3.049148 1_545
Mg1_5 Mg2_1 3.049148 1_655
Mg1_5 Mg2_6 3.049148 1_545
Mg1_5 Mg2_0 3.049148 1_655
Mg1_6 Mg2_2 3.049148 1_655
Mg1_6 Mg2_3 3.049148 1_654
Mg1_6 Mg2_4 3.049148 1_555
Mg1_6 Mg2_5 3.049148 1_554
Mg1_7 Mg2_3 3.049148 1_655
Mg1_7 Mg2_5 3.049148 1_555
Mg1_7 Mg2_2 3.049148 1_655
Mg1_7 Mg2_4 3.049148 1_555
Mg2_0 Mg2_6 3.079792 1_445
Mg2_0 Mg2_6 3.079792 1_555
Mg2_0 Mg3_4 3.087680 1_455
Mg2_0 Mg3_2 3.087680 1_555
Mg2_1 Mg2_7 3.079792 1_445
Mg2_1 Mg2_7 3.079792 1_555
Mg2_1 Mg3_5 3.087680 1_455
Mg2_1 Mg3_3 3.087680 1_555
Mg2_2 Mg2_4 3.079792 1_565
Mg2_2 Mg2_4 3.079792 1_455
Mg2_2 Mg3_0 3.087680 1_565
Mg2_2 Mg3_6 3.087680 1_455
Mg2_3 Mg2_5 3.079792 1_565
Mg2_3 Mg2_5 3.079792 1_455
Mg2_3 Mg3_1 3.087680 1_565
Mg2_3 Mg3_7 3.087680 1_455
Mg2_4 Mg3_0 3.087680 1_555
Mg2_4 Mg3_6 3.087680 1_555
Mg2_5 Mg3_1 3.087680 1_555
Mg2_5 Mg3_7 3.087680 1_555
Mg2_6 Mg3_4 3.087680 1_565
Mg2_6 Mg3_2 3.087680 1_555
Mg2_7 Mg3_5 3.087680 1_565
Mg2_7 Mg3_3 3.087680 1_555
Mg3_0 Mg3_6 3.079792 1_445
Mg3_0 Mg3_6 3.079792 1_555
Mg3_1 Mg3_7 3.079792 1_445
Mg3_1 Mg3_7 3.079792 1_555
Mg3_2 Mg3_4 3.079792 1_565
Mg3_2 Mg3_4 3.079792 1_455
Mg3_3 Mg3_5 3.079792 1_565
Mg3_3 Mg3_5 3.079792 1_455
Ga0_0 Mg1_2 3.056227 1_555
Ga0_0 Mg1_4 3.056227 1_455
Ga0_0 Mg3_4 3.059566 1_455
Ga0_0 Mg3_3 3.059566 1_554
Ga0_0 Mg3_5 3.059566 1_454
Ga0_0 Mg3_2 3.059566 1_555
Ga0_0 Mg2_0 3.060950 1_555
Ga0_0 Mg2_1 3.060950 1_554
Ga0_0 Mg0_2 3.078746 1_555
Ga0_0 Mg0_4 3.078746 1_455
Ga0_1 Mg1_3 3.056227 1_555
Ga0_1 Mg1_5 3.056227 1_455
Ga0_1 Mg3_5 3.059566 1_455
Ga0_1 Mg3_3 3.059566 1_555
Ga0_1 Mg3_4 3.059566 1_455
Ga0_1 Mg3_2 3.059566 1_555
Ga0_1 Mg2_1 3.060950 1_555
Ga0_1 Mg2_0 3.060950 1_555
Ga0_1 Mg0_3 3.078746 1_555
Ga0_1 Mg0_5 3.078746 1_455
Ga0_2 Mg1_0 3.056227 1_565
Ga0_2 Mg1_6 3.056227 1_455
Ga0_2 Mg3_7 3.059566 1_454
Ga0_2 Mg3_6 3.059566 1_455
Ga0_2 Mg3_1 3.059566 1_564
Ga0_2 Mg3_0 3.059566 1_565
Ga0_2 Mg2_2 3.060950 1_555
Ga0_2 Mg2_3 3.060950 1_554
Ga0_2 Mg0_6 3.078746 1_455
Ga0_2 Mg0_0 3.078746 1_565
Ga0_3 Mg1_1 3.056227 1_565
Ga0_3 Mg1_7 3.056227 1_455
Ga0_3 Mg3_1 3.059566 1_565
Ga0_3 Mg3_7 3.059566 1_455
Ga0_3 Mg3_6 3.059566 1_455
Ga0_3 Mg3_0 3.059566 1_565
Ga0_3 Mg2_3 3.060950 1_555
Ga0_3 Mg2_2 3.060950 1_555
Ga0_3 Mg0_7 3.078746 1_455
Ga0_3 Mg0_1 3.078746 1_565
Ga0_4 Mg1_0 3.056227 1_555
Ga0_4 Mg1_6 3.056227 1_555
Ga0_4 Mg3_1 3.059566 1_554
Ga0_4 Mg3_0 3.059566 1_555
Ga0_4 Mg3_6 3.059566 1_555
Ga0_4 Mg3_7 3.059566 1_554
Ga0_4 Mg2_4 3.060950 1_555
Ga0_4 Mg2_5 3.060950 1_554
Ga0_4 Mg0_6 3.078746 1_555
Ga0_4 Mg0_0 3.078746 1_555
Ga0_5 Mg1_1 3.056227 1_555
Ga0_5 Mg1_7 3.056227 1_555
Ga0_5 Mg3_1 3.059566 1_555
Ga0_5 Mg3_7 3.059566 1_555
Ga0_5 Mg3_0 3.059566 1_555
Ga0_5 Mg3_6 3.059566 1_555
Ga0_5 Mg2_5 3.060950 1_555
Ga0_5 Mg2_4 3.060950 1_555
Ga0_5 Mg0_7 3.078746 1_555
Ga0_5 Mg0_1 3.078746 1_555
Ga0_6 Mg1_4 3.056227 1_565
Ga0_6 Mg1_2 3.056227 1_555
Ga0_6 Mg3_4 3.059566 1_565
Ga0_6 Mg3_5 3.059566 1_564
Ga0_6 Mg3_3 3.059566 1_554
Ga0_6 Mg3_2 3.059566 1_555
Ga0_6 Mg2_7 3.060950 1_554
Ga0_6 Mg2_6 3.060950 1_555
Ga0_6 Mg0_2 3.078746 1_555
Ga0_6 Mg0_4 3.078746 1_565
Ga0_7 Mg1_5 3.056227 1_565
Ga0_7 Mg1_3 3.056227 1_555
Ga0_7 Mg3_5 3.059566 1_565
Ga0_7 Mg3_4 3.059566 1_565
Ga0_7 Mg3_3 3.059566 1_555
Ga0_7 Mg3_2 3.059566 1_555
Ga0_7 Mg2_7 3.060950 1_555
Ga0_7 Mg2_6 3.060950 1_555
Ga0_7 Mg0_3 3.078746 1_555
Ga0_7 Mg0_5 3.078746 1_565
Ga1_0 Mg2_2 3.056227 1_545
Ga1_0 Mg2_4 3.056227 1_555
Ga1_0 Mg0_2 3.059566 1_545
Ga1_0 Mg0_4 3.059566 1_555
Ga1_0 Mg0_5 3.059566 1_555
Ga1_0 Mg0_3 3.059566 1_545
Ga1_0 Mg1_0 3.060950 1_555
Ga1_0 Mg1_1 3.060950 1_555
Ga1_0 Mg3_2 3.078746 1_545
Ga1_0 Mg3_4 3.078746 1_555
Ga1_1 Mg2_3 3.056227 1_545
Ga1_1 Mg2_5 3.056227 1_555
Ga1_1 Mg0_5 3.059566 1_555
Ga1_1 Mg0_3 3.059566 1_545
Ga1_1 Mg0_4 3.059566 1_556
Ga1_1 Mg0_2 3.059566 1_546
Ga1_1 Mg1_1 3.060950 1_555
Ga1_1 Mg1_0 3.060950 1_556
Ga1_1 Mg3_3 3.078746 1_545
Ga1_1 Mg3_5 3.078746 1_555
Ga1_2 Mg2_0 3.056227 1_555
Ga1_2 Mg2_6 3.056227 1_555
Ga1_2 Mg0_0 3.059566 1_555
Ga1_2 Mg0_6 3.059566 1_555
Ga1_2 Mg0_7 3.059566 1_555
Ga1_2 Mg0_1 3.059566 1_555
Ga1_2 Mg1_2 3.060950 1_555
Ga1_2 Mg1_3 3.060950 1_555
Ga1_2 Mg3_0 3.078746 1_555
Ga1_2 Mg3_6 3.078746 1_555
Ga1_3 Mg2_1 3.056227 1_555
Ga1_3 Mg2_7 3.056227 1_555
Ga1_3 Mg0_7 3.059566 1_555
Ga1_3 Mg0_1 3.059566 1_555
Ga1_3 Mg0_0 3.059566 1_556
Ga1_3 Mg0_6 3.059566 1_556
Ga1_3 Mg1_3 3.060950 1_555
Ga1_3 Mg1_2 3.060950 1_556
Ga1_3 Mg3_1 3.078746 1_555
Ga1_3 Mg3_7 3.078746 1_555
Ga1_4 Mg2_0 3.056227 1_655
Ga1_4 Mg2_6 3.056227 1_545
Ga1_4 Mg0_6 3.059566 1_545
Ga1_4 Mg0_0 3.059566 1_655
Ga1_4 Mg0_1 3.059566 1_655
Ga1_4 Mg0_7 3.059566 1_545
Ga1_4 Mg1_4 3.060950 1_555
Ga1_4 Mg1_5 3.060950 1_555
Ga1_4 Mg3_6 3.078746 1_545
Ga1_4 Mg3_0 3.078746 1_655
Ga1_5 Mg2_1 3.056227 1_655
Ga1_5 Mg2_7 3.056227 1_545
Ga1_5 Mg0_1 3.059566 1_655
Ga1_5 Mg0_7 3.059566 1_545
Ga1_5 Mg0_0 3.059566 1_656
Ga1_5 Mg0_6 3.059566 1_546
Ga1_5 Mg1_5 3.060950 1_555
Ga1_5 Mg1_4 3.060950 1_556
Ga1_5 Mg3_7 3.078746 1_545
Ga1_5 Mg3_1 3.078746 1_655
Ga1_6 Mg2_4 3.056227 1_555
Ga1_6 Mg2_2 3.056227 1_655
Ga1_6 Mg0_2 3.059566 1_655
Ga1_6 Mg0_3 3.059566 1_655
Ga1_6 Mg0_4 3.059566 1_555
Ga1_6 Mg0_5 3.059566 1_555
Ga1_6 Mg1_6 3.060950 1_555
Ga1_6 Mg1_7 3.060950 1_555
Ga1_6 Mg3_4 3.078746 1_555
Ga1_6 Mg3_2 3.078746 1_655
Ga1_7 Mg2_5 3.056227 1_555
Ga1_7 Mg2_3 3.056227 1_655
Ga1_7 Mg0_3 3.059566 1_655
Ga1_7 Mg0_2 3.059566 1_656
Ga1_7 Mg0_5 3.059566 1_555
Ga1_7 Mg0_4 3.059566 1_556
Ga1_7 Mg1_7 3.060950 1_555
Ga1_7 Mg1_6 3.060950 1_556
Ga1_7 Mg3_5 3.078746 1_555
Ga1_7 Mg3_3 3.078746 1_655
