# generated using pymatgen
data_MoIr3
_symmetry_space_group_name_H-M   'P 1'
_cell_length_a   5.50902513
_cell_length_b   5.50902395
_cell_length_c   4.39795356
_cell_angle_alpha   90.00000000
_cell_angle_beta   90.00000000
_cell_angle_gamma   119.99998881
_symmetry_Int_Tables_number   1
_chemical_formula_structural   MoIr3
_chemical_formula_sum   'Mo2 Ir6'
_cell_volume   115.59278658
_cell_formula_units_Z   2
loop_
 _symmetry_equiv_pos_site_id
 _symmetry_equiv_pos_as_xyz
  1  'x, y, z'
loop_
 _atom_site_type_symbol
 _atom_site_label
 _atom_site_symmetry_multiplicity
 _atom_site_fract_x
 _atom_site_fract_y
 _atom_site_fract_z
 _atom_site_occupancy
  Mo  Mo0  1  0.33333300  0.66666700  0.25000000  1
  Mo  Mo1  1  0.66666700  0.33333300  0.75000000  1
  Ir  Ir0  1  0.83368313  0.66736526  0.25000000  1
  Ir  Ir1  1  0.16631687  0.83368313  0.75000000  1
  Ir  Ir2  1  0.66736526  0.83368313  0.75000000  1
  Ir  Ir3  1  0.33263474  0.16631687  0.25000000  1
  Ir  Ir4  1  0.83368313  0.16631687  0.25000000  1
  Ir  Ir5  1  0.16631687  0.33263474  0.75000000  1
loop_
_geom_bond_atom_site_label_1
_geom_bond_atom_site_label_2
_geom_bond_distance
_geom_bond_site_symmetry_2
Ir0 Ir1 2.711827 1_655
Ir0 Ir1 2.711827 1_654
Ir0 Ir2 2.711833 1_555
Ir0 Ir2 2.711833 1_554
Ir0 Mo1 2.715737 1_554
Ir0 Mo1 2.715737 1_555
Ir0 Ir4 2.748736 1_565
Ir0 Ir3 2.748737 1_665
Ir0 Mo0 2.754509 1_655
Ir0 Mo0 2.754520 1_555
Ir0 Ir4 2.760288 1_555
Ir0 Ir3 2.760288 1_555
Ir1 Ir3 2.711827 1_565
Ir1 Ir3 2.711827 1_566
Ir1 Mo0 2.715737 1_555
Ir1 Mo0 2.715737 1_556
Ir1 Ir5 2.748736 1_565
Ir1 Ir2 2.748737 1_455
Ir1 Mo1 2.754515 1_455
Ir1 Mo1 2.754515 1_565
Ir1 Ir5 2.760288 1_555
Ir1 Ir2 2.760288 1_555
Ir2 Ir4 2.711827 1_565
Ir2 Ir4 2.711827 1_566
Ir2 Mo0 2.715737 1_556
Ir2 Mo0 2.715737 1_555
Ir2 Ir5 2.748737 1_665
Ir2 Mo1 2.754508 1_565
Ir2 Mo1 2.754519 1_555
Ir2 Ir5 2.760288 1_555
Ir3 Ir5 2.711833 1_555
Ir3 Ir5 2.711833 1_554
Ir3 Mo1 2.715737 1_555
Ir3 Mo1 2.715737 1_554
Ir3 Ir4 2.748737 1_455
Ir3 Mo0 2.754508 1_545
Ir3 Mo0 2.754519 1_555
Ir3 Ir4 2.760288 1_555
Ir4 Ir5 2.711827 1_655
Ir4 Ir5 2.711827 1_654
Ir4 Mo1 2.715737 1_554
Ir4 Mo1 2.715737 1_555
Ir4 Mo0 2.754515 1_655
Ir4 Mo0 2.754515 1_545
Ir5 Mo0 2.715737 1_556
Ir5 Mo0 2.715737 1_555
Ir5 Mo1 2.754509 1_455
Ir5 Mo1 2.754520 1_555
