# generated using pymatgen
data_MgCd4(TcO3)4
_symmetry_space_group_name_H-M   'P 1'
_cell_length_a   5.56438966
_cell_length_b   5.64441505
_cell_length_c   8.07627104
_cell_angle_alpha   95.30439488
_cell_angle_beta   89.61237893
_cell_angle_gamma   89.41479318
_symmetry_Int_Tables_number   1
_chemical_formula_structural   MgCd4(TcO3)4
_chemical_formula_sum   'Mg1 Cd4 Tc4 O12'
_cell_volume   252.55029306
_cell_formula_units_Z   1
loop_
 _symmetry_equiv_pos_site_id
 _symmetry_equiv_pos_as_xyz
  1  'x, y, z'
loop_
 _atom_site_type_symbol
 _atom_site_label
 _atom_site_symmetry_multiplicity
 _atom_site_fract_x
 _atom_site_fract_y
 _atom_site_fract_z
 _atom_site_occupancy
  Mg  Mg0  1  0.12188900  0.83334000  0.38565500  1
  Cd  Cd0  1  0.52746800  0.54321100  0.26689300  1
  Cd  Cd1  1  0.98437600  0.13767100  0.19069000  1
  Cd  Cd2  1  0.48631800  0.45166700  0.75749600  1
  Cd  Cd3  1  0.01257400  0.94513000  0.76196900  1
  Tc  Tc0  1  0.00167600  0.53088900  0.99318500  1
  Tc  Tc1  1  0.52080800  0.99620600  0.51684200  1
  Tc  Tc2  1  0.99463700  0.45200400  0.51667400  1
  Tc  Tc3  1  0.49569300  0.00975200  0.00174000  1
  O  O0  1  0.79528500  0.82488900  0.05383400  1
  O  O1  1  0.70469400  0.26744000  0.44551300  1
  O  O2  1  0.19623200  0.15954900  0.56113900  1
  O  O3  1  0.29090800  0.72238500  0.94221300  1
  O  O4  1  0.20374300  0.21836200  0.94502600  1
  O  O5  1  0.29843600  0.67501400  0.56737700  1
  O  O6  1  0.79908500  0.76501500  0.46363800  1
  O  O7  1  0.69381500  0.33053400  0.05237000  1
  O  O8  1  0.38108400  0.97650200  0.25341200  1
  O  O9  1  0.11649900  0.51763100  0.24786800  1
  O  O10  1  0.61462900  0.02817400  0.76283100  1
  O  O11  1  0.88514900  0.51345100  0.75530500  1
loop_
_geom_bond_atom_site_label_1
_geom_bond_atom_site_label_2
_geom_bond_distance
_geom_bond_site_symmetry_2
Mg0 O6 1.953332 1_455
Mg0 O8 2.009058 1_555
Mg0 O9 2.012369 1_555
Mg0 O5 2.040029 1_555
Mg0 O2 2.260748 1_565
Cd0 O7 2.206943 1_555
Cd0 O9 2.298101 1_555
Cd0 O1 2.424771 1_555
Cd0 O6 2.465728 1_555
Cd0 O8 2.581935 1_555
Cd0 O5 2.769820 1_555
Cd1 O0 2.266828 1_545
Cd1 O9 2.281877 1_655
Cd1 O7 2.293543 1_555
Cd1 O4 2.404064 1_654
Cd1 O8 2.452807 1_645
Cd1 Mg0 2.550513 1_645
Cd1 O1 2.616976 1_555
Cd2 O11 2.250205 1_555
Cd2 O3 2.294645 1_555
Cd2 O5 2.322185 1_555
Cd2 O10 2.492003 1_555
Cd2 O4 2.622810 1_555
Cd2 O2 2.728471 1_555
Cd2 O7 2.791803 1_556
Cd3 O10 2.258531 1_465
Cd3 O4 2.308456 1_565
Cd3 O2 2.346413 1_565
Cd3 O3 2.535262 1_555
Cd3 O11 2.540492 1_455
Cd3 O5 2.607331 1_555
O0 Tc3 2.024835 1_565
O0 Tc0 2.028745 1_654
O1 Tc1 1.977307 1_545
O1 Tc2 1.988630 1_555
O2 Tc1 2.033756 1_545
O2 Tc2 2.046816 1_455
O3 Tc0 2.009175 1_555
O3 Tc3 2.015323 1_566
O4 Tc3 2.075103 1_556
O4 Tc0 2.086630 1_555
O5 Tc2 2.137132 1_455
O5 Tc1 2.271607 1_555
O6 Tc1 2.032539 1_555
O6 Tc2 2.143806 1_555
O7 Tc0 2.137848 1_654
O7 Tc3 2.137967 1_555
O8 Tc3 2.151442 1_565
O8 Tc1 2.263544 1_555
O9 Tc0 2.165612 1_554
O9 Tc2 2.333226 1_455
O10 Tc3 2.047674 1_556
O10 Tc1 2.049793 1_545
O11 Tc2 2.015429 1_555
O11 Tc0 2.025896 1_655
