# generated using pymatgen
data_Tb3Tl5
_symmetry_space_group_name_H-M   'P 1'
_cell_length_a   6.56095937
_cell_length_b   6.56095937
_cell_length_c   10.57501900
_cell_angle_alpha   90.00000000
_cell_angle_beta   90.00000000
_cell_angle_gamma   104.33454129
_symmetry_Int_Tables_number   1
_chemical_formula_structural   Tb3Tl5
_chemical_formula_sum   'Tb6 Tl10'
_cell_volume   441.04190906
_cell_formula_units_Z   2
loop_
 _symmetry_equiv_pos_site_id
 _symmetry_equiv_pos_as_xyz
  1  'x, y, z'
loop_
 _atom_site_type_symbol
 _atom_site_label
 _atom_site_symmetry_multiplicity
 _atom_site_fract_x
 _atom_site_fract_y
 _atom_site_fract_z
 _atom_site_occupancy
  Tb  Tb0  1  0.61424100  0.61424100  0.25000000  1
  Tb  Tb1  1  0.38575900  0.38575900  0.75000000  1
  Tb  Tb2  1  0.79372100  0.20627900  0.50000000  1
  Tb  Tb3  1  0.79372100  0.20627900  0.00000000  1
  Tb  Tb4  1  0.20627900  0.79372100  0.50000000  1
  Tb  Tb5  1  0.20627900  0.79372100  0.00000000  1
  Tl  Tl0  1  0.99729500  0.99729500  0.25000000  1
  Tl  Tl1  1  0.00270500  0.00270500  0.75000000  1
  Tl  Tl2  1  0.30003600  0.30003600  0.04555300  1
  Tl  Tl3  1  0.69996400  0.69996400  0.95444700  1
  Tl  Tl4  1  0.30003600  0.30003600  0.45444700  1
  Tl  Tl5  1  0.69996400  0.69996400  0.54555300  1
  Tl  Tl6  1  0.05343000  0.51172600  0.25000000  1
  Tl  Tl7  1  0.48827400  0.94657000  0.75000000  1
  Tl  Tl8  1  0.94657000  0.48827400  0.75000000  1
  Tl  Tl9  1  0.51172600  0.05343000  0.25000000  1
loop_
_geom_bond_atom_site_label_1
_geom_bond_atom_site_label_2
_geom_bond_distance
_geom_bond_site_symmetry_2
Tb0 Tl0 3.082986 1_555
Tb0 Tl6 3.116907 1_655
Tb0 Tl9 3.116907 1_565
Tb0 Tl3 3.200723 1_554
Tb0 Tl5 3.200723 1_555
Tb0 Tl4 3.327087 1_555
Tb0 Tl2 3.327087 1_555
Tb0 Tl6 3.572865 1_555
Tb0 Tl9 3.572865 1_555
Tb1 Tl1 3.082986 1_555
Tb1 Tl7 3.116907 1_545
Tb1 Tl8 3.116907 1_455
Tb1 Tl4 3.200723 1_555
Tb1 Tl2 3.200723 1_556
Tb1 Tl5 3.327087 1_555
Tb1 Tl3 3.327087 1_555
Tb1 Tl8 3.572865 1_555
Tb1 Tl7 3.572865 1_555
Tb2 Tl9 3.240288 1_555
Tb2 Tl8 3.240288 1_555
Tb2 Tl5 3.260938 1_545
Tb2 Tl4 3.260938 1_655
Tb2 Tl1 3.400031 1_655
Tb2 Tl0 3.400031 1_545
Tb2 Tl4 3.476848 1_555
Tb2 Tl5 3.476848 1_555
Tb2 Tl6 3.495441 1_655
Tb2 Tl7 3.495441 1_545
Tb3 Tl8 3.240288 1_554
Tb3 Tl9 3.240288 1_555
Tb3 Tl2 3.260938 1_655
Tb3 Tl3 3.260938 1_544
Tb3 Tl1 3.400031 1_654
Tb3 Tl0 3.400031 1_545
Tb3 Tl2 3.476848 1_555
Tb3 Tl3 3.476848 1_554
Tb3 Tl6 3.495441 1_655
Tb3 Tl7 3.495441 1_544
Tb4 Tl6 3.240288 1_555
Tb4 Tl7 3.240288 1_555
Tb4 Tl5 3.260938 1_455
Tb4 Tl4 3.260938 1_565
Tb4 Tl1 3.400031 1_565
Tb4 Tl0 3.400031 1_455
Tb4 Tl4 3.476848 1_555
Tb4 Tl5 3.476848 1_555
Tb4 Tl8 3.495441 1_455
Tb4 Tl9 3.495441 1_565
Tb5 Tl6 3.240288 1_555
Tb5 Tl7 3.240288 1_554
Tb5 Tl3 3.260938 1_454
Tb5 Tl2 3.260938 1_565
Tb5 Tl1 3.400031 1_564
Tb5 Tl0 3.400031 1_455
Tb5 Tl2 3.476848 1_555
Tb5 Tl3 3.476848 1_554
Tb5 Tl8 3.495441 1_454
Tb5 Tl9 3.495441 1_565
Tl0 Tl4 3.257508 1_665
Tl0 Tl2 3.257508 1_665
Tl0 Tl9 3.296354 1_565
Tl0 Tl6 3.296354 1_655
Tl0 Tl6 3.303306 1_665
Tl0 Tl9 3.303306 1_665
Tl1 Tl5 3.257508 1_445
Tl1 Tl3 3.257508 1_445
Tl1 Tl7 3.296354 1_545
Tl1 Tl8 3.296354 1_455
Tl1 Tl7 3.303306 1_445
Tl1 Tl8 3.303306 1_445
Tl2 Tl9 3.214647 1_555
Tl2 Tl6 3.214647 1_555
Tl2 Tl3 3.359892 1_554
Tl3 Tl7 3.214647 1_555
Tl3 Tl8 3.214647 1_555
Tl4 Tl9 3.214647 1_555
Tl4 Tl6 3.214647 1_555
Tl4 Tl5 3.359892 1_555
Tl5 Tl7 3.214647 1_555
Tl5 Tl8 3.214647 1_555
