# generated using pymatgen
data_Tb5(In2Pd)2
_symmetry_space_group_name_H-M   'P 1'
_cell_length_a   16.12807914
_cell_length_b   36.52351888
_cell_length_c   7.29705800
_cell_angle_alpha   90.00000000
_cell_angle_beta   90.00000000
_cell_angle_gamma   90.00000000
_symmetry_Int_Tables_number   1
_chemical_formula_structural   Tb5(In2Pd)2
_chemical_formula_sum   'Tb80 In64 Pd32'
_cell_volume   4298.36268420
_cell_formula_units_Z   16
loop_
 _symmetry_equiv_pos_site_id
 _symmetry_equiv_pos_as_xyz
  1  'x, y, z'
loop_
 _atom_site_type_symbol
 _atom_site_label
 _atom_site_symmetry_multiplicity
 _atom_site_fract_x
 _atom_site_fract_y
 _atom_site_fract_z
 _atom_site_occupancy
  Tb  Tb0_0  1  0.25000000  0.25000000  0.00000000  1
  Tb  Tb0_1  1  0.25000000  0.25000000  0.50000000  1
  Tb  Tb0_2  1  0.25000000  0.75000000  0.00000000  1
  Tb  Tb0_3  1  0.25000000  0.75000000  0.50000000  1
  Tb  Tb0_4  1  0.75000000  0.25000000  0.00000000  1
  Tb  Tb0_5  1  0.75000000  0.25000000  0.50000000  1
  Tb  Tb0_6  1  0.75000000  0.75000000  0.00000000  1
  Tb  Tb0_7  1  0.75000000  0.75000000  0.50000000  1
  Tb  Tb1_0  1  0.00000000  0.00000000  0.00000000  1
  Tb  Tb1_1  1  0.00000000  0.00000000  0.50000000  1
  Tb  Tb1_2  1  0.00000000  0.50000000  0.00000000  1
  Tb  Tb1_3  1  0.00000000  0.50000000  0.50000000  1
  Tb  Tb1_4  1  0.50000000  0.00000000  0.00000000  1
  Tb  Tb1_5  1  0.50000000  0.00000000  0.50000000  1
  Tb  Tb1_6  1  0.50000000  0.50000000  0.00000000  1
  Tb  Tb1_7  1  0.50000000  0.50000000  0.50000000  1
  Tb  Tb2_0  1  0.37158582  0.14015113  0.00000000  1
  Tb  Tb2_1  1  0.37158582  0.14015113  0.50000000  1
  Tb  Tb2_2  1  0.37158582  0.64015113  0.00000000  1
  Tb  Tb2_3  1  0.37158582  0.64015113  0.50000000  1
  Tb  Tb2_4  1  0.87158582  0.14015113  0.00000000  1
  Tb  Tb2_5  1  0.87158582  0.14015113  0.50000000  1
  Tb  Tb2_6  1  0.87158582  0.64015113  0.00000000  1
  Tb  Tb2_7  1  0.87158582  0.64015113  0.50000000  1
  Tb  Tb3_0  1  0.12841418  0.35984888  0.00000000  1
  Tb  Tb3_1  1  0.12841418  0.35984888  0.50000000  1
  Tb  Tb3_2  1  0.12841418  0.85984887  0.00000000  1
  Tb  Tb3_3  1  0.12841418  0.85984887  0.50000000  1
  Tb  Tb3_4  1  0.62841418  0.35984888  0.00000000  1
  Tb  Tb3_5  1  0.62841418  0.35984888  0.50000000  1
  Tb  Tb3_6  1  0.62841418  0.85984887  0.00000000  1
  Tb  Tb3_7  1  0.62841418  0.85984887  0.50000000  1
  Tb  Tb4_0  1  0.37841418  0.39015112  0.00000000  1
  Tb  Tb4_1  1  0.37841418  0.39015112  0.50000000  1
  Tb  Tb4_2  1  0.37841418  0.89015112  0.00000000  1
  Tb  Tb4_3  1  0.37841418  0.89015112  0.50000000  1
  Tb  Tb4_4  1  0.87841418  0.39015112  0.00000000  1
  Tb  Tb4_5  1  0.87841418  0.39015112  0.50000000  1
  Tb  Tb4_6  1  0.87841418  0.89015112  0.00000000  1
  Tb  Tb4_7  1  0.87841418  0.89015112  0.50000000  1
  Tb  Tb5_0  1  0.12158582  0.10984888  0.00000000  1
  Tb  Tb5_1  1  0.12158582  0.10984888  0.50000000  1
  Tb  Tb5_2  1  0.12158582  0.60984887  0.00000000  1
  Tb  Tb5_3  1  0.12158582  0.60984887  0.50000000  1
  Tb  Tb5_4  1  0.62158582  0.10984888  0.00000000  1
  Tb  Tb5_5  1  0.62158582  0.10984888  0.50000000  1
  Tb  Tb5_6  1  0.62158582  0.60984887  0.00000000  1
  Tb  Tb5_7  1  0.62158582  0.60984887  0.50000000  1
  Tb  Tb6_0  1  0.30877002  0.04140904  0.00000000  1
  Tb  Tb6_1  1  0.30877002  0.04140904  0.50000000  1
  Tb  Tb6_2  1  0.30877002  0.54140904  0.00000000  1
  Tb  Tb6_3  1  0.30877002  0.54140904  0.50000000  1
  Tb  Tb6_4  1  0.80877002  0.04140904  0.00000000  1
  Tb  Tb6_5  1  0.80877002  0.04140904  0.50000000  1
  Tb  Tb6_6  1  0.80877002  0.54140904  0.00000000  1
  Tb  Tb6_7  1  0.80877002  0.54140904  0.50000000  1
  Tb  Tb7_0  1  0.19122999  0.45859096  0.00000000  1
  Tb  Tb7_1  1  0.19122999  0.45859096  0.50000000  1
  Tb  Tb7_2  1  0.19122999  0.95859096  0.00000000  1
  Tb  Tb7_3  1  0.19122999  0.95859096  0.50000000  1
  Tb  Tb7_4  1  0.69122999  0.45859096  0.00000000  1
  Tb  Tb7_5  1  0.69122999  0.45859096  0.50000000  1
  Tb  Tb7_6  1  0.69122999  0.95859096  0.00000000  1
  Tb  Tb7_7  1  0.69122999  0.95859096  0.50000000  1
  Tb  Tb8_0  1  0.44122999  0.29140905  0.00000000  1
  Tb  Tb8_1  1  0.44122999  0.29140905  0.50000000  1
  Tb  Tb8_2  1  0.44122999  0.79140905  0.00000000  1
  Tb  Tb8_3  1  0.44122999  0.79140905  0.50000000  1
  Tb  Tb8_4  1  0.94122999  0.29140905  0.00000000  1
  Tb  Tb8_5  1  0.94122999  0.29140905  0.50000000  1
  Tb  Tb8_6  1  0.94122999  0.79140905  0.00000000  1
  Tb  Tb8_7  1  0.94122999  0.79140905  0.50000000  1
  Tb  Tb9_0  1  0.05877002  0.20859095  0.00000000  1
  Tb  Tb9_1  1  0.05877002  0.20859095  0.50000000  1
  Tb  Tb9_2  1  0.05877002  0.70859095  0.00000000  1
  Tb  Tb9_3  1  0.05877002  0.70859095  0.50000000  1
  Tb  Tb9_4  1  0.55877002  0.20859095  0.00000000  1
  Tb  Tb9_5  1  0.55877002  0.20859095  0.50000000  1
  Tb  Tb9_6  1  0.55877002  0.70859095  0.00000000  1
  Tb  Tb9_7  1  0.55877002  0.70859095  0.50000000  1
  In  In0_0  1  0.35491677  0.46547294  0.25000000  1
  In  In0_1  1  0.35491677  0.46547294  0.75000000  1
  In  In0_2  1  0.35491677  0.96547294  0.25000000  1
  In  In0_3  1  0.35491677  0.96547294  0.75000000  1
  In  In0_4  1  0.85491677  0.46547294  0.25000000  1
  In  In0_5  1  0.85491677  0.46547294  0.75000000  1
  In  In0_6  1  0.85491677  0.96547294  0.25000000  1
  In  In0_7  1  0.85491677  0.96547294  0.75000000  1
  In  In1_0  1  0.14508324  0.03452707  0.25000000  1
  In  In1_1  1  0.14508324  0.03452707  0.75000000  1
  In  In1_2  1  0.14508324  0.53452707  0.25000000  1
  In  In1_3  1  0.14508324  0.53452707  0.75000000  1
  In  In1_4  1  0.64508323  0.03452707  0.25000000  1
  In  In1_5  1  0.64508323  0.03452707  0.75000000  1
  In  In1_6  1  0.64508323  0.53452707  0.25000000  1
  In  In1_7  1  0.64508323  0.53452707  0.75000000  1
  In  In2_0  1  0.39508324  0.21547294  0.25000000  1
  In  In2_1  1  0.39508324  0.21547294  0.75000000  1
  In  In2_2  1  0.39508324  0.71547293  0.25000000  1
  In  In2_3  1  0.39508324  0.71547293  0.75000000  1
  In  In2_4  1  0.89508324  0.21547294  0.25000000  1
  In  In2_5  1  0.89508324  0.21547294  0.75000000  1
  In  In2_6  1  0.89508324  0.71547293  0.25000000  1
  In  In2_7  1  0.89508324  0.71547293  0.75000000  1
  In  In3_0  1  0.10491677  0.28452707  0.25000000  1
  In  In3_1  1  0.10491677  0.28452707  0.75000000  1
  In  In3_2  1  0.10491677  0.78452707  0.25000000  1
  In  In3_3  1  0.10491677  0.78452707  0.75000000  1
  In  In3_4  1  0.60491677  0.28452707  0.25000000  1
  In  In3_5  1  0.60491677  0.28452707  0.75000000  1
  In  In3_6  1  0.60491677  0.78452707  0.25000000  1
  In  In3_7  1  0.60491677  0.78452707  0.75000000  1
  In  In4_0  1  0.28810390  0.32506926  0.25000000  1
  In  In4_1  1  0.28810390  0.32506926  0.75000000  1
  In  In4_2  1  0.28810390  0.82506925  0.25000000  1
  In  In4_3  1  0.28810390  0.82506925  0.75000000  1
  In  In4_4  1  0.78810391  0.32506926  0.25000000  1
  In  In4_5  1  0.78810391  0.32506926  0.75000000  1
  In  In4_6  1  0.78810391  0.82506925  0.25000000  1
  In  In4_7  1  0.78810391  0.82506925  0.75000000  1
  In  In5_0  1  0.21189610  0.17493074  0.25000000  1
  In  In5_1  1  0.21189610  0.17493074  0.75000000  1
  In  In5_2  1  0.21189610  0.67493075  0.25000000  1
  In  In5_3  1  0.21189610  0.67493075  0.75000000  1
  In  In5_4  1  0.71189609  0.17493074  0.25000000  1
  In  In5_5  1  0.71189609  0.17493074  0.75000000  1
  In  In5_6  1  0.71189609  0.67493075  0.25000000  1
  In  In5_7  1  0.71189609  0.67493075  0.75000000  1
  In  In6_0  1  0.46189610  0.07506926  0.25000000  1
  In  In6_1  1  0.46189610  0.07506926  0.75000000  1
  In  In6_2  1  0.46189610  0.57506926  0.25000000  1
  In  In6_3  1  0.46189610  0.57506926  0.75000000  1
  In  In6_4  1  0.96189610  0.07506926  0.25000000  1
  In  In6_5  1  0.96189610  0.07506926  0.75000000  1
  In  In6_6  1  0.96189610  0.57506926  0.25000000  1
  In  In6_7  1  0.96189610  0.57506926  0.75000000  1
  In  In7_0  1  0.03810391  0.42493074  0.25000000  1
  In  In7_1  1  0.03810391  0.42493074  0.75000000  1
  In  In7_2  1  0.03810391  0.92493074  0.25000000  1
  In  In7_3  1  0.03810391  0.92493074  0.75000000  1
  In  In7_4  1  0.53810391  0.42493074  0.25000000  1
  In  In7_5  1  0.53810391  0.42493074  0.75000000  1
  In  In7_6  1  0.53810391  0.92493074  0.25000000  1
  In  In7_7  1  0.53810391  0.92493074  0.75000000  1
  Pd  Pd0_0  1  0.26367476  0.09769042  0.25000000  1
  Pd  Pd0_1  1  0.26367476  0.09769042  0.75000000  1
  Pd  Pd0_2  1  0.26367476  0.59769042  0.25000000  1
  Pd  Pd0_3  1  0.26367476  0.59769042  0.75000000  1
  Pd  Pd0_4  1  0.76367476  0.09769042  0.25000000  1
  Pd  Pd0_5  1  0.76367476  0.09769042  0.75000000  1
  Pd  Pd0_6  1  0.76367476  0.59769042  0.25000000  1
  Pd  Pd0_7  1  0.76367476  0.59769042  0.75000000  1
  Pd  Pd1_0  1  0.23632524  0.40230959  0.25000000  1
  Pd  Pd1_1  1  0.23632524  0.40230959  0.75000000  1
  Pd  Pd1_2  1  0.23632524  0.90230959  0.25000000  1
  Pd  Pd1_3  1  0.23632524  0.90230959  0.75000000  1
  Pd  Pd1_4  1  0.73632524  0.40230959  0.25000000  1
  Pd  Pd1_5  1  0.73632524  0.40230959  0.75000000  1
  Pd  Pd1_6  1  0.73632524  0.90230959  0.25000000  1
  Pd  Pd1_7  1  0.73632524  0.90230959  0.75000000  1
  Pd  Pd2_0  1  0.48632524  0.34769042  0.25000000  1
  Pd  Pd2_1  1  0.48632524  0.34769042  0.75000000  1
  Pd  Pd2_2  1  0.48632524  0.84769042  0.25000000  1
  Pd  Pd2_3  1  0.48632524  0.84769042  0.75000000  1
  Pd  Pd2_4  1  0.98632524  0.34769042  0.25000000  1
  Pd  Pd2_5  1  0.98632524  0.34769042  0.75000000  1
  Pd  Pd2_6  1  0.98632524  0.84769042  0.25000000  1
  Pd  Pd2_7  1  0.98632524  0.84769042  0.75000000  1
  Pd  Pd3_0  1  0.01367476  0.15230958  0.25000000  1
  Pd  Pd3_1  1  0.01367476  0.15230958  0.75000000  1
  Pd  Pd3_2  1  0.01367476  0.65230959  0.25000000  1
  Pd  Pd3_3  1  0.01367476  0.65230959  0.75000000  1
  Pd  Pd3_4  1  0.51367476  0.15230958  0.25000000  1
  Pd  Pd3_5  1  0.51367476  0.15230958  0.75000000  1
  Pd  Pd3_6  1  0.51367476  0.65230959  0.25000000  1
  Pd  Pd3_7  1  0.51367476  0.65230959  0.75000000  1
loop_
_geom_bond_atom_site_label_1
_geom_bond_atom_site_label_2
_geom_bond_distance
_geom_bond_site_symmetry_2
Tb0_0 Tb9_0 3.435038 1_555
Tb0_0 Tb8_0 3.435038 1_555
Tb0_0 Tb0_1 3.648529 1_555
Tb0_0 Tb0_1 3.648529 1_554
Tb0_1 Tb9_1 3.435038 1_555
Tb0_1 Tb8_1 3.435038 1_555
Tb0_2 Tb9_2 3.435038 1_555
Tb0_2 Tb8_2 3.435038 1_555
Tb0_2 Tb0_3 3.648529 1_555
Tb0_2 Tb0_3 3.648529 1_554
Tb0_3 Tb9_3 3.435038 1_555
Tb0_3 Tb8_3 3.435038 1_555
Tb0_4 Tb8_4 3.435038 1_555
Tb0_4 Tb9_4 3.435038 1_555
Tb0_4 Tb0_5 3.648529 1_555
Tb0_4 Tb0_5 3.648529 1_554
Tb0_5 Tb8_5 3.435038 1_555
Tb0_5 Tb9_5 3.435038 1_555
Tb0_6 Tb8_6 3.435038 1_555
Tb0_6 Tb9_6 3.435038 1_555
Tb0_6 Tb0_7 3.648529 1_555
Tb0_6 Tb0_7 3.648529 1_554
Tb0_7 Tb8_7 3.435038 1_555
Tb0_7 Tb9_7 3.435038 1_555
Tb1_0 Tb6_4 3.435038 1_455
Tb1_0 Tb7_2 3.435038 1_545
Tb1_0 Tb1_1 3.648529 1_555
Tb1_0 Tb1_1 3.648529 1_554
Tb1_1 Tb6_5 3.435038 1_455
Tb1_1 Tb7_3 3.435038 1_545
Tb1_2 Tb6_6 3.435038 1_455
Tb1_2 Tb7_0 3.435038 1_555
Tb1_2 Tb1_3 3.648529 1_555
Tb1_2 Tb1_3 3.648529 1_554
Tb1_3 Tb6_7 3.435038 1_455
Tb1_3 Tb7_1 3.435038 1_555
Tb1_4 Tb6_0 3.435038 1_555
Tb1_4 Tb7_6 3.435038 1_545
Tb1_4 Tb1_5 3.648529 1_555
Tb1_4 Tb1_5 3.648529 1_554
Tb1_5 Tb6_1 3.435038 1_555
Tb1_5 Tb7_7 3.435038 1_545
Tb1_6 Tb6_2 3.435038 1_555
Tb1_6 Tb7_4 3.435038 1_555
Tb1_6 Tb1_7 3.648529 1_555
Tb1_6 Tb1_7 3.648529 1_554
Tb1_7 Tb6_3 3.435038 1_555
Tb1_7 Tb7_5 3.435038 1_555
In0_0 Pd1_0 2.996707 1_555
In0_0 Tb7_0 3.218769 1_555
In0_0 Tb7_1 3.218769 1_555
In0_0 Tb1_7 3.223877 1_555
In0_0 Tb1_6 3.223877 1_555
In0_0 In7_4 3.304756 1_555
In0_0 Tb4_0 3.322598 1_555
In0_0 Tb4_1 3.322598 1_555
In0_0 Tb6_3 3.402045 1_555
In0_0 Tb6_2 3.402045 1_555
In0_1 Pd1_1 2.996707 1_555
In0_1 Tb7_1 3.218769 1_555
In0_1 Tb7_0 3.218769 1_556
In0_1 Tb1_7 3.223877 1_555
In0_1 Tb1_6 3.223877 1_556
In0_1 In7_5 3.304756 1_555
In0_1 Tb4_1 3.322598 1_555
In0_1 Tb4_0 3.322598 1_556
In0_1 Tb6_3 3.402045 1_555
In0_1 Tb6_2 3.402045 1_556
In0_2 Pd1_2 2.996707 1_555
In0_2 Tb7_2 3.218769 1_555
In0_2 Tb7_3 3.218769 1_555
In0_2 Tb1_5 3.223877 1_565
In0_2 Tb1_4 3.223877 1_565
In0_2 In7_6 3.304756 1_555
In0_2 Tb4_2 3.322598 1_555
In0_2 Tb4_3 3.322598 1_555
In0_2 Tb6_1 3.402045 1_565
In0_2 Tb6_0 3.402045 1_565
In0_3 Pd1_3 2.996707 1_555
In0_3 Tb7_3 3.218769 1_555
In0_3 Tb7_2 3.218769 1_556
In0_3 Tb1_5 3.223877 1_565
In0_3 Tb1_4 3.223877 1_566
In0_3 In7_7 3.304756 1_555
In0_3 Tb4_3 3.322598 1_555
In0_3 Tb4_2 3.322598 1_556
In0_3 Tb6_1 3.402045 1_565
In0_3 Tb6_0 3.402045 1_566
In0_4 Pd1_4 2.996707 1_555
In0_4 Tb7_5 3.218769 1_555
In0_4 Tb7_4 3.218769 1_555
In0_4 Tb1_2 3.223877 1_655
In0_4 Tb1_3 3.223877 1_655
In0_4 In7_0 3.304756 1_655
In0_4 Tb4_4 3.322598 1_555
In0_4 Tb4_5 3.322598 1_555
In0_4 Tb6_7 3.402045 1_555
In0_4 Tb6_6 3.402045 1_555
In0_5 Pd1_5 2.996707 1_555
In0_5 Tb7_5 3.218769 1_555
In0_5 Tb7_4 3.218769 1_556
In0_5 Tb1_3 3.223877 1_655
In0_5 Tb1_2 3.223877 1_656
In0_5 In7_1 3.304756 1_655
In0_5 Tb4_5 3.322598 1_555
In0_5 Tb4_4 3.322598 1_556
In0_5 Tb6_7 3.402045 1_555
In0_5 Tb6_6 3.402045 1_556
In0_6 Pd1_6 2.996707 1_555
In0_6 Tb7_6 3.218769 1_555
In0_6 Tb7_7 3.218769 1_555
In0_6 Tb1_1 3.223877 1_665
In0_6 Tb1_0 3.223877 1_665
In0_6 In7_2 3.304756 1_655
In0_6 Tb4_6 3.322598 1_555
In0_6 Tb4_7 3.322598 1_555
In0_6 Tb6_5 3.402045 1_565
In0_6 Tb6_4 3.402045 1_565
In0_7 Pd1_7 2.996707 1_555
In0_7 Tb7_7 3.218769 1_555
In0_7 Tb7_6 3.218769 1_556
In0_7 Tb1_1 3.223877 1_665
In0_7 Tb1_0 3.223877 1_666
In0_7 In7_3 3.304756 1_655
In0_7 Tb4_7 3.322598 1_555
In0_7 Tb4_6 3.322598 1_556
In0_7 Tb6_5 3.402045 1_565
In0_7 Tb6_4 3.402045 1_566
In1_0 Pd0_0 2.996707 1_555
In1_0 Tb6_1 3.218769 1_555
In1_0 Tb6_0 3.218769 1_555
In1_0 Tb1_0 3.223877 1_555
In1_0 Tb1_1 3.223877 1_555
In1_0 In6_4 3.304756 1_455
In1_0 Tb5_0 3.322598 1_555
In1_0 Tb5_1 3.322598 1_555
In1_0 Tb7_2 3.402045 1_545
In1_0 Tb7_3 3.402045 1_545
In1_1 Pd0_1 2.996707 1_555
In1_1 Tb6_1 3.218769 1_555
In1_1 Tb6_0 3.218769 1_556
In1_1 Tb1_1 3.223877 1_555
In1_1 Tb1_0 3.223877 1_556
In1_1 In6_5 3.304756 1_455
In1_1 Tb5_1 3.322598 1_555
In1_1 Tb5_0 3.322598 1_556
In1_1 Tb7_3 3.402045 1_545
In1_1 Tb7_2 3.402045 1_546
In1_2 Pd0_2 2.996707 1_555
In1_2 Tb6_2 3.218769 1_555
In1_2 Tb6_3 3.218769 1_555
In1_2 Tb1_2 3.223877 1_555
In1_2 Tb1_3 3.223877 1_555
In1_2 In6_6 3.304756 1_455
In1_2 Tb5_3 3.322598 1_555
In1_2 Tb5_2 3.322598 1_555
In1_2 Tb7_1 3.402045 1_555
In1_2 Tb7_0 3.402045 1_555
In1_3 Pd0_3 2.996707 1_555
In1_3 Tb6_3 3.218769 1_555
In1_3 Tb6_2 3.218769 1_556
In1_3 Tb1_3 3.223877 1_555
In1_3 Tb1_2 3.223877 1_556
In1_3 In6_7 3.304756 1_455
In1_3 Tb5_3 3.322598 1_555
In1_3 Tb5_2 3.322598 1_556
In1_3 Tb7_1 3.402045 1_555
In1_3 Tb7_0 3.402045 1_556
In1_4 Pd0_4 2.996707 1_555
In1_4 Tb6_4 3.218769 1_555
In1_4 Tb6_5 3.218769 1_555
In1_4 Tb1_5 3.223877 1_555
In1_4 Tb1_4 3.223877 1_555
In1_4 In6_0 3.304756 1_555
In1_4 Tb5_4 3.322598 1_555
In1_4 Tb5_5 3.322598 1_555
In1_4 Tb7_6 3.402045 1_545
In1_4 Tb7_7 3.402045 1_545
In1_5 Pd0_5 2.996707 1_555
In1_5 Tb6_5 3.218769 1_555
In1_5 Tb6_4 3.218769 1_556
In1_5 Tb1_5 3.223877 1_555
In1_5 Tb1_4 3.223877 1_556
In1_5 In6_1 3.304756 1_555
In1_5 Tb5_5 3.322598 1_555
In1_5 Tb5_4 3.322598 1_556
In1_5 Tb7_7 3.402045 1_545
In1_5 Tb7_6 3.402045 1_546
In1_6 Pd0_6 2.996707 1_555
In1_6 Tb6_7 3.218769 1_555
In1_6 Tb6_6 3.218769 1_555
In1_6 Tb1_6 3.223877 1_555
In1_6 Tb1_7 3.223877 1_555
In1_6 In6_2 3.304756 1_555
In1_6 Tb5_7 3.322598 1_555
In1_6 Tb5_6 3.322598 1_555
In1_6 Tb7_4 3.402045 1_555
In1_6 Tb7_5 3.402045 1_555
In1_7 Pd0_7 2.996707 1_555
In1_7 Tb6_7 3.218769 1_555
In1_7 Tb6_6 3.218769 1_556
In1_7 Tb1_7 3.223877 1_555
In1_7 Tb1_6 3.223877 1_556
In1_7 In6_3 3.304756 1_555
In1_7 Tb5_7 3.322598 1_555
In1_7 Tb5_6 3.322598 1_556
In1_7 Tb7_5 3.402045 1_555
In1_7 Tb7_4 3.402045 1_556
In2_0 Pd3_4 2.996707 1_555
In2_0 Tb9_5 3.218769 1_555
In2_0 Tb9_4 3.218769 1_555
In2_0 Tb0_0 3.223877 1_555
In2_0 Tb0_1 3.223877 1_555
In2_0 In5_0 3.304756 1_555
In2_0 Tb2_0 3.322598 1_555
In2_0 Tb2_1 3.322598 1_555
In2_0 Tb8_1 3.402045 1_555
In2_0 Tb8_0 3.402045 1_555
In2_1 Pd3_5 2.996707 1_555
In2_1 Tb9_5 3.218769 1_555
In2_1 Tb9_4 3.218769 1_556
In2_1 Tb0_1 3.223877 1_555
In2_1 Tb0_0 3.223877 1_556
In2_1 In5_1 3.304756 1_555
In2_1 Tb2_1 3.322598 1_555
In2_1 Tb2_0 3.322598 1_556
In2_1 Tb8_1 3.402045 1_555
In2_1 Tb8_0 3.402045 1_556
In2_2 Pd3_6 2.996707 1_555
In2_2 Tb9_6 3.218769 1_555
In2_2 Tb9_7 3.218769 1_555
In2_2 Tb0_2 3.223877 1_555
In2_2 Tb0_3 3.223877 1_555
In2_2 In5_2 3.304756 1_555
In2_2 Tb2_2 3.322598 1_555
In2_2 Tb2_3 3.322598 1_555
In2_2 Tb8_2 3.402045 1_555
In2_2 Tb8_3 3.402045 1_555
In2_3 Pd3_7 2.996707 1_555
In2_3 Tb9_7 3.218769 1_555
In2_3 Tb9_6 3.218769 1_556
In2_3 Tb0_3 3.223877 1_555
In2_3 Tb0_2 3.223877 1_556
In2_3 In5_3 3.304756 1_555
In2_3 Tb2_3 3.322598 1_555
In2_3 Tb2_2 3.322598 1_556
In2_3 Tb8_3 3.402045 1_555
In2_3 Tb8_2 3.402045 1_556
In2_4 Pd3_0 2.996707 1_655
In2_4 Tb9_1 3.218769 1_655
In2_4 Tb9_0 3.218769 1_655
In2_4 Tb0_4 3.223877 1_555
In2_4 Tb0_5 3.223877 1_555
In2_4 In5_4 3.304756 1_555
In2_4 Tb2_4 3.322598 1_555
In2_4 Tb2_5 3.322598 1_555
In2_4 Tb8_5 3.402045 1_555
In2_4 Tb8_4 3.402045 1_555
In2_5 Pd3_1 2.996707 1_655
In2_5 Tb9_1 3.218769 1_655
In2_5 Tb9_0 3.218769 1_656
In2_5 Tb0_5 3.223877 1_555
In2_5 Tb0_4 3.223877 1_556
In2_5 In5_5 3.304756 1_555
In2_5 Tb2_5 3.322598 1_555
In2_5 Tb2_4 3.322598 1_556
In2_5 Tb8_5 3.402045 1_555
In2_5 Tb8_4 3.402045 1_556
In2_6 Pd3_2 2.996707 1_655
In2_6 Tb9_2 3.218769 1_655
In2_6 Tb9_3 3.218769 1_655
In2_6 Tb0_6 3.223877 1_555
In2_6 Tb0_7 3.223877 1_555
In2_6 In5_6 3.304756 1_555
In2_6 Tb2_6 3.322598 1_555
In2_6 Tb2_7 3.322598 1_555
In2_6 Tb8_6 3.402045 1_555
In2_6 Tb8_7 3.402045 1_555
In2_7 Pd3_3 2.996707 1_655
In2_7 Tb9_3 3.218769 1_655
In2_7 Tb9_2 3.218769 1_656
In2_7 Tb0_7 3.223877 1_555
In2_7 Tb0_6 3.223877 1_556
In2_7 In5_7 3.304756 1_555
In2_7 Tb2_7 3.322598 1_555
In2_7 Tb2_6 3.322598 1_556
In2_7 Tb8_7 3.402045 1_555
In2_7 Tb8_6 3.402045 1_556
In3_0 Pd2_4 2.996707 1_455
In3_0 Tb8_4 3.218769 1_455
In3_0 Tb8_5 3.218769 1_455
In3_0 Tb0_0 3.223877 1_555
In3_0 Tb0_1 3.223877 1_555
In3_0 In4_0 3.304756 1_555
In3_0 Tb3_0 3.322598 1_555
In3_0 Tb3_1 3.322598 1_555
In3_0 Tb9_1 3.402045 1_555
In3_0 Tb9_0 3.402045 1_555
In3_1 Pd2_5 2.996707 1_455
In3_1 Tb8_5 3.218769 1_455
In3_1 Tb8_4 3.218769 1_456
In3_1 Tb0_1 3.223877 1_555
In3_1 Tb0_0 3.223877 1_556
In3_1 In4_1 3.304756 1_555
In3_1 Tb3_1 3.322598 1_555
In3_1 Tb3_0 3.322598 1_556
In3_1 Tb9_1 3.402045 1_555
In3_1 Tb9_0 3.402045 1_556
In3_2 Pd2_6 2.996707 1_455
In3_2 Tb8_7 3.218769 1_455
In3_2 Tb8_6 3.218769 1_455
In3_2 Tb0_3 3.223877 1_555
In3_2 Tb0_2 3.223877 1_555
In3_2 In4_2 3.304756 1_555
In3_2 Tb3_2 3.322598 1_555
In3_2 Tb3_3 3.322598 1_555
In3_2 Tb9_2 3.402045 1_555
In3_2 Tb9_3 3.402045 1_555
In3_3 Pd2_7 2.996707 1_455
In3_3 Tb8_7 3.218769 1_455
In3_3 Tb8_6 3.218769 1_456
In3_3 Tb0_3 3.223877 1_555
In3_3 Tb0_2 3.223877 1_556
In3_3 In4_3 3.304756 1_555
In3_3 Tb3_3 3.322598 1_555
In3_3 Tb3_2 3.322598 1_556
In3_3 Tb9_3 3.402045 1_555
In3_3 Tb9_2 3.402045 1_556
In3_4 Pd2_0 2.996707 1_555
In3_4 Tb8_0 3.218769 1_555
In3_4 Tb8_1 3.218769 1_555
In3_4 Tb0_4 3.223877 1_555
In3_4 Tb0_5 3.223877 1_555
In3_4 In4_4 3.304756 1_555
In3_4 Tb3_4 3.322598 1_555
In3_4 Tb3_5 3.322598 1_555
In3_4 Tb9_5 3.402045 1_555
In3_4 Tb9_4 3.402045 1_555
In3_5 Pd2_1 2.996707 1_555
In3_5 Tb8_1 3.218769 1_555
In3_5 Tb8_0 3.218769 1_556
In3_5 Tb0_5 3.223877 1_555
In3_5 Tb0_4 3.223877 1_556
In3_5 In4_5 3.304756 1_555
In3_5 Tb3_5 3.322598 1_555
In3_5 Tb3_4 3.322598 1_556
In3_5 Tb9_5 3.402045 1_555
In3_5 Tb9_4 3.402045 1_556
In3_6 Pd2_2 2.996707 1_555
In3_6 Tb8_2 3.218769 1_555
In3_6 Tb8_3 3.218769 1_555
In3_6 Tb0_6 3.223877 1_555
In3_6 Tb0_7 3.223877 1_555
In3_6 In4_6 3.304756 1_555
In3_6 Tb3_6 3.322598 1_555
In3_6 Tb3_7 3.322598 1_555
In3_6 Tb9_7 3.402045 1_555
In3_6 Tb9_6 3.402045 1_555
In3_7 Pd2_3 2.996707 1_555
In3_7 Tb8_3 3.218769 1_555
In3_7 Tb8_2 3.218769 1_556
In3_7 Tb0_7 3.223877 1_555
In3_7 Tb0_6 3.223877 1_556
In3_7 In4_7 3.304756 1_555
In3_7 Tb3_7 3.322598 1_555
In3_7 Tb3_6 3.322598 1_556
In3_7 Tb9_7 3.402045 1_555
In3_7 Tb9_6 3.402045 1_556
In4_0 Pd1_0 2.942094 1_555
In4_0 Pd2_0 3.301965 1_555
In4_0 Tb8_1 3.307327 1_555
In4_0 Tb8_0 3.307327 1_555
In4_0 Tb4_1 3.331613 1_555
In4_0 Tb4_0 3.331613 1_555
In4_0 Tb0_1 3.350080 1_555
In4_0 Tb0_0 3.350080 1_555
In4_0 Tb3_0 3.402158 1_555
In4_0 Tb3_1 3.402158 1_555
In4_1 Pd1_1 2.942094 1_555
In4_1 Pd2_1 3.301965 1_555
In4_1 Tb8_1 3.307327 1_555
In4_1 Tb8_0 3.307327 1_556
In4_1 Tb4_1 3.331613 1_555
In4_1 Tb4_0 3.331613 1_556
In4_1 Tb0_1 3.350080 1_555
In4_1 Tb0_0 3.350080 1_556
In4_1 Tb3_1 3.402158 1_555
In4_1 Tb3_0 3.402158 1_556
In4_2 Pd1_2 2.942094 1_555
In4_2 Pd2_2 3.301965 1_555
In4_2 Tb8_2 3.307327 1_555
In4_2 Tb8_3 3.307327 1_555
In4_2 Tb4_2 3.331613 1_555
In4_2 Tb4_3 3.331613 1_555
In4_2 Tb0_3 3.350080 1_555
In4_2 Tb0_2 3.350080 1_555
In4_2 Tb3_2 3.402158 1_555
In4_2 Tb3_3 3.402158 1_555
In4_3 Pd1_3 2.942094 1_555
In4_3 Pd2_3 3.301965 1_555
In4_3 Tb8_3 3.307327 1_555
In4_3 Tb8_2 3.307327 1_556
In4_3 Tb4_3 3.331613 1_555
In4_3 Tb4_2 3.331613 1_556
In4_3 Tb0_3 3.350080 1_555
In4_3 Tb0_2 3.350080 1_556
In4_3 Tb3_3 3.402158 1_555
In4_3 Tb3_2 3.402158 1_556
In4_4 Pd1_4 2.942094 1_555
In4_4 Pd2_4 3.301965 1_555
In4_4 Tb8_5 3.307327 1_555
In4_4 Tb8_4 3.307327 1_555
In4_4 Tb4_4 3.331613 1_555
In4_4 Tb4_5 3.331613 1_555
In4_4 Tb0_4 3.350080 1_555
In4_4 Tb0_5 3.350080 1_555
In4_4 Tb3_5 3.402158 1_555
In4_4 Tb3_4 3.402158 1_555
In4_5 Pd1_5 2.942094 1_555
In4_5 Pd2_5 3.301965 1_555
In4_5 Tb8_5 3.307327 1_555
In4_5 Tb8_4 3.307327 1_556
In4_5 Tb4_5 3.331613 1_555
In4_5 Tb4_4 3.331613 1_556
In4_5 Tb0_5 3.350080 1_555
In4_5 Tb0_4 3.350080 1_556
In4_5 Tb3_5 3.402158 1_555
In4_5 Tb3_4 3.402158 1_556
In4_6 Pd1_6 2.942094 1_555
In4_6 Pd2_6 3.301965 1_555
In4_6 Tb8_6 3.307327 1_555
In4_6 Tb8_7 3.307327 1_555
In4_6 Tb4_6 3.331613 1_555
In4_6 Tb4_7 3.331613 1_555
In4_6 Tb0_6 3.350080 1_555
In4_6 Tb0_7 3.350080 1_555
In4_6 Tb3_6 3.402158 1_555
In4_6 Tb3_7 3.402158 1_555
In4_7 Pd1_7 2.942094 1_555
In4_7 Pd2_7 3.301965 1_555
In4_7 Tb8_7 3.307327 1_555
In4_7 Tb8_6 3.307327 1_556
In4_7 Tb4_7 3.331613 1_555
In4_7 Tb4_6 3.331613 1_556
In4_7 Tb0_7 3.350080 1_555
In4_7 Tb0_6 3.350080 1_556
In4_7 Tb3_7 3.402158 1_555
In4_7 Tb3_6 3.402158 1_556
In5_0 Pd0_0 2.942094 1_555
In5_0 Pd3_0 3.301965 1_555
In5_0 Tb9_1 3.307327 1_555
In5_0 Tb9_0 3.307327 1_555
In5_0 Tb5_1 3.331613 1_555
In5_0 Tb5_0 3.331613 1_555
In5_0 Tb0_1 3.350080 1_555
In5_0 Tb0_0 3.350080 1_555
In5_0 Tb2_1 3.402158 1_555
In5_0 Tb2_0 3.402158 1_555
In5_1 Pd0_1 2.942094 1_555
In5_1 Pd3_1 3.301965 1_555
In5_1 Tb9_1 3.307327 1_555
In5_1 Tb9_0 3.307327 1_556
In5_1 Tb5_1 3.331613 1_555
In5_1 Tb5_0 3.331613 1_556
In5_1 Tb0_1 3.350080 1_555
In5_1 Tb0_0 3.350080 1_556
In5_1 Tb2_1 3.402158 1_555
In5_1 Tb2_0 3.402158 1_556
In5_2 Pd0_2 2.942094 1_555
In5_2 Pd3_2 3.301965 1_555
In5_2 Tb9_3 3.307327 1_555
In5_2 Tb9_2 3.307327 1_555
In5_2 Tb5_3 3.331613 1_555
In5_2 Tb5_2 3.331613 1_555
In5_2 Tb0_3 3.350080 1_555
In5_2 Tb0_2 3.350080 1_555
In5_2 Tb2_2 3.402158 1_555
In5_2 Tb2_3 3.402158 1_555
In5_3 Pd0_3 2.942094 1_555
In5_3 Pd3_3 3.301965 1_555
In5_3 Tb9_3 3.307327 1_555
In5_3 Tb9_2 3.307327 1_556
In5_3 Tb5_3 3.331613 1_555
In5_3 Tb5_2 3.331613 1_556
In5_3 Tb0_3 3.350080 1_555
In5_3 Tb0_2 3.350080 1_556
In5_3 Tb2_3 3.402158 1_555
In5_3 Tb2_2 3.402158 1_556
In5_4 Pd0_4 2.942094 1_555
In5_4 Pd3_4 3.301965 1_555
In5_4 Tb9_4 3.307327 1_555
In5_4 Tb9_5 3.307327 1_555
In5_4 Tb5_4 3.331613 1_555
In5_4 Tb5_5 3.331613 1_555
In5_4 Tb0_4 3.350080 1_555
In5_4 Tb0_5 3.350080 1_555
In5_4 Tb2_4 3.402158 1_555
In5_4 Tb2_5 3.402158 1_555
In5_5 Pd0_5 2.942094 1_555
In5_5 Pd3_5 3.301965 1_555
In5_5 Tb9_5 3.307327 1_555
In5_5 Tb9_4 3.307327 1_556
In5_5 Tb5_5 3.331613 1_555
In5_5 Tb5_4 3.331613 1_556
In5_5 Tb0_5 3.350080 1_555
In5_5 Tb0_4 3.350080 1_556
In5_5 Tb2_5 3.402158 1_555
In5_5 Tb2_4 3.402158 1_556
In5_6 Pd0_6 2.942094 1_555
In5_6 Pd3_6 3.301965 1_555
In5_6 Tb9_6 3.307327 1_555
In5_6 Tb9_7 3.307327 1_555
In5_6 Tb5_6 3.331613 1_555
In5_6 Tb5_7 3.331613 1_555
In5_6 Tb0_6 3.350080 1_555
In5_6 Tb0_7 3.350080 1_555
In5_6 Tb2_6 3.402158 1_555
In5_6 Tb2_7 3.402158 1_555
In5_7 Pd0_7 2.942094 1_555
In5_7 Pd3_7 3.301965 1_555
In5_7 Tb9_7 3.307327 1_555
In5_7 Tb9_6 3.307327 1_556
In5_7 Tb5_7 3.331613 1_555
In5_7 Tb5_6 3.331613 1_556
In5_7 Tb0_7 3.350080 1_555
In5_7 Tb0_6 3.350080 1_556
In5_7 Tb2_7 3.402158 1_555
In5_7 Tb2_6 3.402158 1_556
In6_0 Pd3_4 2.942094 1_555
In6_0 Pd0_0 3.301965 1_555
In6_0 Tb6_0 3.307327 1_555
In6_0 Tb6_1 3.307327 1_555
In6_0 Tb2_1 3.331613 1_555
In6_0 Tb2_0 3.331613 1_555
In6_0 Tb1_4 3.350080 1_555
In6_0 Tb1_5 3.350080 1_555
In6_0 Tb5_5 3.402158 1_555
In6_0 Tb5_4 3.402158 1_555
In6_1 Pd3_5 2.942094 1_555
In6_1 Pd0_1 3.301965 1_555
In6_1 Tb6_1 3.307327 1_555
In6_1 Tb6_0 3.307327 1_556
In6_1 Tb2_1 3.331613 1_555
In6_1 Tb2_0 3.331613 1_556
In6_1 Tb1_5 3.350080 1_555
In6_1 Tb1_4 3.350080 1_556
In6_1 Tb5_5 3.402158 1_555
In6_1 Tb5_4 3.402158 1_556
In6_2 Pd3_6 2.942094 1_555
In6_2 Pd0_2 3.301965 1_555
In6_2 Tb6_3 3.307327 1_555
In6_2 Tb6_2 3.307327 1_555
In6_2 Tb2_2 3.331613 1_555
In6_2 Tb2_3 3.331613 1_555
In6_2 Tb1_7 3.350080 1_555
In6_2 Tb1_6 3.350080 1_555
In6_2 Tb5_6 3.402158 1_555
In6_2 Tb5_7 3.402158 1_555
In6_3 Pd3_7 2.942094 1_555
In6_3 Pd0_3 3.301965 1_555
In6_3 Tb6_3 3.307327 1_555
In6_3 Tb6_2 3.307327 1_556
In6_3 Tb2_3 3.331613 1_555
In6_3 Tb2_2 3.331613 1_556
In6_3 Tb1_7 3.350080 1_555
In6_3 Tb1_6 3.350080 1_556
In6_3 Tb5_7 3.402158 1_555
In6_3 Tb5_6 3.402158 1_556
In6_4 Pd3_0 2.942094 1_655
In6_4 Pd0_4 3.301965 1_555
In6_4 Tb6_4 3.307327 1_555
In6_4 Tb6_5 3.307327 1_555
In6_4 Tb2_5 3.331613 1_555
In6_4 Tb2_4 3.331613 1_555
In6_4 Tb1_0 3.350080 1_655
In6_4 Tb1_1 3.350080 1_655
In6_4 Tb5_1 3.402158 1_655
In6_4 Tb5_0 3.402158 1_655
In6_5 Pd3_1 2.942094 1_655
In6_5 Pd0_5 3.301965 1_555
In6_5 Tb6_5 3.307327 1_555
In6_5 Tb6_4 3.307327 1_556
In6_5 Tb2_5 3.331613 1_555
In6_5 Tb2_4 3.331613 1_556
In6_5 Tb1_1 3.350080 1_655
In6_5 Tb1_0 3.350080 1_656
In6_5 Tb5_1 3.402158 1_655
In6_5 Tb5_0 3.402158 1_656
In6_6 Pd3_2 2.942094 1_655
In6_6 Pd0_6 3.301965 1_555
In6_6 Tb6_7 3.307327 1_555
In6_6 Tb6_6 3.307327 1_555
In6_6 Tb2_7 3.331613 1_555
In6_6 Tb2_6 3.331613 1_555
In6_6 Tb1_3 3.350080 1_655
In6_6 Tb1_2 3.350080 1_655
In6_6 Tb5_2 3.402158 1_655
In6_6 Tb5_3 3.402158 1_655
In6_7 Pd3_3 2.942094 1_655
In6_7 Pd0_7 3.301965 1_555
In6_7 Tb6_7 3.307327 1_555
In6_7 Tb6_6 3.307327 1_556
In6_7 Tb2_7 3.331613 1_555
In6_7 Tb2_6 3.331613 1_556
In6_7 Tb1_3 3.350080 1_655
In6_7 Tb1_2 3.350080 1_656
In6_7 Tb5_3 3.402158 1_655
In6_7 Tb5_2 3.402158 1_656
In7_0 Pd2_4 2.942094 1_455
In7_0 Pd1_0 3.301965 1_555
In7_0 Tb7_0 3.307327 1_555
In7_0 Tb7_1 3.307327 1_555
In7_0 Tb3_0 3.331613 1_555
In7_0 Tb3_1 3.331613 1_555
In7_0 Tb1_2 3.350080 1_555
In7_0 Tb1_3 3.350080 1_555
In7_0 Tb4_4 3.402158 1_455
In7_0 Tb4_5 3.402158 1_455
In7_1 Pd2_5 2.942094 1_455
In7_1 Pd1_1 3.301965 1_555
In7_1 Tb7_1 3.307327 1_555
In7_1 Tb7_0 3.307327 1_556
In7_1 Tb3_1 3.331613 1_555
In7_1 Tb3_0 3.331613 1_556
In7_1 Tb1_3 3.350080 1_555
In7_1 Tb1_2 3.350080 1_556
In7_1 Tb4_5 3.402158 1_455
In7_1 Tb4_4 3.402158 1_456
In7_2 Pd2_6 2.942094 1_455
In7_2 Pd1_2 3.301965 1_555
In7_2 Tb7_3 3.307327 1_555
In7_2 Tb7_2 3.307327 1_555
In7_2 Tb3_3 3.331613 1_555
In7_2 Tb3_2 3.331613 1_555
In7_2 Tb1_1 3.350080 1_565
In7_2 Tb1_0 3.350080 1_565
In7_2 Tb4_7 3.402158 1_455
In7_2 Tb4_6 3.402158 1_455
In7_3 Pd2_7 2.942094 1_455
In7_3 Pd1_3 3.301965 1_555
In7_3 Tb7_3 3.307327 1_555
In7_3 Tb7_2 3.307327 1_556
In7_3 Tb3_3 3.331613 1_555
In7_3 Tb3_2 3.331613 1_556
In7_3 Tb1_1 3.350080 1_565
In7_3 Tb1_0 3.350080 1_566
In7_3 Tb4_7 3.402158 1_455
In7_3 Tb4_6 3.402158 1_456
In7_4 Pd2_0 2.942094 1_555
In7_4 Pd1_4 3.301965 1_555
In7_4 Tb7_4 3.307327 1_555
In7_4 Tb7_5 3.307327 1_555
In7_4 Tb3_4 3.331613 1_555
In7_4 Tb3_5 3.331613 1_555
In7_4 Tb1_6 3.350080 1_555
In7_4 Tb1_7 3.350080 1_555
In7_4 Tb4_0 3.402158 1_555
In7_4 Tb4_1 3.402158 1_555
In7_5 Pd2_1 2.942094 1_555
In7_5 Pd1_5 3.301965 1_555
In7_5 Tb7_5 3.307327 1_555
In7_5 Tb7_4 3.307327 1_556
In7_5 Tb3_5 3.331613 1_555
In7_5 Tb3_4 3.331613 1_556
In7_5 Tb1_7 3.350080 1_555
In7_5 Tb1_6 3.350080 1_556
In7_5 Tb4_1 3.402158 1_555
In7_5 Tb4_0 3.402158 1_556
In7_6 Pd2_2 2.942094 1_555
In7_6 Pd1_6 3.301965 1_555
In7_6 Tb7_6 3.307327 1_555
In7_6 Tb7_7 3.307327 1_555
In7_6 Tb3_6 3.331613 1_555
In7_6 Tb3_7 3.331613 1_555
In7_6 Tb1_4 3.350080 1_565
In7_6 Tb1_5 3.350080 1_565
In7_6 Tb4_2 3.402158 1_555
In7_6 Tb4_3 3.402158 1_555
In7_7 Pd2_3 2.942094 1_555
In7_7 Pd1_7 3.301965 1_555
In7_7 Tb7_7 3.307327 1_555
In7_7 Tb7_6 3.307327 1_556
In7_7 Tb3_7 3.331613 1_555
In7_7 Tb3_6 3.331613 1_556
In7_7 Tb1_5 3.350080 1_565
In7_7 Tb1_4 3.350080 1_566
In7_7 Tb4_3 3.402158 1_555
In7_7 Tb4_2 3.402158 1_556
Pd0_0 Tb6_1 2.842951 1_555
Pd0_0 Tb6_0 2.842951 1_555
Pd0_0 Tb2_1 2.960060 1_555
Pd0_0 Tb2_0 2.960060 1_555
Pd0_0 Tb5_0 2.962544 1_555
Pd0_0 Tb5_1 2.962544 1_555
Pd0_1 Tb6_1 2.842951 1_555
Pd0_1 Tb6_0 2.842951 1_556
Pd0_1 Tb2_1 2.960060 1_555
Pd0_1 Tb2_0 2.960060 1_556
Pd0_1 Tb5_1 2.962544 1_555
Pd0_1 Tb5_0 2.962544 1_556
Pd0_2 Tb6_3 2.842951 1_555
Pd0_2 Tb6_2 2.842951 1_555
Pd0_2 Tb2_2 2.960060 1_555
Pd0_2 Tb2_3 2.960060 1_555
Pd0_2 Tb5_2 2.962544 1_555
Pd0_2 Tb5_3 2.962544 1_555
Pd0_3 Tb6_3 2.842951 1_555
Pd0_3 Tb6_2 2.842951 1_556
Pd0_3 Tb2_3 2.960060 1_555
Pd0_3 Tb2_2 2.960060 1_556
Pd0_3 Tb5_3 2.962544 1_555
Pd0_3 Tb5_2 2.962544 1_556
Pd0_4 Tb6_5 2.842951 1_555
Pd0_4 Tb6_4 2.842951 1_555
Pd0_4 Tb2_5 2.960060 1_555
Pd0_4 Tb2_4 2.960060 1_555
Pd0_4 Tb5_4 2.962544 1_555
Pd0_4 Tb5_5 2.962544 1_555
Pd0_5 Tb6_5 2.842951 1_555
Pd0_5 Tb6_4 2.842951 1_556
Pd0_5 Tb2_5 2.960060 1_555
Pd0_5 Tb2_4 2.960060 1_556
Pd0_5 Tb5_5 2.962544 1_555
Pd0_5 Tb5_4 2.962544 1_556
Pd0_6 Tb6_7 2.842951 1_555
Pd0_6 Tb6_6 2.842951 1_555
Pd0_6 Tb2_6 2.960060 1_555
Pd0_6 Tb2_7 2.960060 1_555
Pd0_6 Tb5_6 2.962544 1_555
Pd0_6 Tb5_7 2.962544 1_555
Pd0_7 Tb6_7 2.842951 1_555
Pd0_7 Tb6_6 2.842951 1_556
Pd0_7 Tb2_7 2.960060 1_555
Pd0_7 Tb2_6 2.960060 1_556
Pd0_7 Tb5_7 2.962544 1_555
Pd0_7 Tb5_6 2.962544 1_556
Pd1_0 Tb7_1 2.842951 1_555
Pd1_0 Tb7_0 2.842951 1_555
Pd1_0 Tb3_0 2.960060 1_555
Pd1_0 Tb3_1 2.960060 1_555
Pd1_0 Tb4_1 2.962544 1_555
Pd1_0 Tb4_0 2.962544 1_555
Pd1_1 Tb7_1 2.842951 1_555
Pd1_1 Tb7_0 2.842951 1_556
Pd1_1 Tb3_1 2.960060 1_555
Pd1_1 Tb3_0 2.960060 1_556
Pd1_1 Tb4_1 2.962544 1_555
Pd1_1 Tb4_0 2.962544 1_556
Pd1_2 Tb7_3 2.842951 1_555
Pd1_2 Tb7_2 2.842951 1_555
Pd1_2 Tb3_2 2.960060 1_555
Pd1_2 Tb3_3 2.960060 1_555
Pd1_2 Tb4_2 2.962544 1_555
Pd1_2 Tb4_3 2.962544 1_555
Pd1_3 Tb7_3 2.842951 1_555
Pd1_3 Tb7_2 2.842951 1_556
Pd1_3 Tb3_3 2.960060 1_555
Pd1_3 Tb3_2 2.960060 1_556
Pd1_3 Tb4_3 2.962544 1_555
Pd1_3 Tb4_2 2.962544 1_556
Pd1_4 Tb7_4 2.842951 1_555
Pd1_4 Tb7_5 2.842951 1_555
Pd1_4 Tb3_4 2.960060 1_555
Pd1_4 Tb3_5 2.960060 1_555
Pd1_4 Tb4_5 2.962544 1_555
Pd1_4 Tb4_4 2.962544 1_555
Pd1_5 Tb7_5 2.842951 1_555
Pd1_5 Tb7_4 2.842951 1_556
Pd1_5 Tb3_5 2.960060 1_555
Pd1_5 Tb3_4 2.960060 1_556
Pd1_5 Tb4_5 2.962544 1_555
Pd1_5 Tb4_4 2.962544 1_556
Pd1_6 Tb7_6 2.842951 1_555
Pd1_6 Tb7_7 2.842951 1_555
Pd1_6 Tb3_6 2.960060 1_555
Pd1_6 Tb3_7 2.960060 1_555
Pd1_6 Tb4_7 2.962544 1_555
Pd1_6 Tb4_6 2.962544 1_555
Pd1_7 Tb7_7 2.842951 1_555
Pd1_7 Tb7_6 2.842951 1_556
Pd1_7 Tb3_7 2.960060 1_555
Pd1_7 Tb3_6 2.960060 1_556
Pd1_7 Tb4_7 2.962544 1_555
Pd1_7 Tb4_6 2.962544 1_556
Pd2_0 Tb8_0 2.842951 1_555
Pd2_0 Tb8_1 2.842951 1_555
Pd2_0 Tb4_1 2.960060 1_555
Pd2_0 Tb4_0 2.960060 1_555
Pd2_0 Tb3_4 2.962544 1_555
Pd2_0 Tb3_5 2.962544 1_555
Pd2_1 Tb8_1 2.842951 1_555
Pd2_1 Tb8_0 2.842951 1_556
Pd2_1 Tb4_1 2.960060 1_555
Pd2_1 Tb4_0 2.960060 1_556
Pd2_1 Tb3_5 2.962544 1_555
Pd2_1 Tb3_4 2.962544 1_556
Pd2_2 Tb8_3 2.842951 1_555
Pd2_2 Tb8_2 2.842951 1_555
Pd2_2 Tb4_2 2.960060 1_555
Pd2_2 Tb4_3 2.960060 1_555
Pd2_2 Tb3_6 2.962544 1_555
Pd2_2 Tb3_7 2.962544 1_555
Pd2_3 Tb8_3 2.842951 1_555
Pd2_3 Tb8_2 2.842951 1_556
Pd2_3 Tb4_3 2.960060 1_555
Pd2_3 Tb4_2 2.960060 1_556
Pd2_3 Tb3_7 2.962544 1_555
Pd2_3 Tb3_6 2.962544 1_556
Pd2_4 Tb8_4 2.842951 1_555
Pd2_4 Tb8_5 2.842951 1_555
Pd2_4 Tb4_5 2.960060 1_555
Pd2_4 Tb4_4 2.960060 1_555
Pd2_4 Tb3_0 2.962544 1_655
Pd2_4 Tb3_1 2.962544 1_655
Pd2_5 Tb8_5 2.842951 1_555
Pd2_5 Tb8_4 2.842951 1_556
Pd2_5 Tb4_5 2.960060 1_555
Pd2_5 Tb4_4 2.960060 1_556
Pd2_5 Tb3_1 2.962544 1_655
Pd2_5 Tb3_0 2.962544 1_656
Pd2_6 Tb8_7 2.842951 1_555
Pd2_6 Tb8_6 2.842951 1_555
Pd2_6 Tb4_6 2.960060 1_555
Pd2_6 Tb4_7 2.960060 1_555
Pd2_6 Tb3_2 2.962544 1_655
Pd2_6 Tb3_3 2.962544 1_655
Pd2_7 Tb8_7 2.842951 1_555
Pd2_7 Tb8_6 2.842951 1_556
Pd2_7 Tb4_7 2.960060 1_555
Pd2_7 Tb4_6 2.960060 1_556
Pd2_7 Tb3_3 2.962544 1_655
Pd2_7 Tb3_2 2.962544 1_656
Pd3_0 Tb9_1 2.842951 1_555
Pd3_0 Tb9_0 2.842951 1_555
Pd3_0 Tb5_0 2.960060 1_555
Pd3_0 Tb5_1 2.960060 1_555
Pd3_0 Tb2_5 2.962544 1_455
Pd3_0 Tb2_4 2.962544 1_455
Pd3_1 Tb9_1 2.842951 1_555
Pd3_1 Tb9_0 2.842951 1_556
Pd3_1 Tb5_1 2.960060 1_555
Pd3_1 Tb5_0 2.960060 1_556
Pd3_1 Tb2_5 2.962544 1_455
Pd3_1 Tb2_4 2.962544 1_456
Pd3_2 Tb9_3 2.842951 1_555
Pd3_2 Tb9_2 2.842951 1_555
Pd3_2 Tb5_2 2.960060 1_555
Pd3_2 Tb5_3 2.960060 1_555
Pd3_2 Tb2_6 2.962544 1_455
Pd3_2 Tb2_7 2.962544 1_455
Pd3_3 Tb9_3 2.842951 1_555
Pd3_3 Tb9_2 2.842951 1_556
Pd3_3 Tb5_3 2.960060 1_555
Pd3_3 Tb5_2 2.960060 1_556
Pd3_3 Tb2_7 2.962544 1_455
Pd3_3 Tb2_6 2.962544 1_456
Pd3_4 Tb9_5 2.842951 1_555
Pd3_4 Tb9_4 2.842951 1_555
Pd3_4 Tb5_4 2.960060 1_555
Pd3_4 Tb5_5 2.960060 1_555
Pd3_4 Tb2_0 2.962544 1_555
Pd3_4 Tb2_1 2.962544 1_555
Pd3_5 Tb9_5 2.842951 1_555
Pd3_5 Tb9_4 2.842951 1_556
Pd3_5 Tb5_5 2.960060 1_555
Pd3_5 Tb5_4 2.960060 1_556
Pd3_5 Tb2_1 2.962544 1_555
Pd3_5 Tb2_0 2.962544 1_556
Pd3_6 Tb9_7 2.842951 1_555
Pd3_6 Tb9_6 2.842951 1_555
Pd3_6 Tb5_7 2.960060 1_555
Pd3_6 Tb5_6 2.960060 1_555
Pd3_6 Tb2_2 2.962544 1_555
Pd3_6 Tb2_3 2.962544 1_555
Pd3_7 Tb9_7 2.842951 1_555
Pd3_7 Tb9_6 2.842951 1_556
Pd3_7 Tb5_7 2.960060 1_555
Pd3_7 Tb5_6 2.960060 1_556
Pd3_7 Tb2_3 2.962544 1_555
Pd3_7 Tb2_2 2.962544 1_556
