# generated using pymatgen
data_YMn3O6
_symmetry_space_group_name_H-M   'P 1'
_cell_length_a   6.26592503
_cell_length_b   6.26592503
_cell_length_c   15.28700134
_cell_angle_alpha   86.11010572
_cell_angle_beta   86.11010572
_cell_angle_gamma   62.13760012
_symmetry_Int_Tables_number   1
_chemical_formula_structural   YMn3O6
_chemical_formula_sum   'Y4 Mn12 O24'
_cell_volume   528.94945877
_cell_formula_units_Z   4
loop_
 _symmetry_equiv_pos_site_id
 _symmetry_equiv_pos_as_xyz
  1  'x, y, z'
loop_
 _atom_site_type_symbol
 _atom_site_label
 _atom_site_symmetry_multiplicity
 _atom_site_fract_x
 _atom_site_fract_y
 _atom_site_fract_z
 _atom_site_occupancy
  Y  Y0  1  0.33046800  0.33046800  0.44092200  1
  Y  Y1  1  0.01346700  0.01346700  0.12825000  1
  Y  Y2  1  0.66953200  0.66953200  0.55907800  1
  Y  Y3  1  0.98653300  0.98653300  0.87175000  1
  Mn  Mn0  1  0.66178100  0.16655600  0.67158100  1
  Mn  Mn1  1  0.33821900  0.83344400  0.32841900  1
  Mn  Mn2  1  0.00000000  0.50000000  0.00000000  1
  Mn  Mn3  1  0.16816100  0.16816100  0.66543500  1
  Mn  Mn4  1  0.83183900  0.83183900  0.33456500  1
  Mn  Mn5  1  0.50000000  0.50000000  0.00000000  1
  Mn  Mn6  1  0.00000000  0.00000000  0.50000000  1
  Mn  Mn7  1  0.67310800  0.67310800  0.17189400  1
  Mn  Mn8  1  0.32689200  0.32689200  0.82810600  1
  Mn  Mn9  1  0.16655600  0.66178100  0.67158100  1
  Mn  Mn10  1  0.83344400  0.33821900  0.32841900  1
  Mn  Mn11  1  0.50000000  0.00000000  0.00000000  1
  O  O0  1  0.31395400  0.31395400  0.58369000  1
  O  O1  1  0.98756400  0.98756400  0.26417600  1
  O  O2  1  0.69382400  0.69382400  0.94403100  1
  O  O3  1  0.84589700  0.29155900  0.59194500  1
  O  O4  1  0.52965500  0.93810700  0.25290700  1
  O  O5  1  0.19076000  0.60611200  0.91028900  1
  O  O6  1  0.29155900  0.84589700  0.59194500  1
  O  O7  1  0.93810700  0.52965500  0.25290700  1
  O  O8  1  0.60611200  0.19076000  0.91028900  1
  O  O9  1  0.85089100  0.85089100  0.60810000  1
  O  O10  1  0.52966800  0.52966800  0.26620500  1
  O  O11  1  0.17539500  0.17539500  0.91038600  1
  O  O12  1  0.15410300  0.70844100  0.40805500  1
  O  O13  1  0.80924000  0.39388800  0.08971100  1
  O  O14  1  0.47034500  0.06189300  0.74709300  1
  O  O15  1  0.68604600  0.68604600  0.41631000  1
  O  O16  1  0.30617600  0.30617600  0.05596900  1
  O  O17  1  0.01243600  0.01243600  0.73582400  1
  O  O18  1  0.70844100  0.15410300  0.40805500  1
  O  O19  1  0.39388800  0.80924000  0.08971100  1
  O  O20  1  0.06189300  0.47034500  0.74709300  1
  O  O21  1  0.14910900  0.14910900  0.39190000  1
  O  O22  1  0.82460500  0.82460500  0.08961400  1
  O  O23  1  0.47033200  0.47033200  0.73379500  1
loop_
_geom_bond_atom_site_label_1
_geom_bond_atom_site_label_2
_geom_bond_distance
_geom_bond_site_symmetry_2
Mn0 O14 1.909497 1_555
Mn0 O23 1.980709 1_555
Mn0 O3 1.987750 1_555
Mn0 O9 2.042492 1_545
Mn0 O17 2.214833 1_655
Mn0 O0 2.399115 1_555
Mn1 O4 1.909497 1_555
Mn1 O10 1.980709 1_555
Mn1 O12 1.987750 1_555
Mn1 O21 2.042492 1_565
Mn1 O1 2.214833 1_455
Mn1 O15 2.399115 1_555
Mn2 O16 1.947173 1_555
Mn2 O2 1.947173 1_454
Mn2 O13 2.036732 1_455
Mn2 O5 2.036732 1_554
Mn2 O11 2.303454 1_554
Mn2 O22 2.303454 1_455
Mn3 O17 1.914967 1_555
Mn3 O0 1.923777 1_555
Mn3 O20 2.148557 1_555
Mn3 O14 2.148557 1_555
Mn3 O3 2.160565 1_455
Mn3 O6 2.160565 1_545
Mn4 O1 1.914967 1_555
Mn4 O15 1.923777 1_555
Mn4 O4 2.148557 1_555
Mn4 O7 2.148557 1_555
Mn4 O12 2.160565 1_655
Mn4 O18 2.160565 1_565
Mn5 O16 2.186022 1_555
Mn5 O2 2.186022 1_554
Mn5 O13 2.260542 1_555
Mn5 O19 2.260542 1_555
Mn5 O8 2.260542 1_554
Mn5 O5 2.260542 1_554
Mn6 O12 2.181951 1_545
Mn6 O18 2.181951 1_455
Mn6 O3 2.181951 1_455
Mn6 O6 2.181951 1_545
Mn6 O21 2.207635 1_555
Mn6 O9 2.207635 1_445
Mn7 O4 1.957485 1_555
Mn7 O7 1.957485 1_555
Mn7 O22 1.975497 1_555
Mn7 O10 2.024266 1_555
Mn7 O13 2.030979 1_555
Mn7 O19 2.030979 1_555
Mn8 O14 1.957485 1_555
Mn8 O20 1.957485 1_555
Mn8 O11 1.975497 1_555
Mn8 O23 2.024266 1_555
Mn8 O8 2.030979 1_555
Mn8 O5 2.030979 1_555
Mn9 O20 1.909497 1_555
Mn9 O23 1.980709 1_555
Mn9 O6 1.987750 1_555
Mn9 O9 2.042492 1_455
Mn9 O17 2.214833 1_565
Mn9 O0 2.399115 1_555
Mn10 O7 1.909497 1_555
Mn10 O10 1.980709 1_555
Mn10 O18 1.987750 1_555
Mn10 O21 2.042492 1_655
Mn10 O1 2.214833 1_545
Mn10 O15 2.399115 1_555
Mn11 O16 1.947173 1_555
Mn11 O2 1.947173 1_544
Mn11 O8 2.036732 1_554
Mn11 O19 2.036732 1_545
Mn11 O11 2.303454 1_554
Mn11 O22 2.303454 1_545
O0 Y0 2.175643 1_555
O1 Y1 2.074479 1_665
O3 Y2 2.133144 1_555
O5 Y3 2.174219 1_455
O6 Y2 2.133144 1_555
O8 Y3 2.174219 1_545
O9 Y2 2.140667 1_555
O11 Y3 2.155999 1_445
O12 Y0 2.133144 1_555
O13 Y1 2.174219 1_655
O15 Y2 2.175643 1_555
O17 Y3 2.074479 1_445
O18 Y0 2.133144 1_555
O19 Y1 2.174219 1_565
O21 Y0 2.140667 1_555
O22 Y1 2.155999 1_665
