# generated using pymatgen
data_InGa(AgTe2)2
_symmetry_space_group_name_H-M   'P 1'
_cell_length_a   6.50324700
_cell_length_b   6.50324700
_cell_length_c   7.80981870
_cell_angle_alpha   65.39559856
_cell_angle_beta   65.39559856
_cell_angle_gamma   90.00000000
_symmetry_Int_Tables_number   1
_chemical_formula_structural   InGa(AgTe2)2
_chemical_formula_sum   'In1 Ga1 Ag2 Te4'
_cell_volume   266.96799909
_cell_formula_units_Z   1
loop_
 _symmetry_equiv_pos_site_id
 _symmetry_equiv_pos_as_xyz
  1  'x, y, z'
loop_
 _atom_site_type_symbol
 _atom_site_label
 _atom_site_symmetry_multiplicity
 _atom_site_fract_x
 _atom_site_fract_y
 _atom_site_fract_z
 _atom_site_occupancy
  In  In0  1  0.50000000  0.50000000  0.00000000  1
  Ga  Ga0  1  0.25000000  0.75000000  0.50000000  1
  Ag  Ag0  1  0.75000000  0.25000000  0.50000000  1
  Ag  Ag1  1  0.00000000  0.00000000  0.00000000  1
  Te  Te0  1  0.36859200  0.87326500  0.73973500  1
  Te  Te1  1  0.89167300  0.38700100  0.73973500  1
  Te  Te2  1  0.12673500  0.10832700  0.26026500  1
  Te  Te3  1  0.61299900  0.63140800  0.26026500  1
loop_
_geom_bond_atom_site_label_1
_geom_bond_atom_site_label_2
_geom_bond_distance
_geom_bond_site_symmetry_2
In0 Te3 2.844664 1_555
In0 Te1 2.844664 1_554
In0 Te0 2.844667 1_554
In0 Te2 2.844668 1_555
Ga0 Te3 2.682351 1_555
Ga0 Te1 2.682351 1_455
Ga0 Te0 2.682355 1_555
Ga0 Te2 2.682355 1_565
Ag0 Te2 2.823746 1_655
Ag0 Te0 2.823746 1_545
Ag0 Te1 2.823750 1_555
Ag0 Te3 2.823750 1_555
Ag1 Te2 2.809715 1_555
Ag1 Te0 2.809715 1_544
Ag1 Te1 2.809719 1_454
Ag1 Te3 2.809720 1_445
