# generated using pymatgen
data_Sm3BeCrS7
_symmetry_space_group_name_H-M   'P 1'
_cell_length_a   9.79558795
_cell_length_b   9.79558795
_cell_length_c   5.99686500
_cell_angle_alpha   90.00000000
_cell_angle_beta   90.00000000
_cell_angle_gamma   119.99999969
_symmetry_Int_Tables_number   1
_chemical_formula_structural   Sm3BeCrS7
_chemical_formula_sum   'Sm6 Be2 Cr2 S14'
_cell_volume   498.32872551
_cell_formula_units_Z   2
loop_
 _symmetry_equiv_pos_site_id
 _symmetry_equiv_pos_as_xyz
  1  'x, y, z'
loop_
 _atom_site_type_symbol
 _atom_site_label
 _atom_site_symmetry_multiplicity
 _atom_site_fract_x
 _atom_site_fract_y
 _atom_site_fract_z
 _atom_site_occupancy
  Sm  Sm0  1  0.24818900  0.39071500  0.25700200  1
  Sm  Sm1  1  0.60928500  0.85747400  0.25700200  1
  Sm  Sm2  1  0.14252600  0.75181100  0.25700200  1
  Sm  Sm3  1  0.75181100  0.60928500  0.75700200  1
  Sm  Sm4  1  0.39071500  0.14252600  0.75700200  1
  Sm  Sm5  1  0.85747400  0.24818900  0.75700200  1
  Be  Be0  1  0.33333300  0.66666700  0.83966100  1
  Be  Be1  1  0.66666700  0.33333300  0.33966100  1
  Cr  Cr0  1  0.00000000  0.00000000  0.47930800  1
  Cr  Cr1  1  0.00000000  0.00000000  0.97930800  1
  S  S0  1  0.14193400  0.22307700  0.72132100  1
  S  S1  1  0.77692300  0.91885700  0.72132100  1
  S  S2  1  0.08114300  0.85806600  0.72132100  1
  S  S3  1  0.85806600  0.77692300  0.22132100  1
  S  S4  1  0.22307700  0.08114300  0.22132100  1
  S  S5  1  0.91885700  0.14193400  0.22132100  1
  S  S6  1  0.10666100  0.51960000  0.97435700  1
  S  S7  1  0.48040000  0.58706100  0.97435700  1
  S  S8  1  0.41293900  0.89333900  0.97435700  1
  S  S9  1  0.89333900  0.48040000  0.47435700  1
  S  S10  1  0.51960000  0.41293900  0.47435700  1
  S  S11  1  0.58706100  0.10666100  0.47435700  1
  S  S12  1  0.33333300  0.66666700  0.49096200  1
  S  S13  1  0.66666700  0.33333300  0.99096200  1
loop_
_geom_bond_atom_site_label_1
_geom_bond_atom_site_label_2
_geom_bond_distance
_geom_bond_site_symmetry_2
Be0 S12 2.091101 1_555
Be0 S8 2.111686 1_555
Be0 S6 2.111687 1_555
Be0 S7 2.111694 1_555
Be1 S13 2.091101 1_554
Be1 S11 2.111686 1_555
Be1 S9 2.111687 1_555
Be1 S10 2.111694 1_555
Cr0 S2 2.403374 1_545
Cr0 S1 2.403374 1_445
Cr0 S0 2.403374 1_555
Cr0 S5 2.462405 1_455
Cr0 S4 2.462405 1_555
Cr0 S3 2.462405 1_445
Cr1 S5 2.403374 1_456
Cr1 S4 2.403374 1_556
Cr1 S3 2.403374 1_446
Cr1 S2 2.462405 1_545
Cr1 S1 2.462405 1_445
Cr1 S0 2.462405 1_555
S0 Sm4 2.920616 1_555
S0 Sm5 2.925072 1_455
S0 Sm0 3.134312 1_555
S0 Sm0 3.519980 1_556
S1 Sm5 2.920616 1_565
S1 Sm3 2.925072 1_555
S1 Sm1 3.134312 1_555
S1 Sm1 3.519980 1_556
S2 Sm3 2.920616 1_455
S2 Sm4 2.925072 1_565
S2 Sm2 3.134312 1_555
S2 Sm2 3.519980 1_556
S3 Sm1 2.920616 1_555
S3 Sm2 2.925072 1_655
S3 Sm3 3.134312 1_554
S3 Sm3 3.519980 1_555
S4 Sm2 2.920616 1_545
S4 Sm0 2.925072 1_555
S4 Sm4 3.134312 1_554
S4 Sm4 3.519980 1_555
S5 Sm0 2.920616 1_655
S5 Sm1 2.925072 1_545
S5 Sm5 3.134312 1_554
S5 Sm5 3.519980 1_555
S6 Sm2 2.715009 1_556
S6 Sm0 2.852915 1_556
S6 Sm5 2.869827 1_455
S7 Sm0 2.715009 1_556
S7 Sm1 2.852915 1_556
S7 Sm3 2.869827 1_555
S8 Sm1 2.715009 1_556
S8 Sm2 2.852915 1_556
S8 Sm4 2.869827 1_565
S9 Sm5 2.715009 1_555
S9 Sm3 2.852915 1_555
S9 Sm2 2.869827 1_655
S10 Sm3 2.715009 1_555
S10 Sm4 2.852915 1_555
S10 Sm0 2.869827 1_555
S11 Sm4 2.715009 1_555
S11 Sm5 2.852915 1_555
S11 Sm1 2.869827 1_545
S12 Sm2 2.777837 1_555
S12 Sm1 2.777843 1_555
S12 Sm0 2.777845 1_555
S13 Sm5 2.777837 1_555
S13 Sm4 2.777843 1_555
S13 Sm3 2.777845 1_555
