# generated using pymatgen
data_SrSmMn4O12
_symmetry_space_group_name_H-M   'P 1'
_cell_length_a   5.36292073
_cell_length_b   5.36292073
_cell_length_c   7.58413440
_cell_angle_alpha   90.00000000
_cell_angle_beta   90.00000000
_cell_angle_gamma   90.00000000
_symmetry_Int_Tables_number   1
_chemical_formula_structural   SrSmMn4O12
_chemical_formula_sum   'Sr1 Sm1 Mn4 O12'
_cell_volume   218.12667331
_cell_formula_units_Z   1
loop_
 _symmetry_equiv_pos_site_id
 _symmetry_equiv_pos_as_xyz
  1  'x, y, z'
loop_
 _atom_site_type_symbol
 _atom_site_label
 _atom_site_symmetry_multiplicity
 _atom_site_fract_x
 _atom_site_fract_y
 _atom_site_fract_z
 _atom_site_occupancy
  Sr  Sr0  1  0.00000000  -0.00000000  0.50000000  1
  Sm  Sm0  1  0.50000000  0.50000000  -0.00000000  1
  Mn  Mn0  1  -0.00000000  0.50000000  0.74809378  1
  Mn  Mn1  1  0.00000000  0.50000000  0.25190622  1
  Mn  Mn2  1  0.50000000  0.00000000  0.74809378  1
  Mn  Mn3  1  0.50000000  -0.00000000  0.25190622  1
  O  O0  1  0.25817456  0.25817456  0.76206677  1
  O  O1  1  0.25817456  0.25817456  0.23793323  1
  O  O2  1  0.74182544  0.74182544  0.76206677  1
  O  O3  1  0.74182544  0.74182544  0.23793323  1
  O  O4  1  0.74182544  0.25817456  0.76206677  1
  O  O5  1  0.74182544  0.25817456  0.23793323  1
  O  O6  1  0.25817456  0.74182544  0.76206677  1
  O  O7  1  0.25817456  0.74182544  0.23793323  1
  O  O8  1  -0.00000000  0.50000000  0.50000000  1
  O  O9  1  -0.00000000  0.50000000  0.00000000  1
  O  O10  1  0.50000000  0.00000000  0.50000000  1
  O  O11  1  0.50000000  0.00000000  -0.00000000  1
loop_
_geom_bond_atom_site_label_1
_geom_bond_atom_site_label_2
_geom_bond_distance
_geom_bond_site_symmetry_2
Mn0 O8 1.881577 1_555
Mn0 O2 1.900050 1_455
Mn0 O4 1.900050 1_455
Mn0 O0 1.900050 1_555
Mn0 O6 1.900050 1_555
Mn0 O9 1.910491 1_556
Mn1 O8 1.881577 1_555
Mn1 O5 1.900050 1_455
Mn1 O3 1.900050 1_455
Mn1 O1 1.900050 1_555
Mn1 O7 1.900050 1_555
Mn1 O9 1.910491 1_555
Mn2 O10 1.881577 1_555
Mn2 O6 1.900050 1_545
Mn2 O2 1.900050 1_545
Mn2 O0 1.900050 1_555
Mn2 O4 1.900050 1_555
Mn2 O11 1.910491 1_556
Mn3 O10 1.881577 1_555
Mn3 O3 1.900050 1_545
Mn3 O7 1.900050 1_545
Mn3 O1 1.900050 1_555
Mn3 O5 1.900050 1_555
Mn3 O11 1.910491 1_555
O0 Sm0 2.572962 1_556
O0 Sr0 2.790057 1_555
O1 Sm0 2.572962 1_555
O1 Sr0 2.790057 1_555
O2 Sm0 2.572962 1_556
O2 Sr0 2.790057 1_665
O3 Sm0 2.572962 1_555
O3 Sr0 2.790057 1_665
O4 Sm0 2.572962 1_556
O4 Sr0 2.790057 1_655
O5 Sm0 2.572962 1_555
O5 Sr0 2.790057 1_655
O6 Sm0 2.572962 1_556
O6 Sr0 2.790057 1_565
O7 Sm0 2.572962 1_555
O7 Sr0 2.790057 1_565
O8 Sr0 2.681460 1_565
O8 Sr0 2.681460 1_555
O9 Sm0 2.681460 1_555
O9 Sm0 2.681460 1_455
O10 Sr0 2.681460 1_655
O10 Sr0 2.681460 1_555
O11 Sm0 2.681460 1_555
O11 Sm0 2.681460 1_545
