# generated using pymatgen
data_TbBeCu4
_symmetry_space_group_name_H-M   'P 1'
_cell_length_a   5.07145487
_cell_length_b   5.07145487
_cell_length_c   3.87151200
_cell_angle_alpha   90.00000000
_cell_angle_beta   90.00000000
_cell_angle_gamma   120.00001132
_symmetry_Int_Tables_number   1
_chemical_formula_structural   TbBeCu4
_chemical_formula_sum   'Tb1 Be1 Cu4'
_cell_volume   86.23356123
_cell_formula_units_Z   1
loop_
 _symmetry_equiv_pos_site_id
 _symmetry_equiv_pos_as_xyz
  1  'x, y, z'
loop_
 _atom_site_type_symbol
 _atom_site_label
 _atom_site_symmetry_multiplicity
 _atom_site_fract_x
 _atom_site_fract_y
 _atom_site_fract_z
 _atom_site_occupancy
  Tb  Tb0  1  0.33333300  0.66666700  0.00000000  1
  Be  Be0  1  0.66666700  0.33333300  0.00000000  1
  Cu  Cu0  1  0.00000000  0.00000000  0.00000000  1
  Cu  Cu1  1  0.34236200  0.17118100  0.50000000  1
  Cu  Cu2  1  0.82881900  0.17118100  0.50000000  1
  Cu  Cu3  1  0.82881900  0.65763800  0.50000000  1
loop_
_geom_bond_atom_site_label_1
_geom_bond_atom_site_label_2
_geom_bond_distance
_geom_bond_site_symmetry_2
Be0 Cu2 2.403313 1_555
Be0 Cu2 2.403313 1_554
Be0 Cu1 2.403315 1_555
Be0 Cu3 2.403315 1_554
Be0 Cu1 2.403315 1_554
Be0 Cu3 2.403315 1_555
Be0 Tb0 2.928003 1_545
Be0 Tb0 2.928003 1_655
Be0 Cu0 2.928003 1_655
Be0 Cu0 2.928007 1_555
Be0 Cu0 2.928007 1_665
Be0 Tb0 2.928012 1_555
Cu0 Cu1 2.451150 1_554
Cu0 Cu1 2.451150 1_555
Cu0 Cu3 2.451150 1_445
Cu0 Cu3 2.451150 1_444
Cu0 Cu2 2.451150 1_455
Cu0 Cu2 2.451150 1_454
Cu0 Tb0 2.928003 1_545
Cu0 Tb0 2.928007 1_555
Cu0 Tb0 2.928007 1_445
Cu1 Cu3 2.467044 1_555
Cu1 Cu2 2.467045 1_555
Cu1 Cu3 2.604410 1_445
Cu1 Cu2 2.604410 1_455
Cu1 Tb0 3.190396 1_546
Cu1 Tb0 3.190396 1_545
Cu1 Tb0 3.190400 1_555
Cu1 Tb0 3.190400 1_556
Cu2 Cu3 2.467045 1_555
Cu2 Cu3 2.604410 1_545
Cu2 Tb0 3.190397 1_545
Cu2 Tb0 3.190397 1_546
Cu2 Tb0 3.190397 1_656
Cu2 Tb0 3.190397 1_655
Cu3 Tb0 3.190396 1_656
Cu3 Tb0 3.190396 1_655
Cu3 Tb0 3.190400 1_555
Cu3 Tb0 3.190400 1_556
