# generated using pymatgen
data_CsCr(SO4)2
_symmetry_space_group_name_H-M   'P 1'
_cell_length_a   5.12121314
_cell_length_b   5.12112504
_cell_length_c   17.78481112
_cell_angle_alpha   89.98693918
_cell_angle_beta   89.99469572
_cell_angle_gamma   59.99509576
_symmetry_Int_Tables_number   1
_chemical_formula_structural   CsCr(SO4)2
_chemical_formula_sum   'Cs2 Cr2 S4 O16'
_cell_volume   403.92119643
_cell_formula_units_Z   2
loop_
 _symmetry_equiv_pos_site_id
 _symmetry_equiv_pos_as_xyz
  1  'x, y, z'
loop_
 _atom_site_type_symbol
 _atom_site_label
 _atom_site_symmetry_multiplicity
 _atom_site_fract_x
 _atom_site_fract_y
 _atom_site_fract_z
 _atom_site_occupancy
  Cs  Cs0  1  0.00038400  0.99949300  0.25003500  1
  Cs  Cs1  1  0.00039100  0.99974900  0.74993700  1
  Cr  Cr0  1  0.99998700  0.99989100  0.50002600  1
  Cr  Cr1  1  0.00035800  0.00002000  0.99988300  1
  S  S0  1  0.33323100  0.33340200  0.40312100  1
  S  S1  1  0.33337700  0.33340700  0.90306500  1
  S  S2  1  0.66668600  0.66663300  0.09690700  1
  S  S3  1  0.66658800  0.66666800  0.59696000  1
  O  O0  1  0.33309700  0.33372300  0.32089600  1
  O  O1  1  0.33364400  0.33316000  0.82084200  1
  O  O2  1  0.66677600  0.66632800  0.17913600  1
  O  O3  1  0.66633700  0.66686700  0.67918200  1
  O  O4  1  0.64741700  0.21859100  0.43031100  1
  O  O5  1  0.64730800  0.21879000  0.93033100  1
  O  O6  1  0.21855000  0.13392700  0.43030700  1
  O  O7  1  0.21863300  0.13404800  0.93026300  1
  O  O8  1  0.86591600  0.78157100  0.06969000  1
  O  O9  1  0.86607500  0.78130800  0.56974700  1
  O  O10  1  0.13387000  0.64751700  0.43031600  1
  O  O11  1  0.13380700  0.64757000  0.93022600  1
  O  O12  1  0.35246300  0.86613100  0.06969600  1
  O  O13  1  0.35250400  0.86610600  0.56970800  1
  O  O14  1  0.78129700  0.35257300  0.06966000  1
  O  O15  1  0.78130200  0.35252700  0.56975500  1
loop_
_geom_bond_atom_site_label_1
_geom_bond_atom_site_label_2
_geom_bond_distance
_geom_bond_site_symmetry_2
Cs0 O0 3.210028 1_555
Cs0 O2 3.213149 1_555
Cs0 O2 3.214637 1_465
Cs0 O2 3.215068 1_455
Cs0 O0 3.215498 1_565
Cs0 O0 3.216537 1_465
Cs0 O10 3.572377 1_555
Cs0 O6 3.573842 1_565
Cs0 O12 3.573872 1_555
Cs0 O8 3.574605 1_455
Cs0 O4 3.574641 1_465
Cs0 O14 3.576053 1_465
Cs1 O3 3.210325 1_555
Cs1 O1 3.213676 1_555
Cs1 O1 3.214639 1_465
Cs1 O1 3.214665 1_565
Cs1 O3 3.214730 1_455
Cs1 O3 3.214790 1_465
Cs1 O13 3.572100 1_555
Cs1 O15 3.572436 1_465
Cs1 O9 3.572947 1_455
Cs1 O11 3.572951 1_555
Cs1 O7 3.574621 1_565
Cs1 O5 3.576712 1_465
Cr0 O10 2.006730 1_655
Cr0 O13 2.006826 1_655
Cr0 O9 2.006957 1_555
Cr0 O4 2.007246 1_565
Cr0 O6 2.007298 1_665
Cr0 O15 2.007828 1_565
Cr1 O7 2.005110 1_555
Cr1 O12 2.006672 1_546
Cr1 O11 2.006673 1_545
Cr1 O5 2.007023 1_455
Cr1 O14 2.008301 1_456
Cr1 O8 2.009087 1_446
O0 S0 1.462356 1_555
O1 S1 1.462321 1_555
O2 S2 1.462428 1_555
O3 S3 1.462303 1_555
O4 S0 1.490737 1_555
O5 S1 1.490169 1_555
O6 S0 1.490638 1_555
O7 S1 1.490420 1_555
O8 S2 1.490707 1_555
O9 S3 1.490720 1_555
O10 S0 1.490515 1_555
O11 S1 1.490656 1_555
O12 S2 1.491019 1_555
O13 S3 1.490687 1_555
O14 S2 1.490717 1_555
O15 S3 1.490764 1_555
