# generated using pymatgen
data_In2Bi
_symmetry_space_group_name_H-M   'P 1'
_cell_length_a   15.67982582
_cell_length_b   15.43778561
_cell_length_c   6.87889565
_cell_angle_alpha   79.20285449
_cell_angle_beta   75.26970701
_cell_angle_gamma   25.52743850
_symmetry_Int_Tables_number   1
_chemical_formula_structural   In2Bi
_chemical_formula_sum   'In16 Bi8'
_cell_volume   690.43507755
_cell_formula_units_Z   8
loop_
 _symmetry_equiv_pos_site_id
 _symmetry_equiv_pos_as_xyz
  1  'x, y, z'
loop_
 _atom_site_type_symbol
 _atom_site_label
 _atom_site_symmetry_multiplicity
 _atom_site_fract_x
 _atom_site_fract_y
 _atom_site_fract_z
 _atom_site_occupancy
  In  In0_0  1  0.16484935  0.16484935  0.33515065  1
  In  In0_1  1  0.16484935  0.16484935  0.83515065  1
  In  In0_2  1  0.16484935  0.66484935  0.33515066  1
  In  In0_3  1  0.16484935  0.66484934  0.83515065  1
  In  In0_4  1  0.66484935  0.16484935  0.33515066  1
  In  In0_5  1  0.66484935  0.16484935  0.83515065  1
  In  In0_6  1  0.66484935  0.66484935  0.33515066  1
  In  In0_7  1  0.66484935  0.66484934  0.83515065  1
  In  In1_0  1  0.33515066  0.33515066  0.16484934  1
  In  In1_1  1  0.33515066  0.33515066  0.66484934  1
  In  In1_2  1  0.33515066  0.83515066  0.16484934  1
  In  In1_3  1  0.33515066  0.83515065  0.66484934  1
  In  In1_4  1  0.83515066  0.33515066  0.16484934  1
  In  In1_5  1  0.83515066  0.33515066  0.66484934  1
  In  In1_6  1  0.83515066  0.83515066  0.16484934  1
  In  In1_7  1  0.83515066  0.83515065  0.66484934  1
  Bi  Bi0_0  1  0.00000000  0.00000000  0.00000000  1
  Bi  Bi0_1  1  0.00000000  0.00000000  0.50000000  1
  Bi  Bi0_2  1  0.00000000  0.50000000  0.00000000  1
  Bi  Bi0_3  1  0.00000000  0.50000000  0.50000000  1
  Bi  Bi0_4  1  0.50000000  0.00000000  0.00000000  1
  Bi  Bi0_5  1  0.50000000  0.00000000  0.50000000  1
  Bi  Bi0_6  1  0.50000000  0.50000000  0.00000000  1
  Bi  Bi0_7  1  0.50000000  0.50000000  0.50000000  1
loop_
_geom_bond_atom_site_label_1
_geom_bond_atom_site_label_2
_geom_bond_distance
_geom_bond_site_symmetry_2
In0_0 In1_5 3.243954 1_455
In0_0 In1_2 3.243954 1_545
In0_0 In0_1 3.439448 1_555
In0_0 In0_6 3.439448 1_455
In0_0 In0_1 3.439448 1_554
In0_0 In0_6 3.439448 1_545
In0_0 In1_4 3.522239 1_455
In0_0 In1_3 3.522239 1_545
In0_1 In1_4 3.243954 1_456
In0_1 In1_3 3.243954 1_545
In0_1 In0_7 3.439448 1_455
In0_1 In0_7 3.439448 1_545
In0_1 In1_2 3.522239 1_546
In0_1 In1_5 3.522239 1_455
In0_2 In1_7 3.243954 1_455
In0_2 In1_0 3.243954 1_555
In0_2 In0_4 3.439448 1_465
In0_2 In0_3 3.439448 1_554
In0_2 In0_3 3.439448 1_555
In0_2 In0_4 3.439448 1_555
In0_2 In1_6 3.522239 1_455
In0_2 In1_1 3.522239 1_555
In0_3 In1_6 3.243954 1_456
In0_3 In1_1 3.243954 1_555
In0_3 In0_5 3.439448 1_555
In0_3 In0_5 3.439448 1_465
In0_3 In1_0 3.522239 1_556
In0_3 In1_7 3.522239 1_455
In0_4 In1_6 3.243954 1_545
In0_4 In1_1 3.243954 1_555
In0_4 In0_5 3.439448 1_555
In0_4 In0_5 3.439448 1_554
In0_4 In1_7 3.522239 1_545
In0_4 In1_0 3.522239 1_555
In0_5 In1_7 3.243954 1_545
In0_5 In1_0 3.243954 1_556
In0_5 In1_6 3.522239 1_546
In0_5 In1_1 3.522239 1_555
In0_6 In1_3 3.243954 1_555
In0_6 In1_4 3.243954 1_555
In0_6 In0_7 3.439448 1_554
In0_6 In0_7 3.439448 1_555
In0_6 In1_5 3.522239 1_555
In0_6 In1_2 3.522239 1_555
In0_7 In1_5 3.243954 1_555
In0_7 In1_2 3.243954 1_556
In0_7 In1_4 3.522239 1_556
In0_7 In1_3 3.522239 1_555
In1_0 In1_6 3.439448 1_455
In1_0 In1_1 3.439448 1_555
In1_0 In1_6 3.439448 1_545
In1_0 In1_1 3.439448 1_554
In1_1 In1_7 3.439448 1_455
In1_1 In1_7 3.439448 1_545
In1_2 In1_4 3.439448 1_465
In1_2 In1_3 3.439448 1_555
In1_2 In1_4 3.439448 1_555
In1_2 In1_3 3.439448 1_554
In1_3 In1_5 3.439448 1_555
In1_3 In1_5 3.439448 1_465
In1_4 In1_5 3.439448 1_555
In1_4 In1_5 3.439448 1_554
In1_6 In1_7 3.439448 1_555
In1_6 In1_7 3.439448 1_554
Bi0_0 In0_4 3.362812 1_455
Bi0_0 In0_3 3.362812 1_544
Bi0_0 In1_4 3.362812 1_455
Bi0_0 In1_3 3.362812 1_544
Bi0_0 Bi0_1 3.439448 1_555
Bi0_0 Bi0_6 3.439448 1_455
Bi0_0 Bi0_6 3.439448 1_545
Bi0_0 Bi0_1 3.439448 1_554
Bi0_0 In0_5 3.632001 1_454
Bi0_0 In0_2 3.632001 1_545
Bi0_0 In1_5 3.632001 1_454
Bi0_0 In1_2 3.632001 1_545
Bi0_1 In0_2 3.362812 1_545
Bi0_1 In0_5 3.362812 1_455
Bi0_1 In1_5 3.362812 1_455
Bi0_1 In1_2 3.362812 1_545
Bi0_1 Bi0_7 3.439448 1_455
Bi0_1 Bi0_7 3.439448 1_545
Bi0_1 In0_4 3.632001 1_455
Bi0_1 In0_3 3.632001 1_545
Bi0_1 In1_4 3.632001 1_455
Bi0_1 In1_3 3.632001 1_545
Bi0_2 In0_1 3.362812 1_554
Bi0_2 In0_6 3.362812 1_455
Bi0_2 In1_1 3.362812 1_554
Bi0_2 In1_6 3.362812 1_455
Bi0_2 Bi0_4 3.439448 1_465
Bi0_2 Bi0_3 3.439448 1_554
Bi0_2 Bi0_3 3.439448 1_555
Bi0_2 Bi0_4 3.439448 1_555
Bi0_2 In0_7 3.632001 1_454
Bi0_2 In0_0 3.632001 1_555
Bi0_2 In1_0 3.632001 1_555
Bi0_2 In1_7 3.632001 1_454
Bi0_3 In0_0 3.362812 1_555
Bi0_3 In0_7 3.362812 1_455
Bi0_3 In1_0 3.362812 1_555
Bi0_3 In1_7 3.362812 1_455
Bi0_3 Bi0_5 3.439448 1_555
Bi0_3 Bi0_5 3.439448 1_465
Bi0_3 In0_6 3.632001 1_455
Bi0_3 In0_1 3.632001 1_555
Bi0_3 In1_1 3.632001 1_555
Bi0_3 In1_6 3.632001 1_455
Bi0_4 In0_7 3.362812 1_544
Bi0_4 In0_0 3.362812 1_555
Bi0_4 In1_0 3.362812 1_555
Bi0_4 In1_7 3.362812 1_544
Bi0_4 Bi0_5 3.439448 1_555
Bi0_4 Bi0_5 3.439448 1_554
Bi0_4 In0_1 3.632001 1_554
Bi0_4 In0_6 3.632001 1_545
Bi0_4 In1_1 3.632001 1_554
Bi0_4 In1_6 3.632001 1_545
Bi0_5 In0_6 3.362812 1_545
Bi0_5 In0_1 3.362812 1_555
Bi0_5 In1_1 3.362812 1_555
Bi0_5 In1_6 3.362812 1_545
Bi0_5 In0_0 3.632001 1_555
Bi0_5 In0_7 3.632001 1_545
Bi0_5 In1_0 3.632001 1_555
Bi0_5 In1_7 3.632001 1_545
Bi0_6 In0_5 3.362812 1_554
Bi0_6 In0_2 3.362812 1_555
Bi0_6 In1_2 3.362812 1_555
Bi0_6 In1_5 3.362812 1_554
Bi0_6 Bi0_7 3.439448 1_554
Bi0_6 Bi0_7 3.439448 1_555
Bi0_6 In0_3 3.632001 1_554
Bi0_6 In0_4 3.632001 1_555
Bi0_6 In1_3 3.632001 1_554
Bi0_6 In1_4 3.632001 1_555
Bi0_7 In0_3 3.362812 1_555
Bi0_7 In0_4 3.362812 1_555
Bi0_7 In1_3 3.362812 1_555
Bi0_7 In1_4 3.362812 1_555
Bi0_7 In0_2 3.632001 1_555
Bi0_7 In0_5 3.632001 1_555
Bi0_7 In1_5 3.632001 1_555
Bi0_7 In1_2 3.632001 1_555
