# generated using pymatgen
data_ZrO2
_symmetry_space_group_name_H-M   'P 1'
_cell_length_a   10.43735438
_cell_length_b   9.98600192
_cell_length_c   11.27159837
_cell_angle_alpha   91.07085305
_cell_angle_beta   95.43611825
_cell_angle_gamma   93.91097622
_symmetry_Int_Tables_number   1
_chemical_formula_structural   ZrO2
_chemical_formula_sum   'Zr30 O60'
_cell_volume   1166.42835247
_cell_formula_units_Z   30
loop_
 _symmetry_equiv_pos_site_id
 _symmetry_equiv_pos_as_xyz
  1  'x, y, z'
loop_
 _atom_site_type_symbol
 _atom_site_label
 _atom_site_symmetry_multiplicity
 _atom_site_fract_x
 _atom_site_fract_y
 _atom_site_fract_z
 _atom_site_occupancy
  Zr  Zr0  1  0.20248100  0.85593000  0.56625000  1
  Zr  Zr1  1  0.37784900  0.20509200  0.61969700  1
  Zr  Zr2  1  0.08334600  0.78923300  0.28848600  1
  Zr  Zr3  1  0.57491200  0.72424000  0.69239300  1
  Zr  Zr4  1  0.53161800  0.96292400  0.47683800  1
  Zr  Zr5  1  0.03737300  0.37528000  0.92145500  1
  Zr  Zr6  1  0.41129700  0.91745200  0.13575200  1
  Zr  Zr7  1  0.80569200  0.00151300  0.60568100  1
  Zr  Zr8  1  0.80483300  0.21462200  0.07219800  1
  Zr  Zr9  1  0.95938500  0.38073800  0.62186200  1
  Zr  Zr10  1  0.10539500  0.08413100  0.74872900  1
  Zr  Zr11  1  0.28944700  0.51621500  0.10627100  1
  Zr  Zr12  1  0.72550900  0.90734000  0.24925400  1
  Zr  Zr13  1  0.08023900  0.15585000  0.41790600  1
  Zr  Zr14  1  0.62523800  0.02597400  0.85990500  1
  Zr  Zr15  1  0.75707300  0.25918400  0.38490900  1
  Zr  Zr16  1  0.55177000  0.67449800  0.98560200  1
  Zr  Zr17  1  0.41048500  0.29407600  0.91632100  1
  Zr  Zr18  1  0.11353100  0.49743500  0.40599400  1
  Zr  Zr19  1  0.60975300  0.40518800  0.70334000  1
  Zr  Zr20  1  0.95600300  0.70899100  0.71141400  1
  Zr  Zr21  1  0.90221000  0.55570500  0.11058300  1
  Zr  Zr22  1  0.26918800  0.86813900  0.87861800  1
  Zr  Zr23  1  0.25327800  0.54708500  0.75339900  1
  Zr  Zr24  1  0.73611700  0.66162800  0.47112900  1
  Zr  Zr25  1  0.91875300  0.87409300  0.96758600  1
  Zr  Zr26  1  0.18139100  0.12629600  0.09626400  1
  Zr  Zr27  1  0.41640100  0.70089600  0.33345900  1
  Zr  Zr28  1  0.38977000  0.27036100  0.31364100  1
  Zr  Zr29  1  0.62447800  0.48366000  0.22447100  1
  O  O0  1  0.47703300  0.45151900  0.04362900  1
  O  O1  1  0.70945600  0.60384000  0.08445000  1
  O  O2  1  0.87045100  0.71493200  0.86476600  1
  O  O3  1  0.27831300  0.98450700  0.71965700  1
  O  O4  1  0.54869300  0.72898000  0.49209300  1
  O  O5  1  0.71975900  0.46433800  0.39987200  1
  O  O6  1  0.77860600  0.11900900  0.24743200  1
  O  O7  1  0.24857400  0.16359000  0.90854700  1
  O  O8  1  0.00556300  0.19714900  0.01679100  1
  O  O9  1  0.37094200  0.10583300  0.19050300  1
  O  O10  1  0.43967100  0.48471500  0.28959700  1
  O  O11  1  0.61614700  0.81499900  0.86326000  1
  O  O12  1  0.85878600  0.39799300  0.97653800  1
  O  O13  1  0.11534800  0.95449500  0.42637300  1
  O  O14  1  0.06628900  0.93572500  0.87284200  1
  O  O15  1  0.27065600  0.31665600  0.14829200  1
  O  O16  1  0.24436300  0.42981400  0.92046000  1
  O  O17  1  0.79928000  0.04147600  0.78405400  1
  O  O18  1  0.78196000  0.34232200  0.67043000  1
  O  O19  1  0.58263600  0.55693400  0.82933100  1
  O  O20  1  0.12376400  0.69994100  0.45990300  1
  O  O21  1  0.08735500  0.51245600  0.06460900  1
  O  O22  1  0.90224800  0.85799000  0.27536300  1
  O  O23  1  0.22470500  0.92806000  0.04751200  1
  O  O24  1  0.91990800  0.15129100  0.52624100  1
  O  O25  1  0.00581500  0.92733800  0.64214800  1
  O  O26  1  0.62648300  0.20128900  0.98049100  1
  O  O27  1  0.43885500  0.96442200  0.94318800  1
  O  O28  1  0.51354200  0.18740600  0.77042200  1
  O  O29  1  0.42164100  0.68756900  0.14057300  1
  O  O30  1  0.33696200  0.68271000  0.91723700  1
  O  O31  1  0.23007600  0.58446900  0.28184800  1
  O  O32  1  0.58191400  0.94415600  0.65995200  1
  O  O33  1  0.64640300  0.67976700  0.29650400  1
  O  O34  1  0.15659100  0.46984600  0.59209300  1
  O  O35  1  0.02690300  0.51569300  0.77984800  1
  O  O36  1  0.48799000  0.35055300  0.55556800  1
  O  O37  1  0.60108000  0.85565200  0.09731400  1
  O  O38  1  0.21684400  0.31726600  0.39163100  1
  O  O39  1  0.08555800  0.11035100  0.23989500  1
  O  O40  1  0.99130000  0.75662100  0.09595800  1
  O  O41  1  0.38578500  0.66894200  0.67885900  1
  O  O42  1  0.27488200  0.83312900  0.25354000  1
  O  O43  1  0.37546000  0.37641200  0.75164400  1
  O  O44  1  0.57877000  0.27759100  0.28362400  1
  O  O45  1  0.17951500  0.17331300  0.59518200  1
  O  O46  1  0.73365000  0.89860900  0.43993200  1
  O  O47  1  0.79166500  0.00647300  0.01871600  1
  O  O48  1  0.35813500  0.84740000  0.48077200  1
  O  O49  1  0.96416000  0.34923300  0.42097400  1
  O  O50  1  0.91151300  0.58019000  0.56648400  1
  O  O51  1  0.52044900  0.90424500  0.30035700  1
  O  O52  1  0.15918900  0.73826000  0.72748900  1
  O  O53  1  0.66841900  0.13241800  0.49979700  1
  O  O54  1  0.78574500  0.78975400  0.63607900  1
  O  O55  1  0.02348400  0.25757800  0.76277500  1
  O  O56  1  0.97409700  0.58932700  0.28381400  1
  O  O57  1  0.66015800  0.56646400  0.61621900  1
  O  O58  1  0.79512100  0.37918200  0.19248700  1
  O  O59  1  0.39835300  0.11871000  0.45428400  1
loop_
_geom_bond_atom_site_label_1
_geom_bond_atom_site_label_2
_geom_bond_distance
_geom_bond_site_symmetry_2
O0 Zr17 2.142737 1_554
O0 Zr11 2.273046 1_555
O0 Zr16 2.430740 1_554
O0 Zr29 2.437238 1_555
O1 Zr16 2.070831 1_554
O1 Zr21 2.095292 1_555
O1 Zr29 2.215555 1_555
O2 Zr25 1.958212 1_555
O2 Zr20 2.021010 1_555
O3 Zr22 2.159824 1_555
O3 Zr10 2.167769 1_565
O3 Zr0 2.187244 1_555
O3 Zr1 2.683898 1_565
O4 Zr24 2.143847 1_555
O4 Zr27 2.154762 1_555
O4 Zr3 2.250120 1_555
O4 Zr4 2.363260 1_555
O5 Zr24 2.103493 1_555
O5 Zr15 2.117908 1_555
O5 Zr29 2.145426 1_555
O6 Zr15 2.106884 1_555
O6 Zr12 2.149273 1_545
O6 Zr8 2.241679 1_555
O7 Zr17 2.056381 1_555
O7 Zr26 2.319967 1_556
O7 Zr10 2.320060 1_555
O8 Zr5 2.118406 1_554
O8 Zr26 2.135478 1_555
O8 Zr8 2.259112 1_455
O9 Zr6 2.052076 1_545
O9 Zr28 2.117421 1_555
O9 Zr26 2.179282 1_555
O10 Zr29 2.128469 1_555
O10 Zr28 2.196127 1_555
O10 Zr27 2.240122 1_555
O10 Zr11 2.510975 1_555
O11 Zr14 2.103667 1_565
O11 Zr3 2.107226 1_555
O11 Zr16 2.107345 1_555
O12 Zr5 2.045242 1_655
O12 Zr21 2.156972 1_556
O12 Zr8 2.209294 1_556
O13 Zr0 2.046970 1_555
O13 Zr13 2.070625 1_565
O13 Zr2 2.231863 1_555
O14 Zr25 2.024190 1_455
O14 Zr10 2.103117 1_565
O14 Zr22 2.261640 1_555
O15 Zr11 2.057573 1_555
O15 Zr26 2.106828 1_555
O15 Zr28 2.214610 1_555
O16 Zr5 2.192821 1_555
O16 Zr23 2.242025 1_555
O16 Zr11 2.245585 1_556
O16 Zr17 2.275827 1_555
O17 Zr7 2.050656 1_555
O17 Zr14 2.077398 1_555
O18 Zr9 1.994798 1_555
O18 Zr19 2.008445 1_555
O19 Zr19 2.108866 1_555
O19 Zr16 2.160204 1_555
O19 Zr3 2.295954 1_555
O20 Zr0 2.026667 1_555
O20 Zr18 2.093404 1_555
O20 Zr2 2.160437 1_555
O21 Zr5 2.100629 1_554
O21 Zr11 2.114702 1_555
O21 Zr21 2.117672 1_455
O22 Zr12 1.938791 1_555
O22 Zr2 2.047917 1_655
O23 Zr22 2.088178 1_554
O23 Zr6 2.111491 1_555
O23 Zr26 2.133915 1_565
O24 Zr7 2.114013 1_555
O24 Zr13 2.161576 1_655
O24 Zr9 2.505207 1_555
O24 Zr15 2.527466 1_555
O25 Zr10 2.108582 1_565
O25 Zr7 2.267215 1_465
O25 Zr20 2.370645 1_455
O25 Zr0 2.442008 1_555
O26 Zr8 2.036636 1_556
O26 Zr14 2.194796 1_555
O26 Zr17 2.542690 1_555
O27 Zr22 2.021763 1_555
O27 Zr6 2.269749 1_556
O27 Zr14 2.290819 1_565
O28 Zr1 2.124329 1_555
O28 Zr14 2.251558 1_555
O28 Zr17 2.328537 1_555
O28 Zr19 2.493424 1_555
O29 Zr11 2.129166 1_555
O29 Zr27 2.181803 1_555
O29 Zr6 2.306904 1_555
O29 Zr16 2.319081 1_554
O30 Zr22 2.066183 1_555
O30 Zr16 2.308096 1_555
O30 Zr23 2.333892 1_555
O30 Zr11 2.787534 1_556
O31 Zr18 2.101645 1_555
O31 Zr27 2.219031 1_555
O31 Zr11 2.237116 1_555
O31 Zr2 2.641075 1_555
O32 Zr4 2.096029 1_555
O32 Zr3 2.230473 1_555
O32 Zr14 2.374714 1_565
O32 Zr7 2.501768 1_565
O33 Zr29 2.095438 1_555
O33 Zr24 2.114493 1_555
O33 Zr12 2.449982 1_555
O33 Zr27 2.497246 1_555
O34 Zr23 2.100675 1_555
O34 Zr18 2.130217 1_555
O34 Zr9 2.243479 1_455
O35 Zr5 2.144101 1_555
O35 Zr20 2.238509 1_455
O35 Zr9 2.242068 1_455
O35 Zr23 2.409498 1_555
O36 Zr1 1.980631 1_555
O36 Zr19 2.038993 1_555
O37 Zr12 2.083311 1_555
O37 Zr16 2.188141 1_554
O37 Zr6 2.193544 1_555
O38 Zr13 2.122067 1_555
O38 Zr28 2.156465 1_555
O38 Zr18 2.170902 1_555
O39 Zr26 1.985339 1_555
O39 Zr13 2.055701 1_555
O40 Zr25 2.005035 1_554
O40 Zr21 2.168908 1_555
O40 Zr2 2.296572 1_655
O41 Zr3 2.003976 1_555
O41 Zr23 2.031803 1_555
O42 Zr2 2.092829 1_555
O42 Zr6 2.176090 1_555
O42 Zr27 2.189824 1_555
O43 Zr17 2.055364 1_555
O43 Zr23 2.198058 1_555
O43 Zr1 2.248806 1_555
O43 Zr19 2.553674 1_555
O44 Zr28 2.029536 1_555
O44 Zr15 2.110084 1_555
O44 Zr29 2.210056 1_555
O45 Zr1 2.064227 1_555
O45 Zr10 2.145765 1_555
O45 Zr13 2.160288 1_555
O46 Zr12 2.146507 1_555
O46 Zr7 2.160650 1_565
O46 Zr4 2.317978 1_555
O46 Zr24 2.400480 1_555
O47 Zr25 2.048111 1_544
O47 Zr8 2.145056 1_555
O47 Zr14 2.393660 1_554
O48 Zr0 1.971624 1_555
O48 Zr4 2.084139 1_555
O48 Zr27 2.342899 1_555
O49 Zr18 2.096144 1_655
O49 Zr15 2.280441 1_555
O49 Zr9 2.285944 1_555
O49 Zr13 2.350087 1_655
O50 Zr20 2.057874 1_555
O50 Zr9 2.174717 1_555
O50 Zr24 2.242959 1_555
O51 Zr4 2.053566 1_555
O51 Zr6 2.094473 1_555
O51 Zr12 2.266890 1_555
O51 Zr27 2.290493 1_555
O52 Zr20 2.111016 1_455
O52 Zr23 2.217319 1_555
O52 Zr0 2.247428 1_555
O52 Zr22 2.290370 1_555
O53 Zr15 2.064980 1_555
O53 Zr4 2.134111 1_545
O53 Zr7 2.275050 1_555
O54 Zr20 2.112952 1_555
O54 Zr7 2.147772 1_565
O54 Zr24 2.236148 1_555
O54 Zr3 2.399390 1_555
O55 Zr10 1.993324 1_555
O55 Zr5 2.109639 1_555
O55 Zr9 2.113493 1_455
O56 Zr21 2.037608 1_555
O56 Zr18 2.169392 1_655
O56 Zr2 2.227606 1_655
O57 Zr19 1.968812 1_555
O57 Zr3 2.072827 1_555
O57 Zr24 2.099317 1_555
O58 Zr8 2.124738 1_555
O58 Zr29 2.179849 1_555
O58 Zr21 2.279578 1_555
O58 Zr15 2.548175 1_555
O59 Zr1 2.075285 1_555
O59 Zr4 2.159265 1_545
O59 Zr28 2.212648 1_555
