# generated using pymatgen
data_Cs3BO3
_symmetry_space_group_name_H-M   'P 1'
_cell_length_a   10.47207171
_cell_length_b   11.01671258
_cell_length_c   11.07122685
_cell_angle_alpha   90.00000000
_cell_angle_beta   90.00000000
_cell_angle_gamma   90.00000000
_symmetry_Int_Tables_number   1
_chemical_formula_structural   Cs3BO3
_chemical_formula_sum   'Cs24 B8 O24'
_cell_volume   1277.26313089
_cell_formula_units_Z   8
loop_
 _symmetry_equiv_pos_site_id
 _symmetry_equiv_pos_as_xyz
  1  'x, y, z'
loop_
 _atom_site_type_symbol
 _atom_site_label
 _atom_site_symmetry_multiplicity
 _atom_site_fract_x
 _atom_site_fract_y
 _atom_site_fract_z
 _atom_site_occupancy
  Cs  Cs0  1  0.24934723  0.75332918  0.25600052  1
  Cs  Cs1  1  0.24934723  0.24667082  0.74399948  1
  Cs  Cs2  1  0.75065277  0.25332918  0.24399948  1
  Cs  Cs3  1  0.75065277  0.74667082  0.75600052  1
  Cs  Cs4  1  0.75065277  0.24667082  0.74399948  1
  Cs  Cs5  1  0.75065277  0.75332918  0.25600052  1
  Cs  Cs6  1  0.24934723  0.74667082  0.75600052  1
  Cs  Cs7  1  0.24934723  0.25332918  0.24399948  1
  Cs  Cs8  1  0.50000000  0.66958297  0.48495677  1
  Cs  Cs9  1  0.50000000  0.33041703  0.51504323  1
  Cs  Cs10  1  0.50000000  0.16958297  0.01504323  1
  Cs  Cs11  1  0.50000000  0.83041703  0.98495677  1
  Cs  Cs12  1  -0.00000000  0.51881225  0.16967499  1
  Cs  Cs13  1  -0.00000000  0.48118775  0.83032501  1
  Cs  Cs14  1  -0.00000000  0.01881225  0.33032501  1
  Cs  Cs15  1  -0.00000000  0.98118775  0.66967499  1
  Cs  Cs16  1  0.31548805  0.50000000  -0.00000000  1
  Cs  Cs17  1  0.68451195  -0.00000000  0.50000000  1
  Cs  Cs18  1  0.68451195  0.50000000  -0.00000000  1
  Cs  Cs19  1  0.31548805  -0.00000000  0.50000000  1
  Cs  Cs20  1  0.18400582  0.50000000  0.50000000  1
  Cs  Cs21  1  0.81599418  -0.00000000  -0.00000000  1
  Cs  Cs22  1  0.81599418  0.50000000  0.50000000  1
  Cs  Cs23  1  0.18400582  -0.00000000  -0.00000000  1
  B  B0  1  -0.00000000  0.75591243  0.46659140  1
  B  B1  1  -0.00000000  0.24408757  0.53340860  1
  B  B2  1  -0.00000000  0.25591243  0.03340860  1
  B  B3  1  -0.00000000  0.74408757  0.96659140  1
  B  B4  1  0.50000000  0.96603337  0.24442981  1
  B  B5  1  0.50000000  0.03396663  0.75557019  1
  B  B6  1  0.50000000  0.46603337  0.25557019  1
  B  B7  1  0.50000000  0.53396663  0.74442981  1
  O  O0  1  0.11640718  0.69766248  0.00849747  1
  O  O1  1  0.11640718  0.30233752  0.99150253  1
  O  O2  1  0.88359282  0.19766248  0.49150253  1
  O  O3  1  0.88359282  0.80233752  0.50849747  1
  O  O4  1  0.88359282  0.30233752  0.99150253  1
  O  O5  1  0.88359282  0.69766248  0.00849747  1
  O  O6  1  0.11640718  0.80233752  0.50849747  1
  O  O7  1  0.11640718  0.19766248  0.49150253  1
  O  O8  1  -0.00000000  0.66551032  0.37877143  1
  O  O9  1  -0.00000000  0.33448968  0.62122857  1
  O  O10  1  -0.00000000  0.16551032  0.12122857  1
  O  O11  1  -0.00000000  0.83448968  0.87877143  1
  O  O12  1  0.50000000  0.87965591  0.33618456  1
  O  O13  1  0.50000000  0.12034409  0.66381544  1
  O  O14  1  0.50000000  0.37965591  0.16381544  1
  O  O15  1  0.50000000  0.62034409  0.83618456  1
  O  O16  1  0.38376995  0.50728582  0.30290422  1
  O  O17  1  0.38376995  0.49271418  0.69709578  1
  O  O18  1  0.61623005  0.00728582  0.19709578  1
  O  O19  1  0.61623005  0.99271418  0.80290422  1
  O  O20  1  0.61623005  0.49271418  0.69709578  1
  O  O21  1  0.61623005  0.50728582  0.30290422  1
  O  O22  1  0.38376995  0.99271418  0.80290422  1
  O  O23  1  0.38376995  0.00728582  0.19709578  1
loop_
_geom_bond_atom_site_label_1
_geom_bond_atom_site_label_2
_geom_bond_distance
_geom_bond_site_symmetry_2
Cs0 O16 3.098148 1_555
Cs0 O8 3.098673 1_555
Cs0 O12 3.100770 1_555
Cs0 O0 3.134116 1_555
Cs0 O6 3.169251 1_555
Cs0 O23 3.199121 1_565
Cs1 O17 3.098148 1_555
Cs1 O9 3.098673 1_555
Cs1 O13 3.100770 1_555
Cs1 O1 3.134116 1_555
Cs1 O7 3.169251 1_555
Cs1 O22 3.199121 1_545
Cs2 O18 3.098148 1_555
Cs2 O10 3.098673 1_655
Cs2 O14 3.100770 1_555
Cs2 O2 3.134116 1_555
Cs2 O4 3.169251 1_554
Cs2 O21 3.199121 1_555
Cs3 O19 3.098148 1_555
Cs3 O11 3.098673 1_655
Cs3 O15 3.100770 1_555
Cs3 O3 3.134116 1_555
Cs3 O5 3.169251 1_556
Cs3 O20 3.199121 1_555
Cs4 O20 3.098148 1_555
Cs4 O9 3.098673 1_655
Cs4 O13 3.100770 1_555
Cs4 O4 3.134116 1_555
Cs4 O2 3.169251 1_555
Cs4 O19 3.199121 1_545
Cs5 O21 3.098148 1_555
Cs5 O8 3.098673 1_655
Cs5 O12 3.100770 1_555
Cs5 O5 3.134116 1_555
Cs5 O3 3.169251 1_555
Cs5 O18 3.199121 1_565
Cs6 O22 3.098148 1_555
Cs6 O11 3.098673 1_555
Cs6 O15 3.100770 1_555
Cs6 O6 3.134116 1_555
Cs6 O0 3.169251 1_556
Cs6 O17 3.199121 1_555
Cs7 O23 3.098148 1_555
Cs7 O10 3.098673 1_555
Cs7 O14 3.100770 1_555
Cs7 O7 3.134116 1_555
Cs7 O1 3.169251 1_554
Cs7 O16 3.199121 1_555
Cs8 O12 2.840590 1_555
Cs8 O16 2.956484 1_555
Cs8 O21 2.956484 1_555
Cs9 O13 2.840590 1_555
Cs9 O20 2.956484 1_555
Cs9 O17 2.956484 1_555
Cs10 O14 2.840590 1_555
Cs10 O23 2.956484 1_555
Cs10 O18 2.956484 1_555
Cs11 O15 2.840590 1_555
Cs11 O22 2.956484 1_555
Cs11 O19 2.956484 1_555
Cs12 O8 2.823277 1_555
Cs12 O5 2.924460 1_455
Cs12 O0 2.924460 1_555
Cs13 O9 2.823277 1_555
Cs13 O4 2.924460 1_455
Cs13 O1 2.924460 1_555
Cs14 O10 2.823277 1_555
Cs14 O2 2.924460 1_455
Cs14 O7 2.924460 1_555
Cs15 O11 2.823277 1_555
Cs15 O3 2.924460 1_455
Cs15 O6 2.924460 1_555
Cs16 O14 2.963191 1_555
Cs16 O15 2.963191 1_554
Cs16 O1 3.016140 1_554
Cs16 O0 3.016140 1_555
Cs16 O17 3.429847 1_554
Cs16 O16 3.429847 1_555
Cs17 O12 2.963191 1_545
Cs17 O13 2.963191 1_555
Cs17 O2 3.016140 1_555
Cs17 O3 3.016140 1_545
Cs17 O18 3.429847 1_555
Cs17 O19 3.429847 1_545
Cs18 O14 2.963191 1_555
Cs18 O15 2.963191 1_554
Cs18 O4 3.016140 1_554
Cs18 O5 3.016140 1_555
Cs18 O20 3.429847 1_554
Cs18 O21 3.429847 1_555
Cs19 O12 2.963191 1_545
Cs19 O13 2.963191 1_555
Cs19 O6 3.016140 1_545
Cs19 O7 3.016140 1_555
Cs19 O23 3.429847 1_555
Cs19 O22 3.429847 1_545
Cs20 O8 2.973063 1_555
Cs20 O9 2.973063 1_555
Cs20 O16 3.023938 1_555
Cs20 O17 3.023938 1_555
Cs20 O6 3.406460 1_555
Cs20 O7 3.406460 1_555
Cs21 O11 2.973063 1_644
Cs21 O10 2.973063 1_655
Cs21 O19 3.023938 1_544
Cs21 O18 3.023938 1_555
Cs21 O5 3.406460 1_545
Cs21 O4 3.406460 1_554
Cs22 O8 2.973063 1_655
Cs22 O9 2.973063 1_655
Cs22 O21 3.023938 1_555
Cs22 O20 3.023938 1_555
Cs22 O2 3.406460 1_555
Cs22 O3 3.406460 1_555
Cs23 O11 2.973063 1_544
Cs23 O10 2.973063 1_555
Cs23 O22 3.023938 1_544
Cs23 O23 3.023938 1_555
Cs23 O0 3.406460 1_545
Cs23 O1 3.406460 1_554
B0 O8 1.391834 1_555
B0 O3 1.401019 1_455
B0 O6 1.401019 1_555
B1 O9 1.391834 1_555
B1 O2 1.401019 1_455
B1 O7 1.401019 1_555
B2 O10 1.391834 1_555
B2 O4 1.401019 1_454
B2 O1 1.401019 1_554
B3 O11 1.391834 1_555
B3 O5 1.401019 1_456
B3 O0 1.401019 1_556
B4 O12 1.391927 1_555
B4 O18 1.400951 1_565
B4 O23 1.400951 1_565
B5 O13 1.391927 1_555
B5 O22 1.400951 1_545
B5 O19 1.400951 1_545
B6 O14 1.391927 1_555
B6 O16 1.400951 1_555
B6 O21 1.400951 1_555
B7 O15 1.391927 1_555
B7 O20 1.400951 1_555
B7 O17 1.400951 1_555
