# generated using pymatgen
data_TmHfF7
_symmetry_space_group_name_H-M   'P 1'
_cell_length_a   5.60510006
_cell_length_b   5.91565432
_cell_length_c   8.06896481
_cell_angle_alpha   102.75901564
_cell_angle_beta   90.00000000
_cell_angle_gamma   90.00000000
_symmetry_Int_Tables_number   1
_chemical_formula_structural   TmHfF7
_chemical_formula_sum   'Tm2 Hf2 F14'
_cell_volume   260.94295709
_cell_formula_units_Z   2
loop_
 _symmetry_equiv_pos_site_id
 _symmetry_equiv_pos_as_xyz
  1  'x, y, z'
loop_
 _atom_site_type_symbol
 _atom_site_label
 _atom_site_symmetry_multiplicity
 _atom_site_fract_x
 _atom_site_fract_y
 _atom_site_fract_z
 _atom_site_occupancy
  Tm  Tm0  1  0.69827090  0.65435816  0.68585211  1
  Tm  Tm1  1  0.19827090  0.34564184  0.31414789  1
  Hf  Hf0  1  0.70770755  0.81268876  0.22570957  1
  Hf  Hf1  1  0.20770755  0.18731124  0.77429043  1
  F  F0  1  0.89475349  0.45938824  0.47764510  1
  F  F1  1  0.39475349  0.54061176  0.52235490  1
  F  F2  1  0.43270480  0.92593427  0.76914159  1
  F  F3  1  0.93270480  0.07406573  0.23085841  1
  F  F4  1  0.95098870  0.94883392  0.75888276  1
  F  F5  1  0.45098870  0.05116608  0.24111724  1
  F  F6  1  0.99013894  0.45638355  0.78887245  1
  F  F7  1  0.49013894  0.54361645  0.21112755  1
  F  F8  1  0.69792841  0.75610180  0.97470966  1
  F  F9  1  0.19792841  0.24389820  0.02529034  1
  F  F10  1  0.70236638  0.86734250  0.47781359  1
  F  F11  1  0.20236638  0.13265750  0.52218641  1
  F  F12  1  0.50150083  0.38155848  0.78293680  1
  F  F13  1  0.00150083  0.61844152  0.21706320  1
loop_
_geom_bond_atom_site_label_1
_geom_bond_atom_site_label_2
_geom_bond_distance
_geom_bond_site_symmetry_2
F0 Tm0 2.123609 1_555
F0 Tm1 2.166873 1_655
F1 Tm1 2.123609 1_555
F1 Tm0 2.166873 1_555
F2 Hf1 1.988615 1_565
F2 Tm0 2.184369 1_555
F3 Hf0 1.988615 1_545
F3 Tm1 2.184369 1_655
F4 Hf1 1.999683 1_665
F4 Tm0 2.221474 1_555
F5 Hf0 1.999683 1_545
F5 Tm1 2.221474 1_555
F6 Hf1 1.987943 1_655
F6 Tm0 2.273531 1_555
F7 Hf0 1.987943 1_555
F7 Tm1 2.273531 1_555
F8 Hf0 1.979262 1_556
F8 Tm0 2.274899 1_555
F9 Hf1 1.979262 1_554
F9 Tm1 2.274899 1_555
F10 Hf0 1.988208 1_555
F10 Tm0 2.310859 1_555
F11 Hf1 1.988208 1_555
F11 Tm1 2.310859 1_555
F12 Hf1 2.000410 1_555
F12 Tm0 2.234459 1_555
F13 Hf0 2.000410 1_455
F13 Tm1 2.234459 1_555
