# generated using pymatgen
data_Fe10OF19
_symmetry_space_group_name_H-M   'P 1'
_cell_length_a   4.79219100
_cell_length_b   8.16531676
_cell_length_c   10.13370298
_cell_angle_alpha   73.08878989
_cell_angle_beta   89.47798319
_cell_angle_gamma   89.68074026
_symmetry_Int_Tables_number   1
_chemical_formula_structural   Fe10OF19
_chemical_formula_sum   'Fe10 O1 F19'
_cell_volume   379.36458322
_cell_formula_units_Z   1
loop_
 _symmetry_equiv_pos_site_id
 _symmetry_equiv_pos_as_xyz
  1  'x, y, z'
loop_
 _atom_site_type_symbol
 _atom_site_label
 _atom_site_symmetry_multiplicity
 _atom_site_fract_x
 _atom_site_fract_y
 _atom_site_fract_z
 _atom_site_occupancy
  Fe  Fe0  1  0.49943300  0.30045100  0.09954300  1
  Fe  Fe1  1  0.49862400  0.09944700  0.69936300  1
  Fe  Fe2  1  0.47732800  0.90522200  0.31089200  1
  Fe  Fe3  1  0.50138000  0.70019800  0.89875100  1
  Fe  Fe4  1  0.50266100  0.49863300  0.49987500  1
  Fe  Fe5  1  0.99453300  0.60163400  0.20092400  1
  Fe  Fe6  1  0.01472200  0.19061600  0.39951000  1
  Fe  Fe7  1  0.01469700  0.80500100  0.59251800  1
  Fe  Fe8  1  0.99955200  0.40121900  0.79921800  1
  Fe  Fe9  1  0.99563600  0.99822200  0.00134300  1
  O  O0  1  0.20619700  0.95854300  0.41692300  1
  F  F0  1  0.19758000  0.75972200  0.02180300  1
  F  F1  1  0.20077200  0.55916800  0.61910100  1
  F  F2  1  0.19966900  0.36239900  0.21847600  1
  F  F3  1  0.19920900  0.15963700  0.82224400  1
  F  F4  1  0.30803500  0.05094700  0.12410500  1
  F  F5  1  0.30831100  0.66891300  0.31496000  1
  F  F6  1  0.30007700  0.45963600  0.92049900  1
  F  F7  1  0.29998400  0.85941600  0.72337200  1
  F  F8  1  0.30052900  0.26337000  0.52104000  1
  F  F9  1  0.69532700  0.13095900  0.27909700  1
  F  F10  1  0.69545300  0.74508200  0.47192300  1
  F  F11  1  0.69947500  0.34015600  0.68057400  1
  F  F12  1  0.69919300  0.93986500  0.88095900  1
  F  F13  1  0.69922500  0.53992800  0.07990700  1
  F  F14  1  0.80304500  0.43756700  0.37944100  1
  F  F15  1  0.79886400  0.04041300  0.58048400  1
  F  F16  1  0.78609900  0.84247300  0.18538800  1
  F  F17  1  0.80170100  0.23902800  0.98111700  1
  F  F18  1  0.80268800  0.64213400  0.77665100  1
loop_
_geom_bond_atom_site_label_1
_geom_bond_atom_site_label_2
_geom_bond_distance
_geom_bond_site_symmetry_2
Fe2 O0 1.809063 1_555
Fe6 O0 2.062273 1_545
Fe7 O0 2.065316 1_555
F0 Fe3 2.054836 1_554
F0 Fe9 2.125973 1_455
F0 Fe5 2.127565 1_455
F1 Fe4 2.025995 1_555
F1 Fe8 2.130020 1_455
F1 Fe7 2.137012 1_555
F2 Fe0 2.021652 1_555
F2 Fe5 2.143259 1_455
F2 Fe6 2.146093 1_555
F3 Fe1 2.041226 1_555
F3 Fe9 2.138515 1_446
F3 Fe8 2.139224 1_455
F4 Fe9 2.080122 1_445
F4 Fe2 2.088966 1_545
F4 Fe0 2.185268 1_555
F5 Fe5 2.075690 1_455
F5 Fe2 2.085997 1_555
F5 Fe4 2.193996 1_555
F6 Fe8 2.047704 1_455
F6 Fe0 2.130695 1_556
F6 Fe3 2.145440 1_555
F7 Fe7 2.051209 1_555
F7 Fe3 2.110279 1_555
F7 Fe1 2.132093 1_565
F8 Fe6 2.052067 1_555
F8 Fe4 2.109923 1_555
F8 Fe1 2.137326 1_555
F9 Fe2 2.064570 1_545
F9 Fe6 2.111193 1_655
F9 Fe0 2.158468 1_555
F10 Fe2 2.059080 1_555
F10 Fe7 2.112729 1_655
F10 Fe4 2.160472 1_555
F11 Fe8 2.037230 1_555
F11 Fe4 2.134591 1_555
F11 Fe1 2.150760 1_555
F12 Fe9 2.027498 1_556
F12 Fe3 2.138480 1_555
F12 Fe1 2.152081 1_565
F13 Fe5 2.039500 1_555
F13 Fe0 2.137972 1_555
F13 Fe3 2.145182 1_554
F14 Fe4 2.030833 1_555
F14 Fe5 2.117285 1_555
F14 Fe6 2.208789 1_655
F15 Fe1 2.013035 1_555
F15 Fe6 2.146760 1_655
F15 Fe7 2.150197 1_645
F16 Fe2 2.099022 1_555
F16 Fe5 2.165775 1_555
F16 Fe9 2.168932 1_555
F17 Fe0 2.024942 1_556
F17 Fe9 2.126160 1_546
F17 Fe8 2.147689 1_555
F18 Fe3 2.035136 1_555
F18 Fe8 2.129206 1_555
F18 Fe7 2.195309 1_655
