# generated using pymatgen
data_Tm(FeB)2
_symmetry_space_group_name_H-M   'P 1'
_cell_length_a   3.45341687
_cell_length_b   3.45341639
_cell_length_c   5.29089555
_cell_angle_alpha   109.04767376
_cell_angle_beta   109.04767208
_cell_angle_gamma   90.00000393
_symmetry_Int_Tables_number   1
_chemical_formula_structural   Tm(FeB)2
_chemical_formula_sum   'Tm1 Fe2 B2'
_cell_volume   55.97710090
_cell_formula_units_Z   1
loop_
 _symmetry_equiv_pos_site_id
 _symmetry_equiv_pos_as_xyz
  1  'x, y, z'
loop_
 _atom_site_type_symbol
 _atom_site_label
 _atom_site_symmetry_multiplicity
 _atom_site_fract_x
 _atom_site_fract_y
 _atom_site_fract_z
 _atom_site_occupancy
  Tm  Tm0  1  0.00000000  0.00000000  0.00000000  1
  Fe  Fe0  1  0.25000000  0.75000000  0.50000000  1
  Fe  Fe1  1  0.75000000  0.25000000  0.50000000  1
  B  B0  1  0.60982346  0.60982346  0.21964692  1
  B  B1  1  0.39017654  0.39017654  0.78035308  1
loop_
_geom_bond_atom_site_label_1
_geom_bond_atom_site_label_2
_geom_bond_distance
_geom_bond_site_symmetry_2
Fe0 Tm0 2.913615 1_555
Fe0 Tm0 2.913615 1_666
Fe0 Tm0 2.913615 1_565
Fe0 Tm0 2.913615 1_566
Fe1 Tm0 2.913615 1_666
Fe1 Tm0 2.913615 1_555
Fe1 Tm0 2.913615 1_656
Fe1 Tm0 2.913615 1_655
B0 B1 2.061900 1_554
B0 Fe1 2.170961 1_565
B0 Fe0 2.170961 1_655
B0 Fe1 2.170962 1_555
B0 Fe0 2.170962 1_555
B0 Tm0 2.650641 1_555
B0 Tm0 2.650642 1_655
B0 Tm0 2.650642 1_565
B0 Tm0 2.650642 1_665
B1 Fe0 2.170961 1_545
B1 Fe1 2.170961 1_455
B1 Fe0 2.170962 1_555
B1 Fe1 2.170962 1_555
B1 Tm0 2.650641 1_666
B1 Tm0 2.650642 1_566
B1 Tm0 2.650642 1_656
B1 Tm0 2.650642 1_556
