# generated using pymatgen
data_Cs3FeO3
_symmetry_space_group_name_H-M   'P 1'
_cell_length_a   7.30177727
_cell_length_b   7.75493456
_cell_length_c   12.12569829
_cell_angle_alpha   90.00096914
_cell_angle_beta   89.99925111
_cell_angle_gamma   104.74367437
_symmetry_Int_Tables_number   1
_chemical_formula_structural   Cs3FeO3
_chemical_formula_sum   'Cs12 Fe4 O12'
_cell_volume   664.00783377
_cell_formula_units_Z   4
loop_
 _symmetry_equiv_pos_site_id
 _symmetry_equiv_pos_as_xyz
  1  'x, y, z'
loop_
 _atom_site_type_symbol
 _atom_site_label
 _atom_site_symmetry_multiplicity
 _atom_site_fract_x
 _atom_site_fract_y
 _atom_site_fract_z
 _atom_site_occupancy
  Cs  Cs0  1  0.45442725  0.49778781  0.70511305  1
  Cs  Cs1  1  0.54557823  0.00220928  0.20510344  1
  Cs  Cs2  1  0.54557341  0.50221161  0.29488728  1
  Cs  Cs3  1  0.45442608  0.99778938  0.79489542  1
  Cs  Cs4  1  0.66493610  0.36737167  0.99080040  1
  Cs  Cs5  1  0.33505901  0.13262706  0.49079449  1
  Cs  Cs6  1  0.33506729  0.63263071  0.00920389  1
  Cs  Cs7  1  0.66493771  0.86737394  0.50920180  1
  Cs  Cs8  1  0.97816682  0.08717109  0.74409263  1
  Cs  Cs9  1  0.02182701  0.41283205  0.24407540  1
  Cs  Cs10  1  0.02183462  0.91283168  0.25590910  1
  Cs  Cs11  1  0.97817561  0.58716791  0.75592668  1
  Fe  Fe0  1  0.84401199  0.34991435  0.50859454  1
  Fe  Fe1  1  0.15598958  0.15008421  0.00859707  1
  Fe  Fe2  1  0.15598523  0.65008680  0.49140348  1
  Fe  Fe3  1  0.84401482  0.84991470  0.99140371  1
  O  O0  1  0.88152129  0.10234727  0.03228548  1
  O  O1  1  0.11847713  0.39765716  0.53228605  1
  O  O2  1  0.11848186  0.89765195  0.96771262  1
  O  O3  1  0.88151839  0.60234372  0.46771002  1
  O  O4  1  0.70418470  0.26948298  0.63506928  1
  O  O5  1  0.29581897  0.23051018  0.13506949  1
  O  O6  1  0.29581304  0.73051623  0.36492878  1
  O  O7  1  0.70417957  0.76948101  0.86493437  1
  O  O8  1  0.25241531  0.29667349  0.88931968  1
  O  O9  1  0.74758600  0.20333128  0.38930887  1
  O  O10  1  0.74758770  0.70333081  0.11068371  1
  O  O11  1  0.25240529  0.79667068  0.61068925  1
loop_
_geom_bond_atom_site_label_1
_geom_bond_atom_site_label_2
_geom_bond_distance
_geom_bond_site_symmetry_2
Cs0 O8 2.902828 1_555
Cs0 O4 2.970709 1_555
Cs0 O7 3.092704 1_555
Cs0 O1 3.169011 1_555
Cs0 O11 3.255699 1_555
Cs1 O9 2.902819 1_555
Cs1 O5 2.970693 1_555
Cs1 O6 3.092787 1_545
Cs1 O0 3.168879 1_555
Cs1 O10 3.255554 1_545
Cs2 O10 2.902821 1_555
Cs2 O6 2.970716 1_555
Cs2 O5 3.092717 1_555
Cs2 O3 3.168951 1_555
Cs2 O9 3.255630 1_555
Cs3 O11 2.902851 1_555
Cs3 O7 2.970721 1_555
Cs3 O4 3.092776 1_565
Cs3 O2 3.168879 1_555
Cs3 O8 3.255616 1_565
Cs4 O10 2.909427 1_556
Cs4 O0 2.938113 1_556
Cs4 O5 3.161462 1_556
Cs4 O8 3.169739 1_555
Cs4 O7 3.417714 1_555
Cs5 O11 2.909514 1_545
Cs5 O1 2.938127 1_555
Cs5 O4 3.161562 1_555
Cs5 O9 3.169777 1_555
Cs5 O6 3.417676 1_545
Cs6 O8 2.909420 1_554
Cs6 O2 2.938107 1_554
Cs6 O7 3.161427 1_554
Cs6 O10 3.169732 1_555
Cs6 O5 3.417784 1_555
Cs7 O9 2.909510 1_565
Cs7 O3 2.938122 1_555
Cs7 O6 3.161546 1_555
Cs7 O11 3.169822 1_555
Cs7 O4 3.417672 1_565
Cs8 O8 2.845114 1_655
Cs8 O4 3.031257 1_555
Cs8 O7 3.116158 1_545
Cs9 O9 2.845128 1_455
Cs9 O5 3.031226 1_555
Cs9 O6 3.116177 1_555
Cs10 O10 2.845090 1_455
Cs10 O6 3.031234 1_555
Cs10 O5 3.116080 1_565
Cs11 O11 2.845118 1_655
Cs11 O7 3.031215 1_555
Cs11 O4 3.116219 1_555
Fe0 O4 1.859901 1_555
Fe0 O9 1.863504 1_555
Fe0 O1 1.964255 1_655
Fe0 O3 1.969777 1_555
Fe1 O5 1.859881 1_555
Fe1 O8 1.863466 1_554
Fe1 O0 1.964270 1_455
Fe1 O2 1.969782 1_544
Fe2 O6 1.859899 1_555
Fe2 O11 1.863498 1_555
Fe2 O3 1.964271 1_455
Fe2 O1 1.969772 1_555
Fe3 O7 1.859882 1_555
Fe3 O10 1.863471 1_556
Fe3 O2 1.964265 1_655
Fe3 O0 1.969777 1_566
