# generated using pymatgen
data_Mg14CdB
_symmetry_space_group_name_H-M   'P 1'
_cell_length_a   6.21622903
_cell_length_b   6.29558060
_cell_length_c   10.17466176
_cell_angle_alpha   90.00000000
_cell_angle_beta   90.00000000
_cell_angle_gamma   120.42318151
_symmetry_Int_Tables_number   1
_chemical_formula_structural   Mg14CdB
_chemical_formula_sum   'Mg14 Cd1 B1'
_cell_volume   343.35677791
_cell_formula_units_Z   1
loop_
 _symmetry_equiv_pos_site_id
 _symmetry_equiv_pos_as_xyz
  1  'x, y, z'
loop_
 _atom_site_type_symbol
 _atom_site_label
 _atom_site_symmetry_multiplicity
 _atom_site_fract_x
 _atom_site_fract_y
 _atom_site_fract_z
 _atom_site_occupancy
  Mg  Mg0  1  0.17241931  0.33620916  0.62500000  1
  Mg  Mg1  1  0.17016964  0.83508432  0.62500000  1
  Mg  Mg2  1  0.70524245  0.35763656  0.12500000  1
  Mg  Mg3  1  0.66299545  0.33355800  0.62500000  1
  Mg  Mg4  1  0.70524245  0.84760490  0.12500000  1
  Mg  Mg5  1  0.66299545  0.82943645  0.62500000  1
  Mg  Mg6  1  0.32412421  0.15309573  0.35444399  1
  Mg  Mg7  1  0.32412421  0.15309573  0.89555601  1
  Mg  Mg8  1  0.32412421  0.67102948  0.35444399  1
  Mg  Mg9  1  0.32412421  0.67102948  0.89555601  1
  Mg  Mg10  1  0.83165864  0.16582982  0.37924401  1
  Mg  Mg11  1  0.83165864  0.16582982  0.87075599  1
  Mg  Mg12  1  0.83658736  0.66829418  0.36994238  1
  Mg  Mg13  1  0.83658736  0.66829418  0.88005762  1
  Cd  Cd0  1  0.17564871  0.33782386  0.12500000  1
  B  B0  1  0.11229770  0.80614835  0.12500000  1
loop_
_geom_bond_atom_site_label_1
_geom_bond_atom_site_label_2
_geom_bond_distance
_geom_bond_site_symmetry_2
Mg0 Mg5 3.058019 1_555
Mg0 Mg3 3.058019 1_555
Mg0 Mg10 3.096583 1_455
Mg0 Mg11 3.096583 1_455
Mg0 Mg1 3.147813 1_555
Mg0 Mg1 3.147813 1_545
Mg0 Mg5 3.158276 1_445
Mg0 Mg3 3.158276 1_455
Mg0 Mg6 3.301102 1_555
Mg0 Mg7 3.301102 1_555
Mg0 Mg8 3.301108 1_555
Mg0 Mg9 3.301108 1_555
Mg1 Mg3 3.081676 1_565
Mg1 Mg5 3.081676 1_555
Mg1 Mg3 3.134855 1_455
Mg1 Mg5 3.134856 1_455
Mg1 Mg13 3.151506 1_455
Mg1 Mg12 3.151506 1_455
Mg1 Mg8 3.249868 1_555
Mg1 Mg9 3.249868 1_555
Mg1 Mg6 3.249873 1_565
Mg1 Mg7 3.249873 1_565
Mg3 Mg5 3.121843 1_555
Mg3 Mg5 3.173738 1_545
Mg3 Mg6 3.298836 1_555
Mg3 Mg7 3.298836 1_555
Mg5 Mg9 3.298837 1_555
Mg5 Mg8 3.298837 1_555
Mg10 Mg3 3.096438 1_555
Mg10 Mg5 3.096444 1_545
Mg10 Mg8 3.112889 1_655
Mg10 Mg6 3.112889 1_655
Mg10 Mg2 3.119051 1_555
Mg10 Mg4 3.119058 1_545
Mg10 Mg8 3.125324 1_545
Mg10 Mg6 3.125324 1_555
Mg10 Mg12 3.149324 1_555
Mg10 Mg12 3.149324 1_545
Mg11 Mg3 3.096438 1_555
Mg11 Mg5 3.096444 1_545
Mg11 Mg9 3.112889 1_655
Mg11 Mg7 3.112889 1_655
Mg11 Mg2 3.119051 1_556
Mg11 Mg4 3.119058 1_546
Mg11 Mg9 3.125324 1_545
Mg11 Mg7 3.125324 1_555
Mg11 Mg13 3.149324 1_555
Mg11 Mg13 3.149324 1_545
Mg12 Mg5 3.168118 1_555
Mg12 Mg3 3.168124 1_555
Mg13 Mg5 3.168118 1_555
Mg13 Mg3 3.168124 1_555
Cd0 Mg7 2.956584 1_554
Cd0 Mg6 2.956584 1_555
Cd0 Mg9 2.956591 1_554
Cd0 Mg8 2.956591 1_555
Cd0 Mg4 2.989251 1_445
Cd0 Mg2 2.989251 1_455
Cd0 Mg11 3.176747 1_454
Cd0 Mg10 3.176747 1_455
Cd0 Mg4 3.230704 1_555
Cd0 Mg2 3.230705 1_555
B0 Mg2 2.672006 1_455
B0 Mg4 2.672006 1_455
B0 Mg13 2.897457 1_454
B0 Mg12 2.897457 1_455
B0 Mg9 3.006965 1_554
B0 Mg8 3.006965 1_555
B0 Mg6 3.006971 1_565
B0 Mg7 3.006971 1_564
