# generated using pymatgen
data_LiCrPO4
_symmetry_space_group_name_H-M   'P 1'
_cell_length_a   5.00991815
_cell_length_b   9.46578234
_cell_length_c   6.45175864
_cell_angle_alpha   90.05998960
_cell_angle_beta   89.97239781
_cell_angle_gamma   90.00216094
_symmetry_Int_Tables_number   1
_chemical_formula_structural   LiCrPO4
_chemical_formula_sum   'Li4 Cr4 P4 O16'
_cell_volume   305.96022176
_cell_formula_units_Z   4
loop_
 _symmetry_equiv_pos_site_id
 _symmetry_equiv_pos_as_xyz
  1  'x, y, z'
loop_
 _atom_site_type_symbol
 _atom_site_label
 _atom_site_symmetry_multiplicity
 _atom_site_fract_x
 _atom_site_fract_y
 _atom_site_fract_z
 _atom_site_occupancy
  Li  Li0  1  0.02327300  0.32769600  0.75113800  1
  Li  Li1  1  0.52376200  0.82796400  0.75122400  1
  Li  Li2  1  0.52368300  0.17192800  0.24879200  1
  Li  Li3  1  0.02326300  0.67231400  0.24889600  1
  Cr  Cr0  1  0.00663000  0.99992800  0.00025300  1
  Cr  Cr1  1  0.50502200  0.50002500  0.99988500  1
  Cr  Cr2  1  0.50387300  0.50013000  0.49965800  1
  Cr  Cr3  1  0.00483500  0.00008600  0.50007100  1
  P  P0  1  0.99973700  0.31141900  0.25065600  1
  P  P1  1  0.49997800  0.81156900  0.25074100  1
  P  P2  1  0.49988400  0.18842000  0.74929000  1
  P  P3  1  0.99981500  0.68860400  0.74937300  1
  O  O0  1  0.52698700  0.35859300  0.74969900  1
  O  O1  1  0.02708200  0.85882000  0.74983200  1
  O  O2  1  0.02711400  0.14117700  0.25003600  1
  O  O3  1  0.52703900  0.64141400  0.24997600  1
  O  O4  1  0.13428000  0.36184000  0.44966000  1
  O  O5  1  0.63469400  0.86195200  0.44969900  1
  O  O6  1  0.63468100  0.13787900  0.55032400  1
  O  O7  1  0.13453800  0.63801100  0.55040700  1
  O  O8  1  0.13639900  0.36224200  0.05267600  1
  O  O9  1  0.63654500  0.86239800  0.05279000  1
  O  O10  1  0.63635500  0.13768100  0.94724300  1
  O  O11  1  0.13631200  0.63792400  0.94739700  1
  O  O12  1  0.69937300  0.35999400  0.24986100  1
  O  O13  1  0.19957100  0.86016400  0.24994900  1
  O  O14  1  0.19942100  0.13983300  0.75020100  1
  O  O15  1  0.69950800  0.63999400  0.75027400  1
loop_
_geom_bond_atom_site_label_1
_geom_bond_atom_site_label_2
_geom_bond_distance
_geom_bond_site_symmetry_2
Li0 O14 1.985234 1_555
Li0 O4 2.048726 1_555
Li0 O8 2.052470 1_556
Li0 O0 2.503528 1_455
Li0 O0 2.540459 1_555
Li1 O15 1.985248 1_555
Li1 O5 2.048678 1_555
Li1 O9 2.051999 1_556
Li1 O1 2.505442 1_555
Li1 O1 2.538453 1_655
Li2 O12 1.985883 1_555
Li2 O6 2.049417 1_555
Li2 O10 2.050954 1_554
Li2 O2 2.504740 1_555
Li2 O2 2.538918 1_655
Li3 O13 1.985426 1_555
Li3 O7 2.050048 1_555
Li3 O11 2.051381 1_554
Li3 O3 2.503185 1_455
Li3 O3 2.540793 1_555
Cr0 O2 2.095444 1_565
Cr0 O1 2.097680 1_554
Cr0 O9 2.290733 1_455
Cr0 O10 2.293503 1_464
Cr0 O13 2.299114 1_555
Cr0 O14 2.300485 1_564
Cr1 O3 2.098207 1_556
Cr1 O0 2.098848 1_555
Cr1 O8 2.286419 1_556
Cr1 O11 2.287450 1_555
Cr1 O15 2.302416 1_555
Cr1 O12 2.304816 1_556
Cr2 O3 2.097925 1_555
Cr2 O0 2.101311 1_555
Cr2 O7 2.287592 1_555
Cr2 O4 2.290336 1_555
Cr2 O12 2.304419 1_555
Cr2 O15 2.307543 1_555
Cr3 O1 2.098048 1_545
Cr3 O2 2.098272 1_555
Cr3 O6 2.289986 1_455
Cr3 O5 2.292054 1_445
Cr3 O14 2.302481 1_555
Cr3 O13 2.303098 1_545
O0 P2 1.616528 1_555
O1 P3 1.617003 1_455
O2 P0 1.617306 1_455
O3 P1 1.616353 1_555
O4 P0 1.526475 1_455
O5 P1 1.526496 1_555
O6 P2 1.526655 1_555
O7 P3 1.526645 1_455
O8 P0 1.527144 1_455
O9 P1 1.526792 1_555
O10 P2 1.526886 1_555
O11 P3 1.527152 1_455
O12 P0 1.573508 1_555
O13 P1 1.573769 1_555
O14 P2 1.573980 1_555
O15 P3 1.573296 1_555
