# generated using pymatgen
data_TiO2
_symmetry_space_group_name_H-M   'P 1'
_cell_length_a   5.33144045
_cell_length_b   5.33144045
_cell_length_c   3.13158000
_cell_angle_alpha   90.00000000
_cell_angle_beta   90.00000000
_cell_angle_gamma   120.00000560
_symmetry_Int_Tables_number   1
_chemical_formula_structural   TiO2
_chemical_formula_sum   'Ti3 O6'
_cell_volume   77.08737257
_cell_formula_units_Z   3
loop_
 _symmetry_equiv_pos_site_id
 _symmetry_equiv_pos_as_xyz
  1  'x, y, z'
loop_
 _atom_site_type_symbol
 _atom_site_label
 _atom_site_symmetry_multiplicity
 _atom_site_fract_x
 _atom_site_fract_y
 _atom_site_fract_z
 _atom_site_occupancy
  Ti  Ti0  1  0.66666700  0.33333300  0.50000000  1
  Ti  Ti1  1  0.33333300  0.66666700  0.50000000  1
  Ti  Ti2  1  0.00000000  0.00000000  0.00000000  1
  O  O0  1  0.73739600  0.73739600  0.50000000  1
  O  O1  1  0.26260400  0.00000000  0.50000000  1
  O  O2  1  0.00000000  0.26260400  0.50000000  1
  O  O3  1  0.39820700  0.39820700  0.00000000  1
  O  O4  1  0.60179300  0.00000000  0.00000000  1
  O  O5  1  0.00000000  0.60179300  0.00000000  1
loop_
_geom_bond_atom_site_label_1
_geom_bond_atom_site_label_2
_geom_bond_distance
_geom_bond_site_symmetry_2
O0 Ti0 1.992636 1_555
O0 Ti1 1.992636 1_555
O0 Ti2 2.100443 1_666
O0 Ti2 2.100443 1_665
O1 Ti1 1.992631 1_545
O1 Ti0 1.992634 1_555
O1 Ti2 2.100443 1_556
O1 Ti2 2.100443 1_555
O2 Ti0 1.992631 1_455
O2 Ti1 1.992634 1_555
O2 Ti2 2.100443 1_555
O2 Ti2 2.100443 1_556
O3 Ti2 2.123017 1_555
O3 Ti1 2.261620 1_554
O3 Ti0 2.261620 1_555
O3 Ti0 2.261620 1_554
O3 Ti1 2.261620 1_555
O4 Ti2 2.123017 1_655
O4 Ti0 2.261616 1_555
O4 Ti0 2.261616 1_554
O4 Ti1 2.261617 1_545
O4 Ti1 2.261617 1_544
O5 Ti2 2.123017 1_565
O5 Ti1 2.261616 1_555
O5 Ti1 2.261616 1_554
O5 Ti0 2.261617 1_455
O5 Ti0 2.261617 1_454
