# generated using pymatgen
data_Tm5(In2Pt)2
_symmetry_space_group_name_H-M   'P 1'
_cell_length_a   3.56668593
_cell_length_b   7.99053207
_cell_length_c   17.98057450
_cell_angle_alpha   90.00000000
_cell_angle_beta   90.00000000
_cell_angle_gamma   90.00000000
_symmetry_Int_Tables_number   1
_chemical_formula_structural   Tm5(In2Pt)2
_chemical_formula_sum   'Tm10 In8 Pt4'
_cell_volume   512.44130825
_cell_formula_units_Z   2
loop_
 _symmetry_equiv_pos_site_id
 _symmetry_equiv_pos_as_xyz
  1  'x, y, z'
loop_
 _atom_site_type_symbol
 _atom_site_label
 _atom_site_symmetry_multiplicity
 _atom_site_fract_x
 _atom_site_fract_y
 _atom_site_fract_z
 _atom_site_occupancy
  Tm  Tm0  1  -0.00000000  0.11586935  0.41566676  1
  Tm  Tm1  1  -0.00000000  0.88413065  0.58433324  1
  Tm  Tm2  1  -0.00000000  0.38413065  0.91566676  1
  Tm  Tm3  1  -0.00000000  0.61586935  0.08433324  1
  Tm  Tm4  1  -0.00000000  0.24404473  0.22047604  1
  Tm  Tm5  1  -0.00000000  0.75595527  0.77952396  1
  Tm  Tm6  1  0.00000000  0.25595527  0.72047604  1
  Tm  Tm7  1  -0.00000000  0.74404473  0.27952396  1
  Tm  Tm8  1  -0.00000000  0.00000000  -0.00000000  1
  Tm  Tm9  1  -0.00000000  0.50000000  0.50000000  1
  In  In0  1  0.50000000  0.42386973  0.35175366  1
  In  In1  1  0.50000000  0.57613027  0.64824634  1
  In  In2  1  0.50000000  0.07613027  0.85175366  1
  In  In3  1  0.50000000  0.92386973  0.14824634  1
  In  In4  1  0.50000000  0.29041689  0.06717959  1
  In  In5  1  0.50000000  0.70958311  0.93282041  1
  In  In6  1  0.50000000  0.20958311  0.56717959  1
  In  In7  1  0.50000000  0.79041689  0.43282041  1
  Pt  Pt0  1  0.50000000  0.02788113  0.30381487  1
  Pt  Pt1  1  0.50000000  0.97211887  0.69618513  1
  Pt  Pt2  1  0.50000000  0.47211887  0.80381487  1
  Pt  Pt3  1  0.50000000  0.52788113  0.19618513  1
loop_
_geom_bond_atom_site_label_1
_geom_bond_atom_site_label_2
_geom_bond_distance
_geom_bond_site_symmetry_2
In0 Pt3 2.918070 1_555
In0 Tm0 3.249294 1_555
In0 Tm0 3.249294 1_655
In0 Tm9 3.264284 1_555
In0 Tm9 3.264284 1_655
In0 Pt0 3.279465 1_555
In0 Tm4 3.288875 1_655
In0 Tm4 3.288875 1_555
In0 Tm7 3.378204 1_655
In0 Tm7 3.378204 1_555
In1 Pt2 2.918070 1_555
In1 Tm1 3.249294 1_655
In1 Tm1 3.249294 1_555
In1 Tm9 3.264284 1_655
In1 Tm9 3.264284 1_555
In1 Pt1 3.279465 1_555
In1 Tm5 3.288875 1_555
In1 Tm5 3.288875 1_655
In1 Tm6 3.378204 1_655
In1 Tm6 3.378204 1_555
In2 Pt1 2.918070 1_545
In2 Tm2 3.249294 1_655
In2 Tm2 3.249294 1_555
In2 Tm8 3.264284 1_556
In2 Tm8 3.264284 1_656
In2 Pt2 3.279465 1_555
In2 Tm6 3.288875 1_655
In2 Tm6 3.288875 1_555
In2 Tm5 3.378204 1_545
In2 Tm5 3.378204 1_645
In3 Pt0 2.918070 1_565
In3 Tm3 3.249294 1_655
In3 Tm3 3.249294 1_555
In3 Tm8 3.264284 1_565
In3 Tm8 3.264284 1_665
In3 Pt3 3.279465 1_555
In3 Tm7 3.288875 1_655
In3 Tm7 3.288875 1_555
In3 Tm4 3.378204 1_565
In3 Tm4 3.378204 1_665
In4 Pt3 2.996813 1_555
In4 Tm8 3.166152 1_655
In4 Tm8 3.166152 1_555
In4 Tm3 3.168319 1_555
In4 Tm3 3.168319 1_655
In4 Tm4 3.303804 1_655
In4 Tm4 3.303804 1_555
In4 Tm2 3.341076 1_654
In4 Tm2 3.341076 1_554
In5 Pt2 2.996813 1_555
In5 Tm8 3.166152 1_666
In5 Tm8 3.166152 1_566
In5 Tm2 3.168319 1_555
In5 Tm2 3.168319 1_655
In5 Tm5 3.303804 1_655
In5 Tm5 3.303804 1_555
In5 Tm3 3.341076 1_556
In5 Tm3 3.341076 1_656
In6 Pt1 2.996813 1_545
In6 Tm9 3.166152 1_555
In6 Tm9 3.166152 1_655
In6 Tm1 3.168319 1_545
In6 Tm1 3.168319 1_645
In6 Tm6 3.303804 1_555
In6 Tm6 3.303804 1_655
In6 Tm0 3.341076 1_655
In6 Tm0 3.341076 1_555
In7 Pt0 2.996813 1_565
In7 Tm9 3.166152 1_555
In7 Tm9 3.166152 1_655
In7 Tm0 3.168319 1_665
In7 Tm0 3.168319 1_565
In7 Tm7 3.303804 1_555
In7 Tm7 3.303804 1_655
In7 Tm1 3.341076 1_655
In7 Tm1 3.341076 1_555
Pt0 Tm0 2.778380 1_555
Pt0 Tm0 2.778380 1_655
Pt0 Tm4 2.899860 1_555
Pt0 Tm4 2.899860 1_655
Pt0 Tm7 2.918033 1_645
Pt0 Tm7 2.918033 1_545
Pt1 Tm1 2.778380 1_655
Pt1 Tm1 2.778380 1_555
Pt1 Tm5 2.899860 1_555
Pt1 Tm5 2.899860 1_655
Pt1 Tm6 2.918033 1_665
Pt1 Tm6 2.918033 1_565
Pt2 Tm2 2.778380 1_655
Pt2 Tm2 2.778380 1_555
Pt2 Tm6 2.899860 1_655
Pt2 Tm6 2.899860 1_555
Pt2 Tm5 2.918033 1_555
Pt2 Tm5 2.918033 1_655
Pt3 Tm3 2.778380 1_655
Pt3 Tm3 2.778380 1_555
Pt3 Tm7 2.899860 1_655
Pt3 Tm7 2.899860 1_555
Pt3 Tm4 2.918033 1_555
Pt3 Tm4 2.918033 1_655
