# generated using pymatgen
data_Li4H7RhS3O13
_symmetry_space_group_name_H-M   'P 1'
_cell_length_a   7.06188791
_cell_length_b   7.06188791
_cell_length_c   7.06188796
_cell_angle_alpha   67.84658309
_cell_angle_beta   67.84658309
_cell_angle_gamma   67.84658548
_symmetry_Int_Tables_number   1
_chemical_formula_structural   Li4H7RhS3O13
_chemical_formula_sum   'Li4 H7 Rh1 S3 O13'
_cell_volume   290.55328583
_cell_formula_units_Z   1
loop_
 _symmetry_equiv_pos_site_id
 _symmetry_equiv_pos_as_xyz
  1  'x, y, z'
loop_
 _atom_site_type_symbol
 _atom_site_label
 _atom_site_symmetry_multiplicity
 _atom_site_fract_x
 _atom_site_fract_y
 _atom_site_fract_z
 _atom_site_occupancy
  Li  Li0  1  0.83763500  0.83763500  0.83763500  1
  Li  Li1  1  0.44646200  0.54033900  0.11257800  1
  Li  Li2  1  0.11257800  0.44646200  0.54033900  1
  Li  Li3  1  0.54033900  0.11257800  0.44646200  1
  H  H0  1  0.32707000  0.91002800  0.15651000  1
  H  H1  1  0.15651000  0.32707000  0.91002800  1
  H  H2  1  0.91002800  0.15651000  0.32707000  1
  H  H3  1  0.42770300  0.94586900  0.90748800  1
  H  H4  1  0.90748800  0.42770300  0.94586900  1
  H  H5  1  0.94586900  0.90748800  0.42770300  1
  H  H6  1  0.59542900  0.59542900  0.59542900  1
  Rh  Rh0  1  0.00396200  0.00396200  0.00396200  1
  S  S0  1  0.89198800  0.53832000  0.22408500  1
  S  S1  1  0.22408500  0.89198800  0.53832000  1
  S  S2  1  0.53832000  0.22408500  0.89198800  1
  O  O0  1  0.73278100  0.60399700  0.09214400  1
  O  O1  1  0.09214400  0.73278100  0.60399700  1
  O  O2  1  0.60399700  0.09214400  0.73278100  1
  O  O3  1  0.04612600  0.68075400  0.07915800  1
  O  O4  1  0.07915800  0.04612600  0.68075400  1
  O  O5  1  0.68075400  0.07915800  0.04612600  1
  O  O6  1  0.42568100  0.78776500  0.60996000  1
  O  O7  1  0.60996000  0.42568100  0.78776500  1
  O  O8  1  0.78776500  0.60996000  0.42568100  1
  O  O9  1  0.32320000  0.87886800  0.03324200  1
  O  O10  1  0.03324200  0.32320000  0.87886800  1
  O  O11  1  0.87886800  0.03324200  0.32320000  1
  O  O12  1  0.35495900  0.35495900  0.35495900  1
loop_
_geom_bond_atom_site_label_1
_geom_bond_atom_site_label_2
_geom_bond_distance
_geom_bond_site_symmetry_2
Li0 O0 2.045022 1_556
Li0 O1 2.045022 1_655
Li0 O2 2.045022 1_565
Li0 O4 2.354338 1_665
Li0 O3 2.354338 1_656
Li0 O5 2.354338 1_566
Li1 O12 1.781870 1_555
Li1 O9 2.138941 1_555
Li1 O0 2.174339 1_555
Li1 O7 2.438953 1_554
Li2 O12 1.781870 1_555
Li2 O10 2.138941 1_555
Li2 O1 2.174339 1_555
Li2 O8 2.438953 1_455
Li3 O12 1.781870 1_555
Li3 O11 2.138941 1_555
Li3 O2 2.174339 1_555
Li3 O6 2.438953 1_545
H0 O9 0.986858 1_555
H1 O10 0.986858 1_555
H2 O11 0.986858 1_555
H3 O9 1.004654 1_556
H3 O2 1.729011 1_565
H4 O10 1.004654 1_655
H4 O0 1.729011 1_556
H5 O11 1.004654 1_565
H5 O1 1.729011 1_655
H6 O8 1.441099 1_555
H6 O7 1.441099 1_555
H6 O6 1.441099 1_555
O0 S0 1.555056 1_555
O1 S1 1.555056 1_555
O2 S2 1.555056 1_555
O3 S0 1.566274 1_455
O3 Rh0 2.067091 1_565
O4 S1 1.566274 1_545
O4 Rh0 2.067091 1_556
O5 S2 1.566274 1_554
O5 Rh0 2.067091 1_655
O6 S1 1.515441 1_555
O7 S2 1.515441 1_555
O8 S0 1.515441 1_555
O9 Rh0 2.148811 1_565
O10 Rh0 2.148811 1_556
O11 Rh0 2.148811 1_655
