# generated using pymatgen
data_NaMg14Mn
_symmetry_space_group_name_H-M   'P 1'
_cell_length_a   6.39357139
_cell_length_b   6.39357086
_cell_length_c   10.24546203
_cell_angle_alpha   90.00000000
_cell_angle_beta   90.00000000
_cell_angle_gamma   120.00000267
_symmetry_Int_Tables_number   1
_chemical_formula_structural   NaMg14Mn
_chemical_formula_sum   'Na1 Mg14 Mn1'
_cell_volume   362.70134835
_cell_formula_units_Z   1
loop_
 _symmetry_equiv_pos_site_id
 _symmetry_equiv_pos_as_xyz
  1  'x, y, z'
loop_
 _atom_site_type_symbol
 _atom_site_label
 _atom_site_symmetry_multiplicity
 _atom_site_fract_x
 _atom_site_fract_y
 _atom_site_fract_z
 _atom_site_occupancy
  Na  Na0  1  0.16666700  0.33333300  0.62500000  1
  Mg  Mg0  1  0.16661956  0.83330928  0.12500000  1
  Mg  Mg1  1  0.17006509  0.83503204  0.62500000  1
  Mg  Mg2  1  0.66669072  0.33338044  0.12500000  1
  Mg  Mg3  1  0.66496796  0.32993491  0.62500000  1
  Mg  Mg4  1  0.66669072  0.83330928  0.12500000  1
  Mg  Mg5  1  0.66496796  0.83503204  0.62500000  1
  Mg  Mg6  1  0.33135116  0.16864884  0.36585600  1
  Mg  Mg7  1  0.33135116  0.16864884  0.88414400  1
  Mg  Mg8  1  0.33135116  0.66270332  0.36585600  1
  Mg  Mg9  1  0.33135116  0.66270332  0.88414400  1
  Mg  Mg10  1  0.83729668  0.16864884  0.36585600  1
  Mg  Mg11  1  0.83729668  0.16864884  0.88414400  1
  Mg  Mg12  1  0.83333300  0.66666700  0.37698199  1
  Mg  Mg13  1  0.83333300  0.66666700  0.87301801  1
  Mn  Mn0  1  0.16666700  0.33333300  0.12500000  1
loop_
_geom_bond_atom_site_label_1
_geom_bond_atom_site_label_2
_geom_bond_distance
_geom_bond_site_symmetry_2
Mg0 Mg8 3.088263 1_555
Mg0 Mg9 3.088263 1_554
Mg0 Mg6 3.088270 1_565
Mg0 Mg7 3.088270 1_564
Mg0 Mg12 3.173414 1_455
Mg0 Mg13 3.173414 1_454
Mg0 Mg2 3.196330 1_455
Mg0 Mg4 3.196331 1_455
Mg0 Mn0 3.196785 1_565
Mg0 Mn0 3.196785 1_555
Mg0 Mg2 3.197240 1_565
Mg0 Mg4 3.197241 1_555
Mg1 Mg13 3.151711 1_455
Mg1 Mg12 3.151711 1_455
Mg1 Mg3 3.164197 1_565
Mg1 Mg5 3.164197 1_555
Mg1 Na0 3.196841 1_555
Mg1 Na0 3.196841 1_565
Mg1 Mg3 3.229374 1_455
Mg1 Mg5 3.229375 1_455
Mg1 Mg8 3.234621 1_555
Mg1 Mg9 3.234621 1_555
Mg1 Mg6 3.234627 1_565
Mg1 Mg7 3.234627 1_565
Mg2 Mg7 3.088270 1_554
Mg2 Mg6 3.088270 1_555
Mg2 Mg4 3.196330 1_555
Mg2 Mn0 3.196786 1_655
Mg2 Mn0 3.196786 1_555
Mg2 Mg4 3.197240 1_545
Mg3 Mg5 3.164197 1_545
Mg3 Na0 3.196841 1_655
Mg3 Na0 3.196841 1_555
Mg3 Mg5 3.229374 1_555
Mg3 Mg6 3.234627 1_555
Mg3 Mg7 3.234627 1_555
Mg4 Mg9 3.088270 1_554
Mg4 Mg8 3.088270 1_555
Mg4 Mn0 3.196785 1_665
Mg4 Mn0 3.196785 1_555
Mg5 Na0 3.196841 1_555
Mg5 Na0 3.196841 1_665
Mg5 Mg9 3.234627 1_555
Mg5 Mg8 3.234627 1_555
Mg6 Mn0 3.068448 1_555
Mg6 Mg8 3.158772 1_555
Mg6 Na0 3.221058 1_555
Mg6 Mg8 3.234799 1_545
Mg7 Mn0 3.068448 1_556
Mg7 Mg9 3.158772 1_555
Mg7 Na0 3.221058 1_555
Mg7 Mg9 3.234799 1_545
Mg8 Mn0 3.068454 1_555
Mg8 Na0 3.221064 1_555
Mg9 Mn0 3.068454 1_556
Mg9 Na0 3.221064 1_555
Mg10 Mn0 3.068454 1_655
Mg10 Mg2 3.088263 1_555
Mg10 Mg4 3.088270 1_545
Mg10 Mg8 3.158772 1_655
Mg10 Mg6 3.158773 1_655
Mg10 Mg12 3.198892 1_545
Mg10 Mg12 3.198892 1_555
Mg10 Na0 3.221064 1_655
Mg10 Mg3 3.234621 1_555
Mg10 Mg5 3.234627 1_545
Mg10 Mg8 3.234799 1_545
Mg10 Mg6 3.234799 1_555
Mg11 Mn0 3.068454 1_656
Mg11 Mg2 3.088263 1_556
Mg11 Mg4 3.088270 1_546
Mg11 Mg9 3.158772 1_655
Mg11 Mg7 3.158773 1_655
Mg11 Mg13 3.198892 1_545
Mg11 Mg13 3.198892 1_555
Mg11 Na0 3.221064 1_655
Mg11 Mg3 3.234621 1_555
Mg11 Mg5 3.234627 1_545
Mg11 Mg9 3.234799 1_545
Mg11 Mg7 3.234799 1_555
Mg12 Mg5 3.151704 1_555
Mg12 Mg3 3.151711 1_555
Mg12 Mg4 3.173407 1_555
Mg12 Mg2 3.173413 1_555
Mg12 Mg6 3.198892 1_665
Mg12 Mg6 3.198892 1_555
Mg12 Mg8 3.198893 1_655
Mg12 Mg8 3.198893 1_555
Mg13 Mg5 3.151704 1_555
Mg13 Mg3 3.151711 1_555
Mg13 Mg4 3.173407 1_556
Mg13 Mg2 3.173413 1_556
Mg13 Mg7 3.198892 1_665
Mg13 Mg7 3.198892 1_555
Mg13 Mg9 3.198893 1_655
Mg13 Mg9 3.198893 1_555
