# generated using pymatgen
data_CaTiO2
_symmetry_space_group_name_H-M   'P 1'
_cell_length_a   9.23843780
_cell_length_b   9.23843780
_cell_length_c   9.86634256
_cell_angle_alpha   58.52895055
_cell_angle_beta   58.52895055
_cell_angle_gamma   19.21413128
_symmetry_Int_Tables_number   1
_chemical_formula_structural   CaTiO2
_chemical_formula_sum   'Ca4 Ti4 O8'
_cell_volume   235.09163232
_cell_formula_units_Z   4
loop_
 _symmetry_equiv_pos_site_id
 _symmetry_equiv_pos_as_xyz
  1  'x, y, z'
loop_
 _atom_site_type_symbol
 _atom_site_label
 _atom_site_symmetry_multiplicity
 _atom_site_fract_x
 _atom_site_fract_y
 _atom_site_fract_z
 _atom_site_occupancy
  Ca  Ca0  1  0.65333700  0.65333700  0.34960500  1
  Ca  Ca1  1  0.34666300  0.34666300  0.65039500  1
  Ca  Ca2  1  0.01109700  0.01109700  0.24279800  1
  Ca  Ca3  1  0.98890300  0.98890300  0.75720200  1
  Ti  Ti0  1  0.30186700  0.30186700  0.02832500  1
  Ti  Ti1  1  0.82056600  0.82056600  0.34337500  1
  Ti  Ti2  1  0.17943400  0.17943400  0.65662500  1
  Ti  Ti3  1  0.69813300  0.69813300  0.97167500  1
  O  O0  1  0.18331100  0.18331100  0.85086400  1
  O  O1  1  0.59361400  0.59361400  0.70465800  1
  O  O2  1  0.40638600  0.40638600  0.29534200  1
  O  O3  1  0.81668900  0.81668900  0.14913600  1
  O  O4  1  0.83312100  0.83312100  0.85059300  1
  O  O5  1  0.22278500  0.22278500  0.42339700  1
  O  O6  1  0.16687900  0.16687900  0.14940700  1
  O  O7  1  0.77721500  0.77721500  0.57660300  1
loop_
_geom_bond_atom_site_label_1
_geom_bond_atom_site_label_2
_geom_bond_distance
_geom_bond_site_symmetry_2
Ca0 O5 2.341664 1_655
Ca0 O5 2.341664 1_565
Ca0 O6 2.413191 1_565
Ca0 O6 2.413191 1_655
Ca0 O3 2.556336 1_555
Ca1 O7 2.341664 1_545
Ca1 O7 2.341664 1_455
Ca1 O4 2.413191 1_545
Ca1 O4 2.413191 1_455
Ca1 O0 2.556336 1_555
Ca2 O2 2.288578 1_545
Ca2 O2 2.288578 1_455
Ca2 O6 2.476690 1_555
Ca3 O1 2.288578 1_655
Ca3 O1 2.288578 1_565
Ca3 O4 2.476690 1_555
O0 Ti2 1.954745 1_555
O0 Ti3 2.052242 1_545
O0 Ti3 2.052242 1_455
O1 Ti2 2.064336 1_565
O1 Ti2 2.064336 1_655
O2 Ti1 2.064336 1_545
O2 Ti1 2.064336 1_455
O3 Ti1 1.954745 1_555
O3 Ti0 2.052242 1_565
O3 Ti0 2.052242 1_655
O4 Ti3 2.088921 1_555
O4 Ti0 2.172328 1_566
O4 Ti0 2.172328 1_656
O5 Ti2 1.998574 1_555
O5 Ti1 2.164334 1_545
O5 Ti1 2.164334 1_455
O6 Ti0 2.088921 1_555
O6 Ti3 2.172328 1_544
O6 Ti3 2.172328 1_454
O7 Ti1 1.998574 1_555
O7 Ti2 2.164334 1_565
O7 Ti2 2.164334 1_655
