# generated using pymatgen
data_ZrNF
_symmetry_space_group_name_H-M   'P 1'
_cell_length_a   5.32289674
_cell_length_b   5.37562037
_cell_length_c   5.39507715
_cell_angle_alpha   80.11868537
_cell_angle_beta   90.00000000
_cell_angle_gamma   90.00000000
_symmetry_Int_Tables_number   1
_chemical_formula_structural   ZrNF
_chemical_formula_sum   'Zr4 N4 F4'
_cell_volume   152.08396184
_cell_formula_units_Z   4
loop_
 _symmetry_equiv_pos_site_id
 _symmetry_equiv_pos_as_xyz
  1  'x, y, z'
loop_
 _atom_site_type_symbol
 _atom_site_label
 _atom_site_symmetry_multiplicity
 _atom_site_fract_x
 _atom_site_fract_y
 _atom_site_fract_z
 _atom_site_occupancy
  Zr  Zr0  1  0.47839705  0.67979479  0.71547409  1
  Zr  Zr1  1  0.52160295  0.32020521  0.28452591  1
  Zr  Zr2  1  0.97839705  0.32020521  0.78452591  1
  Zr  Zr3  1  0.02160295  0.67979479  0.21547409  1
  N  N0  1  0.24729184  0.46244643  0.50906159  1
  N  N1  1  0.75270816  0.53755357  0.49093841  1
  N  N2  1  0.74729184  0.53755357  0.99093841  1
  N  N3  1  0.25270816  0.46244643  0.00906159  1
  F  F0  1  0.17139098  0.95068776  0.84149732  1
  F  F1  1  0.82860902  0.04931224  0.15850268  1
  F  F2  1  0.67139098  0.04931224  0.65850268  1
  F  F3  1  0.32860902  0.95068776  0.34149732  1
loop_
_geom_bond_atom_site_label_1
_geom_bond_atom_site_label_2
_geom_bond_distance
_geom_bond_site_symmetry_2
N0 Zr2 2.109955 1_455
N0 Zr1 2.121795 1_555
N0 Zr0 2.136605 1_555
N0 Zr3 2.163780 1_555
N1 Zr3 2.109955 1_655
N1 Zr0 2.121795 1_555
N1 Zr1 2.136605 1_555
N1 Zr2 2.163780 1_555
N2 Zr0 2.109955 1_555
N2 Zr3 2.121795 1_656
N2 Zr2 2.136605 1_555
N2 Zr1 2.163780 1_556
N3 Zr1 2.109955 1_555
N3 Zr2 2.121795 1_454
N3 Zr3 2.136605 1_555
N3 Zr0 2.163780 1_554
F0 Zr2 2.210423 1_465
F0 Zr0 2.364982 1_555
F0 Zr3 2.412199 1_556
F1 Zr3 2.210423 1_645
F1 Zr1 2.364982 1_555
F1 Zr2 2.412199 1_554
F2 Zr0 2.210423 1_545
F2 Zr2 2.364982 1_555
F2 Zr1 2.412199 1_555
F3 Zr1 2.210423 1_565
F3 Zr3 2.364982 1_555
F3 Zr0 2.412199 1_555
