# generated using pymatgen
data_Mg16Al12Pt
_symmetry_space_group_name_H-M   'P 1'
_cell_length_a   8.96929400
_cell_length_b   8.96929400
_cell_length_c   9.04272067
_cell_angle_alpha   70.99598315
_cell_angle_beta   70.99598315
_cell_angle_gamma   108.72217296
_symmetry_Int_Tables_number   1
_chemical_formula_structural   Mg16Al12Pt
_chemical_formula_sum   'Mg16 Al12 Pt1'
_cell_volume   571.34245170
_cell_formula_units_Z   1
loop_
 _symmetry_equiv_pos_site_id
 _symmetry_equiv_pos_as_xyz
  1  'x, y, z'
loop_
 _atom_site_type_symbol
 _atom_site_label
 _atom_site_symmetry_multiplicity
 _atom_site_fract_x
 _atom_site_fract_y
 _atom_site_fract_z
 _atom_site_occupancy
  Mg  Mg0  1  0.99483500  0.99483500  0.00669300  1
  Mg  Mg1  1  0.69432300  0.69432300  0.70268700  1
  Mg  Mg2  1  0.01013600  0.01013600  0.64848700  1
  Mg  Mg3  1  0.61515800  0.61515800  0.33089000  1
  Mg  Mg4  1  0.33401600  0.58288100  0.01478800  1
  Mg  Mg5  1  0.40792600  0.71388600  0.59701400  1
  Mg  Mg6  1  0.99891300  0.31735000  0.39954000  1
  Mg  Mg7  1  0.00359200  0.35416400  0.00362900  1
  Mg  Mg8  1  0.29752000  0.67732100  0.30990200  1
  Mg  Mg9  1  0.60318200  0.00678700  0.67666800  1
  Mg  Mg10  1  0.00678700  0.60318200  0.67666800  1
  Mg  Mg11  1  0.67732100  0.29752000  0.30990200  1
  Mg  Mg12  1  0.35416400  0.00359200  0.00362900  1
  Mg  Mg13  1  0.31735000  0.99891300  0.39954000  1
  Mg  Mg14  1  0.71388600  0.40792600  0.59701400  1
  Mg  Mg15  1  0.58288100  0.33401600  0.01478800  1
  Al  Al0  1  0.18368400  0.18368400  0.19110100  1
  Al  Al1  1  0.36345100  0.36345100  0.82668500  1
  Al  Al2  1  0.65156700  0.83510000  0.97982700  1
  Al  Al3  1  0.18415600  0.36965700  0.63253700  1
  Al  Al4  1  0.81529000  0.00134500  0.36144600  1
  Al  Al5  1  0.63526700  0.00576800  0.17884700  1
  Al  Al6  1  0.82012700  0.19805900  0.81400600  1
  Al  Al7  1  0.19805900  0.82012700  0.81400600  1
  Al  Al8  1  0.00576800  0.63526700  0.17884700  1
  Al  Al9  1  0.00134500  0.81529000  0.36144600  1
  Al  Al10  1  0.36965700  0.18415600  0.63253700  1
  Al  Al11  1  0.83510000  0.65156700  0.97982700  1
  Pt  Pt0  1  0.32162600  0.32162600  0.35731500  1
loop_
_geom_bond_atom_site_label_1
_geom_bond_atom_site_label_2
_geom_bond_distance
_geom_bond_site_symmetry_2
Mg0 Mg2 3.152568 1_664
Mg0 Mg12 3.189376 1_665
Mg0 Mg7 3.189376 1_665
Mg0 Mg3 3.367458 1_555
Mg1 Mg14 3.053084 1_555
Mg1 Mg5 3.053084 1_555
Mg1 Mg2 3.054250 1_665
Mg1 Mg15 3.091462 1_556
Mg1 Mg4 3.091462 1_556
Mg1 Mg9 3.121641 1_565
Mg1 Mg10 3.121641 1_655
Mg2 Pt0 2.819793 1_555
Mg3 Pt0 2.941245 1_555
Mg3 Mg5 3.092172 1_555
Mg3 Mg8 3.125155 1_555
Mg4 Mg8 3.004586 1_555
Mg4 Mg7 3.070588 1_555
Mg4 Pt0 3.158918 1_555
Mg4 Mg5 3.327152 1_554
Mg5 Mg9 3.096446 1_565
Mg5 Mg8 3.138357 1_555
Mg6 Pt0 2.779361 1_655
Mg6 Mg8 3.095989 1_655
Mg8 Pt0 3.165622 1_555
Mg10 Mg7 3.055156 1_556
Mg10 Mg14 3.096446 1_455
Mg10 Mg5 3.162731 1_555
Mg10 Mg8 3.171705 1_555
Mg11 Mg15 3.004586 1_555
Mg11 Mg7 3.056655 1_655
Mg11 Mg13 3.095989 1_545
Mg11 Mg3 3.125155 1_555
Mg11 Mg14 3.138357 1_555
Mg11 Pt0 3.165622 1_555
Mg11 Mg9 3.171705 1_555
Mg11 Mg6 3.208735 1_555
Mg12 Mg9 3.055156 1_554
Mg12 Mg8 3.056655 1_545
Mg12 Mg15 3.070588 1_555
Mg13 Pt0 2.779361 1_565
Mg13 Mg5 3.112770 1_555
Mg13 Mg8 3.208735 1_555
Mg14 Mg3 3.092172 1_555
Mg14 Mg6 3.112770 1_555
Mg14 Mg9 3.162731 1_555
Mg14 Mg15 3.327152 1_556
Mg15 Pt0 3.158918 1_555
Al0 Pt0 2.600028 1_555
Al0 Al1 2.732930 1_554
Al0 Al4 2.746059 1_455
Al0 Al9 2.746059 1_545
Al0 Mg13 2.906779 1_545
Al0 Mg6 2.906779 1_455
Al0 Mg4 2.993817 1_555
Al0 Mg15 2.993817 1_555
Al0 Mg7 3.082526 1_555
Al0 Mg12 3.082526 1_555
Al0 Mg0 3.218103 1_445
Al1 Al3 2.739347 1_555
Al1 Al10 2.739347 1_555
Al1 Mg14 2.959053 1_555
Al1 Mg5 2.959053 1_555
Al1 Mg1 2.980509 1_555
Al1 Mg4 3.009632 1_556
Al1 Mg15 3.009632 1_556
Al1 Mg12 3.059769 1_556
Al1 Mg7 3.059769 1_556
Al1 Mg0 3.237992 1_446
Al2 Al6 2.705016 1_565
Al2 Al5 2.714772 1_566
Al2 Mg4 2.853308 1_556
Al2 Mg9 2.920505 1_565
Al2 Mg3 2.984764 1_556
Al2 Mg8 3.030995 1_556
Al2 Mg2 3.033948 1_665
Al2 Mg0 3.077855 1_556
Al2 Mg1 3.125338 1_555
Al3 Pt0 2.634493 1_555
Al3 Al6 2.713311 1_455
Al3 Mg8 2.860788 1_555
Al3 Mg5 2.936017 1_555
Al3 Mg10 3.057338 1_555
Al3 Mg7 3.148844 1_556
Al3 Mg0 3.289177 1_446
Al4 Al5 2.658954 1_555
Al4 Al9 2.712456 1_645
Al4 Mg9 2.892291 1_555
Al4 Mg1 2.941032 1_545
Al4 Mg6 2.978810 1_555
Al4 Mg7 3.110868 1_655
Al4 Mg0 3.115362 1_545
Al4 Mg5 3.137175 1_545
Al4 Mg11 3.238072 1_555
Al5 Al6 2.739357 1_554
Al5 Mg13 2.866858 1_545
Al5 Mg8 2.986491 1_545
Al5 Mg15 3.096311 1_555
Al5 Mg0 3.141150 1_545
Al5 Mg7 3.150937 1_655
Al5 Mg11 3.173576 1_555
Al5 Mg5 3.227161 1_545
Al5 Mg3 3.239300 1_545
Al6 Mg14 2.874935 1_555
Al6 Mg9 3.015003 1_555
Al6 Mg10 3.057840 1_655
Al6 Mg7 3.087174 1_656
Al6 Mg2 3.132341 1_655
Al6 Mg15 3.146924 1_556
Al6 Mg6 3.183673 1_555
Al6 Mg0 3.218295 1_546
Al7 Al8 2.739357 1_556
Al7 Mg5 2.874935 1_555
Al7 Mg10 3.015003 1_555
Al7 Mg9 3.057840 1_565
Al7 Mg12 3.087174 1_566
Al7 Mg2 3.132341 1_565
Al7 Mg4 3.146924 1_556
Al7 Mg13 3.183673 1_555
Al7 Mg0 3.218295 1_456
Al8 Al9 2.658954 1_555
Al8 Mg6 2.866858 1_455
Al8 Mg11 2.986491 1_455
Al8 Mg4 3.096311 1_555
Al8 Mg0 3.141150 1_455
Al8 Mg12 3.150937 1_565
Al8 Mg8 3.173576 1_555
Al8 Mg14 3.227161 1_455
Al8 Mg3 3.239300 1_455
Al9 Mg10 2.892291 1_555
Al9 Mg1 2.941032 1_455
Al9 Mg13 2.978810 1_555
Al9 Mg12 3.110868 1_565
Al9 Mg0 3.115362 1_455
Al9 Mg14 3.137175 1_455
Al9 Mg8 3.238072 1_555
Al10 Pt0 2.634493 1_555
Al10 Al7 2.713311 1_545
Al10 Mg11 2.860788 1_555
Al10 Mg14 2.936017 1_555
Al10 Mg9 3.057338 1_555
Al10 Mg12 3.148844 1_556
Al10 Mg0 3.289177 1_446
Al11 Al2 2.675688 1_555
Al11 Al7 2.705016 1_655
Al11 Al8 2.714772 1_656
Al11 Mg15 2.853308 1_556
Al11 Mg10 2.920505 1_655
Al11 Mg3 2.984764 1_556
Al11 Mg11 3.030995 1_556
Al11 Mg2 3.033948 1_665
Al11 Mg0 3.077855 1_556
Al11 Mg1 3.125338 1_555
