# generated using pymatgen
data_CdGeAsP
_symmetry_space_group_name_H-M   'P 1'
_cell_length_a   7.00914117
_cell_length_b   7.00914117
_cell_length_c   7.00914117
_cell_angle_alpha   130.25742708
_cell_angle_beta   129.80667327
_cell_angle_gamma   73.35612766
_symmetry_Int_Tables_number   1
_chemical_formula_structural   CdGeAsP
_chemical_formula_sum   'Cd2 Ge2 As2 P2'
_cell_volume   197.05937114
_cell_formula_units_Z   2
loop_
 _symmetry_equiv_pos_site_id
 _symmetry_equiv_pos_as_xyz
  1  'x, y, z'
loop_
 _atom_site_type_symbol
 _atom_site_label
 _atom_site_symmetry_multiplicity
 _atom_site_fract_x
 _atom_site_fract_y
 _atom_site_fract_z
 _atom_site_occupancy
  Cd  Cd0  1  0.86970000  0.61970000  0.25000000  1
  Cd  Cd1  1  0.63030000  0.88030000  0.75000000  1
  Ge  Ge0  1  0.36987000  0.11987000  0.25000000  1
  Ge  Ge1  1  0.13013000  0.38013000  0.75000000  1
  As  As0  1  0.25000000  0.47312700  0.22312700  1
  As  As1  1  0.75000000  0.02687300  0.27687300  1
  P  P0  1  0.46707400  0.25000000  0.71707400  1
  P  P1  1  0.03292600  0.75000000  0.78292600  1
loop_
_geom_bond_atom_site_label_1
_geom_bond_atom_site_label_2
_geom_bond_distance
_geom_bond_site_symmetry_2
Cd0 P1 2.610264 1_655
Cd0 P0 2.610264 1_554
Cd1 P0 2.610264 1_565
Cd1 P1 2.610264 1_655
Ge0 P1 2.377941 1_544
Ge0 P0 2.377941 1_555
Ge1 P1 2.377941 1_555
Ge1 P0 2.377941 1_555
As0 Ge0 2.465875 1_555
As0 Ge1 2.465875 1_554
As0 Cd0 2.649578 1_455
As0 Cd1 2.649578 1_555
As1 Ge0 2.465875 1_555
As1 Ge1 2.465875 1_655
As1 Cd0 2.649578 1_545
As1 Cd1 2.649578 1_544
