# generated using pymatgen
data_KNaV4O12
_symmetry_space_group_name_H-M   'P 1'
_cell_length_a   5.33515045
_cell_length_b   5.33515045
_cell_length_c   7.53145189
_cell_angle_alpha   90.00000000
_cell_angle_beta   90.00000000
_cell_angle_gamma   90.00000000
_symmetry_Int_Tables_number   1
_chemical_formula_structural   KNaV4O12
_chemical_formula_sum   'K1 Na1 V4 O12'
_cell_volume   214.37396869
_cell_formula_units_Z   1
loop_
 _symmetry_equiv_pos_site_id
 _symmetry_equiv_pos_as_xyz
  1  'x, y, z'
loop_
 _atom_site_type_symbol
 _atom_site_label
 _atom_site_symmetry_multiplicity
 _atom_site_fract_x
 _atom_site_fract_y
 _atom_site_fract_z
 _atom_site_occupancy
  K  K0  1  -0.00000000  0.00000000  0.50000000  1
  Na  Na0  1  0.50000000  0.50000000  0.00000000  1
  V  V0  1  -0.00000000  0.50000000  0.75138182  1
  V  V1  1  -0.00000000  0.50000000  0.24861818  1
  V  V2  1  0.50000000  -0.00000000  0.75138182  1
  V  V3  1  0.50000000  0.00000000  0.24861818  1
  O  O0  1  0.25206735  0.25206735  0.75452048  1
  O  O1  1  0.25206735  0.25206735  0.24547952  1
  O  O2  1  0.74793265  0.74793265  0.24547952  1
  O  O3  1  0.74793265  0.74793265  0.75452048  1
  O  O4  1  0.74793265  0.25206735  0.75452048  1
  O  O5  1  0.74793265  0.25206735  0.24547952  1
  O  O6  1  0.25206735  0.74793265  0.24547952  1
  O  O7  1  0.25206735  0.74793265  0.75452048  1
  O  O8  1  0.00000000  0.50000000  0.50000000  1
  O  O9  1  0.00000000  0.50000000  0.00000000  1
  O  O10  1  0.50000000  0.00000000  0.50000000  1
  O  O11  1  0.50000000  0.00000000  0.00000000  1
loop_
_geom_bond_atom_site_label_1
_geom_bond_atom_site_label_2
_geom_bond_distance
_geom_bond_site_symmetry_2
K0 O10 2.667575 1_555
K0 O8 2.667575 1_545
K0 O8 2.667575 1_555
K0 O10 2.667575 1_455
K0 O2 2.700297 1_445
K0 O1 2.700297 1_555
K0 O6 2.700297 1_545
K0 O5 2.700297 1_455
K0 O3 2.700297 1_445
K0 O0 2.700297 1_555
K0 O7 2.700297 1_545
K0 O4 2.700297 1_455
Na0 O3 2.630115 1_554
Na0 O0 2.630115 1_554
Na0 O4 2.630115 1_554
Na0 O7 2.630115 1_554
Na0 O5 2.630115 1_555
Na0 O2 2.630115 1_555
Na0 O6 2.630115 1_555
Na0 O1 2.630115 1_555
Na0 O9 2.667575 1_655
Na0 O11 2.667575 1_555
Na0 O11 2.667575 1_565
Na0 O9 2.667575 1_555
O0 V2 1.886473 1_555
O0 V0 1.886473 1_555
O1 V3 1.886473 1_555
O1 V1 1.886473 1_555
O2 V1 1.886473 1_655
O2 V3 1.886473 1_565
O3 V0 1.886473 1_655
O3 V2 1.886473 1_565
O4 V2 1.886473 1_555
O4 V0 1.886473 1_655
O5 V3 1.886473 1_555
O5 V1 1.886473 1_655
O6 V1 1.886473 1_555
O6 V3 1.886473 1_565
O7 V0 1.886473 1_555
O7 V2 1.886473 1_565
O8 V1 1.893270 1_555
O8 V0 1.893270 1_555
O9 V1 1.872456 1_555
O9 V0 1.872456 1_554
O10 V2 1.893270 1_555
O10 V3 1.893270 1_555
O11 V3 1.872456 1_555
O11 V2 1.872456 1_554
