# generated using pymatgen
data_Li3Cr(CoO3)2
_symmetry_space_group_name_H-M   'P 1'
_cell_length_a   2.95599807
_cell_length_b   9.90671722
_cell_length_c   7.78542980
_cell_angle_alpha   92.76931940
_cell_angle_beta   102.20738095
_cell_angle_gamma   99.08033295
_symmetry_Int_Tables_number   1
_chemical_formula_structural   Li3Cr(CoO3)2
_chemical_formula_sum   'Li6 Cr2 Co4 O12'
_cell_volume   219.25310923
_cell_formula_units_Z   2
loop_
 _symmetry_equiv_pos_site_id
 _symmetry_equiv_pos_as_xyz
  1  'x, y, z'
loop_
 _atom_site_type_symbol
 _atom_site_label
 _atom_site_symmetry_multiplicity
 _atom_site_fract_x
 _atom_site_fract_y
 _atom_site_fract_z
 _atom_site_occupancy
  Li  Li0  1  0.91859000  0.25086400  0.58988600  1
  Li  Li1  1  0.41275000  0.75110600  0.07757400  1
  Li  Li2  1  0.74486400  0.75237900  0.74877600  1
  Li  Li3  1  0.25622800  0.25370100  0.24809000  1
  Li  Li4  1  0.07474000  0.74865000  0.41927700  1
  Li  Li5  1  0.58457000  0.24953600  0.91852700  1
  Cr  Cr0  1  0.16459100  0.50086300  0.83356700  1
  Cr  Cr1  1  0.66516500  0.00118400  0.33393200  1
  Co  Co0  1  0.00124700  0.00485000  0.99954600  1
  Co  Co1  1  0.32954200  0.99732000  0.66801200  1
  Co  Co2  1  0.49402700  0.49801200  0.50039800  1
  Co  Co3  1  0.83652000  0.50404700  0.16717600  1
  O  O0  1  0.62497000  0.11849800  0.12770700  1
  O  O1  1  0.09212200  0.61254300  0.62238500  1
  O  O2  1  0.70540800  0.88368400  0.53984800  1
  O  O3  1  0.23804900  0.38949300  0.04514600  1
  O  O4  1  0.29361800  0.11147900  0.46178900  1
  O  O5  1  0.79122300  0.61599300  0.95192500  1
  O  O6  1  0.03694000  0.89082300  0.20603900  1
  O  O7  1  0.53831300  0.38593100  0.71547100  1
  O  O8  1  0.95677400  0.11603500  0.79548100  1
  O  O9  1  0.43288100  0.61661200  0.28692600  1
  O  O10  1  0.37454400  0.88608900  0.87205200  1
  O  O11  1  0.89755500  0.38550000  0.38059900  1
loop_
_geom_bond_atom_site_label_1
_geom_bond_atom_site_label_2
_geom_bond_distance
_geom_bond_site_symmetry_2
Li0 O7 2.108240 1_655
Li0 O8 2.129956 1_555
Li0 O4 2.144027 1_555
Li0 O11 2.152007 1_555
Li0 O7 2.196162 1_555
Li0 O4 2.224396 1_655
Li1 O5 2.112160 1_454
Li1 O10 2.130543 1_554
Li1 O6 2.144823 1_655
Li1 O9 2.151564 1_555
Li1 O5 2.192988 1_554
Li1 O6 2.229723 1_555
Li2 O10 2.117492 1_655
Li2 O5 2.125816 1_555
Li2 O2 2.126878 1_555
Li2 O10 2.157128 1_555
Li2 O1 2.164566 1_655
Li2 O1 2.198182 1_555
Li3 O3 2.121629 1_555
Li3 O0 2.122404 1_455
Li3 O11 2.150463 1_555
Li3 O0 2.152230 1_555
Li3 O11 2.159300 1_455
Li3 O4 2.227845 1_555
Li4 O2 2.120749 1_555
Li4 O1 2.124793 1_555
Li4 O9 2.152269 1_455
Li4 O2 2.153057 1_455
Li4 O9 2.159102 1_555
Li4 O6 2.224755 1_555
Li5 O8 2.112293 1_455
Li5 O7 2.125324 1_555
Li5 O0 2.126650 1_556
Li5 O8 2.158696 1_555
Li5 O3 2.164866 1_556
Li5 O3 2.200646 1_656
Cr0 O1 2.018616 1_555
Cr0 O3 2.019355 1_556
Cr0 O7 2.020563 1_455
Cr0 O7 2.021775 1_555
Cr0 O5 2.022584 1_555
Cr0 O5 2.023349 1_455
Cr1 O2 2.020542 1_545
Cr1 O0 2.021343 1_555
Cr1 O6 2.026653 1_545
Cr1 O4 2.026825 1_655
Cr1 O4 2.031513 1_555
Cr1 O6 2.032559 1_645
Co0 O8 1.970048 1_455
Co0 O6 2.003265 1_546
Co0 O0 2.029964 1_556
Co0 O10 2.054973 1_445
Co0 O0 2.063104 1_456
Co0 O10 2.085005 1_545
Co1 O10 1.970142 1_555
Co1 O4 2.002326 1_565
Co1 O2 2.030796 1_455
Co1 O8 2.055845 1_565
Co1 O2 2.062161 1_555
Co1 O8 2.083487 1_465
Co2 O11 1.950599 1_455
Co2 O1 1.966642 1_655
Co2 O7 2.046117 1_555
Co2 O9 2.074603 1_555
Co2 O11 2.079622 1_555
Co2 O1 2.097443 1_555
Co3 O9 1.950479 1_655
Co3 O3 1.967609 1_555
Co3 O5 2.046409 1_554
Co3 O11 2.073967 1_555
Co3 O9 2.079979 1_555
Co3 O3 2.096934 1_655
