# generated using pymatgen
data_Li9Mn2Co5O16
_symmetry_space_group_name_H-M   'P 1'
_cell_length_a   5.14005689
_cell_length_b   10.33696050
_cell_length_c   5.83025335
_cell_angle_alpha   104.80574527
_cell_angle_beta   71.83835254
_cell_angle_gamma   84.82185321
_symmetry_Int_Tables_number   1
_chemical_formula_structural   Li9Mn2Co5O16
_chemical_formula_sum   'Li9 Mn2 Co5 O16'
_cell_volume   279.66101351
_cell_formula_units_Z   1
loop_
 _symmetry_equiv_pos_site_id
 _symmetry_equiv_pos_as_xyz
  1  'x, y, z'
loop_
 _atom_site_type_symbol
 _atom_site_label
 _atom_site_symmetry_multiplicity
 _atom_site_fract_x
 _atom_site_fract_y
 _atom_site_fract_z
 _atom_site_occupancy
  Li  Li0  1  0.49927300  0.12215700  0.92834900  1
  Li  Li1  1  0.50525100  0.37183800  0.31231700  1
  Li  Li2  1  0.49811500  0.62050900  0.69146900  1
  Li  Li3  1  0.49422000  0.88148900  0.08144300  1
  Li  Li4  1  0.49733400  0.12394800  0.44355000  1
  Li  Li5  1  0.50218100  0.37283700  0.80749600  1
  Li  Li6  1  0.49874000  0.62300000  0.18179600  1
  Li  Li7  1  0.50524200  0.88467300  0.55607200  1
  Li  Li8  1  0.99839100  0.00214100  0.49811800  1
  Mn  Mn0  1  0.99212500  0.00219600  0.00333100  1
  Mn  Mn1  1  0.00462600  0.75226100  0.62709100  1
  Co  Co0  1  0.99855700  0.24877700  0.37079700  1
  Co  Co1  1  0.00800300  0.49823300  0.75063600  1
  Co  Co2  1  0.00333900  0.75102200  0.13254800  1
  Co  Co3  1  0.99769000  0.25034400  0.86503800  1
  Co  Co4  1  0.99946400  0.50022500  0.25040300  1
  O  O0  1  0.22634000  0.06581800  0.73763900  1
  O  O1  1  0.20182900  0.31253000  0.09414400  1
  O  O2  1  0.23338300  0.56906200  0.49551100  1
  O  O3  1  0.21902800  0.81370500  0.85124500  1
  O  O4  1  0.21318900  0.06607800  0.20622600  1
  O  O5  1  0.24314400  0.32327900  0.59691100  1
  O  O6  1  0.22561400  0.56815300  0.99999400  1
  O  O7  1  0.22534500  0.80347500  0.34754300  1
  O  O8  1  0.75037700  0.17345100  0.14122700  1
  O  O9  1  0.77758000  0.43562600  0.50670700  1
  O  O10  1  0.79123900  0.68370300  0.90563100  1
  O  O11  1  0.77063900  0.93005000  0.25989300  1
  O  O12  1  0.78562700  0.19789500  0.64895900  1
  O  O13  1  0.77051100  0.43425800  0.00959700  1
  O  O14  1  0.78778100  0.68959400  0.41260700  1
  O  O15  1  0.77582300  0.92767500  0.78570900  1
loop_
_geom_bond_atom_site_label_1
_geom_bond_atom_site_label_2
_geom_bond_distance
_geom_bond_site_symmetry_2
Li0 O4 2.066830 1_556
Li0 O8 2.067185 1_556
Li0 O0 2.081465 1_555
Li0 O15 2.155573 1_545
Li0 O1 2.169752 1_556
Li0 O12 2.190402 1_555
Li1 O5 1.993572 1_555
Li1 O9 2.110046 1_555
Li1 O8 2.119574 1_555
Li1 O13 2.151974 1_555
Li1 O2 2.166164 1_555
Li1 O1 2.331729 1_555
Li2 O2 2.056439 1_555
Li2 O9 2.088994 1_555
Li2 O6 2.134036 1_555
Li2 O3 2.147767 1_555
Li2 O14 2.155552 1_555
Li2 O10 2.278025 1_555
Li3 O11 2.033831 1_555
Li3 O15 2.070162 1_554
Li3 O4 2.096326 1_565
Li3 O7 2.114529 1_555
Li3 O10 2.225183 1_554
Li3 O3 2.274816 1_554
Li4 O8 2.052392 1_555
Li4 O0 2.104750 1_555
Li4 O11 2.143469 1_545
Li4 O5 2.143900 1_555
Li4 O12 2.248836 1_555
Li4 O4 2.323781 1_555
Li5 O12 2.019366 1_555
Li5 O5 2.088872 1_555
Li5 O13 2.117217 1_556
Li5 O1 2.159349 1_556
Li5 O6 2.164707 1_555
Li5 O9 2.168061 1_555
Li6 O7 2.036609 1_555
Li6 O6 2.044506 1_554
Li6 O13 2.097253 1_555
Li6 O10 2.103368 1_554
Li6 O2 2.149390 1_555
Li6 O14 2.334419 1_555
Li7 O11 2.030701 1_555
Li7 O0 2.058712 1_565
Li7 O14 2.174202 1_555
Li7 O15 2.211935 1_555
Li7 O3 2.219417 1_555
Li7 O7 2.244829 1_555
Li8 O4 2.021674 1_655
Li8 O12 2.038494 1_555
Li8 O15 2.082185 1_545
Li8 O7 2.087240 1_645
Li8 O0 2.108465 1_655
Li8 O11 2.120598 1_545
Mn0 O8 1.891293 1_555
Mn0 O4 1.923709 1_655
Mn0 O11 1.936884 1_545
Mn0 O0 1.944845 1_654
Mn0 O15 1.993439 1_544
Mn0 O3 2.001243 1_644
Mn1 O15 1.899014 1_455
Mn1 O7 1.902742 1_555
Mn1 O14 1.952153 1_455
Mn1 O2 1.962274 1_555
Mn1 O3 1.981355 1_555
Mn1 O10 1.990124 1_455
Co0 O12 1.880943 1_555
Co0 O4 1.934495 1_655
Co0 O1 1.935086 1_655
Co0 O9 1.977180 1_555
Co0 O5 2.144905 1_655
Co0 O8 2.176256 1_555
Co1 O5 1.906955 1_555
Co1 O13 1.927190 1_456
Co1 O2 1.930303 1_555
Co1 O10 1.958302 1_455
Co1 O6 2.123611 1_555
Co1 O9 2.135924 1_455
Co2 O11 1.936811 1_455
Co2 O6 1.946522 1_554
Co2 O7 1.955343 1_555
Co2 O14 1.956013 1_455
Co2 O3 1.969280 1_554
Co2 O10 1.997157 1_454
Co3 O12 1.919063 1_555
Co3 O13 1.963408 1_556
Co3 O1 1.963437 1_656
Co3 O0 1.974423 1_655
Co3 O5 2.036773 1_655
Co3 O8 2.097877 1_556
Co4 O9 1.888023 1_555
Co4 O6 1.894472 1_654
Co4 O1 1.953937 1_655
Co4 O14 1.984436 1_555
Co4 O13 2.122869 1_555
Co4 O2 2.167951 1_655
