# generated using pymatgen
data_K(GeO2)2
_symmetry_space_group_name_H-M   'P 1'
_cell_length_a   8.90168135
_cell_length_b   19.33534064
_cell_length_c   19.33534064
_cell_angle_alpha   119.99999998
_cell_angle_beta   90.00000000
_cell_angle_gamma   90.00000000
_symmetry_Int_Tables_number   1
_chemical_formula_structural   K(GeO2)2
_chemical_formula_sum   'K24 Ge48 O96'
_cell_volume   2882.08198522
_cell_formula_units_Z   24
loop_
 _symmetry_equiv_pos_site_id
 _symmetry_equiv_pos_as_xyz
  1  'x, y, z'
loop_
 _atom_site_type_symbol
 _atom_site_label
 _atom_site_symmetry_multiplicity
 _atom_site_fract_x
 _atom_site_fract_y
 _atom_site_fract_z
 _atom_site_occupancy
  K  K0  1  0.48597063  0.66666700  0.33333300  1
  K  K1  1  0.98597063  0.33333300  0.66666700  1
  K  K2  1  0.98541872  0.66666700  0.33333300  1
  K  K3  1  0.48541872  0.33333300  0.66666700  1
  K  K4  1  0.99824563  0.99656520  0.52310325  1
  K  K5  1  0.99824563  0.52653805  0.00343480  1
  K  K6  1  0.49824563  0.00343480  0.47689675  1
  K  K7  1  0.99824563  0.47689675  0.47346195  1
  K  K8  1  0.49824563  0.47346195  0.99656520  1
  K  K9  1  0.49824563  0.52310325  0.52653805  1
  K  K10  1  0.99297970  0.66776987  0.85138911  1
  K  K11  1  0.99297970  0.18361924  0.33223013  1
  K  K12  1  0.49297970  0.33223013  0.14861089  1
  K  K13  1  0.99297970  0.14861089  0.81638076  1
  K  K14  1  0.49297970  0.81638076  0.66776987  1
  K  K15  1  0.49297970  0.85138911  0.18361924  1
  K  K16  1  0.99320113  0.80224261  0.13622729  1
  K  K17  1  0.99320113  0.33398468  0.19775739  1
  K  K18  1  0.49320113  0.19775739  0.86377271  1
  K  K19  1  0.99320113  0.86377271  0.66601532  1
  K  K20  1  0.49320113  0.66601532  0.80224261  1
  K  K21  1  0.49320113  0.13622729  0.33398468  1
  K  K22  1  0.00000072  -0.00000000  0.00000000  1
  K  K23  1  0.50000072  -0.00000000  0.00000000  1
  Ge  Ge0  1  0.78476862  0.98678594  0.15396854  1
  Ge  Ge1  1  0.78476862  0.16718260  0.01321406  1
  Ge  Ge2  1  0.28476862  0.01321406  0.84603146  1
  Ge  Ge3  1  0.78476862  0.84603146  0.83281740  1
  Ge  Ge4  1  0.28476862  0.83281740  0.98678594  1
  Ge  Ge5  1  0.28476862  0.15396854  0.16718260  1
  Ge  Ge6  1  0.69231160  0.66465393  0.99995306  1
  Ge  Ge7  1  0.69231160  0.33529913  0.33534607  1
  Ge  Ge8  1  0.19231160  0.33534607  0.00004694  1
  Ge  Ge9  1  0.69231160  0.00004694  0.66470087  1
  Ge  Ge10  1  0.19231160  0.66470087  0.66465393  1
  Ge  Ge11  1  0.19231160  0.99995306  0.33529913  1
  Ge  Ge12  1  0.69959579  0.49985651  0.82355617  1
  Ge  Ge13  1  0.69959579  0.32369966  0.50014349  1
  Ge  Ge14  1  0.19959579  0.50014349  0.17644383  1
  Ge  Ge15  1  0.69959579  0.17644383  0.67630034  1
  Ge  Ge16  1  0.19959579  0.67630034  0.49985651  1
  Ge  Ge17  1  0.19959579  0.82355617  0.32369966  1
  Ge  Ge18  1  0.67216054  0.82716821  0.98626982  1
  Ge  Ge19  1  0.67216054  0.15910161  0.17283179  1
  Ge  Ge20  1  0.17216054  0.17283179  0.01373018  1
  Ge  Ge21  1  0.67216054  0.01373018  0.84089839  1
  Ge  Ge22  1  0.17216054  0.84089839  0.82716821  1
  Ge  Ge23  1  0.17216054  0.98626982  0.15910161  1
  Ge  Ge24  1  0.81381210  0.82511715  0.31995389  1
  Ge  Ge25  1  0.81381210  0.49483674  0.17488285  1
  Ge  Ge26  1  0.31381210  0.17488285  0.68004611  1
  Ge  Ge27  1  0.81381210  0.68004611  0.50516326  1
  Ge  Ge28  1  0.31381210  0.50516326  0.82511715  1
  Ge  Ge29  1  0.31381210  0.31995389  0.49483674  1
  Ge  Ge30  1  0.79096123  0.66983047  0.67051430  1
  Ge  Ge31  1  0.79096123  0.00068383  0.33016953  1
  Ge  Ge32  1  0.29096123  0.33016953  0.32948570  1
  Ge  Ge33  1  0.79096123  0.32948570  0.99931617  1
  Ge  Ge34  1  0.29096123  0.99931617  0.66983047  1
  Ge  Ge35  1  0.29096123  0.67051430  0.00068383  1
  Ge  Ge36  1  0.81312254  0.49366353  0.65793077  1
  Ge  Ge37  1  0.81312254  0.16426724  0.50633647  1
  Ge  Ge38  1  0.31312254  0.50633647  0.34206923  1
  Ge  Ge39  1  0.81312254  0.34206923  0.83573276  1
  Ge  Ge40  1  0.31312254  0.83573276  0.49366353  1
  Ge  Ge41  1  0.31312254  0.65793077  0.16426724  1
  Ge  Ge42  1  0.69994730  0.65296506  0.16405142  1
  Ge  Ge43  1  0.69994730  0.51108636  0.34703494  1
  Ge  Ge44  1  0.19994730  0.34703494  0.83594858  1
  Ge  Ge45  1  0.69994730  0.83594858  0.48891364  1
  Ge  Ge46  1  0.19994730  0.48891364  0.65296506  1
  Ge  Ge47  1  0.19994730  0.16405142  0.51108636  1
  O  O0  1  0.71712550  0.72768395  0.27129077  1
  O  O1  1  0.71712550  0.54360682  0.27231605  1
  O  O2  1  0.21712550  0.27231605  0.72870923  1
  O  O3  1  0.71712550  0.72870923  0.45639318  1
  O  O4  1  0.21712550  0.45639318  0.72768395  1
  O  O5  1  0.21712550  0.27129077  0.54360682  1
  O  O6  1  0.71587392  0.56993014  0.64195170  1
  O  O7  1  0.71587392  0.07202156  0.43006986  1
  O  O8  1  0.21587392  0.43006986  0.35804830  1
  O  O9  1  0.71587392  0.35804830  0.92797844  1
  O  O10  1  0.21587392  0.92797844  0.56993014  1
  O  O11  1  0.21587392  0.64195170  0.07202156  1
  O  O12  1  0.76356416  0.69490970  0.10129062  1
  O  O13  1  0.76356416  0.40638093  0.30509030  1
  O  O14  1  0.26356416  0.30509030  0.89870938  1
  O  O15  1  0.76356416  0.89870938  0.59361907  1
  O  O16  1  0.26356416  0.59361907  0.69490970  1
  O  O17  1  0.26356416  0.10129062  0.40638093  1
  O  O18  1  0.72615381  0.89752660  0.29588704  1
  O  O19  1  0.72615381  0.39836043  0.10247340  1
  O  O20  1  0.22615381  0.10247340  0.70411296  1
  O  O21  1  0.72615381  0.70411296  0.60163957  1
  O  O22  1  0.22615381  0.60163957  0.89752660  1
  O  O23  1  0.22615381  0.29588704  0.39836043  1
  O  O24  1  0.00531368  0.47298541  0.61599912  1
  O  O25  1  0.00531368  0.14301371  0.52701459  1
  O  O26  1  0.50531368  0.52701459  0.38400088  1
  O  O27  1  0.00531368  0.38400088  0.85698629  1
  O  O28  1  0.50531368  0.85698629  0.47298541  1
  O  O29  1  0.50531368  0.61599912  0.14301371  1
  O  O30  1  0.76428110  0.73127781  0.96496327  1
  O  O31  1  0.76428110  0.23368545  0.26872219  1
  O  O32  1  0.26428110  0.26872219  0.03503673  1
  O  O33  1  0.76428110  0.03503673  0.76631455  1
  O  O34  1  0.26428110  0.76631455  0.73127781  1
  O  O35  1  0.26428110  0.96496327  0.23368545  1
  O  O36  1  0.81721424  0.86507077  0.42828388  1
  O  O37  1  0.81721424  0.56321311  0.13492923  1
  O  O38  1  0.31721424  0.13492923  0.57171612  1
  O  O39  1  0.81721424  0.57171612  0.43678689  1
  O  O40  1  0.31721424  0.43678689  0.86507077  1
  O  O41  1  0.31721424  0.42828388  0.56321311  1
  O  O42  1  0.97649216  0.94820717  0.13738147  1
  O  O43  1  0.97649216  0.18917430  0.05179283  1
  O  O44  1  0.47649216  0.05179283  0.86261853  1
  O  O45  1  0.97649216  0.86261853  0.81082570  1
  O  O46  1  0.47649216  0.81082570  0.94820717  1
  O  O47  1  0.47649216  0.13738147  0.18917430  1
  O  O48  1  0.72502835  0.74133796  0.77311583  1
  O  O49  1  0.72502835  0.03177787  0.25866204  1
  O  O50  1  0.22502835  0.25866204  0.22688417  1
  O  O51  1  0.72502835  0.22688417  0.96822213  1
  O  O52  1  0.22502835  0.96822213  0.74133796  1
  O  O53  1  0.22502835  0.77311583  0.03177787  1
  O  O54  1  0.71284521  0.39669803  0.60778237  1
  O  O55  1  0.71284521  0.21108434  0.60330197  1
  O  O56  1  0.21284521  0.60330197  0.39221763  1
  O  O57  1  0.71284521  0.39221763  0.78891566  1
  O  O58  1  0.21284521  0.78891566  0.39669803  1
  O  O59  1  0.21284521  0.60778237  0.21108434  1
  O  O60  1  0.99172462  0.66460756  0.67735812  1
  O  O61  1  0.99172462  0.01275055  0.33539244  1
  O  O62  1  0.49172462  0.33539244  0.32264188  1
  O  O63  1  0.99172462  0.32264188  0.98724945  1
  O  O64  1  0.49172462  0.98724945  0.66460756  1
  O  O65  1  0.49172462  0.67735812  0.01275055  1
  O  O66  1  0.74769424  0.55959149  0.93101773  1
  O  O67  1  0.74769424  0.37142624  0.44040851  1
  O  O68  1  0.24769424  0.44040851  0.06898227  1
  O  O69  1  0.74769424  0.06898227  0.62857376  1
  O  O70  1  0.24769424  0.62857376  0.55959149  1
  O  O71  1  0.24769424  0.93101773  0.37142624  1
  O  O72  1  0.66715707  0.89835413  0.09467824  1
  O  O73  1  0.66715707  0.19632411  0.10164587  1
  O  O74  1  0.16715707  0.10164587  0.90532176  1
  O  O75  1  0.66715707  0.90532176  0.80367589  1
  O  O76  1  0.16715707  0.80367589  0.89835413  1
  O  O77  1  0.16715707  0.09467824  0.19632411  1
  O  O78  1  0.00850747  0.80441360  0.28221199  1
  O  O79  1  0.00850747  0.47779839  0.19558640  1
  O  O80  1  0.50850747  0.19558640  0.71778801  1
  O  O81  1  0.00850747  0.71778801  0.52220161  1
  O  O82  1  0.50850747  0.52220161  0.80441360  1
  O  O83  1  0.50850747  0.28221199  0.47779839  1
  O  O84  1  0.77059751  0.87779366  0.93897037  1
  O  O85  1  0.77059751  0.06117671  0.12220634  1
  O  O86  1  0.27059751  0.12220634  0.06102963  1
  O  O87  1  0.77059751  0.06102963  0.93882329  1
  O  O88  1  0.27059751  0.93882329  0.87779366  1
  O  O89  1  0.27059751  0.93897037  0.06117671  1
  O  O90  1  0.82422075  0.52890429  0.76600439  1
  O  O91  1  0.82422075  0.23710010  0.47109571  1
  O  O92  1  0.32422075  0.47109571  0.23399561  1
  O  O93  1  0.82422075  0.23399561  0.76289990  1
  O  O94  1  0.32422075  0.76289990  0.52890429  1
  O  O95  1  0.32422075  0.76600439  0.23710010  1
loop_
_geom_bond_atom_site_label_1
_geom_bond_atom_site_label_2
_geom_bond_distance
_geom_bond_site_symmetry_2
K0 O0 2.912081 1_555
K0 O3 2.912093 1_555
K0 O1 2.912093 1_555
K0 O59 3.178577 1_555
K0 O58 3.178577 1_555
K0 O56 3.178588 1_555
K0 O29 3.305433 1_555
K0 O28 3.305438 1_555
K0 O26 3.305451 1_555
K1 O2 2.912081 1_655
K1 O5 2.912093 1_655
K1 O4 2.912093 1_655
K1 O57 3.178577 1_555
K1 O55 3.178577 1_555
K1 O54 3.178588 1_555
K1 O27 3.305433 1_655
K1 O25 3.305438 1_655
K1 O24 3.305451 1_655
K2 O59 2.879369 1_655
K2 O58 2.879369 1_655
K2 O56 2.879381 1_655
K2 O0 3.154364 1_555
K2 O3 3.154375 1_555
K2 O1 3.154375 1_555
K2 O78 3.278023 1_655
K2 O79 3.278037 1_655
K2 O81 3.278041 1_655
K3 O57 2.879369 1_555
K3 O55 2.879369 1_555
K3 O54 2.879381 1_555
K3 O2 3.154364 1_555
K3 O5 3.154375 1_555
K3 O4 3.154375 1_555
K3 O80 3.278023 1_555
K3 O82 3.278037 1_555
K3 O83 3.278041 1_555
K4 O10 2.744472 1_655
K4 O36 2.785866 1_555
K4 O25 2.795294 1_665
K4 O69 2.870239 1_565
K5 O11 2.744472 1_655
K5 O37 2.785866 1_555
K5 O27 2.795294 1_654
K5 O66 2.870239 1_554
K6 O7 2.744472 1_555
K6 O38 2.785866 1_555
K6 O28 2.795294 1_545
K6 O71 2.870239 1_545
K7 O8 2.744472 1_655
K7 O39 2.785866 1_555
K7 O24 2.795294 1_655
K7 O67 2.870239 1_555
K8 O9 2.744472 1_555
K8 O40 2.785866 1_555
K8 O29 2.795294 1_556
K8 O68 2.870239 1_556
K9 O6 2.744472 1_555
K9 O41 2.785866 1_555
K9 O26 2.795294 1_555
K9 O70 2.870239 1_555
K10 O76 2.783451 1_655
K10 O90 2.785467 1_555
K10 O30 2.788938 1_555
K10 O22 2.807084 1_655
K11 O77 2.783451 1_655
K11 O91 2.785467 1_555
K11 O31 2.788937 1_555
K11 O23 2.807084 1_655
K12 O73 2.783451 1_555
K12 O92 2.785467 1_555
K12 O32 2.788938 1_555
K12 O19 2.807084 1_555
K13 O74 2.783451 1_655
K13 O93 2.785467 1_555
K13 O33 2.788938 1_555
K13 O20 2.807084 1_655
K14 O75 2.783451 1_555
K14 O94 2.785467 1_555
K14 O34 2.788937 1_555
K14 O21 2.807084 1_555
K15 O72 2.783451 1_555
K15 O95 2.785467 1_555
K15 O35 2.788938 1_555
K15 O18 2.807084 1_555
K16 O53 2.741733 1_655
K16 O12 2.745893 1_555
K16 O78 2.805222 1_655
K16 O42 2.815115 1_555
K17 O50 2.741733 1_655
K17 O13 2.745893 1_555
K17 O79 2.805222 1_655
K17 O43 2.815115 1_555
K18 O51 2.741733 1_555
K18 O14 2.745893 1_555
K18 O80 2.805222 1_555
K18 O44 2.815115 1_555
K19 O52 2.741733 1_655
K19 O15 2.745893 1_555
K19 O81 2.805222 1_655
K19 O45 2.815115 1_555
K20 O48 2.741733 1_555
K20 O16 2.745893 1_555
K20 O82 2.805222 1_555
K20 O46 2.815115 1_555
K21 O49 2.741733 1_555
K21 O17 2.745893 1_555
K21 O83 2.805222 1_555
K21 O47 2.815115 1_555
K22 O87 2.890942 1_454
K22 O84 2.890942 1_444
K22 O85 2.890942 1_455
K22 O89 3.160638 1_545
K22 O86 3.160638 1_555
K22 O88 3.160638 1_544
K22 O42 3.280671 1_445
K22 O43 3.280671 1_455
K22 O45 3.280671 1_444
K23 O89 2.890942 1_545
K23 O86 2.890942 1_555
K23 O88 2.890942 1_544
K23 O87 3.160638 1_554
K23 O84 3.160638 1_544
K23 O85 3.160638 1_555
K23 O44 3.280671 1_554
K23 O46 3.280671 1_544
K23 O47 3.280671 1_555
Ge0 O42 1.825579 1_555
Ge0 O85 1.829025 1_565
Ge0 O72 1.836778 1_555
Ge0 O49 1.837476 1_565
Ge1 O43 1.825579 1_555
Ge1 O87 1.829025 1_554
Ge1 O73 1.836778 1_555
Ge1 O51 1.837476 1_554
Ge2 O44 1.825579 1_555
Ge2 O88 1.829025 1_545
Ge2 O74 1.836778 1_555
Ge2 O52 1.837476 1_545
Ge3 O45 1.825579 1_555
Ge3 O84 1.829025 1_555
Ge3 O75 1.836778 1_555
Ge3 O48 1.837476 1_555
Ge4 O46 1.825579 1_555
Ge4 O89 1.829025 1_556
Ge4 O76 1.836778 1_555
Ge4 O53 1.837476 1_556
Ge5 O47 1.825579 1_555
Ge5 O86 1.829025 1_555
Ge5 O77 1.836778 1_555
Ge5 O50 1.837476 1_555
Ge6 O65 1.802502 1_556
Ge6 O30 1.843665 1_555
Ge6 O12 1.854050 1_556
Ge6 O66 1.854358 1_555
Ge7 O62 1.802502 1_555
Ge7 O31 1.843665 1_555
Ge7 O13 1.854051 1_555
Ge7 O67 1.854358 1_555
Ge8 O63 1.802502 1_454
Ge8 O32 1.843665 1_555
Ge8 O14 1.854050 1_554
Ge8 O68 1.854358 1_555
Ge9 O64 1.802502 1_545
Ge9 O33 1.843665 1_555
Ge9 O15 1.854050 1_545
Ge9 O69 1.854358 1_555
Ge10 O60 1.802502 1_455
Ge10 O34 1.843665 1_555
Ge10 O16 1.854051 1_555
Ge10 O70 1.854358 1_555
Ge11 O61 1.802502 1_465
Ge11 O35 1.843665 1_555
Ge11 O17 1.854050 1_565
Ge11 O71 1.854358 1_555
Ge12 O82 1.837662 1_555
Ge12 O57 1.843930 1_555
Ge12 O90 1.846465 1_555
Ge12 O66 1.853309 1_555
Ge13 O83 1.837662 1_555
Ge13 O54 1.843930 1_555
Ge13 O91 1.846465 1_555
Ge13 O67 1.853309 1_555
Ge14 O79 1.837662 1_555
Ge14 O59 1.843930 1_555
Ge14 O92 1.846465 1_555
Ge14 O68 1.853309 1_555
Ge15 O80 1.837662 1_555
Ge15 O55 1.843930 1_555
Ge15 O93 1.846465 1_555
Ge15 O69 1.853309 1_555
Ge16 O81 1.837662 1_555
Ge16 O56 1.843930 1_555
Ge16 O94 1.846465 1_555
Ge16 O70 1.853309 1_555
Ge17 O78 1.837662 1_555
Ge17 O58 1.843930 1_555
Ge17 O95 1.846465 1_555
Ge17 O71 1.853309 1_555
Ge18 O72 1.845282 1_556
Ge18 O46 1.855455 1_555
Ge18 O84 1.859465 1_555
Ge18 O30 1.875082 1_555
Ge19 O73 1.845282 1_555
Ge19 O47 1.855455 1_555
Ge19 O85 1.859465 1_555
Ge19 O31 1.875082 1_555
Ge20 O74 1.845282 1_554
Ge20 O43 1.855455 1_455
Ge20 O86 1.859465 1_555
Ge20 O32 1.875082 1_555
Ge21 O75 1.845282 1_545
Ge21 O44 1.855455 1_555
Ge21 O87 1.859465 1_555
Ge21 O33 1.875082 1_555
Ge22 O76 1.845282 1_555
Ge22 O45 1.855455 1_455
Ge22 O88 1.859465 1_555
Ge22 O34 1.875082 1_555
Ge23 O77 1.845282 1_565
Ge23 O42 1.855455 1_455
Ge23 O89 1.859465 1_555
Ge23 O35 1.875082 1_555
Ge24 O36 1.834918 1_555
Ge24 O0 1.844609 1_555
Ge24 O78 1.845088 1_655
Ge24 O18 1.853941 1_555
Ge25 O37 1.834918 1_555
Ge25 O1 1.844609 1_555
Ge25 O79 1.845088 1_655
Ge25 O19 1.853941 1_555
Ge26 O38 1.834918 1_555
Ge26 O2 1.844609 1_555
Ge26 O80 1.845088 1_555
Ge26 O20 1.853941 1_555
Ge27 O39 1.834918 1_555
Ge27 O3 1.844609 1_555
Ge27 O81 1.845088 1_655
Ge27 O21 1.853941 1_555
Ge28 O40 1.834918 1_555
Ge28 O4 1.844609 1_555
Ge28 O82 1.845088 1_555
Ge28 O22 1.853941 1_555
Ge29 O41 1.834918 1_555
Ge29 O5 1.844609 1_555
Ge29 O83 1.845088 1_555
Ge29 O23 1.853941 1_555
Ge30 O60 1.798586 1_555
Ge30 O6 1.848270 1_555
Ge30 O21 1.851597 1_555
Ge30 O48 1.857100 1_555
Ge31 O61 1.798586 1_555
Ge31 O7 1.848270 1_555
Ge31 O18 1.851597 1_545
Ge31 O49 1.857100 1_555
Ge32 O62 1.798586 1_555
Ge32 O8 1.848270 1_555
Ge32 O23 1.851597 1_555
Ge32 O50 1.857100 1_555
Ge33 O63 1.798586 1_555
Ge33 O9 1.848270 1_555
Ge33 O19 1.851597 1_556
Ge33 O51 1.857100 1_555
Ge34 O64 1.798586 1_555
Ge34 O10 1.848270 1_555
Ge34 O20 1.851597 1_565
Ge34 O52 1.857100 1_555
Ge35 O65 1.798586 1_555
Ge35 O11 1.848270 1_555
Ge35 O22 1.851597 1_554
Ge35 O53 1.857100 1_555
Ge36 O90 1.848455 1_555
Ge36 O24 1.849311 1_655
Ge36 O54 1.853150 1_555
Ge36 O6 1.864142 1_555
Ge37 O91 1.848455 1_555
Ge37 O25 1.849311 1_655
Ge37 O55 1.853150 1_555
Ge37 O7 1.864142 1_555
Ge38 O92 1.848455 1_555
Ge38 O26 1.849311 1_555
Ge38 O56 1.853150 1_555
Ge38 O8 1.864142 1_555
Ge39 O93 1.848455 1_555
Ge39 O27 1.849311 1_655
Ge39 O57 1.853150 1_555
Ge39 O9 1.864142 1_555
Ge40 O94 1.848455 1_555
Ge40 O28 1.849311 1_555
Ge40 O58 1.853150 1_555
Ge40 O10 1.864142 1_555
Ge41 O95 1.848455 1_555
Ge41 O29 1.849311 1_555
Ge41 O59 1.853150 1_555
Ge41 O11 1.864142 1_555
Ge42 O29 1.840483 1_555
Ge42 O0 1.847808 1_555
Ge42 O12 1.853426 1_555
Ge42 O37 1.855027 1_555
Ge43 O26 1.840483 1_555
Ge43 O1 1.847808 1_555
Ge43 O13 1.853426 1_555
Ge43 O39 1.855027 1_555
Ge44 O27 1.840483 1_555
Ge44 O2 1.847808 1_555
Ge44 O14 1.853426 1_555
Ge44 O40 1.855027 1_555
Ge45 O28 1.840483 1_555
Ge45 O3 1.847808 1_555
Ge45 O15 1.853426 1_555
Ge45 O36 1.855027 1_555
Ge46 O24 1.840483 1_555
Ge46 O4 1.847808 1_555
Ge46 O16 1.853426 1_555
Ge46 O41 1.855027 1_555
Ge47 O25 1.840483 1_555
Ge47 O5 1.847808 1_555
Ge47 O17 1.853426 1_555
Ge47 O38 1.855027 1_555
