# generated using pymatgen
data_Li9Mn2Co5O16
_symmetry_space_group_name_H-M   'P 1'
_cell_length_a   2.96148100
_cell_length_b   9.86055782
_cell_length_c   10.01269744
_cell_angle_alpha   78.53860386
_cell_angle_beta   87.65856793
_cell_angle_gamma   87.43429047
_symmetry_Int_Tables_number   1
_chemical_formula_structural   Li9Mn2Co5O16
_chemical_formula_sum   'Li9 Mn2 Co5 O16'
_cell_volume   286.11892673
_cell_formula_units_Z   1
loop_
 _symmetry_equiv_pos_site_id
 _symmetry_equiv_pos_as_xyz
  1  'x, y, z'
loop_
 _atom_site_type_symbol
 _atom_site_label
 _atom_site_symmetry_multiplicity
 _atom_site_fract_x
 _atom_site_fract_y
 _atom_site_fract_z
 _atom_site_occupancy
  Li  Li0  1  0.00738300  0.26058200  0.11999600  1
  Li  Li1  1  0.48996300  0.74415800  0.12975500  1
  Li  Li2  1  0.49476600  0.25363300  0.37354200  1
  Li  Li3  1  0.00071800  0.75025700  0.37460400  1
  Li  Li4  1  0.97930500  0.24372600  0.62159300  1
  Li  Li5  1  0.49574400  0.75041400  0.62146400  1
  Li  Li6  1  0.52022000  0.25739400  0.88018400  1
  Li  Li7  1  0.00673700  0.74522500  0.88240900  1
  Li  Li8  1  0.48373600  0.48969500  0.00018100  1
  Mn  Mn0  1  0.99150500  0.99631600  0.00219200  1
  Mn  Mn1  1  0.01036700  0.50006200  0.75505800  1
  Co  Co0  1  0.51246300  0.00107000  0.25206100  1
  Co  Co1  1  0.99084300  0.50044700  0.24128700  1
  Co  Co2  1  0.00579400  0.00417800  0.49747700  1
  Co  Co3  1  0.51178400  0.50373800  0.49786100  1
  Co  Co4  1  0.49204800  0.99849100  0.74727800  1
  O  O0  1  0.51793300  0.11290800  0.06938900  1
  O  O1  1  0.99821600  0.61464600  0.08502700  1
  O  O2  1  0.04025200  0.11535000  0.31486200  1
  O  O3  1  0.52116800  0.61171000  0.31878000  1
  O  O4  1  0.48798600  0.12151800  0.56060900  1
  O  O5  1  0.04130200  0.61393900  0.56554800  1
  O  O6  1  0.99927300  0.11038200  0.81769700  1
  O  O7  1  0.48992700  0.60974900  0.80414700  1
  O  O8  1  0.46199400  0.38444000  0.19492700  1
  O  O9  1  0.97665200  0.88628500  0.18662600  1
  O  O10  1  0.97147000  0.39290000  0.42849300  1
  O  O11  1  0.51863500  0.88765800  0.43076000  1
  O  O12  1  0.53116900  0.39602400  0.68382600  1
  O  O13  1  0.98089000  0.88403700  0.68049400  1
  O  O14  1  0.00072100  0.38152100  0.92114900  1
  O  O15  1  0.46903600  0.87754500  0.94072500  1
loop_
_geom_bond_atom_site_label_1
_geom_bond_atom_site_label_2
_geom_bond_distance
_geom_bond_site_symmetry_2
Li0 O14 2.108099 1_554
Li0 O8 2.112100 1_555
Li0 O0 2.167195 1_555
Li0 O8 2.179853 1_455
Li0 O2 2.181701 1_555
Li0 O0 2.240621 1_455
Li1 O1 2.024140 1_555
Li1 O3 2.077854 1_555
Li1 O15 2.080636 1_554
Li1 O1 2.097463 1_455
Li1 O9 2.157520 1_455
Li1 O9 2.220536 1_555
Li2 O8 1.989411 1_555
Li2 O4 2.057997 1_555
Li2 O2 2.136261 1_555
Li2 O10 2.151809 1_455
Li2 O10 2.172302 1_555
Li2 O2 2.204033 1_655
Li3 O11 2.062528 1_455
Li3 O9 2.084670 1_455
Li3 O5 2.111746 1_555
Li3 O3 2.144519 1_555
Li3 O3 2.176633 1_455
Li3 O11 2.250241 1_555
Li4 O4 2.036933 1_655
Li4 O4 2.112838 1_555
Li4 O12 2.128546 1_555
Li4 O6 2.136415 1_555
Li4 O10 2.184674 1_555
Li4 O12 2.447325 1_655
Li5 O7 2.064276 1_555
Li5 O11 2.110154 1_555
Li5 O5 2.111584 1_555
Li5 O13 2.113338 1_455
Li5 O13 2.167492 1_555
Li5 O5 2.183031 1_655
Li6 O14 2.003154 1_555
Li6 O14 2.023456 1_655
Li6 O0 2.132129 1_556
Li6 O6 2.146945 1_555
Li6 O12 2.160042 1_555
Li6 O6 2.347882 1_455
Li7 O15 2.108491 1_555
Li7 O7 2.144642 1_555
Li7 O15 2.149372 1_455
Li7 O1 2.175993 1_456
Li7 O13 2.206857 1_455
Li7 O7 2.331987 1_455
Li8 O8 2.018664 1_555
Li8 O14 2.048970 1_654
Li8 O7 2.080862 1_554
Li8 O14 2.091565 1_554
Li8 O1 2.112995 1_455
Li8 O1 2.291503 1_555
Mn0 O9 1.946972 1_555
Mn0 O15 1.953811 1_654
Mn0 O0 1.956349 1_565
Mn0 O6 1.962449 1_564
Mn0 O15 2.161237 1_554
Mn0 O0 2.181398 1_665
Mn1 O14 1.832843 1_555
Mn1 O7 1.946031 1_455
Mn1 O7 1.958114 1_555
Mn1 O12 1.999793 1_555
Mn1 O5 2.004506 1_555
Mn1 O12 2.019623 1_455
Co0 O11 1.912597 1_545
Co0 O9 1.918830 1_545
Co0 O2 1.920815 1_555
Co0 O0 1.938907 1_555
Co0 O2 2.151257 1_655
Co0 O9 2.183736 1_445
Co1 O1 1.736565 1_555
Co1 O8 1.867094 1_655
Co1 O10 1.961655 1_555
Co1 O3 1.963135 1_555
Co1 O8 2.099450 1_555
Co1 O3 2.205554 1_655
Co2 O2 1.937420 1_555
Co2 O13 1.975076 1_445
Co2 O11 2.034427 1_545
Co2 O4 2.035308 1_455
Co2 O4 2.071196 1_555
Co2 O11 2.092829 1_445
Co3 O3 1.894553 1_555
Co3 O10 1.902995 1_555
Co3 O5 1.913486 1_555
Co3 O12 1.953406 1_555
Co3 O5 2.152047 1_655
Co3 O10 2.187779 1_455
Co4 O13 1.972613 1_555
Co4 O6 1.981173 1_465
Co4 O4 2.016089 1_565
Co4 O15 2.063270 1_555
Co4 O6 2.124836 1_565
Co4 O13 2.132595 1_455
