# generated using pymatgen
data_Li2MgH4
_symmetry_space_group_name_H-M   'P 1'
_cell_length_a   2.92492900
_cell_length_b   4.92362700
_cell_length_c   9.30054000
_cell_angle_alpha   90.00000000
_cell_angle_beta   90.00000000
_cell_angle_gamma   90.00000000
_symmetry_Int_Tables_number   1
_chemical_formula_structural   Li2MgH4
_chemical_formula_sum   'Li4 Mg2 H8'
_cell_volume   133.93948908
_cell_formula_units_Z   2
loop_
 _symmetry_equiv_pos_site_id
 _symmetry_equiv_pos_as_xyz
  1  'x, y, z'
loop_
 _atom_site_type_symbol
 _atom_site_label
 _atom_site_symmetry_multiplicity
 _atom_site_fract_x
 _atom_site_fract_y
 _atom_site_fract_z
 _atom_site_occupancy
  Li  Li0  1  0.50000000  0.98244800  0.28946500  1
  Li  Li1  1  0.50000000  0.01755200  0.71053500  1
  Li  Li2  1  0.50000000  0.48244800  0.21053500  1
  Li  Li3  1  0.50000000  0.51755200  0.78946500  1
  Mg  Mg0  1  0.00000000  0.50000000  0.50000000  1
  Mg  Mg1  1  0.00000000  0.00000000  0.00000000  1
  H  H0  1  0.50000000  0.70598800  0.58711000  1
  H  H1  1  0.50000000  0.29401200  0.41289000  1
  H  H2  1  0.50000000  0.20598800  0.91289000  1
  H  H3  1  0.50000000  0.79401200  0.08711000  1
  H  H4  1  0.00000000  0.71785700  0.32298400  1
  H  H5  1  0.00000000  0.28214300  0.67701600  1
  H  H6  1  0.00000000  0.21785700  0.17701600  1
  H  H7  1  0.00000000  0.78214300  0.82298400  1
loop_
_geom_bond_atom_site_label_1
_geom_bond_atom_site_label_2
_geom_bond_distance
_geom_bond_site_symmetry_2
H0 Li1 1.915973 1_565
H0 Mg0 1.955453 1_555
H0 Mg0 1.955453 1_655
H0 Li3 2.098275 1_555
H1 Li0 1.915973 1_545
H1 Mg0 1.955453 1_555
H1 Mg0 1.955453 1_655
H1 Li2 2.098275 1_555
H2 Li3 1.915973 1_555
H2 Mg1 1.955453 1_556
H2 Mg1 1.955453 1_656
H2 Li1 2.098275 1_555
H3 Li2 1.915973 1_555
H3 Mg1 1.955453 1_565
H3 Mg1 1.955453 1_665
H3 Li0 2.098275 1_555
H4 Mg0 1.964948 1_555
H4 Li0 1.983214 1_455
H4 Li0 1.983214 1_555
H4 Li2 2.139161 1_555
H4 Li2 2.139161 1_455
H5 Mg0 1.964948 1_555
H5 Li1 1.983214 1_555
H5 Li1 1.983214 1_455
H5 Li3 2.139161 1_455
H5 Li3 2.139161 1_555
H6 Mg1 1.964948 1_555
H6 Li2 1.983214 1_455
H6 Li2 1.983214 1_555
H6 Li0 2.139161 1_445
H6 Li0 2.139161 1_545
H7 Mg1 1.964948 1_566
H7 Li3 1.983214 1_555
H7 Li3 1.983214 1_455
H7 Li1 2.139161 1_565
H7 Li1 2.139161 1_465
