# generated using pymatgen
data_MnAlO3
_symmetry_space_group_name_H-M   'P 1'
_cell_length_a   4.87401400
_cell_length_b   4.95994200
_cell_length_c   8.30327800
_cell_angle_alpha   90.00000000
_cell_angle_beta   90.00000000
_cell_angle_gamma   90.00000000
_symmetry_Int_Tables_number   1
_chemical_formula_structural   MnAlO3
_chemical_formula_sum   'Mn4 Al4 O12'
_cell_volume   200.73030708
_cell_formula_units_Z   4
loop_
 _symmetry_equiv_pos_site_id
 _symmetry_equiv_pos_as_xyz
  1  'x, y, z'
loop_
 _atom_site_type_symbol
 _atom_site_label
 _atom_site_symmetry_multiplicity
 _atom_site_fract_x
 _atom_site_fract_y
 _atom_site_fract_z
 _atom_site_occupancy
  Mn  Mn0  1  0.50000000  0.50000000  0.00000000  1
  Mn  Mn1  1  0.00000000  0.00000000  0.00000000  1
  Mn  Mn2  1  0.00000000  0.00000000  0.50000000  1
  Mn  Mn3  1  0.50000000  0.50000000  0.50000000  1
  Al  Al0  1  0.48359500  0.00801400  0.25000000  1
  Al  Al1  1  0.98359500  0.49198600  0.75000000  1
  Al  Al2  1  0.01640500  0.50801400  0.25000000  1
  Al  Al3  1  0.51640500  0.99198600  0.75000000  1
  O  O0  1  0.16070100  0.32662200  0.91488600  1
  O  O1  1  0.66070100  0.17337800  0.08511400  1
  O  O2  1  0.33929900  0.82662200  0.58511400  1
  O  O3  1  0.83929900  0.67337800  0.41488600  1
  O  O4  1  0.83929900  0.67337800  0.08511400  1
  O  O5  1  0.33929900  0.82662200  0.91488600  1
  O  O6  1  0.66070100  0.17337800  0.41488600  1
  O  O7  1  0.16070100  0.32662200  0.58511400  1
  O  O8  1  0.64943900  0.33278600  0.75000000  1
  O  O9  1  0.14943900  0.16721400  0.25000000  1
  O  O10  1  0.85056100  0.83278600  0.75000000  1
  O  O11  1  0.35056100  0.66721400  0.25000000  1
loop_
_geom_bond_atom_site_label_1
_geom_bond_atom_site_label_2
_geom_bond_distance
_geom_bond_site_symmetry_2
Mn0 O1 1.933246 1_555
Mn0 O5 1.933246 1_554
Mn0 O0 1.993451 1_554
Mn0 O4 1.993451 1_555
Mn0 O8 2.351043 1_554
Mn0 O11 2.351043 1_555
Mn1 O4 1.933246 1_445
Mn1 O0 1.933246 1_554
Mn1 O5 1.993451 1_544
Mn1 O1 1.993451 1_455
Mn1 O9 2.351043 1_555
Mn1 O10 2.351043 1_444
Mn2 O3 1.933246 1_445
Mn2 O7 1.933246 1_555
Mn2 O6 1.993451 1_455
Mn2 O2 1.993451 1_545
Mn2 O10 2.351043 1_445
Mn2 O9 2.351043 1_555
Mn3 O6 1.933246 1_555
Mn3 O2 1.933246 1_555
Mn3 O3 1.993451 1_555
Mn3 O7 1.993451 1_555
Mn3 O8 2.351043 1_555
Mn3 O11 2.351043 1_555
Al0 O9 1.810002 1_555
Al0 O11 1.810445 1_545
Al0 O6 1.814465 1_555
Al0 O1 1.814465 1_555
Al1 O8 1.810002 1_555
Al1 O10 1.810445 1_555
Al1 O0 1.814465 1_655
Al1 O7 1.814465 1_655
Al2 O11 1.810002 1_555
Al2 O9 1.810445 1_555
Al2 O3 1.814465 1_455
Al2 O4 1.814465 1_455
Al3 O10 1.810002 1_555
Al3 O8 1.810445 1_565
Al3 O2 1.814465 1_555
Al3 O5 1.814465 1_555
