# generated using pymatgen
data_Na(CoO2)3
_symmetry_space_group_name_H-M   'P 1'
_cell_length_a   4.90009501
_cell_length_b   5.91252481
_cell_length_c   8.46932236
_cell_angle_alpha   89.99996518
_cell_angle_beta   89.99998473
_cell_angle_gamma   73.67293110
_symmetry_Int_Tables_number   1
_chemical_formula_structural   Na(CoO2)3
_chemical_formula_sum   'Na2 Co6 O12'
_cell_volume   235.47739868
_cell_formula_units_Z   2
loop_
 _symmetry_equiv_pos_site_id
 _symmetry_equiv_pos_as_xyz
  1  'x, y, z'
loop_
 _atom_site_type_symbol
 _atom_site_label
 _atom_site_symmetry_multiplicity
 _atom_site_fract_x
 _atom_site_fract_y
 _atom_site_fract_z
 _atom_site_occupancy
  Na  Na0  1  0.00000000  0.49999900  0.17155200  1
  Na  Na1  1  0.50000100  0.50000000  0.66389200  1
  Co  Co0  1  0.00000000  0.00000000  0.66608200  1
  Co  Co1  1  0.50000000  0.00000000  0.83332600  1
  Co  Co2  1  0.50000000  0.00000000  0.49937200  1
  Co  Co3  1  0.50000000  0.00000000  0.16681000  1
  Co  Co4  1  0.00000000  0.00000000  0.33408600  1
  Co  Co5  1  0.00000000  0.00000000  0.99947100  1
  O  O0  1  0.78192000  0.17095000  0.16558600  1
  O  O1  1  0.27541200  0.17125800  0.66925300  1
  O  O2  1  0.21807900  0.82905000  0.16558700  1
  O  O3  1  0.72458800  0.82874200  0.66925300  1
  O  O4  1  0.27204100  0.16957200  0.99807600  1
  O  O5  1  0.77818000  0.17074700  0.50256600  1
  O  O6  1  0.27129300  0.17055100  0.33249800  1
  O  O7  1  0.77356400  0.17202200  0.83139100  1
  O  O8  1  0.72870700  0.82944900  0.33249800  1
  O  O9  1  0.22643600  0.82797900  0.83139100  1
  O  O10  1  0.72795900  0.83042700  0.99807600  1
  O  O11  1  0.22182000  0.82925400  0.50256600  1
loop_
_geom_bond_atom_site_label_1
_geom_bond_atom_site_label_2
_geom_bond_distance
_geom_bond_site_symmetry_2
Na0 O6 2.442042 1_555
Na0 O8 2.442050 1_455
Na0 O0 2.469492 1_455
Na0 O2 2.469500 1_555
Na0 O4 2.507615 1_554
Na0 O10 2.507617 1_454
Na1 O5 2.454108 1_555
Na1 O11 2.454114 1_555
Na1 O7 2.471484 1_555
Na1 O9 2.471492 1_555
Na1 O3 2.488726 1_555
Na1 O1 2.488733 1_555
Co0 O11 1.871235 1_545
Co0 O5 1.871237 1_455
Co0 O9 1.895054 1_545
Co0 O7 1.895056 1_455
Co0 O3 1.901470 1_445
Co0 O1 1.901470 1_555
Co1 O1 1.881708 1_555
Co1 O3 1.881709 1_545
Co1 O4 1.889496 1_555
Co1 O10 1.889498 1_545
Co1 O9 1.896886 1_545
Co1 O7 1.896891 1_555
Co2 O6 1.906527 1_555
Co2 O8 1.906528 1_545
Co2 O11 1.910935 1_545
Co2 O5 1.910939 1_555
Co2 O3 1.918321 1_545
Co2 O1 1.918321 1_555
Co3 O8 1.899093 1_545
Co3 O6 1.899093 1_555
Co3 O4 1.914548 1_554
Co3 O10 1.914550 1_544
Co3 O0 1.927465 1_555
Co3 O2 1.927469 1_545
Co4 O6 1.880935 1_555
Co4 O8 1.880935 1_445
Co4 O2 1.895467 1_545
Co4 O0 1.895475 1_455
Co4 O11 1.902559 1_545
Co4 O5 1.902562 1_455
Co5 O4 1.879823 1_555
Co5 O10 1.879827 1_445
Co5 O0 1.880315 1_456
Co5 O2 1.880319 1_546
Co5 O9 1.912458 1_545
Co5 O7 1.912460 1_455
