# generated using pymatgen
data_LaGa3Pt
_symmetry_space_group_name_H-M   'P 1'
_cell_length_a   6.09949730
_cell_length_b   6.09949730
_cell_length_c   6.09949730
_cell_angle_alpha   138.64681729
_cell_angle_beta   138.64681729
_cell_angle_gamma   59.91379808
_symmetry_Int_Tables_number   1
_chemical_formula_structural   LaGa3Pt
_chemical_formula_sum   'La1 Ga3 Pt1'
_cell_volume   98.04794995
_cell_formula_units_Z   1
loop_
 _symmetry_equiv_pos_site_id
 _symmetry_equiv_pos_as_xyz
  1  'x, y, z'
loop_
 _atom_site_type_symbol
 _atom_site_label
 _atom_site_symmetry_multiplicity
 _atom_site_fract_x
 _atom_site_fract_y
 _atom_site_fract_z
 _atom_site_occupancy
  La  La0  1  -0.00000000  -0.00000000  -0.00000000  1
  Ga  Ga0  1  0.61918215  0.61918215  0.00000000  1
  Ga  Ga1  1  0.38081785  0.38081785  -0.00000000  1
  Ga  Ga2  1  0.75000000  0.25000000  0.50000000  1
  Pt  Pt0  1  0.25000000  0.75000000  0.50000000  1
loop_
_geom_bond_atom_site_label_1
_geom_bond_atom_site_label_2
_geom_bond_distance
_geom_bond_site_symmetry_2
La0 Pt0 3.408834 1_444
La0 Pt0 3.408834 1_545
La0 Pt0 3.408834 1_544
La0 Pt0 3.408834 1_555
Ga0 Ga1 2.519326 1_555
Ga0 Pt0 2.559311 1_554
Ga0 Ga2 2.559311 1_554
Ga0 Pt0 2.559311 1_655
Ga0 Ga2 2.559311 1_565
Ga0 La0 3.295981 1_666
Ga0 La0 3.295981 1_554
Ga0 La0 3.295981 1_565
Ga0 La0 3.295981 1_655
Ga1 Pt0 2.559311 1_555
Ga1 Ga2 2.559311 1_555
Ga1 Ga2 2.559311 1_454
Ga1 Pt0 2.559311 1_544
Ga1 La0 3.295981 1_666
Ga1 La0 3.295981 1_565
Ga1 La0 3.295981 1_554
Ga1 La0 3.295981 1_655
Ga2 La0 3.408834 1_655
Ga2 La0 3.408834 1_666
Ga2 La0 3.408834 1_656
Ga2 La0 3.408834 1_555
