# generated using pymatgen
data_Sr3(MoN2)2
_symmetry_space_group_name_H-M   'P 1'
_cell_length_a   7.38118325
_cell_length_b   8.88467721
_cell_length_c   5.73900152
_cell_angle_alpha   89.99999953
_cell_angle_beta   91.09719450
_cell_angle_gamma   127.00226070
_symmetry_Int_Tables_number   1
_chemical_formula_structural   Sr3(MoN2)2
_chemical_formula_sum   'Sr6 Mo4 N8'
_cell_volume   300.47947338
_cell_formula_units_Z   2
loop_
 _symmetry_equiv_pos_site_id
 _symmetry_equiv_pos_as_xyz
  1  'x, y, z'
loop_
 _atom_site_type_symbol
 _atom_site_label
 _atom_site_symmetry_multiplicity
 _atom_site_fract_x
 _atom_site_fract_y
 _atom_site_fract_z
 _atom_site_occupancy
  Sr  Sr0  1  0.23423700  0.98489300  0.02799100  1
  Sr  Sr1  1  0.76576300  0.75065600  0.47200900  1
  Sr  Sr2  1  0.76576300  0.01510700  0.97200900  1
  Sr  Sr3  1  0.23423700  0.24934400  0.52799100  1
  Sr  Sr4  1  0.00000000  0.60201700  0.75000000  1
  Sr  Sr5  1  0.00000000  0.39798300  0.25000000  1
  Mo  Mo0  1  0.59510400  0.17216500  0.58720000  1
  Mo  Mo1  1  0.40489600  0.57706000  0.91280000  1
  Mo  Mo2  1  0.40489600  0.82783500  0.41280000  1
  Mo  Mo3  1  0.59510400  0.42294000  0.08720000  1
  N  N0  1  0.25458800  0.95335600  0.51415800  1
  N  N1  1  0.74541200  0.69876800  0.98584200  1
  N  N2  1  0.74541200  0.04664400  0.48584200  1
  N  N3  1  0.25458800  0.30123200  0.01415800  1
  N  N4  1  0.66537300  0.26529800  0.91302900  1
  N  N5  1  0.33462700  0.59992600  0.58697100  1
  N  N6  1  0.33462700  0.73470200  0.08697100  1
  N  N7  1  0.66537300  0.40007400  0.41302900  1
loop_
_geom_bond_atom_site_label_1
_geom_bond_atom_site_label_2
_geom_bond_distance
_geom_bond_site_symmetry_2
Mo0 N4 1.973984 1_555
Mo0 N7 2.030773 1_555
Mo0 N2 2.080136 1_555
Mo0 N0 2.085774 1_545
Mo1 N5 1.973989 1_555
Mo1 N6 2.030788 1_556
Mo1 N3 2.080128 1_556
Mo1 N1 2.085772 1_555
Mo2 N6 1.973984 1_555
Mo2 N5 2.030773 1_555
Mo2 N0 2.080136 1_555
Mo2 N2 2.085774 1_565
Mo3 N7 1.973989 1_555
Mo3 N4 2.030788 1_554
Mo3 N1 2.080128 1_554
Mo3 N3 2.085772 1_555
N0 Sr3 2.724049 1_565
N0 Sr0 2.814324 1_555
N0 Sr4 2.853748 1_555
N0 Sr1 2.909526 1_455
N0 Sr0 2.977355 1_556
N1 Sr2 2.724049 1_565
N1 Sr1 2.814324 1_556
N1 Sr4 2.853749 1_655
N1 Sr0 2.909526 1_656
N1 Sr1 2.977355 1_555
N2 Sr1 2.724049 1_545
N2 Sr2 2.814324 1_555
N2 Sr5 2.853748 1_655
N2 Sr3 2.909526 1_655
N2 Sr2 2.977355 1_554
N3 Sr0 2.724049 1_545
N3 Sr3 2.814324 1_554
N3 Sr5 2.853749 1_555
N3 Sr2 2.909526 1_454
N3 Sr3 2.977355 1_555
N4 Sr4 2.668355 1_655
N4 Sr0 2.703025 1_546
N4 Sr5 2.746355 1_656
N4 Sr2 2.752785 1_555
N5 Sr4 2.668350 1_555
N5 Sr1 2.703027 1_555
N5 Sr5 2.746356 1_555
N5 Sr3 2.752794 1_555
N6 Sr5 2.668355 1_555
N6 Sr2 2.703025 1_564
N6 Sr4 2.746355 1_554
N6 Sr0 2.752785 1_555
N7 Sr5 2.668350 1_655
N7 Sr3 2.703027 1_555
N7 Sr4 2.746356 1_655
N7 Sr1 2.752794 1_555
