# generated using pymatgen
data_Fe3O4
_symmetry_space_group_name_H-M   'P 1'
_cell_length_a   6.09223026
_cell_length_b   6.09147720
_cell_length_c   16.97859899
_cell_angle_alpha   90.09081866
_cell_angle_beta   89.84056887
_cell_angle_gamma   90.20343749
_symmetry_Int_Tables_number   1
_chemical_formula_structural   Fe3O4
_chemical_formula_sum   'Fe24 O32'
_cell_volume   630.08019051
_cell_formula_units_Z   8
loop_
 _symmetry_equiv_pos_site_id
 _symmetry_equiv_pos_as_xyz
  1  'x, y, z'
loop_
 _atom_site_type_symbol
 _atom_site_label
 _atom_site_symmetry_multiplicity
 _atom_site_fract_x
 _atom_site_fract_y
 _atom_site_fract_z
 _atom_site_occupancy
  Fe  Fe0  1  0.50023200  0.75263300  0.50338300  1
  Fe  Fe1  1  0.50484700  0.75261400  0.00456800  1
  Fe  Fe2  1  0.99741200  0.74894300  0.75721800  1
  Fe  Fe3  1  0.49818400  0.00031400  0.69365200  1
  Fe  Fe4  1  0.74832700  0.99910500  0.87708900  1
  Fe  Fe5  1  0.25178600  0.49350900  0.13171500  1
  Fe  Fe6  1  0.99553500  0.75709900  0.25274500  1
  Fe  Fe7  1  0.75558200  0.00474000  0.37665800  1
  Fe  Fe8  1  0.24706400  0.99973200  0.88120500  1
  Fe  Fe9  1  0.24420600  0.00430200  0.37583800  1
  Fe  Fe10  1  0.99814500  0.00105600  0.56923300  1
  Fe  Fe11  1  0.49369500  0.50011300  0.81738700  1
  Fe  Fe12  1  0.50155300  0.99669300  0.19083300  1
  Fe  Fe13  1  0.24482500  0.50245100  0.63034500  1
  Fe  Fe14  1  0.50118300  0.50308600  0.31405200  1
  Fe  Fe15  1  0.00015200  0.50065300  0.44416400  1
  Fe  Fe16  1  0.49822100  0.24948500  0.50400300  1
  Fe  Fe17  1  0.50606700  0.24582500  0.00492900  1
  Fe  Fe18  1  0.00644900  0.49836500  0.94481500  1
  Fe  Fe19  1  0.75156100  0.49742600  0.12942200  1
  Fe  Fe20  1  0.99892500  0.25312500  0.25395100  1
  Fe  Fe21  1  0.99845500  0.25101000  0.75681200  1
  Fe  Fe22  1  0.75244700  0.50114600  0.63135400  1
  Fe  Fe23  1  0.99501800  0.99745700  0.07099700  1
  O  O0  1  0.49088700  0.24185900  0.88477800  1
  O  O1  1  0.27240200  0.49657300  0.00996600  1
  O  O2  1  0.27454200  0.00047700  0.49638100  1
  O  O3  1  0.49714800  0.26422300  0.62504100  1
  O  O4  1  0.49991200  0.76624900  0.38002100  1
  O  O5  1  0.24583200  0.50254600  0.74878300  1
  O  O6  1  0.99097500  0.28575300  0.13185700  1
  O  O7  1  0.72236200  0.00024100  0.00115500  1
  O  O8  1  0.77070700  0.99534300  0.25819700  1
  O  O9  1  0.75217200  0.99741100  0.75618900  1
  O  O10  1  0.01614700  0.75732600  0.88309800  1
  O  O11  1  0.27939700  0.50208900  0.50923500  1
  O  O12  1  0.49878100  0.73677400  0.62482400  1
  O  O13  1  0.27824000  0.99736700  0.00134400  1
  O  O14  1  0.24048600  0.50401500  0.25101100  1
  O  O15  1  0.51020600  0.71718000  0.12388900  1
  O  O16  1  0.49206200  0.75362700  0.88588900  1
  O  O17  1  0.99949300  0.22537100  0.37542200  1
  O  O18  1  0.71944200  0.49960200  0.50963900  1
  O  O19  1  0.24881200  0.99932900  0.76180200  1
  O  O20  1  0.00032500  0.77504700  0.37326400  1
  O  O21  1  0.50535700  0.27598500  0.12432300  1
  O  O22  1  0.74705200  0.49992700  0.75032500  1
  O  O23  1  0.72329400  0.00149800  0.49683500  1
  O  O24  1  0.50002600  0.23767000  0.37952500  1
  O  O25  1  0.73734600  0.49697100  0.01008100  1
  O  O26  1  0.99741600  0.71695900  0.13474100  1
  O  O27  1  0.76005600  0.50529500  0.24806600  1
  O  O28  1  0.99896600  0.28026700  0.63026100  1
  O  O29  1  0.22771700  0.99490100  0.25664800  1
  O  O30  1  0.99826500  0.72286100  0.62922900  1
  O  O31  1  0.01430200  0.23838200  0.88180900  1
loop_
_geom_bond_atom_site_label_1
_geom_bond_atom_site_label_2
_geom_bond_distance
_geom_bond_site_symmetry_2
Fe0 O11 2.033299 1_555
Fe0 O23 2.035258 1_565
Fe0 O18 2.046073 1_555
Fe0 O2 2.049429 1_565
Fe0 O12 2.064306 1_555
Fe0 O4 2.096293 1_555
Fe1 O7 2.005082 1_565
Fe1 O16 2.016745 1_554
Fe1 O13 2.036417 1_555
Fe1 O15 2.038074 1_555
Fe1 O1 2.104845 1_555
Fe1 O25 2.111144 1_555
Fe2 O9 2.130633 1_555
Fe2 O5 2.139625 1_655
Fe2 O10 2.141147 1_655
Fe2 O22 2.150581 1_555
Fe2 O19 2.159123 1_655
Fe2 O30 2.178616 1_555
Fe3 O9 1.879205 1_545
Fe3 O19 1.907128 1_545
Fe3 O12 1.984152 1_545
Fe3 O3 1.986829 1_555
Fe4 O9 2.052791 1_555
Fe4 O7 2.111961 1_566
Fe4 O0 2.162922 1_565
Fe4 O16 2.163001 1_555
Fe4 O31 2.177175 1_665
Fe4 O10 2.204581 1_655
Fe5 O14 2.027374 1_555
Fe5 O6 2.027801 1_455
Fe5 O21 2.042270 1_555
Fe5 O26 2.066680 1_455
Fe5 O1 2.070700 1_555
Fe5 O15 2.082497 1_555
Fe6 O8 2.000948 1_555
Fe6 O26 2.018029 1_555
Fe6 O29 2.022184 1_655
Fe6 O20 2.049273 1_655
Fe6 O27 2.098025 1_555
Fe6 O14 2.149528 1_655
Fe7 O17 2.000127 1_555
Fe7 O8 2.013888 1_545
Fe7 O20 2.048963 1_645
Fe7 O23 2.049471 1_555
Fe7 O24 2.110596 1_555
Fe7 O4 2.126875 1_545
Fe8 O19 2.027292 1_555
Fe8 O31 2.034401 1_565
Fe8 O10 2.036086 1_555
Fe8 O13 2.049220 1_556
Fe8 O0 2.090501 1_565
Fe8 O16 2.120965 1_555
Fe9 O17 2.012574 1_455
Fe9 O29 2.027158 1_545
Fe9 O20 2.035952 1_545
Fe9 O2 2.055667 1_555
Fe9 O24 2.106712 1_555
Fe9 O4 2.133449 1_545
Fe10 O30 1.978601 1_545
Fe10 O28 1.990176 1_555
Fe10 O23 2.079971 1_555
Fe10 O2 2.086592 1_655
Fe11 O5 1.909764 1_555
Fe11 O22 1.915490 1_555
Fe11 O16 1.931829 1_555
Fe11 O0 1.946715 1_555
Fe12 O8 2.001889 1_555
Fe12 O29 2.005361 1_555
Fe12 O21 2.043483 1_565
Fe12 O15 2.046424 1_555
Fe13 O5 2.010937 1_555
Fe13 O28 2.015161 1_455
Fe13 O30 2.018381 1_455
Fe13 O11 2.066452 1_555
Fe13 O12 2.103287 1_555
Fe13 O3 2.119351 1_555
Fe14 O14 1.917728 1_555
Fe14 O27 1.932024 1_555
Fe14 O4 1.954154 1_555
Fe14 O24 1.963499 1_555
Fe15 O11 2.031054 1_555
Fe15 O18 2.037115 1_455
Fe15 O17 2.041548 1_455
Fe15 O20 2.061370 1_555
Fe16 O18 2.032857 1_555
Fe16 O2 2.039645 1_555
Fe16 O11 2.041148 1_555
Fe16 O23 2.046979 1_555
Fe16 O3 2.056867 1_555
Fe16 O24 2.114572 1_555
Fe17 O7 1.997908 1_555
Fe17 O21 2.035155 1_555
Fe17 O0 2.042449 1_554
Fe17 O13 2.050865 1_545
Fe17 O25 2.078062 1_555
Fe17 O1 2.093122 1_555
Fe18 O10 1.895816 1_555
Fe18 O31 1.910390 1_555
Fe18 O1 1.964453 1_556
Fe18 O25 1.976256 1_456
Fe19 O6 1.950779 1_555
Fe19 O15 1.994477 1_555
Fe19 O26 2.006500 1_555
Fe19 O21 2.015642 1_555
Fe19 O27 2.015707 1_555
Fe19 O25 2.028331 1_555
Fe20 O17 2.069606 1_555
Fe20 O6 2.083518 1_555
Fe20 O8 2.094837 1_545
Fe20 O29 2.106015 1_645
Fe20 O14 2.118435 1_655
Fe20 O27 2.122371 1_555
Fe21 O31 2.126263 1_655
Fe21 O5 2.149582 1_655
Fe21 O9 2.149724 1_545
Fe21 O28 2.156311 1_555
Fe21 O22 2.162172 1_555
Fe21 O19 2.168334 1_645
Fe22 O30 2.013351 1_555
Fe22 O28 2.019983 1_555
Fe22 O22 2.020162 1_555
Fe22 O18 2.076869 1_555
Fe22 O12 2.116102 1_555
Fe22 O3 2.120832 1_555
Fe23 O26 2.024143 1_555
Fe23 O6 2.036375 1_565
Fe23 O7 2.043741 1_565
Fe23 O13 2.089116 1_655
