# generated using pymatgen
data_LaMgS3
_symmetry_space_group_name_H-M   'P 1'
_cell_length_a   6.99681200
_cell_length_b   6.99681119
_cell_length_c   17.61783300
_cell_angle_alpha   90.00000000
_cell_angle_beta   90.00000000
_cell_angle_gamma   120.00000384
_symmetry_Int_Tables_number   1
_chemical_formula_structural   LaMgS3
_chemical_formula_sum   'La6 Mg6 S18'
_cell_volume   746.93612311
_cell_formula_units_Z   6
loop_
 _symmetry_equiv_pos_site_id
 _symmetry_equiv_pos_as_xyz
  1  'x, y, z'
loop_
 _atom_site_type_symbol
 _atom_site_label
 _atom_site_symmetry_multiplicity
 _atom_site_fract_x
 _atom_site_fract_y
 _atom_site_fract_z
 _atom_site_occupancy
  La  La0  1  0.00000000  0.00000000  0.35953300  1
  La  La1  1  0.00000000  0.00000000  0.64046700  1
  La  La2  1  0.66666700  0.33333300  0.69286600  1
  La  La3  1  0.66666700  0.33333300  0.97380000  1
  La  La4  1  0.33333300  0.66666700  0.02620000  1
  La  La5  1  0.33333300  0.66666700  0.30713400  1
  Mg  Mg0  1  0.00000000  0.00000000  0.15572200  1
  Mg  Mg1  1  0.00000000  0.00000000  0.84427800  1
  Mg  Mg2  1  0.66666700  0.33333300  0.48905500  1
  Mg  Mg3  1  0.66666700  0.33333300  0.17761100  1
  Mg  Mg4  1  0.33333300  0.66666700  0.82238900  1
  Mg  Mg5  1  0.33333300  0.66666700  0.51094500  1
  S  S0  1  0.98589300  0.37096300  0.58034500  1
  S  S1  1  0.01410700  0.62903700  0.41965500  1
  S  S2  1  0.62903700  0.61493100  0.58034500  1
  S  S3  1  0.37096300  0.38506900  0.41965500  1
  S  S4  1  0.38506900  0.01410700  0.58034500  1
  S  S5  1  0.61493100  0.98589300  0.41965500  1
  S  S6  1  0.65256000  0.70429600  0.91367800  1
  S  S7  1  0.68077400  0.96237000  0.75298800  1
  S  S8  1  0.29570400  0.94826400  0.91367800  1
  S  S9  1  0.03763000  0.71840200  0.75298800  1
  S  S10  1  0.05173600  0.34744000  0.91367800  1
  S  S11  1  0.28159800  0.31922600  0.75298800  1
  S  S12  1  0.31922600  0.03763000  0.24701200  1
  S  S13  1  0.34744000  0.29570400  0.08632200  1
  S  S14  1  0.96237000  0.28159800  0.24701200  1
  S  S15  1  0.70429600  0.05173600  0.08632200  1
  S  S16  1  0.71840200  0.68077400  0.24701200  1
  S  S17  1  0.94826400  0.65256000  0.08632200  1
loop_
_geom_bond_atom_site_label_1
_geom_bond_atom_site_label_2
_geom_bond_distance
_geom_bond_site_symmetry_2
La0 S5 2.850398 1_445
La0 S3 2.850400 1_555
La0 S1 2.850404 1_545
La0 S12 2.898253 1_555
La0 S16 2.898257 1_445
La0 S14 2.898263 1_455
La1 S4 2.850398 1_555
La1 S2 2.850400 1_445
La1 S0 2.850404 1_455
La1 S7 2.898253 1_445
La1 S11 2.898257 1_555
La1 S9 2.898263 1_545
La2 S11 2.850398 1_555
La2 S9 2.850400 1_655
La2 S7 2.850404 1_545
La2 S0 2.898253 1_555
La2 S4 2.898257 1_555
La2 S2 2.898263 1_555
La3 S10 2.850398 1_655
La3 S8 2.850400 1_545
La3 S6 2.850404 1_555
La3 S15 2.898267 1_556
La3 S17 2.898270 1_556
La3 S13 2.898272 1_556
La4 S17 2.850398 1_455
La4 S15 2.850400 1_565
La4 S13 2.850404 1_555
La4 S8 2.898267 1_554
La4 S10 2.898270 1_554
La4 S6 2.898272 1_554
La5 S16 2.850398 1_555
La5 S14 2.850400 1_455
La5 S12 2.850404 1_565
La5 S1 2.898253 1_555
La5 S5 2.898257 1_555
La5 S3 2.898263 1_555
Mg0 S17 2.579849 1_445
Mg0 S13 2.579849 1_555
Mg0 S15 2.579849 1_455
Mg0 S12 2.656461 1_555
Mg0 S16 2.656466 1_445
Mg0 S14 2.656472 1_455
Mg1 S10 2.579849 1_555
Mg1 S6 2.579849 1_445
Mg1 S8 2.579849 1_545
Mg1 S7 2.656461 1_445
Mg1 S11 2.656466 1_555
Mg1 S9 2.656472 1_545
Mg2 S5 2.579849 1_545
Mg2 S1 2.579849 1_655
Mg2 S3 2.579849 1_555
Mg2 S0 2.656461 1_555
Mg2 S4 2.656466 1_555
Mg2 S2 2.656472 1_555
Mg3 S14 2.579848 1_555
Mg3 S12 2.579859 1_555
Mg3 S16 2.579866 1_555
Mg3 S15 2.656453 1_555
Mg3 S17 2.656456 1_555
Mg3 S13 2.656459 1_555
Mg4 S9 2.579848 1_555
Mg4 S7 2.579859 1_555
Mg4 S11 2.579866 1_555
Mg4 S8 2.656453 1_555
Mg4 S10 2.656456 1_555
Mg4 S6 2.656459 1_555
Mg5 S4 2.579849 1_565
Mg5 S0 2.579849 1_455
Mg5 S2 2.579849 1_555
Mg5 S1 2.656461 1_555
Mg5 S5 2.656466 1_555
Mg5 S3 2.656472 1_555
