# generated using pymatgen
data_GdCu6
_symmetry_space_group_name_H-M   'P 1'
_cell_length_a   5.05770700
_cell_length_b   8.02656700
_cell_length_c   9.98298000
_cell_angle_alpha   90.00000000
_cell_angle_beta   90.00000000
_cell_angle_gamma   90.00000000
_symmetry_Int_Tables_number   1
_chemical_formula_structural   GdCu6
_chemical_formula_sum   'Gd4 Cu24'
_cell_volume   405.26929669
_cell_formula_units_Z   4
loop_
 _symmetry_equiv_pos_site_id
 _symmetry_equiv_pos_as_xyz
  1  'x, y, z'
loop_
 _atom_site_type_symbol
 _atom_site_label
 _atom_site_symmetry_multiplicity
 _atom_site_fract_x
 _atom_site_fract_y
 _atom_site_fract_z
 _atom_site_occupancy
  Gd  Gd0  1  0.75000000  0.24094600  0.06476300  1
  Gd  Gd1  1  0.75000000  0.74094600  0.43523700  1
  Gd  Gd2  1  0.25000000  0.75905400  0.93523700  1
  Gd  Gd3  1  0.25000000  0.25905400  0.56476300  1
  Cu  Cu0  1  0.75000000  0.35170500  0.35464100  1
  Cu  Cu1  1  0.75000000  0.85170500  0.14535900  1
  Cu  Cu2  1  0.25000000  0.64829500  0.64535900  1
  Cu  Cu3  1  0.25000000  0.14829500  0.85464100  1
  Cu  Cu4  1  0.75000000  0.18579100  0.75884000  1
  Cu  Cu5  1  0.75000000  0.68579100  0.74116000  1
  Cu  Cu6  1  0.25000000  0.81420900  0.24116000  1
  Cu  Cu7  1  0.25000000  0.31420900  0.25884000  1
  Cu  Cu8  1  0.75000000  0.43822500  0.59411700  1
  Cu  Cu9  1  0.75000000  0.93822500  0.90588300  1
  Cu  Cu10  1  0.25000000  0.56177500  0.40588300  1
  Cu  Cu11  1  0.25000000  0.06177500  0.09411700  1
  Cu  Cu12  1  0.75000000  0.10417000  0.51850200  1
  Cu  Cu13  1  0.75000000  0.60417000  0.98149800  1
  Cu  Cu14  1  0.25000000  0.89583000  0.48149800  1
  Cu  Cu15  1  0.25000000  0.39583000  0.01850200  1
  Cu  Cu16  1  0.00708500  0.43822400  0.80898500  1
  Cu  Cu17  1  0.49291500  0.93822400  0.69101500  1
  Cu  Cu18  1  0.50708500  0.56177600  0.19101500  1
  Cu  Cu19  1  0.99291500  0.06177600  0.30898500  1
  Cu  Cu20  1  0.99291500  0.56177600  0.19101500  1
  Cu  Cu21  1  0.50708500  0.06177600  0.30898500  1
  Cu  Cu22  1  0.49291500  0.43822400  0.80898500  1
  Cu  Cu23  1  0.00708500  0.93822400  0.69101500  1
loop_
_geom_bond_atom_site_label_1
_geom_bond_atom_site_label_2
_geom_bond_distance
_geom_bond_site_symmetry_2
Cu0 Cu8 2.489507 1_555
Cu0 Cu12 2.573618 1_555
Cu0 Cu20 2.649675 1_555
Cu0 Cu18 2.649675 1_555
Cu0 Cu21 2.670718 1_555
Cu0 Cu19 2.670718 1_555
Cu0 Cu7 2.720357 1_555
Cu0 Cu7 2.720357 1_655
Cu0 Gd0 3.027324 1_555
Cu0 Gd1 3.226208 1_555
Cu0 Gd3 3.368717 1_555
Cu0 Gd3 3.368717 1_655
Cu1 Cu9 2.489507 1_554
Cu1 Cu13 2.573618 1_554
Cu1 Cu21 2.649675 1_565
Cu1 Cu19 2.649675 1_565
Cu1 Cu20 2.670718 1_555
Cu1 Cu18 2.670718 1_555
Cu1 Cu6 2.720357 1_655
Cu1 Cu6 2.720357 1_555
Cu1 Gd1 3.027324 1_555
Cu1 Gd0 3.226208 1_565
Cu1 Gd2 3.368717 1_554
Cu1 Gd2 3.368717 1_654
Cu2 Cu22 2.649675 1_555
Cu2 Cu23 2.670718 1_555
Cu2 Cu5 2.720357 1_455
Cu2 Cu5 2.720357 1_555
Cu2 Gd2 3.027324 1_555
Cu2 Gd3 3.226208 1_555
Cu2 Gd1 3.368717 1_555
Cu2 Gd1 3.368717 1_455
Cu3 Cu4 2.720357 1_455
Cu3 Cu4 2.720357 1_555
Cu3 Gd3 3.027324 1_555
Cu3 Gd2 3.226208 1_545
Cu3 Gd0 3.368717 1_556
Cu3 Gd0 3.368717 1_456
Cu4 Cu9 2.470505 1_545
Cu4 Cu8 2.609509 1_555
Cu4 Gd0 3.085943 1_556
Cu4 Gd3 3.239549 1_555
Cu4 Gd3 3.239549 1_655
Cu5 Cu8 2.470505 1_555
Cu5 Cu9 2.609509 1_555
Cu5 Gd1 3.085943 1_555
Cu5 Gd2 3.239549 1_655
Cu5 Gd2 3.239549 1_555
Cu6 Gd2 3.085943 1_554
Cu6 Gd1 3.239549 1_455
Cu6 Gd1 3.239549 1_555
Cu7 Gd3 3.085943 1_555
Cu7 Gd0 3.239549 1_455
Cu7 Gd0 3.239549 1_555
Cu8 Gd1 2.901668 1_555
Cu8 Gd3 2.923899 1_655
Cu8 Gd3 2.923899 1_555
Cu9 Gd0 2.901668 1_566
Cu9 Gd2 2.923899 1_555
Cu9 Gd2 2.923899 1_655
Cu10 Cu7 2.470505 1_555
Cu10 Cu2 2.489507 1_555
Cu10 Cu20 2.508346 1_455
Cu10 Cu18 2.508346 1_555
Cu10 Cu6 2.609509 1_555
Cu10 Cu14 2.785546 1_555
Cu10 Gd3 2.901668 1_555
Cu10 Gd1 2.923899 1_455
Cu10 Gd1 2.923899 1_555
Cu11 Cu6 2.470505 1_545
Cu11 Cu3 2.489507 1_554
Cu11 Cu19 2.508346 1_455
Cu11 Cu21 2.508346 1_555
Cu11 Cu7 2.609509 1_555
Cu11 Cu15 2.785546 1_555
Cu11 Gd2 2.901668 1_544
Cu11 Gd0 2.923899 1_455
Cu11 Gd0 2.923899 1_555
Cu12 Cu19 2.449497 1_555
Cu12 Cu21 2.449497 1_555
Cu12 Cu4 2.487126 1_555
Cu12 Cu23 2.535900 1_645
Cu12 Cu17 2.535900 1_545
Cu12 Cu8 2.785546 1_555
Cu12 Gd3 2.855502 1_655
Cu12 Gd3 2.855502 1_555
Cu12 Gd1 3.031625 1_545
Cu12 Cu14 3.054178 1_645
Cu12 Cu14 3.054178 1_545
Cu13 Cu18 2.449497 1_556
Cu13 Cu20 2.449497 1_556
Cu13 Cu5 2.487126 1_555
Cu13 Cu16 2.535900 1_655
Cu13 Cu22 2.535900 1_555
Cu13 Cu9 2.785546 1_555
Cu13 Gd2 2.855502 1_555
Cu13 Gd2 2.855502 1_655
Cu13 Gd0 3.031625 1_556
Cu13 Cu15 3.054178 1_556
Cu13 Cu15 3.054178 1_656
Cu14 Cu17 2.449497 1_555
Cu14 Cu23 2.449497 1_555
Cu14 Cu6 2.487126 1_555
Cu14 Cu19 2.535900 1_465
Cu14 Cu21 2.535900 1_565
Cu14 Cu2 2.573618 1_555
Cu14 Gd1 2.855502 1_555
Cu14 Gd1 2.855502 1_455
Cu14 Gd3 3.031625 1_565
Cu15 Cu22 2.449497 1_554
Cu15 Cu16 2.449497 1_554
Cu15 Cu7 2.487126 1_555
Cu15 Cu18 2.535900 1_555
Cu15 Cu20 2.535900 1_455
Cu15 Cu3 2.573618 1_554
Cu15 Gd0 2.855502 1_455
Cu15 Gd0 2.855502 1_555
Cu15 Gd2 3.031625 1_554
Cu16 Cu22 2.457186 1_555
Cu16 Cu4 2.458992 1_455
Cu16 Cu5 2.469363 1_455
Cu16 Cu8 2.508346 1_455
Cu16 Cu22 2.600521 1_455
Cu16 Cu2 2.649675 1_555
Cu16 Cu3 2.670718 1_555
Cu16 Gd3 3.085739 1_555
Cu16 Gd2 3.119206 1_555
Cu16 Gd0 3.273840 1_456
Cu17 Cu23 2.457186 1_555
Cu17 Cu5 2.458992 1_555
Cu17 Cu4 2.469363 1_565
Cu17 Cu9 2.508346 1_555
Cu17 Cu23 2.600521 1_655
Cu17 Cu3 2.649675 1_565
Cu17 Cu2 2.670718 1_555
Cu17 Gd2 3.085739 1_555
Cu17 Gd3 3.119206 1_565
Cu17 Gd1 3.273840 1_555
Cu18 Cu20 2.457186 1_555
Cu18 Cu6 2.458992 1_555
Cu18 Cu7 2.469363 1_555
Cu18 Cu20 2.600521 1_455
Cu18 Gd1 3.085739 1_555
Cu18 Gd0 3.119206 1_555
Cu18 Gd2 3.273840 1_554
Cu19 Cu21 2.457186 1_555
Cu19 Cu7 2.458992 1_655
Cu19 Cu6 2.469363 1_645
Cu19 Cu21 2.600521 1_655
Cu19 Gd0 3.085739 1_555
Cu19 Gd1 3.119206 1_545
Cu19 Gd3 3.273840 1_655
Cu20 Cu6 2.458992 1_655
Cu20 Cu7 2.469363 1_655
Cu20 Gd1 3.085739 1_555
Cu20 Gd0 3.119206 1_555
Cu20 Gd2 3.273840 1_654
Cu21 Cu7 2.458992 1_555
Cu21 Cu6 2.469363 1_545
Cu21 Gd0 3.085739 1_555
Cu21 Gd1 3.119206 1_545
Cu21 Gd3 3.273840 1_555
Cu22 Cu4 2.458992 1_555
Cu22 Cu5 2.469363 1_555
Cu22 Cu8 2.508346 1_555
Cu22 Cu3 2.670718 1_555
Cu22 Gd3 3.085739 1_555
Cu22 Gd2 3.119206 1_555
Cu22 Gd0 3.273840 1_556
Cu23 Cu5 2.458992 1_455
Cu23 Cu4 2.469363 1_465
Cu23 Cu9 2.508346 1_455
Cu23 Cu3 2.649675 1_565
Cu23 Gd2 3.085739 1_555
Cu23 Gd3 3.119206 1_565
Cu23 Gd1 3.273840 1_455
