# generated using pymatgen
data_SrH6C6S2N2O7
_symmetry_space_group_name_H-M   'P 1'
_cell_length_a   6.96627054
_cell_length_b   7.73294232
_cell_length_c   23.65726600
_cell_angle_alpha   90.00000000
_cell_angle_beta   90.00000000
_cell_angle_gamma   93.78339390
_symmetry_Int_Tables_number   1
_chemical_formula_structural   SrH6C6S2N2O7
_chemical_formula_sum   'Sr4 H24 C24 S8 N8 O28'
_cell_volume   1271.63403009
_cell_formula_units_Z   4
loop_
 _symmetry_equiv_pos_site_id
 _symmetry_equiv_pos_as_xyz
  1  'x, y, z'
loop_
 _atom_site_type_symbol
 _atom_site_label
 _atom_site_symmetry_multiplicity
 _atom_site_fract_x
 _atom_site_fract_y
 _atom_site_fract_z
 _atom_site_occupancy
  Sr  Sr0  1  0.20676700  0.31388100  0.30357500  1
  Sr  Sr1  1  0.79323300  0.68611900  0.69642500  1
  Sr  Sr2  1  0.29323300  0.68611900  0.80357500  1
  Sr  Sr3  1  0.70676700  0.31388100  0.19642500  1
  H  H0  1  0.37696500  0.61280000  0.20893000  1
  H  H1  1  0.62303500  0.38720000  0.79107000  1
  H  H2  1  0.12303500  0.38720000  0.70893000  1
  H  H3  1  0.87696500  0.61280000  0.29107000  1
  H  H4  1  0.47782100  0.63265100  0.26943700  1
  H  H5  1  0.52217900  0.36734900  0.73056300  1
  H  H6  1  0.02217900  0.36734900  0.76943700  1
  H  H7  1  0.97782100  0.63265100  0.23056300  1
  H  H8  1  0.00696300  0.57524300  0.38313300  1
  H  H9  1  0.99303700  0.42475700  0.61686700  1
  H  H10  1  0.49303700  0.42475700  0.88313300  1
  H  H11  1  0.50696300  0.57524300  0.11686700  1
  H  H12  1  0.20227300  0.09803100  0.82948700  1
  H  H13  1  0.79772700  0.90196900  0.17051300  1
  H  H14  1  0.29772700  0.90196900  0.32948700  1
  H  H15  1  0.70227300  0.09803100  0.67051300  1
  H  H16  1  0.42489400  0.08208700  0.83559400  1
  H  H17  1  0.57510600  0.91791300  0.16440600  1
  H  H18  1  0.07510600  0.91791300  0.33559400  1
  H  H19  1  0.92489400  0.08208700  0.66440600  1
  H  H20  1  0.22395900  0.60932300  0.39898600  1
  H  H21  1  0.77604100  0.39067700  0.60101400  1
  H  H22  1  0.27604100  0.39067700  0.89898600  1
  H  H23  1  0.72395900  0.60932300  0.10101400  1
  C  C0  1  0.43061100  0.25954300  0.46479600  1
  C  C1  1  0.56938900  0.74045700  0.53520400  1
  C  C2  1  0.06938900  0.74045700  0.96479600  1
  C  C3  1  0.93061100  0.25954300  0.03520400  1
  C  C4  1  0.18780800  0.22591800  0.16711200  1
  C  C5  1  0.81219200  0.77408200  0.83288800  1
  C  C6  1  0.31219200  0.77408200  0.66711200  1
  C  C7  1  0.68780800  0.22591800  0.33288800  1
  C  C8  1  0.08214000  0.73824800  0.06756700  1
  C  C9  1  0.91786000  0.26175200  0.93243300  1
  C  C10  1  0.41786000  0.26175200  0.56756700  1
  C  C11  1  0.58214000  0.73824800  0.43243300  1
  C  C12  1  0.10073300  0.22889900  0.00590400  1
  C  C13  1  0.89926700  0.77110100  0.99409600  1
  C  C14  1  0.39926700  0.77110100  0.50590400  1
  C  C15  1  0.60073300  0.22889900  0.49409600  1
  C  C16  1  0.13932000  0.72518100  0.12885100  1
  C  C17  1  0.86068000  0.27481900  0.87114900  1
  C  C18  1  0.36068000  0.27481900  0.62885100  1
  C  C19  1  0.63932000  0.72518100  0.37114900  1
  C  C20  1  0.11838900  0.23027000  0.10748600  1
  C  C21  1  0.88161100  0.76973000  0.89251400  1
  C  C22  1  0.38161100  0.76973000  0.60748600  1
  C  C23  1  0.61838900  0.23027000  0.39251400  1
  S  S0  1  0.25169900  0.29194100  0.51341200  1
  S  S1  1  0.74830100  0.70805900  0.48658800  1
  S  S2  1  0.24830100  0.70805900  0.01341200  1
  S  S3  1  0.75169900  0.29194100  0.98658800  1
  S  S4  1  0.28227800  0.19930200  0.05354700  1
  S  S5  1  0.71772200  0.80069800  0.94645300  1
  S  S6  1  0.21772200  0.80069800  0.55354700  1
  S  S7  1  0.78227800  0.19930200  0.44645300  1
  N  N0  1  0.44102400  0.26108000  0.40750200  1
  N  N1  1  0.55897600  0.73892000  0.59249800  1
  N  N2  1  0.05897600  0.73892000  0.90750200  1
  N  N3  1  0.94102400  0.26108000  0.09249800  1
  N  N4  1  0.59423300  0.23217000  0.55126800  1
  N  N5  1  0.40576700  0.76783000  0.44873200  1
  N  N6  1  0.90576700  0.76783000  0.05126800  1
  N  N7  1  0.09423300  0.23217000  0.94873200  1
  O  O0  1  0.18667600  0.30734500  0.63875100  1
  O  O1  1  0.81332400  0.69265500  0.36124900  1
  O  O2  1  0.31332400  0.69265500  0.13875100  1
  O  O3  1  0.68667600  0.30734500  0.86124900  1
  O  O4  1  0.36424600  0.20505800  0.17424700  1
  O  O5  1  0.63575400  0.79494200  0.82575300  1
  O  O6  1  0.13575400  0.79494200  0.67424700  1
  O  O7  1  0.86424600  0.20505800  0.32575300  1
  O  O8  1  0.00929800  0.74598000  0.16497400  1
  O  O9  1  0.99070200  0.25402000  0.83502600  1
  O  O10  1  0.49070200  0.25402000  0.66497400  1
  O  O11  1  0.50929800  0.74598000  0.33502600  1
  O  O12  1  0.12953500  0.51791900  0.38588300  1
  O  O13  1  0.87046500  0.48208100  0.61411700  1
  O  O14  1  0.37046500  0.48208100  0.88588300  1
  O  O15  1  0.62953500  0.51791900  0.11411700  1
  O  O16  1  0.30590900  0.01926500  0.82365300  1
  O  O17  1  0.69409100  0.98073500  0.17634700  1
  O  O18  1  0.19409100  0.98073500  0.32365300  1
  O  O19  1  0.80590900  0.01926500  0.67634700  1
  O  O20  1  0.42872000  0.54652900  0.24082300  1
  O  O21  1  0.57128000  0.45347100  0.75917700  1
  O  O22  1  0.07128000  0.45347100  0.74082300  1
  O  O23  1  0.92872000  0.54652900  0.25917700  1
  O  O24  1  0.06366100  0.24652500  0.20552100  1
  O  O25  1  0.93633900  0.75347500  0.79447900  1
  O  O26  1  0.43633900  0.75347500  0.70552100  1
  O  O27  1  0.56366100  0.24652500  0.29447900  1
loop_
_geom_bond_atom_site_label_1
_geom_bond_atom_site_label_2
_geom_bond_distance
_geom_bond_site_symmetry_2
H0 O20 0.993111 1_555
H1 O21 0.993111 1_555
H2 O22 0.993111 1_555
H3 O23 0.993111 1_555
H4 O20 0.994331 1_555
H5 O21 0.994331 1_555
H6 O22 0.994331 1_555
H7 O23 0.994331 1_555
H8 O12 0.989837 1_555
H9 O13 0.989837 1_555
H10 O14 0.989837 1_555
H11 O15 0.989837 1_555
H12 O16 0.984528 1_555
H13 O17 0.984528 1_555
H14 O18 0.984528 1_555
H15 O19 0.984528 1_555
H16 O16 0.974529 1_555
H17 O17 0.974529 1_555
H18 O18 0.974529 1_555
H19 O19 0.974529 1_555
H20 O12 0.983365 1_555
H21 O13 0.983365 1_555
H22 O14 0.983365 1_555
H23 O15 0.983365 1_555
C0 N0 1.357369 1_555
C0 C15 1.406479 1_555
C0 S0 1.726308 1_555
C1 N1 1.357369 1_555
C1 C14 1.406479 1_555
C1 S1 1.726308 1_555
C2 N2 1.357369 1_555
C2 S2 1.726308 1_556
C3 N3 1.357369 1_555
C3 S3 1.726308 1_554
C4 O4 1.261507 1_555
C4 O24 1.271684 1_555
C5 O5 1.261507 1_555
C5 O25 1.271684 1_555
C6 O6 1.261507 1_555
C6 O26 1.271684 1_555
C7 O7 1.261507 1_555
C7 O27 1.271684 1_555
C8 N6 1.322010 1_455
C8 S2 1.752537 1_555
C9 N7 1.322010 1_655
C9 S3 1.752537 1_555
C10 N4 1.322010 1_555
C10 S0 1.752537 1_555
C11 N5 1.322010 1_555
C11 S1 1.752537 1_555
C12 N7 1.353583 1_554
C12 C3 1.406479 1_455
C12 S4 1.720578 1_555
C13 N6 1.353583 1_556
C13 C2 1.406479 1_655
C13 S5 1.720578 1_555
C14 N5 1.353583 1_555
C14 S6 1.720578 1_555
C15 N4 1.353583 1_555
C15 S7 1.720578 1_555
C16 O8 1.263251 1_555
C16 O2 1.275806 1_555
C17 O9 1.263251 1_555
C17 O3 1.275806 1_555
C18 O10 1.263251 1_555
C18 O0 1.275806 1_555
C19 O11 1.263251 1_555
C19 O1 1.275806 1_555
C20 N3 1.322110 1_455
C20 C4 1.492280 1_555
C20 S4 1.739310 1_555
C21 N2 1.322110 1_655
C21 C5 1.492280 1_555
C21 S5 1.739310 1_555
C22 N1 1.322110 1_555
C22 C6 1.492280 1_555
C22 S6 1.739310 1_555
C23 N0 1.322110 1_555
C23 C7 1.492280 1_555
C23 S7 1.739310 1_555
N0 Sr0 2.993759 1_555
N1 Sr1 2.993759 1_555
N2 Sr2 2.993759 1_555
N3 Sr3 2.993759 1_555
O4 Sr3 2.532172 1_555
O5 Sr2 2.532172 1_555
O6 Sr1 2.532172 1_455
O7 Sr0 2.532172 1_655
O12 Sr0 2.585055 1_555
O13 Sr1 2.585055 1_555
O14 Sr2 2.585055 1_555
O15 Sr3 2.585055 1_555
O16 Sr2 2.615376 1_545
O17 Sr3 2.615376 1_565
O18 Sr0 2.615376 1_565
O19 Sr1 2.615376 1_545
O20 Sr0 2.732041 1_555
O20 Sr3 2.924286 1_555
O21 Sr1 2.732041 1_555
O21 Sr2 2.924286 1_555
O22 Sr2 2.732041 1_555
O22 Sr1 2.924286 1_455
O23 Sr3 2.732041 1_555
O23 Sr0 2.924286 1_655
O24 Sr0 2.564677 1_555
O24 Sr3 2.582593 1_455
O25 Sr1 2.564677 1_555
O25 Sr2 2.582593 1_655
O26 Sr2 2.564677 1_555
O26 Sr1 2.582593 1_555
O27 Sr3 2.564677 1_555
O27 Sr0 2.582593 1_555
