# generated using pymatgen
data_NaInSn2
_symmetry_space_group_name_H-M   'P 1'
_cell_length_a   6.35394734
_cell_length_b   6.56535185
_cell_length_c   11.51751760
_cell_angle_alpha   90.00000000
_cell_angle_beta   90.00000000
_cell_angle_gamma   90.00000000
_symmetry_Int_Tables_number   1
_chemical_formula_structural   NaInSn2
_chemical_formula_sum   'Na4 In4 Sn8'
_cell_volume   480.46361157
_cell_formula_units_Z   4
loop_
 _symmetry_equiv_pos_site_id
 _symmetry_equiv_pos_as_xyz
  1  'x, y, z'
loop_
 _atom_site_type_symbol
 _atom_site_label
 _atom_site_symmetry_multiplicity
 _atom_site_fract_x
 _atom_site_fract_y
 _atom_site_fract_z
 _atom_site_occupancy
  Na  Na0  1  0.88473683  0.61998614  0.06480270  1
  Na  Na1  1  0.61526317  0.38001386  0.56480270  1
  Na  Na2  1  0.38473683  0.88001386  0.93519730  1
  Na  Na3  1  0.11526317  0.11998614  0.43519730  1
  In  In0  1  0.60118979  0.90974331  0.38941281  1
  In  In1  1  0.89881021  0.09025669  0.88941281  1
  In  In2  1  0.10118979  0.59025669  0.61058719  1
  In  In3  1  0.39881021  0.40974331  0.11058719  1
  Sn  Sn0  1  0.77111190  0.72954061  0.76445042  1
  Sn  Sn1  1  0.72888810  0.27045939  0.26445042  1
  Sn  Sn2  1  0.27111190  0.77045939  0.23554958  1
  Sn  Sn3  1  0.22888810  0.22954061  0.73554958  1
  Sn  Sn4  1  0.93310160  0.61318770  0.37781063  1
  Sn  Sn5  1  0.56689840  0.38681230  0.87781063  1
  Sn  Sn6  1  0.43310160  0.88681230  0.62218937  1
  Sn  Sn7  1  0.06689840  0.11318770  0.12218937  1
loop_
_geom_bond_atom_site_label_1
_geom_bond_atom_site_label_2
_geom_bond_distance
_geom_bond_site_symmetry_2
Na0 Sn2 3.297038 1_655
Na0 Sn5 3.325720 1_554
Na0 Sn1 3.396176 1_555
Na0 Sn7 3.501635 1_665
Na0 Sn7 3.584345 1_655
Na0 Sn0 3.606303 1_554
Na0 Sn4 3.618424 1_555
Na0 Na2 3.903313 1_554
Na0 Na2 3.903313 1_654
Na1 Sn3 3.297038 1_555
Na1 Sn4 3.325720 1_555
Na1 Sn0 3.396176 1_555
Na1 Sn6 3.501635 1_545
Na1 Sn6 3.584345 1_555
Na1 Sn1 3.606303 1_555
Na1 Sn5 3.618424 1_555
Na1 Na3 3.903313 1_555
Na1 Na3 3.903313 1_655
Na2 Sn0 3.297038 1_555
Na2 Sn7 3.325720 1_566
Na2 Sn3 3.396176 1_565
Na2 Sn5 3.501635 1_555
Na2 Sn5 3.584345 1_565
Na2 Sn2 3.606303 1_556
Na2 Sn6 3.618424 1_555
Na3 Sn1 3.297038 1_455
Na3 Sn6 3.325720 1_545
Na3 Sn2 3.396176 1_545
Na3 Sn4 3.501635 1_455
Na3 Sn4 3.584345 1_445
Na3 Sn3 3.606303 1_555
Na3 Sn7 3.618424 1_555
In0 Sn4 2.873379 1_555
In0 Sn1 2.887614 1_565
In0 Sn6 2.889835 1_555
In0 Sn2 2.894009 1_555
In0 Na3 3.422912 1_565
In0 Na3 3.585064 1_665
In0 Na1 3.690695 1_565
In1 Sn5 2.873379 1_555
In1 Sn0 2.887614 1_545
In1 Sn7 2.889835 1_656
In1 Sn3 2.894009 1_655
In1 Na2 3.422912 1_645
In1 Na2 3.585064 1_545
In1 Na0 3.690695 1_546
In2 Sn6 2.873379 1_555
In2 Sn3 2.887614 1_555
In2 Sn4 2.889835 1_455
In2 Sn0 2.894009 1_455
In2 Na1 3.422912 1_455
In2 Na1 3.585064 1_555
In2 Na3 3.690695 1_555
In3 Sn7 2.873379 1_555
In3 Sn2 2.887614 1_555
In3 Sn5 2.889835 1_554
In3 Sn1 2.894009 1_555
In3 Na0 3.422912 1_555
In3 Na0 3.585064 1_455
In3 Na2 3.690695 1_554
Sn0 Sn6 2.891958 1_555
Sn0 Sn5 2.907134 1_555
Sn1 Sn7 2.891958 1_655
Sn1 Sn4 2.907134 1_555
Sn2 Sn4 2.891958 1_455
Sn2 Sn7 2.907134 1_565
Sn3 Sn5 2.891958 1_555
Sn3 Sn6 2.907134 1_545
