# generated using pymatgen
data_Na3V5O10
_symmetry_space_group_name_H-M   'P 1'
_cell_length_a   7.28732397
_cell_length_b   8.34427600
_cell_length_c   8.07793496
_cell_angle_alpha   68.89581482
_cell_angle_beta   104.76410978
_cell_angle_gamma   88.05107734
_symmetry_Int_Tables_number   1
_chemical_formula_structural   Na3V5O10
_chemical_formula_sum   'Na6 V10 O20'
_cell_volume   438.79513062
_cell_formula_units_Z   2
loop_
 _symmetry_equiv_pos_site_id
 _symmetry_equiv_pos_as_xyz
  1  'x, y, z'
loop_
 _atom_site_type_symbol
 _atom_site_label
 _atom_site_symmetry_multiplicity
 _atom_site_fract_x
 _atom_site_fract_y
 _atom_site_fract_z
 _atom_site_occupancy
  Na  Na0  1  0.44984200  0.04845100  0.15247300  1
  Na  Na1  1  0.95039800  0.55129500  0.64764500  1
  Na  Na2  1  0.85385800  0.65191000  0.94545700  1
  Na  Na3  1  0.35245400  0.14828300  0.44840500  1
  Na  Na4  1  0.04736500  0.45185000  0.35129200  1
  Na  Na5  1  0.54598200  0.94828900  0.85438300  1
  V  V0  1  0.20007400  0.79992900  0.40007100  1
  V  V1  1  0.69994000  0.29997200  0.89995200  1
  V  V2  1  0.59897200  0.40551600  0.19676400  1
  V  V3  1  0.10250700  0.90313500  0.69754500  1
  V  V4  1  0.80115700  0.19439700  0.60324800  1
  V  V5  1  0.29735400  0.69693100  0.10240700  1
  V  V6  1  0.89794300  0.09565200  0.30156500  1
  V  V7  1  0.39162700  0.59478000  0.80213000  1
  V  V8  1  0.00837300  0.00523200  0.99805800  1
  V  V9  1  0.50220200  0.50431500  0.49833600  1
  O  O0  1  0.64433300  0.53790500  0.73788400  1
  O  O1  1  0.15236800  0.03823300  0.23997800  1
  O  O2  1  0.75557500  0.06224900  0.06204200  1
  O  O3  1  0.24774200  0.56144900  0.56028100  1
  O  O4  1  0.05552600  0.75246800  0.17246700  1
  O  O5  1  0.56668800  0.24657700  0.67485300  1
  O  O6  1  0.83324700  0.35349800  0.12505600  1
  O  O7  1  0.34448900  0.84747100  0.62765400  1
  O  O8  1  0.74867000  0.43713900  0.43363700  1
  O  O9  1  0.24228200  0.94988300  0.92836100  1
  O  O10  1  0.65141200  0.16289300  0.36635600  1
  O  O11  1  0.15764200  0.65021200  0.87163400  1
  O  O12  1  0.47149100  0.34559100  0.98179800  1
  O  O13  1  0.96816800  0.84961700  0.47434400  1
  O  O14  1  0.43200900  0.75034900  0.32573600  1
  O  O15  1  0.92845400  0.25441000  0.81817100  1
  O  O16  1  0.03320200  0.15473600  0.51980100  1
  O  O17  1  0.55072200  0.64065200  0.03559300  1
  O  O18  1  0.84915700  0.95937900  0.76444500  1
  O  O19  1  0.36677600  0.44535300  0.28017700  1
loop_
_geom_bond_atom_site_label_1
_geom_bond_atom_site_label_2
_geom_bond_distance
_geom_bond_site_symmetry_2
Na0 O12 2.397710 1_554
Na0 O14 2.402243 1_545
Na0 O1 2.440573 1_555
Na0 O9 2.450091 1_544
Na0 O10 2.458592 1_555
Na0 O2 2.509413 1_555
Na1 O15 2.396214 1_555
Na1 O13 2.403721 1_555
Na1 O3 2.439108 1_655
Na1 O11 2.450194 1_655
Na1 O8 2.458208 1_555
Na1 O0 2.511067 1_555
Na2 O6 2.421287 1_556
Na2 O11 2.435860 1_655
Na2 O18 2.447144 1_555
Na2 O0 2.447531 1_555
Na2 O4 2.458644 1_656
Na2 O17 2.490687 1_556
Na3 O19 2.380397 1_555
Na3 O1 2.399420 1_555
Na3 O7 2.415742 1_545
Na3 O10 2.428228 1_555
Na3 O5 2.483569 1_555
Na3 O16 2.538858 1_555
Na4 O16 2.380915 1_555
Na4 O3 2.401000 1_555
Na4 O4 2.413920 1_555
Na4 O8 2.427515 1_455
Na4 O6 2.482294 1_455
Na4 O19 2.538950 1_555
Na5 O5 2.420481 1_565
Na5 O9 2.435811 1_555
Na5 O2 2.447976 1_566
Na5 O17 2.448609 1_556
Na5 O7 2.457852 1_555
Na5 O18 2.490206 1_555
O0 V1 1.903417 1_555
O0 V9 2.069922 1_555
O0 V7 2.119175 1_555
O1 V0 1.902447 1_545
O1 V8 2.087559 1_554
O1 V6 2.120381 1_455
O2 V1 1.902082 1_554
O2 V6 2.069448 1_555
O2 V8 2.118972 1_654
O3 V0 1.903863 1_555
O3 V7 2.088193 1_555
O3 V9 2.121510 1_555
O4 V8 2.028675 1_564
O4 V0 2.052410 1_555
O4 V5 2.069375 1_555
O5 V4 2.019437 1_555
O5 V1 2.039776 1_555
O5 V9 2.064133 1_555
O6 V2 2.018238 1_555
O6 V1 2.040521 1_554
O6 V6 2.064850 1_555
O7 V7 2.028353 1_555
O7 V0 2.052347 1_555
O7 V3 2.069933 1_555
O8 V4 1.951383 1_555
O8 V2 2.059184 1_555
O8 V9 2.105758 1_555
O9 V8 2.014616 1_565
O9 V5 2.027457 1_556
O9 V3 2.061289 1_555
O10 V2 1.950574 1_555
O10 V4 2.058938 1_555
O10 V6 2.106769 1_555
O11 V7 2.014429 1_555
O11 V3 2.027354 1_555
O11 V5 2.060742 1_556
O12 V2 1.990754 1_556
O12 V1 2.013115 1_555
O12 V7 2.020544 1_555
O13 V6 1.981334 1_565
O13 V0 2.009015 1_655
O13 V3 2.029423 1_655
O14 V9 1.980934 1_555
O14 V0 2.009245 1_555
O14 V5 2.030440 1_555
O15 V4 1.990549 1_555
O15 V1 2.013092 1_555
O15 V8 2.020988 1_655
O16 V6 2.023788 1_455
O16 V3 2.027746 1_545
O16 V4 2.031475 1_455
O17 V2 1.883741 1_555
O17 V7 2.117286 1_554
O17 V5 2.133631 1_555
O18 V4 1.883070 1_565
O18 V8 2.118481 1_665
O18 V3 2.133812 1_655
O19 V9 2.023019 1_555
O19 V5 2.027684 1_555
O19 V2 2.032686 1_555
