# generated using pymatgen
data_La(Ni2B)6
_symmetry_space_group_name_H-M   'P 1'
_cell_length_a   6.01934177
_cell_length_b   6.01934226
_cell_length_c   11.01346989
_cell_angle_alpha   89.99961440
_cell_angle_beta   89.99961019
_cell_angle_gamma   104.72231473
_symmetry_Int_Tables_number   1
_chemical_formula_structural   La(Ni2B)6
_chemical_formula_sum   'La2 Ni24 B12'
_cell_volume   385.94419199
_cell_formula_units_Z   2
loop_
 _symmetry_equiv_pos_site_id
 _symmetry_equiv_pos_as_xyz
  1  'x, y, z'
loop_
 _atom_site_type_symbol
 _atom_site_label
 _atom_site_symmetry_multiplicity
 _atom_site_fract_x
 _atom_site_fract_y
 _atom_site_fract_z
 _atom_site_occupancy
  La  La0  1  0.33237300  0.33237284  0.50004646  1
  La  La1  1  0.66765377  0.66765374  0.00005728  1
  Ni  Ni0  1  0.35282440  0.62100856  0.74343414  1
  Ni  Ni1  1  0.37896198  0.64716120  0.24356179  1
  Ni  Ni2  1  0.84413115  0.22389214  0.93246738  1
  Ni  Ni3  1  0.15588184  0.77611823  0.43264623  1
  Ni  Ni4  1  0.77611830  0.15588162  0.43264640  1
  Ni  Ni5  1  0.62100854  0.35282462  0.74343424  1
  Ni  Ni6  1  0.87057364  0.50751232  0.56237099  1
  Ni  Ni7  1  0.12943878  0.49250024  0.06225152  1
  Ni  Ni8  1  0.49250007  0.12943852  0.06225155  1
  Ni  Ni9  1  0.50751249  0.87057365  0.56237093  1
  Ni  Ni10  1  0.02517107  0.29031935  0.72527932  1
  Ni  Ni11  1  0.97482318  0.70967205  0.22540341  1
  Ni  Ni12  1  0.70967219  0.97482302  0.22540332  1
  Ni  Ni13  1  0.29031955  0.02517110  0.72527931  1
  Ni  Ni14  1  0.30452563  0.03816053  0.26402381  1
  Ni  Ni15  1  0.69547214  0.96183427  0.76388741  1
  Ni  Ni16  1  0.96183444  0.69547252  0.76388739  1
  Ni  Ni17  1  0.03816066  0.30452540  0.26402366  1
  Ni  Ni18  1  0.27560160  0.27560198  0.89972287  1
  Ni  Ni19  1  0.72442021  0.72441998  0.39999143  1
  Ni  Ni20  1  0.92888427  0.92888436  0.58412974  1
  Ni  Ni21  1  0.07114593  0.07114592  0.08403957  1
  Ni  Ni22  1  0.22389206  0.84413125  0.93246740  1
  Ni  Ni23  1  0.64716129  0.37896189  0.24356170  1
  B  B0  1  0.48576416  0.89686996  0.37786013  1
  B  B1  1  0.51425518  0.10312265  0.87779850  1
  B  B2  1  0.24893470  0.82257065  0.11343378  1
  B  B3  1  0.75103384  0.17742292  0.61341216  1
  B  B4  1  0.17742296  0.75103404  0.61341209  1
  B  B5  1  0.82257071  0.24893460  0.11343369  1
  B  B6  1  0.01364366  0.01364387  0.83766315  1
  B  B7  1  0.98633042  0.98633016  0.33775175  1
  B  B8  1  0.33604754  0.33604753  0.16849039  1
  B  B9  1  0.66394423  0.66394420  0.66844168  1
  B  B10  1  0.10312252  0.51425533  0.87779837  1
  B  B11  1  0.89686990  0.48576381  0.37786010  1
loop_
_geom_bond_atom_site_label_1
_geom_bond_atom_site_label_2
_geom_bond_distance
_geom_bond_site_symmetry_2
La0 Ni13 3.065748 1_555
La0 Ni10 3.065749 1_555
La0 Ni19 3.085714 1_555
La0 Ni20 3.107550 1_445
La0 Ni14 3.125800 1_555
La0 Ni17 3.125802 1_555
La0 Ni0 3.179681 1_555
La0 Ni5 3.179681 1_555
La0 Ni4 3.202566 1_555
La0 Ni3 3.202567 1_555
La0 Ni6 3.215867 1_555
La0 Ni9 3.215868 1_555
La0 Ni9 3.286164 1_545
La0 Ni6 3.286165 1_455
La0 Ni4 3.329076 1_455
La0 Ni3 3.329076 1_545
La0 Ni1 3.373164 1_555
La0 Ni23 3.373164 1_555
La1 Ni12 3.066681 1_555
La1 Ni11 3.066682 1_555
La1 Ni18 3.086870 1_554
La1 Ni21 3.107263 1_665
La1 Ni15 3.127037 1_554
La1 Ni16 3.127037 1_554
La1 Ni23 3.180900 1_555
La1 Ni1 3.180901 1_555
La1 Ni2 3.203101 1_554
La1 Ni22 3.203102 1_554
La1 Ni7 3.215635 1_555
La1 Ni8 3.215636 1_555
La1 Ni8 3.285835 1_565
La1 Ni7 3.285836 1_655
La1 Ni22 3.329432 1_654
La1 Ni2 3.329433 1_564
La1 Ni5 3.374577 1_554
La1 Ni0 3.374579 1_554
B0 Ni14 1.989192 1_565
B0 Ni19 1.989608 1_555
B0 Ni3 2.025262 1_555
B0 Ni9 2.045036 1_555
B0 Ni1 2.090254 1_555
B0 Ni4 2.112928 1_565
B0 Ni12 2.129438 1_555
B0 La0 3.281099 1_565
B1 Ni18 1.989441 1_555
B1 Ni15 1.989616 1_545
B1 Ni2 2.024866 1_555
B1 Ni8 2.044418 1_556
B1 Ni5 2.090684 1_555
B1 Ni22 2.112517 1_545
B1 Ni13 2.130095 1_555
B1 La1 3.281260 1_546
B2 Ni22 2.005450 1_554
B2 Ni7 2.013998 1_555
B2 Ni11 2.033469 1_455
B2 Ni1 2.049726 1_555
B2 Ni21 2.074302 1_565
B2 Ni14 2.079911 1_565
B2 Ni8 2.121951 1_565
B2 La1 3.158442 1_555
B3 Ni4 2.003267 1_555
B3 Ni6 2.013684 1_555
B3 Ni10 2.032914 1_655
B3 Ni5 2.048879 1_555
B3 Ni20 2.074182 1_545
B3 Ni15 2.078881 1_545
B3 Ni9 2.121348 1_545
B3 La0 3.158197 1_555
B4 Ni3 2.003268 1_555
B4 Ni9 2.013684 1_555
B4 Ni13 2.032914 1_565
B4 Ni0 2.048878 1_555
B4 Ni20 2.074182 1_455
B4 Ni16 2.078881 1_455
B4 Ni6 2.121349 1_455
B4 La0 3.158199 1_555
B5 Ni2 2.005449 1_554
B5 Ni8 2.013999 1_555
B5 Ni12 2.033469 1_545
B5 Ni23 2.049726 1_555
B5 Ni21 2.074301 1_655
B5 Ni17 2.079911 1_655
B5 Ni7 2.121952 1_655
B5 La1 3.158442 1_555
B6 Ni16 2.030230 1_445
B6 Ni15 2.030230 1_445
B6 Ni18 2.043563 1_555
B6 Ni10 2.061944 1_555
B6 Ni13 2.061946 1_555
B6 Ni2 2.095063 1_455
B6 Ni22 2.095064 1_545
B6 La1 3.109483 1_446
B7 Ni14 2.030126 1_665
B7 Ni17 2.030127 1_665
B7 Ni19 2.043881 1_555
B7 Ni11 2.061661 1_555
B7 Ni12 2.061662 1_555
B7 Ni3 2.095547 1_655
B7 Ni4 2.095549 1_565
B7 La0 3.109202 1_665
B8 Ni23 2.002866 1_555
B8 Ni1 2.002866 1_555
B8 Ni17 2.045781 1_555
B8 Ni14 2.045783 1_555
B8 Ni7 2.097109 1_555
B8 Ni8 2.097109 1_555
B8 Ni21 2.158217 1_555
B8 La1 3.063402 1_555
B9 Ni5 2.002514 1_555
B9 Ni0 2.002515 1_555
B9 Ni15 2.045311 1_555
B9 Ni16 2.045311 1_555
B9 Ni6 2.096087 1_555
B9 Ni9 2.096087 1_555
B9 Ni20 2.157795 1_555
B9 La0 3.062978 1_555
B10 Ni18 1.989439 1_555
B10 Ni16 1.989615 1_455
B10 Ni22 2.024866 1_555
B10 Ni7 2.044420 1_556
B10 Ni0 2.090684 1_555
B10 Ni2 2.112517 1_455
B10 Ni10 2.130095 1_555
B10 La1 3.281259 1_456
B11 Ni17 1.989193 1_655
B11 Ni19 1.989607 1_555
B11 Ni4 2.025262 1_555
B11 Ni6 2.045037 1_555
B11 Ni23 2.090254 1_555
B11 Ni3 2.112929 1_655
B11 Ni11 2.129438 1_555
B11 La0 3.281099 1_655
