# generated using pymatgen
data_CaLaMn2O6
_symmetry_space_group_name_H-M   'P 1'
_cell_length_a   7.67318100
_cell_length_b   5.52695800
_cell_length_c   11.05800924
_cell_angle_alpha   89.62946118
_cell_angle_beta   90.00000000
_cell_angle_gamma   90.00000000
_symmetry_Int_Tables_number   1
_chemical_formula_structural   CaLaMn2O6
_chemical_formula_sum   'Ca4 La4 Mn8 O24'
_cell_volume   468.95316762
_cell_formula_units_Z   4
loop_
 _symmetry_equiv_pos_site_id
 _symmetry_equiv_pos_as_xyz
  1  'x, y, z'
loop_
 _atom_site_type_symbol
 _atom_site_label
 _atom_site_symmetry_multiplicity
 _atom_site_fract_x
 _atom_site_fract_y
 _atom_site_fract_z
 _atom_site_occupancy
  Ca  Ca0  1  0.00000000  0.01257300  0.98269600  1
  Ca  Ca1  1  0.50000000  0.99101300  0.51850700  1
  Ca  Ca2  1  0.00000000  0.48173100  0.73661700  1
  Ca  Ca3  1  0.50000000  0.52124700  0.26869100  1
  La  La0  1  0.50000000  0.99465000  0.01133600  1
  La  La1  1  0.50000000  0.49376300  0.75791600  1
  La  La2  1  0.00000000  0.50314300  0.23528500  1
  La  La3  1  0.00000000  0.00252200  0.48981100  1
  Mn  Mn0  1  0.75507100  0.99201500  0.74975400  1
  Mn  Mn1  1  0.25557700  0.00830900  0.25132100  1
  Mn  Mn2  1  0.74442300  0.00830900  0.25132100  1
  Mn  Mn3  1  0.24492900  0.99201500  0.74975400  1
  Mn  Mn4  1  0.74649900  0.50039900  0.49947100  1
  Mn  Mn5  1  0.25350100  0.50039900  0.49947100  1
  Mn  Mn6  1  0.75329000  0.49920400  0.99941500  1
  Mn  Mn7  1  0.24671000  0.49920400  0.99941500  1
  O  O0  1  0.00000000  0.90908700  0.75598100  1
  O  O1  1  0.50000000  0.09582000  0.23598300  1
  O  O2  1  0.21324500  0.21458800  0.61525300  1
  O  O3  1  0.71028000  0.79231700  0.38884300  1
  O  O4  1  0.28972000  0.79231700  0.38884300  1
  O  O5  1  0.78675500  0.21458800  0.61525300  1
  O  O6  1  0.78463800  0.26318400  0.86039200  1
  O  O7  1  0.28949500  0.73481000  0.14232100  1
  O  O8  1  0.71050500  0.73481000  0.14232100  1
  O  O9  1  0.21536200  0.26318400  0.86039200  1
  O  O10  1  0.50000000  0.05686000  0.74431600  1
  O  O11  1  0.00000000  0.93883000  0.26238200  1
  O  O12  1  0.70572500  0.76501300  0.88625900  1
  O  O13  1  0.20405000  0.22855600  0.10976200  1
  O  O14  1  0.79595000  0.22855600  0.10976200  1
  O  O15  1  0.29427500  0.76501300  0.88625900  1
  O  O16  1  0.00000000  0.56602700  0.50241900  1
  O  O17  1  0.50000000  0.41945400  0.49676500  1
  O  O18  1  0.50000000  0.42931500  0.99433200  1
  O  O19  1  0.00000000  0.58586500  0.00579600  1
  O  O20  1  0.28547700  0.71508000  0.63693000  1
  O  O21  1  0.78897400  0.28557400  0.36086100  1
  O  O22  1  0.21102600  0.28557400  0.36086100  1
  O  O23  1  0.71452300  0.71508000  0.63693000  1
loop_
_geom_bond_atom_site_label_1
_geom_bond_atom_site_label_2
_geom_bond_distance
_geom_bond_site_symmetry_2
Ca0 O19 2.370547 1_546
Ca0 O14 2.423311 1_456
Ca0 O13 2.423311 1_556
Ca0 O9 2.540512 1_555
Ca0 O6 2.540512 1_455
Ca0 O0 2.575038 1_545
Ca0 O12 2.850768 1_445
Ca0 O15 2.850768 1_545
Ca1 O17 2.378602 1_565
Ca1 O3 2.426039 1_555
Ca1 O4 2.426039 1_555
Ca1 O10 2.525708 1_565
Ca1 O20 2.593148 1_555
Ca1 O23 2.593148 1_555
Ca1 O5 2.744077 1_565
Ca1 O2 2.744077 1_565
Ca2 O0 2.373043 1_555
Ca2 O9 2.458005 1_555
Ca2 O6 2.458005 1_455
Ca2 O5 2.585363 1_455
Ca2 O2 2.585363 1_555
Ca2 O16 2.628371 1_555
Ca2 O23 2.767396 1_455
Ca2 O20 2.767396 1_555
Ca2 O19 3.035368 1_556
Ca3 O1 2.381283 1_555
Ca3 O7 2.435906 1_555
Ca3 O8 2.435906 1_555
Ca3 O3 2.576636 1_555
Ca3 O4 2.576636 1_555
Ca3 O17 2.580481 1_555
Ca3 O21 2.763136 1_555
Ca3 O22 2.763136 1_555
La0 O18 2.408510 1_564
La0 O15 2.457315 1_554
La0 O12 2.457315 1_554
La0 O1 2.549828 1_565
La0 O7 2.596636 1_555
La0 O8 2.596636 1_555
La0 O13 2.833901 1_565
La0 O14 2.833901 1_565
La1 O10 2.420394 1_555
La1 O23 2.444282 1_555
La1 O20 2.444282 1_555
La1 O15 2.604060 1_555
La1 O12 2.604060 1_555
La1 O18 2.636162 1_555
La1 O6 2.767619 1_555
La1 O9 2.767619 1_555
La1 O17 2.919497 1_555
La1 O10 3.114873 1_565
La1 O2 3.121289 1_555
La1 O5 3.121289 1_555
La2 O11 2.428517 1_555
La2 O22 2.444300 1_555
La2 O21 2.444300 1_455
La2 O19 2.575637 1_555
La2 O13 2.590086 1_555
La2 O14 2.590086 1_455
La2 O8 2.759275 1_455
La2 O7 2.759275 1_555
La3 O16 2.415614 1_545
La3 O2 2.448740 1_555
La3 O5 2.448740 1_455
La3 O11 2.541683 1_545
La3 O22 2.659655 1_555
La3 O21 2.659655 1_455
La3 O3 2.748670 1_445
La3 O4 2.748670 1_545
La3 O0 2.984979 1_545
La3 O16 3.118488 1_555
La3 O23 3.152056 1_445
La3 O20 3.152056 1_545
Mn0 O0 1.935586 1_655
Mn0 O5 1.939282 1_565
Mn0 O6 1.954022 1_565
Mn0 O10 1.990588 1_565
Mn0 O12 1.992858 1_555
Mn0 O23 2.005191 1_555
Mn1 O1 1.944003 1_555
Mn1 O4 1.944955 1_545
Mn1 O7 1.956806 1_545
Mn1 O22 1.989083 1_555
Mn1 O11 2.001920 1_545
Mn1 O13 2.015897 1_555
Mn2 O1 1.944003 1_555
Mn2 O3 1.944955 1_545
Mn2 O8 1.956806 1_545
Mn2 O21 1.989083 1_555
Mn2 O11 2.001920 1_645
Mn2 O14 2.015897 1_555
Mn3 O0 1.935586 1_555
Mn3 O2 1.939282 1_565
Mn3 O9 1.954022 1_565
Mn3 O10 1.990588 1_565
Mn3 O15 1.992858 1_555
Mn3 O20 2.005191 1_555
Mn4 O17 1.943896 1_555
Mn4 O23 1.949835 1_555
Mn4 O21 1.972013 1_555
Mn4 O16 1.978997 1_655
Mn4 O3 2.037487 1_555
Mn4 O5 2.050320 1_555
Mn5 O17 1.943896 1_555
Mn5 O20 1.949835 1_555
Mn5 O22 1.972013 1_555
Mn5 O16 1.978997 1_555
Mn5 O4 2.037487 1_555
Mn5 O2 2.050320 1_555
Mn6 O14 1.951940 1_556
Mn6 O19 1.954091 1_656
Mn6 O12 1.957915 1_555
Mn6 O18 1.982422 1_555
Mn6 O6 2.036858 1_555
Mn6 O8 2.080213 1_556
Mn7 O13 1.951940 1_556
Mn7 O19 1.954091 1_556
Mn7 O15 1.957915 1_555
Mn7 O18 1.982422 1_555
Mn7 O9 2.036858 1_555
Mn7 O7 2.080213 1_556
