# generated using pymatgen
data_Te2MoWSe2
_symmetry_space_group_name_H-M   'P 1'
_cell_length_a   3.43839216
_cell_length_b   3.43839216
_cell_length_c   39.14142200
_cell_angle_alpha   90.00000000
_cell_angle_beta   90.00000000
_cell_angle_gamma   120.00000300
_symmetry_Int_Tables_number   1
_chemical_formula_structural   Te2MoWSe2
_chemical_formula_sum   'Te4 Mo2 W2 Se4'
_cell_volume   400.75415403
_cell_formula_units_Z   2
loop_
 _symmetry_equiv_pos_site_id
 _symmetry_equiv_pos_as_xyz
  1  'x, y, z'
loop_
 _atom_site_type_symbol
 _atom_site_label
 _atom_site_symmetry_multiplicity
 _atom_site_fract_x
 _atom_site_fract_y
 _atom_site_fract_z
 _atom_site_occupancy
  Te  Te0  1  0.00000000  0.00000000  0.70493000  1
  Te  Te1  1  0.33333300  0.66666700  0.42192800  1
  Te  Te2  1  0.33333300  0.66666700  0.51731800  1
  Te  Te3  1  0.00000000  0.00000000  0.61017400  1
  Mo  Mo0  1  0.00000000  0.00000000  0.09392700  1
  Mo  Mo1  1  0.33333300  0.66666700  0.65758300  1
  W  W0  1  0.00000000  0.00000000  0.46965100  1
  W  W1  1  0.33333300  0.66666700  0.28181400  1
  Se  Se0  1  0.00000000  0.00000000  0.32371600  1
  Se  Se1  1  0.33333300  0.66666700  0.05209700  1
  Se  Se2  1  0.33333300  0.66666700  0.13574400  1
  Se  Se3  1  0.00000000  0.00000000  0.23986600  1
loop_
_geom_bond_atom_site_label_1
_geom_bond_atom_site_label_2
_geom_bond_distance
_geom_bond_site_symmetry_2
Te1 W0 2.725814 1_565
Te1 W0 2.725816 1_665
Te1 W0 2.725816 1_555
Te2 W0 2.724312 1_565
Te2 W0 2.724314 1_665
Te2 W0 2.724314 1_555
Mo0 Se2 2.572912 1_545
Mo0 Se2 2.572914 1_445
Mo0 Se2 2.572914 1_555
Mo0 Se1 2.573236 1_545
Mo0 Se1 2.573238 1_445
Mo0 Se1 2.573238 1_555
Mo1 Te0 2.715750 1_565
Mo1 Te0 2.715752 1_665
Mo1 Te0 2.715752 1_555
Mo1 Te3 2.717406 1_565
Mo1 Te3 2.717408 1_665
Mo1 Te3 2.717408 1_555
Se0 W1 2.575030 1_545
Se0 W1 2.575032 1_445
Se0 W1 2.575032 1_555
Se3 W1 2.576177 1_545
Se3 W1 2.576179 1_445
Se3 W1 2.576179 1_555
