# generated using pymatgen
data_SiO2
_symmetry_space_group_name_H-M   'P 1'
_cell_length_a   13.93435596
_cell_length_b   13.93785735
_cell_length_c   11.32383292
_cell_angle_alpha   90.00536073
_cell_angle_beta   89.99690894
_cell_angle_gamma   119.97956496
_symmetry_Int_Tables_number   1
_chemical_formula_structural   SiO2
_chemical_formula_sum   'Si34 O68'
_cell_volume   1905.00618615
_cell_formula_units_Z   34
loop_
 _symmetry_equiv_pos_site_id
 _symmetry_equiv_pos_as_xyz
  1  'x, y, z'
loop_
 _atom_site_type_symbol
 _atom_site_label
 _atom_site_symmetry_multiplicity
 _atom_site_fract_x
 _atom_site_fract_y
 _atom_site_fract_z
 _atom_site_occupancy
  Si  Si0  1  0.45094545  0.22334271  0.24432250  1
  Si  Si1  1  0.81394545  0.20506220  0.24233520  1
  Si  Si2  1  0.83246804  0.58646527  0.24326022  1
  Si  Si3  1  0.61454058  0.78480087  0.24538346  1
  Si  Si4  1  0.25125250  0.80360471  0.24169822  1
  Si  Si5  1  0.23254879  0.42138040  0.24283629  1
  Si  Si6  1  0.61381383  0.78596846  0.78523256  1
  Si  Si7  1  0.24998315  0.80414624  0.78708299  1
  Si  Si8  1  0.23191564  0.42340352  0.78887376  1
  Si  Si9  1  0.45150008  0.22184877  0.78617936  1
  Si  Si10  1  0.81529997  0.20397689  0.78645675  1
  Si  Si11  1  0.83388872  0.58580270  0.78823626  1
  Si  Si12  1  0.42604797  0.01518796  0.37403490  1
  Si  Si13  1  0.02107426  0.38593304  0.37468408  1
  Si  Si14  1  0.65132810  0.61026998  0.37720332  1
  Si  Si15  1  0.64042314  0.99319789  0.37473055  1
  Si  Si16  1  0.04448734  0.62321478  0.37500200  1
  Si  Si17  1  0.41370808  0.39757130  0.37744820  1
  Si  Si18  1  0.64016299  0.99298299  0.65350114  1
  Si  Si19  1  0.04454767  0.62265584  0.65414718  1
  Si  Si20  1  0.41426643  0.39758712  0.65720837  1
  Si  Si21  1  0.42564266  0.01499076  0.65342587  1
  Si  Si22  1  0.02095076  0.38548764  0.65358932  1
  Si  Si23  1  0.65162478  0.61051943  0.65652753  1
  Si  Si24  1  0.30014327  0.12029135  0.01456699  1
  Si  Si25  1  0.91623351  0.15413280  0.01515258  1
  Si  Si26  1  0.88180681  0.73885392  0.01603450  1
  Si  Si27  1  0.76386344  0.88750941  0.01471164  1
  Si  Si28  1  0.14790108  0.85398867  0.01488397  1
  Si  Si29  1  0.18221094  0.26880151  0.01581739  1
  Si  Si30  1  0.36722935  0.66989199  0.15789324  1
  Si  Si31  1  0.69848105  0.33821910  0.15735471  1
  Si  Si32  1  0.69971034  0.33716180  0.87248503  1
  Si  Si33  1  0.36628202  0.67159188  0.87328444  1
  O  O0  1  0.39576887  0.29077413  0.30231342  1
  O  O1  1  0.74582564  0.08132631  0.29740392  1
  O  O2  1  0.95609346  0.64072959  0.29842762  1
  O  O3  1  0.67011354  0.71686810  0.30111270  1
  O  O4  1  0.32035294  0.92732949  0.29677408  1
  O  O5  1  0.10897170  0.36785034  0.29790939  1
  O  O6  1  0.74931685  0.58395779  0.34529873  1
  O  O7  1  0.89686552  0.28785860  0.34312087  1
  O  O8  1  0.45196933  0.13946244  0.34317294  1
  O  O9  1  0.31570830  0.42365072  0.34469255  1
  O  O10  1  0.16845133  0.72158845  0.34304448  1
  O  O11  1  0.61624659  0.86929136  0.34519032  1
  O  O12  1  0.66934398  0.71684770  0.73246750  1
  O  O13  1  0.31957917  0.92681707  0.72984770  1
  O  O14  1  0.10967225  0.36873215  0.73028895  1
  O  O15  1  0.39584645  0.29051707  0.73228592  1
  O  O16  1  0.74561413  0.08060427  0.73099396  1
  O  O17  1  0.95694194  0.64079692  0.73144769  1
  O  O18  1  0.31712052  0.42463982  0.69035440  1
  O  O19  1  0.16916279  0.71987080  0.68594301  1
  O  O20  1  0.61600211  0.86905535  0.68329258  1
  O  O21  1  0.75035712  0.58537698  0.68806897  1
  O  O22  1  0.89700291  0.28671143  0.68490767  1
  O  O23  1  0.45081547  0.13900750  0.68481093  1
  O  O24  1  0.37789525  0.15383675  0.13137144  1
  O  O25  1  0.88428488  0.20354877  0.12901331  1
  O  O26  1  0.83407356  0.66133701  0.13284303  1
  O  O27  1  0.68528255  0.85362866  0.13095296  1
  O  O28  1  0.18073252  0.80521382  0.12860519  1
  O  O29  1  0.23021793  0.34565185  0.13299501  1
  O  O30  1  0.68433846  0.85622824  0.89930695  1
  O  O31  1  0.17661547  0.80745275  0.89644881  1
  O  O32  1  0.22727788  0.34958802  0.90143731  1
  O  O33  1  0.38010003  0.15104010  0.89958457  1
  O  O34  1  0.88772248  0.20158033  0.89728262  1
  O  O35  1  0.83671351  0.65870820  0.90102128  1
  O  O36  1  0.57774778  0.31107788  0.20580058  1
  O  O37  1  0.72681151  0.24524555  0.20499594  1
  O  O38  1  0.79268132  0.46028030  0.20171544  1
  O  O39  1  0.48675981  0.69729025  0.21024399  1
  O  O40  1  0.33723386  0.76226592  0.20344762  1
  O  O41  1  0.27252368  0.54741145  0.20053657  1
  O  O42  1  0.48563016  0.69949577  0.81990034  1
  O  O43  1  0.33592143  0.76459515  0.83103916  1
  O  O44  1  0.27115712  0.54995954  0.82868598  1
  O  O45  1  0.57906428  0.30888096  0.82268758  1
  O  O46  1  0.72916837  0.24432359  0.82726469  1
  O  O47  1  0.79379338  0.45886265  0.82704292  1
  O  O48  1  0.39799597  0.99131738  0.51368716  1
  O  O49  1  0.04489275  0.38105950  0.51411679  1
  O  O50  1  0.65575676  0.63798489  0.51684525  1
  O  O51  1  0.66850229  0.01855745  0.51415387  1
  O  O52  1  0.02119396  0.62814368  0.51463210  1
  O  O53  1  0.40861771  0.37041980  0.51729448  1
  O  O54  1  0.53271434  0.00315488  0.33977011  1
  O  O55  1  0.03303838  0.50470571  0.34119532  1
  O  O56  1  0.53249385  0.50390290  0.34303530  1
  O  O57  1  0.53247100  0.00324335  0.68806195  1
  O  O58  1  0.03156594  0.50351805  0.68748988  1
  O  O59  1  0.53350993  0.50343482  0.69123595  1
  O  O60  1  0.21464479  0.98808999  0.01625823  1
  O  O61  1  0.04802519  0.19793966  0.01782228  1
  O  O62  1  0.83429393  0.82375954  0.01244496  1
  O  O63  1  0.84870077  0.01995006  0.01631722  1
  O  O64  1  0.01598732  0.80937642  0.01799468  1
  O  O65  1  0.23003668  0.18426153  0.01109648  1
  O  O66  1  0.37360630  0.67276852  0.01554618  1
  O  O67  1  0.69631183  0.33603512  0.01490970  1
loop_
_geom_bond_atom_site_label_1
_geom_bond_atom_site_label_2
_geom_bond_distance
_geom_bond_site_symmetry_2
O0 Si0 1.621007 1_555
O0 Si17 1.621727 1_555
O1 Si1 1.621198 1_555
O1 Si15 1.621652 1_545
O2 Si2 1.621028 1_555
O2 Si16 1.621496 1_655
O3 Si3 1.620901 1_555
O3 Si14 1.621706 1_555
O4 Si4 1.621820 1_555
O4 Si12 1.622228 1_565
O5 Si5 1.620731 1_555
O5 Si13 1.621053 1_555
O6 Si14 1.621642 1_555
O6 Si2 1.624256 1_555
O7 Si13 1.620932 1_655
O7 Si1 1.623768 1_555
O8 Si12 1.621014 1_555
O8 Si0 1.623860 1_555
O9 Si17 1.621917 1_555
O9 Si5 1.624066 1_555
O10 Si16 1.621039 1_555
O10 Si4 1.623885 1_555
O11 Si15 1.620603 1_555
O11 Si3 1.623720 1_555
O12 Si6 1.621328 1_555
O12 Si23 1.621984 1_555
O13 Si7 1.620774 1_555
O13 Si21 1.621224 1_565
O14 Si8 1.620220 1_555
O14 Si22 1.620482 1_555
O15 Si9 1.622276 1_555
O15 Si20 1.622688 1_555
O16 Si10 1.620296 1_555
O16 Si18 1.620851 1_545
O17 Si11 1.620997 1_555
O17 Si19 1.621308 1_655
O18 Si20 1.620332 1_555
O18 Si8 1.622940 1_555
O19 Si19 1.621539 1_555
O19 Si7 1.624062 1_555
O20 Si18 1.621606 1_555
O20 Si6 1.624654 1_555
O21 Si23 1.620189 1_555
O21 Si11 1.623164 1_555
O22 Si22 1.621063 1_655
O22 Si10 1.623665 1_555
O23 Si21 1.622072 1_555
O23 Si9 1.624695 1_555
O24 Si0 1.620181 1_555
O24 Si24 1.623476 1_555
O25 Si1 1.621213 1_555
O25 Si25 1.625168 1_555
O26 Si2 1.621658 1_555
O26 Si26 1.625205 1_555
O27 Si3 1.620522 1_555
O27 Si27 1.624133 1_555
O28 Si4 1.621211 1_555
O28 Si28 1.625057 1_555
O29 Si5 1.621024 1_555
O29 Si29 1.624566 1_555
O30 Si6 1.622188 1_555
O30 Si27 1.625743 1_556
O31 Si7 1.621098 1_555
O31 Si28 1.624372 1_556
O32 Si8 1.619010 1_555
O32 Si29 1.622755 1_556
O33 Si9 1.622280 1_555
O33 Si24 1.625749 1_556
O34 Si10 1.621207 1_555
O34 Si25 1.624652 1_556
O35 Si11 1.620194 1_555
O35 Si26 1.623949 1_556
O36 Si31 1.624268 1_555
O36 Si0 1.627358 1_555
O37 Si31 1.624041 1_555
O37 Si1 1.626752 1_555
O38 Si31 1.624131 1_555
O38 Si2 1.627052 1_555
O39 Si30 1.623523 1_555
O39 Si3 1.626635 1_555
O40 Si30 1.623605 1_555
O40 Si4 1.626285 1_555
O41 Si30 1.624067 1_555
O41 Si5 1.627153 1_555
O42 Si33 1.623558 1_555
O42 Si6 1.626552 1_555
O43 Si33 1.623675 1_555
O43 Si7 1.626490 1_555
O44 Si33 1.624874 1_555
O44 Si8 1.627761 1_555
O45 Si32 1.623992 1_555
O45 Si9 1.626985 1_555
O46 Si32 1.623491 1_555
O46 Si10 1.626229 1_555
O47 Si32 1.624328 1_555
O47 Si11 1.627210 1_555
O48 Si21 1.623002 1_565
O48 Si12 1.623074 1_565
O49 Si22 1.621728 1_555
O49 Si13 1.621833 1_555
O50 Si14 1.621589 1_555
O50 Si23 1.621676 1_555
O51 Si18 1.622428 1_545
O51 Si15 1.622468 1_545
O52 Si16 1.622439 1_555
O52 Si19 1.622533 1_555
O53 Si17 1.621510 1_555
O53 Si20 1.621694 1_555
O54 Si15 1.623816 1_545
O54 Si12 1.623853 1_555
O55 Si13 1.623691 1_555
O55 Si16 1.623842 1_555
O56 Si14 1.623613 1_555
O56 Si17 1.623720 1_555
O57 Si18 1.624766 1_545
O57 Si21 1.624863 1_555
O58 Si22 1.622428 1_555
O58 Si19 1.622512 1_555
O59 Si20 1.623567 1_555
O59 Si23 1.623585 1_555
O60 Si24 1.618967 1_565
O60 Si28 1.619087 1_555
O61 Si25 1.620375 1_455
O61 Si29 1.620658 1_555
O62 Si26 1.619701 1_555
O62 Si27 1.620116 1_555
O63 Si27 1.620021 1_545
O63 Si25 1.620059 1_555
O64 Si28 1.619988 1_555
O64 Si26 1.620440 1_455
O65 Si29 1.618681 1_555
O65 Si24 1.619042 1_555
O66 Si33 1.613747 1_554
O66 Si30 1.613756 1_555
O67 Si31 1.613308 1_555
O67 Si32 1.613333 1_554
