# generated using pymatgen
data_K3ReC4(N2O)2
_symmetry_space_group_name_H-M   'P 1'
_cell_length_a   6.98930000
_cell_length_b   7.38159422
_cell_length_c   8.49221062
_cell_angle_alpha   108.85699590
_cell_angle_beta   101.07162565
_cell_angle_gamma   112.70574829
_symmetry_Int_Tables_number   1
_chemical_formula_structural   K3ReC4(N2O)2
_chemical_formula_sum   'K3 Re1 C4 N4 O2'
_cell_volume   356.41098593
_cell_formula_units_Z   1
loop_
 _symmetry_equiv_pos_site_id
 _symmetry_equiv_pos_as_xyz
  1  'x, y, z'
loop_
 _atom_site_type_symbol
 _atom_site_label
 _atom_site_symmetry_multiplicity
 _atom_site_fract_x
 _atom_site_fract_y
 _atom_site_fract_z
 _atom_site_occupancy
  K  K0  1  0.40401400  0.74597800  0.87584600  1
  K  K1  1  0.59598600  0.25402200  0.12415400  1
  K  K2  1  0.50000000  0.50000000  0.50000000  1
  Re  Re0  1  0.00000000  0.00000000  0.00000000  1
  C  C0  1  0.63975500  0.81629600  0.13595200  1
  C  C1  1  0.91559800  0.90637900  0.32227800  1
  C  C2  1  0.08440200  0.09362100  0.67772200  1
  C  C3  1  0.36024500  0.18370400  0.86404800  1
  N  N0  1  0.88210300  0.98915900  0.77152900  1
  N  N1  1  0.44004500  0.69902800  0.20726300  1
  N  N2  1  0.11789700  0.01084100  0.22847100  1
  N  N3  1  0.55995500  0.30097200  0.79273700  1
  O  O0  1  0.01228900  0.75840500  0.01171800  1
  O  O1  1  0.98771100  0.24159500  0.98828200  1
loop_
_geom_bond_atom_site_label_1
_geom_bond_atom_site_label_2
_geom_bond_distance
_geom_bond_site_symmetry_2
K0 O0 3.189764 1_556
K1 O1 3.189764 1_554
K2 N0 3.208646 1_555
K2 N2 3.208646 1_555
K2 N3 3.309100 1_555
K2 N1 3.309100 1_555
C0 N1 1.671864 1_555
C0 C1 1.954837 1_555
C0 K0 2.250366 1_554
C1 N2 1.793432 1_665
C2 N0 1.793432 1_445
C2 C3 1.954837 1_555
C3 N3 1.671864 1_555
C3 K1 2.250366 1_556
N0 O1 1.898533 1_565
N0 Re0 1.919521 1_666
N2 O0 1.898533 1_545
N2 Re0 1.919521 1_555
O0 Re0 1.851303 1_565
O1 Re0 1.851303 1_656
