# generated using pymatgen
data_TbP4HO12
_symmetry_space_group_name_H-M   'P 1'
_cell_length_a   7.12716898
_cell_length_b   9.65266523
_cell_length_c   13.65518475
_cell_angle_alpha   78.55982931
_cell_angle_beta   90.00000000
_cell_angle_gamma   90.00000000
_symmetry_Int_Tables_number   1
_chemical_formula_structural   TbP4HO12
_chemical_formula_sum   'Tb4 P16 H4 O48'
_cell_volume   920.76034236
_cell_formula_units_Z   4
loop_
 _symmetry_equiv_pos_site_id
 _symmetry_equiv_pos_as_xyz
  1  'x, y, z'
loop_
 _atom_site_type_symbol
 _atom_site_label
 _atom_site_symmetry_multiplicity
 _atom_site_fract_x
 _atom_site_fract_y
 _atom_site_fract_z
 _atom_site_occupancy
  Tb  Tb0  1  0.55865448  0.44029912  0.73031552  1
  Tb  Tb1  1  0.05865448  0.05970088  0.26968448  1
  Tb  Tb2  1  0.44134552  0.55970088  0.26968448  1
  Tb  Tb3  1  0.94134552  0.94029912  0.73031552  1
  P  P0  1  0.17966623  0.37348892  0.90063411  1
  P  P1  1  0.67966723  0.12651108  0.09936589  1
  P  P2  1  0.82033377  0.62651108  0.09936589  1
  P  P3  1  0.32033377  0.87348892  0.90063411  1
  P  P4  1  0.64922955  0.68928525  0.89964534  1
  P  P5  1  0.14922955  0.81071475  0.10035466  1
  P  P6  1  0.35077045  0.31071475  0.10035466  1
  P  P7  1  0.85077045  0.18928525  0.89964534  1
  P  P8  1  0.28808730  0.20639969  0.61218608  1
  P  P9  1  0.78808730  0.29360031  0.38781392  1
  P  P10  1  0.71191270  0.79360031  0.38781392  1
  P  P11  1  0.21191270  0.70639969  0.61218608  1
  P  P12  1  0.89824162  0.28920491  0.59390109  1
  P  P13  1  0.39824162  0.21079509  0.40609891  1
  P  P14  1  0.10175838  0.71079509  0.40609891  1
  P  P15  1  0.60175838  0.78920491  0.59390109  1
  H  H0  1  0.14008235  0.55526504  0.78868095  1
  H  H1  1  0.64008235  0.94473496  0.21131905  1
  H  H2  1  0.85991765  0.44473496  0.21131905  1
  H  H3  1  0.35991765  0.05526504  0.78868095  1
  O  O0  1  0.02694368  0.26134531  0.94379527  1
  O  O1  1  0.52694368  0.23865469  0.05620473  1
  O  O2  1  0.97305632  0.73865469  0.05620473  1
  O  O3  1  0.47305632  0.76134531  0.94379527  1
  O  O4  1  0.27201036  0.40438619  0.99890771  1
  O  O5  1  0.77201036  0.09561381  0.00109229  1
  O  O6  1  0.72798964  0.59561381  0.00109229  1
  O  O7  1  0.22798964  0.90438619  0.99890771  1
  O  O8  1  0.11936050  0.31281575  0.58098637  1
  O  O9  1  0.61936050  0.18718425  0.41901363  1
  O  O10  1  0.88063950  0.68718425  0.41901363  1
  O  O11  1  0.38063950  0.81281575  0.58098637  1
  O  O12  1  0.32513699  0.14302454  0.51536993  1
  O  O13  1  0.82513699  0.35697546  0.48463007  1
  O  O14  1  0.67486301  0.85697546  0.48463007  1
  O  O15  1  0.17486301  0.64302454  0.51536993  1
  O  O16  1  0.31605477  0.32439121  0.83389729  1
  O  O17  1  0.81605477  0.17560879  0.16610271  1
  O  O18  1  0.68394523  0.67560879  0.16610271  1
  O  O19  1  0.18394523  0.82439121  0.83389729  1
  O  O20  1  0.57802316  0.59024687  0.83882640  1
  O  O21  1  0.07802316  0.90975313  0.16117360  1
  O  O22  1  0.42197684  0.40975313  0.16117360  1
  O  O23  1  0.92197684  0.09024687  0.83882640  1
  O  O24  1  0.78652247  0.79972226  0.85874944  1
  O  O25  1  0.28652247  0.70027774  0.14125056  1
  O  O26  1  0.21347753  0.20027774  0.14125056  1
  O  O27  1  0.71347753  0.29972226  0.85874944  1
  O  O28  1  0.45082136  0.29145288  0.63382355  1
  O  O29  1  0.95082136  0.20854712  0.36617645  1
  O  O30  1  0.54917864  0.70854712  0.36617645  1
  O  O31  1  0.04917864  0.79145288  0.63382355  1
  O  O32  1  0.22839131  0.08443166  0.69196842  1
  O  O33  1  0.72839131  0.41556834  0.30803158  1
  O  O34  1  0.77160869  0.91556834  0.30803158  1
  O  O35  1  0.27160869  0.58443166  0.69196842  1
  O  O36  1  0.85883889  0.13495776  0.61618618  1
  O  O37  1  0.35883889  0.36504224  0.38381382  1
  O  O38  1  0.14116111  0.86504224  0.38381382  1
  O  O39  1  0.64116111  0.63495776  0.61618618  1
  O  O40  1  0.83123758  0.37986852  0.66200241  1
  O  O41  1  0.33123758  0.12013148  0.33799759  1
  O  O42  1  0.16876242  0.62013148  0.33799759  1
  O  O43  1  0.66876242  0.87986852  0.66200241  1
  O  O44  1  0.07710821  0.51069302  0.85383735  1
  O  O45  1  0.57710821  0.98930698  0.14616265  1
  O  O46  1  0.92289179  0.48930698  0.14616265  1
  O  O47  1  0.42289179  0.01069302  0.85383735  1
loop_
_geom_bond_atom_site_label_1
_geom_bond_atom_site_label_2
_geom_bond_distance
_geom_bond_site_symmetry_2
H0 O44 1.013069 1_555
H0 O35 1.598301 1_555
H1 O45 1.013069 1_555
H1 O34 1.598301 1_555
H2 O46 1.013069 1_555
H2 O33 1.598301 1_555
H3 O47 1.013069 1_555
H3 O32 1.598301 1_555
O0 P0 1.565516 1_555
O0 P7 1.609410 1_455
O1 P1 1.565521 1_555
O1 P6 1.609410 1_555
O2 P2 1.565516 1_555
O2 P5 1.609410 1_655
O3 P3 1.565516 1_555
O3 P4 1.609410 1_555
O4 P0 1.575338 1_555
O4 P6 1.598362 1_556
O5 P1 1.575335 1_555
O5 P7 1.598362 1_554
O6 P2 1.575338 1_555
O6 P4 1.598362 1_554
O7 P3 1.575338 1_555
O7 P5 1.598362 1_556
O8 P8 1.584032 1_555
O8 P12 1.597098 1_455
O9 P9 1.584032 1_555
O9 P13 1.597098 1_555
O10 P10 1.584032 1_555
O10 P14 1.597098 1_655
O11 P11 1.584032 1_555
O11 P15 1.597098 1_555
O12 P8 1.585108 1_555
O12 P13 1.593302 1_555
O13 P9 1.585108 1_555
O13 P12 1.593302 1_555
O14 P10 1.585108 1_555
O14 P15 1.593302 1_555
O15 P11 1.585108 1_555
O15 P14 1.593302 1_555
O16 P0 1.473537 1_555
O16 Tb0 2.369434 1_555
O17 P1 1.473533 1_555
O17 Tb1 2.369434 1_655
O18 P2 1.473537 1_555
O18 Tb2 2.369434 1_555
O19 P3 1.473537 1_555
O19 Tb3 2.369434 1_455
O20 P4 1.475171 1_555
O20 Tb0 2.271632 1_555
O21 P5 1.475171 1_555
O21 Tb1 2.271632 1_565
O22 P6 1.475171 1_555
O22 Tb2 2.271632 1_555
O23 P7 1.475171 1_555
O23 Tb3 2.271632 1_545
O24 P4 1.472945 1_555
O24 Tb3 2.278296 1_555
O25 P5 1.472945 1_555
O25 Tb2 2.278296 1_555
O26 P6 1.472945 1_555
O26 Tb1 2.278296 1_555
O27 P7 1.472945 1_555
O27 Tb0 2.278296 1_555
O28 P8 1.484171 1_555
O28 Tb0 2.267605 1_555
O29 P9 1.484171 1_555
O29 Tb1 2.267605 1_655
O30 P10 1.484171 1_555
O30 Tb2 2.267605 1_555
O31 P11 1.484171 1_555
O31 Tb3 2.267605 1_455
O32 P8 1.498392 1_555
O32 Tb3 2.471075 1_445
O33 P9 1.498392 1_555
O33 Tb2 2.471075 1_555
O34 P10 1.498392 1_555
O34 Tb1 2.471075 1_665
O35 P11 1.498392 1_555
O35 Tb0 2.471075 1_555
O36 P12 1.486118 1_555
O36 Tb3 2.267928 1_545
O37 P13 1.486118 1_555
O37 Tb2 2.267928 1_555
O38 P14 1.486118 1_555
O38 Tb1 2.267928 1_565
O39 P15 1.486118 1_555
O39 Tb0 2.267928 1_555
O40 P12 1.477008 1_555
O40 Tb0 2.280469 1_555
O41 P13 1.477008 1_555
O41 Tb1 2.280469 1_555
O42 P14 1.477008 1_555
O42 Tb2 2.280469 1_555
O43 P15 1.477008 1_555
O43 Tb3 2.280469 1_555
O44 P0 1.536524 1_555
O45 P1 1.536527 1_565
O46 P2 1.536524 1_555
O47 P3 1.536524 1_545
