# generated using pymatgen
data_Zn(WO2)2
_symmetry_space_group_name_H-M   'P 1'
_cell_length_a   3.22274300
_cell_length_b   9.72653000
_cell_length_c   10.97761400
_cell_angle_alpha   90.00000000
_cell_angle_beta   90.00000000
_cell_angle_gamma   90.00000000
_symmetry_Int_Tables_number   1
_chemical_formula_structural   Zn(WO2)2
_chemical_formula_sum   'Zn4 W8 O16'
_cell_volume   344.10545725
_cell_formula_units_Z   4
loop_
 _symmetry_equiv_pos_site_id
 _symmetry_equiv_pos_as_xyz
  1  'x, y, z'
loop_
 _atom_site_type_symbol
 _atom_site_label
 _atom_site_symmetry_multiplicity
 _atom_site_fract_x
 _atom_site_fract_y
 _atom_site_fract_z
 _atom_site_occupancy
  Zn  Zn0  1  0.25000000  0.24682000  0.85169900  1
  Zn  Zn1  1  0.75000000  0.75318000  0.14830100  1
  Zn  Zn2  1  0.25000000  0.74682000  0.64830100  1
  Zn  Zn3  1  0.75000000  0.25318000  0.35169900  1
  W  W0  1  0.75000000  0.39110700  0.59624400  1
  W  W1  1  0.25000000  0.10889300  0.09624400  1
  W  W2  1  0.75000000  0.89110700  0.90375600  1
  W  W3  1  0.25000000  0.60889300  0.40375600  1
  W  W4  1  0.25000000  0.54493800  0.87416000  1
  W  W5  1  0.75000000  0.45506200  0.12584000  1
  W  W6  1  0.25000000  0.04493800  0.62584000  1
  W  W7  1  0.75000000  0.95506200  0.37416000  1
  O  O0  1  0.75000000  0.89912000  0.57054900  1
  O  O1  1  0.25000000  0.10088000  0.42945100  1
  O  O2  1  0.75000000  0.39912000  0.92945100  1
  O  O3  1  0.25000000  0.60088000  0.07054900  1
  O  O4  1  0.75000000  0.09302200  0.22352400  1
  O  O5  1  0.25000000  0.90697800  0.77647600  1
  O  O6  1  0.75000000  0.59302200  0.27647600  1
  O  O7  1  0.25000000  0.40697800  0.72352400  1
  O  O8  1  0.75000000  0.61306300  0.54720800  1
  O  O9  1  0.25000000  0.38693700  0.45279200  1
  O  O10  1  0.75000000  0.11306300  0.95279200  1
  O  O11  1  0.25000000  0.88693700  0.04720800  1
  O  O12  1  0.25000000  0.81937600  0.32709300  1
  O  O13  1  0.75000000  0.18062400  0.67290700  1
  O  O14  1  0.75000000  0.68062400  0.82709300  1
  O  O15  1  0.25000000  0.31937600  0.17290700  1
loop_
_geom_bond_atom_site_label_1
_geom_bond_atom_site_label_2
_geom_bond_distance
_geom_bond_site_symmetry_2
O0 W7 2.223488 1_555
O0 W6 2.230808 1_565
O0 W6 2.230808 1_665
O0 Zn2 2.349347 1_555
O0 Zn2 2.349347 1_655
O1 W6 2.223488 1_555
O1 W7 2.230808 1_545
O1 W7 2.230808 1_445
O1 Zn3 2.349347 1_455
O1 Zn3 2.349347 1_555
O2 W5 2.223488 1_556
O2 W4 2.230808 1_555
O2 W4 2.230808 1_655
O2 Zn0 2.349347 1_555
O2 Zn0 2.349347 1_655
O3 W4 2.223488 1_554
O3 W5 2.230808 1_555
O3 W5 2.230808 1_455
O3 Zn1 2.349347 1_455
O3 Zn1 2.349347 1_555
O4 Zn3 2.099164 1_555
O4 W7 2.129576 1_545
O4 W1 2.138364 1_555
O4 W1 2.138364 1_655
O5 Zn2 2.099164 1_555
O5 W6 2.129576 1_565
O5 W2 2.138364 1_455
O5 W2 2.138364 1_555
O6 Zn1 2.099164 1_555
O6 W5 2.129576 1_555
O6 W3 2.138364 1_655
O6 W3 2.138364 1_555
O7 Zn0 2.099164 1_555
O7 W4 2.129576 1_555
O7 W0 2.138364 1_555
O7 W0 2.138364 1_455
O8 W0 2.224960 1_555
O8 W3 2.253449 1_655
O8 W3 2.253449 1_555
O8 Zn2 2.349609 1_655
O8 Zn2 2.349609 1_555
O9 W3 2.224960 1_555
O9 W0 2.253449 1_555
O9 W0 2.253449 1_455
O9 Zn3 2.349609 1_455
O9 Zn3 2.349609 1_555
O10 W2 2.224960 1_545
O10 W1 2.253449 1_656
O10 W1 2.253449 1_556
O10 Zn0 2.349609 1_555
O10 Zn0 2.349609 1_655
O11 W1 2.224960 1_565
O11 W2 2.253449 1_454
O11 W2 2.253449 1_554
O11 Zn1 2.349609 1_455
O11 Zn1 2.349609 1_555
O12 W7 2.145980 1_455
O12 W7 2.145980 1_555
O12 W3 2.213496 1_555
O13 W6 2.145980 1_555
O13 W6 2.145980 1_655
O13 W0 2.213496 1_555
O14 W4 2.145980 1_655
O14 W4 2.145980 1_555
O14 W2 2.213496 1_555
O15 W5 2.145980 1_555
O15 W5 2.145980 1_455
O15 W1 2.213496 1_555
