# generated using pymatgen
data_MgBi2
_symmetry_space_group_name_H-M   'P 1'
_cell_length_a   13.78964725
_cell_length_b   13.78964725
_cell_length_c   15.85997752
_cell_angle_alpha   72.64961100
_cell_angle_beta   72.64961100
_cell_angle_gamma   29.94641168
_symmetry_Int_Tables_number   1
_chemical_formula_structural   MgBi2
_chemical_formula_sum   'Mg16 Bi32'
_cell_volume   1431.95230798
_cell_formula_units_Z   16
loop_
 _symmetry_equiv_pos_site_id
 _symmetry_equiv_pos_as_xyz
  1  'x, y, z'
loop_
 _atom_site_type_symbol
 _atom_site_label
 _atom_site_symmetry_multiplicity
 _atom_site_fract_x
 _atom_site_fract_y
 _atom_site_fract_z
 _atom_site_occupancy
  Mg  Mg0_0  1  0.40026850  0.40026850  0.32191650  1
  Mg  Mg0_1  1  0.40026850  0.40026850  0.82191650  1
  Mg  Mg0_2  1  0.40026850  0.90026850  0.32191650  1
  Mg  Mg0_3  1  0.40026850  0.90026850  0.82191650  1
  Mg  Mg0_4  1  0.90026850  0.40026850  0.32191650  1
  Mg  Mg0_5  1  0.90026850  0.40026850  0.82191650  1
  Mg  Mg0_6  1  0.90026850  0.90026850  0.32191650  1
  Mg  Mg0_7  1  0.90026850  0.90026850  0.82191650  1
  Mg  Mg1_0  1  0.09973150  0.09973150  0.17808350  1
  Mg  Mg1_1  1  0.09973150  0.09973150  0.67808350  1
  Mg  Mg1_2  1  0.09973150  0.59973150  0.17808350  1
  Mg  Mg1_3  1  0.09973150  0.59973150  0.67808350  1
  Mg  Mg1_4  1  0.59973150  0.09973150  0.17808350  1
  Mg  Mg1_5  1  0.59973150  0.09973150  0.67808350  1
  Mg  Mg1_6  1  0.59973150  0.59973150  0.17808350  1
  Mg  Mg1_7  1  0.59973150  0.59973150  0.67808350  1
  Bi  Bi0_0  1  0.07826900  0.07826900  0.48316500  1
  Bi  Bi0_1  1  0.07826900  0.07826900  0.98316500  1
  Bi  Bi0_2  1  0.07826900  0.57826900  0.48316500  1
  Bi  Bi0_3  1  0.07826900  0.57826900  0.98316500  1
  Bi  Bi0_4  1  0.57826900  0.07826900  0.48316500  1
  Bi  Bi0_5  1  0.57826900  0.07826900  0.98316500  1
  Bi  Bi0_6  1  0.57826900  0.57826900  0.48316500  1
  Bi  Bi0_7  1  0.57826900  0.57826900  0.98316500  1
  Bi  Bi1_0  1  0.27834650  0.27834650  0.32778000  1
  Bi  Bi1_1  1  0.27834650  0.27834650  0.82778000  1
  Bi  Bi1_2  1  0.27834650  0.77834650  0.32778000  1
  Bi  Bi1_3  1  0.27834650  0.77834650  0.82778000  1
  Bi  Bi1_4  1  0.77834650  0.27834650  0.32778000  1
  Bi  Bi1_5  1  0.77834650  0.27834650  0.82778000  1
  Bi  Bi1_6  1  0.77834650  0.77834650  0.32778000  1
  Bi  Bi1_7  1  0.77834650  0.77834650  0.82778000  1
  Bi  Bi2_0  1  0.22165350  0.22165350  0.17222000  1
  Bi  Bi2_1  1  0.22165350  0.22165350  0.67222000  1
  Bi  Bi2_2  1  0.22165350  0.72165350  0.17222000  1
  Bi  Bi2_3  1  0.22165350  0.72165350  0.67222000  1
  Bi  Bi2_4  1  0.72165350  0.22165350  0.17222000  1
  Bi  Bi2_5  1  0.72165350  0.22165350  0.67222000  1
  Bi  Bi2_6  1  0.72165350  0.72165350  0.17222000  1
  Bi  Bi2_7  1  0.72165350  0.72165350  0.67222000  1
  Bi  Bi3_0  1  0.42173100  0.42173100  0.01683500  1
  Bi  Bi3_1  1  0.42173100  0.42173100  0.51683500  1
  Bi  Bi3_2  1  0.42173100  0.92173100  0.01683500  1
  Bi  Bi3_3  1  0.42173100  0.92173100  0.51683500  1
  Bi  Bi3_4  1  0.92173100  0.42173100  0.01683500  1
  Bi  Bi3_5  1  0.92173100  0.42173100  0.51683500  1
  Bi  Bi3_6  1  0.92173100  0.92173100  0.01683500  1
  Bi  Bi3_7  1  0.92173100  0.92173100  0.51683500  1
loop_
_geom_bond_atom_site_label_1
_geom_bond_atom_site_label_2
_geom_bond_distance
_geom_bond_site_symmetry_2
Bi0_0 Mg0_2 3.219417 1_545
Bi0_0 Mg0_4 3.219417 1_455
Bi0_0 Bi3_3 3.237296 1_545
Bi0_0 Bi3_5 3.237296 1_455
Bi0_0 Mg1_1 3.312875 1_555
Bi0_0 Bi0_6 3.562794 1_545
Bi0_0 Bi0_6 3.562794 1_455
Bi0_0 Bi1_4 3.611023 1_455
Bi0_0 Bi1_2 3.611023 1_545
Bi0_1 Mg0_3 3.219417 1_545
Bi0_1 Mg0_5 3.219417 1_455
Bi0_1 Bi3_2 3.237296 1_546
Bi0_1 Bi3_4 3.237296 1_456
Bi0_1 Mg1_0 3.312875 1_556
Bi0_1 Bi0_7 3.562794 1_545
Bi0_1 Bi0_7 3.562794 1_455
Bi0_1 Bi1_5 3.611023 1_455
Bi0_1 Bi1_3 3.611023 1_545
Bi0_2 Mg0_6 3.219417 1_455
Bi0_2 Mg0_0 3.219417 1_555
Bi0_2 Bi3_1 3.237296 1_555
Bi0_2 Bi3_7 3.237296 1_455
Bi0_2 Mg1_3 3.312875 1_555
Bi0_2 Bi0_4 3.562794 1_555
Bi0_2 Bi0_4 3.562794 1_465
Bi0_2 Bi1_0 3.611023 1_555
Bi0_2 Bi1_6 3.611023 1_455
Bi0_3 Mg0_7 3.219417 1_455
Bi0_3 Mg0_1 3.219417 1_555
Bi0_3 Bi3_6 3.237296 1_456
Bi0_3 Bi3_0 3.237296 1_556
Bi0_3 Mg1_2 3.312875 1_556
Bi0_3 Bi0_5 3.562794 1_465
Bi0_3 Bi0_5 3.562794 1_555
Bi0_3 Bi1_1 3.611023 1_555
Bi0_3 Bi1_7 3.611023 1_455
Bi0_4 Mg0_6 3.219417 1_545
Bi0_4 Mg0_0 3.219417 1_555
Bi0_4 Bi3_1 3.237296 1_555
Bi0_4 Bi3_7 3.237296 1_545
Bi0_4 Mg1_5 3.312875 1_555
Bi0_4 Bi1_0 3.611023 1_555
Bi0_4 Bi1_6 3.611023 1_545
Bi0_5 Mg0_7 3.219417 1_545
Bi0_5 Mg0_1 3.219417 1_555
Bi0_5 Bi3_6 3.237296 1_546
Bi0_5 Bi3_0 3.237296 1_556
Bi0_5 Mg1_4 3.312875 1_556
Bi0_5 Bi1_1 3.611023 1_555
Bi0_5 Bi1_7 3.611023 1_545
Bi0_6 Mg0_2 3.219417 1_555
Bi0_6 Mg0_4 3.219417 1_555
Bi0_6 Bi3_5 3.237296 1_555
Bi0_6 Bi3_3 3.237296 1_555
Bi0_6 Mg1_7 3.312875 1_555
Bi0_6 Bi1_4 3.611023 1_555
Bi0_6 Bi1_2 3.611023 1_555
Bi0_7 Mg0_3 3.219417 1_555
Bi0_7 Mg0_5 3.219417 1_555
Bi0_7 Bi3_2 3.237296 1_556
Bi0_7 Bi3_4 3.237296 1_556
Bi0_7 Mg1_6 3.312875 1_556
Bi0_7 Bi1_5 3.611023 1_555
Bi0_7 Bi1_3 3.611023 1_555
Bi1_0 Mg1_2 3.104762 1_555
Bi1_0 Mg1_4 3.104762 1_555
Bi1_0 Mg0_0 3.220862 1_555
Bi1_0 Bi2_0 3.266380 1_555
Bi1_0 Bi1_6 3.562794 1_455
Bi1_0 Bi1_6 3.562794 1_545
Bi1_1 Mg1_3 3.104762 1_555
Bi1_1 Mg1_5 3.104762 1_555
Bi1_1 Mg0_1 3.220862 1_555
Bi1_1 Bi2_1 3.266380 1_555
Bi1_1 Bi1_7 3.562794 1_545
Bi1_1 Bi1_7 3.562794 1_455
Bi1_2 Mg1_6 3.104762 1_555
Bi1_2 Mg1_0 3.104762 1_565
Bi1_2 Mg0_2 3.220862 1_555
Bi1_2 Bi2_2 3.266380 1_555
Bi1_2 Bi1_4 3.562794 1_465
Bi1_2 Bi1_4 3.562794 1_555
Bi1_3 Mg1_1 3.104762 1_565
Bi1_3 Mg1_7 3.104762 1_555
Bi1_3 Mg0_3 3.220862 1_555
Bi1_3 Bi2_3 3.266380 1_555
Bi1_3 Bi1_5 3.562794 1_555
Bi1_3 Bi1_5 3.562794 1_465
Bi1_4 Mg1_6 3.104762 1_555
Bi1_4 Mg1_0 3.104762 1_655
Bi1_4 Mg0_4 3.220862 1_555
Bi1_4 Bi2_4 3.266380 1_555
Bi1_5 Mg1_7 3.104762 1_555
Bi1_5 Mg1_1 3.104762 1_655
Bi1_5 Mg0_5 3.220862 1_555
Bi1_5 Bi2_5 3.266380 1_555
Bi1_6 Mg1_2 3.104762 1_655
Bi1_6 Mg1_4 3.104762 1_565
Bi1_6 Mg0_6 3.220862 1_555
Bi1_6 Bi2_6 3.266380 1_555
Bi1_7 Mg1_3 3.104762 1_655
Bi1_7 Mg1_5 3.104762 1_565
Bi1_7 Mg0_7 3.220862 1_555
Bi1_7 Bi2_7 3.266380 1_555
Bi2_0 Mg0_2 3.104762 1_545
Bi2_0 Mg0_4 3.104762 1_455
Bi2_0 Mg1_0 3.220862 1_555
Bi2_0 Bi2_6 3.562794 1_545
Bi2_0 Bi2_6 3.562794 1_455
Bi2_0 Bi3_4 3.611023 1_455
Bi2_0 Bi3_2 3.611023 1_545
Bi2_1 Mg0_5 3.104762 1_455
Bi2_1 Mg0_3 3.104762 1_545
Bi2_1 Mg1_1 3.220862 1_555
Bi2_1 Bi2_7 3.562794 1_455
Bi2_1 Bi2_7 3.562794 1_545
Bi2_1 Bi3_5 3.611023 1_455
Bi2_1 Bi3_3 3.611023 1_545
Bi2_2 Mg0_0 3.104762 1_555
Bi2_2 Mg0_6 3.104762 1_455
Bi2_2 Mg1_2 3.220862 1_555
Bi2_2 Bi2_4 3.562794 1_465
Bi2_2 Bi2_4 3.562794 1_555
Bi2_2 Bi3_0 3.611023 1_555
Bi2_2 Bi3_6 3.611023 1_455
Bi2_3 Mg0_7 3.104762 1_455
Bi2_3 Mg0_1 3.104762 1_555
Bi2_3 Mg1_3 3.220862 1_555
Bi2_3 Bi2_5 3.562794 1_465
Bi2_3 Bi2_5 3.562794 1_555
Bi2_3 Bi3_7 3.611023 1_455
Bi2_3 Bi3_1 3.611023 1_555
Bi2_4 Mg0_0 3.104762 1_555
Bi2_4 Mg0_6 3.104762 1_545
Bi2_4 Mg1_4 3.220862 1_555
Bi2_4 Bi3_0 3.611023 1_555
Bi2_4 Bi3_6 3.611023 1_545
Bi2_5 Mg0_1 3.104762 1_555
Bi2_5 Mg0_7 3.104762 1_545
Bi2_5 Mg1_5 3.220862 1_555
Bi2_5 Bi3_7 3.611023 1_545
Bi2_5 Bi3_1 3.611023 1_555
Bi2_6 Mg0_4 3.104762 1_555
Bi2_6 Mg0_2 3.104762 1_555
Bi2_6 Mg1_6 3.220862 1_555
Bi2_6 Bi3_4 3.611023 1_555
Bi2_6 Bi3_2 3.611023 1_555
Bi2_7 Mg0_5 3.104762 1_555
Bi2_7 Mg0_3 3.104762 1_555
Bi2_7 Mg1_7 3.220862 1_555
Bi2_7 Bi3_5 3.611023 1_555
Bi2_7 Bi3_3 3.611023 1_555
Bi3_0 Mg1_4 3.219417 1_555
Bi3_0 Mg1_2 3.219417 1_555
Bi3_0 Mg0_1 3.312875 1_554
Bi3_0 Bi3_6 3.562794 1_545
Bi3_0 Bi3_6 3.562794 1_455
Bi3_1 Mg1_5 3.219417 1_555
Bi3_1 Mg1_3 3.219417 1_555
Bi3_1 Mg0_0 3.312875 1_555
Bi3_1 Bi3_7 3.562794 1_545
Bi3_1 Bi3_7 3.562794 1_455
Bi3_2 Mg1_0 3.219417 1_565
Bi3_2 Mg1_6 3.219417 1_555
Bi3_2 Mg0_3 3.312875 1_554
Bi3_2 Bi3_4 3.562794 1_465
Bi3_2 Bi3_4 3.562794 1_555
Bi3_3 Mg1_1 3.219417 1_565
Bi3_3 Mg1_7 3.219417 1_555
Bi3_3 Mg0_2 3.312875 1_555
Bi3_3 Bi3_5 3.562794 1_465
Bi3_3 Bi3_5 3.562794 1_555
Bi3_4 Mg1_0 3.219417 1_655
Bi3_4 Mg1_6 3.219417 1_555
Bi3_4 Mg0_5 3.312875 1_554
Bi3_5 Mg1_1 3.219417 1_655
Bi3_5 Mg1_7 3.219417 1_555
Bi3_5 Mg0_4 3.312875 1_555
Bi3_6 Mg1_4 3.219417 1_565
Bi3_6 Mg1_2 3.219417 1_655
Bi3_6 Mg0_7 3.312875 1_554
Bi3_7 Mg1_5 3.219417 1_565
Bi3_7 Mg1_3 3.219417 1_655
Bi3_7 Mg0_6 3.312875 1_555
