# generated using pymatgen
data_NdFeCo3B
_symmetry_space_group_name_H-M   'P 1'
_cell_length_a   5.10887565
_cell_length_b   5.11907210
_cell_length_c   6.82892600
_cell_angle_alpha   90.00000000
_cell_angle_beta   90.00000000
_cell_angle_gamma   119.93412814
_symmetry_Int_Tables_number   1
_chemical_formula_structural   NdFeCo3B
_chemical_formula_sum   'Nd2 Fe2 Co6 B2'
_cell_volume   154.77025752
_cell_formula_units_Z   2
loop_
 _symmetry_equiv_pos_site_id
 _symmetry_equiv_pos_as_xyz
  1  'x, y, z'
loop_
 _atom_site_type_symbol
 _atom_site_label
 _atom_site_symmetry_multiplicity
 _atom_site_fract_x
 _atom_site_fract_y
 _atom_site_fract_z
 _atom_site_occupancy
  Nd  Nd0  1  0.99997900  0.00000000  0.00000000  1
  Nd  Nd1  1  0.99999100  0.00000000  0.50000000  1
  Fe  Fe0  1  0.33306600  0.66619900  0.00000000  1
  Fe  Fe1  1  0.66686800  0.33380100  0.00000000  1
  Co  Co0  1  0.49999600  0.00000000  0.28766800  1
  Co  Co1  1  0.49999200  0.50000400  0.28778700  1
  Co  Co2  1  0.99998800  0.49999600  0.28778700  1
  Co  Co3  1  0.49999600  0.00000000  0.71233200  1
  Co  Co4  1  0.49999200  0.50000400  0.71221300  1
  Co  Co5  1  0.99998800  0.49999600  0.71221300  1
  B  B0  1  0.33336400  0.66678300  0.50000000  1
  B  B1  1  0.66658000  0.33321700  0.50000000  1
loop_
_geom_bond_atom_site_label_1
_geom_bond_atom_site_label_2
_geom_bond_distance
_geom_bond_site_symmetry_2
Fe0 Nd0 2.952559 1_465
Fe0 Nd0 2.952670 1_565
Fe0 Nd0 2.955383 1_455
Fe1 Nd0 2.952564 1_455
Fe1 Nd0 2.952665 1_555
Fe1 Nd0 2.955383 1_565
Co0 Fe1 2.460060 1_555
Co0 Fe0 2.460060 1_545
Co0 Nd1 2.937264 1_555
Co0 Nd1 2.937309 1_455
Co0 Nd0 3.222394 1_555
Co0 Nd0 3.222532 1_455
Co1 Fe1 2.457016 1_555
Co1 Fe0 2.457127 1_555
Co1 Nd1 2.941310 1_565
Co1 Nd1 2.941332 1_455
Co1 Nd0 3.226967 1_565
Co1 Nd0 3.227035 1_455
Co2 Fe0 2.457013 1_655
Co2 Fe1 2.457125 1_555
Co2 Nd1 2.941310 1_555
Co2 Nd1 2.941332 1_565
Co2 Nd0 3.226966 1_555
Co2 Nd0 3.227035 1_565
Co3 Fe1 2.460060 1_556
Co3 Fe0 2.460060 1_546
Co3 Nd1 2.937264 1_555
Co3 Nd1 2.937309 1_455
Co3 Nd0 3.222394 1_556
Co3 Nd0 3.222532 1_456
Co4 Fe1 2.457016 1_556
Co4 Fe0 2.457127 1_556
Co4 Nd1 2.941310 1_565
Co4 Nd1 2.941332 1_455
Co4 Nd0 3.226967 1_566
Co4 Nd0 3.227035 1_456
Co5 Fe0 2.457013 1_656
Co5 Fe1 2.457125 1_556
Co5 Nd1 2.941310 1_555
Co5 Nd1 2.941332 1_565
Co5 Nd0 3.226966 1_556
Co5 Nd0 3.227035 1_566
B0 Co5 2.068490 1_455
B0 Co2 2.068490 1_455
B0 Co4 2.068588 1_555
B0 Co1 2.068588 1_555
B0 Co3 2.070655 1_565
B0 Co0 2.070655 1_565
B0 Nd1 2.951234 1_465
B0 Nd1 2.951398 1_565
B0 Nd1 2.957974 1_455
B1 Co4 2.068487 1_555
B1 Co1 2.068487 1_555
B1 Co5 2.068591 1_555
B1 Co2 2.068591 1_555
B1 Co3 2.070655 1_555
B1 Co0 2.070655 1_555
B1 Nd1 2.951230 1_455
B1 Nd1 2.951402 1_555
B1 Nd1 2.957974 1_565
