# generated using pymatgen
data_NaVPO4F
_symmetry_space_group_name_H-M   'P 1'
_cell_length_a   6.37621637
_cell_length_b   10.79749761
_cell_length_c   12.88533540
_cell_angle_alpha   90.00000000
_cell_angle_beta   90.00000000
_cell_angle_gamma   90.00000000
_symmetry_Int_Tables_number   1
_chemical_formula_structural   NaVPO4F
_chemical_formula_sum   'Na8 V8 P8 O32 F8'
_cell_volume   887.11901873
_cell_formula_units_Z   8
loop_
 _symmetry_equiv_pos_site_id
 _symmetry_equiv_pos_as_xyz
  1  'x, y, z'
loop_
 _atom_site_type_symbol
 _atom_site_label
 _atom_site_symmetry_multiplicity
 _atom_site_fract_x
 _atom_site_fract_y
 _atom_site_fract_z
 _atom_site_occupancy
  Na  Na0  1  0.77345709  0.27838240  0.35571371  1
  Na  Na1  1  0.22654291  0.77838240  0.64428629  1
  Na  Na2  1  0.72654291  0.27838240  0.85571371  1
  Na  Na3  1  0.27345709  0.77838240  0.14428629  1
  Na  Na4  1  0.79416301  0.04785682  0.10339662  1
  Na  Na5  1  0.20583699  0.54785682  0.89660338  1
  Na  Na6  1  0.70583699  0.04785682  0.60339662  1
  Na  Na7  1  0.29416301  0.54785682  0.39660338  1
  V  V0  1  0.49919655  0.00635844  0.38275850  1
  V  V1  1  0.50080345  0.50635844  0.61724150  1
  V  V2  1  0.00080345  0.00635844  0.88275850  1
  V  V3  1  0.99919655  0.50635844  0.11724150  1
  V  V4  1  0.25057611  0.25090254  0.24149539  1
  V  V5  1  0.74942389  0.75090254  0.75850461  1
  V  V6  1  0.24942389  0.25090254  0.74149539  1
  V  V7  1  0.75057611  0.75090254  0.25850461  1
  P  P0  1  0.33934872  0.26415990  0.49168744  1
  P  P1  1  0.66065128  0.76415990  0.50831256  1
  P  P2  1  0.16065128  0.26415990  0.99168744  1
  P  P3  1  0.83934872  0.76415990  0.00831256  1
  P  P4  1  0.50167886  0.50533141  0.18288882  1
  P  P5  1  0.49832114  0.00533141  0.81711118  1
  P  P6  1  0.99832114  0.50533141  0.68288882  1
  P  P7  1  0.00167886  0.00533141  0.31711118  1
  O  O0  1  0.50457657  0.15933386  0.47721497  1
  O  O1  1  0.49542343  0.65933386  0.52278503  1
  O  O2  1  0.99542343  0.15933386  0.97721497  1
  O  O3  1  0.00457657  0.65933386  0.02278503  1
  O  O4  1  0.46744630  0.38762084  0.49847571  1
  O  O5  1  0.53255370  0.88762184  0.50152429  1
  O  O6  1  0.03255370  0.38762084  0.99847571  1
  O  O7  1  0.96744630  0.88762184  0.00152429  1
  O  O8  1  0.19233227  0.27431353  0.39591352  1
  O  O9  1  0.80766773  0.77431353  0.60408648  1
  O  O10  1  0.30766773  0.27431353  0.89591352  1
  O  O11  1  0.69233227  0.77431353  0.10408648  1
  O  O12  1  0.20513665  0.24058804  0.58914830  1
  O  O13  1  0.79486335  0.74058804  0.41085170  1
  O  O14  1  0.29486335  0.24058804  0.08914830  1
  O  O15  1  0.70513665  0.74058804  0.91085170  1
  O  O16  1  0.31039806  0.53389490  0.11310741  1
  O  O17  1  0.68960194  0.03389490  0.88689259  1
  O  O18  1  0.18960194  0.53389490  0.61310741  1
  O  O19  1  0.81039806  0.03389490  0.38689259  1
  O  O20  1  0.69278148  0.48848223  0.11250006  1
  O  O21  1  0.30721852  0.98848223  0.88749994  1
  O  O22  1  0.80721852  0.48848223  0.61250006  1
  O  O23  1  0.19278148  0.98848223  0.38749994  1
  O  O24  1  0.52880148  0.61728386  0.25917361  1
  O  O25  1  0.47119852  0.11728386  0.74082639  1
  O  O26  1  0.97119852  0.61728386  0.75917361  1
  O  O27  1  0.02880148  0.11728386  0.24082639  1
  O  O28  1  0.46333829  0.38978969  0.25288037  1
  O  O29  1  0.53666171  0.88978969  0.74711963  1
  O  O30  1  0.03666171  0.38978969  0.75288037  1
  O  O31  1  0.96333829  0.88978969  0.24711963  1
  F  F0  1  0.50941665  0.87275248  0.27302109  1
  F  F1  1  0.49058335  0.37275248  0.72697891  1
  F  F2  1  0.99058335  0.87275248  0.77302109  1
  F  F3  1  0.00941665  0.37275248  0.22697891  1
  F  F4  1  0.49148770  0.12794906  0.26137737  1
  F  F5  1  0.50851230  0.62794906  0.73862263  1
  F  F6  1  0.00851230  0.12794906  0.76137737  1
  F  F7  1  0.99148770  0.62794906  0.23862263  1
loop_
_geom_bond_atom_site_label_1
_geom_bond_atom_site_label_2
_geom_bond_distance
_geom_bond_site_symmetry_2
Na0 O0 2.653805 1_555
Na0 O28 2.666984 1_555
Na0 O19 2.680617 1_555
Na0 O8 2.720960 1_655
Na0 O27 2.804997 1_655
Na0 O4 2.929550 1_555
Na1 O1 2.653805 1_555
Na1 O29 2.666984 1_555
Na1 O18 2.680617 1_555
Na1 O9 2.720960 1_455
Na1 O26 2.804997 1_455
Na1 O5 2.929555 1_555
Na2 O2 2.653805 1_555
Na2 O30 2.666984 1_655
Na2 O17 2.680617 1_555
Na2 O10 2.720960 1_555
Na2 O25 2.804997 1_555
Na2 O6 2.929550 1_655
Na3 O3 2.653805 1_555
Na3 O31 2.666984 1_455
Na3 O16 2.680617 1_555
Na3 O11 2.720960 1_555
Na3 O24 2.804997 1_555
Na3 O7 2.929555 1_455
Na4 O2 2.395655 1_554
Na4 O27 2.436416 1_655
Na4 O7 2.436644 1_545
Na4 O31 2.739730 1_545
Na4 O17 2.872246 1_554
Na4 O11 3.024122 1_545
Na5 O3 2.395655 1_556
Na5 O26 2.436416 1_455
Na5 O6 2.436652 1_555
Na5 O30 2.739730 1_555
Na5 O16 2.872246 1_556
Na5 O10 3.024122 1_555
Na6 O0 2.395655 1_555
Na6 O25 2.436416 1_555
Na6 O5 2.436644 1_545
Na6 O29 2.739730 1_545
Na6 O19 2.872246 1_555
Na6 O9 3.024122 1_545
Na7 O1 2.395655 1_555
Na7 O24 2.436416 1_555
Na7 O4 2.436652 1_555
Na7 O28 2.739730 1_555
Na7 O18 2.872246 1_555
Na7 O8 3.024122 1_555
O0 P0 1.557499 1_555
O0 V0 2.052024 1_555
O1 P1 1.557499 1_555
O1 V1 2.052024 1_555
O2 P2 1.557499 1_655
O2 V2 2.052024 1_655
O3 P3 1.557499 1_455
O3 V3 2.052024 1_455
O4 P0 1.565839 1_555
O4 V1 2.007703 1_555
O5 P1 1.565848 1_555
O5 V0 2.007696 1_565
O6 P2 1.565839 1_555
O6 V3 2.007703 1_456
O7 P3 1.565848 1_555
O7 V2 2.007696 1_664
O8 P0 1.553611 1_555
O8 V4 2.039814 1_555
O9 P1 1.553611 1_555
O9 V5 2.039814 1_555
O10 P2 1.553611 1_555
O10 V6 2.039814 1_555
O11 P3 1.553611 1_555
O11 V7 2.039814 1_555
O12 P0 1.540840 1_555
O12 V6 1.986375 1_555
O13 P1 1.540840 1_555
O13 V7 1.986375 1_555
O14 P2 1.540840 1_554
O14 V4 1.986375 1_555
O15 P3 1.540840 1_556
O15 V5 1.986375 1_555
O16 P4 1.546332 1_555
O16 V3 2.007147 1_455
O17 P5 1.546332 1_555
O17 V2 2.007147 1_655
O18 P6 1.546332 1_455
O18 V1 2.007147 1_555
O19 P7 1.546332 1_655
O19 V0 2.007147 1_555
O20 P4 1.529865 1_555
O20 V3 1.964230 1_555
O21 P5 1.529865 1_565
O21 V2 1.964230 1_565
O22 P6 1.529865 1_555
O22 V1 1.964230 1_555
O23 P7 1.529865 1_565
O23 V0 1.964230 1_565
O24 P4 1.567585 1_555
O24 V7 2.020204 1_555
O25 P5 1.567585 1_555
O25 V6 2.020204 1_555
O26 P6 1.567585 1_555
O26 V5 2.020204 1_555
O27 P7 1.567585 1_555
O27 V4 2.020204 1_555
O28 P4 1.558696 1_555
O28 V4 2.027519 1_555
O29 P5 1.558696 1_565
O29 V5 2.027519 1_555
O30 P6 1.558696 1_455
O30 V6 2.027519 1_555
O31 P7 1.558696 1_665
O31 V7 2.027519 1_555
F0 V0 2.021083 1_565
F0 V7 2.032354 1_555
F0 Na3 2.460381 1_555
F1 V1 2.021083 1_555
F1 V6 2.032354 1_555
F1 Na2 2.460381 1_555
F2 V2 2.021083 1_665
F2 V5 2.032354 1_555
F2 Na1 2.460381 1_655
F3 V3 2.021083 1_455
F3 V4 2.032354 1_555
F3 Na0 2.460381 1_455
F4 V0 2.042612 1_555
F4 V4 2.046398 1_555
F4 Na0 2.710788 1_555
F4 Na4 2.935351 1_555
F5 V1 2.042612 1_555
F5 V5 2.046398 1_555
F5 Na1 2.710788 1_555
F5 Na5 2.935351 1_555
F6 V2 2.042612 1_555
F6 V6 2.046398 1_555
F6 Na2 2.710788 1_455
F6 Na6 2.935351 1_455
F7 V3 2.042612 1_555
F7 V7 2.046398 1_555
F7 Na3 2.710788 1_655
F7 Na7 2.935351 1_655
