# generated using pymatgen
data_HfMg14Bi
_symmetry_space_group_name_H-M   'P 1'
_cell_length_a   6.38706769
_cell_length_b   6.38706718
_cell_length_c   10.48963551
_cell_angle_alpha   90.00000000
_cell_angle_beta   90.00000000
_cell_angle_gamma   120.00000271
_symmetry_Int_Tables_number   1
_chemical_formula_structural   HfMg14Bi
_chemical_formula_sum   'Hf1 Mg14 Bi1'
_cell_volume   370.59027667
_cell_formula_units_Z   1
loop_
 _symmetry_equiv_pos_site_id
 _symmetry_equiv_pos_as_xyz
  1  'x, y, z'
loop_
 _atom_site_type_symbol
 _atom_site_label
 _atom_site_symmetry_multiplicity
 _atom_site_fract_x
 _atom_site_fract_y
 _atom_site_fract_z
 _atom_site_occupancy
  Hf  Hf0  1  0.16666700  0.33333300  0.62500000  1
  Mg  Mg0  1  0.16427513  0.83213706  0.12500000  1
  Mg  Mg1  1  0.17054169  0.83527034  0.62500000  1
  Mg  Mg2  1  0.66786294  0.33572487  0.12500000  1
  Mg  Mg3  1  0.66472966  0.32945831  0.62500000  1
  Mg  Mg4  1  0.66786294  0.83213706  0.12500000  1
  Mg  Mg5  1  0.66472966  0.83527034  0.62500000  1
  Mg  Mg6  1  0.33101587  0.16898413  0.38086860  1
  Mg  Mg7  1  0.33101587  0.16898413  0.86913140  1
  Mg  Mg8  1  0.33101587  0.66203275  0.38086860  1
  Mg  Mg9  1  0.33101587  0.66203275  0.86913140  1
  Mg  Mg10  1  0.83796725  0.16898413  0.38086860  1
  Mg  Mg11  1  0.83796725  0.16898413  0.86913140  1
  Mg  Mg12  1  0.83333300  0.66666700  0.37907384  1
  Mg  Mg13  1  0.83333300  0.66666700  0.87092616  1
  Bi  Bi0  1  0.16666700  0.33333300  0.12500000  1
loop_
_geom_bond_atom_site_label_1
_geom_bond_atom_site_label_2
_geom_bond_distance
_geom_bond_site_symmetry_2
Hf0 Mg6 3.140638 1_555
Hf0 Mg7 3.140638 1_555
Hf0 Mg8 3.140644 1_555
Hf0 Mg9 3.140644 1_555
Hf0 Mg10 3.140644 1_455
Hf0 Mg11 3.140644 1_455
Hf0 Mg1 3.193605 1_555
Hf0 Mg5 3.193606 1_555
Hf0 Mg5 3.193606 1_445
Hf0 Mg1 3.193606 1_545
Hf0 Mg3 3.193606 1_455
Hf0 Mg3 3.193606 1_555
Mg0 Mg12 3.233255 1_455
Mg0 Mg13 3.233255 1_454
Mg0 Mg9 3.267317 1_554
Mg0 Mg8 3.267317 1_555
Mg0 Mg6 3.267323 1_565
Mg0 Mg7 3.267323 1_564
Mg1 Mg3 3.156412 1_565
Mg1 Mg5 3.156412 1_555
Mg1 Mg8 3.157038 1_555
Mg1 Mg9 3.157038 1_555
Mg1 Mg7 3.157044 1_565
Mg1 Mg6 3.157044 1_565
Mg1 Mg13 3.183361 1_455
Mg1 Mg12 3.183361 1_455
Mg1 Mg3 3.230655 1_455
Mg1 Mg5 3.230656 1_455
Mg2 Mg7 3.267323 1_554
Mg2 Mg6 3.267323 1_555
Mg3 Mg5 3.156412 1_545
Mg3 Mg6 3.157044 1_555
Mg3 Mg7 3.157044 1_555
Mg3 Mg5 3.230655 1_555
Mg4 Mg8 3.267323 1_555
Mg4 Mg9 3.267323 1_554
Mg5 Mg8 3.157044 1_555
Mg5 Mg9 3.157044 1_555
Mg6 Mg8 3.149135 1_555
Mg6 Mg8 3.237933 1_545
Mg7 Mg9 3.149135 1_555
Mg7 Mg9 3.237933 1_545
Mg10 Mg8 3.149135 1_655
Mg10 Mg6 3.149135 1_655
Mg10 Mg3 3.157038 1_555
Mg10 Mg5 3.157044 1_545
Mg10 Mg12 3.193692 1_555
Mg10 Mg12 3.193692 1_545
Mg10 Mg8 3.237933 1_545
Mg10 Mg6 3.237933 1_555
Mg10 Mg2 3.267317 1_555
Mg10 Mg4 3.267323 1_545
Mg11 Mg9 3.149135 1_655
Mg11 Mg7 3.149135 1_655
Mg11 Mg3 3.157038 1_555
Mg11 Mg5 3.157044 1_545
Mg11 Mg13 3.193692 1_555
Mg11 Mg13 3.193692 1_545
Mg11 Mg9 3.237933 1_545
Mg11 Mg7 3.237933 1_555
Mg11 Mg2 3.267317 1_556
Mg11 Mg4 3.267323 1_546
Mg12 Mg5 3.183354 1_555
Mg12 Mg3 3.183361 1_555
Mg12 Mg6 3.193692 1_665
Mg12 Mg6 3.193692 1_555
Mg12 Mg8 3.193692 1_655
Mg12 Mg8 3.193692 1_555
Mg12 Mg4 3.233248 1_555
Mg12 Mg2 3.233254 1_555
Mg13 Mg5 3.183354 1_555
Mg13 Mg3 3.183361 1_555
Mg13 Mg7 3.193692 1_665
Mg13 Mg7 3.193692 1_555
Mg13 Mg9 3.193692 1_655
Mg13 Mg9 3.193692 1_555
Mg13 Mg4 3.233248 1_556
Mg13 Mg2 3.233254 1_556
Bi0 Mg0 3.193561 1_555
Bi0 Mg4 3.193561 1_445
Bi0 Mg4 3.193561 1_555
Bi0 Mg0 3.193561 1_545
Bi0 Mg2 3.193561 1_455
Bi0 Mg2 3.193561 1_555
Bi0 Mg6 3.241812 1_555
Bi0 Mg7 3.241812 1_554
Bi0 Mg8 3.241818 1_555
Bi0 Mg9 3.241818 1_554
Bi0 Mg10 3.241818 1_455
Bi0 Mg11 3.241818 1_454
