# generated using pymatgen
data_CuH9C4NO6
_symmetry_space_group_name_H-M   'P 1'
_cell_length_a   5.78188700
_cell_length_b   8.87558400
_cell_length_c   19.19536300
_cell_angle_alpha   90.00000000
_cell_angle_beta   90.00000000
_cell_angle_gamma   90.00000000
_symmetry_Int_Tables_number   1
_chemical_formula_structural   CuH9C4NO6
_chemical_formula_sum   'Cu4 H36 C16 N4 O24'
_cell_volume   985.06041612
_cell_formula_units_Z   4
loop_
 _symmetry_equiv_pos_site_id
 _symmetry_equiv_pos_as_xyz
  1  'x, y, z'
loop_
 _atom_site_type_symbol
 _atom_site_label
 _atom_site_symmetry_multiplicity
 _atom_site_fract_x
 _atom_site_fract_y
 _atom_site_fract_z
 _atom_site_occupancy
  Cu  Cu0  1  0.00000000  0.00000000  0.50000000  1
  Cu  Cu1  1  0.50000000  0.50000000  0.50000000  1
  Cu  Cu2  1  0.00000000  0.00000000  0.00000000  1
  Cu  Cu3  1  0.50000000  0.50000000  0.00000000  1
  H  H0  1  0.23407300  0.55935100  0.25000000  1
  H  H1  1  0.26592700  0.05935100  0.25000000  1
  H  H2  1  0.90064600  0.28034500  0.38758900  1
  H  H3  1  0.46405000  0.24035300  0.40181600  1
  H  H4  1  0.11175600  0.16968800  0.75000000  1
  H  H5  1  0.59099200  0.84995100  0.13433500  1
  H  H6  1  0.09935400  0.71965500  0.61241100  1
  H  H7  1  0.76592700  0.44064900  0.75000000  1
  H  H8  1  0.96405000  0.25964700  0.59818400  1
  H  H9  1  0.38824400  0.66968800  0.75000000  1
  H  H10  1  0.23034100  0.36491300  0.25000000  1
  H  H11  1  0.88824400  0.83031200  0.25000000  1
  H  H12  1  0.76965900  0.63508700  0.75000000  1
  H  H13  1  0.40064600  0.21965500  0.61241100  1
  H  H14  1  0.40900800  0.15004900  0.86566500  1
  H  H15  1  0.03595000  0.74035300  0.40181600  1
  H  H16  1  0.53595000  0.75964700  0.59818400  1
  H  H17  1  0.40064600  0.21965500  0.88758900  1
  H  H18  1  0.96405000  0.25964700  0.90181600  1
  H  H19  1  0.59935400  0.78034500  0.11241100  1
  H  H20  1  0.26965900  0.86491300  0.25000000  1
  H  H21  1  0.09935400  0.71965500  0.88758900  1
  H  H22  1  0.59099200  0.84995100  0.36566500  1
  H  H23  1  0.90900800  0.34995100  0.13433500  1
  H  H24  1  0.73407300  0.94064900  0.75000000  1
  H  H25  1  0.59935400  0.78034500  0.38758900  1
  H  H26  1  0.90900800  0.34995100  0.36566500  1
  H  H27  1  0.46405000  0.24035300  0.09818400  1
  H  H28  1  0.61175600  0.33031200  0.25000000  1
  H  H29  1  0.09099200  0.65004900  0.86566500  1
  H  H30  1  0.03595000  0.74035300  0.09818400  1
  H  H31  1  0.40900800  0.15004900  0.63433500  1
  H  H32  1  0.53595000  0.75964700  0.90181600  1
  H  H33  1  0.90064600  0.28034500  0.11241100  1
  H  H34  1  0.73034100  0.13508700  0.75000000  1
  H  H35  1  0.09099200  0.65004900  0.63433500  1
  C  C0  1  0.34149900  0.21448900  0.44465900  1
  C  C1  1  0.15850100  0.71448900  0.44465900  1
  C  C2  1  0.34149900  0.21448900  0.05534100  1
  C  C3  1  0.31951500  0.90429600  0.75000000  1
  C  C4  1  0.84149900  0.28551100  0.55534100  1
  C  C5  1  0.65850100  0.78551100  0.94465900  1
  C  C6  1  0.05466700  0.05135500  0.75000000  1
  C  C7  1  0.44533300  0.55135500  0.75000000  1
  C  C8  1  0.81951500  0.59570400  0.25000000  1
  C  C9  1  0.68048500  0.09570400  0.25000000  1
  C  C10  1  0.15850100  0.71448900  0.05534100  1
  C  C11  1  0.65850100  0.78551100  0.55534100  1
  C  C12  1  0.18048500  0.40429600  0.75000000  1
  C  C13  1  0.94533300  0.94864500  0.25000000  1
  C  C14  1  0.84149900  0.28551100  0.94465900  1
  C  C15  1  0.55466700  0.44864500  0.25000000  1
  N  N0  1  0.32419900  0.46082000  0.25000000  1
  N  N1  1  0.67580100  0.53918000  0.75000000  1
  N  N2  1  0.17580100  0.96082000  0.25000000  1
  N  N3  1  0.82419900  0.03918000  0.75000000  1
  O  O0  1  0.19674500  0.96238800  0.69729700  1
  O  O1  1  0.69674500  0.53761200  0.19729700  1
  O  O2  1  0.30325500  0.46238800  0.80270300  1
  O  O3  1  0.80325500  0.03761200  0.30270300  1
  O  O4  1  0.17709200  0.80723400  0.00538200  1
  O  O5  1  0.23232800  0.09101000  0.06169700  1
  O  O6  1  0.26767200  0.59101000  0.06169700  1
  O  O7  1  0.69674500  0.53761200  0.30270300  1
  O  O8  1  0.76767200  0.90899000  0.93830300  1
  O  O9  1  0.82290800  0.19276600  0.50538200  1
  O  O10  1  0.67709200  0.69276600  0.99461800  1
  O  O11  1  0.73232800  0.40899000  0.56169700  1
  O  O12  1  0.80325500  0.03761200  0.19729700  1
  O  O13  1  0.67709200  0.69276600  0.50538200  1
  O  O14  1  0.82290800  0.19276600  0.99461800  1
  O  O15  1  0.76767200  0.90899000  0.56169700  1
  O  O16  1  0.23232800  0.09101000  0.43830300  1
  O  O17  1  0.73232800  0.40899000  0.93830300  1
  O  O18  1  0.26767200  0.59101000  0.43830300  1
  O  O19  1  0.17709200  0.80723400  0.49461800  1
  O  O20  1  0.30325500  0.46238800  0.69729700  1
  O  O21  1  0.32290800  0.30723400  0.49461800  1
  O  O22  1  0.32290800  0.30723400  0.00538200  1
  O  O23  1  0.19674500  0.96238800  0.80270300  1
loop_
_geom_bond_atom_site_label_1
_geom_bond_atom_site_label_2
_geom_bond_distance
_geom_bond_site_symmetry_2
Cu0 O16 1.964557 1_555
Cu0 O15 1.964557 1_445
Cu0 O19 1.996575 1_545
Cu0 O9 1.996575 1_455
Cu1 O11 1.964557 1_555
Cu1 O18 1.964557 1_555
Cu1 O13 1.996575 1_555
Cu1 O21 1.996575 1_555
Cu2 O5 1.964557 1_555
Cu2 O8 1.964557 1_444
Cu2 O4 1.996575 1_545
Cu2 O14 1.996575 1_454
Cu3 O6 1.964557 1_555
Cu3 O17 1.964557 1_554
Cu3 O10 1.996575 1_554
Cu3 O22 1.996575 1_555
H0 N0 1.018002 1_555
H1 N2 1.018002 1_545
H2 H26 0.749074 1_555
H7 N1 1.018002 1_555
H10 N0 1.009500 1_555
H12 N1 1.009500 1_555
H13 H31 0.749074 1_555
H14 H17 0.749074 1_555
H19 H5 0.749074 1_555
H20 N2 1.009500 1_555
H21 H29 0.749074 1_555
H22 H25 0.749074 1_555
H23 H33 0.749074 1_555
H24 N3 1.018002 1_565
H34 N3 1.009500 1_555
H35 H6 0.749074 1_555
C0 H3 1.109548 1_555
C0 O21 1.268385 1_555
C0 O16 1.270598 1_555
C1 H15 1.109548 1_555
C1 O19 1.268385 1_555
C1 O18 1.270598 1_555
C2 H27 1.109548 1_555
C2 O22 1.268385 1_555
C2 O5 1.270598 1_555
C3 O23 1.339090 1_555
C3 O0 1.339090 1_555
C4 H8 1.109548 1_555
C4 O9 1.268385 1_555
C4 O11 1.270598 1_555
C5 H32 1.109548 1_555
C5 O10 1.268385 1_555
C5 O8 1.270598 1_555
C6 H4 1.100923 1_555
C6 N3 1.336914 1_455
C6 O23 1.523743 1_545
C6 O0 1.523743 1_545
C7 H9 1.100923 1_555
C7 N1 1.336914 1_555
C7 O2 1.523743 1_555
C7 O20 1.523743 1_555
C8 O1 1.339090 1_555
C8 O7 1.339090 1_555
C9 O12 1.339090 1_555
C9 O3 1.339090 1_555
C10 H30 1.109548 1_555
C10 O4 1.268385 1_555
C10 O6 1.270598 1_555
C11 H16 1.109548 1_555
C11 O13 1.268385 1_555
C11 O15 1.270598 1_555
C12 O2 1.339090 1_555
C12 O20 1.339090 1_555
C13 H11 1.100923 1_555
C13 N2 1.336914 1_655
C13 O12 1.523743 1_565
C13 O3 1.523743 1_565
C14 H18 1.109548 1_555
C14 O14 1.268385 1_555
C14 O17 1.270598 1_555
C15 H28 1.100923 1_555
C15 N0 1.336914 1_555
C15 O1 1.523743 1_555
C15 O7 1.523743 1_555
