# generated using pymatgen
data_NbPt3
_symmetry_space_group_name_H-M   'P 1'
_cell_length_a   4.90777235
_cell_length_b   5.58163898
_cell_length_c   9.36999570
_cell_angle_alpha   90.00000000
_cell_angle_beta   100.65372256
_cell_angle_gamma   90.00000000
_symmetry_Int_Tables_number   1
_chemical_formula_structural   NbPt3
_chemical_formula_sum   'Nb4 Pt12'
_cell_volume   252.25169481
_cell_formula_units_Z   4
loop_
 _symmetry_equiv_pos_site_id
 _symmetry_equiv_pos_as_xyz
  1  'x, y, z'
loop_
 _atom_site_type_symbol
 _atom_site_label
 _atom_site_symmetry_multiplicity
 _atom_site_fract_x
 _atom_site_fract_y
 _atom_site_fract_z
 _atom_site_occupancy
  Nb  Nb0  1  0.62011302  0.25000000  0.37785134  1
  Nb  Nb1  1  0.37988698  0.75000000  0.62214866  1
  Nb  Nb2  1  0.78672068  0.25000000  0.87241892  1
  Nb  Nb3  1  0.21327932  0.75000000  0.12758108  1
  Pt  Pt0  1  0.20686513  0.25000000  0.12776901  1
  Pt  Pt1  1  0.79313487  0.75000000  0.87223099  1
  Pt  Pt2  1  0.39070885  0.25000000  0.62464951  1
  Pt  Pt3  1  0.60929115  0.75000000  0.37535049  1
  Pt  Pt4  1  0.11908038  0.00093635  0.37412191  1
  Pt  Pt5  1  0.88091962  0.50093635  0.62587809  1
  Pt  Pt6  1  0.88091962  0.99906365  0.62587809  1
  Pt  Pt7  1  0.11908038  0.49906365  0.37412191  1
  Pt  Pt8  1  0.70832723  0.00164106  0.12282104  1
  Pt  Pt9  1  0.29167277  0.50164106  0.87717896  1
  Pt  Pt10  1  0.29167277  0.99835894  0.87717896  1
  Pt  Pt11  1  0.70832723  0.49835894  0.12282104  1
loop_
_geom_bond_atom_site_label_1
_geom_bond_atom_site_label_2
_geom_bond_distance
_geom_bond_site_symmetry_2
Nb0 Pt2 2.752793 1_555
Nb0 Pt3 2.791341 1_555
Nb0 Pt3 2.791341 1_545
Nb0 Pt0 2.801252 1_555
Nb0 Pt6 2.810920 1_545
Nb0 Pt5 2.810920 1_555
Nb0 Pt7 2.819311 1_555
Nb0 Pt4 2.819311 1_555
Nb0 Pt7 2.821734 1_655
Nb0 Pt4 2.821734 1_655
Nb0 Pt8 2.863912 1_555
Nb0 Pt11 2.863912 1_555
Nb1 Pt3 2.752793 1_555
Nb1 Pt2 2.791341 1_555
Nb1 Pt2 2.791341 1_565
Nb1 Pt1 2.801252 1_555
Nb1 Pt4 2.810920 1_565
Nb1 Pt7 2.810920 1_555
Nb1 Pt6 2.819311 1_555
Nb1 Pt5 2.819311 1_555
Nb1 Pt5 2.821734 1_455
Nb1 Pt6 2.821734 1_455
Nb1 Pt9 2.863912 1_555
Nb1 Pt10 2.863912 1_555
Nb2 Pt2 2.738397 1_555
Nb2 Pt1 2.791001 1_555
Nb2 Pt1 2.791001 1_545
Nb2 Pt6 2.811919 1_545
Nb2 Pt5 2.811919 1_555
Nb2 Pt11 2.812196 1_556
Nb2 Pt8 2.812196 1_556
Nb2 Pt9 2.813848 1_555
Nb2 Pt10 2.813848 1_545
Nb2 Pt10 2.841718 1_645
Nb2 Pt9 2.841718 1_655
Nb2 Pt0 2.855215 1_656
Nb3 Pt3 2.738397 1_555
Nb3 Pt0 2.791001 1_555
Nb3 Pt0 2.791001 1_565
Nb3 Pt4 2.811919 1_565
Nb3 Pt7 2.811919 1_555
Nb3 Pt9 2.812196 1_554
Nb3 Pt10 2.812196 1_554
Nb3 Pt11 2.813848 1_555
Nb3 Pt8 2.813848 1_565
Nb3 Pt11 2.841718 1_455
Nb3 Pt8 2.841718 1_465
Nb3 Pt1 2.855215 1_454
Pt0 Pt7 2.795407 1_555
Pt0 Pt4 2.795407 1_555
Pt0 Pt11 2.805047 1_455
Pt0 Pt8 2.805047 1_455
Pt0 Pt9 2.832072 1_554
Pt0 Pt10 2.832072 1_544
Pt0 Pt11 2.832464 1_555
Pt0 Pt8 2.832464 1_555
Pt1 Pt5 2.795407 1_555
Pt1 Pt6 2.795407 1_555
Pt1 Pt10 2.805047 1_655
Pt1 Pt9 2.805047 1_655
Pt1 Pt11 2.832072 1_556
Pt1 Pt8 2.832072 1_566
Pt1 Pt10 2.832464 1_555
Pt1 Pt9 2.832464 1_555
Pt2 Pt6 2.782041 1_545
Pt2 Pt5 2.782041 1_555
Pt2 Pt7 2.839571 1_555
Pt2 Pt4 2.839571 1_555
Pt2 Pt5 2.869184 1_455
Pt2 Pt6 2.869184 1_445
Pt2 Pt9 2.869355 1_555
Pt3 Pt7 2.782041 1_555
Pt3 Pt4 2.782041 1_565
Pt3 Pt5 2.839571 1_555
Pt3 Pt6 2.839571 1_555
Pt3 Pt4 2.869184 1_665
Pt3 Pt7 2.869184 1_655
Pt3 Pt8 2.869355 1_565
Pt4 Pt7 2.780367 1_555
Pt4 Pt7 2.801272 1_545
Pt4 Pt8 2.802366 1_455
Pt4 Pt6 2.819652 1_445
Pt5 Pt6 2.780367 1_555
Pt5 Pt6 2.801272 1_545
Pt5 Pt9 2.802366 1_655
Pt5 Pt7 2.819652 1_655
Pt10 Pt9 2.772500 1_555
Pt10 Pt8 2.781935 1_566
Pt10 Pt6 2.802366 1_455
Pt10 Pt9 2.809139 1_565
Pt10 Pt2 2.869355 1_565
Pt11 Pt8 2.772500 1_555
Pt11 Pt9 2.781935 1_554
Pt11 Pt7 2.802366 1_655
Pt11 Pt8 2.809139 1_565
Pt11 Pt3 2.869355 1_555
