# generated using pymatgen
data_Rb2Li(TcO4)2
_symmetry_space_group_name_H-M   'P 1'
_cell_length_a   7.87629235
_cell_length_b   5.70092755
_cell_length_c   6.39471858
_cell_angle_alpha   91.46194122
_cell_angle_beta   113.40336746
_cell_angle_gamma   110.64794520
_symmetry_Int_Tables_number   1
_chemical_formula_structural   Rb2Li(TcO4)2
_chemical_formula_sum   'Rb2 Li1 Tc2 O8'
_cell_volume   241.96084033
_cell_formula_units_Z   1
loop_
 _symmetry_equiv_pos_site_id
 _symmetry_equiv_pos_as_xyz
  1  'x, y, z'
loop_
 _atom_site_type_symbol
 _atom_site_label
 _atom_site_symmetry_multiplicity
 _atom_site_fract_x
 _atom_site_fract_y
 _atom_site_fract_z
 _atom_site_occupancy
  Rb  Rb0  1  0.24115300  0.62085300  0.37223700  1
  Rb  Rb1  1  0.73907700  0.36931600  0.61930300  1
  Li  Li0  1  0.32133300  0.66478400  0.91448900  1
  Tc  Tc0  1  0.74572100  0.87260100  0.12311100  1
  Tc  Tc1  1  0.26163100  0.13160800  0.88042500  1
  O  O0  1  0.89327200  0.72300600  0.08645300  1
  O  O1  1  0.40073900  0.07295700  0.15440400  1
  O  O2  1  0.58461800  0.68070800  0.23643000  1
  O  O3  1  0.89380300  0.17010700  0.30762600  1
  O  O4  1  0.12741500  0.81577700  0.70655300  1
  O  O5  1  0.40158000  0.32572300  0.74483700  1
  O  O6  1  0.58475400  0.90373300  0.84885100  1
  O  O7  1  0.12990800  0.31549500  0.92195000  1
loop_
_geom_bond_atom_site_label_1
_geom_bond_atom_site_label_2
_geom_bond_distance
_geom_bond_site_symmetry_2
Li0 O7 2.045799 1_555
Li0 O4 2.052836 1_555
Li0 O2 2.238992 1_556
Li0 O6 2.250398 1_555
Li0 O1 2.487744 1_566
Li0 O5 2.571405 1_555
O0 Tc0 1.743009 1_555
O0 Rb0 2.896270 1_655
O0 Rb1 3.089999 1_554
O1 Tc1 1.773456 1_554
O1 Rb1 3.011470 1_555
O1 Rb0 3.074526 1_545
O2 Tc0 1.767453 1_555
O2 Rb0 3.069096 1_555
O2 Rb1 3.163008 1_555
O3 Tc0 1.743189 1_545
O3 Rb0 2.889379 1_655
O3 Rb1 3.088271 1_555
O4 Tc1 1.793717 1_565
O4 Rb0 2.951285 1_555
O4 Rb1 3.037504 1_455
O5 Tc1 1.771820 1_555
O5 Rb1 3.001965 1_555
O5 Rb0 3.068681 1_555
O6 Tc0 1.767184 1_556
O6 Rb0 3.054946 1_555
O6 Rb1 3.165139 1_565
O7 Tc1 1.793762 1_555
O7 Rb0 2.958668 1_556
O7 Rb1 3.046199 1_455
