# generated using pymatgen
data_Ba3(RuN2)2
_symmetry_space_group_name_H-M   'P 1'
_cell_length_a   6.49676215
_cell_length_b   10.59707442
_cell_length_c   9.79741251
_cell_angle_alpha   90.00000000
_cell_angle_beta   90.00000000
_cell_angle_gamma   90.00000000
_symmetry_Int_Tables_number   1
_chemical_formula_structural   Ba3(RuN2)2
_chemical_formula_sum   'Ba12 Ru8 N16'
_cell_volume   674.51924545
_cell_formula_units_Z   4
loop_
 _symmetry_equiv_pos_site_id
 _symmetry_equiv_pos_as_xyz
  1  'x, y, z'
loop_
 _atom_site_type_symbol
 _atom_site_label
 _atom_site_symmetry_multiplicity
 _atom_site_fract_x
 _atom_site_fract_y
 _atom_site_fract_z
 _atom_site_occupancy
  Ba  Ba0  1  0.62879627  0.15705696  0.42005178  1
  Ba  Ba1  1  0.87120373  0.84294304  0.42005178  1
  Ba  Ba2  1  0.62879627  0.34294304  0.07994822  1
  Ba  Ba3  1  0.87120373  0.65705696  0.07994822  1
  Ba  Ba4  1  0.37120373  0.84294304  0.57994822  1
  Ba  Ba5  1  0.12879627  0.15705696  0.57994822  1
  Ba  Ba6  1  0.37120373  0.65705696  0.92005178  1
  Ba  Ba7  1  0.12879627  0.34294304  0.92005178  1
  Ba  Ba8  1  0.75000000  0.50000000  0.41047812  1
  Ba  Ba9  1  0.75000000  -0.00000000  0.08952188  1
  Ba  Ba10  1  0.25000000  0.50000000  0.58952188  1
  Ba  Ba11  1  0.25000000  -0.00000000  0.91047812  1
  Ru  Ru0  1  0.75000000  0.50000000  0.73988444  1
  Ru  Ru1  1  0.75000000  -0.00000000  0.76011556  1
  Ru  Ru2  1  0.25000000  0.50000000  0.26011556  1
  Ru  Ru3  1  0.25000000  -0.00000000  0.23988444  1
  Ru  Ru4  1  0.67859122  0.25000000  0.75000000  1
  Ru  Ru5  1  0.82140878  0.75000000  0.75000000  1
  Ru  Ru6  1  0.32140878  0.75000000  0.25000000  1
  Ru  Ru7  1  0.17859122  0.25000000  0.25000000  1
  N  N0  1  0.89930681  0.35479296  0.65872352  1
  N  N1  1  0.60069319  0.64520704  0.65872352  1
  N  N2  1  0.89930681  0.14520704  0.84127648  1
  N  N3  1  0.60069319  0.85479296  0.84127648  1
  N  N4  1  0.10069319  0.64520704  0.34127648  1
  N  N5  1  0.39930681  0.35479296  0.34127648  1
  N  N6  1  0.10069319  0.85479296  0.15872352  1
  N  N7  1  0.39930681  0.14520704  0.15872352  1
  N  N8  1  0.50057572  0.40208077  0.80941669  1
  N  N9  1  0.99942428  0.59791923  0.80941669  1
  N  N10  1  0.50057572  0.09791923  0.69058331  1
  N  N11  1  0.99942428  0.90208077  0.69058331  1
  N  N12  1  0.49942428  0.59791923  0.19058331  1
  N  N13  1  0.00057572  0.40208077  0.19058331  1
  N  N14  1  0.49942428  0.90208077  0.30941669  1
  N  N15  1  0.00057572  0.09791923  0.30941669  1
loop_
_geom_bond_atom_site_label_1
_geom_bond_atom_site_label_2
_geom_bond_distance
_geom_bond_site_symmetry_2
Ba0 N5 2.685025 1_555
Ba0 N15 2.720594 1_655
Ba0 N10 2.848132 1_555
Ba0 N7 2.965470 1_555
Ba0 N14 3.030210 1_545
Ba1 N4 2.685025 1_655
Ba1 N14 2.720594 1_555
Ba1 N11 2.848132 1_555
Ba1 N6 2.965470 1_655
Ba1 N15 3.030210 1_665
Ba2 N7 2.685025 1_555
Ba2 N13 2.720594 1_655
Ba2 N8 2.848132 1_554
Ba2 N5 2.965470 1_555
Ba2 N12 3.030210 1_555
Ba3 N6 2.685025 1_655
Ba3 N12 2.720594 1_555
Ba3 N9 2.848132 1_554
Ba3 N4 2.965470 1_655
Ba3 N13 3.030210 1_655
Ba4 N1 2.685025 1_555
Ba4 N11 2.720594 1_455
Ba4 N14 2.848132 1_555
Ba4 N3 2.965470 1_555
Ba4 N10 3.030210 1_565
Ba5 N0 2.685025 1_455
Ba5 N10 2.720594 1_555
Ba5 N15 2.848132 1_555
Ba5 N2 2.965470 1_455
Ba5 N11 3.030210 1_445
Ba6 N3 2.685025 1_555
Ba6 N9 2.720594 1_455
Ba6 N12 2.848132 1_556
Ba6 N1 2.965470 1_555
Ba6 N8 3.030210 1_555
Ba7 N2 2.685025 1_455
Ba7 N8 2.720594 1_555
Ba7 N13 2.848132 1_556
Ba7 N0 2.965470 1_455
Ba7 N9 3.030210 1_455
Ba8 N5 2.831689 1_555
Ba8 N4 2.831689 1_655
Ba8 N12 2.892807 1_555
Ba8 N13 2.892807 1_655
Ba8 N1 3.037128 1_555
Ba8 N0 3.037128 1_555
Ba9 N7 2.831689 1_555
Ba9 N6 2.831689 1_645
Ba9 N14 2.892807 1_545
Ba9 N15 2.892807 1_655
Ba9 N3 3.037128 1_544
Ba9 N2 3.037128 1_554
Ba10 N1 2.831689 1_555
Ba10 N0 2.831689 1_455
Ba10 N9 2.892807 1_455
Ba10 N8 2.892807 1_555
Ba10 N4 3.037128 1_555
Ba10 N5 3.037128 1_555
Ba11 N3 2.831689 1_545
Ba11 N2 2.831689 1_455
Ba11 N10 2.892807 1_555
Ba11 N11 2.892807 1_445
Ba11 N7 3.037128 1_556
Ba11 N6 3.037128 1_546
N0 Ru0 1.985201 1_555
N0 Ru4 2.022154 1_555
N1 Ru0 1.985201 1_555
N1 Ru5 2.022154 1_555
N2 Ru1 1.985201 1_555
N2 Ru4 2.022154 1_555
N3 Ru1 1.985201 1_565
N3 Ru5 2.022154 1_555
N4 Ru2 1.985201 1_555
N4 Ru6 2.022154 1_555
N5 Ru2 1.985201 1_555
N5 Ru7 2.022154 1_555
N6 Ru3 1.985201 1_565
N6 Ru6 2.022154 1_555
N7 Ru3 1.985201 1_555
N7 Ru7 2.022154 1_555
N8 Ru0 2.041243 1_555
N8 Ru4 2.067296 1_555
N9 Ru0 2.041243 1_555
N9 Ru5 2.067296 1_555
N10 Ru1 2.041243 1_555
N10 Ru4 2.067296 1_555
N11 Ru1 2.041243 1_565
N11 Ru5 2.067296 1_555
N12 Ru2 2.041243 1_555
N12 Ru6 2.067296 1_555
N13 Ru2 2.041243 1_555
N13 Ru7 2.067296 1_555
N14 Ru3 2.041243 1_565
N14 Ru6 2.067296 1_555
N15 Ru3 2.041243 1_555
N15 Ru7 2.067296 1_555
