# generated using pymatgen
data_Pr2CdPd2
_symmetry_space_group_name_H-M   'P 1'
_cell_length_a   3.94428334
_cell_length_b   7.81912014
_cell_length_c   7.81912014
_cell_angle_alpha   90.00000000
_cell_angle_beta   90.00000000
_cell_angle_gamma   90.00000000
_symmetry_Int_Tables_number   1
_chemical_formula_structural   Pr2CdPd2
_chemical_formula_sum   'Pr4 Cd2 Pd4'
_cell_volume   241.14811825
_cell_formula_units_Z   2
loop_
 _symmetry_equiv_pos_site_id
 _symmetry_equiv_pos_as_xyz
  1  'x, y, z'
loop_
 _atom_site_type_symbol
 _atom_site_label
 _atom_site_symmetry_multiplicity
 _atom_site_fract_x
 _atom_site_fract_y
 _atom_site_fract_z
 _atom_site_occupancy
  Pr  Pr0  1  0.50000000  0.82422681  0.32422681  1
  Pr  Pr1  1  0.50000000  0.67577319  0.82422681  1
  Pr  Pr2  1  0.50000000  0.32422681  0.17577319  1
  Pr  Pr3  1  0.50000000  0.17577319  0.67577319  1
  Cd  Cd0  1  0.00000000  0.00000000  0.00000000  1
  Cd  Cd1  1  0.00000000  0.50000000  0.50000000  1
  Pd  Pd0  1  0.00000000  0.12613783  0.37386217  1
  Pd  Pd1  1  -0.00000000  0.37386217  0.87386217  1
  Pd  Pd2  1  0.00000000  0.62613783  0.12613783  1
  Pd  Pd3  1  -0.00000000  0.87386217  0.62613783  1
loop_
_geom_bond_atom_site_label_1
_geom_bond_atom_site_label_2
_geom_bond_distance
_geom_bond_site_symmetry_2
Cd0 Pd3 3.085172 1_544
Cd0 Pd2 3.085172 1_545
Cd0 Pd1 3.085172 1_554
Cd0 Pd0 3.085172 1_555
Cd0 Pr3 3.493619 1_454
Cd0 Pr1 3.493619 1_444
Cd0 Pr3 3.493619 1_554
Cd0 Pr1 3.493619 1_544
Cd0 Pr2 3.493619 1_555
Cd0 Pr2 3.493619 1_455
Cd0 Pr0 3.493619 1_445
Cd0 Pr0 3.493619 1_545
Cd1 Pd1 3.085172 1_555
Cd1 Pd0 3.085172 1_555
Cd1 Pd3 3.085172 1_555
Cd1 Pd2 3.085172 1_555
Cd1 Pr2 3.493619 1_555
Cd1 Pr0 3.493619 1_455
Cd1 Pr1 3.493619 1_555
Cd1 Pr3 3.493619 1_455
Cd1 Pr3 3.493619 1_555
Cd1 Pr1 3.493619 1_455
Cd1 Pr0 3.493619 1_555
Cd1 Pr2 3.493619 1_455
Pd0 Pd3 2.789640 1_545
Pd0 Pr2 2.947441 1_455
Pd0 Pr2 2.947441 1_555
Pd0 Pr0 3.100447 1_445
Pd0 Pr0 3.100447 1_545
Pd0 Pr3 3.100447 1_455
Pd0 Pr3 3.100447 1_555
Pd1 Pd2 2.789640 1_556
Pd1 Pr3 2.947441 1_455
Pd1 Pr3 2.947441 1_555
Pd1 Pr2 3.100447 1_456
Pd1 Pr1 3.100447 1_555
Pd1 Pr2 3.100447 1_556
Pd1 Pr1 3.100447 1_455
Pd2 Pr0 2.947441 1_555
Pd2 Pr0 2.947441 1_455
Pd2 Pr2 3.100447 1_455
Pd2 Pr2 3.100447 1_555
Pd2 Pr1 3.100447 1_454
Pd2 Pr1 3.100447 1_554
Pd3 Pr1 2.947441 1_555
Pd3 Pr1 2.947441 1_455
Pd3 Pr3 3.100447 1_465
Pd3 Pr3 3.100447 1_565
Pd3 Pr0 3.100447 1_455
Pd3 Pr0 3.100447 1_555
