# generated using pymatgen
data_Li10Zn(PS4)4
_symmetry_space_group_name_H-M   'P 1'
_cell_length_a   7.90147600
_cell_length_b   12.41924800
_cell_length_c   17.94927604
_cell_angle_alpha   46.27863119
_cell_angle_beta   90.00000000
_cell_angle_gamma   90.00000000
_symmetry_Int_Tables_number   1
_chemical_formula_structural   Li10Zn(PS4)4
_chemical_formula_sum   'Li20 Zn2 P8 S32'
_cell_volume   1272.95831168
_cell_formula_units_Z   2
loop_
 _symmetry_equiv_pos_site_id
 _symmetry_equiv_pos_as_xyz
  1  'x, y, z'
loop_
 _atom_site_type_symbol
 _atom_site_label
 _atom_site_symmetry_multiplicity
 _atom_site_fract_x
 _atom_site_fract_y
 _atom_site_fract_z
 _atom_site_occupancy
  Li  Li0  1  0.23858400  0.34988400  0.15424800  1
  Li  Li1  1  0.24564200  0.84156500  0.15672300  1
  Li  Li2  1  0.24068200  0.84209200  0.65374200  1
  Li  Li3  1  0.24035000  0.34475600  0.65482000  1
  Li  Li4  1  0.23583600  0.90068600  0.35150100  1
  Li  Li5  1  0.25442800  0.41244100  0.33622300  1
  Li  Li6  1  0.26231000  0.89827900  0.84855100  1
  Li  Li7  1  0.73769000  0.89827900  0.34855100  1
  Li  Li8  1  0.74557200  0.41244100  0.83622300  1
  Li  Li9  1  0.76416400  0.90068600  0.85150100  1
  Li  Li10  1  0.75965000  0.34475600  0.15482000  1
  Li  Li11  1  0.75931800  0.84209200  0.15374200  1
  Li  Li12  1  0.75435800  0.84156500  0.65672300  1
  Li  Li13  1  0.76141600  0.34988400  0.65424800  1
  Li  Li14  1  0.99765900  0.16393100  0.07478200  1
  Li  Li15  1  0.00234100  0.16393100  0.57478200  1
  Li  Li16  1  0.49741300  0.06309800  0.42675500  1
  Li  Li17  1  0.48896900  0.57312900  0.42538800  1
  Li  Li18  1  0.51103100  0.57312900  0.92538800  1
  Li  Li19  1  0.50258700  0.06309800  0.92675500  1
  Zn  Zn0  1  0.25721400  0.41172600  0.83812100  1
  Zn  Zn1  1  0.74278600  0.41172600  0.33812100  1
  P  P0  1  0.99190200  0.09004000  0.40972200  1
  P  P1  1  0.99929500  0.58549100  0.41068500  1
  P  P2  1  0.00070500  0.58549100  0.91068500  1
  P  P3  1  0.00809800  0.09004000  0.90972200  1
  P  P4  1  0.49288100  0.15923400  0.09240100  1
  P  P5  1  0.49848700  0.65366200  0.09561100  1
  P  P6  1  0.50151300  0.65366200  0.59561100  1
  P  P7  1  0.50711900  0.15923400  0.59240100  1
  S  S0  1  0.00101500  0.37760900  0.05799800  1
  S  S1  1  0.00524600  0.89198800  0.05646400  1
  S  S2  1  0.99475400  0.89198800  0.55646400  1
  S  S3  1  0.99898500  0.37760900  0.55799800  1
  S  S4  1  0.98754000  0.74830800  0.40959500  1
  S  S5  1  0.99413200  0.27115400  0.39947500  1
  S  S6  1  0.00586800  0.27115400  0.89947500  1
  S  S7  1  0.01246000  0.74830800  0.90959500  1
  S  S8  1  0.20856000  0.11406400  0.33555400  1
  S  S9  1  0.21246500  0.60613200  0.33565300  1
  S  S10  1  0.22355500  0.60359000  0.83652800  1
  S  S11  1  0.22166100  0.10990300  0.83530400  1
  S  S12  1  0.28005000  0.03089400  0.16490100  1
  S  S13  1  0.28126800  0.53831700  0.15882500  1
  S  S14  1  0.27871700  0.53111400  0.66474300  1
  S  S15  1  0.29150100  0.03236100  0.66073700  1
  S  S16  1  0.49656800  0.32067100  0.09619800  1
  S  S17  1  0.50218100  0.81577400  0.10011100  1
  S  S18  1  0.49781900  0.81577400  0.60011100  1
  S  S19  1  0.50343200  0.32067100  0.59619800  1
  S  S20  1  0.48558000  0.75250600  0.44442800  1
  S  S21  1  0.50427800  0.25651300  0.43853800  1
  S  S22  1  0.49572200  0.25651300  0.93853800  1
  S  S23  1  0.51442000  0.75250600  0.94442800  1
  S  S24  1  0.70849900  0.03236100  0.16073700  1
  S  S25  1  0.72128300  0.53111400  0.16474300  1
  S  S26  1  0.71873200  0.53831700  0.65882500  1
  S  S27  1  0.71995000  0.03089400  0.66490100  1
  S  S28  1  0.77833900  0.10990300  0.33530400  1
  S  S29  1  0.77644500  0.60359000  0.33652800  1
  S  S30  1  0.78753500  0.60613200  0.83565300  1
  S  S31  1  0.79144000  0.11406400  0.83555400  1
loop_
_geom_bond_atom_site_label_1
_geom_bond_atom_site_label_2
_geom_bond_distance
_geom_bond_site_symmetry_2
Li0 S0 2.409278 1_555
Li0 S13 2.421316 1_555
Li0 S16 2.427991 1_555
Li0 S8 2.459576 1_555
Li1 S1 2.383466 1_555
Li1 S17 2.386196 1_555
Li1 S9 2.439684 1_555
Li1 S12 2.470078 1_565
Li2 S18 2.365689 1_555
Li2 S2 2.390213 1_455
Li2 S10 2.474421 1_555
Li2 S15 2.484124 1_565
Li3 S3 2.417383 1_455
Li3 S19 2.439847 1_555
Li3 S11 2.441831 1_555
Li3 S14 2.459678 1_555
Li4 S4 2.406226 1_455
Li4 S20 2.412433 1_555
Li4 S8 2.470291 1_565
Li4 S12 2.543281 1_565
Li5 S13 2.397284 1_555
Li5 S5 2.417486 1_455
Li5 S9 2.421247 1_555
Li5 S21 2.470659 1_555
Li6 S7 2.397082 1_555
Li6 S23 2.429134 1_555
Li6 S11 2.490655 1_565
Li6 S15 2.535918 1_565
Li7 S4 2.397082 1_555
Li7 S20 2.429134 1_555
Li7 S28 2.490655 1_565
Li7 S24 2.535918 1_565
Li8 S26 2.397284 1_555
Li8 S6 2.417486 1_655
Li8 S30 2.421247 1_555
Li8 S22 2.470659 1_555
Li9 S7 2.406226 1_655
Li9 S23 2.412433 1_555
Li9 S31 2.470291 1_565
Li9 S27 2.543281 1_565
Li10 S0 2.417383 1_655
Li10 S16 2.439847 1_555
Li10 S28 2.441831 1_555
Li10 S25 2.459678 1_555
Li11 S17 2.365689 1_555
Li11 S1 2.390213 1_655
Li11 S29 2.474421 1_555
Li11 S24 2.484124 1_565
Li12 S2 2.383466 1_555
Li12 S18 2.386196 1_555
Li12 S30 2.439684 1_555
Li12 S27 2.470078 1_565
Li13 S3 2.409278 1_555
Li13 S26 2.421316 1_555
Li13 S19 2.427991 1_555
Li13 S31 2.459576 1_555
Li14 S6 2.426250 1_654
Li14 S0 2.455319 1_655
Li14 S12 2.575028 1_655
Li14 S24 2.604954 1_555
Li15 S5 2.426250 1_455
Li15 S3 2.455319 1_455
Li15 S27 2.575028 1_455
Li15 S15 2.604954 1_555
Li16 S18 2.430079 1_545
Li16 S21 2.553401 1_555
Li16 S28 2.576936 1_555
Li16 S8 2.618644 1_555
Li17 S19 2.440409 1_555
Li17 S20 2.476425 1_555
Li17 S9 2.573524 1_555
Li17 S29 2.648138 1_555
Li18 S16 2.440409 1_556
Li18 S23 2.476425 1_555
Li18 S30 2.573524 1_555
Li18 S10 2.648138 1_555
Li19 S17 2.430079 1_546
Li19 S22 2.553401 1_555
Li19 S11 2.576936 1_555
Li19 S31 2.618644 1_555
P0 S2 2.008141 1_545
P0 S28 2.058429 1_555
P0 S8 2.059829 1_655
P0 S5 2.126411 1_555
P1 S4 2.010739 1_555
P1 S3 2.054416 1_555
P1 S9 2.058965 1_655
P1 S29 2.123501 1_555
P2 S7 2.010739 1_555
P2 S0 2.054416 1_556
P2 S30 2.058965 1_455
P2 S10 2.123501 1_555
P3 S1 2.008141 1_546
P3 S11 2.058429 1_555
P3 S31 2.059829 1_455
P3 S6 2.126411 1_555
P4 S12 2.048130 1_555
P4 S16 2.052828 1_555
P4 S24 2.053842 1_555
P4 S22 2.115451 1_554
P5 S13 2.009618 1_555
P5 S23 2.069266 1_554
P5 S17 2.070164 1_555
P5 S25 2.084376 1_555
P6 S26 2.009618 1_555
P6 S20 2.069266 1_555
P6 S18 2.070164 1_555
P6 S14 2.084376 1_555
P7 S27 2.048130 1_555
P7 S19 2.052828 1_555
P7 S15 2.053842 1_555
P7 S21 2.115451 1_555
S5 Zn1 2.355252 1_555
S6 Zn0 2.355252 1_555
S10 Zn0 2.378053 1_555
S14 Zn0 2.352374 1_555
S21 Zn1 2.390267 1_555
S22 Zn0 2.390267 1_555
S25 Zn1 2.352374 1_555
S29 Zn1 2.378053 1_555
