# generated using pymatgen
data_KH2CN5
_symmetry_space_group_name_H-M   'P 1'
_cell_length_a   9.94997300
_cell_length_b   7.01158200
_cell_length_c   7.32060680
_cell_angle_alpha   62.78925670
_cell_angle_beta   90.00000000
_cell_angle_gamma   90.00000000
_symmetry_Int_Tables_number   1
_chemical_formula_structural   KH2CN5
_chemical_formula_sum   'K4 H8 C4 N20'
_cell_volume   454.20118246
_cell_formula_units_Z   4
loop_
 _symmetry_equiv_pos_site_id
 _symmetry_equiv_pos_as_xyz
  1  'x, y, z'
loop_
 _atom_site_type_symbol
 _atom_site_label
 _atom_site_symmetry_multiplicity
 _atom_site_fract_x
 _atom_site_fract_y
 _atom_site_fract_z
 _atom_site_occupancy
  K  K0  1  0.62146400  0.21335300  0.77625900  1
  K  K1  1  0.37853600  0.78664700  0.22374100  1
  K  K2  1  0.12146400  0.28664700  0.22374100  1
  K  K3  1  0.87853600  0.71335300  0.77625900  1
  H  H0  1  0.29289900  0.23412800  0.64166400  1
  H  H1  1  0.70710100  0.76587200  0.35833600  1
  H  H2  1  0.79289900  0.26587200  0.35833600  1
  H  H3  1  0.20710100  0.73412800  0.64166400  1
  H  H4  1  0.21818300  0.83099300  0.81219000  1
  H  H5  1  0.78181700  0.16900700  0.18781000  1
  H  H6  1  0.71818300  0.66900700  0.18781000  1
  H  H7  1  0.28181700  0.33099300  0.81219000  1
  C  C0  1  0.10515900  0.23137900  0.74968200  1
  C  C1  1  0.89484100  0.76862100  0.25031800  1
  C  C2  1  0.60515900  0.26862100  0.25031800  1
  C  C3  1  0.39484100  0.73137900  0.74968200  1
  N  N0  1  0.47831300  0.80451100  0.84889400  1
  N  N1  1  0.52168700  0.19548900  0.15110600  1
  N  N2  1  0.97831300  0.69548900  0.15110600  1
  N  N3  1  0.02168700  0.30451100  0.84889400  1
  N  N4  1  0.40616400  0.30724000  0.33770600  1
  N  N5  1  0.59383600  0.69276000  0.66229400  1
  N  N6  1  0.90616400  0.19276000  0.66229400  1
  N  N7  1  0.09383600  0.80724000  0.33770600  1
  N  N8  1  0.03719900  0.15888300  0.63459300  1
  N  N9  1  0.96280100  0.84111700  0.36540700  1
  N  N10  1  0.53719900  0.34111700  0.36540700  1
  N  N11  1  0.46280100  0.65888300  0.63459300  1
  N  N12  1  0.24384400  0.22204000  0.76958400  1
  N  N13  1  0.75615600  0.77796000  0.23041600  1
  N  N14  1  0.74384400  0.27796000  0.23041600  1
  N  N15  1  0.25615600  0.72204000  0.76958400  1
  N  N16  1  0.60269600  0.77770400  0.78926100  1
  N  N17  1  0.39730400  0.22229600  0.21073900  1
  N  N18  1  0.10269600  0.72229600  0.21073900  1
  N  N19  1  0.89730400  0.27770400  0.78926100  1
loop_
_geom_bond_atom_site_label_1
_geom_bond_atom_site_label_2
_geom_bond_distance
_geom_bond_site_symmetry_2
K0 N19 2.790117 1_555
K0 N10 2.843866 1_555
K0 N1 2.866546 1_556
K0 N6 2.975160 1_555
K0 N16 3.018038 1_545
K0 N0 3.022428 1_545
K0 N5 3.083169 1_555
K0 N11 3.219249 1_555
K1 N18 2.790117 1_555
K1 N11 2.843866 1_555
K1 N0 2.866546 1_554
K1 N7 2.975160 1_555
K1 N17 3.018038 1_565
K1 N1 3.022428 1_565
K1 N4 3.083169 1_555
K1 N10 3.219249 1_555
K2 N17 2.790117 1_555
K2 N8 2.843866 1_555
K2 N3 2.866546 1_554
K2 N4 2.975160 1_555
K2 N18 3.018038 1_555
K2 N2 3.022428 1_455
K2 N7 3.083169 1_545
K2 N9 3.219249 1_445
K3 N16 2.790117 1_555
K3 N9 2.843866 1_555
K3 N2 2.866546 1_556
K3 N5 2.975160 1_555
K3 N19 3.018038 1_555
K3 N3 3.022428 1_655
K3 N6 3.083169 1_565
K3 N8 3.219249 1_665
H0 N12 1.024586 1_555
H1 N13 1.024586 1_555
H2 N14 1.024586 1_555
H3 N15 1.024586 1_555
H4 N15 1.020558 1_555
H5 N14 1.020558 1_555
H6 N13 1.020558 1_555
H7 N12 1.020558 1_555
C0 N8 1.348009 1_555
C0 N3 1.349381 1_555
C0 N12 1.385982 1_555
C1 N9 1.348009 1_555
C1 N2 1.349381 1_555
C1 N13 1.385982 1_555
C2 N10 1.348009 1_555
C2 N1 1.349381 1_555
C2 N14 1.385982 1_555
C3 N11 1.348009 1_555
C3 N0 1.349381 1_555
C3 N15 1.385982 1_555
N0 N16 1.353742 1_555
N1 N17 1.353742 1_555
N6 N8 1.357010 1_655
N7 N9 1.357010 1_455
N10 N4 1.357010 1_555
N11 N5 1.357010 1_555
N16 N5 1.316320 1_555
N17 N4 1.316320 1_555
N18 N7 1.316320 1_555
N18 N2 1.353742 1_455
N19 N6 1.316320 1_555
N19 N3 1.353742 1_655
