# generated using pymatgen
data_La4Cu3MoO12
_symmetry_space_group_name_H-M   'P 1'
_cell_length_a   7.82354393
_cell_length_b   8.30572497
_cell_length_c   7.97475172
_cell_angle_alpha   92.71192015
_cell_angle_beta   90.62047809
_cell_angle_gamma   90.63165493
_symmetry_Int_Tables_number   1
_chemical_formula_structural   La4Cu3MoO12
_chemical_formula_sum   'La8 Cu6 Mo2 O24'
_cell_volume   517.55575907
_cell_formula_units_Z   2
loop_
 _symmetry_equiv_pos_site_id
 _symmetry_equiv_pos_as_xyz
  1  'x, y, z'
loop_
 _atom_site_type_symbol
 _atom_site_label
 _atom_site_symmetry_multiplicity
 _atom_site_fract_x
 _atom_site_fract_y
 _atom_site_fract_z
 _atom_site_occupancy
  La  La0  1  0.74093100  0.78987400  0.71568600  1
  La  La1  1  0.25906900  0.21012600  0.28431400  1
  La  La2  1  0.76279000  0.25356500  0.20249000  1
  La  La3  1  0.23721000  0.74643500  0.79751000  1
  La  La4  1  0.75056000  0.25256400  0.71629300  1
  La  La5  1  0.24944000  0.74743600  0.28370700  1
  La  La6  1  0.74356900  0.80355700  0.23037700  1
  La  La7  1  0.25643100  0.19644300  0.76962300  1
  Cu  Cu0  1  0.50000000  0.00000000  0.50000000  1
  Cu  Cu1  1  0.00000000  0.00000000  0.50000000  1
  Cu  Cu2  1  0.50000000  0.00000000  0.00000000  1
  Cu  Cu3  1  0.00000000  0.00000000  0.00000000  1
  Cu  Cu4  1  0.50000000  0.50000000  0.50000000  1
  Cu  Cu5  1  0.00000000  0.50000000  0.00000000  1
  Mo  Mo0  1  0.00000000  0.50000000  0.50000000  1
  Mo  Mo1  1  0.50000000  0.50000000  0.00000000  1
  O  O0  1  0.73663800  0.53527600  0.07660600  1
  O  O1  1  0.26336200  0.46472400  0.92339400  1
  O  O2  1  0.54383600  0.73532000  0.44943400  1
  O  O3  1  0.04933200  0.28448500  0.57074100  1
  O  O4  1  0.45616400  0.26468000  0.55056600  1
  O  O5  1  0.95066800  0.71551500  0.42925900  1
  O  O6  1  0.74569500  0.96592600  0.97024900  1
  O  O7  1  0.25430500  0.03407400  0.02975100  1
  O  O8  1  0.55628500  0.56110400  0.77470900  1
  O  O9  1  0.04754400  0.42843000  0.27056200  1
  O  O10  1  0.44371500  0.43889600  0.22529100  1
  O  O11  1  0.95245600  0.57157000  0.72943800  1
  O  O12  1  0.46220900  0.95604400  0.75827700  1
  O  O13  1  0.96571500  0.04058900  0.25564100  1
  O  O14  1  0.53779100  0.04395600  0.24172300  1
  O  O15  1  0.03428500  0.95941100  0.74435900  1
  O  O16  1  0.76196400  0.42720500  0.46851500  1
  O  O17  1  0.23803600  0.57279500  0.53148500  1
  O  O18  1  0.75467800  0.01658300  0.53424000  1
  O  O19  1  0.24532200  0.98341700  0.46576000  1
  O  O20  1  0.44962900  0.72444700  0.05795400  1
  O  O21  1  0.94632800  0.27135000  0.95404300  1
  O  O22  1  0.55037100  0.27555300  0.94204600  1
  O  O23  1  0.05367200  0.72865000  0.04595700  1
loop_
_geom_bond_atom_site_label_1
_geom_bond_atom_site_label_2
_geom_bond_distance
_geom_bond_site_symmetry_2
La0 O18 2.430575 1_565
La0 O8 2.440820 1_555
La0 O6 2.444791 1_555
La0 O11 2.473718 1_555
La0 O12 2.610218 1_555
La0 O2 2.629455 1_555
La0 O15 2.681297 1_655
La0 O5 2.874277 1_555
La1 O19 2.430575 1_545
La1 O10 2.440820 1_555
La1 O7 2.444791 1_555
La1 O9 2.473718 1_555
La1 O14 2.610218 1_555
La1 O4 2.629455 1_555
La1 O13 2.681297 1_455
La1 O3 2.874277 1_555
La2 O13 2.438747 1_555
La2 O21 2.468578 1_554
La2 O14 2.494661 1_555
La2 O16 2.508320 1_555
La2 O0 2.598610 1_555
La2 O22 2.660229 1_554
La2 O9 2.682348 1_655
La2 O10 2.949932 1_555
La2 O6 2.953723 1_544
La3 O15 2.438747 1_555
La3 O23 2.468578 1_556
La3 O12 2.494661 1_555
La3 O17 2.508320 1_555
La3 O1 2.598610 1_555
La3 O20 2.660229 1_556
La3 O11 2.682348 1_455
La3 O8 2.949932 1_555
La3 O7 2.953723 1_566
La4 O18 2.384019 1_555
La4 O22 2.401188 1_555
La4 O21 2.422559 1_555
La4 O16 2.507709 1_555
La4 O3 2.637334 1_655
La4 O4 2.648288 1_555
La4 O11 3.066603 1_555
La5 O19 2.384019 1_555
La5 O20 2.401188 1_555
La5 O23 2.422559 1_555
La5 O17 2.507709 1_555
La5 O5 2.637334 1_455
La5 O2 2.648288 1_555
La5 O9 3.066603 1_555
La6 O5 2.399095 1_555
La6 O2 2.438858 1_555
La6 O0 2.491831 1_555
La6 O6 2.527317 1_554
La6 O14 2.577538 1_565
La6 O13 2.610831 1_565
La6 O20 2.724619 1_555
La6 O23 2.908609 1_655
La6 O18 2.931976 1_565
La7 O3 2.399095 1_555
La7 O4 2.438858 1_555
La7 O1 2.491831 1_555
La7 O7 2.527317 1_556
La7 O12 2.577538 1_545
La7 O15 2.610831 1_545
La7 O22 2.724619 1_555
La7 O21 2.908609 1_455
La7 O19 2.931976 1_545
Cu0 O18 2.010505 1_555
Cu0 O19 2.010505 1_545
Cu0 O14 2.131904 1_555
Cu0 O12 2.131904 1_545
Cu0 O2 2.246941 1_545
Cu0 O4 2.246941 1_555
Cu1 O19 1.947001 1_545
Cu1 O18 1.947001 1_455
Cu1 O13 2.008949 1_455
Cu1 O15 2.008949 1_545
Cu1 O3 2.428854 1_555
Cu1 O5 2.428854 1_445
Cu2 O7 1.961320 1_555
Cu2 O6 1.961320 1_544
Cu2 O14 1.963501 1_555
Cu2 O12 1.963501 1_544
Cu2 O20 2.385592 1_545
Cu2 O22 2.385592 1_554
Cu3 O7 2.016375 1_555
Cu3 O6 2.016375 1_444
Cu3 O15 2.071374 1_544
Cu3 O13 2.071374 1_455
Cu3 O23 2.342170 1_545
Cu3 O21 2.342170 1_454
Cu4 O2 2.040370 1_555
Cu4 O4 2.040370 1_555
Cu4 O17 2.157105 1_555
Cu4 O16 2.157105 1_555
Cu4 O8 2.262691 1_555
Cu4 O10 2.262691 1_555
Cu5 O21 1.957155 1_454
Cu5 O23 1.957155 1_555
Cu5 O0 2.174406 1_455
Cu5 O1 2.174406 1_554
Cu5 O9 2.292618 1_555
Cu5 O11 2.292618 1_454
Mo0 O11 1.938105 1_455
Mo0 O9 1.938105 1_555
Mo0 O3 1.943558 1_555
Mo0 O5 1.943558 1_455
Mo0 O17 1.961477 1_555
Mo0 O16 1.961477 1_455
Mo1 O8 1.943677 1_554
Mo1 O10 1.943677 1_555
Mo1 O20 1.944925 1_555
Mo1 O22 1.944925 1_554
Mo1 O0 1.957845 1_555
Mo1 O1 1.957845 1_554
