# generated using pymatgen
data_SrEuNiO4
_symmetry_space_group_name_H-M   'P 1'
_cell_length_a   6.73100067
_cell_length_b   6.73100067
_cell_length_c   5.45660200
_cell_angle_alpha   90.00000000
_cell_angle_beta   90.00000000
_cell_angle_gamma   132.27548449
_symmetry_Int_Tables_number   1
_chemical_formula_structural   SrEuNiO4
_chemical_formula_sum   'Sr2 Eu2 Ni2 O8'
_cell_volume   182.92190716
_cell_formula_units_Z   2
loop_
 _symmetry_equiv_pos_site_id
 _symmetry_equiv_pos_as_xyz
  1  'x, y, z'
loop_
 _atom_site_type_symbol
 _atom_site_label
 _atom_site_symmetry_multiplicity
 _atom_site_fract_x
 _atom_site_fract_y
 _atom_site_fract_z
 _atom_site_occupancy
  Sr  Sr0  1  0.60729200  0.39270800  0.25000000  1
  Sr  Sr1  1  0.39270800  0.60729200  0.75000000  1
  Eu  Eu0  1  0.11205400  0.88794600  0.75000000  1
  Eu  Eu1  1  0.88794600  0.11205400  0.25000000  1
  Ni  Ni0  1  0.24933000  0.75067000  0.25000000  1
  Ni  Ni1  1  0.75067000  0.24933000  0.75000000  1
  O  O0  1  0.92092200  0.07907800  0.75000000  1
  O  O1  1  0.40916600  0.59083400  0.25000000  1
  O  O2  1  0.07907800  0.92092200  0.25000000  1
  O  O3  1  0.59083400  0.40916600  0.75000000  1
  O  O4  1  0.00000000  0.50000000  0.50000000  1
  O  O5  1  0.50000000  0.00000000  0.00000000  1
  O  O6  1  0.50000000  0.00000000  0.50000000  1
  O  O7  1  0.00000000  0.50000000  0.00000000  1
loop_
_geom_bond_atom_site_label_1
_geom_bond_atom_site_label_2
_geom_bond_distance
_geom_bond_site_symmetry_2
Eu0 O0 2.353079 1_465
Eu0 O7 2.568797 1_556
Eu0 O4 2.568797 1_555
Eu0 O5 2.568797 1_566
Eu0 O6 2.568797 1_565
Eu0 O3 2.735457 1_565
Eu0 O3 2.735457 1_455
Eu0 O2 2.758341 1_555
Eu0 O2 2.758341 1_556
Eu1 O2 2.353079 1_645
Eu1 O7 2.568797 1_655
Eu1 O5 2.568797 1_555
Eu1 O4 2.568797 1_655
Eu1 O6 2.568797 1_555
Eu1 O1 2.735457 1_655
Eu1 O1 2.735457 1_545
Eu1 O0 2.758341 1_555
Eu1 O0 2.758341 1_554
Ni0 O4 1.927328 1_555
Ni0 O7 1.927328 1_555
Ni0 O6 1.927328 1_565
Ni0 O5 1.927328 1_565
Ni0 O1 1.967785 1_555
Ni0 O2 2.096020 1_555
Ni1 O5 1.927328 1_556
Ni1 O6 1.927328 1_555
Ni1 O7 1.927328 1_656
Ni1 O4 1.927328 1_655
Ni1 O3 1.967785 1_555
Ni1 O0 2.096020 1_555
O0 Sr1 2.745019 1_545
O0 Sr1 2.745019 1_655
O1 Sr0 2.439184 1_555
O1 Sr1 2.735814 1_554
O1 Sr1 2.735814 1_555
O2 Sr0 2.745019 1_455
O2 Sr0 2.745019 1_565
O3 Sr1 2.439184 1_555
O3 Sr0 2.735814 1_555
O3 Sr0 2.735814 1_556
O4 Sr1 2.607928 1_555
O4 Sr0 2.607928 1_455
O5 Sr1 2.607928 1_544
O5 Sr0 2.607928 1_555
O6 Sr1 2.607928 1_545
O6 Sr0 2.607928 1_555
O7 Sr1 2.607928 1_554
O7 Sr0 2.607928 1_455
