# generated using pymatgen
data_PrSb2Au
_symmetry_space_group_name_H-M   'P 1'
_cell_length_a   4.46608300
_cell_length_b   4.46608300
_cell_length_c   10.42285700
_cell_angle_alpha   90.00000000
_cell_angle_beta   90.00000000
_cell_angle_gamma   90.00000000
_symmetry_Int_Tables_number   1
_chemical_formula_structural   PrSb2Au
_chemical_formula_sum   'Pr2 Sb4 Au2'
_cell_volume   207.89323595
_cell_formula_units_Z   2
loop_
 _symmetry_equiv_pos_site_id
 _symmetry_equiv_pos_as_xyz
  1  'x, y, z'
loop_
 _atom_site_type_symbol
 _atom_site_label
 _atom_site_symmetry_multiplicity
 _atom_site_fract_x
 _atom_site_fract_y
 _atom_site_fract_z
 _atom_site_occupancy
  Pr  Pr0  1  0.00000000  0.50000000  0.75474700  1
  Pr  Pr1  1  0.50000000  0.00000000  0.24525300  1
  Sb  Sb0  1  0.50000000  0.50000000  0.00000000  1
  Sb  Sb1  1  0.00000000  0.00000000  0.00000000  1
  Sb  Sb2  1  0.00000000  0.50000000  0.32383400  1
  Sb  Sb3  1  0.50000000  0.00000000  0.67616600  1
  Au  Au0  1  0.50000000  0.50000000  0.50000000  1
  Au  Au1  1  0.00000000  0.00000000  0.50000000  1
loop_
_geom_bond_atom_site_label_1
_geom_bond_atom_site_label_2
_geom_bond_distance
_geom_bond_site_symmetry_2
Pr0 Sb3 3.262480 1_455
Pr0 Sb3 3.262480 1_565
Pr0 Sb3 3.262480 1_555
Pr0 Sb3 3.262480 1_465
Pr0 Sb1 3.394234 1_556
Pr0 Sb0 3.394234 1_456
Pr0 Sb1 3.394234 1_566
Pr0 Sb0 3.394234 1_556
Pr1 Sb2 3.262480 1_655
Pr1 Sb2 3.262480 1_645
Pr1 Sb2 3.262480 1_555
Pr1 Sb2 3.262480 1_545
Pr1 Sb1 3.394234 1_655
Pr1 Sb0 3.394234 1_545
Pr1 Sb0 3.394234 1_555
Pr1 Sb1 3.394234 1_555
Sb0 Sb1 3.157998 1_565
Sb0 Sb1 3.157998 1_555
Sb0 Sb1 3.157998 1_655
Sb0 Sb1 3.157998 1_665
Au0 Sb3 2.891009 1_565
Au0 Sb3 2.891009 1_555
Au0 Sb2 2.891009 1_655
Au0 Sb2 2.891009 1_555
Au0 Au1 3.157998 1_665
Au0 Au1 3.157998 1_555
Au0 Au1 3.157998 1_655
Au0 Au1 3.157998 1_565
Au0 Pr0 3.469368 1_555
Au0 Pr0 3.469368 1_655
Au0 Pr1 3.469368 1_565
Au0 Pr1 3.469368 1_555
Au1 Sb3 2.891009 1_455
Au1 Sb3 2.891009 1_555
Au1 Sb2 2.891009 1_555
Au1 Sb2 2.891009 1_545
Au1 Pr0 3.469368 1_555
Au1 Pr0 3.469368 1_545
Au1 Pr1 3.469368 1_555
Au1 Pr1 3.469368 1_455
