# generated using pymatgen
data_Ba3(P3O11)2
_symmetry_space_group_name_H-M   'P 1'
_cell_length_a   9.18541445
_cell_length_b   9.18541445
_cell_length_c   7.84830116
_cell_angle_alpha   82.95030002
_cell_angle_beta   82.95030002
_cell_angle_gamma   54.33006227
_symmetry_Int_Tables_number   1
_chemical_formula_structural   Ba3(P3O11)2
_chemical_formula_sum   'Ba3 P6 O22'
_cell_volume   532.80164873
_cell_formula_units_Z   1
loop_
 _symmetry_equiv_pos_site_id
 _symmetry_equiv_pos_as_xyz
  1  'x, y, z'
loop_
 _atom_site_type_symbol
 _atom_site_label
 _atom_site_symmetry_multiplicity
 _atom_site_fract_x
 _atom_site_fract_y
 _atom_site_fract_z
 _atom_site_occupancy
  Ba  Ba0  1  0.80143500  0.80143500  0.93211100  1
  Ba  Ba1  1  0.19958700  0.19958700  0.05839600  1
  Ba  Ba2  1  0.95220900  0.95220900  0.42255600  1
  P  P0  1  0.53620900  0.19865200  0.69671600  1
  P  P1  1  0.19865200  0.53620900  0.69671600  1
  P  P2  1  0.46580700  0.80434800  0.30279000  1
  P  P3  1  0.80434800  0.46580700  0.30279000  1
  P  P4  1  0.69042000  0.69042000  0.59217000  1
  P  P5  1  0.31336500  0.31336500  0.40104400  1
  O  O0  1  0.47150600  0.10399900  0.81656100  1
  O  O1  1  0.10399900  0.47150600  0.81656100  1
  O  O2  1  0.53143000  0.89901600  0.18298800  1
  O  O3  1  0.89901600  0.53143000  0.18298800  1
  O  O4  1  0.73096300  0.12480100  0.69678600  1
  O  O5  1  0.12480100  0.73096300  0.69678600  1
  O  O6  1  0.27295700  0.87463400  0.29123100  1
  O  O7  1  0.87463400  0.27295700  0.29123100  1
  O  O8  1  0.49892600  0.19991400  0.49803900  1
  O  O9  1  0.19991400  0.49892600  0.49803900  1
  O  O10  1  0.50086300  0.80187600  0.50064800  1
  O  O11  1  0.80187600  0.50086300  0.50064800  1
  O  O12  1  0.78307100  0.78307100  0.55376800  1
  O  O13  1  0.22099200  0.22099200  0.42106400  1
  O  O14  1  0.71348800  0.09931100  0.13438600  1
  O  O15  1  0.09931100  0.71348800  0.13438600  1
  O  O16  1  0.30223300  0.84901100  0.90877900  1
  O  O17  1  0.84901100  0.30223300  0.90877900  1
  O  O18  1  0.41168400  0.41168400  0.72666000  1
  O  O19  1  0.59121000  0.59121000  0.27131600  1
  O  O20  1  0.65618600  0.65618600  0.78143600  1
  O  O21  1  0.35288800  0.35288800  0.21332900  1
loop_
_geom_bond_atom_site_label_1
_geom_bond_atom_site_label_2
_geom_bond_distance
_geom_bond_site_symmetry_2
Ba0 O2 2.733711 1_556
Ba0 O3 2.733711 1_556
Ba0 O20 2.794437 1_555
Ba0 O1 2.822035 1_655
Ba0 O0 2.822035 1_565
Ba0 O14 2.971999 1_566
Ba0 O15 2.971999 1_656
Ba0 O12 3.025395 1_555
Ba0 O5 3.058933 1_655
Ba0 O4 3.058933 1_565
Ba1 O1 2.701779 1_554
Ba1 O0 2.701779 1_554
Ba1 O3 2.850292 1_455
Ba1 O2 2.850292 1_545
Ba1 O13 2.915255 1_555
Ba1 O21 2.932108 1_555
Ba1 O6 3.052888 1_545
Ba1 O7 3.052888 1_455
Ba1 O17 3.122972 1_454
Ba1 O16 3.122972 1_544
Ba2 O6 2.690120 1_655
Ba2 O7 2.690120 1_565
Ba2 O4 2.698513 1_565
Ba2 O5 2.698513 1_655
Ba2 O12 2.813774 1_555
Ba2 O15 2.959859 1_655
Ba2 O14 2.959859 1_565
O0 P0 1.502826 1_555
O1 P1 1.502826 1_555
O2 P2 1.508314 1_555
O3 P3 1.508314 1_555
O4 P0 1.498412 1_555
O5 P1 1.498412 1_555
O6 P2 1.501417 1_555
O7 P3 1.501417 1_555
O8 P5 1.619545 1_555
O8 P0 1.634247 1_555
O9 P5 1.619545 1_555
O9 P1 1.634247 1_555
O10 P2 1.618980 1_555
O10 P4 1.625826 1_555
O11 P3 1.618980 1_555
O11 P4 1.625826 1_555
O12 P4 1.502700 1_555
O13 P5 1.496225 1_555
O18 P0 1.621480 1_555
O18 P1 1.621480 1_555
O19 P2 1.624673 1_555
O19 P3 1.624673 1_555
O20 P4 1.513353 1_555
O21 P5 1.524853 1_555
