# generated using pymatgen
data_Nd3Ge13Ir4
_symmetry_space_group_name_H-M   'P 1'
_cell_length_a   9.12671600
_cell_length_b   9.12671600
_cell_length_c   9.12671600
_cell_angle_alpha   90.00000000
_cell_angle_beta   90.00000000
_cell_angle_gamma   90.00000000
_symmetry_Int_Tables_number   1
_chemical_formula_structural   Nd3Ge13Ir4
_chemical_formula_sum   'Nd6 Ge26 Ir8'
_cell_volume   760.22756018
_cell_formula_units_Z   2
loop_
 _symmetry_equiv_pos_site_id
 _symmetry_equiv_pos_as_xyz
  1  'x, y, z'
loop_
 _atom_site_type_symbol
 _atom_site_label
 _atom_site_symmetry_multiplicity
 _atom_site_fract_x
 _atom_site_fract_y
 _atom_site_fract_z
 _atom_site_occupancy
  Nd  Nd0  1  0.00000000  0.50000000  0.75000000  1
  Nd  Nd1  1  0.50000000  0.25000000  0.00000000  1
  Nd  Nd2  1  0.75000000  0.00000000  0.50000000  1
  Nd  Nd3  1  0.00000000  0.50000000  0.25000000  1
  Nd  Nd4  1  0.50000000  0.75000000  0.00000000  1
  Nd  Nd5  1  0.25000000  0.00000000  0.50000000  1
  Ge  Ge0  1  0.50000000  0.50000000  0.50000000  1
  Ge  Ge1  1  0.00000000  0.00000000  0.00000000  1
  Ge  Ge2  1  0.80573100  0.35367800  0.50000000  1
  Ge  Ge3  1  0.64632200  0.50000000  0.80573100  1
  Ge  Ge4  1  0.50000000  0.19426900  0.64632200  1
  Ge  Ge5  1  0.19426900  0.64632200  0.50000000  1
  Ge  Ge6  1  0.35367800  0.50000000  0.19426900  1
  Ge  Ge7  1  0.50000000  0.80573100  0.35367800  1
  Ge  Ge8  1  0.80573100  0.64632200  0.50000000  1
  Ge  Ge9  1  0.64632200  0.50000000  0.19426900  1
  Ge  Ge10  1  0.19426900  0.35367800  0.50000000  1
  Ge  Ge11  1  0.35367800  0.50000000  0.80573100  1
  Ge  Ge12  1  0.50000000  0.80573100  0.64632200  1
  Ge  Ge13  1  0.50000000  0.19426900  0.35367800  1
  Ge  Ge14  1  0.30573100  0.00000000  0.85367800  1
  Ge  Ge15  1  0.14632200  0.30573100  0.00000000  1
  Ge  Ge16  1  0.00000000  0.14632200  0.69426900  1
  Ge  Ge17  1  0.69426900  0.00000000  0.14632200  1
  Ge  Ge18  1  0.85367800  0.69426900  0.00000000  1
  Ge  Ge19  1  0.00000000  0.85367800  0.30573100  1
  Ge  Ge20  1  0.30573100  0.00000000  0.14632200  1
  Ge  Ge21  1  0.14632200  0.69426900  0.00000000  1
  Ge  Ge22  1  0.69426900  0.00000000  0.85367800  1
  Ge  Ge23  1  0.85367800  0.30573100  0.00000000  1
  Ge  Ge24  1  0.00000000  0.14632200  0.30573100  1
  Ge  Ge25  1  0.00000000  0.85367800  0.69426900  1
  Ir  Ir0  1  0.75000000  0.25000000  0.75000000  1
  Ir  Ir1  1  0.25000000  0.75000000  0.25000000  1
  Ir  Ir2  1  0.75000000  0.75000000  0.25000000  1
  Ir  Ir3  1  0.25000000  0.25000000  0.75000000  1
  Ir  Ir4  1  0.25000000  0.75000000  0.75000000  1
  Ir  Ir5  1  0.75000000  0.25000000  0.25000000  1
  Ir  Ir6  1  0.25000000  0.25000000  0.25000000  1
  Ir  Ir7  1  0.75000000  0.75000000  0.75000000  1
loop_
_geom_bond_atom_site_label_1
_geom_bond_atom_site_label_2
_geom_bond_distance
_geom_bond_site_symmetry_2
Ge0 Ge5 3.093426 1_555
Ge0 Ge7 3.093426 1_555
Ge0 Ge12 3.093426 1_555
Ge0 Ge6 3.093426 1_555
Ge0 Ge2 3.093426 1_555
Ge0 Ge11 3.093426 1_555
Ge0 Ge13 3.093426 1_555
Ge0 Ge9 3.093426 1_555
Ge0 Ge10 3.093426 1_555
Ge0 Ge4 3.093426 1_555
Ge0 Ge3 3.093426 1_555
Ge0 Ge8 3.093426 1_555
Ge1 Ge24 3.093426 1_555
Ge1 Ge15 3.093426 1_555
Ge1 Ge20 3.093426 1_555
Ge1 Ge14 3.093426 1_554
Ge1 Ge19 3.093426 1_545
Ge1 Ge23 3.093426 1_455
Ge1 Ge17 3.093426 1_455
Ge1 Ge16 3.093426 1_554
Ge1 Ge21 3.093426 1_545
Ge1 Ge22 3.093426 1_454
Ge1 Ge25 3.093426 1_544
Ge1 Ge18 3.093426 1_445
Ge2 Ir0 2.521933 1_555
Ge2 Ir5 2.521933 1_555
Ge2 Ge8 2.670879 1_555
Ge2 Nd3 3.183256 1_655
Ge2 Nd0 3.183256 1_655
Ge2 Nd2 3.267748 1_555
Ge3 Ir7 2.521933 1_555
Ge3 Ir0 2.521933 1_555
Ge3 Nd4 3.183256 1_556
Ge3 Nd1 3.183256 1_556
Ge3 Nd0 3.267748 1_655
Ge4 Ir3 2.521933 1_555
Ge4 Ir0 2.521933 1_555
Ge4 Nd5 3.183256 1_555
Ge4 Nd2 3.183256 1_555
Ge4 Nd1 3.267748 1_556
Ge5 Ir1 2.521933 1_555
Ge5 Ir4 2.521933 1_555
Ge5 Nd0 3.183256 1_555
Ge5 Nd3 3.183256 1_555
Ge5 Nd5 3.267748 1_565
Ge6 Ir6 2.521933 1_555
Ge6 Ir1 2.521933 1_555
Ge6 Ge9 2.670879 1_555
Ge6 Nd1 3.183256 1_555
Ge6 Nd4 3.183256 1_555
Ge6 Nd3 3.267748 1_555
Ge7 Ir2 2.521933 1_555
Ge7 Ir1 2.521933 1_555
Ge7 Nd5 3.183256 1_565
Ge7 Nd2 3.183256 1_565
Ge7 Nd4 3.267748 1_555
Ge8 Ir2 2.521933 1_555
Ge8 Ir7 2.521933 1_555
Ge8 Nd0 3.183256 1_655
Ge8 Nd3 3.183256 1_655
Ge8 Nd2 3.267748 1_565
Ge9 Ir5 2.521933 1_555
Ge9 Ir2 2.521933 1_555
Ge9 Nd1 3.183256 1_555
Ge9 Nd4 3.183256 1_555
Ge9 Nd3 3.267748 1_655
Ge10 Ir6 2.521933 1_555
Ge10 Ir3 2.521933 1_555
Ge10 Ge5 2.670879 1_555
Ge10 Nd0 3.183256 1_555
Ge10 Nd3 3.183256 1_555
Ge10 Nd5 3.267748 1_555
Ge11 Ir3 2.521933 1_555
Ge11 Ir4 2.521933 1_555
Ge11 Ge3 2.670879 1_555
Ge11 Nd4 3.183256 1_556
Ge11 Nd1 3.183256 1_556
Ge11 Nd0 3.267748 1_555
Ge12 Ir4 2.521933 1_555
Ge12 Ir7 2.521933 1_555
Ge12 Ge7 2.670879 1_555
Ge12 Nd5 3.183256 1_565
Ge12 Nd2 3.183256 1_565
Ge12 Nd4 3.267748 1_556
Ge13 Ir6 2.521933 1_555
Ge13 Ir5 2.521933 1_555
Ge13 Ge4 2.670879 1_555
Ge13 Nd5 3.183256 1_555
Ge13 Nd2 3.183256 1_555
Ge13 Nd1 3.267748 1_555
Ge14 Ir3 2.521933 1_555
Ge14 Ir4 2.521933 1_545
Ge14 Ge20 2.670879 1_556
Ge14 Nd1 3.183256 1_556
Ge14 Nd4 3.183256 1_546
Ge14 Nd5 3.267748 1_555
Ge15 Ir6 2.521933 1_555
Ge15 Ir3 2.521933 1_554
Ge15 Ge23 2.670879 1_455
Ge15 Nd3 3.183256 1_555
Ge15 Nd0 3.183256 1_554
Ge15 Nd1 3.267748 1_555
Ge16 Ir0 2.521933 1_455
Ge16 Ir3 2.521933 1_555
Ge16 Ge25 2.670879 1_545
Ge16 Nd5 3.183256 1_555
Ge16 Nd2 3.183256 1_455
Ge16 Nd0 3.267748 1_555
Ge17 Ir5 2.521933 1_555
Ge17 Ir2 2.521933 1_545
Ge17 Ge22 2.670879 1_554
Ge17 Nd4 3.183256 1_545
Ge17 Nd1 3.183256 1_555
Ge17 Nd2 3.267748 1_555
Ge18 Ir7 2.521933 1_554
Ge18 Ir2 2.521933 1_555
Ge18 Ge21 2.670879 1_655
Ge18 Nd3 3.183256 1_655
Ge18 Nd0 3.183256 1_654
Ge18 Nd4 3.267748 1_555
Ge19 Ir2 2.521933 1_455
Ge19 Ir1 2.521933 1_555
Ge19 Ge24 2.670879 1_565
Ge19 Nd2 3.183256 1_465
Ge19 Nd5 3.183256 1_565
Ge19 Nd3 3.267748 1_555
Ge20 Ir6 2.521933 1_555
Ge20 Ir1 2.521933 1_545
Ge20 Nd1 3.183256 1_555
Ge20 Nd4 3.183256 1_545
Ge20 Nd5 3.267748 1_555
Ge21 Ir4 2.521933 1_554
Ge21 Ir1 2.521933 1_555
Ge21 Nd0 3.183256 1_554
Ge21 Nd3 3.183256 1_555
Ge21 Nd4 3.267748 1_555
Ge22 Ir0 2.521933 1_555
Ge22 Ir7 2.521933 1_545
Ge22 Nd4 3.183256 1_546
Ge22 Nd1 3.183256 1_556
Ge22 Nd2 3.267748 1_555
Ge23 Ir5 2.521933 1_555
Ge23 Ir0 2.521933 1_554
Ge23 Nd3 3.183256 1_655
Ge23 Nd0 3.183256 1_654
Ge23 Nd1 3.267748 1_555
Ge24 Ir6 2.521933 1_555
Ge24 Ir5 2.521933 1_455
Ge24 Nd2 3.183256 1_455
Ge24 Nd5 3.183256 1_555
Ge24 Nd3 3.267748 1_555
Ge25 Ir4 2.521933 1_555
Ge25 Ir7 2.521933 1_455
Ge25 Nd2 3.183256 1_465
Ge25 Nd5 3.183256 1_565
Ge25 Nd0 3.267748 1_555
Ir0 Nd1 3.226781 1_556
Ir0 Nd0 3.226781 1_655
Ir0 Nd2 3.226781 1_555
Ir1 Nd3 3.226781 1_555
Ir1 Nd5 3.226781 1_565
Ir1 Nd4 3.226781 1_555
Ir2 Nd3 3.226781 1_655
Ir2 Nd4 3.226781 1_555
Ir2 Nd2 3.226781 1_565
Ir3 Nd1 3.226781 1_556
Ir3 Nd5 3.226781 1_555
Ir3 Nd0 3.226781 1_555
Ir4 Nd5 3.226781 1_565
Ir4 Nd4 3.226781 1_556
Ir4 Nd0 3.226781 1_555
Ir5 Nd1 3.226781 1_555
Ir5 Nd3 3.226781 1_655
Ir5 Nd2 3.226781 1_555
Ir6 Nd3 3.226781 1_555
Ir6 Nd1 3.226781 1_555
Ir6 Nd5 3.226781 1_555
Ir7 Nd4 3.226781 1_556
Ir7 Nd0 3.226781 1_655
Ir7 Nd2 3.226781 1_565
