# generated using pymatgen
data_YbAlCu
_symmetry_space_group_name_H-M   'P 1'
_cell_length_a   5.37526617
_cell_length_b   5.37526617
_cell_length_c   5.37526617
_cell_angle_alpha   119.24560090
_cell_angle_beta   118.11677526
_cell_angle_gamma   92.30251292
_symmetry_Int_Tables_number   1
_chemical_formula_structural   YbAlCu
_chemical_formula_sum   'Yb2 Al2 Cu2'
_cell_volume   111.89933849
_cell_formula_units_Z   2
loop_
 _symmetry_equiv_pos_site_id
 _symmetry_equiv_pos_as_xyz
  1  'x, y, z'
loop_
 _atom_site_type_symbol
 _atom_site_label
 _atom_site_symmetry_multiplicity
 _atom_site_fract_x
 _atom_site_fract_y
 _atom_site_fract_z
 _atom_site_occupancy
  Yb  Yb0  1  0.38083600  0.13083600  0.25000000  1
  Yb  Yb1  1  0.61916400  0.86916400  0.75000000  1
  Al  Al0  1  0.00000000  0.50000000  0.00000000  1
  Al  Al1  1  0.00000000  0.00000000  0.50000000  1
  Cu  Cu0  1  0.50000000  0.50000000  0.00000000  1
  Cu  Cu1  1  0.00000000  0.50000000  0.50000000  1
loop_
_geom_bond_atom_site_label_1
_geom_bond_atom_site_label_2
_geom_bond_distance
_geom_bond_site_symmetry_2
Al0 Cu0 2.687633 1_555
Al0 Cu1 2.687633 1_555
Al0 Cu0 2.687633 1_455
Al0 Cu1 2.687633 1_554
Al0 Al1 2.718221 1_554
Al0 Al1 2.718221 1_565
Al0 Yb0 3.145100 1_565
Al0 Yb1 3.145100 1_444
Al0 Yb0 3.205186 1_555
Al0 Yb1 3.205186 1_555
Al0 Yb0 3.205186 1_454
Al0 Yb1 3.205186 1_454
Al1 Cu1 2.687633 1_555
Al1 Cu1 2.687633 1_545
Al1 Cu0 2.687633 1_556
Al1 Cu0 2.687633 1_445
Al1 Yb0 3.145100 1_555
Al1 Yb1 3.145100 1_445
Al1 Yb0 3.205186 1_556
Al1 Yb1 3.205186 1_545
Al1 Yb0 3.205186 1_455
Al1 Yb1 3.205186 1_444
Cu0 Cu1 2.763770 1_554
Cu0 Cu1 2.763770 1_655
Cu0 Yb0 3.077099 1_555
Cu0 Yb1 3.077099 1_554
Cu0 Yb0 3.201217 1_565
Cu0 Yb1 3.201217 1_544
Cu0 Yb0 3.201217 1_554
Cu0 Yb1 3.201217 1_555
Cu1 Yb1 3.077099 1_555
Cu1 Yb0 3.077099 1_455
Cu1 Yb1 3.201217 1_444
Cu1 Yb1 3.201217 1_455
Cu1 Yb0 3.201217 1_555
Cu1 Yb0 3.201217 1_566
