# generated using pymatgen
data_AgBiSe2
_symmetry_space_group_name_H-M   'P 1'
_cell_length_a   19.51904707
_cell_length_b   5.58508448
_cell_length_c   10.12200395
_cell_angle_alpha   138.70590572
_cell_angle_beta   164.62017000
_cell_angle_gamma   38.80917739
_symmetry_Int_Tables_number   1
_chemical_formula_structural   AgBiSe2
_chemical_formula_sum   'Ag1 Bi1 Se2'
_cell_volume   183.41518051
_cell_formula_units_Z   1
loop_
 _symmetry_equiv_pos_site_id
 _symmetry_equiv_pos_as_xyz
  1  'x, y, z'
loop_
 _atom_site_type_symbol
 _atom_site_label
 _atom_site_symmetry_multiplicity
 _atom_site_fract_x
 _atom_site_fract_y
 _atom_site_fract_z
 _atom_site_occupancy
  Ag  Ag0  1  0.00000000  0.00000000  0.00000000  1
  Bi  Bi0  1  0.00000000  0.50000000  0.00000000  1
  Se  Se0  1  0.41937400  0.84351600  0.00000000  1
  Se  Se1  1  0.58062600  0.15648400  0.00000000  1
loop_
_geom_bond_atom_site_label_1
_geom_bond_atom_site_label_2
_geom_bond_distance
_geom_bond_site_symmetry_2
Ag0 Bi0 2.792542 1_555
Ag0 Bi0 2.792542 1_545
Bi0 Se0 2.942564 1_454
Bi0 Se1 2.942564 1_556
Bi0 Se0 2.942564 1_556
Bi0 Se1 2.942564 1_454
Se0 Se1 2.409989 1_555
