# generated using pymatgen
data_Li7V3P8O29
_symmetry_space_group_name_H-M   'P 1'
_cell_length_a   9.83500300
_cell_length_b   9.86047494
_cell_length_c   13.86968392
_cell_angle_alpha   90.20506338
_cell_angle_beta   89.90329305
_cell_angle_gamma   119.89070453
_symmetry_Int_Tables_number   1
_chemical_formula_structural   Li7V3P8O29
_chemical_formula_sum   'Li14 V6 P16 O58'
_cell_volume   1166.12200858
_cell_formula_units_Z   2
loop_
 _symmetry_equiv_pos_site_id
 _symmetry_equiv_pos_as_xyz
  1  'x, y, z'
loop_
 _atom_site_type_symbol
 _atom_site_label
 _atom_site_symmetry_multiplicity
 _atom_site_fract_x
 _atom_site_fract_y
 _atom_site_fract_z
 _atom_site_occupancy
  Li  Li0  1  0.33199300  0.23287000  0.06655200  1
  Li  Li1  1  0.32398200  0.09390600  0.55814500  1
  Li  Li2  1  0.77309000  0.68000000  0.55773600  1
  Li  Li3  1  0.67419200  0.33760600  0.88245100  1
  Li  Li4  1  0.90262400  0.67030600  0.06543600  1
  Li  Li5  1  0.76491500  0.09721300  0.06474800  1
  Li  Li6  1  0.09221800  0.77175600  0.43988800  1
  Li  Li7  1  0.90625700  0.22986900  0.56039300  1
  Li  Li8  1  0.23475000  0.89631000  0.93950000  1
  Li  Li9  1  0.10078700  0.33694000  0.93896900  1
  Li  Li10  1  0.22845500  0.32283300  0.43709700  1
  Li  Li11  1  0.67905200  0.90486000  0.43750200  1
  Li  Li12  1  0.66168400  0.76500300  0.94169300  1
  Li  Li13  1  0.99611800  0.99476900  0.00443700  1
  V  V0  1  0.00118400  0.56435700  0.25045800  1
  V  V1  1  0.00128400  0.43383600  0.74935500  1
  V  V2  1  0.43030000  0.99704900  0.74727700  1
  V  V3  1  0.56554400  0.99887000  0.25074400  1
  V  V4  1  0.43415500  0.43349400  0.24996900  1
  V  V5  1  0.56373800  0.56607000  0.74996100  1
  P  P0  1  0.31615400  0.22582600  0.84165300  1
  P  P1  1  0.31776400  0.08641000  0.34220700  1
  P  P2  1  0.77058000  0.68126400  0.34236000  1
  P  P3  1  0.66964500  0.33216000  0.12511500  1
  P  P4  1  0.66286400  0.33081300  0.62713800  1
  P  P5  1  0.90935800  0.68587200  0.84408700  1
  P  P6  1  0.08728400  0.76741000  0.65762400  1
  P  P7  1  0.77254300  0.08859300  0.84446800  1
  P  P8  1  0.22668700  0.91132100  0.15677500  1
  P  P9  1  0.91036400  0.23048400  0.34131100  1
  P  P10  1  0.08557400  0.31255400  0.15631000  1
  P  P11  1  0.33164900  0.66674000  0.37313800  1
  P  P12  1  0.33441000  0.66732400  0.87456100  1
  P  P13  1  0.23178900  0.31712600  0.65526800  1
  P  P14  1  0.68217800  0.91262400  0.65791800  1
  P  P15  1  0.68573400  0.77392000  0.15846400  1
  O  O0  1  0.24888100  0.24020600  0.56607100  1
  O  O1  1  0.33238200  0.24755300  0.34438400  1
  O  O2  1  0.22299600  0.99940300  0.06711700  1
  O  O3  1  0.33731700  0.07967700  0.84193300  1
  O  O4  1  0.48035100  0.37354800  0.83171000  1
  O  O5  1  0.51493300  0.32196400  0.15969200  1
  O  O6  1  0.62678600  0.52205100  0.32493300  1
  O  O7  1  0.78183800  0.78621300  0.06858200  1
  O  O8  1  0.74599400  0.67211000  0.84364900  1
  O  O9  1  0.50868200  0.18535000  0.66916900  1
  O  O10  1  0.47850300  0.09711900  0.32097300  1
  O  O11  1  0.66675800  0.48350300  0.67210300  1
  O  O12  1  0.67889900  0.33737100  0.01587200  1
  O  O13  1  0.65623800  0.33266000  0.51987100  1
  O  O14  1  0.81579300  0.48723800  0.16563300  1
  O  O15  1  0.62460000  0.10391800  0.83158400  1
  O  O16  1  0.67988900  0.18828100  0.16295500  1
  O  O17  1  0.92153900  0.66959000  0.34163500  1
  O  O18  1  0.99882500  0.78853600  0.75085800  1
  O  O19  1  0.99814200  0.76276100  0.56861300  1
  O  O20  1  0.00018900  0.77802200  0.93282300  1
  O  O21  1  0.89025400  0.52201400  0.83519600  1
  O  O22  1  0.80788500  0.32444800  0.66660200  1
  O  O23  1  0.08086300  0.74718000  0.15671300  1
  O  O24  1  0.89635300  0.37704500  0.32404400  1
  O  O25  1  0.74652800  0.08142200  0.34221600  1
  O  O26  1  0.20758100  0.99900900  0.25001400  1
  O  O27  1  0.24486800  0.99250300  0.43174300  1
  O  O28  1  0.75654300  0.00301100  0.56762200  1
  O  O29  1  0.25124600  0.91973000  0.65938900  1
  O  O30  1  0.10330200  0.62348000  0.67216900  1
  O  O31  1  0.91953200  0.25084500  0.84593900  1
  O  O32  1  0.18298300  0.67051600  0.32753600  1
  O  O33  1  0.08956000  0.46925400  0.16761200  1
  O  O34  1  0.99604700  0.22234400  0.06640500  1
  O  O35  1  0.00069700  0.24287500  0.43173100  1
  O  O36  1  0.99786900  0.20631900  0.24956700  1
  O  O37  1  0.08277000  0.32864200  0.65498000  1
  O  O38  1  0.32592000  0.81089700  0.83234500  1
  O  O39  1  0.37894700  0.90788200  0.16873600  1
  O  O40  1  0.19109500  0.51283600  0.83796800  1
  O  O41  1  0.34771900  0.67729900  0.98207600  1
  O  O42  1  0.32775500  0.67868200  0.48036000  1
  O  O43  1  0.32299800  0.51331800  0.33696900  1
  O  O44  1  0.52201200  0.90282000  0.67839200  1
  O  O45  1  0.48481800  0.81311400  0.33132400  1
  O  O46  1  0.24888500  0.32981600  0.15601300  1
  O  O47  1  0.21227500  0.20780300  0.74914500  1
  O  O48  1  0.22820800  0.22552800  0.93177100  1
  O  O49  1  0.37932900  0.47670800  0.67450400  1
  O  O50  1  0.48852200  0.67124800  0.83130400  1
  O  O51  1  0.52980800  0.62471500  0.16570300  1
  O  O52  1  0.66589600  0.92152100  0.16147400  1
  O  O53  1  0.76816400  0.99557500  0.93272100  1
  O  O54  1  0.78972600  0.00099400  0.75035300  1
  O  O55  1  0.66520700  0.74937300  0.65736800  1
  O  O56  1  0.76119600  0.76289800  0.43223200  1
  O  O57  1  0.79311000  0.79421100  0.25074200  1
loop_
_geom_bond_atom_site_label_1
_geom_bond_atom_site_label_2
_geom_bond_distance
_geom_bond_site_symmetry_2
Li0 O46 1.971884 1_555
Li0 O2 1.997324 1_545
Li0 O5 2.025359 1_555
Li0 O48 2.115062 1_554
Li1 O0 1.923354 1_555
Li1 O27 1.973670 1_545
Li1 O29 2.054891 1_545
Li1 O9 2.202493 1_555
Li2 O19 1.946215 1_555
Li2 O56 1.953987 1_555
Li2 O55 2.053032 1_555
Li2 O11 2.315330 1_555
Li3 O12 1.851203 1_556
Li3 O21 2.098601 1_555
Li3 O15 2.216906 1_555
Li3 O4 2.221503 1_555
Li4 O23 1.981533 1_655
Li4 O7 2.017910 1_555
Li4 O14 2.096799 1_555
Li4 O20 2.103358 1_654
Li5 O34 1.973514 1_555
Li5 O52 2.019925 1_545
Li5 O16 2.024052 1_555
Li5 O53 2.092176 1_544
Li6 O27 1.936162 1_555
Li6 O19 1.991296 1_455
Li6 O17 2.000535 1_455
Li6 O32 2.256997 1_555
Li7 O28 1.974900 1_555
Li7 O35 1.985174 1_655
Li7 O37 1.999176 1_655
Li7 O22 2.204630 1_555
Li8 O20 2.002238 1_555
Li8 O2 2.069592 1_556
Li8 O3 2.076775 1_565
Li8 O38 2.112190 1_555
Li9 O31 2.013691 1_455
Li9 O48 2.039184 1_555
Li9 O40 2.058462 1_555
Li9 O34 2.076058 1_456
Li10 O35 1.970955 1_555
Li10 O1 1.998554 1_555
Li10 O0 2.019615 1_555
Li10 O43 2.143528 1_555
Li11 O56 1.934869 1_555
Li11 O28 2.007862 1_565
Li11 O25 2.019897 1_565
Li11 O45 2.216720 1_555
Li12 O53 1.977304 1_555
Li12 O8 2.029777 1_555
Li12 O7 2.072567 1_556
Li12 O50 2.128056 1_555
Li13 O7 2.269160 1_555
Li13 O20 2.371894 1_654
Li13 O2 2.375165 1_655
Li13 O34 2.400412 1_565
Li13 O53 2.457851 1_554
Li13 O48 2.497092 1_664
O0 P13 1.501230 1_555
O1 P1 1.522603 1_555
O1 V4 2.064443 1_555
O2 P8 1.530141 1_555
O3 P0 1.555346 1_555
O3 V2 1.988615 1_545
O4 P0 1.550734 1_555
O4 V5 2.005611 1_555
O5 P3 1.549436 1_555
O5 V4 2.065419 1_555
O6 P2 1.519421 1_555
O6 V4 1.945266 1_555
O7 P15 1.531364 1_555
O8 P5 1.543571 1_555
O8 V5 2.030986 1_555
O9 P4 1.591150 1_555
O9 V2 1.949443 1_545
O10 P1 1.558622 1_555
O10 V3 1.853956 1_545
O11 P4 1.610315 1_555
O11 V5 1.915127 1_555
O12 P3 1.517261 1_555
O13 P4 1.489869 1_555
O14 P3 1.589344 1_555
O14 V0 1.976312 1_655
O15 P7 1.546630 1_555
O15 V2 2.030051 1_545
O16 P3 1.564072 1_555
O16 V3 2.038069 1_545
O17 P2 1.545287 1_555
O17 V0 2.021599 1_655
O18 P5 1.608958 1_555
O18 P6 1.627073 1_655
O19 P6 1.502678 1_655
O20 P5 1.524814 1_455
O21 P5 1.535296 1_555
O21 V1 2.073746 1_655
O22 P4 1.558819 1_555
O22 V1 2.013044 1_655
O23 P8 1.537165 1_555
O23 V0 2.039553 1_555
O24 P9 1.538150 1_555
O24 V0 1.904722 1_655
O25 P9 1.548044 1_555
O25 V3 1.999151 1_545
O26 P8 1.615050 1_555
O26 P1 1.618035 1_565
O27 P1 1.502374 1_565
O28 P14 1.500970 1_545
O29 P6 1.562915 1_555
O29 V2 1.957223 1_555
O30 P6 1.518121 1_555
O30 V1 1.946860 1_555
O31 P7 1.531198 1_555
O31 V1 2.065050 1_655
O32 P11 1.611459 1_555
O32 V0 1.889054 1_555
O33 P10 1.533450 1_555
O33 V0 1.938164 1_555
O34 P10 1.528577 1_655
O35 P9 1.507137 1_455
O36 P9 1.617129 1_555
O36 P10 1.618549 1_655
O37 P13 1.525384 1_555
O37 V1 2.060778 1_555
O38 P12 1.574143 1_555
O38 V2 1.987081 1_555
O39 P8 1.524008 1_555
O39 V3 1.955826 1_555
O40 P12 1.556167 1_555
O40 V1 2.038076 1_555
O41 P12 1.495747 1_555
O42 P11 1.493303 1_555
O43 P11 1.553680 1_555
O43 V4 2.029065 1_555
O44 P14 1.555073 1_555
O44 V2 1.848173 1_555
O45 P11 1.588958 1_555
O45 V3 1.948481 1_555
O46 P10 1.528480 1_555
O46 V4 2.050685 1_555
O47 P0 1.594809 1_555
O47 P13 1.642312 1_555
O48 P0 1.517979 1_555
O49 P13 1.541218 1_555
O49 V5 1.888935 1_555
O50 P12 1.611650 1_555
O50 V5 1.910268 1_555
O51 P15 1.509351 1_555
O51 V4 2.012538 1_555
O52 P15 1.562244 1_555
O52 V3 1.956576 1_555
O53 P7 1.519828 1_565
O54 P14 1.612351 1_545
O54 P7 1.617175 1_555
O55 P14 1.533388 1_555
O55 V5 2.031394 1_555
O56 P2 1.508870 1_555
O57 P15 1.607935 1_555
O57 P2 1.633211 1_555
