# generated using pymatgen
data_RbBiF3
_symmetry_space_group_name_H-M   'P 1'
_cell_length_a   4.26072200
_cell_length_b   4.26072200
_cell_length_c   12.90410800
_cell_angle_alpha   90.00000000
_cell_angle_beta   90.00000000
_cell_angle_gamma   90.00000000
_symmetry_Int_Tables_number   1
_chemical_formula_structural   RbBiF3
_chemical_formula_sum   'Rb2 Bi2 F6'
_cell_volume   234.25797591
_cell_formula_units_Z   2
loop_
 _symmetry_equiv_pos_site_id
 _symmetry_equiv_pos_as_xyz
  1  'x, y, z'
loop_
 _atom_site_type_symbol
 _atom_site_label
 _atom_site_symmetry_multiplicity
 _atom_site_fract_x
 _atom_site_fract_y
 _atom_site_fract_z
 _atom_site_occupancy
  Rb  Rb0  1  0.50000000  0.00000000  0.34942100  1
  Rb  Rb1  1  0.00000000  0.50000000  0.65057900  1
  Bi  Bi0  1  0.00000000  0.50000000  0.11869500  1
  Bi  Bi1  1  0.50000000  0.00000000  0.88130500  1
  F  F0  1  0.50000000  0.50000000  0.79235700  1
  F  F1  1  0.00000000  0.00000000  0.00000000  1
  F  F2  1  0.50000000  0.50000000  0.00000000  1
  F  F3  1  0.50000000  0.50000000  0.20764300  1
  F  F4  1  0.00000000  0.00000000  0.20764300  1
  F  F5  1  0.00000000  0.00000000  0.79235700  1
loop_
_geom_bond_atom_site_label_1
_geom_bond_atom_site_label_2
_geom_bond_distance
_geom_bond_site_symmetry_2
Bi0 F4 2.419891 1_565
Bi0 F3 2.419891 1_555
Bi0 F3 2.419891 1_455
Bi0 F4 2.419891 1_555
Bi0 F1 2.623814 1_565
Bi0 F1 2.623814 1_555
Bi0 F2 2.623814 1_555
Bi0 F2 2.623814 1_455
Bi1 F0 2.419891 1_555
Bi1 F0 2.419891 1_545
Bi1 F5 2.419891 1_555
Bi1 F5 2.419891 1_655
Bi1 F1 2.623814 1_556
Bi1 F1 2.623814 1_656
Bi1 F2 2.623814 1_556
Bi1 F2 2.623814 1_546
F0 Rb1 2.808127 1_655
F0 Rb1 2.808127 1_555
F3 Rb0 2.808127 1_555
F3 Rb0 2.808127 1_565
F4 Rb0 2.808127 1_555
F4 Rb0 2.808127 1_455
F5 Rb1 2.808127 1_545
F5 Rb1 2.808127 1_555
