# generated using pymatgen
data_BaSrY4O8
_symmetry_space_group_name_H-M   'P 1'
_cell_length_a   3.46597100
_cell_length_b   10.34116800
_cell_length_c   12.14261900
_cell_angle_alpha   90.00000000
_cell_angle_beta   90.00000000
_cell_angle_gamma   90.00000000
_symmetry_Int_Tables_number   1
_chemical_formula_structural   BaSrY4O8
_chemical_formula_sum   'Ba2 Sr2 Y8 O16'
_cell_volume   435.21803780
_cell_formula_units_Z   2
loop_
 _symmetry_equiv_pos_site_id
 _symmetry_equiv_pos_as_xyz
  1  'x, y, z'
loop_
 _atom_site_type_symbol
 _atom_site_label
 _atom_site_symmetry_multiplicity
 _atom_site_fract_x
 _atom_site_fract_y
 _atom_site_fract_z
 _atom_site_occupancy
  Ba  Ba0  1  0.75000000  0.74674200  0.14915200  1
  Ba  Ba1  1  0.75000000  0.24674200  0.35084800  1
  Sr  Sr0  1  0.25000000  0.25379100  0.85170700  1
  Sr  Sr1  1  0.25000000  0.75379100  0.64829300  1
  Y  Y0  1  0.75000000  0.07691900  0.61297900  1
  Y  Y1  1  0.75000000  0.57691900  0.88702100  1
  Y  Y2  1  0.25000000  0.92063300  0.39342100  1
  Y  Y3  1  0.25000000  0.42063300  0.10657900  1
  Y  Y4  1  0.75000000  0.07591000  0.10774100  1
  Y  Y5  1  0.75000000  0.57591000  0.39225900  1
  Y  Y6  1  0.25000000  0.92699200  0.88477400  1
  Y  Y7  1  0.25000000  0.42699200  0.61522600  1
  O  O0  1  0.75000000  0.29013000  0.67083100  1
  O  O1  1  0.75000000  0.79013000  0.82916900  1
  O  O2  1  0.25000000  0.70970500  0.33783900  1
  O  O3  1  0.25000000  0.20970500  0.16216100  1
  O  O4  1  0.75000000  0.98092900  0.28406700  1
  O  O5  1  0.75000000  0.48092900  0.21593300  1
  O  O6  1  0.25000000  0.01657100  0.71691600  1
  O  O7  1  0.25000000  0.51657100  0.78308400  1
  O  O8  1  0.75000000  0.37610400  0.97600300  1
  O  O9  1  0.75000000  0.87610400  0.52399700  1
  O  O10  1  0.25000000  0.61644000  0.01556100  1
  O  O11  1  0.25000000  0.11644000  0.48443900  1
  O  O12  1  0.75000000  0.07839900  0.92059800  1
  O  O13  1  0.75000000  0.57839900  0.57940200  1
  O  O14  1  0.25000000  0.93073300  0.07128500  1
  O  O15  1  0.25000000  0.43073300  0.42871500  1
loop_
_geom_bond_atom_site_label_1
_geom_bond_atom_site_label_2
_geom_bond_distance
_geom_bond_site_symmetry_2
Ba0 O10 2.729520 1_555
Ba0 O10 2.729520 1_655
Ba0 O14 2.741792 1_555
Ba0 O14 2.741792 1_655
Ba0 O5 2.865929 1_555
Ba0 O2 2.898158 1_555
Ba0 O2 2.898158 1_655
Ba0 O4 2.923820 1_555
Ba1 O11 2.729520 1_655
Ba1 O11 2.729520 1_555
Ba1 O15 2.741792 1_555
Ba1 O15 2.741792 1_655
Ba1 O4 2.865929 1_545
Ba1 O3 2.898158 1_555
Ba1 O3 2.898158 1_655
Ba1 O5 2.923820 1_555
O0 Y0 2.314052 1_555
O0 Y7 2.337142 1_555
O0 Y7 2.337142 1_655
O0 Sr0 2.822805 1_555
O0 Sr0 2.822805 1_655
O1 Y1 2.314052 1_555
O1 Y6 2.337142 1_655
O1 Y6 2.337142 1_555
O1 Sr1 2.822805 1_555
O1 Sr1 2.822805 1_655
O2 Y2 2.283270 1_555
O2 Y5 2.313922 1_555
O2 Y5 2.313922 1_455
O3 Y3 2.283270 1_555
O3 Y4 2.313922 1_455
O3 Y4 2.313922 1_555
O4 Y2 2.270506 1_655
O4 Y2 2.270506 1_555
O4 Y4 2.355606 1_565
O5 Y3 2.270506 1_655
O5 Y3 2.270506 1_555
O5 Y5 2.355606 1_555
O6 Y0 2.232827 1_455
O6 Y0 2.232827 1_555
O6 Y6 2.238868 1_545
O6 Sr1 2.842336 1_545
O6 Sr0 2.949016 1_555
O7 Y1 2.232827 1_455
O7 Y1 2.232827 1_555
O7 Y7 2.238868 1_555
O7 Sr0 2.842336 1_555
O7 Sr1 2.949016 1_555
O8 Y1 2.340929 1_555
O8 Y3 2.393575 1_556
O8 Y3 2.393575 1_656
O8 Sr0 2.623172 1_555
O8 Sr0 2.623172 1_655
O9 Y0 2.340929 1_565
O9 Y2 2.393575 1_655
O9 Y2 2.393575 1_555
O9 Sr1 2.623172 1_555
O9 Sr1 2.623172 1_655
O10 Y3 2.306853 1_555
O10 Y1 2.367785 1_554
O10 Y1 2.367785 1_454
O11 Y2 2.306853 1_545
O11 Y0 2.367785 1_555
O11 Y0 2.367785 1_455
O12 Y4 2.272552 1_556
O12 Y6 2.375701 1_645
O12 Y6 2.375701 1_545
O12 Sr0 2.644375 1_655
O12 Sr0 2.644375 1_555
O13 Y5 2.272552 1_555
O13 Y7 2.375701 1_555
O13 Y7 2.375701 1_655
O13 Sr1 2.644375 1_555
O13 Sr1 2.644375 1_655
O14 Y6 2.265062 1_554
O14 Y4 2.335187 1_465
O14 Y4 2.335187 1_565
O15 Y7 2.265062 1_555
O15 Y5 2.335187 1_455
O15 Y5 2.335187 1_555
