# generated using pymatgen
data_PbCS(BrN)2
_symmetry_space_group_name_H-M   'P 1'
_cell_length_a   7.32251950
_cell_length_b   17.27854700
_cell_length_c   4.00484541
_cell_angle_alpha   90.00000000
_cell_angle_beta   114.52591138
_cell_angle_gamma   90.00000000
_symmetry_Int_Tables_number   1
_chemical_formula_structural   PbCS(BrN)2
_chemical_formula_sum   'Pb2 C2 S2 Br4 N4'
_cell_volume   460.98507024
_cell_formula_units_Z   2
loop_
 _symmetry_equiv_pos_site_id
 _symmetry_equiv_pos_as_xyz
  1  'x, y, z'
loop_
 _atom_site_type_symbol
 _atom_site_label
 _atom_site_symmetry_multiplicity
 _atom_site_fract_x
 _atom_site_fract_y
 _atom_site_fract_z
 _atom_site_occupancy
  Pb  Pb0  1  0.86512200  0.50445500  0.75221700  1
  Pb  Pb1  1  0.13487800  0.00445500  0.24778300  1
  C  C0  1  0.54450400  0.27029100  0.02612400  1
  C  C1  1  0.45549600  0.77029100  0.97387600  1
  S  S0  1  0.09565400  0.42145600  0.42933300  1
  S  S1  1  0.90434600  0.92145600  0.57066700  1
  Br  Br0  1  0.91721000  0.62608800  0.29062900  1
  Br  Br1  1  0.08279000  0.12608800  0.70937100  1
  Br  Br2  1  0.38008700  0.48587900  0.56176900  1
  Br  Br3  1  0.61991300  0.98587900  0.43823100  1
  N  N0  1  0.42038200  0.30429000  0.10936800  1
  N  N1  1  0.57961800  0.80429000  0.89063200  1
  N  N2  1  0.67102300  0.23754000  0.94788100  1
  N  N3  1  0.32897700  0.73754000  0.05211900  1
loop_
_geom_bond_atom_site_label_1
_geom_bond_atom_site_label_2
_geom_bond_distance
_geom_bond_site_symmetry_2
Pb0 S0 2.896650 1_655
Pb0 S0 2.908508 1_656
Pb1 S1 2.896650 1_445
Pb1 S1 2.908508 1_444
C0 N2 1.231957 1_554
C0 N0 1.238496 1_555
C1 N3 1.231957 1_556
C1 N1 1.238496 1_555
Br0 Pb0 2.920450 1_554
Br0 Pb0 2.926605 1_555
Br1 Pb1 2.920450 1_556
Br1 Pb1 2.926605 1_555
Br2 S0 2.222878 1_555
Br2 Pb0 3.324185 1_555
Br3 S1 2.222878 1_555
Br3 Pb1 3.324185 1_565
