# generated using pymatgen
data_Te4Mo3WSe4
_symmetry_space_group_name_H-M   'P 1'
_cell_length_a   3.43966948
_cell_length_b   3.43966948
_cell_length_c   39.08904700
_cell_angle_alpha   90.00000000
_cell_angle_beta   90.00000000
_cell_angle_gamma   119.99999000
_symmetry_Int_Tables_number   1
_chemical_formula_structural   Te4Mo3WSe4
_chemical_formula_sum   'Te4 Mo3 W1 Se4'
_cell_volume   400.51536692
_cell_formula_units_Z   1
loop_
 _symmetry_equiv_pos_site_id
 _symmetry_equiv_pos_as_xyz
  1  'x, y, z'
loop_
 _atom_site_type_symbol
 _atom_site_label
 _atom_site_symmetry_multiplicity
 _atom_site_fract_x
 _atom_site_fract_y
 _atom_site_fract_z
 _atom_site_occupancy
  Te  Te0  1  0.33333300  0.66666700  0.70527100  1
  Te  Te1  1  0.66666700  0.33333300  0.42219300  1
  Te  Te2  1  0.66666700  0.33333300  0.51703900  1
  Te  Te3  1  0.33333300  0.66666700  0.60983900  1
  Mo  Mo0  1  0.33333300  0.66666700  0.09392700  1
  Mo  Mo1  1  0.33333300  0.66666700  0.46962500  1
  Mo  Mo2  1  0.66666700  0.33333300  0.28179600  1
  W  W0  1  0.66666700  0.33333300  0.65759500  1
  Se  Se0  1  0.33333300  0.66666700  0.32364100  1
  Se  Se1  1  0.66666700  0.33333300  0.05210600  1
  Se  Se2  1  0.66666700  0.33333300  0.13575900  1
  Se  Se3  1  0.33333300  0.66666700  0.23995700  1
loop_
_geom_bond_atom_site_label_1
_geom_bond_atom_site_label_2
_geom_bond_distance
_geom_bond_site_symmetry_2
Te0 W0 2.723382 1_455
Te0 W0 2.723382 1_565
Te0 W0 2.723386 1_555
Te3 W0 2.725523 1_455
Te3 W0 2.725523 1_565
Te3 W0 2.725527 1_555
Mo0 Se1 2.572188 1_455
Mo0 Se1 2.572188 1_565
Mo0 Se1 2.572193 1_555
Mo0 Se2 2.572462 1_455
Mo0 Se2 2.572462 1_565
Mo0 Se2 2.572466 1_555
Mo1 Te2 2.716384 1_455
Mo1 Te2 2.716384 1_565
Mo1 Te2 2.716388 1_555
Mo1 Te1 2.716864 1_455
Mo1 Te1 2.716864 1_565
Mo1 Te1 2.716868 1_555
Mo2 Se3 2.572636 1_545
Mo2 Se3 2.572636 1_655
Mo2 Se3 2.572640 1_555
Mo2 Se0 2.572785 1_545
Mo2 Se0 2.572785 1_655
Mo2 Se0 2.572789 1_555
