# generated using pymatgen
data_Pr3IrBr3
_symmetry_space_group_name_H-M   'P 1'
_cell_length_a   10.50072290
_cell_length_b   10.50019970
_cell_length_c   10.49982616
_cell_angle_alpha   109.46820532
_cell_angle_beta   109.47127873
_cell_angle_gamma   109.47516702
_symmetry_Int_Tables_number   1
_chemical_formula_structural   Pr3IrBr3
_chemical_formula_sum   'Pr12 Ir4 Br12'
_cell_volume   891.19280639
_cell_formula_units_Z   4
loop_
 _symmetry_equiv_pos_site_id
 _symmetry_equiv_pos_as_xyz
  1  'x, y, z'
loop_
 _atom_site_type_symbol
 _atom_site_label
 _atom_site_symmetry_multiplicity
 _atom_site_fract_x
 _atom_site_fract_y
 _atom_site_fract_z
 _atom_site_occupancy
  Pr  Pr0  1  0.46958785  0.48478417  0.23479906  1
  Pr  Pr1  1  0.74994965  0.23476101  0.26521423  1
  Pr  Pr2  1  0.74996115  0.01514070  0.48476114  1
  Pr  Pr3  1  0.23483734  0.46968471  0.48481932  1
  Pr  Pr4  1  0.26523576  0.75002255  0.23478387  1
  Pr  Pr5  1  0.03031213  0.26516175  0.01516766  1
  Pr  Pr6  1  0.01523800  0.03043162  0.26521206  1
  Pr  Pr7  1  0.48484994  0.75001992  0.01521648  1
  Pr  Pr8  1  0.48473364  0.23471375  0.46943805  1
  Pr  Pr9  1  0.01514906  0.48487196  0.75001031  1
  Pr  Pr10  1  0.26527444  0.01525028  0.03053665  1
  Pr  Pr11  1  0.23488358  0.26513800  0.75001483  1
  Ir  Ir0  1  0.25004177  0.24994301  0.25000232  1
  Ir  Ir1  1  0.49997447  0.00003821  0.24999882  1
  Ir  Ir2  1  -0.00008263  0.24993139  0.49986379  1
  Ir  Ir3  1  0.25005395  0.50006665  0.00009596  1
  Br  Br0  1  0.25008999  0.75613004  0.74407224  1
  Br  Br1  1  0.51209710  0.50605941  0.75598121  1
  Br  Br2  1  0.98803028  0.74407368  0.99403704  1
  Br  Br3  1  0.74383707  0.24986667  0.75590025  1
  Br  Br4  1  0.99397255  0.98786613  0.74399736  1
  Br  Br5  1  0.25010610  0.99398750  0.50602032  1
  Br  Br6  1  0.75592822  0.51204919  0.50600412  1
  Br  Br7  1  0.50597475  0.24993825  0.99404285  1
  Br  Br8  1  0.75612104  0.74397822  0.25001414  1
  Br  Br9  1  0.74387520  0.99391493  0.98786329  1
  Br  Br10  1  0.99388714  0.50604778  0.25000870  1
  Br  Br11  1  0.50607947  0.75612552  0.51212394  1
loop_
_geom_bond_atom_site_label_1
_geom_bond_atom_site_label_2
_geom_bond_distance
_geom_bond_site_symmetry_2
Ir0 Pr8 2.851406 1_555
Ir0 Pr10 2.851640 1_555
Ir0 Pr6 2.852334 1_555
Ir0 Pr0 2.852715 1_555
Ir0 Pr3 2.853810 1_555
Ir0 Pr5 2.853897 1_555
Ir1 Pr8 2.851432 1_555
Ir1 Pr10 2.851498 1_555
Ir1 Pr1 2.852071 1_555
Ir1 Pr4 2.852410 1_545
Ir1 Pr2 2.853093 1_555
Ir1 Pr7 2.853308 1_545
Ir2 Pr1 2.851949 1_455
Ir2 Pr6 2.852125 1_555
Ir2 Pr2 2.852971 1_455
Ir2 Pr3 2.853387 1_555
Ir2 Pr9 2.854414 1_555
Ir2 Pr11 2.854693 1_555
Ir3 Pr4 2.852048 1_555
Ir3 Pr0 2.852353 1_555
Ir3 Pr7 2.852867 1_555
Ir3 Pr5 2.853386 1_555
Ir3 Pr9 2.853992 1_554
Ir3 Pr11 2.854272 1_554
Br0 Pr7 3.120048 1_556
Br0 Pr9 3.120624 1_555
Br0 Pr10 3.226648 1_566
Br0 Pr3 3.226869 1_555
Br1 Pr3 3.120262 1_555
Br1 Pr11 3.120832 1_555
Br1 Pr7 3.226905 1_556
Br1 Pr8 3.227419 1_555
Br2 Pr10 3.119523 1_666
Br2 Pr4 3.120078 1_656
Br2 Pr6 3.226117 1_666
Br2 Pr9 3.226223 1_655
Br3 Pr2 3.119981 1_555
Br3 Pr9 3.121064 1_655
Br3 Pr8 3.226675 1_555
Br3 Pr5 3.226882 1_656
Br4 Pr5 3.120737 1_666
Br4 Pr11 3.120846 1_665
Br4 Pr10 3.226996 1_666
Br4 Pr2 3.227322 1_565
Br5 Pr8 3.119667 1_565
Br5 Pr6 3.120741 1_565
Br5 Pr4 3.226183 1_555
Br5 Pr11 3.226382 1_565
Br6 Pr8 3.119843 1_555
Br6 Pr1 3.120715 1_555
Br6 Pr0 3.225842 1_555
Br6 Pr9 3.226570 1_655
Br7 Pr10 3.119259 1_556
Br7 Pr0 3.119956 1_556
Br7 Pr11 3.225987 1_555
Br7 Pr1 3.226047 1_556
Br8 Pr2 3.120496 1_565
Br8 Pr7 3.120751 1_555
Br8 Pr6 3.226351 1_665
Br8 Pr0 3.227227 1_555
Br9 Pr1 3.120851 1_566
Br9 Pr6 3.121252 1_666
Br9 Pr7 3.225749 1_556
Br9 Pr5 3.226391 1_666
Br10 Pr3 3.120730 1_655
Br10 Pr5 3.120995 1_655
Br10 Pr1 3.226701 1_555
Br10 Pr4 3.227464 1_655
Br11 Pr4 3.120543 1_555
Br11 Pr0 3.121135 1_555
Br11 Pr2 3.225659 1_565
Br11 Pr3 3.226374 1_555
