# generated using pymatgen
data_MgTiP2O7
_symmetry_space_group_name_H-M   'P 1'
_cell_length_a   5.66853200
_cell_length_b   6.57642695
_cell_length_c   7.32841915
_cell_angle_alpha   85.52190793
_cell_angle_beta   86.57446678
_cell_angle_gamma   67.87697337
_symmetry_Int_Tables_number   1
_chemical_formula_structural   MgTiP2O7
_chemical_formula_sum   'Mg2 Ti2 P4 O14'
_cell_volume   252.17174765
_cell_formula_units_Z   2
loop_
 _symmetry_equiv_pos_site_id
 _symmetry_equiv_pos_as_xyz
  1  'x, y, z'
loop_
 _atom_site_type_symbol
 _atom_site_label
 _atom_site_symmetry_multiplicity
 _atom_site_fract_x
 _atom_site_fract_y
 _atom_site_fract_z
 _atom_site_occupancy
  Mg  Mg0  1  0.31685600  0.67532000  0.65472700  1
  Mg  Mg1  1  0.68314400  0.32468000  0.34527300  1
  Ti  Ti0  1  0.31137200  0.11216400  0.15421900  1
  Ti  Ti1  1  0.68862800  0.88783600  0.84578100  1
  P  P0  1  0.18275200  0.65415700  0.11144200  1
  P  P1  1  0.81724800  0.34584300  0.88855800  1
  P  P2  1  0.22450300  0.22060200  0.59527100  1
  P  P3  1  0.77549700  0.77939800  0.40472900  1
  O  O0  1  0.08614100  0.71329900  0.91435900  1
  O  O1  1  0.91385900  0.28670100  0.08564100  1
  O  O2  1  0.26574400  0.82355400  0.18629300  1
  O  O3  1  0.73425600  0.17644600  0.81370700  1
  O  O4  1  0.37625200  0.41686700  0.14557500  1
  O  O5  1  0.62374800  0.58313300  0.85442500  1
  O  O6  1  0.61447200  0.63877300  0.45378100  1
  O  O7  1  0.38552800  0.36122700  0.54621900  1
  O  O8  1  0.05690300  0.21624500  0.44083300  1
  O  O9  1  0.94309700  0.78375500  0.55916700  1
  O  O10  1  0.06300400  0.34586700  0.76765800  1
  O  O11  1  0.62872300  0.01707500  0.32499100  1
  O  O12  1  0.37127700  0.98292500  0.67500900  1
  O  O13  1  0.93699600  0.65413300  0.23234200  1
loop_
_geom_bond_atom_site_label_1
_geom_bond_atom_site_label_2
_geom_bond_distance
_geom_bond_site_symmetry_2
Mg0 O9 2.109279 1_455
Mg0 O6 2.127315 1_555
Mg0 O7 2.159741 1_555
Mg0 O12 2.175319 1_555
Mg0 O5 2.215158 1_555
Mg0 O0 2.218967 1_555
Mg1 O8 2.109279 1_655
Mg1 O7 2.127315 1_555
Mg1 O6 2.159741 1_555
Mg1 O11 2.175319 1_555
Mg1 O4 2.215158 1_555
Mg1 O1 2.218967 1_555
O0 P0 1.543885 1_556
O0 Ti1 2.178231 1_455
O1 P1 1.543885 1_554
O1 Ti0 2.178231 1_655
O2 P0 1.511380 1_555
O2 Ti0 2.004359 1_565
O3 P1 1.511380 1_555
O3 Ti1 2.004359 1_545
O4 P0 1.543862 1_555
O4 Ti0 2.164991 1_555
O5 P1 1.543862 1_555
O5 Ti1 2.164991 1_555
O6 P3 1.536988 1_555
O7 P2 1.536988 1_555
O8 P2 1.529186 1_555
O8 Ti0 2.465724 1_555
O9 P3 1.529186 1_555
O9 Ti1 2.465724 1_555
O10 P2 1.602805 1_555
O10 P1 1.605712 1_455
O11 P3 1.553328 1_545
O11 Ti0 2.119647 1_555
O12 P2 1.553328 1_565
O12 Ti1 2.119647 1_555
O13 P3 1.602805 1_555
O13 P0 1.605712 1_655
