# generated using pymatgen
data_MnNiSb2
_symmetry_space_group_name_H-M   'P 1'
_cell_length_a   3.99533782
_cell_length_b   3.99533782
_cell_length_c   5.46180400
_cell_angle_alpha   90.00000000
_cell_angle_beta   90.00000000
_cell_angle_gamma   119.99999706
_symmetry_Int_Tables_number   1
_chemical_formula_structural   MnNiSb2
_chemical_formula_sum   'Mn1 Ni1 Sb2'
_cell_volume   75.50466221
_cell_formula_units_Z   1
loop_
 _symmetry_equiv_pos_site_id
 _symmetry_equiv_pos_as_xyz
  1  'x, y, z'
loop_
 _atom_site_type_symbol
 _atom_site_label
 _atom_site_symmetry_multiplicity
 _atom_site_fract_x
 _atom_site_fract_y
 _atom_site_fract_z
 _atom_site_occupancy
  Mn  Mn0  1  0.00000000  0.00000000  0.50000000  1
  Ni  Ni0  1  0.00000000  0.00000000  0.00000000  1
  Sb  Sb0  1  0.33333300  0.66666700  0.23437600  1
  Sb  Sb1  1  0.66666700  0.33333300  0.76562400  1
loop_
_geom_bond_atom_site_label_1
_geom_bond_atom_site_label_2
_geom_bond_distance
_geom_bond_site_symmetry_2
Mn0 Sb1 2.725010 1_455
Mn0 Sb0 2.725010 1_545
Mn0 Sb0 2.725013 1_555
Mn0 Sb1 2.725013 1_445
Mn0 Sb1 2.725013 1_555
Mn0 Sb0 2.725013 1_445
Mn0 Ni0 2.730902 1_556
Mn0 Ni0 2.730902 1_555
Ni0 Sb0 2.638104 1_545
Ni0 Sb1 2.638104 1_454
Ni0 Sb1 2.638107 1_444
Ni0 Sb0 2.638107 1_445
Ni0 Sb1 2.638107 1_554
Ni0 Sb0 2.638107 1_555
