# generated using pymatgen
data_ZrCrAgS4
_symmetry_space_group_name_H-M   'P 1'
_cell_length_a   7.16964530
_cell_length_b   13.27991121
_cell_length_c   6.16720396
_cell_angle_alpha   90.14059443
_cell_angle_beta   90.06844388
_cell_angle_gamma   89.87753868
_symmetry_Int_Tables_number   1
_chemical_formula_structural   ZrCrAgS4
_chemical_formula_sum   'Zr4 Cr4 Ag4 S16'
_cell_volume   587.18985989
_cell_formula_units_Z   4
loop_
 _symmetry_equiv_pos_site_id
 _symmetry_equiv_pos_as_xyz
  1  'x, y, z'
loop_
 _atom_site_type_symbol
 _atom_site_label
 _atom_site_symmetry_multiplicity
 _atom_site_fract_x
 _atom_site_fract_y
 _atom_site_fract_z
 _atom_site_occupancy
  Zr  Zr0  1  0.51816800  0.74610400  0.00213300  1
  Zr  Zr1  1  0.25133400  0.24948000  0.49960100  1
  Zr  Zr2  1  0.74890600  0.24945100  0.49925600  1
  Zr  Zr3  1  0.23131800  0.75319200  0.50225800  1
  Cr  Cr0  1  0.00006000  0.24681200  0.99924300  1
  Cr  Cr1  1  0.99893400  0.75383500  0.99832900  1
  Cr  Cr2  1  0.49995500  0.25256900  0.00096500  1
  Cr  Cr3  1  0.75156400  0.75057600  0.49720300  1
  Ag  Ag0  1  0.00157800  0.00401800  0.34901700  1
  Ag  Ag1  1  0.50004800  0.49553900  0.66103700  1
  Ag  Ag2  1  0.99542200  0.50041000  0.02305400  1
  Ag  Ag3  1  0.50382100  0.99421600  0.97992000  1
  S  S0  1  0.25115700  0.35637900  0.85110000  1
  S  S1  1  0.76685300  0.64319000  0.81427300  1
  S  S2  1  0.75032200  0.14378300  0.14698800  1
  S  S3  1  0.23982200  0.86017500  0.15401700  1
  S  S4  1  0.25023000  0.14395400  0.14729000  1
  S  S5  1  0.76528700  0.85785300  0.18083500  1
  S  S6  1  0.74794700  0.35641300  0.85117500  1
  S  S7  1  0.23972200  0.64140000  0.84286000  1
  S  S8  1  0.00061000  0.13956400  0.67774400  1
  S  S9  1  0.98008600  0.85718700  0.67686400  1
  S  S10  1  0.49940300  0.35999400  0.32177300  1
  S  S11  1  0.51143800  0.64153600  0.34821400  1
  S  S12  1  0.99949500  0.35720300  0.31871300  1
  S  S13  1  0.98564900  0.64754200  0.31553000  1
  S  S14  1  0.50058400  0.14179300  0.68200400  1
  S  S15  1  0.51029200  0.85583000  0.65860700  1
loop_
_geom_bond_atom_site_label_1
_geom_bond_atom_site_label_2
_geom_bond_distance
_geom_bond_site_symmetry_2
Cr0 S4 2.430696 1_556
Cr0 S2 2.434902 1_456
Cr0 S8 2.438426 1_555
Cr0 S12 2.452911 1_456
Cr0 S6 2.492175 1_455
Cr0 S0 2.492891 1_555
Cr1 S13 2.417238 1_556
Cr1 S9 2.417523 1_555
Cr1 S3 2.428744 1_656
Cr1 S5 2.442981 1_556
Cr1 S7 2.472850 1_655
Cr1 S1 2.492775 1_555
Cr2 S0 2.434843 1_554
Cr2 S10 2.436339 1_555
Cr2 S6 2.436621 1_554
Cr2 S14 2.453448 1_554
Cr2 S2 2.472181 1_555
Cr2 S4 2.474233 1_555
Cr3 S5 2.420901 1_555
Cr3 S1 2.425272 1_555
Cr3 S11 2.430107 1_555
Cr3 S9 2.431960 1_555
Cr3 S15 2.433899 1_555
Cr3 S13 2.435445 1_555
Ag0 S8 2.707824 1_555
Ag0 S5 2.777327 1_445
Ag0 S9 2.816970 1_445
Ag0 S3 2.827116 1_545
Ag0 S4 2.865340 1_555
Ag0 S2 2.869526 1_455
Ag1 S11 2.739910 1_555
Ag1 S10 2.756702 1_555
Ag1 S6 2.817654 1_555
Ag1 S0 2.828993 1_555
Ag1 S1 2.898206 1_555
Ag1 S7 2.910663 1_555
Ag2 S12 2.637993 1_555
Ag2 S13 2.656803 1_555
Ag2 S7 2.799535 1_654
Ag2 S6 2.815781 1_554
Ag2 S1 2.816435 1_554
Ag2 S0 2.850374 1_654
Ag3 S14 2.689697 1_565
Ag3 S15 2.699671 1_555
Ag3 S3 2.816496 1_556
Ag3 S2 2.851454 1_566
Ag3 S4 2.881711 1_566
Ag3 S5 2.884405 1_556
S0 Zr1 2.588319 1_555
S1 Zr0 2.525055 1_556
S2 Zr2 2.583422 1_555
S3 Zr3 2.578824 1_555
S3 Zr0 2.671957 1_555
S4 Zr1 2.582620 1_555
S5 Zr0 2.560191 1_555
S6 Zr2 2.590950 1_555
S7 Zr3 2.575774 1_555
S7 Zr0 2.623768 1_556
S8 Zr2 2.567058 1_455
S8 Zr1 2.567654 1_555
S9 Zr3 2.509588 1_655
S10 Zr1 2.558059 1_555
S10 Zr2 2.558335 1_555
S11 Zr0 2.549750 1_555
S11 Zr3 2.668260 1_555
S12 Zr2 2.557113 1_555
S12 Zr1 2.557956 1_655
S13 Zr3 2.528796 1_655
S14 Zr1 2.548766 1_555
S14 Zr2 2.550995 1_555
S15 Zr0 2.574769 1_556
S15 Zr3 2.605525 1_555
