# generated using pymatgen
data_NaZnBP2O9
_symmetry_space_group_name_H-M   'P 1'
_cell_length_a   9.66243107
_cell_length_b   9.66243107
_cell_length_c   14.90031659
_cell_angle_alpha   90.00000000
_cell_angle_beta   90.00000000
_cell_angle_gamma   119.99999650
_symmetry_Int_Tables_number   1
_chemical_formula_structural   NaZnBP2O9
_chemical_formula_sum   'Na6 Zn6 B6 P12 O54'
_cell_volume   1204.75561880
_cell_formula_units_Z   6
loop_
 _symmetry_equiv_pos_site_id
 _symmetry_equiv_pos_as_xyz
  1  'x, y, z'
loop_
 _atom_site_type_symbol
 _atom_site_label
 _atom_site_symmetry_multiplicity
 _atom_site_fract_x
 _atom_site_fract_y
 _atom_site_fract_z
 _atom_site_occupancy
  Na  Na0  1  0.78072217  0.21927783  0.75000000  1
  Na  Na1  1  0.43855565  0.21927783  0.41666700  1
  Na  Na2  1  0.21927783  0.78072217  0.25000000  1
  Na  Na3  1  0.56144435  0.78072217  0.91666700  1
  Na  Na4  1  0.78072217  0.56144435  0.08333300  1
  Na  Na5  1  0.21927783  0.43855565  0.58333300  1
  Zn  Zn0  1  0.48478650  0.51521350  0.75000000  1
  Zn  Zn1  1  0.03042700  0.51521350  0.41666700  1
  Zn  Zn2  1  0.51521350  0.48478650  0.25000000  1
  Zn  Zn3  1  0.96957300  0.48478650  0.91666700  1
  Zn  Zn4  1  0.48478650  0.96957300  0.08333300  1
  Zn  Zn5  1  0.51521350  0.03042700  0.58333300  1
  B  B0  1  0.16342944  0.83657056  0.75000000  1
  B  B1  1  0.67314111  0.83657056  0.41666700  1
  B  B2  1  0.83657056  0.16342944  0.25000000  1
  B  B3  1  0.32685889  0.16342944  0.91666700  1
  B  B4  1  0.16342944  0.32685889  0.08333300  1
  B  B5  1  0.83657056  0.67314111  0.58333300  1
  P  P0  1  0.61059443  0.77049495  0.59485859  1
  P  P1  1  0.15990051  0.38940557  0.26152559  1
  P  P2  1  0.38940557  0.22950505  0.09485859  1
  P  P3  1  0.84009949  0.22950505  0.07180841  1
  P  P4  1  0.22950505  0.84009949  0.92819159  1
  P  P5  1  0.84009949  0.61059443  0.76152559  1
  P  P6  1  0.77049495  0.61059443  0.40514141  1
  P  P7  1  0.15990051  0.77049495  0.57180841  1
  P  P8  1  0.77049495  0.15990051  0.42819159  1
  P  P9  1  0.22950505  0.38940557  0.90514141  1
  P  P10  1  0.38940557  0.15990051  0.73847441  1
  P  P11  1  0.61059443  0.84009949  0.23847441  1
  O  O0  1  0.47263666  0.62280796  0.64025859  1
  O  O1  1  0.15017130  0.52736334  0.30692559  1
  O  O2  1  0.52736334  0.37719204  0.14025859  1
  O  O3  1  0.84982870  0.37719204  0.02640841  1
  O  O4  1  0.37719204  0.84982870  0.97359159  1
  O  O5  1  0.84982870  0.47263666  0.80692559  1
  O  O6  1  0.62280796  0.47263666  0.35974141  1
  O  O7  1  0.15017130  0.62280796  0.52640841  1
  O  O8  1  0.62280796  0.15017130  0.47359159  1
  O  O9  1  0.37719204  0.52736334  0.85974141  1
  O  O10  1  0.52736334  0.15017130  0.69307441  1
  O  O11  1  0.47263666  0.84982870  0.19307441  1
  O  O12  1  0.62979581  0.92790005  0.63203476  1
  O  O13  1  0.29810424  0.37020419  0.29870176  1
  O  O14  1  0.37020419  0.07209995  0.13203476  1
  O  O15  1  0.70189576  0.07209995  0.03463224  1
  O  O16  1  0.07209995  0.70189576  0.96536776  1
  O  O17  1  0.70189576  0.62979581  0.79870176  1
  O  O18  1  0.92790005  0.62979581  0.36796524  1
  O  O19  1  0.29810424  0.92790005  0.53463224  1
  O  O20  1  0.92790005  0.29810424  0.46536776  1
  O  O21  1  0.07209995  0.37020419  0.86796524  1
  O  O22  1  0.37020419  0.29810424  0.70129824  1
  O  O23  1  0.62979581  0.70189576  0.20129824  1
  O  O24  1  0.77476423  0.78051148  0.60729379  1
  O  O25  1  0.00574725  0.22523577  0.27396079  1
  O  O26  1  0.22523577  0.21948852  0.10729379  1
  O  O27  1  0.99425275  0.21948852  0.05937321  1
  O  O28  1  0.21948852  0.99425275  0.94062679  1
  O  O29  1  0.99425275  0.77476423  0.77396079  1
  O  O30  1  0.78051148  0.77476423  0.39270621  1
  O  O31  1  0.00574725  0.78051148  0.55937321  1
  O  O32  1  0.78051148  0.00574725  0.44062679  1
  O  O33  1  0.21948852  0.22523577  0.89270621  1
  O  O34  1  0.22523577  0.00574725  0.72603921  1
  O  O35  1  0.77476423  0.99425275  0.22603921  1
  O  O36  1  0.56547826  0.75031691  0.49249260  1
  O  O37  1  0.18483865  0.43452174  0.15915960  1
  O  O38  1  0.43452174  0.24968309  0.99249260  1
  O  O39  1  0.81516135  0.24968309  0.17417440  1
  O  O40  1  0.24968309  0.81516135  0.82582560  1
  O  O41  1  0.81516135  0.56547826  0.65915960  1
  O  O42  1  0.75031691  0.56547826  0.50750740  1
  O  O43  1  0.18483865  0.75031691  0.67417440  1
  O  O44  1  0.75031691  0.18483865  0.32582560  1
  O  O45  1  0.24968309  0.43452174  0.00750740  1
  O  O46  1  0.43452174  0.18483865  0.84084040  1
  O  O47  1  0.56547826  0.81516135  0.34084040  1
  O  O48  1  0.76408822  0.76408822  0.00000000  1
  O  O49  1  0.00000000  0.23591178  0.66666700  1
  O  O50  1  0.23591178  0.23591178  0.50000000  1
  O  O51  1  0.23591178  0.00000000  0.33333300  1
  O  O52  1  1.00000000  0.76408822  0.16666700  1
  O  O53  1  0.76408822  1.00000000  0.83333300  1
loop_
_geom_bond_atom_site_label_1
_geom_bond_atom_site_label_2
_geom_bond_distance
_geom_bond_site_symmetry_2
Na0 O5 2.350251 1_555
Na0 O10 2.350251 1_555
Na0 O53 2.390861 1_545
Na0 O49 2.390861 1_655
Na1 O8 2.350245 1_555
Na1 O6 2.350251 1_555
Na1 O50 2.390861 1_555
Na1 O51 2.390869 1_555
Na2 O1 2.350251 1_555
Na2 O11 2.350251 1_555
Na2 O52 2.390861 1_455
Na2 O51 2.390861 1_565
Na3 O4 2.350245 1_555
Na3 O9 2.350251 1_555
Na3 O48 2.390861 1_556
Na3 O53 2.390869 1_555
Na4 O3 2.350245 1_555
Na4 O2 2.350251 1_555
Na4 O48 2.390861 1_555
Na4 O52 2.390869 1_555
Na5 O7 2.350245 1_555
Na5 O0 2.350251 1_555
Na5 O50 2.390861 1_555
Na5 O49 2.390869 1_555
B0 O29 1.476483 1_455
B0 O34 1.476483 1_565
B0 O43 1.478612 1_555
B0 O40 1.478612 1_555
B1 O32 1.476480 1_565
B1 O30 1.476483 1_555
B1 O36 1.478612 1_555
B1 O47 1.478623 1_555
B2 O35 1.476483 1_545
B2 O25 1.476483 1_655
B2 O44 1.478612 1_555
B2 O39 1.478612 1_555
B3 O28 1.476480 1_545
B3 O33 1.476483 1_555
B3 O38 1.478612 1_555
B3 O46 1.478623 1_555
B4 O27 1.476480 1_455
B4 O26 1.476483 1_555
B4 O45 1.478612 1_555
B4 O37 1.478623 1_555
B5 O31 1.476480 1_655
B5 O24 1.476483 1_555
B5 O42 1.478612 1_555
B5 O41 1.478623 1_555
O0 P0 1.539051 1_555
O0 Zn0 1.972427 1_555
O1 P1 1.539051 1_555
O1 Zn1 1.972427 1_555
O2 P2 1.539051 1_555
O2 Zn2 1.972427 1_555
O3 P3 1.539051 1_555
O3 Zn3 1.972427 1_554
O4 P4 1.539051 1_555
O4 Zn4 1.972427 1_556
O5 P5 1.539051 1_555
O5 Zn3 1.972427 1_555
O6 P6 1.539051 1_555
O6 Zn2 1.972427 1_555
O7 P7 1.539051 1_555
O7 Zn1 1.972427 1_555
O8 P8 1.539051 1_555
O8 Zn5 1.972427 1_555
O9 P9 1.539051 1_555
O9 Zn0 1.972427 1_555
O10 P10 1.539051 1_555
O10 Zn5 1.972427 1_555
O11 P11 1.539051 1_555
O11 Zn4 1.972427 1_555
O12 P0 1.540219 1_555
O12 Zn5 1.957186 1_565
O13 P1 1.540219 1_555
O13 Zn2 1.957186 1_555
O14 P2 1.540219 1_555
O14 Zn4 1.957186 1_545
O15 P3 1.540219 1_555
O15 Zn4 1.957180 1_545
O16 P4 1.540219 1_555
O16 Zn3 1.957180 1_455
O17 P5 1.540219 1_555
O17 Zn0 1.957186 1_555
O18 P6 1.540219 1_555
O18 Zn1 1.957186 1_655
O19 P7 1.540219 1_555
O19 Zn5 1.957180 1_565
O20 P8 1.540219 1_555
O20 Zn1 1.957180 1_655
O21 P9 1.540219 1_555
O21 Zn3 1.957186 1_455
O22 P10 1.540219 1_555
O22 Zn0 1.957186 1_555
O23 P11 1.540219 1_555
O23 Zn2 1.957186 1_555
O24 P0 1.551275 1_555
O25 P1 1.551275 1_555
O26 P2 1.551275 1_555
O27 P3 1.551275 1_555
O28 P4 1.551275 1_555
O29 P5 1.551275 1_555
O30 P6 1.551275 1_555
O31 P7 1.551275 1_555
O32 P8 1.551275 1_555
O33 P9 1.551275 1_555
O34 P10 1.551275 1_555
O35 P11 1.551275 1_555
O36 P0 1.571481 1_555
O37 P1 1.571481 1_555
O38 P2 1.571481 1_556
O39 P3 1.571481 1_555
O40 P4 1.571481 1_555
O41 P5 1.571481 1_555
O42 P6 1.571481 1_555
O43 P7 1.571481 1_555
O44 P8 1.571481 1_555
O45 P9 1.571481 1_554
O46 P10 1.571481 1_555
O47 P11 1.571481 1_555
