# generated using pymatgen
data_NiAgSe2
_symmetry_space_group_name_H-M   'P 1'
_cell_length_a   3.64129847
_cell_length_b   3.64129847
_cell_length_c   7.23260333
_cell_angle_alpha   75.42020397
_cell_angle_beta   75.42020397
_cell_angle_gamma   59.99999147
_symmetry_Int_Tables_number   1
_chemical_formula_structural   NiAgSe2
_chemical_formula_sum   'Ni1 Ag1 Se2'
_cell_volume   79.46382986
_cell_formula_units_Z   1
loop_
 _symmetry_equiv_pos_site_id
 _symmetry_equiv_pos_as_xyz
  1  'x, y, z'
loop_
 _atom_site_type_symbol
 _atom_site_label
 _atom_site_symmetry_multiplicity
 _atom_site_fract_x
 _atom_site_fract_y
 _atom_site_fract_z
 _atom_site_occupancy
  Ni  Ni0  1  0.99714100  0.99714100  0.00857700  1
  Ag  Ag0  1  0.14892800  0.14892800  0.55321600  1
  Se  Se0  1  0.27231900  0.27231900  0.18304300  1
  Se  Se1  1  0.72561200  0.72561200  0.82316400  1
loop_
_geom_bond_atom_site_label_1
_geom_bond_atom_site_label_2
_geom_bond_distance
_geom_bond_site_symmetry_2
Ni0 Se0 2.424336 1_655
Ni0 Se0 2.424336 1_565
Ni0 Se0 2.424336 1_665
Ni0 Se1 2.462940 1_564
Ni0 Se1 2.462940 1_654
Ni0 Se1 2.462941 1_554
Ag0 Se0 2.561717 1_555
Ag0 Se1 2.812398 1_545
Ag0 Se1 2.812398 1_455
Ag0 Se1 2.812398 1_445
