# generated using pymatgen
data_RbMg14C
_symmetry_space_group_name_H-M   'P 1'
_cell_length_a   6.65406277
_cell_length_b   6.25483208
_cell_length_c   10.38798917
_cell_angle_alpha   90.00000000
_cell_angle_beta   90.00000000
_cell_angle_gamma   118.03436593
_symmetry_Int_Tables_number   1
_chemical_formula_structural   RbMg14C
_chemical_formula_sum   'Rb1 Mg14 C1'
_cell_volume   381.61932440
_cell_formula_units_Z   1
loop_
 _symmetry_equiv_pos_site_id
 _symmetry_equiv_pos_as_xyz
  1  'x, y, z'
loop_
 _atom_site_type_symbol
 _atom_site_label
 _atom_site_symmetry_multiplicity
 _atom_site_fract_x
 _atom_site_fract_y
 _atom_site_fract_z
 _atom_site_occupancy
  Rb  Rb0  1  0.10963101  0.30481500  0.12500000  1
  Mg  Mg0  1  0.17171063  0.33585482  0.62500000  1
  Mg  Mg1  1  0.15247661  0.82623781  0.62500000  1
  Mg  Mg2  1  0.61087716  0.30483341  0.12500000  1
  Mg  Mg3  1  0.65031332  0.33064822  0.62500000  1
  Mg  Mg4  1  0.61087716  0.80604275  0.12500000  1
  Mg  Mg5  1  0.65031332  0.81966409  0.62500000  1
  Mg  Mg6  1  0.34012211  0.15824884  0.37679373  1
  Mg  Mg7  1  0.34012211  0.15824884  0.87320627  1
  Mg  Mg8  1  0.34012211  0.68187427  0.37679373  1
  Mg  Mg9  1  0.34012211  0.68187427  0.87320627  1
  Mg  Mg10  1  0.82503653  0.16251876  0.39920982  1
  Mg  Mg11  1  0.82503653  0.16251876  0.85079018  1
  Mg  Mg12  1  0.83829441  0.66914770  0.35894279  1
  Mg  Mg13  1  0.83829441  0.66914770  0.89105721  1
  C  C0  1  0.35665050  0.92832475  0.12500000  1
loop_
_geom_bond_atom_site_label_1
_geom_bond_atom_site_label_2
_geom_bond_distance
_geom_bond_site_symmetry_2
Mg0 Mg10 3.105995 1_455
Mg0 Mg11 3.105995 1_455
Mg0 Mg1 3.129456 1_545
Mg0 Mg1 3.129456 1_555
Mg0 Mg5 3.200087 1_555
Mg0 Mg3 3.200088 1_555
Mg0 Mg6 3.210614 1_555
Mg0 Mg7 3.210614 1_555
Mg0 Mg8 3.210620 1_555
Mg0 Mg9 3.210620 1_555
Mg0 Mg5 3.454224 1_445
Mg0 Mg3 3.454224 1_455
Mg1 Mg9 3.175238 1_555
Mg1 Mg8 3.175238 1_555
Mg1 Mg6 3.175244 1_565
Mg1 Mg7 3.175244 1_565
Mg1 Mg3 3.322299 1_455
Mg1 Mg5 3.322299 1_455
Mg1 Mg12 3.323204 1_455
Mg1 Mg13 3.323204 1_455
Mg1 Mg3 3.332159 1_565
Mg1 Mg5 3.332160 1_555
Mg2 Rb0 3.318794 1_655
Mg2 Rb0 3.335269 1_555
Mg3 Mg5 3.058712 1_555
Mg3 Mg6 3.158926 1_555
Mg3 Mg7 3.158926 1_555
Mg3 Mg5 3.196120 1_545
Mg4 Rb0 3.318793 1_665
Mg4 Rb0 3.335269 1_555
Mg5 Mg8 3.158927 1_555
Mg5 Mg9 3.158927 1_555
Mg6 Rb0 3.369844 1_555
Mg7 Rb0 3.369844 1_556
Mg8 Rb0 3.369850 1_555
Mg9 Rb0 3.369850 1_556
Mg10 Mg3 3.017991 1_555
Mg10 Mg5 3.017997 1_545
Mg10 Mg12 3.156226 1_555
Mg10 Mg12 3.156226 1_545
Mg10 Rb0 3.302702 1_655
Mg11 Mg3 3.017991 1_555
Mg11 Mg5 3.017997 1_545
Mg11 Mg13 3.156226 1_555
Mg11 Mg13 3.156226 1_545
Mg11 Rb0 3.302702 1_656
Mg12 Mg4 3.185425 1_555
Mg12 Mg2 3.185431 1_555
Mg12 Mg6 3.307729 1_665
Mg12 Mg8 3.307729 1_655
Mg12 Mg5 3.346113 1_555
Mg12 Mg3 3.346119 1_555
Mg12 Mg6 3.358143 1_555
Mg12 Mg8 3.358143 1_555
Mg13 Mg4 3.185425 1_556
Mg13 Mg2 3.185431 1_556
Mg13 Mg7 3.307729 1_665
Mg13 Mg9 3.307729 1_655
Mg13 Mg5 3.346113 1_555
Mg13 Mg3 3.346119 1_555
Mg13 Mg7 3.358143 1_555
Mg13 Mg9 3.358143 1_555
C0 Mg2 2.159369 1_565
C0 Mg4 2.159369 1_555
C0 Rb0 3.447552 1_555
C0 Rb0 3.447553 1_565
