# generated using pymatgen
data_Yb(MnSi)2
_symmetry_space_group_name_H-M   'P 1'
_cell_length_a   5.87024742
_cell_length_b   5.87024742
_cell_length_c   5.87024742
_cell_angle_alpha   140.89165237
_cell_angle_beta   140.89165237
_cell_angle_gamma   56.50192099
_symmetry_Int_Tables_number   1
_chemical_formula_structural   Yb(MnSi)2
_chemical_formula_sum   'Yb1 Mn2 Si2'
_cell_volume   79.84606994
_cell_formula_units_Z   1
loop_
 _symmetry_equiv_pos_site_id
 _symmetry_equiv_pos_as_xyz
  1  'x, y, z'
loop_
 _atom_site_type_symbol
 _atom_site_label
 _atom_site_symmetry_multiplicity
 _atom_site_fract_x
 _atom_site_fract_y
 _atom_site_fract_z
 _atom_site_occupancy
  Yb  Yb0  1  0.00000000  0.00000000  0.00000000  1
  Mn  Mn0  1  0.75000000  0.25000000  0.50000000  1
  Mn  Mn1  1  0.25000000  0.75000000  0.50000000  1
  Si  Si0  1  0.62326300  0.62326300  0.00000000  1
  Si  Si1  1  0.37673700  0.37673700  0.00000000  1
loop_
_geom_bond_atom_site_label_1
_geom_bond_atom_site_label_2
_geom_bond_distance
_geom_bond_site_symmetry_2
Mn0 Si1 2.361833 1_656
Mn0 Si1 2.361833 1_555
Mn0 Si0 2.361833 1_545
Mn0 Si0 2.361833 1_556
Mn0 Yb0 3.247321 1_655
Mn0 Yb0 3.247321 1_666
Mn0 Yb0 3.247321 1_656
Mn0 Yb0 3.247321 1_555
Mn1 Si1 2.361833 1_566
Mn1 Si0 2.361833 1_556
Mn1 Si1 2.361833 1_555
Mn1 Si0 2.361833 1_455
Mn1 Yb0 3.247321 1_565
Mn1 Yb0 3.247321 1_666
Mn1 Yb0 3.247321 1_555
Mn1 Yb0 3.247321 1_566
Si0 Si1 2.549572 1_555
Si0 Yb0 3.057064 1_554
Si0 Yb0 3.057064 1_655
Si0 Yb0 3.057064 1_565
Si0 Yb0 3.057064 1_666
Si1 Yb0 3.057064 1_554
Si1 Yb0 3.057064 1_655
Si1 Yb0 3.057064 1_565
Si1 Yb0 3.057064 1_666
