# generated using pymatgen
data_Ba2MnTeSe2
_symmetry_space_group_name_H-M   'P 1'
_cell_length_a   4.67105700
_cell_length_b   9.35654900
_cell_length_c   18.24983700
_cell_angle_alpha   90.00000000
_cell_angle_beta   90.00000000
_cell_angle_gamma   90.00000000
_symmetry_Int_Tables_number   1
_chemical_formula_structural   Ba2MnTeSe2
_chemical_formula_sum   'Ba8 Mn4 Te4 Se8'
_cell_volume   797.60864616
_cell_formula_units_Z   4
loop_
 _symmetry_equiv_pos_site_id
 _symmetry_equiv_pos_as_xyz
  1  'x, y, z'
loop_
 _atom_site_type_symbol
 _atom_site_label
 _atom_site_symmetry_multiplicity
 _atom_site_fract_x
 _atom_site_fract_y
 _atom_site_fract_z
 _atom_site_occupancy
  Ba  Ba0  1  0.25000000  0.27167400  0.54291700  1
  Ba  Ba1  1  0.25000000  0.77167400  0.95708300  1
  Ba  Ba2  1  0.75000000  0.72832600  0.45708300  1
  Ba  Ba3  1  0.75000000  0.22832600  0.04291700  1
  Ba  Ba4  1  0.25000000  0.41472500  0.28725200  1
  Ba  Ba5  1  0.25000000  0.91472500  0.21274800  1
  Ba  Ba6  1  0.75000000  0.58527500  0.71274800  1
  Ba  Ba7  1  0.75000000  0.08527500  0.78725200  1
  Mn  Mn0  1  0.25000000  0.36535600  0.86387700  1
  Mn  Mn1  1  0.25000000  0.86535600  0.63612300  1
  Mn  Mn2  1  0.75000000  0.63464400  0.13612300  1
  Mn  Mn3  1  0.75000000  0.13464400  0.36387700  1
  Te  Te0  1  0.25000000  0.99627000  0.40162600  1
  Te  Te1  1  0.25000000  0.49627000  0.09837400  1
  Te  Te2  1  0.75000000  0.00373000  0.59837400  1
  Te  Te3  1  0.75000000  0.50373000  0.90162600  1
  Se  Se0  1  0.25000000  0.12490600  0.92664300  1
  Se  Se1  1  0.25000000  0.62490600  0.57335700  1
  Se  Se2  1  0.75000000  0.87509400  0.07335700  1
  Se  Se3  1  0.75000000  0.37509400  0.42664300  1
  Se  Se4  1  0.25000000  0.32148000  0.72843400  1
  Se  Se5  1  0.25000000  0.82148000  0.77156600  1
  Se  Se6  1  0.75000000  0.67852000  0.27156600  1
  Se  Se7  1  0.75000000  0.17852000  0.22843400  1
loop_
_geom_bond_atom_site_label_1
_geom_bond_atom_site_label_2
_geom_bond_distance
_geom_bond_site_symmetry_2
Ba0 Se3 3.300584 1_455
Ba0 Se3 3.300584 1_555
Ba0 Se1 3.351395 1_555
Ba0 Se4 3.417576 1_555
Ba0 Te2 3.572703 1_455
Ba0 Te2 3.572703 1_555
Ba0 Te0 3.645396 1_545
Ba1 Se2 3.300584 1_456
Ba1 Se2 3.300584 1_556
Ba1 Se0 3.351395 1_565
Ba1 Se5 3.417576 1_555
Ba1 Te3 3.572703 1_455
Ba1 Te3 3.572703 1_555
Ba1 Te1 3.645396 1_556
Ba2 Se1 3.300584 1_655
Ba2 Se1 3.300584 1_555
Ba2 Se3 3.351395 1_555
Ba2 Se6 3.417576 1_555
Ba2 Te0 3.572703 1_555
Ba2 Te0 3.572703 1_655
Ba2 Te2 3.645396 1_565
Ba3 Se0 3.300584 1_654
Ba3 Se0 3.300584 1_554
Ba3 Se2 3.351395 1_545
Ba3 Se7 3.417576 1_555
Ba3 Te1 3.572703 1_655
Ba3 Te1 3.572703 1_555
Ba3 Te3 3.645396 1_554
Ba4 Se7 3.389882 1_555
Ba4 Se7 3.389882 1_455
Ba4 Se6 3.410089 1_555
Ba4 Se6 3.410089 1_455
Ba4 Se3 3.473245 1_455
Ba4 Se3 3.473245 1_555
Ba4 Te1 3.530424 1_555
Ba5 Se6 3.389882 1_555
Ba5 Se6 3.389882 1_455
Ba5 Se7 3.410089 1_565
Ba5 Se7 3.410089 1_465
Ba5 Se2 3.473245 1_555
Ba5 Se2 3.473245 1_455
Ba5 Te0 3.530424 1_555
Ba6 Se5 3.389882 1_555
Ba6 Se5 3.389882 1_655
Ba6 Se4 3.410089 1_555
Ba6 Se4 3.410089 1_655
Ba6 Se1 3.473245 1_655
Ba6 Se1 3.473245 1_555
Ba6 Te3 3.530424 1_555
Ba7 Se4 3.389882 1_655
Ba7 Se4 3.389882 1_555
Ba7 Se5 3.410089 1_545
Ba7 Se5 3.410089 1_645
Ba7 Se0 3.473245 1_555
Ba7 Se0 3.473245 1_655
Ba7 Te2 3.530424 1_555
Mn0 Se4 2.505672 1_555
Mn0 Se0 2.524603 1_555
Mn0 Te3 2.757816 1_555
Mn0 Te3 2.757816 1_455
Mn1 Se5 2.505672 1_555
Mn1 Se1 2.524603 1_555
Mn1 Te2 2.757816 1_465
Mn1 Te2 2.757816 1_565
Mn2 Se6 2.505672 1_555
Mn2 Se2 2.524603 1_555
Mn2 Te1 2.757816 1_555
Mn2 Te1 2.757816 1_655
Mn3 Se7 2.505672 1_555
Mn3 Se3 2.524603 1_555
Mn3 Te0 2.757816 1_645
Mn3 Te0 2.757816 1_545
