# generated using pymatgen
data_Mg14AlMo
_symmetry_space_group_name_H-M   'P 1'
_cell_length_a   6.23877983
_cell_length_b   6.16234463
_cell_length_c   10.14634662
_cell_angle_alpha   90.00000000
_cell_angle_beta   90.00000000
_cell_angle_gamma   119.59554529
_symmetry_Int_Tables_number   1
_chemical_formula_structural   Mg14AlMo
_chemical_formula_sum   'Mg14 Al1 Mo1'
_cell_volume   339.18885243
_cell_formula_units_Z   1
loop_
 _symmetry_equiv_pos_site_id
 _symmetry_equiv_pos_as_xyz
  1  'x, y, z'
loop_
 _atom_site_type_symbol
 _atom_site_label
 _atom_site_symmetry_multiplicity
 _atom_site_fract_x
 _atom_site_fract_y
 _atom_site_fract_z
 _atom_site_occupancy
  Mg  Mg0  1  0.16766098  0.33382999  0.62500000  1
  Mg  Mg1  1  0.16646866  0.83323383  0.62500000  1
  Mg  Mg2  1  0.66805376  0.33458037  0.12500000  1
  Mg  Mg3  1  0.66512733  0.33336749  0.62500000  1
  Mg  Mg4  1  0.66805376  0.83347240  0.12500000  1
  Mg  Mg5  1  0.66512733  0.83175884  0.62500000  1
  Mg  Mg6  1  0.32782912  0.15903269  0.36236636  1
  Mg  Mg7  1  0.32782912  0.15903269  0.88763364  1
  Mg  Mg8  1  0.32782912  0.66879743  0.36236636  1
  Mg  Mg9  1  0.32782912  0.66879743  0.88763364  1
  Mg  Mg10  1  0.83675469  0.16837785  0.37412900  1
  Mg  Mg11  1  0.83675469  0.16837785  0.87587100  1
  Mg  Mg12  1  0.84423039  0.67211569  0.36723346  1
  Mg  Mg13  1  0.84423039  0.67211569  0.88276654  1
  Al  Al0  1  0.16321221  0.33160561  0.12500000  1
  Mo  Mo0  1  0.16300933  0.83150417  0.12500000  1
loop_
_geom_bond_atom_site_label_1
_geom_bond_atom_site_label_2
_geom_bond_distance
_geom_bond_site_symmetry_2
Mg0 Mg1 3.081179 1_545
Mg0 Mg1 3.081179 1_555
Mg0 Mg5 3.104991 1_555
Mg0 Mg3 3.104992 1_555
Mg0 Mg11 3.114739 1_455
Mg0 Mg10 3.114739 1_455
Mg0 Mg5 3.133790 1_445
Mg0 Mg3 3.133790 1_455
Mg0 Mg6 3.212937 1_555
Mg0 Mg7 3.212937 1_555
Mg0 Mg8 3.212943 1_555
Mg0 Mg9 3.212943 1_555
Mg1 Mg3 3.115520 1_565
Mg1 Mg5 3.115521 1_555
Mg1 Mg3 3.123279 1_455
Mg1 Mg5 3.123279 1_455
Mg1 Mg13 3.145801 1_455
Mg1 Mg12 3.145801 1_455
Mg1 Mg8 3.185725 1_555
Mg1 Mg9 3.185725 1_555
Mg1 Mg6 3.185730 1_565
Mg1 Mg7 3.185730 1_565
Mg2 Mg7 3.034465 1_554
Mg2 Mg6 3.034465 1_555
Mg2 Mg4 3.074345 1_555
Mg2 Mg4 3.088000 1_545
Mg2 Mo0 3.093927 1_655
Mg2 Mo0 3.144888 1_545
Mg3 Mg5 3.071259 1_555
Mg3 Mg5 3.091085 1_545
Mg3 Mg7 3.232700 1_555
Mg3 Mg6 3.232700 1_555
Mg4 Mg9 3.034465 1_554
Mg4 Mg8 3.034465 1_555
Mg4 Mo0 3.093927 1_655
Mg4 Mo0 3.144889 1_555
Mg5 Mg9 3.232700 1_555
Mg5 Mg8 3.232700 1_555
Mg6 Mo0 2.980180 1_545
Mg6 Mg8 3.020999 1_545
Mg6 Mg8 3.141346 1_555
Mg7 Mo0 2.980180 1_546
Mg7 Mg9 3.020999 1_545
Mg7 Mg9 3.141346 1_555
Mg8 Mo0 2.980174 1_555
Mg9 Mo0 2.980174 1_556
Mg10 Mg12 3.082233 1_555
Mg10 Mg12 3.082233 1_545
Mg10 Mg8 3.094854 1_655
Mg10 Mg6 3.094854 1_655
Mg10 Mg2 3.100157 1_555
Mg10 Mg4 3.100163 1_545
Mg10 Mg3 3.120051 1_555
Mg10 Mg5 3.120057 1_545
Mg10 Mg8 3.149294 1_545
Mg10 Mg6 3.149294 1_555
Mg11 Mg13 3.082233 1_555
Mg11 Mg13 3.082233 1_545
Mg11 Mg9 3.094854 1_655
Mg11 Mg7 3.094854 1_655
Mg11 Mg2 3.100157 1_556
Mg11 Mg4 3.100163 1_546
Mg11 Mg3 3.120051 1_555
Mg11 Mg5 3.120057 1_545
Mg11 Mg9 3.149294 1_545
Mg11 Mg7 3.149294 1_555
Mg12 Mo0 3.005205 1_655
Mg12 Mg6 3.027620 1_665
Mg12 Mg8 3.027620 1_655
Mg12 Mg4 3.052376 1_555
Mg12 Mg2 3.052382 1_555
Mg12 Mg5 3.184715 1_555
Mg12 Mg3 3.184721 1_555
Mg12 Mg6 3.212044 1_555
Mg12 Mg8 3.212044 1_555
Mg13 Mo0 3.005205 1_656
Mg13 Mg7 3.027620 1_665
Mg13 Mg9 3.027620 1_655
Mg13 Mg4 3.052376 1_556
Mg13 Mg2 3.052382 1_556
Mg13 Mg5 3.184715 1_555
Mg13 Mg3 3.184721 1_555
Mg13 Mg7 3.212044 1_555
Mg13 Mg9 3.212044 1_555
Al0 Mg6 3.010793 1_555
Al0 Mg7 3.010793 1_554
Al0 Mg9 3.010799 1_554
Al0 Mg8 3.010799 1_555
Al0 Mo0 3.081173 1_545
Al0 Mo0 3.081173 1_555
Al0 Mg11 3.086401 1_454
Al0 Mg10 3.086401 1_455
Al0 Mg4 3.098279 1_445
Al0 Mg2 3.098279 1_455
Al0 Mg4 3.140582 1_555
Al0 Mg2 3.140582 1_555
