# generated using pymatgen
data_Ba4SiP4
_symmetry_space_group_name_H-M   'P 1'
_cell_length_a   13.12533982
_cell_length_b   13.12533982
_cell_length_c   13.12533982
_cell_angle_alpha   90.00000000
_cell_angle_beta   90.00000000
_cell_angle_gamma   90.00000000
_symmetry_Int_Tables_number   1
_chemical_formula_structural   Ba4SiP4
_chemical_formula_sum   'Ba32 Si8 P32'
_cell_volume   2261.16195059
_cell_formula_units_Z   8
loop_
 _symmetry_equiv_pos_site_id
 _symmetry_equiv_pos_as_xyz
  1  'x, y, z'
loop_
 _atom_site_type_symbol
 _atom_site_label
 _atom_site_symmetry_multiplicity
 _atom_site_fract_x
 _atom_site_fract_y
 _atom_site_fract_z
 _atom_site_occupancy
  Ba  Ba0  1  0.90689924  0.86682380  0.64613992  1
  Ba  Ba1  1  0.90689924  0.13317620  0.35386008  1
  Ba  Ba2  1  0.86682380  0.64613992  0.90689924  1
  Ba  Ba3  1  0.13317620  0.64613992  0.09310076  1
  Ba  Ba4  1  0.64613992  0.90689924  0.86682380  1
  Ba  Ba5  1  0.35386008  0.09310076  0.86682380  1
  Ba  Ba6  1  0.59310076  0.85386008  0.36682380  1
  Ba  Ba7  1  0.59310076  0.14613992  0.63317620  1
  Ba  Ba8  1  0.40689924  0.85386008  0.63317620  1
  Ba  Ba9  1  0.14613992  0.63317620  0.59310076  1
  Ba  Ba10  1  0.63317620  0.40689924  0.85386008  1
  Ba  Ba11  1  0.63317620  0.59310076  0.14613992  1
  Ba  Ba12  1  0.85386008  0.36682380  0.59310076  1
  Ba  Ba13  1  0.36682380  0.59310076  0.85386008  1
  Ba  Ba14  1  0.85386008  0.63317620  0.40689924  1
  Ba  Ba15  1  0.14613992  0.36682380  0.40689924  1
  Ba  Ba16  1  0.36682380  0.40689924  0.14613992  1
  Ba  Ba17  1  0.35386008  0.90689924  0.13317620  1
  Ba  Ba18  1  0.64613992  0.09310076  0.13317620  1
  Ba  Ba19  1  0.86682380  0.35386008  0.09310076  1
  Ba  Ba20  1  0.13317620  0.35386008  0.90689924  1
  Ba  Ba21  1  0.09310076  0.13317620  0.64613992  1
  Ba  Ba22  1  0.09310076  0.86682380  0.35386008  1
  Ba  Ba23  1  0.40689924  0.14613992  0.36682380  1
  Ba  Ba24  1  0.14619649  0.14619649  0.14619649  1
  Ba  Ba25  1  0.35380351  0.64619649  0.35380351  1
  Ba  Ba26  1  0.64619649  0.35380351  0.35380351  1
  Ba  Ba27  1  0.35380351  0.35380351  0.64619649  1
  Ba  Ba28  1  0.14619649  0.85380351  0.85380351  1
  Ba  Ba29  1  0.85380351  0.85380351  0.14619649  1
  Ba  Ba30  1  0.85380351  0.14619649  0.85380351  1
  Ba  Ba31  1  0.64619649  0.64619649  0.64619649  1
  Si  Si0  1  0.50000000  0.75000000  -0.00000000  1
  Si  Si1  1  0.50000000  0.25000000  -0.00000000  1
  Si  Si2  1  -0.00000000  0.50000000  0.25000000  1
  Si  Si3  1  -0.00000000  0.50000000  0.75000000  1
  Si  Si4  1  0.25000000  -0.00000000  0.50000000  1
  Si  Si5  1  0.50000000  0.50000000  0.50000000  1
  Si  Si6  1  -0.00000000  -0.00000000  -0.00000000  1
  Si  Si7  1  0.75000000  -0.00000000  0.50000000  1
  P  P0  1  0.89970539  0.39189043  0.34558159  1
  P  P1  1  0.10810957  0.60029461  0.84558159  1
  P  P2  1  0.60029461  0.15441841  0.89189043  1
  P  P3  1  0.60029461  0.84558159  0.10810957  1
  P  P4  1  0.89189043  0.39970539  0.84558159  1
  P  P5  1  0.39970539  0.84558159  0.89189043  1
  P  P6  1  0.89189043  0.60029461  0.15441841  1
  P  P7  1  0.10810957  0.39970539  0.15441841  1
  P  P8  1  0.39970539  0.15441841  0.10810957  1
  P  P9  1  0.84558159  0.10810957  0.60029461  1
  P  P10  1  0.60810957  0.34558159  0.10029461  1
  P  P11  1  0.15441841  0.89189043  0.60029461  1
  P  P12  1  0.10029461  0.39189043  0.65441841  1
  P  P13  1  0.34558159  0.10029461  0.60810957  1
  P  P14  1  0.34558159  0.89970539  0.39189043  1
  P  P15  1  0.15441841  0.10810957  0.39970539  1
  P  P16  1  0.89904042  0.89904042  0.89904042  1
  P  P17  1  0.60095958  0.39904042  0.60095958  1
  P  P18  1  0.39904042  0.60095958  0.60095958  1
  P  P19  1  0.60095958  0.60095958  0.39904042  1
  P  P20  1  0.89904042  0.10095958  0.10095958  1
  P  P21  1  0.10095958  0.10095958  0.89904042  1
  P  P22  1  0.10095958  0.89904042  0.10095958  1
  P  P23  1  0.39904042  0.39904042  0.39904042  1
  P  P24  1  0.84558159  0.89189043  0.39970539  1
  P  P25  1  0.39189043  0.34558159  0.89970539  1
  P  P26  1  0.60810957  0.65441841  0.89970539  1
  P  P27  1  0.10029461  0.60810957  0.34558159  1
  P  P28  1  0.89970539  0.60810957  0.65441841  1
  P  P29  1  0.65441841  0.10029461  0.39189043  1
  P  P30  1  0.65441841  0.89970539  0.60810957  1
  P  P31  1  0.39189043  0.65441841  0.10029461  1
loop_
_geom_bond_atom_site_label_1
_geom_bond_atom_site_label_2
_geom_bond_distance
_geom_bond_site_symmetry_2
Ba0 Si7 3.312950 1_565
Ba0 P11 3.320370 1_655
Ba0 P9 3.322564 1_565
Ba0 P16 3.347819 1_555
Ba0 P24 3.349359 1_555
Ba0 P30 3.378955 1_555
Ba0 P28 3.398762 1_555
Ba1 Si7 3.312950 1_555
Ba1 P15 3.320370 1_655
Ba1 P24 3.322564 1_545
Ba1 P20 3.347819 1_555
Ba1 P9 3.349359 1_555
Ba1 P29 3.378955 1_555
Ba1 P0 3.398762 1_555
Ba2 Si3 3.312950 1_655
Ba2 P6 3.320370 1_556
Ba2 P1 3.322564 1_655
Ba2 P16 3.347819 1_555
Ba2 P4 3.349359 1_555
Ba2 P28 3.378955 1_555
Ba2 P26 3.398762 1_555
Ba3 Si2 3.312950 1_555
Ba3 P1 3.320370 1_554
Ba3 P6 3.322564 1_455
Ba3 P22 3.347819 1_555
Ba3 P7 3.349359 1_555
Ba3 P27 3.378955 1_555
Ba3 P31 3.398762 1_555
Ba4 Si0 3.312950 1_556
Ba4 P2 3.320370 1_565
Ba4 P3 3.322564 1_556
Ba4 P16 3.347819 1_555
Ba4 P5 3.349359 1_555
Ba4 P26 3.378955 1_555
Ba4 P30 3.398762 1_555
Ba5 Si1 3.312950 1_556
Ba5 P5 3.320370 1_545
Ba5 P8 3.322564 1_556
Ba5 P21 3.347819 1_555
Ba5 P2 3.349359 1_555
Ba5 P25 3.378955 1_555
Ba5 P13 3.398762 1_555
Ba6 Si7 3.312950 1_565
Ba6 P14 3.320370 1_555
Ba6 P30 3.322564 1_555
Ba6 P19 3.347819 1_555
Ba6 P29 3.349359 1_565
Ba6 P24 3.378955 1_555
Ba6 P3 3.398762 1_555
Ba7 Si7 3.312950 1_555
Ba7 P13 3.320370 1_555
Ba7 P29 3.322564 1_555
Ba7 P17 3.347819 1_555
Ba7 P30 3.349359 1_545
Ba7 P9 3.378955 1_555
Ba7 P2 3.398762 1_555
Ba8 Si4 3.312950 1_565
Ba8 P30 3.320370 1_555
Ba8 P14 3.322564 1_555
Ba8 P18 3.347819 1_555
Ba8 P13 3.349359 1_565
Ba8 P11 3.378955 1_555
Ba8 P5 3.398762 1_555
Ba9 Si3 3.312950 1_555
Ba9 P27 3.320370 1_555
Ba9 P12 3.322564 1_555
Ba9 P18 3.347819 1_555
Ba9 P28 3.349359 1_455
Ba9 P1 3.378955 1_555
Ba9 P11 3.398762 1_555
Ba10 Si1 3.312950 1_556
Ba10 P26 3.320370 1_555
Ba10 P25 3.322564 1_555
Ba10 P17 3.347819 1_555
Ba10 P10 3.349359 1_556
Ba10 P2 3.378955 1_555
Ba10 P4 3.398762 1_555
Ba11 Si0 3.312950 1_555
Ba11 P10 3.320370 1_555
Ba11 P31 3.322564 1_555
Ba11 P19 3.347819 1_555
Ba11 P26 3.349359 1_554
Ba11 P3 3.378955 1_555
Ba11 P6 3.398762 1_555
Ba12 Si3 3.312950 1_655
Ba12 P0 3.320370 1_555
Ba12 P28 3.322564 1_555
Ba12 P17 3.347819 1_555
Ba12 P12 3.349359 1_655
Ba12 P4 3.378955 1_555
Ba12 P9 3.398762 1_555
Ba13 Si0 3.312950 1_556
Ba13 P25 3.320370 1_555
Ba13 P26 3.322564 1_555
Ba13 P18 3.347819 1_555
Ba13 P31 3.349359 1_556
Ba13 P5 3.378955 1_555
Ba13 P1 3.398762 1_555
Ba14 Si2 3.312950 1_655
Ba14 P28 3.320370 1_555
Ba14 P0 3.322564 1_555
Ba14 P19 3.347819 1_555
Ba14 P27 3.349359 1_655
Ba14 P6 3.378955 1_555
Ba14 P24 3.398762 1_555
Ba15 Si2 3.312950 1_555
Ba15 P12 3.320370 1_555
Ba15 P27 3.322564 1_555
Ba15 P23 3.347819 1_555
Ba15 P0 3.349359 1_455
Ba15 P7 3.378955 1_555
Ba15 P15 3.398762 1_555
Ba16 Si1 3.312950 1_555
Ba16 P31 3.320370 1_555
Ba16 P10 3.322564 1_555
Ba16 P23 3.347819 1_555
Ba16 P25 3.349359 1_554
Ba16 P8 3.378955 1_555
Ba16 P7 3.398762 1_555
Ba17 Si0 3.312950 1_555
Ba17 P8 3.320370 1_565
Ba17 P5 3.322564 1_554
Ba17 P22 3.347819 1_555
Ba17 P3 3.349359 1_555
Ba17 P31 3.378955 1_555
Ba17 P14 3.398762 1_555
Ba18 Si1 3.312950 1_555
Ba18 P3 3.320370 1_545
Ba18 P2 3.322564 1_554
Ba18 P20 3.347819 1_555
Ba18 P8 3.349359 1_555
Ba18 P10 3.378955 1_555
Ba18 P29 3.398762 1_555
Ba19 Si2 3.312950 1_655
Ba19 P4 3.320370 1_554
Ba19 P7 3.322564 1_655
Ba19 P20 3.347819 1_555
Ba19 P6 3.349359 1_555
Ba19 P0 3.378955 1_555
Ba19 P10 3.398762 1_555
Ba20 Si3 3.312950 1_555
Ba20 P7 3.320370 1_556
Ba20 P4 3.322564 1_455
Ba20 P21 3.347819 1_555
Ba20 P1 3.349359 1_555
Ba20 P12 3.378955 1_555
Ba20 P25 3.398762 1_555
Ba21 Si4 3.312950 1_555
Ba21 P9 3.320370 1_455
Ba21 P11 3.322564 1_545
Ba21 P21 3.347819 1_555
Ba21 P15 3.349359 1_555
Ba21 P13 3.378955 1_555
Ba21 P12 3.398762 1_555
Ba22 Si4 3.312950 1_565
Ba22 P24 3.320370 1_455
Ba22 P15 3.322564 1_565
Ba22 P22 3.347819 1_555
Ba22 P11 3.349359 1_555
Ba22 P14 3.378955 1_555
Ba22 P27 3.398762 1_555
Ba23 Si4 3.312950 1_555
Ba23 P29 3.320370 1_555
Ba23 P13 3.322564 1_555
Ba23 P23 3.347819 1_555
Ba23 P14 3.349359 1_545
Ba23 P15 3.378955 1_555
Ba23 P8 3.398762 1_555
Ba24 Si6 3.323595 1_555
Ba24 P20 3.350920 1_455
Ba24 P22 3.350920 1_545
Ba24 P21 3.350920 1_554
Ba24 P7 3.366464 1_555
Ba24 P8 3.366464 1_555
Ba24 P15 3.366464 1_555
Ba25 Si5 3.323595 1_555
Ba25 P23 3.350920 1_555
Ba25 P19 3.350920 1_555
Ba25 P18 3.350920 1_555
Ba25 P31 3.366464 1_555
Ba25 P27 3.366464 1_555
Ba25 P14 3.366464 1_555
Ba26 Si5 3.323595 1_555
Ba26 P23 3.350920 1_555
Ba26 P19 3.350920 1_555
Ba26 P17 3.350920 1_555
Ba26 P29 3.366464 1_555
Ba26 P10 3.366464 1_555
Ba26 P0 3.366464 1_555
Ba27 Si5 3.323595 1_555
Ba27 P23 3.350920 1_555
Ba27 P17 3.350920 1_555
Ba27 P18 3.350920 1_555
Ba27 P12 3.366464 1_555
Ba27 P13 3.366464 1_555
Ba27 P25 3.366464 1_555
Ba28 Si6 3.323595 1_566
Ba28 P16 3.350920 1_455
Ba28 P21 3.350920 1_565
Ba28 P22 3.350920 1_556
Ba28 P5 3.366464 1_555
Ba28 P11 3.366464 1_555
Ba28 P1 3.366464 1_555
Ba29 Si6 3.323595 1_665
Ba29 P16 3.350920 1_554
Ba29 P20 3.350920 1_565
Ba29 P22 3.350920 1_655
Ba29 P24 3.366464 1_555
Ba29 P3 3.366464 1_555
Ba29 P6 3.366464 1_555
Ba30 Si6 3.323595 1_656
Ba30 P21 3.350920 1_655
Ba30 P16 3.350920 1_545
Ba30 P20 3.350920 1_556
Ba30 P4 3.366464 1_555
Ba30 P9 3.366464 1_555
Ba30 P2 3.366464 1_555
Ba31 Si5 3.323595 1_555
Ba31 P17 3.350920 1_555
Ba31 P18 3.350920 1_555
Ba31 P19 3.350920 1_555
Ba31 P26 3.366464 1_555
Ba31 P28 3.366464 1_555
Ba31 P30 3.366464 1_555
P0 Si2 2.306572 1_655
P1 Si3 2.306572 1_555
P2 Si1 2.306572 1_556
P3 Si0 2.306572 1_555
P4 Si3 2.306572 1_655
P5 Si0 2.306572 1_556
P6 Si2 2.306572 1_655
P7 Si2 2.306572 1_555
P8 Si1 2.306572 1_555
P9 Si7 2.306572 1_555
P10 Si1 2.306572 1_555
P11 Si4 2.306572 1_565
P12 Si3 2.306572 1_555
P13 Si4 2.306572 1_555
P14 Si4 2.306572 1_565
P15 Si4 2.306572 1_555
P16 Si6 2.295190 1_666
P17 Si5 2.295190 1_555
P18 Si5 2.295190 1_555
P19 Si5 2.295190 1_555
P20 Si6 2.295190 1_655
P21 Si6 2.295190 1_556
P22 Si6 2.295190 1_565
P23 Si5 2.295190 1_555
P24 Si7 2.306572 1_565
P25 Si1 2.306572 1_556
P26 Si0 2.306572 1_556
P27 Si2 2.306572 1_555
P28 Si3 2.306572 1_655
P29 Si7 2.306572 1_555
P30 Si7 2.306572 1_565
P31 Si0 2.306572 1_555
