# generated using pymatgen
data_Hg4H9C4S3O14F9
_symmetry_space_group_name_H-M   'P 1'
_cell_length_a   7.74096700
_cell_length_b   25.42022600
_cell_length_c   14.44778906
_cell_angle_alpha   90.00000000
_cell_angle_beta   117.41091112
_cell_angle_gamma   90.00000000
_symmetry_Int_Tables_number   1
_chemical_formula_structural   Hg4H9C4S3O14F9
_chemical_formula_sum   'Hg16 H36 C16 S12 O56 F36'
_cell_volume   2523.80503425
_cell_formula_units_Z   4
loop_
 _symmetry_equiv_pos_site_id
 _symmetry_equiv_pos_as_xyz
  1  'x, y, z'
loop_
 _atom_site_type_symbol
 _atom_site_label
 _atom_site_symmetry_multiplicity
 _atom_site_fract_x
 _atom_site_fract_y
 _atom_site_fract_z
 _atom_site_occupancy
  Hg  Hg0  1  0.74374900  0.26592100  0.69825300  1
  Hg  Hg1  1  0.74374900  0.23407900  0.19825300  1
  Hg  Hg2  1  0.25625100  0.73407900  0.30174700  1
  Hg  Hg3  1  0.25625100  0.76592100  0.80174700  1
  Hg  Hg4  1  0.73792500  0.24962900  0.94047800  1
  Hg  Hg5  1  0.73792500  0.25037100  0.44047800  1
  Hg  Hg6  1  0.26207500  0.75037100  0.05952200  1
  Hg  Hg7  1  0.26207500  0.74962900  0.55952200  1
  Hg  Hg8  1  0.49754000  0.34825600  0.77223200  1
  Hg  Hg9  1  0.49754000  0.15174400  0.27223200  1
  Hg  Hg10  1  0.50246000  0.65174400  0.22776800  1
  Hg  Hg11  1  0.50246000  0.84825600  0.72776800  1
  Hg  Hg12  1  0.34459800  0.21869300  0.70872100  1
  Hg  Hg13  1  0.34459800  0.28130700  0.20872100  1
  Hg  Hg14  1  0.65540200  0.78130700  0.29127900  1
  Hg  Hg15  1  0.65540200  0.71869300  0.79127900  1
  H  H0  1  0.96407200  0.29847900  0.61969100  1
  H  H1  1  0.96407200  0.20152100  0.11969100  1
  H  H2  1  0.03592800  0.70152100  0.38030900  1
  H  H3  1  0.03592800  0.79847900  0.88030900  1
  H  H4  1  0.34200000  0.44258400  0.77273800  1
  H  H5  1  0.34200000  0.05741600  0.27273800  1
  H  H6  1  0.65800000  0.55741600  0.22726200  1
  H  H7  1  0.65800000  0.94258400  0.72726200  1
  H  H8  1  0.56941100  0.45345400  0.79604900  1
  H  H9  1  0.56941100  0.04654600  0.29604900  1
  H  H10  1  0.43058900  0.54654600  0.20395100  1
  H  H11  1  0.43058900  0.95345400  0.70395100  1
  H  H12  1  0.99296900  0.16710200  0.62226100  1
  H  H13  1  0.99296900  0.33289800  0.12226100  1
  H  H14  1  0.00703100  0.83289800  0.37773900  1
  H  H15  1  0.00703100  0.66710200  0.87773900  1
  H  H16  1  0.13158100  0.13123400  0.59236900  1
  H  H17  1  0.13158100  0.36876600  0.09236900  1
  H  H18  1  0.86841900  0.86876600  0.40763100  1
  H  H19  1  0.86841900  0.63123400  0.90763100  1
  H  H20  1  0.20408600  0.09002500  0.48295100  1
  H  H21  1  0.20408600  0.40997500  0.98295100  1
  H  H22  1  0.79591400  0.90997500  0.51704900  1
  H  H23  1  0.79591400  0.59002500  0.01704900  1
  H  H24  1  0.99856000  0.06771500  0.46341000  1
  H  H25  1  0.99856000  0.43228500  0.96341000  1
  H  H26  1  0.00144000  0.93228500  0.53659000  1
  H  H27  1  0.00144000  0.56771500  0.03659000  1
  H  H28  1  0.20853900  0.01737600  0.60318100  1
  H  H29  1  0.20853900  0.48262400  0.10318100  1
  H  H30  1  0.79146100  0.98262400  0.39681900  1
  H  H31  1  0.79146100  0.51737600  0.89681900  1
  H  H32  1  0.14474800  0.99058500  0.68045700  1
  H  H33  1  0.14474800  0.50941500  0.18045700  1
  H  H34  1  0.85525200  0.00941500  0.31954300  1
  H  H35  1  0.85525200  0.49058500  0.81954300  1
  C  C0  1  0.58249800  0.26941900  0.78213300  1
  C  C1  1  0.58249800  0.23058100  0.28213300  1
  C  C2  1  0.41750200  0.73058100  0.21786700  1
  C  C3  1  0.41750200  0.76941900  0.71786700  1
  C  C4  1  0.70098400  0.06180100  0.61368800  1
  C  C5  1  0.70098400  0.43819900  0.11368800  1
  C  C6  1  0.29901600  0.93819900  0.38631200  1
  C  C7  1  0.29901600  0.56180100  0.88631200  1
  C  C8  1  0.18765800  0.13941600  0.93439900  1
  C  C9  1  0.18765800  0.36058400  0.43439900  1
  C  C10  1  0.81234200  0.86058400  0.06560100  1
  C  C11  1  0.81234200  0.63941600  0.56560100  1
  C  C12  1  0.81416900  0.43294000  0.57489700  1
  C  C13  1  0.81416900  0.06706000  0.07489700  1
  C  C14  1  0.18583100  0.56706000  0.42510300  1
  C  C15  1  0.18583100  0.93294000  0.92510300  1
  S  S0  1  0.58244800  0.12656500  0.56109500  1
  S  S1  1  0.58244800  0.37343500  0.06109500  1
  S  S2  1  0.41755200  0.87343500  0.43890500  1
  S  S3  1  0.41755200  0.62656500  0.93890500  1
  S  S4  1  0.23151400  0.21198000  0.93903900  1
  S  S5  1  0.23151400  0.28802000  0.43903900  1
  S  S6  1  0.76848600  0.78802000  0.06096100  1
  S  S7  1  0.76848600  0.71198000  0.56096100  1
  S  S8  1  0.97401100  0.40112200  0.70322500  1
  S  S9  1  0.97401100  0.09887800  0.20322500  1
  S  S10  1  0.02598900  0.59887800  0.29677500  1
  S  S11  1  0.02598900  0.90112200  0.79677500  1
  O  O0  1  0.89240300  0.26462200  0.60485900  1
  O  O1  1  0.89240300  0.23537800  0.10485900  1
  O  O2  1  0.10759700  0.73537800  0.39514100  1
  O  O3  1  0.10759700  0.76462200  0.89514100  1
  O  O4  1  0.44793500  0.43203900  0.75578600  1
  O  O5  1  0.44793500  0.06796100  0.25578600  1
  O  O6  1  0.55206500  0.56796100  0.24421400  1
  O  O7  1  0.55206500  0.93203900  0.74421400  1
  O  O8  1  0.12999000  0.15748600  0.64455500  1
  O  O9  1  0.12999000  0.34251400  0.14455500  1
  O  O10  1  0.87001000  0.84251400  0.35544500  1
  O  O11  1  0.87001000  0.65748600  0.85544500  1
  O  O12  1  0.54116800  0.14669700  0.64316800  1
  O  O13  1  0.54116800  0.35330300  0.14316800  1
  O  O14  1  0.45883200  0.85330300  0.35683200  1
  O  O15  1  0.45883200  0.64669700  0.85683200  1
  O  O16  1  0.73261000  0.15545900  0.54645400  1
  O  O17  1  0.73261000  0.34454100  0.04645400  1
  O  O18  1  0.26739000  0.84454100  0.45354600  1
  O  O19  1  0.26739000  0.65545900  0.95354600  1
  O  O20  1  0.41197500  0.11340700  0.46299600  1
  O  O21  1  0.41197500  0.38659300  0.96299600  1
  O  O22  1  0.58802500  0.88659300  0.53700400  1
  O  O23  1  0.58802500  0.61340700  0.03700400  1
  O  O24  1  0.44379700  0.21608900  0.98788400  1
  O  O25  1  0.44379700  0.28391100  0.48788400  1
  O  O26  1  0.55620300  0.78391100  0.01211600  1
  O  O27  1  0.55620300  0.71608900  0.51211600  1
  O  O28  1  0.14441300  0.23227200  0.00296300  1
  O  O29  1  0.14441300  0.26772800  0.50296300  1
  O  O30  1  0.85558700  0.76772800  0.99703700  1
  O  O31  1  0.85558700  0.73227200  0.49703700  1
  O  O32  1  0.13212700  0.22789900  0.82953000  1
  O  O33  1  0.13212700  0.27210100  0.32953000  1
  O  O34  1  0.86787300  0.77210100  0.17047000  1
  O  O35  1  0.86787300  0.72789900  0.67047000  1
  O  O36  1  0.09799500  0.44408900  0.76667900  1
  O  O37  1  0.09799500  0.05591100  0.26667900  1
  O  O38  1  0.90200500  0.55591100  0.23332100  1
  O  O39  1  0.90200500  0.94408900  0.73332100  1
  O  O40  1  0.07940600  0.36052400  0.67653200  1
  O  O41  1  0.07940600  0.13947600  0.17653200  1
  O  O42  1  0.92059400  0.63947600  0.32346800  1
  O  O43  1  0.92059400  0.86052400  0.82346800  1
  O  O44  1  0.83780800  0.38060600  0.73836600  1
  O  O45  1  0.83780800  0.11939400  0.23836600  1
  O  O46  1  0.16219200  0.61939400  0.26163400  1
  O  O47  1  0.16219200  0.88060600  0.76163400  1
  O  O48  1  0.12420800  0.08054400  0.51796200  1
  O  O49  1  0.12420800  0.41945600  0.01796200  1
  O  O50  1  0.87579200  0.91945600  0.48203800  1
  O  O51  1  0.87579200  0.58054400  0.98203800  1
  O  O52  1  0.21146900  0.98369600  0.63840400  1
  O  O53  1  0.21146900  0.51630400  0.13840400  1
  O  O54  1  0.78853100  0.01630400  0.36159600  1
  O  O55  1  0.78853100  0.48369600  0.86159600  1
  F  F0  1  0.74672300  0.03717400  0.54437000  1
  F  F1  1  0.74672300  0.46282600  0.04437000  1
  F  F2  1  0.25327700  0.96282600  0.45563000  1
  F  F3  1  0.25327700  0.53717400  0.95563000  1
  F  F4  1  0.86600000  0.06805000  0.70375800  1
  F  F5  1  0.86600000  0.43195000  0.20375800  1
  F  F6  1  0.13400000  0.93195000  0.29624200  1
  F  F7  1  0.13400000  0.56805000  0.79624200  1
  F  F8  1  0.57755200  0.03037800  0.63151900  1
  F  F9  1  0.57755200  0.46962200  0.13151900  1
  F  F10  1  0.42244800  0.96962200  0.36848100  1
  F  F11  1  0.42244800  0.53037800  0.86848100  1
  F  F12  1  0.24793000  0.11567200  0.87049600  1
  F  F13  1  0.24793000  0.38432800  0.37049600  1
  F  F14  1  0.75207000  0.88432800  0.12950400  1
  F  F15  1  0.75207000  0.61567200  0.62950400  1
  F  F16  1  0.28623900  0.11795900  0.03078900  1
  F  F17  1  0.28623900  0.38204100  0.53078900  1
  F  F18  1  0.71376100  0.88204100  0.96921100  1
  F  F19  1  0.71376100  0.61795900  0.46921100  1
  F  F20  1  0.99536500  0.12961100  0.89876300  1
  F  F21  1  0.99536500  0.37038900  0.39876300  1
  F  F22  1  0.00463500  0.87038900  0.10123700  1
  F  F23  1  0.00463500  0.62961100  0.60123700  1
  F  F24  1  0.70149500  0.39623300  0.50493700  1
  F  F25  1  0.70149500  0.10376700  0.00493700  1
  F  F26  1  0.29850500  0.60376700  0.49506300  1
  F  F27  1  0.29850500  0.89623300  0.99506300  1
  F  F28  1  0.69613800  0.46880900  0.58674000  1
  F  F29  1  0.69613800  0.03119100  0.08674000  1
  F  F30  1  0.30386200  0.53119100  0.41326000  1
  F  F31  1  0.30386200  0.96880900  0.91326000  1
  F  F32  1  0.92247100  0.45747300  0.53674100  1
  F  F33  1  0.92247100  0.04252700  0.03674100  1
  F  F34  1  0.07752900  0.54252700  0.46325900  1
  F  F35  1  0.07752900  0.95747300  0.96325900  1
loop_
_geom_bond_atom_site_label_1
_geom_bond_atom_site_label_2
_geom_bond_distance
_geom_bond_site_symmetry_2
Hg0 O0 2.139069 1_555
Hg1 O1 2.139069 1_555
Hg2 O2 2.139069 1_555
Hg3 O3 2.139069 1_555
Hg4 O1 2.141651 1_556
Hg5 O0 2.141651 1_555
Hg6 O3 2.141651 1_554
Hg7 O2 2.141651 1_555
Hg8 O4 2.157747 1_555
Hg9 O5 2.157747 1_555
Hg10 O6 2.157747 1_555
Hg11 O7 2.157747 1_555
Hg12 O8 2.149896 1_555
Hg13 O9 2.149896 1_555
Hg14 O10 2.149896 1_555
Hg15 O11 2.149896 1_555
H0 O0 0.992456 1_555
H1 O1 0.992456 1_555
H2 O2 0.992456 1_555
H3 O3 0.992456 1_555
H4 O4 0.994599 1_555
H5 O5 0.994599 1_555
H6 O6 0.994599 1_555
H7 O7 0.994599 1_555
H8 O4 1.007633 1_555
H9 O5 1.007633 1_555
H10 O6 1.007633 1_555
H11 O7 1.007633 1_555
H12 O8 0.986898 1_655
H13 O9 0.986898 1_655
H14 O10 0.986898 1_455
H15 O11 0.986898 1_455
H16 O8 1.011191 1_555
H16 O48 1.662164 1_555
H17 O9 1.011191 1_555
H17 O49 1.662164 1_555
H18 O10 1.011191 1_555
H18 O50 1.662164 1_555
H19 O11 1.011191 1_555
H19 O51 1.662164 1_555
H20 O48 0.992103 1_555
H21 O49 0.992103 1_556
H22 O50 0.992103 1_555
H23 O51 0.992103 1_554
H24 O48 0.983736 1_655
H25 O49 0.983736 1_656
H26 O50 0.983736 1_455
H27 O51 0.983736 1_454
H28 O52 0.990888 1_545
H29 O53 0.990888 1_555
H30 O54 0.990888 1_565
H31 O55 0.990888 1_555
H32 O52 0.977496 1_555
H33 O53 0.977496 1_555
H34 O54 0.977496 1_555
H35 O55 0.977496 1_555
C0 Hg12 2.093001 1_555
C0 Hg8 2.093464 1_555
C0 Hg4 2.097632 1_555
C0 Hg0 2.104157 1_555
C1 Hg13 2.093001 1_555
C1 Hg9 2.093464 1_555
C1 Hg5 2.097632 1_555
C1 Hg1 2.104157 1_555
C2 Hg14 2.093001 1_555
C2 Hg10 2.093464 1_555
C2 Hg6 2.097632 1_555
C2 Hg2 2.104157 1_555
C3 Hg15 2.093001 1_555
C3 Hg11 2.093464 1_555
C3 Hg7 2.097632 1_555
C3 Hg3 2.104157 1_555
C4 F4 1.349013 1_555
C4 F8 1.357941 1_555
C4 F0 1.358948 1_555
C5 F5 1.349013 1_555
C5 F9 1.357941 1_555
C5 F1 1.358948 1_555
C6 F6 1.349013 1_555
C6 F10 1.357941 1_555
C6 F2 1.358948 1_555
C7 F7 1.349013 1_555
C7 F11 1.357941 1_555
C7 F3 1.358948 1_555
C8 F12 1.353147 1_555
C8 F20 1.355469 1_455
C8 F16 1.356743 1_556
C9 F13 1.353147 1_555
C9 F21 1.355469 1_455
C9 F17 1.356743 1_555
C10 F14 1.353147 1_555
C10 F22 1.355469 1_655
C10 F18 1.356743 1_554
C11 F15 1.353147 1_555
C11 F23 1.355469 1_655
C11 F19 1.356743 1_555
C12 F32 1.349519 1_555
C12 F28 1.356243 1_555
C12 F24 1.356963 1_555
C13 F33 1.349519 1_555
C13 F29 1.356243 1_555
C13 F25 1.356963 1_555
C14 F34 1.349519 1_555
C14 F30 1.356243 1_555
C14 F26 1.356963 1_555
C15 F35 1.349519 1_555
C15 F31 1.356243 1_555
C15 F27 1.356963 1_555
O12 S0 1.455659 1_555
O13 S1 1.455659 1_555
O14 S2 1.455659 1_555
O15 S3 1.455659 1_555
O16 S0 1.470302 1_555
O17 S1 1.470302 1_555
O18 S2 1.470302 1_555
O19 S3 1.470302 1_555
O20 S0 1.462870 1_555
O21 S1 1.462870 1_556
O22 S2 1.462870 1_555
O23 S3 1.462870 1_554
O24 S4 1.463398 1_555
O25 S5 1.463398 1_555
O26 S6 1.463398 1_555
O27 S7 1.463398 1_555
O28 S4 1.465264 1_554
O29 S5 1.465264 1_555
O30 S6 1.465264 1_556
O31 S7 1.465264 1_555
O32 S4 1.462237 1_555
O33 S5 1.462237 1_555
O34 S6 1.462237 1_555
O35 S7 1.462237 1_555
O36 S8 1.464388 1_455
O37 S9 1.464388 1_455
O38 S10 1.464388 1_655
O39 S11 1.464388 1_655
O40 S8 1.472787 1_455
O41 S9 1.472787 1_455
O42 S10 1.472787 1_655
O43 S11 1.472787 1_655
O44 S8 1.460912 1_555
O45 S9 1.460912 1_555
O46 S10 1.460912 1_555
O47 S11 1.460912 1_555
