# generated using pymatgen
data_Li7Mn5O12
_symmetry_space_group_name_H-M   'P 1'
_cell_length_a   5.99229585
_cell_length_b   8.22378355
_cell_length_c   10.14286337
_cell_angle_alpha   113.19221543
_cell_angle_beta   76.67666120
_cell_angle_gamma   89.41359184
_symmetry_Int_Tables_number   1
_chemical_formula_structural   Li7Mn5O12
_chemical_formula_sum   'Li14 Mn10 O24'
_cell_volume   444.21697193
_cell_formula_units_Z   2
loop_
 _symmetry_equiv_pos_site_id
 _symmetry_equiv_pos_as_xyz
  1  'x, y, z'
loop_
 _atom_site_type_symbol
 _atom_site_label
 _atom_site_symmetry_multiplicity
 _atom_site_fract_x
 _atom_site_fract_y
 _atom_site_fract_z
 _atom_site_occupancy
  Li  Li0  1  0.16669100  0.33330000  0.16669900  1
  Li  Li1  1  0.66674600  0.83327800  0.16664200  1
  Li  Li2  1  0.66669400  0.83340900  0.66673100  1
  Li  Li3  1  0.16671300  0.33335100  0.66665600  1
  Li  Li4  1  0.16669400  0.83340000  0.16665800  1
  Li  Li5  1  0.66669300  0.33338100  0.16667700  1
  Li  Li6  1  0.83894600  0.65553000  0.31819700  1
  Li  Li7  1  0.33910500  0.15523100  0.31823600  1
  Li  Li8  1  0.99414300  0.51149400  0.01508700  1
  Li  Li9  1  0.49437100  0.01118000  0.01513700  1
  Li  Li10  1  0.51377300  0.99234400  0.48973200  1
  Li  Li11  1  0.01304400  0.49260700  0.48967400  1
  Li  Li12  1  0.81955200  0.67424600  0.84362100  1
  Li  Li13  1  0.32031200  0.17390000  0.84364800  1
  Mn  Mn0  1  0.16645600  0.83324200  0.66651400  1
  Mn  Mn1  1  0.66672500  0.33336900  0.66686800  1
  Mn  Mn2  1  0.49555500  0.50610700  0.00613500  1
  Mn  Mn3  1  0.99610600  0.00555400  0.00573000  1
  Mn  Mn4  1  0.33717700  0.66104400  0.32756900  1
  Mn  Mn5  1  0.83742700  0.16059800  0.32729500  1
  Mn  Mn6  1  0.00167600  0.99600800  0.49678200  1
  Mn  Mn7  1  0.50114400  0.49710200  0.49656900  1
  Mn  Mn8  1  0.83238900  0.16968800  0.83670200  1
  Mn  Mn9  1  0.33148000  0.67065300  0.83653900  1
  O  O0  1  0.53873700  0.25133900  0.97550800  1
  O  O1  1  0.03811900  0.75118300  0.97569500  1
  O  O2  1  0.79468000  0.41531400  0.35778100  1
  O  O3  1  0.29521300  0.91546500  0.35759000  1
  O  O4  1  0.17399100  0.57952000  0.17783800  1
  O  O5  1  0.67344700  0.07973600  0.17815300  1
  O  O6  1  0.65974700  0.58690600  0.15521500  1
  O  O7  1  0.15929600  0.08712400  0.15554200  1
  O  O8  1  0.83872000  0.92888000  0.34746200  1
  O  O9  1  0.33851100  0.42919100  0.34755300  1
  O  O10  1  0.49454000  0.73779800  0.98584800  1
  O  O11  1  0.99491700  0.23747100  0.98576400  1
  O  O12  1  0.99593600  0.77022300  0.51613300  1
  O  O13  1  0.49584800  0.27158500  0.51700200  1
  O  O14  1  0.33738800  0.89640200  0.81714800  1
  O  O15  1  0.83766400  0.39519000  0.81643200  1
  O  O16  1  0.69820600  0.08767000  0.65929400  1
  O  O17  1  0.19614300  0.58894800  0.66014300  1
  O  O18  1  0.63522200  0.57899600  0.67407100  1
  O  O19  1  0.13733900  0.07766600  0.67307900  1
  O  O20  1  0.83525900  0.93862300  0.84402800  1
  O  O21  1  0.33619400  0.43884700  0.84354500  1
  O  O22  1  0.49811700  0.72813900  0.48928800  1
  O  O23  1  0.99715700  0.22777300  0.48978600  1
loop_
_geom_bond_atom_site_label_1
_geom_bond_atom_site_label_2
_geom_bond_distance
_geom_bond_site_symmetry_2
Li0 O7 1.984203 1_555
Li0 O4 1.984600 1_555
Li0 O9 2.189659 1_555
Li0 O11 2.190118 1_454
Li0 O2 2.475664 1_455
Li0 O0 2.476351 1_554
Li1 O6 1.984775 1_555
Li1 O5 1.985113 1_565
Li1 O8 2.189915 1_555
Li1 O10 2.190597 1_554
Li1 O1 2.472251 1_654
Li1 O3 2.472910 1_555
Li2 O14 2.111616 1_555
Li2 O12 2.112000 1_555
Li2 O16 2.130569 1_565
Li2 O18 2.131398 1_555
Li2 O20 2.152292 1_555
Li2 O22 2.153538 1_555
Li3 O13 2.108167 1_555
Li3 O15 2.108248 1_455
Li3 O17 2.136668 1_555
Li3 O19 2.136996 1_555
Li3 O21 2.152889 1_555
Li3 O23 2.153092 1_455
Li4 O3 2.113663 1_555
Li4 O1 2.114085 1_554
Li4 O7 2.134049 1_565
Li4 O4 2.135603 1_555
Li4 O10 2.238993 1_554
Li4 O8 2.239470 1_455
Li5 O2 2.113387 1_555
Li5 O0 2.113822 1_554
Li5 O6 2.133909 1_555
Li5 O5 2.134932 1_555
Li5 O9 2.240727 1_555
Li5 O11 2.241096 1_554
Li6 O6 2.073658 1_555
Li6 O4 2.098658 1_655
Li6 O8 2.148412 1_555
Li6 O2 2.172659 1_555
Li6 O22 2.250461 1_555
Li6 O12 2.280871 1_555
Li7 O7 2.074030 1_555
Li7 O5 2.094259 1_555
Li7 O9 2.153152 1_555
Li7 O3 2.167621 1_545
Li7 O23 2.257494 1_455
Li7 O13 2.287789 1_555
Li8 O4 2.074688 1_655
Li8 O6 2.094660 1_555
Li8 O11 2.153606 1_554
Li8 O1 2.167241 1_654
Li8 O21 2.257864 1_654
Li8 O15 2.285868 1_554
Li9 O5 2.073439 1_555
Li9 O7 2.098949 1_555
Li9 O10 2.148621 1_544
Li9 O0 2.172487 1_554
Li9 O20 2.250822 1_544
Li9 O14 2.281331 1_544
Li10 O3 2.017405 1_555
Li10 O8 2.058445 1_555
Li10 O16 2.150739 1_565
Li10 O22 2.174026 1_555
Li10 O13 2.200578 1_565
Li10 O19 2.458731 1_565
Li11 O2 2.014919 1_455
Li11 O9 2.060317 1_555
Li11 O17 2.152739 1_555
Li11 O23 2.181426 1_455
Li11 O12 2.189706 1_455
Li11 O18 2.469309 1_455
Li12 O1 2.016991 1_655
Li12 O10 2.058559 1_555
Li12 O18 2.150177 1_555
Li12 O20 2.175599 1_555
Li12 O15 2.199321 1_555
Li12 O17 2.460006 1_655
Li13 O0 2.015056 1_555
Li13 O11 2.059920 1_455
Li13 O19 2.152949 1_555
Li13 O21 2.182318 1_555
Li13 O14 2.188615 1_545
Li13 O16 2.469465 1_555
Mn0 O12 1.935393 1_455
Mn0 O14 1.939172 1_555
Mn0 O17 1.989251 1_555
Mn0 O19 1.989317 1_565
Mn0 O20 2.240644 1_455
Mn0 O22 2.241139 1_555
Mn1 O15 1.930903 1_555
Mn1 O13 1.933114 1_555
Mn1 O16 1.996865 1_555
Mn1 O18 1.997725 1_555
Mn1 O21 2.234124 1_555
Mn1 O23 2.235603 1_555
Mn2 O6 1.898339 1_555
Mn2 O21 1.988882 1_554
Mn2 O10 1.995490 1_554
Mn2 O0 1.998090 1_554
Mn2 O4 2.170682 1_555
Mn2 O15 2.344832 1_554
Mn3 O7 1.900163 1_655
Mn3 O20 1.987551 1_544
Mn3 O11 1.995798 1_554
Mn3 O1 1.996029 1_644
Mn3 O5 2.178547 1_555
Mn3 O14 2.335358 1_644
Mn4 O4 1.899490 1_555
Mn4 O22 1.988014 1_555
Mn4 O9 1.995377 1_555
Mn4 O3 1.996452 1_555
Mn4 O6 2.177849 1_555
Mn4 O12 2.335116 1_455
Mn5 O5 1.897954 1_555
Mn5 O23 1.989570 1_555
Mn5 O8 1.995157 1_545
Mn5 O2 1.997864 1_555
Mn5 O7 2.172186 1_655
Mn5 O13 2.342721 1_555
Mn6 O8 1.893725 1_455
Mn6 O3 1.902876 1_555
Mn6 O23 1.935175 1_465
Mn6 O12 1.942340 1_455
Mn6 O19 2.011138 1_565
Mn6 O16 2.050339 1_465
Mn7 O9 1.889785 1_555
Mn7 O2 1.901782 1_555
Mn7 O22 1.930338 1_555
Mn7 O13 1.945360 1_555
Mn7 O18 2.015732 1_555
Mn7 O17 2.061707 1_555
Mn8 O11 1.889732 1_555
Mn8 O0 1.902316 1_555
Mn8 O20 1.930756 1_545
Mn8 O15 1.944446 1_555
Mn8 O16 2.015288 1_555
Mn8 O19 2.061780 1_655
Mn9 O10 1.894071 1_555
Mn9 O1 1.901937 1_555
Mn9 O21 1.935570 1_555
Mn9 O14 1.942241 1_555
Mn9 O17 2.010792 1_555
Mn9 O18 2.051272 1_555
