# generated using pymatgen
data_LiEuBi
_symmetry_space_group_name_H-M   'P 1'
_cell_length_a   4.87107659
_cell_length_b   8.01580210
_cell_length_c   8.53814324
_cell_angle_alpha   90.00088605
_cell_angle_beta   90.00000000
_cell_angle_gamma   90.00000000
_symmetry_Int_Tables_number   1
_chemical_formula_structural   LiEuBi
_chemical_formula_sum   'Li4 Eu4 Bi4'
_cell_volume   333.37680579
_cell_formula_units_Z   4
loop_
 _symmetry_equiv_pos_site_id
 _symmetry_equiv_pos_as_xyz
  1  'x, y, z'
loop_
 _atom_site_type_symbol
 _atom_site_label
 _atom_site_symmetry_multiplicity
 _atom_site_fract_x
 _atom_site_fract_y
 _atom_site_fract_z
 _atom_site_occupancy
  Li  Li0  1  0.25000000  0.16410387  0.92481344  1
  Li  Li1  1  0.25000000  0.66410068  0.57518170  1
  Li  Li2  1  0.75000000  0.83589613  0.07518656  1
  Li  Li3  1  0.75000000  0.33589932  0.42481830  1
  Eu  Eu0  1  0.25000000  0.00431074  0.28920165  1
  Eu  Eu1  1  0.25000000  0.50430923  0.21080044  1
  Eu  Eu2  1  0.75000000  0.99568926  0.71079835  1
  Eu  Eu3  1  0.75000000  0.49569077  0.78919956  1
  Bi  Bi0  1  0.25000000  0.27334967  0.59317763  1
  Bi  Bi1  1  0.25000000  0.77335380  0.90681310  1
  Bi  Bi2  1  0.75000000  0.72665033  0.40682237  1
  Bi  Bi3  1  0.75000000  0.22664620  0.09318690  1
loop_
_geom_bond_atom_site_label_1
_geom_bond_atom_site_label_2
_geom_bond_distance
_geom_bond_site_symmetry_2
Eu0 Li2 3.330646 1_545
Eu0 Li2 3.330646 1_445
Eu0 Li0 3.364567 1_554
Eu0 Li1 3.660482 1_545
Eu0 Li3 3.786450 1_555
Eu0 Li3 3.786450 1_455
Eu0 Eu1 4.063417 1_555
Eu0 Eu1 4.063420 1_545
Eu0 Eu2 4.346738 1_545
Eu0 Eu2 4.346738 1_445
Eu1 Li3 3.330667 1_455
Eu1 Li3 3.330667 1_555
Eu1 Li1 3.364470 1_555
Eu1 Li0 3.660438 1_554
Eu1 Li2 3.786459 1_555
Eu1 Li2 3.786459 1_455
Eu1 Eu3 4.346766 1_454
Eu1 Eu3 4.346766 1_554
Eu2 Li0 3.330646 1_565
Eu2 Li0 3.330646 1_665
Eu2 Li2 3.364567 1_556
Eu2 Li3 3.660482 1_565
Eu2 Li1 3.786450 1_555
Eu2 Li1 3.786450 1_655
Eu2 Eu3 4.063417 1_555
Eu2 Eu3 4.063420 1_565
Eu3 Li1 3.330667 1_555
Eu3 Li1 3.330667 1_655
Eu3 Li3 3.364470 1_555
Eu3 Li2 3.660438 1_556
Eu3 Li0 3.786459 1_555
Eu3 Li0 3.786459 1_655
Bi0 Li3 2.872211 1_555
Bi0 Li3 2.872211 1_455
Bi0 Li0 2.963885 1_555
Bi0 Li1 3.135952 1_555
Bi0 Eu0 3.374410 1_555
Bi0 Eu2 3.448778 1_545
Bi0 Eu2 3.448778 1_445
Bi0 Eu3 3.450984 1_555
Bi0 Eu3 3.450984 1_455
Bi0 Eu1 3.753193 1_555
Bi1 Li2 2.872253 1_456
Bi1 Li2 2.872253 1_556
Bi1 Li1 2.963840 1_555
Bi1 Li0 3.135941 1_565
Bi1 Eu1 3.374565 1_556
Bi1 Eu3 3.448754 1_555
Bi1 Eu3 3.448754 1_455
Bi1 Eu2 3.450958 1_555
Bi1 Eu2 3.450958 1_455
Bi1 Eu0 3.753217 1_566
Bi2 Li1 2.872211 1_555
Bi2 Li1 2.872211 1_655
Bi2 Li2 2.963885 1_555
Bi2 Li3 3.135952 1_555
Bi2 Eu2 3.374410 1_555
Bi2 Eu0 3.448778 1_665
Bi2 Eu0 3.448778 1_565
Bi2 Eu1 3.450984 1_555
Bi2 Eu1 3.450984 1_655
Bi2 Eu3 3.753193 1_555
Bi3 Li0 2.872253 1_654
Bi3 Li0 2.872253 1_554
Bi3 Li3 2.963840 1_555
Bi3 Li2 3.135941 1_545
Bi3 Eu3 3.374565 1_554
Bi3 Eu1 3.448754 1_555
Bi3 Eu1 3.448754 1_655
Bi3 Eu0 3.450958 1_555
Bi3 Eu0 3.450958 1_655
Bi3 Eu2 3.753217 1_544
