# generated using pymatgen
data_Mg6Si5
_symmetry_space_group_name_H-M   'P 1'
_cell_length_a   4.50993500
_cell_length_b   6.80066179
_cell_length_c   13.87368795
_cell_angle_alpha   90.18800559
_cell_angle_beta   92.49976947
_cell_angle_gamma   90.91056502
_symmetry_Int_Tables_number   1
_chemical_formula_structural   Mg6Si5
_chemical_formula_sum   'Mg12 Si10'
_cell_volume   425.05157053
_cell_formula_units_Z   2
loop_
 _symmetry_equiv_pos_site_id
 _symmetry_equiv_pos_as_xyz
  1  'x, y, z'
loop_
 _atom_site_type_symbol
 _atom_site_label
 _atom_site_symmetry_multiplicity
 _atom_site_fract_x
 _atom_site_fract_y
 _atom_site_fract_z
 _atom_site_occupancy
  Mg  Mg0  1  0.20171300  0.30631400  0.02808200  1
  Mg  Mg1  1  0.75152900  0.32316900  0.49243100  1
  Mg  Mg2  1  0.24829500  0.51737400  0.34794200  1
  Mg  Mg3  1  0.22305000  0.18169900  0.64633600  1
  Mg  Mg4  1  0.52133400  0.81365500  0.80400300  1
  Mg  Mg5  1  0.71097800  0.52454500  0.16618700  1
  Mg  Mg6  1  0.23033800  0.01671500  0.41418800  1
  Mg  Mg7  1  0.28954000  0.62751400  0.56854300  1
  Mg  Mg8  1  0.02688300  0.05572400  0.86186000  1
  Mg  Mg9  1  0.70772800  0.02934800  0.10414700  1
  Mg  Mg10  1  0.19596300  0.76835000  0.01770600  1
  Mg  Mg11  1  0.08700000  0.50455500  0.83279600  1
  Si  Si0  1  0.70662100  0.96103800  0.57277000  1
  Si  Si1  1  0.75980500  0.71391500  0.44805500  1
  Si  Si2  1  0.22271500  0.83149500  0.21260400  1
  Si  Si3  1  0.66947300  0.53254600  0.96479900  1
  Si  Si4  1  0.72904200  0.44689000  0.68100900  1
  Si  Si5  1  0.73696200  0.21706100  0.30073000  1
  Si  Si6  1  0.21891400  0.20144100  0.21408600  1
  Si  Si7  1  0.98584400  0.80040900  0.70349300  1
  Si  Si8  1  0.54916400  0.27122700  0.83027100  1
  Si  Si9  1  0.72731500  0.85132300  0.29160100  1
loop_
_geom_bond_atom_site_label_1
_geom_bond_atom_site_label_2
_geom_bond_distance
_geom_bond_site_symmetry_2
Mg0 Si6 2.677751 1_555
Mg0 Si3 2.766847 1_554
Mg0 Si3 2.973562 1_454
Mg0 Mg9 3.116001 1_455
Mg0 Mg9 3.131928 1_555
Mg0 Si8 3.229030 1_554
Mg1 Si0 2.714819 1_545
Mg1 Si1 2.729730 1_555
Mg1 Si5 2.751210 1_555
Mg1 Si4 2.752182 1_555
Mg2 Si6 2.832997 1_555
Mg2 Si2 2.849135 1_555
Mg2 Si1 2.940692 1_555
Mg2 Si1 2.986211 1_455
Mg2 Si5 3.102885 1_455
Mg2 Si5 3.117260 1_555
Mg3 Si0 2.887551 1_545
Mg3 Si0 2.896488 1_445
Mg3 Si4 2.908462 1_555
Mg3 Si7 2.914851 1_445
Mg3 Si4 2.943324 1_455
Mg3 Si8 2.946139 1_555
Mg4 Si7 2.569286 1_555
Mg4 Si7 2.735587 1_455
Mg4 Si3 3.002706 1_555
Mg4 Si8 3.131768 1_565
Mg4 Si4 3.193157 1_555
Mg5 Si3 2.792866 1_554
Mg5 Si5 2.808016 1_555
Mg5 Si9 2.815982 1_555
Mg5 Si2 3.131617 1_655
Mg5 Si2 3.143586 1_555
Mg5 Si6 3.190268 1_555
Mg5 Si6 3.248719 1_655
Mg6 Si9 2.978917 1_445
Mg6 Si1 2.986448 1_445
Mg6 Si5 3.014970 1_455
Mg6 Si0 3.035933 1_545
Mg6 Si6 3.049645 1_555
Mg6 Si2 3.062114 1_545
Mg6 Si9 3.095364 1_545
Mg6 Si5 3.127852 1_555
Mg6 Si1 3.198107 1_545
Mg7 Si7 2.650322 1_455
Mg7 Si4 2.773530 1_555
Mg7 Si1 2.813131 1_555
Mg7 Si0 2.922361 1_555
Mg7 Si1 2.924021 1_455
Mg7 Si4 3.254417 1_455
Mg8 Si8 2.646496 1_455
Mg8 Si7 2.793870 1_445
Mg8 Si8 2.805824 1_555
Mg9 Si9 2.870735 1_545
Mg9 Si6 2.933746 1_655
Mg9 Si6 2.986575 1_555
Mg9 Si5 3.004295 1_555
Mg9 Si2 3.010987 1_545
Mg9 Si2 3.045753 1_645
Mg10 Si2 2.733607 1_555
Mg10 Si3 2.812222 1_554
Mg10 Si3 2.909906 1_454
Mg10 Mg9 3.087079 1_565
Mg10 Mg9 3.126930 1_465
Mg11 Si4 2.621539 1_455
Mg11 Si8 2.640960 1_555
Mg11 Si3 2.691808 1_455
Mg11 Si7 2.730543 1_455
Mg11 Si8 2.876207 1_455
Mg11 Si3 3.138948 1_555
Si0 Si1 2.430158 1_555
Si0 Si7 2.434290 1_555
Si1 Si9 2.365606 1_555
Si2 Si9 2.483936 1_555
Si2 Si6 2.516231 1_565
Si2 Si9 2.536396 1_455
Si3 Si8 2.606785 1_555
Si4 Si8 2.550585 1_555
Si4 Si7 2.663401 1_555
Si5 Si9 2.489661 1_545
Si5 Si6 2.532803 1_655
Si5 Si6 2.580919 1_555
