# generated using pymatgen
data_Zn(SnO2)2
_symmetry_space_group_name_H-M   'P 1'
_cell_length_a   5.57568840
_cell_length_b   5.57568840
_cell_length_c   11.01140200
_cell_angle_alpha   90.00000000
_cell_angle_beta   90.00000000
_cell_angle_gamma   146.55984574
_symmetry_Int_Tables_number   1
_chemical_formula_structural   Zn(SnO2)2
_chemical_formula_sum   'Zn2 Sn4 O8'
_cell_volume   188.64399133
_cell_formula_units_Z   2
loop_
 _symmetry_equiv_pos_site_id
 _symmetry_equiv_pos_as_xyz
  1  'x, y, z'
loop_
 _atom_site_type_symbol
 _atom_site_label
 _atom_site_symmetry_multiplicity
 _atom_site_fract_x
 _atom_site_fract_y
 _atom_site_fract_z
 _atom_site_occupancy
  Zn  Zn0  1  0.60091200  0.39908800  0.75000000  1
  Zn  Zn1  1  0.39908800  0.60091200  0.25000000  1
  Sn  Sn0  1  0.13249800  0.86750200  0.07660600  1
  Sn  Sn1  1  0.86750200  0.13249800  0.92339400  1
  Sn  Sn2  1  0.13249800  0.86750200  0.42339400  1
  Sn  Sn3  1  0.86750200  0.13249800  0.57660600  1
  O  O0  1  0.77209700  0.22790300  0.38494300  1
  O  O1  1  0.22790300  0.77209700  0.61505700  1
  O  O2  1  0.22790300  0.77209700  0.88494300  1
  O  O3  1  0.77209700  0.22790300  0.11505700  1
  O  O4  1  0.01921000  0.98079000  0.25000000  1
  O  O5  1  0.98079000  0.01921000  0.75000000  1
  O  O6  1  0.50000000  0.50000000  0.00000000  1
  O  O7  1  0.50000000  0.50000000  0.50000000  1
loop_
_geom_bond_atom_site_label_1
_geom_bond_atom_site_label_2
_geom_bond_distance
_geom_bond_site_symmetry_2
O0 Sn2 2.230519 1_545
O0 Sn2 2.230519 1_655
O0 Sn3 2.343568 1_555
O0 Zn1 2.573034 1_545
O0 Zn1 2.573034 1_655
O1 Sn3 2.230519 1_455
O1 Sn3 2.230519 1_565
O1 Sn2 2.343568 1_555
O1 Zn0 2.573034 1_455
O1 Zn0 2.573034 1_565
O2 Sn1 2.230519 1_455
O2 Sn1 2.230519 1_565
O2 Sn0 2.343568 1_556
O2 Zn0 2.573034 1_455
O2 Zn0 2.573034 1_565
O3 Sn0 2.230519 1_545
O3 Sn0 2.230519 1_655
O3 Sn1 2.343568 1_554
O3 Zn1 2.573034 1_545
O3 Zn1 2.573034 1_655
O4 Zn1 2.054012 1_455
O4 Zn1 2.054012 1_565
O4 Sn0 2.260385 1_555
O4 Sn2 2.260385 1_555
O5 Zn0 2.054012 1_545
O5 Zn0 2.054012 1_655
O5 Sn1 2.260385 1_555
O5 Sn3 2.260385 1_555
O6 Sn0 2.299375 1_655
O6 Sn0 2.299375 1_545
O6 Sn1 2.299375 1_454
O6 Sn1 2.299375 1_564
O7 Sn3 2.299375 1_565
O7 Sn3 2.299375 1_455
O7 Sn2 2.299375 1_655
O7 Sn2 2.299375 1_545
