# generated using pymatgen
data_RbNa2B6ClO10
_symmetry_space_group_name_H-M   'P 1'
_cell_length_a   8.40308300
_cell_length_b   9.73873000
_cell_length_c   12.87437900
_cell_angle_alpha   90.00000000
_cell_angle_beta   90.00000000
_cell_angle_gamma   90.00000000
_symmetry_Int_Tables_number   1
_chemical_formula_structural   RbNa2B6ClO10
_chemical_formula_sum   'Rb4 Na8 B24 Cl4 O40'
_cell_volume   1053.57939524
_cell_formula_units_Z   4
loop_
 _symmetry_equiv_pos_site_id
 _symmetry_equiv_pos_as_xyz
  1  'x, y, z'
loop_
 _atom_site_type_symbol
 _atom_site_label
 _atom_site_symmetry_multiplicity
 _atom_site_fract_x
 _atom_site_fract_y
 _atom_site_fract_z
 _atom_site_occupancy
  Rb  Rb0  1  0.52001200  0.25226800  0.23798700  1
  Rb  Rb1  1  0.97998800  0.74773200  0.73798700  1
  Rb  Rb2  1  0.02001200  0.24773200  0.76201300  1
  Rb  Rb3  1  0.47998800  0.75226800  0.26201300  1
  Na  Na0  1  0.72947700  0.00333800  0.46473700  1
  Na  Na1  1  0.77052300  0.99666200  0.96473700  1
  Na  Na2  1  0.22947700  0.49666200  0.53526300  1
  Na  Na3  1  0.27052300  0.50333800  0.03526300  1
  Na  Na4  1  0.53965400  0.22001700  0.74232300  1
  Na  Na5  1  0.96034600  0.77998300  0.24232300  1
  Na  Na6  1  0.03965400  0.27998300  0.25767700  1
  Na  Na7  1  0.46034600  0.72001700  0.75767700  1
  B  B0  1  0.45148000  0.23864300  0.97782300  1
  B  B1  1  0.04852000  0.76135700  0.47782300  1
  B  B2  1  0.95148000  0.26135700  0.02217700  1
  B  B3  1  0.54852000  0.73864300  0.52217700  1
  B  B4  1  0.54144200  0.26562300  0.51297500  1
  B  B5  1  0.95855800  0.73437700  0.01297500  1
  B  B6  1  0.04144200  0.23437700  0.48702500  1
  B  B7  1  0.45855800  0.76562300  0.98702500  1
  B  B8  1  0.80019000  0.50473100  0.27292800  1
  B  B9  1  0.69981000  0.49526900  0.77292800  1
  B  B10  1  0.30019000  0.99526900  0.72707200  1
  B  B11  1  0.19981000  0.00473100  0.22707200  1
  B  B12  1  0.79179100  0.36727500  0.43911400  1
  B  B13  1  0.70820900  0.63272500  0.93911400  1
  B  B14  1  0.29179100  0.13272500  0.56088600  1
  B  B15  1  0.20820900  0.86727500  0.06088600  1
  B  B16  1  0.88286000  0.50060600  0.07835900  1
  B  B17  1  0.61714000  0.49939400  0.57835900  1
  B  B18  1  0.38286000  0.99939400  0.92164100  1
  B  B19  1  0.11714000  0.00060600  0.42164100  1
  B  B20  1  0.20839000  0.13561300  0.05954100  1
  B  B21  1  0.29161000  0.86438700  0.55954100  1
  B  B22  1  0.70839000  0.36438700  0.94045900  1
  B  B23  1  0.79161000  0.63561300  0.44045900  1
  Cl  Cl0  1  0.25851100  0.48700500  0.30433700  1
  Cl  Cl1  1  0.24148900  0.51299500  0.80433700  1
  Cl  Cl2  1  0.75851100  0.01299500  0.69566300  1
  Cl  Cl3  1  0.74148900  0.98700500  0.19566300  1
  O  O0  1  0.71854000  0.50135700  0.47989100  1
  O  O1  1  0.78146000  0.49864300  0.97989100  1
  O  O2  1  0.21854000  0.99864300  0.52010900  1
  O  O3  1  0.28146000  0.00135700  0.02010900  1
  O  O4  1  0.77869800  0.50456800  0.16768000  1
  O  O5  1  0.72130200  0.49543200  0.66768000  1
  O  O6  1  0.27869800  0.99543200  0.83232000  1
  O  O7  1  0.22130200  0.00456800  0.33232000  1
  O  O8  1  0.31259200  0.25046200  0.03372100  1
  O  O9  1  0.18740800  0.74953800  0.53372100  1
  O  O10  1  0.81259200  0.24953800  0.96627900  1
  O  O11  1  0.68740800  0.75046200  0.46627900  1
  O  O12  1  0.67787900  0.25531600  0.45406900  1
  O  O13  1  0.82212100  0.74468400  0.95406900  1
  O  O14  1  0.17787900  0.24468400  0.54593100  1
  O  O15  1  0.32212100  0.75531600  0.04593100  1
  O  O16  1  0.48650700  0.12284600  0.92039000  1
  O  O17  1  0.01349300  0.87715400  0.42039000  1
  O  O18  1  0.98650700  0.37715400  0.07961000  1
  O  O19  1  0.51349300  0.62284600  0.57961000  1
  O  O20  1  0.55081800  0.34909500  0.98495900  1
  O  O21  1  0.94918200  0.65090500  0.48495900  1
  O  O22  1  0.05081800  0.15090500  0.01504100  1
  O  O23  1  0.44918200  0.84909500  0.51504100  1
  O  O24  1  0.81360500  0.38222800  0.32534400  1
  O  O25  1  0.68639500  0.61777200  0.82534400  1
  O  O26  1  0.31360500  0.11777200  0.67465600  1
  O  O27  1  0.18639500  0.88222800  0.17465600  1
  O  O28  1  0.44184400  0.15551600  0.50793000  1
  O  O29  1  0.05815600  0.84448400  0.00793000  1
  O  O30  1  0.94184400  0.34448400  0.49207000  1
  O  O31  1  0.55815600  0.65551600  0.99207000  1
  O  O32  1  0.79603400  0.62758100  0.32548700  1
  O  O33  1  0.70396600  0.37241900  0.82548700  1
  O  O34  1  0.29603400  0.87241900  0.67451300  1
  O  O35  1  0.20396600  0.12758100  0.17451300  1
  O  O36  1  0.51074100  0.37846400  0.57487600  1
  O  O37  1  0.98925900  0.62153600  0.07487600  1
  O  O38  1  0.01074100  0.12153600  0.42512400  1
  O  O39  1  0.48925900  0.87846400  0.92512400  1
loop_
_geom_bond_atom_site_label_1
_geom_bond_atom_site_label_2
_geom_bond_distance
_geom_bond_site_symmetry_2
Na0 O11 2.488013 1_545
Na0 O12 2.495738 1_555
Na0 O38 2.677906 1_655
Na0 O17 2.744450 1_645
Na0 O23 2.867658 1_545
Na0 O28 2.889208 1_555
Na1 O10 2.488013 1_565
Na1 O13 2.495738 1_555
Na1 O39 2.677906 1_555
Na1 O16 2.744450 1_565
Na1 O22 2.867658 1_666
Na1 O29 2.889208 1_656
Na2 O9 2.488013 1_555
Na2 O14 2.495738 1_555
Na2 O36 2.677906 1_555
Na2 O19 2.744450 1_555
Na2 O21 2.867658 1_455
Na2 O30 2.889208 1_455
Na3 O8 2.488013 1_555
Na3 O15 2.495738 1_555
Na3 O37 2.677906 1_455
Na3 O18 2.744450 1_455
Na3 O20 2.867658 1_554
Na3 O31 2.889208 1_554
Na4 O33 2.292516 1_555
Na4 O26 2.314857 1_555
Na4 O16 2.520028 1_555
Na4 O36 2.662231 1_555
Na5 O32 2.292516 1_555
Na5 O27 2.314857 1_655
Na5 O17 2.520028 1_655
Na5 O37 2.662231 1_555
Na6 O35 2.292516 1_555
Na6 O24 2.314857 1_455
Na6 O18 2.520028 1_455
Na6 O38 2.662231 1_555
Na7 O34 2.292516 1_555
Na7 O25 2.314857 1_555
Na7 O19 2.520028 1_555
Na7 O39 2.662231 1_555
B0 O20 1.364657 1_555
B0 O8 1.375951 1_556
B0 O16 1.380257 1_555
B1 O21 1.364657 1_455
B1 O9 1.375951 1_555
B1 O17 1.380257 1_555
B2 O22 1.364657 1_655
B2 O10 1.375951 1_554
B2 O18 1.380257 1_555
B3 O23 1.364657 1_555
B3 O11 1.375951 1_555
B3 O19 1.380257 1_555
B4 O28 1.361801 1_555
B4 O12 1.378280 1_555
B4 O36 1.381777 1_555
B5 O29 1.361801 1_655
B5 O13 1.378280 1_554
B5 O37 1.381777 1_555
B6 O30 1.361801 1_455
B6 O14 1.378280 1_555
B6 O38 1.381777 1_555
B7 O31 1.361801 1_555
B7 O15 1.378280 1_556
B7 O39 1.381777 1_555
B8 O4 1.366986 1_555
B8 O32 1.374945 1_555
B8 O24 1.375282 1_555
B9 O5 1.366986 1_555
B9 O33 1.374945 1_555
B9 O25 1.375282 1_555
B10 O6 1.366986 1_555
B10 O34 1.374945 1_555
B10 O26 1.375282 1_565
B11 O7 1.366986 1_555
B11 O35 1.374945 1_555
B11 O27 1.375282 1_545
B12 O30 1.450507 1_555
B12 O12 1.463613 1_555
B12 O24 1.483309 1_555
B12 O0 1.536089 1_555
B13 O31 1.450507 1_555
B13 O13 1.463613 1_555
B13 O25 1.483309 1_555
B13 O1 1.536089 1_555
B14 O28 1.450507 1_555
B14 O14 1.463613 1_555
B14 O26 1.483309 1_555
B14 O2 1.536089 1_545
B15 O29 1.450507 1_555
B15 O15 1.463613 1_555
B15 O27 1.483309 1_555
B15 O3 1.536089 1_565
B16 O4 1.445682 1_555
B16 O37 1.479317 1_555
B16 O18 1.484676 1_555
B16 O1 1.527577 1_554
B17 O5 1.445682 1_555
B17 O36 1.479317 1_555
B17 O19 1.484676 1_555
B17 O0 1.527577 1_555
B18 O6 1.445682 1_555
B18 O39 1.479317 1_555
B18 O16 1.484676 1_565
B18 O3 1.527577 1_566
B19 O7 1.445682 1_555
B19 O38 1.479317 1_555
B19 O17 1.484676 1_545
B19 O2 1.527577 1_545
B20 O22 1.450386 1_555
B20 O8 1.458840 1_555
B20 O35 1.482725 1_555
B20 O3 1.531093 1_555
B21 O23 1.450386 1_555
B21 O9 1.458840 1_555
B21 O34 1.482725 1_555
B21 O2 1.531093 1_555
B22 O20 1.450386 1_555
B22 O10 1.458840 1_555
B22 O33 1.482725 1_555
B22 O1 1.531093 1_555
B23 O21 1.450386 1_555
B23 O11 1.458840 1_555
B23 O32 1.482725 1_555
B23 O0 1.531093 1_555
Cl0 Na6 2.794251 1_555
Cl0 Na2 2.984505 1_555
Cl0 Rb3 3.230191 1_555
Cl0 Rb0 3.283945 1_555
Cl1 Na7 2.794251 1_555
Cl1 Na3 2.984505 1_556
Cl1 Rb2 3.230191 1_555
Cl1 Rb1 3.283945 1_455
Cl2 Na4 2.794251 1_555
Cl2 Na0 2.984505 1_555
Cl2 Rb1 3.230191 1_545
Cl2 Rb2 3.283945 1_655
Cl3 Na5 2.794251 1_555
Cl3 Na1 2.984505 1_554
Cl3 Rb0 3.230191 1_565
Cl3 Rb3 3.283945 1_555
O4 Rb0 3.403204 1_555
O5 Rb1 3.403204 1_555
O6 Rb2 3.403204 1_565
O7 Rb3 3.403204 1_545
O8 Rb0 3.155009 1_555
O9 Rb1 3.155009 1_455
O10 Rb2 3.155009 1_655
O11 Rb3 3.155009 1_555
O12 Rb0 3.082167 1_555
O13 Rb1 3.082167 1_555
O14 Rb2 3.082167 1_555
O15 Rb3 3.082167 1_555
O20 Rb0 3.401180 1_556
O21 Rb1 3.401180 1_555
O22 Rb2 3.401180 1_554
O23 Rb3 3.401180 1_555
O24 Rb0 2.992198 1_555
O25 Rb1 2.992198 1_555
O26 Rb2 2.992198 1_555
O27 Rb3 2.992198 1_555
O32 Rb3 3.032387 1_555
O33 Rb2 3.032387 1_655
O34 Rb1 3.032387 1_455
O35 Rb0 3.032387 1_555
