# generated using pymatgen
data_Mg6CuMo
_symmetry_space_group_name_H-M   'P 1'
_cell_length_a   4.80993200
_cell_length_b   6.06691200
_cell_length_c   10.55455400
_cell_angle_alpha   90.00000000
_cell_angle_beta   90.00000000
_cell_angle_gamma   90.00000000
_symmetry_Int_Tables_number   1
_chemical_formula_structural   Mg6CuMo
_chemical_formula_sum   'Mg12 Cu2 Mo2'
_cell_volume   307.99702274
_cell_formula_units_Z   2
loop_
 _symmetry_equiv_pos_site_id
 _symmetry_equiv_pos_as_xyz
  1  'x, y, z'
loop_
 _atom_site_type_symbol
 _atom_site_label
 _atom_site_symmetry_multiplicity
 _atom_site_fract_x
 _atom_site_fract_y
 _atom_site_fract_z
 _atom_site_occupancy
  Mg  Mg0  1  0.00000000  0.26394800  0.09117700  1
  Mg  Mg1  1  0.00000000  0.73605200  0.09117700  1
  Mg  Mg2  1  0.00000000  0.00000000  0.33389000  1
  Mg  Mg3  1  0.50000000  0.74019300  0.41501800  1
  Mg  Mg4  1  0.50000000  0.25980700  0.41501800  1
  Mg  Mg5  1  0.50000000  0.00000000  0.16585900  1
  Mg  Mg6  1  0.00000000  0.76394800  0.59117700  1
  Mg  Mg7  1  0.00000000  0.23605200  0.59117700  1
  Mg  Mg8  1  0.00000000  0.50000000  0.83389000  1
  Mg  Mg9  1  0.50000000  0.24019300  0.91501800  1
  Mg  Mg10  1  0.50000000  0.75980700  0.91501800  1
  Mg  Mg11  1  0.50000000  0.50000000  0.66585900  1
  Cu  Cu0  1  0.00000000  0.50000000  0.31734900  1
  Cu  Cu1  1  0.00000000  0.00000000  0.81734900  1
  Mo  Mo0  1  0.50000000  0.50000000  0.17051200  1
  Mo  Mo1  1  0.50000000  0.00000000  0.67051200  1
loop_
_geom_bond_atom_site_label_1
_geom_bond_atom_site_label_2
_geom_bond_distance
_geom_bond_site_symmetry_2
Mg0 Mo0 2.921633 1_455
Mg0 Mo0 2.921633 1_555
Mg0 Mg5 2.994912 1_555
Mg0 Mg5 2.994912 1_455
Mg0 Mg2 3.021054 1_555
Mg0 Mg9 3.043280 1_454
Mg0 Mg9 3.043280 1_554
Mg0 Mg8 3.070039 1_554
Mg1 Mo0 2.921633 1_455
Mg1 Mo0 2.921633 1_555
Mg1 Mg5 2.994912 1_465
Mg1 Mg5 2.994912 1_565
Mg1 Mg2 3.021054 1_565
Mg1 Mg10 3.043280 1_554
Mg1 Mg10 3.043280 1_454
Mg1 Mg8 3.070039 1_554
Mg2 Mg5 2.988166 1_555
Mg2 Mg5 2.988166 1_455
Mg2 Mg4 3.000258 1_455
Mg2 Mg3 3.000258 1_545
Mg2 Mg3 3.000258 1_445
Mg2 Mg4 3.000258 1_555
Mg2 Mg7 3.070039 1_555
Mg2 Mg6 3.070039 1_545
Mg3 Mg4 2.914460 1_555
Mg3 Mo0 2.963660 1_555
Mg3 Mg6 3.043280 1_655
Mg3 Mg6 3.043280 1_555
Mg3 Mg5 3.065964 1_565
Mg3 Mo1 3.123504 1_565
Mg3 Mg4 3.152452 1_565
Mg4 Mo0 2.963660 1_555
Mg4 Mg7 3.043280 1_555
Mg4 Mg7 3.043280 1_655
Mg4 Mg5 3.065964 1_555
Mg4 Mo1 3.123504 1_555
Mg5 Mg9 3.022061 1_554
Mg5 Mo0 3.033854 1_545
Mg5 Mo0 3.033854 1_555
Mg6 Mo1 2.921633 1_465
Mg6 Mo1 2.921633 1_565
Mg6 Mg8 3.021054 1_555
Mg7 Mo1 2.921633 1_555
Mg7 Mo1 2.921633 1_455
Mg7 Mg8 3.021054 1_555
Mg8 Mg9 3.000258 1_455
Mg8 Mg9 3.000258 1_555
Mg9 Mo1 2.963660 1_555
Mg9 Mo0 3.123504 1_556
Mg10 Mg9 2.914460 1_565
Mg10 Mo1 2.963660 1_565
Mg10 Mg8 3.000258 1_555
Mg10 Mg8 3.000258 1_655
Mg10 Mg5 3.022061 1_566
Mg10 Mg11 3.065964 1_555
Mg10 Mo0 3.123504 1_556
Mg10 Mg9 3.152452 1_555
Mg11 Mg8 2.988166 1_555
Mg11 Mg8 2.988166 1_655
Mg11 Mg7 2.994912 1_655
Mg11 Mg6 2.994912 1_555
Mg11 Mg7 2.994912 1_555
Mg11 Mg6 2.994912 1_655
Mg11 Mg3 3.022061 1_555
Mg11 Mg4 3.022061 1_555
Mg11 Mo1 3.033854 1_555
Mg11 Mo1 3.033854 1_565
Mg11 Mg9 3.065964 1_555
Cu0 Mg0 2.783772 1_555
Cu0 Mg1 2.783772 1_555
Cu0 Mo0 2.861073 1_455
Cu0 Mo0 2.861073 1_555
Cu0 Mg3 2.995002 1_555
Cu0 Mg3 2.995002 1_455
Cu0 Mg4 2.995002 1_455
Cu0 Mg4 2.995002 1_555
Cu0 Mg2 3.038476 1_565
Cu0 Mg2 3.038476 1_555
Cu0 Mg7 3.304116 1_555
Cu0 Mg6 3.304116 1_555
Cu1 Mg6 2.783772 1_545
Cu1 Mg7 2.783772 1_555
Cu1 Mo1 2.861073 1_455
Cu1 Mo1 2.861073 1_555
Cu1 Mg9 2.995002 1_455
Cu1 Mg9 2.995002 1_555
Cu1 Mg10 2.995002 1_445
Cu1 Mg10 2.995002 1_545
Cu1 Mg8 3.038476 1_555
Cu1 Mg8 3.038476 1_545
Cu1 Mg1 3.304116 1_546
Cu1 Mg0 3.304116 1_556
