# generated using pymatgen
data_K3Ag3As2
_symmetry_space_group_name_H-M   'P 1'
_cell_length_a   7.93345811
_cell_length_b   7.93345798
_cell_length_c   7.93345782
_cell_angle_alpha   44.33422618
_cell_angle_beta   44.33423035
_cell_angle_gamma   44.33422378
_symmetry_Int_Tables_number   1
_chemical_formula_structural   K3Ag3As2
_chemical_formula_sum   'K3 Ag3 As2'
_cell_volume   221.64856656
_cell_formula_units_Z   1
loop_
 _symmetry_equiv_pos_site_id
 _symmetry_equiv_pos_as_xyz
  1  'x, y, z'
loop_
 _atom_site_type_symbol
 _atom_site_label
 _atom_site_symmetry_multiplicity
 _atom_site_fract_x
 _atom_site_fract_y
 _atom_site_fract_z
 _atom_site_occupancy
  K  K0  1  0.09104626  0.09104626  0.09104626  1
  K  K1  1  0.90895374  0.90895374  0.90895374  1
  K  K2  1  0.50000000  0.50000000  0.50000000  1
  Ag  Ag0  1  0.50000000  0.00000000  0.50000000  1
  Ag  Ag1  1  0.50000000  0.50000000  -0.00000000  1
  Ag  Ag2  1  -0.00000000  0.50000000  0.50000000  1
  As  As0  1  0.75453442  0.75453442  0.75453442  1
  As  As1  1  0.24546558  0.24546558  0.24546558  1
loop_
_geom_bond_atom_site_label_1
_geom_bond_atom_site_label_2
_geom_bond_distance
_geom_bond_site_symmetry_2
K0 K2 3.817249 1_545
K0 K2 3.817249 1_455
K0 K2 3.817250 1_554
K1 K2 3.817249 1_565
K1 K2 3.817249 1_655
K1 K2 3.817250 1_556
Ag0 As1 2.555399 1_555
Ag0 As0 2.555399 1_545
Ag0 K1 3.572751 1_544
Ag0 K0 3.572751 1_556
Ag0 K0 3.572752 1_655
Ag0 K1 3.572752 1_445
Ag0 K2 3.966729 1_555
Ag0 K2 3.966729 1_545
Ag1 As1 2.555400 1_555
Ag1 As0 2.555400 1_554
Ag1 K1 3.572751 1_454
Ag1 K0 3.572751 1_655
Ag1 K1 3.572751 1_544
Ag1 K0 3.572751 1_565
Ag1 K2 3.966729 1_554
Ag1 K2 3.966729 1_555
Ag2 As1 2.555400 1_555
Ag2 As0 2.555400 1_455
Ag2 K0 3.572751 1_556
Ag2 K1 3.572751 1_454
Ag2 K1 3.572751 1_445
Ag2 K0 3.572751 1_565
Ag2 K2 3.966729 1_455
Ag2 K2 3.966729 1_555
As0 K1 3.308089 1_555
As0 K0 3.457113 1_656
As0 K0 3.457114 1_566
As0 K0 3.457114 1_665
As0 K2 3.846641 1_565
As0 K2 3.846641 1_556
As0 K2 3.846641 1_655
As1 K0 3.308089 1_555
As1 K1 3.457113 1_454
As1 K1 3.457114 1_544
As1 K1 3.457114 1_445
As1 K2 3.846641 1_545
As1 K2 3.846641 1_554
As1 K2 3.846641 1_455
