# generated using pymatgen
data_La6Mg(SiS7)2
_symmetry_space_group_name_H-M   'P 1'
_cell_length_a   10.41066444
_cell_length_b   10.41066444
_cell_length_c   5.76531400
_cell_angle_alpha   90.00000000
_cell_angle_beta   90.00000000
_cell_angle_gamma   120.00000278
_symmetry_Int_Tables_number   1
_chemical_formula_structural   La6Mg(SiS7)2
_chemical_formula_sum   'La6 Mg1 Si2 S14'
_cell_volume   541.14105205
_cell_formula_units_Z   1
loop_
 _symmetry_equiv_pos_site_id
 _symmetry_equiv_pos_as_xyz
  1  'x, y, z'
loop_
 _atom_site_type_symbol
 _atom_site_label
 _atom_site_symmetry_multiplicity
 _atom_site_fract_x
 _atom_site_fract_y
 _atom_site_fract_z
 _atom_site_occupancy
  La  La0  1  0.64311500  0.76510000  0.75212800  1
  La  La1  1  0.12198500  0.35688500  0.75212800  1
  La  La2  1  0.23490000  0.87801500  0.75212800  1
  La  La3  1  0.35699900  0.23513900  0.25046800  1
  La  La4  1  0.87814000  0.64300100  0.25046800  1
  La  La5  1  0.76486100  0.12186000  0.25046800  1
  Mg  Mg0  1  0.00000000  0.00000000  0.50842300  1
  Si  Si0  1  0.33333300  0.66666700  0.16826400  1
  Si  Si1  1  0.66666700  0.33333300  0.66630800  1
  S  S0  1  0.33333300  0.66666700  0.53309200  1
  S  S1  1  0.66666700  0.33333300  0.03169900  1
  S  S2  1  0.75614600  0.83883100  0.27097400  1
  S  S3  1  0.08268500  0.24385400  0.27097400  1
  S  S4  1  0.16116900  0.91731500  0.27097400  1
  S  S5  1  0.24297300  0.16240500  0.75106000  1
  S  S6  1  0.91943300  0.75702700  0.75106000  1
  S  S7  1  0.83759500  0.08056700  0.75106000  1
  S  S8  1  0.47568200  0.88346000  0.02681500  1
  S  S9  1  0.40777700  0.52431800  0.02681500  1
  S  S10  1  0.11654000  0.59222300  0.02681500  1
  S  S11  1  0.52460700  0.11651700  0.52565700  1
  S  S12  1  0.59191000  0.47539300  0.52565700  1
  S  S13  1  0.88348300  0.40809000  0.52565700  1
loop_
_geom_bond_atom_site_label_1
_geom_bond_atom_site_label_2
_geom_bond_distance
_geom_bond_site_symmetry_2
La0 S7 2.869837 1_565
La0 S6 2.919591 1_555
La0 S9 2.941540 1_556
La0 S2 2.960698 1_555
La0 S8 3.035211 1_556
La0 S12 3.078585 1_555
La0 S0 3.121026 1_555
La0 S2 3.165213 1_556
La1 S5 2.869846 1_555
La1 S7 2.919585 1_455
La1 S10 2.941545 1_556
La1 S3 2.960698 1_555
La1 S9 3.035203 1_556
La1 S13 3.078586 1_455
La1 S0 3.121024 1_555
La1 S3 3.165213 1_556
La2 S6 2.869836 1_455
La2 S5 2.919580 1_565
La2 S8 2.941536 1_556
La2 S4 2.960698 1_555
La2 S10 3.035203 1_556
La2 S11 3.078585 1_565
La2 S0 3.121017 1_555
La2 S4 3.165213 1_556
La3 S4 2.893546 1_545
La3 S3 2.904626 1_555
La3 S12 2.938900 1_555
La3 S11 3.040028 1_555
La3 S5 3.061652 1_554
La3 S5 3.068072 1_555
La3 S9 3.068223 1_555
La3 S1 3.119841 1_555
La4 S2 2.893546 1_555
La4 S4 2.904626 1_655
La4 S13 2.938900 1_555
La4 S12 3.040028 1_555
La4 S6 3.061651 1_554
La4 S6 3.068072 1_555
La4 S10 3.068214 1_655
La4 S1 3.119839 1_555
La5 S3 2.893546 1_655
La5 S2 2.904626 1_545
La5 S11 2.938900 1_555
La5 S13 3.040028 1_555
La5 S7 3.061655 1_554
La5 S7 3.068075 1_555
La5 S8 3.068220 1_545
La5 S1 3.119832 1_555
Mg0 S2 2.621956 1_445
Mg0 S3 2.621956 1_555
Mg0 S4 2.621956 1_545
Mg0 S7 2.633839 1_455
Mg0 S5 2.633846 1_555
Mg0 S6 2.633848 1_445
S0 Si0 2.103348 1_555
S1 Si1 2.106594 1_554
S8 Si0 2.147178 1_555
S9 Si0 2.147178 1_555
S10 Si0 2.147178 1_555
S11 Si1 2.145111 1_555
S12 Si1 2.145118 1_555
S13 Si1 2.145109 1_555
