# generated using pymatgen
data_BaLiMg2AlSi3(O5F)2
_symmetry_space_group_name_H-M   'P 1'
_cell_length_a   5.30747500
_cell_length_b   5.31822056
_cell_length_c   10.29598424
_cell_angle_alpha   95.55993112
_cell_angle_beta   94.66060520
_cell_angle_gamma   119.82596185
_symmetry_Int_Tables_number   1
_chemical_formula_structural   BaLiMg2AlSi3(O5F)2
_chemical_formula_sum   'Ba1 Li1 Mg2 Al1 Si3 O10 F2'
_cell_volume   248.10076641
_cell_formula_units_Z   1
loop_
 _symmetry_equiv_pos_site_id
 _symmetry_equiv_pos_as_xyz
  1  'x, y, z'
loop_
 _atom_site_type_symbol
 _atom_site_label
 _atom_site_symmetry_multiplicity
 _atom_site_fract_x
 _atom_site_fract_y
 _atom_site_fract_z
 _atom_site_occupancy
  Ba  Ba0  1  0.99110400  0.99139900  0.97350500  1
  Li  Li0  1  0.49228900  0.49894500  0.50575800  1
  Mg  Mg0  1  0.16811300  0.83495800  0.50295400  1
  Mg  Mg1  1  0.83901900  0.17056400  0.50215100  1
  Al  Al0  1  0.25840800  0.59165100  0.76753400  1
  Si  Si0  1  0.59571500  0.25916700  0.77855100  1
  Si  Si1  1  0.74195600  0.40817400  0.22924600  1
  Si  Si2  1  0.40902400  0.74570200  0.22936200  1
  O  O0  1  0.48728000  0.47764300  0.84449300  1
  O  O1  1  0.53552100  0.53592200  0.16434700  1
  O  O2  1  0.94241100  0.41434400  0.84667300  1
  O  O3  1  0.42441600  0.96098500  0.84744100  1
  O  O4  1  0.05326500  0.56986800  0.16210000  1
  O  O5  1  0.56964800  0.05245000  0.16032600  1
  O  O6  1  0.19421900  0.53575900  0.59975400  1
  O  O7  1  0.54138800  0.19666100  0.61918900  1
  O  O8  1  0.79900700  0.45873200  0.38551600  1
  O  O9  1  0.46495200  0.81190800  0.38580900  1
  F  F0  1  0.87397500  0.87583400  0.60359700  1
  F  F1  1  0.11828800  0.10933600  0.39169400  1
loop_
_geom_bond_atom_site_label_1
_geom_bond_atom_site_label_2
_geom_bond_distance
_geom_bond_site_symmetry_2
Ba0 O3 2.795411 1_655
Ba0 O0 2.798564 1_555
Ba0 O2 2.814969 1_565
Ba0 O2 3.093525 1_555
Ba0 O3 3.098063 1_555
Ba0 O0 3.137916 1_665
Ba0 O5 3.179545 1_566
Ba0 O1 3.201147 1_666
Ba0 O4 3.221813 1_656
Ba0 O4 3.327527 1_666
Ba0 O5 3.340863 1_666
Ba0 O1 3.382791 1_556
Li0 O6 1.999460 1_555
Li0 O7 2.178843 1_555
Li0 O8 2.202492 1_555
Li0 O9 2.219440 1_555
Mg0 O6 2.012119 1_555
Mg0 O9 2.103357 1_555
Mg0 O7 2.105988 1_565
Mg0 O8 2.133164 1_455
Mg1 O6 2.001941 1_655
Mg1 O9 2.102036 1_545
Mg1 O7 2.112276 1_555
Mg1 O8 2.115370 1_555
Al0 O6 1.700785 1_555
Al0 O0 1.772107 1_555
Al0 O3 1.777305 1_555
Al0 O2 1.778684 1_455
O0 Si0 1.648637 1_555
O1 Si2 1.678372 1_555
O1 Si1 1.678678 1_555
O2 Si0 1.651195 1_555
O3 Si0 1.653184 1_565
O4 Si2 1.680748 1_555
O4 Si1 1.683708 1_455
O5 Si1 1.682936 1_555
O5 Si2 1.683169 1_545
O7 Si0 1.614903 1_555
O8 Si1 1.583896 1_555
O9 Si2 1.585913 1_555
F0 Mg0 2.028534 1_655
F0 Mg1 2.038936 1_565
F0 Li0 2.091451 1_555
F1 Mg0 2.042050 1_545
F1 Mg1 2.068485 1_455
F1 Li0 2.161264 1_555
