# generated using pymatgen
data_Hf10(AlSi)3
_symmetry_space_group_name_H-M   'P 1'
_cell_length_a   7.99383682
_cell_length_b   7.99383682
_cell_length_c   5.59993600
_cell_angle_alpha   90.00000000
_cell_angle_beta   90.00000000
_cell_angle_gamma   120.00000681
_symmetry_Int_Tables_number   1
_chemical_formula_structural   Hf10(AlSi)3
_chemical_formula_sum   'Hf10 Al3 Si3'
_cell_volume   309.90188877
_cell_formula_units_Z   1
loop_
 _symmetry_equiv_pos_site_id
 _symmetry_equiv_pos_as_xyz
  1  'x, y, z'
loop_
 _atom_site_type_symbol
 _atom_site_label
 _atom_site_symmetry_multiplicity
 _atom_site_fract_x
 _atom_site_fract_y
 _atom_site_fract_z
 _atom_site_occupancy
  Hf  Hf0  1  0.33333300  0.66666700  0.75199500  1
  Hf  Hf1  1  0.66666700  0.33333300  0.75199500  1
  Hf  Hf2  1  0.66666700  0.33333300  0.24800500  1
  Hf  Hf3  1  0.33333300  0.66666700  0.24800500  1
  Hf  Hf4  1  0.75409800  0.00000000  0.50000000  1
  Hf  Hf5  1  0.00000000  0.75409800  0.50000000  1
  Hf  Hf6  1  0.24590200  0.24590200  0.50000000  1
  Hf  Hf7  1  0.24563300  0.00000000  0.00000000  1
  Hf  Hf8  1  0.00000000  0.24563300  0.00000000  1
  Hf  Hf9  1  0.75436700  0.75436700  0.00000000  1
  Al  Al0  1  0.39229000  0.00000000  0.50000000  1
  Al  Al1  1  0.00000000  0.39229000  0.50000000  1
  Al  Al2  1  0.60771000  0.60771000  0.50000000  1
  Si  Si0  1  0.60973000  0.00000000  0.00000000  1
  Si  Si1  1  0.00000000  0.60973000  0.00000000  1
  Si  Si2  1  0.39027000  0.39027000  0.00000000  1
loop_
_geom_bond_atom_site_label_1
_geom_bond_atom_site_label_2
_geom_bond_distance
_geom_bond_site_symmetry_2
Hf0 Si1 2.832546 1_556
Hf0 Si0 2.832548 1_566
Hf0 Si2 2.832553 1_556
Hf1 Si0 2.832546 1_556
Hf1 Si1 2.832548 1_656
Hf1 Si2 2.832553 1_556
Hf2 Si0 2.832546 1_555
Hf2 Si1 2.832548 1_655
Hf2 Si2 2.832553 1_555
Hf3 Si1 2.832546 1_555
Hf3 Si0 2.832548 1_565
Hf3 Si2 2.832553 1_555
Hf4 Si0 3.028475 1_555
Hf4 Si0 3.028475 1_556
Hf5 Si1 3.028475 1_556
Hf5 Si1 3.028475 1_555
Hf6 Si2 3.028475 1_555
Hf6 Si2 3.028475 1_556
Hf7 Si1 2.731776 1_545
Hf7 Si2 2.731777 1_555
Hf7 Si0 2.910532 1_555
Hf8 Si0 2.731776 1_455
Hf8 Si2 2.731777 1_555
Hf8 Si1 2.910532 1_555
Hf9 Si1 2.731777 1_655
Hf9 Si0 2.731777 1_565
Hf9 Si2 2.910532 1_555
Al0 Hf5 2.744743 1_545
Al0 Hf6 2.744744 1_555
Al0 Hf0 2.838628 1_545
Al0 Hf3 2.838628 1_545
Al0 Hf1 2.838631 1_555
Al0 Hf2 2.838631 1_555
Al0 Hf4 2.892234 1_555
Al0 Hf7 3.035495 1_556
Al0 Hf7 3.035495 1_555
Al1 Hf4 2.744743 1_455
Al1 Hf6 2.744744 1_555
Al1 Hf1 2.838628 1_455
Al1 Hf2 2.838628 1_455
Al1 Hf0 2.838631 1_555
Al1 Hf3 2.838631 1_555
Al1 Hf5 2.892234 1_555
Al1 Hf8 3.035495 1_556
Al1 Hf8 3.035495 1_555
Al2 Hf5 2.744743 1_655
Al2 Hf4 2.744743 1_565
Al2 Hf1 2.838635 1_555
Al2 Hf0 2.838635 1_555
Al2 Hf2 2.838635 1_555
Al2 Hf3 2.838635 1_555
Al2 Hf6 2.892234 1_555
Al2 Hf9 3.035495 1_555
Al2 Hf9 3.035495 1_556
