# generated using pymatgen
data_Cu6AuN2
_symmetry_space_group_name_H-M   'P 1'
_cell_length_a   3.89107500
_cell_length_b   3.89107500
_cell_length_c   7.85811200
_cell_angle_alpha   90.00000000
_cell_angle_beta   90.00000000
_cell_angle_gamma   90.00000000
_symmetry_Int_Tables_number   1
_chemical_formula_structural   Cu6AuN2
_chemical_formula_sum   'Cu6 Au1 N2'
_cell_volume   118.97546700
_cell_formula_units_Z   1
loop_
 _symmetry_equiv_pos_site_id
 _symmetry_equiv_pos_as_xyz
  1  'x, y, z'
loop_
 _atom_site_type_symbol
 _atom_site_label
 _atom_site_symmetry_multiplicity
 _atom_site_fract_x
 _atom_site_fract_y
 _atom_site_fract_z
 _atom_site_occupancy
  Cu  Cu0  1  0.50000000  0.50000000  0.00000000  1
  Cu  Cu1  1  0.50000000  0.50000000  0.50000000  1
  Cu  Cu2  1  0.50000000  0.00000000  0.25186200  1
  Cu  Cu3  1  0.50000000  0.00000000  0.74813800  1
  Cu  Cu4  1  0.00000000  0.50000000  0.25186200  1
  Cu  Cu5  1  0.00000000  0.50000000  0.74813800  1
  Au  Au0  1  0.00000000  0.00000000  0.00000000  1
  N  N0  1  0.50000000  0.50000000  0.26129000  1
  N  N1  1  0.50000000  0.50000000  0.73871000  1
loop_
_geom_bond_atom_site_label_1
_geom_bond_atom_site_label_2
_geom_bond_distance
_geom_bond_site_symmetry_2
Cu0 N1 2.053246 1_554
Cu0 N0 2.053246 1_555
Cu1 N0 1.875810 1_555
Cu1 N1 1.875810 1_555
Cu2 N0 1.946948 1_545
Cu2 N0 1.946948 1_555
Cu3 N1 1.946948 1_555
Cu3 N1 1.946948 1_545
Cu4 N0 1.946948 1_455
Cu4 N0 1.946948 1_555
Cu5 N1 1.946948 1_455
Cu5 N1 1.946948 1_555
Au0 Cu0 2.751406 1_555
Au0 Cu0 2.751406 1_545
Au0 Cu0 2.751406 1_445
Au0 Cu0 2.751406 1_455
Au0 Cu2 2.775282 1_555
Au0 Cu3 2.775282 1_454
Au0 Cu2 2.775282 1_455
Au0 Cu5 2.775282 1_554
Au0 Cu4 2.775282 1_555
Au0 Cu4 2.775282 1_545
Au0 Cu3 2.775282 1_554
Au0 Cu5 2.775282 1_544
