# generated using pymatgen
data_Ti2Se3
_symmetry_space_group_name_H-M   'P 1'
_cell_length_a   6.29334340
_cell_length_b   6.29334340
_cell_length_c   11.96459295
_cell_angle_alpha   90.00000000
_cell_angle_beta   90.00000000
_cell_angle_gamma   120.00000401
_symmetry_Int_Tables_number   1
_chemical_formula_structural   Ti2Se3
_chemical_formula_sum   'Ti8 Se12'
_cell_volume   410.38492786
_cell_formula_units_Z   4
loop_
 _symmetry_equiv_pos_site_id
 _symmetry_equiv_pos_as_xyz
  1  'x, y, z'
loop_
 _atom_site_type_symbol
 _atom_site_label
 _atom_site_symmetry_multiplicity
 _atom_site_fract_x
 _atom_site_fract_y
 _atom_site_fract_z
 _atom_site_occupancy
  Ti  Ti0  1  0.66666700  0.33333300  0.50542537  1
  Ti  Ti1  1  0.33333300  0.66666700  0.49457463  1
  Ti  Ti2  1  0.66666700  0.33333300  0.99457463  1
  Ti  Ti3  1  0.33333300  0.66666700  0.00542537  1
  Ti  Ti4  1  -0.00000000  -0.00000000  0.50000000  1
  Ti  Ti5  1  -0.00000000  -0.00000000  0.00000000  1
  Ti  Ti6  1  0.66666700  0.33333300  0.75000000  1
  Ti  Ti7  1  0.33333300  0.66666700  0.25000000  1
  Se  Se0  1  0.66605073  0.99546296  0.62734432  1
  Se  Se1  1  0.33394927  0.00453704  0.37265568  1
  Se  Se2  1  0.00453704  0.67058777  0.62734432  1
  Se  Se3  1  0.66605073  0.67058777  0.87265568  1
  Se  Se4  1  0.99546296  0.32941223  0.37265568  1
  Se  Se5  1  0.33394927  0.32941223  0.12734432  1
  Se  Se6  1  0.32941223  0.33394927  0.62734432  1
  Se  Se7  1  0.00453704  0.33394927  0.87265568  1
  Se  Se8  1  0.67058777  0.66605073  0.37265568  1
  Se  Se9  1  0.99546296  0.66605073  0.12734432  1
  Se  Se10  1  0.32941223  0.99546296  0.87265568  1
  Se  Se11  1  0.67058777  0.00453704  0.12734432  1
loop_
_geom_bond_atom_site_label_1
_geom_bond_atom_site_label_2
_geom_bond_distance
_geom_bond_site_symmetry_2
Se0 Ti0 2.576993 1_565
Se0 Ti6 2.581993 1_565
Se0 Ti4 2.584414 1_665
Se0 Ti1 2.618553 1_555
Se1 Ti1 2.576993 1_545
Se1 Ti7 2.581993 1_545
Se1 Ti4 2.584414 1_555
Se1 Ti0 2.618553 1_555
Se2 Ti0 2.576996 1_455
Se2 Ti6 2.581995 1_455
Se2 Ti4 2.584414 1_565
Se2 Ti1 2.618550 1_555
Se3 Ti2 2.576998 1_555
Se3 Ti6 2.581998 1_555
Se3 Ti5 2.584414 1_666
Se3 Ti3 2.618555 1_556
Se4 Ti1 2.576996 1_655
Se4 Ti7 2.581995 1_655
Se4 Ti4 2.584414 1_655
Se4 Ti0 2.618550 1_555
Se5 Ti3 2.576998 1_555
Se5 Ti7 2.581998 1_555
Se5 Ti5 2.584414 1_555
Se5 Ti2 2.618555 1_554
Se6 Ti0 2.576998 1_555
Se6 Ti6 2.581998 1_555
Se6 Ti4 2.584414 1_555
Se6 Ti1 2.618555 1_555
Se7 Ti2 2.576993 1_455
Se7 Ti6 2.581993 1_455
Se7 Ti5 2.584414 1_556
Se7 Ti3 2.618553 1_556
Se8 Ti1 2.576998 1_555
Se8 Ti7 2.581998 1_555
Se8 Ti4 2.584414 1_665
Se8 Ti0 2.618555 1_555
Se9 Ti3 2.576993 1_655
Se9 Ti7 2.581993 1_655
Se9 Ti5 2.584414 1_665
Se9 Ti2 2.618553 1_554
Se10 Ti2 2.576996 1_565
Se10 Ti6 2.581995 1_565
Se10 Ti5 2.584414 1_566
Se10 Ti3 2.618550 1_556
Se11 Ti3 2.576996 1_545
Se11 Ti7 2.581995 1_545
Se11 Ti5 2.584414 1_655
Se11 Ti2 2.618550 1_554
