# generated using pymatgen
data_Sc4Co4Ge7
_symmetry_space_group_name_H-M   'P 1'
_cell_length_a   9.73376224
_cell_length_b   9.73376224
_cell_length_c   9.73376224
_cell_angle_alpha   94.13795239
_cell_angle_beta   94.13795239
_cell_angle_gamma   148.83535423
_symmetry_Int_Tables_number   1
_chemical_formula_structural   Sc4Co4Ge7
_chemical_formula_sum   'Sc8 Co8 Ge14'
_cell_volume   459.71512557
_cell_formula_units_Z   2
loop_
 _symmetry_equiv_pos_site_id
 _symmetry_equiv_pos_as_xyz
  1  'x, y, z'
loop_
 _atom_site_type_symbol
 _atom_site_label
 _atom_site_symmetry_multiplicity
 _atom_site_fract_x
 _atom_site_fract_y
 _atom_site_fract_z
 _atom_site_occupancy
  Sc  Sc0  1  0.13973200  0.13973200  0.27946500  1
  Sc  Sc1  1  0.86026800  0.86026800  0.72053500  1
  Sc  Sc2  1  0.86026800  0.13973200  0.00000000  1
  Sc  Sc3  1  0.13973200  0.86026800  0.00000000  1
  Sc  Sc4  1  0.50000000  0.69613500  0.19613500  1
  Sc  Sc5  1  0.50000000  0.30386500  0.80386500  1
  Sc  Sc6  1  0.30386500  0.50000000  0.80386500  1
  Sc  Sc7  1  0.69613500  0.50000000  0.19613500  1
  Co  Co0  1  0.39811500  0.89811500  0.79623000  1
  Co  Co1  1  0.10188500  0.60188500  0.20377000  1
  Co  Co2  1  0.10188500  0.89811500  0.50000000  1
  Co  Co3  1  0.39811500  0.60188500  0.50000000  1
  Co  Co4  1  0.60188500  0.39811500  0.50000000  1
  Co  Co5  1  0.89811500  0.10188500  0.50000000  1
  Co  Co6  1  0.89811500  0.39811500  0.79623000  1
  Co  Co7  1  0.60188500  0.10188500  0.20377000  1
  Ge  Ge0  1  0.29305000  0.29305000  0.58610000  1
  Ge  Ge1  1  0.70695000  0.70695000  0.41390000  1
  Ge  Ge2  1  0.70695000  0.29305000  0.00000000  1
  Ge  Ge3  1  0.29305000  0.70695000  0.00000000  1
  Ge  Ge4  1  0.00000000  0.29130600  0.29130600  1
  Ge  Ge5  1  0.00000000  0.70869400  0.70869400  1
  Ge  Ge6  1  0.70869400  0.00000000  0.70869400  1
  Ge  Ge7  1  0.29130600  0.00000000  0.29130600  1
  Ge  Ge8  1  0.50000000  0.90618900  0.40618900  1
  Ge  Ge9  1  0.50000000  0.09381100  0.59381100  1
  Ge  Ge10  1  0.09381100  0.50000000  0.59381100  1
  Ge  Ge11  1  0.90618900  0.50000000  0.40618900  1
  Ge  Ge12  1  0.74760100  0.74760100  0.00000000  1
  Ge  Ge13  1  0.25239900  0.25239900  0.00000000  1
loop_
_geom_bond_atom_site_label_1
_geom_bond_atom_site_label_2
_geom_bond_distance
_geom_bond_site_symmetry_2
Co0 Ge3 2.451746 1_556
Co0 Ge2 2.451746 1_566
Co0 Ge9 2.466734 1_565
Co0 Ge10 2.466734 1_555
Co0 Ge5 2.492292 1_555
Co0 Ge6 2.492292 1_565
Co1 Ge2 2.451746 1_455
Co1 Ge3 2.451746 1_555
Co1 Ge11 2.466734 1_455
Co1 Ge8 2.466734 1_555
Co1 Ge7 2.492292 1_565
Co1 Ge4 2.492292 1_555
Co2 Ge1 2.451746 1_455
Co2 Ge0 2.451746 1_565
Co2 Ge11 2.466734 1_455
Co2 Ge9 2.466734 1_565
Co2 Ge5 2.492292 1_555
Co2 Ge7 2.492292 1_565
Co3 Ge1 2.451746 1_555
Co3 Ge0 2.451746 1_555
Co3 Ge8 2.466734 1_555
Co3 Ge10 2.466734 1_555
Co3 Ge6 2.492292 1_565
Co3 Ge4 2.492292 1_555
Co4 Ge1 2.451746 1_555
Co4 Ge0 2.451746 1_555
Co4 Ge11 2.466734 1_555
Co4 Ge9 2.466734 1_555
Co4 Ge5 2.492292 1_655
Co4 Ge7 2.492292 1_555
Co5 Ge1 2.451746 1_545
Co5 Ge0 2.451746 1_655
Co5 Ge8 2.466734 1_545
Co5 Ge10 2.466734 1_655
Co5 Ge6 2.492292 1_555
Co5 Ge4 2.492292 1_655
Co6 Ge2 2.451746 1_556
Co6 Ge3 2.451746 1_656
Co6 Ge10 2.466734 1_655
Co6 Ge9 2.466734 1_555
Co6 Ge5 2.492292 1_655
Co6 Ge6 2.492292 1_555
Co7 Ge3 2.451746 1_545
Co7 Ge2 2.451746 1_555
Co7 Ge8 2.466734 1_545
Co7 Ge11 2.466734 1_555
Co7 Ge4 2.492292 1_655
Co7 Ge7 2.492292 1_555
Ge0 Sc5 2.747833 1_555
Ge0 Sc6 2.747833 1_555
Ge0 Sc0 2.875011 1_555
Ge0 Sc1 2.902664 1_445
Ge0 Sc1 2.902668 1_555
Ge1 Sc7 2.747833 1_555
Ge1 Sc4 2.747833 1_555
Ge1 Sc1 2.875011 1_555
Ge1 Sc0 2.902664 1_665
Ge1 Sc0 2.902668 1_555
Ge2 Sc7 2.747833 1_555
Ge2 Sc5 2.747833 1_554
Ge2 Sc2 2.875020 1_555
Ge2 Sc3 2.902670 1_655
Ge2 Sc3 2.902670 1_545
Ge3 Sc4 2.747833 1_555
Ge3 Sc6 2.747833 1_554
Ge3 Sc3 2.875020 1_555
Ge3 Sc2 2.902670 1_565
Ge3 Sc2 2.902670 1_455
Ge4 Sc0 2.733541 1_555
Ge4 Sc2 2.733542 1_455
Ge4 Sc4 2.903306 1_555
Ge4 Sc4 2.903306 1_445
Ge5 Sc1 2.733541 1_455
Ge5 Sc3 2.733542 1_556
Ge5 Sc5 2.903306 1_455
Ge5 Sc5 2.903306 1_565
Ge6 Sc1 2.733541 1_545
Ge6 Sc2 2.733542 1_556
Ge6 Sc6 2.903306 1_545
Ge6 Sc6 2.903306 1_655
Ge7 Sc0 2.733541 1_555
Ge7 Sc3 2.733542 1_545
Ge7 Sc7 2.903306 1_555
Ge7 Sc7 2.903306 1_445
Ge8 Ge9 2.487806 1_565
Ge8 Sc4 2.785247 1_555
Ge9 Sc5 2.785247 1_555
Ge10 Ge11 2.487806 1_455
Ge10 Sc6 2.785247 1_555
Ge11 Sc7 2.785247 1_555
Ge12 Ge13 2.589618 1_555
Ge12 Ge13 2.639800 1_665
Ge12 Sc4 2.905184 1_555
Ge12 Sc7 2.905184 1_555
Ge12 Sc6 2.905184 1_554
Ge12 Sc5 2.905184 1_554
Ge12 Sc2 2.933918 1_565
Ge12 Sc3 2.933918 1_655
Ge12 Sc0 2.933925 1_665
Ge12 Sc1 2.933927 1_554
Ge13 Sc7 2.905184 1_555
Ge13 Sc4 2.905184 1_555
Ge13 Sc5 2.905184 1_554
Ge13 Sc6 2.905184 1_554
Ge13 Sc2 2.933918 1_455
Ge13 Sc3 2.933918 1_545
Ge13 Sc1 2.933925 1_444
Ge13 Sc0 2.933927 1_555
