# generated using pymatgen
data_MgFe6(OF2)4
_symmetry_space_group_name_H-M   'P 1'
_cell_length_a   7.54195073
_cell_length_b   6.02798040
_cell_length_c   5.75702222
_cell_angle_alpha   69.94993993
_cell_angle_beta   74.12174377
_cell_angle_gamma   76.55757269
_symmetry_Int_Tables_number   1
_chemical_formula_structural   MgFe6(OF2)4
_chemical_formula_sum   'Mg1 Fe6 O4 F8'
_cell_volume   233.68476400
_cell_formula_units_Z   1
loop_
 _symmetry_equiv_pos_site_id
 _symmetry_equiv_pos_as_xyz
  1  'x, y, z'
loop_
 _atom_site_type_symbol
 _atom_site_label
 _atom_site_symmetry_multiplicity
 _atom_site_fract_x
 _atom_site_fract_y
 _atom_site_fract_z
 _atom_site_occupancy
  Mg  Mg0  1  0.17364500  0.08989800  0.56587900  1
  Fe  Fe0  1  0.85910800  0.59007500  0.70686900  1
  Fe  Fe1  1  0.65822800  0.34421600  0.32604200  1
  Fe  Fe2  1  0.36123900  0.60727000  0.60539400  1
  Fe  Fe3  1  0.15159200  0.55133400  0.14903300  1
  Fe  Fe4  1  0.51560100  0.93166600  0.02074100  1
  Fe  Fe5  1  0.96037200  0.04042000  0.10833100  1
  O  O0  1  0.34118200  0.90001300  0.33125600  1
  O  O1  1  0.67734200  0.63138700  0.01999100  1
  O  O2  1  0.00180400  0.28450400  0.78468800  1
  O  O3  1  0.97639400  0.73162200  0.36168700  1
  F  F0  1  0.63837900  0.06743100  0.65385700  1
  F  F1  1  0.33302600  0.35370700  0.93594300  1
  F  F2  1  0.32198300  0.86993100  0.85888700  1
  F  F3  1  0.99526600  0.24999800  0.31854500  1
  F  F4  1  0.65028900  0.53522100  0.57843200  1
  F  F5  1  0.04103100  0.75889000  0.79537100  1
  F  F6  1  0.34049100  0.36144500  0.41406200  1
  F  F7  1  0.66969600  0.10096800  0.12124400  1
loop_
_geom_bond_atom_site_label_1
_geom_bond_atom_site_label_2
_geom_bond_distance
_geom_bond_site_symmetry_2
Mg0 O2 2.013865 1_555
Mg0 O0 2.045725 1_545
Fe0 O2 1.878331 1_655
Fe0 O3 1.919881 1_555
Fe0 O1 1.996929 1_556
Fe1 O1 2.001870 1_555
Fe2 O0 1.929907 1_555
Fe3 O3 1.945581 1_455
Fe4 O0 1.886417 1_555
Fe4 O1 1.933986 1_555
Fe5 O3 1.933177 1_545
Fe5 O2 1.936360 1_654
F0 Fe4 2.021215 1_546
F0 Fe1 2.042131 1_555
F1 Fe2 1.984456 1_555
F1 Fe3 2.030316 1_556
F1 Fe4 2.548354 1_546
F2 Fe4 2.091421 1_556
F2 Mg0 2.159754 1_565
F2 Fe2 2.419562 1_555
F2 Fe3 2.429639 1_556
F3 Mg0 2.066663 1_655
F3 Fe5 2.122982 1_555
F3 Fe3 2.189187 1_655
F3 Fe1 2.464013 1_555
F4 Fe0 2.045325 1_555
F4 Fe2 2.094275 1_555
F4 Fe1 2.123197 1_555
F5 Fe0 2.136554 1_455
F5 Fe3 2.259062 1_556
F5 Mg0 2.263701 1_565
F5 Fe2 2.465283 1_555
F6 Mg0 2.097995 1_555
F6 Fe2 2.180580 1_555
F6 Fe3 2.213958 1_555
F6 Fe1 2.294778 1_555
F7 Fe4 2.012766 1_545
F7 Fe5 2.121833 1_555
F7 Fe1 2.149011 1_555
