# generated using pymatgen
data_Nd(FeAs3)4
_symmetry_space_group_name_H-M   'P 1'
_cell_length_a   7.18441606
_cell_length_b   7.18443615
_cell_length_c   7.18443689
_cell_angle_alpha   109.47145394
_cell_angle_beta   109.47134881
_cell_angle_gamma   109.47133315
_symmetry_Int_Tables_number   1
_chemical_formula_structural   Nd(FeAs3)4
_chemical_formula_sum   'Nd1 Fe4 As12'
_cell_volume   285.46473614
_cell_formula_units_Z   1
loop_
 _symmetry_equiv_pos_site_id
 _symmetry_equiv_pos_as_xyz
  1  'x, y, z'
loop_
 _atom_site_type_symbol
 _atom_site_label
 _atom_site_symmetry_multiplicity
 _atom_site_fract_x
 _atom_site_fract_y
 _atom_site_fract_z
 _atom_site_occupancy
  Nd  Nd0  1  0.00000000  0.00000000  0.00000000  1
  Fe  Fe0  1  0.50000000  0.50000000  0.50000000  1
  Fe  Fe1  1  0.50000000  0.00000000  0.00000000  1
  Fe  Fe2  1  0.00000000  0.50000000  0.00000000  1
  Fe  Fe3  1  0.00000000  0.00000000  0.50000000  1
  As  As0  1  0.84504233  0.65662764  0.50165588  1
  As  As1  1  0.15495767  0.34337236  0.49834412  1
  As  As2  1  0.15496876  0.65663474  0.81161147  1
  As  As3  1  0.84503124  0.34336526  0.18838853  1
  As  As4  1  0.65663219  0.50165619  0.84504320  1
  As  As5  1  0.34336781  0.49834381  0.15495680  1
  As  As6  1  0.65664129  0.81160728  0.15497585  1
  As  As7  1  0.34335871  0.18839272  0.84502415  1
  As  As8  1  0.50165397  0.84503903  0.65662413  1
  As  As9  1  0.49834603  0.15496097  0.34337587  1
  As  As10  1  0.18838834  0.84502282  0.34335564  1
  As  As11  1  0.81161166  0.15497718  0.65664436  1
loop_
_geom_bond_atom_site_label_1
_geom_bond_atom_site_label_2
_geom_bond_distance
_geom_bond_site_symmetry_2
As0 Fe3 2.350057 1_665
As0 Fe0 2.350154 1_555
As0 As2 2.571194 1_655
As0 As3 2.598752 1_555
As0 Nd0 3.125268 1_666
As1 Fe3 2.350057 1_555
As1 Fe0 2.350154 1_555
As1 As3 2.571194 1_455
As1 As2 2.598752 1_555
As1 Nd0 3.125268 1_555
As2 Fe2 2.350012 1_556
As2 Fe1 2.350052 1_566
As2 Nd0 3.125168 1_566
As3 Fe2 2.350012 1_655
As3 Fe1 2.350052 1_555
As3 Nd0 3.125168 1_655
As4 Fe2 2.350022 1_656
As4 Fe0 2.350169 1_555
As4 As6 2.571193 1_556
As4 As7 2.598749 1_555
As4 Nd0 3.125258 1_666
As5 Fe2 2.350022 1_555
As5 Fe0 2.350169 1_555
As5 As7 2.571193 1_554
As5 As6 2.598749 1_555
As5 Nd0 3.125258 1_555
As6 Fe3 2.349998 1_665
As6 Fe1 2.350088 1_565
As6 Nd0 3.125180 1_665
As7 Fe3 2.349998 1_555
As7 Fe1 2.350088 1_556
As7 Nd0 3.125180 1_556
As8 Fe1 2.350074 1_566
As8 Fe0 2.350141 1_555
As8 Nd0 3.125273 1_666
As9 Fe1 2.350074 1_555
As9 Fe0 2.350141 1_555
As9 Nd0 3.125273 1_555
As10 Fe2 2.349988 1_555
As10 Fe3 2.350072 1_565
As10 As9 2.571197 1_565
As10 As8 2.598749 1_555
As10 Nd0 3.125166 1_565
As11 Fe2 2.349988 1_656
As11 Fe3 2.350072 1_655
As11 As8 2.571197 1_545
As11 As9 2.598749 1_555
As11 Nd0 3.125166 1_656
