# generated using pymatgen
data_Tb4NiB13
_symmetry_space_group_name_H-M   'P 1'
_cell_length_a   7.36204400
_cell_length_b   7.36204400
_cell_length_c   6.95828000
_cell_angle_alpha   90.00000000
_cell_angle_beta   90.00000000
_cell_angle_gamma   90.00000000
_symmetry_Int_Tables_number   1
_chemical_formula_structural   Tb4NiB13
_chemical_formula_sum   'Tb8 Ni2 B26'
_cell_volume   377.13663186
_cell_formula_units_Z   2
loop_
 _symmetry_equiv_pos_site_id
 _symmetry_equiv_pos_as_xyz
  1  'x, y, z'
loop_
 _atom_site_type_symbol
 _atom_site_label
 _atom_site_symmetry_multiplicity
 _atom_site_fract_x
 _atom_site_fract_y
 _atom_site_fract_z
 _atom_site_occupancy
  Tb  Tb0  1  0.68524700  0.18036700  0.50000000  1
  Tb  Tb1  1  0.31475300  0.81963300  0.50000000  1
  Tb  Tb2  1  0.18524700  0.31963300  0.00000000  1
  Tb  Tb3  1  0.81475300  0.68036700  0.00000000  1
  Tb  Tb4  1  0.81963300  0.68524700  0.50000000  1
  Tb  Tb5  1  0.18036700  0.31475300  0.50000000  1
  Tb  Tb6  1  0.68036700  0.18524700  0.00000000  1
  Tb  Tb7  1  0.31963300  0.81475300  0.00000000  1
  Ni  Ni0  1  0.50000000  0.50000000  0.50000000  1
  Ni  Ni1  1  0.00000000  0.00000000  0.00000000  1
  B  B0  1  0.50000000  0.50000000  0.00000000  1
  B  B1  1  0.00000000  0.00000000  0.50000000  1
  B  B2  1  0.90656100  0.40656100  0.25000000  1
  B  B3  1  0.09343900  0.59343900  0.25000000  1
  B  B4  1  0.40656100  0.09343900  0.75000000  1
  B  B5  1  0.59343900  0.90656100  0.75000000  1
  B  B6  1  0.59343900  0.90656100  0.25000000  1
  B  B7  1  0.40656100  0.09343900  0.25000000  1
  B  B8  1  0.90656100  0.40656100  0.75000000  1
  B  B9  1  0.09343900  0.59343900  0.75000000  1
  B  B10  1  0.54002000  0.66975600  0.24433700  1
  B  B11  1  0.45998000  0.33024400  0.24433700  1
  B  B12  1  0.04002000  0.83024400  0.74433700  1
  B  B13  1  0.95998000  0.16975600  0.74433700  1
  B  B14  1  0.33024400  0.54002000  0.24433700  1
  B  B15  1  0.66975600  0.45998000  0.24433700  1
  B  B16  1  0.16975600  0.04002000  0.74433700  1
  B  B17  1  0.83024400  0.95998000  0.74433700  1
  B  B18  1  0.45998000  0.33024400  0.75566300  1
  B  B19  1  0.54002000  0.66975600  0.75566300  1
  B  B20  1  0.95998000  0.16975600  0.25566300  1
  B  B21  1  0.04002000  0.83024400  0.25566300  1
  B  B22  1  0.66975600  0.45998000  0.75566300  1
  B  B23  1  0.33024400  0.54002000  0.75566300  1
  B  B24  1  0.83024400  0.95998000  0.25566300  1
  B  B25  1  0.16975600  0.04002000  0.25566300  1
loop_
_geom_bond_atom_site_label_1
_geom_bond_atom_site_label_2
_geom_bond_distance
_geom_bond_site_symmetry_2
Ni0 Tb4 2.719792 1_555
Ni0 Tb1 2.719792 1_555
Ni0 Tb5 2.719792 1_555
Ni0 Tb0 2.719792 1_555
Ni1 Tb6 2.719792 1_455
Ni1 Tb3 2.719792 1_445
Ni1 Tb2 2.719792 1_555
Ni1 Tb7 2.719792 1_545
B0 B19 2.130551 1_554
B0 B23 2.130551 1_554
B0 B10 2.130551 1_555
B0 B14 2.130551 1_555
B0 B11 2.130551 1_555
B0 B22 2.130551 1_554
B0 B18 2.130551 1_554
B0 B15 2.130551 1_555
B0 Tb6 2.670725 1_555
B0 Tb3 2.670725 1_555
B0 Tb7 2.670725 1_555
B0 Tb2 2.670725 1_555
B1 B25 2.130551 1_555
B1 B13 2.130551 1_455
B1 B20 2.130551 1_455
B1 B16 2.130551 1_555
B1 B17 2.130551 1_445
B1 B12 2.130551 1_545
B1 B21 2.130551 1_545
B1 B24 2.130551 1_445
B1 Tb0 2.670725 1_455
B1 Tb4 2.670725 1_445
B1 Tb5 2.670725 1_555
B1 Tb1 2.670725 1_545
B2 B20 1.787610 1_555
B2 B3 1.945681 1_655
B2 Tb5 2.747048 1_655
B2 Tb3 2.747048 1_555
B2 Tb2 2.764983 1_655
B2 Tb4 2.764983 1_555
B2 Tb0 2.907552 1_555
B2 Tb6 2.907552 1_555
B3 Tb2 2.747048 1_555
B3 Tb4 2.747048 1_455
B3 Tb5 2.764983 1_555
B3 Tb3 2.764983 1_455
B3 Tb1 2.907552 1_555
B3 Tb7 2.907552 1_555
B4 B5 1.945681 1_545
B4 Tb6 2.747048 1_556
B4 Tb1 2.747048 1_545
B4 Tb7 2.764983 1_546
B4 Tb0 2.764983 1_555
B4 Tb5 2.907552 1_555
B4 Tb2 2.907552 1_556
B5 Tb7 2.747048 1_556
B5 Tb0 2.747048 1_565
B5 Tb6 2.764983 1_566
B5 Tb1 2.764983 1_555
B5 Tb3 2.907552 1_556
B5 Tb4 2.907552 1_555
B6 B7 1.945681 1_565
B6 Tb7 2.747048 1_555
B6 Tb0 2.747048 1_565
B6 Tb6 2.764983 1_565
B6 Tb1 2.764983 1_555
B6 Tb3 2.907552 1_555
B6 Tb4 2.907552 1_555
B7 Tb6 2.747048 1_555
B7 Tb1 2.747048 1_545
B7 Tb0 2.764983 1_555
B7 Tb7 2.764983 1_545
B7 Tb5 2.907552 1_555
B7 Tb2 2.907552 1_555
B8 B9 1.945681 1_655
B8 Tb5 2.747048 1_655
B8 Tb3 2.747048 1_556
B8 Tb2 2.764983 1_656
B8 Tb4 2.764983 1_555
B8 Tb6 2.907552 1_556
B8 Tb0 2.907552 1_555
B9 Tb4 2.747048 1_455
B9 Tb2 2.747048 1_556
B9 Tb5 2.764983 1_555
B9 Tb3 2.764983 1_456
B9 Tb1 2.907552 1_555
B9 Tb7 2.907552 1_556
B10 B6 1.787610 1_555
B10 B14 1.815866 1_555
B10 B15 1.815866 1_555
B10 Ni0 2.193954 1_555
B10 Tb7 2.581195 1_555
B10 Tb3 2.643399 1_555
B10 Tb1 2.670697 1_555
B10 Tb4 2.723100 1_555
B11 B7 1.787610 1_555
B11 B14 1.815866 1_555
B11 B15 1.815866 1_555
B11 Ni0 2.193954 1_555
B11 Tb6 2.581195 1_555
B11 Tb2 2.643399 1_555
B11 Tb0 2.670697 1_555
B11 Tb5 2.723100 1_555
B12 B9 1.787610 1_555
B12 B16 1.815866 1_565
B12 B17 1.815866 1_455
B12 Ni1 2.193954 1_566
B12 Tb4 2.581195 1_455
B12 Tb1 2.643399 1_555
B12 Tb3 2.670697 1_456
B12 Tb7 2.723100 1_556
B13 B8 1.787610 1_555
B13 B16 1.815866 1_655
B13 B17 1.815866 1_545
B13 Ni1 2.193954 1_656
B13 Tb5 2.581195 1_655
B13 Tb0 2.643399 1_555
B13 Tb2 2.670697 1_656
B13 Tb6 2.723100 1_556
B14 B3 1.787610 1_555
B14 Ni0 2.193954 1_555
B14 Tb2 2.581195 1_555
B14 Tb7 2.643399 1_555
B14 Tb5 2.670697 1_555
B14 Tb1 2.723100 1_555
B15 B2 1.787610 1_555
B15 Ni0 2.193954 1_555
B15 Tb3 2.581195 1_555
B15 Tb6 2.643399 1_555
B15 Tb4 2.670697 1_555
B15 Tb0 2.723100 1_555
B16 B4 1.787610 1_555
B16 Ni1 2.193954 1_556
B16 Tb1 2.581195 1_545
B16 Tb5 2.643399 1_555
B16 Tb7 2.670697 1_546
B16 Tb2 2.723100 1_556
B17 B5 1.787610 1_555
B17 Ni1 2.193954 1_666
B17 Tb0 2.581195 1_565
B17 Tb4 2.643399 1_555
B17 Tb6 2.670697 1_566
B17 Tb3 2.723100 1_556
B18 B4 1.787610 1_555
B18 B23 1.815866 1_555
B18 B22 1.815866 1_555
B18 Ni0 2.193954 1_555
B18 Tb6 2.581195 1_556
B18 Tb2 2.643399 1_556
B18 Tb0 2.670697 1_555
B18 Tb5 2.723100 1_555
B19 B5 1.787610 1_555
B19 B23 1.815866 1_555
B19 B22 1.815866 1_555
B19 Ni0 2.193954 1_555
B19 Tb7 2.581195 1_556
B19 Tb3 2.643399 1_556
B19 Tb1 2.670697 1_555
B19 Tb4 2.723100 1_555
B20 B25 1.815866 1_655
B20 B24 1.815866 1_545
B20 Ni1 2.193954 1_655
B20 Tb5 2.581195 1_655
B20 Tb0 2.643399 1_555
B20 Tb2 2.670697 1_655
B20 Tb6 2.723100 1_555
B21 B3 1.787610 1_555
B21 B25 1.815866 1_565
B21 B24 1.815866 1_455
B21 Ni1 2.193954 1_565
B21 Tb4 2.581195 1_455
B21 Tb1 2.643399 1_555
B21 Tb3 2.670697 1_455
B21 Tb7 2.723100 1_555
B22 B8 1.787610 1_555
B22 Ni0 2.193954 1_555
B22 Tb3 2.581195 1_556
B22 Tb6 2.643399 1_556
B22 Tb4 2.670697 1_555
B22 Tb0 2.723100 1_555
B23 B9 1.787610 1_555
B23 Ni0 2.193954 1_555
B23 Tb2 2.581195 1_556
B23 Tb7 2.643399 1_556
B23 Tb5 2.670697 1_555
B23 Tb1 2.723100 1_555
B24 B6 1.787610 1_555
B24 Ni1 2.193954 1_665
B24 Tb0 2.581195 1_565
B24 Tb4 2.643399 1_555
B24 Tb6 2.670697 1_565
B24 Tb3 2.723100 1_555
B25 B7 1.787610 1_555
B25 Ni1 2.193954 1_555
B25 Tb1 2.581195 1_545
B25 Tb5 2.643399 1_555
B25 Tb7 2.670697 1_545
B25 Tb2 2.723100 1_555
