# generated using pymatgen
data_KYMg6
_symmetry_space_group_name_H-M   'P 1'
_cell_length_a   5.33575000
_cell_length_b   7.19863100
_cell_length_c   11.68764900
_cell_angle_alpha   90.00000000
_cell_angle_beta   90.00000000
_cell_angle_gamma   90.00000000
_symmetry_Int_Tables_number   1
_chemical_formula_structural   KYMg6
_chemical_formula_sum   'K2 Y2 Mg12'
_cell_volume   448.92371260
_cell_formula_units_Z   2
loop_
 _symmetry_equiv_pos_site_id
 _symmetry_equiv_pos_as_xyz
  1  'x, y, z'
loop_
 _atom_site_type_symbol
 _atom_site_label
 _atom_site_symmetry_multiplicity
 _atom_site_fract_x
 _atom_site_fract_y
 _atom_site_fract_z
 _atom_site_occupancy
  K  K0  1  0.50000000  0.50000000  0.83200700  1
  K  K1  1  0.50000000  0.00000000  0.33200700  1
  Y  Y0  1  0.50000000  0.50000000  0.34274300  1
  Y  Y1  1  0.50000000  0.00000000  0.84274300  1
  Mg  Mg0  1  0.50000000  0.25882500  0.08202600  1
  Mg  Mg1  1  0.50000000  0.74117500  0.08202600  1
  Mg  Mg2  1  0.00000000  0.23494100  0.92523100  1
  Mg  Mg3  1  0.00000000  0.76505900  0.92523100  1
  Mg  Mg4  1  0.00000000  0.50000000  0.16420900  1
  Mg  Mg5  1  0.00000000  0.50000000  0.64653200  1
  Mg  Mg6  1  0.50000000  0.75882500  0.58202600  1
  Mg  Mg7  1  0.50000000  0.24117500  0.58202600  1
  Mg  Mg8  1  0.00000000  0.73494100  0.42523100  1
  Mg  Mg9  1  0.00000000  0.26505900  0.42523100  1
  Mg  Mg10  1  0.00000000  0.00000000  0.66420900  1
  Mg  Mg11  1  0.00000000  0.00000000  0.14653200  1
loop_
_geom_bond_atom_site_label_1
_geom_bond_atom_site_label_2
_geom_bond_distance
_geom_bond_site_symmetry_2
K0 Mg0 3.398973 1_556
K0 Mg1 3.398973 1_556
K0 Mg5 3.437553 1_655
K0 Mg5 3.437553 1_555
K0 Mg3 3.456215 1_655
K0 Mg2 3.456215 1_555
K0 Mg3 3.456215 1_555
K0 Mg2 3.456215 1_655
K0 Mg6 3.465218 1_555
K0 Mg7 3.465218 1_555
K0 Y1 3.601502 1_555
K0 Y1 3.601502 1_565
K1 Mg7 3.398973 1_555
K1 Mg6 3.398973 1_545
K1 Mg11 3.437553 1_655
K1 Mg11 3.437553 1_555
K1 Mg9 3.456215 1_555
K1 Mg8 3.456215 1_645
K1 Mg9 3.456215 1_655
K1 Mg8 3.456215 1_545
K1 Mg1 3.465218 1_545
K1 Mg0 3.465218 1_555
K1 Y0 3.601502 1_545
K1 Y0 3.601502 1_555
Mg0 Mg2 3.241205 1_554
Mg0 Mg2 3.241205 1_654
Mg0 Mg4 3.324803 1_655
Mg0 Mg4 3.324803 1_555
Mg0 Mg11 3.340272 1_555
Mg0 Mg11 3.340272 1_655
Mg0 Y1 3.360468 1_554
Mg0 Mg1 3.472260 1_555
Mg0 Y0 3.507048 1_555
Mg1 Mg3 3.241205 1_654
Mg1 Mg3 3.241205 1_554
Mg1 Mg4 3.324803 1_655
Mg1 Mg4 3.324803 1_555
Mg1 Mg11 3.340272 1_565
Mg1 Mg11 3.340272 1_665
Mg1 Y1 3.360468 1_564
Mg1 Y0 3.507048 1_555
Mg2 Y1 3.302630 1_555
Mg2 Y1 3.302630 1_455
Mg2 Mg3 3.382507 1_545
Mg2 Mg4 3.382611 1_556
Mg3 Y1 3.302630 1_465
Mg3 Y1 3.302630 1_565
Mg3 Mg4 3.382611 1_556
Mg4 Y0 3.386980 1_455
Mg4 Y0 3.386980 1_555
Mg4 Mg9 3.488168 1_555
Mg4 Mg8 3.488168 1_555
Mg5 Mg8 3.090350 1_555
Mg5 Mg9 3.090350 1_555
Mg5 Mg6 3.340272 1_455
Mg5 Mg6 3.340272 1_555
Mg5 Mg7 3.340272 1_455
Mg5 Mg7 3.340272 1_555
Mg6 Mg8 3.241205 1_555
Mg6 Mg8 3.241205 1_655
Mg6 Y0 3.360468 1_555
Mg6 Mg7 3.472260 1_565
Mg6 Y1 3.507048 1_565
Mg7 Mg9 3.241205 1_655
Mg7 Mg9 3.241205 1_555
Mg7 Y0 3.360468 1_555
Mg7 Y1 3.507048 1_555
Mg8 Y0 3.302630 1_455
Mg8 Y0 3.302630 1_555
Mg8 Mg9 3.382507 1_555
Mg9 Y0 3.302630 1_455
Mg9 Y0 3.302630 1_555
Mg10 Mg6 3.324803 1_445
Mg10 Mg6 3.324803 1_545
Mg10 Mg7 3.324803 1_455
Mg10 Mg7 3.324803 1_555
Mg10 Mg9 3.382611 1_555
Mg10 Mg8 3.382611 1_545
Mg10 Y1 3.386980 1_455
Mg10 Y1 3.386980 1_555
Mg10 Mg3 3.488168 1_545
Mg10 Mg2 3.488168 1_555
Mg11 Mg3 3.090350 1_544
Mg11 Mg2 3.090350 1_554
