# generated using pymatgen
data_VPt
_symmetry_space_group_name_H-M   'P 1'
_cell_length_a   9.47431612
_cell_length_b   9.47431612
_cell_length_c   9.47431535
_cell_angle_alpha   33.66536905
_cell_angle_beta   33.66536905
_cell_angle_gamma   33.66536725
_symmetry_Int_Tables_number   1
_chemical_formula_structural   VPt
_chemical_formula_sum   'V8 Pt8'
_cell_volume   232.81905802
_cell_formula_units_Z   8
loop_
 _symmetry_equiv_pos_site_id
 _symmetry_equiv_pos_as_xyz
  1  'x, y, z'
loop_
 _atom_site_type_symbol
 _atom_site_label
 _atom_site_symmetry_multiplicity
 _atom_site_fract_x
 _atom_site_fract_y
 _atom_site_fract_z
 _atom_site_occupancy
  V  V0_0  1  0.25000000  0.25000000  0.25000000  1
  V  V0_1  1  0.25000000  0.25000000  0.75000000  1
  V  V0_2  1  0.25000000  0.75000000  0.25000000  1
  V  V0_3  1  0.25000000  0.75000000  0.75000000  1
  V  V0_4  1  0.75000000  0.25000000  0.25000000  1
  V  V0_5  1  0.75000000  0.25000000  0.75000000  1
  V  V0_6  1  0.75000000  0.75000000  0.25000000  1
  V  V0_7  1  0.75000000  0.75000000  0.75000000  1
  Pt  Pt0_0  1  0.00000000  0.00000000  0.00000000  1
  Pt  Pt0_1  1  0.00000000  0.00000000  0.50000000  1
  Pt  Pt0_2  1  0.00000000  0.50000000  0.00000000  1
  Pt  Pt0_3  1  0.00000000  0.50000000  0.50000000  1
  Pt  Pt0_4  1  0.50000000  0.00000000  0.00000000  1
  Pt  Pt0_5  1  0.50000000  0.00000000  0.50000000  1
  Pt  Pt0_6  1  0.50000000  0.50000000  0.00000000  1
  Pt  Pt0_7  1  0.50000000  0.50000000  0.50000000  1
loop_
_geom_bond_atom_site_label_1
_geom_bond_atom_site_label_2
_geom_bond_distance
_geom_bond_site_symmetry_2
V0_0 V0_6 2.743552 1_455
V0_0 V0_6 2.743552 1_545
V0_0 V0_5 2.743552 1_455
V0_0 V0_5 2.743552 1_554
V0_0 V0_3 2.743552 1_545
V0_0 V0_3 2.743552 1_554
V0_1 V0_7 2.743552 1_455
V0_1 V0_7 2.743552 1_545
V0_1 V0_2 2.743552 1_546
V0_1 V0_4 2.743552 1_456
V0_1 V0_4 2.743552 1_555
V0_1 V0_2 2.743552 1_555
V0_2 V0_4 2.743552 1_555
V0_2 V0_4 2.743552 1_465
V0_2 V0_7 2.743552 1_554
V0_2 V0_7 2.743552 1_455
V0_3 V0_5 2.743552 1_465
V0_3 V0_5 2.743552 1_555
V0_3 V0_6 2.743552 1_456
V0_3 V0_6 2.743552 1_555
V0_4 V0_7 2.743552 1_554
V0_4 V0_7 2.743552 1_545
V0_5 V0_6 2.743552 1_555
V0_5 V0_6 2.743552 1_546
Pt0_0 V0_5 2.737140 1_454
Pt0_0 V0_3 2.737140 1_544
Pt0_0 V0_2 2.737140 1_545
Pt0_0 V0_4 2.737140 1_455
Pt0_0 V0_1 2.737140 1_554
Pt0_0 V0_6 2.737140 1_445
Pt0_0 Pt0_6 2.743552 1_455
Pt0_0 Pt0_6 2.743552 1_545
Pt0_0 Pt0_5 2.743552 1_455
Pt0_0 Pt0_5 2.743552 1_554
Pt0_0 Pt0_3 2.743552 1_545
Pt0_0 Pt0_3 2.743552 1_554
Pt0_1 V0_2 2.737140 1_545
Pt0_1 V0_4 2.737140 1_455
Pt0_1 V0_5 2.737140 1_455
Pt0_1 V0_3 2.737140 1_545
Pt0_1 V0_0 2.737140 1_555
Pt0_1 V0_7 2.737140 1_445
Pt0_1 Pt0_7 2.743552 1_455
Pt0_1 Pt0_7 2.743552 1_545
Pt0_1 Pt0_4 2.743552 1_456
Pt0_1 Pt0_4 2.743552 1_555
Pt0_1 Pt0_2 2.743552 1_555
Pt0_1 Pt0_2 2.743552 1_546
Pt0_2 V0_6 2.737140 1_455
Pt0_2 V0_0 2.737140 1_555
Pt0_2 V0_7 2.737140 1_454
Pt0_2 V0_1 2.737140 1_554
Pt0_2 V0_3 2.737140 1_554
Pt0_2 V0_4 2.737140 1_455
Pt0_2 Pt0_4 2.743552 1_555
Pt0_2 Pt0_4 2.743552 1_465
Pt0_2 Pt0_7 2.743552 1_455
Pt0_2 Pt0_7 2.743552 1_554
Pt0_3 V0_1 2.737140 1_555
Pt0_3 V0_7 2.737140 1_455
Pt0_3 V0_0 2.737140 1_555
Pt0_3 V0_6 2.737140 1_455
Pt0_3 V0_2 2.737140 1_555
Pt0_3 V0_5 2.737140 1_455
Pt0_3 Pt0_5 2.743552 1_555
Pt0_3 Pt0_5 2.743552 1_465
Pt0_3 Pt0_6 2.743552 1_555
Pt0_3 Pt0_6 2.743552 1_456
Pt0_4 V0_6 2.737140 1_545
Pt0_4 V0_0 2.737140 1_555
Pt0_4 V0_7 2.737140 1_544
Pt0_4 V0_1 2.737140 1_554
Pt0_4 V0_5 2.737140 1_554
Pt0_4 V0_2 2.737140 1_545
Pt0_4 Pt0_7 2.743552 1_545
Pt0_4 Pt0_7 2.743552 1_554
Pt0_5 V0_1 2.737140 1_555
Pt0_5 V0_7 2.737140 1_545
Pt0_5 V0_0 2.737140 1_555
Pt0_5 V0_6 2.737140 1_545
Pt0_5 V0_4 2.737140 1_555
Pt0_5 V0_3 2.737140 1_545
Pt0_5 Pt0_6 2.743552 1_546
Pt0_5 Pt0_6 2.743552 1_555
Pt0_6 V0_3 2.737140 1_554
Pt0_6 V0_2 2.737140 1_555
Pt0_6 V0_5 2.737140 1_554
Pt0_6 V0_4 2.737140 1_555
Pt0_6 V0_7 2.737140 1_554
Pt0_6 V0_0 2.737140 1_555
Pt0_7 V0_2 2.737140 1_555
Pt0_7 V0_4 2.737140 1_555
Pt0_7 V0_3 2.737140 1_555
Pt0_7 V0_5 2.737140 1_555
Pt0_7 V0_6 2.737140 1_555
Pt0_7 V0_1 2.737140 1_555
