# generated using pymatgen
data_Mg2ScV3S8
_symmetry_space_group_name_H-M   'P 1'
_cell_length_a   7.33163289
_cell_length_b   7.33594387
_cell_length_c   7.33482998
_cell_angle_alpha   59.99258522
_cell_angle_beta   59.67254691
_cell_angle_gamma   59.93607523
_symmetry_Int_Tables_number   1
_chemical_formula_structural   Mg2ScV3S8
_chemical_formula_sum   'Mg2 Sc1 V3 S8'
_cell_volume   278.10708104
_cell_formula_units_Z   1
loop_
 _symmetry_equiv_pos_site_id
 _symmetry_equiv_pos_as_xyz
  1  'x, y, z'
loop_
 _atom_site_type_symbol
 _atom_site_label
 _atom_site_symmetry_multiplicity
 _atom_site_fract_x
 _atom_site_fract_y
 _atom_site_fract_z
 _atom_site_occupancy
  Mg  Mg0  1  0.87460700  0.87510700  0.87463600  1
  Mg  Mg1  1  0.12539600  0.12488400  0.12538000  1
  Sc  Sc0  1  0.49996900  0.50009600  0.49990100  1
  V  V0  1  0.50002600  0.49998700  0.99998100  1
  V  V1  1  0.99999400  0.49996500  0.50004200  1
  V  V2  1  0.49999200  0.99999300  0.50002400  1
  S  S0  1  0.73813800  0.73808000  0.73769900  1
  S  S1  1  0.25227400  0.25288000  0.72027600  1
  S  S2  1  0.25288300  0.72039300  0.25280600  1
  S  S3  1  0.72042700  0.25307900  0.25237800  1
  S  S4  1  0.74709200  0.27960000  0.74717700  1
  S  S5  1  0.27957200  0.74690400  0.74764100  1
  S  S6  1  0.26187800  0.26191000  0.26231400  1
  S  S7  1  0.74775500  0.74711800  0.27974400  1
loop_
_geom_bond_atom_site_label_1
_geom_bond_atom_site_label_2
_geom_bond_distance
_geom_bond_site_symmetry_2
Mg0 S5 2.419297 1_655
Mg0 S7 2.422667 1_556
Mg0 S4 2.425189 1_565
Mg0 S0 2.460257 1_555
Mg1 S3 2.419323 1_455
Mg1 S1 2.422633 1_554
Mg1 S2 2.425191 1_545
Mg1 S6 2.460311 1_555
S0 V1 2.466102 1_555
S0 V0 2.470197 1_555
S0 V2 2.478247 1_555
S1 V2 2.451297 1_545
S1 V1 2.458791 1_455
S1 Sc0 2.569619 1_555
S2 V0 2.450866 1_554
S2 V1 2.452838 1_455
S2 Sc0 2.575071 1_555
S3 V2 2.454989 1_545
S3 V0 2.460436 1_554
S3 Sc0 2.566122 1_555
S4 V0 2.450648 1_555
S4 V1 2.452576 1_555
S4 Sc0 2.576150 1_555
S5 V2 2.454926 1_555
S5 V0 2.460398 1_555
S5 Sc0 2.566200 1_555
S6 V1 2.466168 1_455
S6 V0 2.470320 1_554
S6 V2 2.478264 1_545
S7 V2 2.451380 1_555
S7 V1 2.458906 1_555
S7 Sc0 2.569184 1_555
