# generated using pymatgen
data_Li9Mn2Co5O16
_symmetry_space_group_name_H-M   'P 1'
_cell_length_a   5.91463200
_cell_length_b   6.46058373
_cell_length_c   7.87142977
_cell_angle_alpha   88.73680625
_cell_angle_beta   103.43318531
_cell_angle_gamma   104.79376524
_symmetry_Int_Tables_number   1
_chemical_formula_structural   Li9Mn2Co5O16
_chemical_formula_sum   'Li9 Mn2 Co5 O16'
_cell_volume   282.63382177
_cell_formula_units_Z   1
loop_
 _symmetry_equiv_pos_site_id
 _symmetry_equiv_pos_as_xyz
  1  'x, y, z'
loop_
 _atom_site_type_symbol
 _atom_site_label
 _atom_site_symmetry_multiplicity
 _atom_site_fract_x
 _atom_site_fract_y
 _atom_site_fract_z
 _atom_site_occupancy
  Li  Li0  1  0.12464200  0.62361100  0.87267100  1
  Li  Li1  1  0.74432000  0.25943600  0.74044900  1
  Li  Li2  1  0.99602800  0.50268900  0.49701200  1
  Li  Li3  1  0.62446600  0.13146400  0.37815500  1
  Li  Li4  1  0.87180300  0.38061800  0.13032400  1
  Li  Li5  1  0.50240800  0.99703900  0.00244800  1
  Li  Li6  1  0.37982900  0.86577300  0.61640200  1
  Li  Li7  1  0.25680200  0.74095000  0.25995800  1
  Li  Li8  1  0.50076000  0.50338800  0.49865400  1
  Mn  Mn0  1  0.00123900  0.99690300  0.00055800  1
  Mn  Mn1  1  0.25192200  0.25382200  0.74616700  1
  Co  Co0  1  0.62879400  0.62303700  0.86901500  1
  Co  Co1  1  0.86997500  0.87230700  0.62254100  1
  Co  Co2  1  0.12548700  0.12652600  0.37459500  1
  Co  Co3  1  0.74390800  0.74660800  0.25723400  1
  Co  Co4  1  0.37418800  0.37699900  0.13488400  1
  O  O0  1  0.92872600  0.70042600  0.05303300  1
  O  O1  1  0.55206700  0.32315300  0.92014100  1
  O  O2  1  0.81233400  0.58596600  0.68621700  1
  O  O3  1  0.40089400  0.18512900  0.57330900  1
  O  O4  1  0.67751300  0.44185800  0.29603700  1
  O  O5  1  0.30486900  0.07092600  0.17325500  1
  O  O6  1  0.16440300  0.95234300  0.81784800  1
  O  O7  1  0.05077200  0.82626200  0.42516900  1
  O  O8  1  0.31960600  0.55224500  0.70436800  1
  O  O9  1  0.94629300  0.17914000  0.57635900  1
  O  O10  1  0.18427000  0.41312600  0.31156800  1
  O  O11  1  0.84153200  0.05002800  0.17735700  1
  O  O12  1  0.08487500  0.29708800  0.93489500  1
  O  O13  1  0.69669000  0.92611900  0.82939900  1
  O  O14  1  0.58677500  0.82261100  0.44032300  1
  O  O15  1  0.45181600  0.67240800  0.07965000  1
loop_
_geom_bond_atom_site_label_1
_geom_bond_atom_site_label_2
_geom_bond_distance
_geom_bond_site_symmetry_2
Li0 O2 2.037640 1_455
Li0 O8 2.074995 1_555
Li0 O12 2.121300 1_555
Li0 O6 2.122201 1_555
Li0 O0 2.166494 1_456
Li0 O15 2.178230 1_556
Li1 O3 2.091771 1_555
Li1 O2 2.097871 1_555
Li1 O9 2.104132 1_555
Li1 O1 2.115439 1_555
Li1 O12 2.189252 1_655
Li1 O13 2.218599 1_545
Li2 O4 2.114414 1_555
Li2 O7 2.117071 1_655
Li2 O9 2.135376 1_555
Li2 O8 2.165203 1_655
Li2 O2 2.184862 1_555
Li2 O10 2.196937 1_655
Li3 O14 2.012744 1_545
Li3 O4 2.062367 1_555
Li3 O9 2.119948 1_555
Li3 O5 2.135703 1_555
Li3 O3 2.330223 1_555
Li3 O11 2.397448 1_555
Li4 O10 2.021130 1_655
Li4 O4 2.032224 1_555
Li4 O0 2.106408 1_555
Li4 O11 2.128715 1_555
Li4 O1 2.160137 1_554
Li4 O12 2.351695 1_654
Li5 O13 2.099870 1_554
Li5 O11 2.103088 1_565
Li5 O5 2.107985 1_565
Li5 O15 2.136661 1_555
Li5 O6 2.136698 1_554
Li5 O1 2.158052 1_564
Li6 O3 2.060337 1_565
Li6 O8 2.096083 1_555
Li6 O14 2.115774 1_555
Li6 O7 2.126256 1_555
Li6 O13 2.161261 1_555
Li6 O6 2.406741 1_555
Li7 O14 2.079131 1_555
Li7 O10 2.100895 1_555
Li7 O15 2.142435 1_555
Li7 O7 2.142616 1_555
Li7 O0 2.185804 1_455
Li7 O5 2.192674 1_565
Li8 O2 2.031982 1_555
Li8 O10 2.052413 1_555
Li8 O14 2.062513 1_555
Li8 O3 2.099928 1_555
Li8 O4 2.193050 1_555
Li8 O8 2.207040 1_555
Mn0 O0 1.910831 1_455
Mn0 O11 1.934996 1_465
Mn0 O13 1.935938 1_454
Mn0 O5 1.938434 1_565
Mn0 O12 1.964098 1_564
Mn0 O6 1.971698 1_554
Mn1 O3 1.899475 1_555
Mn1 O8 1.903870 1_555
Mn1 O1 1.928444 1_555
Mn1 O9 1.935846 1_455
Mn1 O6 1.988047 1_545
Mn1 O12 2.025465 1_555
Co0 O13 1.929329 1_555
Co0 O1 1.929505 1_555
Co0 O8 1.931555 1_555
Co0 O0 1.969824 1_556
Co0 O2 2.044485 1_555
Co0 O15 2.224094 1_556
Co1 O2 1.872465 1_555
Co1 O14 1.896168 1_555
Co1 O9 1.962907 1_565
Co1 O6 1.998678 1_655
Co1 O7 2.144853 1_655
Co1 O13 2.192004 1_555
Co2 O10 1.872519 1_555
Co2 O7 1.930493 1_545
Co2 O3 1.941831 1_555
Co2 O11 1.968193 1_455
Co2 O9 2.179681 1_455
Co2 O5 2.183433 1_555
Co3 O15 1.911281 1_555
Co3 O7 1.935117 1_655
Co3 O4 1.938632 1_555
Co3 O14 2.017028 1_555
Co3 O11 2.026744 1_565
Co3 O0 2.207172 1_555
Co4 O4 1.893536 1_555
Co4 O15 1.910741 1_555
Co4 O5 1.945932 1_555
Co4 O12 2.001471 1_554
Co4 O10 2.030891 1_555
Co4 O1 2.263681 1_554
