# generated using pymatgen
data_Lu4Zn5Ge6
_symmetry_space_group_name_H-M   'P 1'
_cell_length_a   9.41885527
_cell_length_b   9.41885527
_cell_length_c   15.13830200
_cell_angle_alpha   90.00000000
_cell_angle_beta   90.00000000
_cell_angle_gamma   154.15080332
_symmetry_Int_Tables_number   1
_chemical_formula_structural   Lu4Zn5Ge6
_chemical_formula_sum   'Lu8 Zn10 Ge12'
_cell_volume   585.54985465
_cell_formula_units_Z   2
loop_
 _symmetry_equiv_pos_site_id
 _symmetry_equiv_pos_as_xyz
  1  'x, y, z'
loop_
 _atom_site_type_symbol
 _atom_site_label
 _atom_site_symmetry_multiplicity
 _atom_site_fract_x
 _atom_site_fract_y
 _atom_site_fract_z
 _atom_site_occupancy
  Lu  Lu0  1  0.03243400  0.96756600  0.73644200  1
  Lu  Lu1  1  0.96756600  0.03243400  0.23644200  1
  Lu  Lu2  1  0.83347700  0.16652300  0.69718200  1
  Lu  Lu3  1  0.16652300  0.83347700  0.19718200  1
  Lu  Lu4  1  0.17451700  0.82548300  0.55664600  1
  Lu  Lu5  1  0.82548300  0.17451700  0.05664600  1
  Lu  Lu6  1  0.98204100  0.01795900  0.50158400  1
  Lu  Lu7  1  0.01795900  0.98204100  0.00158400  1
  Zn  Zn0  1  0.56538500  0.43461500  0.31398900  1
  Zn  Zn1  1  0.43461500  0.56538500  0.81398900  1
  Zn  Zn2  1  0.84895400  0.15104600  0.37353100  1
  Zn  Zn3  1  0.15104600  0.84895400  0.87353100  1
  Zn  Zn4  1  0.34891600  0.65108400  0.51908200  1
  Zn  Zn5  1  0.65108400  0.34891600  0.01908200  1
  Zn  Zn6  1  0.69890100  0.30109900  0.37651000  1
  Zn  Zn7  1  0.30109900  0.69890100  0.87651000  1
  Zn  Zn8  1  0.65539600  0.34460400  0.72685500  1
  Zn  Zn9  1  0.34460400  0.65539600  0.22685500  1
  Ge  Ge0  1  0.22959900  0.77040100  0.73365200  1
  Ge  Ge1  1  0.56962900  0.43037100  0.59109100  1
  Ge  Ge2  1  0.22455400  0.77544600  0.01624100  1
  Ge  Ge3  1  0.77544600  0.22455400  0.51624100  1
  Ge  Ge4  1  0.56038100  0.43961900  0.14581500  1
  Ge  Ge5  1  0.43961900  0.56038100  0.64581500  1
  Ge  Ge6  1  0.56563200  0.43436800  0.87162900  1
  Ge  Ge7  1  0.43436800  0.56563200  0.37162900  1
  Ge  Ge8  1  0.88827500  0.11172500  0.88427000  1
  Ge  Ge9  1  0.11172500  0.88827500  0.38427000  1
  Ge  Ge10  1  0.43037100  0.56962900  0.09109100  1
  Ge  Ge11  1  0.77040100  0.22959900  0.23365200  1
loop_
_geom_bond_atom_site_label_1
_geom_bond_atom_site_label_2
_geom_bond_distance
_geom_bond_site_symmetry_2
Lu0 Zn1 3.006980 1_455
Lu0 Zn1 3.006980 1_565
Lu0 Zn3 3.008245 1_555
Lu0 Zn8 3.091309 1_565
Lu0 Zn8 3.091309 1_455
Lu1 Zn0 3.006980 1_545
Lu1 Zn0 3.006980 1_655
Lu1 Zn2 3.008245 1_555
Lu1 Zn9 3.091309 1_545
Lu1 Zn9 3.091309 1_655
Lu6 Zn2 3.119084 1_555
Lu6 Zn4 3.237692 1_545
Lu6 Zn4 3.237692 1_655
Lu7 Zn3 3.119084 1_554
Lu7 Zn5 3.237692 1_455
Lu7 Zn5 3.237692 1_565
Ge0 Zn8 2.510960 1_565
Ge0 Zn8 2.510960 1_455
Ge0 Zn7 2.529888 1_555
Ge0 Zn3 2.562045 1_555
Ge0 Lu4 2.864068 1_555
Ge0 Lu2 2.894926 1_565
Ge0 Lu2 2.894926 1_455
Ge1 Ge5 2.526712 1_555
Ge1 Zn8 2.589159 1_555
Ge1 Lu4 2.901511 1_545
Ge1 Lu4 2.901511 1_655
Ge1 Lu6 2.976633 1_565
Ge1 Lu6 2.976633 1_455
Ge1 Lu0 3.121888 1_655
Ge1 Lu0 3.121888 1_545
Ge2 Zn5 2.501937 1_455
Ge2 Zn5 2.501937 1_565
Ge2 Zn7 2.539607 1_554
Ge2 Zn3 2.547313 1_554
Ge2 Lu5 2.871640 1_455
Ge2 Lu5 2.871640 1_565
Ge2 Lu3 2.939069 1_555
Ge3 Zn4 2.501937 1_545
Ge3 Zn4 2.501937 1_655
Ge3 Zn6 2.539607 1_555
Ge3 Zn2 2.547313 1_555
Ge3 Lu4 2.871640 1_655
Ge3 Lu4 2.871640 1_545
Ge3 Lu2 2.939069 1_555
Ge4 Zn5 2.540495 1_555
Ge4 Zn0 2.547526 1_555
Ge4 Lu3 2.973341 1_655
Ge4 Lu3 2.973341 1_545
Ge4 Lu1 3.037179 1_565
Ge4 Lu1 3.037179 1_455
Ge4 Lu7 3.132435 1_655
Ge4 Lu7 3.132435 1_545
Ge5 Zn4 2.540495 1_555
Ge5 Zn1 2.547526 1_555
Ge5 Lu2 2.973341 1_565
Ge5 Lu2 2.973341 1_455
Ge5 Lu0 3.037179 1_655
Ge5 Lu0 3.037179 1_545
Ge5 Lu6 3.132435 1_565
Ge5 Lu6 3.132435 1_455
Ge6 Zn1 2.558900 1_555
Ge6 Zn3 2.626481 1_655
Ge6 Zn3 2.626481 1_545
Ge6 Zn5 2.728412 1_556
Ge6 Zn8 2.742173 1_555
Ge6 Lu0 2.999648 1_655
Ge6 Lu0 2.999648 1_545
Ge6 Lu7 3.012408 1_656
Ge6 Lu7 3.012408 1_546
Ge7 Zn0 2.558900 1_555
Ge7 Zn2 2.626481 1_565
Ge7 Zn2 2.626481 1_455
Ge7 Zn4 2.728412 1_555
Ge7 Zn9 2.742173 1_555
Ge7 Lu1 2.999648 1_565
Ge7 Lu1 2.999648 1_455
Ge7 Lu6 3.012408 1_565
Ge7 Lu6 3.012408 1_455
Ge8 Zn1 2.508795 1_545
Ge8 Zn1 2.508795 1_655
Ge8 Zn7 2.648374 1_545
Ge8 Zn7 2.648374 1_655
Ge8 Lu5 2.852813 1_556
Ge8 Lu7 2.970418 1_646
Ge8 Lu2 3.005594 1_555
Ge9 Zn0 2.508795 1_455
Ge9 Zn0 2.508795 1_565
Ge9 Zn6 2.648374 1_455
Ge9 Zn6 2.648374 1_565
Ge9 Lu4 2.852813 1_555
Ge9 Lu6 2.970418 1_465
Ge9 Lu3 3.005594 1_555
Ge10 Ge4 2.526712 1_555
Ge10 Zn9 2.589159 1_555
Ge10 Lu5 2.901511 1_455
Ge10 Lu5 2.901511 1_565
Ge10 Lu7 2.976633 1_545
Ge10 Lu7 2.976633 1_655
Ge10 Lu1 3.121888 1_565
Ge10 Lu1 3.121888 1_455
Ge11 Zn9 2.510960 1_655
Ge11 Zn9 2.510960 1_545
Ge11 Zn6 2.529888 1_555
Ge11 Zn2 2.562045 1_555
Ge11 Lu5 2.864068 1_555
Ge11 Lu3 2.894926 1_655
Ge11 Lu3 2.894926 1_545
