# generated using pymatgen
data_Y2Ni12As7
_symmetry_space_group_name_H-M   'P 1'
_cell_length_a   9.35265490
_cell_length_b   9.35265490
_cell_length_c   3.82416700
_cell_angle_alpha   90.00000000
_cell_angle_beta   90.00000000
_cell_angle_gamma   120.00000639
_symmetry_Int_Tables_number   1
_chemical_formula_structural   Y2Ni12As7
_chemical_formula_sum   'Y2 Ni12 As7'
_cell_volume   289.69251429
_cell_formula_units_Z   1
loop_
 _symmetry_equiv_pos_site_id
 _symmetry_equiv_pos_as_xyz
  1  'x, y, z'
loop_
 _atom_site_type_symbol
 _atom_site_label
 _atom_site_symmetry_multiplicity
 _atom_site_fract_x
 _atom_site_fract_y
 _atom_site_fract_z
 _atom_site_occupancy
  Y  Y0  1  0.66666700  0.33333300  0.00000000  1
  Y  Y1  1  0.33333300  0.66666700  0.50000000  1
  Ni  Ni0  1  0.05517000  0.61904100  0.00000000  1
  Ni  Ni1  1  0.56387100  0.94483000  0.00000000  1
  Ni  Ni2  1  0.38095900  0.43612900  0.00000000  1
  Ni  Ni3  1  0.27892700  0.12641400  0.00000000  1
  Ni  Ni4  1  0.84748700  0.72107300  0.00000000  1
  Ni  Ni5  1  0.87358600  0.15251300  0.00000000  1
  Ni  Ni6  1  0.42604700  0.04702100  0.50000000  1
  Ni  Ni7  1  0.62097400  0.57395300  0.50000000  1
  Ni  Ni8  1  0.95297900  0.37902600  0.50000000  1
  Ni  Ni9  1  0.09560900  0.88464700  0.50000000  1
  Ni  Ni10  1  0.78903800  0.90439100  0.50000000  1
  Ni  Ni11  1  0.11535300  0.21096200  0.50000000  1
  As  As0  1  0.28735500  0.88297700  0.00000000  1
  As  As1  1  0.59562200  0.71264500  0.00000000  1
  As  As2  1  0.11702300  0.40437800  0.00000000  1
  As  As3  1  0.40612300  0.29585500  0.50000000  1
  As  As4  1  0.88973300  0.59387700  0.50000000  1
  As  As5  1  0.70414500  0.11026700  0.50000000  1
  As  As6  1  0.00000000  0.00000000  0.00000000  1
loop_
_geom_bond_atom_site_label_1
_geom_bond_atom_site_label_2
_geom_bond_distance
_geom_bond_site_symmetry_2
Ni0 Y1 3.076327 1_555
Ni0 Y1 3.076327 1_554
Ni0 Y0 3.260916 1_455
Ni1 Y1 3.076329 1_555
Ni1 Y1 3.076329 1_554
Ni1 Y0 3.260913 1_565
Ni2 Y1 3.076334 1_555
Ni2 Y1 3.076334 1_554
Ni2 Y0 3.260923 1_555
Ni3 Y0 3.142923 1_555
Ni4 Y0 3.142924 1_555
Ni5 Y0 3.142916 1_555
Ni6 Y0 3.140836 1_556
Ni6 Y0 3.140836 1_555
Ni6 Y1 3.212755 1_545
Ni7 Y0 3.140841 1_556
Ni7 Y0 3.140841 1_555
Ni7 Y1 3.212764 1_555
Ni8 Y0 3.140833 1_556
Ni8 Y0 3.140833 1_555
Ni8 Y1 3.212757 1_655
As0 Ni3 2.317200 1_565
As0 Ni0 2.334234 1_555
As0 Ni1 2.350915 1_555
As0 Ni6 2.387973 1_564
As0 Ni6 2.387973 1_565
As0 Ni9 2.626855 1_555
As0 Ni9 2.626855 1_554
As0 Y1 2.967112 1_555
As0 Y1 2.967112 1_554
As1 Ni4 2.317200 1_555
As1 Ni1 2.334234 1_555
As1 Ni2 2.350915 1_555
As1 Ni7 2.387973 1_555
As1 Ni7 2.387973 1_554
As1 Ni10 2.626854 1_555
As1 Ni10 2.626854 1_554
As1 Y1 2.967119 1_555
As1 Y1 2.967119 1_554
As2 Ni5 2.317200 1_455
As2 Ni2 2.334234 1_555
As2 Ni0 2.350915 1_555
As2 Ni8 2.387973 1_454
As2 Ni8 2.387973 1_455
As2 Ni11 2.626855 1_555
As2 Ni11 2.626855 1_554
As2 Y1 2.967117 1_555
As2 Y1 2.967117 1_554
As3 Ni7 2.361426 1_555
As3 Ni3 2.386920 1_556
As3 Ni3 2.386920 1_555
As3 Ni2 2.396120 1_555
As3 Ni2 2.396120 1_556
As3 Ni11 2.422133 1_555
As3 Ni6 2.425803 1_555
As3 Y0 2.977025 1_556
As3 Y0 2.977025 1_555
As4 Ni8 2.361420 1_555
As4 Ni4 2.386924 1_556
As4 Ni4 2.386924 1_555
As4 Ni0 2.396114 1_656
As4 Ni0 2.396114 1_655
As4 Ni9 2.422131 1_655
As4 Ni7 2.425813 1_555
As4 Y0 2.977025 1_556
As4 Y0 2.977025 1_555
As5 Ni6 2.361429 1_555
As5 Ni5 2.386919 1_555
As5 Ni5 2.386919 1_556
As5 Ni1 2.396116 1_546
As5 Ni1 2.396116 1_545
As5 Ni10 2.422124 1_545
As5 Ni8 2.425808 1_555
As5 Y0 2.977025 1_556
As5 Y0 2.977025 1_555
As6 Ni4 2.262501 1_445
As6 Ni3 2.262501 1_555
As6 Ni5 2.262502 1_455
As6 Ni11 2.565988 1_555
As6 Ni11 2.565988 1_554
As6 Ni10 2.565988 1_445
As6 Ni10 2.565988 1_444
As6 Ni9 2.565989 1_544
As6 Ni9 2.565989 1_545
