# generated using pymatgen
data_KMgNi2H3(SeO5)2
_symmetry_space_group_name_H-M   'P 1'
_cell_length_a   5.85261079
_cell_length_b   5.91448221
_cell_length_c   8.11687922
_cell_angle_alpha   68.88475259
_cell_angle_beta   69.03469108
_cell_angle_gamma   69.40381364
_symmetry_Int_Tables_number   1
_chemical_formula_structural   KMgNi2H3(SeO5)2
_chemical_formula_sum   'K1 Mg1 Ni2 H3 Se2 O10'
_cell_volume   236.60338929
_cell_formula_units_Z   1
loop_
 _symmetry_equiv_pos_site_id
 _symmetry_equiv_pos_as_xyz
  1  'x, y, z'
loop_
 _atom_site_type_symbol
 _atom_site_label
 _atom_site_symmetry_multiplicity
 _atom_site_fract_x
 _atom_site_fract_y
 _atom_site_fract_z
 _atom_site_occupancy
  K  K0  1  0.61219400  0.39699800  0.50266000  1
  Mg  Mg0  1  0.12602500  0.86756800  0.50160900  1
  Ni  Ni0  1  0.97353100  0.49853500  0.98882800  1
  Ni  Ni1  1  0.50826200  0.00102200  0.00481000  1
  H  H0  1  0.65287000  0.69705300  0.79283900  1
  H  H1  1  0.31373200  0.33135700  0.21186300  1
  H  H2  1  0.45092300  0.49339600  0.01526500  1
  Se  Se0  1  0.94143900  0.91295400  0.22208600  1
  Se  Se1  1  0.09291100  0.05198700  0.77707900  1
  O  O0  1  0.83541300  0.81010500  0.45837500  1
  O  O1  1  0.18510800  0.15976900  0.53956700  1
  O  O2  1  0.27072800  0.86187000  0.24343700  1
  O  O3  1  0.80770500  0.22972200  0.19569200  1
  O  O4  1  0.77279100  0.18155000  0.81112400  1
  O  O5  1  0.14181100  0.72279000  0.75672700  1
  O  O6  1  0.62149700  0.67233300  0.92369700  1
  O  O7  1  0.32922700  0.37160900  0.08097000  1
  O  O8  1  0.76982000  0.76093900  0.16306800  1
  O  O9  1  0.22748800  0.23097000  0.84130300  1
loop_
_geom_bond_atom_site_label_1
_geom_bond_atom_site_label_2
_geom_bond_distance
_geom_bond_site_symmetry_2
K0 O4 2.705314 1_555
K0 O3 2.726845 1_555
K0 O8 2.895658 1_555
K0 O9 2.961619 1_555
K0 O0 3.013740 1_555
K0 O1 3.151986 1_555
K0 Mg0 3.204824 1_555
K0 O1 3.226033 1_655
K0 O5 3.257718 1_555
K0 O2 3.309945 1_555
K0 O0 3.355202 1_545
Mg0 O5 1.957937 1_555
Mg0 O2 1.967361 1_555
Mg0 O0 2.012773 1_455
Mg0 O1 2.020286 1_565
Ni0 O5 2.017266 1_655
Ni0 O3 2.070038 1_556
Ni0 O6 2.116341 1_555
Ni0 O9 2.141068 1_655
Ni0 O8 2.214335 1_556
Ni0 O7 2.250942 1_656
Ni1 O2 2.022658 1_545
Ni1 O4 2.054351 1_554
Ni1 O6 2.086961 1_544
Ni1 O8 2.138551 1_545
Ni1 O9 2.235880 1_554
Ni1 O7 2.276197 1_555
H0 O6 0.975043 1_555
H1 O7 0.978616 1_555
H2 O7 1.059671 1_555
H2 O6 1.521411 1_554
O0 Se0 1.734032 1_555
O1 Se1 1.739628 1_555
O2 Se0 1.904478 1_455
O3 Se0 1.722699 1_545
O4 Se1 1.716306 1_655
O5 Se1 1.925094 1_565
O8 Se0 1.826663 1_555
O9 Se1 1.814043 1_555
