# generated using pymatgen
data_PbCNO6
_symmetry_space_group_name_H-M   'P 1'
_cell_length_a   8.08361500
_cell_length_b   6.20867300
_cell_length_c   10.26459469
_cell_angle_alpha   75.50864962
_cell_angle_beta   90.00000000
_cell_angle_gamma   90.00000000
_symmetry_Int_Tables_number   1
_chemical_formula_structural   PbCNO6
_chemical_formula_sum   'Pb4 C4 N4 O24'
_cell_volume   498.77508940
_cell_formula_units_Z   4
loop_
 _symmetry_equiv_pos_site_id
 _symmetry_equiv_pos_as_xyz
  1  'x, y, z'
loop_
 _atom_site_type_symbol
 _atom_site_label
 _atom_site_symmetry_multiplicity
 _atom_site_fract_x
 _atom_site_fract_y
 _atom_site_fract_z
 _atom_site_occupancy
  Pb  Pb0  1  0.42107600  0.50580200  0.73139600  1
  Pb  Pb1  1  0.92107600  0.99419800  0.26860400  1
  Pb  Pb2  1  0.57892400  0.49419800  0.26860400  1
  Pb  Pb3  1  0.07892400  0.00580200  0.73139600  1
  C  C0  1  0.54897400  0.93296000  0.45596700  1
  C  C1  1  0.04897400  0.56704000  0.54403300  1
  C  C2  1  0.45102600  0.06704000  0.54403300  1
  C  C3  1  0.95102600  0.43296000  0.45596700  1
  N  N0  1  0.70417500  0.80108800  0.83123000  1
  N  N1  1  0.20417500  0.69891200  0.16877000  1
  N  N2  1  0.29582500  0.19891200  0.16877000  1
  N  N3  1  0.79582500  0.30108800  0.83123000  1
  O  O0  1  0.14057800  0.44671000  0.63377200  1
  O  O1  1  0.64057800  0.05329000  0.36622800  1
  O  O2  1  0.85942200  0.55329000  0.36622800  1
  O  O3  1  0.35942200  0.94671000  0.63377200  1
  O  O4  1  0.52802700  0.72668000  0.47988500  1
  O  O5  1  0.02802700  0.77332000  0.52011500  1
  O  O6  1  0.47197300  0.27332000  0.52011500  1
  O  O7  1  0.97197300  0.22668000  0.47988500  1
  O  O8  1  0.74109600  0.79347600  0.71262800  1
  O  O9  1  0.24109600  0.70652400  0.28737200  1
  O  O10  1  0.25890400  0.20652400  0.28737200  1
  O  O11  1  0.75890400  0.29347600  0.71262800  1
  O  O12  1  0.55716300  0.76497700  0.87386300  1
  O  O13  1  0.05716300  0.73502300  0.12613700  1
  O  O14  1  0.44283700  0.23502300  0.12613700  1
  O  O15  1  0.94283700  0.26497700  0.87386300  1
  O  O16  1  0.68487300  0.34305700  0.90833500  1
  O  O17  1  0.18487300  0.15694300  0.09166500  1
  O  O18  1  0.31512700  0.65694300  0.09166500  1
  O  O19  1  0.81512700  0.84305700  0.90833500  1
  O  O20  1  0.31028700  0.13537300  0.83341700  1
  O  O21  1  0.81028700  0.36462700  0.16658300  1
  O  O22  1  0.68971300  0.86462700  0.16658300  1
  O  O23  1  0.18971300  0.63537300  0.83341700  1
loop_
_geom_bond_atom_site_label_1
_geom_bond_atom_site_label_2
_geom_bond_distance
_geom_bond_site_symmetry_2
C0 O4 1.253731 1_555
C0 O1 1.269075 1_565
C1 O5 1.253731 1_555
C1 O0 1.269075 1_555
C2 O6 1.253731 1_555
C2 O3 1.269075 1_545
C3 O7 1.253731 1_555
C3 O2 1.269075 1_555
N0 O19 1.265671 1_555
N0 O8 1.265768 1_555
N0 O12 1.266860 1_555
N1 O18 1.265671 1_555
N1 O9 1.265768 1_555
N1 O13 1.266860 1_555
N2 O17 1.265671 1_555
N2 O10 1.265768 1_555
N2 O14 1.266860 1_555
N3 O16 1.265671 1_555
N3 O11 1.265768 1_555
N3 O15 1.266860 1_555
O0 Pb0 2.542443 1_555
O0 Pb3 2.715390 1_555
O1 Pb1 2.542443 1_545
O1 Pb2 2.715390 1_555
O2 Pb2 2.542443 1_555
O2 Pb1 2.715390 1_555
O3 Pb3 2.542443 1_565
O3 Pb0 2.715390 1_555
O4 Pb0 2.742478 1_555
O5 Pb1 2.742478 1_455
O6 Pb2 2.742478 1_555
O7 Pb3 2.742478 1_655
O12 Pb0 2.667519 1_555
O13 Pb1 2.667519 1_455
O14 Pb2 2.667519 1_555
O15 Pb3 2.667519 1_655
O16 Pb0 2.819294 1_555
O17 Pb1 2.819294 1_445
O18 Pb2 2.819294 1_555
O19 Pb3 2.819294 1_665
O20 Pb3 2.379757 1_555
O20 Pb0 2.445968 1_555
O21 Pb2 2.379757 1_555
O21 Pb1 2.445968 1_545
O22 Pb1 2.379757 1_555
O22 Pb2 2.445968 1_555
O23 Pb0 2.379757 1_555
O23 Pb3 2.445968 1_565
