# generated using pymatgen
data_VZn2WO6
_symmetry_space_group_name_H-M   'P 1'
_cell_length_a   5.27105303
_cell_length_b   7.80652554
_cell_length_c   5.28616596
_cell_angle_alpha   89.99190409
_cell_angle_beta   89.99175537
_cell_angle_gamma   90.00816050
_symmetry_Int_Tables_number   1
_chemical_formula_structural   VZn2WO6
_chemical_formula_sum   'V2 Zn4 W2 O12'
_cell_volume   217.51837524
_cell_formula_units_Z   2
loop_
 _symmetry_equiv_pos_site_id
 _symmetry_equiv_pos_as_xyz
  1  'x, y, z'
loop_
 _atom_site_type_symbol
 _atom_site_label
 _atom_site_symmetry_multiplicity
 _atom_site_fract_x
 _atom_site_fract_y
 _atom_site_fract_z
 _atom_site_occupancy
  V  V0  1  0.49999300  0.50000300  0.00000900  1
  V  V1  1  0.00000000  0.99999700  0.50000200  1
  Zn  Zn0  1  0.02587000  0.25092100  0.01127600  1
  Zn  Zn1  1  0.52547900  0.24921100  0.48867800  1
  Zn  Zn2  1  0.97413100  0.74907900  0.98872400  1
  Zn  Zn3  1  0.47452100  0.75078900  0.51132100  1
  W  W0  1  0.00000100  0.50000100  0.49999900  1
  W  W1  1  0.50000000  0.00000000  0.99999900  1
  O  O0  1  0.31926000  0.43539900  0.66723200  1
  O  O1  1  0.81878500  0.06466700  0.83332900  1
  O  O2  1  0.68074100  0.56460000  0.33276800  1
  O  O3  1  0.18121600  0.93533400  0.16667000  1
  O  O4  1  0.17451200  0.56591900  0.17217700  1
  O  O5  1  0.67523500  0.93410700  0.32818400  1
  O  O6  1  0.82548900  0.43408100  0.82782300  1
  O  O7  1  0.32476600  0.06589400  0.67181500  1
  O  O8  1  0.41362100  0.24614900  0.11585900  1
  O  O9  1  0.91362400  0.25406400  0.38433200  1
  O  O10  1  0.08637700  0.74593600  0.61566700  1
  O  O11  1  0.58637900  0.75385000  0.88414000  1
loop_
_geom_bond_atom_site_label_1
_geom_bond_atom_site_label_2
_geom_bond_distance
_geom_bond_site_symmetry_2
O0 W0 1.966798 1_555
O0 Zn1 2.045870 1_555
O0 V0 2.063245 1_556
O1 W1 1.963113 1_555
O1 Zn0 2.047112 1_656
O1 V1 2.066856 1_645
O2 W0 1.966792 1_655
O2 Zn3 2.045876 1_555
O2 V0 2.063187 1_555
O3 W1 1.963109 1_564
O3 Zn2 2.047115 1_454
O3 V1 2.066867 1_555
O4 V0 2.009079 1_555
O4 Zn2 2.025049 1_454
O4 W0 2.028081 1_555
O5 V1 2.005064 1_655
O5 Zn3 2.025679 1_555
O5 W1 2.031696 1_564
O6 V0 2.009201 1_556
O6 Zn0 2.025049 1_656
O6 W0 2.028096 1_655
O7 V1 2.005071 1_545
O7 Zn1 2.025671 1_555
O7 W1 2.031691 1_555
O8 Zn1 2.057314 1_555
O8 W1 2.067688 1_554
O8 Zn0 2.117714 1_555
O8 V0 2.123401 1_555
O9 Zn0 2.058948 1_655
O9 W0 2.065764 1_655
O9 Zn1 2.119239 1_555
O9 V1 2.124843 1_645
O10 Zn2 2.058953 1_455
O10 W0 2.065750 1_555
O10 Zn3 2.119234 1_555
O10 V1 2.124792 1_555
O11 Zn3 2.057314 1_555
O11 W1 2.067694 1_565
O11 Zn2 2.117720 1_555
O11 V0 2.123395 1_556
