# generated using pymatgen
data_NaLa5Mg4(WO6)4
_symmetry_space_group_name_H-M   'P 1'
_cell_length_a   11.24648419
_cell_length_b   7.93892658
_cell_length_c   9.75102562
_cell_angle_alpha   65.90794140
_cell_angle_beta   54.81617155
_cell_angle_gamma   44.89306585
_symmetry_Int_Tables_number   1
_chemical_formula_structural   NaLa5Mg4(WO6)4
_chemical_formula_sum   'Na1 La5 Mg4 W4 O24'
_cell_volume   502.21226879
_cell_formula_units_Z   1
loop_
 _symmetry_equiv_pos_site_id
 _symmetry_equiv_pos_as_xyz
  1  'x, y, z'
loop_
 _atom_site_type_symbol
 _atom_site_label
 _atom_site_symmetry_multiplicity
 _atom_site_fract_x
 _atom_site_fract_y
 _atom_site_fract_z
 _atom_site_occupancy
  Na  Na0  1  0.01910200  0.74994400  0.99797800  1
  La  La0  1  0.25321700  0.25072200  0.49723800  1
  La  La1  1  0.25296800  0.74998400  0.50067400  1
  La  La2  1  0.51154400  0.74998700  0.00234300  1
  La  La3  1  0.75392400  0.24927800  0.49728500  1
  La  La4  1  0.75080500  0.75001300  0.50615100  1
  Mg  Mg0  1  0.12632000  0.25462200  0.24259200  1
  Mg  Mg1  1  0.63098100  0.24536100  0.24257700  1
  Mg  Mg2  1  0.37115400  0.75000100  0.75888300  1
  Mg  Mg3  1  0.87647900  0.74997800  0.75776800  1
  W  W0  1  0.12775100  0.74995400  0.24139000  1
  W  W1  1  0.36754800  0.25375300  0.76134200  1
  W  W2  1  0.63380300  0.75000100  0.23982200  1
  W  W3  1  0.87130200  0.24628100  0.76130600  1
  O  O0  1  0.10436900  0.98803100  0.30296000  1
  O  O1  1  0.23878200  0.22546300  0.98978900  1
  O  O2  1  0.03223400  0.25784000  0.50680600  1
  O  O3  1  0.39376700  0.98075500  0.22820700  1
  O  O4  1  0.13311000  0.51003700  0.23404200  1
  O  O5  1  0.16061500  0.48717800  0.69709600  1
  O  O6  1  0.59847500  0.99235500  0.30184000  1
  O  O7  1  0.34247100  0.51201100  0.30289600  1
  O  O8  1  0.71427100  0.27450200  0.98979700  1
  O  O9  1  0.54000600  0.24230000  0.50681000  1
  O  O10  1  0.35503800  0.50092800  0.76736700  1
  O  O11  1  0.10601700  0.99922400  0.76728800  1
  O  O12  1  0.89311200  0.98987700  0.23410800  1
  O  O13  1  0.62465300  0.51917800  0.22810700  1
  O  O14  1  0.46856100  0.74993900  0.49356400  1
  O  O15  1  0.28826300  0.75001900  0.01336700  1
  O  O16  1  0.65813400  0.49427500  0.69730100  1
  O  O17  1  0.40244500  0.00571000  0.69729100  1
  O  O18  1  0.84084800  0.50766700  0.30184300  1
  O  O19  1  0.84353200  0.51351500  0.77142700  1
  O  O20  1  0.60707200  0.98659700  0.77137100  1
  O  O21  1  0.97027400  0.74989900  0.49676900  1
  O  O22  1  0.77540400  0.75004000  0.01089500  1
  O  O23  1  0.89785300  0.01278200  0.69711000  1
loop_
_geom_bond_atom_site_label_1
_geom_bond_atom_site_label_2
_geom_bond_distance
_geom_bond_site_symmetry_2
Na0 O10 2.548562 1_555
Na0 O11 2.550405 1_555
Na0 O4 2.632881 1_556
Na0 O12 2.633321 1_456
Na0 O22 2.669616 1_456
La0 O2 2.393039 1_555
La0 O5 2.506840 1_555
La0 O6 2.508991 1_545
La0 O7 2.539783 1_555
La0 O17 2.540718 1_555
La0 O4 2.896703 1_555
La0 O3 2.997580 1_545
La0 O11 3.004723 1_545
La0 O19 3.077034 1_455
La1 O14 2.385135 1_555
La1 O7 2.518886 1_555
La1 O0 2.518906 1_555
La1 O23 2.571612 1_465
La1 O5 2.572092 1_555
La1 O10 2.831329 1_555
La1 O11 2.832023 1_555
La1 O3 2.865480 1_555
La1 O13 2.866257 1_555
La1 O9 2.874081 1_555
La1 O2 2.875158 1_565
La2 O15 2.450583 1_555
La2 O19 2.523168 1_554
La2 O20 2.524319 1_554
La2 O13 2.540359 1_555
La2 O3 2.540773 1_555
La2 O1 2.706132 1_564
La2 O8 2.706304 1_554
La3 O9 2.393078 1_555
La3 O23 2.506773 1_555
La3 O18 2.509632 1_555
La3 O0 2.538917 1_645
La3 O16 2.540556 1_555
La3 O12 2.897369 1_545
La3 O13 2.997753 1_555
La3 O10 3.005659 1_555
La3 O20 3.076105 1_545
La4 O21 2.416058 1_555
La4 O17 2.519828 1_565
La4 O16 2.520385 1_555
La4 O6 2.596057 1_555
La4 O18 2.596130 1_555
La4 O19 2.770065 1_555
La4 O20 2.770426 1_555
La4 O2 2.786701 1_655
La4 O9 2.787467 1_565
La4 O12 2.919933 1_555
La4 O4 2.920678 1_655
Mg0 O1 2.046459 1_554
Mg0 O4 2.049017 1_555
Mg0 O3 2.071472 1_545
Mg0 O18 2.085393 1_455
Mg0 O0 2.107725 1_545
Mg0 O2 2.152149 1_555
Mg1 O8 2.046276 1_554
Mg1 O12 2.048394 1_545
Mg1 O13 2.071812 1_555
Mg1 O6 2.085992 1_545
Mg1 O7 2.107284 1_555
Mg1 O9 2.152245 1_555
Mg2 O11 2.074738 1_555
Mg2 O10 2.075249 1_555
Mg2 O15 2.088307 1_556
Mg2 O16 2.092147 1_555
Mg2 O17 2.092588 1_565
Mg2 O14 2.151166 1_555
Mg3 O22 2.037465 1_556
Mg3 O5 2.072970 1_655
Mg3 O23 2.073614 1_565
Mg3 O20 2.098244 1_555
Mg3 O19 2.098501 1_555
Mg3 O21 2.120468 1_555
O0 W0 2.010535 1_555
O1 W1 1.855965 1_555
O2 W3 2.077513 1_455
O3 W2 1.957671 1_555
O4 W0 1.892189 1_555
O5 W1 1.965857 1_555
O6 W2 1.953301 1_555
O7 W0 2.010080 1_555
O8 W3 1.856247 1_555
O9 W1 2.077750 1_555
O10 W1 1.888732 1_555
O11 W3 1.888606 1_465
O12 W0 1.892250 1_655
O13 W2 1.957874 1_555
O14 W2 2.068073 1_555
O15 W0 1.891399 1_555
O16 W3 2.011660 1_555
O17 W1 2.012074 1_555
O18 W2 1.953159 1_555
O19 W3 1.950611 1_555
O20 W1 1.950319 1_565
O21 W0 2.062897 1_655
O22 W2 1.850019 1_555
O23 W3 1.965961 1_555
