# generated using pymatgen
data_Li4Cr3CoO8
_symmetry_space_group_name_H-M   'P 1'
_cell_length_a   5.09607442
_cell_length_b   9.84401966
_cell_length_c   5.90114568
_cell_angle_alpha   90.29355974
_cell_angle_beta   89.67166963
_cell_angle_gamma   100.07756250
_symmetry_Int_Tables_number   1
_chemical_formula_structural   Li4Cr3CoO8
_chemical_formula_sum   'Li8 Cr6 Co2 O16'
_cell_volume   291.46138117
_cell_formula_units_Z   2
loop_
 _symmetry_equiv_pos_site_id
 _symmetry_equiv_pos_as_xyz
  1  'x, y, z'
loop_
 _atom_site_type_symbol
 _atom_site_label
 _atom_site_symmetry_multiplicity
 _atom_site_fract_x
 _atom_site_fract_y
 _atom_site_fract_z
 _atom_site_occupancy
  Li  Li0  1  0.99666700  0.99851100  0.99830100  1
  Li  Li1  1  0.50334300  0.50149300  0.50170900  1
  Li  Li2  1  0.00219000  0.99886800  0.50307200  1
  Li  Li3  1  0.49782300  0.50113700  0.99691600  1
  Li  Li4  1  0.48868000  0.00204700  0.25333800  1
  Li  Li5  1  0.98755700  0.50258100  0.75541200  1
  Li  Li6  1  0.01134600  0.49796500  0.24665200  1
  Li  Li7  1  0.51245900  0.99742700  0.74458500  1
  Cr  Cr0  1  0.74972600  0.74988300  0.24998000  1
  Cr  Cr1  1  0.25011000  0.75005600  0.99736700  1
  Cr  Cr2  1  0.24990300  0.74996300  0.50263600  1
  Cr  Cr3  1  0.25012800  0.25001300  0.74999200  1
  Cr  Cr4  1  0.74826700  0.24865200  0.49868500  1
  Cr  Cr5  1  0.75177400  0.25136600  0.00133100  1
  Co  Co0  1  0.25000700  0.25000700  0.24999800  1
  Co  Co1  1  0.75000400  0.75000400  0.75000600  1
  O  O0  1  0.88506700  0.13885900  0.24629200  1
  O  O1  1  0.38795300  0.63925500  0.74844200  1
  O  O2  1  0.61495300  0.36115800  0.25371000  1
  O  O3  1  0.11204600  0.86074800  0.75156400  1
  O  O4  1  0.62159000  0.36263400  0.75039800  1
  O  O5  1  0.12297900  0.86293600  0.25107600  1
  O  O6  1  0.87845400  0.13738400  0.74960500  1
  O  O7  1  0.37696900  0.63704500  0.24893000  1
  O  O8  1  0.38490600  0.13115700  0.51033700  1
  O  O9  1  0.87449600  0.63934000  0.99297600  1
  O  O10  1  0.37270400  0.14060700  0.00817000  1
  O  O11  1  0.87549300  0.63857400  0.50507900  1
  O  O12  1  0.12733900  0.35940500  0.49183000  1
  O  O13  1  0.62446400  0.86141800  0.99492800  1
  O  O14  1  0.11513800  0.36885500  0.98965900  1
  O  O15  1  0.62546300  0.86065000  0.50702500  1
loop_
_geom_bond_atom_site_label_1
_geom_bond_atom_site_label_2
_geom_bond_distance
_geom_bond_site_symmetry_2
Li0 O13 2.126912 1_555
Li0 O3 2.133981 1_655
Li0 O0 2.149089 1_566
Li0 O10 2.166711 1_666
Li0 O6 2.168990 1_565
Li0 O5 2.180049 1_656
Li1 O11 2.126644 1_555
Li1 O1 2.133980 1_555
Li1 O2 2.149052 1_555
Li1 O12 2.166544 1_555
Li1 O4 2.168936 1_555
Li1 O7 2.180043 1_555
Li2 O3 2.146764 1_555
Li2 O8 2.147813 1_565
Li2 O15 2.150170 1_455
Li2 O5 2.153647 1_555
Li2 O6 2.154873 1_465
Li2 O0 2.207052 1_465
Li3 O1 2.146704 1_555
Li3 O14 2.147655 1_555
Li3 O9 2.149884 1_555
Li3 O7 2.153692 1_556
Li3 O4 2.154790 1_555
Li3 O2 2.207043 1_556
Li4 O8 2.097936 1_555
Li4 O5 2.110825 1_545
Li4 O10 2.148269 1_555
Li4 O0 2.223409 1_555
Li4 O13 2.241011 1_544
Li4 O15 2.244397 1_545
Li5 O9 2.086279 1_555
Li5 O14 2.096406 1_655
Li5 O4 2.116137 1_555
Li5 O11 2.144310 1_555
Li5 O1 2.239229 1_655
Li5 O12 2.286808 1_655
Li6 O14 2.097943 1_554
Li6 O7 2.110369 1_555
Li6 O12 2.148343 1_555
Li6 O2 2.223413 1_455
Li6 O11 2.241093 1_455
Li6 O9 2.244351 1_454
Li7 O15 2.086274 1_555
Li7 O8 2.096377 1_565
Li7 O6 2.116296 1_565
Li7 O13 2.144343 1_555
Li7 O3 2.239321 1_555
Li7 O10 2.286789 1_566
Cr0 O9 2.025525 1_554
Cr0 O7 2.025826 1_555
Cr0 O15 2.025962 1_555
Cr0 O5 2.028769 1_655
Cr0 O11 2.037470 1_555
Cr0 O13 2.037531 1_554
Cr1 O1 2.020104 1_555
Cr1 O3 2.020539 1_555
Cr1 O13 2.027160 1_555
Cr1 O5 2.029726 1_556
Cr1 O9 2.030446 1_455
Cr1 O7 2.034439 1_556
Cr2 O3 2.020054 1_555
Cr2 O1 2.020616 1_555
Cr2 O11 2.027502 1_455
Cr2 O7 2.029802 1_555
Cr2 O15 2.030106 1_555
Cr2 O5 2.034338 1_555
Cr3 O4 2.019433 1_555
Cr3 O6 2.020372 1_455
Cr3 O8 2.023343 1_555
Cr3 O14 2.023776 1_555
Cr3 O10 2.033338 1_556
Cr3 O12 2.033625 1_555
Cr4 O8 2.005288 1_555
Cr4 O2 2.017169 1_555
Cr4 O4 2.026707 1_555
Cr4 O0 2.026765 1_555
Cr4 O6 2.028448 1_555
Cr4 O12 2.045618 1_655
Cr5 O14 2.005280 1_654
Cr5 O0 2.017069 1_555
Cr5 O2 2.026745 1_555
Cr5 O6 2.026769 1_554
Cr5 O4 2.028498 1_554
Cr5 O10 2.045629 1_555
Co0 O12 1.948520 1_555
Co0 O10 1.948575 1_555
Co0 O0 1.986062 1_455
Co0 O2 1.986099 1_555
Co0 O14 2.124450 1_554
Co0 O8 2.124527 1_555
Co1 O3 1.971989 1_655
Co1 O1 1.972047 1_555
Co1 O9 1.978211 1_555
Co1 O15 1.978256 1_555
Co1 O13 1.979860 1_555
Co1 O11 1.979869 1_555
