# generated using pymatgen
data_Ti2CuRe
_symmetry_space_group_name_H-M   'P 1'
_cell_length_a   10.41276960
_cell_length_b   10.41276960
_cell_length_c   10.41276960
_cell_angle_alpha   125.60423651
_cell_angle_beta   118.12681451
_cell_angle_gamma   86.92702877
_symmetry_Int_Tables_number   1
_chemical_formula_structural   Ti2CuRe
_chemical_formula_sum   'Ti2 Cu1 Re1'
_cell_volume   770.19324754
_cell_formula_units_Z   1
loop_
 _symmetry_equiv_pos_site_id
 _symmetry_equiv_pos_as_xyz
  1  'x, y, z'
loop_
 _atom_site_type_symbol
 _atom_site_label
 _atom_site_symmetry_multiplicity
 _atom_site_fract_x
 _atom_site_fract_y
 _atom_site_fract_z
 _atom_site_occupancy
  Ti  Ti0  1  0.00000000  0.27032900  0.27032900  1
  Ti  Ti1  1  0.00000000  0.72967100  0.72967100  1
  Cu  Cu0  1  0.00000000  0.00000000  0.00000000  1
  Re  Re0  1  0.00000000  0.50000000  0.50000000  1
loop_
_geom_bond_atom_site_label_1
_geom_bond_atom_site_label_2
_geom_bond_distance
_geom_bond_site_symmetry_2
Cu0 Ti0 2.573161 1_555
Cu0 Ti1 2.573161 1_544
Re0 Ti1 2.186152 1_555
Re0 Ti0 2.186152 1_555
