# generated using pymatgen
data_Cr2AgS4
_symmetry_space_group_name_H-M   'P 1'
_cell_length_a   3.49419800
_cell_length_b   11.64432900
_cell_length_c   11.93982200
_cell_angle_alpha   90.00000000
_cell_angle_beta   90.00000000
_cell_angle_gamma   90.00000000
_symmetry_Int_Tables_number   1
_chemical_formula_structural   Cr2AgS4
_chemical_formula_sum   'Cr8 Ag4 S16'
_cell_volume   485.80259538
_cell_formula_units_Z   4
loop_
 _symmetry_equiv_pos_site_id
 _symmetry_equiv_pos_as_xyz
  1  'x, y, z'
loop_
 _atom_site_type_symbol
 _atom_site_label
 _atom_site_symmetry_multiplicity
 _atom_site_fract_x
 _atom_site_fract_y
 _atom_site_fract_z
 _atom_site_occupancy
  Cr  Cr0  1  0.75000000  0.10401000  0.42020800  1
  Cr  Cr1  1  0.25000000  0.89599000  0.57979200  1
  Cr  Cr2  1  0.25000000  0.39599000  0.92020800  1
  Cr  Cr3  1  0.75000000  0.60401000  0.07979200  1
  Cr  Cr4  1  0.75000000  0.15099700  0.78962800  1
  Cr  Cr5  1  0.25000000  0.84900300  0.21037200  1
  Cr  Cr6  1  0.25000000  0.34900300  0.28962800  1
  Cr  Cr7  1  0.75000000  0.65099700  0.71037200  1
  Ag  Ag0  1  0.25000000  0.13008700  0.09081900  1
  Ag  Ag1  1  0.75000000  0.86991300  0.90918100  1
  Ag  Ag2  1  0.75000000  0.36991300  0.59081900  1
  Ag  Ag3  1  0.25000000  0.63008700  0.40918100  1
  S  S0  1  0.25000000  0.05034100  0.87670800  1
  S  S1  1  0.75000000  0.94965900  0.12329200  1
  S  S2  1  0.75000000  0.44965900  0.37670800  1
  S  S3  1  0.25000000  0.55034100  0.62329200  1
  S  S4  1  0.75000000  0.03495100  0.61685000  1
  S  S5  1  0.25000000  0.96504900  0.38315000  1
  S  S6  1  0.25000000  0.46504900  0.11685000  1
  S  S7  1  0.75000000  0.53495100  0.88315000  1
  S  S8  1  0.75000000  0.21005200  0.24797300  1
  S  S9  1  0.25000000  0.78994800  0.75202700  1
  S  S10  1  0.25000000  0.28994800  0.74797300  1
  S  S11  1  0.75000000  0.71005200  0.25202700  1
  S  S12  1  0.25000000  0.23567900  0.45975700  1
  S  S13  1  0.75000000  0.76432100  0.54024300  1
  S  S14  1  0.75000000  0.26432100  0.95975700  1
  S  S15  1  0.25000000  0.73567900  0.04024300  1
loop_
_geom_bond_atom_site_label_1
_geom_bond_atom_site_label_2
_geom_bond_distance
_geom_bond_site_symmetry_2
Cr0 S12 2.371925 1_655
Cr0 S12 2.371925 1_555
Cr0 S8 2.398689 1_555
Cr0 S5 2.422066 1_645
Cr0 S5 2.422066 1_545
Cr0 S4 2.481763 1_555
Cr1 S13 2.371925 1_455
Cr1 S13 2.371925 1_555
Cr1 S9 2.398689 1_555
Cr1 S4 2.422066 1_565
Cr1 S4 2.422066 1_465
Cr1 S5 2.481763 1_555
Cr2 S14 2.371925 1_455
Cr2 S14 2.371925 1_555
Cr2 S10 2.398689 1_555
Cr2 S7 2.422066 1_455
Cr2 S7 2.422066 1_555
Cr2 S6 2.481763 1_556
Cr3 S15 2.371925 1_555
Cr3 S15 2.371925 1_655
Cr3 S11 2.398689 1_555
Cr3 S6 2.422066 1_655
Cr3 S6 2.422066 1_555
Cr3 S7 2.481763 1_554
Cr4 S0 2.346726 1_555
Cr4 S0 2.346726 1_655
Cr4 S14 2.422296 1_555
Cr4 S10 2.432614 1_555
Cr4 S10 2.432614 1_655
Cr4 S4 2.466104 1_555
Cr5 S1 2.346726 1_555
Cr5 S1 2.346726 1_455
Cr5 S15 2.422296 1_555
Cr5 S11 2.432614 1_455
Cr5 S11 2.432614 1_555
Cr5 S5 2.466104 1_555
Cr6 S2 2.346726 1_455
Cr6 S2 2.346726 1_555
Cr6 S12 2.422296 1_555
Cr6 S8 2.432614 1_455
Cr6 S8 2.432614 1_555
Cr6 S6 2.466104 1_555
Cr7 S3 2.346726 1_555
Cr7 S3 2.346726 1_655
Cr7 S13 2.422296 1_555
Cr7 S9 2.432614 1_555
Cr7 S9 2.432614 1_655
Cr7 S7 2.466104 1_555
Ag0 S0 2.719871 1_554
Ag0 S8 2.727676 1_555
Ag0 S8 2.727676 1_455
Ag0 S1 2.759842 1_445
Ag0 S1 2.759842 1_545
Ag0 S14 2.818564 1_454
Ag0 S14 2.818564 1_554
Ag1 S1 2.719871 1_556
Ag1 S9 2.727676 1_655
Ag1 S9 2.727676 1_555
Ag1 S0 2.759842 1_565
Ag1 S0 2.759842 1_665
Ag1 S15 2.818564 1_556
Ag1 S15 2.818564 1_656
Ag2 S2 2.719871 1_555
Ag2 S10 2.727676 1_555
Ag2 S10 2.727676 1_655
Ag2 S3 2.759842 1_655
Ag2 S3 2.759842 1_555
Ag2 S12 2.818564 1_555
Ag2 S12 2.818564 1_655
Ag3 S3 2.719871 1_555
Ag3 S11 2.727676 1_555
Ag3 S11 2.727676 1_455
Ag3 S2 2.759842 1_455
Ag3 S2 2.759842 1_555
Ag3 S13 2.818564 1_455
Ag3 S13 2.818564 1_555
