# generated using pymatgen
data_Zn2Ni3O8
_symmetry_space_group_name_H-M   'P 1'
_cell_length_a   5.66913933
_cell_length_b   5.66913933
_cell_length_c   4.83931213
_cell_angle_alpha   77.14122395
_cell_angle_beta   77.14122395
_cell_angle_gamma   59.77888895
_symmetry_Int_Tables_number   1
_chemical_formula_structural   Zn2Ni3O8
_chemical_formula_sum   'Zn2 Ni3 O8'
_cell_volume   129.88991880
_cell_formula_units_Z   1
loop_
 _symmetry_equiv_pos_site_id
 _symmetry_equiv_pos_as_xyz
  1  'x, y, z'
loop_
 _atom_site_type_symbol
 _atom_site_label
 _atom_site_symmetry_multiplicity
 _atom_site_fract_x
 _atom_site_fract_y
 _atom_site_fract_z
 _atom_site_occupancy
  Zn  Zn0  1  0.70941300  0.70941300  0.37594200  1
  Zn  Zn1  1  0.29058700  0.29058700  0.62405800  1
  Ni  Ni0  1  0.00000000  0.00000000  0.50000000  1
  Ni  Ni1  1  0.74839200  0.25160800  0.00000000  1
  Ni  Ni2  1  0.25160800  0.74839200  0.00000000  1
  O  O0  1  0.39033600  0.39033600  0.92863300  1
  O  O1  1  0.60966400  0.60966400  0.07136700  1
  O  O2  1  0.89872700  0.89872700  0.88594500  1
  O  O3  1  0.10127300  0.10127300  0.11405500  1
  O  O4  1  0.33852400  0.88781500  0.62313300  1
  O  O5  1  0.88781500  0.33852400  0.62313300  1
  O  O6  1  0.11218500  0.66147600  0.37686700  1
  O  O7  1  0.66147600  0.11218500  0.37686700  1
loop_
_geom_bond_atom_site_label_1
_geom_bond_atom_site_label_2
_geom_bond_distance
_geom_bond_site_symmetry_2
Ni0 O2 1.877458 1_445
Ni0 O3 1.877458 1_555
Ni0 O6 1.885277 1_545
Ni0 O5 1.885277 1_455
Ni0 O4 1.885277 1_545
Ni0 O7 1.885277 1_455
Ni1 O0 1.855325 1_554
Ni1 O1 1.855325 1_555
Ni1 O5 1.882594 1_554
Ni1 O7 1.882594 1_555
Ni1 O2 1.897065 1_544
Ni1 O3 1.897065 1_655
Ni2 O0 1.855325 1_554
Ni2 O1 1.855325 1_555
Ni2 O4 1.882594 1_554
Ni2 O6 1.882594 1_555
Ni2 O2 1.897065 1_454
Ni2 O3 1.897065 1_565
O0 Zn1 1.968738 1_555
O1 Zn0 1.968738 1_555
O4 Zn0 2.037920 1_555
O4 Zn1 2.160321 1_565
O5 Zn0 2.037920 1_555
O5 Zn1 2.160321 1_655
O6 Zn1 2.037920 1_555
O6 Zn0 2.160321 1_455
O7 Zn1 2.037920 1_555
O7 Zn0 2.160321 1_545
