# generated using pymatgen
data_Np2I2O
_symmetry_space_group_name_H-M   'P 1'
_cell_length_a   3.74348500
_cell_length_b   3.74348500
_cell_length_c   15.14611000
_cell_angle_alpha   90.00000000
_cell_angle_beta   90.00000000
_cell_angle_gamma   90.00000000
_symmetry_Int_Tables_number   1
_chemical_formula_structural   Np2I2O
_chemical_formula_sum   'Np2 I2 O1'
_cell_volume   212.25273796
_cell_formula_units_Z   1
loop_
 _symmetry_equiv_pos_site_id
 _symmetry_equiv_pos_as_xyz
  1  'x, y, z'
loop_
 _atom_site_type_symbol
 _atom_site_label
 _atom_site_symmetry_multiplicity
 _atom_site_fract_x
 _atom_site_fract_y
 _atom_site_fract_z
 _atom_site_occupancy
  Np  Np0  1  0.50000000  0.50000000  0.13589500  1
  Np  Np1  1  0.50000000  0.50000000  0.86410500  1
  I  I0  1  0.50000000  0.50000000  0.67321400  1
  I  I1  1  0.50000000  0.50000000  0.32678600  1
  O  O0  1  0.50000000  0.50000000  0.00000000  1
loop_
_geom_bond_atom_site_label_1
_geom_bond_atom_site_label_2
_geom_bond_distance
_geom_bond_site_symmetry_2
Np0 O0 2.058281 1_555
Np1 O0 2.058281 1_556
I0 Np1 2.891256 1_555
I1 Np0 2.891256 1_555
