# generated using pymatgen
data_Fe2O3
_symmetry_space_group_name_H-M   'P 1'
_cell_length_a   10.65193596
_cell_length_b   9.69261434
_cell_length_c   9.52475547
_cell_angle_alpha   87.46853296
_cell_angle_beta   89.30300677
_cell_angle_gamma   89.15374467
_symmetry_Int_Tables_number   1
_chemical_formula_structural   Fe2O3
_chemical_formula_sum   'Fe32 O48'
_cell_volume   982.25233594
_cell_formula_units_Z   16
loop_
 _symmetry_equiv_pos_site_id
 _symmetry_equiv_pos_as_xyz
  1  'x, y, z'
loop_
 _atom_site_type_symbol
 _atom_site_label
 _atom_site_symmetry_multiplicity
 _atom_site_fract_x
 _atom_site_fract_y
 _atom_site_fract_z
 _atom_site_occupancy
  Fe  Fe0  1  0.63870000  0.99996100  0.08996000  1
  Fe  Fe1  1  0.27818200  0.00438800  0.60698200  1
  Fe  Fe2  1  0.68065300  0.82016200  0.83042200  1
  Fe  Fe3  1  0.82093500  0.05931000  0.34180700  1
  Fe  Fe4  1  0.40221100  0.27714400  0.21850600  1
  Fe  Fe5  1  0.42418600  0.34474500  0.57102300  1
  Fe  Fe6  1  0.44435700  0.12510800  0.86061400  1
  Fe  Fe7  1  0.56725500  0.58262900  0.05706400  1
  Fe  Fe8  1  0.13307500  0.47632000  0.62808400  1
  Fe  Fe9  1  0.36834500  0.44321200  0.87933600  1
  Fe  Fe10  1  0.92489100  0.02257900  0.04187000  1
  Fe  Fe11  1  0.94817400  0.00899400  0.62796700  1
  Fe  Fe12  1  0.62567100  0.49301900  0.74673300  1
  Fe  Fe13  1  0.08087700  0.21678300  0.35005700  1
  Fe  Fe14  1  0.33171900  0.56140800  0.24153000  1
  Fe  Fe15  1  0.38833300  0.80211600  0.91576600  1
  Fe  Fe16  1  0.20470900  0.08465800  0.05333900  1
  Fe  Fe17  1  0.68051300  0.52218400  0.43656700  1
  Fe  Fe18  1  0.44033800  0.73450400  0.57014400  1
  Fe  Fe19  1  0.10186400  0.35639900  0.05154400  1
  Fe  Fe20  1  0.75993800  0.72937800  0.21250400  1
  Fe  Fe21  1  0.01995100  0.53277700  0.31730200  1
  Fe  Fe22  1  0.10728700  0.73157200  0.10946400  1
  Fe  Fe23  1  0.55189500  0.05014600  0.39204500  1
  Fe  Fe24  1  0.66203100  0.26295800  0.01083200  1
  Fe  Fe25  1  0.13125700  0.80338400  0.80569100  1
  Fe  Fe26  1  0.83788800  0.46167700  0.10868100  1
  Fe  Fe27  1  0.87915600  0.34868100  0.55481900  1
  Fe  Fe28  1  0.07854200  0.91290400  0.35267200  1
  Fe  Fe29  1  0.37074000  0.85016800  0.27407900  1
  Fe  Fe30  1  0.92064000  0.55648100  0.79158500  1
  Fe  Fe31  1  0.75232500  0.82183500  0.55770100  1
  O  O0  1  0.70740600  0.37500400  0.60147700  1
  O  O1  1  0.68090900  0.74198700  0.02597500  1
  O  O2  1  0.52568000  0.53764800  0.56555300  1
  O  O3  1  0.04820200  0.16118400  0.99082600  1
  O  O4  1  0.86657500  0.51058300  0.43570000  1
  O  O5  1  0.68315300  0.15279800  0.24114800  1
  O  O6  1  0.31799300  0.81335700  0.70763800  1
  O  O7  1  0.37858000  0.15379300  0.66628200  1
  O  O8  1  0.16518600  0.52752800  0.16427200  1
  O  O9  1  0.98266800  0.38912300  0.70798700  1
  O  O10  1  0.48098100  0.22765200  0.40207600  1
  O  O11  1  0.49219900  0.17616800  0.05746300  1
  O  O12  1  0.22707600  0.70656100  0.94968300  1
  O  O13  1  0.92209000  0.16954700  0.49100300  1
  O  O14  1  0.50779400  0.33146100  0.79803800  1
  O  O15  1  0.16525800  0.05574400  0.44872800  1
  O  O16  1  0.31025400  0.99704400  0.92069600  1
  O  O17  1  0.24912500  0.31287400  0.93931200  1
  O  O18  1  0.76361900  0.63621200  0.73307300  1
  O  O19  1  0.76818700  0.10204600  0.96969000  1
  O  O20  1  0.21126700  0.91325300  0.18530900  1
  O  O21  1  0.96932600  0.35073200  0.21626200  1
  O  O22  1  0.69948300  0.00760600  0.48921800  1
  O  O23  1  0.35200000  0.68544600  0.39471800  1
  O  O24  1  0.91431200  0.63591100  0.16706500  1
  O  O25  1  0.82169700  0.91077200  0.73546000  1
  O  O26  1  0.10211700  0.39449700  0.45156400  1
  O  O27  1  0.40671700  0.93072400  0.46735300  1
  O  O28  1  0.06377800  0.64943500  0.70438800  1
  O  O29  1  0.54663300  0.94597700  0.90475400  1
  O  O30  1  0.70155100  0.45443700  0.95616600  1
  O  O31  1  0.35652000  0.41188300  0.37089100  1
  O  O32  1  0.48624800  0.61079300  0.86557200  1
  O  O33  1  0.92331600  0.88824100  0.47401500  1
  O  O34  1  0.10842300  0.97843800  0.70736900  1
  O  O35  1  0.80028500  0.92112600  0.18492000  1
  O  O36  1  0.99026700  0.06298500  0.24478000  1
  O  O37  1  0.97029600  0.47587400  0.96514400  1
  O  O38  1  0.22353100  0.22137300  0.20356800  1
  O  O39  1  0.69127100  0.72126600  0.40271700  1
  O  O40  1  0.52382800  0.93906100  0.23243200  1
  O  O41  1  0.09038400  0.72072900  0.32234600  1
  O  O42  1  0.30051500  0.45513700  0.67963000  1
  O  O43  1  0.58663000  0.80627400  0.65843800  1
  O  O44  1  0.41961200  0.71557800  0.12365200  1
  O  O45  1  0.42919200  0.44658000  0.10057700  1
  O  O46  1  0.01803700  0.85732000  0.97659500  1
  O  O47  1  0.67913600  0.52046300  0.22457800  1
loop_
_geom_bond_atom_site_label_1
_geom_bond_atom_site_label_2
_geom_bond_distance
_geom_bond_site_symmetry_2
Fe0 O40 1.896657 1_555
Fe0 O19 2.023734 1_564
Fe0 O35 2.074228 1_555
Fe0 O29 2.118058 1_554
Fe0 O5 2.172133 1_565
Fe0 O11 2.309610 1_565
Fe0 O1 2.630688 1_555
Fe1 O7 1.921579 1_555
Fe1 O15 1.981626 1_555
Fe1 O27 2.040534 1_545
Fe1 O34 2.048767 1_545
Fe1 O6 2.087403 1_545
Fe2 O43 1.941119 1_555
Fe2 O25 1.944825 1_555
Fe2 O1 1.979595 1_556
Fe2 O29 2.006638 1_555
Fe2 O18 2.213425 1_555
Fe3 O22 1.951659 1_555
Fe3 O5 1.952560 1_555
Fe3 O36 2.016719 1_555
Fe3 O35 2.066093 1_545
Fe3 O13 2.127779 1_555
Fe3 O33 2.306488 1_545
Fe4 O45 1.970911 1_555
Fe4 O10 1.985183 1_555
Fe4 O38 1.994677 1_555
Fe4 O31 2.044645 1_555
Fe4 O11 2.073324 1_555
Fe5 O42 1.993321 1_555
Fe5 O7 2.086208 1_555
Fe5 O10 2.088277 1_555
Fe5 O31 2.118161 1_555
Fe5 O2 2.171900 1_555
Fe5 O14 2.346054 1_555
Fe6 O16 1.969386 1_545
Fe6 O7 1.993646 1_555
Fe6 O11 2.032902 1_556
Fe6 O29 2.066149 1_545
Fe6 O14 2.176480 1_555
Fe7 O1 1.986255 1_555
Fe7 O45 2.016833 1_555
Fe7 O32 2.033002 1_554
Fe7 O47 2.066198 1_555
Fe7 O44 2.127018 1_555
Fe7 O30 2.129159 1_554
Fe8 O42 1.861685 1_555
Fe8 O26 1.924454 1_555
Fe8 O9 1.952904 1_455
Fe8 O28 1.986612 1_555
Fe9 O17 1.871095 1_555
Fe9 O14 1.994453 1_555
Fe9 O42 2.040863 1_555
Fe9 O32 2.066457 1_555
Fe9 O45 2.213967 1_556
Fe10 O3 1.935301 1_654
Fe10 O19 1.948159 1_554
Fe10 O46 1.990662 1_644
Fe10 O35 2.112186 1_545
Fe10 O36 2.116884 1_555
Fe11 O34 1.889468 1_645
Fe11 O25 1.920379 1_545
Fe11 O33 1.939170 1_545
Fe11 O13 2.004358 1_555
Fe12 O0 2.015361 1_555
Fe12 O18 2.035203 1_555
Fe12 O14 2.059862 1_555
Fe12 O2 2.065125 1_555
Fe12 O30 2.176411 1_555
Fe12 O32 2.193877 1_555
Fe13 O15 1.994250 1_555
Fe13 O26 2.029026 1_555
Fe13 O38 2.050049 1_555
Fe13 O36 2.087422 1_455
Fe13 O21 2.136971 1_455
Fe13 O13 2.187691 1_455
Fe14 O31 1.878095 1_555
Fe14 O23 1.947123 1_555
Fe14 O8 1.966306 1_555
Fe14 O45 2.045267 1_555
Fe14 O44 2.058549 1_555
Fe15 O12 1.979828 1_555
Fe15 O16 2.055256 1_555
Fe15 O6 2.125485 1_555
Fe15 O44 2.143897 1_556
Fe15 O32 2.182730 1_555
Fe15 O29 2.202459 1_555
Fe16 O16 1.900865 1_544
Fe16 O3 1.905923 1_554
Fe16 O38 2.006474 1_555
Fe16 O20 2.039423 1_545
Fe16 O17 2.470341 1_554
Fe17 O39 1.947103 1_555
Fe17 O4 1.983386 1_555
Fe17 O47 2.020182 1_555
Fe17 O2 2.052216 1_555
Fe17 O0 2.094100 1_555
Fe18 O43 1.932619 1_555
Fe18 O6 2.003751 1_555
Fe18 O23 2.006253 1_555
Fe18 O2 2.103359 1_555
Fe18 O27 2.127887 1_555
Fe19 O17 1.939264 1_554
Fe19 O37 1.969330 1_454
Fe19 O3 2.092380 1_554
Fe19 O21 2.097234 1_455
Fe19 O8 2.137061 1_555
Fe19 O38 2.305918 1_555
Fe20 O24 1.919726 1_555
Fe20 O35 1.919795 1_555
Fe20 O39 1.944333 1_555
Fe20 O1 1.973376 1_555
Fe20 O47 2.209724 1_555
Fe21 O4 1.982746 1_455
Fe21 O41 1.983159 1_555
Fe21 O26 2.009713 1_555
Fe21 O24 2.047621 1_455
Fe21 O8 2.114187 1_555
Fe21 O21 2.126298 1_455
Fe22 O46 1.962073 1_554
Fe22 O12 1.994798 1_554
Fe22 O41 2.031668 1_555
Fe22 O8 2.108284 1_555
Fe22 O20 2.244787 1_555
Fe22 O24 2.317316 1_455
Fe23 O22 1.865659 1_555
Fe23 O10 1.874620 1_555
Fe23 O40 1.930044 1_545
Fe23 O27 2.048980 1_545
Fe23 O5 2.208251 1_555
Fe24 O30 1.955808 1_554
Fe24 O19 1.963629 1_554
Fe24 O11 2.042045 1_555
Fe24 O5 2.408531 1_555
Fe24 O14 2.679166 1_554
Fe25 O34 1.915218 1_555
Fe25 O12 1.922371 1_555
Fe25 O28 1.962131 1_555
Fe25 O46 2.094361 1_555
Fe25 O6 2.188744 1_555
Fe26 O37 1.954350 1_554
Fe26 O24 1.989600 1_555
Fe26 O21 2.014853 1_555
Fe26 O30 2.070640 1_554
Fe26 O47 2.093909 1_555
Fe27 O0 1.893674 1_555
Fe27 O9 1.897409 1_555
Fe27 O4 1.899473 1_555
Fe27 O13 1.912139 1_555
Fe28 O41 1.899635 1_555
Fe28 O15 1.943533 1_565
Fe28 O36 1.976703 1_465
Fe28 O33 2.016836 1_455
Fe28 O20 2.117721 1_555
Fe29 O40 1.885317 1_555
Fe29 O23 1.936761 1_555
Fe29 O20 1.983163 1_555
Fe29 O44 2.037784 1_555
Fe29 O27 2.073246 1_555
Fe30 O37 1.875613 1_555
Fe30 O18 1.910965 1_555
Fe30 O28 1.941621 1_655
Fe30 O9 1.942043 1_555
Fe31 O39 1.929106 1_555
Fe31 O22 1.964618 1_565
Fe31 O43 2.003094 1_555
Fe31 O33 2.078717 1_555
Fe31 O25 2.081814 1_555
Fe31 O18 2.403054 1_555
