# generated using pymatgen
data_As2PHBr3F11
_symmetry_space_group_name_H-M   'P 1'
_cell_length_a   9.06423800
_cell_length_b   6.40734700
_cell_length_c   12.25213277
_cell_angle_alpha   85.27611403
_cell_angle_beta   90.00000000
_cell_angle_gamma   90.00000000
_symmetry_Int_Tables_number   1
_chemical_formula_structural   As2PHBr3F11
_chemical_formula_sum   'As4 P2 H2 Br6 F22'
_cell_volume   709.15879064
_cell_formula_units_Z   2
loop_
 _symmetry_equiv_pos_site_id
 _symmetry_equiv_pos_as_xyz
  1  'x, y, z'
loop_
 _atom_site_type_symbol
 _atom_site_label
 _atom_site_symmetry_multiplicity
 _atom_site_fract_x
 _atom_site_fract_y
 _atom_site_fract_z
 _atom_site_occupancy
  As  As0  1  0.75000000  0.86567000  0.10351600  1
  As  As1  1  0.25000000  0.13433000  0.89648400  1
  As  As2  1  0.75000000  0.79443900  0.41467600  1
  As  As3  1  0.25000000  0.20556100  0.58532400  1
  P  P0  1  0.25000000  0.54061400  0.19212700  1
  P  P1  1  0.75000000  0.45938600  0.80787300  1
  H  H0  1  0.25000000  0.66024100  0.08939700  1
  H  H1  1  0.75000000  0.33975900  0.91060300  1
  Br  Br0  1  0.44321500  0.34939000  0.20414900  1
  Br  Br1  1  0.94321500  0.65061000  0.79585100  1
  Br  Br2  1  0.55678500  0.65061000  0.79585100  1
  Br  Br3  1  0.05678500  0.34939000  0.20414900  1
  Br  Br4  1  0.25000000  0.75628300  0.31619700  1
  Br  Br5  1  0.75000000  0.24371700  0.68380300  1
  F  F0  1  0.55648500  0.85956500  0.11056200  1
  F  F1  1  0.05648500  0.14043500  0.88943800  1
  F  F2  1  0.44351500  0.14043500  0.88943800  1
  F  F3  1  0.94351500  0.85956500  0.11056200  1
  F  F4  1  0.75000000  0.97701800  0.96766100  1
  F  F5  1  0.25000000  0.02298200  0.03233900  1
  F  F6  1  0.75000000  0.11414800  0.15538000  1
  F  F7  1  0.25000000  0.88585200  0.84462000  1
  F  F8  1  0.75000000  0.60806200  0.06241100  1
  F  F9  1  0.25000000  0.39193800  0.93758900  1
  F  F10  1  0.75000000  0.73902000  0.24923100  1
  F  F11  1  0.25000000  0.26098000  0.75076900  1
  F  F12  1  0.61403100  0.98170500  0.37917400  1
  F  F13  1  0.11403100  0.01829500  0.62082600  1
  F  F14  1  0.38596900  0.01829500  0.62082600  1
  F  F15  1  0.88596900  0.98170500  0.37917400  1
  F  F16  1  0.75000000  0.83378100  0.55396800  1
  F  F17  1  0.25000000  0.16621900  0.44603200  1
  F  F18  1  0.61445000  0.60099100  0.42347800  1
  F  F19  1  0.11445000  0.39900900  0.57652200  1
  F  F20  1  0.38555000  0.39900900  0.57652200  1
  F  F21  1  0.88555000  0.60099100  0.42347800  1
loop_
_geom_bond_atom_site_label_1
_geom_bond_atom_site_label_2
_geom_bond_distance
_geom_bond_site_symmetry_2
As0 F4 1.756136 1_554
As0 F0 1.756466 1_555
As0 F3 1.756466 1_555
As0 F6 1.762145 1_565
As0 F8 1.764931 1_555
As0 F10 1.899278 1_555
As1 F5 1.756136 1_556
As1 F1 1.756466 1_555
As1 F2 1.756466 1_555
As1 F7 1.762145 1_545
As1 F9 1.764931 1_555
As1 F11 1.899278 1_555
As2 F21 1.742281 1_555
As2 F18 1.742281 1_555
As2 F16 1.745556 1_555
As2 F15 1.749827 1_555
As2 F12 1.749827 1_555
As2 F10 2.086526 1_555
As3 F20 1.742281 1_555
As3 F19 1.742281 1_555
As3 F17 1.745556 1_555
As3 F13 1.749827 1_555
As3 F14 1.749827 1_555
As3 F11 2.086526 1_555
H0 P0 1.418744 1_555
H1 P1 1.418744 1_555
Br0 P0 2.135508 1_555
Br1 P1 2.135508 1_555
Br2 P1 2.135508 1_555
Br3 P0 2.135508 1_555
Br4 P0 2.136893 1_555
Br5 P1 2.136893 1_555
