# generated using pymatgen
data_MgVF6
_symmetry_space_group_name_H-M   'P 1'
_cell_length_a   5.31047511
_cell_length_b   5.31047510
_cell_length_c   5.31047510
_cell_angle_alpha   56.81878335
_cell_angle_beta   56.81878338
_cell_angle_gamma   56.81877916
_symmetry_Int_Tables_number   1
_chemical_formula_structural   MgVF6
_chemical_formula_sum   'Mg1 V1 F6'
_cell_volume   98.12270794
_cell_formula_units_Z   1
loop_
 _symmetry_equiv_pos_site_id
 _symmetry_equiv_pos_as_xyz
  1  'x, y, z'
loop_
 _atom_site_type_symbol
 _atom_site_label
 _atom_site_symmetry_multiplicity
 _atom_site_fract_x
 _atom_site_fract_y
 _atom_site_fract_z
 _atom_site_occupancy
  Mg  Mg0  1  0.50000000  0.50000000  0.50000000  1
  V  V0  1  0.00000000  -0.00000000  0.00000000  1
  F  F0  1  0.65030122  0.86807004  0.23946801  1
  F  F1  1  0.86807004  0.23946801  0.65030122  1
  F  F2  1  0.76053199  0.34969878  0.13192996  1
  F  F3  1  0.13192996  0.76053199  0.34969878  1
  F  F4  1  0.34969878  0.13192996  0.76053199  1
  F  F5  1  0.23946801  0.65030122  0.86807004  1
loop_
_geom_bond_atom_site_label_1
_geom_bond_atom_site_label_2
_geom_bond_distance
_geom_bond_site_symmetry_2
F0 V0 1.849510 1_665
F0 Mg0 1.977546 1_555
F1 V0 1.849510 1_656
F1 Mg0 1.977546 1_555
F2 V0 1.849510 1_655
F2 Mg0 1.977546 1_555
F3 V0 1.849510 1_565
F3 Mg0 1.977546 1_555
F4 V0 1.849510 1_556
F4 Mg0 1.977546 1_555
F5 V0 1.849510 1_566
F5 Mg0 1.977546 1_555
