# generated using pymatgen
data_DyGa6
_symmetry_space_group_name_H-M   'P 1'
_cell_length_a   5.91371025
_cell_length_b   5.91371025
_cell_length_c   7.49441684
_cell_angle_alpha   90.00000000
_cell_angle_beta   90.00000000
_cell_angle_gamma   90.00000000
_symmetry_Int_Tables_number   1
_chemical_formula_structural   DyGa6
_chemical_formula_sum   'Dy2 Ga12'
_cell_volume   262.09451281
_cell_formula_units_Z   2
loop_
 _symmetry_equiv_pos_site_id
 _symmetry_equiv_pos_as_xyz
  1  'x, y, z'
loop_
 _atom_site_type_symbol
 _atom_site_label
 _atom_site_symmetry_multiplicity
 _atom_site_fract_x
 _atom_site_fract_y
 _atom_site_fract_z
 _atom_site_occupancy
  Dy  Dy0  1  0.50000000  0.00000000  -0.00000000  1
  Dy  Dy1  1  0.00000000  0.50000000  -0.00000000  1
  Ga  Ga0  1  0.50000000  0.50000000  0.16133988  1
  Ga  Ga1  1  0.00000000  0.00000000  0.16133988  1
  Ga  Ga2  1  0.00000000  0.00000000  0.83866012  1
  Ga  Ga3  1  0.50000000  0.50000000  0.83866012  1
  Ga  Ga4  1  0.81514906  0.68485094  0.34963215  1
  Ga  Ga5  1  0.31514906  0.81514906  0.34963215  1
  Ga  Ga6  1  0.68485094  0.18485094  0.34963215  1
  Ga  Ga7  1  0.18485094  0.31514906  0.34963215  1
  Ga  Ga8  1  0.68485094  0.81514906  0.65036785  1
  Ga  Ga9  1  0.18485094  0.68485094  0.65036785  1
  Ga  Ga10  1  0.81514906  0.31514906  0.65036785  1
  Ga  Ga11  1  0.31514906  0.18485094  0.65036785  1
loop_
_geom_bond_atom_site_label_1
_geom_bond_atom_site_label_2
_geom_bond_distance
_geom_bond_site_symmetry_2
Dy0 Ga5 3.042349 1_545
Dy0 Ga6 3.042349 1_555
Dy0 Ga11 3.042349 1_554
Dy0 Ga8 3.042349 1_544
Dy0 Ga0 3.194532 1_545
Dy0 Ga2 3.194532 1_554
Dy0 Ga2 3.194532 1_654
Dy0 Ga0 3.194532 1_555
Dy0 Ga3 3.194532 1_544
Dy0 Ga3 3.194532 1_554
Dy0 Ga1 3.194532 1_555
Dy0 Ga1 3.194532 1_655
Dy1 Ga4 3.042349 1_455
Dy1 Ga7 3.042349 1_555
Dy1 Ga9 3.042349 1_554
Dy1 Ga10 3.042349 1_454
Dy1 Ga2 3.194532 1_554
Dy1 Ga0 3.194532 1_555
Dy1 Ga2 3.194532 1_564
Dy1 Ga1 3.194532 1_565
Dy1 Ga0 3.194532 1_455
Dy1 Ga3 3.194532 1_554
Dy1 Ga1 3.194532 1_555
Dy1 Ga3 3.194532 1_454
Ga0 Ga3 2.418297 1_554
Ga0 Ga6 2.580636 1_555
Ga0 Ga5 2.580636 1_555
Ga0 Ga4 2.580636 1_555
Ga0 Ga7 2.580636 1_555
Ga1 Ga2 2.418297 1_554
Ga1 Ga5 2.580636 1_545
Ga1 Ga6 2.580636 1_455
Ga1 Ga7 2.580636 1_555
Ga1 Ga4 2.580636 1_445
Ga2 Ga9 2.580636 1_545
Ga2 Ga8 2.580636 1_445
Ga3 Ga8 2.580636 1_555
Ga3 Ga9 2.580636 1_555
Ga4 Ga8 2.503451 1_555
Ga5 Ga9 2.503451 1_555
Ga10 Ga6 2.503451 1_555
Ga10 Ga2 2.580636 1_655
Ga10 Ga3 2.580636 1_555
Ga11 Ga7 2.503451 1_555
Ga11 Ga2 2.580636 1_555
Ga11 Ga3 2.580636 1_555
