# generated using pymatgen
data_S6N5O4
_symmetry_space_group_name_H-M   'P 1'
_cell_length_a   12.70347500
_cell_length_b   7.78694200
_cell_length_c   14.79235314
_cell_angle_alpha   72.01972897
_cell_angle_beta   90.00000000
_cell_angle_gamma   90.00000000
_symmetry_Int_Tables_number   1
_chemical_formula_structural   S6N5O4
_chemical_formula_sum   'S24 N20 O16'
_cell_volume   1391.81537590
_cell_formula_units_Z   4
loop_
 _symmetry_equiv_pos_site_id
 _symmetry_equiv_pos_as_xyz
  1  'x, y, z'
loop_
 _atom_site_type_symbol
 _atom_site_label
 _atom_site_symmetry_multiplicity
 _atom_site_fract_x
 _atom_site_fract_y
 _atom_site_fract_z
 _atom_site_occupancy
  S  S0  1  0.50587500  0.46724800  0.65929300  1
  S  S1  1  0.99412500  0.46724800  0.15929300  1
  S  S2  1  0.49412500  0.53275200  0.34070700  1
  S  S3  1  0.00587500  0.53275200  0.84070700  1
  S  S4  1  0.54490700  0.69636500  0.55257600  1
  S  S5  1  0.95509300  0.69636500  0.05257600  1
  S  S6  1  0.45509300  0.30363500  0.44742400  1
  S  S7  1  0.04490700  0.30363500  0.94742400  1
  S  S8  1  0.36768900  0.08858400  0.04295500  1
  S  S9  1  0.13231100  0.08858400  0.54295500  1
  S  S10  1  0.63231100  0.91141600  0.95704500  1
  S  S11  1  0.86768900  0.91141600  0.45704500  1
  S  S12  1  0.42382200  0.67785200  0.69435900  1
  S  S13  1  0.07617800  0.67785200  0.19435900  1
  S  S14  1  0.57617800  0.32214800  0.30564100  1
  S  S15  1  0.92382200  0.32214800  0.80564100  1
  S  S16  1  0.29102900  0.50563800  0.02548300  1
  S  S17  1  0.20897100  0.50563800  0.52548300  1
  S  S18  1  0.70897100  0.49436200  0.97451700  1
  S  S19  1  0.79102900  0.49436200  0.47451700  1
  S  S20  1  0.26822000  0.01156400  0.23433600  1
  S  S21  1  0.23178000  0.01156400  0.73433600  1
  S  S22  1  0.73178000  0.98843600  0.76566400  1
  S  S23  1  0.76822000  0.98843600  0.26566400  1
  N  N0  1  0.47190200  0.81888900  0.59911900  1
  N  N1  1  0.02809800  0.81888900  0.09911900  1
  N  N2  1  0.52809800  0.18111100  0.40088100  1
  N  N3  1  0.97190200  0.18111100  0.90088100  1
  N  N4  1  0.25608800  0.43668000  0.78276100  1
  N  N5  1  0.24391200  0.43668000  0.28276100  1
  N  N6  1  0.74391200  0.56332000  0.21723900  1
  N  N7  1  0.75608800  0.56332000  0.71723900  1
  N  N8  1  0.31090900  0.37650400  0.25420200  1
  N  N9  1  0.18909100  0.37650400  0.75420200  1
  N  N10  1  0.68909100  0.62349600  0.74579800  1
  N  N11  1  0.81090900  0.62349600  0.24579800  1
  N  N12  1  0.34043300  0.28312300  0.99365700  1
  N  N13  1  0.15956700  0.28312300  0.49365700  1
  N  N14  1  0.65956700  0.71687700  0.00634300  1
  N  N15  1  0.84043300  0.71687700  0.50634300  1
  N  N16  1  0.34112800  0.97184500  0.14921000  1
  N  N17  1  0.15887200  0.97184500  0.64921000  1
  N  N18  1  0.65887200  0.02815500  0.85079000  1
  N  N19  1  0.84112800  0.02815500  0.35079000  1
  O  O0  1  0.18078400  0.51556000  0.98818700  1
  O  O1  1  0.31921600  0.51556000  0.48818700  1
  O  O2  1  0.81921600  0.48444000  0.01181300  1
  O  O3  1  0.68078400  0.48444000  0.51181300  1
  O  O4  1  0.36431900  0.63458700  0.96445500  1
  O  O5  1  0.13568100  0.63458700  0.46445500  1
  O  O6  1  0.63568100  0.36541300  0.03554500  1
  O  O7  1  0.86431900  0.36541300  0.53554500  1
  O  O8  1  0.15890400  0.95134500  0.22605100  1
  O  O9  1  0.34109600  0.95134500  0.72605100  1
  O  O10  1  0.84109600  0.04865500  0.77394900  1
  O  O11  1  0.65890400  0.04865500  0.27394900  1
  O  O12  1  0.32424500  0.93770600  0.32433700  1
  O  O13  1  0.17575500  0.93770600  0.82433700  1
  O  O14  1  0.67575500  0.06229400  0.67566300  1
  O  O15  1  0.82424500  0.06229400  0.17566300  1
loop_
_geom_bond_atom_site_label_1
_geom_bond_atom_site_label_2
_geom_bond_distance
_geom_bond_site_symmetry_2
S0 S4 2.045023 1_555
S0 S12 2.137808 1_555
S1 S5 2.045023 1_555
S1 S13 2.137808 1_655
S2 S6 2.045023 1_555
S3 S7 2.045023 1_555
S14 S2 2.137808 1_555
S15 S3 2.137808 1_655
N0 S12 1.615164 1_555
N0 S4 1.627860 1_555
N1 S13 1.615164 1_555
N1 S5 1.627860 1_455
N2 S14 1.615164 1_555
N2 S6 1.627860 1_555
N3 S15 1.615164 1_555
N3 S7 1.627860 1_655
N4 N9 1.115625 1_555
N5 N8 1.115625 1_555
N10 N7 1.115625 1_555
N11 N6 1.115625 1_555
N12 S8 1.504815 1_556
N12 S16 2.030129 1_556
N13 S9 1.504815 1_555
N13 S17 2.030129 1_555
N14 S10 1.504815 1_554
N14 S18 2.030129 1_554
N15 S11 1.504815 1_555
N15 S19 2.030129 1_555
N16 S8 1.590135 1_565
N16 S20 1.667196 1_565
N17 S9 1.590135 1_565
N17 S21 1.667196 1_565
N18 S10 1.590135 1_545
N18 S22 1.667196 1_545
N19 S11 1.590135 1_545
N19 S23 1.667196 1_545
O0 S16 1.498468 1_556
O1 S17 1.498468 1_555
O2 S18 1.498468 1_554
O3 S19 1.498468 1_555
O4 S16 1.459591 1_556
O5 S17 1.459591 1_555
O6 S18 1.459591 1_554
O7 S19 1.459591 1_555
O8 S20 1.482854 1_565
O9 S21 1.482854 1_565
O10 S22 1.482854 1_545
O11 S23 1.482854 1_545
O12 S20 1.461855 1_565
O13 S21 1.461855 1_565
O14 S22 1.461855 1_545
O15 S23 1.461855 1_545
