# generated using pymatgen
data_Mg(NiO2)2
_symmetry_space_group_name_H-M   'P 1'
_cell_length_a   4.91573100
_cell_length_b   5.74781400
_cell_length_c   10.07850400
_cell_angle_alpha   90.00000000
_cell_angle_beta   90.00000000
_cell_angle_gamma   90.00000000
_symmetry_Int_Tables_number   1
_chemical_formula_structural   Mg(NiO2)2
_chemical_formula_sum   'Mg4 Ni8 O16'
_cell_volume   284.76518217
_cell_formula_units_Z   4
loop_
 _symmetry_equiv_pos_site_id
 _symmetry_equiv_pos_as_xyz
  1  'x, y, z'
loop_
 _atom_site_type_symbol
 _atom_site_label
 _atom_site_symmetry_multiplicity
 _atom_site_fract_x
 _atom_site_fract_y
 _atom_site_fract_z
 _atom_site_occupancy
  Mg  Mg0  1  0.33539500  0.00000000  0.50000000  1
  Mg  Mg1  1  0.66460500  0.50000000  0.00000000  1
  Mg  Mg2  1  0.99865700  0.00000000  0.00000000  1
  Mg  Mg3  1  0.00134300  0.50000000  0.50000000  1
  Ni  Ni0  1  0.01311700  0.50000000  0.23868500  1
  Ni  Ni1  1  0.01311700  0.50000000  0.76131500  1
  Ni  Ni2  1  0.98688300  0.00000000  0.26131500  1
  Ni  Ni3  1  0.98688300  0.00000000  0.73868500  1
  Ni  Ni4  1  0.50000000  0.25000000  0.25000000  1
  Ni  Ni5  1  0.50000000  0.75000000  0.75000000  1
  Ni  Ni6  1  0.50000000  0.75000000  0.25000000  1
  Ni  Ni7  1  0.50000000  0.25000000  0.75000000  1
  O  O0  1  0.35788500  0.50000000  0.14934900  1
  O  O1  1  0.35788500  0.50000000  0.85065100  1
  O  O2  1  0.64211500  0.00000000  0.35065100  1
  O  O3  1  0.64211500  0.00000000  0.64934900  1
  O  O4  1  0.70973800  0.50000000  0.35053200  1
  O  O5  1  0.70973800  0.50000000  0.64946800  1
  O  O6  1  0.29026200  0.00000000  0.14946800  1
  O  O7  1  0.29026200  0.00000000  0.85053200  1
  O  O8  1  0.17669800  0.24988200  0.36406400  1
  O  O9  1  0.17669800  0.75011800  0.63593600  1
  O  O10  1  0.82330200  0.74988200  0.13593600  1
  O  O11  1  0.82330200  0.25011800  0.86406400  1
  O  O12  1  0.82330200  0.25011800  0.13593600  1
  O  O13  1  0.82330200  0.74988200  0.86406400  1
  O  O14  1  0.17669800  0.75011800  0.36406400  1
  O  O15  1  0.17669800  0.24988200  0.63593600  1
loop_
_geom_bond_atom_site_label_1
_geom_bond_atom_site_label_2
_geom_bond_distance
_geom_bond_site_symmetry_2
Mg0 O2 2.130491 1_555
Mg0 O3 2.130491 1_555
Mg0 O15 2.132709 1_555
Mg0 O8 2.132709 1_555
Mg0 O9 2.132709 1_545
Mg0 O14 2.132709 1_545
Mg1 O0 2.130491 1_555
Mg1 O1 2.130491 1_554
Mg1 O10 2.132709 1_555
Mg1 O12 2.132709 1_555
Mg1 O13 2.132709 1_554
Mg1 O11 2.132709 1_554
Mg2 O6 2.079439 1_655
Mg2 O7 2.079439 1_654
Mg2 O12 2.164905 1_555
Mg2 O10 2.164905 1_545
Mg2 O11 2.164905 1_554
Mg2 O13 2.164905 1_544
Mg3 O5 2.079439 1_455
Mg3 O4 2.079439 1_455
Mg3 O9 2.164905 1_555
Mg3 O15 2.164905 1_555
Mg3 O14 2.164905 1_555
Mg3 O8 2.164905 1_555
Ni0 O4 1.869427 1_455
Ni0 O0 1.919108 1_555
Ni0 O10 2.001475 1_455
Ni0 O12 2.001475 1_455
Ni0 O14 2.076093 1_555
Ni0 O8 2.076093 1_555
Ni1 O5 1.869427 1_455
Ni1 O1 1.919108 1_555
Ni1 O13 2.001475 1_455
Ni1 O11 2.001475 1_455
Ni1 O15 2.076093 1_555
Ni1 O9 2.076093 1_555
Ni2 O6 1.869427 1_655
Ni2 O2 1.919108 1_555
Ni2 O8 2.001475 1_655
Ni2 O14 2.001475 1_645
Ni2 O12 2.076093 1_555
Ni2 O10 2.076093 1_545
Ni3 O7 1.869427 1_655
Ni3 O3 1.919108 1_555
Ni3 O15 2.001475 1_655
Ni3 O9 2.001475 1_645
Ni3 O11 2.076093 1_555
Ni3 O13 2.076093 1_545
Ni4 O2 1.892593 1_555
Ni4 O0 1.892593 1_555
Ni4 O8 1.961462 1_555
Ni4 O12 1.961462 1_555
Ni4 O4 2.038241 1_555
Ni4 O6 2.038241 1_555
Ni5 O1 1.892593 1_555
Ni5 O3 1.892593 1_565
Ni5 O13 1.961462 1_555
Ni5 O9 1.961462 1_555
Ni5 O7 2.038241 1_565
Ni5 O5 2.038241 1_555
Ni6 O2 1.892593 1_565
Ni6 O0 1.892593 1_555
Ni6 O14 1.961462 1_555
Ni6 O10 1.961462 1_555
Ni6 O4 2.038241 1_555
Ni6 O6 2.038241 1_565
Ni7 O1 1.892593 1_555
Ni7 O3 1.892593 1_555
Ni7 O11 1.961462 1_555
Ni7 O15 1.961462 1_555
Ni7 O7 2.038241 1_555
Ni7 O5 2.038241 1_555
