# generated using pymatgen
data_La11Sn10
_symmetry_space_group_name_H-M   'P 1'
_cell_length_a   12.60975281
_cell_length_b   12.60975281
_cell_length_c   12.60975281
_cell_angle_alpha   122.09383893
_cell_angle_beta   122.09383893
_cell_angle_gamma   86.41007812
_symmetry_Int_Tables_number   1
_chemical_formula_structural   La11Sn10
_chemical_formula_sum   'La22 Sn20'
_cell_volume   1369.96887651
_cell_formula_units_Z   2
loop_
 _symmetry_equiv_pos_site_id
 _symmetry_equiv_pos_as_xyz
  1  'x, y, z'
loop_
 _atom_site_type_symbol
 _atom_site_label
 _atom_site_symmetry_multiplicity
 _atom_site_fract_x
 _atom_site_fract_y
 _atom_site_fract_z
 _atom_site_occupancy
  La  La0  1  0.66054400  0.66054400  0.00000000  1
  La  La1  1  0.33945600  0.33945600  0.00000000  1
  La  La2  1  0.17846500  0.17846500  0.35693100  1
  La  La3  1  0.82153500  0.82153500  0.64306900  1
  La  La4  1  0.17846500  0.82153500  0.00000000  1
  La  La5  1  0.82153500  0.17846500  0.00000000  1
  La  La6  1  0.80959700  0.06088100  0.25128400  1
  La  La7  1  0.80959700  0.55831300  0.74871600  1
  La  La8  1  0.06088100  0.80959700  0.25128400  1
  La  La9  1  0.55831300  0.80959700  0.74871600  1
  La  La10  1  0.19040300  0.93911900  0.74871600  1
  La  La11  1  0.19040300  0.44168700  0.25128400  1
  La  La12  1  0.93911900  0.19040300  0.74871600  1
  La  La13  1  0.44168700  0.19040300  0.25128400  1
  La  La14  1  0.60243900  0.92514500  0.32270600  1
  La  La15  1  0.60243900  0.27973400  0.67729400  1
  La  La16  1  0.92514500  0.60243900  0.32270600  1
  La  La17  1  0.27973400  0.60243900  0.67729400  1
  La  La18  1  0.39756100  0.07485500  0.67729400  1
  La  La19  1  0.39756100  0.72026600  0.32270600  1
  La  La20  1  0.07485500  0.39756100  0.67729400  1
  La  La21  1  0.72026600  0.39756100  0.32270600  1
  Sn  Sn0  1  0.89296200  0.89296200  0.00000000  1
  Sn  Sn1  1  0.10703800  0.10703800  0.00000000  1
  Sn  Sn2  1  0.75000000  0.25000000  0.50000000  1
  Sn  Sn3  1  0.25000000  0.75000000  0.50000000  1
  Sn  Sn4  1  0.37755400  0.37755400  0.75510700  1
  Sn  Sn5  1  0.62244600  0.62244600  0.24489300  1
  Sn  Sn6  1  0.37755400  0.62244600  0.00000000  1
  Sn  Sn7  1  0.62244600  0.37755400  0.00000000  1
  Sn  Sn8  1  0.36433900  0.00000000  0.36433900  1
  Sn  Sn9  1  0.63566100  0.00000000  0.63566100  1
  Sn  Sn10  1  0.00000000  0.63566100  0.63566100  1
  Sn  Sn11  1  0.00000000  0.36433900  0.36433900  1
  Sn  Sn12  1  0.88961700  0.88961700  0.41973300  1
  Sn  Sn13  1  0.46988400  0.46988400  0.58026700  1
  Sn  Sn14  1  0.88961700  0.46988400  0.00000000  1
  Sn  Sn15  1  0.46988400  0.88961700  0.00000000  1
  Sn  Sn16  1  0.11038300  0.11038300  0.58026700  1
  Sn  Sn17  1  0.53011600  0.53011600  0.41973300  1
  Sn  Sn18  1  0.11038300  0.53011600  0.00000000  1
  Sn  Sn19  1  0.53011600  0.11038300  0.00000000  1
loop_
_geom_bond_atom_site_label_1
_geom_bond_atom_site_label_2
_geom_bond_distance
_geom_bond_site_symmetry_2
La0 Sn4 3.630313 1_554
La0 Sn6 3.630316 1_555
La0 Sn7 3.630316 1_555
La0 Sn5 3.630328 1_555
La0 Sn14 3.640623 1_555
La0 Sn15 3.640623 1_555
La0 Sn12 3.640623 1_555
La0 Sn13 3.640623 1_554
La1 Sn5 3.630313 1_555
La1 Sn7 3.630316 1_555
La1 Sn6 3.630316 1_555
La1 Sn4 3.630328 1_554
La1 Sn18 3.640623 1_555
La1 Sn17 3.640623 1_555
La1 Sn19 3.640623 1_555
La1 Sn16 3.640623 1_554
La2 Sn11 3.145908 1_555
La2 Sn8 3.145908 1_555
La2 Sn4 3.437365 1_555
La2 Sn0 3.655961 1_445
La2 Sn1 3.655971 1_555
La2 Sn16 3.825646 1_555
La2 Sn13 3.825662 1_555
La3 Sn9 3.145908 1_565
La3 Sn10 3.145908 1_655
La3 Sn5 3.437365 1_555
La3 Sn1 3.655961 1_666
La3 Sn0 3.655971 1_556
La3 Sn12 3.825646 1_555
La3 Sn17 3.825662 1_555
La4 Sn10 3.145908 1_554
La4 Sn8 3.145908 1_565
La4 Sn6 3.437382 1_555
La4 Sn0 3.655959 1_455
La4 Sn1 3.655959 1_565
La4 Sn15 3.825659 1_555
La4 Sn18 3.825659 1_555
La5 Sn11 3.145908 1_655
La5 Sn9 3.145908 1_554
La5 Sn7 3.437382 1_555
La5 Sn1 3.655959 1_655
La5 Sn0 3.655959 1_545
La5 Sn14 3.825659 1_555
La5 Sn19 3.825659 1_555
La6 Sn2 3.228065 1_555
La6 Sn0 3.429289 1_545
La6 Sn15 3.538058 1_545
La6 Sn12 3.538058 1_545
La6 Sn16 3.579096 1_655
La6 Sn19 3.579096 1_555
La6 Sn11 3.762437 1_655
La7 Sn2 3.228065 1_555
La7 Sn0 3.429289 1_556
La7 Sn14 3.538058 1_556
La7 Sn13 3.538058 1_555
La7 Sn18 3.579096 1_656
La7 Sn17 3.579096 1_555
La7 Sn10 3.762437 1_655
La8 Sn3 3.228065 1_555
La8 Sn0 3.429289 1_455
La8 Sn14 3.538058 1_455
La8 Sn12 3.538058 1_455
La8 Sn16 3.579096 1_565
La8 Sn18 3.579096 1_555
La8 Sn8 3.762437 1_565
La9 Sn3 3.228065 1_555
La9 Sn0 3.429289 1_556
La9 Sn15 3.538058 1_556
La9 Sn13 3.538058 1_555
La9 Sn19 3.579096 1_566
La9 Sn17 3.579096 1_555
La9 Sn9 3.762437 1_565
La10 Sn3 3.228065 1_555
La10 Sn1 3.429289 1_566
La10 Sn16 3.538058 1_565
La10 Sn19 3.538058 1_566
La10 Sn15 3.579096 1_556
La10 Sn12 3.579096 1_455
La10 Sn10 3.762437 1_555
La11 Sn3 3.228065 1_555
La11 Sn1 3.429289 1_555
La11 Sn17 3.538058 1_555
La11 Sn18 3.538058 1_555
La11 Sn13 3.579096 1_555
La11 Sn14 3.579096 1_455
La11 Sn11 3.762437 1_555
La12 Sn2 3.228065 1_555
La12 Sn1 3.429289 1_656
La12 Sn16 3.538058 1_655
La12 Sn18 3.538058 1_656
La12 Sn12 3.579096 1_545
La12 Sn14 3.579096 1_556
La12 Sn9 3.762437 1_555
La13 Sn2 3.228065 1_555
La13 Sn1 3.429289 1_555
La13 Sn17 3.538058 1_555
La13 Sn19 3.538058 1_555
La13 Sn13 3.579096 1_555
La13 Sn15 3.579096 1_545
La13 Sn8 3.762437 1_555
La14 Sn15 3.237645 1_555
La14 Sn12 3.237645 1_555
La14 Sn8 3.312747 1_565
La14 Sn9 3.312747 1_565
La14 Sn6 3.429037 1_555
La14 Sn5 3.429040 1_555
La14 Sn2 3.470324 1_565
La15 Sn13 3.237634 1_555
La15 Sn14 3.237643 1_556
La15 Sn8 3.312753 1_555
La15 Sn9 3.312759 1_555
La15 Sn4 3.429028 1_555
La15 Sn7 3.429040 1_556
La15 Sn2 3.470320 1_555
La16 Sn14 3.237645 1_555
La16 Sn12 3.237645 1_555
La16 Sn11 3.312747 1_655
La16 Sn10 3.312747 1_655
La16 Sn7 3.429037 1_555
La16 Sn5 3.429040 1_555
La16 Sn3 3.470324 1_655
La17 Sn13 3.237634 1_555
La17 Sn15 3.237643 1_556
La17 Sn11 3.312753 1_555
La17 Sn10 3.312759 1_555
La17 Sn4 3.429028 1_555
La17 Sn6 3.429040 1_556
La17 Sn3 3.470320 1_555
La18 Sn16 3.237645 1_555
La18 Sn19 3.237645 1_556
La18 Sn8 3.312747 1_555
La18 Sn9 3.312747 1_555
La18 Sn7 3.429037 1_556
La18 Sn4 3.429040 1_555
La18 Sn3 3.470324 1_545
La19 Sn17 3.237634 1_555
La19 Sn18 3.237643 1_555
La19 Sn9 3.312753 1_565
La19 Sn8 3.312759 1_565
La19 Sn5 3.429028 1_555
La19 Sn6 3.429040 1_555
La19 Sn3 3.470320 1_555
La20 Sn16 3.237645 1_555
La20 Sn18 3.237645 1_556
La20 Sn11 3.312747 1_555
La20 Sn10 3.312747 1_555
La20 Sn6 3.429037 1_556
La20 Sn4 3.429040 1_555
La20 Sn2 3.470324 1_455
La21 Sn17 3.237634 1_555
La21 Sn19 3.237643 1_555
La21 Sn10 3.312753 1_655
La21 Sn11 3.312759 1_655
La21 Sn5 3.429028 1_555
La21 Sn7 3.429040 1_555
La21 Sn2 3.470320 1_555
Sn4 Sn6 2.989793 1_556
Sn4 Sn7 2.989793 1_556
Sn5 Sn6 2.989793 1_555
Sn5 Sn7 2.989793 1_555
Sn8 Sn9 3.312460 1_555
Sn10 Sn11 3.312460 1_555
Sn12 Sn16 2.931075 1_665
Sn13 Sn17 2.931075 1_555
Sn14 Sn18 2.931075 1_655
Sn15 Sn19 2.931075 1_565
