# generated using pymatgen
data_Cr4Te3Se
_symmetry_space_group_name_H-M   'P 1'
_cell_length_a   4.04695043
_cell_length_b   4.04695043
_cell_length_c   12.58397000
_cell_angle_alpha   90.00000000
_cell_angle_beta   90.00000000
_cell_angle_gamma   120.00000697
_symmetry_Int_Tables_number   1
_chemical_formula_structural   Cr4Te3Se
_chemical_formula_sum   'Cr4 Te3 Se1'
_cell_volume   178.48595380
_cell_formula_units_Z   1
loop_
 _symmetry_equiv_pos_site_id
 _symmetry_equiv_pos_as_xyz
  1  'x, y, z'
loop_
 _atom_site_type_symbol
 _atom_site_label
 _atom_site_symmetry_multiplicity
 _atom_site_fract_x
 _atom_site_fract_y
 _atom_site_fract_z
 _atom_site_occupancy
  Cr  Cr0  1  0.00000000  0.00000000  0.11883500  1
  Cr  Cr1  1  0.00000000  0.00000000  0.62566700  1
  Cr  Cr2  1  0.00000000  0.00000000  0.37433300  1
  Cr  Cr3  1  0.00000000  0.00000000  0.88116500  1
  Te  Te0  1  0.66666700  0.33333300  0.50000000  1
  Te  Te1  1  0.33333300  0.66666700  0.24772600  1
  Te  Te2  1  0.33333300  0.66666700  0.75227400  1
  Se  Se0  1  0.66666700  0.33333300  0.00000000  1
loop_
_geom_bond_atom_site_label_1
_geom_bond_atom_site_label_2
_geom_bond_distance
_geom_bond_site_symmetry_2
Cr0 Se0 2.774081 1_455
Cr0 Se0 2.774084 1_445
Cr0 Se0 2.774084 1_555
Cr0 Te1 2.844295 1_545
Cr0 Te1 2.844298 1_555
Cr0 Te1 2.844298 1_445
Cr1 Te0 2.821356 1_455
Cr1 Te0 2.821359 1_445
Cr1 Te0 2.821359 1_555
Cr1 Te2 2.828004 1_545
Cr1 Te2 2.828006 1_555
Cr1 Te2 2.828006 1_445
Cr2 Te0 2.821356 1_455
Cr2 Te0 2.821359 1_445
Cr2 Te0 2.821359 1_555
Cr2 Te1 2.828004 1_545
Cr2 Te1 2.828006 1_445
Cr2 Te1 2.828006 1_555
Cr3 Se0 2.774081 1_456
Cr3 Se0 2.774084 1_446
Cr3 Se0 2.774084 1_556
Cr3 Te2 2.844295 1_545
Cr3 Te2 2.844298 1_445
Cr3 Te2 2.844298 1_555
