# generated using pymatgen
data_CsEu(MoO4)2
_symmetry_space_group_name_H-M   'P 1'
_cell_length_a   5.17213100
_cell_length_b   8.30104300
_cell_length_c   9.68670200
_cell_angle_alpha   90.00000000
_cell_angle_beta   90.00000000
_cell_angle_gamma   90.00000000
_symmetry_Int_Tables_number   1
_chemical_formula_structural   CsEu(MoO4)2
_chemical_formula_sum   'Cs2 Eu2 Mo4 O16'
_cell_volume   415.88965636
_cell_formula_units_Z   2
loop_
 _symmetry_equiv_pos_site_id
 _symmetry_equiv_pos_as_xyz
  1  'x, y, z'
loop_
 _atom_site_type_symbol
 _atom_site_label
 _atom_site_symmetry_multiplicity
 _atom_site_fract_x
 _atom_site_fract_y
 _atom_site_fract_z
 _atom_site_occupancy
  Cs  Cs0  1  0.00000000  0.25000000  0.50000000  1
  Cs  Cs1  1  0.00000000  0.75000000  0.50000000  1
  Eu  Eu0  1  0.00000000  0.25000000  0.00000000  1
  Eu  Eu1  1  0.00000000  0.75000000  0.00000000  1
  Mo  Mo0  1  0.51762500  0.00000000  0.20087400  1
  Mo  Mo1  1  0.48237500  0.00000000  0.79912600  1
  Mo  Mo2  1  0.48237500  0.50000000  0.20087400  1
  Mo  Mo3  1  0.51762500  0.50000000  0.79912600  1
  O  O0  1  0.25644400  0.00000000  0.06903000  1
  O  O1  1  0.74355600  0.00000000  0.93097000  1
  O  O2  1  0.74355600  0.50000000  0.06903000  1
  O  O3  1  0.25644400  0.50000000  0.93097000  1
  O  O4  1  0.26687200  0.32843500  0.19379100  1
  O  O5  1  0.73312800  0.67156500  0.80620900  1
  O  O6  1  0.73312800  0.32843500  0.80620900  1
  O  O7  1  0.73312800  0.17156500  0.19379100  1
  O  O8  1  0.26687200  0.67156500  0.19379100  1
  O  O9  1  0.26687200  0.82843500  0.80620900  1
  O  O10  1  0.26687200  0.17156500  0.80620900  1
  O  O11  1  0.73312800  0.82843500  0.19379100  1
  O  O12  1  0.37264800  0.00000000  0.36412300  1
  O  O13  1  0.62735200  0.00000000  0.63587700  1
  O  O14  1  0.62735200  0.50000000  0.36412300  1
  O  O15  1  0.37264800  0.50000000  0.63587700  1
loop_
_geom_bond_atom_site_label_1
_geom_bond_atom_site_label_2
_geom_bond_distance
_geom_bond_site_symmetry_2
Cs0 O12 3.123123 1_555
Cs0 O13 3.123123 1_455
Cs0 O14 3.123123 1_455
Cs0 O15 3.123123 1_555
Cs0 O6 3.335749 1_455
Cs0 O10 3.335749 1_555
Cs0 O7 3.335749 1_455
Cs0 O4 3.335749 1_555
Cs1 O13 3.123123 1_465
Cs1 O12 3.123123 1_565
Cs1 O14 3.123123 1_455
Cs1 O15 3.123123 1_555
Cs1 O5 3.335749 1_455
Cs1 O9 3.335749 1_555
Cs1 O8 3.335749 1_555
Cs1 O11 3.335749 1_455
Eu0 O10 2.419298 1_554
Eu0 O7 2.419298 1_455
Eu0 O4 2.419298 1_555
Eu0 O6 2.419298 1_454
Eu0 O2 2.552071 1_455
Eu0 O1 2.552071 1_454
Eu0 O0 2.552071 1_555
Eu0 O3 2.552071 1_554
Eu1 O5 2.419298 1_454
Eu1 O11 2.419298 1_455
Eu1 O9 2.419298 1_554
Eu1 O8 2.419298 1_555
Eu1 O0 2.552071 1_565
Eu1 O2 2.552071 1_455
Eu1 O3 2.552071 1_554
Eu1 O1 2.552071 1_464
Mo0 O12 1.750117 1_555
Mo0 O11 1.809784 1_545
Mo0 O7 1.809784 1_555
Mo0 O0 1.859005 1_555
Mo1 O13 1.750117 1_555
Mo1 O9 1.809784 1_545
Mo1 O10 1.809784 1_555
Mo1 O1 1.859005 1_555
Mo2 O14 1.750117 1_555
Mo2 O8 1.809784 1_555
Mo2 O4 1.809784 1_555
Mo2 O2 1.859005 1_555
Mo3 O15 1.750117 1_555
Mo3 O5 1.809784 1_555
Mo3 O6 1.809784 1_555
Mo3 O3 1.859005 1_555
