# generated using pymatgen
data_Nd2MnCrO6
_symmetry_space_group_name_H-M   'P 1'
_cell_length_a   5.77534200
_cell_length_b   5.53672300
_cell_length_c   9.40742946
_cell_angle_alpha   54.36610440
_cell_angle_beta   90.00000000
_cell_angle_gamma   90.00000000
_symmetry_Int_Tables_number   1
_chemical_formula_structural   Nd2MnCrO6
_chemical_formula_sum   'Nd4 Mn2 Cr2 O12'
_cell_volume   244.49038634
_cell_formula_units_Z   2
loop_
 _symmetry_equiv_pos_site_id
 _symmetry_equiv_pos_as_xyz
  1  'x, y, z'
loop_
 _atom_site_type_symbol
 _atom_site_label
 _atom_site_symmetry_multiplicity
 _atom_site_fract_x
 _atom_site_fract_y
 _atom_site_fract_z
 _atom_site_occupancy
  Nd  Nd0  1  0.56062100  0.73533800  0.75023600  1
  Nd  Nd1  1  0.06062100  0.26466200  0.74976400  1
  Nd  Nd2  1  0.43937900  0.26466200  0.24976400  1
  Nd  Nd3  1  0.93937900  0.73533800  0.25023600  1
  Mn  Mn0  1  0.50000000  0.00000000  0.00000000  1
  Mn  Mn1  1  0.00000000  0.00000000  0.50000000  1
  Cr  Cr0  1  0.50000000  0.50000000  0.50000000  1
  Cr  Cr1  1  0.00000000  0.50000000  0.00000000  1
  O  O0  1  0.80502500  0.25761300  0.95010600  1
  O  O1  1  0.30502500  0.74238700  0.54989400  1
  O  O2  1  0.20487400  0.34807300  0.45300300  1
  O  O3  1  0.70487400  0.65192700  0.04699700  1
  O  O4  1  0.19497500  0.74238700  0.04989400  1
  O  O5  1  0.69497500  0.25761300  0.45010600  1
  O  O6  1  0.79512600  0.65192700  0.54699700  1
  O  O7  1  0.29512600  0.34807300  0.95300300  1
  O  O8  1  0.97208200  0.84997900  0.74399300  1
  O  O9  1  0.47208200  0.15002100  0.75600700  1
  O  O10  1  0.02791800  0.15002100  0.25600700  1
  O  O11  1  0.52791800  0.84997900  0.24399300  1
loop_
_geom_bond_atom_site_label_1
_geom_bond_atom_site_label_2
_geom_bond_distance
_geom_bond_site_symmetry_2
Nd0 O1 2.376332 1_555
Nd0 O9 2.383529 1_565
Nd0 O7 2.412766 1_555
Nd0 O8 2.451497 1_555
Nd0 O0 2.594025 1_555
Nd0 O6 2.594605 1_555
Nd0 O3 2.683089 1_556
Nd0 O5 2.724417 1_565
Nd1 O0 2.376332 1_455
Nd1 O8 2.383529 1_445
Nd1 O6 2.412766 1_455
Nd1 O9 2.451497 1_555
Nd1 O1 2.594025 1_555
Nd1 O7 2.594605 1_555
Nd1 O2 2.683089 1_555
Nd1 O4 2.724417 1_546
Nd2 O5 2.376332 1_555
Nd2 O11 2.383529 1_545
Nd2 O3 2.412766 1_555
Nd2 O10 2.451497 1_555
Nd2 O4 2.594025 1_555
Nd2 O2 2.594605 1_555
Nd2 O7 2.683089 1_554
Nd2 O1 2.724417 1_545
Nd3 O4 2.376332 1_655
Nd3 O10 2.383529 1_665
Nd3 O2 2.412766 1_655
Nd3 O11 2.451497 1_555
Nd3 O5 2.594025 1_555
Nd3 O3 2.594605 1_555
Nd3 O6 2.683089 1_555
Nd3 O0 2.724417 1_564
Mn0 O11 1.939845 1_545
Mn0 O9 1.939845 1_554
Mn0 O3 2.077667 1_545
Mn0 O7 2.077667 1_554
Mn0 O4 2.139618 1_545
Mn0 O0 2.139618 1_554
Mn1 O10 1.939845 1_555
Mn1 O8 1.939845 1_445
Mn1 O6 2.077667 1_445
Mn1 O2 2.077667 1_555
Mn1 O1 2.139618 1_545
Mn1 O5 2.139618 1_455
Cr0 O1 2.005821 1_555
Cr0 O5 2.005821 1_555
Cr0 O11 2.035506 1_555
Cr0 O9 2.035506 1_555
Cr0 O2 2.059504 1_555
Cr0 O6 2.059504 1_555
Cr1 O4 2.005821 1_555
Cr1 O0 2.005821 1_454
Cr1 O10 2.035506 1_555
Cr1 O8 2.035506 1_454
Cr1 O7 2.059504 1_554
Cr1 O3 2.059504 1_455
