# generated using pymatgen
data_Mg2V3O8
_symmetry_space_group_name_H-M   'P 1'
_cell_length_a   5.91393245
_cell_length_b   5.91862155
_cell_length_c   9.51664313
_cell_angle_alpha   89.92395146
_cell_angle_beta   90.04501150
_cell_angle_gamma   119.97896470
_symmetry_Int_Tables_number   1
_chemical_formula_structural   Mg2V3O8
_chemical_formula_sum   'Mg4 V6 O16'
_cell_volume   288.53797230
_cell_formula_units_Z   2
loop_
 _symmetry_equiv_pos_site_id
 _symmetry_equiv_pos_as_xyz
  1  'x, y, z'
loop_
 _atom_site_type_symbol
 _atom_site_label
 _atom_site_symmetry_multiplicity
 _atom_site_fract_x
 _atom_site_fract_y
 _atom_site_fract_z
 _atom_site_occupancy
  Mg  Mg0  1  0.66717000  0.33410600  0.02177200  1
  Mg  Mg1  1  0.33295900  0.66593500  0.52270500  1
  Mg  Mg2  1  0.66665700  0.33258800  0.42099600  1
  Mg  Mg3  1  0.33304500  0.66587800  0.92155400  1
  V  V0  1  0.16396600  0.32661200  0.24390100  1
  V  V1  1  0.83501500  0.67324200  0.74394900  1
  V  V2  1  0.16203300  0.83620000  0.24449900  1
  V  V3  1  0.67371700  0.83797500  0.24463800  1
  V  V4  1  0.83786400  0.16410000  0.74458100  1
  V  V5  1  0.32562800  0.16081900  0.74422900  1
  O  O0  1  0.00070600  0.00069600  0.35276500  1
  O  O1  1  0.99962200  0.99889700  0.85326100  1
  O  O2  1  0.33349500  0.66734100  0.13182800  1
  O  O3  1  0.66635200  0.33306900  0.63153800  1
  O  O4  1  0.82229500  0.14994000  0.14622700  1
  O  O5  1  0.67255900  0.82229300  0.64615400  1
  O  O6  1  0.14911700  0.32632300  0.64618800  1
  O  O7  1  0.85228800  0.67566400  0.14492700  1
  O  O8  1  0.32797800  0.17950000  0.14630000  1
  O  O9  1  0.17718000  0.84971100  0.64616200  1
  O  O10  1  0.50623800  0.46883800  0.86449800  1
  O  O11  1  0.03754700  0.50655500  0.36488000  1
  O  O12  1  0.46856100  0.96205700  0.36514800  1
  O  O13  1  0.53056000  0.03685900  0.86478000  1
  O  O14  1  0.96270900  0.49289100  0.86462500  1
  O  O15  1  0.49474200  0.53191500  0.36489700  1
loop_
_geom_bond_atom_site_label_1
_geom_bond_atom_site_label_2
_geom_bond_distance
_geom_bond_site_symmetry_2
Mg0 O4 2.103980 1_555
Mg0 O8 2.105253 1_555
Mg0 O7 2.109829 1_555
Mg0 O14 2.129182 1_554
Mg0 O10 2.129537 1_554
Mg0 O13 2.136495 1_554
Mg1 O5 2.100460 1_555
Mg1 O6 2.101197 1_555
Mg1 O9 2.102076 1_555
Mg1 O11 2.133209 1_555
Mg1 O12 2.133864 1_555
Mg1 O15 2.136323 1_555
Mg2 O12 1.974563 1_545
Mg2 O11 1.974797 1_655
Mg2 O15 1.976518 1_555
Mg2 O3 2.003662 1_555
Mg3 O14 1.974124 1_455
Mg3 O10 1.974902 1_555
Mg3 O13 1.977913 1_565
Mg3 O2 2.001127 1_556
O0 V2 1.962706 1_545
O0 V0 1.965068 1_555
O0 V3 1.965761 1_445
O1 V5 1.966262 1_665
O1 V4 1.967592 1_565
O1 V1 1.968107 1_555
O2 V0 2.045723 1_555
O2 V3 2.046853 1_555
O2 V2 2.047950 1_555
O3 V1 2.046954 1_555
O3 V4 2.048276 1_555
O3 V5 2.048730 1_555
O4 V3 1.853033 1_545
O4 V0 1.982025 1_655
O5 V1 1.846857 1_555
O5 V4 1.988183 1_565
O6 V4 1.849603 1_455
O6 V5 1.984353 1_555
O7 V2 1.848383 1_655
O7 V3 1.989074 1_555
O8 V0 1.846411 1_555
O8 V2 1.992122 1_545
O9 V5 1.849323 1_565
O9 V1 1.984906 1_455
O10 V5 1.957554 1_555
O10 V1 2.051660 1_555
O11 V0 1.954246 1_555
O11 V2 2.054498 1_555
O12 V2 1.951637 1_555
O12 V3 2.054636 1_555
O13 V4 1.952354 1_555
O13 V5 2.051210 1_555
O14 V1 1.956924 1_555
O14 V4 2.050812 1_555
O15 V3 1.947244 1_555
O15 V0 2.062465 1_555
