# generated using pymatgen
data_BaNdZr2O6
_symmetry_space_group_name_H-M   'P 1'
_cell_length_a   4.21973675
_cell_length_b   4.21973675
_cell_length_c   8.38517043
_cell_angle_alpha   90.00000000
_cell_angle_beta   90.00000000
_cell_angle_gamma   90.00000000
_symmetry_Int_Tables_number   1
_chemical_formula_structural   BaNdZr2O6
_chemical_formula_sum   'Ba1 Nd1 Zr2 O6'
_cell_volume   149.30783924
_cell_formula_units_Z   1
loop_
 _symmetry_equiv_pos_site_id
 _symmetry_equiv_pos_as_xyz
  1  'x, y, z'
loop_
 _atom_site_type_symbol
 _atom_site_label
 _atom_site_symmetry_multiplicity
 _atom_site_fract_x
 _atom_site_fract_y
 _atom_site_fract_z
 _atom_site_occupancy
  Ba  Ba0  1  0.50000000  0.50000000  0.00000000  1
  Nd  Nd0  1  0.50000000  0.50000000  0.50000000  1
  Zr  Zr0  1  0.00000000  0.00000000  0.74407115  1
  Zr  Zr1  1  0.00000000  0.00000000  0.25592885  1
  O  O0  1  0.50000000  0.00000000  0.72729361  1
  O  O1  1  0.50000000  0.00000000  0.27270639  1
  O  O2  1  0.00000000  0.00000000  0.50000000  1
  O  O3  1  0.00000000  0.00000000  0.00000000  1
  O  O4  1  0.00000000  0.50000000  0.72729361  1
  O  O5  1  0.00000000  0.50000000  0.27270639  1
loop_
_geom_bond_atom_site_label_1
_geom_bond_atom_site_label_2
_geom_bond_distance
_geom_bond_site_symmetry_2
Ba0 O3 2.983804 1_555
Ba0 O3 2.983804 1_565
Ba0 O3 2.983804 1_665
Ba0 O3 2.983804 1_655
Ba0 O0 3.111349 1_554
Ba0 O4 3.111349 1_554
Ba0 O0 3.111349 1_564
Ba0 O4 3.111349 1_654
Ba0 O5 3.111349 1_655
Ba0 O1 3.111349 1_565
Ba0 O1 3.111349 1_555
Ba0 O5 3.111349 1_555
Nd0 O1 2.843235 1_565
Nd0 O5 2.843235 1_655
Nd0 O1 2.843235 1_555
Nd0 O5 2.843235 1_555
Nd0 O4 2.843235 1_655
Nd0 O0 2.843235 1_565
Nd0 O0 2.843235 1_555
Nd0 O4 2.843235 1_555
Nd0 O2 2.983804 1_555
Nd0 O2 2.983804 1_565
Nd0 O2 2.983804 1_655
Nd0 O2 2.983804 1_665
O0 Zr0 2.114553 1_555
O0 Zr0 2.114553 1_655
O1 Zr1 2.114553 1_655
O1 Zr1 2.114553 1_555
O2 Zr1 2.046578 1_555
O2 Zr0 2.046578 1_555
O3 Zr0 2.146007 1_554
O3 Zr1 2.146007 1_555
O4 Zr0 2.114553 1_565
O4 Zr0 2.114553 1_555
O5 Zr1 2.114553 1_565
O5 Zr1 2.114553 1_555
