# generated using pymatgen
data_La5Mg
_symmetry_space_group_name_H-M   'P 1'
_cell_length_a   13.59011046
_cell_length_b   13.59011046
_cell_length_c   17.76955550
_cell_angle_alpha   73.23564897
_cell_angle_beta   73.23564897
_cell_angle_gamma   32.43544067
_symmetry_Int_Tables_number   1
_chemical_formula_structural   La5Mg
_chemical_formula_sum   'La40 Mg8'
_cell_volume   1678.93885325
_cell_formula_units_Z   8
loop_
 _symmetry_equiv_pos_site_id
 _symmetry_equiv_pos_as_xyz
  1  'x, y, z'
loop_
 _atom_site_type_symbol
 _atom_site_label
 _atom_site_symmetry_multiplicity
 _atom_site_fract_x
 _atom_site_fract_y
 _atom_site_fract_z
 _atom_site_occupancy
  La  La0_0  1  0.00264750  0.00264750  0.01843300  1
  La  La0_1  1  0.00264750  0.00264750  0.51843300  1
  La  La0_2  1  0.00264750  0.50264750  0.01843300  1
  La  La0_3  1  0.00264750  0.50264750  0.51843300  1
  La  La0_4  1  0.50264750  0.00264750  0.01843300  1
  La  La0_5  1  0.50264750  0.00264750  0.51843300  1
  La  La0_6  1  0.50264750  0.50264750  0.01843300  1
  La  La0_7  1  0.50264750  0.50264750  0.51843300  1
  La  La1_0  1  0.15719550  0.15719550  0.16633850  1
  La  La1_1  1  0.15719550  0.15719550  0.66633850  1
  La  La1_2  1  0.15719550  0.65719550  0.16633850  1
  La  La1_3  1  0.15719550  0.65719550  0.66633850  1
  La  La1_4  1  0.65719550  0.15719550  0.16633850  1
  La  La1_5  1  0.65719550  0.15719550  0.66633850  1
  La  La1_6  1  0.65719550  0.65719550  0.16633850  1
  La  La1_7  1  0.65719550  0.65719550  0.66633850  1
  La  La2_0  1  0.47563150  0.47563150  0.28682550  1
  La  La2_1  1  0.47563150  0.47563150  0.78682550  1
  La  La2_2  1  0.47563150  0.97563150  0.28682550  1
  La  La2_3  1  0.47563150  0.97563150  0.78682550  1
  La  La2_4  1  0.97563150  0.47563150  0.28682550  1
  La  La2_5  1  0.97563150  0.47563150  0.78682550  1
  La  La2_6  1  0.97563150  0.97563150  0.28682550  1
  La  La2_7  1  0.97563150  0.97563150  0.78682550  1
  La  La3_0  1  0.33141450  0.33141450  0.34199850  1
  La  La3_1  1  0.33141450  0.33141450  0.84199850  1
  La  La3_2  1  0.33141450  0.83141450  0.34199850  1
  La  La3_3  1  0.33141450  0.83141450  0.84199850  1
  La  La3_4  1  0.83141450  0.33141450  0.34199850  1
  La  La3_5  1  0.83141450  0.33141450  0.84199850  1
  La  La3_6  1  0.83141450  0.83141450  0.34199850  1
  La  La3_7  1  0.83141450  0.83141450  0.84199850  1
  La  La4_0  1  0.14263500  0.14263500  0.46714950  1
  La  La4_1  1  0.14263500  0.14263500  0.96714950  1
  La  La4_2  1  0.14263500  0.64263500  0.46714950  1
  La  La4_3  1  0.14263500  0.64263500  0.96714950  1
  La  La4_4  1  0.64263500  0.14263500  0.46714950  1
  La  La4_5  1  0.64263500  0.14263500  0.96714950  1
  La  La4_6  1  0.64263500  0.64263500  0.46714950  1
  La  La4_7  1  0.64263500  0.64263500  0.96714950  1
  Mg  Mg0_0  1  0.30714250  0.30714250  0.13592200  1
  Mg  Mg0_1  1  0.30714250  0.30714250  0.63592200  1
  Mg  Mg0_2  1  0.30714250  0.80714250  0.13592200  1
  Mg  Mg0_3  1  0.30714250  0.80714250  0.63592200  1
  Mg  Mg0_4  1  0.80714250  0.30714250  0.13592200  1
  Mg  Mg0_5  1  0.80714250  0.30714250  0.63592200  1
  Mg  Mg0_6  1  0.80714250  0.80714250  0.13592200  1
  Mg  Mg0_7  1  0.80714250  0.80714250  0.63592200  1
loop_
_geom_bond_atom_site_label_1
_geom_bond_atom_site_label_2
_geom_bond_distance
_geom_bond_site_symmetry_2
La0_0 Mg0_4 3.430280 1_455
La0_0 Mg0_2 3.430280 1_545
La0_0 La4_1 3.489724 1_554
La0_0 La3_3 3.712781 1_544
La0_0 La3_5 3.712781 1_454
La0_0 La4_5 3.774596 1_454
La0_0 La4_3 3.774596 1_544
La0_1 Mg0_3 3.430280 1_545
La0_1 Mg0_5 3.430280 1_455
La0_1 La4_0 3.489724 1_555
La0_1 La3_2 3.712781 1_545
La0_1 La3_4 3.712781 1_455
La0_1 La4_4 3.774596 1_455
La0_1 La4_2 3.774596 1_545
La0_2 Mg0_0 3.430280 1_555
La0_2 Mg0_6 3.430280 1_455
La0_2 La4_3 3.489724 1_554
La0_2 La3_7 3.712781 1_454
La0_2 La3_1 3.712781 1_554
La0_2 La4_1 3.774596 1_554
La0_2 La4_7 3.774596 1_454
La0_3 Mg0_1 3.430280 1_555
La0_3 Mg0_7 3.430280 1_455
La0_3 La4_2 3.489724 1_555
La0_3 La3_0 3.712781 1_555
La0_3 La3_6 3.712781 1_455
La0_3 La4_0 3.774596 1_555
La0_3 La4_6 3.774596 1_455
La0_4 Mg0_0 3.430280 1_555
La0_4 Mg0_6 3.430280 1_545
La0_4 La4_5 3.489724 1_554
La0_4 La3_7 3.712781 1_544
La0_4 La3_1 3.712781 1_554
La0_4 La4_1 3.774596 1_554
La0_4 La4_7 3.774596 1_544
La0_5 Mg0_1 3.430280 1_555
La0_5 Mg0_7 3.430280 1_545
La0_5 La4_4 3.489724 1_555
La0_5 La3_0 3.712781 1_555
La0_5 La3_6 3.712781 1_545
La0_5 La4_0 3.774596 1_555
La0_5 La4_6 3.774596 1_545
La0_6 Mg0_4 3.430280 1_555
La0_6 Mg0_2 3.430280 1_555
La0_6 La4_7 3.489724 1_554
La0_6 La3_5 3.712781 1_554
La0_6 La3_3 3.712781 1_554
La0_6 La4_5 3.774596 1_554
La0_6 La4_3 3.774596 1_554
La0_7 Mg0_3 3.430280 1_555
La0_7 Mg0_5 3.430280 1_555
La0_7 La4_6 3.489724 1_555
La0_7 La3_4 3.712781 1_555
La0_7 La3_2 3.712781 1_555
La0_7 La4_4 3.774596 1_555
La0_7 La4_2 3.774596 1_555
La1_0 Mg0_4 3.400031 1_455
La1_0 Mg0_2 3.400031 1_545
La1_0 La4_1 3.671586 1_554
La1_0 La3_2 3.680685 1_545
La1_0 La3_4 3.680685 1_455
La1_0 Mg0_0 3.786317 1_555
La1_1 Mg0_5 3.400031 1_455
La1_1 Mg0_3 3.400031 1_545
La1_1 La4_0 3.671586 1_555
La1_1 La3_3 3.680685 1_545
La1_1 La3_5 3.680685 1_455
La1_1 Mg0_1 3.786317 1_555
La1_2 Mg0_6 3.400031 1_455
La1_2 Mg0_0 3.400031 1_555
La1_2 La4_3 3.671586 1_554
La1_2 La3_6 3.680685 1_455
La1_2 La3_0 3.680685 1_555
La1_2 Mg0_2 3.786317 1_555
La1_3 Mg0_1 3.400031 1_555
La1_3 Mg0_7 3.400031 1_455
La1_3 La4_2 3.671586 1_555
La1_3 La3_1 3.680685 1_555
La1_3 La3_7 3.680685 1_455
La1_3 Mg0_3 3.786317 1_555
La1_4 Mg0_6 3.400031 1_545
La1_4 Mg0_0 3.400031 1_555
La1_4 La4_5 3.671586 1_554
La1_4 La3_6 3.680685 1_545
La1_4 La3_0 3.680685 1_555
La1_4 Mg0_4 3.786317 1_555
La1_5 Mg0_1 3.400031 1_555
La1_5 Mg0_7 3.400031 1_545
La1_5 La4_4 3.671586 1_555
La1_5 La3_1 3.680685 1_555
La1_5 La3_7 3.680685 1_545
La1_5 Mg0_5 3.786317 1_555
La1_6 Mg0_4 3.400031 1_555
La1_6 Mg0_2 3.400031 1_555
La1_6 La4_7 3.671586 1_554
La1_6 La3_2 3.680685 1_555
La1_6 La3_4 3.680685 1_555
La1_6 Mg0_6 3.786317 1_555
La1_7 Mg0_5 3.400031 1_555
La1_7 Mg0_3 3.400031 1_555
La1_7 La4_6 3.671586 1_555
La1_7 La3_3 3.680685 1_555
La1_7 La3_5 3.680685 1_555
La1_7 Mg0_7 3.786317 1_555
La2_0 Mg0_4 3.448242 1_555
La2_0 Mg0_2 3.448242 1_555
La2_0 La3_0 3.593182 1_555
La2_0 La3_2 3.716294 1_555
La2_0 La3_4 3.716294 1_555
La2_0 La4_4 3.793555 1_555
La2_0 La4_2 3.793555 1_555
La2_1 Mg0_5 3.448242 1_555
La2_1 Mg0_3 3.448242 1_555
La2_1 La3_1 3.593182 1_555
La2_1 La3_5 3.716294 1_555
La2_1 La3_3 3.716294 1_555
La2_1 La4_3 3.793555 1_555
La2_1 La4_5 3.793555 1_555
La2_2 Mg0_0 3.448242 1_565
La2_2 Mg0_6 3.448242 1_555
La2_2 La3_2 3.593182 1_555
La2_2 La3_0 3.716294 1_565
La2_2 La3_6 3.716294 1_555
La2_2 La4_6 3.793555 1_555
La2_2 La4_0 3.793555 1_565
La2_3 Mg0_1 3.448242 1_565
La2_3 Mg0_7 3.448242 1_555
La2_3 La3_3 3.593182 1_555
La2_3 La3_7 3.716294 1_555
La2_3 La3_1 3.716294 1_565
La2_3 La4_1 3.793555 1_565
La2_3 La4_7 3.793555 1_555
La2_4 Mg0_0 3.448242 1_655
La2_4 Mg0_6 3.448242 1_555
La2_4 La3_4 3.593182 1_555
La2_4 La3_0 3.716294 1_655
La2_4 La3_6 3.716294 1_555
La2_4 La4_6 3.793555 1_555
La2_4 La4_0 3.793555 1_655
La2_5 Mg0_1 3.448242 1_655
La2_5 Mg0_7 3.448242 1_555
La2_5 La3_5 3.593182 1_555
La2_5 La3_7 3.716294 1_555
La2_5 La3_1 3.716294 1_655
La2_5 La4_1 3.793555 1_655
La2_5 La4_7 3.793555 1_555
La2_6 Mg0_2 3.448242 1_655
La2_6 Mg0_4 3.448242 1_565
La2_6 La3_6 3.593182 1_555
La2_6 La3_2 3.716294 1_655
La2_6 La3_4 3.716294 1_565
La2_6 La4_4 3.793555 1_565
La2_6 La4_2 3.793555 1_655
La2_7 Mg0_3 3.448242 1_655
La2_7 Mg0_5 3.448242 1_565
La2_7 La3_7 3.593182 1_555
La2_7 La3_5 3.716294 1_565
La2_7 La3_3 3.716294 1_655
La2_7 La4_5 3.793555 1_565
La2_7 La4_3 3.793555 1_655
La3_0 La4_2 3.637965 1_555
La3_0 La4_4 3.637965 1_555
La3_0 La3_6 3.795556 1_455
La3_0 La3_6 3.795556 1_545
La3_0 Mg0_0 3.899271 1_555
La3_1 La4_3 3.637965 1_555
La3_1 La4_5 3.637965 1_555
La3_1 La3_7 3.795556 1_545
La3_1 La3_7 3.795556 1_455
La3_1 Mg0_1 3.899271 1_555
La3_2 La4_6 3.637965 1_555
La3_2 La4_0 3.637965 1_565
La3_2 La3_4 3.795556 1_465
La3_2 La3_4 3.795556 1_555
La3_2 Mg0_2 3.899271 1_555
La3_3 La4_7 3.637965 1_555
La3_3 La4_1 3.637965 1_565
La3_3 La3_5 3.795556 1_555
La3_3 La3_5 3.795556 1_465
La3_3 Mg0_3 3.899271 1_555
La3_4 La4_6 3.637965 1_555
La3_4 La4_0 3.637965 1_655
La3_4 Mg0_4 3.899271 1_555
La3_5 La4_7 3.637965 1_555
La3_5 La4_1 3.637965 1_655
La3_5 Mg0_5 3.899271 1_555
La3_6 La4_2 3.637965 1_655
La3_6 La4_4 3.637965 1_565
La3_6 Mg0_6 3.899271 1_555
La3_7 La4_3 3.637965 1_655
La3_7 La4_5 3.637965 1_565
La3_7 Mg0_7 3.899271 1_555
La4_0 Mg0_5 3.681568 1_455
La4_0 Mg0_3 3.681568 1_545
La4_0 La4_6 3.795556 1_545
La4_0 La4_6 3.795556 1_455
La4_1 Mg0_4 3.681568 1_456
La4_1 Mg0_2 3.681568 1_546
La4_1 La4_7 3.795556 1_455
La4_1 La4_7 3.795556 1_545
La4_2 Mg0_1 3.681568 1_555
La4_2 Mg0_7 3.681568 1_455
La4_2 La4_4 3.795556 1_555
La4_2 La4_4 3.795556 1_465
La4_3 Mg0_6 3.681568 1_456
La4_3 Mg0_0 3.681568 1_556
La4_3 La4_5 3.795556 1_555
La4_3 La4_5 3.795556 1_465
La4_4 Mg0_1 3.681568 1_555
La4_4 Mg0_7 3.681568 1_545
La4_5 Mg0_0 3.681568 1_556
La4_5 Mg0_6 3.681568 1_546
La4_6 Mg0_5 3.681568 1_555
La4_6 Mg0_3 3.681568 1_555
La4_7 Mg0_4 3.681568 1_556
La4_7 Mg0_2 3.681568 1_556
