# generated using pymatgen
data_K2AsAuCl6
_symmetry_space_group_name_H-M   'P 1'
_cell_length_a   7.34600790
_cell_length_b   7.34600790
_cell_length_c   7.34600790
_cell_angle_alpha   60.00000000
_cell_angle_beta   60.00000000
_cell_angle_gamma   60.00000000
_symmetry_Int_Tables_number   1
_chemical_formula_structural   K2AsAuCl6
_chemical_formula_sum   'K2 As1 Au1 Cl6'
_cell_volume   280.31037677
_cell_formula_units_Z   1
loop_
 _symmetry_equiv_pos_site_id
 _symmetry_equiv_pos_as_xyz
  1  'x, y, z'
loop_
 _atom_site_type_symbol
 _atom_site_label
 _atom_site_symmetry_multiplicity
 _atom_site_fract_x
 _atom_site_fract_y
 _atom_site_fract_z
 _atom_site_occupancy
  K  K0  1  0.75000000  0.75000000  0.75000000  1
  K  K1  1  0.25000000  0.25000000  0.25000000  1
  As  As0  1  0.00000000  0.00000000  0.00000000  1
  Au  Au0  1  0.50000000  0.50000000  0.50000000  1
  Cl  Cl0  1  0.75739000  0.24261000  0.24261000  1
  Cl  Cl1  1  0.24261000  0.24261000  0.75739000  1
  Cl  Cl2  1  0.24261000  0.75739000  0.75739000  1
  Cl  Cl3  1  0.24261000  0.75739000  0.24261000  1
  Cl  Cl4  1  0.75739000  0.24261000  0.75739000  1
  Cl  Cl5  1  0.75739000  0.75739000  0.24261000  1
loop_
_geom_bond_atom_site_label_1
_geom_bond_atom_site_label_2
_geom_bond_distance
_geom_bond_site_symmetry_2
As0 Cl1 2.520433 1_554
As0 Cl0 2.520433 1_455
As0 Cl5 2.520433 1_445
As0 Cl3 2.520433 1_545
As0 Cl2 2.520433 1_544
As0 Cl4 2.520433 1_454
Au0 Cl4 2.673979 1_555
Au0 Cl1 2.673979 1_555
Au0 Cl5 2.673979 1_555
Au0 Cl2 2.673979 1_555
Au0 Cl0 2.673979 1_555
Au0 Cl3 2.673979 1_555
Cl0 K1 3.673806 1_555
Cl0 K0 3.673806 1_545
Cl0 K1 3.673806 1_655
Cl0 K0 3.673806 1_554
Cl1 K0 3.673806 1_455
Cl1 K1 3.673806 1_555
Cl1 K0 3.673806 1_545
Cl1 K1 3.673806 1_556
Cl2 K0 3.673806 1_555
Cl2 K0 3.673806 1_455
Cl2 K1 3.673806 1_556
Cl2 K1 3.673806 1_565
Cl3 K0 3.673806 1_455
Cl3 K1 3.673806 1_555
Cl3 K0 3.673806 1_554
Cl3 K1 3.673806 1_565
Cl4 K0 3.673806 1_555
Cl4 K0 3.673806 1_545
Cl4 K1 3.673806 1_655
Cl4 K1 3.673806 1_556
Cl5 K0 3.673806 1_555
Cl5 K1 3.673806 1_655
Cl5 K0 3.673806 1_554
Cl5 K1 3.673806 1_565
