# generated using pymatgen
data_Rb15W7N19
_symmetry_space_group_name_H-M   'P 1'
_cell_length_a   7.24223400
_cell_length_b   12.94788612
_cell_length_c   20.01301650
_cell_angle_alpha   90.16341791
_cell_angle_beta   94.45480484
_cell_angle_gamma   99.38785411
_symmetry_Int_Tables_number   1
_chemical_formula_structural   Rb15W7N19
_chemical_formula_sum   'Rb30 W14 N38'
_cell_volume   1845.69509185
_cell_formula_units_Z   2
loop_
 _symmetry_equiv_pos_site_id
 _symmetry_equiv_pos_as_xyz
  1  'x, y, z'
loop_
 _atom_site_type_symbol
 _atom_site_label
 _atom_site_symmetry_multiplicity
 _atom_site_fract_x
 _atom_site_fract_y
 _atom_site_fract_z
 _atom_site_occupancy
  Rb  Rb0  1  0.51722800  0.62241400  0.43469700  1
  Rb  Rb1  1  0.48277200  0.37758600  0.56530300  1
  Rb  Rb2  1  0.62738400  0.12714800  0.65610200  1
  Rb  Rb3  1  0.37261600  0.87285200  0.34389800  1
  Rb  Rb4  1  0.71192300  0.01884300  0.19226900  1
  Rb  Rb5  1  0.28807700  0.98115700  0.80773100  1
  Rb  Rb6  1  0.94217900  0.04073400  0.37868900  1
  Rb  Rb7  1  0.05782100  0.95926600  0.62131100  1
  Rb  Rb8  1  0.74286000  0.74611600  0.27510900  1
  Rb  Rb9  1  0.25714000  0.25388400  0.72489100  1
  Rb  Rb10  1  0.85426700  0.16760600  0.83074700  1
  Rb  Rb11  1  0.14573300  0.83239400  0.16925300  1
  Rb  Rb12  1  0.88095300  0.89756500  0.89860000  1
  Rb  Rb13  1  0.11904700  0.10243500  0.10140000  1
  Rb  Rb14  1  0.71574400  0.08046500  0.00018300  1
  Rb  Rb15  1  0.28425600  0.91953500  0.99981700  1
  Rb  Rb16  1  0.62399600  0.89947800  0.52430700  1
  Rb  Rb17  1  0.37600400  0.10052200  0.47569300  1
  Rb  Rb18  1  0.56057700  0.44048000  0.27988700  1
  Rb  Rb19  1  0.43942300  0.55952000  0.72011300  1
  Rb  Rb20  1  0.97571200  0.34324800  0.01347000  1
  Rb  Rb21  1  0.02428800  0.65675200  0.98653000  1
  Rb  Rb22  1  0.95570000  0.67393800  0.78571100  1
  Rb  Rb23  1  0.04430000  0.32606200  0.21428900  1
  Rb  Rb24  1  0.73488500  0.25930200  0.39648900  1
  Rb  Rb25  1  0.26511500  0.74069800  0.60351100  1
  Rb  Rb26  1  0.62316200  0.38821000  0.84373100  1
  Rb  Rb27  1  0.37683800  0.61179000  0.15626900  1
  Rb  Rb28  1  0.00000000  0.50000000  0.50000000  1
  Rb  Rb29  1  0.50000000  0.50000000  0.00000000  1
  W  W0  1  0.56479900  0.27454800  0.11940100  1
  W  W1  1  0.43520100  0.72545200  0.88059900  1
  W  W2  1  0.88904600  0.41644300  0.68406500  1
  W  W3  1  0.11095400  0.58355700  0.31593500  1
  W  W4  1  0.75611900  0.66112900  0.60421400  1
  W  W5  1  0.24388100  0.33887100  0.39578600  1
  W  W6  1  0.97919500  0.77505300  0.44583500  1
  W  W7  1  0.02080500  0.22494700  0.55416500  1
  W  W8  1  0.84837400  0.54496600  0.14335200  1
  W  W9  1  0.15162600  0.45503400  0.85664800  1
  W  W10  1  0.65250600  0.86348900  0.72870200  1
  W  W11  1  0.34749400  0.13651100  0.27129800  1
  W  W12  1  0.68369600  0.78600100  0.05803100  1
  W  W13  1  0.31630400  0.21399900  0.94196900  1
  N  N0  1  0.76477300  0.20928200  0.11623400  1
  N  N1  1  0.23522700  0.79071800  0.88376600  1
  N  N2  1  0.96784100  0.32884700  0.61958500  1
  N  N3  1  0.03215900  0.67115300  0.38041500  1
  N  N4  1  0.54534600  0.08625300  0.31355400  1
  N  N5  1  0.45465400  0.91374700  0.68644600  1
  N  N6  1  0.57776700  0.78332800  0.80910700  1
  N  N7  1  0.42223300  0.21667200  0.19089300  1
  N  N8  1  0.65152800  0.42320400  0.13593700  1
  N  N9  1  0.34847200  0.57679600  0.86406300  1
  N  N10  1  0.48195000  0.39461800  0.42335500  1
  N  N11  1  0.51805000  0.60538200  0.57664500  1
  N  N12  1  0.81417900  0.12499300  0.53253500  1
  N  N13  1  0.18582100  0.87500700  0.46746500  1
  N  N14  1  0.88675600  0.71060300  0.52847100  1
  N  N15  1  0.11324400  0.28939700  0.47152900  1
  N  N16  1  0.89260800  0.88597900  0.05636900  1
  N  N17  1  0.10739200  0.11402100  0.94363100  1
  N  N18  1  0.78937400  0.83415000  0.40546700  1
  N  N19  1  0.21062600  0.16585000  0.59453300  1
  N  N20  1  0.75173500  0.77144100  0.66577700  1
  N  N21  1  0.24826500  0.22855900  0.33422300  1
  N  N22  1  0.96106800  0.48165300  0.90218800  1
  N  N23  1  0.03893200  0.51834700  0.09781200  1
  N  N24  1  0.58245800  0.75053200  0.96492200  1
  N  N25  1  0.41754200  0.24946800  0.03507800  1
  N  N26  1  0.75390700  0.66105700  0.10384000  1
  N  N27  1  0.24609300  0.33894300  0.89616000  1
  N  N28  1  0.83806000  0.97366400  0.75310600  1
  N  N29  1  0.16194000  0.02633600  0.24689400  1
  N  N30  1  0.93599600  0.57193500  0.23597000  1
  N  N31  1  0.06400400  0.42806500  0.76403000  1
  N  N32  1  0.87725300  0.55227900  0.64784900  1
  N  N33  1  0.12274700  0.44772100  0.35215100  1
  N  N34  1  0.65999100  0.35842300  0.70707000  1
  N  N35  1  0.34000900  0.64157700  0.29293000  1
  N  N36  1  0.50881000  0.83507200  0.10554200  1
  N  N37  1  0.49119000  0.16492800  0.89445800  1
loop_
_geom_bond_atom_site_label_1
_geom_bond_atom_site_label_2
_geom_bond_distance
_geom_bond_site_symmetry_2
N0 W0 1.796889 1_555
N0 Rb14 2.821122 1_555
N0 Rb4 2.888963 1_555
N0 Rb23 2.933047 1_655
N0 Rb20 3.035811 1_555
N0 Rb13 3.139906 1_655
N1 W1 1.796889 1_555
N1 Rb15 2.821122 1_555
N1 Rb5 2.888963 1_555
N1 Rb22 2.933047 1_455
N1 Rb21 3.035811 1_555
N1 Rb12 3.139906 1_455
N2 W2 1.895901 1_555
N2 W7 1.976708 1_655
N2 Rb9 3.124501 1_655
N2 Rb28 3.262108 1_655
N2 Rb2 3.409405 1_555
N3 W3 1.895901 1_555
N3 W6 1.976708 1_455
N3 Rb8 3.124501 1_455
N3 Rb28 3.262108 1_555
N3 Rb3 3.409405 1_555
N4 W11 1.819582 1_555
N4 Rb24 2.877668 1_555
N4 Rb3 2.927165 1_545
N4 Rb4 2.982479 1_555
N4 Rb6 3.206435 1_555
N4 Rb17 3.571589 1_555
N5 W10 1.819582 1_555
N5 Rb25 2.877668 1_555
N5 Rb2 2.927165 1_565
N5 Rb5 2.982479 1_555
N5 Rb7 3.206435 1_555
N5 Rb16 3.571589 1_555
N6 W1 1.912563 1_555
N6 W10 1.980191 1_555
N6 Rb12 2.920842 1_555
N6 Rb22 3.343196 1_555
N6 Rb19 3.364459 1_555
N7 W0 1.912563 1_555
N7 W11 1.980191 1_555
N7 Rb13 2.920842 1_555
N7 Rb23 3.343196 1_555
N7 Rb18 3.364459 1_555
N8 W8 1.942289 1_555
N8 W0 1.943834 1_555
N8 Rb18 3.020350 1_555
N8 Rb29 3.082502 1_555
N8 Rb27 3.433701 1_555
N9 W9 1.942289 1_555
N9 W1 1.943834 1_555
N9 Rb19 3.020350 1_555
N9 Rb29 3.082502 1_556
N9 Rb26 3.433701 1_555
N10 W5 1.800575 1_555
N10 Rb24 2.812293 1_555
N10 Rb1 2.849602 1_555
N10 Rb0 2.925328 1_555
N10 Rb18 3.012345 1_555
N11 W4 1.800575 1_555
N11 Rb25 2.812293 1_555
N11 Rb0 2.849602 1_555
N11 Rb1 2.925328 1_555
N11 Rb19 3.012345 1_555
N12 W7 1.834667 1_655
N12 Rb2 2.911696 1_555
N12 Rb16 3.016663 1_545
N12 Rb17 3.251748 1_555
N12 Rb24 3.298018 1_555
N12 Rb7 3.412414 1_645
N12 Rb6 3.504781 1_555
N13 W6 1.834667 1_455
N13 Rb3 2.911696 1_555
N13 Rb17 3.016663 1_565
N13 Rb16 3.251748 1_555
N13 Rb25 3.298018 1_555
N13 Rb6 3.412414 1_465
N13 Rb7 3.504781 1_555
N14 W4 1.906268 1_555
N14 W6 1.969063 1_555
N14 Rb25 2.987430 1_655
N14 Rb28 3.037499 1_655
N14 Rb0 3.193522 1_555
N14 Rb16 3.332208 1_555
N15 W5 1.906268 1_555
N15 W7 1.969063 1_555
N15 Rb24 2.987430 1_455
N15 Rb28 3.037499 1_555
N15 Rb1 3.193522 1_555
N15 Rb17 3.332208 1_555
N16 W12 1.826224 1_555
N16 Rb11 2.954021 1_655
N16 Rb13 3.100476 1_665
N16 Rb15 3.100701 1_654
N16 Rb12 3.156651 1_554
N16 Rb14 3.176633 1_565
N17 W13 1.826224 1_555
N17 Rb10 2.954021 1_455
N17 Rb12 3.100476 1_445
N17 Rb14 3.100701 1_456
N17 Rb13 3.156651 1_556
N17 Rb15 3.176633 1_545
N18 W6 1.817203 1_555
N18 Rb6 2.793061 1_565
N18 Rb8 2.817823 1_555
N18 Rb16 2.927123 1_555
N18 Rb0 3.188779 1_555
N18 Rb3 3.286103 1_555
N19 W7 1.817203 1_555
N19 Rb7 2.793061 1_545
N19 Rb9 2.817823 1_555
N19 Rb17 2.927123 1_555
N19 Rb1 3.188779 1_555
N19 Rb2 3.286103 1_555
N20 W4 1.889412 1_555
N20 W10 1.983487 1_555
N20 Rb22 3.100298 1_555
N20 Rb7 3.190654 1_655
N20 Rb16 3.426415 1_555
N21 W5 1.889412 1_555
N21 W11 1.983487 1_555
N21 Rb23 3.100298 1_555
N21 Rb6 3.190654 1_455
N21 Rb17 3.426415 1_555
N22 W9 1.789632 1_655
N22 Rb26 2.720756 1_555
N22 Rb21 2.778176 1_655
N22 Rb20 2.868920 1_556
N22 Rb22 3.418255 1_555
N23 W8 1.789632 1_455
N23 Rb27 2.720756 1_555
N23 Rb20 2.778176 1_455
N23 Rb21 2.868920 1_554
N23 Rb23 3.418255 1_555
N24 W1 1.922231 1_555
N24 W12 1.973256 1_556
N24 Rb12 3.029331 1_555
N24 Rb29 3.289107 1_556
N25 W0 1.922231 1_555
N25 W13 1.973256 1_554
N25 Rb13 3.029331 1_555
N25 Rb29 3.289107 1_555
N26 W8 1.900262 1_555
N26 W12 1.980048 1_555
N26 Rb27 2.974206 1_555
N26 Rb21 3.177790 1_654
N26 Rb29 3.190520 1_555
N27 W9 1.900262 1_555
N27 W13 1.980048 1_555
N27 Rb26 2.974206 1_555
N27 Rb20 3.177790 1_456
N27 Rb29 3.190520 1_556
N28 W10 1.829774 1_555
N28 Rb10 2.930399 1_565
N28 Rb12 3.085691 1_555
N28 Rb7 3.204833 1_655
N28 Rb2 3.255328 1_565
N28 Rb5 3.342035 1_655
N29 W11 1.829774 1_555
N29 Rb11 2.930399 1_545
N29 Rb13 3.085691 1_555
N29 Rb6 3.204833 1_455
N29 Rb3 3.255328 1_545
N29 Rb4 3.342035 1_455
N30 W8 1.923961 1_555
N30 W3 1.952092 1_655
N30 Rb8 2.974140 1_555
N30 Rb18 3.151479 1_555
N30 Rb23 3.434823 1_655
N31 W9 1.923961 1_555
N31 W2 1.952092 1_455
N31 Rb9 2.974140 1_555
N31 Rb19 3.151479 1_555
N31 Rb22 3.434823 1_455
N32 W2 1.916407 1_555
N32 W4 1.951906 1_555
N32 Rb22 3.139448 1_555
N32 Rb28 3.255313 1_655
N33 W3 1.916407 1_555
N33 W5 1.951906 1_555
N33 Rb23 3.139448 1_555
N33 Rb28 3.255313 1_555
N34 W2 1.800621 1_555
N34 Rb26 2.800174 1_555
N34 Rb1 3.049703 1_555
N34 Rb9 3.057360 1_555
N34 Rb2 3.126954 1_555
N34 Rb19 3.288969 1_555
N35 W3 1.800621 1_555
N35 Rb27 2.800174 1_555
N35 Rb0 3.049703 1_555
N35 Rb8 3.057360 1_555
N35 Rb3 3.126954 1_555
N35 Rb18 3.288969 1_555
N36 W12 1.832522 1_555
N36 Rb15 2.894229 1_554
N36 Rb11 3.005412 1_555
N36 Rb4 3.045666 1_565
N36 Rb27 3.093254 1_555
N37 W13 1.832522 1_555
N37 Rb14 2.894229 1_556
N37 Rb10 3.005412 1_555
N37 Rb5 3.045666 1_545
N37 Rb26 3.093254 1_555
