# generated using pymatgen
data_TiCoSn
_symmetry_space_group_name_H-M   'P 1'
_cell_length_a   4.20804902
_cell_length_b   4.20804902
_cell_length_c   4.20804902
_cell_angle_alpha   60.00000000
_cell_angle_beta   60.00000000
_cell_angle_gamma   60.00000000
_symmetry_Int_Tables_number   1
_chemical_formula_structural   TiCoSn
_chemical_formula_sum   'Ti1 Co1 Sn1'
_cell_volume   52.68989998
_cell_formula_units_Z   1
loop_
 _symmetry_equiv_pos_site_id
 _symmetry_equiv_pos_as_xyz
  1  'x, y, z'
loop_
 _atom_site_type_symbol
 _atom_site_label
 _atom_site_symmetry_multiplicity
 _atom_site_fract_x
 _atom_site_fract_y
 _atom_site_fract_z
 _atom_site_occupancy
  Ti  Ti0  1  0.50000000  0.50000000  0.50000000  1
  Co  Co0  1  0.75000000  0.75000000  0.75000000  1
  Sn  Sn0  1  0.00000000  0.00000000  0.00000000  1
loop_
_geom_bond_atom_site_label_1
_geom_bond_atom_site_label_2
_geom_bond_distance
_geom_bond_site_symmetry_2
Co0 Ti0 2.576893 1_556
Co0 Ti0 2.576893 1_555
Co0 Sn0 2.576893 1_566
Co0 Ti0 2.576893 1_565
Co0 Ti0 2.576893 1_655
Co0 Sn0 2.576893 1_666
Co0 Sn0 2.576893 1_656
Co0 Sn0 2.576893 1_665
Sn0 Ti0 2.975540 1_455
Sn0 Ti0 2.975540 1_454
Sn0 Ti0 2.975540 1_544
Sn0 Ti0 2.975540 1_554
Sn0 Ti0 2.975540 1_545
Sn0 Ti0 2.975540 1_445
