# generated using pymatgen
data_Li9Mn2Co5O16
_symmetry_space_group_name_H-M   'P 1'
_cell_length_a   2.96069600
_cell_length_b   9.94505120
_cell_length_c   10.19839098
_cell_angle_alpha   107.00875257
_cell_angle_beta   90.54725249
_cell_angle_gamma   91.31926661
_symmetry_Int_Tables_number   1
_chemical_formula_structural   Li9Mn2Co5O16
_chemical_formula_sum   'Li9 Mn2 Co5 O16'
_cell_volume   287.03202951
_cell_formula_units_Z   1
loop_
 _symmetry_equiv_pos_site_id
 _symmetry_equiv_pos_as_xyz
  1  'x, y, z'
loop_
 _atom_site_type_symbol
 _atom_site_label
 _atom_site_symmetry_multiplicity
 _atom_site_fract_x
 _atom_site_fract_y
 _atom_site_fract_z
 _atom_site_occupancy
  Li  Li0  1  0.99629800  0.25232900  0.26124600  1
  Li  Li1  1  0.50752200  0.49688300  0.72836600  1
  Li  Li2  1  0.99821200  0.75275200  0.25872100  1
  Li  Li3  1  0.49247800  0.50311700  0.27163400  1
  Li  Li4  1  0.00370200  0.74767100  0.73875400  1
  Li  Li5  1  0.49369800  0.00291800  0.26143800  1
  Li  Li6  1  0.50630200  0.99708200  0.73856200  1
  Li  Li7  1  0.00178800  0.24724800  0.74127900  1
  Li  Li8  1  0.00000000  0.50000000  0.50000000  1
  Mn  Mn0  1  0.00000000  0.00000000  0.00000000  1
  Mn  Mn1  1  0.00000000  0.50000000  0.00000000  1
  Co  Co0  1  0.49948700  0.26310600  0.50275700  1
  Co  Co1  1  0.50051300  0.73689400  0.49724300  1
  Co  Co2  1  0.50039100  0.74964700  0.99860600  1
  Co  Co3  1  0.00000000  0.00000000  0.50000000  1
  Co  Co4  1  0.49960900  0.25035300  0.00139400  1
  O  O0  1  0.47680500  0.11984100  0.11074600  1
  O  O1  1  0.00059500  0.36988500  0.62117300  1
  O  O2  1  0.48353900  0.62026100  0.10802300  1
  O  O3  1  0.01235000  0.36251500  0.10553200  1
  O  O4  1  0.49693700  0.64082400  0.62024900  1
  O  O5  1  0.01269800  0.86115300  0.10472100  1
  O  O6  1  0.99387300  0.88376100  0.61653400  1
  O  O7  1  0.48980300  0.12677500  0.61325100  1
  O  O8  1  0.50306300  0.35917600  0.37975100  1
  O  O9  1  0.98765000  0.63748500  0.89446800  1
  O  O10  1  0.51019700  0.87322500  0.38674900  1
  O  O11  1  0.99940500  0.63011500  0.37882700  1
  O  O12  1  0.52319500  0.88015900  0.88925400  1
  O  O13  1  0.00612700  0.11623900  0.38346600  1
  O  O14  1  0.98730200  0.13884700  0.89527900  1
  O  O15  1  0.51646100  0.37973900  0.89197700  1
loop_
_geom_bond_atom_site_label_1
_geom_bond_atom_site_label_2
_geom_bond_distance
_geom_bond_site_symmetry_2
Li0 O8 1.995371 1_655
Li0 O8 2.018940 1_555
Li0 O13 2.091480 1_655
Li0 O3 2.177614 1_655
Li0 O0 2.249586 1_655
Li0 O0 2.266262 1_555
Li1 O1 2.028899 1_555
Li1 O4 2.047137 1_555
Li1 O1 2.056454 1_655
Li1 O15 2.297798 1_555
Li1 O9 2.306987 1_555
Li1 O9 2.440698 1_455
Li2 O11 1.965190 1_555
Li2 O10 2.097947 1_655
Li2 O10 2.104388 1_555
Li2 O5 2.149506 1_655
Li2 O2 2.257913 1_555
Li2 O2 2.259975 1_655
Li3 O11 2.028899 1_555
Li3 O8 2.047137 1_555
Li3 O11 2.056454 1_455
Li3 O2 2.297798 1_555
Li3 O3 2.306987 1_555
Li3 O3 2.440698 1_655
Li4 O4 1.995371 1_455
Li4 O4 2.018940 1_555
Li4 O6 2.091480 1_455
Li4 O9 2.177614 1_455
Li4 O12 2.249586 1_455
Li4 O12 2.266262 1_555
Li5 O13 2.045790 1_655
Li5 O13 2.047287 1_555
Li5 O10 2.065243 1_545
Li5 O0 2.182453 1_555
Li5 O5 2.261854 1_545
Li5 O5 2.394093 1_645
Li6 O6 2.045790 1_455
Li6 O6 2.047287 1_555
Li6 O7 2.065243 1_565
Li6 O12 2.182453 1_555
Li6 O14 2.261854 1_565
Li6 O14 2.394093 1_465
Li7 O1 1.965190 1_555
Li7 O7 2.097947 1_455
Li7 O7 2.104388 1_555
Li7 O14 2.149506 1_455
Li7 O15 2.257913 1_555
Li7 O15 2.259975 1_455
Li8 O1 2.033999 1_555
Li8 O11 2.033999 1_455
Li8 O4 2.120341 1_555
Li8 O8 2.120341 1_455
Li8 O8 2.193134 1_555
Li8 O4 2.193134 1_455
Mn0 O0 1.947678 1_555
Mn0 O12 1.947678 1_444
Mn0 O5 1.978159 1_545
Mn0 O14 1.978159 1_454
Mn0 O0 2.103913 1_455
Mn0 O12 2.103913 1_544
Mn1 O2 1.952891 1_555
Mn1 O15 1.952891 1_454
Mn1 O3 1.972721 1_555
Mn1 O9 1.972721 1_454
Mn1 O2 2.080319 1_455
Mn1 O15 2.080319 1_554
Co0 O8 1.785384 1_555
Co0 O1 1.982477 1_655
Co0 O7 2.000385 1_555
Co0 O1 2.030730 1_555
Co0 O13 2.138988 1_555
Co0 O13 2.227018 1_655
Co1 O4 1.785384 1_555
Co1 O11 1.982477 1_455
Co1 O10 2.000385 1_555
Co1 O11 2.030730 1_555
Co1 O6 2.138988 1_555
Co1 O6 2.227018 1_455
Co2 O2 1.934304 1_556
Co2 O12 1.943494 1_555
Co2 O9 1.965614 1_555
Co2 O9 1.968469 1_455
Co2 O5 1.971613 1_556
Co2 O5 1.972468 1_656
Co3 O13 1.884758 1_555
Co3 O6 1.884758 1_445
Co3 O7 2.014549 1_555
Co3 O10 2.014549 1_445
Co3 O7 2.115273 1_455
Co3 O10 2.115273 1_545
Co4 O15 1.934304 1_554
Co4 O0 1.943494 1_555
Co4 O3 1.965614 1_555
Co4 O3 1.968469 1_655
Co4 O14 1.971613 1_554
Co4 O14 1.972468 1_454
