# generated using pymatgen
data_ZnNi2O5
_symmetry_space_group_name_H-M   'P 1'
_cell_length_a   4.90546700
_cell_length_b   3.28473600
_cell_length_c   11.63157743
_cell_angle_alpha   73.73567331
_cell_angle_beta   90.00000000
_cell_angle_gamma   90.00000000
_symmetry_Int_Tables_number   1
_chemical_formula_structural   ZnNi2O5
_chemical_formula_sum   'Zn2 Ni4 O10'
_cell_volume   179.92087885
_cell_formula_units_Z   2
loop_
 _symmetry_equiv_pos_site_id
 _symmetry_equiv_pos_as_xyz
  1  'x, y, z'
loop_
 _atom_site_type_symbol
 _atom_site_label
 _atom_site_symmetry_multiplicity
 _atom_site_fract_x
 _atom_site_fract_y
 _atom_site_fract_z
 _atom_site_occupancy
  Zn  Zn0  1  0.91295600  0.50000000  0.75000000  1
  Zn  Zn1  1  0.08704400  0.50000000  0.25000000  1
  Ni  Ni0  1  0.44277000  0.85211000  0.89858500  1
  Ni  Ni1  1  0.55723000  0.14789000  0.10141500  1
  Ni  Ni2  1  0.55723000  0.85211000  0.39858500  1
  Ni  Ni3  1  0.44277000  0.14789000  0.60141500  1
  O  O0  1  0.39854900  0.00000000  0.25000000  1
  O  O1  1  0.60145100  0.00000000  0.75000000  1
  O  O2  1  0.62011400  0.31754900  0.93248000  1
  O  O3  1  0.37988600  0.68245100  0.06752000  1
  O  O4  1  0.62011400  0.68245100  0.56752000  1
  O  O5  1  0.37988600  0.31754900  0.43248000  1
  O  O6  1  0.08590500  0.10637000  0.64970400  1
  O  O7  1  0.91409500  0.89363000  0.35029600  1
  O  O8  1  0.91409500  0.10637000  0.14970400  1
  O  O9  1  0.08590500  0.89363000  0.85029600  1
loop_
_geom_bond_atom_site_label_1
_geom_bond_atom_site_label_2
_geom_bond_distance
_geom_bond_site_symmetry_2
Ni0 O9 1.831867 1_555
Ni0 O1 1.832640 1_565
Ni0 O2 1.894002 1_565
Ni0 O2 1.899381 1_555
Ni0 O3 1.911411 1_556
Ni1 O8 1.831867 1_555
Ni1 O0 1.832640 1_555
Ni1 O3 1.894002 1_545
Ni1 O3 1.899381 1_555
Ni1 O2 1.911411 1_554
Ni2 O7 1.831867 1_555
Ni2 O0 1.832640 1_565
Ni2 O5 1.894002 1_565
Ni2 O5 1.899381 1_555
Ni2 O4 1.911411 1_555
Ni3 O6 1.831867 1_555
Ni3 O1 1.832640 1_555
Ni3 O4 1.894002 1_545
Ni3 O4 1.899381 1_555
Ni3 O5 1.911411 1_555
O0 Zn1 2.243300 1_555
O0 Zn1 2.243300 1_545
O1 Zn0 2.243300 1_555
O1 Zn0 2.243300 1_545
O2 Zn0 2.493068 1_555
O3 Zn1 2.493068 1_555
O4 Zn0 2.493068 1_555
O5 Zn1 2.493068 1_555
O6 Zn0 2.144156 1_455
O6 Zn0 2.178607 1_445
O7 Zn1 2.144156 1_655
O7 Zn1 2.178607 1_665
O8 Zn1 2.144156 1_655
O8 Zn1 2.178607 1_645
O9 Zn0 2.144156 1_455
O9 Zn0 2.178607 1_465
