# generated using pymatgen
data_LiZnInF6
_symmetry_space_group_name_H-M   'P 1'
_cell_length_a   9.10013467
_cell_length_b   9.10013467
_cell_length_c   4.69448400
_cell_angle_alpha   90.00000000
_cell_angle_beta   90.00000000
_cell_angle_gamma   120.00000490
_symmetry_Int_Tables_number   1
_chemical_formula_structural   LiZnInF6
_chemical_formula_sum   'Li3 Zn3 In3 F18'
_cell_volume   336.67751464
_cell_formula_units_Z   3
loop_
 _symmetry_equiv_pos_site_id
 _symmetry_equiv_pos_as_xyz
  1  'x, y, z'
loop_
 _atom_site_type_symbol
 _atom_site_label
 _atom_site_symmetry_multiplicity
 _atom_site_fract_x
 _atom_site_fract_y
 _atom_site_fract_z
 _atom_site_occupancy
  Li  Li0  1  0.69423800  0.00000000  0.50000000  1
  Li  Li1  1  0.00000000  0.69423800  0.50000000  1
  Li  Li2  1  0.30576200  0.30576200  0.50000000  1
  Zn  Zn0  1  0.35476200  0.00000000  0.00000000  1
  Zn  Zn1  1  0.00000000  0.35476200  0.00000000  1
  Zn  Zn2  1  0.64523800  0.64523800  0.00000000  1
  In  In0  1  0.00000000  0.00000000  0.00000000  1
  In  In1  1  0.33333300  0.66666700  0.49457000  1
  In  In2  1  0.66666700  0.33333300  0.50543000  1
  F  F0  1  0.10707900  0.56571900  0.25398400  1
  F  F1  1  0.43428100  0.54136000  0.25398400  1
  F  F2  1  0.56571900  0.10707900  0.74601600  1
  F  F3  1  0.45864000  0.89292100  0.25398400  1
  F  F4  1  0.54136000  0.43428100  0.74601600  1
  F  F5  1  0.89292100  0.45864000  0.74601600  1
  F  F6  1  0.10486900  0.22882900  0.23309700  1
  F  F7  1  0.77117100  0.87604100  0.23309700  1
  F  F8  1  0.22882900  0.10486900  0.76690300  1
  F  F9  1  0.12395900  0.89513100  0.23309700  1
  F  F10  1  0.87604100  0.77117100  0.76690300  1
  F  F11  1  0.89513100  0.12395900  0.76690300  1
  F  F12  1  0.44087500  0.21303500  0.26444400  1
  F  F13  1  0.78696500  0.22784000  0.26444400  1
  F  F14  1  0.21303500  0.44087500  0.73555600  1
  F  F15  1  0.77216000  0.55912500  0.26444400  1
  F  F16  1  0.22784000  0.78696500  0.73555600  1
  F  F17  1  0.55912500  0.77216000  0.73555600  1
loop_
_geom_bond_atom_site_label_1
_geom_bond_atom_site_label_2
_geom_bond_distance
_geom_bond_site_symmetry_2
F0 Zn1 2.045945 1_555
F0 In1 2.113604 1_555
F0 Li1 2.188794 1_555
F1 Zn2 2.045945 1_555
F1 In1 2.113611 1_555
F1 Li2 2.188794 1_555
F2 Zn0 2.045945 1_556
F2 In2 2.113604 1_555
F2 Li0 2.188794 1_555
F3 Zn0 2.045945 1_565
F3 In1 2.113604 1_555
F3 Li0 2.188794 1_565
F4 Zn2 2.045945 1_556
F4 In2 2.113611 1_555
F4 Li2 2.188794 1_555
F5 Zn1 2.045945 1_656
F5 In2 2.113604 1_555
F5 Li1 2.188794 1_655
F6 Li2 2.030353 1_555
F6 In0 2.111205 1_555
F6 Zn1 2.124888 1_555
F7 Li0 2.030346 1_565
F7 In0 2.111204 1_665
F7 Zn2 2.124895 1_555
F8 Li2 2.030353 1_555
F8 In0 2.111205 1_556
F8 Zn0 2.124888 1_556
F9 Li1 2.030352 1_555
F9 In0 2.111198 1_565
F9 Zn0 2.124895 1_565
F10 Li1 2.030346 1_655
F10 In0 2.111204 1_666
F10 Zn2 2.124895 1_556
F11 Li0 2.030352 1_555
F11 In0 2.111198 1_656
F11 Zn1 2.124895 1_656
F12 Zn0 2.096279 1_555
F12 In2 2.109703 1_555
F12 Li2 2.117589 1_555
F13 Zn1 2.096279 1_655
F13 In2 2.109697 1_555
F13 Li0 2.117588 1_555
F14 Zn1 2.096279 1_556
F14 In1 2.109703 1_555
F14 Li2 2.117589 1_555
F15 Zn2 2.096279 1_555
F15 In2 2.109704 1_555
F15 Li1 2.117588 1_655
F16 Zn0 2.096279 1_566
F16 In1 2.109697 1_555
F16 Li1 2.117588 1_555
F17 Zn2 2.096279 1_556
F17 In1 2.109704 1_555
F17 Li0 2.117588 1_565
