# generated using pymatgen
data_B
_symmetry_space_group_name_H-M   'P 1'
_cell_length_a   5.04245687
_cell_length_b   5.04245727
_cell_length_c   5.04245777
_cell_angle_alpha   58.11864518
_cell_angle_beta   58.11864725
_cell_angle_gamma   58.11862732
_symmetry_Int_Tables_number   1
_chemical_formula_structural   B
_chemical_formula_sum   B12
_cell_volume   86.74916330
_cell_formula_units_Z   12
loop_
 _symmetry_equiv_pos_site_id
 _symmetry_equiv_pos_as_xyz
  1  'x, y, z'
loop_
 _atom_site_type_symbol
 _atom_site_label
 _atom_site_symmetry_multiplicity
 _atom_site_fract_x
 _atom_site_fract_y
 _atom_site_fract_z
 _atom_site_occupancy
  B  B0  1  0.00997004  0.65428512  0.00997004  1
  B  B1  1  0.00997004  0.00997004  0.65428512  1
  B  B2  1  0.65428512  0.00997004  0.00997004  1
  B  B3  1  0.34571488  0.99002996  0.99002996  1
  B  B4  1  0.99002996  0.34571488  0.99002996  1
  B  B5  1  0.99002996  0.99002996  0.34571488  1
  B  B6  1  0.22056557  0.63163483  0.22056557  1
  B  B7  1  0.22056557  0.22056557  0.63163483  1
  B  B8  1  0.63163483  0.22056557  0.22056557  1
  B  B9  1  0.36836517  0.77943443  0.77943443  1
  B  B10  1  0.77943443  0.36836517  0.77943443  1
  B  B11  1  0.77943443  0.77943443  0.36836517  1
loop_
_geom_bond_atom_site_label_1
_geom_bond_atom_site_label_2
_geom_bond_distance
_geom_bond_site_symmetry_2
B0 B4 1.668053 1_454
B0 B2 1.742284 1_465
B0 B1 1.742285 1_564
B0 B6 1.789788 1_555
B0 B9 1.796151 1_554
B0 B11 1.796151 1_455
B1 B5 1.668053 1_445
B1 B2 1.742285 1_456
B1 B7 1.789789 1_555
B1 B9 1.796151 1_545
B1 B10 1.796151 1_455
B2 B3 1.668053 1_544
B2 B8 1.789789 1_555
B3 B4 1.742284 1_465
B3 B5 1.742285 1_456
B3 B9 1.789789 1_555
B3 B7 1.796151 1_565
B3 B6 1.796151 1_556
B4 B5 1.742285 1_546
B4 B8 1.796151 1_556
B4 B7 1.796151 1_655
B5 B8 1.796151 1_565
B5 B6 1.796151 1_655
B6 B9 1.772900 1_554
B6 B8 2.013578 1_555
B6 B7 2.013579 1_555
B7 B9 1.772900 1_545
B7 B8 2.013579 1_555
B10 B7 1.772900 1_655
B10 B8 1.772900 1_556
B10 B4 1.789788 1_555
B10 B2 1.796151 1_556
B10 B9 2.013578 1_555
B10 B11 2.013579 1_555
B11 B6 1.772900 1_655
B11 B8 1.772900 1_565
B11 B5 1.789789 1_555
B11 B2 1.796151 1_565
B11 B9 2.013579 1_555
