# generated using pymatgen
data_CsPHO3F
_symmetry_space_group_name_H-M   'P 1'
_cell_length_a   5.52092307
_cell_length_b   6.01496820
_cell_length_c   8.15725991
_cell_angle_alpha   66.34130691
_cell_angle_beta   99.04090869
_cell_angle_gamma   91.29513625
_symmetry_Int_Tables_number   1
_chemical_formula_structural   CsPHO3F
_chemical_formula_sum   'Cs2 P2 H2 O6 F2'
_cell_volume   244.79246194
_cell_formula_units_Z   2
loop_
 _symmetry_equiv_pos_site_id
 _symmetry_equiv_pos_as_xyz
  1  'x, y, z'
loop_
 _atom_site_type_symbol
 _atom_site_label
 _atom_site_symmetry_multiplicity
 _atom_site_fract_x
 _atom_site_fract_y
 _atom_site_fract_z
 _atom_site_occupancy
  Cs  Cs0  1  0.59384900  0.13702400  0.72739200  1
  Cs  Cs1  1  0.40615100  0.86297600  0.27260800  1
  P  P0  1  0.84121100  0.39318500  0.23566500  1
  P  P1  1  0.15878900  0.60681500  0.76433500  1
  H  H0  1  0.97264800  0.28135800  0.03197400  1
  H  H1  1  0.02735200  0.71864200  0.96802600  1
  O  O0  1  0.86968500  0.21622500  0.13878900  1
  O  O1  1  0.88496400  0.65511100  0.11619200  1
  O  O2  1  0.13031500  0.78377500  0.86121100  1
  O  O3  1  0.11503600  0.34488900  0.88380800  1
  O  O4  1  0.61807400  0.34074600  0.32525500  1
  O  O5  1  0.38192600  0.65925400  0.67474500  1
  F  F0  1  0.07576200  0.30823600  0.39643200  1
  F  F1  1  0.92423800  0.69176400  0.60356800  1
loop_
_geom_bond_atom_site_label_1
_geom_bond_atom_site_label_2
_geom_bond_distance
_geom_bond_site_symmetry_2
Cs0 O4 3.030585 1_555
Cs0 O5 3.216523 1_555
Cs0 O5 3.239215 1_545
Cs0 O2 3.320558 1_545
Cs0 F0 3.464881 1_555
Cs1 O5 3.030585 1_555
Cs1 O4 3.216523 1_555
Cs1 O4 3.239215 1_565
Cs1 O0 3.320558 1_565
Cs1 F1 3.464881 1_555
H0 O0 1.052353 1_555
H0 O3 1.462576 1_654
H1 O2 1.052353 1_555
H1 O1 1.462576 1_456
O0 P0 1.582355 1_555
O1 P0 1.521435 1_555
O2 P1 1.582355 1_555
O3 P1 1.521435 1_555
O4 P0 1.493848 1_555
O5 P1 1.493848 1_555
F0 P0 1.617458 1_455
F1 P1 1.617458 1_655
