# generated using pymatgen
data_K6Sn2S7
_symmetry_space_group_name_H-M   'P 1'
_cell_length_a   9.81852500
_cell_length_b   13.30360600
_cell_length_c   14.63882600
_cell_angle_alpha   90.00000000
_cell_angle_beta   90.00000000
_cell_angle_gamma   90.00000000
_symmetry_Int_Tables_number   1
_chemical_formula_structural   K6Sn2S7
_chemical_formula_sum   'K24 Sn8 S28'
_cell_volume   1912.14962782
_cell_formula_units_Z   4
loop_
 _symmetry_equiv_pos_site_id
 _symmetry_equiv_pos_as_xyz
  1  'x, y, z'
loop_
 _atom_site_type_symbol
 _atom_site_label
 _atom_site_symmetry_multiplicity
 _atom_site_fract_x
 _atom_site_fract_y
 _atom_site_fract_z
 _atom_site_occupancy
  K  K0  1  0.97291100  0.83943900  0.18692000  1
  K  K1  1  0.52708900  0.16056100  0.68692000  1
  K  K2  1  0.02708900  0.33943900  0.31308000  1
  K  K3  1  0.47291100  0.66056100  0.81308000  1
  K  K4  1  0.72039300  0.85867200  0.93645400  1
  K  K5  1  0.77960700  0.14132800  0.43645400  1
  K  K6  1  0.27960700  0.35867200  0.56354600  1
  K  K7  1  0.22039300  0.64132800  0.06354600  1
  K  K8  1  0.75418900  0.89112400  0.63310300  1
  K  K9  1  0.74581100  0.10887600  0.13310300  1
  K  K10  1  0.24581100  0.39112400  0.86689700  1
  K  K11  1  0.25418900  0.60887600  0.36689700  1
  K  K12  1  0.56129700  0.81780400  0.38409400  1
  K  K13  1  0.93870300  0.18219600  0.88409400  1
  K  K14  1  0.43870300  0.31780400  0.11590600  1
  K  K15  1  0.06129700  0.68219600  0.61590600  1
  K  K16  1  0.64489800  0.65415300  0.13741200  1
  K  K17  1  0.85510200  0.34584700  0.63741200  1
  K  K18  1  0.35510200  0.15415300  0.36258800  1
  K  K19  1  0.14489800  0.84584700  0.86258800  1
  K  K20  1  0.63880000  0.57023700  0.58541800  1
  K  K21  1  0.86120000  0.42976300  0.08541800  1
  K  K22  1  0.36120000  0.07023700  0.91458200  1
  K  K23  1  0.13880000  0.92976300  0.41458200  1
  Sn  Sn0  1  0.92407500  0.60767900  0.85715300  1
  Sn  Sn1  1  0.57592500  0.39232100  0.35715300  1
  Sn  Sn2  1  0.07592500  0.10767900  0.64284700  1
  Sn  Sn3  1  0.42407500  0.89232100  0.14284700  1
  Sn  Sn4  1  0.87743200  0.60873800  0.38193200  1
  Sn  Sn5  1  0.62256800  0.39126200  0.88193200  1
  Sn  Sn6  1  0.12256800  0.10873800  0.11806800  1
  Sn  Sn7  1  0.37743200  0.89126200  0.61806800  1
  S  S0  1  0.62607700  0.57653900  0.36115000  1
  S  S1  1  0.87392300  0.42346100  0.86115000  1
  S  S2  1  0.37392300  0.07653900  0.13885000  1
  S  S3  1  0.12607700  0.92346100  0.63885000  1
  S  S4  1  0.97207700  0.59158100  0.23304500  1
  S  S5  1  0.52792300  0.40841900  0.73304500  1
  S  S6  1  0.02792300  0.09158100  0.26695500  1
  S  S7  1  0.47207700  0.90841900  0.76695500  1
  S  S8  1  0.51648300  0.50596900  0.98782200  1
  S  S9  1  0.98351700  0.49403100  0.48782200  1
  S  S10  1  0.48351700  0.00596900  0.51217800  1
  S  S11  1  0.01648300  0.99403100  0.01217800  1
  S  S12  1  0.65806700  0.89146200  0.18635800  1
  S  S13  1  0.84193300  0.10853800  0.68635800  1
  S  S14  1  0.34193300  0.39146200  0.31364200  1
  S  S15  1  0.15806700  0.60853800  0.81364200  1
  S  S16  1  0.78402700  0.69672900  0.75068900  1
  S  S17  1  0.71597300  0.30327100  0.25068900  1
  S  S18  1  0.21597300  0.19672900  0.74931100  1
  S  S19  1  0.28402700  0.80327100  0.24931100  1
  S  S20  1  0.90673500  0.67592600  0.00774100  1
  S  S21  1  0.59326500  0.32407400  0.50774100  1
  S  S22  1  0.09326500  0.17592600  0.49225900  1
  S  S23  1  0.40673500  0.82407400  0.99225900  1
  S  S24  1  0.88129300  0.77612400  0.44334600  1
  S  S25  1  0.61870700  0.22387600  0.94334600  1
  S  S26  1  0.11870700  0.27612400  0.05665400  1
  S  S27  1  0.38129300  0.72387600  0.55665400  1
loop_
_geom_bond_atom_site_label_1
_geom_bond_atom_site_label_2
_geom_bond_distance
_geom_bond_site_symmetry_2
K0 S12 3.167841 1_555
K0 S19 3.224420 1_655
K0 S11 3.310017 1_655
K0 S4 3.365838 1_555
K0 S20 3.469025 1_555
K0 S6 3.593942 1_665
K1 S13 3.167841 1_555
K1 S18 3.224420 1_555
K1 S10 3.310017 1_555
K1 S5 3.365838 1_555
K1 S21 3.469025 1_555
K1 S7 3.593942 1_545
K2 S14 3.167841 1_555
K2 S17 3.224420 1_455
K2 S9 3.310017 1_455
K2 S6 3.365838 1_555
K2 S22 3.469025 1_555
K2 S4 3.593942 1_455
K3 S15 3.167841 1_555
K3 S16 3.224420 1_555
K3 S8 3.310017 1_555
K3 S7 3.365838 1_555
K3 S23 3.469025 1_555
K3 S5 3.593942 1_555
K4 S20 3.216691 1_556
K4 S23 3.219241 1_555
K4 S16 3.525188 1_555
K4 S7 3.541045 1_555
K4 S11 3.594880 1_656
K4 S12 3.734694 1_556
K5 S21 3.216691 1_555
K5 S22 3.219241 1_655
K5 S17 3.525188 1_555
K5 S6 3.541045 1_655
K5 S10 3.594880 1_555
K5 S13 3.734694 1_555
K6 S22 3.216691 1_555
K6 S21 3.219241 1_555
K6 S18 3.525188 1_555
K6 S5 3.541045 1_555
K6 S9 3.594880 1_455
K6 S14 3.734694 1_555
K7 S23 3.216691 1_554
K7 S20 3.219241 1_455
K7 S19 3.525188 1_555
K7 S4 3.541045 1_455
K7 S8 3.594880 1_554
K7 S15 3.734694 1_554
K8 S13 3.117033 1_565
K8 S16 3.120412 1_555
K8 S7 3.400707 1_555
K8 S24 3.407985 1_555
K8 S10 3.539884 1_565
K8 S3 3.677609 1_655
K9 S12 3.117033 1_545
K9 S17 3.120412 1_555
K9 S6 3.400707 1_655
K9 S25 3.407985 1_554
K9 S11 3.539884 1_645
K9 S2 3.677609 1_555
K10 S15 3.117033 1_555
K10 S18 3.120412 1_555
K10 S5 3.400707 1_555
K10 S26 3.407985 1_556
K10 S8 3.539884 1_555
K10 S1 3.677609 1_455
K11 S14 3.117033 1_555
K11 S19 3.120412 1_555
K11 S4 3.400707 1_455
K11 S27 3.407985 1_555
K11 S9 3.539884 1_455
K11 S0 3.677609 1_555
K12 S12 3.200288 1_555
K12 S10 3.219505 1_565
K12 S0 3.289301 1_555
K12 S24 3.306248 1_555
K12 S27 3.326578 1_555
K12 S19 3.367749 1_555
K13 S13 3.200288 1_555
K13 S11 3.219505 1_646
K13 S1 3.289301 1_555
K13 S25 3.306248 1_555
K13 S26 3.326578 1_656
K13 S18 3.367749 1_655
K14 S14 3.200288 1_555
K14 S8 3.219505 1_554
K14 S2 3.289301 1_555
K14 S26 3.306248 1_555
K14 S25 3.326578 1_554
K14 S17 3.367749 1_555
K15 S15 3.200288 1_555
K15 S9 3.219505 1_455
K15 S3 3.289301 1_555
K15 S27 3.306248 1_555
K15 S24 3.326578 1_455
K15 S16 3.367749 1_455
K16 S8 3.204902 1_554
K16 S20 3.208811 1_555
K16 S12 3.239934 1_555
K16 S0 3.439134 1_555
K16 S4 3.601726 1_555
K17 S9 3.204902 1_555
K17 S21 3.208811 1_555
K17 S13 3.239934 1_555
K17 S1 3.439134 1_555
K17 S5 3.601726 1_555
K18 S10 3.204902 1_555
K18 S22 3.208811 1_555
K18 S14 3.239934 1_555
K18 S2 3.439134 1_555
K18 S6 3.601726 1_555
K19 S11 3.204902 1_556
K19 S23 3.208811 1_555
K19 S15 3.239934 1_555
K19 S3 3.439134 1_555
K19 S7 3.601726 1_555
K20 S5 3.238802 1_555
K20 S16 3.273899 1_555
K20 S27 3.278344 1_555
K20 S0 3.286466 1_555
K20 S21 3.495363 1_555
K21 S4 3.238802 1_555
K21 S17 3.273899 1_555
K21 S26 3.278344 1_655
K21 S1 3.286466 1_554
K21 S20 3.495363 1_555
K22 S7 3.238802 1_545
K22 S18 3.273899 1_555
K22 S25 3.278344 1_555
K22 S2 3.286466 1_556
K22 S23 3.495363 1_545
K23 S6 3.238802 1_565
K23 S19 3.273899 1_555
K23 S24 3.278344 1_455
K23 S3 3.286466 1_555
K23 S22 3.495363 1_565
S0 Sn1 2.500428 1_555
S0 Sn4 2.523242 1_555
S1 Sn0 2.500428 1_555
S1 Sn5 2.523242 1_555
S2 Sn3 2.500428 1_545
S2 Sn6 2.523242 1_555
S3 Sn2 2.500428 1_565
S3 Sn7 2.523242 1_555
S4 Sn4 2.380337 1_555
S5 Sn5 2.380337 1_555
S6 Sn6 2.380337 1_555
S7 Sn7 2.380337 1_555
S8 Sn5 2.411738 1_555
S9 Sn4 2.411738 1_555
S10 Sn7 2.411738 1_545
S11 Sn6 2.411738 1_565
S12 Sn3 2.384144 1_555
S13 Sn2 2.384144 1_655
S14 Sn1 2.384144 1_555
S15 Sn0 2.384144 1_455
S16 Sn0 2.392328 1_555
S17 Sn1 2.392328 1_555
S18 Sn2 2.392328 1_555
S19 Sn3 2.392328 1_555
S20 Sn0 2.390156 1_554
S21 Sn1 2.390156 1_555
S22 Sn2 2.390156 1_555
S23 Sn3 2.390156 1_556
S24 Sn4 2.401769 1_555
S25 Sn5 2.401769 1_555
S26 Sn6 2.401769 1_555
S27 Sn7 2.401769 1_555
