# generated using pymatgen
data_Te2MoW3(Se2S)2
_symmetry_space_group_name_H-M   'P 1'
_cell_length_a   3.34267931
_cell_length_b   3.34267931
_cell_length_c   38.07248300
_cell_angle_alpha   90.00000000
_cell_angle_beta   90.00000000
_cell_angle_gamma   119.99998634
_symmetry_Int_Tables_number   1
_chemical_formula_structural   Te2MoW3(Se2S)2
_chemical_formula_sum   'Te2 Mo1 W3 Se4 S2'
_cell_volume   368.40992310
_cell_formula_units_Z   1
loop_
 _symmetry_equiv_pos_site_id
 _symmetry_equiv_pos_as_xyz
  1  'x, y, z'
loop_
 _atom_site_type_symbol
 _atom_site_label
 _atom_site_symmetry_multiplicity
 _atom_site_fract_x
 _atom_site_fract_y
 _atom_site_fract_z
 _atom_site_occupancy
  Te  Te0  1  0.00000000  0.00000000  0.70761700  1
  Te  Te1  1  0.00000000  0.00000000  0.60749100  1
  Mo  Mo0  1  0.00000000  0.00000000  0.46963100  1
  W  W0  1  0.00000000  0.00000000  0.09392100  1
  W  W1  1  0.33333300  0.66666700  0.28179000  1
  W  W2  1  0.33333300  0.66666700  0.65757600  1
  Se  Se0  1  0.00000000  0.00000000  0.32572900  1
  Se  Se1  1  0.33333300  0.66666700  0.42591300  1
  Se  Se2  1  0.33333300  0.66666700  0.51337800  1
  Se  Se3  1  0.00000000  0.00000000  0.23784600  1
  S  S0  1  0.33333300  0.66666700  0.05394000  1
  S  S1  1  0.33333300  0.66666700  0.13391300  1
loop_
_geom_bond_atom_site_label_1
_geom_bond_atom_site_label_2
_geom_bond_distance
_geom_bond_site_symmetry_2
Te0 W2 2.711867 1_545
Te0 W2 2.711870 1_445
Te0 W2 2.711870 1_555
Te1 W2 2.713044 1_545
Te1 W2 2.713047 1_445
Te1 W2 2.713047 1_555
Mo0 Se1 2.548509 1_545
Mo0 Se1 2.548511 1_445
Mo0 Se1 2.548511 1_555
Mo0 Se2 2.549230 1_545
Mo0 Se2 2.549232 1_445
Mo0 Se2 2.549232 1_555
Se0 W1 2.554012 1_545
Se0 W1 2.554014 1_445
Se0 W1 2.554014 1_555
Se3 W1 2.554137 1_545
Se3 W1 2.554139 1_445
Se3 W1 2.554139 1_555
S0 W0 2.457949 1_565
S0 W0 2.457952 1_665
S0 W0 2.457952 1_555
S1 W0 2.458208 1_565
S1 W0 2.458211 1_555
S1 W0 2.458211 1_665
