# generated using pymatgen
data_Li3Y4Ti4(S2O5)2
_symmetry_space_group_name_H-M   'P 1'
_cell_length_a   11.31335941
_cell_length_b   11.31335941
_cell_length_c   5.62265100
_cell_angle_alpha   89.97057841
_cell_angle_beta   89.97057841
_cell_angle_gamma   151.21811266
_symmetry_Int_Tables_number   1
_chemical_formula_structural   Li3Y4Ti4(S2O5)2
_chemical_formula_sum   'Li3 Y4 Ti4 S4 O10'
_cell_volume   346.49628210
_cell_formula_units_Z   1
loop_
 _symmetry_equiv_pos_site_id
 _symmetry_equiv_pos_as_xyz
  1  'x, y, z'
loop_
 _atom_site_type_symbol
 _atom_site_label
 _atom_site_symmetry_multiplicity
 _atom_site_fract_x
 _atom_site_fract_y
 _atom_site_fract_z
 _atom_site_occupancy
  Li  Li0  1  0.50000000  0.50000000  0.50000000  1
  Li  Li1  1  0.00000000  0.00000000  0.50000000  1
  Li  Li2  1  0.50000000  0.50000000  0.00000000  1
  Y  Y0  1  0.91213700  0.58563000  0.74880200  1
  Y  Y1  1  0.41437000  0.08786300  0.25119800  1
  Y  Y2  1  0.08786300  0.41437000  0.25119800  1
  Y  Y3  1  0.58563000  0.91213700  0.74880200  1
  Ti  Ti0  1  0.15731800  0.33547700  0.75371900  1
  Ti  Ti1  1  0.66452300  0.84268200  0.24628100  1
  Ti  Ti2  1  0.84268100  0.66452300  0.24628100  1
  Ti  Ti3  1  0.33547700  0.15731900  0.75371900  1
  S  S0  1  0.04664600  0.45706100  0.74860200  1
  S  S1  1  0.54293900  0.95335400  0.25139800  1
  S  S2  1  0.95335400  0.54293900  0.25139800  1
  S  S3  1  0.45706100  0.04664600  0.74860200  1
  O  O0  1  0.90521100  0.09478900  0.50000000  1
  O  O1  1  0.40526100  0.59473900  0.00000000  1
  O  O2  1  0.40437000  0.59563000  0.50000000  1
  O  O3  1  0.89964600  0.10035400  0.00000000  1
  O  O4  1  0.09478900  0.90521100  0.50000000  1
  O  O5  1  0.59473900  0.40526100  0.00000000  1
  O  O6  1  0.59563000  0.40437000  0.50000000  1
  O  O7  1  0.10035400  0.89964600  0.00000000  1
  O  O8  1  0.74133100  0.74133100  0.25862400  1
  O  O9  1  0.25866900  0.25866900  0.74137600  1
loop_
_geom_bond_atom_site_label_1
_geom_bond_atom_site_label_2
_geom_bond_distance
_geom_bond_site_symmetry_2
Li0 O8 1.917327 1_555
Li0 O9 1.917327 1_555
Li0 O6 2.095899 1_555
Li0 O2 2.095899 1_555
Li1 O9 1.991498 1_555
Li1 O8 1.991498 1_445
Li1 O0 2.077467 1_455
Li1 O4 2.077467 1_545
Li2 O8 1.991118 1_555
Li2 O9 1.991118 1_554
Li2 O5 2.076371 1_555
Li2 O1 2.076371 1_555
S0 Ti0 2.545495 1_555
S0 Y0 2.882956 1_455
S0 Y3 2.942445 1_555
S0 Y2 2.944016 1_555
S0 Y2 2.971746 1_556
S0 Y3 2.974190 1_445
S1 Ti1 2.545495 1_555
S1 Y1 2.882956 1_565
S1 Y2 2.942445 1_555
S1 Y3 2.944016 1_555
S1 Y3 2.971746 1_554
S1 Y2 2.974190 1_665
S2 Ti2 2.545506 1_555
S2 Y2 2.882956 1_655
S2 Y1 2.942445 1_555
S2 Y0 2.944016 1_555
S2 Y0 2.971746 1_554
S2 Y1 2.974190 1_665
S3 Ti3 2.545506 1_555
S3 Y3 2.882956 1_545
S3 Y0 2.942445 1_555
S3 Y1 2.944016 1_555
S3 Y1 2.971746 1_556
S3 Y0 2.974190 1_445
O0 Ti1 1.994723 1_545
O0 Ti0 1.994723 1_655
O0 Y3 2.488899 1_545
O0 Y2 2.488899 1_655
O1 Ti1 1.993739 1_555
O1 Ti0 1.993739 1_554
O1 Y3 2.490074 1_554
O1 Y2 2.490074 1_555
O2 Ti0 2.020204 1_555
O2 Ti1 2.020204 1_555
O2 Y2 2.473983 1_555
O2 Y3 2.473983 1_555
O3 Ti1 1.972473 1_545
O3 Ti0 1.972473 1_654
O3 Y2 2.428528 1_655
O3 Y3 2.428528 1_544
O4 Ti3 1.994726 1_565
O4 Ti2 1.994726 1_455
O4 Y0 2.488899 1_455
O4 Y1 2.488899 1_565
O5 Ti3 1.993737 1_554
O5 Ti2 1.993737 1_555
O5 Y1 2.490074 1_555
O5 Y0 2.490074 1_554
O6 Ti2 2.020203 1_555
O6 Ti3 2.020203 1_555
O6 Y1 2.473983 1_555
O6 Y0 2.473983 1_555
O7 Ti2 1.972476 1_455
O7 Ti3 1.972476 1_564
O7 Y0 2.428528 1_454
O7 Y1 2.428528 1_565
O8 Ti2 1.954768 1_555
O8 Ti1 1.954780 1_555
O9 Ti3 1.954768 1_555
O9 Ti0 1.954780 1_555
