# generated using pymatgen
data_CaIn4(Ge2O7)2
_symmetry_space_group_name_H-M   'P 1'
_cell_length_a   7.45988385
_cell_length_b   7.45988385
_cell_length_c   7.45988385
_cell_angle_alpha   57.12456827
_cell_angle_beta   57.12456827
_cell_angle_gamma   57.12456827
_symmetry_Int_Tables_number   1
_chemical_formula_structural   CaIn4(Ge2O7)2
_chemical_formula_sum   'Ca1 In4 Ge4 O14'
_cell_volume   274.09888391
_cell_formula_units_Z   1
loop_
 _symmetry_equiv_pos_site_id
 _symmetry_equiv_pos_as_xyz
  1  'x, y, z'
loop_
 _atom_site_type_symbol
 _atom_site_label
 _atom_site_symmetry_multiplicity
 _atom_site_fract_x
 _atom_site_fract_y
 _atom_site_fract_z
 _atom_site_occupancy
  Ca  Ca0  1  0.73759100  0.73759100  0.73759100  1
  In  In0  1  0.46078300  0.46078300  0.00645200  1
  In  In1  1  0.46078300  0.00645200  0.46078300  1
  In  In2  1  0.00645200  0.46078300  0.46078300  1
  In  In3  1  0.49180500  0.49180500  0.49180500  1
  Ge  Ge0  1  0.00682900  0.00682900  0.50023800  1
  Ge  Ge1  1  0.00682900  0.50023800  0.00682900  1
  Ge  Ge2  1  0.50023800  0.00682900  0.00682900  1
  Ge  Ge3  1  0.01226200  0.01226200  0.01226200  1
  O  O0  1  0.37411100  0.37411100  0.37411100  1
  O  O1  1  0.61534800  0.61534800  0.61534800  1
  O  O2  1  0.34042000  0.92711900  0.92711900  1
  O  O3  1  0.92715500  0.32285800  0.32285800  1
  O  O4  1  0.92711900  0.34042000  0.92711900  1
  O  O5  1  0.32285800  0.92715500  0.32285800  1
  O  O6  1  0.92711900  0.92711900  0.34042000  1
  O  O7  1  0.32285800  0.32285800  0.92715500  1
  O  O8  1  0.67069600  0.08249400  0.08249400  1
  O  O9  1  0.08938800  0.68755400  0.68755400  1
  O  O10  1  0.08249400  0.67069600  0.08249400  1
  O  O11  1  0.68755400  0.08938800  0.68755400  1
  O  O12  1  0.08249400  0.08249400  0.67069600  1
  O  O13  1  0.68755400  0.68755400  0.08938800  1
loop_
_geom_bond_atom_site_label_1
_geom_bond_atom_site_label_2
_geom_bond_distance
_geom_bond_site_symmetry_2
Ca0 O11 2.278213 1_565
Ca0 O13 2.278213 1_556
Ca0 O9 2.278213 1_655
Ca0 O1 2.281052 1_555
Ca0 O4 2.418910 1_555
Ca0 O2 2.418910 1_555
Ca0 O6 2.418910 1_555
In0 O7 2.222169 1_554
In0 O0 2.227544 1_555
In0 O10 2.273014 1_555
In0 O8 2.273014 1_555
In0 O1 2.304421 1_554
In1 O5 2.222169 1_545
In1 O0 2.227544 1_555
In1 O12 2.273014 1_555
In1 O8 2.273014 1_555
In1 O1 2.304421 1_545
In2 O3 2.222169 1_455
In2 O0 2.227544 1_555
In2 O12 2.273014 1_555
In2 O10 2.273014 1_555
In2 O1 2.304421 1_455
In3 O0 2.196168 1_555
In3 O1 2.305310 1_555
In3 O11 2.464447 1_555
In3 O13 2.464447 1_555
In3 O9 2.464447 1_555
In3 O5 2.561519 1_555
In3 O3 2.561519 1_555
In3 O7 2.561519 1_555
Ge0 O5 1.899503 1_545
Ge0 O3 1.899503 1_455
Ge0 O9 1.932184 1_545
Ge0 O11 1.932184 1_455
Ge0 O6 2.012880 1_445
Ge0 O12 2.039238 1_555
Ge1 O3 1.899503 1_455
Ge1 O7 1.899503 1_554
Ge1 O13 1.932184 1_455
Ge1 O9 1.932184 1_554
Ge1 O4 2.012880 1_454
Ge1 O10 2.039238 1_555
Ge2 O5 1.899503 1_545
Ge2 O7 1.899503 1_554
Ge2 O11 1.932184 1_554
Ge2 O13 1.932184 1_545
Ge2 O2 2.012880 1_544
Ge2 O8 2.039238 1_555
Ge3 O6 1.965091 1_445
Ge3 O2 1.965091 1_544
Ge3 O4 1.965091 1_454
Ge3 O12 2.107352 1_554
Ge3 O10 2.107352 1_545
Ge3 O8 2.107352 1_455
