# generated using pymatgen
data_Mg14TiCO16
_symmetry_space_group_name_H-M   'P 1'
_cell_length_a   8.47510876
_cell_length_b   8.76521800
_cell_length_c   4.23483803
_cell_angle_alpha   90.00000000
_cell_angle_beta   90.00000000
_cell_angle_gamma   90.00000000
_symmetry_Int_Tables_number   1
_chemical_formula_structural   Mg14TiCO16
_chemical_formula_sum   'Mg14 Ti1 C1 O16'
_cell_volume   314.58992261
_cell_formula_units_Z   1
loop_
 _symmetry_equiv_pos_site_id
 _symmetry_equiv_pos_as_xyz
  1  'x, y, z'
loop_
 _atom_site_type_symbol
 _atom_site_label
 _atom_site_symmetry_multiplicity
 _atom_site_fract_x
 _atom_site_fract_y
 _atom_site_fract_z
 _atom_site_occupancy
  Mg  Mg0  1  0.50000000  -0.00000000  -0.00000000  1
  Mg  Mg1  1  0.50000000  0.50000000  -0.00000000  1
  Mg  Mg2  1  0.00000000  0.26353445  0.50000000  1
  Mg  Mg3  1  0.00000000  0.73646555  0.50000000  1
  Mg  Mg4  1  0.50000000  0.25267406  0.50000000  1
  Mg  Mg5  1  0.50000000  0.74732594  0.50000000  1
  Mg  Mg6  1  0.25227497  -0.00000000  0.50000000  1
  Mg  Mg7  1  0.24501865  0.50000000  0.50000000  1
  Mg  Mg8  1  0.74772503  -0.00000000  0.50000000  1
  Mg  Mg9  1  0.75498135  0.50000000  0.50000000  1
  Mg  Mg10  1  0.24790297  0.25797660  -0.00000000  1
  Mg  Mg11  1  0.24790297  0.74202340  0.00000000  1
  Mg  Mg12  1  0.75209703  0.25797660  -0.00000000  1
  Mg  Mg13  1  0.75209703  0.74202340  0.00000000  1
  Ti  Ti0  1  0.00000000  -0.00000000  -0.00000000  1
  C  C0  1  0.00000000  0.50000000  -0.00000000  1
  O  O0  1  0.25009857  -0.00000000  -0.00000000  1
  O  O1  1  0.25914856  0.50000000  0.00000000  1
  O  O2  1  0.74990143  -0.00000000  0.00000000  1
  O  O3  1  0.74085144  0.50000000  -0.00000000  1
  O  O4  1  0.24751970  0.25066524  0.50000000  1
  O  O5  1  0.24751970  0.74933476  0.50000000  1
  O  O6  1  0.75248030  0.25066524  0.50000000  1
  O  O7  1  0.75248030  0.74933476  0.50000000  1
  O  O8  1  0.00000000  -0.00000000  0.50000000  1
  O  O9  1  0.00000000  0.50000000  0.50000000  1
  O  O10  1  0.50000000  -0.00000000  0.50000000  1
  O  O11  1  0.50000000  0.50000000  0.50000000  1
  O  O12  1  0.00000000  0.21699376  -0.00000000  1
  O  O13  1  0.00000000  0.78300624  -0.00000000  1
  O  O14  1  0.50000000  0.24764976  0.00000000  1
  O  O15  1  0.50000000  0.75235024  -0.00000000  1
loop_
_geom_bond_atom_site_label_1
_geom_bond_atom_site_label_2
_geom_bond_distance
_geom_bond_site_symmetry_2
Mg0 O10 2.117419 1_555
Mg0 O10 2.117419 1_554
Mg0 O0 2.117942 1_555
Mg0 O2 2.117942 1_555
Mg0 O15 2.170704 1_545
Mg0 O14 2.170704 1_555
Mg1 O1 2.041242 1_555
Mg1 O3 2.041242 1_555
Mg1 O11 2.117419 1_554
Mg1 O11 2.117419 1_555
Mg1 O14 2.211905 1_555
Mg1 O15 2.211905 1_555
Mg2 O9 2.072672 1_555
Mg2 O4 2.100787 1_555
Mg2 O6 2.100787 1_455
Mg2 O12 2.156358 1_555
Mg2 O12 2.156358 1_556
Mg2 O8 2.309937 1_555
Mg3 O9 2.072672 1_555
Mg3 O5 2.100787 1_555
Mg3 O7 2.100787 1_455
Mg3 O13 2.156358 1_555
Mg3 O13 2.156358 1_556
Mg3 O8 2.309937 1_565
Mg4 O14 2.117877 1_555
Mg4 O14 2.117877 1_556
Mg4 O6 2.139870 1_555
Mg4 O4 2.139870 1_555
Mg4 O11 2.167866 1_555
Mg4 O10 2.214743 1_555
Mg5 O15 2.117877 1_556
Mg5 O15 2.117877 1_555
Mg5 O7 2.139870 1_555
Mg5 O5 2.139870 1_555
Mg5 O11 2.167866 1_555
Mg5 O10 2.214743 1_565
Mg6 O10 2.099497 1_555
Mg6 O0 2.117499 1_555
Mg6 O0 2.117499 1_556
Mg6 O8 2.138058 1_555
Mg6 O4 2.197505 1_555
Mg6 O5 2.197505 1_545
Mg7 O9 2.076560 1_555
Mg7 O1 2.120803 1_556
Mg7 O1 2.120803 1_555
Mg7 O11 2.160995 1_555
Mg7 O5 2.185576 1_555
Mg7 O4 2.185576 1_555
Mg8 O10 2.099497 1_555
Mg8 O2 2.117499 1_555
Mg8 O2 2.117499 1_556
Mg8 O8 2.138058 1_655
Mg8 O6 2.197505 1_555
Mg8 O7 2.197505 1_545
Mg9 O9 2.076560 1_655
Mg9 O3 2.120803 1_556
Mg9 O3 2.120803 1_555
Mg9 O11 2.160995 1_555
Mg9 O6 2.185576 1_555
Mg9 O7 2.185576 1_555
Mg10 O4 2.118391 1_554
Mg10 O4 2.118391 1_555
Mg10 O1 2.123528 1_555
Mg10 O12 2.131493 1_555
Mg10 O14 2.138466 1_555
Mg10 O0 2.261298 1_555
Mg11 O5 2.118391 1_555
Mg11 O5 2.118391 1_554
Mg11 O1 2.123528 1_555
Mg11 O13 2.131493 1_555
Mg11 O15 2.138466 1_555
Mg11 O0 2.261298 1_565
Mg12 O6 2.118391 1_555
Mg12 O6 2.118391 1_554
Mg12 O3 2.123528 1_555
Mg12 O12 2.131493 1_655
Mg12 O14 2.138466 1_555
Mg12 O2 2.261298 1_555
Mg13 O7 2.118391 1_555
Mg13 O7 2.118391 1_554
Mg13 O3 2.123528 1_555
Mg13 O13 2.131493 1_655
Mg13 O15 2.138466 1_555
Mg13 O2 2.261298 1_565
C0 O9 2.117419 1_555
C0 O9 2.117419 1_554
C0 O3 2.196312 1_455
C0 O1 2.196312 1_555
O0 Ti0 2.119613 1_555
O2 Ti0 2.119613 1_655
O8 Ti0 2.117419 1_556
O8 Ti0 2.117419 1_555
O12 Ti0 1.901998 1_555
O13 Ti0 1.901998 1_565
