# generated using pymatgen
data_KMg14BO15
_symmetry_space_group_name_H-M   'P 1'
_cell_length_a   8.51268470
_cell_length_b   8.64875326
_cell_length_c   4.41511091
_cell_angle_alpha   90.00000000
_cell_angle_beta   90.00000000
_cell_angle_gamma   90.00000000
_symmetry_Int_Tables_number   1
_chemical_formula_structural   KMg14BO15
_chemical_formula_sum   'K1 Mg14 B1 O15'
_cell_volume   325.05860932
_cell_formula_units_Z   1
loop_
 _symmetry_equiv_pos_site_id
 _symmetry_equiv_pos_as_xyz
  1  'x, y, z'
loop_
 _atom_site_type_symbol
 _atom_site_label
 _atom_site_symmetry_multiplicity
 _atom_site_fract_x
 _atom_site_fract_y
 _atom_site_fract_z
 _atom_site_occupancy
  K  K0  1  0.00156473  -0.00000000  0.00000000  1
  Mg  Mg0  1  0.00278530  0.50000000  0.00000000  1
  Mg  Mg1  1  0.50171547  -0.00000000  0.00000000  1
  Mg  Mg2  1  0.00088543  0.25180538  0.50000000  1
  Mg  Mg3  1  0.00088543  0.74819462  0.50000000  1
  Mg  Mg4  1  0.50198261  0.25235632  0.50000000  1
  Mg  Mg5  1  0.50198261  0.74764368  0.50000000  1
  Mg  Mg6  1  0.25273306  -0.00000000  0.50000000  1
  Mg  Mg7  1  0.26719913  0.50000000  0.50000000  1
  Mg  Mg8  1  0.75045551  -0.00000000  0.50000000  1
  Mg  Mg9  1  0.74122528  0.50000000  0.50000000  1
  Mg  Mg10  1  0.25966189  0.24265230  0.00000000  1
  Mg  Mg11  1  0.25966189  0.75734770  -0.00000000  1
  Mg  Mg12  1  0.74462977  0.24139923  -0.00000000  1
  Mg  Mg13  1  0.74462977  0.75860077  0.00000000  1
  B  B0  1  0.51855856  0.50000000  0.00000000  1
  O  O0  1  0.27609996  -0.00000000  0.00000000  1
  O  O1  1  0.72716502  -0.00000000  0.00000000  1
  O  O2  1  0.68537862  0.50000000  0.00000000  1
  O  O3  1  0.25212597  0.25677019  0.50000000  1
  O  O4  1  0.25212597  0.74322981  0.50000000  1
  O  O5  1  0.75080334  0.25356178  0.50000000  1
  O  O6  1  0.75080334  0.74643822  0.50000000  1
  O  O7  1  0.00380479  -0.00000000  0.50000000  1
  O  O8  1  0.99521593  0.50000000  0.50000000  1
  O  O9  1  0.50076047  -0.00000000  0.50000000  1
  O  O10  1  0.50318374  0.50000000  0.50000000  1
  O  O11  1  0.99926862  0.27990102  0.00000000  1
  O  O12  1  0.99926862  0.72009898  0.00000000  1
  O  O13  1  0.50171958  0.25376120  0.00000000  1
  O  O14  1  0.50171958  0.74623880  0.00000000  1
loop_
_geom_bond_atom_site_label_1
_geom_bond_atom_site_label_2
_geom_bond_distance
_geom_bond_site_symmetry_2
K0 O7 2.207638 1_555
K0 O7 2.207638 1_554
K0 O1 2.335878 1_455
K0 O0 2.337032 1_555
K0 O12 2.420874 1_445
K0 O11 2.420874 1_455
Mg0 O11 1.903817 1_455
Mg0 O12 1.903817 1_455
Mg0 O8 2.208496 1_455
Mg0 O8 2.208496 1_454
Mg1 O1 1.919181 1_555
Mg1 O0 1.920594 1_555
Mg1 O14 2.194718 1_545
Mg1 O13 2.194718 1_555
Mg1 O9 2.207570 1_554
Mg1 O9 2.207570 1_555
Mg2 O5 2.128924 1_455
Mg2 O3 2.139163 1_555
Mg2 O8 2.147117 1_455
Mg2 O7 2.177944 1_555
Mg2 O11 2.220931 1_455
Mg2 O11 2.220931 1_456
Mg3 O6 2.128924 1_455
Mg3 O4 2.139163 1_555
Mg3 O8 2.147117 1_455
Mg3 O7 2.177944 1_565
Mg3 O12 2.220931 1_455
Mg3 O12 2.220931 1_456
Mg4 O5 2.118158 1_555
Mg4 O3 2.127293 1_555
Mg4 O10 2.141833 1_555
Mg4 O9 2.182592 1_555
Mg4 O13 2.207590 1_555
Mg4 O13 2.207590 1_556
Mg5 O6 2.118158 1_555
Mg5 O4 2.127293 1_555
Mg5 O10 2.141833 1_555
Mg5 O9 2.182592 1_565
Mg5 O14 2.207590 1_555
Mg5 O14 2.207590 1_556
Mg6 O9 2.111379 1_555
Mg6 O7 2.119048 1_555
Mg6 O0 2.216499 1_556
Mg6 O0 2.216499 1_555
Mg6 O4 2.220748 1_545
Mg6 O3 2.220748 1_555
Mg7 O10 2.008863 1_555
Mg7 O4 2.107544 1_555
Mg7 O3 2.107544 1_555
Mg7 O8 2.315307 1_455
Mg8 O9 2.125575 1_555
Mg8 O7 2.156683 1_655
Mg8 O6 2.192995 1_545
Mg8 O5 2.192995 1_555
Mg8 O1 2.216441 1_555
Mg8 O1 2.216441 1_556
Mg9 O10 2.026373 1_555
Mg9 O5 2.132942 1_555
Mg9 O6 2.132942 1_555
Mg9 O8 2.162142 1_555
Mg9 O2 2.258165 1_556
Mg9 O2 2.258165 1_555
Mg10 O13 2.062800 1_555
Mg10 O0 2.103300 1_555
Mg10 O3 2.211860 1_555
Mg10 O3 2.211860 1_554
Mg10 O11 2.239934 1_455
Mg11 O14 2.062800 1_555
Mg11 O0 2.103300 1_565
Mg11 O4 2.211860 1_554
Mg11 O4 2.211860 1_555
Mg11 O12 2.239934 1_455
Mg12 O13 2.070580 1_555
Mg12 O1 2.093089 1_555
Mg12 O11 2.193088 1_555
Mg12 O5 2.210685 1_555
Mg12 O5 2.210685 1_554
Mg12 O2 2.292743 1_555
Mg13 O14 2.070580 1_555
Mg13 O1 2.093089 1_565
Mg13 O12 2.193088 1_555
Mg13 O6 2.210685 1_555
Mg13 O6 2.210685 1_554
Mg13 O2 2.292743 1_555
B0 O2 1.420087 1_555
B0 O14 2.134477 1_555
B0 O13 2.134477 1_555
B0 O10 2.211432 1_555
B0 O10 2.211432 1_554
