# generated using pymatgen
data_Ba4Cu11(Te4S)2
_symmetry_space_group_name_H-M   'P 1'
_cell_length_a   4.35640700
_cell_length_b   9.67995500
_cell_length_c   14.24103488
_cell_angle_alpha   89.97990368
_cell_angle_beta   90.00000000
_cell_angle_gamma   90.00000000
_symmetry_Int_Tables_number   1
_chemical_formula_structural   Ba4Cu11(Te4S)2
_chemical_formula_sum   'Ba4 Cu11 Te8 S2'
_cell_volume   600.54189339
_cell_formula_units_Z   1
loop_
 _symmetry_equiv_pos_site_id
 _symmetry_equiv_pos_as_xyz
  1  'x, y, z'
loop_
 _atom_site_type_symbol
 _atom_site_label
 _atom_site_symmetry_multiplicity
 _atom_site_fract_x
 _atom_site_fract_y
 _atom_site_fract_z
 _atom_site_occupancy
  Ba  Ba0  1  0.50000000  0.47762500  0.66424600  1
  Ba  Ba1  1  0.50000000  0.52453800  0.33976300  1
  Ba  Ba2  1  0.50000000  0.97654600  0.84272700  1
  Ba  Ba3  1  0.50000000  0.02474700  0.15747200  1
  Cu  Cu0  1  0.50000000  0.11815100  0.59203400  1
  Cu  Cu1  1  0.50000000  0.88121400  0.40840200  1
  Cu  Cu2  1  0.50000000  0.60990400  0.90652700  1
  Cu  Cu3  1  0.50000000  0.38167100  0.09253100  1
  Cu  Cu4  1  0.00000000  0.24909600  0.51376500  1
  Cu  Cu5  1  0.00000000  0.75127400  0.48656000  1
  Cu  Cu6  1  0.00000000  0.75154500  0.98733600  1
  Cu  Cu7  1  0.00000000  0.25462500  0.00419500  1
  Cu  Cu8  1  0.00000000  0.52305400  0.08263300  1
  Cu  Cu9  1  0.00000000  0.97541100  0.58978400  1
  Cu  Cu10  1  0.00000000  0.02511900  0.41075200  1
  Te  Te0  1  0.00000000  0.19326700  0.69960900  1
  Te  Te1  1  0.00000000  0.80784700  0.30075700  1
  Te  Te2  1  0.00000000  0.68643300  0.80824300  1
  Te  Te3  1  0.00000000  0.30924200  0.19708700  1
  Te  Te4  1  0.50000000  0.33188500  0.91114800  1
  Te  Te5  1  0.50000000  0.67587900  0.09195000  1
  Te  Te6  1  0.50000000  0.82246900  0.59337500  1
  Te  Te7  1  0.50000000  0.17741900  0.40635200  1
  S  S0  1  0.00000000  0.50009800  0.50047300  1
  S  S1  1  0.00000000  0.99835300  0.00236700  1
loop_
_geom_bond_atom_site_label_1
_geom_bond_atom_site_label_2
_geom_bond_distance
_geom_bond_site_symmetry_2
Ba0 S0 3.198616 1_555
Ba0 S0 3.198616 1_655
Ba0 Te6 3.486978 1_555
Ba0 Te0 3.545966 1_555
Ba0 Te0 3.545966 1_655
Ba0 Te2 3.610841 1_555
Ba0 Te2 3.610841 1_655
Ba0 Cu0 3.628818 1_555
Ba0 Cu2 3.680687 1_555
Ba0 Te4 3.788139 1_555
Ba1 S0 3.168312 1_555
Ba1 S0 3.168312 1_655
Ba1 Te7 3.491028 1_555
Ba1 Te1 3.545832 1_655
Ba1 Te1 3.545832 1_555
Ba1 Cu1 3.588642 1_555
Ba1 Te3 3.635830 1_555
Ba1 Te3 3.635830 1_655
Ba1 Cu3 3.783156 1_555
Ba1 Te5 3.820624 1_555
Ba2 S1 3.155628 1_656
Ba2 S1 3.155628 1_556
Ba2 Te4 3.575343 1_565
Ba2 Te2 3.587917 1_655
Ba2 Te2 3.587917 1_555
Ba2 Te0 3.646449 1_565
Ba2 Te0 3.646449 1_665
Ba2 Cu2 3.663224 1_555
Ba2 Cu0 3.823778 1_565
Ba2 Te6 3.852010 1_555
Ba3 S1 3.112762 1_545
Ba3 S1 3.112762 1_645
Ba3 Te5 3.503883 1_545
Ba3 Te3 3.556388 1_655
Ba3 Te3 3.556388 1_555
Ba3 Cu3 3.576331 1_555
Ba3 Te1 3.648775 1_545
Ba3 Te1 3.648775 1_645
Ba3 Cu1 3.833647 1_545
Ba3 Te7 3.840555 1_555
Cu0 Cu9 2.579684 1_545
Cu0 Cu9 2.579684 1_645
Cu0 Te7 2.705628 1_555
Cu0 Cu4 2.755475 1_655
Cu0 Cu4 2.755475 1_555
Cu0 Te0 2.760619 1_555
Cu0 Te0 2.760619 1_655
Cu0 Te6 2.862245 1_545
Cu1 Cu10 2.585760 1_565
Cu1 Cu10 2.585760 1_665
Cu1 Te6 2.694691 1_555
Cu1 Cu5 2.750375 1_655
Cu1 Cu5 2.750375 1_555
Cu1 Te1 2.756759 1_655
Cu1 Te1 2.756759 1_555
Cu1 Te7 2.867389 1_565
Cu2 Te4 2.691993 1_555
Cu2 Te2 2.692896 1_655
Cu2 Te2 2.692896 1_555
Cu2 Te5 2.716963 1_556
Cu2 Cu6 2.819554 1_655
Cu2 Cu6 2.819554 1_555
Cu3 Cu8 2.576299 1_555
Cu3 Cu8 2.576299 1_655
Cu3 Te4 2.627820 1_554
Cu3 Te3 2.729921 1_555
Cu3 Te3 2.729921 1_655
Cu3 Cu7 2.800110 1_655
Cu3 Cu7 2.800110 1_555
Cu3 Te5 2.847929 1_555
Cu4 S0 2.436984 1_555
Cu4 Te0 2.701037 1_555
Cu4 Te7 2.750748 1_455
Cu4 Te7 2.750748 1_555
Cu4 Cu9 2.861566 1_545
Cu5 S0 2.439363 1_555
Cu5 Cu9 2.621165 1_555
Cu5 Te1 2.701913 1_555
Cu5 Te6 2.744844 1_555
Cu5 Te6 2.744844 1_455
Cu6 S1 2.398735 1_556
Cu6 Cu8 2.594547 1_556
Cu6 Te2 2.627409 1_555
Cu6 Te5 2.738579 1_456
Cu6 Te5 2.738579 1_556
Cu7 S1 2.480847 1_545
Cu7 Te4 2.656886 1_454
Cu7 Te4 2.656886 1_554
Cu7 Te3 2.797578 1_555
Cu7 Cu8 2.828673 1_555
Cu8 Te3 2.634002 1_555
Cu8 Te5 2.636429 1_455
Cu8 Te5 2.636429 1_555
Cu9 Te0 2.625960 1_565
Cu9 Te6 2.634185 1_455
Cu9 Te6 2.634185 1_555
Cu10 Cu9 2.594442 1_545
Cu10 Cu4 2.618197 1_555
Cu10 Te1 2.622867 1_545
Cu10 Te7 2.630944 1_455
Cu10 Te7 2.630944 1_555
Cu10 Cu5 2.861865 1_545
