# generated using pymatgen
data_Ba4CaNd3(Co4O11)2
_symmetry_space_group_name_H-M   'P 1'
_cell_length_a   7.94544957
_cell_length_b   8.86116494
_cell_length_c   8.65994256
_cell_angle_alpha   101.86872797
_cell_angle_beta   117.30629893
_cell_angle_gamma   63.36342051
_symmetry_Int_Tables_number   1
_chemical_formula_structural   Ba4CaNd3(Co4O11)2
_chemical_formula_sum   'Ba4 Ca1 Nd3 Co8 O22'
_cell_volume   484.27034452
_cell_formula_units_Z   1
loop_
 _symmetry_equiv_pos_site_id
 _symmetry_equiv_pos_as_xyz
  1  'x, y, z'
loop_
 _atom_site_type_symbol
 _atom_site_label
 _atom_site_symmetry_multiplicity
 _atom_site_fract_x
 _atom_site_fract_y
 _atom_site_fract_z
 _atom_site_occupancy
  Ba  Ba0  1  0.12407195  0.24867866  0.99682257  1
  Ba  Ba1  1  0.62724939  0.24867866  0.00317743  1
  Ba  Ba2  1  0.87379751  0.75199810  0.99959312  1
  Ba  Ba3  1  0.37420439  0.75199810  0.00040688  1
  Ca  Ca0  1  0.86825115  0.26349770  0.50000000  1
  Nd  Nd0  1  0.36658998  0.26682003  0.50000000  1
  Nd  Nd1  1  0.63613052  0.72773895  0.50000000  1
  Nd  Nd2  1  0.13383913  0.73232175  0.50000000  1
  Co  Co0  1  0.36983012  0.00176237  0.74405057  1
  Co  Co1  1  0.87245807  0.00176237  0.74405057  1
  Co  Co2  1  0.62840750  0.00176237  0.25594943  1
  Co  Co3  1  0.12577955  0.00176237  0.25594943  1
  Co  Co4  1  0.62575493  0.49750517  0.74694817  1
  Co  Co5  1  0.12368807  0.49750517  0.74694817  1
  Co  Co6  1  0.87673990  0.49750517  0.25305183  1
  Co  Co7  1  0.37880676  0.49750517  0.25305183  1
  O  O0  1  0.59563366  0.99940327  0.69067060  1
  O  O1  1  0.09885180  0.99699437  0.69469797  1
  O  O2  1  0.40496306  0.99940327  0.30932940  1
  O  O3  1  0.90415383  0.99699437  0.30530203  1
  O  O4  1  0.73778081  0.22812175  0.70881688  1
  O  O5  1  0.24291433  0.22812175  0.70881688  1
  O  O6  1  0.76019528  0.77324077  0.29411001  1
  O  O7  1  0.26067396  0.77324077  0.29411001  1
  O  O8  1  0.96608527  0.77324077  0.70588999  1
  O  O9  1  0.46656395  0.77324077  0.70588999  1
  O  O10  1  0.52896393  0.22812175  0.29118312  1
  O  O11  1  0.03409745  0.22812175  0.29118312  1
  O  O12  1  0.50038233  0.99923533  0.00000000  1
  O  O13  1  0.00038233  0.99923533  0.00000000  1
  O  O14  1  0.36559204  0.49968772  0.73087180  1
  O  O15  1  0.86317876  0.50423299  0.73059050  1
  O  O16  1  0.13472024  0.49968772  0.26912820  1
  O  O17  1  0.63258825  0.50423299  0.26940950  1
  O  O18  1  0.49267670  0.50416880  0.50000000  1
  O  O19  1  0.00315450  0.50416880  0.50000000  1
  O  O20  1  0.25042429  0.49915142  0.00000000  1
  O  O21  1  0.75042429  0.49915142  0.00000000  1
loop_
_geom_bond_atom_site_label_1
_geom_bond_atom_site_label_2
_geom_bond_distance
_geom_bond_site_symmetry_2
Ba0 O13 2.801767 1_546
Ba0 O12 2.801767 1_546
Ba0 O21 2.807523 1_456
Ba0 O20 2.807523 1_556
Ba0 O15 2.879965 1_455
Ba0 O16 2.888498 1_556
Ba0 O4 2.994171 1_455
Ba0 O5 2.994172 1_555
Ba0 O11 3.003691 1_556
Ba0 O10 3.003691 1_556
Ba0 O1 3.062508 1_545
Ba0 O2 3.111445 1_546
Ba1 O13 2.801767 1_645
Ba1 O12 2.801767 1_545
Ba1 O21 2.807523 1_555
Ba1 O20 2.807523 1_555
Ba1 O17 2.879965 1_555
Ba1 O14 2.888498 1_554
Ba1 O10 2.994172 1_555
Ba1 O11 2.994172 1_655
Ba1 O4 3.003691 1_554
Ba1 O5 3.003691 1_554
Ba1 O3 3.062508 1_545
Ba1 O0 3.111445 1_544
Ba2 O13 2.789367 1_656
Ba2 O12 2.789367 1_556
Ba2 O21 2.820737 1_556
Ba2 O20 2.820737 1_656
Ba2 O15 2.852375 1_555
Ba2 O16 2.880212 1_656
Ba2 O8 3.012328 1_555
Ba2 O9 3.012328 1_555
Ba2 O6 3.019532 1_556
Ba2 O7 3.019532 1_656
Ba2 O3 3.049517 1_556
Ba2 O0 3.080734 1_555
Ba3 O12 2.789367 1_555
Ba3 O13 2.789367 1_555
Ba3 O20 2.820737 1_555
Ba3 O21 2.820737 1_555
Ba3 O17 2.852375 1_555
Ba3 O14 2.880212 1_554
Ba3 O7 3.012328 1_555
Ba3 O6 3.012328 1_555
Ba3 O9 3.019532 1_554
Ba3 O8 3.019532 1_454
Ba3 O1 3.049517 1_554
Ba3 O2 3.080734 1_555
Ca0 O4 2.586019 1_555
Ca0 O10 2.586019 1_555
Ca0 O11 2.586020 1_655
Ca0 O5 2.586020 1_655
Ca0 O3 2.588523 1_545
Ca0 O1 2.588523 1_645
Ca0 O17 2.604667 1_555
Ca0 O15 2.604667 1_555
Ca0 O19 2.783283 1_655
Ca0 O18 2.783283 1_555
Nd0 O5 2.557518 1_555
Nd0 O11 2.557518 1_555
Nd0 O10 2.557518 1_555
Nd0 O4 2.557518 1_555
Nd0 O14 2.560900 1_555
Nd0 O16 2.560900 1_555
Nd0 O0 2.576655 1_545
Nd0 O2 2.576655 1_545
Nd0 O19 2.704865 1_555
Nd0 O18 2.704865 1_555
Nd1 O17 2.506487 1_555
Nd1 O15 2.506487 1_555
Nd1 O9 2.564765 1_555
Nd1 O7 2.564765 1_555
Nd1 O6 2.564765 1_555
Nd1 O8 2.564765 1_555
Nd1 O0 2.604382 1_555
Nd1 O2 2.604382 1_555
Nd1 O18 2.692321 1_555
Nd1 O19 2.692321 1_655
Nd2 O14 2.559567 1_555
Nd2 O16 2.559567 1_555
Nd2 O7 2.562866 1_555
Nd2 O9 2.562866 1_555
Nd2 O8 2.562866 1_455
Nd2 O6 2.562866 1_455
Nd2 O3 2.576712 1_455
Nd2 O1 2.576712 1_555
Nd2 O18 2.654757 1_555
Nd2 O19 2.654757 1_555
Co0 O5 1.813573 1_555
Co0 O9 1.833760 1_545
Co0 O12 1.969644 1_546
Co0 O1 2.012440 1_545
Co0 O0 2.038698 1_545
Co1 O4 1.813573 1_555
Co1 O8 1.833760 1_545
Co1 O13 1.969644 1_646
Co1 O1 2.012441 1_645
Co1 O0 2.038698 1_545
Co2 O10 1.813573 1_555
Co2 O6 1.833760 1_545
Co2 O12 1.969644 1_545
Co2 O3 2.012441 1_545
Co2 O2 2.038698 1_545
Co3 O11 1.813573 1_555
Co3 O7 1.833760 1_545
Co3 O13 1.969644 1_545
Co3 O3 2.012440 1_445
Co3 O2 2.038698 1_545
Co4 O18 1.901637 1_555
Co4 O21 1.947279 1_556
Co4 O15 1.982868 1_555
Co4 O14 1.998481 1_555
Co4 O4 2.153979 1_555
Co4 O9 2.206765 1_555
Co5 O19 1.901637 1_555
Co5 O20 1.947279 1_556
Co5 O15 1.982868 1_455
Co5 O14 1.998481 1_555
Co5 O5 2.153979 1_555
Co5 O8 2.206765 1_455
Co6 O19 1.901637 1_655
Co6 O21 1.947279 1_555
Co6 O17 1.982868 1_555
Co6 O16 1.998481 1_655
Co6 O11 2.153979 1_655
Co6 O6 2.206765 1_555
Co7 O18 1.901637 1_555
Co7 O20 1.947279 1_555
Co7 O17 1.982868 1_555
Co7 O16 1.998481 1_555
Co7 O10 2.153979 1_555
Co7 O7 2.206765 1_555
