# generated using pymatgen
data_In5CuSe8
_symmetry_space_group_name_H-M   'P 1'
_cell_length_a   5.82473584
_cell_length_b   5.82473584
_cell_length_c   11.63755481
_cell_angle_alpha   90.00000000
_cell_angle_beta   90.00000000
_cell_angle_gamma   90.00000000
_symmetry_Int_Tables_number   1
_chemical_formula_structural   In5CuSe8
_chemical_formula_sum   'In5 Cu1 Se8'
_cell_volume   394.83369483
_cell_formula_units_Z   1
loop_
 _symmetry_equiv_pos_site_id
 _symmetry_equiv_pos_as_xyz
  1  'x, y, z'
loop_
 _atom_site_type_symbol
 _atom_site_label
 _atom_site_symmetry_multiplicity
 _atom_site_fract_x
 _atom_site_fract_y
 _atom_site_fract_z
 _atom_site_occupancy
  In  In0  1  0.00000000  0.50000000  0.26211640  1
  In  In1  1  0.50000000  0.00000000  0.73788360  1
  In  In2  1  0.00000000  0.50000000  0.73788360  1
  In  In3  1  0.50000000  0.00000000  0.26211640  1
  In  In4  1  0.00000000  0.00000000  0.00000000  1
  Cu  Cu0  1  0.50000000  0.50000000  0.50000000  1
  Se  Se0  1  0.27013362  0.27013362  0.11739132  1
  Se  Se1  1  0.72986638  0.72986638  0.11739132  1
  Se  Se2  1  0.27013362  0.72986638  0.88260868  1
  Se  Se3  1  0.72986638  0.27013362  0.88260868  1
  Se  Se4  1  0.24503789  0.24503789  0.60564536  1
  Se  Se5  1  0.75496211  0.75496211  0.60564536  1
  Se  Se6  1  0.24503789  0.75496211  0.39435464  1
  Se  Se7  1  0.75496211  0.24503789  0.39435464  1
loop_
_geom_bond_atom_site_label_1
_geom_bond_atom_site_label_2
_geom_bond_distance
_geom_bond_site_symmetry_2
In0 Se7 2.571171 1_455
In0 Se6 2.571171 1_555
In0 Se1 2.665546 1_455
In0 Se0 2.665546 1_555
In1 Se5 2.571171 1_545
In1 Se4 2.571171 1_555
In1 Se2 2.665546 1_545
In1 Se3 2.665546 1_555
In2 Se5 2.571171 1_455
In2 Se4 2.571171 1_555
In2 Se3 2.665546 1_455
In2 Se2 2.665546 1_555
In3 Se6 2.571171 1_545
In3 Se7 2.571171 1_555
In3 Se1 2.665546 1_545
In3 Se0 2.665546 1_555
In4 Se1 2.611110 1_445
In4 Se0 2.611110 1_555
In4 Se3 2.611110 1_454
In4 Se2 2.611110 1_544
Cu0 Se7 2.433623 1_555
Cu0 Se6 2.433623 1_555
Cu0 Se5 2.433623 1_555
Cu0 Se4 2.433623 1_555
