# generated using pymatgen
data_U2H18C4Se3N2O17
_symmetry_space_group_name_H-M   'P 1'
_cell_length_a   11.40937600
_cell_length_b   11.45186900
_cell_length_c   17.28658800
_cell_angle_alpha   90.00000000
_cell_angle_beta   90.00000000
_cell_angle_gamma   90.00000000
_symmetry_Int_Tables_number   1
_chemical_formula_structural   U2H18C4Se3N2O17
_chemical_formula_sum   'U8 H72 C16 Se12 N8 O68'
_cell_volume   2258.64275809
_cell_formula_units_Z   4
loop_
 _symmetry_equiv_pos_site_id
 _symmetry_equiv_pos_as_xyz
  1  'x, y, z'
loop_
 _atom_site_type_symbol
 _atom_site_label
 _atom_site_symmetry_multiplicity
 _atom_site_fract_x
 _atom_site_fract_y
 _atom_site_fract_z
 _atom_site_occupancy
  U  U0  1  0.67833500  0.66327100  0.45827100  1
  U  U1  1  0.82166500  0.33672900  0.95827100  1
  U  U2  1  0.17833500  0.83672900  0.54172900  1
  U  U3  1  0.32166500  0.16327100  0.04172900  1
  U  U4  1  0.60660200  0.12749700  0.50970300  1
  U  U5  1  0.89339800  0.87250300  0.00970300  1
  U  U6  1  0.10660200  0.37250300  0.49029700  1
  U  U7  1  0.39339800  0.62749700  0.99029700  1
  H  H0  1  0.42178200  0.31517200  0.45417700  1
  H  H1  1  0.07821800  0.68482800  0.95417700  1
  H  H2  1  0.92178200  0.18482800  0.54582300  1
  H  H3  1  0.57821800  0.81517200  0.04582300  1
  H  H4  1  0.54721500  0.36746400  0.44019200  1
  H  H5  1  0.95278500  0.63253600  0.94019200  1
  H  H6  1  0.04721500  0.13253600  0.55980800  1
  H  H7  1  0.45278500  0.86746400  0.05980800  1
  H  H8  1  0.69983700  0.34199700  0.15454400  1
  H  H9  1  0.80016300  0.65800300  0.65454400  1
  H  H10  1  0.19983700  0.15800300  0.84545600  1
  H  H11  1  0.30016300  0.84199700  0.34545600  1
  H  H12  1  0.74909400  0.36703300  0.24430400  1
  H  H13  1  0.75090600  0.63296700  0.74430400  1
  H  H14  1  0.24909400  0.13296700  0.75569600  1
  H  H15  1  0.25090600  0.86703300  0.25569600  1
  H  H16  1  0.59505100  0.26291200  0.28153000  1
  H  H17  1  0.90494900  0.73708800  0.78153000  1
  H  H18  1  0.09505100  0.23708800  0.71847000  1
  H  H19  1  0.40494900  0.76291200  0.21847000  1
  H  H20  1  0.51729700  0.29240100  0.19396100  1
  H  H21  1  0.98270300  0.70759900  0.69396100  1
  H  H22  1  0.01729700  0.20759900  0.80603900  1
  H  H23  1  0.48270300  0.79240100  0.30603900  1
  H  H24  1  0.52130700  0.39953700  0.26969300  1
  H  H25  1  0.97869300  0.60046300  0.76969300  1
  H  H26  1  0.02130700  0.10046300  0.73030700  1
  H  H27  1  0.47869300  0.89953700  0.23030700  1
  H  H28  1  0.64874900  0.55296400  0.24852000  1
  H  H29  1  0.85125100  0.44703600  0.74852000  1
  H  H30  1  0.14874900  0.94703600  0.75148000  1
  H  H31  1  0.35125100  0.05296400  0.25148000  1
  H  H32  1  0.60359200  0.52883800  0.14999300  1
  H  H33  1  0.89640800  0.47116200  0.64999300  1
  H  H34  1  0.10359200  0.97116200  0.85000700  1
  H  H35  1  0.39640800  0.02883800  0.35000700  1
  H  H36  1  0.75599200  0.54343000  0.17294300  1
  H  H37  1  0.74400800  0.45657000  0.67294300  1
  H  H38  1  0.25599200  0.95657000  0.82705700  1
  H  H39  1  0.24400800  0.04343000  0.32705700  1
  H  H40  1  0.45595300  0.55669500  0.78631600  1
  H  H41  1  0.04404700  0.44330500  0.28631600  1
  H  H42  1  0.95595300  0.94330500  0.21368400  1
  H  H43  1  0.54404700  0.05669500  0.71368400  1
  H  H44  1  0.46206500  0.64048100  0.70717700  1
  H  H45  1  0.03793500  0.35951900  0.20717700  1
  H  H46  1  0.96206500  0.85951900  0.29282300  1
  H  H47  1  0.53793500  0.14048100  0.79282300  1
  H  H48  1  0.25620400  0.50409700  0.76371900  1
  H  H49  1  0.24379600  0.49590300  0.26371900  1
  H  H50  1  0.75620400  0.99590300  0.23628100  1
  H  H51  1  0.74379600  0.00409700  0.73628100  1
  H  H52  1  0.26010600  0.58864500  0.67575700  1
  H  H53  1  0.23989400  0.41135500  0.17575700  1
  H  H54  1  0.76010600  0.91135500  0.32424300  1
  H  H55  1  0.73989400  0.08864500  0.82424300  1
  H  H56  1  0.27550100  0.65951900  0.76797200  1
  H  H57  1  0.22449900  0.34048100  0.26797200  1
  H  H58  1  0.77550100  0.84048100  0.23202800  1
  H  H59  1  0.72449900  0.15951900  0.73202800  1
  H  H60  1  0.48262900  0.38864600  0.72261400  1
  H  H61  1  0.01737100  0.61135400  0.22261400  1
  H  H62  1  0.98262900  0.11135400  0.27738600  1
  H  H63  1  0.51737100  0.88864600  0.77738600  1
  H  H64  1  0.53663300  0.48514000  0.64817700  1
  H  H65  1  0.96336700  0.51486000  0.14817700  1
  H  H66  1  0.03663300  0.01486000  0.35182300  1
  H  H67  1  0.46336700  0.98514000  0.85182300  1
  H  H68  1  0.38874400  0.43455600  0.64618300  1
  H  H69  1  0.11125600  0.56544400  0.14618300  1
  H  H70  1  0.88874400  0.06544400  0.35381700  1
  H  H71  1  0.61125600  0.93455600  0.85381700  1
  C  C0  1  0.57035100  0.33072200  0.23999200  1
  C  C1  1  0.92964900  0.66927800  0.73999200  1
  C  C2  1  0.07035100  0.16927800  0.76000800  1
  C  C3  1  0.42964900  0.83072200  0.26000800  1
  C  C4  1  0.67117700  0.51126900  0.19340500  1
  C  C5  1  0.82882300  0.48873100  0.69340500  1
  C  C6  1  0.17117700  0.98873100  0.80659500  1
  C  C7  1  0.32882300  0.01126900  0.30659500  1
  C  C8  1  0.29417200  0.58030800  0.73471200  1
  C  C9  1  0.20582800  0.41969200  0.23471200  1
  C  C10  1  0.79417200  0.91969200  0.26528800  1
  C  C11  1  0.70582800  0.08030800  0.76528800  1
  C  C12  1  0.46117100  0.46101700  0.68379400  1
  C  C13  1  0.03882900  0.53898300  0.18379400  1
  C  C14  1  0.96117100  0.03898300  0.31620600  1
  C  C15  1  0.53882900  0.96101700  0.81620600  1
  Se  Se0  1  0.50552400  0.84644200  0.59763300  1
  Se  Se1  1  0.99447600  0.15355800  0.09763300  1
  Se  Se2  1  0.00552400  0.65355800  0.40236700  1
  Se  Se3  1  0.49447600  0.34644200  0.90236700  1
  Se  Se4  1  0.85411000  0.91544300  0.54275700  1
  Se  Se5  1  0.64589000  0.08455700  0.04275700  1
  Se  Se6  1  0.35411000  0.58455700  0.45724300  1
  Se  Se7  1  0.14589000  0.41544300  0.95724300  1
  Se  Se8  1  0.79769900  0.36006100  0.40995800  1
  Se  Se9  1  0.70230100  0.63993900  0.90995800  1
  Se  Se10  1  0.29769900  0.13993900  0.59004200  1
  Se  Se11  1  0.20230100  0.86006100  0.09004200  1
  N  N0  1  0.67939600  0.38282700  0.20637900  1
  N  N1  1  0.82060400  0.61717300  0.70637900  1
  N  N2  1  0.17939600  0.11717300  0.79362100  1
  N  N3  1  0.32060400  0.88282700  0.29362100  1
  N  N4  1  0.42389200  0.56512600  0.73053400  1
  N  N5  1  0.07610800  0.43487400  0.23053400  1
  N  N6  1  0.92389200  0.93487400  0.26946600  1
  N  N7  1  0.57610800  0.06512600  0.76946600  1
  O  O0  1  0.72853600  0.62103100  0.55361200  1
  O  O1  1  0.77146400  0.37896900  0.05361200  1
  O  O2  1  0.22853600  0.87896900  0.44638800  1
  O  O3  1  0.27146400  0.12103100  0.94638800  1
  O  O4  1  0.62901300  0.70561900  0.36311000  1
  O  O5  1  0.87098700  0.29438100  0.86311000  1
  O  O6  1  0.12901300  0.79438100  0.63689000  1
  O  O7  1  0.37098700  0.20561900  0.13689000  1
  O  O8  1  0.54102500  0.79561500  0.50954500  1
  O  O9  1  0.95897500  0.20438500  0.00954500  1
  O  O10  1  0.04102500  0.70438500  0.49045500  1
  O  O11  1  0.45897500  0.29561500  0.99045500  1
  O  O12  1  0.54460700  0.75876000  0.66874500  1
  O  O13  1  0.95539300  0.24124000  0.16874500  1
  O  O14  1  0.04460700  0.74124000  0.33125500  1
  O  O15  1  0.45539300  0.25876000  0.83125500  1
  O  O16  1  0.36112700  0.87208600  0.60232700  1
  O  O17  1  0.13887300  0.12791400  0.10232700  1
  O  O18  1  0.86112700  0.62791400  0.39767300  1
  O  O19  1  0.63887300  0.37208600  0.89767300  1
  O  O20  1  0.57159300  0.97796600  0.60735900  1
  O  O21  1  0.92840700  0.02203400  0.10735900  1
  O  O22  1  0.07159300  0.52203400  0.39264100  1
  O  O23  1  0.42840700  0.47796600  0.89264100  1
  O  O24  1  0.83571300  0.85468700  0.62761700  1
  O  O25  1  0.66428700  0.14531300  0.12761700  1
  O  O26  1  0.33571300  0.64531300  0.37238300  1
  O  O27  1  0.16428700  0.35468700  0.87238300  1
  O  O28  1  0.79207800  0.83892500  0.46980200  1
  O  O29  1  0.70792200  0.16107500  0.96980200  1
  O  O30  1  0.29207800  0.66107500  0.53019800  1
  O  O31  1  0.20792200  0.33892500  0.03019800  1
  O  O32  1  0.99584700  0.94049700  0.52033400  1
  O  O33  1  0.50415300  0.05950300  0.02033400  1
  O  O34  1  0.49584700  0.55950300  0.47966600  1
  O  O35  1  0.00415300  0.44049700  0.97966600  1
  O  O36  1  0.79484600  0.05167100  0.53969100  1
  O  O37  1  0.70515400  0.94832900  0.03969100  1
  O  O38  1  0.29484600  0.44832900  0.46030900  1
  O  O39  1  0.20515400  0.55167100  0.96030900  1
  O  O40  1  0.62517300  0.22638600  0.59026500  1
  O  O41  1  0.87482700  0.77361400  0.09026500  1
  O  O42  1  0.12517300  0.27361400  0.40973500  1
  O  O43  1  0.37482700  0.72638600  0.90973500  1
  O  O44  1  0.58606900  0.02999900  0.42902900  1
  O  O45  1  0.91393100  0.97000100  0.92902900  1
  O  O46  1  0.08606900  0.47000100  0.57097100  1
  O  O47  1  0.41393100  0.52999900  0.07097100  1
  O  O48  1  0.50242600  0.29346700  0.44133200  1
  O  O49  1  0.99757400  0.70653300  0.94133200  1
  O  O50  1  0.00242600  0.20653300  0.55866800  1
  O  O51  1  0.49757400  0.79346700  0.05866800  1
  O  O52  1  0.73923600  0.22798800  0.42843900  1
  O  O53  1  0.76076400  0.77201200  0.92843900  1
  O  O54  1  0.23923600  0.27201200  0.57156100  1
  O  O55  1  0.26076400  0.72798800  0.07156100  1
  O  O56  1  0.89931700  0.38611200  0.47804700  1
  O  O57  1  0.60068300  0.61388800  0.97804700  1
  O  O58  1  0.39931700  0.11388800  0.52195300  1
  O  O59  1  0.10068300  0.88611200  0.02195300  1
  O  O60  1  0.68646900  0.45590400  0.41989700  1
  O  O61  1  0.81353100  0.54409600  0.91989700  1
  O  O62  1  0.18646900  0.04409600  0.58010300  1
  O  O63  1  0.31353100  0.95590400  0.08010300  1
  O  O64  1  0.85189600  0.36071900  0.32143200  1
  O  O65  1  0.64810400  0.63928100  0.82143200  1
  O  O66  1  0.35189600  0.13928100  0.67856800  1
  O  O67  1  0.14810400  0.86071900  0.17856800  1
loop_
_geom_bond_atom_site_label_1
_geom_bond_atom_site_label_2
_geom_bond_distance
_geom_bond_site_symmetry_2
H0 O48 0.978605 1_555
H1 O49 0.978605 1_455
H2 O50 0.978605 1_655
H3 O51 0.978605 1_555
H4 O48 0.989756 1_555
H5 O49 0.989756 1_555
H6 O50 0.989756 1_555
H7 O51 0.989756 1_555
H8 N0 1.037270 1_555
H9 N1 1.037270 1_555
H10 N2 1.037270 1_555
H11 N3 1.037270 1_555
H12 N0 1.046364 1_555
H13 N1 1.046364 1_555
H14 N2 1.046364 1_555
H15 N3 1.046364 1_555
H40 N4 1.035841 1_555
H41 N5 1.035841 1_555
H42 N6 1.035841 1_555
H43 N7 1.035841 1_555
H44 N4 1.047570 1_555
H45 N5 1.047570 1_555
H46 N6 1.047570 1_555
H47 N7 1.047570 1_555
C0 H20 1.091860 1_555
C0 H24 1.094421 1_555
C0 H16 1.094553 1_555
C0 N0 1.497180 1_555
C1 H21 1.091860 1_555
C1 H25 1.094421 1_555
C1 H17 1.094553 1_555
C1 N1 1.497180 1_555
C2 H22 1.091860 1_555
C2 H26 1.094421 1_555
C2 H18 1.094553 1_555
C2 N2 1.497180 1_555
C3 H23 1.091860 1_555
C3 H27 1.094421 1_555
C3 H19 1.094553 1_555
C3 N3 1.497180 1_555
C4 H36 1.094158 1_555
C4 H32 1.094645 1_555
C4 H28 1.095995 1_555
C4 N0 1.490853 1_555
C5 H37 1.094158 1_555
C5 H33 1.094645 1_555
C5 H29 1.095995 1_555
C5 N1 1.490853 1_555
C6 H38 1.094158 1_555
C6 H34 1.094645 1_555
C6 H30 1.095995 1_555
C6 N2 1.490853 1_565
C7 H39 1.094158 1_555
C7 H35 1.094645 1_555
C7 H31 1.095995 1_555
C7 N3 1.490853 1_545
C8 H56 1.094900 1_555
C8 H52 1.094901 1_555
C8 H48 1.095808 1_555
C8 N4 1.491950 1_555
C9 H57 1.094900 1_555
C9 H53 1.094901 1_555
C9 H49 1.095808 1_555
C9 N5 1.491950 1_555
C10 H58 1.094900 1_555
C10 H54 1.094901 1_555
C10 H50 1.095808 1_555
C10 N6 1.491950 1_555
C11 H59 1.094900 1_555
C11 H55 1.094901 1_555
C11 H51 1.095808 1_555
C11 N7 1.491950 1_555
C12 H64 1.093926 1_555
C12 H60 1.094143 1_555
C12 H68 1.094253 1_555
C12 N4 1.501723 1_555
C13 H65 1.093926 1_455
C13 H61 1.094143 1_555
C13 H69 1.094253 1_555
C13 N5 1.501723 1_555
C14 H66 1.093926 1_655
C14 H62 1.094143 1_555
C14 H70 1.094253 1_555
C14 N6 1.501723 1_545
C15 H67 1.093926 1_555
C15 H63 1.094143 1_555
C15 H71 1.094253 1_555
C15 N7 1.501723 1_565
O0 U0 1.810621 1_555
O1 U1 1.810621 1_554
O2 U2 1.810621 1_555
O3 U3 1.810621 1_556
O4 U0 1.804969 1_555
O5 U1 1.804969 1_555
O6 U2 1.804969 1_555
O7 U3 1.804969 1_555
O8 Se0 1.679762 1_555
O8 U0 2.353067 1_555
O9 Se1 1.679762 1_555
O9 U1 2.353067 1_554
O10 Se2 1.679762 1_555
O10 U2 2.353067 1_555
O11 Se3 1.679762 1_555
O11 U3 2.353067 1_556
O12 Se0 1.648708 1_555
O13 Se1 1.648708 1_555
O14 Se2 1.648708 1_555
O15 Se3 1.648708 1_555
O16 Se0 1.675415 1_555
O16 U2 2.368704 1_555
O17 Se1 1.675415 1_455
O17 U3 2.368704 1_555
O18 Se2 1.675415 1_655
O18 U0 2.368704 1_555
O19 Se3 1.675415 1_555
O19 U1 2.368704 1_555
O20 Se0 1.692665 1_555
O20 U4 2.437561 1_565
O21 Se1 1.692665 1_555
O21 U5 2.437561 1_545
O22 Se2 1.692665 1_555
O22 U6 2.437561 1_555
O23 Se3 1.692665 1_555
O23 U7 2.437561 1_555
O24 Se4 1.637091 1_555
O25 Se5 1.637091 1_555
O26 Se6 1.637091 1_555
O27 Se7 1.637091 1_555
O28 Se4 1.690930 1_555
O28 U0 2.402135 1_555
O29 Se5 1.690930 1_556
O29 U1 2.402135 1_555
O30 Se6 1.690930 1_555
O30 U2 2.402135 1_555
O31 Se7 1.690930 1_554
O31 U3 2.402135 1_555
O32 Se4 1.687507 1_555
O32 U2 2.425689 1_655
O33 Se5 1.687507 1_555
O33 U3 2.425689 1_555
O34 Se6 1.687507 1_555
O34 U0 2.425689 1_555
O35 Se7 1.687507 1_555
O35 U1 2.425689 1_455
O36 Se4 1.701121 1_545
O36 U4 2.373936 1_555
O37 Se5 1.701121 1_565
O37 U5 2.373936 1_555
O38 Se6 1.701121 1_555
O38 U6 2.373936 1_555
O39 Se7 1.701121 1_555
O39 U7 2.373936 1_555
O40 U4 1.807435 1_555
O41 U5 1.807435 1_555
O42 U6 1.807435 1_555
O43 U7 1.807435 1_555
O44 U4 1.801771 1_555
O45 U5 1.801771 1_556
O46 U6 1.801771 1_555
O47 U7 1.801771 1_554
O48 U4 2.534197 1_555
O49 U5 2.534197 1_556
O50 U6 2.534197 1_555
O51 U7 2.534197 1_554
O52 Se8 1.683624 1_555
O52 U4 2.363843 1_555
O53 Se9 1.683624 1_555
O53 U5 2.363843 1_556
O54 Se10 1.683624 1_555
O54 U6 2.363843 1_555
O55 Se11 1.683624 1_555
O55 U7 2.363843 1_554
O56 Se8 1.678868 1_555
O56 U6 2.379563 1_655
O57 Se9 1.678868 1_555
O57 U7 2.379563 1_555
O58 Se10 1.678868 1_555
O58 U4 2.379563 1_555
O59 Se11 1.678868 1_555
O59 U5 2.379563 1_455
O60 Se8 1.686633 1_555
O60 U0 2.467396 1_555
O61 Se9 1.686633 1_555
O61 U1 2.467396 1_555
O62 Se10 1.686633 1_555
O62 U2 2.467396 1_545
O63 Se11 1.686633 1_555
O63 U3 2.467396 1_565
O64 Se8 1.650538 1_555
O65 Se9 1.650538 1_555
O66 Se10 1.650538 1_555
O67 Se11 1.650538 1_555
