# generated using pymatgen
data_CaMg30ZnO32
_symmetry_space_group_name_H-M   'P 1'
_cell_length_a   8.56314300
_cell_length_b   8.56314300
_cell_length_c   8.56497200
_cell_angle_alpha   90.00000000
_cell_angle_beta   90.00000000
_cell_angle_gamma   90.00000000
_symmetry_Int_Tables_number   1
_chemical_formula_structural   CaMg30ZnO32
_chemical_formula_sum   'Ca1 Mg30 Zn1 O32'
_cell_volume   628.04728233
_cell_formula_units_Z   1
loop_
 _symmetry_equiv_pos_site_id
 _symmetry_equiv_pos_as_xyz
  1  'x, y, z'
loop_
 _atom_site_type_symbol
 _atom_site_label
 _atom_site_symmetry_multiplicity
 _atom_site_fract_x
 _atom_site_fract_y
 _atom_site_fract_z
 _atom_site_occupancy
  Ca  Ca0  1  0.00000000  0.00000000  0.00000000  1
  Mg  Mg0  1  0.00000000  0.50000000  0.00000000  1
  Mg  Mg1  1  0.50000000  0.00000000  0.00000000  1
  Mg  Mg2  1  0.00000000  0.00000000  0.50000000  1
  Mg  Mg3  1  0.00000000  0.50000000  0.50000000  1
  Mg  Mg4  1  0.50000000  0.00000000  0.50000000  1
  Mg  Mg5  1  0.50000000  0.50000000  0.50000000  1
  Mg  Mg6  1  0.25301100  0.25301100  0.00000000  1
  Mg  Mg7  1  0.25301100  0.74698900  0.00000000  1
  Mg  Mg8  1  0.74698900  0.25301100  0.00000000  1
  Mg  Mg9  1  0.74698900  0.74698900  0.00000000  1
  Mg  Mg10  1  0.25029700  0.25029700  0.50000000  1
  Mg  Mg11  1  0.25029700  0.74970300  0.50000000  1
  Mg  Mg12  1  0.74970300  0.25029700  0.50000000  1
  Mg  Mg13  1  0.74970300  0.74970300  0.50000000  1
  Mg  Mg14  1  0.00000000  0.25306900  0.25289400  1
  Mg  Mg15  1  0.00000000  0.74693100  0.25289400  1
  Mg  Mg16  1  0.50000000  0.25023700  0.25023100  1
  Mg  Mg17  1  0.50000000  0.74976300  0.25023100  1
  Mg  Mg18  1  0.00000000  0.25306900  0.74710600  1
  Mg  Mg19  1  0.00000000  0.74693100  0.74710600  1
  Mg  Mg20  1  0.50000000  0.25023700  0.74976900  1
  Mg  Mg21  1  0.50000000  0.74976300  0.74976900  1
  Mg  Mg22  1  0.25306900  0.00000000  0.25289400  1
  Mg  Mg23  1  0.25023700  0.50000000  0.25023100  1
  Mg  Mg24  1  0.74693100  0.00000000  0.25289400  1
  Mg  Mg25  1  0.74976300  0.50000000  0.25023100  1
  Mg  Mg26  1  0.25306900  0.00000000  0.74710600  1
  Mg  Mg27  1  0.25023700  0.50000000  0.74976900  1
  Mg  Mg28  1  0.74693100  0.00000000  0.74710600  1
  Mg  Mg29  1  0.74976300  0.50000000  0.74976900  1
  Zn  Zn0  1  0.50000000  0.50000000  0.00000000  1
  O  O0  1  0.00000000  0.00000000  0.26244900  1
  O  O1  1  0.00000000  0.50000000  0.25239500  1
  O  O2  1  0.50000000  0.00000000  0.25239500  1
  O  O3  1  0.50000000  0.50000000  0.25394900  1
  O  O4  1  0.00000000  0.00000000  0.73755100  1
  O  O5  1  0.00000000  0.50000000  0.74760500  1
  O  O6  1  0.50000000  0.00000000  0.74760500  1
  O  O7  1  0.50000000  0.50000000  0.74605100  1
  O  O8  1  0.25006200  0.25006200  0.24957500  1
  O  O9  1  0.25006200  0.74993800  0.24957500  1
  O  O10  1  0.74993800  0.25006200  0.24957500  1
  O  O11  1  0.74993800  0.74993800  0.24957500  1
  O  O12  1  0.25006200  0.25006200  0.75042500  1
  O  O13  1  0.25006200  0.74993800  0.75042500  1
  O  O14  1  0.74993800  0.25006200  0.75042500  1
  O  O15  1  0.74993800  0.74993800  0.75042500  1
  O  O16  1  0.00000000  0.26227700  0.00000000  1
  O  O17  1  0.00000000  0.73772300  0.00000000  1
  O  O18  1  0.50000000  0.24887400  0.00000000  1
  O  O19  1  0.50000000  0.75112600  0.00000000  1
  O  O20  1  0.00000000  0.25217200  0.50000000  1
  O  O21  1  0.00000000  0.74782800  0.50000000  1
  O  O22  1  0.50000000  0.25016500  0.50000000  1
  O  O23  1  0.50000000  0.74983500  0.50000000  1
  O  O24  1  0.26227700  0.00000000  0.00000000  1
  O  O25  1  0.24887400  0.50000000  0.00000000  1
  O  O26  1  0.73772300  0.00000000  0.00000000  1
  O  O27  1  0.75112600  0.50000000  0.00000000  1
  O  O28  1  0.25217200  0.00000000  0.50000000  1
  O  O29  1  0.25016500  0.50000000  0.50000000  1
  O  O30  1  0.74782800  0.00000000  0.50000000  1
  O  O31  1  0.74983500  0.50000000  0.50000000  1
loop_
_geom_bond_atom_site_label_1
_geom_bond_atom_site_label_2
_geom_bond_distance
_geom_bond_site_symmetry_2
Ca0 O16 2.245915 1_555
Ca0 O26 2.245915 1_455
Ca0 O17 2.245915 1_545
Ca0 O24 2.245915 1_555
Ca0 O0 2.247868 1_555
Ca0 O4 2.247868 1_554
Mg0 O16 2.035656 1_555
Mg0 O17 2.035656 1_555
Mg0 O25 2.131144 1_555
Mg0 O27 2.131144 1_455
Mg0 O1 2.161756 1_555
Mg0 O5 2.161756 1_554
Mg1 O26 2.035656 1_555
Mg1 O24 2.035656 1_555
Mg1 O18 2.131144 1_555
Mg1 O19 2.131144 1_545
Mg1 O2 2.161756 1_555
Mg1 O6 2.161756 1_554
Mg2 O4 2.034618 1_555
Mg2 O0 2.034618 1_555
Mg2 O30 2.159385 1_455
Mg2 O21 2.159385 1_545
Mg2 O28 2.159385 1_555
Mg2 O20 2.159385 1_555
Mg3 O5 2.120730 1_555
Mg3 O1 2.120730 1_555
Mg3 O20 2.122187 1_555
Mg3 O21 2.122187 1_555
Mg3 O31 2.142199 1_455
Mg3 O29 2.142199 1_555
Mg4 O6 2.120730 1_555
Mg4 O2 2.120730 1_555
Mg4 O28 2.122187 1_555
Mg4 O30 2.122187 1_555
Mg4 O23 2.142199 1_545
Mg4 O22 2.142199 1_555
Mg5 O7 2.107420 1_555
Mg5 O3 2.107420 1_555
Mg5 O22 2.139373 1_555
Mg5 O29 2.139373 1_555
Mg5 O31 2.139373 1_555
Mg5 O23 2.139373 1_555
Mg6 O25 2.115299 1_555
Mg6 O18 2.115299 1_555
Mg6 O8 2.137901 1_555
Mg6 O12 2.137901 1_554
Mg6 O24 2.168022 1_555
Mg6 O16 2.168022 1_555
Mg7 O25 2.115299 1_555
Mg7 O19 2.115299 1_555
Mg7 O13 2.137901 1_554
Mg7 O9 2.137901 1_555
Mg7 O17 2.168022 1_555
Mg7 O24 2.168022 1_565
Mg8 O27 2.115299 1_555
Mg8 O18 2.115299 1_555
Mg8 O10 2.137901 1_555
Mg8 O14 2.137901 1_554
Mg8 O16 2.168022 1_655
Mg8 O26 2.168022 1_555
Mg9 O27 2.115299 1_555
Mg9 O19 2.115299 1_555
Mg9 O15 2.137901 1_554
Mg9 O11 2.137901 1_555
Mg9 O17 2.168022 1_655
Mg9 O26 2.168022 1_565
Mg10 O22 2.138243 1_555
Mg10 O29 2.138243 1_555
Mg10 O20 2.143389 1_555
Mg10 O28 2.143389 1_555
Mg10 O12 2.144885 1_555
Mg10 O8 2.144885 1_555
Mg11 O23 2.138243 1_555
Mg11 O29 2.138243 1_555
Mg11 O21 2.143389 1_555
Mg11 O28 2.143389 1_565
Mg11 O9 2.144885 1_555
Mg11 O13 2.144885 1_555
Mg12 O22 2.138243 1_555
Mg12 O31 2.138243 1_555
Mg12 O30 2.143389 1_555
Mg12 O20 2.143389 1_655
Mg12 O10 2.144885 1_555
Mg12 O14 2.144885 1_555
Mg13 O23 2.138243 1_555
Mg13 O31 2.138243 1_555
Mg13 O30 2.143389 1_565
Mg13 O21 2.143389 1_655
Mg13 O11 2.144885 1_555
Mg13 O15 2.144885 1_555
Mg14 O1 2.114510 1_555
Mg14 O20 2.116470 1_555
Mg14 O8 2.141660 1_555
Mg14 O10 2.141660 1_455
Mg14 O16 2.167465 1_555
Mg14 O0 2.168611 1_555
Mg15 O1 2.114510 1_555
Mg15 O21 2.116470 1_555
Mg15 O9 2.141660 1_555
Mg15 O11 2.141660 1_455
Mg15 O17 2.167465 1_555
Mg15 O0 2.168611 1_565
Mg16 O3 2.138993 1_555
Mg16 O22 2.139265 1_555
Mg16 O8 2.140263 1_555
Mg16 O10 2.140263 1_555
Mg16 O2 2.142895 1_555
Mg16 O18 2.143253 1_555
Mg17 O3 2.138993 1_555
Mg17 O23 2.139265 1_555
Mg17 O11 2.140263 1_555
Mg17 O9 2.140263 1_555
Mg17 O2 2.142895 1_565
Mg17 O19 2.143253 1_555
Mg18 O5 2.114510 1_555
Mg18 O20 2.116470 1_555
Mg18 O14 2.141660 1_455
Mg18 O12 2.141660 1_555
Mg18 O16 2.167465 1_556
Mg18 O4 2.168611 1_555
Mg19 O5 2.114510 1_555
Mg19 O21 2.116470 1_555
Mg19 O15 2.141660 1_455
Mg19 O13 2.141660 1_555
Mg19 O17 2.167465 1_556
Mg19 O4 2.168611 1_565
Mg20 O7 2.138993 1_555
Mg20 O22 2.139265 1_555
Mg20 O12 2.140263 1_555
Mg20 O14 2.140263 1_555
Mg20 O6 2.142895 1_555
Mg20 O18 2.143253 1_556
Mg21 O7 2.138993 1_555
Mg21 O23 2.139265 1_555
Mg21 O13 2.140263 1_555
Mg21 O15 2.140263 1_555
Mg21 O6 2.142895 1_565
Mg21 O19 2.143253 1_556
Mg22 O2 2.114510 1_555
Mg22 O28 2.116470 1_555
Mg22 O8 2.141660 1_555
Mg22 O9 2.141660 1_545
Mg22 O24 2.167465 1_555
Mg22 O0 2.168611 1_555
Mg23 O3 2.138993 1_555
Mg23 O29 2.139265 1_555
Mg23 O8 2.140263 1_555
Mg23 O9 2.140263 1_555
Mg23 O1 2.142895 1_555
Mg23 O25 2.143253 1_555
Mg24 O2 2.114510 1_555
Mg24 O30 2.116470 1_555
Mg24 O11 2.141660 1_545
Mg24 O10 2.141660 1_555
Mg24 O26 2.167465 1_555
Mg24 O0 2.168611 1_655
Mg25 O3 2.138993 1_555
Mg25 O31 2.139265 1_555
Mg25 O11 2.140263 1_555
Mg25 O10 2.140263 1_555
Mg25 O1 2.142895 1_655
Mg25 O27 2.143253 1_555
Mg26 O6 2.114510 1_555
Mg26 O28 2.116470 1_555
Mg26 O13 2.141660 1_545
Mg26 O12 2.141660 1_555
Mg26 O24 2.167465 1_556
Mg26 O4 2.168611 1_555
Mg27 O7 2.138993 1_555
Mg27 O29 2.139265 1_555
Mg27 O13 2.140263 1_555
Mg27 O12 2.140263 1_555
Mg27 O5 2.142895 1_555
Mg27 O25 2.143253 1_556
Mg28 O6 2.114510 1_555
Mg28 O30 2.116470 1_555
Mg28 O15 2.141660 1_545
Mg28 O14 2.141660 1_555
Mg28 O26 2.167465 1_556
Mg28 O4 2.168611 1_655
Mg29 O7 2.138993 1_555
Mg29 O31 2.139265 1_555
Mg29 O14 2.140263 1_555
Mg29 O15 2.140263 1_555
Mg29 O5 2.142895 1_655
Mg29 O27 2.143253 1_556
O3 Zn0 2.175066 1_555
O7 Zn0 2.175066 1_556
O18 Zn0 2.150428 1_555
O19 Zn0 2.150428 1_555
O25 Zn0 2.150428 1_555
O27 Zn0 2.150428 1_555
