# generated using pymatgen
data_Rb3HoV2O8
_symmetry_space_group_name_H-M   'P 1'
_cell_length_a   6.07384606
_cell_length_b   6.07384606
_cell_length_c   7.87208500
_cell_angle_alpha   90.00000000
_cell_angle_beta   90.00000000
_cell_angle_gamma   120.00000062
_symmetry_Int_Tables_number   1
_chemical_formula_structural   Rb3HoV2O8
_chemical_formula_sum   'Rb3 Ho1 V2 O8'
_cell_volume   251.50577671
_cell_formula_units_Z   1
loop_
 _symmetry_equiv_pos_site_id
 _symmetry_equiv_pos_as_xyz
  1  'x, y, z'
loop_
 _atom_site_type_symbol
 _atom_site_label
 _atom_site_symmetry_multiplicity
 _atom_site_fract_x
 _atom_site_fract_y
 _atom_site_fract_z
 _atom_site_occupancy
  Rb  Rb0  1  0.33333300  0.66666700  0.68866700  1
  Rb  Rb1  1  0.66666700  0.33333300  0.31133300  1
  Rb  Rb2  1  0.00000000  0.00000000  0.00000000  1
  Ho  Ho0  1  0.00000000  0.00000000  0.50000000  1
  V  V0  1  0.33333300  0.66666700  0.25184400  1
  V  V1  1  0.66666700  0.33333300  0.74815600  1
  O  O0  1  0.33333300  0.66666700  0.03851500  1
  O  O1  1  0.66666700  0.33333300  0.96148500  1
  O  O2  1  0.17499200  0.82500800  0.32992800  1
  O  O3  1  0.82500800  0.17499200  0.67007200  1
  O  O4  1  0.17499200  0.34998400  0.32992800  1
  O  O5  1  0.82500800  0.65001600  0.67007200  1
  O  O6  1  0.65001600  0.82500800  0.32992800  1
  O  O7  1  0.34998400  0.17499200  0.67007200  1
loop_
_geom_bond_atom_site_label_1
_geom_bond_atom_site_label_2
_geom_bond_distance
_geom_bond_site_symmetry_2
Ho0 O7 2.276302 1_555
Ho0 O4 2.276302 1_555
Ho0 O5 2.276302 1_445
Ho0 O6 2.276302 1_445
Ho0 O2 2.276302 1_545
Ho0 O3 2.276302 1_455
O0 V0 1.679344 1_555
O0 Rb0 2.754033 1_554
O0 Rb2 3.519816 1_565
O0 Rb2 3.519821 1_555
O0 Rb2 3.519821 1_665
O1 V1 1.679344 1_555
O1 Rb1 2.754033 1_556
O1 Rb2 3.519816 1_656
O1 Rb2 3.519821 1_666
O1 Rb2 3.519821 1_556
O2 V0 1.775573 1_555
O2 Rb1 3.041710 1_455
O2 Rb1 3.041710 1_565
O2 Rb2 3.183499 1_565
O2 Rb0 3.278709 1_555
O3 V1 1.775573 1_555
O3 Rb0 3.041710 1_545
O3 Rb0 3.041710 1_655
O3 Rb2 3.183499 1_656
O3 Rb1 3.278709 1_555
O4 V0 1.775578 1_555
O4 Rb1 3.041707 1_455
O4 Rb1 3.041713 1_555
O4 Rb2 3.183499 1_555
O4 Rb0 3.278712 1_555
O5 V1 1.775578 1_555
O5 Rb0 3.041707 1_655
O5 Rb0 3.041713 1_555
O5 Rb2 3.183499 1_666
O5 Rb1 3.278712 1_555
O6 V0 1.775578 1_555
O6 Rb1 3.041707 1_565
O6 Rb1 3.041713 1_555
O6 Rb2 3.183499 1_665
O6 Rb0 3.278712 1_555
O7 V1 1.775578 1_555
O7 Rb0 3.041707 1_545
O7 Rb0 3.041713 1_555
O7 Rb2 3.183499 1_556
O7 Rb1 3.278712 1_555
