# generated using pymatgen
data_Eu10Mn6Sb13
_symmetry_space_group_name_H-M   'P 1'
_cell_length_a   12.08766795
_cell_length_b   12.08766795
_cell_length_c   12.22779773
_cell_angle_alpha   101.14124358
_cell_angle_beta   101.14124358
_cell_angle_gamma   102.63710382
_symmetry_Int_Tables_number   1
_chemical_formula_structural   Eu10Mn6Sb13
_chemical_formula_sum   'Eu20 Mn12 Sb26'
_cell_volume   1657.93189534
_cell_formula_units_Z   2
loop_
 _symmetry_equiv_pos_site_id
 _symmetry_equiv_pos_as_xyz
  1  'x, y, z'
loop_
 _atom_site_type_symbol
 _atom_site_label
 _atom_site_symmetry_multiplicity
 _atom_site_fract_x
 _atom_site_fract_y
 _atom_site_fract_z
 _atom_site_occupancy
  Eu  Eu0  1  0.62133115  0.37866885  0.50000000  1
  Eu  Eu1  1  0.37866885  0.62133115  0.50000000  1
  Eu  Eu2  1  0.61043355  0.38956645  -0.00000000  1
  Eu  Eu3  1  0.38956645  0.61043355  -0.00000000  1
  Eu  Eu4  1  0.93869489  0.70152793  0.17225522  1
  Eu  Eu5  1  0.70152793  0.93869489  0.17225522  1
  Eu  Eu6  1  0.06130511  0.29847207  0.82774478  1
  Eu  Eu7  1  0.29847207  0.06130511  0.82774478  1
  Eu  Eu8  1  0.85311823  0.61714590  0.83200962  1
  Eu  Eu9  1  0.61714590  0.85311823  0.83200962  1
  Eu  Eu10  1  0.14688177  0.38285410  0.16799038  1
  Eu  Eu11  1  0.38285410  0.14688177  0.16799038  1
  Eu  Eu12  1  0.87593369  0.62844494  0.50107544  1
  Eu  Eu13  1  0.62844494  0.87593369  0.50107544  1
  Eu  Eu14  1  0.12406631  0.37155506  0.49892456  1
  Eu  Eu15  1  0.37155506  0.12406631  0.49892456  1
  Eu  Eu16  1  0.15205061  0.84794939  0.00000000  1
  Eu  Eu17  1  0.84794939  0.15205061  0.00000000  1
  Eu  Eu18  1  0.12767247  0.87232753  0.50000000  1
  Eu  Eu19  1  0.87232753  0.12767247  0.50000000  1
  Mn  Mn0  1  0.66323046  0.66323046  0.22966377  1
  Mn  Mn1  1  0.33676954  0.33676954  0.77033623  1
  Mn  Mn2  1  0.54824770  0.54824770  0.77523770  1
  Mn  Mn3  1  0.45175230  0.45175230  0.22476230  1
  Mn  Mn4  1  0.77346337  0.31410113  0.77550912  1
  Mn  Mn5  1  0.31410113  0.77346337  0.77550912  1
  Mn  Mn6  1  0.22653663  0.68589887  0.22449088  1
  Mn  Mn7  1  0.68589887  0.22653663  0.22449088  1
  Mn  Mn8  1  0.88607676  0.42484146  0.22403230  1
  Mn  Mn9  1  0.42484146  0.88607676  0.22403230  1
  Mn  Mn10  1  0.11392324  0.57515854  0.77596770  1
  Mn  Mn11  1  0.57515854  0.11392324  0.77596770  1
  Sb  Sb0  1  0.65365094  0.65365094  0.62908543  1
  Sb  Sb1  1  0.34634906  0.34634906  0.37091457  1
  Sb  Sb2  1  0.68441622  0.45518857  0.27651801  1
  Sb  Sb3  1  0.45518857  0.68441622  0.27651801  1
  Sb  Sb4  1  0.31558378  0.54481143  0.72348199  1
  Sb  Sb5  1  0.54481143  0.31558378  0.72348199  1
  Sb  Sb6  1  0.66660812  0.66660812  0.00273697  1
  Sb  Sb7  1  0.33339188  0.33339188  0.99726303  1
  Sb  Sb8  1  0.88706179  0.41834124  -0.00003273  1
  Sb  Sb9  1  0.41834124  0.88706179  -0.00003273  1
  Sb  Sb10  1  0.11293821  0.58165876  0.00003273  1
  Sb  Sb11  1  0.58165876  0.11293821  0.00003273  1
  Sb  Sb12  1  0.08944962  0.77384493  0.72266195  1
  Sb  Sb13  1  0.77384493  0.08944962  0.72266195  1
  Sb  Sb14  1  0.91055038  0.22615507  0.27733805  1
  Sb  Sb15  1  0.22615507  0.91055038  0.27733805  1
  Sb  Sb16  1  0.84203531  0.84203531  0.37816004  1
  Sb  Sb17  1  0.15796469  0.15796469  0.62183996  1
  Sb  Sb18  1  0.93299938  0.93299938  0.75204880  1
  Sb  Sb19  1  0.06700062  0.06700062  0.24795120  1
  Sb  Sb20  1  0.89768806  0.89768806  0.99970562  1
  Sb  Sb21  1  0.10231194  0.10231194  0.00029438  1
  Sb  Sb22  1  0.90888431  0.41227016  0.63991999  1
  Sb  Sb23  1  0.41227016  0.90888431  0.63991999  1
  Sb  Sb24  1  0.09111569  0.58772984  0.36008001  1
  Sb  Sb25  1  0.58772984  0.09111569  0.36008001  1
loop_
_geom_bond_atom_site_label_1
_geom_bond_atom_site_label_2
_geom_bond_distance
_geom_bond_site_symmetry_2
Eu0 Sb2 3.221508 1_555
Eu0 Sb5 3.221508 1_555
Eu0 Sb0 3.295191 1_555
Eu0 Sb1 3.295191 1_555
Eu0 Sb25 3.462547 1_555
Eu0 Sb22 3.462547 1_555
Eu1 Sb3 3.221508 1_555
Eu1 Sb4 3.221508 1_555
Eu1 Sb0 3.295191 1_555
Eu1 Sb1 3.295191 1_555
Eu1 Sb24 3.462547 1_555
Eu1 Sb23 3.462547 1_555
Eu2 Sb2 3.216531 1_555
Eu2 Sb5 3.216531 1_554
Eu2 Sb6 3.260296 1_555
Eu2 Sb7 3.260296 1_554
Eu2 Sb8 3.285361 1_555
Eu2 Sb11 3.285361 1_555
Eu3 Sb3 3.216531 1_555
Eu3 Sb4 3.216531 1_554
Eu3 Sb7 3.260296 1_554
Eu3 Sb6 3.260296 1_555
Eu3 Sb9 3.285361 1_555
Eu3 Sb10 3.285361 1_555
Eu4 Sb16 3.307780 1_555
Eu4 Sb24 3.354984 1_655
Eu4 Sb6 3.422205 1_555
Eu4 Mn6 3.467685 1_655
Eu4 Mn8 3.469033 1_555
Eu4 Mn0 3.485480 1_555
Eu4 Sb8 3.509317 1_555
Eu4 Sb20 3.516113 1_554
Eu4 Sb10 3.583364 1_655
Eu4 Sb15 3.645134 1_655
Eu5 Sb16 3.307780 1_555
Eu5 Sb25 3.354984 1_565
Eu5 Sb6 3.422205 1_555
Eu5 Mn7 3.467685 1_565
Eu5 Mn9 3.469033 1_555
Eu5 Mn0 3.485480 1_555
Eu5 Sb9 3.509317 1_555
Eu5 Sb20 3.516113 1_554
Eu5 Sb11 3.583364 1_565
Eu5 Sb14 3.645134 1_565
Eu6 Sb17 3.307780 1_555
Eu6 Sb22 3.354984 1_455
Eu6 Sb7 3.422205 1_555
Eu6 Mn4 3.467685 1_455
Eu6 Mn10 3.469033 1_555
Eu6 Mn1 3.485480 1_555
Eu6 Sb10 3.509317 1_556
Eu6 Sb21 3.516113 1_556
Eu6 Sb8 3.583364 1_456
Eu6 Sb13 3.645134 1_455
Eu7 Sb17 3.307780 1_555
Eu7 Sb23 3.354984 1_545
Eu7 Sb7 3.422205 1_555
Eu7 Mn5 3.467685 1_545
Eu7 Mn11 3.469033 1_555
Eu7 Mn1 3.485480 1_555
Eu7 Sb11 3.509317 1_556
Eu7 Sb21 3.516113 1_556
Eu7 Sb9 3.583364 1_546
Eu7 Sb12 3.645134 1_545
Eu8 Sb0 3.277441 1_555
Eu8 Sb22 3.346440 1_555
Eu8 Sb6 3.424111 1_556
Eu8 Mn4 3.470501 1_555
Eu8 Mn10 3.473634 1_655
Eu8 Sb20 3.475772 1_555
Eu8 Sb8 3.489144 1_556
Eu8 Mn2 3.493000 1_555
Eu8 Sb10 3.564420 1_656
Eu8 Sb12 3.691004 1_655
Eu9 Sb0 3.277441 1_555
Eu9 Sb23 3.346440 1_555
Eu9 Sb6 3.424111 1_556
Eu9 Mn5 3.470501 1_555
Eu9 Mn11 3.473634 1_565
Eu9 Sb20 3.475772 1_555
Eu9 Sb9 3.489144 1_556
Eu9 Mn2 3.493000 1_555
Eu9 Sb11 3.564420 1_566
Eu9 Sb13 3.691004 1_565
Eu10 Sb1 3.277441 1_555
Eu10 Sb24 3.346440 1_555
Eu10 Sb7 3.424111 1_554
Eu10 Mn6 3.470501 1_555
Eu10 Mn8 3.473634 1_455
Eu10 Sb21 3.475772 1_555
Eu10 Sb10 3.489144 1_555
Eu10 Mn3 3.493000 1_555
Eu10 Sb8 3.564420 1_455
Eu10 Sb14 3.691004 1_455
Eu11 Sb1 3.277441 1_555
Eu11 Sb25 3.346440 1_555
Eu11 Sb7 3.424111 1_554
Eu11 Mn7 3.470501 1_555
Eu11 Mn9 3.473634 1_545
Eu11 Sb21 3.475772 1_555
Eu11 Sb11 3.489144 1_555
Eu11 Mn3 3.493000 1_555
Eu11 Sb9 3.564420 1_545
Eu11 Sb15 3.691004 1_545
Eu12 Sb2 3.237992 1_555
Eu12 Sb12 3.250221 1_655
Eu12 Sb16 3.288936 1_555
Eu12 Sb0 3.400217 1_555
Eu12 Sb22 3.431848 1_555
Eu12 Sb24 3.456194 1_655
Eu13 Sb3 3.237992 1_555
Eu13 Sb13 3.250221 1_565
Eu13 Sb16 3.288936 1_555
Eu13 Sb0 3.400217 1_555
Eu13 Sb23 3.431848 1_555
Eu13 Sb25 3.456194 1_565
Eu14 Sb4 3.237992 1_555
Eu14 Sb14 3.250221 1_455
Eu14 Sb17 3.288936 1_555
Eu14 Sb1 3.400217 1_555
Eu14 Sb24 3.431848 1_555
Eu14 Sb22 3.456194 1_455
Eu15 Sb5 3.237992 1_555
Eu15 Sb15 3.250221 1_545
Eu15 Sb17 3.288936 1_555
Eu15 Sb1 3.400217 1_555
Eu15 Sb25 3.431848 1_555
Eu15 Sb23 3.456194 1_545
Eu16 Sb9 3.149462 1_555
Eu16 Sb10 3.149462 1_555
Eu16 Sb15 3.226950 1_555
Eu16 Sb12 3.226950 1_554
Eu16 Sb20 3.258888 1_454
Eu16 Sb21 3.258888 1_565
Eu17 Sb11 3.149462 1_555
Eu17 Sb8 3.149462 1_555
Eu17 Sb14 3.226950 1_555
Eu17 Sb13 3.226950 1_554
Eu17 Sb20 3.258888 1_544
Eu17 Sb21 3.258888 1_655
Eu18 Sb12 3.246771 1_555
Eu18 Sb15 3.246771 1_555
Eu18 Sb17 3.394530 1_565
Eu18 Sb16 3.394530 1_455
Eu18 Sb23 3.424183 1_555
Eu18 Sb24 3.424183 1_555
Eu19 Sb13 3.246771 1_555
Eu19 Sb14 3.246771 1_555
Eu19 Sb17 3.394530 1_655
Eu19 Sb16 3.394530 1_545
Eu19 Sb25 3.424183 1_555
Eu19 Sb22 3.424183 1_555
Mn0 Sb3 2.738542 1_555
Mn0 Sb2 2.738542 1_555
Mn0 Sb16 2.750005 1_555
Mn0 Sb6 2.791015 1_555
Mn1 Sb5 2.738542 1_555
Mn1 Sb4 2.738542 1_555
Mn1 Sb17 2.750005 1_555
Mn1 Sb7 2.791015 1_555
Mn2 Sb0 2.736779 1_555
Mn2 Sb5 2.750005 1_555
Mn2 Sb4 2.750005 1_555
Mn2 Sb6 2.803664 1_556
Mn3 Sb1 2.736779 1_555
Mn3 Sb3 2.750005 1_555
Mn3 Sb2 2.750005 1_555
Mn3 Sb7 2.803664 1_554
Mn4 Sb13 2.668351 1_555
Mn4 Sb5 2.718562 1_555
Mn4 Sb8 2.730599 1_556
Mn4 Sb22 2.792071 1_555
Mn5 Sb12 2.668351 1_555
Mn5 Sb4 2.718562 1_555
Mn5 Sb9 2.730599 1_556
Mn5 Sb23 2.792071 1_555
Mn6 Sb15 2.668351 1_555
Mn6 Sb3 2.718562 1_555
Mn6 Sb10 2.730599 1_555
Mn6 Sb24 2.792071 1_555
Mn7 Sb14 2.668351 1_555
Mn7 Sb2 2.718562 1_555
Mn7 Sb11 2.730599 1_555
Mn7 Sb25 2.792071 1_555
Mn8 Sb14 2.668641 1_555
Mn8 Sb2 2.719047 1_555
Mn8 Sb8 2.728142 1_555
Mn8 Sb24 2.791495 1_655
Mn9 Sb15 2.668641 1_555
Mn9 Sb3 2.719047 1_555
Mn9 Sb9 2.728142 1_555
Mn9 Sb25 2.791495 1_565
Mn10 Sb12 2.668641 1_555
Mn10 Sb4 2.719047 1_555
Mn10 Sb10 2.728142 1_556
Mn10 Sb22 2.791495 1_455
Mn11 Sb13 2.668641 1_555
Mn11 Sb5 2.719047 1_555
Mn11 Sb11 2.728142 1_556
Mn11 Sb23 2.791495 1_545
Sb10 Sb8 2.998662 1_455
Sb11 Sb9 2.998662 1_545
Sb12 Sb18 2.998969 1_455
Sb13 Sb18 2.998969 1_545
Sb14 Sb19 2.998969 1_655
Sb15 Sb19 2.998969 1_565
Sb18 Sb20 3.233309 1_555
Sb18 Sb21 3.310131 1_666
Sb19 Sb21 3.233309 1_555
Sb19 Sb20 3.310131 1_444
