# generated using pymatgen
data_PrDy3
_symmetry_space_group_name_H-M   'P 1'
_cell_length_a   7.31262635
_cell_length_b   7.31262635
_cell_length_c   5.83433844
_cell_angle_alpha   90.00000000
_cell_angle_beta   90.00000000
_cell_angle_gamma   120.00000710
_symmetry_Int_Tables_number   1
_chemical_formula_structural   PrDy3
_chemical_formula_sum   'Pr2 Dy6'
_cell_volume   270.18982145
_cell_formula_units_Z   2
loop_
 _symmetry_equiv_pos_site_id
 _symmetry_equiv_pos_as_xyz
  1  'x, y, z'
loop_
 _atom_site_type_symbol
 _atom_site_label
 _atom_site_symmetry_multiplicity
 _atom_site_fract_x
 _atom_site_fract_y
 _atom_site_fract_z
 _atom_site_occupancy
  Pr  Pr0  1  0.33333300  0.66666700  0.75000000  1
  Pr  Pr1  1  0.66666700  0.33333300  0.25000000  1
  Dy  Dy0  1  0.16399337  0.32798474  0.25000000  1
  Dy  Dy1  1  0.67201526  0.83600663  0.25000000  1
  Dy  Dy2  1  0.16399337  0.83600663  0.25000000  1
  Dy  Dy3  1  0.83600663  0.67201526  0.75000000  1
  Dy  Dy4  1  0.32798474  0.16399337  0.75000000  1
  Dy  Dy5  1  0.83600663  0.16399337  0.75000000  1
loop_
_geom_bond_atom_site_label_1
_geom_bond_atom_site_label_2
_geom_bond_distance
_geom_bond_site_symmetry_2
Dy0 Dy4 3.581085 1_554
Dy0 Dy4 3.581085 1_555
Dy0 Dy5 3.581100 1_455
Dy0 Dy5 3.581100 1_454
Dy0 Dy1 3.597652 1_445
Dy0 Dy2 3.597652 1_545
Dy0 Pr0 3.620808 1_555
Dy0 Pr0 3.620808 1_554
Dy0 Pr1 3.656466 1_555
Dy0 Pr1 3.656474 1_455
Dy0 Dy1 3.714974 1_555
Dy0 Dy2 3.714974 1_555
Dy1 Dy3 3.581085 1_555
Dy1 Dy3 3.581085 1_554
Dy1 Dy5 3.581100 1_564
Dy1 Dy5 3.581100 1_565
Dy1 Dy2 3.597652 1_655
Dy1 Pr0 3.620808 1_555
Dy1 Pr0 3.620808 1_554
Dy1 Pr1 3.656466 1_555
Dy1 Pr1 3.656474 1_565
Dy1 Dy2 3.714974 1_555
Dy2 Dy4 3.581100 1_564
Dy2 Dy4 3.581100 1_565
Dy2 Dy3 3.581100 1_455
Dy2 Dy3 3.581100 1_454
Dy2 Pr0 3.620796 1_554
Dy2 Pr0 3.620796 1_555
Dy2 Pr1 3.656470 1_455
Dy2 Pr1 3.656470 1_565
Dy3 Dy4 3.597652 1_665
Dy3 Dy5 3.597652 1_565
Dy3 Pr1 3.620808 1_556
Dy3 Pr1 3.620808 1_555
Dy3 Pr0 3.656466 1_555
Dy3 Pr0 3.656474 1_655
Dy3 Dy4 3.714974 1_555
Dy3 Dy5 3.714974 1_555
Dy4 Dy5 3.597652 1_455
Dy4 Pr1 3.620808 1_556
Dy4 Pr1 3.620808 1_555
Dy4 Pr0 3.656466 1_555
Dy4 Pr0 3.656474 1_545
Dy4 Dy5 3.714974 1_555
Dy5 Pr1 3.620796 1_556
Dy5 Pr1 3.620796 1_555
Dy5 Pr0 3.656470 1_655
Dy5 Pr0 3.656470 1_545
