# generated using pymatgen
data_Sr3La2Fe4CoO15
_symmetry_space_group_name_H-M   'P 1'
_cell_length_a   5.52664098
_cell_length_b   5.52662401
_cell_length_c   11.67480927
_cell_angle_alpha   103.75672418
_cell_angle_beta   103.75652797
_cell_angle_gamma   60.05731808
_symmetry_Int_Tables_number   1
_chemical_formula_structural   Sr3La2Fe4CoO15
_chemical_formula_sum   'Sr3 La2 Fe4 Co1 O15'
_cell_volume   297.11151388
_cell_formula_units_Z   1
loop_
 _symmetry_equiv_pos_site_id
 _symmetry_equiv_pos_as_xyz
  1  'x, y, z'
loop_
 _atom_site_type_symbol
 _atom_site_label
 _atom_site_symmetry_multiplicity
 _atom_site_fract_x
 _atom_site_fract_y
 _atom_site_fract_z
 _atom_site_occupancy
  Sr  Sr0  1  0.49998900  0.50000800  0.49999900  1
  Sr  Sr1  1  0.30127800  0.30128600  0.90339700  1
  Sr  Sr2  1  0.69872200  0.69870800  0.09659900  1
  La  La0  1  0.09626000  0.09625000  0.28951000  1
  La  La1  1  0.90375000  0.90375000  0.71049300  1
  Fe  Fe0  1  0.39949500  0.39948800  0.19791600  1
  Fe  Fe1  1  0.60051300  0.60051800  0.80208500  1
  Fe  Fe2  1  0.79951400  0.79950600  0.39875100  1
  Fe  Fe3  1  0.20048600  0.20049000  0.60124700  1
  Co  Co0  1  0.00000200  0.99999600  0.99999900  1
  O  O0  1  0.00000800  0.99999400  0.50000200  1
  O  O1  1  0.99999800  0.49999100  0.50000000  1
  O  O2  1  0.49999700  0.00000000  0.49999900  1
  O  O3  1  0.80901000  0.80905600  0.89914100  1
  O  O4  1  0.19099800  0.19094200  0.10085800  1
  O  O5  1  0.80898200  0.28215800  0.89840400  1
  O  O6  1  0.19101000  0.71784200  0.10159500  1
  O  O7  1  0.28216400  0.80893300  0.89840000  1
  O  O8  1  0.71782900  0.19107900  0.10159700  1
  O  O9  1  0.39798800  0.39796600  0.69933400  1
  O  O10  1  0.60201200  0.60203500  0.30067000  1
  O  O11  1  0.39819500  0.90350300  0.69922200  1
  O  O12  1  0.60180300  0.09650800  0.30078300  1
  O  O13  1  0.90350200  0.39821700  0.69922400  1
  O  O14  1  0.09649600  0.60177500  0.30077500  1
loop_
_geom_bond_atom_site_label_1
_geom_bond_atom_site_label_2
_geom_bond_distance
_geom_bond_site_symmetry_2
La0 O6 2.594601 1_545
La0 O8 2.594660 1_455
La0 O4 2.601743 1_555
La0 O14 2.766167 1_555
La0 O12 2.766219 1_455
La0 O12 2.766317 1_555
La0 O14 2.766345 1_545
La0 O10 2.768523 1_545
La0 O10 2.768705 1_455
La0 O2 2.851253 1_555
La0 O1 2.851261 1_455
La0 O0 2.851491 1_545
La1 O7 2.594563 1_655
La1 O5 2.594568 1_565
La1 O3 2.601711 1_555
La1 O11 2.766176 1_655
La1 O13 2.766235 1_555
La1 O13 2.766281 1_565
La1 O11 2.766358 1_555
La1 O9 2.768554 1_565
La1 O9 2.768674 1_655
La1 O1 2.851335 1_555
La1 O2 2.851338 1_565
La1 O0 2.851464 1_655
Fe0 O10 1.979481 1_555
Fe0 O12 1.986217 1_555
Fe0 O14 1.986227 1_555
Fe0 O8 1.997093 1_555
Fe0 O6 1.997191 1_555
Fe0 O4 2.005942 1_555
Fe1 O9 1.979519 1_555
Fe1 O13 1.986204 1_555
Fe1 O11 1.986205 1_555
Fe1 O7 1.997124 1_555
Fe1 O5 1.997200 1_555
Fe1 O3 2.005903 1_555
Fe2 O10 1.921991 1_555
Fe2 O14 1.924678 1_655
Fe2 O12 1.924696 1_565
Fe2 O0 1.957699 1_655
Fe2 O2 1.960043 1_565
Fe2 O1 1.960044 1_555
Fe3 O9 1.922034 1_555
Fe3 O11 1.924691 1_545
Fe3 O13 1.924693 1_455
Fe3 O0 1.957645 1_545
Fe3 O1 1.959974 1_455
Fe3 O2 1.960019 1_555
Co0 O3 1.882577 1_455
Co0 O4 1.882619 1_566
Co0 O6 1.895716 1_556
Co0 O5 1.895738 1_465
Co0 O7 1.895768 1_555
Co0 O8 1.895802 1_466
O0 Sr0 2.765619 1_555
O0 Sr0 2.765801 1_465
O1 Sr0 2.763320 1_655
O1 Sr0 2.763321 1_555
O2 Sr0 2.763290 1_545
O2 Sr0 2.763334 1_555
O3 Sr1 2.767411 1_565
O3 Sr1 2.767621 1_655
O3 Sr2 2.786710 1_556
O4 Sr2 2.767399 1_545
O4 Sr2 2.767631 1_455
O4 Sr1 2.786707 1_554
O5 Sr1 2.761481 1_655
O5 Sr1 2.768824 1_555
O5 Sr2 2.786017 1_556
O6 Sr2 2.761447 1_455
O6 Sr2 2.768862 1_555
O6 Sr1 2.786058 1_554
O7 Sr1 2.761737 1_565
O7 Sr1 2.768549 1_555
O7 Sr2 2.786083 1_556
O8 Sr2 2.761813 1_545
O8 Sr2 2.768471 1_555
O8 Sr1 2.786070 1_554
O9 Sr0 2.759918 1_555
O9 Sr1 2.782637 1_555
O10 Sr0 2.759871 1_555
O10 Sr2 2.782707 1_555
O11 Sr0 2.757207 1_555
O11 Sr1 2.782326 1_565
O12 Sr0 2.757164 1_555
O12 Sr2 2.782447 1_545
O13 Sr0 2.757285 1_555
O13 Sr1 2.782302 1_655
O14 Sr0 2.757221 1_555
O14 Sr2 2.782321 1_455
