# generated using pymatgen
data_CsHo2Cl7
_symmetry_space_group_name_H-M   'P 1'
_cell_length_a   6.95451520
_cell_length_b   12.60681947
_cell_length_c   13.58142983
_cell_angle_alpha   90.00000000
_cell_angle_beta   90.00000000
_cell_angle_gamma   90.00000000
_symmetry_Int_Tables_number   1
_chemical_formula_structural   CsHo2Cl7
_chemical_formula_sum   'Cs4 Ho8 Cl28'
_cell_volume   1190.74259275
_cell_formula_units_Z   4
loop_
 _symmetry_equiv_pos_site_id
 _symmetry_equiv_pos_as_xyz
  1  'x, y, z'
loop_
 _atom_site_type_symbol
 _atom_site_label
 _atom_site_symmetry_multiplicity
 _atom_site_fract_x
 _atom_site_fract_y
 _atom_site_fract_z
 _atom_site_occupancy
  Cs  Cs0  1  0.25000000  0.79819280  0.03961253  1
  Cs  Cs1  1  0.75000000  0.20180720  0.96038747  1
  Cs  Cs2  1  0.75000000  0.29819280  0.46038747  1
  Cs  Cs3  1  0.25000000  0.70180720  0.53961253  1
  Ho  Ho0  1  0.25000000  0.45335466  0.24219702  1
  Ho  Ho1  1  0.75000000  0.54664534  0.75780298  1
  Ho  Ho2  1  0.75000000  0.95335466  0.25780298  1
  Ho  Ho3  1  0.25000000  0.04664534  0.74219702  1
  Ho  Ho4  1  0.25000000  0.14969389  0.24988344  1
  Ho  Ho5  1  0.75000000  0.85030611  0.75011656  1
  Ho  Ho6  1  0.75000000  0.64969389  0.25011656  1
  Ho  Ho7  1  0.25000000  0.35030611  0.74988344  1
  Cl  Cl0  1  0.00929741  0.30053819  0.18159286  1
  Cl  Cl1  1  0.99070259  0.69946181  0.81840714  1
  Cl  Cl2  1  0.99070259  0.80053819  0.31840714  1
  Cl  Cl3  1  0.50929741  0.69946181  0.81840714  1
  Cl  Cl4  1  0.00929741  0.19946181  0.68159286  1
  Cl  Cl5  1  0.49070259  0.30053819  0.18159286  1
  Cl  Cl6  1  0.49070259  0.19946181  0.68159286  1
  Cl  Cl7  1  0.50929741  0.80053819  0.31840714  1
  Cl  Cl8  1  0.00892857  0.56679824  0.12736273  1
  Cl  Cl9  1  0.99107143  0.43320176  0.87263727  1
  Cl  Cl10  1  0.99107143  0.06679824  0.37263727  1
  Cl  Cl11  1  0.50892857  0.43320176  0.87263727  1
  Cl  Cl12  1  0.00892857  0.93320176  0.62736273  1
  Cl  Cl13  1  0.49107143  0.56679824  0.12736273  1
  Cl  Cl14  1  0.49107143  0.93320176  0.62736273  1
  Cl  Cl15  1  0.50892857  0.06679824  0.37263727  1
  Cl  Cl16  1  0.00982944  0.03535561  0.13290034  1
  Cl  Cl17  1  0.99017056  0.96464439  0.86709966  1
  Cl  Cl18  1  0.99017056  0.53535561  0.36709966  1
  Cl  Cl19  1  0.50982944  0.96464439  0.86709966  1
  Cl  Cl20  1  0.00982944  0.46464439  0.63290034  1
  Cl  Cl21  1  0.49017056  0.03535561  0.13290034  1
  Cl  Cl22  1  0.49017056  0.46464439  0.63290034  1
  Cl  Cl23  1  0.50982944  0.53535561  0.36709966  1
  Cl  Cl24  1  0.25000000  0.30319854  0.39134149  1
  Cl  Cl25  1  0.75000000  0.69680146  0.60865851  1
  Cl  Cl26  1  0.75000000  0.80319854  0.10865851  1
  Cl  Cl27  1  0.25000000  0.19680146  0.89134149  1
loop_
_geom_bond_atom_site_label_1
_geom_bond_atom_site_label_2
_geom_bond_distance
_geom_bond_site_symmetry_2
Cl0 Ho0 2.681636 1_555
Cl0 Ho4 2.697914 1_555
Cl0 Cs1 3.718443 1_454
Cl1 Ho1 2.681636 1_555
Cl1 Ho5 2.697914 1_555
Cl1 Cs0 3.718443 1_656
Cl2 Ho2 2.681636 1_555
Cl2 Ho6 2.697914 1_555
Cl2 Cs3 3.718443 1_655
Cl3 Ho1 2.681636 1_555
Cl3 Ho5 2.697914 1_555
Cl3 Cs0 3.718443 1_556
Cl4 Ho3 2.681636 1_555
Cl4 Ho7 2.697914 1_555
Cl4 Cs2 3.718443 1_455
Cl5 Ho0 2.681636 1_555
Cl5 Ho4 2.697914 1_555
Cl5 Cs1 3.718443 1_554
Cl6 Ho3 2.681636 1_555
Cl6 Ho7 2.697914 1_555
Cl6 Cs2 3.718443 1_555
Cl7 Ho2 2.681636 1_555
Cl7 Ho6 2.697914 1_555
Cl7 Cs3 3.718443 1_555
Cl8 Ho6 2.667245 1_455
Cl8 Ho0 2.699728 1_555
Cl8 Cs0 3.569433 1_555
Cl9 Ho7 2.667245 1_655
Cl9 Ho1 2.699728 1_555
Cl9 Cs1 3.569433 1_555
Cl10 Ho4 2.667245 1_655
Cl10 Ho2 2.699728 1_545
Cl10 Cs2 3.569433 1_555
Cl11 Ho7 2.667245 1_555
Cl11 Ho1 2.699728 1_555
Cl11 Cs1 3.569433 1_555
Cl12 Ho5 2.667245 1_455
Cl12 Ho3 2.699728 1_565
Cl12 Cs3 3.569433 1_555
Cl13 Ho6 2.667245 1_555
Cl13 Ho0 2.699728 1_555
Cl13 Cs0 3.569433 1_555
Cl14 Ho5 2.667245 1_555
Cl14 Ho3 2.699728 1_565
Cl14 Cs3 3.569433 1_555
Cl15 Ho4 2.667245 1_555
Cl15 Ho2 2.699728 1_545
Cl15 Cs2 3.569433 1_555
Cl16 Ho2 2.685426 1_445
Cl16 Ho4 2.718793 1_555
Cl16 Cs1 3.627411 1_454
Cl16 Cs0 3.651624 1_545
Cl17 Ho3 2.685426 1_665
Cl17 Ho5 2.718793 1_555
Cl17 Cs0 3.627411 1_656
Cl17 Cs1 3.651624 1_565
Cl18 Ho0 2.685426 1_655
Cl18 Ho6 2.718793 1_555
Cl18 Cs3 3.627411 1_655
Cl18 Cs2 3.651624 1_555
Cl19 Ho3 2.685426 1_565
Cl19 Ho5 2.718793 1_555
Cl19 Cs0 3.627411 1_556
Cl19 Cs1 3.651624 1_565
Cl20 Ho1 2.685426 1_455
Cl20 Ho7 2.718793 1_555
Cl20 Cs2 3.627411 1_455
Cl20 Cs3 3.651624 1_555
Cl21 Ho2 2.685426 1_545
Cl21 Ho4 2.718793 1_555
Cl21 Cs1 3.627411 1_554
Cl21 Cs0 3.651624 1_545
Cl22 Ho1 2.685426 1_555
Cl22 Ho7 2.718793 1_555
Cl22 Cs2 3.627411 1_555
Cl22 Cs3 3.651624 1_555
Cl23 Ho0 2.685426 1_555
Cl23 Ho6 2.718793 1_555
Cl23 Cs3 3.627411 1_555
Cl23 Cs2 3.651624 1_555
Cl24 Ho4 2.726910 1_555
Cl24 Ho0 2.772445 1_555
Cl24 Cs2 3.602036 1_555
Cl24 Cs2 3.602036 1_455
Cl25 Ho5 2.726910 1_555
Cl25 Ho1 2.772445 1_555
Cl25 Cs3 3.602036 1_655
Cl25 Cs3 3.602036 1_555
Cl26 Ho6 2.726910 1_555
Cl26 Ho2 2.772445 1_555
Cl26 Cs0 3.602036 1_555
Cl26 Cs0 3.602036 1_655
Cl27 Ho7 2.726910 1_555
Cl27 Ho3 2.772445 1_555
Cl27 Cs1 3.602036 1_455
Cl27 Cs1 3.602036 1_555
