# generated using pymatgen
data_TiCu2NiO4
_symmetry_space_group_name_H-M   'P 1'
_cell_length_a   11.64807831
_cell_length_b   11.64807831
_cell_length_c   11.64807781
_cell_angle_alpha   14.90384961
_cell_angle_beta   14.90384961
_cell_angle_gamma   14.90385130
_symmetry_Int_Tables_number   1
_chemical_formula_structural   TiCu2NiO4
_chemical_formula_sum   'Ti1 Cu2 Ni1 O4'
_cell_volume   91.04779860
_cell_formula_units_Z   1
loop_
 _symmetry_equiv_pos_site_id
 _symmetry_equiv_pos_as_xyz
  1  'x, y, z'
loop_
 _atom_site_type_symbol
 _atom_site_label
 _atom_site_symmetry_multiplicity
 _atom_site_fract_x
 _atom_site_fract_y
 _atom_site_fract_z
 _atom_site_occupancy
  Ti  Ti0  1  0.00000000  0.00000000  0.00000000  1
  Cu  Cu0  1  0.75151400  0.75151400  0.75151400  1
  Cu  Cu1  1  0.24848600  0.24848600  0.24848600  1
  Ni  Ni0  1  0.50000000  0.50000000  0.50000000  1
  O  O0  1  0.19650100  0.19650100  0.19650100  1
  O  O1  1  0.69717300  0.69717300  0.69717300  1
  O  O2  1  0.80349900  0.80349900  0.80349900  1
  O  O3  1  0.30282700  0.30282700  0.30282700  1
loop_
_geom_bond_atom_site_label_1
_geom_bond_atom_site_label_2
_geom_bond_distance
_geom_bond_site_symmetry_2
Cu0 O2 1.796090 1_555
Cu0 O1 1.877490 1_555
Cu1 O0 1.796090 1_555
Cu1 O3 1.877490 1_555
Ni0 O0 2.026183 1_556
Ni0 O2 2.026183 1_554
Ni0 O0 2.026183 1_655
Ni0 O0 2.026183 1_565
Ni0 O2 2.026183 1_545
Ni0 O2 2.026183 1_455
O1 Ti0 2.038092 1_665
O1 Ti0 2.038093 1_566
O1 Ti0 2.038093 1_656
O3 Ti0 2.038092 1_556
O3 Ti0 2.038093 1_655
O3 Ti0 2.038093 1_565
