# generated using pymatgen
data_UGaPd2
_symmetry_space_group_name_H-M   'P 1'
_cell_length_a   5.70527700
_cell_length_b   6.95920000
_cell_length_c   7.59182100
_cell_angle_alpha   90.00000000
_cell_angle_beta   90.00000000
_cell_angle_gamma   90.00000000
_symmetry_Int_Tables_number   1
_chemical_formula_structural   UGaPd2
_chemical_formula_sum   'U4 Ga4 Pd8'
_cell_volume   301.42690375
_cell_formula_units_Z   4
loop_
 _symmetry_equiv_pos_site_id
 _symmetry_equiv_pos_as_xyz
  1  'x, y, z'
loop_
 _atom_site_type_symbol
 _atom_site_label
 _atom_site_symmetry_multiplicity
 _atom_site_fract_x
 _atom_site_fract_y
 _atom_site_fract_z
 _atom_site_occupancy
  U  U0  1  0.34784000  0.75000000  0.04047000  1
  U  U1  1  0.15216000  0.75000000  0.54047000  1
  U  U2  1  0.65216000  0.25000000  0.95953000  1
  U  U3  1  0.84784000  0.25000000  0.45953000  1
  Ga  Ga0  1  0.65885100  0.75000000  0.38763800  1
  Ga  Ga1  1  0.84114900  0.75000000  0.88763800  1
  Ga  Ga2  1  0.34114900  0.25000000  0.61236200  1
  Ga  Ga3  1  0.15885100  0.25000000  0.11236200  1
  Pd  Pd0  1  0.91416100  0.54838900  0.18091100  1
  Pd  Pd1  1  0.58583900  0.95161100  0.68091100  1
  Pd  Pd2  1  0.08583900  0.04838900  0.81908900  1
  Pd  Pd3  1  0.41416100  0.45161100  0.31908900  1
  Pd  Pd4  1  0.08583900  0.45161100  0.81908900  1
  Pd  Pd5  1  0.41416100  0.04838900  0.31908900  1
  Pd  Pd6  1  0.91416100  0.95161100  0.18091100  1
  Pd  Pd7  1  0.58583900  0.54838900  0.68091100  1
loop_
_geom_bond_atom_site_label_1
_geom_bond_atom_site_label_2
_geom_bond_distance
_geom_bond_site_symmetry_2
Ga0 Pd5 2.555732 1_565
Ga0 Pd3 2.555732 1_555
Ga0 Pd6 2.559961 1_555
Ga0 Pd0 2.559961 1_555
Ga0 Pd7 2.664445 1_555
Ga0 Pd1 2.664445 1_555
Ga0 U1 3.044248 1_655
Ga0 U1 3.114969 1_555
Ga0 U0 3.177278 1_555
Ga1 Pd2 2.555732 1_665
Ga1 Pd4 2.555732 1_655
Ga1 Pd7 2.559961 1_555
Ga1 Pd1 2.559961 1_555
Ga1 Pd6 2.664445 1_556
Ga1 Pd0 2.664445 1_556
Ga1 U0 3.044248 1_556
Ga1 U0 3.114969 1_656
Ga1 U1 3.177278 1_655
Ga2 Pd1 2.555732 1_545
Ga2 Pd7 2.555732 1_555
Ga2 Pd4 2.559961 1_555
Ga2 Pd2 2.559961 1_555
Ga2 Pd3 2.664445 1_555
Ga2 Pd5 2.664445 1_555
Ga2 U3 3.044248 1_455
Ga2 U3 3.114969 1_555
Ga2 U2 3.177278 1_555
Ga3 Pd6 2.555732 1_445
Ga3 Pd0 2.555732 1_455
Ga3 Pd3 2.559961 1_555
Ga3 Pd5 2.559961 1_555
Ga3 Pd4 2.664445 1_554
Ga3 Pd2 2.664445 1_554
Ga3 U2 3.044248 1_554
Ga3 U2 3.114969 1_454
Ga3 U3 3.177278 1_455
Pd0 U3 2.988211 1_555
Pd0 U0 3.037647 1_655
Pd0 U2 3.061233 1_554
Pd0 U1 3.356131 1_655
Pd1 U2 2.988211 1_565
Pd1 U1 3.037647 1_555
Pd1 U3 3.061233 1_565
Pd1 U0 3.356131 1_556
Pd2 U1 2.988211 1_545
Pd2 U2 3.037647 1_455
Pd2 U0 3.061233 1_546
Pd2 U3 3.356131 1_455
Pd3 U0 2.988211 1_555
Pd3 U3 3.037647 1_555
Pd3 U1 3.061233 1_555
Pd3 U2 3.356131 1_554
Pd4 U1 2.988211 1_555
Pd4 U2 3.037647 1_455
Pd4 U0 3.061233 1_556
Pd4 U3 3.356131 1_455
Pd5 U0 2.988211 1_545
Pd5 U3 3.037647 1_555
Pd5 U1 3.061233 1_545
Pd5 U2 3.356131 1_554
Pd6 U3 2.988211 1_565
Pd6 U0 3.037647 1_655
Pd6 U2 3.061233 1_564
Pd6 U1 3.356131 1_655
Pd7 U2 2.988211 1_555
Pd7 U1 3.037647 1_555
Pd7 U3 3.061233 1_555
Pd7 U0 3.356131 1_556
