# generated using pymatgen
data_Li5Co3O8
_symmetry_space_group_name_H-M   'P 1'
_cell_length_a   2.98978100
_cell_length_b   5.94897450
_cell_length_c   7.99553620
_cell_angle_alpha   90.91998910
_cell_angle_beta   90.21325262
_cell_angle_gamma   92.01005906
_symmetry_Int_Tables_number   1
_chemical_formula_structural   Li5Co3O8
_chemical_formula_sum   'Li5 Co3 O8'
_cell_volume   142.10252245
_cell_formula_units_Z   1
loop_
 _symmetry_equiv_pos_site_id
 _symmetry_equiv_pos_as_xyz
  1  'x, y, z'
loop_
 _atom_site_type_symbol
 _atom_site_label
 _atom_site_symmetry_multiplicity
 _atom_site_fract_x
 _atom_site_fract_y
 _atom_site_fract_z
 _atom_site_occupancy
  Li  Li0  1  0.99717600  0.24169700  0.75751900  1
  Li  Li1  1  0.50000000  0.50000000  0.00000000  1
  Li  Li2  1  0.50000000  0.00000000  0.50000000  1
  Li  Li3  1  0.00282400  0.75830300  0.24248100  1
  Li  Li4  1  0.50000000  0.00000000  0.00000000  1
  Co  Co0  1  0.99925400  0.76011400  0.75945800  1
  Co  Co1  1  0.00074600  0.23988600  0.24054200  1
  Co  Co2  1  0.50000000  0.50000000  0.50000000  1
  O  O0  1  0.53883000  0.50738800  0.73896400  1
  O  O1  1  0.99907300  0.74777900  0.97589300  1
  O  O2  1  0.99305000  0.26224700  0.48009400  1
  O  O3  1  0.52939100  0.01618100  0.25010900  1
  O  O4  1  0.47060900  0.98381900  0.74989100  1
  O  O5  1  0.00092700  0.25222100  0.02410700  1
  O  O6  1  0.00695000  0.73775300  0.51990600  1
  O  O7  1  0.46117000  0.49261200  0.26103600  1
loop_
_geom_bond_atom_site_label_1
_geom_bond_atom_site_label_2
_geom_bond_distance
_geom_bond_site_symmetry_2
Li0 O4 2.123843 1_645
Li0 O5 2.131404 1_656
Li0 O0 2.134503 1_555
Li0 O4 2.159294 1_545
Li0 O2 2.223499 1_555
Li0 O0 2.229927 1_655
Li1 O1 2.072031 1_554
Li1 O5 2.072031 1_555
Li1 O7 2.091861 1_555
Li1 O0 2.091861 1_554
Li1 O5 2.148197 1_655
Li1 O1 2.148197 1_454
Li2 O4 2.003979 1_545
Li2 O3 2.003979 1_555
Li2 O6 2.116753 1_545
Li2 O2 2.116753 1_555
Li2 O2 2.220035 1_455
Li2 O6 2.220035 1_645
Li3 O3 2.123843 1_465
Li3 O1 2.131404 1_454
Li3 O7 2.134503 1_555
Li3 O3 2.159294 1_565
Li3 O6 2.223499 1_555
Li3 O7 2.229927 1_455
Li4 O4 2.001981 1_544
Li4 O3 2.001981 1_555
Li4 O5 2.088645 1_655
Li4 O1 2.088645 1_444
Li4 O1 2.159826 1_544
Li4 O5 2.159826 1_555
Co0 O1 1.733247 1_555
Co0 O4 1.906675 1_655
Co0 O6 1.918108 1_655
Co0 O0 2.006840 1_555
Co0 O4 2.103551 1_555
Co0 O0 2.248089 1_655
Co1 O5 1.733247 1_555
Co1 O3 1.906675 1_455
Co1 O2 1.918108 1_455
Co1 O7 2.006840 1_555
Co1 O3 2.103551 1_555
Co1 O7 2.248089 1_455
Co2 O0 1.913444 1_555
Co2 O7 1.913444 1_555
Co2 O6 2.040507 1_655
Co2 O2 2.040507 1_455
Co2 O2 2.083171 1_555
Co2 O6 2.083171 1_555
