# generated using pymatgen
data_CeTlF5
_symmetry_space_group_name_H-M   'P 1'
_cell_length_a   8.27363409
_cell_length_b   8.15768151
_cell_length_c   13.54061819
_cell_angle_alpha   90.00000000
_cell_angle_beta   90.00000000
_cell_angle_gamma   102.96680332
_symmetry_Int_Tables_number   1
_chemical_formula_structural   CeTlF5
_chemical_formula_sum   'Ce8 Tl8 F40'
_cell_volume   890.60165234
_cell_formula_units_Z   8
loop_
 _symmetry_equiv_pos_site_id
 _symmetry_equiv_pos_as_xyz
  1  'x, y, z'
loop_
 _atom_site_type_symbol
 _atom_site_label
 _atom_site_symmetry_multiplicity
 _atom_site_fract_x
 _atom_site_fract_y
 _atom_site_fract_z
 _atom_site_occupancy
  Ce  Ce0  1  0.03655195  0.05600651  0.74629235  1
  Ce  Ce1  1  0.96344805  0.94399349  0.25370765  1
  Ce  Ce2  1  0.46344805  0.94399349  0.24629235  1
  Ce  Ce3  1  0.53655195  0.05600651  0.75370765  1
  Ce  Ce4  1  0.09590869  0.51703158  0.25612029  1
  Ce  Ce5  1  0.90409131  0.48296842  0.74387971  1
  Ce  Ce6  1  0.40409131  0.48296842  0.75612029  1
  Ce  Ce7  1  0.59590869  0.51703158  0.24387971  1
  Tl  Tl0  1  0.30229341  0.22223402  0.48106376  1
  Tl  Tl1  1  0.69770659  0.77776598  0.51893624  1
  Tl  Tl2  1  0.19770659  0.77776598  0.98106376  1
  Tl  Tl3  1  0.80229341  0.22223402  0.01893624  1
  Tl  Tl4  1  0.27781951  0.26692306  0.02266206  1
  Tl  Tl5  1  0.72218049  0.73307694  0.97733794  1
  Tl  Tl6  1  0.22218049  0.73307694  0.52266206  1
  Tl  Tl7  1  0.77781951  0.26692306  0.47733794  1
  F  F0  1  0.06247755  0.47835265  0.09948201  1
  F  F1  1  0.93752245  0.52164735  0.90051799  1
  F  F2  1  0.43752245  0.52164735  0.59948201  1
  F  F3  1  0.56247755  0.47835265  0.40051799  1
  F  F4  1  0.01591236  0.72512235  0.35171862  1
  F  F5  1  0.98408764  0.27487765  0.64828138  1
  F  F6  1  0.48408764  0.27487765  0.85171862  1
  F  F7  1  0.51591236  0.72512235  0.14828138  1
  F  F8  1  0.11127981  0.43192735  0.40718284  1
  F  F9  1  0.88872019  0.56807265  0.59281716  1
  F  F10  1  0.38872019  0.56807265  0.90718284  1
  F  F11  1  0.61127981  0.43192735  0.09281716  1
  F  F12  1  0.31112914  0.21727697  0.68690284  1
  F  F13  1  0.68887086  0.78272303  0.31309716  1
  F  F14  1  0.18887086  0.78272303  0.18690284  1
  F  F15  1  0.81112914  0.21727697  0.81309716  1
  F  F16  1  0.02964083  0.23030736  0.23978964  1
  F  F17  1  0.97035917  0.76969264  0.76021036  1
  F  F18  1  0.47035917  0.76969264  0.73978964  1
  F  F19  1  0.52964083  0.23030736  0.26021036  1
  F  F20  1  0.35586327  0.67922221  0.32085816  1
  F  F21  1  0.64413673  0.32077779  0.67914184  1
  F  F22  1  0.14413673  0.32077779  0.82085816  1
  F  F23  1  0.85586327  0.67922221  0.17914184  1
  F  F24  1  0.48163005  0.00940040  0.60055461  1
  F  F25  1  0.51836995  0.99059960  0.39944539  1
  F  F26  1  0.01836995  0.99059960  0.10055461  1
  F  F27  1  0.98163005  0.00940040  0.89944539  1
  F  F28  1  0.42261639  0.02797700  0.10004216  1
  F  F29  1  0.57738361  0.97202300  0.89995784  1
  F  F30  1  0.07738361  0.97202300  0.60004216  1
  F  F31  1  0.92261639  0.02797700  0.39995784  1
  F  F32  1  0.32343631  0.42002351  0.20810497  1
  F  F33  1  0.67656369  0.57997649  0.79189503  1
  F  F34  1  0.17656369  0.57997649  0.70810497  1
  F  F35  1  0.82343631  0.42002351  0.29189503  1
  F  F36  1  0.23299429  0.03052942  0.30466122  1
  F  F37  1  0.76700571  0.96947058  0.69533878  1
  F  F38  1  0.26700571  0.96947058  0.80466122  1
  F  F39  1  0.73299429  0.03052942  0.19533878  1
loop_
_geom_bond_atom_site_label_1
_geom_bond_atom_site_label_2
_geom_bond_distance
_geom_bond_site_symmetry_2
Ce0 F27 2.138713 1_455
Ce0 F30 2.146865 1_545
Ce0 F17 2.284009 1_445
Ce0 F37 2.289392 1_445
Ce0 F38 2.315709 1_545
Ce0 F5 2.342102 1_455
Ce0 F22 2.369428 1_555
Ce0 F12 2.489394 1_555
Ce0 F15 2.669955 1_455
Ce1 F26 2.138713 1_655
Ce1 F31 2.146865 1_565
Ce1 F16 2.284009 1_665
Ce1 F36 2.289392 1_665
Ce1 F39 2.315709 1_565
Ce1 F4 2.342102 1_655
Ce1 F23 2.369428 1_555
Ce1 F13 2.489394 1_555
Ce1 F14 2.669955 1_655
Ce2 F25 2.138713 1_555
Ce2 F28 2.146865 1_565
Ce2 F19 2.284009 1_565
Ce2 F39 2.289392 1_565
Ce2 F36 2.315709 1_565
Ce2 F7 2.342102 1_555
Ce2 F20 2.369428 1_555
Ce2 F14 2.489394 1_555
Ce2 F13 2.669955 1_555
Ce3 F24 2.138713 1_555
Ce3 F29 2.146865 1_545
Ce3 F18 2.284009 1_545
Ce3 F38 2.289392 1_545
Ce3 F37 2.315709 1_545
Ce3 F6 2.342102 1_555
Ce3 F21 2.369428 1_555
Ce3 F15 2.489394 1_555
Ce3 F12 2.669955 1_555
Ce4 F0 2.153010 1_555
Ce4 F8 2.172964 1_555
Ce4 F35 2.267671 1_455
Ce4 F16 2.290182 1_555
Ce4 F32 2.293738 1_555
Ce4 F14 2.328006 1_555
Ce4 F4 2.345109 1_555
Ce4 F20 2.422343 1_555
Ce5 F1 2.153010 1_555
Ce5 F9 2.172964 1_555
Ce5 F34 2.267671 1_655
Ce5 F17 2.290182 1_555
Ce5 F33 2.293738 1_555
Ce5 F15 2.328006 1_555
Ce5 F5 2.345109 1_555
Ce5 F21 2.422343 1_555
Ce6 F2 2.153010 1_555
Ce6 F10 2.172964 1_555
Ce6 F33 2.267671 1_555
Ce6 F18 2.290182 1_555
Ce6 F34 2.293738 1_555
Ce6 F12 2.328006 1_555
Ce6 F6 2.345109 1_555
Ce6 F22 2.422343 1_555
Ce7 F3 2.153010 1_555
Ce7 F11 2.172964 1_555
Ce7 F32 2.267671 1_555
Ce7 F19 2.290182 1_555
Ce7 F35 2.293738 1_555
Ce7 F13 2.328006 1_555
Ce7 F7 2.345109 1_555
Ce7 F23 2.422343 1_555
F12 Tl0 2.788678 1_555
F13 Tl1 2.788678 1_555
F14 Tl2 2.788678 1_554
F15 Tl3 2.788678 1_556
F28 Tl4 2.716718 1_555
F29 Tl5 2.716718 1_555
F30 Tl6 2.716718 1_555
F31 Tl7 2.716718 1_555
