# generated using pymatgen
data_CaCoO3
_symmetry_space_group_name_H-M   'P 1'
_cell_length_a   3.17692635
_cell_length_b   3.17692635
_cell_length_c   9.79563196
_cell_angle_alpha   84.06621218
_cell_angle_beta   84.06621218
_cell_angle_gamma   89.95623290
_symmetry_Int_Tables_number   1
_chemical_formula_structural   CaCoO3
_chemical_formula_sum   'Ca1 Co1 O3'
_cell_volume   97.80442736
_cell_formula_units_Z   1
loop_
 _symmetry_equiv_pos_site_id
 _symmetry_equiv_pos_as_xyz
  1  'x, y, z'
loop_
 _atom_site_type_symbol
 _atom_site_label
 _atom_site_symmetry_multiplicity
 _atom_site_fract_x
 _atom_site_fract_y
 _atom_site_fract_z
 _atom_site_occupancy
  Ca  Ca0  1  0.30835400  0.30835400  0.27809700  1
  Co  Co0  1  0.73723600  0.73723600  0.51339900  1
  O  O0  1  0.80052600  0.80052600  0.30298000  1
  O  O1  1  0.68064000  0.68064000  0.67912800  1
  O  O2  1  0.23375100  0.23375100  0.50069900  1
loop_
_geom_bond_atom_site_label_1
_geom_bond_atom_site_label_2
_geom_bond_distance
_geom_bond_site_symmetry_2
Ca0 O2 2.157180 1_555
Ca0 O0 2.258477 1_545
Ca0 O0 2.258477 1_455
Ca0 O0 2.259747 1_445
Ca0 O0 2.260619 1_555
Co0 O1 1.606081 1_555
Co0 O0 2.039126 1_555
Co0 O2 2.216858 1_665
Co0 O2 2.249193 1_565
Co0 O2 2.249193 1_655
Co0 O2 2.284446 1_555
