# generated using pymatgen
data_KHo(MoO4)2
_symmetry_space_group_name_H-M   'P 1'
_cell_length_a   7.47728862
_cell_length_b   7.47728862
_cell_length_c   7.75658278
_cell_angle_alpha   61.74454067
_cell_angle_beta   61.74454067
_cell_angle_gamma   88.02912424
_symmetry_Int_Tables_number   1
_chemical_formula_structural   KHo(MoO4)2
_chemical_formula_sum   'K2 Ho2 Mo4 O16'
_cell_volume   326.26530411
_cell_formula_units_Z   2
loop_
 _symmetry_equiv_pos_site_id
 _symmetry_equiv_pos_as_xyz
  1  'x, y, z'
loop_
 _atom_site_type_symbol
 _atom_site_label
 _atom_site_symmetry_multiplicity
 _atom_site_fract_x
 _atom_site_fract_y
 _atom_site_fract_z
 _atom_site_occupancy
  K  K0  1  0.20005200  0.79994800  0.75000000  1
  K  K1  1  0.79994800  0.20005200  0.25000000  1
  Ho  Ho0  1  0.77110200  0.22889800  0.75000000  1
  Ho  Ho1  1  0.22889800  0.77110200  0.25000000  1
  Mo  Mo0  1  0.69579300  0.69781700  0.76115000  1
  Mo  Mo1  1  0.30420700  0.30218300  0.23885000  1
  Mo  Mo2  1  0.30218300  0.30420700  0.73885000  1
  Mo  Mo3  1  0.69781700  0.69579300  0.26115000  1
  O  O0  1  0.61314700  0.76855300  0.56025400  1
  O  O1  1  0.38685300  0.23144700  0.43974600  1
  O  O2  1  0.23144700  0.38685300  0.93974600  1
  O  O3  1  0.76855300  0.61314700  0.06025400  1
  O  O4  1  0.38294400  0.06596100  0.87685800  1
  O  O5  1  0.61705600  0.93403900  0.12314200  1
  O  O6  1  0.93403900  0.61705600  0.62314200  1
  O  O7  1  0.06596100  0.38294400  0.37685800  1
  O  O8  1  0.58632000  0.36673800  0.96943000  1
  O  O9  1  0.41368000  0.63326200  0.03057000  1
  O  O10  1  0.63326200  0.41368000  0.53057000  1
  O  O11  1  0.36673800  0.58632000  0.46943000  1
  O  O12  1  0.79351900  0.95495600  0.69073700  1
  O  O13  1  0.20648100  0.04504400  0.30926300  1
  O  O14  1  0.04504400  0.20648100  0.80926300  1
  O  O15  1  0.95495600  0.79351900  0.19073700  1
loop_
_geom_bond_atom_site_label_1
_geom_bond_atom_site_label_2
_geom_bond_distance
_geom_bond_site_symmetry_2
K0 O0 2.781206 1_555
K0 O2 2.781206 1_555
K0 O3 2.815700 1_456
K0 O1 2.815700 1_565
K0 O13 2.994401 1_565
K0 O15 2.994401 1_456
K0 O9 3.070405 1_556
K0 O11 3.070405 1_555
K0 O4 3.179461 1_565
K0 O6 3.179461 1_455
K1 O3 2.781206 1_555
K1 O1 2.781206 1_555
K1 O2 2.815700 1_654
K1 O0 2.815700 1_545
K1 O12 2.994401 1_545
K1 O14 2.994401 1_654
K1 O10 3.070405 1_555
K1 O8 3.070405 1_554
K1 O7 3.179461 1_655
K1 O5 3.179461 1_545
Ho0 O10 2.281359 1_555
Ho0 O8 2.281359 1_555
Ho0 O12 2.286927 1_545
Ho0 O14 2.286927 1_655
Ho0 O7 2.353955 1_655
Ho0 O5 2.353955 1_546
Ho0 O4 2.698239 1_555
Ho0 O6 2.698239 1_555
Ho1 O9 2.281359 1_555
Ho1 O11 2.281359 1_555
Ho1 O15 2.286927 1_455
Ho1 O13 2.286927 1_565
Ho1 O6 2.353955 1_455
Ho1 O4 2.353955 1_564
Ho1 O7 2.698239 1_555
Ho1 O5 2.698239 1_555
Mo0 O0 1.788501 1_555
Mo0 O12 1.803762 1_555
Mo0 O6 1.848402 1_555
Mo0 O9 1.997773 1_556
Mo0 O8 2.123472 1_555
Mo0 O3 2.420746 1_556
Mo1 O1 1.788501 1_555
Mo1 O13 1.803762 1_555
Mo1 O7 1.848402 1_555
Mo1 O8 1.997773 1_554
Mo1 O9 2.123472 1_555
Mo1 O2 2.420746 1_554
Mo2 O2 1.788501 1_555
Mo2 O14 1.803762 1_555
Mo2 O4 1.848402 1_555
Mo2 O11 1.997773 1_555
Mo2 O10 2.123472 1_555
Mo2 O1 2.420746 1_555
Mo3 O3 1.788501 1_555
Mo3 O15 1.803762 1_555
Mo3 O5 1.848402 1_555
Mo3 O10 1.997773 1_555
Mo3 O11 2.123472 1_555
Mo3 O0 2.420746 1_555
