# generated using pymatgen
data_Cs2Sr2Li3B3(PO4)6
_symmetry_space_group_name_H-M   'P 1'
_cell_length_a   12.87837800
_cell_length_b   12.87837800
_cell_length_c   12.87837800
_cell_angle_alpha   90.00000000
_cell_angle_beta   90.00000000
_cell_angle_gamma   90.00000000
_symmetry_Int_Tables_number   1
_chemical_formula_structural   Cs2Sr2Li3B3(PO4)6
_chemical_formula_sum   'Cs8 Sr8 Li12 B12 P24 O96'
_cell_volume   2135.91273150
_cell_formula_units_Z   4
loop_
 _symmetry_equiv_pos_site_id
 _symmetry_equiv_pos_as_xyz
  1  'x, y, z'
loop_
 _atom_site_type_symbol
 _atom_site_label
 _atom_site_symmetry_multiplicity
 _atom_site_fract_x
 _atom_site_fract_y
 _atom_site_fract_z
 _atom_site_occupancy
  Cs  Cs0  1  0.64862700  0.35137300  0.85137300  1
  Cs  Cs1  1  0.14862700  0.14862700  0.14862700  1
  Cs  Cs2  1  0.85137300  0.64862700  0.35137300  1
  Cs  Cs3  1  0.35137300  0.85137300  0.64862700  1
  Cs  Cs4  1  0.65356000  0.84644000  0.15356000  1
  Cs  Cs5  1  0.84644000  0.15356000  0.65356000  1
  Cs  Cs6  1  0.34644000  0.34644000  0.34644000  1
  Cs  Cs7  1  0.15356000  0.65356000  0.84644000  1
  Sr  Sr0  1  0.59397600  0.59397600  0.59397600  1
  Sr  Sr1  1  0.40602400  0.09397600  0.90602400  1
  Sr  Sr2  1  0.09397600  0.90602400  0.40602400  1
  Sr  Sr3  1  0.90602400  0.40602400  0.09397600  1
  Sr  Sr4  1  0.42981800  0.57018200  0.07018200  1
  Sr  Sr5  1  0.92981800  0.92981800  0.92981800  1
  Sr  Sr6  1  0.07018200  0.42981800  0.57018200  1
  Sr  Sr7  1  0.57018200  0.07018200  0.42981800  1
  Li  Li0  1  0.69540000  0.56119800  0.09767800  1
  Li  Li1  1  0.90232200  0.19540000  0.93880200  1
  Li  Li2  1  0.06119800  0.40232200  0.30460000  1
  Li  Li3  1  0.19540000  0.93880200  0.90232200  1
  Li  Li4  1  0.40232200  0.30460000  0.06119800  1
  Li  Li5  1  0.56119800  0.09767800  0.69540000  1
  Li  Li6  1  0.30460000  0.06119800  0.40232200  1
  Li  Li7  1  0.09767800  0.69540000  0.56119800  1
  Li  Li8  1  0.93880200  0.90232200  0.19540000  1
  Li  Li9  1  0.80460000  0.43880200  0.59767800  1
  Li  Li10  1  0.59767800  0.80460000  0.43880200  1
  Li  Li11  1  0.43880200  0.59767800  0.80460000  1
  B  B0  1  0.64611100  0.13306000  0.12111100  1
  B  B1  1  0.87888900  0.14611100  0.36694000  1
  B  B2  1  0.63306000  0.37888900  0.35388900  1
  B  B3  1  0.14611100  0.36694000  0.87888900  1
  B  B4  1  0.37888900  0.35388900  0.63306000  1
  B  B5  1  0.13306000  0.12111100  0.64611100  1
  B  B6  1  0.35388900  0.63306000  0.37888900  1
  B  B7  1  0.12111100  0.64611100  0.13306000  1
  B  B8  1  0.36694000  0.87888900  0.14611100  1
  B  B9  1  0.85388900  0.86694000  0.62111100  1
  B  B10  1  0.62111100  0.85388900  0.86694000  1
  B  B11  1  0.86694000  0.62111100  0.85388900  1
  P  P0  1  0.94538200  0.41648800  0.81759700  1
  P  P1  1  0.18240300  0.44538200  0.08351200  1
  P  P2  1  0.91648800  0.68240300  0.05461800  1
  P  P3  1  0.44538200  0.08351200  0.18240300  1
  P  P4  1  0.68240300  0.05461800  0.91648800  1
  P  P5  1  0.41648800  0.81759700  0.94538200  1
  P  P6  1  0.05461800  0.91648800  0.68240300  1
  P  P7  1  0.81759700  0.94538200  0.41648800  1
  P  P8  1  0.08351200  0.18240300  0.44538200  1
  P  P9  1  0.55461800  0.58351200  0.31759700  1
  P  P10  1  0.31759700  0.55461800  0.58351200  1
  P  P11  1  0.58351200  0.31759700  0.55461800  1
  P  P12  1  0.61926200  0.34729000  0.13806600  1
  P  P13  1  0.86193400  0.11926200  0.15271000  1
  P  P14  1  0.84729000  0.36193400  0.38073800  1
  P  P15  1  0.11926200  0.15271000  0.86193400  1
  P  P16  1  0.36193400  0.38073800  0.84729000  1
  P  P17  1  0.34729000  0.13806600  0.61926200  1
  P  P18  1  0.38073800  0.84729000  0.36193400  1
  P  P19  1  0.13806600  0.61926200  0.34729000  1
  P  P20  1  0.15271000  0.86193400  0.11926200  1
  P  P21  1  0.88073800  0.65271000  0.63806600  1
  P  P22  1  0.63806600  0.88073800  0.65271000  1
  P  P23  1  0.65271000  0.63806600  0.88073800  1
  O  O0  1  0.60242900  0.59852600  0.21087500  1
  O  O1  1  0.78912500  0.10242900  0.90147400  1
  O  O2  1  0.09852600  0.28912500  0.39757100  1
  O  O3  1  0.10242900  0.90147400  0.78912500  1
  O  O4  1  0.28912500  0.39757100  0.09852600  1
  O  O5  1  0.59852600  0.21087500  0.60242900  1
  O  O6  1  0.39757100  0.09852600  0.28912500  1
  O  O7  1  0.21087500  0.60242900  0.59852600  1
  O  O8  1  0.90147400  0.78912500  0.10242900  1
  O  O9  1  0.89757100  0.40147400  0.71087500  1
  O  O10  1  0.71087500  0.89757100  0.40147400  1
  O  O11  1  0.40147400  0.71087500  0.89757100  1
  O  O12  1  0.06684100  0.40117600  0.80100200  1
  O  O13  1  0.19899800  0.56684100  0.09882400  1
  O  O14  1  0.90117600  0.69899800  0.93315900  1
  O  O15  1  0.56684100  0.09882400  0.19899800  1
  O  O16  1  0.69899800  0.93315900  0.90117600  1
  O  O17  1  0.40117600  0.80100200  0.06684100  1
  O  O18  1  0.93315900  0.90117600  0.69899800  1
  O  O19  1  0.80100200  0.06684100  0.40117600  1
  O  O20  1  0.09882400  0.19899800  0.56684100  1
  O  O21  1  0.43315900  0.59882400  0.30100200  1
  O  O22  1  0.30100200  0.43315900  0.59882400  1
  O  O23  1  0.59882400  0.30100200  0.43315900  1
  O  O24  1  0.71193800  0.41164100  0.10196500  1
  O  O25  1  0.89803500  0.21193800  0.08835900  1
  O  O26  1  0.91164100  0.39803500  0.28806200  1
  O  O27  1  0.21193800  0.08835900  0.89803500  1
  O  O28  1  0.39803500  0.28806200  0.91164100  1
  O  O29  1  0.41164100  0.10196500  0.71193800  1
  O  O30  1  0.28806200  0.91164100  0.39803500  1
  O  O31  1  0.10196500  0.71193800  0.41164100  1
  O  O32  1  0.08835900  0.89803500  0.21193800  1
  O  O33  1  0.78806200  0.58835900  0.60196500  1
  O  O34  1  0.60196500  0.78806200  0.58835900  1
  O  O35  1  0.58835900  0.60196500  0.78806200  1
  O  O36  1  0.93932600  0.53199900  0.85925700  1
  O  O37  1  0.14074300  0.43932600  0.96800100  1
  O  O38  1  0.03199900  0.64074300  0.06067400  1
  O  O39  1  0.43932600  0.96800100  0.14074300  1
  O  O40  1  0.64074300  0.06067400  0.03199900  1
  O  O41  1  0.53199900  0.85925700  0.93932600  1
  O  O42  1  0.06067400  0.03199900  0.64074300  1
  O  O43  1  0.85925700  0.93932600  0.53199900  1
  O  O44  1  0.96800100  0.14074300  0.43932600  1
  O  O45  1  0.56067400  0.46800100  0.35925700  1
  O  O46  1  0.35925700  0.56067400  0.46800100  1
  O  O47  1  0.46800100  0.35925700  0.56067400  1
  O  O48  1  0.90239500  0.34483700  0.90183900  1
  O  O49  1  0.09816100  0.40239500  0.15516300  1
  O  O50  1  0.84483700  0.59816100  0.09760500  1
  O  O51  1  0.40239500  0.15516300  0.09816100  1
  O  O52  1  0.59816100  0.09760500  0.84483700  1
  O  O53  1  0.34483700  0.90183900  0.90239500  1
  O  O54  1  0.09760500  0.84483700  0.59816100  1
  O  O55  1  0.90183900  0.90239500  0.34483700  1
  O  O56  1  0.15516300  0.09816100  0.40239500  1
  O  O57  1  0.59760500  0.65516300  0.40183900  1
  O  O58  1  0.40183900  0.59760500  0.65516300  1
  O  O59  1  0.65516300  0.40183900  0.59760500  1
  O  O60  1  0.62556400  0.23815600  0.08206500  1
  O  O61  1  0.91793500  0.12556400  0.26184400  1
  O  O62  1  0.73815600  0.41793500  0.37443600  1
  O  O63  1  0.12556400  0.26184400  0.91793500  1
  O  O64  1  0.41793500  0.37443600  0.73815600  1
  O  O65  1  0.23815600  0.08206500  0.62556400  1
  O  O66  1  0.37443600  0.73815600  0.41793500  1
  O  O67  1  0.08206500  0.62556400  0.23815600  1
  O  O68  1  0.26184400  0.91793500  0.12556400  1
  O  O69  1  0.87443600  0.76184400  0.58206500  1
  O  O70  1  0.58206500  0.87443600  0.76184400  1
  O  O71  1  0.76184400  0.58206500  0.87443600  1
  O  O72  1  0.62429800  0.32127300  0.25659700  1
  O  O73  1  0.74340300  0.12429800  0.17872700  1
  O  O74  1  0.82127300  0.24340300  0.37570200  1
  O  O75  1  0.12429800  0.17872700  0.74340300  1
  O  O76  1  0.24340300  0.37570200  0.82127300  1
  O  O77  1  0.32127300  0.25659700  0.62429800  1
  O  O78  1  0.37570200  0.82127300  0.24340300  1
  O  O79  1  0.25659700  0.62429800  0.32127300  1
  O  O80  1  0.17872700  0.74340300  0.12429800  1
  O  O81  1  0.87570200  0.67872700  0.75659700  1
  O  O82  1  0.75659700  0.87570200  0.67872700  1
  O  O83  1  0.67872700  0.75659700  0.87570200  1
  O  O84  1  0.51450600  0.39548800  0.10977900  1
  O  O85  1  0.89022100  0.01450600  0.10451200  1
  O  O86  1  0.89548800  0.39022100  0.48549400  1
  O  O87  1  0.01450600  0.10451200  0.89022100  1
  O  O88  1  0.39022100  0.48549400  0.89548800  1
  O  O89  1  0.39548800  0.10977900  0.51450600  1
  O  O90  1  0.48549400  0.89548800  0.39022100  1
  O  O91  1  0.10977900  0.51450600  0.39548800  1
  O  O92  1  0.10451200  0.89022100  0.01450600  1
  O  O93  1  0.98549400  0.60451200  0.60977900  1
  O  O94  1  0.60977900  0.98549400  0.60451200  1
  O  O95  1  0.60451200  0.60977900  0.98549400  1
loop_
_geom_bond_atom_site_label_1
_geom_bond_atom_site_label_2
_geom_bond_distance
_geom_bond_site_symmetry_2
Cs0 O60 3.322741 1_556
Cs0 O64 3.322741 1_555
Cs0 O71 3.322741 1_555
Cs0 O52 3.333180 1_555
Cs0 O48 3.333180 1_555
Cs0 O59 3.333180 1_555
Cs0 O28 3.417914 1_555
Cs0 O24 3.417914 1_556
Cs0 O35 3.417914 1_555
Cs1 O68 3.322741 1_545
Cs1 O63 3.322741 1_554
Cs1 O61 3.322741 1_455
Cs1 O51 3.333180 1_555
Cs1 O49 3.333180 1_555
Cs1 O56 3.333180 1_555
Cs1 O32 3.417914 1_545
Cs1 O27 3.417914 1_554
Cs1 O25 3.417914 1_455
Cs2 O62 3.322741 1_555
Cs2 O67 3.322741 1_655
Cs2 O69 3.322741 1_555
Cs2 O55 3.333180 1_555
Cs2 O57 3.333180 1_555
Cs2 O50 3.333180 1_555
Cs2 O26 3.417914 1_555
Cs2 O33 3.417914 1_555
Cs2 O31 3.417914 1_655
Cs3 O66 3.322741 1_555
Cs3 O65 3.322741 1_565
Cs3 O70 3.322741 1_555
Cs3 O54 3.333180 1_555
Cs3 O53 3.333180 1_555
Cs3 O58 3.333180 1_555
Cs3 O30 3.417914 1_555
Cs3 O34 3.417914 1_555
Cs3 O29 3.417914 1_565
Cs4 O40 3.176487 1_565
Cs4 O41 3.176487 1_554
Cs4 O39 3.176487 1_555
Cs4 O8 3.342447 1_555
Cs4 O0 3.342447 1_555
Cs4 O10 3.342447 1_555
Cs5 O42 3.176487 1_655
Cs5 O43 3.176487 1_545
Cs5 O44 3.176487 1_555
Cs5 O1 3.342447 1_555
Cs5 O5 3.342447 1_555
Cs5 O9 3.342447 1_555
Cs6 O47 3.176487 1_555
Cs6 O46 3.176487 1_555
Cs6 O45 3.176487 1_555
Cs6 O2 3.342447 1_555
Cs6 O6 3.342447 1_555
Cs6 O4 3.342447 1_555
Cs7 O38 3.176487 1_556
Cs7 O36 3.176487 1_455
Cs7 O37 3.176487 1_555
Cs7 O3 3.342447 1_555
Cs7 O7 3.342447 1_555
Cs7 O11 3.342447 1_555
Li0 O24 1.938578 1_555
Li0 O0 1.946747 1_555
Li0 O95 1.961829 1_554
Li0 O50 1.982504 1_555
Li1 O25 1.938578 1_556
Li1 O1 1.946747 1_555
Li1 O87 1.961829 1_655
Li1 O48 1.982504 1_555
Li2 O26 1.938578 1_455
Li2 O2 1.946747 1_555
Li2 O91 1.961829 1_555
Li2 O49 1.982504 1_555
Li3 O27 1.938578 1_565
Li3 O3 1.946747 1_555
Li3 O92 1.961829 1_556
Li3 O53 1.982504 1_555
Li4 O28 1.938578 1_554
Li4 O4 1.946747 1_555
Li4 O84 1.961829 1_555
Li4 O51 1.982504 1_555
Li5 O29 1.938578 1_555
Li5 O5 1.946747 1_555
Li5 O94 1.961829 1_545
Li5 O52 1.982504 1_555
Li6 O30 1.938578 1_545
Li6 O6 1.946747 1_555
Li6 O89 1.961829 1_555
Li6 O56 1.982504 1_555
Li7 O31 1.938578 1_555
Li7 O7 1.946747 1_555
Li7 O93 1.961829 1_455
Li7 O54 1.982504 1_555
Li8 O32 1.938578 1_655
Li8 O8 1.946747 1_555
Li8 O85 1.961829 1_565
Li8 O55 1.982504 1_555
Li9 O33 1.938578 1_555
Li9 O9 1.946747 1_555
Li9 O86 1.961829 1_555
Li9 O59 1.982504 1_555
Li10 O34 1.938578 1_555
Li10 O10 1.946747 1_555
Li10 O90 1.961829 1_555
Li10 O57 1.982504 1_555
Li11 O35 1.938578 1_555
Li11 O11 1.946747 1_555
Li11 O88 1.961829 1_555
Li11 O58 1.982504 1_555
B0 O73 1.460553 1_555
B0 O60 1.467906 1_555
B0 O40 1.480145 1_555
B0 O15 1.497563 1_555
B1 O74 1.460553 1_555
B1 O61 1.467906 1_555
B1 O44 1.480145 1_555
B1 O19 1.497563 1_555
B2 O72 1.460553 1_555
B2 O62 1.467906 1_555
B2 O45 1.480145 1_555
B2 O23 1.497563 1_555
B3 O76 1.460553 1_555
B3 O63 1.467906 1_555
B3 O37 1.480145 1_555
B3 O12 1.497563 1_555
B4 O77 1.460553 1_555
B4 O64 1.467906 1_555
B4 O47 1.480145 1_555
B4 O22 1.497563 1_555
B5 O75 1.460553 1_555
B5 O65 1.467906 1_555
B5 O42 1.480145 1_555
B5 O20 1.497563 1_555
B6 O79 1.460553 1_555
B6 O66 1.467906 1_555
B6 O46 1.480145 1_555
B6 O21 1.497563 1_555
B7 O80 1.460553 1_555
B7 O67 1.467906 1_555
B7 O38 1.480145 1_555
B7 O13 1.497563 1_555
B8 O78 1.460553 1_555
B8 O68 1.467906 1_555
B8 O39 1.480145 1_555
B8 O17 1.497563 1_555
B9 O82 1.460553 1_555
B9 O69 1.467906 1_555
B9 O43 1.480145 1_555
B9 O18 1.497563 1_555
B10 O83 1.460553 1_555
B10 O70 1.467906 1_555
B10 O41 1.480145 1_555
B10 O16 1.497563 1_555
B11 O81 1.460553 1_555
B11 O71 1.467906 1_555
B11 O36 1.480145 1_555
B11 O14 1.497563 1_555
O0 P9 1.518387 1_555
O0 Sr4 2.890972 1_555
O1 P4 1.518387 1_555
O1 Sr5 2.890972 1_545
O2 P8 1.518387 1_555
O2 Sr6 2.890972 1_555
O3 P6 1.518387 1_555
O3 Sr5 2.890972 1_455
O4 P1 1.518387 1_555
O4 Sr4 2.890972 1_555
O5 P11 1.518387 1_555
O5 Sr7 2.890972 1_555
O6 P3 1.518387 1_555
O6 Sr7 2.890972 1_555
O7 P10 1.518387 1_555
O7 Sr6 2.890972 1_555
O8 P2 1.518387 1_555
O8 Sr5 2.890972 1_554
O9 P0 1.518387 1_555
O9 Sr6 2.890972 1_655
O10 P7 1.518387 1_555
O10 Sr7 2.890972 1_565
O11 P5 1.518387 1_555
O11 Sr4 2.890972 1_556
O12 P0 1.590995 1_455
O12 Sr6 2.995695 1_555
O13 P1 1.590995 1_555
O13 Sr4 2.995695 1_555
O14 P2 1.590995 1_556
O14 Sr5 2.995695 1_555
O15 P3 1.590995 1_555
O15 Sr7 2.995695 1_555
O16 P4 1.590995 1_565
O16 Sr5 2.995695 1_555
O17 P5 1.590995 1_554
O17 Sr4 2.995695 1_555
O18 P6 1.590995 1_655
O18 Sr5 2.995695 1_555
O19 P7 1.590995 1_545
O19 Sr7 2.995695 1_555
O20 P8 1.590995 1_555
O20 Sr6 2.995695 1_555
O21 P9 1.590995 1_555
O21 Sr4 2.995695 1_555
O22 P10 1.590995 1_555
O22 Sr6 2.995695 1_555
O23 P11 1.590995 1_555
O23 Sr7 2.995695 1_555
O24 P12 1.525595 1_555
O24 Sr3 2.502675 1_555
O25 P13 1.525595 1_555
O25 Sr3 2.502675 1_555
O26 P14 1.525595 1_555
O26 Sr3 2.502675 1_555
O27 P15 1.525595 1_555
O27 Sr1 2.502675 1_555
O28 P16 1.525595 1_555
O28 Sr1 2.502675 1_555
O29 P17 1.525595 1_555
O29 Sr1 2.502675 1_555
O30 P18 1.525595 1_555
O30 Sr2 2.502675 1_555
O31 P19 1.525595 1_555
O31 Sr2 2.502675 1_555
O32 P20 1.525595 1_555
O32 Sr2 2.502675 1_555
O33 P21 1.525595 1_555
O33 Sr0 2.502675 1_555
O34 P22 1.525595 1_555
O34 Sr0 2.502675 1_555
O35 P23 1.525595 1_555
O35 Sr0 2.502675 1_555
O36 P0 1.583309 1_555
O37 P1 1.583309 1_556
O38 P2 1.583309 1_455
O39 P3 1.583309 1_565
O40 P4 1.583309 1_554
O41 P5 1.583309 1_555
O42 P6 1.583309 1_545
O43 P7 1.583309 1_555
O44 P8 1.583309 1_655
O45 P9 1.583309 1_555
O46 P10 1.583309 1_555
O47 P11 1.583309 1_555
O48 P0 1.528054 1_555
O48 Sr3 2.597274 1_556
O49 P1 1.528054 1_555
O49 Sr3 2.597274 1_455
O50 P2 1.528054 1_555
O50 Sr3 2.597274 1_555
O51 P3 1.528054 1_555
O51 Sr1 2.597274 1_554
O52 P4 1.528054 1_555
O52 Sr1 2.597274 1_555
O53 P5 1.528054 1_555
O53 Sr1 2.597274 1_565
O54 P6 1.528054 1_555
O54 Sr2 2.597274 1_555
O55 P7 1.528054 1_555
O55 Sr2 2.597274 1_655
O56 P8 1.528054 1_555
O56 Sr2 2.597274 1_545
O57 P9 1.528054 1_555
O57 Sr0 2.597274 1_555
O58 P10 1.528054 1_555
O58 Sr0 2.597274 1_555
O59 P11 1.528054 1_555
O59 Sr0 2.597274 1_555
O60 P12 1.581791 1_555
O61 P13 1.581791 1_555
O62 P14 1.581791 1_555
O63 P15 1.581791 1_555
O64 P16 1.581791 1_555
O65 P17 1.581791 1_555
O66 P18 1.581791 1_555
O67 P19 1.581791 1_555
O68 P20 1.581791 1_555
O69 P21 1.581791 1_555
O70 P22 1.581791 1_555
O71 P23 1.581791 1_555
O72 P12 1.564171 1_555
O73 P13 1.564171 1_555
O74 P14 1.564171 1_555
O75 P15 1.564171 1_555
O76 P16 1.564171 1_555
O77 P17 1.564171 1_555
O78 P18 1.564171 1_555
O79 P19 1.564171 1_555
O80 P20 1.564171 1_555
O81 P21 1.564171 1_555
O82 P22 1.564171 1_555
O83 P23 1.564171 1_555
O84 P12 1.529061 1_555
O84 Sr4 2.551674 1_555
O85 P13 1.529061 1_555
O85 Sr5 2.551674 1_544
O86 P14 1.529061 1_555
O86 Sr6 2.551674 1_655
O87 P15 1.529061 1_555
O87 Sr5 2.551674 1_445
O88 P16 1.529061 1_555
O88 Sr4 2.551674 1_556
O89 P17 1.529061 1_555
O89 Sr7 2.551674 1_555
O90 P18 1.529061 1_555
O90 Sr7 2.551674 1_565
O91 P19 1.529061 1_555
O91 Sr6 2.551674 1_555
O92 P20 1.529061 1_555
O92 Sr5 2.551674 1_454
O93 P21 1.529061 1_555
O93 Sr6 2.551674 1_655
O94 P22 1.529061 1_555
O94 Sr7 2.551674 1_565
O95 P23 1.529061 1_555
O95 Sr4 2.551674 1_556
