# generated using pymatgen
data_Pr23Mg4Rh7
_symmetry_space_group_name_H-M   'P 1'
_cell_length_a   10.11601913
_cell_length_b   10.11601913
_cell_length_c   22.84102343
_cell_angle_alpha   90.00000000
_cell_angle_beta   90.00000000
_cell_angle_gamma   119.99999629
_symmetry_Int_Tables_number   1
_chemical_formula_structural   Pr23Mg4Rh7
_chemical_formula_sum   'Pr46 Mg8 Rh14'
_cell_volume   2024.25626159
_cell_formula_units_Z   2
loop_
 _symmetry_equiv_pos_site_id
 _symmetry_equiv_pos_as_xyz
  1  'x, y, z'
loop_
 _atom_site_type_symbol
 _atom_site_label
 _atom_site_symmetry_multiplicity
 _atom_site_fract_x
 _atom_site_fract_y
 _atom_site_fract_z
 _atom_site_occupancy
  Pr  Pr0  1  0.20781429  0.41562858  0.71887710  1
  Pr  Pr1  1  0.20781429  0.79218571  0.71887710  1
  Pr  Pr2  1  0.79218571  0.58437142  0.21887710  1
  Pr  Pr3  1  0.58437142  0.79218571  0.71887710  1
  Pr  Pr4  1  0.79218571  0.20781429  0.21887710  1
  Pr  Pr5  1  0.41562858  0.20781429  0.21887710  1
  Pr  Pr6  1  0.79218501  0.58437003  0.94830488  1
  Pr  Pr7  1  0.79218501  0.20781499  0.94830488  1
  Pr  Pr8  1  0.20781499  0.41562997  0.44830488  1
  Pr  Pr9  1  0.41562997  0.20781499  0.94830488  1
  Pr  Pr10  1  0.20781499  0.79218501  0.44830488  1
  Pr  Pr11  1  0.58437003  0.79218501  0.44830488  1
  Pr  Pr12  1  0.21023078  0.42046155  0.99100785  1
  Pr  Pr13  1  0.21023078  0.78976922  0.99100785  1
  Pr  Pr14  1  0.78976922  0.57953845  0.49100785  1
  Pr  Pr15  1  0.57953845  0.78976922  0.99100785  1
  Pr  Pr16  1  0.78976922  0.21023078  0.49100785  1
  Pr  Pr17  1  0.42046155  0.21023078  0.49100785  1
  Pr  Pr18  1  0.87141849  0.74283697  0.63481563  1
  Pr  Pr19  1  0.87141849  0.12858151  0.63481563  1
  Pr  Pr20  1  0.12858151  0.25716303  0.13481563  1
  Pr  Pr21  1  0.25716303  0.12858151  0.63481563  1
  Pr  Pr22  1  0.12858151  0.87141849  0.13481563  1
  Pr  Pr23  1  0.74283697  0.87141849  0.13481563  1
  Pr  Pr24  1  0.45835085  0.91670170  0.85624675  1
  Pr  Pr25  1  0.45835085  0.54164915  0.85624675  1
  Pr  Pr26  1  0.54164915  0.08329830  0.35624675  1
  Pr  Pr27  1  0.08329830  0.54164915  0.85624675  1
  Pr  Pr28  1  0.54164915  0.45835085  0.35624675  1
  Pr  Pr29  1  0.91670170  0.45835085  0.35624675  1
  Pr  Pr30  1  0.00000000  0.00000000  0.00030348  1
  Pr  Pr31  1  0.00000000  0.00000000  0.50030348  1
  Pr  Pr32  1  0.45985757  0.91971514  0.58512348  1
  Pr  Pr33  1  0.45985757  0.54014243  0.58512348  1
  Pr  Pr34  1  0.54014243  0.08028486  0.08512348  1
  Pr  Pr35  1  0.08028486  0.54014243  0.58512348  1
  Pr  Pr36  1  0.54014243  0.45985757  0.08512348  1
  Pr  Pr37  1  0.91971514  0.45985757  0.08512348  1
  Pr  Pr38  1  0.79441431  0.58882862  0.78157718  1
  Pr  Pr39  1  0.79441431  0.20558569  0.78157718  1
  Pr  Pr40  1  0.20558569  0.41117138  0.28157718  1
  Pr  Pr41  1  0.41117138  0.20558569  0.78157718  1
  Pr  Pr42  1  0.20558569  0.79441431  0.28157718  1
  Pr  Pr43  1  0.58882862  0.79441431  0.28157718  1
  Pr  Pr44  1  0.66666700  0.33333300  0.64532639  1
  Pr  Pr45  1  0.33333300  0.66666700  0.14532639  1
  Mg  Mg0  1  0.00000000  0.00000000  0.75032246  1
  Mg  Mg1  1  0.00000000  0.00000000  0.25032246  1
  Mg  Mg2  1  0.10562647  0.21125295  0.86270696  1
  Mg  Mg3  1  0.10562647  0.89437353  0.86270696  1
  Mg  Mg4  1  0.89437353  0.78874705  0.36270696  1
  Mg  Mg5  1  0.78874705  0.89437353  0.86270696  1
  Mg  Mg6  1  0.89437353  0.10562647  0.36270696  1
  Mg  Mg7  1  0.21125295  0.10562647  0.36270696  1
  Rh  Rh0  1  0.52091353  0.04182706  0.70972403  1
  Rh  Rh1  1  0.52091353  0.47908647  0.70972403  1
  Rh  Rh2  1  0.47908647  0.95817294  0.20972403  1
  Rh  Rh3  1  0.95817294  0.47908647  0.70972403  1
  Rh  Rh4  1  0.47908647  0.52091353  0.20972403  1
  Rh  Rh5  1  0.04182706  0.52091353  0.20972403  1
  Rh  Rh6  1  0.66666700  0.33333300  0.86419354  1
  Rh  Rh7  1  0.33333300  0.66666700  0.36419354  1
  Rh  Rh8  1  0.14357626  0.28715252  0.56380754  1
  Rh  Rh9  1  0.14357626  0.85642374  0.56380754  1
  Rh  Rh10  1  0.85642374  0.71284748  0.06380754  1
  Rh  Rh11  1  0.71284748  0.85642374  0.56380754  1
  Rh  Rh12  1  0.85642374  0.14357626  0.06380754  1
  Rh  Rh13  1  0.28715252  0.14357626  0.06380754  1
loop_
_geom_bond_atom_site_label_1
_geom_bond_atom_site_label_2
_geom_bond_distance
_geom_bond_site_symmetry_2
Pr0 Rh3 2.907657 1_455
Pr0 Rh1 2.907657 1_555
Pr1 Rh0 2.907657 1_565
Pr1 Rh3 2.907657 1_455
Pr2 Rh5 2.907657 1_655
Pr2 Rh4 2.907657 1_555
Pr3 Rh0 2.907657 1_565
Pr3 Rh1 2.907657 1_555
Pr4 Rh5 2.907657 1_655
Pr4 Rh2 2.907657 1_545
Pr5 Rh2 2.907657 1_545
Pr5 Rh4 2.907657 1_555
Pr6 Rh10 2.868270 1_556
Pr6 Rh6 2.920230 1_555
Pr7 Rh12 2.868270 1_556
Pr7 Rh6 2.920224 1_555
Pr8 Rh8 2.868270 1_555
Pr8 Rh7 2.920230 1_555
Pr9 Rh13 2.868270 1_556
Pr9 Rh6 2.920230 1_555
Pr10 Rh9 2.868270 1_555
Pr10 Rh7 2.920224 1_555
Pr11 Rh11 2.868270 1_555
Pr11 Rh7 2.920230 1_555
Pr12 Rh13 3.659987 1_556
Pr12 Rh12 3.659987 1_456
Pr13 Rh10 3.659987 1_456
Pr13 Rh13 3.659987 1_566
Pr14 Rh11 3.659987 1_555
Pr14 Rh9 3.659987 1_655
Pr15 Rh10 3.659987 1_556
Pr15 Rh12 3.659987 1_566
Pr16 Rh11 3.659987 1_545
Pr16 Rh8 3.659987 1_655
Pr17 Rh8 3.659987 1_555
Pr17 Rh9 3.659987 1_545
Pr18 Rh11 2.892613 1_555
Pr18 Rh9 2.892613 1_655
Pr18 Rh3 3.627397 1_555
Pr18 Rh1 3.627397 1_555
Pr19 Rh11 2.892613 1_545
Pr19 Rh8 2.892613 1_655
Pr19 Rh3 3.627397 1_555
Pr19 Rh0 3.627397 1_555
Pr20 Rh13 2.892613 1_555
Pr20 Rh12 2.892613 1_455
Pr20 Rh5 3.627397 1_555
Pr20 Rh4 3.627397 1_555
Pr21 Rh8 2.892613 1_555
Pr21 Rh9 2.892613 1_545
Pr21 Rh0 3.627397 1_555
Pr21 Rh1 3.627397 1_555
Pr22 Rh10 2.892613 1_455
Pr22 Rh13 2.892613 1_565
Pr22 Rh2 3.627397 1_555
Pr22 Rh5 3.627397 1_555
Pr23 Rh10 2.892613 1_555
Pr23 Rh12 2.892613 1_565
Pr23 Rh2 3.627397 1_555
Pr23 Rh4 3.627397 1_555
Pr24 Rh0 3.521679 1_565
Pr24 Rh6 3.654505 1_565
Pr25 Rh1 3.521679 1_555
Pr25 Rh6 3.654513 1_555
Pr26 Rh2 3.521679 1_545
Pr26 Rh7 3.654505 1_545
Pr27 Rh3 3.521679 1_455
Pr27 Rh6 3.654505 1_455
Pr28 Rh4 3.521679 1_555
Pr28 Rh7 3.654513 1_555
Pr29 Rh5 3.521679 1_655
Pr29 Rh7 3.654505 1_655
Pr30 Rh12 2.903880 1_455
Pr30 Rh10 2.903880 1_445
Pr30 Rh13 2.903880 1_555
Pr31 Rh9 2.903880 1_545
Pr31 Rh8 2.903880 1_555
Pr31 Rh11 2.903880 1_445
Pr32 Rh11 2.972427 1_555
Pr32 Rh9 2.972427 1_555
Pr32 Rh0 3.040426 1_565
Pr33 Rh11 2.972427 1_555
Pr33 Rh8 2.972427 1_555
Pr33 Rh1 3.040426 1_555
Pr34 Rh13 2.972427 1_555
Pr34 Rh12 2.972427 1_555
Pr34 Rh2 3.040426 1_545
Pr35 Rh8 2.972427 1_555
Pr35 Rh9 2.972427 1_555
Pr35 Rh3 3.040426 1_455
Pr36 Rh10 2.972427 1_555
Pr36 Rh13 2.972427 1_555
Pr36 Rh4 3.040426 1_555
Pr37 Rh10 2.972427 1_555
Pr37 Rh12 2.972427 1_555
Pr37 Rh5 3.040426 1_655
Pr38 Rh3 2.917073 1_555
Pr38 Rh1 2.917073 1_555
Pr38 Rh6 2.927634 1_555
Pr39 Rh3 2.917073 1_555
Pr39 Rh0 2.917073 1_555
Pr39 Rh6 2.927627 1_555
Pr40 Rh5 2.917073 1_555
Pr40 Rh4 2.917073 1_555
Pr40 Rh7 2.927634 1_555
Pr41 Rh0 2.917073 1_555
Pr41 Rh1 2.917073 1_555
Pr41 Rh6 2.927634 1_555
Pr42 Rh2 2.917073 1_555
Pr42 Rh5 2.917073 1_555
Pr42 Rh7 2.927627 1_555
Pr43 Rh2 2.917073 1_555
Pr43 Rh4 2.917073 1_555
Pr43 Rh7 2.927634 1_555
Pr44 Rh3 2.947115 1_555
Pr44 Rh0 2.947115 1_555
Pr44 Rh1 2.947123 1_555
Pr45 Rh5 2.947115 1_555
Pr45 Rh2 2.947115 1_555
Pr45 Rh4 2.947123 1_555
Mg0 Mg3 3.164581 1_545
Mg0 Mg2 3.164581 1_555
Mg0 Mg5 3.164581 1_445
Mg0 Pr19 3.469339 1_455
Mg0 Pr18 3.469339 1_445
Mg0 Pr21 3.469339 1_555
Mg0 Pr39 3.672221 1_455
Mg0 Pr38 3.672221 1_445
Mg0 Pr41 3.672221 1_555
Mg0 Pr1 3.711372 1_545
Mg0 Pr0 3.711372 1_555
Mg0 Pr3 3.711372 1_445
Mg1 Mg6 3.164581 1_455
Mg1 Mg4 3.164581 1_445
Mg1 Mg7 3.164581 1_555
Mg1 Pr22 3.469339 1_545
Mg1 Pr20 3.469339 1_555
Mg1 Pr23 3.469339 1_445
Mg1 Pr42 3.672221 1_545
Mg1 Pr43 3.672221 1_445
Mg1 Pr40 3.672221 1_555
Mg1 Pr4 3.711372 1_455
Mg1 Pr2 3.711372 1_445
Mg1 Pr5 3.711372 1_555
Mg2 Mg3 3.205558 1_545
Mg2 Mg5 3.205558 1_445
Mg2 Pr12 3.456472 1_555
Mg2 Pr27 3.463907 1_555
Mg2 Pr25 3.463908 1_555
Mg2 Pr39 3.628784 1_455
Mg2 Pr41 3.628784 1_555
Mg2 Pr30 3.647284 1_556
Mg2 Pr9 3.710440 1_555
Mg2 Pr7 3.710440 1_455
Mg2 Pr0 3.741456 1_555
Mg3 Mg5 3.205558 1_455
Mg3 Pr13 3.456472 1_555
Mg3 Pr27 3.463907 1_555
Mg3 Pr24 3.463907 1_555
Mg3 Pr38 3.628784 1_455
Mg3 Pr41 3.628784 1_565
Mg3 Pr30 3.647284 1_566
Mg3 Pr9 3.710441 1_565
Mg3 Pr6 3.710441 1_455
Mg3 Pr1 3.741456 1_555
Mg4 Mg6 3.205558 1_565
Mg4 Mg7 3.205558 1_665
Mg4 Pr14 3.456472 1_555
Mg4 Pr29 3.463907 1_555
Mg4 Pr28 3.463908 1_555
Mg4 Pr42 3.628784 1_655
Mg4 Pr43 3.628784 1_555
Mg4 Pr31 3.647284 1_665
Mg4 Pr11 3.710440 1_555
Mg4 Pr10 3.710440 1_655
Mg4 Pr2 3.741456 1_555
Mg5 Pr15 3.456472 1_555
Mg5 Pr24 3.463907 1_555
Mg5 Pr25 3.463908 1_555
Mg5 Pr39 3.628784 1_565
Mg5 Pr38 3.628784 1_555
Mg5 Pr30 3.647284 1_666
Mg5 Pr6 3.710440 1_555
Mg5 Pr7 3.710440 1_565
Mg5 Pr3 3.741456 1_555
Mg6 Mg7 3.205558 1_655
Mg6 Pr16 3.456472 1_555
Mg6 Pr26 3.463907 1_555
Mg6 Pr29 3.463907 1_555
Mg6 Pr43 3.628784 1_545
Mg6 Pr40 3.628784 1_655
Mg6 Pr31 3.647284 1_655
Mg6 Pr8 3.710441 1_655
Mg6 Pr11 3.710441 1_545
Mg6 Pr4 3.741456 1_555
Mg7 Pr17 3.456472 1_555
Mg7 Pr26 3.463907 1_555
Mg7 Pr28 3.463908 1_555
Mg7 Pr42 3.628784 1_545
Mg7 Pr40 3.628784 1_555
Mg7 Pr31 3.647284 1_555
Mg7 Pr8 3.710440 1_555
Mg7 Pr10 3.710440 1_545
Mg7 Pr5 3.741456 1_555
