# generated using pymatgen
data_Na2MnVF7
_symmetry_space_group_name_H-M   'P 1'
_cell_length_a   7.60578833
_cell_length_b   7.60578833
_cell_length_c   18.48804000
_cell_angle_alpha   90.00000000
_cell_angle_beta   90.00000000
_cell_angle_gamma   120.00000283
_symmetry_Int_Tables_number   1
_chemical_formula_structural   Na2MnVF7
_chemical_formula_sum   'Na12 Mn6 V6 F42'
_cell_volume   926.21105533
_cell_formula_units_Z   6
loop_
 _symmetry_equiv_pos_site_id
 _symmetry_equiv_pos_as_xyz
  1  'x, y, z'
loop_
 _atom_site_type_symbol
 _atom_site_label
 _atom_site_symmetry_multiplicity
 _atom_site_fract_x
 _atom_site_fract_y
 _atom_site_fract_z
 _atom_site_occupancy
  Na  Na0  1  0.37062400  0.87547700  0.33502900  1
  Na  Na1  1  0.50485400  0.62937600  0.66836200  1
  Na  Na2  1  0.12452300  0.49514600  0.00169500  1
  Na  Na3  1  0.49720000  0.12396100  0.66664600  1
  Na  Na4  1  0.87603900  0.37323900  0.33331300  1
  Na  Na5  1  0.62676100  0.50280000  0.99997900  1
  Na  Na6  1  0.99789700  0.14366800  0.66863000  1
  Na  Na7  1  0.14577100  0.00210300  0.00196400  1
  Na  Na8  1  0.85633200  0.85422900  0.33529700  1
  Na  Na9  1  0.17948100  0.04464600  0.50341100  1
  Na  Na10  1  0.86516500  0.82051900  0.83674500  1
  Na  Na11  1  0.95535400  0.13483500  0.17007800  1
  Mn  Mn0  1  0.16216900  0.50586200  0.50365300  1
  Mn  Mn1  1  0.34369200  0.83783100  0.83698700  1
  Mn  Mn2  1  0.49413800  0.65630800  0.17032000  1
  Mn  Mn3  1  0.66168600  0.49968700  0.49643100  1
  Mn  Mn4  1  0.50031300  0.16199900  0.16309700  1
  Mn  Mn5  1  0.83800100  0.33831400  0.82976400  1
  V  V0  1  0.66283700  0.00078500  0.49994400  1
  V  V1  1  0.33794800  0.33716300  0.83327700  1
  V  V2  1  0.99921500  0.66205200  0.16661100  1
  V  V3  1  0.31433200  0.31432400  0.33312400  1
  V  V4  1  0.99999200  0.68566800  0.66645700  1
  V  V5  1  0.68567600  0.00000800  0.99979100  1
  F  F0  1  0.19504200  0.05299100  0.38587600  1
  F  F1  1  0.85794900  0.80495800  0.71920900  1
  F  F2  1  0.94700900  0.14205100  0.05254200  1
  F  F3  1  0.14158300  0.94751200  0.61532000  1
  F  F4  1  0.05248800  0.19407100  0.28198700  1
  F  F5  1  0.80592900  0.85841700  0.94865300  1
  F  F6  1  0.19320900  0.43284500  0.39568100  1
  F  F7  1  0.23963600  0.80679100  0.72901500  1
  F  F8  1  0.56715500  0.76036400  0.06234800  1
  F  F9  1  0.75726400  0.56653400  0.60499600  1
  F  F10  1  0.43346600  0.19073000  0.27166300  1
  F  F11  1  0.80927000  0.24273600  0.93833000  1
  F  F12  1  0.94431000  0.56153400  0.45717200  1
  F  F13  1  0.61722500  0.05569000  0.79050600  1
  F  F14  1  0.43846600  0.38277500  0.12383900  1
  F  F15  1  0.37632100  0.42605700  0.54017100  1
  F  F16  1  0.57394300  0.95026400  0.20683800  1
  F  F17  1  0.04973600  0.62367900  0.87350500  1
  F  F18  1  0.43820700  0.57937900  0.28116400  1
  F  F19  1  0.14117200  0.56179300  0.61449700  1
  F  F20  1  0.42062100  0.85882800  0.94783000  1
  F  F21  1  0.86037700  0.42272600  0.71878200  1
  F  F22  1  0.57727400  0.43765100  0.38544900  1
  F  F23  1  0.56234900  0.13962300  0.05211500  1
  F  F24  1  0.37637500  0.80978000  0.47503900  1
  F  F25  1  0.43340400  0.62362500  0.80837200  1
  F  F26  1  0.19022000  0.56659600  0.14170600  1
  F  F27  1  0.56313500  0.19047500  0.52487600  1
  F  F28  1  0.80952500  0.37266000  0.19154300  1
  F  F29  1  0.62734000  0.43686500  0.85820900  1
  F  F30  1  0.95123600  0.19023300  0.52668400  1
  F  F31  1  0.23899700  0.04876400  0.86001700  1
  F  F32  1  0.80976700  0.76100300  0.19335100  1
  F  F33  1  0.75917000  0.80991900  0.47301000  1
  F  F34  1  0.19008100  0.94925000  0.13967700  1
  F  F35  1  0.05075000  0.24083000  0.80634300  1
  F  F36  1  0.69546200  0.06851900  0.39507100  1
  F  F37  1  0.37305600  0.30453800  0.72840400  1
  F  F38  1  0.93148100  0.62694400  0.06173800  1
  F  F39  1  0.62723600  0.93241200  0.60482000  1
  F  F40  1  0.06758800  0.69482400  0.27148700  1
  F  F41  1  0.30517600  0.37276400  0.93815400  1
loop_
_geom_bond_atom_site_label_1
_geom_bond_atom_site_label_2
_geom_bond_distance
_geom_bond_site_symmetry_2
F0 V3 1.980330 1_555
F0 Na9 2.175412 1_555
F0 Na8 2.429380 1_445
F0 Na0 2.508585 1_545
F1 V4 1.980330 1_555
F1 Na10 2.175430 1_555
F1 Na6 2.429380 1_565
F1 Na1 2.508579 1_555
F2 V5 1.980320 1_554
F2 Na11 2.175430 1_555
F2 Na7 2.429373 1_655
F2 Na2 2.508579 1_655
F3 V4 1.968515 1_455
F3 Na9 2.167165 1_565
F3 Na6 2.453972 1_465
F3 Na3 2.527310 1_565
F4 V3 1.968515 1_555
F4 Na11 2.167165 1_455
F4 Na8 2.453972 1_445
F4 Na4 2.527310 1_455
F5 V5 1.968524 1_565
F5 Na10 2.167147 1_555
F5 Na7 2.453980 1_666
F5 Na5 2.527310 1_555
F6 V3 1.956872 1_555
F6 Mn0 2.116610 1_555
F6 Na4 2.502154 1_455
F7 V4 1.956882 1_455
F7 Mn1 2.116608 1_555
F7 Na3 2.502162 1_565
F8 V5 1.956872 1_564
F8 Mn2 2.116608 1_555
F8 Na5 2.502162 1_554
F9 V4 1.961535 1_555
F9 Mn3 2.108558 1_555
F9 Na1 2.490787 1_555
F10 V3 1.961535 1_555
F10 Mn4 2.108575 1_555
F10 Na0 2.490793 1_545
F11 V5 1.961535 1_555
F11 Mn5 2.108575 1_555
F11 Na2 2.490782 1_656
F12 Mn3 2.087492 1_555
F12 Mn0 2.089257 1_655
F12 Na4 2.611642 1_555
F13 Mn5 2.087484 1_555
F13 Mn1 2.089266 1_545
F13 Na3 2.611662 1_555
F14 Mn4 2.087479 1_555
F14 Mn2 2.089270 1_555
F14 Na5 2.611659 1_554
F15 Mn3 2.112543 1_555
F15 Mn0 2.113259 1_555
F15 Na9 2.603001 1_555
F15 Na1 2.729871 1_555
F16 Mn4 2.112550 1_565
F16 Mn2 2.113252 1_555
F16 Na11 2.603001 1_565
F16 Na0 2.729871 1_555
F17 Mn5 2.112550 1_455
F17 Mn1 2.113254 1_555
F17 Na10 2.603001 1_455
F17 Na2 2.729858 1_556
F18 V3 1.993792 1_555
F18 Mn2 2.115181 1_555
F18 Na0 2.735933 1_555
F19 V4 1.993792 1_455
F19 Mn0 2.115180 1_555
F19 Na1 2.735940 1_555
F20 V5 1.993800 1_565
F20 Mn1 2.115164 1_555
F20 Na2 2.735937 1_556
F21 V4 1.984771 1_555
F21 Mn5 2.131182 1_555
F21 Na3 2.728712 1_555
F22 V3 1.984771 1_555
F22 Mn3 2.131182 1_555
F22 Na4 2.728712 1_555
F23 V5 1.984762 1_554
F23 Mn4 2.131182 1_555
F23 Na5 2.728712 1_554
F24 V0 1.975934 1_565
F24 Mn0 2.124006 1_555
F24 Na0 2.640802 1_555
F24 Na9 2.895492 1_565
F25 V1 1.975936 1_555
F25 Mn1 2.124010 1_555
F25 Na1 2.640805 1_555
F25 Na10 2.895502 1_555
F26 V2 1.975929 1_455
F26 Mn2 2.124006 1_555
F26 Na2 2.640822 1_555
F26 Na11 2.895498 1_455
F27 V0 1.990744 1_555
F27 Mn3 2.146289 1_555
F27 Na9 2.581838 1_555
F27 Na3 2.669011 1_555
F28 V2 1.990744 1_555
F28 Mn4 2.146293 1_555
F28 Na11 2.581838 1_555
F28 Na4 2.669011 1_555
F29 V1 1.990744 1_555
F29 Mn5 2.146289 1_555
F29 Na10 2.581835 1_555
F29 Na5 2.669011 1_555
F30 V0 1.992844 1_555
F30 Mn0 2.160258 1_655
F30 Na9 2.519356 1_655
F30 Na6 2.695188 1_555
F31 V1 1.992844 1_555
F31 Mn1 2.160248 1_545
F31 Na10 2.519353 1_445
F31 Na7 2.695206 1_556
F32 V2 1.992844 1_555
F32 Mn2 2.160259 1_555
F32 Na11 2.519356 1_565
F32 Na8 2.695188 1_555
F33 V0 1.988924 1_565
F33 Mn3 2.134309 1_555
F33 Na8 2.625448 1_555
F33 Na9 2.831159 1_665
F34 V2 1.988919 1_455
F34 Mn4 2.134307 1_565
F34 Na7 2.625449 1_565
F34 Na11 2.831166 1_465
F35 V1 1.988917 1_555
F35 Mn5 2.134316 1_455
F35 Na6 2.625448 1_455
F35 Na10 2.831162 1_445
F36 V0 1.989587 1_555
F36 Na4 2.319118 1_555
F36 Na0 2.421685 1_545
F36 Na8 2.714570 1_545
F37 V1 1.989586 1_555
F37 Na3 2.319123 1_555
F37 Na1 2.421684 1_555
F37 Na6 2.714564 1_455
F38 V2 1.989587 1_555
F38 Na5 2.319126 1_554
F38 Na2 2.421705 1_655
F38 Na7 2.714564 1_665
F39 V0 1.990596 1_565
F39 Na1 2.326662 1_555
F39 Na3 2.418287 1_565
F39 Na6 2.718715 1_565
F40 V2 1.990596 1_455
F40 Na0 2.326662 1_555
F40 Na4 2.418287 1_455
F40 Na8 2.718715 1_455
F41 V1 1.990614 1_555
F41 Na2 2.326647 1_556
F41 Na5 2.418279 1_555
F41 Na7 2.718715 1_556
