# generated using pymatgen
data_ZrCrCuS4
_symmetry_space_group_name_H-M   'P 1'
_cell_length_a   3.55770400
_cell_length_b   11.16354700
_cell_length_c   12.80744600
_cell_angle_alpha   90.00000000
_cell_angle_beta   90.00000000
_cell_angle_gamma   90.00000000
_symmetry_Int_Tables_number   1
_chemical_formula_structural   ZrCrCuS4
_chemical_formula_sum   'Zr4 Cr4 Cu4 S16'
_cell_volume   508.66815622
_cell_formula_units_Z   4
loop_
 _symmetry_equiv_pos_site_id
 _symmetry_equiv_pos_as_xyz
  1  'x, y, z'
loop_
 _atom_site_type_symbol
 _atom_site_label
 _atom_site_symmetry_multiplicity
 _atom_site_fract_x
 _atom_site_fract_y
 _atom_site_fract_z
 _atom_site_occupancy
  Zr  Zr0  1  0.50000000  0.94034200  0.86732000  1
  Zr  Zr1  1  0.50000000  0.44034200  0.13268000  1
  Zr  Zr2  1  0.50000000  0.91064100  0.33871000  1
  Zr  Zr3  1  0.50000000  0.41064100  0.66129000  1
  Cr  Cr0  1  0.00000000  0.05601300  0.63693900  1
  Cr  Cr1  1  0.00000000  0.55601300  0.36306100  1
  Cr  Cr2  1  0.00000000  0.08622600  0.15749200  1
  Cr  Cr3  1  0.00000000  0.58622600  0.84250800  1
  Cu  Cu0  1  0.50000000  0.75365100  0.09205500  1
  Cu  Cu1  1  0.00000000  0.24780400  0.40491100  1
  Cu  Cu2  1  0.00000000  0.74780400  0.59508900  1
  Cu  Cu3  1  0.50000000  0.25365100  0.90794500  1
  S  S0  1  0.00000000  0.96973300  0.46624700  1
  S  S1  1  0.50000000  0.04163100  0.04257300  1
  S  S2  1  0.50000000  0.54163100  0.95742700  1
  S  S3  1  0.00000000  0.46973300  0.53375300  1
  S  S4  1  0.50000000  0.90816800  0.66950000  1
  S  S5  1  0.00000000  0.09937700  0.81939600  1
  S  S6  1  0.00000000  0.59937700  0.18060400  1
  S  S7  1  0.50000000  0.40816800  0.33050000  1
  S  S8  1  0.00000000  0.87505700  0.19616700  1
  S  S9  1  0.50000000  0.13268400  0.28143200  1
  S  S10  1  0.50000000  0.63268400  0.71856800  1
  S  S11  1  0.00000000  0.37505700  0.80383300  1
  S  S12  1  0.00000000  0.78533300  0.92651500  1
  S  S13  1  0.50000000  0.19334100  0.58543600  1
  S  S14  1  0.50000000  0.69334100  0.41456400  1
  S  S15  1  0.00000000  0.28533300  0.07348500  1
loop_
_geom_bond_atom_site_label_1
_geom_bond_atom_site_label_2
_geom_bond_distance
_geom_bond_site_symmetry_2
Cr0 S5 2.386424 1_555
Cr0 S0 2.388911 1_545
Cr0 S13 2.439203 1_455
Cr0 S13 2.439203 1_555
Cr0 S4 2.462172 1_545
Cr0 S4 2.462172 1_445
Cr1 S6 2.386424 1_555
Cr1 S3 2.388911 1_555
Cr1 S14 2.439203 1_455
Cr1 S14 2.439203 1_555
Cr1 S7 2.462172 1_455
Cr1 S7 2.462172 1_555
Cr2 S1 2.361865 1_455
Cr2 S1 2.361865 1_555
Cr2 S8 2.408871 1_545
Cr2 S9 2.439876 1_455
Cr2 S9 2.439876 1_555
Cr2 S15 2.469447 1_555
Cr3 S2 2.361865 1_555
Cr3 S2 2.361865 1_455
Cr3 S11 2.408871 1_555
Cr3 S10 2.439876 1_455
Cr3 S10 2.439876 1_555
Cr3 S12 2.469447 1_555
Cu0 S8 2.603688 1_655
Cu0 S8 2.603688 1_555
Cu0 S6 2.723343 1_655
Cu0 S6 2.723343 1_555
Cu0 S12 2.790057 1_654
Cu0 S12 2.790057 1_554
Cu0 S2 2.928344 1_554
Cu1 S7 2.697680 1_455
Cu1 S7 2.697680 1_555
Cu1 S9 2.704978 1_455
Cu1 S9 2.704978 1_555
Cu1 S3 2.976749 1_555
Cu1 S13 2.979869 1_455
Cu1 S13 2.979869 1_555
Cu2 S4 2.697680 1_555
Cu2 S4 2.697680 1_455
Cu2 S10 2.704978 1_455
Cu2 S10 2.704978 1_555
Cu2 S0 2.976749 1_555
Cu2 S14 2.979869 1_555
Cu2 S14 2.979869 1_455
Cu3 S11 2.603688 1_555
Cu3 S11 2.603688 1_655
Cu3 S5 2.723343 1_555
Cu3 S5 2.723343 1_655
Cu3 S15 2.790057 1_556
Cu3 S15 2.790057 1_656
Cu3 S1 2.928344 1_556
S0 Zr2 2.503509 1_555
S0 Zr2 2.503509 1_455
S1 Zr0 2.513276 1_544
S2 Zr1 2.513276 1_556
S3 Zr3 2.503509 1_555
S3 Zr3 2.503509 1_455
S4 Zr0 2.558902 1_555
S5 Zr0 2.587097 1_445
S5 Zr0 2.587097 1_545
S6 Zr1 2.587097 1_555
S6 Zr1 2.587097 1_455
S7 Zr1 2.558902 1_555
S8 Zr2 2.579724 1_455
S8 Zr2 2.579724 1_555
S9 Zr2 2.585060 1_545
S10 Zr3 2.585060 1_555
S11 Zr3 2.579724 1_555
S11 Zr3 2.579724 1_455
S12 Zr0 2.594907 1_455
S12 Zr0 2.594907 1_555
S13 Zr3 2.613140 1_555
S14 Zr2 2.613140 1_555
S15 Zr1 2.594907 1_555
S15 Zr1 2.594907 1_455
