# generated using pymatgen
data_BaLiZrO3
_symmetry_space_group_name_H-M   'P 1'
_cell_length_a   4.45959085
_cell_length_b   4.45959085
_cell_length_c   4.45959085
_cell_angle_alpha   82.29357815
_cell_angle_beta   97.70642185
_cell_angle_gamma   97.70642185
_symmetry_Int_Tables_number   1
_chemical_formula_structural   BaLiZrO3
_chemical_formula_sum   'Ba1 Li1 Zr1 O3'
_cell_volume   86.48625607
_cell_formula_units_Z   1
loop_
 _symmetry_equiv_pos_site_id
 _symmetry_equiv_pos_as_xyz
  1  'x, y, z'
loop_
 _atom_site_type_symbol
 _atom_site_label
 _atom_site_symmetry_multiplicity
 _atom_site_fract_x
 _atom_site_fract_y
 _atom_site_fract_z
 _atom_site_occupancy
  Ba  Ba0  1  0.08010200  0.91989800  0.91989800  1
  Li  Li0  1  0.75450800  0.24549200  0.24549200  1
  Zr  Zr0  1  0.47151600  0.52848400  0.52848400  1
  O  O0  1  0.48448800  0.02510000  0.51551200  1
  O  O1  1  0.48448800  0.51551200  0.02510000  1
  O  O2  1  0.97490000  0.51551200  0.51551200  1
loop_
_geom_bond_atom_site_label_1
_geom_bond_atom_site_label_2
_geom_bond_distance
_geom_bond_site_symmetry_2
Ba0 O2 2.672637 1_455
Ba0 O0 2.672637 1_565
Ba0 O1 2.672637 1_556
Ba0 Li0 2.832207 1_466
Ba0 O0 3.057830 1_465
Ba0 O1 3.057830 1_456
Ba0 O2 3.057830 1_465
Ba0 O2 3.057830 1_456
Ba0 O1 3.057830 1_566
Ba0 O0 3.057830 1_566
Li0 O1 1.902672 1_555
Li0 O0 1.902672 1_555
Li0 O2 1.902672 1_555
O0 Zr0 2.200860 1_545
O0 Zr0 2.262027 1_555
O1 Zr0 2.200860 1_554
O1 Zr0 2.262027 1_555
O2 Zr0 2.200860 1_655
O2 Zr0 2.262027 1_555
