# generated using pymatgen
data_KLaTbBiO6
_symmetry_space_group_name_H-M   'P 1'
_cell_length_a   8.60088022
_cell_length_b   8.48484775
_cell_length_c   8.59817699
_cell_angle_alpha   90.00000000
_cell_angle_beta   90.00000000
_cell_angle_gamma   90.00000000
_symmetry_Int_Tables_number   1
_chemical_formula_structural   KLaTbBiO6
_chemical_formula_sum   'K4 La4 Tb4 Bi4 O24'
_cell_volume   627.47053088
_cell_formula_units_Z   4
loop_
 _symmetry_equiv_pos_site_id
 _symmetry_equiv_pos_as_xyz
  1  'x, y, z'
loop_
 _atom_site_type_symbol
 _atom_site_label
 _atom_site_symmetry_multiplicity
 _atom_site_fract_x
 _atom_site_fract_y
 _atom_site_fract_z
 _atom_site_occupancy
  K  K0  1  -0.00000000  0.50000000  0.50000000  1
  K  K1  1  0.50000000  0.50000000  0.00000000  1
  K  K2  1  0.50000000  0.00000000  0.00000000  1
  K  K3  1  0.00000000  0.00000000  0.50000000  1
  La  La0  1  0.50000000  0.00000000  0.50000000  1
  La  La1  1  -0.00000000  0.50000000  0.00000000  1
  La  La2  1  -0.00000000  0.00000000  0.00000000  1
  La  La3  1  0.50000000  0.50000000  0.50000000  1
  Tb  Tb0  1  0.25000000  0.25000000  0.25000000  1
  Tb  Tb1  1  0.75000000  0.75000000  0.25000000  1
  Tb  Tb2  1  0.75000000  0.25000000  0.75000000  1
  Tb  Tb3  1  0.25000000  0.75000000  0.75000000  1
  Bi  Bi0  1  0.75000000  0.75000000  0.75000000  1
  Bi  Bi1  1  0.25000000  0.25000000  0.75000000  1
  Bi  Bi2  1  0.25000000  0.75000000  0.25000000  1
  Bi  Bi3  1  0.75000000  0.25000000  0.25000000  1
  O  O0  1  0.99313543  0.20741049  0.26093398  1
  O  O1  1  0.00686457  0.79258951  0.26093398  1
  O  O2  1  0.00686457  0.20741049  0.73906602  1
  O  O3  1  0.99313543  0.79258951  0.73906602  1
  O  O4  1  0.27490750  0.99330731  0.20998277  1
  O  O5  1  0.27490750  0.00669269  0.79001723  1
  O  O6  1  0.72509250  0.00669269  0.20998277  1
  O  O7  1  0.72509250  0.99330731  0.79001723  1
  O  O8  1  0.18902995  0.28241695  0.99400262  1
  O  O9  1  0.81097005  0.28241695  0.00599738  1
  O  O10  1  0.18902995  0.71758305  0.00599738  1
  O  O11  1  0.81097005  0.71758305  0.99400262  1
  O  O12  1  0.50686457  0.29258951  0.23906602  1
  O  O13  1  0.49313543  0.70741049  0.23906602  1
  O  O14  1  0.49313543  0.29258951  0.76093398  1
  O  O15  1  0.50686457  0.70741049  0.76093398  1
  O  O16  1  0.22509250  0.50669269  0.29001723  1
  O  O17  1  0.22509250  0.49330731  0.70998277  1
  O  O18  1  0.77490750  0.49330731  0.29001723  1
  O  O19  1  0.77490750  0.50669269  0.70998277  1
  O  O20  1  0.31097005  0.21758305  0.50599738  1
  O  O21  1  0.68902995  0.21758305  0.49400262  1
  O  O22  1  0.31097005  0.78241695  0.49400262  1
  O  O23  1  0.68902995  0.78241695  0.50599738  1
loop_
_geom_bond_atom_site_label_1
_geom_bond_atom_site_label_2
_geom_bond_distance
_geom_bond_site_symmetry_2
K0 O16 2.647832 1_555
K0 O17 2.647832 1_555
K0 O18 2.647832 1_455
K0 O19 2.647832 1_455
K0 O3 3.223645 1_455
K0 O0 3.223645 1_455
K0 O2 3.223645 1_555
K0 O1 3.223645 1_555
K1 O14 2.706614 1_554
K1 O15 2.706614 1_554
K1 O13 2.706614 1_555
K1 O12 2.706614 1_555
K1 O11 3.250313 1_554
K1 O10 3.250313 1_555
K1 O9 3.250313 1_555
K1 O8 3.250313 1_554
K2 O5 2.647832 1_554
K2 O4 2.647832 1_545
K2 O7 2.647832 1_544
K2 O6 2.647832 1_555
K2 O13 3.223645 1_545
K2 O15 3.223645 1_544
K2 O12 3.223645 1_555
K2 O14 3.223645 1_554
K3 O2 2.706614 1_555
K3 O3 2.706614 1_445
K3 O0 2.706614 1_455
K3 O1 2.706614 1_545
K3 O22 3.250313 1_545
K3 O21 3.250313 1_455
K3 O23 3.250313 1_445
K3 O20 3.250313 1_555
La0 O23 2.460542 1_545
La0 O22 2.460542 1_545
La0 O21 2.460542 1_555
La0 O20 2.460542 1_555
La1 O9 2.460542 1_455
La1 O11 2.460542 1_454
La1 O10 2.460542 1_555
La1 O8 2.460542 1_554
La2 O0 2.852033 1_455
La2 O3 2.852033 1_444
La2 O2 2.852033 1_554
La2 O1 2.852033 1_545
La2 O11 2.896213 1_444
La2 O10 2.896213 1_545
La2 O8 2.896213 1_554
La2 O9 2.896213 1_455
La2 O7 2.975492 1_444
La2 O4 2.975492 1_545
La2 O5 2.975492 1_554
La2 O6 2.975492 1_455
La3 O15 2.852033 1_555
La3 O12 2.852033 1_555
La3 O14 2.852033 1_555
La3 O13 2.852033 1_555
La3 O21 2.896213 1_555
La3 O22 2.896213 1_555
La3 O20 2.896213 1_555
La3 O23 2.896213 1_555
La3 O18 2.975492 1_555
La3 O19 2.975492 1_555
La3 O16 2.975492 1_555
La3 O17 2.975492 1_555
Bi0 O7 2.103838 1_555
Bi0 O19 2.103838 1_555
Bi0 O3 2.124253 1_555
Bi0 O15 2.124253 1_555
Bi0 O11 2.179944 1_555
Bi0 O23 2.179944 1_555
Bi1 O17 2.103838 1_555
Bi1 O5 2.103838 1_555
Bi1 O14 2.124253 1_555
Bi1 O2 2.124253 1_555
Bi1 O20 2.179944 1_555
Bi1 O8 2.179944 1_555
Bi2 O16 2.103838 1_555
Bi2 O4 2.103838 1_555
Bi2 O1 2.124253 1_555
Bi2 O13 2.124253 1_555
Bi2 O10 2.179944 1_555
Bi2 O22 2.179944 1_555
Bi3 O18 2.103838 1_555
Bi3 O6 2.103838 1_555
Bi3 O12 2.124253 1_555
Bi3 O0 2.124253 1_555
Bi3 O21 2.179944 1_555
Bi3 O9 2.179944 1_555
O0 Tb0 2.240594 1_655
O1 Tb1 2.240594 1_455
O2 Tb2 2.240594 1_455
O3 Tb3 2.240594 1_655
O4 Tb0 2.215391 1_565
O5 Tb3 2.215391 1_545
O6 Tb1 2.215391 1_545
O7 Tb2 2.215391 1_565
O8 Tb0 2.279371 1_556
O9 Tb2 2.279371 1_554
O10 Tb3 2.279371 1_554
O11 Tb1 2.279371 1_556
O12 Tb0 2.240594 1_555
O13 Tb1 2.240594 1_555
O14 Tb2 2.240594 1_555
O15 Tb3 2.240594 1_555
O16 Tb0 2.215391 1_555
O17 Tb3 2.215391 1_555
O18 Tb1 2.215391 1_555
O19 Tb2 2.215391 1_555
O20 Tb0 2.279371 1_555
O21 Tb2 2.279371 1_555
O22 Tb3 2.279371 1_555
O23 Tb1 2.279371 1_555
