# generated using pymatgen
data_PrAs2Au
_symmetry_space_group_name_H-M   'P 1'
_cell_length_a   5.82430192
_cell_length_b   5.86237451
_cell_length_c   20.84642552
_cell_angle_alpha   90.00000000
_cell_angle_beta   90.00000000
_cell_angle_gamma   90.00000000
_symmetry_Int_Tables_number   1
_chemical_formula_structural   PrAs2Au
_chemical_formula_sum   'Pr8 As16 Au8'
_cell_volume   711.78533763
_cell_formula_units_Z   8
loop_
 _symmetry_equiv_pos_site_id
 _symmetry_equiv_pos_as_xyz
  1  'x, y, z'
loop_
 _atom_site_type_symbol
 _atom_site_label
 _atom_site_symmetry_multiplicity
 _atom_site_fract_x
 _atom_site_fract_y
 _atom_site_fract_z
 _atom_site_occupancy
  Pr  Pr0  1  0.25000000  0.98513027  0.62091484  1
  Pr  Pr1  1  0.75000000  0.01486973  0.37908516  1
  Pr  Pr2  1  0.75000000  0.98513027  0.87908516  1
  Pr  Pr3  1  0.25000000  0.01486973  0.12091484  1
  Pr  Pr4  1  0.75000000  0.48620642  0.61624225  1
  Pr  Pr5  1  0.25000000  0.51379358  0.38375775  1
  Pr  Pr6  1  0.25000000  0.48620642  0.88375775  1
  Pr  Pr7  1  0.75000000  0.51379358  0.11624225  1
  As  As0  1  0.75000000  0.98570415  0.66229977  1
  As  As1  1  0.25000000  0.01429585  0.33770023  1
  As  As2  1  0.25000000  0.98570415  0.83770023  1
  As  As3  1  0.75000000  0.01429585  0.16229977  1
  As  As4  1  0.25000000  0.48599960  0.66070966  1
  As  As5  1  0.75000000  0.51400040  0.33929034  1
  As  As6  1  0.75000000  0.48599960  0.83929034  1
  As  As7  1  0.25000000  0.51400040  0.16070966  1
  As  As8  1  0.03369142  0.21908383  0.50115512  1
  As  As9  1  0.53369142  0.78091617  0.49884488  1
  As  As10  1  0.96630858  0.21908383  0.99884488  1
  As  As11  1  0.46630858  0.78091617  0.00115512  1
  As  As12  1  0.96630858  0.78091617  0.49884488  1
  As  As13  1  0.46630858  0.21908383  0.50115512  1
  As  As14  1  0.03369142  0.78091617  0.00115512  1
  As  As15  1  0.53369142  0.21908383  0.99884488  1
  Au  Au0  1  0.50000000  0.72989722  0.75000000  1
  Au  Au1  1  0.00000000  0.27010278  0.25000000  1
  Au  Au2  1  0.50000000  0.27010278  0.25000000  1
  Au  Au3  1  0.00000000  0.72989722  0.75000000  1
  Au  Au4  1  0.50000000  0.23349681  0.75000000  1
  Au  Au5  1  0.00000000  0.76650319  0.25000000  1
  Au  Au6  1  0.50000000  0.76650319  0.25000000  1
  Au  Au7  1  0.00000000  0.23349681  0.75000000  1
loop_
_geom_bond_atom_site_label_1
_geom_bond_atom_site_label_2
_geom_bond_distance
_geom_bond_site_symmetry_2
As0 Au7 2.751873 1_665
As0 Au4 2.751873 1_565
As0 Au0 2.776961 1_555
As0 Au3 2.776961 1_655
As0 Pr0 3.037258 1_555
As0 Pr0 3.037258 1_655
As0 Pr4 3.081633 1_555
As0 Pr4 3.087230 1_565
As1 Au5 2.751873 1_545
As1 Au6 2.751873 1_545
As1 Au1 2.776961 1_555
As1 Au2 2.776961 1_555
As1 Pr1 3.037258 1_555
As1 Pr1 3.037258 1_455
As1 Pr5 3.081633 1_555
As1 Pr5 3.087230 1_545
As2 Au7 2.751873 1_565
As2 Au4 2.751873 1_565
As2 Au3 2.776961 1_555
As2 Au0 2.776961 1_555
As2 Pr2 3.037258 1_555
As2 Pr2 3.037258 1_455
As2 Pr6 3.081633 1_555
As2 Pr6 3.087230 1_565
As3 Au6 2.751873 1_545
As3 Au5 2.751873 1_645
As3 Au1 2.776961 1_655
As3 Au2 2.776961 1_555
As3 Pr3 3.037258 1_555
As3 Pr3 3.037258 1_655
As3 Pr7 3.081633 1_555
As3 Pr7 3.087230 1_545
As4 Au3 2.762117 1_555
As4 Au0 2.762117 1_555
As4 Au7 2.788565 1_555
As4 Au4 2.788565 1_555
As4 Pr0 3.041416 1_555
As4 Pr0 3.051223 1_545
As4 Pr4 3.056130 1_555
As4 Pr4 3.056130 1_455
As5 Au1 2.762117 1_655
As5 Au2 2.762117 1_555
As5 Au5 2.788565 1_655
As5 Au6 2.788565 1_555
As5 Pr1 3.041416 1_555
As5 Pr1 3.051223 1_565
As5 Pr5 3.056130 1_555
As5 Pr5 3.056130 1_655
As6 Au3 2.762117 1_655
As6 Au0 2.762117 1_555
As6 Au4 2.788565 1_555
As6 Au7 2.788565 1_655
As6 Pr2 3.041416 1_555
As6 Pr2 3.051223 1_545
As6 Pr6 3.056130 1_655
As6 Pr6 3.056130 1_555
As7 Au1 2.762117 1_555
As7 Au2 2.762117 1_555
As7 Au6 2.788565 1_555
As7 Au5 2.788565 1_555
As7 Pr3 3.041416 1_555
As7 Pr3 3.051223 1_565
As7 Pr7 3.056130 1_555
As7 Pr7 3.056130 1_455
As8 Pr0 3.114661 1_545
As8 Pr5 3.249848 1_555
As8 Pr1 3.261742 1_455
As8 Pr4 3.307314 1_455
As9 Pr1 3.114661 1_565
As9 Pr4 3.249848 1_555
As9 Pr0 3.261742 1_555
As9 Pr5 3.307314 1_555
As10 As15 2.519693 1_555
As10 As14 2.598957 1_646
As10 Pr2 3.114661 1_545
As10 Pr7 3.249848 1_556
As10 Pr3 3.261742 1_656
As10 Pr6 3.307314 1_655
As11 As14 2.519693 1_555
As11 As15 2.598957 1_564
As11 Pr3 3.114661 1_565
As11 Pr6 3.249848 1_554
As11 Pr2 3.261742 1_554
As11 Pr7 3.307314 1_555
As12 As9 2.519693 1_555
As12 As8 2.598957 1_665
As12 Pr1 3.114661 1_565
As12 Pr4 3.249848 1_555
As12 Pr0 3.261742 1_655
As12 Pr5 3.307314 1_655
As13 As8 2.519693 1_555
As13 As9 2.598957 1_545
As13 Pr0 3.114661 1_545
As13 Pr5 3.249848 1_555
As13 Pr1 3.261742 1_555
As13 Pr4 3.307314 1_555
As14 Pr3 3.114661 1_565
As14 Pr6 3.249848 1_554
As14 Pr2 3.261742 1_454
As14 Pr7 3.307314 1_455
As15 Pr2 3.114661 1_545
As15 Pr7 3.249848 1_556
As15 Pr3 3.261742 1_556
As15 Pr6 3.307314 1_555
Au0 Au4 2.910085 1_555
Au0 Au3 2.912151 1_555
Au0 Au3 2.912151 1_655
Au0 Au4 2.952289 1_565
Au0 Pr2 3.405917 1_555
Au0 Pr0 3.405917 1_555
Au0 Pr4 3.454864 1_555
Au0 Pr6 3.454864 1_555
Au1 Au5 2.910085 1_555
Au1 Au2 2.912151 1_455
Au1 Au2 2.912151 1_555
Au1 Au5 2.952289 1_545
Au1 Pr3 3.405917 1_555
Au1 Pr1 3.405917 1_455
Au1 Pr7 3.454864 1_455
Au1 Pr5 3.454864 1_555
Au2 Au6 2.910085 1_555
Au2 Au6 2.952289 1_545
Au2 Pr1 3.405917 1_555
Au2 Pr3 3.405917 1_555
Au2 Pr7 3.454864 1_555
Au2 Pr5 3.454864 1_555
Au3 Au7 2.910085 1_555
Au3 Au7 2.952289 1_565
Au3 Pr2 3.405917 1_455
Au3 Pr0 3.405917 1_555
Au3 Pr6 3.454864 1_555
Au3 Pr4 3.454864 1_455
Au4 Au7 2.912151 1_555
Au4 Au7 2.912151 1_655
Au4 Pr2 3.388426 1_545
Au4 Pr0 3.388426 1_545
Au4 Pr4 3.477060 1_555
Au4 Pr6 3.477060 1_555
Au5 Au6 2.912151 1_555
Au5 Au6 2.912151 1_455
Au5 Pr1 3.388426 1_465
Au5 Pr3 3.388426 1_565
Au5 Pr5 3.477060 1_555
Au5 Pr7 3.477060 1_455
Au6 Pr1 3.388426 1_565
Au6 Pr3 3.388426 1_565
Au6 Pr5 3.477060 1_555
Au6 Pr7 3.477060 1_555
Au7 Pr2 3.388426 1_445
Au7 Pr0 3.388426 1_545
Au7 Pr4 3.477060 1_455
Au7 Pr6 3.477060 1_555
