# generated using pymatgen
data_Zr6CoI14
_symmetry_space_group_name_H-M   'P 1'
_cell_length_a   11.05223374
_cell_length_b   11.05223374
_cell_length_c   13.35257500
_cell_angle_alpha   90.00000000
_cell_angle_beta   90.00000000
_cell_angle_gamma   94.80393579
_symmetry_Int_Tables_number   1
_chemical_formula_structural   Zr6CoI14
_chemical_formula_sum   'Zr12 Co2 I28'
_cell_volume   1625.31234062
_cell_formula_units_Z   2
loop_
 _symmetry_equiv_pos_site_id
 _symmetry_equiv_pos_as_xyz
  1  'x, y, z'
loop_
 _atom_site_type_symbol
 _atom_site_label
 _atom_site_symmetry_multiplicity
 _atom_site_fract_x
 _atom_site_fract_y
 _atom_site_fract_z
 _atom_site_occupancy
  Zr  Zr0  1  0.95476900  0.17661100  0.11346800  1
  Zr  Zr1  1  0.04523100  0.82338900  0.88653200  1
  Zr  Zr2  1  0.54523100  0.32338900  0.61346800  1
  Zr  Zr3  1  0.67661100  0.45476900  0.38653200  1
  Zr  Zr4  1  0.45476900  0.67661100  0.38653200  1
  Zr  Zr5  1  0.32338900  0.54523100  0.61346800  1
  Zr  Zr6  1  0.82338900  0.04523100  0.88653200  1
  Zr  Zr7  1  0.17661100  0.95476900  0.11346800  1
  Zr  Zr8  1  0.36219200  0.36219200  0.39857500  1
  Zr  Zr9  1  0.63780800  0.63780800  0.60142500  1
  Zr  Zr10  1  0.13780800  0.13780800  0.89857500  1
  Zr  Zr11  1  0.86219200  0.86219200  0.10142500  1
  Co  Co0  1  0.00000000  0.00000000  0.00000000  1
  Co  Co1  1  0.50000000  0.50000000  0.50000000  1
  I  I0  1  0.28620500  0.53489900  0.25451100  1
  I  I1  1  0.71379500  0.46510100  0.74548900  1
  I  I2  1  0.21379500  0.96510100  0.75451100  1
  I  I3  1  0.03489900  0.78620500  0.24548900  1
  I  I4  1  0.78620500  0.03489900  0.24548900  1
  I  I5  1  0.96510100  0.21379500  0.75451100  1
  I  I6  1  0.46510100  0.71379500  0.74548900  1
  I  I7  1  0.53489900  0.28620500  0.25451100  1
  I  I8  1  0.11400800  0.36045400  0.00945400  1
  I  I9  1  0.88599200  0.63954600  0.99054600  1
  I  I10  1  0.38599200  0.13954600  0.50945400  1
  I  I11  1  0.86045400  0.61400800  0.49054600  1
  I  I12  1  0.61400800  0.86045400  0.49054600  1
  I  I13  1  0.13954600  0.38599200  0.50945400  1
  I  I14  1  0.63954600  0.88599200  0.99054600  1
  I  I15  1  0.36045400  0.11400800  0.00945400  1
  I  I16  1  0.89670000  0.39670000  0.25000000  1
  I  I17  1  0.10330000  0.60330000  0.75000000  1
  I  I18  1  0.60330000  0.10330000  0.75000000  1
  I  I19  1  0.39670000  0.89670000  0.25000000  1
  I  I20  1  0.75005900  0.24994100  0.00000000  1
  I  I21  1  0.24994100  0.75005900  0.00000000  1
  I  I22  1  0.74994100  0.25005900  0.50000000  1
  I  I23  1  0.25005900  0.74994100  0.50000000  1
  I  I24  1  0.15087300  0.15087300  0.26180200  1
  I  I25  1  0.84912700  0.84912700  0.73819800  1
  I  I26  1  0.34912700  0.34912700  0.76180200  1
  I  I27  1  0.65087300  0.65087300  0.23819800  1
loop_
_geom_bond_atom_site_label_1
_geom_bond_atom_site_label_2
_geom_bond_distance
_geom_bond_site_symmetry_2
Co0 Zr10 2.466804 1_554
Co0 Zr11 2.466804 1_445
Co0 Zr7 2.553220 1_545
Co0 Zr0 2.553220 1_455
Co0 Zr6 2.553220 1_454
Co0 Zr1 2.553220 1_544
Co1 Zr9 2.466804 1_555
Co1 Zr8 2.466804 1_555
Co1 Zr5 2.553220 1_555
Co1 Zr3 2.553220 1_555
Co1 Zr4 2.553220 1_555
Co1 Zr2 2.553220 1_555
I0 Zr8 2.884034 1_555
I0 Zr4 2.922789 1_555
I1 Zr9 2.884034 1_555
I1 Zr2 2.922789 1_555
I2 Zr10 2.884034 1_565
I2 Zr1 2.922789 1_555
I3 Zr11 2.884034 1_455
I3 Zr7 2.922789 1_555
I4 Zr11 2.884034 1_545
I4 Zr0 2.922789 1_555
I5 Zr10 2.884034 1_655
I5 Zr6 2.922789 1_555
I6 Zr9 2.884034 1_555
I6 Zr5 2.922789 1_555
I7 Zr8 2.884034 1_555
I7 Zr3 2.922789 1_555
I8 Zr10 2.902545 1_554
I8 Zr0 2.925046 1_455
I9 Zr11 2.902545 1_556
I9 Zr1 2.925046 1_655
I10 Zr8 2.902545 1_555
I10 Zr2 2.925046 1_555
I11 Zr9 2.902545 1_555
I11 Zr3 2.925046 1_555
I12 Zr9 2.902545 1_555
I12 Zr4 2.925046 1_555
I13 Zr8 2.902545 1_555
I13 Zr5 2.925046 1_555
I14 Zr11 2.902545 1_556
I14 Zr6 2.925046 1_565
I15 Zr10 2.902545 1_554
I15 Zr7 2.925046 1_545
I16 Zr0 3.148625 1_555
I16 Zr3 3.148625 1_555
I17 Zr1 3.148625 1_555
I17 Zr5 3.148625 1_555
I18 Zr6 3.148625 1_555
I18 Zr2 3.148625 1_555
I19 Zr7 3.148625 1_555
I19 Zr4 3.148625 1_555
I20 Zr6 2.894545 1_554
I20 Zr0 2.894545 1_555
I21 Zr1 2.894545 1_554
I21 Zr7 2.894545 1_555
I22 Zr2 2.894545 1_555
I22 Zr3 2.894545 1_555
I23 Zr5 2.894545 1_555
I23 Zr4 2.894545 1_555
I24 Zr7 2.967270 1_545
I24 Zr0 2.967270 1_455
I24 Zr8 3.651191 1_555
I25 Zr1 2.967270 1_655
I25 Zr6 2.967270 1_565
I25 Zr9 3.651191 1_555
I26 Zr2 2.967270 1_555
I26 Zr5 2.967270 1_555
I26 Zr10 3.651191 1_555
I27 Zr4 2.967270 1_555
I27 Zr3 2.967270 1_555
I27 Zr11 3.651191 1_555
