# generated using pymatgen
data_YbCr2O2
_symmetry_space_group_name_H-M   'P 1'
_cell_length_a   7.72643178
_cell_length_b   7.72643178
_cell_length_c   7.72643178
_cell_angle_alpha   113.97436242
_cell_angle_beta   113.97436242
_cell_angle_gamma   100.79784365
_symmetry_Int_Tables_number   1
_chemical_formula_structural   YbCr2O2
_chemical_formula_sum   'Yb4 Cr8 O8'
_cell_volume   349.10164462
_cell_formula_units_Z   4
loop_
 _symmetry_equiv_pos_site_id
 _symmetry_equiv_pos_as_xyz
  1  'x, y, z'
loop_
 _atom_site_type_symbol
 _atom_site_label
 _atom_site_symmetry_multiplicity
 _atom_site_fract_x
 _atom_site_fract_y
 _atom_site_fract_z
 _atom_site_occupancy
  Yb  Yb0  1  0.87500000  0.12500000  0.75000000  1
  Yb  Yb1  1  0.37500000  0.12500000  0.25000000  1
  Yb  Yb2  1  0.87500000  0.62500000  0.75000000  1
  Yb  Yb3  1  0.87500000  0.12500000  0.25000000  1
  Cr  Cr0  1  0.81131900  0.49599600  0.31532300  1
  Cr  Cr1  1  0.18067300  0.49599600  0.68467700  1
  Cr  Cr2  1  0.24599600  0.43067300  0.18467700  1
  Cr  Cr3  1  0.56932700  0.75400400  0.81532300  1
  Cr  Cr4  1  0.93868100  0.75400400  0.18467700  1
  Cr  Cr5  1  0.24599600  0.06131900  0.81532300  1
  Cr  Cr6  1  0.50400400  0.81932700  0.31532300  1
  Cr  Cr7  1  0.50400400  0.18868100  0.68467700  1
  O  O0  1  0.50197600  0.33537300  0.16660300  1
  O  O1  1  0.16877000  0.33537300  0.83339700  1
  O  O2  1  0.08537300  0.41877000  0.33339700  1
  O  O3  1  0.58123000  0.91462700  0.66660300  1
  O  O4  1  0.24802400  0.91462700  0.33339700  1
  O  O5  1  0.08537300  0.75197600  0.66660300  1
  O  O6  1  0.66462700  0.83123000  0.16660300  1
  O  O7  1  0.66462700  0.49802400  0.83339700  1
loop_
_geom_bond_atom_site_label_1
_geom_bond_atom_site_label_2
_geom_bond_distance
_geom_bond_site_symmetry_2
Cr0 O0 2.017677 1_555
Cr0 O5 2.271559 1_655
Cr0 O2 2.271559 1_655
Cr1 O1 2.017677 1_555
Cr1 O2 2.271559 1_555
Cr1 O5 2.271559 1_555
Cr2 O2 2.017677 1_555
Cr2 O1 2.271559 1_554
Cr2 O0 2.271559 1_555
Cr3 O3 2.017677 1_555
Cr3 O7 2.271559 1_555
Cr3 O6 2.271559 1_556
Cr4 O4 2.017677 1_655
Cr4 O7 2.271559 1_554
Cr4 O6 2.271559 1_555
Cr5 O5 2.017677 1_545
Cr5 O1 2.271559 1_555
Cr5 O0 2.271559 1_556
Cr6 O6 2.017677 1_555
Cr6 O3 2.271559 1_555
Cr6 O4 2.271559 1_555
Cr7 O7 2.017677 1_555
Cr7 O4 2.271559 1_545
Cr7 O3 2.271559 1_545
O0 Yb1 2.187947 1_555
O1 Yb0 2.187947 1_455
O2 Yb3 2.187947 1_455
O3 Yb0 2.187947 1_565
O4 Yb1 2.187947 1_565
O5 Yb2 2.187947 1_455
O6 Yb3 2.187947 1_565
O7 Yb2 2.187947 1_555
