# generated using pymatgen
data_Pr6Ge3S14
_symmetry_space_group_name_H-M   'P 1'
_cell_length_a   10.32951416
_cell_length_b   10.32952899
_cell_length_c   5.81539483
_cell_angle_alpha   90.00009817
_cell_angle_beta   89.99995849
_cell_angle_gamma   119.99974735
_symmetry_Int_Tables_number   1
_chemical_formula_structural   Pr6Ge3S14
_chemical_formula_sum   'Pr6 Ge3 S14'
_cell_volume   537.36745136
_cell_formula_units_Z   1
loop_
 _symmetry_equiv_pos_site_id
 _symmetry_equiv_pos_as_xyz
  1  'x, y, z'
loop_
 _atom_site_type_symbol
 _atom_site_label
 _atom_site_symmetry_multiplicity
 _atom_site_fract_x
 _atom_site_fract_y
 _atom_site_fract_z
 _atom_site_occupancy
  Pr  Pr0  1  0.30912194  0.10048541  0.75660980  1
  Pr  Pr1  1  0.79136424  0.69087907  0.75660790  1
  Pr  Pr2  1  0.89951466  0.20863521  0.75660667  1
  Pr  Pr3  1  0.02550627  0.56631081  0.24800155  1
  Pr  Pr4  1  0.54080479  0.97449360  0.24800140  1
  Pr  Pr5  1  0.43368948  0.45919529  0.24800147  1
  Ge  Ge0  1  0.00000034  -0.00000075  0.17287760  1
  Ge  Ge1  1  0.33333273  0.66666807  0.66380879  1
  Ge  Ge2  1  0.66666698  0.33333290  0.51335309  1
  S  S0  1  0.14673047  0.22505565  0.01934927  1
  S  S1  1  0.07832528  0.85326879  0.01934877  1
  S  S2  1  0.77494417  0.92167496  0.01934921  1
  S  S3  1  0.18652390  0.44123217  0.51284922  1
  S  S4  1  0.25470555  0.81347669  0.51285370  1
  S  S5  1  0.55876825  0.74529178  0.51284856  1
  S  S6  1  0.00000029  -0.00000045  0.54695699  1
  S  S7  1  0.33333314  0.66666725  0.03886535  1
  S  S8  1  0.41383386  0.17030746  0.27470545  1
  S  S9  1  0.75647397  0.58616591  0.27470585  1
  S  S10  1  0.82969163  0.24352573  0.27470147  1
  S  S11  1  0.92215257  0.50059665  0.76222103  1
  S  S12  1  0.57844405  0.07784563  0.76221674  1
  S  S13  1  0.49940542  0.42155814  0.76222211  1
loop_
_geom_bond_atom_site_label_1
_geom_bond_atom_site_label_2
_geom_bond_distance
_geom_bond_site_symmetry_2
Pr0 S13 2.888782 1_555
Pr0 S12 2.906144 1_555
Pr0 S1 2.907112 1_546
Pr0 S8 2.960371 1_555
Pr0 S0 2.993738 1_556
Pr0 S6 3.073322 1_555
Pr0 S4 3.073789 1_545
Pr0 S8 3.160338 1_556
Pr1 S11 2.888751 1_555
Pr1 S13 2.906135 1_555
Pr1 S2 2.907102 1_556
Pr1 S9 2.960360 1_555
Pr1 S1 2.993746 1_656
Pr1 S6 3.073319 1_665
Pr1 S5 3.073805 1_555
Pr1 S9 3.160356 1_556
Pr2 S12 2.888754 1_555
Pr2 S11 2.906154 1_555
Pr2 S0 2.907104 1_656
Pr2 S10 2.960380 1_555
Pr2 S2 2.993749 1_546
Pr2 S6 3.073306 1_655
Pr2 S3 3.073817 1_655
Pr2 S10 3.160336 1_556
Pr3 S9 2.891162 1_455
Pr3 S4 2.907109 1_555
Pr3 S10 2.913476 1_455
Pr3 S11 2.975987 1_454
Pr3 S3 2.992777 1_555
Pr3 S1 3.038870 1_555
Pr3 S7 3.060738 1_555
Pr3 S11 3.133413 1_455
Pr4 S10 2.891170 1_565
Pr4 S5 2.907097 1_555
Pr4 S8 2.913460 1_565
Pr4 S12 2.976007 1_564
Pr4 S4 2.992819 1_555
Pr4 S2 3.038859 1_555
Pr4 S7 3.060743 1_555
Pr4 S12 3.133384 1_565
Pr5 S8 2.891170 1_555
Pr5 S3 2.907098 1_555
Pr5 S9 2.913464 1_555
Pr5 S13 2.975978 1_554
Pr5 S5 2.992783 1_555
Pr5 S0 3.038878 1_555
Pr5 S7 3.060749 1_555
Pr5 S13 3.133419 1_555
Ge0 S6 2.175419 1_555
Ge0 S1 2.230511 1_545
Ge0 S2 2.230522 1_445
Ge0 S0 2.230527 1_555
Ge1 S7 2.181102 1_556
Ge1 S4 2.227461 1_555
Ge1 S5 2.227478 1_555
Ge1 S3 2.227479 1_555
Ge2 S10 2.680406 1_555
Ge2 S8 2.680413 1_555
Ge2 S9 2.680414 1_555
Ge2 S13 2.735812 1_555
Ge2 S11 2.735813 1_555
Ge2 S12 2.735814 1_555
