# generated using pymatgen
data_Rb2CrBrCl3
_symmetry_space_group_name_H-M   'P 1'
_cell_length_a   9.03994084
_cell_length_b   9.03994084
_cell_length_c   7.24316800
_cell_angle_alpha   90.00000000
_cell_angle_beta   90.00000000
_cell_angle_gamma   132.78104200
_symmetry_Int_Tables_number   1
_chemical_formula_structural   Rb2CrBrCl3
_chemical_formula_sum   'Rb4 Cr2 Br2 Cl6'
_cell_volume   434.43914860
_cell_formula_units_Z   2
loop_
 _symmetry_equiv_pos_site_id
 _symmetry_equiv_pos_as_xyz
  1  'x, y, z'
loop_
 _atom_site_type_symbol
 _atom_site_label
 _atom_site_symmetry_multiplicity
 _atom_site_fract_x
 _atom_site_fract_y
 _atom_site_fract_z
 _atom_site_occupancy
  Rb  Rb0  1  0.86387800  0.13612200  0.50000000  1
  Rb  Rb1  1  0.36387800  0.63612200  0.00000000  1
  Rb  Rb2  1  0.13937800  0.86062200  0.50000000  1
  Rb  Rb3  1  0.63937800  0.36062200  0.00000000  1
  Cr  Cr0  1  0.49653500  0.50346500  0.50000000  1
  Cr  Cr1  1  0.99653500  0.00346500  0.00000000  1
  Br  Br0  1  0.65544300  0.34455700  0.50000000  1
  Br  Br1  1  0.15544300  0.84455700  0.00000000  1
  Cl  Cl0  1  0.34818000  0.65182000  0.50000000  1
  Cl  Cl1  1  0.84818000  0.15182000  0.00000000  1
  Cl  Cl2  1  0.73975900  0.74317400  0.73980300  1
  Cl  Cl3  1  0.25682600  0.26024100  0.26019700  1
  Cl  Cl4  1  0.75682600  0.76024100  0.23980300  1
  Cl  Cl5  1  0.23975900  0.24317400  0.76019700  1
loop_
_geom_bond_atom_site_label_1
_geom_bond_atom_site_label_2
_geom_bond_distance
_geom_bond_site_symmetry_2
Br0 Cr0 2.632554 1_555
Br0 Rb0 3.453045 1_555
Br0 Rb2 3.630271 1_545
Br0 Rb2 3.630271 1_655
Br0 Rb3 3.631350 1_555
Br0 Rb3 3.631350 1_556
Br1 Cr1 2.632554 1_465
Br1 Rb1 3.453045 1_555
Br1 Rb3 3.630271 1_455
Br1 Rb3 3.630271 1_565
Br1 Rb2 3.631350 1_554
Br1 Rb2 3.631350 1_555
Cl0 Cr0 2.457728 1_555
Cl0 Rb2 3.459125 1_555
Cl0 Rb0 3.629830 1_455
Cl0 Rb0 3.629830 1_565
Cl0 Rb1 3.630909 1_555
Cl0 Rb1 3.630909 1_556
Cl1 Cr1 2.457728 1_555
Cl1 Rb3 3.459125 1_555
Cl1 Rb1 3.629830 1_655
Cl1 Rb1 3.629830 1_545
Cl1 Rb0 3.630909 1_555
Cl1 Rb0 3.630909 1_554
Cl2 Cr0 2.464731 1_555
Cl2 Cr1 2.656557 1_566
Cl2 Rb0 3.388220 1_565
Cl2 Rb1 3.401114 1_556
Cl2 Rb2 3.461855 1_655
Cl2 Rb3 3.474475 1_556
Cl3 Cr0 2.464731 1_555
Cl3 Cr1 2.656557 1_455
Cl3 Rb0 3.388220 1_455
Cl3 Rb1 3.401114 1_555
Cl3 Rb2 3.461855 1_545
Cl3 Rb3 3.474475 1_555
Cl4 Cr1 2.464731 1_565
Cl4 Cr0 2.656557 1_555
Cl4 Rb1 3.388220 1_555
Cl4 Rb0 3.401114 1_565
Cl4 Rb3 3.461855 1_555
Cl4 Rb2 3.474475 1_655
Cl5 Cr1 2.464731 1_456
Cl5 Cr0 2.656557 1_555
Cl5 Rb1 3.388220 1_556
Cl5 Rb0 3.401114 1_455
Cl5 Rb3 3.461855 1_556
Cl5 Rb2 3.474475 1_545
