# generated using pymatgen
data_DyMg2W3S8
_symmetry_space_group_name_H-M   'P 1'
_cell_length_a   7.57482848
_cell_length_b   7.57459679
_cell_length_c   7.43027461
_cell_angle_alpha   57.78741806
_cell_angle_beta   57.78341449
_cell_angle_gamma   60.08082782
_symmetry_Int_Tables_number   1
_chemical_formula_structural   DyMg2W3S8
_chemical_formula_sum   'Dy1 Mg2 W3 S8'
_cell_volume   291.13084126
_cell_formula_units_Z   1
loop_
 _symmetry_equiv_pos_site_id
 _symmetry_equiv_pos_as_xyz
  1  'x, y, z'
loop_
 _atom_site_type_symbol
 _atom_site_label
 _atom_site_symmetry_multiplicity
 _atom_site_fract_x
 _atom_site_fract_y
 _atom_site_fract_z
 _atom_site_occupancy
  Dy  Dy0  1  0.49999800  0.50001100  0.49998100  1
  Mg  Mg0  1  0.87675800  0.87676400  0.86789100  1
  Mg  Mg1  1  0.12323900  0.12322700  0.13215200  1
  W  W0  1  0.50019600  0.50017900  0.99961600  1
  W  W1  1  0.99982400  0.49999300  0.50019200  1
  W  W2  1  0.49999800  0.99983700  0.50017600  1
  S  S0  1  0.74302100  0.74301900  0.73443700  1
  S  S1  1  0.24342200  0.24342300  0.72347100  1
  S  S2  1  0.24894600  0.72796300  0.24301400  1
  S  S3  1  0.72797300  0.24894800  0.24301900  1
  S  S4  1  0.75105100  0.27192500  0.75695900  1
  S  S5  1  0.27192800  0.75105400  0.75696400  1
  S  S6  1  0.25708800  0.25709200  0.26555000  1
  S  S7  1  0.75656100  0.75655900  0.27657900  1
loop_
_geom_bond_atom_site_label_1
_geom_bond_atom_site_label_2
_geom_bond_distance
_geom_bond_site_symmetry_2
Dy0 S7 2.682757 1_555
Dy0 S1 2.682960 1_555
Dy0 S5 2.706131 1_555
Dy0 S3 2.706195 1_555
Dy0 S4 2.706351 1_555
Dy0 S2 2.706375 1_555
Mg0 S7 2.410519 1_556
Mg0 S4 2.430772 1_565
Mg0 S5 2.430834 1_655
Mg0 S0 2.490305 1_555
Mg1 S1 2.410493 1_554
Mg1 S2 2.431496 1_545
Mg1 S3 2.431501 1_455
Mg1 S6 2.491403 1_555
S0 W0 2.509151 1_555
S0 W1 2.536869 1_555
S0 W2 2.537127 1_555
S1 W2 2.486484 1_545
S1 W1 2.486655 1_455
S2 W1 2.466195 1_455
S2 W0 2.500164 1_554
S3 W2 2.466165 1_545
S3 W0 2.500338 1_554
S4 W1 2.464859 1_555
S4 W0 2.498779 1_555
S5 W2 2.464923 1_555
S5 W0 2.499022 1_555
S6 W0 2.511904 1_554
S6 W1 2.538295 1_455
S6 W2 2.538453 1_545
S7 W2 2.486278 1_555
S7 W1 2.486462 1_555
