# generated using pymatgen
data_Lu4MnGe8
_symmetry_space_group_name_H-M   'P 1'
_cell_length_a   3.95162500
_cell_length_b   4.13739100
_cell_length_c   15.71822300
_cell_angle_alpha   90.00000000
_cell_angle_beta   90.00000000
_cell_angle_gamma   90.00000000
_symmetry_Int_Tables_number   1
_chemical_formula_structural   Lu4MnGe8
_chemical_formula_sum   'Lu4 Mn1 Ge8'
_cell_volume   256.98379349
_cell_formula_units_Z   1
loop_
 _symmetry_equiv_pos_site_id
 _symmetry_equiv_pos_as_xyz
  1  'x, y, z'
loop_
 _atom_site_type_symbol
 _atom_site_label
 _atom_site_symmetry_multiplicity
 _atom_site_fract_x
 _atom_site_fract_y
 _atom_site_fract_z
 _atom_site_occupancy
  Lu  Lu0  1  0.25000000  0.00000000  0.09993300  1
  Lu  Lu1  1  0.25000000  0.50000000  0.60778700  1
  Lu  Lu2  1  0.75000000  0.50000000  0.39921500  1
  Lu  Lu3  1  0.75000000  0.00000000  0.89615500  1
  Mn  Mn0  1  0.25000000  0.00000000  0.31109100  1
  Ge  Ge0  1  0.25000000  0.00000000  0.46044400  1
  Ge  Ge1  1  0.25000000  0.50000000  0.94439900  1
  Ge  Ge2  1  0.75000000  0.50000000  0.05587600  1
  Ge  Ge3  1  0.75000000  0.00000000  0.56735000  1
  Ge  Ge4  1  0.25000000  0.50000000  0.23934500  1
  Ge  Ge5  1  0.25000000  0.00000000  0.74914400  1
  Ge  Ge6  1  0.75000000  0.00000000  0.23347800  1
  Ge  Ge7  1  0.75000000  0.50000000  0.75378400  1
loop_
_geom_bond_atom_site_label_1
_geom_bond_atom_site_label_2
_geom_bond_distance
_geom_bond_site_symmetry_2
Lu2 Mn0 3.178362 1_655
Lu2 Mn0 3.178362 1_665
Lu2 Mn0 3.178362 1_565
Lu2 Mn0 3.178362 1_555
Ge0 Mn0 2.347564 1_555
Ge0 Ge3 2.593740 1_555
Ge0 Ge3 2.593740 1_455
Ge0 Lu2 3.018207 1_545
Ge0 Lu2 3.018207 1_555
Ge0 Lu2 3.018207 1_445
Ge0 Lu2 3.018207 1_455
Ge0 Lu1 3.105353 1_555
Ge0 Lu1 3.105353 1_545
Ge1 Ge2 2.640854 1_456
Ge1 Ge2 2.640854 1_556
Ge1 Lu3 2.959454 1_455
Ge1 Lu3 2.959454 1_465
Ge1 Lu3 2.959454 1_555
Ge1 Lu3 2.959454 1_565
Ge1 Lu0 3.202522 1_566
Ge1 Lu0 3.202522 1_556
Ge2 Lu0 2.943279 1_555
Ge2 Lu0 2.943279 1_565
Ge2 Lu0 2.943279 1_655
Ge2 Lu0 2.943279 1_665
Ge2 Lu3 3.253039 1_564
Ge2 Lu3 3.253039 1_554
Ge3 Lu1 2.930413 1_645
Ge3 Lu1 2.930413 1_555
Ge3 Lu1 2.930413 1_545
Ge3 Lu1 2.930413 1_655
Ge3 Lu2 3.356159 1_545
Ge3 Lu2 3.356159 1_555
Ge4 Mn0 2.356110 1_565
Ge4 Mn0 2.356110 1_555
Ge4 Lu0 3.013525 1_555
Ge4 Lu0 3.013525 1_565
Ge4 Lu2 3.196617 1_455
Ge4 Lu2 3.196617 1_555
Ge5 Ge7 2.861583 1_455
Ge5 Ge7 2.861583 1_555
Ge5 Ge7 2.861583 1_445
Ge5 Ge7 2.861583 1_545
Ge5 Lu1 3.035829 1_555
Ge5 Lu1 3.035829 1_545
Ge5 Lu3 3.040297 1_555
Ge5 Lu3 3.040297 1_455
Ge6 Mn0 2.322086 1_655
Ge6 Mn0 2.322086 1_555
Ge6 Lu0 2.882710 1_555
Ge6 Lu0 2.882710 1_655
Ge6 Lu2 3.326560 1_555
Ge6 Lu2 3.326560 1_545
Ge7 Lu1 3.028201 1_555
Ge7 Lu1 3.028201 1_655
Ge7 Lu3 3.047513 1_555
Ge7 Lu3 3.047513 1_565
