# generated using pymatgen
data_Rb2LiPu(Cl2O)2
_symmetry_space_group_name_H-M   'P 1'
_cell_length_a   6.13241058
_cell_length_b   7.08779433
_cell_length_c   7.08779433
_cell_angle_alpha   64.70430063
_cell_angle_beta   99.50545522
_cell_angle_gamma   99.50545522
_symmetry_Int_Tables_number   1
_chemical_formula_structural   Rb2LiPu(Cl2O)2
_chemical_formula_sum   'Rb2 Li1 Pu1 Cl4 O2'
_cell_volume   273.15930823
_cell_formula_units_Z   1
loop_
 _symmetry_equiv_pos_site_id
 _symmetry_equiv_pos_as_xyz
  1  'x, y, z'
loop_
 _atom_site_type_symbol
 _atom_site_label
 _atom_site_symmetry_multiplicity
 _atom_site_fract_x
 _atom_site_fract_y
 _atom_site_fract_z
 _atom_site_occupancy
  Rb  Rb0  1  0.69749900  0.86830600  0.86830600  1
  Rb  Rb1  1  0.29745900  0.15758500  0.15758500  1
  Li  Li0  1  0.03627200  0.64531500  0.64531500  1
  Pu  Pu0  1  0.47894900  0.49811500  0.49811500  1
  Cl  Cl0  1  0.78760000  0.85871300  0.37982800  1
  Cl  Cl1  1  0.78760000  0.37982800  0.85871300  1
  Cl  Cl2  1  0.22420100  0.12455700  0.66244100  1
  Cl  Cl3  1  0.22420100  0.66244100  0.12455700  1
  O  O0  1  0.62496000  0.38045200  0.38045200  1
  O  O1  1  0.33084300  0.61913400  0.61913400  1
loop_
_geom_bond_atom_site_label_1
_geom_bond_atom_site_label_2
_geom_bond_distance
_geom_bond_site_symmetry_2
Li0 O1 1.892859 1_555
Cl0 Li0 2.352844 1_655
Cl0 Pu0 2.813001 1_555
Cl0 Rb0 3.548905 1_554
Cl0 Rb0 3.625243 1_555
Cl0 Rb1 3.651332 1_665
Cl0 Rb1 3.700105 1_565
Cl1 Li0 2.352844 1_655
Cl1 Pu0 2.813001 1_555
Cl1 Rb0 3.548905 1_545
Cl1 Rb0 3.625243 1_555
Cl1 Rb1 3.651332 1_656
Cl1 Rb1 3.700105 1_556
Cl2 Pu0 2.721555 1_555
Cl2 Rb0 3.453938 1_545
Cl2 Rb1 3.566466 1_556
Cl2 Rb1 3.583479 1_555
Cl2 Rb0 3.635201 1_445
Cl3 Pu0 2.721555 1_555
Cl3 Rb0 3.453938 1_554
Cl3 Rb1 3.566466 1_565
Cl3 Rb1 3.583479 1_555
Cl3 Rb0 3.635201 1_454
O0 Pu0 1.811185 1_555
O0 Rb1 3.010116 1_555
O1 Pu0 1.854665 1_555
O1 Rb0 3.366915 1_555
