# generated using pymatgen
data_Na2NbBiO6
_symmetry_space_group_name_H-M   'P 1'
_cell_length_a   5.79417334
_cell_length_b   5.79417334
_cell_length_c   5.79417334
_cell_angle_alpha   60.00000000
_cell_angle_beta   60.00000000
_cell_angle_gamma   60.00000000
_symmetry_Int_Tables_number   1
_chemical_formula_structural   Na2NbBiO6
_chemical_formula_sum   'Na2 Nb1 Bi1 O6'
_cell_volume   137.54963831
_cell_formula_units_Z   1
loop_
 _symmetry_equiv_pos_site_id
 _symmetry_equiv_pos_as_xyz
  1  'x, y, z'
loop_
 _atom_site_type_symbol
 _atom_site_label
 _atom_site_symmetry_multiplicity
 _atom_site_fract_x
 _atom_site_fract_y
 _atom_site_fract_z
 _atom_site_occupancy
  Na  Na0  1  0.25000000  0.25000000  0.25000000  1
  Na  Na1  1  0.75000000  0.75000000  0.75000000  1
  Nb  Nb0  1  0.50000000  0.50000000  0.50000000  1
  Bi  Bi0  1  -0.00000000  0.00000000  0.00000000  1
  O  O0  1  0.74348483  0.25651517  0.25651517  1
  O  O1  1  0.25651517  0.74348483  0.74348483  1
  O  O2  1  0.74348483  0.25651517  0.74348483  1
  O  O3  1  0.25651517  0.74348483  0.25651517  1
  O  O4  1  0.74348483  0.74348483  0.25651517  1
  O  O5  1  0.25651517  0.25651517  0.74348483  1
loop_
_geom_bond_atom_site_label_1
_geom_bond_atom_site_label_2
_geom_bond_distance
_geom_bond_site_symmetry_2
Na0 O1 2.897579 1_545
Na0 O0 2.897579 1_455
Na0 O3 2.897579 1_555
Na0 O0 2.897579 1_555
Na0 O4 2.897579 1_455
Na0 O1 2.897579 1_554
Na0 O5 2.897579 1_554
Na0 O3 2.897579 1_545
Na0 O2 2.897579 1_455
Na0 O2 2.897579 1_554
Na0 O5 2.897579 1_555
Na0 O4 2.897579 1_545
Na1 O2 2.897579 1_555
Na1 O4 2.897579 1_555
Na1 O1 2.897579 1_555
Na1 O0 2.897579 1_565
Na1 O3 2.897579 1_655
Na1 O5 2.897579 1_565
Na1 O5 2.897579 1_655
Na1 O3 2.897579 1_556
Na1 O0 2.897579 1_556
Na1 O2 2.897579 1_565
Na1 O4 2.897579 1_556
Na1 O1 2.897579 1_655
Nb0 O2 1.995163 1_555
Nb0 O4 1.995163 1_555
Nb0 O1 1.995163 1_555
Nb0 O5 1.995163 1_555
Nb0 O0 1.995163 1_555
Nb0 O3 1.995163 1_555
Bi0 O4 2.101936 1_445
Bi0 O3 2.101936 1_545
Bi0 O1 2.101936 1_544
Bi0 O2 2.101936 1_454
Bi0 O0 2.101936 1_455
Bi0 O5 2.101936 1_554
