# generated using pymatgen
data_NiPt
_symmetry_space_group_name_H-M   'P 1'
_cell_length_a   9.01839827
_cell_length_b   9.01839827
_cell_length_c   9.01839836
_cell_angle_alpha   34.93758698
_cell_angle_beta   34.93758698
_cell_angle_gamma   34.93759803
_symmetry_Int_Tables_number   1
_chemical_formula_structural   NiPt
_chemical_formula_sum   'Ni8 Pt8'
_cell_volume   214.76585792
_cell_formula_units_Z   8
loop_
 _symmetry_equiv_pos_site_id
 _symmetry_equiv_pos_as_xyz
  1  'x, y, z'
loop_
 _atom_site_type_symbol
 _atom_site_label
 _atom_site_symmetry_multiplicity
 _atom_site_fract_x
 _atom_site_fract_y
 _atom_site_fract_z
 _atom_site_occupancy
  Ni  Ni0_0  1  0.00000000  0.00000000  0.00000000  1
  Ni  Ni0_1  1  0.00000000  0.00000000  0.50000000  1
  Ni  Ni0_2  1  0.00000000  0.50000000  0.00000000  1
  Ni  Ni0_3  1  0.00000000  0.50000000  0.50000000  1
  Ni  Ni0_4  1  0.50000000  0.00000000  0.00000000  1
  Ni  Ni0_5  1  0.50000000  0.00000000  0.50000000  1
  Ni  Ni0_6  1  0.50000000  0.50000000  0.00000000  1
  Ni  Ni0_7  1  0.50000000  0.50000000  0.50000000  1
  Pt  Pt0_0  1  0.25000000  0.25000000  0.25000000  1
  Pt  Pt0_1  1  0.25000000  0.25000000  0.75000000  1
  Pt  Pt0_2  1  0.25000000  0.75000000  0.25000000  1
  Pt  Pt0_3  1  0.25000000  0.75000000  0.75000000  1
  Pt  Pt0_4  1  0.75000000  0.25000000  0.25000000  1
  Pt  Pt0_5  1  0.75000000  0.25000000  0.75000000  1
  Pt  Pt0_6  1  0.75000000  0.75000000  0.25000000  1
  Pt  Pt0_7  1  0.75000000  0.75000000  0.75000000  1
loop_
_geom_bond_atom_site_label_1
_geom_bond_atom_site_label_2
_geom_bond_distance
_geom_bond_site_symmetry_2
Ni0_0 Pt0_1 2.629724 1_554
Ni0_0 Pt0_6 2.629724 1_445
Ni0_0 Pt0_3 2.629725 1_544
Ni0_0 Pt0_5 2.629725 1_454
Ni0_0 Pt0_2 2.629725 1_545
Ni0_0 Pt0_4 2.629725 1_455
Ni0_0 Ni0_5 2.707200 1_455
Ni0_0 Ni0_3 2.707200 1_545
Ni0_0 Ni0_5 2.707200 1_554
Ni0_0 Ni0_3 2.707200 1_554
Ni0_0 Ni0_6 2.707200 1_545
Ni0_0 Ni0_6 2.707200 1_455
Ni0_1 Pt0_7 2.629724 1_445
Ni0_1 Pt0_0 2.629724 1_555
Ni0_1 Pt0_4 2.629725 1_455
Ni0_1 Pt0_2 2.629725 1_545
Ni0_1 Pt0_5 2.629725 1_455
Ni0_1 Pt0_3 2.629725 1_545
Ni0_1 Ni0_2 2.707200 1_546
Ni0_1 Ni0_4 2.707200 1_456
Ni0_1 Ni0_2 2.707200 1_555
Ni0_1 Ni0_4 2.707200 1_555
Ni0_1 Ni0_7 2.707200 1_455
Ni0_1 Ni0_7 2.707200 1_545
Ni0_2 Pt0_4 2.629724 1_455
Ni0_2 Pt0_3 2.629724 1_554
Ni0_2 Pt0_7 2.629725 1_454
Ni0_2 Pt0_0 2.629725 1_555
Ni0_2 Pt0_1 2.629725 1_554
Ni0_2 Pt0_6 2.629725 1_455
Ni0_2 Ni0_7 2.707200 1_554
Ni0_2 Ni0_7 2.707200 1_455
Ni0_2 Ni0_4 2.707200 1_465
Ni0_2 Ni0_4 2.707200 1_555
Ni0_3 Pt0_5 2.629724 1_455
Ni0_3 Pt0_2 2.629724 1_555
Ni0_3 Pt0_0 2.629725 1_555
Ni0_3 Pt0_1 2.629725 1_555
Ni0_3 Pt0_6 2.629725 1_455
Ni0_3 Pt0_7 2.629725 1_455
Ni0_3 Ni0_6 2.707200 1_555
Ni0_3 Ni0_6 2.707200 1_456
Ni0_3 Ni0_5 2.707200 1_555
Ni0_3 Ni0_5 2.707200 1_465
Ni0_4 Pt0_2 2.629724 1_545
Ni0_4 Pt0_5 2.629724 1_554
Ni0_4 Pt0_7 2.629725 1_544
Ni0_4 Pt0_0 2.629725 1_555
Ni0_4 Pt0_6 2.629725 1_545
Ni0_4 Pt0_1 2.629725 1_554
Ni0_4 Ni0_7 2.707200 1_545
Ni0_4 Ni0_7 2.707200 1_554
Ni0_5 Pt0_3 2.629724 1_545
Ni0_5 Pt0_4 2.629724 1_555
Ni0_5 Pt0_6 2.629725 1_545
Ni0_5 Pt0_0 2.629725 1_555
Ni0_5 Pt0_1 2.629725 1_555
Ni0_5 Pt0_7 2.629725 1_545
Ni0_5 Ni0_6 2.707200 1_555
Ni0_5 Ni0_6 2.707200 1_546
Ni0_6 Pt0_0 2.629724 1_555
Ni0_6 Pt0_7 2.629724 1_554
Ni0_6 Pt0_3 2.629725 1_554
Ni0_6 Pt0_5 2.629725 1_554
Ni0_6 Pt0_2 2.629725 1_555
Ni0_6 Pt0_4 2.629725 1_555
Ni0_7 Pt0_1 2.629724 1_555
Ni0_7 Pt0_6 2.629724 1_555
Ni0_7 Pt0_4 2.629725 1_555
Ni0_7 Pt0_2 2.629725 1_555
Ni0_7 Pt0_3 2.629725 1_555
Ni0_7 Pt0_5 2.629725 1_555
Pt0_0 Pt0_5 2.707200 1_455
Pt0_0 Pt0_3 2.707200 1_545
Pt0_0 Pt0_3 2.707200 1_554
Pt0_0 Pt0_5 2.707200 1_554
Pt0_0 Pt0_6 2.707200 1_455
Pt0_0 Pt0_6 2.707200 1_545
Pt0_1 Pt0_2 2.707200 1_546
Pt0_1 Pt0_4 2.707200 1_555
Pt0_1 Pt0_4 2.707200 1_456
Pt0_1 Pt0_2 2.707200 1_555
Pt0_1 Pt0_7 2.707200 1_545
Pt0_1 Pt0_7 2.707200 1_455
Pt0_2 Pt0_7 2.707200 1_455
Pt0_2 Pt0_7 2.707200 1_554
Pt0_2 Pt0_4 2.707200 1_555
Pt0_2 Pt0_4 2.707200 1_465
Pt0_3 Pt0_6 2.707200 1_555
Pt0_3 Pt0_6 2.707200 1_456
Pt0_3 Pt0_5 2.707200 1_465
Pt0_3 Pt0_5 2.707201 1_555
Pt0_4 Pt0_7 2.707200 1_545
Pt0_4 Pt0_7 2.707200 1_554
Pt0_5 Pt0_6 2.707200 1_555
Pt0_5 Pt0_6 2.707200 1_546
