# generated using pymatgen
data_La2Zn5Pb
_symmetry_space_group_name_H-M   'P 1'
_cell_length_a   4.59092700
_cell_length_b   8.80228551
_cell_length_c   9.25414400
_cell_angle_alpha   90.00000000
_cell_angle_beta   90.00000000
_cell_angle_gamma   105.11637647
_symmetry_Int_Tables_number   1
_chemical_formula_structural   La2Zn5Pb
_chemical_formula_sum   'La4 Zn10 Pb2'
_cell_volume   361.02605531
_cell_formula_units_Z   2
loop_
 _symmetry_equiv_pos_site_id
 _symmetry_equiv_pos_as_xyz
  1  'x, y, z'
loop_
 _atom_site_type_symbol
 _atom_site_label
 _atom_site_symmetry_multiplicity
 _atom_site_fract_x
 _atom_site_fract_y
 _atom_site_fract_z
 _atom_site_occupancy
  La  La0  1  0.79213600  0.58427200  0.25000000  1
  La  La1  1  0.20786400  0.41572800  0.75000000  1
  La  La2  1  0.00000000  0.00000000  0.50000000  1
  La  La3  1  0.00000000  0.00000000  0.00000000  1
  Zn  Zn0  1  0.18581300  0.37162700  0.39255100  1
  Zn  Zn1  1  0.81418700  0.62837300  0.60744900  1
  Zn  Zn2  1  0.18581300  0.37162700  0.10744900  1
  Zn  Zn3  1  0.81418700  0.62837300  0.89255100  1
  Zn  Zn4  1  0.34193300  0.68386600  0.48807700  1
  Zn  Zn5  1  0.65806700  0.31613400  0.51192300  1
  Zn  Zn6  1  0.34193300  0.68386600  0.01192300  1
  Zn  Zn7  1  0.65806700  0.31613400  0.98807700  1
  Zn  Zn8  1  0.60578100  0.21156200  0.25000000  1
  Zn  Zn9  1  0.39421900  0.78843800  0.75000000  1
  Pb  Pb0  1  0.44427800  0.88855600  0.25000000  1
  Pb  Pb1  1  0.55572200  0.11144400  0.75000000  1
loop_
_geom_bond_atom_site_label_1
_geom_bond_atom_site_label_2
_geom_bond_distance
_geom_bond_site_symmetry_2
La0 Zn8 3.167181 1_555
La0 Zn2 3.205407 1_655
La0 Zn0 3.205407 1_655
La0 Zn0 3.205410 1_555
La0 Zn2 3.205410 1_555
La0 Zn4 3.292339 1_655
La0 Zn6 3.292339 1_655
La0 Zn6 3.292339 1_555
La0 Zn4 3.292339 1_555
La0 Zn5 3.326709 1_555
La0 Zn7 3.326709 1_554
La0 Zn3 3.329045 1_554
La0 Zn1 3.329045 1_555
La0 Pb0 3.457613 1_655
La0 Pb0 3.457613 1_555
La1 Zn9 3.167181 1_555
La1 Zn1 3.205407 1_455
La1 Zn3 3.205407 1_455
La1 Zn3 3.205410 1_555
La1 Zn1 3.205410 1_555
La1 Zn7 3.292339 1_455
La1 Zn5 3.292339 1_455
La1 Zn7 3.292339 1_555
La1 Zn5 3.292339 1_555
La1 Zn6 3.326709 1_556
La1 Zn4 3.326709 1_555
La1 Zn2 3.329045 1_556
La1 Zn0 3.329045 1_555
La1 Pb1 3.457613 1_455
La1 Pb1 3.457613 1_555
La2 Zn0 3.310824 1_555
La2 Zn1 3.310824 1_445
La2 Pb0 3.393884 1_445
La2 Pb1 3.393884 1_555
La2 Pb0 3.393884 1_545
La2 Pb1 3.393884 1_455
La2 Zn4 3.535273 1_445
La2 Zn5 3.535273 1_555
La2 Zn4 3.535273 1_545
La2 Zn5 3.535273 1_455
La2 Zn8 3.722050 1_555
La2 Zn9 3.722050 1_445
La2 Zn8 3.722051 1_455
La2 Zn9 3.722051 1_545
La3 Zn2 3.310824 1_555
La3 Zn3 3.310824 1_444
La3 Pb1 3.393884 1_554
La3 Pb0 3.393884 1_445
La3 Pb0 3.393884 1_545
La3 Pb1 3.393884 1_454
La3 Zn7 3.535273 1_554
La3 Zn6 3.535273 1_445
La3 Zn6 3.535273 1_545
La3 Zn7 3.535273 1_454
La3 Zn8 3.722050 1_555
La3 Zn9 3.722050 1_444
La3 Zn8 3.722051 1_455
La3 Zn9 3.722051 1_544
Zn0 Zn5 2.590723 1_455
Zn0 Zn5 2.590727 1_555
Zn0 Zn2 2.638375 1_555
Zn0 Zn4 2.796706 1_555
Zn0 Zn8 2.976492 1_455
Zn0 Zn8 2.976495 1_555
Zn1 Zn4 2.590723 1_655
Zn1 Zn4 2.590727 1_555
Zn1 Zn3 2.638375 1_555
Zn1 Zn5 2.796706 1_555
Zn1 Zn9 2.976492 1_655
Zn1 Zn9 2.976495 1_555
Zn2 Zn7 2.590723 1_454
Zn2 Zn7 2.590727 1_554
Zn2 Zn6 2.796706 1_555
Zn2 Zn8 2.976492 1_455
Zn2 Zn8 2.976495 1_555
Zn3 Zn6 2.590723 1_656
Zn3 Zn6 2.590727 1_556
Zn3 Zn7 2.796706 1_555
Zn3 Zn9 2.976492 1_655
Zn3 Zn9 2.976495 1_555
Pb0 Zn8 2.744811 1_565
Pb0 Zn4 2.807060 1_555
Pb0 Zn6 2.807060 1_555
Pb1 Zn9 2.744811 1_545
Pb1 Zn5 2.807060 1_555
Pb1 Zn7 2.807060 1_555
