# generated using pymatgen
data_CuSnO6
_symmetry_space_group_name_H-M   'P 1'
_cell_length_a   7.96325100
_cell_length_b   7.96325100
_cell_length_c   6.40254600
_cell_angle_alpha   90.00000000
_cell_angle_beta   90.00000000
_cell_angle_gamma   90.00000000
_symmetry_Int_Tables_number   1
_chemical_formula_structural   CuSnO6
_chemical_formula_sum   'Cu4 Sn4 O24'
_cell_volume   406.00699596
_cell_formula_units_Z   4
loop_
 _symmetry_equiv_pos_site_id
 _symmetry_equiv_pos_as_xyz
  1  'x, y, z'
loop_
 _atom_site_type_symbol
 _atom_site_label
 _atom_site_symmetry_multiplicity
 _atom_site_fract_x
 _atom_site_fract_y
 _atom_site_fract_z
 _atom_site_occupancy
  Cu  Cu0  1  0.75000000  0.25000000  0.75000000  1
  Cu  Cu1  1  0.75000000  0.75000000  0.25000000  1
  Cu  Cu2  1  0.25000000  0.25000000  0.25000000  1
  Cu  Cu3  1  0.25000000  0.75000000  0.75000000  1
  Sn  Sn0  1  0.25000000  0.75000000  0.25000000  1
  Sn  Sn1  1  0.25000000  0.25000000  0.75000000  1
  Sn  Sn2  1  0.75000000  0.75000000  0.75000000  1
  Sn  Sn3  1  0.75000000  0.25000000  0.25000000  1
  O  O0  1  0.77532600  0.49541000  0.89054400  1
  O  O1  1  0.72467400  0.99541000  0.39054400  1
  O  O2  1  0.27532600  0.00459000  0.39054400  1
  O  O3  1  0.22467400  0.50459000  0.89054400  1
  O  O4  1  0.72467400  0.00459000  0.60945600  1
  O  O5  1  0.77532600  0.50459000  0.10945600  1
  O  O6  1  0.22467400  0.49541000  0.10945600  1
  O  O7  1  0.27532600  0.99541000  0.60945600  1
  O  O8  1  0.49541000  0.77532600  0.89054400  1
  O  O9  1  0.99541000  0.72467400  0.39054400  1
  O  O10  1  0.00459000  0.27532600  0.39054400  1
  O  O11  1  0.50459000  0.22467400  0.89054400  1
  O  O12  1  0.00459000  0.72467400  0.60945600  1
  O  O13  1  0.50459000  0.77532600  0.10945600  1
  O  O14  1  0.49541000  0.22467400  0.10945600  1
  O  O15  1  0.99541000  0.27532600  0.60945600  1
  O  O16  1  0.66238200  0.33761800  0.51492700  1
  O  O17  1  0.83761800  0.83761800  0.01492700  1
  O  O18  1  0.16238200  0.16238200  0.01492700  1
  O  O19  1  0.33761800  0.66238200  0.51492700  1
  O  O20  1  0.83761800  0.16238200  0.98507300  1
  O  O21  1  0.66238200  0.66238200  0.48507300  1
  O  O22  1  0.33761800  0.33761800  0.48507300  1
  O  O23  1  0.16238200  0.83761800  0.98507300  1
loop_
_geom_bond_atom_site_label_1
_geom_bond_atom_site_label_2
_geom_bond_distance
_geom_bond_site_symmetry_2
Cu0 O20 1.799683 1_555
Cu0 O16 1.799683 1_555
Cu0 O11 2.160908 1_555
Cu0 O0 2.160908 1_555
Cu0 O4 2.160908 1_555
Cu0 O15 2.160908 1_555
Cu1 O17 1.799683 1_555
Cu1 O21 1.799683 1_555
Cu1 O13 2.160908 1_555
Cu1 O5 2.160908 1_555
Cu1 O9 2.160908 1_555
Cu1 O1 2.160908 1_555
Cu2 O22 1.799683 1_555
Cu2 O18 1.799683 1_555
Cu2 O2 2.160908 1_555
Cu2 O10 2.160908 1_555
Cu2 O14 2.160908 1_555
Cu2 O6 2.160908 1_555
Cu3 O23 1.799683 1_555
Cu3 O19 1.799683 1_555
Cu3 O3 2.160908 1_555
Cu3 O8 2.160908 1_555
Cu3 O12 2.160908 1_555
Cu3 O7 2.160908 1_555
O0 O5 1.403499 1_556
O0 Sn2 2.227238 1_555
O1 O4 1.403499 1_565
O1 Sn3 2.227238 1_565
O2 O7 1.403499 1_545
O2 Sn0 2.227238 1_545
O3 O6 1.403499 1_556
O3 Sn1 2.227238 1_555
O4 Sn2 2.227238 1_545
O5 Sn3 2.227238 1_555
O6 Sn0 2.227238 1_555
O7 Sn1 2.227238 1_565
O8 Sn2 2.227238 1_555
O9 Sn0 2.227238 1_655
O10 O15 1.403499 1_455
O10 Sn3 2.227238 1_455
O11 O14 1.403499 1_556
O11 Sn1 2.227238 1_555
O12 O9 1.403499 1_455
O12 Sn2 2.227238 1_455
O13 O8 1.403499 1_554
O13 Sn0 2.227238 1_555
O14 Sn3 2.227238 1_555
O15 Sn1 2.227238 1_655
O16 Sn3 1.962335 1_555
O17 Sn2 1.962335 1_554
O18 Sn1 1.962335 1_554
O19 Sn0 1.962335 1_555
O20 Sn3 1.962335 1_556
O21 Sn2 1.962335 1_555
O22 Sn1 1.962335 1_555
O23 Sn0 1.962335 1_556
