# generated using pymatgen
data_TmAl4Ni
_symmetry_space_group_name_H-M   'P 1'
_cell_length_a   4.02019612
_cell_length_b   6.55046135
_cell_length_c   7.84694424
_cell_angle_alpha   90.00000000
_cell_angle_beta   104.84252055
_cell_angle_gamma   90.00000000
_symmetry_Int_Tables_number   1
_chemical_formula_structural   TmAl4Ni
_chemical_formula_sum   'Tm2 Al8 Ni2'
_cell_volume   199.74759522
_cell_formula_units_Z   2
loop_
 _symmetry_equiv_pos_site_id
 _symmetry_equiv_pos_as_xyz
  1  'x, y, z'
loop_
 _atom_site_type_symbol
 _atom_site_label
 _atom_site_symmetry_multiplicity
 _atom_site_fract_x
 _atom_site_fract_y
 _atom_site_fract_z
 _atom_site_occupancy
  Tm  Tm0  1  0.88048274  0.25000000  0.76096447  1
  Tm  Tm1  1  0.11951726  0.75000000  0.23903553  1
  Al  Al0  1  0.50000000  -0.00000000  0.00000000  1
  Al  Al1  1  0.50000000  0.50000000  0.00000000  1
  Al  Al2  1  0.07549164  0.25000000  0.15098328  1
  Al  Al3  1  0.92450836  0.75000000  0.84901672  1
  Al  Al4  1  0.68824701  0.05290249  0.37649403  1
  Al  Al5  1  0.31175299  0.94709751  0.62350597  1
  Al  Al6  1  0.31175299  0.55290249  0.62350597  1
  Al  Al7  1  0.68824701  0.44709751  0.37649403  1
  Ni  Ni0  1  0.22670913  0.25000000  0.45341826  1
  Ni  Ni1  1  0.77329087  0.75000000  0.54658174  1
loop_
_geom_bond_atom_site_label_1
_geom_bond_atom_site_label_2
_geom_bond_distance
_geom_bond_site_symmetry_2
Al0 Al3 2.834400 1_444
Al0 Al2 2.834400 1_655
Al0 Al3 2.834400 1_544
Al0 Al2 2.834400 1_555
Al0 Al4 2.876701 1_555
Al0 Al5 2.876701 1_544
Al0 Tm0 3.163803 1_454
Al0 Tm1 3.163803 1_645
Al0 Tm1 3.163806 1_545
Al0 Tm0 3.163806 1_554
Al1 Al2 2.834400 1_655
Al1 Al3 2.834400 1_454
Al1 Al3 2.834400 1_554
Al1 Al2 2.834400 1_555
Al1 Al7 2.876701 1_555
Al1 Al6 2.876701 1_554
Al1 Tm0 3.163803 1_454
Al1 Tm1 3.163803 1_655
Al1 Tm1 3.163806 1_555
Al1 Tm0 3.163806 1_554
Al2 Ni0 2.294005 1_555
Al2 Tm0 2.958339 1_454
Al2 Tm1 3.342635 1_555
Al2 Tm1 3.342635 1_545
Al3 Ni1 2.294005 1_555
Al3 Tm1 2.958339 1_656
Al3 Tm0 3.342635 1_565
Al3 Tm0 3.342635 1_555
Al4 Ni1 2.366708 1_545
Al4 Ni0 2.459233 1_555
Al4 Ni0 2.459233 1_655
Al4 Tm1 3.010721 1_645
Al4 Tm1 3.010723 1_545
Al4 Tm0 3.189267 1_555
Al5 Ni0 2.366708 1_565
Al5 Ni1 2.459233 1_555
Al5 Ni1 2.459233 1_455
Al5 Tm0 3.010721 1_465
Al5 Tm0 3.010723 1_565
Al5 Tm1 3.189267 1_555
Al6 Ni0 2.366708 1_555
Al6 Ni1 2.459233 1_555
Al6 Ni1 2.459233 1_455
Al6 Tm0 3.010721 1_455
Al6 Tm0 3.010723 1_555
Al6 Tm1 3.189267 1_555
Al7 Ni1 2.366708 1_555
Al7 Ni0 2.459233 1_555
Al7 Ni0 2.459233 1_655
Al7 Tm1 3.010721 1_655
Al7 Tm1 3.010723 1_555
Al7 Tm0 3.189267 1_555
Ni0 Tm0 3.079338 1_455
Ni0 Tm0 3.079341 1_555
Ni1 Tm1 3.079338 1_655
Ni1 Tm1 3.079341 1_555
