# generated using pymatgen
data_CaZrAl9BO18
_symmetry_space_group_name_H-M   'P 1'
_cell_length_a   8.80233549
_cell_length_b   8.80233549
_cell_length_c   8.55223000
_cell_angle_alpha   90.00000000
_cell_angle_beta   90.00000000
_cell_angle_gamma   119.99999617
_symmetry_Int_Tables_number   1
_chemical_formula_structural   CaZrAl9BO18
_chemical_formula_sum   'Ca2 Zr2 Al18 B2 O36'
_cell_volume   573.85986898
_cell_formula_units_Z   2
loop_
 _symmetry_equiv_pos_site_id
 _symmetry_equiv_pos_as_xyz
  1  'x, y, z'
loop_
 _atom_site_type_symbol
 _atom_site_label
 _atom_site_symmetry_multiplicity
 _atom_site_fract_x
 _atom_site_fract_y
 _atom_site_fract_z
 _atom_site_occupancy
  Ca  Ca0  1  0.00000000  0.00000000  0.99357000  1
  Ca  Ca1  1  0.00000000  0.00000000  0.49357000  1
  Zr  Zr0  1  0.33333300  0.66666700  0.74956400  1
  Zr  Zr1  1  0.66666700  0.33333300  0.24956400  1
  Al  Al0  1  0.99568000  0.33239900  0.24956600  1
  Al  Al1  1  0.33671900  0.00432000  0.24956600  1
  Al  Al2  1  0.66760100  0.66328100  0.24956600  1
  Al  Al3  1  0.00432000  0.66760100  0.74956600  1
  Al  Al4  1  0.66328100  0.99568000  0.74956600  1
  Al  Al5  1  0.33239900  0.33671900  0.74956600  1
  Al  Al6  1  0.98210200  0.34305700  0.57795200  1
  Al  Al7  1  0.36095600  0.01789800  0.57795200  1
  Al  Al8  1  0.65694300  0.63904400  0.57795200  1
  Al  Al9  1  0.01789800  0.65694300  0.07795200  1
  Al  Al10  1  0.63904400  0.98210200  0.07795200  1
  Al  Al11  1  0.34305700  0.36095600  0.07795200  1
  Al  Al12  1  0.98268800  0.34325600  0.92165600  1
  Al  Al13  1  0.36056800  0.01731200  0.92165600  1
  Al  Al14  1  0.65674400  0.63943200  0.92165600  1
  Al  Al15  1  0.01731200  0.65674400  0.42165600  1
  Al  Al16  1  0.63943200  0.98268800  0.42165600  1
  Al  Al17  1  0.34325600  0.36056800  0.42165600  1
  B  B0  1  0.66666700  0.33333300  0.74952100  1
  B  B1  1  0.33333300  0.66666700  0.24952100  1
  O  O0  1  0.84629200  0.39897200  0.74949700  1
  O  O1  1  0.55268000  0.15370800  0.74949700  1
  O  O2  1  0.60102800  0.44732000  0.74949700  1
  O  O3  1  0.15370800  0.60102800  0.24949700  1
  O  O4  1  0.44732000  0.84629200  0.24949700  1
  O  O5  1  0.39897200  0.55268000  0.24949700  1
  O  O6  1  0.88228800  0.40525200  0.09195900  1
  O  O7  1  0.52296500  0.11771200  0.09195900  1
  O  O8  1  0.59474800  0.47703500  0.09195900  1
  O  O9  1  0.11771200  0.59474800  0.59195900  1
  O  O10  1  0.47703500  0.88228800  0.59195900  1
  O  O11  1  0.40525200  0.52296500  0.59195900  1
  O  O12  1  0.88247900  0.40532500  0.40713100  1
  O  O13  1  0.52284500  0.11752100  0.40713100  1
  O  O14  1  0.59467500  0.47715500  0.40713100  1
  O  O15  1  0.11752100  0.59467500  0.90713100  1
  O  O16  1  0.47715500  0.88247900  0.90713100  1
  O  O17  1  0.40532500  0.52284500  0.90713100  1
  O  O18  1  0.10975700  0.32832400  0.74963500  1
  O  O19  1  0.21856700  0.89024300  0.74963500  1
  O  O20  1  0.67167600  0.78143300  0.74963500  1
  O  O21  1  0.89024300  0.67167600  0.24963500  1
  O  O22  1  0.78143300  0.10975700  0.24963500  1
  O  O23  1  0.32832400  0.21856700  0.24963500  1
  O  O24  1  0.10720600  0.30008300  0.08171300  1
  O  O25  1  0.19287700  0.89279400  0.08171300  1
  O  O26  1  0.69991700  0.80712300  0.08171300  1
  O  O27  1  0.89279400  0.69991700  0.58171300  1
  O  O28  1  0.80712300  0.10720600  0.58171300  1
  O  O29  1  0.30008300  0.19287700  0.58171300  1
  O  O30  1  0.10675000  0.29901600  0.41720800  1
  O  O31  1  0.19226600  0.89325000  0.41720800  1
  O  O32  1  0.70098400  0.80773400  0.41720800  1
  O  O33  1  0.89325000  0.70098400  0.91720800  1
  O  O34  1  0.80773400  0.10675000  0.91720800  1
  O  O35  1  0.29901600  0.19226600  0.91720800  1
loop_
_geom_bond_atom_site_label_1
_geom_bond_atom_site_label_2
_geom_bond_distance
_geom_bond_site_symmetry_2
Ca0 O34 2.400806 1_455
Ca0 O33 2.400806 1_445
Ca0 O35 2.400807 1_555
Ca0 O25 2.437885 1_546
Ca0 O24 2.437885 1_556
Ca0 O26 2.437885 1_446
Ca1 O31 2.400806 1_545
Ca1 O30 2.400806 1_555
Ca1 O32 2.400807 1_445
Ca1 O28 2.437885 1_455
Ca1 O27 2.437885 1_445
Ca1 O29 2.437885 1_555
Al0 O24 1.839725 1_655
Al0 O30 1.839842 1_655
Al0 O22 1.923887 1_555
Al0 O12 1.964793 1_555
Al0 O6 1.965794 1_555
Al0 O3 2.058382 1_655
Al1 O25 1.839725 1_545
Al1 O31 1.839842 1_545
Al1 O23 1.923887 1_555
Al1 O13 1.964788 1_555
Al1 O7 1.965799 1_555
Al1 O4 2.058382 1_545
Al2 O26 1.839725 1_555
Al2 O32 1.839842 1_555
Al2 O21 1.923887 1_555
Al2 O14 1.964787 1_555
Al2 O8 1.965800 1_555
Al2 O5 2.058382 1_555
Al3 O27 1.839725 1_455
Al3 O33 1.839842 1_455
Al3 O19 1.923887 1_555
Al3 O15 1.964793 1_555
Al3 O9 1.965794 1_555
Al3 O0 2.058382 1_455
Al4 O28 1.839725 1_565
Al4 O34 1.839842 1_565
Al4 O20 1.923887 1_555
Al4 O16 1.964788 1_555
Al4 O10 1.965799 1_555
Al4 O1 2.058382 1_565
Al5 O29 1.839725 1_555
Al5 O35 1.839842 1_555
Al5 O18 1.923887 1_555
Al5 O17 1.964787 1_555
Al5 O11 1.965800 1_555
Al5 O2 2.058382 1_555
Al6 O28 1.867003 1_555
Al6 O18 1.892348 1_655
Al6 O30 1.915545 1_655
Al6 O12 1.919445 1_555
Al6 O9 1.924309 1_655
Al6 O0 2.100493 1_555
Al7 O29 1.867009 1_555
Al7 O19 1.892351 1_545
Al7 O31 1.915549 1_545
Al7 O13 1.919436 1_555
Al7 O10 1.924294 1_545
Al7 O1 2.100488 1_555
Al8 O27 1.867000 1_555
Al8 O20 1.892353 1_555
Al8 O32 1.915551 1_555
Al8 O14 1.919434 1_555
Al8 O11 1.924309 1_555
Al8 O2 2.100487 1_555
Al9 O25 1.867003 1_555
Al9 O21 1.892348 1_455
Al9 O33 1.915545 1_454
Al9 O15 1.919445 1_554
Al9 O6 1.924309 1_455
Al9 O3 2.100493 1_555
Al10 O26 1.867009 1_555
Al10 O22 1.892351 1_565
Al10 O34 1.915549 1_564
Al10 O16 1.919436 1_554
Al10 O7 1.924294 1_565
Al10 O4 2.100488 1_555
Al11 O24 1.867000 1_555
Al11 O23 1.892353 1_555
Al11 O35 1.915551 1_554
Al11 O17 1.919434 1_554
Al11 O8 1.924309 1_555
Al11 O5 2.100487 1_555
Al12 O34 1.871092 1_555
Al12 O18 1.891999 1_655
Al12 O24 1.906830 1_656
Al12 O6 1.918958 1_556
Al12 O15 1.922278 1_655
Al12 O0 2.106793 1_555
Al13 O35 1.871092 1_555
Al13 O19 1.891999 1_545
Al13 O25 1.906830 1_546
Al13 O7 1.918963 1_556
Al13 O16 1.922286 1_545
Al13 O1 2.106794 1_555
Al14 O33 1.871092 1_555
Al14 O20 1.891999 1_555
Al14 O26 1.906830 1_556
Al14 O8 1.918963 1_556
Al14 O17 1.922278 1_555
Al14 O2 2.106794 1_555
Al15 O31 1.871092 1_555
Al15 O21 1.891999 1_455
Al15 O27 1.906830 1_455
Al15 O9 1.918958 1_555
Al15 O12 1.922278 1_455
Al15 O3 2.106793 1_555
Al16 O32 1.871092 1_555
Al16 O22 1.891999 1_565
Al16 O28 1.906830 1_565
Al16 O10 1.918963 1_555
Al16 O13 1.922286 1_565
Al16 O4 2.106794 1_555
Al17 O30 1.871092 1_555
Al17 O23 1.891999 1_555
Al17 O29 1.906830 1_555
Al17 O11 1.918963 1_555
Al17 O14 1.922278 1_555
Al17 O5 2.106794 1_555
B0 O0 1.385724 1_555
B0 O1 1.385725 1_555
B0 O2 1.385732 1_555
B1 O3 1.385724 1_555
B1 O4 1.385725 1_555
B1 O5 1.385732 1_555
O6 Zr1 2.149021 1_555
O7 Zr1 2.149021 1_555
O8 Zr1 2.149020 1_555
O9 Zr0 2.149021 1_555
O10 Zr0 2.149021 1_555
O11 Zr0 2.149020 1_555
O12 Zr1 2.149960 1_555
O13 Zr1 2.149962 1_555
O14 Zr1 2.149973 1_555
O15 Zr0 2.149960 1_555
O16 Zr0 2.149962 1_555
O17 Zr0 2.149973 1_555
