# generated using pymatgen
data_Co5O7
_symmetry_space_group_name_H-M   'P 1'
_cell_length_a   5.13903205
_cell_length_b   5.13903205
_cell_length_c   18.83747900
_cell_angle_alpha   90.00000000
_cell_angle_beta   90.00000000
_cell_angle_gamma   146.63854822
_symmetry_Int_Tables_number   1
_chemical_formula_structural   Co5O7
_chemical_formula_sum   'Co10 O14'
_cell_volume   273.57985074
_cell_formula_units_Z   2
loop_
 _symmetry_equiv_pos_site_id
 _symmetry_equiv_pos_as_xyz
  1  'x, y, z'
loop_
 _atom_site_type_symbol
 _atom_site_label
 _atom_site_symmetry_multiplicity
 _atom_site_fract_x
 _atom_site_fract_y
 _atom_site_fract_z
 _atom_site_occupancy
  Co  Co0  1  0.73458400  0.26541600  0.57497500  1
  Co  Co1  1  0.00000000  0.00000000  0.50000000  1
  Co  Co2  1  0.00000000  0.00000000  0.00000000  1
  Co  Co3  1  0.26541600  0.73458400  0.42502500  1
  Co  Co4  1  0.26541600  0.73458400  0.07497500  1
  Co  Co5  1  0.73458400  0.26541600  0.92502500  1
  Co  Co6  1  0.51944900  0.48055100  0.15937900  1
  Co  Co7  1  0.48055100  0.51944900  0.84062100  1
  Co  Co8  1  0.48055100  0.51944900  0.65937900  1
  Co  Co9  1  0.51944900  0.48055100  0.34062100  1
  O  O0  1  0.35694100  0.64305900  0.97856900  1
  O  O1  1  0.64305900  0.35694100  0.02143100  1
  O  O2  1  0.64305900  0.35694100  0.47856900  1
  O  O3  1  0.35694100  0.64305900  0.52143100  1
  O  O4  1  0.84700600  0.15299400  0.85022400  1
  O  O5  1  0.15299400  0.84700600  0.14977600  1
  O  O6  1  0.15299400  0.84700600  0.35022400  1
  O  O7  1  0.84700600  0.15299400  0.64977600  1
  O  O8  1  0.09648400  0.90351600  0.90093900  1
  O  O9  1  0.90351600  0.09648400  0.09906100  1
  O  O10  1  0.90351600  0.09648400  0.40093900  1
  O  O11  1  0.09648400  0.90351600  0.59906100  1
  O  O12  1  0.53785800  0.46214200  0.75000000  1
  O  O13  1  0.46214200  0.53785800  0.25000000  1
loop_
_geom_bond_atom_site_label_1
_geom_bond_atom_site_label_2
_geom_bond_distance
_geom_bond_site_symmetry_2
Co0 O7 1.791812 1_555
Co0 O2 2.027321 1_555
Co0 O11 2.056814 1_655
Co0 O11 2.056814 1_545
Co0 O3 2.155109 1_545
Co0 O3 2.155109 1_655
Co1 O3 2.079123 1_555
Co1 O3 2.079123 1_445
Co1 O2 2.079123 1_555
Co1 O2 2.079123 1_445
Co1 O11 2.093934 1_545
Co1 O10 2.093934 1_455
Co2 O1 2.079123 1_555
Co2 O0 2.079123 1_444
Co2 O0 2.079123 1_554
Co2 O1 2.079123 1_445
Co2 O8 2.093934 1_544
Co2 O9 2.093934 1_455
Co3 O6 1.791812 1_555
Co3 O3 2.027321 1_555
Co3 O10 2.056814 1_565
Co3 O10 2.056814 1_455
Co3 O2 2.155109 1_565
Co3 O2 2.155109 1_455
Co4 O5 1.791812 1_555
Co4 O0 2.027321 1_554
Co4 O9 2.056814 1_565
Co4 O9 2.056814 1_455
Co4 O1 2.155109 1_565
Co4 O1 2.155109 1_455
Co5 O4 1.791812 1_555
Co5 O1 2.027321 1_556
Co5 O8 2.056814 1_655
Co5 O8 2.056814 1_545
Co5 O0 2.155109 1_545
Co5 O0 2.155109 1_655
Co6 O13 1.797897 1_555
Co6 O5 1.984289 1_655
Co6 O5 1.984289 1_545
Co6 O9 2.183989 1_565
Co6 O9 2.183989 1_455
Co7 O12 1.797897 1_555
Co7 O4 1.984289 1_565
Co7 O4 1.984289 1_455
Co7 O8 2.183989 1_545
Co7 O8 2.183989 1_655
Co8 O12 1.797897 1_555
Co8 O7 1.984289 1_565
Co8 O7 1.984289 1_455
Co8 O11 2.183989 1_545
Co8 O11 2.183989 1_655
Co9 O13 1.797897 1_555
Co9 O6 1.984289 1_655
Co9 O6 1.984289 1_545
Co9 O10 2.183989 1_455
Co9 O10 2.183989 1_565
