# generated using pymatgen
data_Ba2YFeO5
_symmetry_space_group_name_H-M   'P 1'
_cell_length_a   6.18055600
_cell_length_b   7.93723642
_cell_length_c   12.78388119
_cell_angle_alpha   92.02202431
_cell_angle_beta   90.00000000
_cell_angle_gamma   90.00000000
_symmetry_Int_Tables_number   1
_chemical_formula_structural   Ba2YFeO5
_chemical_formula_sum   'Ba8 Y4 Fe4 O20'
_cell_volume   626.74241280
_cell_formula_units_Z   4
loop_
 _symmetry_equiv_pos_site_id
 _symmetry_equiv_pos_as_xyz
  1  'x, y, z'
loop_
 _atom_site_type_symbol
 _atom_site_label
 _atom_site_symmetry_multiplicity
 _atom_site_fract_x
 _atom_site_fract_y
 _atom_site_fract_z
 _atom_site_occupancy
  Ba  Ba0  1  0.76334200  0.48359500  0.34598800  1
  Ba  Ba1  1  0.73665800  0.98359500  0.84598800  1
  Ba  Ba2  1  0.23665800  0.51640500  0.65401200  1
  Ba  Ba3  1  0.26334200  0.01640500  0.15401200  1
  Ba  Ba4  1  0.75079700  0.99214900  0.38121000  1
  Ba  Ba5  1  0.74920300  0.49214900  0.88121000  1
  Ba  Ba6  1  0.24920300  0.00785100  0.61879000  1
  Ba  Ba7  1  0.25079700  0.50785100  0.11879000  1
  Y  Y0  1  0.75064200  0.26896100  0.62949100  1
  Y  Y1  1  0.74935800  0.76896100  0.12949100  1
  Y  Y2  1  0.24935800  0.73103900  0.37050900  1
  Y  Y3  1  0.25064200  0.23103900  0.87050900  1
  Fe  Fe0  1  0.73529000  0.74208500  0.58372900  1
  Fe  Fe1  1  0.76471000  0.24208500  0.08372900  1
  Fe  Fe2  1  0.26471000  0.25791500  0.41627100  1
  Fe  Fe3  1  0.23529000  0.75791500  0.91627100  1
  O  O0  1  0.75408000  0.97431500  0.62911700  1
  O  O1  1  0.74592000  0.47431500  0.12911700  1
  O  O2  1  0.24592000  0.02568500  0.37088300  1
  O  O3  1  0.25408000  0.52568500  0.87088300  1
  O  O4  1  0.72433400  0.06556500  0.17863700  1
  O  O5  1  0.77566600  0.56556500  0.67863700  1
  O  O6  1  0.27566600  0.93443500  0.82136300  1
  O  O7  1  0.22433400  0.43443500  0.32136300  1
  O  O8  1  0.54415300  0.74250700  0.27238200  1
  O  O9  1  0.95584700  0.24250700  0.77238200  1
  O  O10  1  0.45584700  0.25749300  0.72761800  1
  O  O11  1  0.04415300  0.75749300  0.22761800  1
  O  O12  1  0.55083500  0.22216100  0.97556400  1
  O  O13  1  0.94916500  0.72216100  0.47556400  1
  O  O14  1  0.44916500  0.77783900  0.02443600  1
  O  O15  1  0.05083500  0.27783900  0.52443600  1
  O  O16  1  0.04699400  0.22576500  0.02137300  1
  O  O17  1  0.45300600  0.72576500  0.52137300  1
  O  O18  1  0.95300600  0.77423500  0.97862700  1
  O  O19  1  0.54699400  0.27423500  0.47862700  1
loop_
_geom_bond_atom_site_label_1
_geom_bond_atom_site_label_2
_geom_bond_distance
_geom_bond_site_symmetry_2
Ba0 O8 2.660890 1_555
Ba0 O13 2.725284 1_555
Ba0 O19 2.761049 1_555
Ba0 O1 2.772924 1_555
Ba0 O7 2.891462 1_655
Ba1 O9 2.660890 1_565
Ba1 O12 2.725284 1_565
Ba1 O18 2.761049 1_555
Ba1 O0 2.772924 1_555
Ba1 O6 2.891462 1_555
Ba2 O10 2.660890 1_555
Ba2 O15 2.725284 1_555
Ba2 O17 2.761049 1_555
Ba2 O3 2.772924 1_555
Ba2 O5 2.891462 1_455
Ba3 O11 2.660890 1_545
Ba3 O14 2.725284 1_545
Ba3 O16 2.761049 1_555
Ba3 O2 2.772924 1_555
Ba3 O4 2.891462 1_555
Ba4 O4 2.679401 1_565
Ba4 O8 2.701558 1_555
Ba4 O13 2.780784 1_555
Ba4 O19 2.820257 1_565
Ba4 O2 3.074929 1_665
Ba4 O2 3.134930 1_565
Ba4 O0 3.177424 1_555
Ba4 O11 3.217700 1_655
Ba4 O17 3.366894 1_555
Ba4 O15 3.411785 1_665
Ba5 O5 2.679401 1_555
Ba5 O9 2.701558 1_555
Ba5 O12 2.780784 1_555
Ba5 O18 2.820257 1_555
Ba5 O3 3.074929 1_555
Ba5 O3 3.134930 1_655
Ba5 O1 3.177424 1_556
Ba5 O10 3.217700 1_555
Ba5 O16 3.366894 1_656
Ba5 O14 3.411785 1_556
Ba6 O6 2.679401 1_545
Ba6 O10 2.701558 1_555
Ba6 O15 2.780784 1_555
Ba6 O17 2.820257 1_545
Ba6 O0 3.074929 1_445
Ba6 O0 3.134930 1_545
Ba6 O2 3.177424 1_555
Ba6 O9 3.217700 1_455
Ba6 O19 3.366894 1_555
Ba6 O13 3.411785 1_445
Ba7 O7 2.679401 1_555
Ba7 O11 2.701558 1_555
Ba7 O14 2.780784 1_555
Ba7 O16 2.820257 1_555
Ba7 O1 3.074929 1_555
Ba7 O1 3.134930 1_455
Ba7 O3 3.177424 1_554
Ba7 O8 3.217700 1_555
Ba7 O18 3.366894 1_454
Ba7 O12 3.411785 1_554
Fe0 O5 1.901930 1_555
Fe0 O13 1.915452 1_555
Fe0 O0 1.916327 1_555
Fe0 O17 1.920631 1_555
Fe1 O4 1.901930 1_555
Fe1 O12 1.915452 1_554
Fe1 O1 1.916327 1_555
Fe1 O16 1.920631 1_655
Fe2 O7 1.901930 1_555
Fe2 O15 1.915452 1_555
Fe2 O2 1.916327 1_555
Fe2 O19 1.920631 1_555
Fe3 O6 1.901930 1_555
Fe3 O14 1.915452 1_556
Fe3 O3 1.916327 1_555
Fe3 O18 1.920631 1_455
O0 Y0 2.338608 1_565
O1 Y1 2.338608 1_555
O2 Y2 2.338608 1_545
O3 Y3 2.338608 1_555
O4 Y1 2.420043 1_545
O5 Y0 2.420043 1_555
O6 Y3 2.420043 1_565
O7 Y2 2.420043 1_555
O8 Y2 2.215772 1_555
O8 Y1 2.239761 1_555
O9 Y3 2.215772 1_655
O9 Y0 2.239761 1_555
O10 Y0 2.215772 1_555
O10 Y3 2.239761 1_555
O11 Y1 2.215772 1_455
O11 Y2 2.239761 1_555
O12 Y3 2.292963 1_555
O13 Y2 2.292963 1_655
O14 Y1 2.292963 1_555
O15 Y0 2.292963 1_455
O16 Y3 2.304620 1_554
O17 Y2 2.304620 1_555
O18 Y1 2.304620 1_556
O19 Y0 2.304620 1_555
