# generated using pymatgen
data_Li7Mn2(CoO4)3
_symmetry_space_group_name_H-M   'P 1'
_cell_length_a   5.04476300
_cell_length_b   6.50202585
_cell_length_c   6.65922320
_cell_angle_alpha   83.64659823
_cell_angle_beta   81.60710119
_cell_angle_gamma   83.54892100
_symmetry_Int_Tables_number   1
_chemical_formula_structural   Li7Mn2(CoO4)3
_chemical_formula_sum   'Li7 Mn2 Co3 O12'
_cell_volume   213.73339003
_cell_formula_units_Z   1
loop_
 _symmetry_equiv_pos_site_id
 _symmetry_equiv_pos_as_xyz
  1  'x, y, z'
loop_
 _atom_site_type_symbol
 _atom_site_label
 _atom_site_symmetry_multiplicity
 _atom_site_fract_x
 _atom_site_fract_y
 _atom_site_fract_z
 _atom_site_occupancy
  Li  Li0  1  0.74217500  0.75693200  0.74850200  1
  Li  Li1  1  0.74699500  0.41167600  0.07680000  1
  Li  Li2  1  0.25686800  0.92182400  0.59438900  1
  Li  Li3  1  0.26327100  0.57503500  0.91473200  1
  Li  Li4  1  0.74155200  0.08592500  0.42098300  1
  Li  Li5  1  0.25209000  0.24960800  0.24485200  1
  Li  Li6  1  0.50119300  0.16410800  0.83498500  1
  Mn  Mn0  1  0.00424600  0.00146100  0.99359900  1
  Mn  Mn1  1  0.99816300  0.66775600  0.33420900  1
  Co  Co0  1  0.98968500  0.33182900  0.67724400  1
  Co  Co1  1  0.49935500  0.83688100  0.15955400  1
  Co  Co2  1  0.49746200  0.48979000  0.50900900  1
  O  O0  1  0.87539600  0.71893000  0.06186000  1
  O  O1  1  0.88048400  0.39271000  0.37790800  1
  O  O2  1  0.34957300  0.88042700  0.88660800  1
  O  O3  1  0.36270000  0.56844200  0.21426600  1
  O  O4  1  0.89013400  0.04017700  0.72954300  1
  O  O5  1  0.36675600  0.23041300  0.53679600  1
  O  O6  1  0.64474400  0.77323400  0.45120900  1
  O  O7  1  0.64155800  0.45642500  0.78012100  1
  O  O8  1  0.12147200  0.94747800  0.27293900  1
  O  O9  1  0.12473900  0.62779100  0.59982200  1
  O  O10  1  0.63775300  0.09484700  0.12427400  1
  O  O11  1  0.11163800  0.27630100  0.95579600  1
loop_
_geom_bond_atom_site_label_1
_geom_bond_atom_site_label_2
_geom_bond_distance
_geom_bond_site_symmetry_2
Li0 O4 2.048107 1_565
Li0 O7 2.054345 1_555
Li0 O6 2.097166 1_555
Li0 O9 2.161497 1_655
Li0 O2 2.165091 1_555
Li0 O0 2.263868 1_556
Li1 O11 2.041664 1_654
Li1 O7 2.101320 1_554
Li1 O0 2.156054 1_555
Li1 O10 2.169676 1_555
Li1 O1 2.193195 1_555
Li1 O3 2.209031 1_555
Li2 O4 2.042627 1_465
Li2 O2 2.049233 1_555
Li2 O9 2.089171 1_555
Li2 O5 2.120808 1_565
Li2 O6 2.214903 1_555
Li2 O8 2.323524 1_555
Li3 O2 2.062923 1_555
Li3 O7 2.088798 1_555
Li3 O3 2.121423 1_556
Li3 O11 2.141965 1_555
Li3 O0 2.212681 1_456
Li3 O9 2.284396 1_555
Li4 O5 2.094724 1_555
Li4 O10 2.109832 1_555
Li4 O6 2.125199 1_545
Li4 O1 2.163624 1_555
Li4 O8 2.170891 1_645
Li4 O4 2.266415 1_555
Li5 O5 2.094796 1_555
Li5 O1 2.114428 1_455
Li5 O8 2.121757 1_545
Li5 O11 2.129302 1_554
Li5 O10 2.173805 1_555
Li5 O3 2.187182 1_555
Li6 O2 2.050694 1_545
Li6 O7 2.078605 1_555
Li6 O4 2.088061 1_555
Li6 O11 2.094671 1_555
Li6 O10 2.124683 1_556
Li6 O5 2.174125 1_555
Mn0 O2 1.901452 1_545
Mn0 O11 1.904859 1_555
Mn0 O4 1.910950 1_455
Mn0 O10 1.984757 1_456
Mn0 O0 2.000266 1_446
Mn0 O8 2.015740 1_546
Mn1 O6 1.922020 1_555
Mn1 O1 1.925693 1_555
Mn1 O9 1.947956 1_655
Mn1 O3 1.963515 1_655
Mn1 O8 1.969068 1_655
Mn1 O0 1.982821 1_555
Co0 O7 1.913595 1_555
Co0 O4 1.996584 1_555
Co0 O11 2.021055 1_655
Co0 O5 2.064782 1_655
Co0 O9 2.098959 1_655
Co0 O1 2.128504 1_555
Co1 O10 1.866561 1_565
Co1 O3 1.926327 1_555
Co1 O0 2.008328 1_555
Co1 O8 2.028116 1_555
Co1 O2 2.047871 1_554
Co1 O6 2.156638 1_555
Co2 O5 1.859684 1_555
Co2 O7 2.023843 1_555
Co2 O9 2.028643 1_555
Co2 O6 2.040570 1_555
Co2 O1 2.061473 1_555
Co2 O3 2.159952 1_555
