# generated using pymatgen
data_Te2MoWSeS
_symmetry_space_group_name_H-M   'P 1'
_cell_length_a   3.39384253
_cell_length_b   3.39384253
_cell_length_c   38.80844100
_cell_angle_alpha   90.00000000
_cell_angle_beta   90.00000000
_cell_angle_gamma   120.00001032
_symmetry_Int_Tables_number   1
_chemical_formula_structural   Te2MoWSeS
_chemical_formula_sum   'Te4 Mo2 W2 Se2 S2'
_cell_volume   387.11514162
_cell_formula_units_Z   2
loop_
 _symmetry_equiv_pos_site_id
 _symmetry_equiv_pos_as_xyz
  1  'x, y, z'
loop_
 _atom_site_type_symbol
 _atom_site_label
 _atom_site_symmetry_multiplicity
 _atom_site_fract_x
 _atom_site_fract_y
 _atom_site_fract_z
 _atom_site_occupancy
  Te  Te0  1  0.33333300  0.66666700  0.04560400  1
  Te  Te1  1  0.33333300  0.66666700  0.42137000  1
  Te  Te2  1  0.33333300  0.66666700  0.14222400  1
  Te  Te3  1  0.33333300  0.66666700  0.51800000  1
  Mo  Mo0  1  0.00000000  0.00000000  0.09390000  1
  Mo  Mo1  1  0.00000000  0.00000000  0.46966400  1
  W  W0  1  0.33333300  0.66666700  0.28178900  1
  W  W1  1  0.33333300  0.66666700  0.65753900  1
  Se  Se0  1  0.00000000  0.00000000  0.32450600  1
  Se  Se1  1  0.00000000  0.00000000  0.23908700  1
  S  S0  1  0.00000000  0.00000000  0.69638900  1
  S  S1  1  0.00000000  0.00000000  0.61867600  1
loop_
_geom_bond_atom_site_label_1
_geom_bond_atom_site_label_2
_geom_bond_distance
_geom_bond_site_symmetry_2
Mo0 Te0 2.711522 1_545
Mo0 Te0 2.711524 1_445
Mo0 Te0 2.711524 1_555
Mo0 Te2 2.712274 1_545
Mo0 Te2 2.712276 1_555
Mo0 Te2 2.712276 1_445
Mo1 Te1 2.711469 1_545
Mo1 Te1 2.711471 1_555
Mo1 Te1 2.711471 1_445
Mo1 Te3 2.712596 1_545
Mo1 Te3 2.712598 1_555
Mo1 Te3 2.712598 1_445
Se0 W0 2.566635 1_545
Se0 W0 2.566637 1_445
Se0 W0 2.566637 1_555
Se1 W0 2.566259 1_545
Se1 W0 2.566261 1_555
Se1 W0 2.566261 1_445
S0 W1 2.472360 1_545
S0 W1 2.472362 1_555
S0 W1 2.472362 1_445
S1 W1 2.472668 1_545
S1 W1 2.472670 1_445
S1 W1 2.472670 1_555
