# generated using pymatgen
data_LaZnFeNiO6
_symmetry_space_group_name_H-M   'P 1'
_cell_length_a   5.46406100
_cell_length_b   5.30349500
_cell_length_c   9.29999798
_cell_angle_alpha   55.42829954
_cell_angle_beta   90.00000000
_cell_angle_gamma   90.00000000
_symmetry_Int_Tables_number   1
_chemical_formula_structural   LaZnFeNiO6
_chemical_formula_sum   'La2 Zn2 Fe2 Ni2 O12'
_cell_volume   221.91172427
_cell_formula_units_Z   2
loop_
 _symmetry_equiv_pos_site_id
 _symmetry_equiv_pos_as_xyz
  1  'x, y, z'
loop_
 _atom_site_type_symbol
 _atom_site_label
 _atom_site_symmetry_multiplicity
 _atom_site_fract_x
 _atom_site_fract_y
 _atom_site_fract_z
 _atom_site_occupancy
  La  La0  1  0.21825300  0.74179700  0.24978600  1
  La  La1  1  0.78174700  0.74179700  0.74978600  1
  Zn  Zn0  1  0.71094700  0.27571700  0.24830800  1
  Zn  Zn1  1  0.28905300  0.27571700  0.74830800  1
  Fe  Fe0  1  0.74561200  0.00047300  0.00149700  1
  Fe  Fe1  1  0.25438800  0.00047300  0.50149700  1
  Ni  Ni0  1  0.74975000  0.50111500  0.49929700  1
  Ni  Ni1  1  0.25025000  0.50111500  0.99929700  1
  O  O0  1  0.23172500  0.88826900  0.74582600  1
  O  O1  1  0.04530800  0.25138900  0.94190300  1
  O  O2  1  0.05014600  0.64137800  0.55644400  1
  O  O3  1  0.94985400  0.64137800  0.05644400  1
  O  O4  1  0.95469200  0.25138900  0.44190300  1
  O  O5  1  0.76827500  0.88826900  0.24582600  1
  O  O6  1  0.70840200  0.17433500  0.75361700  1
  O  O7  1  0.50992400  0.70768800  0.55654300  1
  O  O8  1  0.51160200  0.31783800  0.94677800  1
  O  O9  1  0.48839800  0.31783800  0.44677800  1
  O  O10  1  0.49007600  0.70768800  0.05654300  1
  O  O11  1  0.29159800  0.17433500  0.25361700  1
loop_
_geom_bond_atom_site_label_1
_geom_bond_atom_site_label_2
_geom_bond_distance
_geom_bond_site_symmetry_2
La0 O11 2.348808 1_565
La0 O10 2.416080 1_555
La0 O9 2.432267 1_555
La0 O5 2.572464 1_455
La0 O3 2.598894 1_455
La0 O4 2.599429 1_455
La0 O2 2.745377 1_555
La0 O1 2.759264 1_564
La1 O6 2.348808 1_565
La1 O7 2.416080 1_555
La1 O8 2.432267 1_555
La1 O0 2.572464 1_655
La1 O2 2.598894 1_655
La1 O1 2.599429 1_655
La1 O3 2.745377 1_556
La1 O4 2.759264 1_565
Fe0 O10 1.928895 1_545
Fe0 O8 1.937735 1_554
Fe0 O6 1.947704 1_554
Fe0 O1 1.980558 1_654
Fe0 O5 1.999519 1_545
Fe0 O3 2.007256 1_545
Fe1 O7 1.928895 1_545
Fe1 O9 1.937735 1_555
Fe1 O11 1.947704 1_555
Fe1 O4 1.980558 1_455
Fe1 O0 1.999519 1_545
Fe1 O2 2.007256 1_545
Ni0 O9 1.939447 1_555
Ni0 O7 1.965407 1_555
Ni0 O2 1.994650 1_655
Ni0 O6 1.999192 1_555
Ni0 O4 2.023674 1_555
Ni0 O5 2.071229 1_555
Ni1 O8 1.939447 1_555
Ni1 O10 1.965407 1_556
Ni1 O3 1.994650 1_456
Ni1 O11 1.999192 1_556
Ni1 O1 2.023674 1_555
Ni1 O0 2.071229 1_555
O0 Zn1 2.091603 1_565
O1 Zn1 2.183659 1_555
O2 Zn1 2.172948 1_555
O3 Zn0 2.172948 1_555
O4 Zn0 2.183659 1_555
O5 Zn0 2.091603 1_565
O6 Zn1 2.347698 1_555
O7 Zn1 2.291017 1_555
O8 Zn1 2.324525 1_555
O9 Zn0 2.324525 1_555
O10 Zn0 2.291017 1_555
O11 Zn0 2.347698 1_555
