# generated using pymatgen
data_Na2W2O5
_symmetry_space_group_name_H-M   'P 1'
_cell_length_a   8.50749153
_cell_length_b   8.50749153
_cell_length_c   8.50749153
_cell_angle_alpha   140.72547600
_cell_angle_beta   140.04631628
_cell_angle_gamma   57.26967966
_symmetry_Int_Tables_number   1
_chemical_formula_structural   Na2W2O5
_chemical_formula_sum   'Na4 W4 O10'
_cell_volume   248.19777090
_cell_formula_units_Z   2
loop_
 _symmetry_equiv_pos_site_id
 _symmetry_equiv_pos_as_xyz
  1  'x, y, z'
loop_
 _atom_site_type_symbol
 _atom_site_label
 _atom_site_symmetry_multiplicity
 _atom_site_fract_x
 _atom_site_fract_y
 _atom_site_fract_z
 _atom_site_occupancy
  Na  Na0  1  0.92612100  0.39438200  0.52779000  1
  Na  Na1  1  0.07387900  0.60166800  0.46826100  1
  Na  Na2  1  0.36659200  0.89438200  0.46826100  1
  Na  Na3  1  0.63340800  0.10166800  0.52779000  1
  W  W0  1  0.00000000  0.02351800  0.02351800  1
  W  W1  1  0.50000000  0.52351800  0.02351800  1
  W  W2  1  0.69150600  0.68036100  0.87186700  1
  W  W3  1  0.30849400  0.18036100  0.98885500  1
  O  O0  1  0.27326500  0.29375800  0.52375000  1
  O  O1  1  0.72673500  0.25048500  0.02049300  1
  O  O2  1  0.27000800  0.79375800  0.02049300  1
  O  O3  1  0.72999200  0.75048500  0.52375000  1
  O  O4  1  0.94323100  0.90111300  0.12540200  1
  O  O5  1  0.05676900  0.18217100  0.95788300  1
  O  O6  1  0.27571200  0.40111300  0.95788300  1
  O  O7  1  0.72428800  0.68217100  0.12540200  1
  O  O8  1  0.62461900  0.33654400  0.46116300  1
  O  O9  1  0.37538100  0.83654400  0.71192400  1
loop_
_geom_bond_atom_site_label_1
_geom_bond_atom_site_label_2
_geom_bond_distance
_geom_bond_site_symmetry_2
Na0 O6 2.326542 1_655
Na0 O1 2.417459 1_555
Na0 O8 2.418000 1_555
Na0 O3 2.563278 1_555
Na0 O0 2.613861 1_655
Na0 O4 2.685566 1_545
Na0 O2 2.751665 1_656
Na1 O7 2.326542 1_455
Na1 O0 2.417451 1_555
Na1 O9 2.418012 1_555
Na1 O2 2.563274 1_556
Na1 O1 2.613856 1_455
Na1 O5 2.685560 1_554
Na1 O3 2.751663 1_455
Na2 O4 2.326536 1_455
Na2 O3 2.417459 1_555
Na2 O9 2.417992 1_555
Na2 O1 2.563278 1_566
Na2 O2 2.613861 1_555
Na2 O6 2.685565 1_554
Na2 O0 2.751665 1_565
Na3 O5 2.326537 1_655
Na3 O2 2.417455 1_545
Na3 O8 2.418009 1_555
Na3 O0 2.563278 1_555
Na3 O3 2.613853 1_545
Na3 O7 2.685560 1_545
Na3 O1 2.751660 1_556
O0 W1 2.062856 1_556
O0 W0 2.065125 1_555
O1 W1 2.062856 1_555
O1 W0 2.065125 1_655
O2 W0 2.062856 1_565
O2 W1 2.065125 1_555
O3 W0 2.062856 1_666
O3 W1 2.065125 1_555
O4 W2 1.939426 1_554
O4 W0 2.156880 1_665
O5 W3 1.939432 1_555
O5 W0 2.156872 1_556
O6 W3 1.939423 1_555
O6 W1 2.156878 1_556
O7 W2 1.939432 1_554
O7 W1 2.156872 1_555
O8 W2 2.004068 1_555
O8 W3 2.043156 1_554
O9 W3 2.004070 1_565
O9 W2 2.043157 1_555
