# generated using pymatgen
data_Zn2Mo3O8
_symmetry_space_group_name_H-M   'P 1'
_cell_length_a   6.08989377
_cell_length_b   6.08989377
_cell_length_c   5.45800928
_cell_angle_alpha   71.26412467
_cell_angle_beta   71.26412467
_cell_angle_gamma   62.07043195
_symmetry_Int_Tables_number   1
_chemical_formula_structural   Zn2Mo3O8
_chemical_formula_sum   'Zn2 Mo3 O8'
_cell_volume   165.80148040
_cell_formula_units_Z   1
loop_
 _symmetry_equiv_pos_site_id
 _symmetry_equiv_pos_as_xyz
  1  'x, y, z'
loop_
 _atom_site_type_symbol
 _atom_site_label
 _atom_site_symmetry_multiplicity
 _atom_site_fract_x
 _atom_site_fract_y
 _atom_site_fract_z
 _atom_site_occupancy
  Zn  Zn0  1  0.32316100  0.32316100  0.63434600  1
  Zn  Zn1  1  0.67683900  0.67683900  0.36565400  1
  Mo  Mo0  1  0.00000000  0.00000000  0.50000000  1
  Mo  Mo1  1  0.26065400  0.73934600  0.00000000  1
  Mo  Mo2  1  0.73934600  0.26065400  0.00000000  1
  O  O0  1  0.61279600  0.61279600  0.76199500  1
  O  O1  1  0.38720400  0.38720400  0.23800500  1
  O  O2  1  0.11530600  0.11530600  0.75597300  1
  O  O3  1  0.88469400  0.88469400  0.24402700  1
  O  O4  1  0.65595400  0.13302500  0.75281100  1
  O  O5  1  0.13302500  0.65595400  0.75281100  1
  O  O6  1  0.86697500  0.34404600  0.24718900  1
  O  O7  1  0.34404600  0.86697500  0.24718900  1
loop_
_geom_bond_atom_site_label_1
_geom_bond_atom_site_label_2
_geom_bond_distance
_geom_bond_site_symmetry_2
Mo0 O7 2.054497 1_545
Mo0 O6 2.054497 1_455
Mo0 O5 2.054497 1_545
Mo0 O4 2.054497 1_455
Mo0 O2 2.158808 1_555
Mo0 O3 2.158808 1_445
Mo1 O7 2.041038 1_555
Mo1 O5 2.041038 1_554
Mo1 O1 2.045883 1_555
Mo1 O0 2.045883 1_554
Mo1 O2 2.167812 1_564
Mo1 O3 2.167812 1_455
Mo2 O6 2.041038 1_555
Mo2 O4 2.041038 1_554
Mo2 O1 2.045883 1_555
Mo2 O0 2.045883 1_554
Mo2 O2 2.167812 1_654
Mo2 O3 2.167812 1_545
O0 Zn1 2.010546 1_555
O1 Zn0 2.010546 1_555
O2 Zn0 2.016581 1_555
O3 Zn1 2.016581 1_555
O4 Zn0 2.007179 1_555
O5 Zn0 2.007179 1_555
O6 Zn1 2.007179 1_555
O7 Zn1 2.007179 1_555
