# generated using pymatgen
data_Ce2Mg
_symmetry_space_group_name_H-M   'P 1'
_cell_length_a   18.68554368
_cell_length_b   18.68554368
_cell_length_c   10.43323814
_cell_angle_alpha   90.00000000
_cell_angle_beta   90.00000000
_cell_angle_gamma   160.88747429
_symmetry_Int_Tables_number   1
_chemical_formula_structural   Ce2Mg
_chemical_formula_sum   'Ce32 Mg16'
_cell_volume   1192.72887277
_cell_formula_units_Z   16
loop_
 _symmetry_equiv_pos_site_id
 _symmetry_equiv_pos_as_xyz
  1  'x, y, z'
loop_
 _atom_site_type_symbol
 _atom_site_label
 _atom_site_symmetry_multiplicity
 _atom_site_fract_x
 _atom_site_fract_y
 _atom_site_fract_z
 _atom_site_occupancy
  Ce  Ce0_0  1  0.06682312  0.43317689  0.12500000  1
  Ce  Ce0_1  1  0.06682312  0.43317689  0.62500000  1
  Ce  Ce0_2  1  0.06682312  0.93317688  0.12500000  1
  Ce  Ce0_3  1  0.06682312  0.93317688  0.62500000  1
  Ce  Ce0_4  1  0.56682312  0.43317689  0.12500000  1
  Ce  Ce0_5  1  0.56682312  0.43317689  0.62500000  1
  Ce  Ce0_6  1  0.56682312  0.93317688  0.12500000  1
  Ce  Ce0_7  1  0.56682312  0.93317688  0.62500000  1
  Ce  Ce1_0  1  0.39888324  0.10111676  0.12500000  1
  Ce  Ce1_1  1  0.39888324  0.10111676  0.62500000  1
  Ce  Ce1_2  1  0.39888324  0.60111676  0.12500000  1
  Ce  Ce1_3  1  0.39888324  0.60111676  0.62500000  1
  Ce  Ce1_4  1  0.89888324  0.10111676  0.12500000  1
  Ce  Ce1_5  1  0.89888324  0.10111676  0.62500000  1
  Ce  Ce1_6  1  0.89888324  0.60111676  0.12500000  1
  Ce  Ce1_7  1  0.89888324  0.60111676  0.62500000  1
  Ce  Ce2_0  1  0.10111676  0.39888324  0.37500000  1
  Ce  Ce2_1  1  0.10111676  0.39888324  0.87500000  1
  Ce  Ce2_2  1  0.10111676  0.89888324  0.37500000  1
  Ce  Ce2_3  1  0.10111676  0.89888324  0.87500000  1
  Ce  Ce2_4  1  0.60111676  0.39888324  0.37500000  1
  Ce  Ce2_5  1  0.60111676  0.39888324  0.87500000  1
  Ce  Ce2_6  1  0.60111676  0.89888324  0.37500000  1
  Ce  Ce2_7  1  0.60111676  0.89888324  0.87500000  1
  Ce  Ce3_0  1  0.43317689  0.06682312  0.37500000  1
  Ce  Ce3_1  1  0.43317689  0.06682312  0.87500000  1
  Ce  Ce3_2  1  0.43317689  0.56682312  0.37500000  1
  Ce  Ce3_3  1  0.43317689  0.56682312  0.87500000  1
  Ce  Ce3_4  1  0.93317689  0.06682312  0.37500000  1
  Ce  Ce3_5  1  0.93317689  0.06682312  0.87500000  1
  Ce  Ce3_6  1  0.93317688  0.56682312  0.37500000  1
  Ce  Ce3_7  1  0.93317688  0.56682312  0.87500000  1
  Mg  Mg0_0  1  0.22967076  0.27032924  0.12500000  1
  Mg  Mg0_1  1  0.22967076  0.27032924  0.62500000  1
  Mg  Mg0_2  1  0.22967076  0.77032924  0.12500000  1
  Mg  Mg0_3  1  0.22967076  0.77032924  0.62500000  1
  Mg  Mg0_4  1  0.72967076  0.27032924  0.12500000  1
  Mg  Mg0_5  1  0.72967076  0.27032924  0.62500000  1
  Mg  Mg0_6  1  0.72967076  0.77032924  0.12500000  1
  Mg  Mg0_7  1  0.72967076  0.77032924  0.62500000  1
  Mg  Mg1_0  1  0.27032924  0.22967076  0.37500000  1
  Mg  Mg1_1  1  0.27032924  0.22967076  0.87500000  1
  Mg  Mg1_2  1  0.27032924  0.72967076  0.37500000  1
  Mg  Mg1_3  1  0.27032924  0.72967076  0.87500000  1
  Mg  Mg1_4  1  0.77032924  0.22967076  0.37500000  1
  Mg  Mg1_5  1  0.77032924  0.22967076  0.87500000  1
  Mg  Mg1_6  1  0.77032924  0.72967076  0.37500000  1
  Mg  Mg1_7  1  0.77032924  0.72967076  0.87500000  1
loop_
_geom_bond_atom_site_label_1
_geom_bond_atom_site_label_2
_geom_bond_distance
_geom_bond_site_symmetry_2
Ce0_0 Ce2_1 2.898359 1_554
Ce0_0 Ce2_0 2.898359 1_555
Ce0_0 Ce0_6 3.102100 1_445
Ce0_0 Ce0_6 3.102100 1_555
Ce0_0 Ce1_2 3.398685 1_555
Ce0_0 Ce1_4 3.398685 1_455
Ce0_0 Mg1_4 3.484943 1_455
Ce0_0 Mg1_5 3.484943 1_454
Ce0_0 Mg1_3 3.484943 1_554
Ce0_0 Mg1_2 3.484943 1_555
Ce0_0 Mg0_2 3.566692 1_555
Ce0_0 Mg0_4 3.566692 1_455
Ce0_1 Ce2_0 2.898359 1_555
Ce0_1 Ce2_1 2.898359 1_555
Ce0_1 Ce0_7 3.102100 1_445
Ce0_1 Ce0_7 3.102100 1_555
Ce0_1 Ce1_3 3.398685 1_555
Ce0_1 Ce1_5 3.398685 1_455
Ce0_1 Mg1_4 3.484943 1_455
Ce0_1 Mg1_5 3.484943 1_455
Ce0_1 Mg1_2 3.484943 1_555
Ce0_1 Mg1_3 3.484943 1_555
Ce0_1 Mg0_3 3.566692 1_555
Ce0_1 Mg0_5 3.566692 1_455
Ce0_2 Ce2_3 2.898359 1_554
Ce0_2 Ce2_2 2.898359 1_555
Ce0_2 Ce0_4 3.102100 1_455
Ce0_2 Ce0_4 3.102100 1_565
Ce0_2 Ce1_6 3.398685 1_455
Ce0_2 Ce1_0 3.398685 1_565
Ce0_2 Mg1_6 3.484943 1_455
Ce0_2 Mg1_7 3.484943 1_454
Ce0_2 Mg1_1 3.484943 1_564
Ce0_2 Mg1_0 3.484943 1_565
Ce0_2 Mg0_6 3.566692 1_455
Ce0_2 Mg0_0 3.566692 1_565
Ce0_3 Ce2_2 2.898359 1_555
Ce0_3 Ce2_3 2.898359 1_555
Ce0_3 Ce0_5 3.102100 1_455
Ce0_3 Ce0_5 3.102100 1_565
Ce0_3 Ce1_7 3.398685 1_455
Ce0_3 Ce1_1 3.398685 1_565
Ce0_3 Mg1_6 3.484943 1_455
Ce0_3 Mg1_7 3.484943 1_455
Ce0_3 Mg1_0 3.484943 1_565
Ce0_3 Mg1_1 3.484943 1_565
Ce0_3 Mg0_7 3.566692 1_455
Ce0_3 Mg0_1 3.566692 1_565
Ce0_4 Ce2_4 2.898359 1_555
Ce0_4 Ce2_5 2.898359 1_554
Ce0_4 Ce1_6 3.398685 1_555
Ce0_4 Ce1_0 3.398685 1_555
Ce0_4 Mg1_6 3.484943 1_555
Ce0_4 Mg1_7 3.484943 1_554
Ce0_4 Mg1_1 3.484943 1_554
Ce0_4 Mg1_0 3.484943 1_555
Ce0_4 Mg0_6 3.566692 1_555
Ce0_4 Mg0_0 3.566692 1_555
Ce0_5 Ce2_4 2.898359 1_555
Ce0_5 Ce2_5 2.898359 1_555
Ce0_5 Ce1_7 3.398685 1_555
Ce0_5 Ce1_1 3.398685 1_555
Ce0_5 Mg1_7 3.484943 1_555
Ce0_5 Mg1_6 3.484943 1_555
Ce0_5 Mg1_0 3.484943 1_555
Ce0_5 Mg1_1 3.484943 1_555
Ce0_5 Mg0_1 3.566692 1_555
Ce0_5 Mg0_7 3.566692 1_555
Ce0_6 Ce2_7 2.898359 1_554
Ce0_6 Ce2_6 2.898359 1_555
Ce0_6 Ce1_4 3.398685 1_565
Ce0_6 Ce1_2 3.398685 1_555
Ce0_6 Mg1_3 3.484943 1_554
Ce0_6 Mg1_2 3.484943 1_555
Ce0_6 Mg1_4 3.484943 1_565
Ce0_6 Mg1_5 3.484943 1_564
Ce0_6 Mg0_2 3.566692 1_555
Ce0_6 Mg0_4 3.566692 1_565
Ce0_7 Ce2_6 2.898359 1_555
Ce0_7 Ce2_7 2.898359 1_555
Ce0_7 Ce1_5 3.398685 1_565
Ce0_7 Ce1_3 3.398685 1_555
Ce0_7 Mg1_2 3.484943 1_555
Ce0_7 Mg1_3 3.484943 1_555
Ce0_7 Mg1_5 3.484943 1_565
Ce0_7 Mg1_4 3.484943 1_565
Ce0_7 Mg0_3 3.566692 1_555
Ce0_7 Mg0_5 3.566692 1_565
Ce1_0 Ce3_0 2.898359 1_555
Ce1_0 Ce3_1 2.898359 1_554
Ce1_0 Ce1_6 3.102100 1_555
Ce1_0 Ce1_6 3.102100 1_445
Ce1_0 Mg0_4 3.357023 1_555
Ce1_0 Mg0_2 3.357023 1_545
Ce1_0 Ce2_3 3.508239 1_544
Ce1_0 Ce2_5 3.508239 1_554
Ce1_0 Ce2_4 3.508239 1_555
Ce1_0 Ce2_2 3.508239 1_545
Ce1_1 Ce3_0 2.898359 1_555
Ce1_1 Ce3_1 2.898359 1_555
Ce1_1 Ce1_7 3.102100 1_555
Ce1_1 Ce1_7 3.102100 1_445
Ce1_1 Mg0_5 3.357023 1_555
Ce1_1 Mg0_3 3.357023 1_545
Ce1_1 Ce2_3 3.508239 1_545
Ce1_1 Ce2_4 3.508239 1_555
Ce1_1 Ce2_5 3.508239 1_555
Ce1_1 Ce2_2 3.508239 1_545
Ce1_2 Ce3_3 2.898359 1_554
Ce1_2 Ce3_2 2.898359 1_555
Ce1_2 Ce1_4 3.102100 1_455
Ce1_2 Ce1_4 3.102100 1_565
Ce1_2 Mg0_6 3.357023 1_555
Ce1_2 Mg0_0 3.357023 1_555
Ce1_2 Ce2_7 3.508239 1_554
Ce1_2 Ce2_1 3.508239 1_554
Ce1_2 Ce2_0 3.508239 1_555
Ce1_2 Ce2_6 3.508239 1_555
Ce1_3 Ce3_3 2.898359 1_555
Ce1_3 Ce3_2 2.898359 1_555
Ce1_3 Ce1_5 3.102100 1_455
Ce1_3 Ce1_5 3.102100 1_565
Ce1_3 Mg0_7 3.357023 1_555
Ce1_3 Mg0_1 3.357023 1_555
Ce1_3 Ce2_0 3.508239 1_555
Ce1_3 Ce2_6 3.508239 1_555
Ce1_3 Ce2_7 3.508239 1_555
Ce1_3 Ce2_1 3.508239 1_555
Ce1_4 Ce3_5 2.898359 1_554
Ce1_4 Ce3_4 2.898359 1_555
Ce1_4 Mg0_0 3.357023 1_655
Ce1_4 Mg0_6 3.357023 1_545
Ce1_4 Ce2_1 3.508239 1_654
Ce1_4 Ce2_0 3.508239 1_655
Ce1_4 Ce2_6 3.508239 1_545
Ce1_4 Ce2_7 3.508239 1_544
Ce1_5 Ce3_4 2.898359 1_555
Ce1_5 Ce3_5 2.898359 1_555
Ce1_5 Mg0_1 3.357023 1_655
Ce1_5 Mg0_7 3.357023 1_545
Ce1_5 Ce2_1 3.508239 1_655
Ce1_5 Ce2_6 3.508239 1_545
Ce1_5 Ce2_7 3.508239 1_545
Ce1_5 Ce2_0 3.508239 1_655
Ce1_6 Ce3_6 2.898359 1_555
Ce1_6 Ce3_7 2.898359 1_554
Ce1_6 Mg0_4 3.357023 1_555
Ce1_6 Mg0_2 3.357023 1_655
Ce1_6 Ce2_2 3.508239 1_655
Ce1_6 Ce2_3 3.508239 1_654
Ce1_6 Ce2_4 3.508239 1_555
Ce1_6 Ce2_5 3.508239 1_554
Ce1_7 Ce3_7 2.898359 1_555
Ce1_7 Ce3_6 2.898359 1_555
Ce1_7 Mg0_5 3.357023 1_555
Ce1_7 Mg0_3 3.357023 1_655
Ce1_7 Ce2_5 3.508239 1_555
Ce1_7 Ce2_2 3.508239 1_655
Ce1_7 Ce2_3 3.508239 1_655
Ce1_7 Ce2_4 3.508239 1_555
Ce2_0 Ce2_6 3.102100 1_445
Ce2_0 Ce2_6 3.102100 1_555
Ce2_0 Mg1_4 3.357023 1_455
Ce2_0 Mg1_2 3.357023 1_555
Ce2_0 Ce3_2 3.398685 1_555
Ce2_0 Ce3_4 3.398685 1_455
Ce2_1 Ce2_7 3.102100 1_445
Ce2_1 Ce2_7 3.102100 1_555
Ce2_1 Mg1_3 3.357023 1_555
Ce2_1 Mg1_5 3.357023 1_455
Ce2_1 Ce3_3 3.398685 1_555
Ce2_1 Ce3_5 3.398685 1_455
Ce2_2 Ce2_4 3.102100 1_455
Ce2_2 Ce2_4 3.102100 1_565
Ce2_2 Mg1_6 3.357023 1_455
Ce2_2 Mg1_0 3.357023 1_565
Ce2_2 Ce3_6 3.398685 1_455
Ce2_2 Ce3_0 3.398685 1_565
Ce2_3 Ce2_5 3.102100 1_455
Ce2_3 Ce2_5 3.102100 1_565
Ce2_3 Mg1_7 3.357023 1_455
Ce2_3 Mg1_1 3.357023 1_565
Ce2_3 Ce3_7 3.398685 1_455
Ce2_3 Ce3_1 3.398685 1_565
Ce2_4 Mg1_6 3.357023 1_555
Ce2_4 Mg1_0 3.357023 1_555
Ce2_4 Ce3_6 3.398685 1_555
Ce2_4 Ce3_0 3.398685 1_555
Ce2_5 Mg1_7 3.357023 1_555
Ce2_5 Mg1_1 3.357023 1_555
Ce2_5 Ce3_7 3.398685 1_555
Ce2_5 Ce3_1 3.398685 1_555
Ce2_6 Mg1_2 3.357023 1_555
Ce2_6 Mg1_4 3.357023 1_565
Ce2_6 Ce3_2 3.398685 1_555
Ce2_6 Ce3_4 3.398685 1_565
Ce2_7 Mg1_3 3.357023 1_555
Ce2_7 Mg1_5 3.357023 1_565
Ce2_7 Ce3_3 3.398685 1_555
Ce2_7 Ce3_5 3.398685 1_565
Ce3_0 Ce3_6 3.102100 1_555
Ce3_0 Ce3_6 3.102100 1_445
Ce3_0 Mg0_4 3.484943 1_555
Ce3_0 Mg0_5 3.484943 1_555
Ce3_0 Mg0_2 3.484943 1_545
Ce3_0 Mg0_3 3.484943 1_545
Ce3_0 Mg1_2 3.566692 1_545
Ce3_0 Mg1_4 3.566692 1_555
Ce3_1 Ce3_7 3.102100 1_555
Ce3_1 Ce3_7 3.102100 1_445
Ce3_1 Mg0_5 3.484943 1_555
Ce3_1 Mg0_4 3.484943 1_556
Ce3_1 Mg0_3 3.484943 1_545
Ce3_1 Mg0_2 3.484943 1_546
Ce3_1 Mg1_3 3.566692 1_545
Ce3_1 Mg1_5 3.566692 1_555
Ce3_2 Ce3_4 3.102100 1_565
Ce3_2 Ce3_4 3.102100 1_455
Ce3_2 Mg0_7 3.484943 1_555
Ce3_2 Mg0_6 3.484943 1_555
Ce3_2 Mg0_0 3.484943 1_555
Ce3_2 Mg0_1 3.484943 1_555
Ce3_2 Mg1_0 3.566692 1_555
Ce3_2 Mg1_6 3.566692 1_555
Ce3_3 Ce3_5 3.102100 1_565
Ce3_3 Ce3_5 3.102100 1_455
Ce3_3 Mg0_7 3.484943 1_555
Ce3_3 Mg0_6 3.484943 1_556
Ce3_3 Mg0_1 3.484943 1_555
Ce3_3 Mg0_0 3.484943 1_556
Ce3_3 Mg1_1 3.566692 1_555
Ce3_3 Mg1_7 3.566692 1_555
Ce3_4 Mg0_0 3.484943 1_655
Ce3_4 Mg0_1 3.484943 1_655
Ce3_4 Mg0_7 3.484943 1_545
Ce3_4 Mg0_6 3.484943 1_545
Ce3_4 Mg1_6 3.566692 1_545
Ce3_4 Mg1_0 3.566692 1_655
Ce3_5 Mg0_0 3.484943 1_656
Ce3_5 Mg0_1 3.484943 1_655
Ce3_5 Mg0_7 3.484943 1_545
Ce3_5 Mg0_6 3.484943 1_546
Ce3_5 Mg1_7 3.566692 1_545
Ce3_5 Mg1_1 3.566692 1_655
Ce3_6 Mg0_4 3.484943 1_555
Ce3_6 Mg0_5 3.484943 1_555
Ce3_6 Mg0_3 3.484943 1_655
Ce3_6 Mg0_2 3.484943 1_655
Ce3_6 Mg1_2 3.566692 1_655
Ce3_6 Mg1_4 3.566692 1_555
Ce3_7 Mg0_5 3.484943 1_555
Ce3_7 Mg0_4 3.484943 1_556
Ce3_7 Mg0_2 3.484943 1_656
Ce3_7 Mg0_3 3.484943 1_655
Ce3_7 Mg1_5 3.566692 1_555
Ce3_7 Mg1_3 3.566692 1_655
Mg0_0 Mg1_1 3.008053 1_554
Mg0_0 Mg1_0 3.008053 1_555
Mg0_0 Mg0_6 3.102100 1_445
Mg0_0 Mg0_6 3.102100 1_555
Mg0_1 Mg1_0 3.008053 1_555
Mg0_1 Mg1_1 3.008053 1_555
Mg0_1 Mg0_7 3.102100 1_555
Mg0_1 Mg0_7 3.102100 1_445
Mg0_2 Mg1_3 3.008053 1_554
Mg0_2 Mg1_2 3.008053 1_555
Mg0_2 Mg0_4 3.102100 1_455
Mg0_2 Mg0_4 3.102100 1_565
Mg0_3 Mg1_3 3.008053 1_555
Mg0_3 Mg1_2 3.008053 1_555
Mg0_3 Mg0_5 3.102100 1_455
Mg0_3 Mg0_5 3.102100 1_565
Mg0_4 Mg1_5 3.008053 1_554
Mg0_4 Mg1_4 3.008053 1_555
Mg0_5 Mg1_4 3.008053 1_555
Mg0_5 Mg1_5 3.008053 1_555
Mg0_6 Mg1_6 3.008053 1_555
Mg0_6 Mg1_7 3.008053 1_554
Mg0_7 Mg1_7 3.008053 1_555
Mg0_7 Mg1_6 3.008053 1_555
Mg1_0 Mg1_6 3.102100 1_555
Mg1_0 Mg1_6 3.102100 1_445
Mg1_1 Mg1_7 3.102100 1_555
Mg1_1 Mg1_7 3.102100 1_445
Mg1_2 Mg1_4 3.102100 1_565
Mg1_2 Mg1_4 3.102100 1_455
Mg1_3 Mg1_5 3.102100 1_565
Mg1_3 Mg1_5 3.102100 1_455
