# generated using pymatgen
data_Ca3(GaNi)4
_symmetry_space_group_name_H-M   'P 1'
_cell_length_a   6.34562807
_cell_length_b   6.34562859
_cell_length_c   6.34562886
_cell_angle_alpha   109.47121824
_cell_angle_beta   109.47121989
_cell_angle_gamma   109.47122429
_symmetry_Int_Tables_number   1
_chemical_formula_structural   Ca3(GaNi)4
_chemical_formula_sum   'Ca3 Ga4 Ni4'
_cell_volume   196.69894802
_cell_formula_units_Z   1
loop_
 _symmetry_equiv_pos_site_id
 _symmetry_equiv_pos_as_xyz
  1  'x, y, z'
loop_
 _atom_site_type_symbol
 _atom_site_label
 _atom_site_symmetry_multiplicity
 _atom_site_fract_x
 _atom_site_fract_y
 _atom_site_fract_z
 _atom_site_occupancy
  Ca  Ca0  1  -0.00000000  0.50000000  0.50000000  1
  Ca  Ca1  1  0.50000000  0.00000000  0.50000000  1
  Ca  Ca2  1  0.50000000  0.50000000  -0.00000000  1
  Ga  Ga0  1  -0.00000000  -0.00000000  0.60995115  1
  Ga  Ga1  1  0.60995115  0.00000000  0.00000000  1
  Ga  Ga2  1  0.39004885  0.39004885  0.39004885  1
  Ga  Ga3  1  0.00000000  0.60995115  -0.00000000  1
  Ni  Ni0  1  -0.00000000  0.24489270  0.00000000  1
  Ni  Ni1  1  0.24489270  -0.00000000  -0.00000000  1
  Ni  Ni2  1  0.00000000  0.00000000  0.24489270  1
  Ni  Ni3  1  0.75510730  0.75510730  0.75510730  1
loop_
_geom_bond_atom_site_label_1
_geom_bond_atom_site_label_2
_geom_bond_distance
_geom_bond_site_symmetry_2
Ca0 Ga2 3.012930 1_555
Ca0 Ga0 3.012930 1_565
Ca0 Ga1 3.012930 1_455
Ca0 Ga3 3.012930 1_556
Ca0 Ni3 3.043547 1_455
Ca0 Ni2 3.043548 1_555
Ca0 Ni1 3.043548 1_566
Ca0 Ni0 3.043548 1_555
Ca0 Ga2 3.468335 1_455
Ca0 Ga1 3.468335 1_566
Ca0 Ga0 3.468335 1_555
Ca0 Ga3 3.468335 1_555
Ca1 Ga0 3.012930 1_655
Ca1 Ga3 3.012930 1_545
Ca1 Ga2 3.012930 1_555
Ca1 Ga1 3.012930 1_556
Ca1 Ni2 3.043547 1_555
Ca1 Ni0 3.043547 1_656
Ca1 Ni3 3.043547 1_545
Ca1 Ni1 3.043548 1_555
Ca1 Ga0 3.468335 1_555
Ca1 Ga3 3.468335 1_656
Ca1 Ga2 3.468335 1_545
Ca1 Ga1 3.468335 1_555
Ca2 Ga3 3.012930 1_655
Ca2 Ga0 3.012930 1_554
Ca2 Ga1 3.012930 1_565
Ca2 Ga2 3.012930 1_555
Ca2 Ni0 3.043547 1_555
Ca2 Ni2 3.043547 1_665
Ca2 Ni1 3.043547 1_555
Ca2 Ni3 3.043547 1_554
Ca2 Ga3 3.468335 1_555
Ca2 Ga1 3.468335 1_555
Ca2 Ga0 3.468335 1_665
Ca2 Ga2 3.468335 1_554
Ga0 Ni2 2.316525 1_555
Ga0 Ni3 2.444760 1_445
Ga0 Ni1 2.444760 1_556
Ga0 Ni0 2.444760 1_556
Ga1 Ni1 2.316525 1_555
Ga1 Ni0 2.444759 1_655
Ga1 Ni2 2.444760 1_655
Ga1 Ni3 2.444760 1_544
Ga2 Ni3 2.316525 1_555
Ga2 Ni2 2.444759 1_555
Ga2 Ni0 2.444760 1_555
Ga2 Ni1 2.444760 1_555
Ga3 Ni0 2.316525 1_555
Ga3 Ni1 2.444760 1_565
Ga3 Ni3 2.444760 1_454
Ga3 Ni2 2.444760 1_565
Ni0 Ni1 2.537668 1_555
Ni0 Ni3 2.537668 1_444
Ni0 Ni2 2.537668 1_555
Ni1 Ni3 2.537668 1_444
Ni1 Ni2 2.537668 1_555
Ni2 Ni3 2.537668 1_444
