# generated using pymatgen
data_Sr3(OsN2)2
_symmetry_space_group_name_H-M   'P 1'
_cell_length_a   7.31726017
_cell_length_b   9.11975241
_cell_length_c   5.64039398
_cell_angle_alpha   90.00000117
_cell_angle_beta   93.12417274
_cell_angle_gamma   128.54778591
_symmetry_Int_Tables_number   1
_chemical_formula_structural   Sr3(OsN2)2
_chemical_formula_sum   'Sr6 Os4 N8'
_cell_volume   293.65672324
_cell_formula_units_Z   2
loop_
 _symmetry_equiv_pos_site_id
 _symmetry_equiv_pos_as_xyz
  1  'x, y, z'
loop_
 _atom_site_type_symbol
 _atom_site_label
 _atom_site_symmetry_multiplicity
 _atom_site_fract_x
 _atom_site_fract_y
 _atom_site_fract_z
 _atom_site_occupancy
  Sr  Sr0  1  0.24370300  0.98990200  0.03666000  1
  Sr  Sr1  1  0.75629700  0.74620000  0.46334000  1
  Sr  Sr2  1  0.75629700  0.01009800  0.96334000  1
  Sr  Sr3  1  0.24370300  0.25380000  0.53666000  1
  Sr  Sr4  1  0.00000000  0.59810900  0.75000000  1
  Sr  Sr5  1  0.00000000  0.40189100  0.25000000  1
  Os  Os0  1  0.59322400  0.16137800  0.59101100  1
  Os  Os1  1  0.40677600  0.56815400  0.90898900  1
  Os  Os2  1  0.40677600  0.83862200  0.40898900  1
  Os  Os3  1  0.59322400  0.43184600  0.09101100  1
  N  N0  1  0.23767000  0.93803600  0.52602200  1
  N  N1  1  0.76233000  0.70036600  0.97397800  1
  N  N2  1  0.76233000  0.06196400  0.47397800  1
  N  N3  1  0.23767000  0.29963400  0.02602200  1
  N  N4  1  0.65838200  0.27484400  0.91093300  1
  N  N5  1  0.34161800  0.61646200  0.58906700  1
  N  N6  1  0.34161800  0.72515600  0.08906700  1
  N  N7  1  0.65838200  0.38353800  0.41093300  1
loop_
_geom_bond_atom_site_label_1
_geom_bond_atom_site_label_2
_geom_bond_distance
_geom_bond_site_symmetry_2
N0 Os2 2.067876 1_555
N0 Os0 2.084054 1_565
N0 Sr4 2.784042 1_555
N0 Sr1 2.788641 1_455
N0 Sr0 2.798502 1_555
N0 Sr3 2.852969 1_565
N0 Sr0 2.912275 1_556
N1 Os3 2.067876 1_556
N1 Os1 2.084054 1_555
N1 Sr4 2.784042 1_655
N1 Sr0 2.788640 1_656
N1 Sr1 2.798503 1_556
N1 Sr2 2.852978 1_565
N1 Sr1 2.912277 1_555
N2 Os0 2.067876 1_555
N2 Os2 2.084054 1_545
N2 Sr5 2.784042 1_655
N2 Sr3 2.788641 1_655
N2 Sr2 2.798502 1_555
N2 Sr1 2.852969 1_545
N2 Sr2 2.912275 1_554
N3 Os1 2.067876 1_554
N3 Os3 2.084054 1_555
N3 Sr5 2.784042 1_555
N3 Sr2 2.788640 1_454
N3 Sr3 2.798503 1_554
N3 Sr0 2.852978 1_545
N3 Sr3 2.912277 1_555
N4 Os0 1.961018 1_555
N4 Os3 2.052486 1_556
N4 Sr4 2.612737 1_655
N4 Sr0 2.621053 1_546
N4 Sr5 2.667909 1_656
N4 Sr2 2.926263 1_555
N5 Os1 1.961018 1_555
N5 Os2 2.052486 1_555
N5 Sr4 2.612737 1_555
N5 Sr1 2.621050 1_555
N5 Sr5 2.667909 1_555
N5 Sr3 2.926272 1_555
N6 Os2 1.961018 1_555
N6 Os1 2.052486 1_554
N6 Sr5 2.612737 1_555
N6 Sr2 2.621053 1_564
N6 Sr4 2.667909 1_554
N6 Sr0 2.926263 1_555
N7 Os3 1.961018 1_555
N7 Os0 2.052486 1_555
N7 Sr5 2.612737 1_655
N7 Sr3 2.621050 1_555
N7 Sr4 2.667909 1_655
N7 Sr1 2.926272 1_555
