# generated using pymatgen
data_Li4Fe3CoO8
_symmetry_space_group_name_H-M   'P 1'
_cell_length_a   5.90782302
_cell_length_b   10.31291098
_cell_length_c   5.95579703
_cell_angle_alpha   73.95370418
_cell_angle_beta   119.68749947
_cell_angle_gamma   106.46399359
_symmetry_Int_Tables_number   1
_chemical_formula_structural   Li4Fe3CoO8
_chemical_formula_sum   'Li8 Fe6 Co2 O16'
_cell_volume   298.25430024
_cell_formula_units_Z   2
loop_
 _symmetry_equiv_pos_site_id
 _symmetry_equiv_pos_as_xyz
  1  'x, y, z'
loop_
 _atom_site_type_symbol
 _atom_site_label
 _atom_site_symmetry_multiplicity
 _atom_site_fract_x
 _atom_site_fract_y
 _atom_site_fract_z
 _atom_site_occupancy
  Li  Li0  1  0.75719000  0.25244900  0.25440800  1
  Li  Li1  1  0.24317100  0.74752300  0.74595600  1
  Li  Li2  1  0.75458600  0.75009200  0.25573700  1
  Li  Li3  1  0.24500400  0.24989600  0.74377800  1
  Li  Li4  1  0.75522100  0.75111100  0.75059600  1
  Li  Li5  1  0.24460800  0.24891500  0.24930800  1
  Li  Li6  1  0.74923700  0.24785300  0.74987600  1
  Li  Li7  1  0.25083800  0.75216600  0.24995700  1
  Fe  Fe0  1  0.49968700  0.00004600  0.50024500  1
  Fe  Fe1  1  0.99992200  0.50014400  0.50004400  1
  Fe  Fe2  1  0.50012300  0.50006100  0.99972000  1
  Fe  Fe3  1  0.99989800  0.49988300  0.99983100  1
  Fe  Fe4  1  0.50066200  0.99982200  0.00082900  1
  Fe  Fe5  1  0.00049000  0.00000700  0.50020200  1
  Co  Co0  1  0.99995500  0.00010600  0.99976000  1
  Co  Co1  1  0.49961800  0.50009900  0.49942600  1
  O  O0  1  0.62578800  0.88528400  0.36676500  1
  O  O1  1  0.12840500  0.38588800  0.86715100  1
  O  O2  1  0.87165100  0.61420500  0.13279800  1
  O  O3  1  0.37422000  0.11478300  0.63353900  1
  O  O4  1  0.62150600  0.38844400  0.37386300  1
  O  O5  1  0.12376800  0.88861600  0.87477700  1
  O  O6  1  0.62980000  0.38397000  0.87575300  1
  O  O7  1  0.13886800  0.88143600  0.39222200  1
  O  O8  1  0.64734800  0.89002900  0.87718900  1
  O  O9  1  0.12311100  0.38506200  0.36734600  1
  O  O10  1  0.87644700  0.11121800  0.12563100  1
  O  O11  1  0.37864400  0.61162900  0.62592500  1
  O  O12  1  0.86099200  0.11832400  0.60780300  1
  O  O13  1  0.37013300  0.61570900  0.12386700  1
  O  O14  1  0.87664800  0.61518200  0.63294700  1
  O  O15  1  0.35246100  0.11004300  0.12275600  1
loop_
_geom_bond_atom_site_label_1
_geom_bond_atom_site_label_2
_geom_bond_distance
_geom_bond_site_symmetry_2
Li0 O12 2.076575 1_555
Li0 O9 2.094894 1_655
Li0 O6 2.167583 1_554
Li0 O4 2.206695 1_555
Li0 O10 2.222726 1_555
Li0 O15 2.297373 1_555
Li1 O7 2.076878 1_555
Li1 O14 2.096082 1_455
Li1 O13 2.165802 1_556
Li1 O11 2.207285 1_555
Li1 O5 2.222290 1_555
Li1 O8 2.295569 1_555
Li2 O0 2.137646 1_555
Li2 O2 2.143955 1_555
Li2 O7 2.165018 1_655
Li2 O14 2.176904 1_555
Li2 O13 2.178709 1_555
Li2 O8 2.207211 1_554
Li3 O3 2.135551 1_555
Li3 O1 2.144765 1_555
Li3 O12 2.164855 1_455
Li3 O9 2.174888 1_555
Li3 O6 2.178707 1_555
Li3 O15 2.208566 1_556
Li4 O5 2.129134 1_655
Li4 O14 2.140474 1_555
Li4 O8 2.148884 1_555
Li4 O11 2.170309 1_555
Li4 O0 2.201092 1_555
Li4 O2 2.207035 1_556
Li5 O10 2.128487 1_455
Li5 O9 2.144208 1_555
Li5 O15 2.148238 1_555
Li5 O4 2.171790 1_555
Li5 O3 2.202568 1_555
Li5 O1 2.207178 1_554
Li6 O3 2.133932 1_555
Li6 O12 2.148128 1_555
Li6 O6 2.167422 1_555
Li6 O1 2.173605 1_655
Li6 O10 2.179368 1_556
Li6 O4 2.199553 1_555
Li7 O0 2.133844 1_555
Li7 O7 2.147629 1_555
Li7 O13 2.170652 1_555
Li7 O2 2.173343 1_455
Li7 O5 2.176154 1_554
Li7 O11 2.199122 1_555
Fe0 O7 2.013144 1_545
Fe0 O12 2.013993 1_555
Fe0 O3 2.044295 1_555
Fe0 O0 2.047999 1_545
Fe0 O8 2.073961 1_545
Fe0 O15 2.076136 1_555
Fe1 O9 2.034874 1_655
Fe1 O14 2.035761 1_555
Fe1 O2 2.045260 1_555
Fe1 O1 2.045439 1_655
Fe1 O4 2.060187 1_555
Fe1 O11 2.060791 1_655
Fe2 O13 2.031760 1_556
Fe2 O6 2.033290 1_555
Fe2 O2 2.039512 1_556
Fe2 O1 2.040391 1_555
Fe2 O11 2.065061 1_555
Fe2 O4 2.066817 1_556
Fe3 O6 2.040124 1_555
Fe3 O13 2.040371 1_656
Fe3 O1 2.048569 1_655
Fe3 O14 2.048676 1_555
Fe3 O9 2.049530 1_656
Fe3 O2 2.051351 1_556
Fe4 O0 2.041467 1_555
Fe4 O10 2.047641 1_565
Fe4 O3 2.049010 1_564
Fe4 O5 2.051699 1_554
Fe4 O8 2.055367 1_554
Fe4 O15 2.058208 1_565
Fe5 O7 2.024682 1_545
Fe5 O12 2.025878 1_455
Fe5 O3 2.051381 1_555
Fe5 O0 2.055326 1_445
Fe5 O10 2.066829 1_455
Fe5 O5 2.067617 1_545
Co0 O15 1.941319 1_656
Co0 O8 1.942286 1_545
Co0 O10 1.974364 1_556
Co0 O5 1.974928 1_645
Co0 O12 2.169211 1_555
Co0 O7 2.173151 1_646
Co1 O11 1.969703 1_555
Co1 O4 1.970574 1_555
Co1 O9 2.064191 1_555
Co1 O14 2.066678 1_555
Co1 O13 2.087483 1_555
Co1 O6 2.092854 1_555
