# generated using pymatgen
data_Nd3CrS6
_symmetry_space_group_name_H-M   'P 1'
_cell_length_a   3.89248003
_cell_length_b   13.68255839
_cell_length_c   16.25833763
_cell_angle_alpha   90.00000000
_cell_angle_beta   90.00000000
_cell_angle_gamma   90.00000000
_symmetry_Int_Tables_number   1
_chemical_formula_structural   Nd3CrS6
_chemical_formula_sum   'Nd12 Cr4 S24'
_cell_volume   865.90419055
_cell_formula_units_Z   4
loop_
 _symmetry_equiv_pos_site_id
 _symmetry_equiv_pos_as_xyz
  1  'x, y, z'
loop_
 _atom_site_type_symbol
 _atom_site_label
 _atom_site_symmetry_multiplicity
 _atom_site_fract_x
 _atom_site_fract_y
 _atom_site_fract_z
 _atom_site_occupancy
  Nd  Nd0  1  -0.00000000  0.55215480  0.28183487  1
  Nd  Nd1  1  0.00000000  0.44784520  0.71816513  1
  Nd  Nd2  1  0.50000000  0.94784520  0.78183487  1
  Nd  Nd3  1  0.50000000  0.05215480  0.21816513  1
  Nd  Nd4  1  -0.00000000  0.75904368  0.09654760  1
  Nd  Nd5  1  -0.00000000  0.24095632  0.90345240  1
  Nd  Nd6  1  0.50000000  0.74095632  0.59654760  1
  Nd  Nd7  1  0.50000000  0.25904368  0.40345240  1
  Nd  Nd8  1  -0.00000000  0.32029351  0.14795950  1
  Nd  Nd9  1  0.00000000  0.67970649  0.85204050  1
  Nd  Nd10  1  0.50000000  0.17970649  0.64795950  1
  Nd  Nd11  1  0.50000000  0.82029351  0.35204050  1
  Cr  Cr0  1  0.00000000  -0.00000000  0.50000000  1
  Cr  Cr1  1  0.50000000  0.50000000  -0.00000000  1
  Cr  Cr2  1  -0.00000000  -0.00000000  -0.00000000  1
  Cr  Cr3  1  0.50000000  0.50000000  0.50000000  1
  S  S0  1  -0.00000000  0.12227412  0.10218287  1
  S  S1  1  0.00000000  0.87772588  0.89781713  1
  S  S2  1  0.50000000  0.37772588  0.60218287  1
  S  S3  1  0.50000000  0.62227412  0.39781713  1
  S  S4  1  -0.00000000  0.18886541  0.28937816  1
  S  S5  1  0.00000000  0.81113459  0.71062184  1
  S  S6  1  0.50000000  0.31113459  0.78937816  1
  S  S7  1  0.50000000  0.68886541  0.21062184  1
  S  S8  1  0.00000000  0.17595629  0.51953368  1
  S  S9  1  -0.00000000  0.82404371  0.48046632  1
  S  S10  1  0.50000000  0.32404371  0.01953368  1
  S  S11  1  0.50000000  0.67595629  0.98046632  1
  S  S12  1  0.00000000  0.52348824  0.09547257  1
  S  S13  1  -0.00000000  0.47651176  0.90452743  1
  S  S14  1  0.50000000  0.97651176  0.59547257  1
  S  S15  1  0.50000000  0.02348824  0.40452743  1
  S  S16  1  0.00000000  0.10101445  0.75483100  1
  S  S17  1  -0.00000000  0.89898555  0.24516900  1
  S  S18  1  0.50000000  0.39898555  0.25483100  1
  S  S19  1  0.50000000  0.60101445  0.74516900  1
  S  S20  1  -0.00000000  0.42075099  0.42759463  1
  S  S21  1  0.00000000  0.57924901  0.57240537  1
  S  S22  1  0.50000000  0.07924901  0.92759463  1
  S  S23  1  0.50000000  0.92075099  0.07240537  1
loop_
_geom_bond_atom_site_label_1
_geom_bond_atom_site_label_2
_geom_bond_distance
_geom_bond_site_symmetry_2
Nd0 S3 2.874736 1_455
Nd0 S3 2.874736 1_555
Nd0 S18 2.893572 1_455
Nd0 S18 2.893572 1_555
Nd0 S7 2.937231 1_455
Nd0 S7 2.937231 1_555
Nd0 S20 2.974659 1_555
Nd0 S12 3.055223 1_555
Nd1 S2 2.874736 1_555
Nd1 S2 2.874736 1_455
Nd1 S19 2.893572 1_555
Nd1 S19 2.893572 1_455
Nd1 S6 2.937231 1_455
Nd1 S6 2.937231 1_555
Nd1 S21 2.974659 1_555
Nd1 S13 3.055223 1_555
Nd2 S1 2.874736 1_555
Nd2 S1 2.874736 1_655
Nd2 S16 2.893572 1_665
Nd2 S16 2.893572 1_565
Nd2 S5 2.937231 1_655
Nd2 S5 2.937231 1_555
Nd2 S22 2.974659 1_565
Nd2 S14 3.055223 1_555
Nd3 S0 2.874736 1_555
Nd3 S0 2.874736 1_655
Nd3 S17 2.893572 1_645
Nd3 S17 2.893572 1_545
Nd3 S4 2.937231 1_655
Nd3 S4 2.937231 1_555
Nd3 S23 2.974659 1_545
Nd3 S15 3.055223 1_555
Nd4 S7 2.854755 1_555
Nd4 S7 2.854755 1_455
Nd4 S11 2.939750 1_454
Nd4 S11 2.939750 1_554
Nd4 S23 2.972773 1_555
Nd4 S23 2.972773 1_455
Nd4 S17 3.083018 1_555
Nd4 S12 3.223048 1_555
Nd5 S6 2.854755 1_555
Nd5 S6 2.854755 1_455
Nd5 S10 2.939750 1_456
Nd5 S10 2.939750 1_556
Nd5 S22 2.972773 1_555
Nd5 S22 2.972773 1_455
Nd5 S16 3.083018 1_555
Nd5 S13 3.223048 1_555
Nd6 S5 2.854755 1_655
Nd6 S5 2.854755 1_555
Nd6 S9 2.939750 1_555
Nd6 S9 2.939750 1_655
Nd6 S21 2.972773 1_555
Nd6 S21 2.972773 1_655
Nd6 S19 3.083018 1_555
Nd6 S14 3.223048 1_555
Nd7 S4 2.854755 1_555
Nd7 S4 2.854755 1_655
Nd7 S8 2.939750 1_655
Nd7 S8 2.939750 1_555
Nd7 S20 2.972773 1_555
Nd7 S20 2.972773 1_655
Nd7 S18 3.083018 1_555
Nd7 S15 3.223048 1_555
Nd8 S0 2.809773 1_555
Nd8 S18 2.822453 1_555
Nd8 S18 2.822453 1_455
Nd8 S10 2.854853 1_455
Nd8 S10 2.854853 1_555
Nd8 S12 2.908238 1_555
Nd8 S4 2.918947 1_555
Nd9 S1 2.809773 1_555
Nd9 S19 2.822453 1_555
Nd9 S19 2.822453 1_455
Nd9 S11 2.854853 1_455
Nd9 S11 2.854853 1_555
Nd9 S13 2.908238 1_555
Nd9 S5 2.918947 1_555
Nd10 S2 2.809773 1_555
Nd10 S16 2.822453 1_555
Nd10 S16 2.822453 1_655
Nd10 S8 2.854853 1_655
Nd10 S8 2.854853 1_555
Nd10 S14 2.908238 1_545
Nd10 S6 2.918947 1_555
Nd11 S3 2.809773 1_555
Nd11 S17 2.822453 1_655
Nd11 S17 2.822453 1_555
Nd11 S9 2.854853 1_555
Nd11 S9 2.854853 1_655
Nd11 S15 2.908238 1_565
Nd11 S7 2.918947 1_555
Cr0 S8 2.428389 1_555
Cr0 S9 2.428389 1_545
Cr0 S15 2.510087 1_455
Cr0 S15 2.510087 1_555
Cr0 S14 2.510087 1_445
Cr0 S14 2.510087 1_545
Cr1 S10 2.428389 1_555
Cr1 S11 2.428389 1_554
Cr1 S13 2.510087 1_654
Cr1 S13 2.510087 1_554
Cr1 S12 2.510087 1_555
Cr1 S12 2.510087 1_655
Cr2 S0 2.357753 1_555
Cr2 S1 2.357753 1_544
Cr2 S23 2.519801 1_445
Cr2 S23 2.519801 1_545
Cr2 S22 2.519801 1_454
Cr2 S22 2.519801 1_554
Cr3 S3 2.357753 1_555
Cr3 S2 2.357753 1_555
Cr3 S21 2.519801 1_655
Cr3 S21 2.519801 1_555
Cr3 S20 2.519801 1_655
Cr3 S20 2.519801 1_555
