# generated using pymatgen
data_CaYbEu2
_symmetry_space_group_name_H-M   'P 1'
_cell_length_a   6.00094753
_cell_length_b   6.00094753
_cell_length_c   6.00094753
_cell_angle_alpha   60.00000000
_cell_angle_beta   60.00000000
_cell_angle_gamma   60.00000000
_symmetry_Int_Tables_number   1
_chemical_formula_structural   CaYbEu2
_chemical_formula_sum   'Ca1 Yb1 Eu2'
_cell_volume   152.80743638
_cell_formula_units_Z   1
loop_
 _symmetry_equiv_pos_site_id
 _symmetry_equiv_pos_as_xyz
  1  'x, y, z'
loop_
 _atom_site_type_symbol
 _atom_site_label
 _atom_site_symmetry_multiplicity
 _atom_site_fract_x
 _atom_site_fract_y
 _atom_site_fract_z
 _atom_site_occupancy
  Ca  Ca0  1  0.50000000  0.50000000  0.50000000  1
  Yb  Yb0  1  0.00000000  0.00000000  0.00000000  1
  Eu  Eu0  1  0.25000000  0.25000000  0.25000000  1
  Eu  Eu1  1  0.75000000  0.75000000  0.75000000  1
loop_
_geom_bond_atom_site_label_1
_geom_bond_atom_site_label_2
_geom_bond_distance
_geom_bond_site_symmetry_2
Ca0 Eu0 3.674815 1_555
Ca0 Eu1 3.674815 1_555
Ca0 Eu1 3.674815 1_554
Ca0 Eu0 3.674815 1_556
Ca0 Eu1 3.674815 1_455
Ca0 Eu0 3.674815 1_655
Ca0 Eu1 3.674815 1_545
Ca0 Eu0 3.674815 1_565
Eu0 Yb0 3.674815 1_556
Eu0 Yb0 3.674815 1_555
Eu0 Yb0 3.674815 1_655
Eu0 Yb0 3.674815 1_565
Eu1 Yb0 3.674815 1_666
Eu1 Yb0 3.674815 1_665
Eu1 Yb0 3.674815 1_566
Eu1 Yb0 3.674815 1_656
