# generated using pymatgen
data_TbSc3(BO3)4
_symmetry_space_group_name_H-M   'P 1'
_cell_length_a   4.85289100
_cell_length_b   5.97111005
_cell_length_c   7.70594697
_cell_angle_alpha   105.29751859
_cell_angle_beta   90.10284468
_cell_angle_gamma   89.99238117
_symmetry_Int_Tables_number   1
_chemical_formula_structural   TbSc3(BO3)4
_chemical_formula_sum   'Tb1 Sc3 B4 O12'
_cell_volume   215.38434426
_cell_formula_units_Z   1
loop_
 _symmetry_equiv_pos_site_id
 _symmetry_equiv_pos_as_xyz
  1  'x, y, z'
loop_
 _atom_site_type_symbol
 _atom_site_label
 _atom_site_symmetry_multiplicity
 _atom_site_fract_x
 _atom_site_fract_y
 _atom_site_fract_z
 _atom_site_occupancy
  Tb  Tb0  1  0.00000000  0.00000000  0.00000000  1
  Sc  Sc0  1  0.50000000  0.50000000  0.50000000  1
  Sc  Sc1  1  0.00000000  0.00000000  0.50000000  1
  Sc  Sc2  1  0.50000000  0.50000000  0.00000000  1
  B  B0  1  0.50247100  0.00367800  0.74092700  1
  B  B1  1  0.99738600  0.50829800  0.25315900  1
  B  B2  1  0.49752900  0.99632200  0.25907300  1
  B  B3  1  0.00261400  0.49170200  0.74684100  1
  O  O0  1  0.78664800  0.00083800  0.73454900  1
  O  O1  1  0.28410600  0.49673700  0.25064800  1
  O  O2  1  0.85615300  0.64714300  0.39887700  1
  O  O3  1  0.37453600  0.15133300  0.88787800  1
  O  O4  1  0.34909500  0.85362000  0.60764700  1
  O  O5  1  0.84945700  0.37490300  0.10845100  1
  O  O6  1  0.21335200  0.99916200  0.26545100  1
  O  O7  1  0.71589400  0.50326300  0.74935200  1
  O  O8  1  0.14384700  0.35285700  0.60112300  1
  O  O9  1  0.62546400  0.84866700  0.11212200  1
  O  O10  1  0.65090500  0.14638000  0.39235300  1
  O  O11  1  0.15054300  0.62509700  0.89154900  1
loop_
_geom_bond_atom_site_label_1
_geom_bond_atom_site_label_2
_geom_bond_distance
_geom_bond_site_symmetry_2
B0 O0 1.379986 1_555
B0 O3 1.385885 1_555
B0 O4 1.386913 1_545
B1 O5 1.386317 1_555
B1 O2 1.389020 1_555
B1 O1 1.393039 1_655
B2 O6 1.379986 1_555
B2 O9 1.385885 1_555
B2 O10 1.386913 1_565
B3 O11 1.386317 1_555
B3 O8 1.389020 1_555
B3 O7 1.393039 1_455
O0 Sc1 2.083445 1_655
O0 Tb0 2.292183 1_656
O1 Sc0 2.182484 1_555
O1 Sc2 2.203592 1_555
O2 Sc1 2.160062 1_665
O2 Sc0 2.175535 1_555
O3 Sc2 2.121542 1_556
O3 Tb0 2.298846 1_556
O4 Sc1 2.167776 1_565
O4 Sc0 2.181835 1_555
O5 Sc2 2.111008 1_555
O5 Tb0 2.293037 1_655
O6 Sc1 2.083445 1_565
O6 Tb0 2.292183 1_565
O7 Sc0 2.182484 1_555
O7 Sc2 2.203592 1_556
O8 Sc1 2.160062 1_555
O8 Sc0 2.175535 1_555
O9 Sc2 2.121542 1_555
O9 Tb0 2.298846 1_665
O10 Sc1 2.167776 1_655
O10 Sc0 2.181835 1_555
O11 Sc2 2.111008 1_556
O11 Tb0 2.293037 1_566
