# generated using pymatgen
data_Li9Mn2Co5O16
_symmetry_space_group_name_H-M   'P 1'
_cell_length_a   3.02819900
_cell_length_b   9.99564084
_cell_length_c   10.76196608
_cell_angle_alpha   115.02290189
_cell_angle_beta   95.36120686
_cell_angle_gamma   92.02477307
_symmetry_Int_Tables_number   1
_chemical_formula_structural   Li9Mn2Co5O16
_chemical_formula_sum   'Li9 Mn2 Co5 O16'
_cell_volume   292.87170157
_cell_formula_units_Z   1
loop_
 _symmetry_equiv_pos_site_id
 _symmetry_equiv_pos_as_xyz
  1  'x, y, z'
loop_
 _atom_site_type_symbol
 _atom_site_label
 _atom_site_symmetry_multiplicity
 _atom_site_fract_x
 _atom_site_fract_y
 _atom_site_fract_z
 _atom_site_occupancy
  Li  Li0  1  0.87940200  0.80977300  0.24996600  1
  Li  Li1  1  0.62495500  0.93596200  0.74642700  1
  Li  Li2  1  0.37504500  0.06403800  0.25357300  1
  Li  Li3  1  0.38094300  0.56652900  0.25467200  1
  Li  Li4  1  0.11431200  0.68309100  0.74084200  1
  Li  Li5  1  0.88568800  0.31690900  0.25915800  1
  Li  Li6  1  0.61905700  0.43347100  0.74532800  1
  Li  Li7  1  0.12059800  0.19022700  0.75003400  1
  Li  Li8  1  0.50000000  0.50000000  0.50000000  1
  Mn  Mn0  1  0.76258500  0.87261900  0.99853000  1
  Mn  Mn1  1  0.23741500  0.12738100  0.00147000  1
  Co  Co0  1  0.50000000  0.00000000  0.50000000  1
  Co  Co1  1  0.00052200  0.25742600  0.49875300  1
  Co  Co2  1  0.74172900  0.37807600  0.00293100  1
  Co  Co3  1  0.25827100  0.62192400  0.99706900  1
  Co  Co4  1  0.99947800  0.74257400  0.50124700  1
  O  O0  1  0.35802700  0.83304400  0.11650000  1
  O  O1  1  0.04558200  0.95335200  0.60873700  1
  O  O2  1  0.83894600  0.08595400  0.11655100  1
  O  O3  1  0.80108500  0.58677300  0.11445900  1
  O  O4  1  0.58289800  0.72117700  0.61355800  1
  O  O5  1  0.28414000  0.34015400  0.11704500  1
  O  O6  1  0.05905000  0.44439400  0.61430600  1
  O  O7  1  0.59654300  0.20846100  0.61353700  1
  O  O8  1  0.40345700  0.79153900  0.38646300  1
  O  O9  1  0.16105400  0.91404600  0.88344900  1
  O  O10  1  0.95441800  0.04664800  0.39126300  1
  O  O11  1  0.94095000  0.55560600  0.38569400  1
  O  O12  1  0.71586000  0.65984600  0.88295500  1
  O  O13  1  0.41710200  0.27882300  0.38644200  1
  O  O14  1  0.19891500  0.41322700  0.88554100  1
  O  O15  1  0.64197300  0.16695600  0.88350000  1
loop_
_geom_bond_atom_site_label_1
_geom_bond_atom_site_label_2
_geom_bond_distance
_geom_bond_site_symmetry_2
Li0 O3 2.073551 1_555
Li0 O0 2.120081 1_555
Li0 O8 2.126219 1_655
Li0 O10 2.195822 1_565
Li0 O0 2.205845 1_655
Li0 O8 2.207237 1_555
Li1 O4 2.004934 1_555
Li1 O1 2.098420 1_655
Li1 O15 2.146146 1_565
Li1 O9 2.170033 1_655
Li1 O9 2.198765 1_555
Li1 O1 2.248942 1_555
Li2 O13 2.004934 1_555
Li2 O10 2.098420 1_455
Li2 O0 2.146146 1_545
Li2 O2 2.170033 1_455
Li2 O2 2.198765 1_555
Li2 O10 2.248942 1_555
Li3 O11 2.060695 1_455
Li3 O8 2.085025 1_555
Li3 O5 2.106320 1_555
Li3 O3 2.129666 1_555
Li3 O11 2.138326 1_555
Li3 O3 2.278044 1_455
Li4 O12 2.115328 1_455
Li4 O9 2.154968 1_555
Li4 O4 2.164136 1_455
Li4 O6 2.180754 1_555
Li4 O4 2.191128 1_555
Li4 O12 2.349737 1_555
Li5 O5 2.115328 1_655
Li5 O2 2.154968 1_555
Li5 O13 2.164136 1_655
Li5 O11 2.180754 1_555
Li5 O13 2.191128 1_555
Li5 O5 2.349737 1_555
Li6 O6 2.060695 1_655
Li6 O7 2.085025 1_555
Li6 O12 2.106320 1_555
Li6 O14 2.129666 1_555
Li6 O6 2.138326 1_555
Li6 O14 2.278044 1_655
Li7 O14 2.073551 1_555
Li7 O15 2.120081 1_555
Li7 O7 2.126219 1_455
Li7 O1 2.195822 1_545
Li7 O15 2.205845 1_455
Li7 O7 2.207237 1_555
Li8 O4 2.015447 1_555
Li8 O13 2.015447 1_555
Li8 O6 2.106687 1_555
Li8 O11 2.106687 1_555
Li8 O6 2.223494 1_655
Li8 O11 2.223494 1_455
Mn0 O12 1.948941 1_555
Mn0 O2 1.957792 1_566
Mn0 O9 1.959372 1_655
Mn0 O0 1.987568 1_556
Mn0 O0 2.251010 1_656
Mn0 O9 2.255879 1_555
Mn1 O5 1.948941 1_555
Mn1 O9 1.957792 1_544
Mn1 O2 1.959372 1_455
Mn1 O15 1.987568 1_554
Mn1 O15 2.251010 1_454
Mn1 O2 2.255879 1_555
Co0 O7 1.912231 1_555
Co0 O8 1.912231 1_545
Co0 O10 2.048798 1_555
Co0 O1 2.048798 1_545
Co0 O10 2.114503 1_455
Co0 O1 2.114503 1_645
Co1 O6 1.743526 1_555
Co1 O13 1.892767 1_555
Co1 O10 1.919320 1_455
Co1 O7 2.003398 1_455
Co1 O13 2.115252 1_455
Co1 O7 2.276034 1_555
Co2 O3 1.907784 1_555
Co2 O15 1.945354 1_554
Co2 O5 2.060743 1_555
Co2 O14 2.074651 1_654
Co2 O5 2.100154 1_655
Co2 O14 2.109425 1_554
Co3 O14 1.907784 1_555
Co3 O0 1.945354 1_556
Co3 O12 2.060743 1_555
Co3 O3 2.074651 1_456
Co3 O12 2.100154 1_455
Co3 O3 2.109425 1_556
Co4 O11 1.743526 1_555
Co4 O4 1.892767 1_555
Co4 O1 1.919320 1_655
Co4 O8 2.003398 1_655
Co4 O4 2.115252 1_655
Co4 O8 2.276034 1_555
