# generated using pymatgen
data_CeSe2
_symmetry_space_group_name_H-M   'P 1'
_cell_length_a   8.31239700
_cell_length_b   8.49917100
_cell_length_c   11.22268300
_cell_angle_alpha   90.00000000
_cell_angle_beta   90.00000000
_cell_angle_gamma   90.00000000
_symmetry_Int_Tables_number   1
_chemical_formula_structural   CeSe2
_chemical_formula_sum   'Ce4 Se8'
_cell_volume   792.86553501
_cell_formula_units_Z   4
loop_
 _symmetry_equiv_pos_site_id
 _symmetry_equiv_pos_as_xyz
  1  'x, y, z'
loop_
 _atom_site_type_symbol
 _atom_site_label
 _atom_site_symmetry_multiplicity
 _atom_site_fract_x
 _atom_site_fract_y
 _atom_site_fract_z
 _atom_site_occupancy
  Ce  Ce0  1  0.99995900  0.55207700  0.87501800  1
  Ce  Ce1  1  0.49995900  0.44792300  0.12498200  1
  Ce  Ce2  1  0.49995900  0.94792300  0.37501800  1
  Ce  Ce3  1  0.99995900  0.05207700  0.62498200  1
  Se  Se0  1  0.31705400  0.52789700  0.93299500  1
  Se  Se1  1  0.81705400  0.47210300  0.06700500  1
  Se  Se2  1  0.81705400  0.97210300  0.43299500  1
  Se  Se3  1  0.31705400  0.02789700  0.56700500  1
  Se  Se4  1  0.43299700  0.64680400  0.30866700  1
  Se  Se5  1  0.93299700  0.35319600  0.69133300  1
  Se  Se6  1  0.93299700  0.85319600  0.80866700  1
  Se  Se7  1  0.43299700  0.14680400  0.19133300  1
loop_
_geom_bond_atom_site_label_1
_geom_bond_atom_site_label_2
_geom_bond_distance
_geom_bond_site_symmetry_2
Ce0 Se0 2.722707 1_655
Ce0 Se6 2.722889 1_555
Ce0 Se1 2.723215 1_556
Ce0 Se5 2.723333 1_555
Ce1 Se1 2.722707 1_555
Ce1 Se7 2.722889 1_555
Ce1 Se0 2.723215 1_554
Ce1 Se4 2.723333 1_555
Ce2 Se2 2.722707 1_555
Ce2 Se4 2.722889 1_555
Ce2 Se3 2.723215 1_565
Ce2 Se7 2.723333 1_565
Ce3 Se3 2.722707 1_655
Ce3 Se5 2.722889 1_555
Ce3 Se2 2.723215 1_545
Ce3 Se6 2.723333 1_545
