# generated using pymatgen
data_Ba3Sr5Co3(CuO4)5
_symmetry_space_group_name_H-M   'P 1'
_cell_length_a   11.21936151
_cell_length_b   11.17134214
_cell_length_c   18.06903414
_cell_angle_alpha   107.89238608
_cell_angle_beta   107.86115428
_cell_angle_gamma   90.52075138
_symmetry_Int_Tables_number   1
_chemical_formula_structural   Ba3Sr5Co3(CuO4)5
_chemical_formula_sum   'Ba12 Sr20 Co12 Cu20 O80'
_cell_volume   2037.89517746
_cell_formula_units_Z   4
loop_
 _symmetry_equiv_pos_site_id
 _symmetry_equiv_pos_as_xyz
  1  'x, y, z'
loop_
 _atom_site_type_symbol
 _atom_site_label
 _atom_site_symmetry_multiplicity
 _atom_site_fract_x
 _atom_site_fract_y
 _atom_site_fract_z
 _atom_site_occupancy
  Ba  Ba0  1  0.31053300  0.05583200  0.11879700  1
  Ba  Ba1  1  0.30656500  0.55453800  0.11898100  1
  Ba  Ba2  1  0.80666500  0.05963900  0.12088700  1
  Ba  Ba3  1  0.80721100  0.55494000  0.11820100  1
  Ba  Ba4  1  0.18541100  0.94757000  0.38334800  1
  Ba  Ba5  1  0.18428000  0.94127800  0.87547100  1
  Ba  Ba6  1  0.68255300  0.43729100  0.87331800  1
  Ba  Ba7  1  0.05863600  0.31547700  0.11822800  1
  Ba  Ba8  1  0.05986400  0.81010700  0.11733800  1
  Ba  Ba9  1  0.55727400  0.31066200  0.11885000  1
  Ba  Ba10  1  0.55571700  0.81240600  0.11971300  1
  Ba  Ba11  1  0.92986600  0.68785000  0.87273900  1
  Sr  Sr0  1  0.30031600  0.05893300  0.61052500  1
  Sr  Sr1  1  0.30821100  0.55444400  0.61084200  1
  Sr  Sr2  1  0.80818700  0.05474300  0.60975100  1
  Sr  Sr3  1  0.79646700  0.55612200  0.61145900  1
  Sr  Sr4  1  0.19256700  0.44679400  0.39316200  1
  Sr  Sr5  1  0.18967500  0.43451800  0.88234200  1
  Sr  Sr6  1  0.69437200  0.44432700  0.39311600  1
  Sr  Sr7  1  0.70124300  0.94718700  0.39126800  1
  Sr  Sr8  1  0.69262300  0.94060500  0.88384500  1
  Sr  Sr9  1  0.05376800  0.30487100  0.60880200  1
  Sr  Sr10  1  0.05104900  0.80431200  0.60949500  1
  Sr  Sr11  1  0.56001200  0.30479100  0.61065900  1
  Sr  Sr12  1  0.55274800  0.79929500  0.60929500  1
  Sr  Sr13  1  0.44560300  0.19349900  0.39053900  1
  Sr  Sr14  1  0.43559900  0.19040700  0.88318700  1
  Sr  Sr15  1  0.44033700  0.69425500  0.39191300  1
  Sr  Sr16  1  0.44393000  0.69437700  0.88363800  1
  Sr  Sr17  1  0.94930900  0.19609900  0.39312500  1
  Sr  Sr18  1  0.94568000  0.19176500  0.88480400  1
  Sr  Sr19  1  0.94526400  0.69896900  0.39415500  1
  Co  Co0  1  0.99231900  0.00172000  0.99423000  1
  Co  Co1  1  0.99435900  0.48627000  0.98274900  1
  Co  Co2  1  0.48778400  0.99403400  0.98301500  1
  Co  Co3  1  0.50105500  0.00032100  0.50208300  1
  Co  Co4  1  0.48716900  0.49199700  0.98491500  1
  Co  Co5  1  0.49683300  0.49575500  0.49755200  1
  Co  Co6  1  0.23937600  0.73823100  0.98192700  1
  Co  Co7  1  0.24994100  0.75326000  0.50339500  1
  Co  Co8  1  0.73836900  0.23985400  0.98313400  1
  Co  Co9  1  0.75279000  0.24982000  0.50079500  1
  Co  Co10  1  0.74320600  0.74792100  0.99427500  1
  Co  Co11  1  0.74867300  0.74966200  0.49752100  1
  Cu  Cu0  1  0.00239400  0.00401400  0.50499700  1
  Cu  Cu1  1  0.00143800  0.50185800  0.50335100  1
  Cu  Cu2  1  0.24464300  0.24456700  0.98985000  1
  Cu  Cu3  1  0.25369500  0.25362000  0.50380500  1
  Cu  Cu4  1  0.12114400  0.11209300  0.25200800  1
  Cu  Cu5  1  0.11224100  0.10067800  0.74392000  1
  Cu  Cu6  1  0.12258600  0.60722400  0.26072100  1
  Cu  Cu7  1  0.11782700  0.59183800  0.74312200  1
  Cu  Cu8  1  0.62633200  0.11294100  0.26016500  1
  Cu  Cu9  1  0.61209600  0.09227100  0.74474400  1
  Cu  Cu10  1  0.62240200  0.60956300  0.26118900  1
  Cu  Cu11  1  0.60995400  0.60503800  0.74617900  1
  Cu  Cu12  1  0.37233600  0.39874000  0.26009600  1
  Cu  Cu13  1  0.36135200  0.39826900  0.74785400  1
  Cu  Cu14  1  0.37710100  0.89894100  0.26031800  1
  Cu  Cu15  1  0.36657200  0.89893900  0.74464200  1
  Cu  Cu16  1  0.87211900  0.40389900  0.26279300  1
  Cu  Cu17  1  0.86725300  0.39084300  0.74283400  1
  Cu  Cu18  1  0.86863600  0.89552300  0.25305000  1
  Cu  Cu19  1  0.85726200  0.90327700  0.74698100  1
  O  O0  1  0.12473600  0.13061200  0.50023800  1
  O  O1  1  0.11051900  0.11525400  0.99436500  1
  O  O2  1  0.12812700  0.63351600  0.49849700  1
  O  O3  1  0.10683700  0.61108100  0.98948300  1
  O  O4  1  0.63027700  0.12718700  0.49578600  1
  O  O5  1  0.61197000  0.10825100  0.98952500  1
  O  O6  1  0.61295600  0.61706900  0.49638800  1
  O  O7  1  0.60645700  0.61308000  0.99256700  1
  O  O8  1  0.12290000  0.36760500  0.99441200  1
  O  O9  1  0.13016600  0.37776000  0.50601400  1
  O  O10  1  0.13316900  0.86038000  0.99594800  1
  O  O11  1  0.12572900  0.88035000  0.51009600  1
  O  O12  1  0.62816200  0.35821400  0.99488700  1
  O  O13  1  0.62525500  0.37848900  0.50786100  1
  O  O14  1  0.63149100  0.86270300  0.99684400  1
  O  O15  1  0.62501000  0.87487900  0.50616400  1
  O  O16  1  0.38423100  0.12014700  0.49992400  1
  O  O17  1  0.36834600  0.12240600  0.99029600  1
  O  O18  1  0.37228200  0.61685400  0.49514900  1
  O  O19  1  0.35723300  0.62635800  0.99038400  1
  O  O20  1  0.87379100  0.12134900  0.49434700  1
  O  O21  1  0.86058400  0.13314800  0.99447800  1
  O  O22  1  0.86330800  0.62863800  0.49981800  1
  O  O23  1  0.85556300  0.63223400  0.99192300  1
  O  O24  1  0.37928900  0.38160100  0.99740600  1
  O  O25  1  0.38501200  0.38105400  0.50600000  1
  O  O26  1  0.38380200  0.87806700  0.99402900  1
  O  O27  1  0.37360400  0.87208400  0.50797800  1
  O  O28  1  0.87752300  0.38361500  0.99397400  1
  O  O29  1  0.87000100  0.37562500  0.50834300  1
  O  O30  1  0.87856400  0.88560500  0.99810800  1
  O  O31  1  0.87495700  0.87911700  0.50703000  1
  O  O32  1  0.06738800  0.08358100  0.13871500  1
  O  O33  1  0.06607300  0.08929400  0.63493100  1
  O  O34  1  0.07569400  0.58838900  0.15065000  1
  O  O35  1  0.08005400  0.58663000  0.63406000  1
  O  O36  1  0.57598400  0.08809300  0.14954600  1
  O  O37  1  0.57926500  0.08441000  0.63610800  1
  O  O38  1  0.57664800  0.58694800  0.15051700  1
  O  O39  1  0.56837500  0.58867200  0.63698900  1
  O  O40  1  0.44378800  0.40847400  0.36865600  1
  O  O41  1  0.42725900  0.41064000  0.86033400  1
  O  O42  1  0.44213700  0.91275300  0.37029500  1
  O  O43  1  0.43797700  0.91217700  0.85628200  1
  O  O44  1  0.94086500  0.41692400  0.37306600  1
  O  O45  1  0.93675700  0.40770900  0.85502900  1
  O  O46  1  0.92769000  0.90388700  0.36142400  1
  O  O47  1  0.92373100  0.92872000  0.86121100  1
  O  O48  1  0.32473700  0.31288200  0.14939300  1
  O  O49  1  0.32806500  0.30706000  0.63829600  1
  O  O50  1  0.32804000  0.80845800  0.15002400  1
  O  O51  1  0.32998600  0.79715900  0.63652100  1
  O  O52  1  0.82703100  0.31449000  0.15240100  1
  O  O53  1  0.82146700  0.29215200  0.63411300  1
  O  O54  1  0.82073200  0.80950800  0.14019900  1
  O  O55  1  0.82288200  0.80130900  0.63902700  1
  O  O56  1  0.18969100  0.20581700  0.36185400  1
  O  O57  1  0.18294300  0.19137500  0.85531800  1
  O  O58  1  0.19174600  0.69989200  0.37089800  1
  O  O59  1  0.18819200  0.68573800  0.85602100  1
  O  O60  1  0.69424800  0.20907400  0.36974600  1
  O  O61  1  0.68861000  0.18473300  0.85796000  1
  O  O62  1  0.69152200  0.70701100  0.37163600  1
  O  O63  1  0.67432800  0.69834800  0.85868400  1
  O  O64  1  0.48020300  0.03997600  0.26376200  1
  O  O65  1  0.45152700  0.05540600  0.74625600  1
  O  O66  1  0.47256500  0.54282700  0.26425400  1
  O  O67  1  0.45457900  0.54514700  0.74938800  1
  O  O68  1  0.98189200  0.03539600  0.26382300  1
  O  O69  1  0.95542100  0.04806600  0.74805500  1
  O  O70  1  0.97114100  0.54623800  0.26437200  1
  O  O71  1  0.95856300  0.53018800  0.73509300  1
  O  O72  1  0.22398100  0.46948700  0.26404600  1
  O  O73  1  0.20091700  0.43877900  0.74575300  1
  O  O74  1  0.23360200  0.98513100  0.25209400  1
  O  O75  1  0.20844400  0.95911700  0.73566100  1
  O  O76  1  0.72201600  0.47034500  0.26484000  1
  O  O77  1  0.71660600  0.46990100  0.73841100  1
  O  O78  1  0.72647100  0.97563900  0.26111000  1
  O  O79  1  0.69552400  0.94083300  0.74491000  1
loop_
_geom_bond_atom_site_label_1
_geom_bond_atom_site_label_2
_geom_bond_distance
_geom_bond_site_symmetry_2
Ba0 O48 2.745768 1_555
Ba0 O64 2.783654 1_555
Ba0 O10 2.808541 1_544
Ba0 O26 2.849112 1_544
Ba0 O36 2.854930 1_555
Ba0 O32 2.866409 1_555
Ba0 O17 2.888104 1_554
Ba0 O1 2.894942 1_554
Ba0 O50 2.982261 1_545
Ba0 O74 3.098650 1_545
Ba1 O50 2.710375 1_555
Ba1 O66 2.755469 1_555
Ba1 O24 2.782833 1_554
Ba1 O8 2.803889 1_554
Ba1 O34 2.823787 1_555
Ba1 O19 2.883335 1_554
Ba1 O38 2.903750 1_555
Ba1 O48 2.912785 1_555
Ba1 O3 2.934788 1_554
Ba2 O52 2.719235 1_555
Ba2 O36 2.793449 1_555
Ba2 O30 2.797912 1_544
Ba2 O14 2.813483 1_544
Ba2 O68 2.816650 1_555
Ba2 O32 2.843695 1_655
Ba2 O21 2.872012 1_554
Ba2 O5 2.886759 1_554
Ba2 O54 2.920300 1_545
Ba3 O54 2.743934 1_555
Ba3 O70 2.747561 1_555
Ba3 O28 2.792449 1_554
Ba3 O38 2.824052 1_555
Ba3 O12 2.827561 1_554
Ba3 O23 2.864877 1_554
Ba3 O34 2.884153 1_655
Ba3 O7 2.905905 1_554
Ba3 O52 2.931424 1_555
Ba4 O58 2.709666 1_555
Ba4 O0 2.712772 1_565
Ba4 O74 2.736234 1_555
Ba4 O16 2.770168 1_565
Ba4 O46 2.812218 1_455
Ba4 O11 2.871524 1_555
Ba4 O27 2.919411 1_555
Ba4 O42 2.980565 1_555
Ba4 O68 3.026279 1_465
Ba4 O56 3.028789 1_565
Ba5 O75 2.687664 1_555
Ba5 O17 2.716579 1_565
Ba5 O1 2.762541 1_565
Ba5 O59 2.769505 1_555
Ba5 O10 2.801724 1_555
Ba5 O26 2.848748 1_555
Ba5 O47 2.852969 1_455
Ba5 O57 2.925982 1_565
Ba5 O43 2.979996 1_555
Ba6 O77 2.708353 1_555
Ba6 O61 2.752444 1_555
Ba6 O23 2.758052 1_555
Ba6 O7 2.790531 1_555
Ba6 O28 2.792705 1_555
Ba6 O41 2.806582 1_555
Ba6 O12 2.825385 1_555
Ba6 O45 2.980022 1_555
Ba6 O63 3.007879 1_555
Ba7 O32 2.725695 1_555
Ba7 O72 2.738944 1_555
Ba7 O8 2.765244 1_554
Ba7 O28 2.833507 1_454
Ba7 O1 2.845654 1_554
Ba7 O52 2.849785 1_455
Ba7 O21 2.856117 1_454
Ba7 O48 2.865551 1_555
Ba7 O34 2.915151 1_555
Ba8 O34 2.717963 1_555
Ba8 O74 2.765001 1_555
Ba8 O10 2.767294 1_554
Ba8 O30 2.819516 1_454
Ba8 O54 2.837229 1_455
Ba8 O3 2.858365 1_554
Ba8 O23 2.881268 1_454
Ba8 O50 2.884347 1_555
Ba8 O32 2.956349 1_565
Ba9 O36 2.705422 1_555
Ba9 O76 2.759478 1_555
Ba9 O12 2.783533 1_554
Ba9 O24 2.800035 1_554
Ba9 O48 2.826237 1_555
Ba9 O17 2.865039 1_554
Ba9 O52 2.895736 1_555
Ba9 O5 2.933979 1_554
Ba9 O38 2.954214 1_555
Ba10 O38 2.738725 1_555
Ba10 O78 2.755765 1_555
Ba10 O50 2.774492 1_555
Ba10 O26 2.788904 1_554
Ba10 O14 2.807669 1_554
Ba10 O7 2.870958 1_554
Ba10 O54 2.883150 1_555
Ba10 O19 2.911853 1_554
Ba10 O36 2.952860 1_565
Ba11 O71 2.683555 1_555
Ba11 O47 2.761835 1_555
Ba11 O23 2.762732 1_555
Ba11 O3 2.775042 1_655
Ba11 O63 2.806344 1_555
Ba11 O10 2.835898 1_655
Ba11 O30 2.844512 1_555
Ba11 O59 3.004262 1_655
Ba11 O45 3.050686 1_555
Ba11 O77 3.200716 1_555
Co0 O1 1.825601 1_655
Co0 O30 1.843092 1_545
Co0 O21 2.092751 1_555
Co0 O47 2.164203 1_545
Co0 O10 2.244244 1_645
Co0 O32 2.351939 1_656
Co1 O3 1.822347 1_655
Co1 O28 1.831181 1_555
Co1 O8 1.975227 1_655
Co1 O45 2.084233 1_555
Co1 O23 2.269288 1_555
Co1 O34 2.737583 1_656
Co2 O26 1.830927 1_555
Co2 O5 1.832506 1_565
Co2 O17 1.974008 1_565
Co2 O43 2.076385 1_555
Co2 O14 2.198998 1_555
Co2 O36 2.710993 1_566
Co3 O16 1.882536 1_555
Co3 O15 1.984763 1_545
Co3 O27 2.063554 1_545
Co3 O4 2.070361 1_555
Co3 O42 2.157711 1_545
Co3 O37 2.191052 1_555
Co4 O24 1.829838 1_555
Co4 O7 1.838100 1_555
Co4 O41 2.036839 1_555
Co4 O19 2.103551 1_555
Co4 O12 2.191337 1_555
Co4 O38 2.697091 1_556
Co5 O25 1.856759 1_555
Co5 O6 1.880612 1_555
Co5 O18 1.953963 1_555
Co5 O13 1.961226 1_555
Co5 O40 2.114965 1_555
Co5 O39 2.281869 1_555
Co6 O10 1.829862 1_555
Co6 O19 1.832251 1_555
Co6 O59 2.054754 1_555
Co6 O3 2.110157 1_555
Co6 O26 2.154176 1_555
Co6 O50 2.738382 1_556
Co7 O2 1.866790 1_555
Co7 O27 1.876791 1_555
Co7 O11 2.001575 1_555
Co7 O18 2.062096 1_555
Co7 O58 2.161120 1_555
Co7 O51 2.185231 1_555
Co8 O12 1.827699 1_555
Co8 O21 1.830453 1_555
Co8 O61 2.042027 1_555
Co8 O5 2.086313 1_555
Co8 O28 2.151411 1_555
Co9 O29 1.860564 1_555
Co9 O4 1.894094 1_555
Co9 O20 1.986454 1_555
Co9 O13 2.041196 1_555
Co9 O60 2.150327 1_555
Co9 O53 2.185193 1_555
Co10 O14 1.801565 1_555
Co10 O23 1.813787 1_555
Co10 O30 2.122357 1_555
Co10 O7 2.127045 1_555
Co10 O63 2.214383 1_555
Co10 O54 2.376918 1_556
Co11 O22 1.875395 1_555
Co11 O31 1.946565 1_555
Co11 O15 1.984953 1_555
Co11 O62 2.060556 1_555
Co11 O6 2.105761 1_555
Co11 O55 2.311415 1_555
Cu0 O20 1.963683 1_455
Cu0 O11 1.966342 1_545
Cu0 O0 2.000856 1_555
Cu0 O31 2.004941 1_445
Cu0 O33 2.124726 1_555
Cu0 O46 2.355800 1_445
Cu1 O9 2.011183 1_555
Cu1 O29 2.072026 1_455
Cu1 O2 2.075804 1_555
Cu1 O22 2.108653 1_455
Cu1 O44 2.130358 1_455
Cu1 O35 2.141371 1_555
Cu2 O8 1.948138 1_555
Cu2 O17 1.955245 1_555
Cu2 O24 2.084997 1_555
Cu2 O1 2.113318 1_555
Cu2 O57 2.194108 1_555
Cu2 O48 2.597500 1_556
Cu3 O0 1.959096 1_555
Cu3 O9 1.969888 1_555
Cu3 O25 2.022415 1_555
Cu3 O16 2.100359 1_555
Cu3 O49 2.194035 1_555
Cu3 O56 2.324047 1_555
Cu4 O56 1.843708 1_555
Cu4 O32 1.869306 1_555
Cu4 O68 1.874352 1_455
Cu4 O74 1.906899 1_545
Cu5 O33 1.838994 1_555
Cu5 O57 1.860160 1_555
Cu5 O69 1.880269 1_455
Cu5 O75 1.916498 1_545
Cu6 O34 1.837302 1_555
Cu6 O58 1.846211 1_555
Cu6 O70 1.852254 1_455
Cu6 O72 1.926663 1_555
Cu7 O71 1.856177 1_455
Cu7 O35 1.866342 1_555
Cu7 O59 1.888723 1_555
Cu7 O73 1.961299 1_555
Cu8 O36 1.831636 1_555
Cu8 O60 1.845934 1_555
Cu8 O64 1.852064 1_555
Cu8 O78 1.910726 1_545
Cu9 O65 1.854537 1_555
Cu9 O37 1.856479 1_555
Cu9 O61 1.896578 1_555
Cu9 O79 1.941230 1_545
Cu10 O38 1.839509 1_555
Cu10 O66 1.855962 1_555
Cu10 O62 1.862675 1_555
Cu10 O76 1.929149 1_555
Cu11 O39 1.831893 1_555
Cu11 O63 1.877323 1_555
Cu11 O67 1.885318 1_555
Cu11 O77 1.932928 1_555
Cu12 O48 1.833812 1_555
Cu12 O40 1.845260 1_555
Cu12 O72 1.860710 1_555
Cu12 O66 1.924078 1_555
Cu13 O49 1.843012 1_555
Cu13 O73 1.851921 1_555
Cu13 O41 1.897423 1_555
Cu13 O67 1.926176 1_555
Cu14 O50 1.837275 1_555
Cu14 O42 1.850729 1_555
Cu14 O74 1.873636 1_555
Cu14 O64 1.920090 1_565
Cu15 O51 1.847350 1_555
Cu15 O75 1.880905 1_555
Cu15 O43 1.885760 1_555
Cu15 O65 1.971291 1_565
Cu16 O52 1.838457 1_555
Cu16 O76 1.852696 1_555
Cu16 O44 1.860999 1_555
Cu16 O70 1.919400 1_555
Cu17 O53 1.838054 1_555
Cu17 O45 1.883147 1_555
Cu17 O77 1.905439 1_555
Cu17 O71 1.919626 1_555
Cu18 O46 1.836542 1_555
Cu18 O78 1.858660 1_555
Cu18 O54 1.866691 1_555
Cu18 O68 1.928568 1_565
Cu19 O55 1.848366 1_555
Cu19 O79 1.857961 1_555
Cu19 O47 1.894357 1_555
Cu19 O69 1.940280 1_565
O0 Sr17 2.591201 1_455
O0 Sr9 2.628971 1_555
O0 Sr0 2.663458 1_555
O1 Sr18 2.625351 1_455
O2 Sr19 2.607668 1_455
O2 Sr4 2.632181 1_555
O2 Sr10 2.674586 1_555
O2 Sr1 2.757091 1_555
O3 Sr5 2.700524 1_555
O4 Sr7 2.619544 1_545
O4 Sr13 2.633378 1_555
O4 Sr11 2.714404 1_555
O4 Sr2 2.722426 1_555
O5 Sr8 2.620286 1_545
O5 Sr14 2.689623 1_555
O6 Sr15 2.616440 1_555
O6 Sr6 2.627802 1_555
O6 Sr12 2.661003 1_555
O6 Sr3 2.700940 1_555
O7 Sr16 2.636414 1_555
O8 Sr18 2.618664 1_455
O8 Sr5 2.659168 1_555
O9 Sr9 2.596212 1_555
O9 Sr1 2.604604 1_555
O9 Sr4 2.659910 1_555
O9 Sr17 2.690557 1_455
O11 Sr10 2.548913 1_555
O11 Sr0 2.575624 1_565
O11 Sr19 2.703543 1_455
O12 Sr14 2.679930 1_555
O13 Sr11 2.535062 1_555
O13 Sr3 2.564027 1_555
O13 Sr6 2.711801 1_555
O13 Sr13 2.727384 1_555
O14 Sr16 2.659409 1_555
O14 Sr8 2.708628 1_555
O15 Sr12 2.593058 1_555
O15 Sr2 2.649278 1_565
O15 Sr15 2.714186 1_555
O15 Sr7 2.793052 1_555
O16 Sr13 2.621414 1_555
O16 Sr11 2.667797 1_555
O16 Sr0 2.707399 1_555
O17 Sr14 2.584717 1_555
O18 Sr4 2.563299 1_555
O18 Sr15 2.581286 1_555
O18 Sr1 2.679754 1_555
O18 Sr12 2.699571 1_555
O19 Sr5 2.653829 1_555
O19 Sr16 2.698472 1_555
O20 Sr7 2.548567 1_545
O20 Sr17 2.576150 1_555
O20 Sr9 2.704696 1_655
O20 Sr2 2.707127 1_555
O21 Sr8 2.673437 1_545
O21 Sr18 2.685896 1_555
O22 Sr6 2.607154 1_555
O22 Sr19 2.663346 1_555
O22 Sr10 2.681413 1_655
O22 Sr3 2.684951 1_555
O24 Sr5 2.694928 1_555
O24 Sr14 2.708556 1_555
O25 Sr1 2.619172 1_555
O25 Sr11 2.626732 1_555
O25 Sr13 2.722973 1_555
O25 Sr4 2.758010 1_555
O26 Sr16 2.642007 1_555
O27 Sr12 2.596080 1_555
O27 Sr0 2.656256 1_565
O27 Sr15 2.708410 1_555
O28 Sr18 2.725176 1_555
O29 Sr9 2.604997 1_655
O29 Sr3 2.623486 1_555
O29 Sr6 2.701734 1_555
O29 Sr17 2.784124 1_555
O30 Sr8 2.674484 1_555
O31 Sr2 2.549030 1_565
O31 Sr10 2.601207 1_655
O31 Sr7 2.693610 1_555
O31 Sr19 2.706604 1_555
O33 Sr9 2.589692 1_555
O33 Sr2 2.791335 1_455
O33 Sr0 2.802039 1_555
O33 Sr10 3.069006 1_545
O35 Sr10 2.608753 1_555
O35 Sr1 2.727734 1_555
O35 Sr9 3.036557 1_555
O35 Sr3 3.082800 1_455
O37 Sr11 2.638879 1_555
O37 Sr2 2.757159 1_555
O37 Sr0 3.017416 1_555
O37 Sr12 3.068284 1_545
O39 Sr12 2.548458 1_555
O39 Sr3 2.744400 1_555
O39 Sr1 2.812833 1_555
O39 Sr11 3.054933 1_555
O40 Sr13 2.550231 1_555
O40 Sr6 2.714450 1_555
O40 Sr4 2.999088 1_555
O40 Sr15 3.091662 1_555
O41 Sr14 2.614779 1_555
O41 Sr5 2.816445 1_555
O41 Sr16 3.062715 1_555
O42 Sr15 2.588603 1_555
O42 Sr7 2.820742 1_555
O42 Sr13 3.042348 1_565
O43 Sr16 2.624987 1_555
O43 Sr8 2.743109 1_555
O43 Sr14 2.996491 1_565
O44 Sr17 2.599728 1_555
O44 Sr4 2.738105 1_655
O44 Sr6 2.904264 1_555
O44 Sr19 3.053392 1_555
O45 Sr18 2.624484 1_555
O45 Sr5 2.723932 1_655
O46 Sr19 2.529369 1_555
O46 Sr7 2.771613 1_555
O46 Sr17 3.129643 1_565
O47 Sr8 2.744325 1_555
O47 Sr18 2.833769 1_565
O49 Sr0 2.658200 1_555
O49 Sr11 2.795093 1_555
O49 Sr1 2.952802 1_555
O49 Sr9 2.956317 1_555
O51 Sr1 2.602368 1_555
O51 Sr12 2.692425 1_555
O51 Sr10 3.021533 1_555
O51 Sr0 3.106316 1_565
O53 Sr2 2.546611 1_555
O53 Sr9 2.790406 1_655
O53 Sr11 2.843564 1_555
O53 Sr3 3.102990 1_555
O55 Sr3 2.625789 1_555
O55 Sr10 2.772412 1_655
O55 Sr12 2.909813 1_555
O55 Sr2 3.032810 1_565
O56 Sr4 2.572856 1_555
O56 Sr13 2.769356 1_555
O56 Sr17 2.927737 1_455
O57 Sr5 2.603984 1_555
O57 Sr14 2.723446 1_555
O57 Sr18 2.870290 1_455
O58 Sr15 2.700943 1_555
O58 Sr19 2.922153 1_455
O58 Sr4 2.975480 1_555
O59 Sr16 2.752785 1_555
O59 Sr5 2.986445 1_555
O60 Sr6 2.530384 1_555
O60 Sr17 2.773440 1_555
O60 Sr13 2.937309 1_555
O60 Sr7 3.066143 1_545
O61 Sr18 2.770225 1_555
O61 Sr8 2.903742 1_545
O61 Sr14 3.008124 1_555
O62 Sr7 2.592839 1_555
O62 Sr19 2.755827 1_555
O62 Sr15 2.958815 1_555
O62 Sr6 3.075237 1_555
O63 Sr8 2.598020 1_555
O63 Sr16 2.759029 1_555
O64 Sr13 2.546197 1_555
O64 Sr7 3.246829 1_545
O65 Sr0 2.530387 1_555
O65 Sr14 2.532081 1_555
O66 Sr15 2.537368 1_555
O67 Sr16 2.524752 1_555
O67 Sr1 2.572069 1_555
O68 Sr17 2.602645 1_555
O69 Sr18 2.534945 1_555
O69 Sr2 2.562006 1_555
O70 Sr19 2.542204 1_555
O71 Sr3 2.509369 1_555
O72 Sr4 2.549032 1_555
O72 Sr15 3.227909 1_555
O73 Sr9 2.502265 1_555
O73 Sr5 2.524358 1_555
O74 Sr13 3.163078 1_565
O75 Sr10 2.521637 1_555
O75 Sr0 3.221232 1_565
O76 Sr6 2.531060 1_555
O77 Sr11 2.579623 1_555
O77 Sr3 3.097623 1_555
O78 Sr7 2.564812 1_555
O78 Sr17 3.259767 1_565
O79 Sr12 2.497204 1_555
O79 Sr8 2.521375 1_555
