# generated using pymatgen
data_V2Ni(H4O5)2
_symmetry_space_group_name_H-M   'P 1'
_cell_length_a   8.35476278
_cell_length_b   8.39284148
_cell_length_c   7.12734134
_cell_angle_alpha   71.88934887
_cell_angle_beta   107.94014031
_cell_angle_gamma   103.39591447
_symmetry_Int_Tables_number   1
_chemical_formula_structural   V2Ni(H4O5)2
_chemical_formula_sum   'V4 Ni2 H16 O20'
_cell_volume   446.78024531
_cell_formula_units_Z   2
loop_
 _symmetry_equiv_pos_site_id
 _symmetry_equiv_pos_as_xyz
  1  'x, y, z'
loop_
 _atom_site_type_symbol
 _atom_site_label
 _atom_site_symmetry_multiplicity
 _atom_site_fract_x
 _atom_site_fract_y
 _atom_site_fract_z
 _atom_site_occupancy
  V  V0  1  0.13452800  0.93018300  0.69306700  1
  V  V1  1  0.93566800  0.14469600  0.80626600  1
  V  V2  1  0.86547200  0.06981700  0.30693300  1
  V  V3  1  0.06433200  0.85530400  0.19373400  1
  Ni  Ni0  1  0.00000000  0.50000000  0.00000000  1
  Ni  Ni1  1  0.50000000  0.00000000  0.50000000  1
  H  H0  1  0.57058500  0.36059900  0.81617400  1
  H  H1  1  0.35437400  0.57105900  0.67782600  1
  H  H2  1  0.42941500  0.63940100  0.18382600  1
  H  H3  1  0.64562600  0.42894100  0.32217400  1
  H  H4  1  0.25791600  0.66841600  0.83675600  1
  H  H5  1  0.64888600  0.23660400  0.67512800  1
  H  H6  1  0.74208400  0.33158400  0.16324400  1
  H  H7  1  0.35111400  0.76339600  0.32487200  1
  H  H8  1  0.42503700  0.13089600  0.08473400  1
  H  H9  1  0.13752500  0.46009200  0.40178500  1
  H  H10  1  0.57496300  0.86910400  0.91526600  1
  H  H11  1  0.86247500  0.53990800  0.59821500  1
  H  H12  1  0.69921300  0.50255000  0.26688100  1
  H  H13  1  0.50338400  0.69842800  0.22889100  1
  H  H14  1  0.30078700  0.49745000  0.73311900  1
  H  H15  1  0.49661600  0.30157200  0.77110900  1
  O  O0  1  0.10220200  0.97865300  0.91880500  1
  O  O1  1  0.98290000  0.10931900  0.56324500  1
  O  O2  1  0.89779800  0.02134700  0.08119500  1
  O  O3  1  0.01710000  0.89068100  0.43675500  1
  O  O4  1  0.01088100  0.34401100  0.82236000  1
  O  O5  1  0.32939800  0.01136600  0.67555000  1
  O  O6  1  0.98911900  0.65598900  0.17764000  1
  O  O7  1  0.67060200  0.98863400  0.32445000  1
  O  O8  1  0.84962400  0.29666900  0.17256300  1
  O  O9  1  0.30463500  0.85689300  0.33411300  1
  O  O10  1  0.15037600  0.70333100  0.82743700  1
  O  O11  1  0.69536500  0.14310700  0.66588700  1
  O  O12  1  0.42325900  0.21013900  0.30721800  1
  O  O13  1  0.20991800  0.42429700  0.19085900  1
  O  O14  1  0.57674100  0.78986100  0.69278200  1
  O  O15  1  0.79008200  0.57570300  0.80914100  1
  O  O16  1  0.55365000  0.75597900  0.88979800  1
  O  O17  1  0.75646000  0.56530800  0.60788300  1
  O  O18  1  0.44635000  0.24402100  0.11020200  1
  O  O19  1  0.24354000  0.43469200  0.39211700  1
loop_
_geom_bond_atom_site_label_1
_geom_bond_atom_site_label_2
_geom_bond_distance
_geom_bond_site_symmetry_2
Ni0 O13 1.959406 1_555
Ni0 O15 1.959406 1_454
Ni0 O4 2.117033 1_554
Ni0 O6 2.117033 1_455
Ni0 O8 2.157995 1_455
Ni0 O10 2.157995 1_554
Ni1 O14 1.970832 1_545
Ni1 O12 1.970832 1_555
Ni1 O9 2.071299 1_545
Ni1 O11 2.071299 1_555
Ni1 O5 2.200469 1_555
Ni1 O7 2.200469 1_545
H0 H15 0.751858 1_555
H1 H14 0.752717 1_555
H4 O10 0.985222 1_555
H5 O11 0.979783 1_555
H6 O8 0.985222 1_555
H7 O9 0.979783 1_555
H8 O18 0.987416 1_555
H9 O19 0.984344 1_555
H10 O16 0.987416 1_555
H11 O17 0.984344 1_555
H12 H3 0.752717 1_555
H13 H2 0.751858 1_555
O0 V0 1.884817 1_555
O0 V3 1.995124 1_556
O0 V1 2.009291 1_465
O1 V2 1.879210 1_555
O1 V0 2.004220 1_645
O1 V1 2.009756 1_555
O2 V2 1.884817 1_555
O2 V1 1.995124 1_554
O2 V3 2.009291 1_645
O3 V0 1.879210 1_555
O3 V2 2.004220 1_465
O3 V3 2.009756 1_555
O4 V1 1.671578 1_455
O5 V0 1.639770 1_545
O6 V3 1.671578 1_655
O7 V2 1.639770 1_565
O8 V2 1.861385 1_555
O9 V3 1.946897 1_555
O10 V0 1.861385 1_555
O11 V1 1.946897 1_555
O12 O18 1.408217 1_555
O13 O19 1.400835 1_555
O14 O16 1.408217 1_555
O15 O17 1.400835 1_555
