# generated using pymatgen
data_Li7Mn2(CoO4)3
_symmetry_space_group_name_H-M   'P 1'
_cell_length_a   7.82805322
_cell_length_b   7.82805322
_cell_length_c   9.82263635
_cell_angle_alpha   80.60229927
_cell_angle_beta   80.60229927
_cell_angle_gamma   21.24278882
_symmetry_Int_Tables_number   1
_chemical_formula_structural   Li7Mn2(CoO4)3
_chemical_formula_sum   'Li7 Mn2 Co3 O12'
_cell_volume   215.05584206
_cell_formula_units_Z   1
loop_
 _symmetry_equiv_pos_site_id
 _symmetry_equiv_pos_as_xyz
  1  'x, y, z'
loop_
 _atom_site_type_symbol
 _atom_site_label
 _atom_site_symmetry_multiplicity
 _atom_site_fract_x
 _atom_site_fract_y
 _atom_site_fract_z
 _atom_site_occupancy
  Li  Li0  1  0.59306300  0.59306300  0.73275400  1
  Li  Li1  1  0.73828000  0.73828000  0.27101600  1
  Li  Li2  1  0.91563200  0.91563200  0.74048900  1
  Li  Li3  1  0.25493400  0.25493400  0.74413000  1
  Li  Li4  1  0.41335800  0.41335800  0.25651700  1
  Li  Li5  1  0.08581700  0.08581700  0.26179000  1
  Li  Li6  1  0.16566000  0.16566000  0.49805400  1
  Mn  Mn0  1  0.00003200  0.00003200  0.99928300  1
  Mn  Mn1  1  0.50388500  0.50388500  0.49469500  1
  Co  Co0  1  0.33033300  0.33033300  0.99971100  1
  Co  Co1  1  0.66858900  0.66858900  0.00112400  1
  Co  Co2  1  0.82087100  0.82087100  0.50707500  1
  O  O0  1  0.46316900  0.46316900  0.88853200  1
  O  O1  1  0.61404500  0.61404500  0.38391800  1
  O  O2  1  0.79688000  0.79688000  0.87946100  1
  O  O3  1  0.11871600  0.11871600  0.89299900  1
  O  O4  1  0.29608800  0.29608800  0.38311200  1
  O  O5  1  0.96166100  0.96166100  0.38855500  1
  O  O6  1  0.71698300  0.71698300  0.62373300  1
  O  O7  1  0.88195800  0.88195800  0.10835700  1
  O  O8  1  0.03568600  0.03568600  0.61200200  1
  O  O9  1  0.38052600  0.38052600  0.60499300  1
  O  O10  1  0.53393000  0.53393000  0.11161200  1
  O  O11  1  0.20990500  0.20990500  0.11608900  1
loop_
_geom_bond_atom_site_label_1
_geom_bond_atom_site_label_2
_geom_bond_distance
_geom_bond_site_symmetry_2
Li0 O6 2.025935 1_555
Li0 O8 2.148523 1_655
Li0 O8 2.148523 1_565
Li0 O3 2.218483 1_565
Li0 O3 2.218483 1_655
Li0 O0 2.306580 1_555
Li1 O1 2.044525 1_555
Li1 O4 2.100220 1_565
Li1 O4 2.100220 1_655
Li1 O11 2.192966 1_655
Li1 O11 2.192966 1_565
Li1 O7 2.503424 1_555
Li2 O8 2.056928 1_665
Li2 O2 2.091356 1_555
Li2 O9 2.093779 1_565
Li2 O9 2.093779 1_655
Li2 O0 2.254986 1_565
Li2 O0 2.254986 1_655
Li3 O6 2.012689 1_455
Li3 O6 2.012689 1_545
Li3 O2 2.133212 1_545
Li3 O2 2.133212 1_455
Li3 O9 2.173744 1_555
Li3 O3 2.348085 1_555
Li4 O4 2.014212 1_555
Li4 O10 2.142611 1_555
Li4 O5 2.153301 1_545
Li4 O5 2.153301 1_455
Li4 O7 2.160299 1_545
Li4 O7 2.160299 1_455
Li5 O1 1.970463 1_455
Li5 O1 1.970463 1_545
Li5 O5 2.100003 1_445
Li5 O11 2.187748 1_555
Li5 O10 2.299285 1_545
Li5 O10 2.299285 1_455
Li6 O1 2.065289 1_545
Li6 O1 2.065289 1_455
Li6 O8 2.123454 1_555
Li6 O4 2.133048 1_555
Li6 O6 2.133885 1_545
Li6 O6 2.133885 1_455
Mn0 O10 1.939732 1_546
Mn0 O10 1.939732 1_456
Mn0 O3 1.947242 1_555
Mn0 O0 1.947327 1_455
Mn0 O0 1.947327 1_545
Mn0 O7 1.949933 1_446
Mn1 O1 1.855963 1_555
Mn1 O5 1.953465 1_545
Mn1 O5 1.953465 1_455
Mn1 O8 1.958661 1_655
Mn1 O8 1.958661 1_565
Mn1 O9 2.023301 1_555
Co0 O2 1.985954 1_545
Co0 O2 1.985954 1_455
Co0 O11 2.009226 1_556
Co0 O7 2.033096 1_456
Co0 O7 2.033096 1_546
Co0 O0 2.151536 1_555
Co1 O11 1.999950 1_655
Co1 O11 1.999950 1_565
Co1 O3 2.017327 1_654
Co1 O3 2.017327 1_564
Co1 O2 2.131066 1_554
Co1 O10 2.173543 1_555
Co2 O6 1.805540 1_555
Co2 O4 1.965759 1_655
Co2 O4 1.965759 1_565
Co2 O9 2.035418 1_565
Co2 O9 2.035418 1_655
Co2 O5 2.282724 1_555
