# generated using pymatgen
data_Mn3Al(SiO4)3
_symmetry_space_group_name_H-M   'P 1'
_cell_length_a   10.09073921
_cell_length_b   10.09073921
_cell_length_c   10.09073921
_cell_angle_alpha   109.47122063
_cell_angle_beta   109.47122063
_cell_angle_gamma   109.47122063
_symmetry_Int_Tables_number   1
_chemical_formula_structural   Mn3Al(SiO4)3
_chemical_formula_sum   'Mn12 Al4 Si12 O48'
_cell_volume   790.94640424
_cell_formula_units_Z   4
loop_
 _symmetry_equiv_pos_site_id
 _symmetry_equiv_pos_as_xyz
  1  'x, y, z'
loop_
 _atom_site_type_symbol
 _atom_site_label
 _atom_site_symmetry_multiplicity
 _atom_site_fract_x
 _atom_site_fract_y
 _atom_site_fract_z
 _atom_site_occupancy
  Mn  Mn0  1  0.39152500  0.14152500  0.25000000  1
  Mn  Mn1  1  0.75000000  0.10847500  0.35847500  1
  Mn  Mn2  1  0.25000000  0.39152500  0.14152500  1
  Mn  Mn3  1  0.35847500  0.75000000  0.10847500  1
  Mn  Mn4  1  0.10847500  0.35847500  0.75000000  1
  Mn  Mn5  1  0.14152500  0.25000000  0.39152500  1
  Mn  Mn6  1  0.64152500  0.25000000  0.89152500  1
  Mn  Mn7  1  0.25000000  0.89152500  0.64152500  1
  Mn  Mn8  1  0.60847500  0.85847500  0.75000000  1
  Mn  Mn9  1  0.89152500  0.64152500  0.25000000  1
  Mn  Mn10  1  0.85847500  0.75000000  0.60847500  1
  Mn  Mn11  1  0.75000000  0.60847500  0.85847500  1
  Al  Al0  1  0.50000000  0.00000000  0.50000000  1
  Al  Al1  1  0.00000000  0.00000000  0.00000000  1
  Al  Al2  1  0.00000000  0.50000000  0.50000000  1
  Al  Al3  1  0.50000000  0.50000000  0.00000000  1
  Si  Si0  1  0.62912800  0.37912800  0.25000000  1
  Si  Si1  1  0.87087200  0.12087200  0.75000000  1
  Si  Si2  1  0.25000000  0.62912800  0.37912800  1
  Si  Si3  1  0.62087200  0.75000000  0.37087200  1
  Si  Si4  1  0.37912800  0.25000000  0.62912800  1
  Si  Si5  1  0.37087200  0.62087200  0.75000000  1
  Si  Si6  1  0.25000000  0.12912800  0.87912800  1
  Si  Si7  1  0.12912800  0.87912800  0.25000000  1
  Si  Si8  1  0.75000000  0.37087200  0.62087200  1
  Si  Si9  1  0.87912800  0.25000000  0.12912800  1
  Si  Si10  1  0.75000000  0.87087200  0.12087200  1
  Si  Si11  1  0.12087200  0.75000000  0.87087200  1
  O  O0  1  0.57737800  0.89489700  0.37668500  1
  O  O1  1  0.37668500  0.57737800  0.89489700  1
  O  O2  1  0.29930800  0.31752000  0.92262200  1
  O  O3  1  0.48178800  0.60510300  0.18248000  1
  O  O4  1  0.30217200  0.89417900  0.02799900  1
  O  O5  1  0.12331500  0.01821200  0.20069200  1
  O  O6  1  0.36618000  0.27417400  0.47200100  1
  O  O7  1  0.89489700  0.37668500  0.57737800  1
  O  O8  1  0.19782800  0.22582600  0.59200700  1
  O  O9  1  0.47200100  0.36618000  0.27417400  1
  O  O10  1  0.89417900  0.02799900  0.30217200  1
  O  O11  1  0.60582100  0.90799300  0.13382000  1
  O  O12  1  0.90799300  0.13382000  0.60582100  1
  O  O13  1  0.27417400  0.47200100  0.36618000  1
  O  O14  1  0.59200700  0.19782800  0.22582600  1
  O  O15  1  0.22582600  0.59200700  0.19782800  1
  O  O16  1  0.02799900  0.30217200  0.89417900  1
  O  O17  1  0.92262200  0.29930800  0.31752000  1
  O  O18  1  0.01821200  0.20069200  0.12331500  1
  O  O19  1  0.80217200  0.77417400  0.40799300  1
  O  O20  1  0.18248000  0.48178800  0.60510300  1
  O  O21  1  0.60510300  0.18248000  0.48178800  1
  O  O22  1  0.20069200  0.12331500  0.01821200  1
  O  O23  1  0.13382000  0.60582100  0.90799300  1
  O  O24  1  0.42262200  0.10510300  0.62331500  1
  O  O25  1  0.62331500  0.42262200  0.10510300  1
  O  O26  1  0.70069200  0.68248000  0.07737800  1
  O  O27  1  0.51821200  0.39489700  0.81752000  1
  O  O28  1  0.69782800  0.10582100  0.97200100  1
  O  O29  1  0.87668500  0.98178800  0.79930800  1
  O  O30  1  0.63382000  0.72582600  0.52799900  1
  O  O31  1  0.10510300  0.62331500  0.42262200  1
  O  O32  1  0.86618000  0.39417900  0.09200700  1
  O  O33  1  0.79930800  0.87668500  0.98178800  1
  O  O34  1  0.39489700  0.81752000  0.51821200  1
  O  O35  1  0.68248000  0.07737800  0.70069200  1
  O  O36  1  0.81752000  0.51821200  0.39489700  1
  O  O37  1  0.98178800  0.79930800  0.87668500  1
  O  O38  1  0.07737800  0.70069200  0.68248000  1
  O  O39  1  0.97200100  0.69782800  0.10582100  1
  O  O40  1  0.77417400  0.40799300  0.80217200  1
  O  O41  1  0.40799300  0.80217200  0.77417400  1
  O  O42  1  0.72582600  0.52799900  0.63382000  1
  O  O43  1  0.09200700  0.86618000  0.39417900  1
  O  O44  1  0.39417900  0.09200700  0.86618000  1
  O  O45  1  0.10582100  0.97200100  0.69782800  1
  O  O46  1  0.52799900  0.63382000  0.72582600  1
  O  O47  1  0.31752000  0.92262200  0.29930800  1
loop_
_geom_bond_atom_site_label_1
_geom_bond_atom_site_label_2
_geom_bond_distance
_geom_bond_site_symmetry_2
Mn0 O9 2.032232 1_555
Mn0 O14 2.032242 1_555
Mn0 O4 2.342328 1_545
Mn0 O6 2.342331 1_555
Mn0 O5 2.359047 1_555
Mn0 O47 2.359056 1_545
Mn0 O21 2.384819 1_555
Mn0 O22 2.384819 1_555
Mn1 O10 2.032236 1_555
Mn1 O11 2.032236 1_545
Mn1 O12 2.342328 1_555
Mn1 O14 2.342332 1_555
Mn1 O21 2.359047 1_555
Mn1 O7 2.359050 1_555
Mn1 O17 2.384814 1_555
Mn1 O0 2.384814 1_545
Mn2 O13 2.032232 1_555
Mn2 O15 2.032242 1_555
Mn2 O16 2.342328 1_554
Mn2 O9 2.342331 1_555
Mn2 O22 2.359047 1_555
Mn2 O2 2.359056 1_554
Mn2 O3 2.384819 1_555
Mn2 O18 2.384819 1_555
Mn3 O4 2.032236 1_555
Mn3 O23 2.032236 1_554
Mn3 O11 2.342328 1_555
Mn3 O15 2.342332 1_555
Mn3 O3 2.359047 1_555
Mn3 O0 2.359050 1_555
Mn3 O47 2.384814 1_555
Mn3 O1 2.384814 1_554
Mn4 O16 2.032236 1_555
Mn4 O12 2.032236 1_455
Mn4 O23 2.342328 1_555
Mn4 O8 2.342332 1_555
Mn4 O20 2.359047 1_555
Mn4 O1 2.359050 1_555
Mn4 O2 2.384814 1_555
Mn4 O7 2.384814 1_455
Mn5 O6 2.032232 1_555
Mn5 O8 2.032242 1_555
Mn5 O10 2.342328 1_455
Mn5 O13 2.342331 1_555
Mn5 O18 2.359047 1_555
Mn5 O17 2.359056 1_455
Mn5 O20 2.384819 1_555
Mn5 O5 2.384819 1_555
Mn6 O32 2.032236 1_556
Mn6 O28 2.032236 1_555
Mn6 O44 2.342328 1_555
Mn6 O40 2.342332 1_555
Mn6 O27 2.359047 1_555
Mn6 O24 2.359050 1_555
Mn6 O35 2.384814 1_555
Mn6 O25 2.384814 1_556
Mn7 O44 2.032236 1_565
Mn7 O45 2.032236 1_555
Mn7 O43 2.342328 1_555
Mn7 O41 2.342332 1_555
Mn7 O34 2.359047 1_555
Mn7 O31 2.359050 1_555
Mn7 O38 2.384814 1_555
Mn7 O24 2.384814 1_565
Mn8 O46 2.032232 1_555
Mn8 O41 2.032242 1_555
Mn8 O28 2.342328 1_565
Mn8 O30 2.342331 1_555
Mn8 O29 2.359047 1_555
Mn8 O35 2.359056 1_565
Mn8 O34 2.384819 1_555
Mn8 O33 2.384819 1_555
Mn9 O43 2.032236 1_655
Mn9 O39 2.032236 1_555
Mn9 O32 2.342328 1_555
Mn9 O19 2.342332 1_555
Mn9 O36 2.359047 1_555
Mn9 O25 2.359050 1_555
Mn9 O26 2.384814 1_555
Mn9 O31 2.384814 1_655
Mn10 O30 2.032232 1_555
Mn10 O19 2.032242 1_555
Mn10 O45 2.342328 1_655
Mn10 O42 2.342331 1_555
Mn10 O37 2.359047 1_555
Mn10 O38 2.359056 1_655
Mn10 O36 2.384819 1_555
Mn10 O29 2.384819 1_555
Mn11 O42 2.032232 1_555
Mn11 O40 2.032242 1_555
Mn11 O39 2.342328 1_556
Mn11 O46 2.342331 1_555
Mn11 O33 2.359047 1_555
Mn11 O26 2.359056 1_556
Mn11 O27 2.384819 1_555
Mn11 O37 2.384819 1_555
Al0 O35 1.898097 1_555
Al0 O47 1.898097 1_545
Al0 O21 1.898099 1_555
Al0 O34 1.898099 1_545
Al0 O24 1.898108 1_555
Al0 O0 1.898108 1_545
Al1 O18 1.898099 1_555
Al1 O5 1.898099 1_555
Al1 O22 1.898099 1_555
Al1 O33 1.898099 1_444
Al1 O37 1.898099 1_444
Al1 O29 1.898099 1_444
Al2 O38 1.898097 1_555
Al2 O17 1.898097 1_455
Al2 O36 1.898099 1_455
Al2 O20 1.898099 1_555
Al2 O31 1.898108 1_555
Al2 O7 1.898108 1_455
Al3 O26 1.898097 1_555
Al3 O2 1.898097 1_554
Al3 O3 1.898099 1_555
Al3 O27 1.898099 1_554
Al3 O25 1.898108 1_555
Al3 O1 1.898108 1_554
O0 Si3 1.649739 1_555
O1 Si5 1.649739 1_555
O2 Si6 1.649747 1_555
O3 Si3 1.649745 1_555
O4 Si11 1.652707 1_554
O5 Si7 1.649745 1_545
O6 Si4 1.652712 1_555
O7 Si8 1.649739 1_555
O8 Si4 1.652704 1_555
O9 Si0 1.652712 1_555
O10 Si10 1.652707 1_545
O11 Si10 1.652707 1_555
O12 Si1 1.652707 1_555
O13 Si2 1.652712 1_555
O14 Si0 1.652704 1_555
O15 Si2 1.652704 1_555
O16 Si1 1.652707 1_455
O17 Si9 1.649747 1_555
O18 Si9 1.649745 1_455
O19 Si3 1.652704 1_555
O20 Si5 1.649745 1_555
O21 Si8 1.649745 1_555
O22 Si6 1.649745 1_554
O23 Si11 1.652707 1_555
O24 Si4 1.649739 1_555
O25 Si0 1.649739 1_555
O26 Si10 1.649747 1_555
O27 Si4 1.649745 1_555
O28 Si9 1.652707 1_556
O29 Si1 1.649745 1_565
O30 Si3 1.652712 1_555
O31 Si2 1.649739 1_555
O32 Si9 1.652707 1_555
O33 Si10 1.649745 1_556
O34 Si2 1.649745 1_555
O35 Si1 1.649747 1_555
O36 Si0 1.649745 1_555
O37 Si11 1.649745 1_655
O38 Si11 1.649747 1_555
O39 Si7 1.652707 1_655
O40 Si8 1.652704 1_555
O41 Si5 1.652704 1_555
O42 Si8 1.652712 1_555
O43 Si7 1.652707 1_555
O44 Si6 1.652707 1_555
O45 Si6 1.652707 1_565
O46 Si5 1.652712 1_555
O47 Si7 1.649747 1_555
