# generated using pymatgen
data_LiGe2(PO4)3
_symmetry_space_group_name_H-M   'P 1'
_cell_length_a   8.45855743
_cell_length_b   8.45855743
_cell_length_c   8.45855727
_cell_angle_alpha   59.17502625
_cell_angle_beta   59.17502625
_cell_angle_gamma   59.17503104
_symmetry_Int_Tables_number   1
_chemical_formula_structural   LiGe2(PO4)3
_chemical_formula_sum   'Li2 Ge4 P6 O24'
_cell_volume   419.88662181
_cell_formula_units_Z   2
loop_
 _symmetry_equiv_pos_site_id
 _symmetry_equiv_pos_as_xyz
  1  'x, y, z'
loop_
 _atom_site_type_symbol
 _atom_site_label
 _atom_site_symmetry_multiplicity
 _atom_site_fract_x
 _atom_site_fract_y
 _atom_site_fract_z
 _atom_site_occupancy
  Li  Li0  1  0.00000000  0.00000000  0.00000000  1
  Li  Li1  1  0.50000000  0.50000000  0.50000000  1
  Ge  Ge0  1  0.64211900  0.64211900  0.64211900  1
  Ge  Ge1  1  0.35788100  0.35788100  0.35788100  1
  Ge  Ge2  1  0.85862700  0.85862700  0.85862700  1
  Ge  Ge3  1  0.14137300  0.14137300  0.14137300  1
  P  P0  1  0.53827200  0.96230900  0.24943700  1
  P  P1  1  0.24943700  0.53827200  0.96230900  1
  P  P2  1  0.96230900  0.24943700  0.53827200  1
  P  P3  1  0.46172800  0.03769100  0.75056300  1
  P  P4  1  0.75056300  0.46172800  0.03769100  1
  P  P5  1  0.03769100  0.75056300  0.46172800  1
  O  O0  1  0.53487700  0.77775900  0.43714300  1
  O  O1  1  0.43714300  0.53487700  0.77775900  1
  O  O2  1  0.77775900  0.43714300  0.53487700  1
  O  O3  1  0.46512300  0.22224100  0.56285700  1
  O  O4  1  0.56285700  0.46512300  0.22224100  1
  O  O5  1  0.22224100  0.56285700  0.46512300  1
  O  O6  1  0.74230900  0.91983800  0.09031200  1
  O  O7  1  0.09031200  0.74230900  0.91983800  1
  O  O8  1  0.91983800  0.09031200  0.74230900  1
  O  O9  1  0.25769100  0.08016200  0.90968800  1
  O  O10  1  0.90968800  0.25769100  0.08016200  1
  O  O11  1  0.08016200  0.90968800  0.25769100  1
  O  O12  1  0.51564200  0.14080400  0.27508500  1
  O  O13  1  0.27508500  0.51564200  0.14080400  1
  O  O14  1  0.14080400  0.27508500  0.51564200  1
  O  O15  1  0.48435800  0.85919600  0.72491500  1
  O  O16  1  0.72491500  0.48435800  0.85919600  1
  O  O17  1  0.85919600  0.72491500  0.48435800  1
  O  O18  1  0.37584600  0.99542700  0.19257200  1
  O  O19  1  0.19257200  0.37584600  0.99542700  1
  O  O20  1  0.99542700  0.19257200  0.37584600  1
  O  O21  1  0.62415400  0.00457300  0.80742800  1
  O  O22  1  0.80742800  0.62415400  0.00457300  1
  O  O23  1  0.00457300  0.80742800  0.62415400  1
loop_
_geom_bond_atom_site_label_1
_geom_bond_atom_site_label_2
_geom_bond_distance
_geom_bond_site_symmetry_2
Li0 O6 2.252057 1_445
Li0 O9 2.252057 1_554
Li0 O8 2.252057 1_454
Li0 O11 2.252057 1_545
Li0 O7 2.252057 1_544
Li0 O10 2.252057 1_455
Li1 O4 2.271340 1_555
Li1 O1 2.271340 1_555
Li1 O0 2.271340 1_555
Li1 O3 2.271340 1_555
Li1 O5 2.271340 1_555
Li1 O2 2.271340 1_555
Ge0 O17 1.868603 1_555
Ge0 O16 1.868603 1_555
Ge0 O15 1.868604 1_555
Ge0 O1 1.910982 1_555
Ge0 O0 1.910983 1_555
Ge0 O2 1.910983 1_555
Ge1 O14 1.868603 1_555
Ge1 O13 1.868603 1_555
Ge1 O12 1.868604 1_555
Ge1 O4 1.910982 1_555
Ge1 O3 1.910983 1_555
Ge1 O5 1.910983 1_555
Ge2 O22 1.862304 1_556
Ge2 O23 1.862304 1_655
Ge2 O21 1.862304 1_565
Ge2 O8 1.902203 1_565
Ge2 O6 1.902203 1_556
Ge2 O7 1.902204 1_655
Ge3 O19 1.862304 1_554
Ge3 O20 1.862304 1_455
Ge3 O18 1.862304 1_545
Ge3 O11 1.902203 1_545
Ge3 O9 1.902203 1_554
Ge3 O10 1.902204 1_455
O0 P0 1.554888 1_555
O1 P1 1.554888 1_555
O2 P2 1.554888 1_555
O3 P3 1.554888 1_555
O4 P4 1.554888 1_555
O5 P5 1.554888 1_555
O6 P0 1.548797 1_555
O7 P1 1.548797 1_555
O8 P2 1.548797 1_555
O9 P3 1.548797 1_555
O10 P4 1.548797 1_555
O11 P5 1.548797 1_555
O12 P0 1.536286 1_545
O13 P1 1.536286 1_554
O14 P2 1.536286 1_455
O15 P3 1.536286 1_565
O16 P4 1.536286 1_556
O17 P5 1.536286 1_655
O18 P0 1.530404 1_555
O19 P1 1.530404 1_555
O20 P2 1.530404 1_555
O21 P3 1.530404 1_555
O22 P4 1.530404 1_555
O23 P5 1.530404 1_555
