# generated using pymatgen
data_Li3Fe(CuO2)4
_symmetry_space_group_name_H-M   'P 1'
_cell_length_a   5.94693041
_cell_length_b   5.94693041
_cell_length_c   5.87580042
_cell_angle_alpha   61.01413645
_cell_angle_beta   61.01413645
_cell_angle_gamma   59.79202269
_symmetry_Int_Tables_number   1
_chemical_formula_structural   Li3Fe(CuO2)4
_chemical_formula_sum   'Li3 Fe1 Cu4 O8'
_cell_volume   148.90876218
_cell_formula_units_Z   1
loop_
 _symmetry_equiv_pos_site_id
 _symmetry_equiv_pos_as_xyz
  1  'x, y, z'
loop_
 _atom_site_type_symbol
 _atom_site_label
 _atom_site_symmetry_multiplicity
 _atom_site_fract_x
 _atom_site_fract_y
 _atom_site_fract_z
 _atom_site_occupancy
  Li  Li0  1  0.00000000  0.50000000  0.50000000  1
  Li  Li1  1  0.00000000  0.00000000  0.50000000  1
  Li  Li2  1  0.50000000  0.00000000  0.50000000  1
  Fe  Fe0  1  0.50000000  0.50000000  0.00000000  1
  Cu  Cu0  1  0.50000000  0.50000000  0.50000000  1
  Cu  Cu1  1  0.00000000  0.00000000  0.00000000  1
  Cu  Cu2  1  0.00000000  0.50000000  0.00000000  1
  Cu  Cu3  1  0.50000000  0.00000000  0.00000000  1
  O  O0  1  0.74039900  0.74039900  0.77216400  1
  O  O1  1  0.72863300  0.26163200  0.74633300  1
  O  O2  1  0.26163200  0.72863300  0.74633300  1
  O  O3  1  0.22470300  0.22470300  0.78706900  1
  O  O4  1  0.77529700  0.77529700  0.21293100  1
  O  O5  1  0.73836800  0.27136700  0.25366700  1
  O  O6  1  0.27136700  0.73836800  0.25366700  1
  O  O7  1  0.25960100  0.25960100  0.22783600  1
loop_
_geom_bond_atom_site_label_1
_geom_bond_atom_site_label_2
_geom_bond_distance
_geom_bond_site_symmetry_2
Li0 O0 2.141655 1_455
Li0 O7 2.141655 1_555
Li0 O3 2.148911 1_555
Li0 O4 2.148911 1_455
Li0 O6 2.181380 1_555
Li0 O1 2.181380 1_455
Li1 O2 2.124210 1_545
Li1 O1 2.124210 1_455
Li1 O5 2.124210 1_455
Li1 O6 2.124210 1_545
Li1 O7 2.221934 1_555
Li1 O0 2.221934 1_445
Li2 O0 2.141655 1_545
Li2 O7 2.141655 1_555
Li2 O3 2.148911 1_555
Li2 O4 2.148911 1_545
Li2 O5 2.181380 1_555
Li2 O2 2.181380 1_545
Fe0 O6 2.055203 1_555
Fe0 O5 2.055203 1_555
Fe0 O1 2.055203 1_554
Fe0 O2 2.055203 1_554
Fe0 O0 2.055909 1_554
Fe0 O7 2.055909 1_555
Cu0 O1 1.983031 1_555
Cu0 O2 1.983031 1_555
Cu0 O5 1.983031 1_555
Cu0 O6 1.983031 1_555
Cu0 O4 2.355873 1_555
Cu0 O3 2.355873 1_555
Cu1 O3 1.921680 1_554
Cu1 O4 1.921680 1_445
Cu1 O6 2.191738 1_545
Cu1 O5 2.191738 1_455
Cu1 O2 2.191738 1_544
Cu1 O1 2.191738 1_454
Cu2 O7 2.036326 1_555
Cu2 O0 2.036326 1_454
Cu2 O4 2.048103 1_455
Cu2 O3 2.048103 1_554
Cu2 O2 2.099563 1_554
Cu2 O5 2.099563 1_455
Cu3 O7 2.036326 1_555
Cu3 O0 2.036326 1_544
Cu3 O4 2.048103 1_545
Cu3 O3 2.048103 1_554
Cu3 O1 2.099563 1_554
Cu3 O6 2.099563 1_545
