# generated using pymatgen
data_ZrAl3
_symmetry_space_group_name_H-M   'P 1'
_cell_length_a   3.94450385
_cell_length_b   3.94450385
_cell_length_c   5.27810074
_cell_angle_alpha   111.94195930
_cell_angle_beta   111.94195930
_cell_angle_gamma   90.00000000
_symmetry_Int_Tables_number   1
_chemical_formula_structural   ZrAl3
_chemical_formula_sum   'Zr1 Al3'
_cell_volume   69.71937332
_cell_formula_units_Z   1
loop_
 _symmetry_equiv_pos_site_id
 _symmetry_equiv_pos_as_xyz
  1  'x, y, z'
loop_
 _atom_site_type_symbol
 _atom_site_label
 _atom_site_symmetry_multiplicity
 _atom_site_fract_x
 _atom_site_fract_y
 _atom_site_fract_z
 _atom_site_occupancy
  Zr  Zr0  1  -0.00000000  0.00000000  0.00000000  1
  Al  Al0  1  0.50000000  0.50000000  0.00000000  1
  Al  Al1  1  0.25000000  0.75000000  0.50000000  1
  Al  Al2  1  0.75000000  0.25000000  0.50000000  1
loop_
_geom_bond_atom_site_label_1
_geom_bond_atom_site_label_2
_geom_bond_distance
_geom_bond_site_symmetry_2
Al0 Zr0 2.789185 1_655
Al0 Zr0 2.789185 1_665
Al0 Zr0 2.789185 1_565
Al0 Zr0 2.789185 1_555
Al0 Al2 2.984874 1_454
Al0 Al2 2.984874 1_565
Al0 Al1 2.984874 1_655
Al0 Al1 2.984874 1_544
Al0 Al2 2.984874 1_555
Al0 Al1 2.984874 1_554
Al0 Al2 2.984874 1_554
Al0 Al1 2.984874 1_555
Al1 Al2 2.789185 1_555
Al1 Al2 2.789185 1_565
Al1 Al2 2.789185 1_465
Al1 Al2 2.789185 1_455
Al1 Zr0 2.984874 1_666
Al1 Zr0 2.984874 1_555
Al1 Zr0 2.984874 1_565
Al1 Zr0 2.984874 1_566
Al2 Zr0 2.984874 1_666
Al2 Zr0 2.984874 1_555
Al2 Zr0 2.984874 1_655
Al2 Zr0 2.984874 1_656
