# generated using pymatgen
data_Li5V3P8O29
_symmetry_space_group_name_H-M   'P 1'
_cell_length_a   9.77136800
_cell_length_b   9.79133529
_cell_length_c   14.07535453
_cell_angle_alpha   89.96753098
_cell_angle_beta   89.94084944
_cell_angle_gamma   60.23315636
_symmetry_Int_Tables_number   1
_chemical_formula_structural   Li5V3P8O29
_chemical_formula_sum   'Li10 V6 P16 O58'
_cell_volume   1168.96792591
_cell_formula_units_Z   2
loop_
 _symmetry_equiv_pos_site_id
 _symmetry_equiv_pos_as_xyz
  1  'x, y, z'
loop_
 _atom_site_type_symbol
 _atom_site_label
 _atom_site_symmetry_multiplicity
 _atom_site_fract_x
 _atom_site_fract_y
 _atom_site_fract_z
 _atom_site_occupancy
  Li  Li0  1  0.68228400  0.23050800  0.94098500  1
  Li  Li1  1  0.68476200  0.08710000  0.43588500  1
  Li  Li2  1  0.23165300  0.67388100  0.43913200  1
  Li  Li3  1  0.33608900  0.33509800  0.11474000  1
  Li  Li4  1  0.08933500  0.67586400  0.93961000  1
  Li  Li5  1  0.23488700  0.08836200  0.94144600  1
  Li  Li6  1  0.09563500  0.23500200  0.43786000  1
  Li  Li7  1  0.77249700  0.31700600  0.55977200  1
  Li  Li8  1  0.31160400  0.91059700  0.55937400  1
  Li  Li9  1  0.99687700  0.99683600  0.01065400  1
  V  V0  1  0.99847500  0.56871400  0.74971600  1
  V  V1  1  0.99401400  0.43666300  0.24678200  1
  V  V2  1  0.57090600  0.99580600  0.25059400  1
  V  V3  1  0.43453100  0.00183900  0.75184600  1
  V  V4  1  0.56409000  0.43344200  0.75565800  1
  V  V5  1  0.43564800  0.56772500  0.24697900  1
  P  P0  1  0.68659700  0.22329500  0.15792500  1
  P  P1  1  0.67973600  0.08985100  0.65580200  1
  P  P2  1  0.23354100  0.67724000  0.65792500  1
  P  P3  1  0.32863400  0.33493000  0.87502300  1
  P  P4  1  0.33257700  0.33427100  0.37076400  1
  P  P5  1  0.08730200  0.68765100  0.15385600  1
  P  P6  1  0.91734100  0.77115300  0.33900300  1
  P  P7  1  0.22358200  0.09161200  0.15773900  1
  P  P8  1  0.77811400  0.91619100  0.83865400  1
  P  P9  1  0.08714800  0.23305500  0.65661600  1
  P  P10  1  0.91712600  0.30867900  0.84080200  1
  P  P11  1  0.66615600  0.66427400  0.63258500  1
  P  P12  1  0.66775600  0.66610200  0.12833400  1
  P  P13  1  0.76937500  0.31995900  0.34113700  1
  P  P14  1  0.31418100  0.91430400  0.34100100  1
  P  P15  1  0.30838200  0.77622400  0.84050400  1
  O  O0  1  0.76701200  0.23566300  0.42977600  1
  O  O1  1  0.66291000  0.25573500  0.66591100  1
  O  O2  1  0.79780500  0.00528600  0.91854500  1
  O  O3  1  0.65973800  0.08057400  0.16850400  1
  O  O4  1  0.52163600  0.37273100  0.16717400  1
  O  O5  1  0.48636700  0.32308300  0.83913500  1
  O  O6  1  0.37993300  0.51680300  0.67861800  1
  O  O7  1  0.20237400  0.79050100  0.92068800  1
  O  O8  1  0.25564900  0.65727300  0.16171500  1
  O  O9  1  0.48624100  0.18462300  0.33510400  1
  O  O10  1  0.51799600  0.10198700  0.68100300  1
  O  O11  1  0.33493800  0.48258000  0.32759400  1
  O  O12  1  0.32050700  0.34277500  0.98189800  1
  O  O13  1  0.31940800  0.34286500  0.47634700  1
  O  O14  1  0.18474100  0.48959600  0.83297000  1
  O  O15  1  0.37314000  0.10619300  0.16833900  1
  O  O16  1  0.31885100  0.19028100  0.83747900  1
  O  O17  1  0.08480300  0.65927100  0.66794200  1
  O  O18  1  0.99007300  0.79655900  0.24176600  1
  O  O19  1  0.01325000  0.76244100  0.42219300  1
  O  O20  1  0.00906200  0.76832100  0.06342900  1
  O  O21  1  0.09588200  0.52341200  0.16906400  1
  O  O22  1  0.18465900  0.33230200  0.32531000  1
  O  O23  1  0.91966200  0.74268500  0.83801600  1
  O  O24  1  0.09990000  0.38193000  0.67896000  1
  O  O25  1  0.25116000  0.08383900  0.65961900  1
  O  O26  1  0.79888600  0.98685900  0.73894600  1
  O  O27  1  0.74229800  0.01773800  0.56218800  1
  O  O28  1  0.23702300  0.00504000  0.43009900  1
  O  O29  1  0.74845600  0.91474900  0.34105600  1
  O  O30  1  0.90980800  0.61773100  0.32074900  1
  O  O31  1  0.07910100  0.26112800  0.16739400  1
  O  O32  1  0.81595900  0.66180400  0.68229100  1
  O  O33  1  0.91926900  0.46517600  0.82931900  1
  O  O34  1  0.01018100  0.20520900  0.92101400  1
  O  O35  1  0.00193400  0.24855400  0.56509000  1
  O  O36  1  0.98733300  0.21544900  0.74132800  1
  O  O37  1  0.92057700  0.33653400  0.33930900  1
  O  O38  1  0.66983500  0.80877600  0.17233600  1
  O  O39  1  0.62218000  0.91542300  0.83210700  1
  O  O40  1  0.81605000  0.51578200  0.17748000  1
  O  O41  1  0.67773800  0.64998600  0.02408800  1
  O  O42  1  0.67931900  0.65886900  0.52750000  1
  O  O43  1  0.67013600  0.51367700  0.67368400  1
  O  O44  1  0.47379500  0.90637700  0.32208000  1
  O  O45  1  0.51580700  0.81526800  0.66990600  1
  O  O46  1  0.74499900  0.34048600  0.84248800  1
  O  O47  1  0.79146800  0.21223300  0.24893600  1
  O  O48  1  0.77459300  0.21080300  0.06862000  1
  O  O49  1  0.62144100  0.47930500  0.32778100  1
  O  O50  1  0.52180200  0.66057800  0.17321900  1
  O  O51  1  0.46533000  0.62028600  0.83221200  1
  O  O52  1  0.34024600  0.91723500  0.83876600  1
  O  O53  1  0.21041900  0.01603800  0.06878500  1
  O  O54  1  0.20692900  0.00173000  0.24927400  1
  O  O55  1  0.33227200  0.74964200  0.34128100  1
  O  O56  1  0.24277900  0.75001600  0.56628900  1
  O  O57  1  0.21573900  0.79694700  0.74115900  1
loop_
_geom_bond_atom_site_label_1
_geom_bond_atom_site_label_2
_geom_bond_distance
_geom_bond_site_symmetry_2
Li0 O2 1.940445 1_555
Li0 O48 1.976966 1_556
Li0 O46 2.027053 1_555
Li0 O5 2.196083 1_555
Li1 O27 1.886614 1_555
Li1 O0 1.982376 1_555
Li1 O29 1.993662 1_545
Li1 O9 2.202691 1_555
Li2 O19 1.877889 1_555
Li2 O56 1.962965 1_555
Li2 O55 2.033242 1_555
Li2 O11 2.261580 1_555
Li3 O12 1.874578 1_554
Li3 O4 2.152679 1_555
Li3 O15 2.217325 1_555
Li3 O21 2.279077 1_555
Li4 O20 1.940621 1_556
Li4 O7 1.944466 1_555
Li4 O23 2.036761 1_455
Li4 O14 2.181819 1_555
Li5 O34 1.928543 1_555
Li5 O53 1.984166 1_556
Li5 O52 2.059855 1_545
Li5 O16 2.149247 1_555
Li6 O28 1.975259 1_555
Li6 O35 1.984729 1_555
Li6 O37 2.037959 1_455
Li6 O22 2.234345 1_555
Li7 O35 1.997317 1_655
Li7 O0 2.007337 1_555
Li7 O1 2.090928 1_555
Li7 O43 2.316694 1_555
Li8 O56 1.995873 1_555
Li8 O28 2.007187 1_565
Li8 O25 2.055055 1_565
Li8 O45 2.329919 1_555
Li9 O48 2.291817 1_565
Li9 O20 2.303476 1_655
Li9 O2 2.305814 1_564
Li9 O53 2.334942 1_665
Li9 O7 2.384676 1_654
Li9 O34 2.455920 1_664
O0 P13 1.502010 1_555
O1 P1 1.555777 1_555
O1 V4 1.971641 1_555
O2 P8 1.493567 1_545
O3 P0 1.551680 1_555
O3 V2 1.868043 1_545
O4 P0 1.553698 1_555
O4 V5 2.005140 1_555
O5 P3 1.570051 1_555
O5 V4 1.984065 1_555
O6 P2 1.538778 1_555
O6 V4 1.903883 1_555
O7 P15 1.490059 1_555
O8 P5 1.523540 1_555
O8 V5 1.942801 1_555
O9 P4 1.571031 1_555
O9 V2 1.999769 1_545
O10 P1 1.565276 1_555
O10 V3 1.847236 1_555
O11 P4 1.584521 1_555
O11 V5 1.939634 1_555
O12 P3 1.506308 1_555
O13 P4 1.490363 1_555
O14 P3 1.583383 1_555
O14 V0 1.972139 1_455
O15 P7 1.544647 1_555
O15 V2 2.042611 1_545
O16 P3 1.558751 1_555
O16 V3 2.015858 1_555
O17 P2 1.554536 1_555
O17 V0 1.887342 1_455
O18 P5 1.601223 1_655
O18 P6 1.616571 1_555
O19 P6 1.476278 1_455
O20 P5 1.493197 1_555
O21 P5 1.582616 1_555
O21 V1 1.935227 1_455
O22 P4 1.590079 1_555
O22 V1 1.961881 1_455
O23 P8 1.570370 1_555
O23 V0 1.933190 1_555
O24 P9 1.555710 1_555
O24 V0 1.875926 1_455
O25 P9 1.542692 1_555
O25 V3 2.028652 1_555
O26 P1 1.605514 1_565
O26 P8 1.620906 1_555
O27 P1 1.476232 1_555
O28 P14 1.504884 1_545
O29 P6 1.548237 1_555
O29 V2 1.974147 1_555
O30 P6 1.561514 1_555
O30 V1 1.859020 1_555
O31 P7 1.561929 1_555
O31 V1 1.864200 1_455
O32 P11 1.612347 1_555
O32 V0 1.816729 1_555
O33 P10 1.551168 1_555
O33 V0 1.912623 1_555
O34 P10 1.487941 1_455
O35 P9 1.500829 1_555
O36 P9 1.602186 1_655
O36 P10 1.625403 1_555
O37 P13 1.564565 1_555
O37 V1 1.966567 1_555
O38 P12 1.537760 1_555
O38 V2 1.934859 1_555
O39 P8 1.530308 1_555
O39 V3 1.953687 1_565
O40 P12 1.621030 1_555
O40 V1 1.800168 1_555
O41 P12 1.473793 1_555
O42 P11 1.483254 1_555
O43 P11 1.566071 1_555
O43 V4 1.956278 1_555
O44 P14 1.545450 1_555
O44 V2 1.871264 1_555
O45 P11 1.569279 1_555
O45 V3 1.964171 1_565
O46 P10 1.551198 1_555
O46 V4 1.962798 1_555
O47 P0 1.610946 1_555
O47 P13 1.618094 1_555
O48 P0 1.492598 1_555
O49 P13 1.523138 1_555
O49 V5 1.944579 1_555
O50 P12 1.584524 1_555
O50 V5 1.835812 1_555
O51 P15 1.539994 1_555
O51 V4 1.919976 1_555
O52 P15 1.559048 1_555
O52 V3 1.945793 1_565
O53 P7 1.492527 1_555
O54 P7 1.612890 1_555
O54 P14 1.615162 1_545
O55 P14 1.532204 1_555
O55 V5 2.041627 1_555
O56 P2 1.497366 1_555
O57 P2 1.604765 1_555
O57 P15 1.623528 1_555
