# generated using pymatgen
data_Tb2MgPd2
_symmetry_space_group_name_H-M   'P 1'
_cell_length_a   3.75100222
_cell_length_b   7.70595260
_cell_length_c   7.70595260
_cell_angle_alpha   90.00000000
_cell_angle_beta   90.00000000
_cell_angle_gamma   90.00000000
_symmetry_Int_Tables_number   1
_chemical_formula_structural   Tb2MgPd2
_chemical_formula_sum   'Tb4 Mg2 Pd4'
_cell_volume   222.74090906
_cell_formula_units_Z   2
loop_
 _symmetry_equiv_pos_site_id
 _symmetry_equiv_pos_as_xyz
  1  'x, y, z'
loop_
 _atom_site_type_symbol
 _atom_site_label
 _atom_site_symmetry_multiplicity
 _atom_site_fract_x
 _atom_site_fract_y
 _atom_site_fract_z
 _atom_site_occupancy
  Tb  Tb0  1  0.50000000  0.83163247  0.33163247  1
  Tb  Tb1  1  0.50000000  0.66836753  0.83163247  1
  Tb  Tb2  1  0.50000000  0.33163247  0.16836753  1
  Tb  Tb3  1  0.50000000  0.16836753  0.66836753  1
  Mg  Mg0  1  -0.00000000  0.50000000  0.50000000  1
  Mg  Mg1  1  -0.00000000  -0.00000000  0.00000000  1
  Pd  Pd0  1  0.00000000  0.63216335  0.13216335  1
  Pd  Pd1  1  -0.00000000  0.86783665  0.63216335  1
  Pd  Pd2  1  -0.00000000  0.36783665  0.86783665  1
  Pd  Pd3  1  0.00000000  0.13216335  0.36783665  1
loop_
_geom_bond_atom_site_label_1
_geom_bond_atom_site_label_2
_geom_bond_distance
_geom_bond_site_symmetry_2
Mg0 Pd0 3.011943 1_555
Mg0 Pd3 3.011943 1_555
Mg0 Pd2 3.011943 1_555
Mg0 Pd1 3.011943 1_555
Mg1 Pd3 3.011943 1_555
Mg1 Pd2 3.011943 1_554
Mg1 Pd1 3.011943 1_544
Mg1 Pd0 3.011943 1_545
Pd0 Tb0 2.871037 1_555
Pd0 Tb0 2.871037 1_455
Pd0 Tb2 2.993096 1_555
Pd0 Tb2 2.993096 1_455
Pd0 Tb1 2.993096 1_554
Pd0 Tb1 2.993096 1_454
Pd1 Tb1 2.871037 1_455
Pd1 Tb1 2.871037 1_555
Pd1 Tb0 2.993096 1_555
Pd1 Tb3 2.993096 1_465
Pd1 Tb3 2.993096 1_565
Pd1 Tb0 2.993096 1_455
Pd2 Tb3 2.871037 1_455
Pd2 Tb3 2.871037 1_555
Pd2 Tb1 2.993096 1_455
Pd2 Tb1 2.993096 1_555
Pd2 Tb2 2.993096 1_556
Pd2 Tb2 2.993096 1_456
Pd3 Tb2 2.871037 1_555
Pd3 Tb2 2.871037 1_455
Pd3 Tb0 2.993096 1_445
Pd3 Tb0 2.993096 1_545
Pd3 Tb3 2.993096 1_455
Pd3 Tb3 2.993096 1_555
