# generated using pymatgen
data_Mg5Si6
_symmetry_space_group_name_H-M   'P 1'
_cell_length_a   4.09190300
_cell_length_b   6.54606192
_cell_length_c   15.12288514
_cell_angle_alpha   95.09726799
_cell_angle_beta   90.86709157
_cell_angle_gamma   90.36374755
_symmetry_Int_Tables_number   1
_chemical_formula_structural   Mg5Si6
_chemical_formula_sum   'Mg10 Si12'
_cell_volume   403.41913436
_cell_formula_units_Z   2
loop_
 _symmetry_equiv_pos_site_id
 _symmetry_equiv_pos_as_xyz
  1  'x, y, z'
loop_
 _atom_site_type_symbol
 _atom_site_label
 _atom_site_symmetry_multiplicity
 _atom_site_fract_x
 _atom_site_fract_y
 _atom_site_fract_z
 _atom_site_occupancy
  Mg  Mg0  1  0.09217300  0.99134900  0.96332000  1
  Mg  Mg1  1  0.08526200  0.17665700  0.53047700  1
  Mg  Mg2  1  0.58904500  0.10669100  0.67068500  1
  Mg  Mg3  1  0.57953300  0.84728100  0.46384600  1
  Mg  Mg4  1  0.58682800  0.69823900  0.03983500  1
  Mg  Mg5  1  0.59442700  0.29284600  0.87856500  1
  Mg  Mg6  1  0.58785700  0.52937500  0.61198900  1
  Mg  Mg7  1  0.58889900  0.32603100  0.38246700  1
  Mg  Mg8  1  0.59944700  0.22811700  0.11427600  1
  Mg  Mg9  1  0.59076500  0.76672400  0.79759200  1
  Si  Si0  1  0.09734300  0.39112400  0.01106500  1
  Si  Si1  1  0.04497900  0.56562400  0.16189100  1
  Si  Si2  1  0.03012000  0.00139300  0.35096200  1
  Si  Si3  1  0.08656000  0.57066000  0.48732200  1
  Si  Si4  1  0.08971200  0.06198600  0.78909400  1
  Si  Si5  1  0.10549500  0.26156600  0.24758200  1
  Si  Si6  1  0.13061600  0.62409200  0.33175000  1
  Si  Si7  1  0.09222400  0.40982200  0.73564900  1
  Si  Si8  1  0.09942700  0.59797000  0.88943300  1
  Si  Si9  1  0.61129900  0.78400700  0.25186600  1
  Si  Si10  1  0.12881900  0.93710400  0.14868900  1
  Si  Si11  1  0.08923900  0.83161200  0.63814800  1
loop_
_geom_bond_atom_site_label_1
_geom_bond_atom_site_label_2
_geom_bond_distance
_geom_bond_site_symmetry_2
Mg0 Si0 2.652038 1_566
Mg0 Si8 2.714990 1_555
Mg0 Si4 2.715110 1_565
Mg0 Si10 2.858668 1_556
Mg0 Mg4 3.080626 1_556
Mg0 Mg4 3.116547 1_456
Mg1 Si3 2.716080 1_555
Mg1 Si2 2.856915 1_555
Mg1 Si11 2.899390 1_545
Mg2 Si11 2.726278 1_545
Mg2 Si4 2.734773 1_655
Mg2 Si11 2.755645 1_645
Mg2 Si4 2.768251 1_555
Mg2 Si7 2.946609 1_655
Mg2 Si7 2.966617 1_555
Mg3 Si3 2.750196 1_555
Mg3 Si2 2.776535 1_665
Mg3 Si3 2.801607 1_655
Mg3 Si6 2.972503 1_555
Mg3 Si2 3.033949 1_565
Mg3 Si9 3.200412 1_555
Mg4 Si1 2.806409 1_655
Mg4 Si0 2.830152 1_555
Mg4 Si10 2.887976 1_555
Mg4 Si0 2.918941 1_655
Mg4 Si8 3.026986 1_554
Mg4 Si1 3.075847 1_555
Mg4 Si10 3.075949 1_655
Mg4 Si8 3.146481 1_654
Mg4 Si9 3.205727 1_555
Mg5 Si4 2.809316 1_555
Mg5 Si4 2.824969 1_655
Mg5 Si8 2.849946 1_555
Mg5 Si8 2.857534 1_655
Mg5 Si0 2.879797 1_656
Mg5 Si0 2.911557 1_556
Mg5 Si7 3.108069 1_555
Mg5 Si7 3.132763 1_655
Mg6 Si3 2.795653 1_555
Mg6 Si3 2.826958 1_655
Mg6 Si11 2.839845 1_655
Mg6 Si11 2.858361 1_555
Mg6 Si7 2.921102 1_655
Mg6 Si7 2.928744 1_555
Mg7 Si2 2.810245 1_655
Mg7 Si5 2.822417 1_555
Mg7 Si6 2.860169 1_555
Mg7 Si3 2.938590 1_655
Mg7 Si5 2.965864 1_655
Mg7 Si3 2.998870 1_555
Mg7 Si6 3.093731 1_655
Mg7 Si2 3.113907 1_555
Mg8 Si10 2.787169 1_545
Mg8 Si0 2.832455 1_555
Mg8 Si0 2.844329 1_655
Mg8 Si5 2.861702 1_655
Mg8 Si5 2.871908 1_555
Mg8 Si1 2.889591 1_655
Mg8 Si10 2.964190 1_645
Mg9 Si8 2.742342 1_555
Mg9 Si8 2.774147 1_655
Mg9 Si4 2.814698 1_665
Mg9 Si4 2.835893 1_565
Mg9 Si7 3.160713 1_555
Mg9 Si7 3.205676 1_655
Si0 Si8 2.379044 1_554
Si0 Si1 2.471492 1_555
Si1 Si10 2.479641 1_555
Si1 Si5 2.481363 1_555
Si1 Si6 2.581502 1_555
Si1 Si9 2.608416 1_455
Si1 Si9 2.963432 1_555
Si2 Si5 2.433310 1_555
Si2 Si6 2.498521 1_545
Si2 Si9 2.592341 1_445
Si3 Si6 2.418322 1_555
Si4 Si7 2.482914 1_555
Si5 Si6 2.592031 1_555
Si6 Si9 2.587371 1_555
Si6 Si9 2.691864 1_455
Si7 Si8 2.532775 1_555
Si10 Si5 2.489856 1_565
Si10 Si9 2.747085 1_555
Si10 Si9 2.876516 1_455
Si11 Si4 2.621682 1_565
Si11 Si3 2.725320 1_555
