# generated using pymatgen
data_Si2NiSe4
_symmetry_space_group_name_H-M   'P 1'
_cell_length_a   6.88716207
_cell_length_b   6.88716207
_cell_length_c   6.45054324
_cell_angle_alpha   69.27457639
_cell_angle_beta   69.27457639
_cell_angle_gamma   29.26190962
_symmetry_Int_Tables_number   1
_chemical_formula_structural   Si2NiSe4
_chemical_formula_sum   'Si2 Ni1 Se4'
_cell_volume   139.19582670
_cell_formula_units_Z   1
loop_
 _symmetry_equiv_pos_site_id
 _symmetry_equiv_pos_as_xyz
  1  'x, y, z'
loop_
 _atom_site_type_symbol
 _atom_site_label
 _atom_site_symmetry_multiplicity
 _atom_site_fract_x
 _atom_site_fract_y
 _atom_site_fract_z
 _atom_site_occupancy
  Si  Si0  1  0.73986600  0.73986600  0.27964300  1
  Si  Si1  1  0.26013400  0.26013400  0.72035700  1
  Ni  Ni0  1  0.00000000  0.00000000  0.00000000  1
  Se  Se0  1  0.87186800  0.87186800  0.47413900  1
  Se  Se1  1  0.12813200  0.12813200  0.52586100  1
  Se  Se2  1  0.62301700  0.62301700  0.01176700  1
  Se  Se3  1  0.37698300  0.37698300  0.98823300  1
loop_
_geom_bond_atom_site_label_1
_geom_bond_atom_site_label_2
_geom_bond_distance
_geom_bond_site_symmetry_2
Ni0 Se2 2.410644 1_455
Ni0 Se2 2.410644 1_545
Ni0 Se3 2.410644 1_544
Ni0 Se3 2.410644 1_454
Ni0 Se1 2.906856 1_554
Ni0 Se0 2.906856 1_445
Se0 Si1 2.456898 1_565
Se0 Si1 2.456898 1_655
Se0 Si0 2.506723 1_555
Se1 Si0 2.456898 1_455
Se1 Si0 2.456898 1_545
Se1 Si1 2.506723 1_555
Se2 Si0 2.716524 1_555
Se2 Si1 2.717827 1_654
Se2 Si1 2.717827 1_564
Se3 Si1 2.716524 1_555
Se3 Si0 2.717827 1_546
Se3 Si0 2.717827 1_456
