# generated using pymatgen
data_Dy2FeCo3
_symmetry_space_group_name_H-M   'P 1'
_cell_length_a   4.98225781
_cell_length_b   4.98228464
_cell_length_c   4.98228833
_cell_angle_alpha   62.88967014
_cell_angle_beta   62.88933807
_cell_angle_gamma   62.88931587
_symmetry_Int_Tables_number   1
_chemical_formula_structural   Dy2FeCo3
_chemical_formula_sum   'Dy2 Fe1 Co3'
_cell_volume   93.06633376
_cell_formula_units_Z   1
loop_
 _symmetry_equiv_pos_site_id
 _symmetry_equiv_pos_as_xyz
  1  'x, y, z'
loop_
 _atom_site_type_symbol
 _atom_site_label
 _atom_site_symmetry_multiplicity
 _atom_site_fract_x
 _atom_site_fract_y
 _atom_site_fract_z
 _atom_site_occupancy
  Dy  Dy0  1  0.62743067  0.62743167  0.62743167  1
  Dy  Dy1  1  0.37256933  0.37256833  0.37256833  1
  Fe  Fe0  1  0.00000000  0.00000000  -0.00000000  1
  Co  Co0  1  0.00000000  0.50000000  -0.00000000  1
  Co  Co1  1  0.50000000  0.00000000  -0.00000000  1
  Co  Co2  1  0.00000000  0.00000000  0.50000000  1
loop_
_geom_bond_atom_site_label_1
_geom_bond_atom_site_label_2
_geom_bond_distance
_geom_bond_site_symmetry_2
Dy0 Fe0 3.037490 1_566
Dy0 Fe0 3.037514 1_656
Dy0 Fe0 3.037515 1_665
Dy0 Dy1 3.040693 1_555
Dy0 Dy1 3.143840 1_655
Dy0 Dy1 3.143858 1_565
Dy0 Dy1 3.143861 1_556
Dy1 Fe0 3.037490 1_655
Dy1 Fe0 3.037514 1_565
Dy1 Fe0 3.037515 1_556
Co0 Fe0 2.491142 1_565
Co0 Fe0 2.491142 1_555
Co0 Co1 2.599125 1_465
Co0 Co1 2.599125 1_555
Co0 Co2 2.599146 1_555
Co0 Co2 2.599146 1_564
Co0 Dy0 2.878629 1_454
Co0 Dy1 2.878629 1_555
Co0 Dy0 3.011124 1_554
Co0 Dy1 3.011124 1_455
Co0 Dy0 3.011139 1_455
Co0 Dy1 3.011139 1_554
Co1 Fe0 2.491129 1_655
Co1 Fe0 2.491129 1_555
Co1 Co2 2.599127 1_654
Co1 Co2 2.599127 1_555
Co1 Dy1 2.878628 1_555
Co1 Dy0 2.878628 1_544
Co1 Dy1 3.011148 1_545
Co1 Dy0 3.011148 1_554
Co1 Dy0 3.011149 1_545
Co1 Dy1 3.011149 1_554
Co2 Fe0 2.491144 1_555
Co2 Fe0 2.491144 1_556
Co2 Dy1 2.878629 1_555
Co2 Dy0 2.878629 1_445
Co2 Dy0 3.011124 1_545
Co2 Dy1 3.011124 1_455
Co2 Dy1 3.011137 1_545
Co2 Dy0 3.011137 1_455
