# generated using pymatgen
data_CaSn2S5
_symmetry_space_group_name_H-M   'P 1'
_cell_length_a   6.55107300
_cell_length_b   9.86285900
_cell_length_c   15.17449200
_cell_angle_alpha   90.00000000
_cell_angle_beta   90.00000000
_cell_angle_gamma   90.00000000
_symmetry_Int_Tables_number   1
_chemical_formula_structural   CaSn2S5
_chemical_formula_sum   'Ca4 Sn8 S20'
_cell_volume   980.45897054
_cell_formula_units_Z   4
loop_
 _symmetry_equiv_pos_site_id
 _symmetry_equiv_pos_as_xyz
  1  'x, y, z'
loop_
 _atom_site_type_symbol
 _atom_site_label
 _atom_site_symmetry_multiplicity
 _atom_site_fract_x
 _atom_site_fract_y
 _atom_site_fract_z
 _atom_site_occupancy
  Ca  Ca0  1  0.37098400  0.75000000  0.03046600  1
  Ca  Ca1  1  0.12901600  0.75000000  0.53046600  1
  Ca  Ca2  1  0.62901600  0.25000000  0.96953400  1
  Ca  Ca3  1  0.87098400  0.25000000  0.46953400  1
  Sn  Sn0  1  0.36237800  0.53935800  0.32753500  1
  Sn  Sn1  1  0.13762200  0.96064200  0.82753500  1
  Sn  Sn2  1  0.63762200  0.03935800  0.67246500  1
  Sn  Sn3  1  0.86237800  0.46064200  0.17246500  1
  Sn  Sn4  1  0.63762200  0.46064200  0.67246500  1
  Sn  Sn5  1  0.86237800  0.03935800  0.17246500  1
  Sn  Sn6  1  0.36237800  0.96064200  0.32753500  1
  Sn  Sn7  1  0.13762200  0.53935800  0.82753500  1
  S  S0  1  0.47485800  0.75000000  0.39920500  1
  S  S1  1  0.02514200  0.75000000  0.89920500  1
  S  S2  1  0.52514200  0.25000000  0.60079500  1
  S  S3  1  0.97485800  0.25000000  0.10079500  1
  S  S4  1  0.17525900  0.46113800  0.44894700  1
  S  S5  1  0.32474100  0.03886200  0.94894700  1
  S  S6  1  0.82474100  0.96113800  0.55105300  1
  S  S7  1  0.67525900  0.53886200  0.05105300  1
  S  S8  1  0.82474100  0.53886200  0.55105300  1
  S  S9  1  0.67525900  0.96113800  0.05105300  1
  S  S10  1  0.17525900  0.03886200  0.44894700  1
  S  S11  1  0.32474100  0.46113800  0.94894700  1
  S  S12  1  0.19772200  0.57592900  0.18598900  1
  S  S13  1  0.30227800  0.92407100  0.68598900  1
  S  S14  1  0.80227800  0.07592900  0.81401100  1
  S  S15  1  0.69772200  0.42407100  0.31401100  1
  S  S16  1  0.80227800  0.42407100  0.81401100  1
  S  S17  1  0.69772200  0.07592900  0.31401100  1
  S  S18  1  0.19772200  0.92407100  0.18598900  1
  S  S19  1  0.30227800  0.57592900  0.68598900  1
loop_
_geom_bond_atom_site_label_1
_geom_bond_atom_site_label_2
_geom_bond_distance
_geom_bond_site_symmetry_2
Ca0 S9 2.899558 1_555
Ca0 S7 2.899558 1_555
Ca0 S1 3.016695 1_554
Ca0 S5 3.120704 1_564
Ca0 S11 3.120704 1_554
Ca0 S12 3.131356 1_555
Ca0 S18 3.131356 1_555
Ca1 S6 2.899558 1_455
Ca1 S8 2.899558 1_455
Ca1 S0 3.016695 1_555
Ca1 S10 3.120704 1_565
Ca1 S4 3.120704 1_555
Ca1 S19 3.131356 1_555
Ca1 S13 3.131356 1_555
Ca2 S5 2.899558 1_555
Ca2 S11 2.899558 1_555
Ca2 S3 3.016695 1_556
Ca2 S9 3.120704 1_546
Ca2 S7 3.120704 1_556
Ca2 S16 3.131356 1_555
Ca2 S14 3.131356 1_555
Ca3 S10 2.899558 1_655
Ca3 S4 2.899558 1_655
Ca3 S2 3.016695 1_555
Ca3 S6 3.120704 1_545
Ca3 S8 3.120704 1_555
Ca3 S15 3.131356 1_555
Ca3 S17 3.131356 1_555
S0 Sn0 2.458025 1_555
S0 Sn6 2.458025 1_555
S1 Sn1 2.458025 1_555
S1 Sn7 2.458025 1_555
S2 Sn4 2.458025 1_555
S2 Sn2 2.458025 1_555
S3 Sn5 2.458025 1_555
S3 Sn3 2.458025 1_555
S4 Sn0 2.343532 1_555
S5 Sn1 2.343532 1_545
S6 Sn2 2.343532 1_565
S7 Sn3 2.343532 1_555
S8 Sn4 2.343532 1_555
S9 Sn5 2.343532 1_565
S10 Sn6 2.343532 1_545
S11 Sn7 2.343532 1_555
S12 Sn0 2.430445 1_555
S12 Sn3 2.482182 1_455
S13 Sn1 2.430445 1_555
S13 Sn2 2.482182 1_565
S14 Sn2 2.430445 1_555
S14 Sn1 2.482182 1_645
S15 Sn3 2.430445 1_555
S15 Sn0 2.482182 1_555
S16 Sn4 2.430445 1_555
S16 Sn7 2.482182 1_655
S17 Sn5 2.430445 1_555
S17 Sn6 2.482182 1_545
S18 Sn6 2.430445 1_555
S18 Sn5 2.482182 1_465
S19 Sn7 2.430445 1_555
S19 Sn4 2.482182 1_555
