# generated using pymatgen
data_Li6Ho(BO3)3
_symmetry_space_group_name_H-M   'P 1'
_cell_length_a   16.50978200
_cell_length_b   6.70211300
_cell_length_c   7.24424275
_cell_angle_alpha   74.65549044
_cell_angle_beta   90.00000000
_cell_angle_gamma   90.00000000
_symmetry_Int_Tables_number   1
_chemical_formula_structural   Li6Ho(BO3)3
_chemical_formula_sum   'Li24 Ho4 B12 O36'
_cell_volume   773.00397669
_cell_formula_units_Z   4
loop_
 _symmetry_equiv_pos_site_id
 _symmetry_equiv_pos_as_xyz
  1  'x, y, z'
loop_
 _atom_site_type_symbol
 _atom_site_label
 _atom_site_symmetry_multiplicity
 _atom_site_fract_x
 _atom_site_fract_y
 _atom_site_fract_z
 _atom_site_occupancy
  Li  Li0  1  0.03009500  0.32996000  0.54614700  1
  Li  Li1  1  0.53009500  0.17004000  0.45385300  1
  Li  Li2  1  0.96990500  0.67004000  0.45385300  1
  Li  Li3  1  0.46990500  0.82996000  0.54614700  1
  Li  Li4  1  0.20488900  0.04545100  0.43734700  1
  Li  Li5  1  0.70488900  0.45454900  0.56265300  1
  Li  Li6  1  0.79511100  0.95454900  0.56265300  1
  Li  Li7  1  0.29511100  0.54545100  0.43734700  1
  Li  Li8  1  0.94676500  0.41363800  0.13671300  1
  Li  Li9  1  0.44676500  0.08636200  0.86328700  1
  Li  Li10  1  0.05323500  0.58636200  0.86328700  1
  Li  Li11  1  0.55323500  0.91363800  0.13671300  1
  Li  Li12  1  0.20587800  0.63493900  0.71523300  1
  Li  Li13  1  0.70587800  0.86506100  0.28476700  1
  Li  Li14  1  0.79412200  0.36506100  0.28476700  1
  Li  Li15  1  0.29412200  0.13493900  0.71523300  1
  Li  Li16  1  0.03524300  0.05591600  0.30628900  1
  Li  Li17  1  0.53524300  0.44408400  0.69371100  1
  Li  Li18  1  0.96475700  0.94408400  0.69371100  1
  Li  Li19  1  0.46475700  0.55591600  0.30628900  1
  Li  Li20  1  0.99557700  0.82380100  0.07158000  1
  Li  Li21  1  0.49557700  0.67619900  0.92842000  1
  Li  Li22  1  0.00442300  0.17619900  0.92842000  1
  Li  Li23  1  0.50442300  0.32380100  0.07158000  1
  Ho  Ho0  1  0.30998800  0.34716900  0.07952100  1
  Ho  Ho1  1  0.80998800  0.15283100  0.92047900  1
  Ho  Ho2  1  0.69001200  0.65283100  0.92047900  1
  Ho  Ho3  1  0.19001200  0.84716900  0.07952100  1
  B  B0  1  0.87886100  0.00133400  0.28540500  1
  B  B1  1  0.37886100  0.49866600  0.71459500  1
  B  B2  1  0.12113900  0.99866600  0.71459500  1
  B  B3  1  0.62113900  0.50133400  0.28540500  1
  B  B4  1  0.13599100  0.33838700  0.08367000  1
  B  B5  1  0.63599100  0.16161300  0.91633000  1
  B  B6  1  0.86400900  0.66161300  0.91633000  1
  B  B7  1  0.36400900  0.83838700  0.08367000  1
  B  B8  1  0.38441800  0.18986400  0.43846700  1
  B  B9  1  0.88441800  0.31013600  0.56153300  1
  B  B10  1  0.61558200  0.81013600  0.56153300  1
  B  B11  1  0.11558200  0.68986400  0.43846700  1
  O  O0  1  0.92560000  0.04347900  0.11915600  1
  O  O1  1  0.42560000  0.45652100  0.88084400  1
  O  O2  1  0.07440000  0.95652100  0.88084400  1
  O  O3  1  0.57440000  0.54347900  0.11915600  1
  O  O4  1  0.79734700  0.05832000  0.25883600  1
  O  O5  1  0.29734700  0.44168000  0.74116400  1
  O  O6  1  0.20265300  0.94168000  0.74116400  1
  O  O7  1  0.70265300  0.55832000  0.25883600  1
  O  O8  1  0.91128300  0.91385900  0.46243600  1
  O  O9  1  0.41128300  0.58614100  0.53756400  1
  O  O10  1  0.08871700  0.08614100  0.53756400  1
  O  O11  1  0.58871700  0.41385900  0.46243600  1
  O  O12  1  0.05359000  0.32413800  0.08819300  1
  O  O13  1  0.55359000  0.17586200  0.91180700  1
  O  O14  1  0.94641000  0.67586200  0.91180700  1
  O  O15  1  0.44641000  0.82413800  0.08819300  1
  O  O16  1  0.32557400  0.02845500  0.00907900  1
  O  O17  1  0.82557400  0.47154500  0.99092100  1
  O  O18  1  0.67442600  0.97154500  0.99092100  1
  O  O19  1  0.17442600  0.52845500  0.00907900  1
  O  O20  1  0.18587000  0.16566100  0.14379300  1
  O  O21  1  0.68587000  0.33433900  0.85620700  1
  O  O22  1  0.81413000  0.83433900  0.85620700  1
  O  O23  1  0.31413000  0.66566100  0.14379300  1
  O  O24  1  0.42089800  0.07747700  0.60507000  1
  O  O25  1  0.92089800  0.42252300  0.39493000  1
  O  O26  1  0.57910200  0.92252300  0.39493000  1
  O  O27  1  0.07910200  0.57747700  0.60507000  1
  O  O28  1  0.30160200  0.22956000  0.41974100  1
  O  O29  1  0.80160200  0.27044000  0.58025900  1
  O  O30  1  0.69839800  0.77044000  0.58025900  1
  O  O31  1  0.19839800  0.72956000  0.41974100  1
  O  O32  1  0.43101000  0.27153500  0.27532700  1
  O  O33  1  0.93101000  0.22846500  0.72467300  1
  O  O34  1  0.56899000  0.72846500  0.72467300  1
  O  O35  1  0.06899000  0.77153500  0.27532700  1
loop_
_geom_bond_atom_site_label_1
_geom_bond_atom_site_label_2
_geom_bond_distance
_geom_bond_site_symmetry_2
Li0 O10 1.914324 1_555
Li0 O27 1.990854 1_555
Li0 O33 2.084655 1_455
Li0 O25 2.115505 1_455
Li1 O11 1.914324 1_555
Li1 O26 1.990854 1_545
Li1 O32 2.084655 1_555
Li1 O24 2.115505 1_555
Li2 O8 1.914324 1_555
Li2 O25 1.990854 1_555
Li2 O35 2.084655 1_655
Li2 O27 2.115505 1_655
Li3 O9 1.914324 1_555
Li3 O24 1.990854 1_565
Li3 O34 2.084655 1_555
Li3 O26 2.115505 1_555
Li4 O28 2.001254 1_555
Li4 O20 2.088841 1_555
Li4 O10 2.094003 1_555
Li4 O6 2.125796 1_545
Li4 O31 2.157065 1_545
Li5 O29 2.001254 1_555
Li5 O21 2.088841 1_555
Li5 O11 2.094003 1_555
Li5 O7 2.125796 1_555
Li5 O30 2.157065 1_555
Li6 O30 2.001254 1_555
Li6 O22 2.088841 1_555
Li6 O8 2.094003 1_555
Li6 O4 2.125796 1_565
Li6 O29 2.157065 1_565
Li7 O31 2.001254 1_555
Li7 O23 2.088841 1_555
Li7 O9 2.094003 1_555
Li7 O5 2.125796 1_555
Li7 O28 2.157065 1_555
Li8 O12 1.924948 1_655
Li8 O25 1.934935 1_555
Li8 O14 2.056159 1_554
Li8 O17 2.247776 1_554
Li8 O0 2.541628 1_555
Li9 O13 1.924948 1_555
Li9 O24 1.934935 1_555
Li9 O15 2.056159 1_546
Li9 O16 2.247776 1_556
Li9 O1 2.541628 1_555
Li10 O14 1.924948 1_455
Li10 O27 1.934935 1_555
Li10 O12 2.056159 1_556
Li10 O19 2.247776 1_556
Li10 O2 2.541628 1_555
Li11 O15 1.924948 1_555
Li11 O26 1.934935 1_555
Li11 O13 2.056159 1_564
Li11 O18 2.247776 1_554
Li11 O3 2.541628 1_555
Li12 O5 1.965878 1_555
Li12 O31 2.069106 1_555
Li12 O6 2.113972 1_555
Li12 O19 2.122798 1_556
Li12 O27 2.308395 1_555
Li13 O4 1.965878 1_565
Li13 O30 2.069106 1_555
Li13 O7 2.113972 1_555
Li13 O18 2.122798 1_554
Li13 O26 2.308395 1_555
Li14 O7 1.965878 1_555
Li14 O29 2.069106 1_555
Li14 O4 2.113972 1_555
Li14 O17 2.122798 1_554
Li14 O25 2.308395 1_555
Li15 O6 1.965878 1_545
Li15 O28 2.069106 1_555
Li15 O5 2.113972 1_555
Li15 O16 2.122798 1_556
Li15 O24 2.308395 1_555
Li16 O10 1.951173 1_555
Li16 O35 2.054177 1_545
Li16 O12 2.077588 1_555
Li16 O0 2.276239 1_455
Li16 O8 2.409232 1_445
Li17 O11 1.951173 1_555
Li17 O34 2.054177 1_555
Li17 O13 2.077588 1_555
Li17 O1 2.276239 1_555
Li17 O9 2.409232 1_555
Li18 O8 1.951173 1_555
Li18 O33 2.054177 1_565
Li18 O14 2.077588 1_555
Li18 O2 2.276239 1_655
Li18 O10 2.409232 1_665
Li19 O9 1.951173 1_555
Li19 O32 2.054177 1_555
Li19 O15 2.077588 1_555
Li19 O3 2.276239 1_555
Li19 O11 2.409232 1_555
Li20 O35 1.869933 1_655
Li20 O14 1.894469 1_554
Li20 O2 1.934801 1_654
Li20 O0 1.972247 1_565
Li21 O34 1.869933 1_555
Li21 O15 1.894469 1_556
Li21 O3 1.934801 1_556
Li21 O1 1.972247 1_555
Li22 O33 1.869933 1_455
Li22 O12 1.894469 1_556
Li22 O0 1.934801 1_456
Li22 O2 1.972247 1_545
Li23 O32 1.869933 1_555
Li23 O13 1.894469 1_554
Li23 O1 1.934801 1_554
Li23 O3 1.972247 1_555
Ho0 O23 2.303007 1_555
Ho0 O16 2.338002 1_555
Ho0 O20 2.365571 1_555
Ho0 O5 2.373006 1_554
Ho0 O28 2.384689 1_555
Ho0 O1 2.386126 1_554
Ho0 O32 2.425005 1_555
Ho0 O19 2.533294 1_555
Ho1 O22 2.303007 1_545
Ho1 O17 2.338002 1_555
Ho1 O21 2.365571 1_555
Ho1 O4 2.373006 1_556
Ho1 O29 2.384689 1_555
Ho1 O0 2.386126 1_556
Ho1 O33 2.425005 1_555
Ho1 O18 2.533294 1_545
Ho2 O21 2.303007 1_555
Ho2 O18 2.338002 1_555
Ho2 O22 2.365571 1_555
Ho2 O7 2.373006 1_556
Ho2 O30 2.384689 1_555
Ho2 O3 2.386126 1_556
Ho2 O34 2.425005 1_555
Ho2 O17 2.533294 1_555
Ho3 O20 2.303007 1_565
Ho3 O19 2.338002 1_555
Ho3 O23 2.365571 1_555
Ho3 O6 2.373006 1_554
Ho3 O31 2.384689 1_555
Ho3 O2 2.386126 1_554
Ho3 O35 2.425005 1_555
Ho3 O16 2.533294 1_565
B0 O8 1.370039 1_545
B0 O0 1.394864 1_555
B0 O4 1.398259 1_555
B1 O9 1.370039 1_555
B1 O1 1.394864 1_555
B1 O5 1.398259 1_555
B2 O10 1.370039 1_565
B2 O2 1.394864 1_555
B2 O6 1.398259 1_555
B3 O11 1.370039 1_555
B3 O3 1.394864 1_555
B3 O7 1.398259 1_555
B4 O12 1.363557 1_555
B4 O20 1.393233 1_555
B4 O19 1.397518 1_555
B5 O13 1.363557 1_555
B5 O21 1.393233 1_555
B5 O18 1.397518 1_545
B6 O14 1.363557 1_555
B6 O22 1.393233 1_555
B6 O17 1.397518 1_555
B7 O15 1.363557 1_555
B7 O23 1.393233 1_555
B7 O16 1.397518 1_565
B8 O24 1.380436 1_555
B8 O28 1.392667 1_555
B8 O32 1.394871 1_555
B9 O25 1.380436 1_555
B9 O29 1.392667 1_555
B9 O33 1.394871 1_555
B10 O26 1.380436 1_555
B10 O30 1.392667 1_555
B10 O34 1.394871 1_555
B11 O27 1.380436 1_555
B11 O31 1.392667 1_555
B11 O35 1.394871 1_555
