# generated using pymatgen
data_Er3Ga2Ge3
_symmetry_space_group_name_H-M   'P 1'
_cell_length_a   5.92532939
_cell_length_b   5.92532939
_cell_length_c   9.37486736
_cell_angle_alpha   90.00000000
_cell_angle_beta   90.00000000
_cell_angle_gamma   102.64419909
_symmetry_Int_Tables_number   1
_chemical_formula_structural   Er3Ga2Ge3
_chemical_formula_sum   'Er6 Ga4 Ge6'
_cell_volume   321.16475731
_cell_formula_units_Z   2
loop_
 _symmetry_equiv_pos_site_id
 _symmetry_equiv_pos_as_xyz
  1  'x, y, z'
loop_
 _atom_site_type_symbol
 _atom_site_label
 _atom_site_symmetry_multiplicity
 _atom_site_fract_x
 _atom_site_fract_y
 _atom_site_fract_z
 _atom_site_occupancy
  Er  Er0  1  0.65831030  0.65831030  0.25000000  1
  Er  Er1  1  0.34168970  0.34168970  0.75000000  1
  Er  Er2  1  0.80229755  0.19770245  0.00000000  1
  Er  Er3  1  0.19770245  0.80229755  0.00000000  1
  Er  Er4  1  0.19770245  0.80229755  0.50000000  1
  Er  Er5  1  0.80229755  0.19770245  0.50000000  1
  Ga  Ga0  1  0.32467635  0.32467635  0.05005622  1
  Ga  Ga1  1  0.67532365  0.67532365  0.94994378  1
  Ga  Ga2  1  0.67532365  0.67532365  0.55005622  1
  Ga  Ga3  1  0.32467635  0.32467635  0.44994378  1
  Ge  Ge0  1  0.09484848  0.49536595  0.25000000  1
  Ge  Ge1  1  0.90515152  0.50463405  0.75000000  1
  Ge  Ge2  1  0.49536595  0.09484848  0.25000000  1
  Ge  Ge3  1  0.50463405  0.90515152  0.75000000  1
  Ge  Ge4  1  0.04642172  0.04642172  0.25000000  1
  Ge  Ge5  1  0.95357828  0.95357828  0.75000000  1
loop_
_geom_bond_atom_site_label_1
_geom_bond_atom_site_label_2
_geom_bond_distance
_geom_bond_site_symmetry_2
Er0 Ga2 2.815808 1_555
Er0 Ga1 2.815808 1_554
Er0 Ge4 2.874341 1_665
Er0 Ge0 2.952320 1_655
Er0 Ge2 2.952320 1_565
Er0 Ga0 3.101421 1_555
Er0 Ga3 3.101421 1_555
Er0 Ge2 3.266169 1_555
Er0 Ge0 3.266169 1_555
Er1 Ga3 2.815808 1_555
Er1 Ga0 2.815808 1_556
Er1 Ge5 2.874341 1_445
Er1 Ge1 2.952320 1_455
Er1 Ge3 2.952320 1_545
Er1 Ga1 3.101421 1_555
Er1 Ga2 3.101421 1_555
Er1 Ge1 3.266169 1_555
Er1 Ge3 3.266169 1_555
Er2 Ge1 2.947330 1_554
Er2 Ge2 2.947330 1_555
Er2 Ge5 2.992756 1_544
Er2 Ge4 2.992756 1_655
Er2 Ga1 3.057356 1_544
Er2 Ga0 3.057356 1_655
Er2 Ga0 3.118923 1_555
Er2 Ga1 3.118923 1_554
Er2 Ge0 3.204718 1_655
Er2 Ge3 3.204718 1_544
Er3 Ge3 2.947330 1_554
Er3 Ge0 2.947330 1_555
Er3 Ge5 2.992756 1_454
Er3 Ge4 2.992756 1_565
Er3 Ga1 3.057356 1_454
Er3 Ga0 3.057356 1_565
Er3 Ga0 3.118923 1_555
Er3 Ga1 3.118923 1_554
Er3 Ge1 3.204718 1_454
Er3 Ge2 3.204718 1_565
Er4 Ge3 2.947330 1_555
Er4 Ge0 2.947330 1_555
Er4 Ge5 2.992756 1_455
Er4 Ge4 2.992756 1_565
Er4 Ga2 3.057356 1_455
Er4 Ga3 3.057356 1_565
Er4 Ga3 3.118923 1_555
Er4 Ga2 3.118923 1_555
Er4 Ge1 3.204718 1_455
Er4 Ge2 3.204718 1_565
Er5 Ge1 2.947330 1_555
Er5 Ge2 2.947330 1_555
Er5 Ge5 2.992756 1_545
Er5 Ge4 2.992756 1_655
Er5 Ga2 3.057356 1_545
Er5 Ga3 3.057356 1_655
Er5 Ga3 3.118923 1_555
Er5 Ga2 3.118923 1_555
Er5 Ge0 3.204718 1_655
Er5 Ge3 3.204718 1_545
Ga0 Ge2 2.644609 1_555
Ga0 Ge0 2.644609 1_555
Ga0 Ga1 2.761279 1_554
Ga0 Ge4 2.785717 1_555
Ga1 Ge3 2.644609 1_555
Ga1 Ge1 2.644609 1_555
Ga1 Ge5 2.785717 1_555
Ga2 Ge3 2.644609 1_555
Ga2 Ge1 2.644609 1_555
Ga2 Ga3 2.761279 1_555
Ga2 Ge5 2.785717 1_555
Ga3 Ge2 2.644609 1_555
Ga3 Ge0 2.644609 1_555
Ga3 Ge4 2.785717 1_555
Ge0 Ge4 2.612379 1_555
Ge1 Ge5 2.612379 1_555
Ge2 Ge4 2.612379 1_555
Ge3 Ge5 2.612379 1_555
