# generated using pymatgen
data_AgMo3(PO7)2
_symmetry_space_group_name_H-M   'P 1'
_cell_length_a   6.50796300
_cell_length_b   8.34042594
_cell_length_c   10.71220450
_cell_angle_alpha   109.39715972
_cell_angle_beta   90.00000000
_cell_angle_gamma   90.00000000
_symmetry_Int_Tables_number   1
_chemical_formula_structural   AgMo3(PO7)2
_chemical_formula_sum   'Ag2 Mo6 P4 O28'
_cell_volume   548.44611735
_cell_formula_units_Z   2
loop_
 _symmetry_equiv_pos_site_id
 _symmetry_equiv_pos_as_xyz
  1  'x, y, z'
loop_
 _atom_site_type_symbol
 _atom_site_label
 _atom_site_symmetry_multiplicity
 _atom_site_fract_x
 _atom_site_fract_y
 _atom_site_fract_z
 _atom_site_occupancy
  Ag  Ag0  1  0.25000000  0.46814700  0.72078200  1
  Ag  Ag1  1  0.75000100  0.53185400  0.27921900  1
  Mo  Mo0  1  0.75000100  0.76083100  0.00185700  1
  Mo  Mo1  1  0.25000000  0.23916800  0.99814300  1
  Mo  Mo2  1  0.75000100  0.74159300  0.67900300  1
  Mo  Mo3  1  0.75000100  0.16776400  0.62007200  1
  Mo  Mo4  1  0.25000000  0.25840700  0.32099700  1
  Mo  Mo5  1  0.25000000  0.83223600  0.37992900  1
  P  P0  1  0.25000000  0.84747800  0.06543700  1
  P  P1  1  0.75000100  0.15252100  0.93456300  1
  P  P2  1  0.75000100  0.12377300  0.29880200  1
  P  P3  1  0.25000000  0.87622600  0.70119800  1
  O  O0  1  0.25000000  0.94167700  0.58153700  1
  O  O1  1  0.75000100  0.05832300  0.41846300  1
  O  O2  1  0.25000000  0.78167100  0.18408500  1
  O  O3  1  0.75000100  0.21832800  0.81591500  1
  O  O4  1  0.53126900  0.28931800  0.62542100  1
  O  O5  1  0.03126800  0.71068300  0.37457900  1
  O  O6  1  0.46873200  0.71068300  0.37457900  1
  O  O7  1  0.96873100  0.28931800  0.62542100  1
  O  O8  1  0.06156400  0.75952400  0.69473800  1
  O  O9  1  0.56156300  0.24047500  0.30526200  1
  O  O10  1  0.93843700  0.24047500  0.30526200  1
  O  O11  1  0.43843700  0.75952400  0.69473800  1
  O  O12  1  0.75000100  0.60622200  0.07530400  1
  O  O13  1  0.25000000  0.39377700  0.92469600  1
  O  O14  1  0.75000100  0.97054400  0.17143300  1
  O  O15  1  0.25000000  0.02945500  0.82856600  1
  O  O16  1  0.44001900  0.77576800  0.97899300  1
  O  O17  1  0.94001800  0.22423200  0.02100800  1
  O  O18  1  0.55998100  0.22423200  0.02100800  1
  O  O19  1  0.05998200  0.77576800  0.97899300  1
  O  O20  1  0.25000000  0.06947000  0.38289200  1
  O  O21  1  0.25000000  0.36698900  0.19291300  1
  O  O22  1  0.75000100  0.95576700  0.88712000  1
  O  O23  1  0.25000000  0.04423300  0.11288000  1
  O  O24  1  0.75000100  0.57139100  0.53551600  1
  O  O25  1  0.25000000  0.42861000  0.46448400  1
  O  O26  1  0.75000100  0.93053000  0.61710700  1
  O  O27  1  0.75000100  0.63301100  0.80708700  1
loop_
_geom_bond_atom_site_label_1
_geom_bond_atom_site_label_2
_geom_bond_distance
_geom_bond_site_symmetry_2
Ag0 O7 2.367863 1_455
Ag0 O4 2.367863 1_555
Ag0 O13 2.460931 1_555
Ag0 O25 2.654287 1_555
Ag0 O8 2.817444 1_555
Ag0 O11 2.817447 1_555
Ag1 O5 2.367851 1_655
Ag1 O6 2.367861 1_555
Ag1 O12 2.460933 1_555
Ag1 O24 2.654277 1_555
Ag1 O10 2.817455 1_555
Ag1 O9 2.817460 1_555
Mo0 O12 1.719227 1_555
Mo0 O27 2.003052 1_554
Mo0 O19 2.040945 1_654
Mo0 O16 2.040951 1_554
Mo0 O14 2.061233 1_555
Mo0 O22 2.341233 1_554
Mo1 O13 1.719227 1_555
Mo1 O21 2.003054 1_556
Mo1 O18 2.040946 1_556
Mo1 O17 2.040952 1_456
Mo1 O15 2.061239 1_555
Mo1 O23 2.341226 1_556
Mo2 O24 1.711254 1_555
Mo2 O27 1.878311 1_555
Mo2 O26 1.901796 1_555
Mo2 O8 2.036016 1_655
Mo2 O11 2.036022 1_555
Mo2 O22 2.348587 1_555
Mo3 O7 1.737477 1_555
Mo3 O4 1.737488 1_555
Mo3 O26 1.968312 1_545
Mo3 O3 1.997851 1_555
Mo3 O1 2.046454 1_555
Mo4 O25 1.711258 1_555
Mo4 O21 1.878311 1_555
Mo4 O20 1.901789 1_555
Mo4 O10 2.036016 1_455
Mo4 O9 2.036016 1_555
Mo4 O23 2.348587 1_555
Mo5 O6 1.737481 1_555
Mo5 O5 1.737481 1_555
Mo5 O20 1.968319 1_565
Mo5 O2 1.997860 1_555
Mo5 O0 2.046444 1_555
O0 P3 1.551089 1_555
O1 P2 1.551084 1_555
O2 P0 1.542724 1_555
O3 P1 1.542724 1_555
O8 P3 1.552850 1_555
O9 P2 1.552861 1_555
O10 P2 1.552850 1_555
O11 P3 1.552856 1_555
O14 P2 1.528611 1_565
O15 P3 1.528604 1_545
O16 P0 1.541621 1_556
O17 P1 1.541618 1_554
O18 P1 1.541633 1_554
O19 P0 1.541616 1_556
O22 P1 1.548304 1_565
O23 P0 1.548312 1_545
