# generated using pymatgen
data_Er2InNi2
_symmetry_space_group_name_H-M   'P 1'
_cell_length_a   3.47291345
_cell_length_b   7.32169660
_cell_length_c   7.32169660
_cell_angle_alpha   90.00000000
_cell_angle_beta   90.00000000
_cell_angle_gamma   90.00000000
_symmetry_Int_Tables_number   1
_chemical_formula_structural   Er2InNi2
_chemical_formula_sum   'Er4 In2 Ni4'
_cell_volume   186.17330864
_cell_formula_units_Z   2
loop_
 _symmetry_equiv_pos_site_id
 _symmetry_equiv_pos_as_xyz
  1  'x, y, z'
loop_
 _atom_site_type_symbol
 _atom_site_label
 _atom_site_symmetry_multiplicity
 _atom_site_fract_x
 _atom_site_fract_y
 _atom_site_fract_z
 _atom_site_occupancy
  Er  Er0  1  0.50000000  0.17407789  0.67407789  1
  Er  Er1  1  0.50000000  0.82592211  0.32592211  1
  Er  Er2  1  0.50000000  0.32592211  0.17407789  1
  Er  Er3  1  0.50000000  0.67407789  0.82592211  1
  In  In0  1  0.00000000  0.50000000  0.50000000  1
  In  In1  1  -0.00000000  0.00000000  0.00000000  1
  Ni  Ni0  1  -0.00000000  0.61914118  0.11914118  1
  Ni  Ni1  1  0.00000000  0.38085882  0.88085882  1
  Ni  Ni2  1  -0.00000000  0.88085882  0.61914118  1
  Ni  Ni3  1  0.00000000  0.11914118  0.38085882  1
loop_
_geom_bond_atom_site_label_1
_geom_bond_atom_site_label_2
_geom_bond_distance
_geom_bond_site_symmetry_2
Er0 Ni1 2.756737 1_555
Er0 Ni1 2.756737 1_655
Er0 Ni2 2.790355 1_645
Er0 Ni2 2.790355 1_545
Er0 Ni3 2.790355 1_555
Er0 Ni3 2.790355 1_655
Er0 In1 3.214683 1_556
Er0 In1 3.214683 1_656
Er0 In0 3.214683 1_655
Er0 In0 3.214683 1_555
Er1 Ni0 2.756737 1_555
Er1 Ni0 2.756737 1_655
Er1 Ni3 2.790355 1_565
Er1 Ni3 2.790355 1_665
Er1 Ni2 2.790355 1_655
Er1 Ni2 2.790355 1_555
Er1 In1 3.214683 1_565
Er1 In1 3.214683 1_665
Er1 In0 3.214683 1_655
Er1 In0 3.214683 1_555
Er2 Ni3 2.756737 1_655
Er2 Ni3 2.756737 1_555
Er2 Ni0 2.790355 1_655
Er2 Ni1 2.790355 1_654
Er2 Ni1 2.790355 1_554
Er2 Ni0 2.790355 1_555
Er2 In0 3.214683 1_555
Er2 In0 3.214683 1_655
Er2 In1 3.214683 1_555
Er2 In1 3.214683 1_655
Er3 Ni2 2.756737 1_555
Er3 Ni2 2.756737 1_655
Er3 Ni0 2.790355 1_656
Er3 Ni0 2.790355 1_556
Er3 Ni1 2.790355 1_655
Er3 Ni1 2.790355 1_555
Er3 In1 3.214683 1_566
Er3 In1 3.214683 1_666
Er3 In0 3.214683 1_555
Er3 In0 3.214683 1_655
In0 Ni3 2.921789 1_555
In0 Ni0 2.921789 1_555
In0 Ni2 2.921789 1_555
In0 Ni1 2.921789 1_555
In1 Ni2 2.921789 1_544
In1 Ni3 2.921789 1_555
In1 Ni1 2.921789 1_554
In1 Ni0 2.921789 1_545
Ni0 Ni1 2.467281 1_554
Ni2 Ni3 2.467281 1_565
