# generated using pymatgen
data_Ba2TbNbO6
_symmetry_space_group_name_H-M   'P 1'
_cell_length_a   8.56550276
_cell_length_b   8.56550276
_cell_length_c   8.56550276
_cell_angle_alpha   90.00000000
_cell_angle_beta   90.00000000
_cell_angle_gamma   90.00000000
_symmetry_Int_Tables_number   1
_chemical_formula_structural   Ba2TbNbO6
_chemical_formula_sum   'Ba8 Tb4 Nb4 O24'
_cell_volume   628.43241487
_cell_formula_units_Z   4
loop_
 _symmetry_equiv_pos_site_id
 _symmetry_equiv_pos_as_xyz
  1  'x, y, z'
loop_
 _atom_site_type_symbol
 _atom_site_label
 _atom_site_symmetry_multiplicity
 _atom_site_fract_x
 _atom_site_fract_y
 _atom_site_fract_z
 _atom_site_occupancy
  Ba  Ba0  1  0.50000000  0.50000000  0.50000000  1
  Ba  Ba1  1  0.00000000  0.00000000  0.00000000  1
  Ba  Ba2  1  0.00000000  0.00000000  0.50000000  1
  Ba  Ba3  1  0.00000000  0.50000000  0.00000000  1
  Ba  Ba4  1  0.50000000  0.00000000  0.00000000  1
  Ba  Ba5  1  0.50000000  0.50000000  0.00000000  1
  Ba  Ba6  1  0.50000000  0.00000000  0.50000000  1
  Ba  Ba7  1  0.00000000  0.50000000  0.50000000  1
  Tb  Tb0  1  0.25000000  0.25000000  0.25000000  1
  Tb  Tb1  1  0.25000000  0.75000000  0.75000000  1
  Tb  Tb2  1  0.75000000  0.25000000  0.75000000  1
  Tb  Tb3  1  0.75000000  0.75000000  0.25000000  1
  Nb  Nb0  1  0.75000000  0.75000000  0.75000000  1
  Nb  Nb1  1  0.75000000  0.25000000  0.25000000  1
  Nb  Nb2  1  0.25000000  0.75000000  0.25000000  1
  Nb  Nb3  1  0.25000000  0.25000000  0.75000000  1
  O  O0  1  0.23304496  0.26845330  0.51442377  1
  O  O1  1  0.23304496  0.73154670  0.48557623  1
  O  O2  1  0.76695504  0.26845330  0.48557623  1
  O  O3  1  0.76695504  0.73154670  0.51442377  1
  O  O4  1  0.26845330  0.51442377  0.23304496  1
  O  O5  1  0.73154670  0.48557623  0.23304496  1
  O  O6  1  0.26845330  0.48557623  0.76695504  1
  O  O7  1  0.73154670  0.51442377  0.76695504  1
  O  O8  1  0.51442377  0.23304496  0.26845330  1
  O  O9  1  0.48557623  0.23304496  0.73154670  1
  O  O10  1  0.48557623  0.76695504  0.26845330  1
  O  O11  1  0.51442377  0.76695504  0.73154670  1
  O  O12  1  0.26695504  0.23154670  0.98557623  1
  O  O13  1  0.26695504  0.76845330  0.01442377  1
  O  O14  1  0.73304496  0.23154670  0.01442377  1
  O  O15  1  0.73304496  0.76845330  0.98557623  1
  O  O16  1  0.23154670  0.98557623  0.26695504  1
  O  O17  1  0.76845330  0.01442377  0.26695504  1
  O  O18  1  0.23154670  0.01442377  0.73304496  1
  O  O19  1  0.76845330  0.98557623  0.73304496  1
  O  O20  1  0.98557623  0.26695504  0.23154670  1
  O  O21  1  0.01442377  0.26695504  0.76845330  1
  O  O22  1  0.01442377  0.73304496  0.23154670  1
  O  O23  1  0.98557623  0.73304496  0.76845330  1
loop_
_geom_bond_atom_site_label_1
_geom_bond_atom_site_label_2
_geom_bond_distance
_geom_bond_site_symmetry_2
Ba0 O1 3.029415 1_555
Ba0 O3 3.029415 1_555
Ba0 O0 3.029415 1_555
Ba0 O2 3.029415 1_555
Ba0 O9 3.029415 1_555
Ba0 O4 3.029415 1_555
Ba0 O11 3.029415 1_555
Ba0 O8 3.029415 1_555
Ba0 O5 3.029415 1_555
Ba0 O6 3.029415 1_555
Ba0 O7 3.029415 1_555
Ba0 O10 3.029415 1_555
Ba1 O12 3.029415 1_554
Ba1 O13 3.029415 1_545
Ba1 O15 3.029415 1_444
Ba1 O14 3.029415 1_455
Ba1 O19 3.029415 1_444
Ba1 O20 3.029415 1_455
Ba1 O17 3.029415 1_455
Ba1 O22 3.029415 1_545
Ba1 O16 3.029415 1_545
Ba1 O18 3.029415 1_554
Ba1 O21 3.029415 1_554
Ba1 O23 3.029415 1_444
Ba2 O17 2.816629 1_455
Ba2 O19 2.816629 1_445
Ba2 O16 2.816629 1_545
Ba2 O18 2.816629 1_555
Ba2 O2 3.047504 1_455
Ba2 O3 3.047504 1_445
Ba2 O1 3.047504 1_545
Ba2 O0 3.047504 1_555
Ba2 O20 3.245186 1_455
Ba2 O23 3.245186 1_445
Ba2 O22 3.245186 1_545
Ba2 O21 3.245186 1_555
Ba3 O23 2.816629 1_454
Ba3 O20 2.816629 1_455
Ba3 O22 2.816629 1_555
Ba3 O21 2.816629 1_554
Ba3 O5 3.047504 1_455
Ba3 O4 3.047504 1_555
Ba3 O6 3.047504 1_554
Ba3 O7 3.047504 1_454
Ba3 O14 3.245186 1_455
Ba3 O15 3.245186 1_454
Ba3 O13 3.245186 1_555
Ba3 O12 3.245186 1_554
Ba4 O14 2.816629 1_555
Ba4 O13 2.816629 1_545
Ba4 O15 2.816629 1_544
Ba4 O12 2.816629 1_554
Ba4 O9 3.047504 1_554
Ba4 O11 3.047504 1_544
Ba4 O8 3.047504 1_555
Ba4 O10 3.047504 1_545
Ba4 O19 3.245186 1_544
Ba4 O17 3.245186 1_555
Ba4 O16 3.245186 1_545
Ba4 O18 3.245186 1_554
Ba5 O6 2.816629 1_554
Ba5 O7 2.816629 1_554
Ba5 O4 2.816629 1_555
Ba5 O5 2.816629 1_555
Ba5 O13 3.047504 1_555
Ba5 O14 3.047504 1_555
Ba5 O15 3.047504 1_554
Ba5 O12 3.047504 1_554
Ba5 O10 3.245186 1_555
Ba5 O11 3.245186 1_554
Ba5 O9 3.245186 1_554
Ba5 O8 3.245186 1_555
Ba6 O10 2.816629 1_545
Ba6 O9 2.816629 1_555
Ba6 O11 2.816629 1_545
Ba6 O8 2.816629 1_555
Ba6 O18 3.047504 1_555
Ba6 O19 3.047504 1_545
Ba6 O17 3.047504 1_555
Ba6 O16 3.047504 1_545
Ba6 O0 3.245186 1_555
Ba6 O2 3.245186 1_555
Ba6 O3 3.245186 1_545
Ba6 O1 3.245186 1_545
Ba7 O3 2.816629 1_455
Ba7 O0 2.816629 1_555
Ba7 O2 2.816629 1_455
Ba7 O1 2.816629 1_555
Ba7 O23 3.047504 1_455
Ba7 O22 3.047504 1_555
Ba7 O20 3.047504 1_455
Ba7 O21 3.047504 1_555
Ba7 O7 3.245186 1_455
Ba7 O4 3.245186 1_555
Ba7 O5 3.245186 1_455
Ba7 O6 3.245186 1_555
Nb0 O11 2.029214 1_555
Nb0 O7 2.029214 1_555
Nb0 O3 2.029214 1_555
Nb0 O23 2.029214 1_555
Nb0 O15 2.029214 1_555
Nb0 O19 2.029214 1_555
Nb1 O8 2.029214 1_555
Nb1 O14 2.029214 1_555
Nb1 O5 2.029214 1_555
Nb1 O2 2.029214 1_555
Nb1 O17 2.029214 1_555
Nb1 O20 2.029214 1_555
Nb2 O22 2.029214 1_555
Nb2 O10 2.029214 1_555
Nb2 O4 2.029214 1_555
Nb2 O13 2.029214 1_555
Nb2 O1 2.029214 1_555
Nb2 O16 2.029214 1_555
Nb3 O0 2.029214 1_555
Nb3 O9 2.029214 1_555
Nb3 O21 2.029214 1_555
Nb3 O18 2.029214 1_555
Nb3 O6 2.029214 1_555
Nb3 O12 2.029214 1_555
O0 Tb0 2.275071 1_555
O1 Tb1 2.275071 1_555
O2 Tb2 2.275071 1_555
O3 Tb3 2.275071 1_555
O4 Tb0 2.275071 1_555
O5 Tb3 2.275071 1_555
O6 Tb1 2.275071 1_555
O7 Tb2 2.275071 1_555
O8 Tb0 2.275071 1_555
O9 Tb2 2.275071 1_555
O10 Tb3 2.275071 1_555
O11 Tb1 2.275071 1_555
O12 Tb0 2.275071 1_556
O13 Tb1 2.275071 1_554
O14 Tb2 2.275071 1_554
O15 Tb3 2.275071 1_556
O16 Tb0 2.275071 1_565
O17 Tb3 2.275071 1_545
O18 Tb1 2.275071 1_545
O19 Tb2 2.275071 1_565
O20 Tb0 2.275071 1_655
O21 Tb2 2.275071 1_455
O22 Tb3 2.275071 1_455
O23 Tb1 2.275071 1_655
