# generated using pymatgen
data_CoH24C2S2(N3O7)2
_symmetry_space_group_name_H-M   'P 1'
_cell_length_a   7.71714300
_cell_length_b   10.06627300
_cell_length_c   12.05075242
_cell_angle_alpha   82.64834408
_cell_angle_beta   90.00000000
_cell_angle_gamma   90.00000000
_symmetry_Int_Tables_number   1
_chemical_formula_structural   CoH24C2S2(N3O7)2
_chemical_formula_sum   'Co2 H48 C4 S4 N12 O28'
_cell_volume   928.44148157
_cell_formula_units_Z   2
loop_
 _symmetry_equiv_pos_site_id
 _symmetry_equiv_pos_as_xyz
  1  'x, y, z'
loop_
 _atom_site_type_symbol
 _atom_site_label
 _atom_site_symmetry_multiplicity
 _atom_site_fract_x
 _atom_site_fract_y
 _atom_site_fract_z
 _atom_site_occupancy
  Co  Co0  1  0.00000000  0.50000000  0.00000000  1
  Co  Co1  1  0.50000000  0.50000000  0.50000000  1
  H  H0  1  0.33528800  0.51389000  0.03574200  1
  H  H1  1  0.83528800  0.48611000  0.46425800  1
  H  H2  1  0.66471200  0.48611000  0.96425800  1
  H  H3  1  0.16471200  0.51389000  0.53574200  1
  H  H4  1  0.31204500  0.39006200  0.96436400  1
  H  H5  1  0.81204500  0.60993800  0.53563600  1
  H  H6  1  0.68795500  0.60993800  0.03563600  1
  H  H7  1  0.18795500  0.39006200  0.46436400  1
  H  H8  1  0.99014700  0.48407600  0.23159000  1
  H  H9  1  0.49014700  0.51592400  0.26841000  1
  H  H10  1  0.00985300  0.51592400  0.76841000  1
  H  H11  1  0.50985300  0.48407600  0.73159000  1
  H  H12  1  0.15938600  0.56284800  0.18191900  1
  H  H13  1  0.65938600  0.43715200  0.31808100  1
  H  H14  1  0.84061400  0.43715200  0.81808100  1
  H  H15  1  0.34061400  0.56284800  0.68191900  1
  H  H16  1  0.04486900  0.72829300  0.86985900  1
  H  H17  1  0.54486900  0.27170700  0.63014100  1
  H  H18  1  0.95513100  0.27170700  0.13014100  1
  H  H19  1  0.45513100  0.72829300  0.36985900  1
  H  H20  1  0.13045100  0.73783800  0.98873800  1
  H  H21  1  0.63045100  0.26216200  0.51126200  1
  H  H22  1  0.86954900  0.26216200  0.01126200  1
  H  H23  1  0.36954900  0.73783800  0.48873800  1
  H  H24  1  0.21203600  0.87793400  0.28003500  1
  H  H25  1  0.71203600  0.12206600  0.21996500  1
  H  H26  1  0.78796400  0.12206600  0.71996500  1
  H  H27  1  0.28796400  0.87793400  0.78003500  1
  H  H28  1  0.10711900  0.86911700  0.40885700  1
  H  H29  1  0.60711900  0.13088300  0.09114300  1
  H  H30  1  0.89288100  0.13088300  0.59114300  1
  H  H31  1  0.39288100  0.86911700  0.90885700  1
  H  H32  1  0.82787300  0.85374100  0.12358500  1
  H  H33  1  0.32787300  0.14625900  0.37641500  1
  H  H34  1  0.17212700  0.14625900  0.87641500  1
  H  H35  1  0.67212700  0.85374100  0.62358500  1
  H  H36  1  0.05098300  0.87776300  0.11736300  1
  H  H37  1  0.55098300  0.12223700  0.38263700  1
  H  H38  1  0.94901700  0.12223700  0.88263700  1
  H  H39  1  0.44901700  0.87776300  0.61736300  1
  H  H40  1  0.80882700  0.83194800  0.41719500  1
  H  H41  1  0.30882700  0.16805200  0.08280500  1
  H  H42  1  0.19117300  0.16805200  0.58280500  1
  H  H43  1  0.69117300  0.83194800  0.91719500  1
  H  H44  1  0.68394400  0.84527500  0.29402500  1
  H  H45  1  0.18394400  0.15472500  0.20597500  1
  H  H46  1  0.31605600  0.15472500  0.70597500  1
  H  H47  1  0.81605600  0.84527500  0.79402500  1
  C  C0  1  0.94596200  0.87068100  0.27220900  1
  C  C1  1  0.44596200  0.12931900  0.22779100  1
  C  C2  1  0.05403800  0.12931900  0.72779100  1
  C  C3  1  0.55403800  0.87068100  0.77220900  1
  S  S0  1  0.56255000  0.24549900  0.87101200  1
  S  S1  1  0.06255000  0.75450100  0.62898800  1
  S  S2  1  0.43745000  0.75450100  0.12898800  1
  S  S3  1  0.93745000  0.24549900  0.37101200  1
  N  N0  1  0.09846000  0.87648400  0.32362900  1
  N  N1  1  0.59846000  0.12351600  0.17637100  1
  N  N2  1  0.90154000  0.12351600  0.67637100  1
  N  N3  1  0.40154000  0.87648400  0.82362900  1
  N  N4  1  0.93762600  0.88589100  0.15944200  1
  N  N5  1  0.43762600  0.11410900  0.34055800  1
  N  N6  1  0.06237400  0.11410900  0.84055800  1
  N  N7  1  0.56237400  0.88589100  0.65944200  1
  N  N8  1  0.80042200  0.85562900  0.33231200  1
  N  N9  1  0.30042200  0.14437100  0.16768800  1
  N  N10  1  0.19957800  0.14437100  0.66768800  1
  N  N11  1  0.69957800  0.85562900  0.83231200  1
  O  O0  1  0.26601000  0.47874200  0.97717200  1
  O  O1  1  0.76601000  0.52125800  0.52282800  1
  O  O2  1  0.73399000  0.52125800  0.02282800  1
  O  O3  1  0.23399000  0.47874200  0.47717200  1
  O  O4  1  0.03802100  0.54215300  0.16578500  1
  O  O5  1  0.53802100  0.45784700  0.33421500  1
  O  O6  1  0.96197900  0.45784700  0.83421500  1
  O  O7  1  0.46197900  0.54215300  0.66578500  1
  O  O8  1  0.03080900  0.69984100  0.95172100  1
  O  O9  1  0.53080900  0.30015900  0.54827900  1
  O  O10  1  0.96919100  0.30015900  0.04827900  1
  O  O11  1  0.46919100  0.69984100  0.45172100  1
  O  O12  1  0.39332200  0.23233700  0.93158900  1
  O  O13  1  0.89332200  0.76766300  0.56841100  1
  O  O14  1  0.60667800  0.76766300  0.06841100  1
  O  O15  1  0.10667800  0.23233700  0.43158900  1
  O  O16  1  0.54769000  0.18714900  0.76362000  1
  O  O17  1  0.04769000  0.81285100  0.73638000  1
  O  O18  1  0.45231000  0.81285100  0.23638000  1
  O  O19  1  0.95231000  0.18714900  0.26362000  1
  O  O20  1  0.70161300  0.17481800  0.94196000  1
  O  O21  1  0.20161300  0.82518200  0.55804000  1
  O  O22  1  0.29838700  0.82518200  0.05804000  1
  O  O23  1  0.79838700  0.17481800  0.44196000  1
  O  O24  1  0.60907200  0.39162400  0.84576200  1
  O  O25  1  0.10907200  0.60837600  0.65423800  1
  O  O26  1  0.39092800  0.60837600  0.15423800  1
  O  O27  1  0.89092800  0.39162400  0.34576200  1
loop_
_geom_bond_atom_site_label_1
_geom_bond_atom_site_label_2
_geom_bond_distance
_geom_bond_site_symmetry_2
Co0 O10 2.035252 1_455
Co0 O8 2.035252 1_554
Co0 O0 2.085827 1_554
Co0 O2 2.085827 1_455
Co0 O6 2.115285 1_454
Co0 O4 2.115285 1_555
Co1 O9 2.035252 1_555
Co1 O11 2.035252 1_555
Co1 O1 2.085827 1_555
Co1 O3 2.085827 1_555
Co1 O7 2.115285 1_555
Co1 O5 2.115285 1_555
H0 O0 0.986452 1_554
H1 O1 0.986452 1_555
H2 O2 0.986452 1_556
H3 O3 0.986452 1_555
H4 O0 0.991042 1_555
H5 O1 0.991042 1_555
H6 O2 0.991042 1_555
H7 O3 0.991042 1_555
H8 O4 0.994222 1_655
H9 O5 0.994222 1_555
H10 O6 0.994222 1_455
H11 O7 0.994222 1_555
H12 O4 0.984260 1_555
H13 O5 0.984260 1_555
H14 O6 0.984260 1_555
H15 O7 0.984260 1_555
H16 O8 0.997333 1_555
H16 O17 1.721030 1_555
H17 O9 0.997333 1_555
H17 O16 1.721030 1_555
H18 O10 0.997333 1_555
H18 O19 1.721030 1_555
H19 O11 0.997333 1_555
H19 O18 1.721030 1_555
H20 O8 0.990070 1_555
H21 O9 0.990070 1_555
H22 O10 0.990070 1_555
H23 O11 0.990070 1_555
H24 N0 1.021007 1_555
H25 N1 1.021007 1_555
H26 N2 1.021007 1_555
H27 N3 1.021007 1_555
H28 N0 1.022413 1_555
H29 N1 1.022413 1_555
H30 N2 1.022413 1_555
H31 N3 1.022413 1_555
H32 N4 1.022063 1_555
H33 N5 1.022063 1_555
H34 N6 1.022063 1_555
H35 N7 1.022063 1_555
H36 N4 1.019660 1_455
H37 N5 1.019660 1_555
H38 N6 1.019660 1_655
H39 N7 1.019660 1_555
H40 N8 1.022234 1_555
H41 N9 1.022234 1_555
H42 N10 1.022234 1_555
H43 N11 1.022234 1_555
H44 N8 1.021777 1_555
H45 N9 1.021777 1_555
H46 N10 1.021777 1_555
H47 N11 1.021777 1_555
C0 N8 1.334517 1_555
C0 N0 1.334771 1_655
C0 N4 1.349451 1_555
C1 N9 1.334517 1_555
C1 N1 1.334771 1_555
C1 N5 1.349451 1_555
C2 N10 1.334517 1_555
C2 N2 1.334771 1_455
C2 N6 1.349451 1_555
C3 N11 1.334517 1_555
C3 N3 1.334771 1_555
C3 N7 1.349451 1_555
O12 S0 1.493728 1_555
O13 S1 1.493728 1_655
O14 S2 1.493728 1_555
O15 S3 1.493728 1_455
O16 S0 1.492488 1_555
O17 S1 1.492488 1_555
O18 S2 1.492488 1_555
O19 S3 1.492488 1_555
O20 S0 1.494397 1_555
O21 S1 1.494397 1_555
O22 S2 1.494397 1_555
O23 S3 1.494397 1_555
O24 S0 1.506846 1_555
O25 S1 1.506846 1_555
O26 S2 1.506846 1_555
O27 S3 1.506846 1_555
