# generated using pymatgen
data_C
_symmetry_space_group_name_H-M   'P 1'
_cell_length_a   10.20551591
_cell_length_b   10.41973578
_cell_length_c   10.53784370
_cell_angle_alpha   91.36441009
_cell_angle_beta   93.48189683
_cell_angle_gamma   89.61530976
_symmetry_Int_Tables_number   1
_chemical_formula_structural   C
_chemical_formula_sum   C100
_cell_volume   1118.18017356
_cell_formula_units_Z   100
loop_
 _symmetry_equiv_pos_site_id
 _symmetry_equiv_pos_as_xyz
  1  'x, y, z'
loop_
 _atom_site_type_symbol
 _atom_site_label
 _atom_site_symmetry_multiplicity
 _atom_site_fract_x
 _atom_site_fract_y
 _atom_site_fract_z
 _atom_site_occupancy
  C  C0  1  0.02002400  0.72901100  0.74481900  1
  C  C1  1  0.95553600  0.66796900  0.64579500  1
  C  C2  1  0.37661600  0.46369600  0.72629300  1
  C  C3  1  0.74940900  0.28983700  0.86757000  1
  C  C4  1  0.88980200  0.70026400  0.95675500  1
  C  C5  1  0.26114900  0.97901500  0.62647700  1
  C  C6  1  0.79809100  0.35051800  0.43157100  1
  C  C7  1  0.18868600  0.20406300  0.87338600  1
  C  C8  1  0.20848400  0.71559200  0.10589200  1
  C  C9  1  0.21285100  0.90297600  0.25622000  1
  C  C10  1  0.92123600  0.21882700  0.59946700  1
  C  C11  1  0.87830800  0.34010900  0.55313500  1
  C  C12  1  0.42793400  0.99340400  0.44631000  1
  C  C13  1  0.50631600  0.08380900  0.38298300  1
  C  C14  1  0.42886300  0.44259700  0.86123900  1
  C  C15  1  0.12438800  0.60410200  0.90906500  1
  C  C16  1  0.84286400  0.87826900  0.27986600  1
  C  C17  1  0.02118700  0.05333700  0.20387000  1
  C  C18  1  0.39720700  0.98970800  0.57420200  1
  C  C19  1  0.90790300  0.95109400  0.77245500  1
  C  C20  1  0.09900200  0.84325900  0.71438100  1
  C  C21  1  0.46301000  0.79115300  0.77477000  1
  C  C22  1  0.55339400  0.33203400  0.64510900  1
  C  C23  1  0.44987600  0.87827200  0.00818000  1
  C  C24  1  0.25252200  0.50457500  0.72719800  1
  C  C25  1  0.86665700  0.61777100  0.19262400  1
  C  C26  1  0.22607100  0.29946800  0.34177900  1
  C  C27  1  0.89451100  0.38381800  0.31244400  1
  C  C28  1  0.09592200  0.97319000  0.31107200  1
  C  C29  1  0.14965000  0.02692300  0.53995000  1
  C  C30  1  0.07621600  0.00058400  0.08663700  1
  C  C31  1  0.82891700  0.98798900  0.34854500  1
  C  C32  1  0.66415300  0.81655300  0.92886300  1
  C  C33  1  0.51583700  0.55803100  0.17065600  1
  C  C34  1  0.08488800  0.82943100  0.94829800  1
  C  C35  1  0.02343400  0.70966500  0.88842000  1
  C  C36  1  0.02245600  0.02019000  0.57509700  1
  C  C37  1  0.65688900  0.23298200  0.80368200  1
  C  C38  1  0.52591600  0.52237900  0.91125200  1
  C  C39  1  0.33359400  0.84502200  0.94909200  1
  C  C40  1  0.23059100  0.87326000  0.71534300  1
  C  C41  1  0.86051200  0.47317100  0.99501700  1
  C  C42  1  0.86242600  0.56850900  0.42932700  1
  C  C43  1  0.57373900  0.87483400  0.00062400  1
  C  C44  1  0.17261800  0.54393800  0.80843600  1
  C  C45  1  0.58813000  0.20148100  0.39748100  1
  C  C46  1  0.17391400  0.06130000  0.40419700  1
  C  C47  1  0.14257200  0.65390800  0.30243500  1
  C  C48  1  0.96210100  0.39758000  0.64623800  1
  C  C49  1  0.25228200  0.36272600  0.00769000  1
  C  C50  1  0.37315900  0.07160200  0.67217500  1
  C  C51  1  0.82260200  0.37219900  0.93475700  1
  C  C52  1  0.74180700  0.48425500  0.42514200  1
  C  C53  1  0.24046200  0.48183700  0.08614200  1
  C  C54  1  0.81722200  0.75251800  0.23467400  1
  C  C55  1  0.42519900  0.48756700  0.24724600  1
  C  C56  1  0.91569600  0.10773700  0.52796400  1
  C  C57  1  0.19025500  0.59515400  0.03817200  1
  C  C58  1  0.00001000  0.94783100  0.68577600  1
  C  C59  1  0.02670200  0.18523800  0.25985100  1
  C  C60  1  0.32603500  0.23134700  0.84211100  1
  C  C61  1  0.62312600  0.51337100  0.36434100  1
  C  C62  1  0.57892700  0.74870900  0.82738400  1
  C  C63  1  0.30454500  0.00251400  0.35165000  1
  C  C64  1  0.34101700  0.82673200  0.80379500  1
  C  C65  1  0.87489700  0.59243100  0.04765500  1
  C  C66  1  0.29536300  0.47290000  0.21715100  1
  C  C67  1  0.35181200  0.34508100  0.91748400  1
  C  C68  1  0.94712600  0.28559900  0.25779200  1
  C  C69  1  0.95495700  0.96238000  0.28490100  1
  C  C70  1  0.21266800  0.83093900  0.02402300  1
  C  C71  1  0.48910300  0.30430800  0.36941500  1
  C  C72  1  0.16275300  0.26071500  0.99826800  1
  C  C73  1  0.80872800  0.80581300  0.93394900  1
  C  C74  1  0.91079000  0.62784800  0.53616300  1
  C  C75  1  0.20183700  0.74839700  0.23862800  1
  C  C76  1  0.53962100  0.23416900  0.73167800  1
  C  C77  1  0.81226400  0.10036700  0.42984400  1
  C  C78  1  0.61496400  0.60112500  0.25668800  1
  C  C79  1  0.50839000  0.43326800  0.34895400  1
  C  C80  1  0.09128800  0.53443400  0.30831100  1
  C  C81  1  0.49354300  0.45208000  0.65232500  1
  C  C82  1  0.38430500  0.11636700  0.31644300  1
  C  C83  1  0.58141800  0.24614500  0.09395500  1
  C  C84  1  0.93499100  0.52707700  0.30651400  1
  C  C85  1  0.09271800  0.22087600  0.78486200  1
  C  C86  1  0.54451300  0.49354100  0.04746300  1
  C  C87  1  0.40809700  0.17429900  0.75291200  1
  C  C88  1  0.00818500  0.27047200  0.70262200  1
  C  C89  1  0.72382300  0.21388000  0.41418100  1
  C  C90  1  0.57155600  0.55398300  0.69461700  1
  C  C91  1  0.19363900  0.42786900  0.29772100  1
  C  C92  1  0.13908700  0.19542800  0.35195200  1
  C  C93  1  0.57990800  0.60759900  0.81287400  1
  C  C94  1  0.36105500  0.24764600  0.33542400  1
  C  C95  1  0.19272300  0.93824800  0.11752800  1
  C  C96  1  0.01177800  0.93548500  0.97442000  1
  C  C97  1  0.88673800  0.92018900  0.89181800  1
  C  C98  1  0.56057700  0.36448500  0.07028300  1
  C  C99  1  0.73087900  0.66057200  0.22583000  1
loop_
_geom_bond_atom_site_label_1
_geom_bond_atom_site_label_2
_geom_bond_distance
_geom_bond_site_symmetry_2
C0 C1 1.348026 1_455
C0 C20 1.494034 1_555
C0 C35 1.529638 1_555
C1 C74 1.278071 1_555
C2 C24 1.333953 1_555
C2 C81 1.467217 1_555
C3 C37 1.267696 1_555
C3 C51 1.308115 1_555
C4 C73 1.388564 1_555
C4 C65 1.508111 1_556
C5 C50 1.547627 1_565
C6 C89 1.618724 1_555
C7 C85 1.324627 1_555
C7 C72 1.467492 1_555
C9 C95 1.517035 1_555
C10 C56 1.365643 1_555
C10 C11 1.422422 1_555
C10 C88 1.456027 1_655
C11 C48 1.389042 1_555
C11 C6 1.483583 1_555
C12 C18 1.403602 1_555
C12 C13 1.441342 1_565
C12 C63 1.562074 1_565
C13 C82 1.434169 1_555
C13 C45 1.487673 1_555
C14 C38 1.369912 1_555
C14 C67 1.448480 1_555
C14 C2 1.508659 1_555
C15 C44 1.336915 1_555
C15 C57 1.485144 1_556
C15 C35 1.512495 1_555
C16 C31 1.349813 1_555
C16 C54 1.404240 1_555
C16 C69 1.443417 1_555
C17 C30 1.480369 1_555
C17 C59 1.482724 1_555
C17 C69 1.483732 1_445
C17 C28 1.577030 1_545
C18 C50 1.356572 1_565
C18 C5 1.530303 1_555
C19 C97 1.336305 1_555
C19 C58 1.349613 1_655
C20 C40 1.380263 1_555
C20 C58 1.504202 1_555
C21 C64 1.347469 1_555
C21 C62 1.351831 1_555
C22 C81 1.390807 1_555
C22 C76 1.397713 1_555
C23 C43 1.271620 1_555
C23 C39 1.349641 1_554
C24 C44 1.276576 1_555
C25 C99 1.511498 1_555
C25 C65 1.551332 1_555
C25 C54 1.552479 1_555
C25 C84 1.662304 1_555
C26 C92 1.415894 1_555
C26 C91 1.456043 1_555
C26 C94 1.480972 1_555
C27 C68 1.292092 1_555
C27 C84 1.555200 1_555
C27 C6 1.685211 1_555
C28 C69 1.452886 1_455
C28 C46 1.520350 1_565
C28 C9 1.531437 1_555
C29 C36 1.374034 1_555
C29 C5 1.504471 1_545
C29 C46 1.518125 1_555
C30 C95 1.376331 1_545
C30 C96 1.471148 1_544
C31 C77 1.449554 1_565
C31 C69 1.505734 1_555
C32 C43 1.359193 1_556
C32 C73 1.476770 1_555
C32 C62 1.503021 1_555
C33 C78 1.386458 1_555
C33 C55 1.474495 1_555
C33 C86 1.491457 1_555
C34 C96 1.361254 1_555
C34 C70 1.486899 1_556
C34 C35 1.507898 1_555
C35 C4 1.585084 1_455
C36 C58 1.434531 1_545
C36 C56 1.486078 1_455
C37 C76 1.377719 1_555
C38 C86 1.474206 1_556
C38 C93 1.512162 1_555
C39 C70 1.514717 1_556
C39 C64 1.544790 1_555
C40 C64 1.503481 1_555
C40 C5 1.509207 1_555
C41 C51 1.266352 1_555
C41 C65 1.353944 1_556
C42 C74 1.340461 1_555
C42 C52 1.514610 1_555
C42 C84 1.579632 1_555
C45 C89 1.391796 1_555
C45 C71 1.490314 1_555
C46 C92 1.545594 1_555
C46 C63 1.587978 1_555
C47 C80 1.357889 1_555
C47 C75 1.369739 1_555
C48 C88 1.524307 1_655
C49 C72 1.404100 1_554
C49 C67 1.440697 1_554
C49 C53 1.483102 1_555
C50 C87 1.385989 1_555
C52 C61 1.370992 1_555
C52 C6 1.505127 1_555
C53 C57 1.378783 1_555
C53 C66 1.462871 1_555
C54 C99 1.303890 1_555
C55 C66 1.352420 1_555
C55 C79 1.449669 1_555
C56 C77 1.433169 1_555
C57 C8 1.436343 1_555
C59 C68 1.319507 1_455
C59 C92 1.459533 1_555
C60 C87 1.414420 1_555
C60 C67 1.427746 1_555
C60 C7 1.490026 1_555
C61 C79 1.441407 1_555
C61 C78 1.472022 1_555
C62 C93 1.474662 1_555
C63 C82 1.509367 1_555
C63 C9 1.676823 1_545
C66 C91 1.466745 1_555
C70 C95 1.493782 1_555
C70 C8 1.498394 1_555
C71 C79 1.383237 1_555
C71 C94 1.458775 1_555
C73 C97 1.527127 1_555
C75 C8 1.437495 1_555
C75 C9 1.620786 1_555
C76 C87 1.515023 1_555
C77 C89 1.489204 1_555
C78 C99 1.398215 1_555
C80 C91 1.526156 1_555
C80 C84 1.596388 1_455
C81 C90 1.380448 1_555
C82 C94 1.398505 1_555
C83 C98 1.277737 1_555
C85 C88 1.298805 1_555
C86 C98 1.378641 1_555
C90 C93 1.351630 1_555
C96 C97 1.507550 1_455
