# generated using pymatgen
data_HgAu3
_symmetry_space_group_name_H-M   'P 1'
_cell_length_a   6.11865640
_cell_length_b   6.11865640
_cell_length_c   19.19936600
_cell_angle_alpha   90.00000000
_cell_angle_beta   90.00000000
_cell_angle_gamma   120.00000437
_symmetry_Int_Tables_number   1
_chemical_formula_structural   HgAu3
_chemical_formula_sum   'Hg8 Au24'
_cell_volume   622.48606260
_cell_formula_units_Z   8
loop_
 _symmetry_equiv_pos_site_id
 _symmetry_equiv_pos_as_xyz
  1  'x, y, z'
loop_
 _atom_site_type_symbol
 _atom_site_label
 _atom_site_symmetry_multiplicity
 _atom_site_fract_x
 _atom_site_fract_y
 _atom_site_fract_z
 _atom_site_occupancy
  Hg  Hg0_0  1  0.16666650  0.33333350  0.00000000  1
  Hg  Hg0_1  1  0.16666650  0.33333350  0.50000000  1
  Hg  Hg0_2  1  0.16666650  0.83333350  0.00000000  1
  Hg  Hg0_3  1  0.16666650  0.83333350  0.50000000  1
  Hg  Hg0_4  1  0.66666650  0.33333350  0.00000000  1
  Hg  Hg0_5  1  0.66666650  0.33333350  0.50000000  1
  Hg  Hg0_6  1  0.66666650  0.83333350  0.00000000  1
  Hg  Hg0_7  1  0.66666650  0.83333350  0.50000000  1
  Au  Au0_0  1  0.16666650  0.33333350  0.25000000  1
  Au  Au0_1  1  0.16666650  0.33333350  0.75000000  1
  Au  Au0_2  1  0.16666650  0.83333350  0.25000000  1
  Au  Au0_3  1  0.16666650  0.83333350  0.75000000  1
  Au  Au0_4  1  0.66666650  0.33333350  0.25000000  1
  Au  Au0_5  1  0.66666650  0.33333350  0.75000000  1
  Au  Au0_6  1  0.66666650  0.83333350  0.25000000  1
  Au  Au0_7  1  0.66666650  0.83333350  0.75000000  1
  Au  Au1_0  1  0.00000000  0.00000000  0.12956700  1
  Au  Au1_1  1  0.00000000  0.00000000  0.62956700  1
  Au  Au1_2  1  0.00000000  0.50000000  0.12956700  1
  Au  Au1_3  1  0.00000000  0.50000000  0.62956700  1
  Au  Au1_4  1  0.50000000  0.00000000  0.12956700  1
  Au  Au1_5  1  0.50000000  0.00000000  0.62956700  1
  Au  Au1_6  1  0.50000000  0.50000000  0.12956700  1
  Au  Au1_7  1  0.50000000  0.50000000  0.62956700  1
  Au  Au2_0  1  0.00000000  0.00000000  0.37043300  1
  Au  Au2_1  1  0.00000000  0.00000000  0.87043300  1
  Au  Au2_2  1  0.00000000  0.50000000  0.37043300  1
  Au  Au2_3  1  0.00000000  0.50000000  0.87043300  1
  Au  Au2_4  1  0.50000000  0.00000000  0.37043300  1
  Au  Au2_5  1  0.50000000  0.00000000  0.87043300  1
  Au  Au2_6  1  0.50000000  0.50000000  0.37043300  1
  Au  Au2_7  1  0.50000000  0.50000000  0.87043300  1
loop_
_geom_bond_atom_site_label_1
_geom_bond_atom_site_label_2
_geom_bond_distance
_geom_bond_site_symmetry_2
Hg0_0 Hg0_6 3.059328 1_555
Hg0_0 Hg0_6 3.059328 1_445
Hg0_0 Hg0_4 3.059328 1_555
Hg0_0 Hg0_2 3.059328 1_555
Hg0_0 Hg0_2 3.059328 1_545
Hg0_0 Hg0_4 3.059328 1_455
Hg0_1 Hg0_7 3.059328 1_555
Hg0_1 Hg0_7 3.059328 1_445
Hg0_1 Hg0_5 3.059328 1_555
Hg0_1 Hg0_3 3.059328 1_545
Hg0_1 Hg0_3 3.059328 1_555
Hg0_1 Hg0_5 3.059328 1_455
Hg0_2 Hg0_4 3.059328 1_565
Hg0_2 Hg0_4 3.059328 1_455
Hg0_2 Hg0_6 3.059328 1_455
Hg0_2 Hg0_6 3.059328 1_555
Hg0_3 Hg0_5 3.059328 1_565
Hg0_3 Hg0_5 3.059328 1_455
Hg0_3 Hg0_7 3.059328 1_555
Hg0_3 Hg0_7 3.059328 1_455
Hg0_4 Hg0_6 3.059328 1_555
Hg0_4 Hg0_6 3.059328 1_545
Hg0_5 Hg0_7 3.059328 1_555
Hg0_5 Hg0_7 3.059328 1_545
Au0_0 Au2_2 2.909685 1_555
Au0_0 Au1_2 2.909685 1_555
Au0_0 Au1_6 2.909686 1_555
Au0_0 Au1_0 2.909686 1_555
Au0_0 Au2_0 2.909686 1_555
Au0_0 Au2_6 2.909686 1_555
Au0_0 Au0_6 3.059328 1_555
Au0_0 Au0_6 3.059328 1_445
Au0_0 Au0_4 3.059328 1_555
Au0_0 Au0_2 3.059328 1_555
Au0_0 Au0_2 3.059328 1_545
Au0_0 Au0_4 3.059328 1_455
Au0_1 Au2_3 2.909685 1_555
Au0_1 Au1_3 2.909685 1_555
Au0_1 Au2_1 2.909686 1_555
Au0_1 Au2_7 2.909686 1_555
Au0_1 Au1_7 2.909686 1_555
Au0_1 Au1_1 2.909686 1_555
Au0_1 Au0_7 3.059328 1_555
Au0_1 Au0_7 3.059328 1_445
Au0_1 Au0_5 3.059328 1_555
Au0_1 Au0_3 3.059328 1_545
Au0_1 Au0_3 3.059328 1_555
Au0_1 Au0_5 3.059328 1_455
Au0_2 Au1_0 2.909685 1_565
Au0_2 Au2_0 2.909685 1_565
Au0_2 Au1_4 2.909686 1_565
Au0_2 Au2_4 2.909686 1_565
Au0_2 Au2_2 2.909686 1_555
Au0_2 Au1_2 2.909686 1_555
Au0_2 Au0_4 3.059328 1_565
Au0_2 Au0_4 3.059328 1_455
Au0_2 Au0_6 3.059328 1_455
Au0_2 Au0_6 3.059328 1_555
Au0_3 Au2_1 2.909685 1_565
Au0_3 Au1_1 2.909685 1_565
Au0_3 Au2_3 2.909686 1_555
Au0_3 Au2_5 2.909686 1_565
Au0_3 Au1_5 2.909686 1_565
Au0_3 Au1_3 2.909686 1_555
Au0_3 Au0_5 3.059328 1_565
Au0_3 Au0_5 3.059328 1_455
Au0_3 Au0_7 3.059328 1_555
Au0_3 Au0_7 3.059328 1_455
Au0_4 Au2_6 2.909685 1_555
Au0_4 Au1_6 2.909685 1_555
Au0_4 Au2_4 2.909686 1_555
Au0_4 Au1_4 2.909686 1_555
Au0_4 Au2_2 2.909686 1_655
Au0_4 Au1_2 2.909686 1_655
Au0_4 Au0_6 3.059328 1_555
Au0_4 Au0_6 3.059328 1_545
Au0_5 Au2_7 2.909685 1_555
Au0_5 Au1_7 2.909685 1_555
Au0_5 Au2_3 2.909686 1_655
Au0_5 Au2_5 2.909686 1_555
Au0_5 Au1_5 2.909686 1_555
Au0_5 Au1_3 2.909686 1_655
Au0_5 Au0_7 3.059328 1_555
Au0_5 Au0_7 3.059328 1_545
Au0_6 Au2_4 2.909685 1_565
Au0_6 Au1_4 2.909685 1_565
Au0_6 Au2_6 2.909686 1_555
Au0_6 Au1_6 2.909686 1_555
Au0_6 Au1_0 2.909686 1_665
Au0_6 Au2_0 2.909686 1_665
Au0_7 Au2_5 2.909685 1_565
Au0_7 Au1_5 2.909685 1_565
Au0_7 Au2_7 2.909686 1_555
Au0_7 Au2_1 2.909686 1_665
Au0_7 Au1_7 2.909686 1_555
Au0_7 Au1_1 2.909686 1_665
Au1_0 Hg0_2 3.050901 1_545
Au1_0 Hg0_0 3.050903 1_555
Au1_0 Hg0_6 3.050903 1_445
Au1_0 Au1_6 3.059328 1_555
Au1_0 Au1_6 3.059328 1_445
Au1_0 Au1_4 3.059328 1_555
Au1_0 Au1_2 3.059328 1_545
Au1_0 Au1_4 3.059328 1_455
Au1_0 Au1_2 3.059328 1_555
Au1_1 Hg0_3 3.050901 1_545
Au1_1 Hg0_1 3.050903 1_555
Au1_1 Hg0_7 3.050903 1_445
Au1_1 Au1_7 3.059328 1_555
Au1_1 Au1_7 3.059328 1_445
Au1_1 Au1_5 3.059328 1_555
Au1_1 Au1_3 3.059328 1_555
Au1_1 Au1_5 3.059328 1_455
Au1_1 Au1_3 3.059328 1_545
Au1_2 Hg0_0 3.050901 1_555
Au1_2 Hg0_2 3.050903 1_555
Au1_2 Hg0_4 3.050903 1_455
Au1_2 Au1_4 3.059328 1_565
Au1_2 Au1_4 3.059328 1_455
Au1_2 Au1_6 3.059328 1_455
Au1_2 Au1_6 3.059328 1_555
Au1_3 Hg0_1 3.050901 1_555
Au1_3 Hg0_3 3.050903 1_555
Au1_3 Hg0_5 3.050903 1_455
Au1_3 Au1_5 3.059328 1_565
Au1_3 Au1_5 3.059328 1_455
Au1_3 Au1_7 3.059328 1_455
Au1_3 Au1_7 3.059328 1_555
Au1_4 Hg0_6 3.050901 1_545
Au1_4 Hg0_4 3.050903 1_555
Au1_4 Hg0_2 3.050903 1_545
Au1_4 Au1_6 3.059328 1_555
Au1_4 Au1_6 3.059328 1_545
Au1_5 Hg0_7 3.050901 1_545
Au1_5 Hg0_3 3.050903 1_545
Au1_5 Hg0_5 3.050903 1_555
Au1_5 Au1_7 3.059328 1_555
Au1_5 Au1_7 3.059328 1_545
Au1_6 Hg0_4 3.050901 1_555
Au1_6 Hg0_6 3.050903 1_555
Au1_6 Hg0_0 3.050903 1_555
Au1_7 Hg0_5 3.050901 1_555
Au1_7 Hg0_7 3.050903 1_555
Au1_7 Hg0_1 3.050903 1_555
Au2_0 Hg0_3 3.050901 1_545
Au2_0 Hg0_1 3.050903 1_555
Au2_0 Hg0_7 3.050903 1_445
Au2_0 Au2_6 3.059328 1_555
Au2_0 Au2_6 3.059328 1_445
Au2_0 Au2_4 3.059328 1_555
Au2_0 Au2_2 3.059328 1_555
Au2_0 Au2_2 3.059328 1_545
Au2_0 Au2_4 3.059328 1_455
Au2_1 Hg0_2 3.050901 1_546
Au2_1 Hg0_0 3.050903 1_556
Au2_1 Hg0_6 3.050903 1_446
Au2_1 Au2_7 3.059328 1_555
Au2_1 Au2_7 3.059328 1_445
Au2_1 Au2_5 3.059328 1_555
Au2_1 Au2_3 3.059328 1_555
Au2_1 Au2_3 3.059328 1_545
Au2_1 Au2_5 3.059328 1_455
Au2_2 Hg0_1 3.050901 1_555
Au2_2 Hg0_3 3.050903 1_555
Au2_2 Hg0_5 3.050903 1_455
Au2_2 Au2_4 3.059328 1_565
Au2_2 Au2_4 3.059328 1_455
Au2_2 Au2_6 3.059328 1_455
Au2_2 Au2_6 3.059328 1_555
Au2_3 Hg0_0 3.050901 1_556
Au2_3 Hg0_2 3.050903 1_556
Au2_3 Hg0_4 3.050903 1_456
Au2_3 Au2_5 3.059328 1_565
Au2_3 Au2_5 3.059328 1_455
Au2_3 Au2_7 3.059328 1_455
Au2_3 Au2_7 3.059328 1_555
Au2_4 Hg0_7 3.050901 1_545
Au2_4 Hg0_5 3.050903 1_555
Au2_4 Hg0_3 3.050903 1_545
Au2_4 Au2_6 3.059328 1_555
Au2_4 Au2_6 3.059328 1_545
Au2_5 Hg0_6 3.050901 1_546
Au2_5 Hg0_4 3.050903 1_556
Au2_5 Hg0_2 3.050903 1_546
Au2_5 Au2_7 3.059328 1_555
Au2_5 Au2_7 3.059328 1_545
Au2_6 Hg0_5 3.050901 1_555
Au2_6 Hg0_7 3.050903 1_555
Au2_6 Hg0_1 3.050903 1_555
Au2_7 Hg0_4 3.050901 1_556
Au2_7 Hg0_6 3.050903 1_556
Au2_7 Hg0_0 3.050903 1_556
