# generated using pymatgen
data_Y4Mg(BiO3)4
_symmetry_space_group_name_H-M   'P 1'
_cell_length_a   5.95983888
_cell_length_b   6.39964499
_cell_length_c   8.77261600
_cell_angle_alpha   90.00009006
_cell_angle_beta   89.99995254
_cell_angle_gamma   87.58997259
_symmetry_Int_Tables_number   1
_chemical_formula_structural   Y4Mg(BiO3)4
_chemical_formula_sum   'Y4 Mg1 Bi4 O12'
_cell_volume   334.29910308
_cell_formula_units_Z   1
loop_
 _symmetry_equiv_pos_site_id
 _symmetry_equiv_pos_as_xyz
  1  'x, y, z'
loop_
 _atom_site_type_symbol
 _atom_site_label
 _atom_site_symmetry_multiplicity
 _atom_site_fract_x
 _atom_site_fract_y
 _atom_site_fract_z
 _atom_site_occupancy
  Y  Y0  1  0.96522300  0.99606700  0.75000100  1
  Y  Y1  1  0.55165300  0.63560400  0.25000000  1
  Y  Y2  1  0.53008800  0.51807500  0.75000000  1
  Y  Y3  1  0.97108100  0.03340500  0.24999900  1
  Mg  Mg0  1  0.47036100  0.20589400  0.25000000  1
  Bi  Bi0  1  0.00005600  0.48892700  0.48001600  1
  Bi  Bi1  1  0.45882700  0.97008500  0.56097500  1
  Bi  Bi2  1  0.45882700  0.97008500  0.93902500  1
  Bi  Bi3  1  0.00005600  0.48892700  0.01998400  1
  O  O0  1  0.70232300  0.31516900  0.39457600  1
  O  O1  1  0.11585400  0.11195100  0.53828600  1
  O  O2  1  0.81940200  0.78289500  0.10044200  1
  O  O3  1  0.37468800  0.62994200  0.96998100  1
  O  O4  1  0.37468900  0.62994100  0.53001900  1
  O  O5  1  0.81940100  0.78289500  0.39955800  1
  O  O6  1  0.11585300  0.11195000  0.96171400  1
  O  O7  1  0.70232300  0.31516900  0.10542400  1
  O  O8  1  0.18700800  0.39651500  0.25000100  1
  O  O9  1  0.66898100  0.20206300  0.75000000  1
  O  O10  1  0.33472500  0.93264200  0.25000000  1
  O  O11  1  0.83691000  0.67971900  0.75000000  1
loop_
_geom_bond_atom_site_label_1
_geom_bond_atom_site_label_2
_geom_bond_distance
_geom_bond_site_symmetry_2
Mg0 O10 1.957129 1_545
Mg0 O7 2.022412 1_555
Mg0 O0 2.022412 1_555
Mg0 O8 2.041262 1_555
Bi0 O5 2.241948 1_455
Bi0 O0 2.261173 1_455
Bi0 O8 2.368002 1_555
Bi0 O4 2.482228 1_555
Bi0 O1 2.533336 1_555
Bi0 O11 2.818870 1_455
Bi1 O1 2.210432 1_565
Bi1 O4 2.270564 1_555
Bi1 O9 2.584343 1_565
Bi2 O6 2.210435 1_565
Bi2 O3 2.270560 1_555
Bi2 O9 2.584345 1_565
Bi3 O2 2.241943 1_455
Bi3 O7 2.261173 1_455
Bi3 O8 2.368020 1_555
Bi3 O3 2.482225 1_554
Bi3 O6 2.533339 1_554
Bi3 O11 2.818875 1_454
O0 Y1 2.542705 1_555
O0 Y3 2.680079 1_555
O1 Y0 2.204872 1_445
O1 Y3 2.725732 1_455
O2 Y3 2.287049 1_565
O2 Y1 2.298432 1_555
O3 Y2 2.244702 1_555
O3 Y1 2.674187 1_556
O4 Y2 2.244701 1_555
O4 Y1 2.674183 1_555
O5 Y3 2.287064 1_565
O5 Y1 2.298427 1_555
O6 Y0 2.204852 1_445
O6 Y3 2.725712 1_456
O7 Y1 2.542701 1_555
O7 Y3 2.680075 1_555
O8 Y3 2.703242 1_455
O8 Y1 2.709930 1_555
O9 Y2 2.152763 1_555
O9 Y0 2.158554 1_545
O10 Y3 2.235018 1_465
O10 Y1 2.253520 1_555
O11 Y2 2.138462 1_555
O11 Y0 2.194008 1_555
