# generated using pymatgen
data_KSnAuS3
_symmetry_space_group_name_H-M   'P 1'
_cell_length_a   8.29319300
_cell_length_b   8.29319300
_cell_length_c   19.55417800
_cell_angle_alpha   90.00000000
_cell_angle_beta   90.00000000
_cell_angle_gamma   90.00000000
_symmetry_Int_Tables_number   1
_chemical_formula_structural   KSnAuS3
_chemical_formula_sum   'K8 Sn8 Au8 S24'
_cell_volume   1344.87868066
_cell_formula_units_Z   8
loop_
 _symmetry_equiv_pos_site_id
 _symmetry_equiv_pos_as_xyz
  1  'x, y, z'
loop_
 _atom_site_type_symbol
 _atom_site_label
 _atom_site_symmetry_multiplicity
 _atom_site_fract_x
 _atom_site_fract_y
 _atom_site_fract_z
 _atom_site_occupancy
  K  K0  1  0.00000000  0.00000000  0.40135000  1
  K  K1  1  0.00000000  0.00000000  0.90135000  1
  K  K2  1  0.00000000  0.00000000  0.59912900  1
  K  K3  1  0.00000000  0.00000000  0.09912900  1
  K  K4  1  0.50000000  0.50000000  0.24247800  1
  K  K5  1  0.50000000  0.50000000  0.74247800  1
  K  K6  1  0.50000000  0.50000000  0.45298400  1
  K  K7  1  0.50000000  0.50000000  0.95298400  1
  Sn  Sn0  1  0.00000000  0.50000000  0.08899800  1
  Sn  Sn1  1  0.50000000  0.00000000  0.08899800  1
  Sn  Sn2  1  0.00000000  0.50000000  0.58899800  1
  Sn  Sn3  1  0.50000000  0.00000000  0.58899800  1
  Sn  Sn4  1  0.00000000  0.50000000  0.91214900  1
  Sn  Sn5  1  0.50000000  0.00000000  0.91214900  1
  Sn  Sn6  1  0.00000000  0.50000000  0.41214900  1
  Sn  Sn7  1  0.50000000  0.00000000  0.41214900  1
  Au  Au0  1  0.00249200  0.68538000  0.24981900  1
  Au  Au1  1  0.99750800  0.31462000  0.24981900  1
  Au  Au2  1  0.31462000  0.00249200  0.24981900  1
  Au  Au3  1  0.68538000  0.99750800  0.24981900  1
  Au  Au4  1  0.99750800  0.68538000  0.74981900  1
  Au  Au5  1  0.00249200  0.31462000  0.74981900  1
  Au  Au6  1  0.68538000  0.00249200  0.74981900  1
  Au  Au7  1  0.31462000  0.99750800  0.74981900  1
  S  S0  1  0.14994600  0.65772500  0.99979200  1
  S  S1  1  0.85005400  0.34227500  0.99979200  1
  S  S2  1  0.34227500  0.14994600  0.99979200  1
  S  S3  1  0.65772500  0.85005400  0.99979200  1
  S  S4  1  0.85005400  0.65772500  0.49979200  1
  S  S5  1  0.14994600  0.34227500  0.49979200  1
  S  S6  1  0.65772500  0.14994600  0.49979200  1
  S  S7  1  0.34227500  0.85005400  0.49979200  1
  S  S8  1  0.17083700  0.32276600  0.15522600  1
  S  S9  1  0.82916300  0.67723400  0.15522600  1
  S  S10  1  0.67723400  0.17083700  0.15522600  1
  S  S11  1  0.32276600  0.82916300  0.15522600  1
  S  S12  1  0.82916300  0.32276600  0.65522600  1
  S  S13  1  0.17083700  0.67723400  0.65522600  1
  S  S14  1  0.32276600  0.17083700  0.65522600  1
  S  S15  1  0.67723400  0.82916300  0.65522600  1
  S  S16  1  0.82531400  0.67468400  0.84562900  1
  S  S17  1  0.17468600  0.32531600  0.84562900  1
  S  S18  1  0.32531600  0.82531400  0.84562900  1
  S  S19  1  0.67468400  0.17468600  0.84562900  1
  S  S20  1  0.17468600  0.67468400  0.34562900  1
  S  S21  1  0.82531400  0.32531600  0.34562900  1
  S  S22  1  0.67468400  0.82531400  0.34562900  1
  S  S23  1  0.32531600  0.17468600  0.34562900  1
loop_
_geom_bond_atom_site_label_1
_geom_bond_atom_site_label_2
_geom_bond_distance
_geom_bond_site_symmetry_2
K0 S22 3.250329 1_445
K0 S23 3.250329 1_555
K0 S21 3.250329 1_455
K0 S20 3.250329 1_545
K0 S6 3.648177 1_455
K0 S5 3.648177 1_555
K0 S4 3.648177 1_445
K0 S7 3.648177 1_545
K1 S17 3.250329 1_555
K1 S18 3.250329 1_545
K1 S19 3.250329 1_455
K1 S16 3.250329 1_445
K1 S0 3.648177 1_545
K1 S2 3.648177 1_555
K1 S3 3.648177 1_445
K1 S1 3.648177 1_455
K2 S14 3.221115 1_555
K2 S13 3.221115 1_545
K2 S12 3.221115 1_455
K2 S15 3.221115 1_445
K2 S4 3.657441 1_445
K2 S7 3.657441 1_545
K2 S5 3.657441 1_555
K2 S6 3.657441 1_455
K3 S8 3.221115 1_555
K3 S10 3.221115 1_455
K3 S9 3.221115 1_445
K3 S11 3.221115 1_545
K3 S2 3.657441 1_554
K3 S0 3.657441 1_544
K3 S3 3.657441 1_444
K3 S1 3.657441 1_454
K4 S11 3.538815 1_555
K4 S9 3.538815 1_555
K4 S10 3.538815 1_555
K4 S8 3.538815 1_555
K4 S23 3.666843 1_555
K4 S20 3.666843 1_555
K4 S21 3.666843 1_555
K4 S22 3.666843 1_555
K5 S15 3.538815 1_555
K5 S12 3.538815 1_555
K5 S14 3.538815 1_555
K5 S13 3.538815 1_555
K5 S19 3.666843 1_555
K5 S16 3.666843 1_555
K5 S17 3.666843 1_555
K5 S18 3.666843 1_555
K6 S7 3.313084 1_555
K6 S4 3.313084 1_555
K6 S5 3.313084 1_555
K6 S6 3.313084 1_555
K6 S22 3.712697 1_555
K6 S23 3.712697 1_555
K6 S20 3.712697 1_555
K6 S21 3.712697 1_555
K7 S2 3.313084 1_555
K7 S3 3.313084 1_555
K7 S0 3.313084 1_555
K7 S1 3.313084 1_555
K7 S19 3.712697 1_555
K7 S16 3.712697 1_555
K7 S17 3.712697 1_555
K7 S18 3.712697 1_555
Au0 S9 2.343539 1_455
Au0 S20 2.357352 1_555
Au1 S8 2.343539 1_655
Au1 S21 2.357352 1_555
Au2 S11 2.343539 1_545
Au2 S23 2.357352 1_555
Au3 S10 2.343539 1_565
Au3 S22 2.357352 1_555
Au4 S13 2.343539 1_655
Au4 S16 2.357352 1_555
Au5 S12 2.343539 1_455
Au5 S17 2.357352 1_555
Au6 S15 2.343539 1_545
Au6 S19 2.357352 1_555
Au7 S14 2.343539 1_565
Au7 S18 2.357352 1_555
S0 Sn4 2.488858 1_555
S0 Sn0 2.510001 1_556
S1 Sn4 2.488858 1_655
S1 Sn0 2.510001 1_656
S2 Sn5 2.488858 1_555
S2 Sn1 2.510001 1_556
S3 Sn5 2.488858 1_565
S3 Sn1 2.510001 1_566
S4 Sn6 2.488858 1_655
S4 Sn2 2.510001 1_655
S5 Sn6 2.488858 1_555
S5 Sn2 2.510001 1_555
S6 Sn7 2.488858 1_555
S6 Sn3 2.510001 1_555
S7 Sn7 2.488858 1_565
S7 Sn3 2.510001 1_565
S8 Sn0 2.417604 1_555
S9 Sn0 2.417604 1_655
S10 Sn1 2.417604 1_555
S11 Sn1 2.417604 1_565
S12 Sn2 2.417604 1_655
S13 Sn2 2.417604 1_555
S14 Sn3 2.417604 1_555
S15 Sn3 2.417604 1_565
S16 Sn4 2.426804 1_655
S17 Sn4 2.426804 1_555
S18 Sn5 2.426804 1_565
S19 Sn5 2.426804 1_555
S20 Sn6 2.426804 1_555
S21 Sn6 2.426804 1_655
S22 Sn7 2.426804 1_565
S23 Sn7 2.426804 1_555
