# generated using pymatgen
data_Zn2Bi3O8
_symmetry_space_group_name_H-M   'P 1'
_cell_length_a   6.77903070
_cell_length_b   6.77903070
_cell_length_c   9.61355200
_cell_angle_alpha   90.00000000
_cell_angle_beta   90.00000000
_cell_angle_gamma   120.00000682
_symmetry_Int_Tables_number   1
_chemical_formula_structural   Zn2Bi3O8
_chemical_formula_sum   'Zn4 Bi6 O16'
_cell_volume   382.60415569
_cell_formula_units_Z   2
loop_
 _symmetry_equiv_pos_site_id
 _symmetry_equiv_pos_as_xyz
  1  'x, y, z'
loop_
 _atom_site_type_symbol
 _atom_site_label
 _atom_site_symmetry_multiplicity
 _atom_site_fract_x
 _atom_site_fract_y
 _atom_site_fract_z
 _atom_site_occupancy
  Zn  Zn0  1  0.66666700  0.33333300  0.04038600  1
  Zn  Zn1  1  0.33333300  0.66666700  0.54038600  1
  Zn  Zn2  1  0.66666700  0.33333300  0.40203300  1
  Zn  Zn3  1  0.33333300  0.66666700  0.90203300  1
  Bi  Bi0  1  0.66821200  0.83410600  0.24213800  1
  Bi  Bi1  1  0.83410600  0.16589400  0.74213800  1
  Bi  Bi2  1  0.16589400  0.33178800  0.24213800  1
  Bi  Bi3  1  0.83410600  0.66821200  0.74213800  1
  Bi  Bi4  1  0.33178800  0.16589400  0.74213800  1
  Bi  Bi5  1  0.16589400  0.83410600  0.24213800  1
  O  O0  1  0.82596000  0.17404000  0.13838900  1
  O  O1  1  0.65192000  0.82596000  0.63838900  1
  O  O2  1  0.17404000  0.34808000  0.63838900  1
  O  O3  1  0.82596000  0.65192000  0.13838900  1
  O  O4  1  0.34808000  0.17404000  0.13838900  1
  O  O5  1  0.17404000  0.82596000  0.63838900  1
  O  O6  1  0.51329700  0.48670300  0.88102000  1
  O  O7  1  0.02659500  0.51329700  0.38102000  1
  O  O8  1  0.48670300  0.97340500  0.38102000  1
  O  O9  1  0.51329700  0.02659500  0.88102000  1
  O  O10  1  0.00000000  0.00000000  0.35420000  1
  O  O11  1  0.00000000  0.00000000  0.85420000  1
  O  O12  1  0.33333300  0.66666700  0.11224700  1
  O  O13  1  0.97340500  0.48670300  0.88102000  1
  O  O14  1  0.48670300  0.51329700  0.38102000  1
  O  O15  1  0.66666700  0.33333300  0.61224700  1
loop_
_geom_bond_atom_site_label_1
_geom_bond_atom_site_label_2
_geom_bond_distance
_geom_bond_site_symmetry_2
Bi0 O10 2.225934 1_665
Bi0 O0 2.232585 1_565
Bi0 O3 2.232585 1_555
Bi0 O8 2.313072 1_555
Bi0 O14 2.313077 1_555
Bi0 O12 2.329053 1_555
Bi1 O11 2.225935 1_655
Bi1 O1 2.232585 1_545
Bi1 O2 2.232585 1_655
Bi1 O9 2.313077 1_555
Bi1 O13 2.313077 1_555
Bi1 O15 2.329048 1_555
Bi2 O10 2.225934 1_555
Bi2 O0 2.232585 1_455
Bi2 O4 2.232585 1_555
Bi2 O7 2.313072 1_555
Bi2 O14 2.313077 1_555
Bi2 O12 2.329053 1_555
Bi3 O11 2.225934 1_665
Bi3 O5 2.232585 1_655
Bi3 O1 2.232585 1_555
Bi3 O13 2.313072 1_555
Bi3 O6 2.313077 1_555
Bi3 O15 2.329053 1_555
Bi4 O11 2.225934 1_555
Bi4 O5 2.232585 1_545
Bi4 O2 2.232585 1_555
Bi4 O9 2.313072 1_555
Bi4 O6 2.313077 1_555
Bi4 O15 2.329053 1_555
Bi5 O10 2.225935 1_565
Bi5 O3 2.232585 1_455
Bi5 O4 2.232585 1_565
Bi5 O7 2.313077 1_555
Bi5 O8 2.313077 1_555
Bi5 O12 2.329048 1_555
O0 Zn0 2.094254 1_555
O1 Zn1 2.094260 1_555
O2 Zn1 2.094260 1_555
O3 Zn0 2.094260 1_555
O4 Zn0 2.094260 1_555
O5 Zn1 2.094254 1_555
O6 Zn3 2.122704 1_555
O6 Zn0 2.364355 1_556
O7 Zn2 2.122704 1_455
O7 Zn1 2.364346 1_555
O8 Zn2 2.122704 1_565
O8 Zn1 2.364346 1_555
O9 Zn3 2.122704 1_545
O9 Zn0 2.364346 1_556
O12 Zn3 2.020903 1_554
O13 Zn3 2.122704 1_655
O13 Zn0 2.364346 1_556
O14 Zn2 2.122704 1_555
O14 Zn1 2.364355 1_555
O15 Zn2 2.020903 1_555
