# generated using pymatgen
data_SmAsO4
_symmetry_space_group_name_H-M   'P 1'
_cell_length_a   5.06708674
_cell_length_b   5.06708733
_cell_length_c   6.74249106
_cell_angle_alpha   112.07115857
_cell_angle_beta   112.07116371
_cell_angle_gamma   89.99999826
_symmetry_Int_Tables_number   1
_chemical_formula_structural   SmAsO4
_chemical_formula_sum   'Sm2 As2 O8'
_cell_volume   146.64996815
_cell_formula_units_Z   2
loop_
 _symmetry_equiv_pos_site_id
 _symmetry_equiv_pos_as_xyz
  1  'x, y, z'
loop_
 _atom_site_type_symbol
 _atom_site_label
 _atom_site_symmetry_multiplicity
 _atom_site_fract_x
 _atom_site_fract_y
 _atom_site_fract_z
 _atom_site_occupancy
  Sm  Sm0  1  0.37500000  0.12500000  0.75000000  1
  Sm  Sm1  1  0.62500000  0.87500000  0.25000000  1
  As  As0  1  0.87500000  0.62500000  0.75000000  1
  As  As1  1  0.12500000  0.37500000  0.25000000  1
  O  O0  1  0.93791449  0.29794380  0.59304656  1
  O  O1  1  0.29510076  0.43791449  0.09304656  1
  O  O2  1  0.79794380  0.15513207  0.09304656  1
  O  O3  1  0.65513207  0.79510076  0.59304656  1
  O  O4  1  0.34486793  0.20489924  0.40695344  1
  O  O5  1  0.20205620  0.84486793  0.90695344  1
  O  O6  1  0.70489924  0.56208551  0.90695344  1
  O  O7  1  0.06208551  0.70205620  0.40695344  1
loop_
_geom_bond_atom_site_label_1
_geom_bond_atom_site_label_2
_geom_bond_distance
_geom_bond_site_symmetry_2
As0 O3 1.703951 1_555
As0 O6 1.703951 1_555
As0 O5 1.703958 1_655
As0 O0 1.703959 1_555
As1 O4 1.703951 1_555
As1 O1 1.703951 1_555
As1 O2 1.703958 1_455
As1 O7 1.703959 1_555
O0 Sm0 2.393432 1_655
O0 Sm1 2.444473 1_545
O1 Sm1 2.393438 1_555
O1 Sm0 2.444479 1_554
O2 Sm1 2.393432 1_545
O2 Sm0 2.444473 1_554
O3 Sm0 2.393438 1_565
O3 Sm1 2.444479 1_555
O4 Sm1 2.393438 1_545
O4 Sm0 2.444479 1_555
O5 Sm0 2.393432 1_565
O5 Sm1 2.444473 1_556
O6 Sm0 2.393438 1_555
O6 Sm1 2.444479 1_556
O7 Sm1 2.393432 1_455
O7 Sm0 2.444473 1_565
