# generated using pymatgen
data_SrAsAu
_symmetry_space_group_name_H-M   'P 1'
_cell_length_a   4.48761303
_cell_length_b   4.48761303
_cell_length_c   8.53316034
_cell_angle_alpha   90.00000000
_cell_angle_beta   90.00000000
_cell_angle_gamma   120.00001194
_symmetry_Int_Tables_number   1
_chemical_formula_structural   SrAsAu
_chemical_formula_sum   'Sr2 As2 Au2'
_cell_volume   148.82342199
_cell_formula_units_Z   2
loop_
 _symmetry_equiv_pos_site_id
 _symmetry_equiv_pos_as_xyz
  1  'x, y, z'
loop_
 _atom_site_type_symbol
 _atom_site_label
 _atom_site_symmetry_multiplicity
 _atom_site_fract_x
 _atom_site_fract_y
 _atom_site_fract_z
 _atom_site_occupancy
  Sr  Sr0  1  0.00000000  0.00000000  0.00000000  1
  Sr  Sr1  1  0.00000000  0.00000000  0.50000000  1
  As  As0  1  0.33333300  0.66666700  0.25000000  1
  As  As1  1  0.66666700  0.33333300  0.75000000  1
  Au  Au0  1  0.33333300  0.66666700  0.75000000  1
  Au  Au1  1  0.66666700  0.33333300  0.25000000  1
loop_
_geom_bond_atom_site_label_1
_geom_bond_atom_site_label_2
_geom_bond_distance
_geom_bond_site_symmetry_2
As0 Au1 2.590922 1_455
As0 Au1 2.590922 1_565
As0 Au1 2.590930 1_555
As0 Sr0 3.356159 1_565
As0 Sr1 3.356159 1_565
As0 Sr1 3.356162 1_665
As0 Sr0 3.356162 1_555
As0 Sr0 3.356162 1_665
As0 Sr1 3.356162 1_555
As1 Au0 2.590922 1_545
As1 Au0 2.590922 1_655
As1 Au0 2.590930 1_555
As1 Sr1 3.356159 1_655
As1 Sr0 3.356159 1_656
As1 Sr0 3.356162 1_666
As1 Sr1 3.356162 1_665
As1 Sr0 3.356162 1_556
As1 Sr1 3.356162 1_555
Au0 Sr1 3.356159 1_565
Au0 Sr0 3.356159 1_566
Au0 Sr0 3.356162 1_666
Au0 Sr1 3.356162 1_665
Au0 Sr0 3.356162 1_556
Au0 Sr1 3.356162 1_555
Au1 Sr1 3.356159 1_655
Au1 Sr0 3.356159 1_655
Au1 Sr1 3.356162 1_665
Au1 Sr0 3.356162 1_555
Au1 Sr0 3.356162 1_665
Au1 Sr1 3.356162 1_555
