# generated using pymatgen
data_Ca3Sn2S7
_symmetry_space_group_name_H-M   'P 1'
_cell_length_a   6.51741786
_cell_length_b   14.42549340
_cell_length_c   16.00922340
_cell_angle_alpha   116.77814037
_cell_angle_beta   101.74474777
_cell_angle_gamma   89.99999927
_symmetry_Int_Tables_number   1
_chemical_formula_structural   Ca3Sn2S7
_chemical_formula_sum   'Ca12 Sn8 S28'
_cell_volume   1308.33091776
_cell_formula_units_Z   4
loop_
 _symmetry_equiv_pos_site_id
 _symmetry_equiv_pos_as_xyz
  1  'x, y, z'
loop_
 _atom_site_type_symbol
 _atom_site_label
 _atom_site_symmetry_multiplicity
 _atom_site_fract_x
 _atom_site_fract_y
 _atom_site_fract_z
 _atom_site_occupancy
  Ca  Ca0  1  0.50000000  0.50659700  0.00000000  1
  Ca  Ca1  1  0.00000000  0.00659700  0.00000000  1
  Ca  Ca2  1  0.25805300  0.97371600  0.50000000  1
  Ca  Ca3  1  0.74194700  0.47371600  0.50000000  1
  Ca  Ca4  1  0.33277900  0.32173600  0.65834000  1
  Ca  Ca5  1  0.66722100  0.66339600  0.34166000  1
  Ca  Ca6  1  0.17443900  0.16339600  0.34166000  1
  Ca  Ca7  1  0.82556100  0.82173600  0.65834000  1
  Ca  Ca8  1  0.89409900  0.16683600  0.78643800  1
  Ca  Ca9  1  0.10590100  0.38039800  0.21356200  1
  Ca  Ca10  1  0.60766100  0.88039800  0.21356200  1
  Ca  Ca11  1  0.39233900  0.66683600  0.78643800  1
  Sn  Sn0  1  0.67684400  0.15580700  0.50000000  1
  Sn  Sn1  1  0.32315600  0.65580700  0.50000000  1
  Sn  Sn2  1  0.33239000  0.97886800  0.78829800  1
  Sn  Sn3  1  0.66761000  0.19057000  0.21170200  1
  Sn  Sn4  1  0.04409100  0.69057000  0.21170200  1
  Sn  Sn5  1  0.95590900  0.47886800  0.78829800  1
  Sn  Sn6  1  0.50000000  0.26624000  0.00000000  1
  Sn  Sn7  1  0.00000000  0.76624000  0.00000000  1
  S  S0  1  0.57360600  0.14621300  0.63321100  1
  S  S1  1  0.42639400  0.51300200  0.36678900  1
  S  S2  1  0.44039600  0.01300200  0.36678900  1
  S  S3  1  0.55960400  0.64621300  0.63321100  1
  S  S4  1  0.50767800  0.30648700  0.50000000  1
  S  S5  1  0.49232200  0.80648700  0.50000000  1
  S  S6  1  0.04285300  0.15216500  0.50000000  1
  S  S7  1  0.95714700  0.65216500  0.50000000  1
  S  S8  1  0.08820000  0.98836500  0.65702100  1
  S  S9  1  0.91180000  0.33134400  0.34297900  1
  S  S10  1  0.93117800  0.83134400  0.34297900  1
  S  S11  1  0.06882200  0.48836500  0.65702100  1
  S  S12  1  0.13956400  0.34404100  0.80946900  1
  S  S13  1  0.86043600  0.53457200  0.19053100  1
  S  S14  1  0.83009600  0.03457200  0.19053100  1
  S  S15  1  0.16990400  0.84404100  0.80946900  1
  S  S16  1  0.20954100  0.12489000  0.92144300  1
  S  S17  1  0.79045900  0.20344700  0.07855700  1
  S  S18  1  0.78809900  0.70344700  0.07855700  1
  S  S19  1  0.21190100  0.62489000  0.92144300  1
  S  S20  1  0.70378700  0.00183000  0.81036000  1
  S  S21  1  0.29621300  0.19147000  0.18964000  1
  S  S22  1  0.39342800  0.69147000  0.18964000  1
  S  S23  1  0.60657200  0.50183000  0.81036000  1
  S  S24  1  0.65823900  0.31387300  0.90313700  1
  S  S25  1  0.34176100  0.41073600  0.09686300  1
  S  S26  1  0.25510200  0.91073600  0.09686300  1
  S  S27  1  0.74489800  0.81387300  0.90313700  1
loop_
_geom_bond_atom_site_label_1
_geom_bond_atom_site_label_2
_geom_bond_distance
_geom_bond_site_symmetry_2
Ca0 S24 2.822026 1_554
Ca0 S25 2.822026 1_555
Ca0 S19 2.998602 1_554
Ca0 S18 2.998602 1_555
Ca0 S22 3.220984 1_555
Ca0 S23 3.220984 1_554
Ca0 S12 3.310438 1_554
Ca0 S13 3.310438 1_555
Ca1 S27 2.822026 1_444
Ca1 S26 2.822026 1_545
Ca1 S17 2.998598 1_455
Ca1 S16 2.998598 1_554
Ca1 S21 3.220987 1_555
Ca1 S20 3.220987 1_454
Ca1 S15 3.310435 1_544
Ca1 S14 3.310435 1_455
Ca2 S5 2.854942 1_555
Ca2 S8 2.871139 1_555
Ca2 S10 2.871142 1_455
Ca2 S0 2.898664 1_565
Ca2 S2 2.898668 1_565
Ca2 S6 2.931505 1_565
Ca3 S4 2.854942 1_555
Ca3 S9 2.871139 1_555
Ca3 S11 2.871142 1_655
Ca3 S1 2.898664 1_555
Ca3 S3 2.898668 1_555
Ca3 S7 2.931505 1_555
Ca4 S12 2.842871 1_555
Ca4 S0 2.894073 1_555
Ca4 S23 2.896778 1_555
Ca4 S6 2.905602 1_555
Ca4 S4 2.906430 1_555
Ca4 S11 2.961197 1_555
Ca5 S13 2.842871 1_555
Ca5 S1 2.894073 1_555
Ca5 S22 2.896778 1_555
Ca5 S7 2.905602 1_555
Ca5 S5 2.906430 1_555
Ca5 S10 2.961197 1_555
Ca6 S14 2.842866 1_455
Ca6 S2 2.894076 1_555
Ca6 S21 2.896781 1_555
Ca6 S6 2.905602 1_555
Ca6 S4 2.906430 1_555
Ca6 S9 2.961201 1_455
Ca7 S15 2.842866 1_655
Ca7 S3 2.894076 1_555
Ca7 S20 2.896781 1_565
Ca7 S7 2.905602 1_555
Ca7 S5 2.906430 1_555
Ca7 S8 2.961201 1_655
Ca8 S0 2.779466 1_555
Ca8 S24 2.819717 1_555
Ca8 S12 2.853139 1_655
Ca8 S20 2.892352 1_555
Ca8 S16 2.938291 1_655
Ca8 S8 2.963406 1_645
Ca9 S1 2.779466 1_555
Ca9 S25 2.819717 1_555
Ca9 S13 2.853139 1_455
Ca9 S21 2.892352 1_555
Ca9 S17 2.938291 1_455
Ca9 S9 2.963406 1_455
Ca10 S2 2.779462 1_565
Ca10 S26 2.819717 1_555
Ca10 S14 2.853142 1_565
Ca10 S22 2.892349 1_555
Ca10 S18 2.938294 1_555
Ca10 S10 2.963402 1_555
Ca11 S3 2.779462 1_555
Ca11 S27 2.819717 1_555
Ca11 S15 2.853142 1_555
Ca11 S23 2.892349 1_555
Ca11 S19 2.938294 1_555
Ca11 S11 2.963402 1_555
S0 Sn0 2.422806 1_555
S1 Sn1 2.422806 1_555
S2 Sn0 2.422803 1_555
S3 Sn1 2.422803 1_555
S4 Sn0 2.437262 1_555
S5 Sn1 2.437262 1_555
S6 Sn0 2.386012 1_455
S7 Sn1 2.386012 1_655
S8 Sn2 2.422042 1_555
S9 Sn3 2.422042 1_555
S10 Sn4 2.422042 1_655
S11 Sn5 2.422042 1_455
S12 Sn5 2.399839 1_455
S13 Sn4 2.399839 1_655
S14 Sn3 2.399845 1_555
S15 Sn2 2.399845 1_555
S16 Sn6 2.458262 1_556
S16 Sn2 2.504120 1_545
S17 Sn6 2.458262 1_555
S17 Sn3 2.504120 1_555
S18 Sn7 2.458257 1_655
S18 Sn4 2.504114 1_655
S19 Sn7 2.458257 1_556
S19 Sn5 2.504114 1_455
S20 Sn2 2.374882 1_545
S21 Sn3 2.374882 1_555
S22 Sn4 2.374895 1_555
S23 Sn5 2.374895 1_555
S24 Sn6 2.356185 1_556
S25 Sn6 2.356185 1_555
S26 Sn7 2.356185 1_555
S27 Sn7 2.356185 1_656
