# generated using pymatgen
data_TiAl2Cr3C2
_symmetry_space_group_name_H-M   'P 1'
_cell_length_a   5.78392750
_cell_length_b   5.78392750
_cell_length_c   25.87663400
_cell_angle_alpha   90.00000000
_cell_angle_beta   90.00000000
_cell_angle_gamma   119.99999424
_symmetry_Int_Tables_number   1
_chemical_formula_structural   TiAl2Cr3C2
_chemical_formula_sum   'Ti8 Al16 Cr24 C16'
_cell_volume   749.69414770
_cell_formula_units_Z   8
loop_
 _symmetry_equiv_pos_site_id
 _symmetry_equiv_pos_as_xyz
  1  'x, y, z'
loop_
 _atom_site_type_symbol
 _atom_site_label
 _atom_site_symmetry_multiplicity
 _atom_site_fract_x
 _atom_site_fract_y
 _atom_site_fract_z
 _atom_site_occupancy
  Ti  Ti0_0  1  0.33333350  0.16666650  0.29280800  1
  Ti  Ti0_1  1  0.33333350  0.16666650  0.79280800  1
  Ti  Ti0_2  1  0.33333350  0.66666650  0.29280800  1
  Ti  Ti0_3  1  0.33333350  0.66666650  0.79280800  1
  Ti  Ti0_4  1  0.83333350  0.16666650  0.29280800  1
  Ti  Ti0_5  1  0.83333350  0.16666650  0.79280800  1
  Ti  Ti0_6  1  0.83333350  0.66666650  0.29280800  1
  Ti  Ti0_7  1  0.83333350  0.66666650  0.79280800  1
  Al  Al0_0  1  0.33333350  0.16666650  0.12279600  1
  Al  Al0_1  1  0.33333350  0.16666650  0.62279600  1
  Al  Al0_2  1  0.33333350  0.66666650  0.12279600  1
  Al  Al0_3  1  0.33333350  0.66666650  0.62279600  1
  Al  Al0_4  1  0.83333350  0.16666650  0.12279600  1
  Al  Al0_5  1  0.83333350  0.16666650  0.62279600  1
  Al  Al0_6  1  0.83333350  0.66666650  0.12279600  1
  Al  Al0_7  1  0.83333350  0.66666650  0.62279600  1
  Al  Al1_0  1  0.16666650  0.33333350  0.38132100  1
  Al  Al1_1  1  0.16666650  0.33333350  0.88132100  1
  Al  Al1_2  1  0.16666650  0.83333350  0.38132100  1
  Al  Al1_3  1  0.16666650  0.83333350  0.88132100  1
  Al  Al1_4  1  0.66666650  0.33333350  0.38132100  1
  Al  Al1_5  1  0.66666650  0.33333350  0.88132100  1
  Al  Al1_6  1  0.66666650  0.83333350  0.38132100  1
  Al  Al1_7  1  0.66666650  0.83333350  0.88132100  1
  Cr  Cr0_0  1  0.16666650  0.33333350  0.20480700  1
  Cr  Cr0_1  1  0.16666650  0.33333350  0.70480700  1
  Cr  Cr0_2  1  0.16666650  0.83333350  0.20480700  1
  Cr  Cr0_3  1  0.16666650  0.83333350  0.70480700  1
  Cr  Cr0_4  1  0.66666650  0.33333350  0.20480700  1
  Cr  Cr0_5  1  0.66666650  0.33333350  0.70480700  1
  Cr  Cr0_6  1  0.66666650  0.83333350  0.20480700  1
  Cr  Cr0_7  1  0.66666650  0.83333350  0.70480700  1
  Cr  Cr1_0  1  0.16666650  0.33333350  0.04179500  1
  Cr  Cr1_1  1  0.16666650  0.33333350  0.54179500  1
  Cr  Cr1_2  1  0.16666650  0.83333350  0.04179500  1
  Cr  Cr1_3  1  0.16666650  0.83333350  0.54179500  1
  Cr  Cr1_4  1  0.66666650  0.33333350  0.04179500  1
  Cr  Cr1_5  1  0.66666650  0.33333350  0.54179500  1
  Cr  Cr1_6  1  0.66666650  0.83333350  0.04179500  1
  Cr  Cr1_7  1  0.66666650  0.83333350  0.54179500  1
  Cr  Cr2_0  1  0.33333350  0.16666650  0.46065100  1
  Cr  Cr2_1  1  0.33333350  0.16666650  0.96065100  1
  Cr  Cr2_2  1  0.33333350  0.66666650  0.46065100  1
  Cr  Cr2_3  1  0.33333350  0.66666650  0.96065100  1
  Cr  Cr2_4  1  0.83333350  0.16666650  0.46065100  1
  Cr  Cr2_5  1  0.83333350  0.16666650  0.96065100  1
  Cr  Cr2_6  1  0.83333350  0.66666650  0.46065100  1
  Cr  Cr2_7  1  0.83333350  0.66666650  0.96065100  1
  C  C0_0  1  0.00000000  0.00000000  0.24476050  1
  C  C0_1  1  0.00000000  0.00000000  0.74476050  1
  C  C0_2  1  0.00000000  0.50000000  0.24476050  1
  C  C0_3  1  0.00000000  0.50000000  0.74476050  1
  C  C0_4  1  0.50000000  0.00000000  0.24476050  1
  C  C0_5  1  0.50000000  0.00000000  0.74476050  1
  C  C0_6  1  0.50000000  0.50000000  0.24476050  1
  C  C0_7  1  0.50000000  0.50000000  0.74476050  1
  C  C1_0  1  0.00000000  0.00000000  0.00106150  1
  C  C1_1  1  0.00000000  0.00000000  0.50106150  1
  C  C1_2  1  0.00000000  0.50000000  0.00106150  1
  C  C1_3  1  0.00000000  0.50000000  0.50106150  1
  C  C1_4  1  0.50000000  0.00000000  0.00106150  1
  C  C1_5  1  0.50000000  0.00000000  0.50106150  1
  C  C1_6  1  0.50000000  0.50000000  0.00106150  1
  C  C1_7  1  0.50000000  0.50000000  0.50106150  1
loop_
_geom_bond_atom_site_label_1
_geom_bond_atom_site_label_2
_geom_bond_distance
_geom_bond_site_symmetry_2
Al0_0 Cr1_2 2.679770 1_545
Al0_0 Cr1_4 2.679770 1_555
Al0_0 Cr1_0 2.679773 1_555
Al0_0 Cr0_4 2.700262 1_555
Al0_0 Cr0_2 2.700262 1_545
Al0_0 Cr0_0 2.700265 1_555
Al0_0 Al0_2 2.891964 1_555
Al0_0 Al0_4 2.891964 1_455
Al0_0 Al0_4 2.891964 1_555
Al0_0 Al0_2 2.891964 1_545
Al0_0 Al0_6 2.891964 1_445
Al0_0 Al0_6 2.891964 1_555
Al0_1 Cr1_3 2.679770 1_545
Al0_1 Cr1_5 2.679770 1_555
Al0_1 Cr1_1 2.679773 1_555
Al0_1 Cr0_5 2.700262 1_555
Al0_1 Cr0_3 2.700262 1_545
Al0_1 Cr0_1 2.700265 1_555
Al0_1 Al0_5 2.891964 1_455
Al0_1 Al0_3 2.891964 1_555
Al0_1 Al0_5 2.891964 1_555
Al0_1 Al0_3 2.891964 1_545
Al0_1 Al0_7 2.891964 1_555
Al0_1 Al0_7 2.891964 1_445
Al0_2 Cr1_6 2.679770 1_555
Al0_2 Cr1_0 2.679770 1_555
Al0_2 Cr1_2 2.679773 1_555
Al0_2 Cr0_0 2.700262 1_555
Al0_2 Cr0_6 2.700262 1_555
Al0_2 Cr0_2 2.700265 1_555
Al0_2 Al0_6 2.891964 1_455
Al0_2 Al0_6 2.891964 1_555
Al0_2 Al0_4 2.891964 1_455
Al0_2 Al0_4 2.891964 1_565
Al0_3 Cr1_1 2.679770 1_555
Al0_3 Cr1_7 2.679770 1_555
Al0_3 Cr1_3 2.679773 1_555
Al0_3 Cr0_7 2.700262 1_555
Al0_3 Cr0_1 2.700262 1_555
Al0_3 Cr0_3 2.700265 1_555
Al0_3 Al0_7 2.891964 1_455
Al0_3 Al0_7 2.891964 1_555
Al0_3 Al0_5 2.891964 1_455
Al0_3 Al0_5 2.891964 1_565
Al0_4 Cr1_6 2.679770 1_545
Al0_4 Cr1_0 2.679770 1_655
Al0_4 Cr1_4 2.679773 1_555
Al0_4 Cr0_0 2.700262 1_655
Al0_4 Cr0_6 2.700262 1_545
Al0_4 Cr0_4 2.700265 1_555
Al0_4 Al0_6 2.891964 1_545
Al0_4 Al0_6 2.891964 1_555
Al0_5 Cr1_7 2.679770 1_545
Al0_5 Cr1_1 2.679770 1_655
Al0_5 Cr1_5 2.679773 1_555
Al0_5 Cr0_7 2.700262 1_545
Al0_5 Cr0_1 2.700262 1_655
Al0_5 Cr0_5 2.700265 1_555
Al0_5 Al0_7 2.891964 1_545
Al0_5 Al0_7 2.891964 1_555
Al0_6 Cr1_2 2.679770 1_655
Al0_6 Cr1_4 2.679770 1_555
Al0_6 Cr1_6 2.679773 1_555
Al0_6 Cr0_2 2.700262 1_655
Al0_6 Cr0_4 2.700262 1_555
Al0_6 Cr0_6 2.700265 1_555
Al0_7 Cr1_3 2.679770 1_655
Al0_7 Cr1_5 2.679770 1_555
Al0_7 Cr1_7 2.679773 1_555
Al0_7 Cr0_5 2.700262 1_555
Al0_7 Cr0_3 2.700262 1_655
Al0_7 Cr0_7 2.700265 1_555
Al1_0 Cr2_4 2.646086 1_455
Al1_0 Cr2_2 2.646086 1_555
Al1_0 Cr2_0 2.646090 1_555
Al1_0 Ti0_4 2.834401 1_455
Al1_0 Ti0_2 2.834401 1_555
Al1_0 Ti0_0 2.834404 1_555
Al1_0 Al1_4 2.891964 1_555
Al1_0 Al1_2 2.891964 1_545
Al1_0 Al1_4 2.891964 1_455
Al1_0 Al1_2 2.891964 1_555
Al1_0 Al1_6 2.891964 1_445
Al1_0 Al1_6 2.891964 1_555
Al1_1 Cr2_5 2.646086 1_455
Al1_1 Cr2_3 2.646086 1_555
Al1_1 Cr2_1 2.646090 1_555
Al1_1 Ti0_5 2.834401 1_455
Al1_1 Ti0_3 2.834401 1_555
Al1_1 Ti0_1 2.834404 1_555
Al1_1 Al1_3 2.891964 1_545
Al1_1 Al1_5 2.891964 1_555
Al1_1 Al1_3 2.891964 1_555
Al1_1 Al1_5 2.891964 1_455
Al1_1 Al1_7 2.891964 1_555
Al1_1 Al1_7 2.891964 1_445
Al1_2 Cr2_6 2.646086 1_455
Al1_2 Cr2_0 2.646086 1_565
Al1_2 Cr2_2 2.646090 1_555
Al1_2 Ti0_6 2.834401 1_455
Al1_2 Ti0_0 2.834401 1_565
Al1_2 Ti0_2 2.834404 1_555
Al1_2 Al1_6 2.891964 1_455
Al1_2 Al1_6 2.891964 1_555
Al1_2 Al1_4 2.891964 1_565
Al1_2 Al1_4 2.891964 1_455
Al1_3 Cr2_7 2.646086 1_455
Al1_3 Cr2_1 2.646086 1_565
Al1_3 Cr2_3 2.646090 1_555
Al1_3 Ti0_7 2.834401 1_455
Al1_3 Ti0_1 2.834401 1_565
Al1_3 Ti0_3 2.834404 1_555
Al1_3 Al1_7 2.891964 1_555
Al1_3 Al1_7 2.891964 1_455
Al1_3 Al1_5 2.891964 1_565
Al1_3 Al1_5 2.891964 1_455
Al1_4 Cr2_6 2.646086 1_555
Al1_4 Cr2_0 2.646086 1_555
Al1_4 Cr2_4 2.646090 1_555
Al1_4 Ti0_0 2.834401 1_555
Al1_4 Ti0_6 2.834401 1_555
Al1_4 Ti0_4 2.834404 1_555
Al1_4 Al1_6 2.891964 1_545
Al1_4 Al1_6 2.891964 1_555
Al1_5 Cr2_1 2.646086 1_555
Al1_5 Cr2_7 2.646086 1_555
Al1_5 Cr2_5 2.646090 1_555
Al1_5 Ti0_1 2.834401 1_555
Al1_5 Ti0_7 2.834401 1_555
Al1_5 Ti0_5 2.834404 1_555
Al1_5 Al1_7 2.891964 1_545
Al1_5 Al1_7 2.891964 1_555
Al1_6 Cr2_2 2.646086 1_555
Al1_6 Cr2_4 2.646086 1_565
Al1_6 Cr2_6 2.646090 1_555
Al1_6 Ti0_2 2.834401 1_555
Al1_6 Ti0_4 2.834401 1_565
Al1_6 Ti0_6 2.834404 1_555
Al1_7 Cr2_3 2.646086 1_555
Al1_7 Cr2_5 2.646086 1_565
Al1_7 Cr2_7 2.646090 1_555
Al1_7 Ti0_3 2.834401 1_555
Al1_7 Ti0_5 2.834401 1_565
Al1_7 Ti0_7 2.834404 1_555
C0_0 Cr0_2 1.963844 1_545
C0_0 Cr0_0 1.963846 1_555
C0_0 Cr0_6 1.963846 1_445
C0_0 Ti0_4 2.081736 1_455
C0_0 Ti0_0 2.081738 1_555
C0_0 Ti0_6 2.081738 1_445
C0_1 Cr0_3 1.963844 1_545
C0_1 Cr0_1 1.963846 1_555
C0_1 Cr0_7 1.963846 1_445
C0_1 Ti0_5 2.081736 1_455
C0_1 Ti0_7 2.081738 1_445
C0_1 Ti0_1 2.081738 1_555
C0_2 Cr0_0 1.963844 1_555
C0_2 Cr0_2 1.963846 1_555
C0_2 Cr0_4 1.963846 1_455
C0_2 Ti0_6 2.081736 1_455
C0_2 Ti0_4 2.081738 1_455
C0_2 Ti0_2 2.081738 1_555
C0_3 Cr0_1 1.963844 1_555
C0_3 Cr0_3 1.963846 1_555
C0_3 Cr0_5 1.963846 1_455
C0_3 Ti0_7 2.081736 1_455
C0_3 Ti0_3 2.081738 1_555
C0_3 Ti0_5 2.081738 1_455
C0_4 Cr0_6 1.963844 1_545
C0_4 Cr0_4 1.963846 1_555
C0_4 Cr0_2 1.963846 1_545
C0_4 Ti0_0 2.081736 1_555
C0_4 Ti0_4 2.081738 1_555
C0_4 Ti0_2 2.081738 1_545
C0_5 Cr0_7 1.963844 1_545
C0_5 Cr0_5 1.963846 1_555
C0_5 Cr0_3 1.963846 1_545
C0_5 Ti0_1 2.081736 1_555
C0_5 Ti0_5 2.081738 1_555
C0_5 Ti0_3 2.081738 1_545
C0_6 Cr0_4 1.963844 1_555
C0_6 Cr0_0 1.963846 1_555
C0_6 Cr0_6 1.963846 1_555
C0_6 Ti0_2 2.081736 1_555
C0_6 Ti0_0 2.081738 1_555
C0_6 Ti0_6 2.081738 1_555
C0_7 Cr0_5 1.963844 1_555
C0_7 Cr0_1 1.963846 1_555
C0_7 Cr0_7 1.963846 1_555
C0_7 Ti0_3 2.081736 1_555
C0_7 Ti0_1 2.081738 1_555
C0_7 Ti0_7 2.081738 1_555
C1_0 Cr2_5 1.970095 1_454
C1_0 Cr2_1 1.970097 1_554
C1_0 Cr2_7 1.970097 1_444
C1_0 Cr1_2 1.974544 1_545
C1_0 Cr1_0 1.974547 1_555
C1_0 Cr1_6 1.974547 1_445
C1_1 Cr2_4 1.970095 1_455
C1_1 Cr2_0 1.970097 1_555
C1_1 Cr2_6 1.970097 1_445
C1_1 Cr1_3 1.974544 1_545
C1_1 Cr1_1 1.974547 1_555
C1_1 Cr1_7 1.974547 1_445
C1_2 Cr2_7 1.970095 1_454
C1_2 Cr2_3 1.970097 1_554
C1_2 Cr2_5 1.970097 1_454
C1_2 Cr1_0 1.974544 1_555
C1_2 Cr1_2 1.974547 1_555
C1_2 Cr1_4 1.974547 1_455
C1_3 Cr2_6 1.970095 1_455
C1_3 Cr2_2 1.970097 1_555
C1_3 Cr2_4 1.970097 1_455
C1_3 Cr1_1 1.974544 1_555
C1_3 Cr1_3 1.974547 1_555
C1_3 Cr1_5 1.974547 1_455
C1_4 Cr2_1 1.970095 1_554
C1_4 Cr2_5 1.970097 1_554
C1_4 Cr2_3 1.970097 1_544
C1_4 Cr1_6 1.974544 1_545
C1_4 Cr1_4 1.974547 1_555
C1_4 Cr1_2 1.974547 1_545
C1_5 Cr2_0 1.970095 1_555
C1_5 Cr2_4 1.970097 1_555
C1_5 Cr2_2 1.970097 1_545
C1_5 Cr1_7 1.974544 1_545
C1_5 Cr1_5 1.974547 1_555
C1_5 Cr1_3 1.974547 1_545
C1_6 Cr2_3 1.970095 1_554
C1_6 Cr2_1 1.970097 1_554
C1_6 Cr2_7 1.970097 1_554
C1_6 Cr1_4 1.974544 1_555
C1_6 Cr1_0 1.974547 1_555
C1_6 Cr1_6 1.974547 1_555
C1_7 Cr2_2 1.970095 1_555
C1_7 Cr2_0 1.970097 1_555
C1_7 Cr2_6 1.970097 1_555
C1_7 Cr1_5 1.974544 1_555
C1_7 Cr1_1 1.974547 1_555
C1_7 Cr1_7 1.974547 1_555
