# generated using pymatgen
data_SnO2
_symmetry_space_group_name_H-M   'P 1'
_cell_length_a   6.50724570
_cell_length_b   6.50724570
_cell_length_c   14.60958300
_cell_angle_alpha   90.00000000
_cell_angle_beta   90.00000000
_cell_angle_gamma   119.99999697
_symmetry_Int_Tables_number   1
_chemical_formula_structural   SnO2
_chemical_formula_sum   'Sn12 O24'
_cell_volume   535.75085827
_cell_formula_units_Z   12
loop_
 _symmetry_equiv_pos_site_id
 _symmetry_equiv_pos_as_xyz
  1  'x, y, z'
loop_
 _atom_site_type_symbol
 _atom_site_label
 _atom_site_symmetry_multiplicity
 _atom_site_fract_x
 _atom_site_fract_y
 _atom_site_fract_z
 _atom_site_occupancy
  Sn  Sn0  1  0.82453300  0.17546700  0.82561300  1
  Sn  Sn1  1  0.82453300  0.64906600  0.82561300  1
  Sn  Sn2  1  0.15834300  0.84165700  0.51402200  1
  Sn  Sn3  1  0.35093400  0.17546700  0.82561300  1
  Sn  Sn4  1  0.15834300  0.31668500  0.51402200  1
  Sn  Sn5  1  0.33333300  0.66666700  0.34272500  1
  Sn  Sn6  1  0.33333300  0.66666700  0.74342800  1
  Sn  Sn7  1  0.49690500  0.50309500  0.16147400  1
  Sn  Sn8  1  0.68331500  0.84165700  0.51402200  1
  Sn  Sn9  1  0.49690500  0.99381000  0.16147400  1
  Sn  Sn10  1  0.00619000  0.50309500  0.16147400  1
  Sn  Sn11  1  0.00000000  0.00000000  0.04402700  1
  O  O0  1  0.50233200  0.49766800  0.89085300  1
  O  O1  1  0.66666700  0.33333300  0.74778000  1
  O  O2  1  0.50233200  0.00466400  0.89085300  1
  O  O3  1  0.99533600  0.49766800  0.89085300  1
  O  O4  1  0.84166700  0.15833300  0.58089100  1
  O  O5  1  0.69566100  0.84783100  0.75451700  1
  O  O6  1  0.00000000  0.00000000  0.43239900  1
  O  O7  1  0.15216900  0.30433900  0.75451700  1
  O  O8  1  0.00000000  0.00000000  0.90534400  1
  O  O9  1  0.84166700  0.68333300  0.58089100  1
  O  O10  1  0.31666700  0.15833300  0.58089100  1
  O  O11  1  0.15216900  0.84783100  0.75451700  1
  O  O12  1  0.18941600  0.81058400  0.24185800  1
  O  O13  1  0.05055600  0.52527800  0.43297400  1
  O  O14  1  0.47472200  0.94944400  0.43297400  1
  O  O15  1  0.33333300  0.66666700  0.08596300  1
  O  O16  1  0.33333300  0.66666700  0.59945200  1
  O  O17  1  0.18941600  0.37883300  0.24185800  1
  O  O18  1  0.62116700  0.81058400  0.24185800  1
  O  O19  1  0.47472200  0.52527800  0.43297400  1
  O  O20  1  0.33894300  0.16947200  0.08783400  1
  O  O21  1  0.83052800  0.66105700  0.08783400  1
  O  O22  1  0.66666700  0.33333300  0.22220600  1
  O  O23  1  0.83052800  0.16947200  0.08783400  1
loop_
_geom_bond_atom_site_label_1
_geom_bond_atom_site_label_2
_geom_bond_distance
_geom_bond_site_symmetry_2
O0 Sn3 2.051675 1_555
O0 Sn1 2.051675 1_555
O1 Sn0 2.111607 1_555
O1 Sn3 2.111611 1_555
O1 Sn1 2.111611 1_555
O2 Sn3 2.051675 1_555
O2 Sn0 2.051675 1_555
O3 Sn1 2.051675 1_555
O3 Sn0 2.051675 1_555
O4 Sn4 2.034507 1_655
O4 Sn8 2.034507 1_545
O5 Sn6 2.048295 1_555
O5 Sn0 2.130650 1_565
O5 Sn1 2.130655 1_555
O6 Sn4 2.146395 1_555
O6 Sn8 2.146395 1_445
O6 Sn2 2.146400 1_545
O7 Sn6 2.048295 1_555
O7 Sn0 2.130650 1_455
O7 Sn3 2.130655 1_555
O8 Sn11 2.026101 1_556
O8 Sn0 2.295215 1_455
O8 Sn1 2.295215 1_445
O8 Sn3 2.295215 1_555
O9 Sn8 2.034506 1_555
O9 Sn2 2.034507 1_655
O10 Sn4 2.034506 1_555
O10 Sn2 2.034507 1_545
O11 Sn6 2.048295 1_555
O11 Sn3 2.130650 1_565
O11 Sn1 2.130650 1_455
O12 Sn9 2.102067 1_555
O12 Sn10 2.102067 1_555
O12 Sn5 2.191503 1_555
O13 Sn5 2.068313 1_555
O13 Sn2 2.165287 1_555
O13 Sn4 2.165292 1_555
O14 Sn5 2.068313 1_555
O14 Sn2 2.165287 1_555
O14 Sn8 2.165292 1_555
O15 Sn9 2.148455 1_555
O15 Sn10 2.148455 1_555
O15 Sn7 2.148459 1_555
O16 Sn6 2.103429 1_555
O16 Sn2 2.334026 1_555
O16 Sn4 2.334036 1_555
O16 Sn8 2.334036 1_555
O17 Sn10 2.102062 1_555
O17 Sn7 2.102067 1_555
O17 Sn5 2.191503 1_555
O18 Sn9 2.102062 1_555
O18 Sn7 2.102067 1_555
O18 Sn5 2.191503 1_555
O19 Sn5 2.068317 1_555
O19 Sn4 2.165288 1_555
O19 Sn8 2.165288 1_555
O20 Sn11 2.014462 1_555
O20 Sn7 2.166931 1_555
O20 Sn9 2.166936 1_545
O21 Sn11 2.014462 1_665
O21 Sn7 2.166931 1_555
O21 Sn10 2.166936 1_655
O22 Sn10 2.109075 1_655
O22 Sn9 2.109075 1_545
O22 Sn7 2.109080 1_555
O23 Sn11 2.014467 1_655
O23 Sn10 2.166932 1_655
O23 Sn9 2.166932 1_545
