# generated using pymatgen
data_MgV8Zn4O16
_symmetry_space_group_name_H-M   'P 1'
_cell_length_a   3.04065278
_cell_length_b   10.69307480
_cell_length_c   9.91422432
_cell_angle_alpha   90.00238779
_cell_angle_beta   92.65365921
_cell_angle_gamma   90.01956853
_symmetry_Int_Tables_number   1
_chemical_formula_structural   MgV8Zn4O16
_chemical_formula_sum   'Mg1 V8 Zn4 O16'
_cell_volume   322.00468006
_cell_formula_units_Z   1
loop_
 _symmetry_equiv_pos_site_id
 _symmetry_equiv_pos_as_xyz
  1  'x, y, z'
loop_
 _atom_site_type_symbol
 _atom_site_label
 _atom_site_symmetry_multiplicity
 _atom_site_fract_x
 _atom_site_fract_y
 _atom_site_fract_z
 _atom_site_occupancy
  Mg  Mg0  1  0.74868985  0.74996390  0.96401502  1
  V  V0  1  0.75493977  0.56439832  0.39079296  1
  V  V1  1  0.77712728  0.08068102  0.12423094  1
  V  V2  1  0.24759833  0.08407146  0.61298933  1
  V  V3  1  0.77675827  0.41913805  0.12416047  1
  V  V4  1  0.24750191  0.41596084  0.61311655  1
  V  V5  1  0.75555160  0.93566380  0.39098057  1
  V  V6  1  0.24016962  0.97020136  0.87513137  1
  V  V7  1  0.23992678  0.52984597  0.87514663  1
  Zn  Zn0  1  0.25376546  0.75023021  0.19820286  1
  Zn  Zn1  1  0.41850773  0.24996908  0.35840535  1
  Zn  Zn2  1  0.25176882  0.74998148  0.62959906  1
  Zn  Zn3  1  0.85321761  0.24986337  0.86028864  1
  O  O0  1  0.26581632  0.90578425  0.52761726  1
  O  O1  1  0.73920850  0.11537262  0.48018424  1
  O  O2  1  0.31211070  0.00060024  0.24649925  1
  O  O3  1  0.75585008  0.92999590  0.99690013  1
  O  O4  1  0.75574391  0.56990721  0.99697667  1
  O  O5  1  0.88821257  0.24997647  0.22116304  1
  O  O6  1  0.23473508  0.12766314  0.98810640  1
  O  O7  1  0.30362859  0.25006680  0.71166366  1
  O  O8  1  0.31202385  0.49918167  0.24659035  1
  O  O9  1  0.74001698  0.02169600  0.74477391  1
  O  O10  1  0.26517544  0.59421267  0.52741282  1
  O  O11  1  0.23054780  0.74992509  0.82500708  1
  O  O12  1  0.77269781  0.74986628  0.33831464  1
  O  O13  1  0.73987242  0.47858316  0.74467100  1
  O  O14  1  0.23401880  0.37228651  0.98800521  1
  O  O15  1  0.73898612  0.38490814  0.48030260  1
loop_
_geom_bond_atom_site_label_1
_geom_bond_atom_site_label_2
_geom_bond_distance
_geom_bond_site_symmetry_2
Mg0 O3 1.952441 1_555
Mg0 O4 1.952868 1_555
Mg0 O11 2.044610 1_555
Mg0 O11 2.057423 1_655
O0 Zn2 1.950326 1_555
O0 V5 2.037198 1_455
O0 V5 2.083534 1_555
O0 V2 2.087641 1_565
O1 V2 2.011754 1_655
O1 V2 2.064470 1_555
O1 Zn1 2.090957 1_555
O1 V5 2.116908 1_545
O2 V5 2.043014 1_545
O2 V1 2.088042 1_555
O2 V1 2.160389 1_455
O2 V5 2.370994 1_445
O3 V6 1.981446 1_555
O3 V6 1.993788 1_655
O3 V1 2.046032 1_566
O4 V7 1.981523 1_555
O4 V7 1.993721 1_655
O4 V3 2.045959 1_556
O5 Zn1 2.017696 1_555
O5 Zn1 2.061114 1_655
O5 V3 2.069318 1_555
O5 V1 2.069819 1_555
O6 V6 2.022721 1_545
O6 V1 2.045300 1_456
O6 Zn3 2.126989 1_455
O6 V1 2.142008 1_556
O7 V4 2.028641 1_555
O7 V2 2.030000 1_555
O7 Zn3 2.057601 1_455
O7 Zn3 2.176192 1_555
O8 V0 2.040827 1_555
O8 V3 2.088610 1_555
O8 V3 2.161218 1_455
O8 V0 2.371603 1_455
O9 V6 2.026060 1_645
O9 V2 2.052648 1_555
O9 V6 2.113015 1_545
O9 V2 2.172563 1_655
O10 Zn2 1.950933 1_555
O10 V0 2.036735 1_455
O10 V0 2.083518 1_555
O10 V4 2.088591 1_555
O11 Zn2 1.941377 1_555
O11 V7 2.405176 1_555
O11 V6 2.407150 1_555
O12 V0 2.051681 1_555
O12 Zn0 2.053389 1_555
O12 V5 2.055485 1_555
O12 Zn0 2.063353 1_655
O13 V7 2.025568 1_655
O13 V4 2.051662 1_555
O13 V7 2.113592 1_555
O13 V4 2.172328 1_655
O14 V7 2.023068 1_555
O14 V3 2.044624 1_456
O14 Zn3 2.126204 1_455
O14 V3 2.142354 1_556
O15 V4 2.011458 1_655
O15 V4 2.063958 1_555
O15 Zn1 2.093308 1_555
O15 V0 2.116046 1_555
