# generated using pymatgen
data_LiCo2(PO4)2
_symmetry_space_group_name_H-M   'P 1'
_cell_length_a   5.13596500
_cell_length_b   10.32872600
_cell_length_c   13.60322300
_cell_angle_alpha   90.00000000
_cell_angle_beta   90.00000000
_cell_angle_gamma   90.00000000
_symmetry_Int_Tables_number   1
_chemical_formula_structural   LiCo2(PO4)2
_chemical_formula_sum   'Li4 Co8 P8 O32'
_cell_volume   721.62343676
_cell_formula_units_Z   4
loop_
 _symmetry_equiv_pos_site_id
 _symmetry_equiv_pos_as_xyz
  1  'x, y, z'
loop_
 _atom_site_type_symbol
 _atom_site_label
 _atom_site_symmetry_multiplicity
 _atom_site_fract_x
 _atom_site_fract_y
 _atom_site_fract_z
 _atom_site_occupancy
  Li  Li0  1  0.05610900  0.03348500  0.24706800  1
  Li  Li1  1  0.05610900  0.46651500  0.74706800  1
  Li  Li2  1  0.94389100  0.53348500  0.24706800  1
  Li  Li3  1  0.94389100  0.96651500  0.74706800  1
  Co  Co0  1  0.93053100  0.03206800  0.49766800  1
  Co  Co1  1  0.55499400  0.21787300  0.24863100  1
  Co  Co2  1  0.55499400  0.28212700  0.74863100  1
  Co  Co3  1  0.93053100  0.46793200  0.99766800  1
  Co  Co4  1  0.06946900  0.53206800  0.49766800  1
  Co  Co5  1  0.44500600  0.71787300  0.24863100  1
  Co  Co6  1  0.44500600  0.78212700  0.74863100  1
  Co  Co7  1  0.06946900  0.96793200  0.99766800  1
  P  P0  1  0.43612300  0.02956400  0.62506500  1
  P  P1  1  0.05409700  0.21822500  0.87208700  1
  P  P2  1  0.05409700  0.28177500  0.37208700  1
  P  P3  1  0.43612300  0.47043600  0.12506500  1
  P  P4  1  0.56387700  0.52956400  0.62506500  1
  P  P5  1  0.94590300  0.71822500  0.87208700  1
  P  P6  1  0.94590300  0.78177500  0.37208700  1
  P  P7  1  0.56387700  0.97043600  0.12506500  1
  O  O0  1  0.86141100  0.99408600  0.12202000  1
  O  O1  1  0.43037900  0.01250200  0.03027300  1
  O  O2  1  0.45134900  0.04497900  0.21756600  1
  O  O3  1  0.00532300  0.07056800  0.87259900  1
  O  O4  1  0.49673200  0.17580100  0.64328100  1
  O  O5  1  0.91448400  0.21940700  0.27934700  1
  O  O6  1  0.96688900  0.21660900  0.46668300  1
  O  O7  1  0.35073300  0.24658500  0.85587300  1
  O  O8  1  0.35073300  0.25341500  0.35587300  1
  O  O9  1  0.96688900  0.28339100  0.96668300  1
  O  O10  1  0.91448400  0.28059300  0.77934700  1
  O  O11  1  0.49673200  0.32419900  0.14328100  1
  O  O12  1  0.00532300  0.42943200  0.37259900  1
  O  O13  1  0.45134900  0.45502100  0.71756600  1
  O  O14  1  0.43037900  0.48749800  0.53027300  1
  O  O15  1  0.86141100  0.50591400  0.62202000  1
  O  O16  1  0.13858900  0.49408600  0.12202000  1
  O  O17  1  0.56962100  0.51250200  0.03027300  1
  O  O18  1  0.54865100  0.54497900  0.21756600  1
  O  O19  1  0.99467700  0.57056800  0.87259900  1
  O  O20  1  0.50326800  0.67580100  0.64328100  1
  O  O21  1  0.08551600  0.71940700  0.27934700  1
  O  O22  1  0.03311100  0.71660900  0.46668300  1
  O  O23  1  0.64926700  0.74658500  0.85587300  1
  O  O24  1  0.64926700  0.75341500  0.35587300  1
  O  O25  1  0.03311100  0.78339100  0.96668300  1
  O  O26  1  0.08551600  0.78059300  0.77934700  1
  O  O27  1  0.50326800  0.82419900  0.14328100  1
  O  O28  1  0.99467700  0.92943200  0.37259900  1
  O  O29  1  0.54865100  0.95502100  0.71756600  1
  O  O30  1  0.56962100  0.98749800  0.53027300  1
  O  O31  1  0.13858900  0.00591400  0.62202000  1
loop_
_geom_bond_atom_site_label_1
_geom_bond_atom_site_label_2
_geom_bond_distance
_geom_bond_site_symmetry_2
Li0 O0 2.014725 1_445
Li0 O28 2.042202 1_445
Li0 O2 2.072632 1_555
Li0 O5 2.099902 1_455
Li1 O15 2.014725 1_455
Li1 O19 2.042202 1_455
Li1 O13 2.072632 1_555
Li1 O10 2.099902 1_455
Li2 O16 2.014725 1_655
Li2 O12 2.042202 1_655
Li2 O18 2.072632 1_555
Li2 O21 2.099902 1_655
Li3 O31 2.014725 1_665
Li3 O3 2.042202 1_665
Li3 O29 2.072632 1_555
Li3 O26 2.099902 1_655
Co0 O30 1.960754 1_545
Co0 O6 1.961031 1_555
Co0 O31 2.018986 1_655
Co0 O28 2.031480 1_545
Co1 O11 1.830132 1_555
Co1 O8 1.833994 1_555
Co1 O5 1.893084 1_555
Co1 O2 1.910741 1_555
Co2 O4 1.830132 1_555
Co2 O7 1.833994 1_555
Co2 O10 1.893084 1_555
Co2 O13 1.910741 1_555
Co3 O17 1.960754 1_556
Co3 O9 1.961031 1_555
Co3 O16 2.018986 1_656
Co3 O19 2.031480 1_555
Co4 O14 1.960754 1_555
Co4 O22 1.961031 1_555
Co4 O15 2.018986 1_455
Co4 O12 2.031480 1_555
Co5 O27 1.830132 1_555
Co5 O24 1.833994 1_555
Co5 O21 1.893084 1_555
Co5 O18 1.910741 1_555
Co6 O20 1.830132 1_555
Co6 O23 1.833994 1_555
Co6 O26 1.893084 1_555
Co6 O29 1.910741 1_555
Co7 O1 1.960754 1_566
Co7 O25 1.961031 1_555
Co7 O0 2.018986 1_456
Co7 O3 2.031480 1_565
O0 P7 1.548079 1_555
O1 P7 1.523691 1_545
O2 P7 1.584349 1_545
O3 P1 1.545560 1_555
O4 P0 1.561966 1_555
O5 P2 1.587661 1_655
O6 P2 1.519715 1_655
O7 P1 1.567017 1_555
O8 P2 1.567017 1_555
O9 P1 1.519715 1_655
O10 P1 1.587661 1_655
O11 P3 1.561966 1_555
O12 P2 1.545560 1_555
O13 P4 1.584349 1_555
O14 P4 1.523691 1_555
O15 P4 1.548079 1_555
O16 P3 1.548079 1_555
O17 P3 1.523691 1_555
O18 P3 1.584349 1_555
O19 P5 1.545560 1_555
O20 P4 1.561966 1_555
O21 P6 1.587661 1_455
O22 P6 1.519715 1_455
O23 P5 1.567017 1_555
O24 P6 1.567017 1_555
O25 P5 1.519715 1_455
O26 P5 1.587661 1_455
O27 P7 1.561966 1_555
O28 P6 1.545560 1_555
O29 P0 1.584349 1_565
O30 P0 1.523691 1_565
O31 P0 1.548079 1_555
