# generated using pymatgen
data_BaSr7Co4(CuO6)4
_symmetry_space_group_name_H-M   'P 1'
_cell_length_a   7.78961882
_cell_length_b   7.78961882
_cell_length_c   7.78961865
_cell_angle_alpha   90.07852889
_cell_angle_beta   90.07852889
_cell_angle_gamma   90.07853593
_symmetry_Int_Tables_number   1
_chemical_formula_structural   BaSr7Co4(CuO6)4
_chemical_formula_sum   'Ba1 Sr7 Co4 Cu4 O24'
_cell_volume   472.65840496
_cell_formula_units_Z   1
loop_
 _symmetry_equiv_pos_site_id
 _symmetry_equiv_pos_as_xyz
  1  'x, y, z'
loop_
 _atom_site_type_symbol
 _atom_site_label
 _atom_site_symmetry_multiplicity
 _atom_site_fract_x
 _atom_site_fract_y
 _atom_site_fract_z
 _atom_site_occupancy
  Ba  Ba0  1  0.24904800  0.24904800  0.24904800  1
  Sr  Sr0  1  0.24799900  0.24799900  0.75196100  1
  Sr  Sr1  1  0.75177500  0.24788200  0.75177500  1
  Sr  Sr2  1  0.75196100  0.24799900  0.24799900  1
  Sr  Sr3  1  0.24788200  0.75177500  0.75177500  1
  Sr  Sr4  1  0.75189000  0.75189000  0.75189000  1
  Sr  Sr5  1  0.24799900  0.75196100  0.24799900  1
  Sr  Sr6  1  0.75177500  0.75177500  0.24788200  1
  Co  Co0  1  0.50096000  0.99991300  0.50096000  1
  Co  Co1  1  0.50096000  0.50096000  0.99991300  1
  Co  Co2  1  0.99991300  0.50096000  0.50096000  1
  Co  Co3  1  0.50121000  0.50121000  0.50121000  1
  Cu  Cu0  1  0.99971000  0.99971000  0.99971000  1
  Cu  Cu1  1  0.50046600  0.99974200  0.99974200  1
  Cu  Cu2  1  0.99974200  0.99974200  0.50046600  1
  Cu  Cu3  1  0.99974200  0.50046600  0.99974200  1
  O  O0  1  0.99370600  0.25120400  0.99370600  1
  O  O1  1  0.50655500  0.25451600  0.99436100  1
  O  O2  1  0.99436100  0.25451600  0.50655500  1
  O  O3  1  0.50502000  0.25495400  0.50502000  1
  O  O4  1  0.99856300  0.74894200  0.99856300  1
  O  O5  1  0.49965300  0.74591000  0.99920300  1
  O  O6  1  0.99920300  0.74591000  0.49965300  1
  O  O7  1  0.50080600  0.74528400  0.50080600  1
  O  O8  1  0.99856300  0.99856300  0.74894200  1
  O  O9  1  0.49965300  0.99920300  0.74591000  1
  O  O10  1  0.99370600  0.99370600  0.25120400  1
  O  O11  1  0.50655500  0.99436100  0.25451600  1
  O  O12  1  0.99920300  0.49965300  0.74591000  1
  O  O13  1  0.50080600  0.50080600  0.74528400  1
  O  O14  1  0.99436100  0.50655500  0.25451600  1
  O  O15  1  0.50502000  0.50502000  0.25495400  1
  O  O16  1  0.25120400  0.99370600  0.99370600  1
  O  O17  1  0.74894200  0.99856300  0.99856300  1
  O  O18  1  0.25451600  0.99436100  0.50655500  1
  O  O19  1  0.74591000  0.99920300  0.49965300  1
  O  O20  1  0.25451600  0.50655500  0.99436100  1
  O  O21  1  0.74591000  0.49965300  0.99920300  1
  O  O22  1  0.25495400  0.50502000  0.50502000  1
  O  O23  1  0.74528400  0.50080600  0.50080600  1
loop_
_geom_bond_atom_site_label_1
_geom_bond_atom_site_label_2
_geom_bond_distance
_geom_bond_site_symmetry_2
Ba0 O10 2.811049 1_445
Ba0 O0 2.811049 1_454
Ba0 O16 2.811049 1_544
Ba0 O15 2.818188 1_555
Ba0 O3 2.818188 1_555
Ba0 O22 2.818188 1_555
Ba0 O1 2.823508 1_554
Ba0 O20 2.823508 1_554
Ba0 O18 2.823508 1_545
Ba0 O2 2.823508 1_455
Ba0 O11 2.823508 1_545
Ba0 O14 2.823508 1_455
Co0 O9 1.908124 1_555
Co0 O19 1.908124 1_555
Co0 O11 1.920688 1_555
Co0 O18 1.920688 1_555
Co0 O7 1.983460 1_555
Co0 O3 1.987088 1_565
Co1 O21 1.908124 1_555
Co1 O5 1.908124 1_555
Co1 O20 1.920688 1_555
Co1 O1 1.920688 1_555
Co1 O13 1.983460 1_555
Co1 O15 1.987088 1_556
Co2 O12 1.908124 1_555
Co2 O6 1.908124 1_555
Co2 O14 1.920688 1_555
Co2 O2 1.920688 1_555
Co2 O23 1.983460 1_555
Co2 O22 1.987088 1_655
Co3 O13 1.901257 1_555
Co3 O7 1.901257 1_555
Co3 O23 1.901257 1_555
Co3 O15 1.918780 1_555
Co3 O22 1.918780 1_555
Co3 O3 1.918780 1_555
Cu0 O8 1.953403 1_555
Cu0 O4 1.953403 1_555
Cu0 O17 1.953403 1_555
Cu0 O10 1.960285 1_556
Cu0 O16 1.960285 1_655
Cu0 O0 1.960285 1_565
Cu1 O17 1.935602 1_555
Cu1 O16 1.942664 1_555
Cu1 O9 1.977255 1_555
Cu1 O5 1.977255 1_555
Cu1 O11 1.985595 1_556
Cu1 O1 1.985595 1_565
Cu2 O8 1.935602 1_555
Cu2 O10 1.942664 1_555
Cu2 O6 1.977255 1_555
Cu2 O19 1.977255 1_555
Cu2 O18 1.985595 1_655
Cu2 O2 1.985595 1_565
Cu3 O4 1.935602 1_555
Cu3 O0 1.942664 1_555
Cu3 O12 1.977255 1_555
Cu3 O21 1.977255 1_555
Cu3 O14 1.985595 1_556
Cu3 O20 1.985595 1_655
O0 Sr1 2.663405 1_555
O0 Sr2 2.735082 1_556
O0 Sr0 2.735082 1_655
O1 Sr1 2.689257 1_555
O1 Sr2 2.747838 1_556
O1 Sr0 2.759226 1_555
O2 Sr1 2.689257 1_555
O2 Sr0 2.747838 1_655
O2 Sr2 2.759226 1_555
O3 Sr1 2.717100 1_555
O3 Sr0 2.778851 1_555
O3 Sr2 2.778851 1_555
O4 Sr4 2.715674 1_555
O4 Sr3 2.734599 1_655
O4 Sr6 2.734599 1_556
O4 Sr5 2.746004 1_656
O5 Sr3 2.748322 1_555
O5 Sr4 2.753979 1_555
O5 Sr6 2.756922 1_556
O5 Sr5 2.758861 1_556
O6 Sr6 2.748322 1_555
O6 Sr4 2.753979 1_555
O6 Sr3 2.756922 1_655
O6 Sr5 2.758861 1_655
O7 Sr4 2.764471 1_555
O7 Sr6 2.777872 1_555
O7 Sr3 2.777872 1_555
O7 Sr5 2.783646 1_555
O8 Sr4 2.715674 1_555
O8 Sr3 2.734600 1_655
O8 Sr1 2.734600 1_565
O8 Sr0 2.746004 1_665
O9 Sr3 2.748322 1_555
O9 Sr4 2.753979 1_555
O9 Sr1 2.756922 1_565
O9 Sr0 2.758861 1_565
O10 Sr6 2.663405 1_555
O10 Sr2 2.735082 1_565
O10 Sr5 2.735082 1_655
O11 Sr6 2.689257 1_555
O11 Sr2 2.747838 1_565
O11 Sr5 2.759226 1_555
O12 Sr1 2.748322 1_555
O12 Sr4 2.753979 1_555
O12 Sr3 2.756922 1_655
O12 Sr0 2.758861 1_655
O13 Sr4 2.764471 1_555
O13 Sr1 2.777872 1_555
O13 Sr3 2.777872 1_555
O13 Sr0 2.783646 1_555
O14 Sr6 2.689257 1_555
O14 Sr5 2.747838 1_655
O14 Sr2 2.759226 1_555
O15 Sr6 2.717100 1_555
O15 Sr2 2.778851 1_555
O15 Sr5 2.778851 1_555
O16 Sr3 2.663405 1_555
O16 Sr5 2.735082 1_556
O16 Sr0 2.735082 1_565
O17 Sr4 2.715674 1_555
O17 Sr1 2.734599 1_565
O17 Sr6 2.734599 1_556
O17 Sr2 2.746004 1_566
O18 Sr3 2.689257 1_555
O18 Sr0 2.747838 1_565
O18 Sr5 2.759226 1_555
O19 Sr6 2.748322 1_555
O19 Sr4 2.753979 1_555
O19 Sr1 2.756922 1_565
O19 Sr2 2.758861 1_565
O20 Sr3 2.689257 1_555
O20 Sr5 2.747838 1_556
O20 Sr0 2.759226 1_555
O21 Sr1 2.748322 1_555
O21 Sr4 2.753979 1_555
O21 Sr6 2.756922 1_556
O21 Sr2 2.758861 1_556
O22 Sr3 2.717100 1_555
O22 Sr0 2.778851 1_555
O22 Sr5 2.778851 1_555
O23 Sr4 2.764471 1_555
O23 Sr6 2.777872 1_555
O23 Sr1 2.777872 1_555
O23 Sr2 2.783646 1_555
