# generated using pymatgen
data_Ba4NaAl2B8(BrO6)3
_symmetry_space_group_name_H-M   'P 1'
_cell_length_a   12.34446700
_cell_length_b   12.34446700
_cell_length_c   6.96745000
_cell_angle_alpha   90.00000000
_cell_angle_beta   90.00000000
_cell_angle_gamma   90.00000000
_symmetry_Int_Tables_number   1
_chemical_formula_structural   Ba4NaAl2B8(BrO6)3
_chemical_formula_sum   'Ba8 Na2 Al4 B16 Br6 O36'
_cell_volume   1061.74089868
_cell_formula_units_Z   2
loop_
 _symmetry_equiv_pos_site_id
 _symmetry_equiv_pos_as_xyz
  1  'x, y, z'
loop_
 _atom_site_type_symbol
 _atom_site_label
 _atom_site_symmetry_multiplicity
 _atom_site_fract_x
 _atom_site_fract_y
 _atom_site_fract_z
 _atom_site_occupancy
  Ba  Ba0  1  0.01752100  0.72582900  0.99035900  1
  Ba  Ba1  1  0.98247900  0.27417100  0.99035900  1
  Ba  Ba2  1  0.48248000  0.22582900  0.49035900  1
  Ba  Ba3  1  0.51752100  0.77417100  0.49035900  1
  Ba  Ba4  1  0.27417100  0.98247900  0.99035900  1
  Ba  Ba5  1  0.72582900  0.01752100  0.99035900  1
  Ba  Ba6  1  0.22582900  0.48248000  0.49035900  1
  Ba  Ba7  1  0.77417100  0.51752100  0.49035900  1
  Na  Na0  1  0.00000000  0.00000000  0.33755000  1
  Na  Na1  1  0.50000000  0.50000000  0.83755000  1
  Al  Al0  1  0.70131900  0.70131900  0.99830300  1
  Al  Al1  1  0.29868100  0.29868100  0.99830300  1
  Al  Al2  1  0.79868100  0.20131900  0.49830300  1
  Al  Al3  1  0.20131900  0.79868100  0.49830300  1
  B  B0  1  0.96473600  0.76824100  0.52821200  1
  B  B1  1  0.03526400  0.23175900  0.52821200  1
  B  B2  1  0.53526400  0.26824100  0.02821200  1
  B  B3  1  0.46473600  0.73175900  0.02821200  1
  B  B4  1  0.23175900  0.03526400  0.52821200  1
  B  B5  1  0.76824100  0.96473600  0.52821200  1
  B  B6  1  0.26824100  0.53526400  0.02821200  1
  B  B7  1  0.73175900  0.46473600  0.02821200  1
  B  B8  1  0.81460300  0.81460300  0.29499800  1
  B  B9  1  0.18539700  0.18539700  0.29499800  1
  B  B10  1  0.68539700  0.31460300  0.79499800  1
  B  B11  1  0.31460300  0.68539700  0.79499800  1
  B  B12  1  0.76796200  0.76796200  0.62554800  1
  B  B13  1  0.23203800  0.23203800  0.62554800  1
  B  B14  1  0.73203800  0.26796200  0.12554800  1
  B  B15  1  0.26796200  0.73203800  0.12554800  1
  Br  Br0  1  0.00000000  0.00000000  0.91447500  1
  Br  Br1  1  0.50000000  0.50000000  0.41447500  1
  Br  Br2  1  0.00000000  0.50000000  0.75859700  1
  Br  Br3  1  0.50000000  0.00000000  0.25859700  1
  Br  Br4  1  0.50000000  0.00000000  0.75859700  1
  Br  Br5  1  0.00000000  0.50000000  0.25859700  1
  O  O0  1  0.69997000  0.69997000  0.74282500  1
  O  O1  1  0.30003000  0.30003000  0.74282500  1
  O  O2  1  0.80003000  0.19997000  0.24282500  1
  O  O3  1  0.19997000  0.80003000  0.24282500  1
  O  O4  1  0.57033100  0.73457600  0.08482300  1
  O  O5  1  0.42966900  0.26542400  0.08482300  1
  O  O6  1  0.92966900  0.23457600  0.58482300  1
  O  O7  1  0.07033100  0.76542400  0.58482300  1
  O  O8  1  0.26542400  0.42966900  0.08482300  1
  O  O9  1  0.73457600  0.57033100  0.08482300  1
  O  O10  1  0.23457600  0.92966900  0.58482300  1
  O  O11  1  0.76542400  0.07033100  0.58482300  1
  O  O12  1  0.79582700  0.79582700  0.09369600  1
  O  O13  1  0.20417300  0.20417300  0.09369600  1
  O  O14  1  0.70417300  0.29582700  0.59369600  1
  O  O15  1  0.29582700  0.70417300  0.59369600  1
  O  O16  1  0.93495800  0.79784600  0.34248400  1
  O  O17  1  0.06504200  0.20215400  0.34248400  1
  O  O18  1  0.56504200  0.29784600  0.84248400  1
  O  O19  1  0.43495800  0.70215400  0.84248400  1
  O  O20  1  0.20215400  0.06504200  0.34248400  1
  O  O21  1  0.79784600  0.93495800  0.34248400  1
  O  O22  1  0.29784600  0.56504200  0.84248400  1
  O  O23  1  0.70215400  0.43495800  0.84248400  1
  O  O24  1  0.74650900  0.74650900  0.41951400  1
  O  O25  1  0.25349100  0.25349100  0.41951400  1
  O  O26  1  0.75349100  0.24650900  0.91951400  1
  O  O27  1  0.24650900  0.75349100  0.91951400  1
  O  O28  1  0.88585200  0.74531600  0.66430000  1
  O  O29  1  0.11414800  0.25468400  0.66430000  1
  O  O30  1  0.61414800  0.24531600  0.16430000  1
  O  O31  1  0.38585200  0.75468400  0.16430000  1
  O  O32  1  0.25468400  0.11414800  0.66430000  1
  O  O33  1  0.74531600  0.88585200  0.66430000  1
  O  O34  1  0.24531600  0.61414800  0.16430000  1
  O  O35  1  0.75468400  0.38585200  0.16430000  1
loop_
_geom_bond_atom_site_label_1
_geom_bond_atom_site_label_2
_geom_bond_distance
_geom_bond_site_symmetry_2
Ba0 O16 2.801489 1_456
Ba0 O28 2.803714 1_455
Ba0 O27 2.889755 1_555
Ba0 O7 2.940686 1_555
Ba0 O12 2.958807 1_456
Ba0 O3 3.000968 1_556
Ba0 Br2 3.228903 1_555
Ba0 O34 3.358096 1_556
Ba0 Br5 3.363210 1_556
Ba0 Br0 3.432365 1_565
Ba1 O17 2.801489 1_656
Ba1 O29 2.803714 1_655
Ba1 O26 2.889755 1_555
Ba1 O6 2.940686 1_555
Ba1 O13 2.958807 1_656
Ba1 O2 3.000968 1_556
Ba1 Br2 3.228903 1_655
Ba1 O35 3.358096 1_556
Ba1 Br5 3.363210 1_656
Ba1 Br0 3.432365 1_655
Ba2 O18 2.801484 1_555
Ba2 O30 2.803707 1_555
Ba2 O25 2.889767 1_555
Ba2 O5 2.940689 1_555
Ba2 O14 2.958795 1_555
Ba2 O1 3.000977 1_555
Ba2 Br3 3.228902 1_555
Ba2 O32 3.358106 1_555
Ba2 Br4 3.363210 1_555
Ba2 Br1 3.432364 1_555
Ba3 O19 2.801489 1_555
Ba3 O31 2.803714 1_555
Ba3 O24 2.889755 1_555
Ba3 O4 2.940686 1_555
Ba3 O15 2.958807 1_555
Ba3 O0 3.000968 1_555
Ba3 Br3 3.228903 1_565
Ba3 O33 3.358096 1_555
Ba3 Br4 3.363210 1_565
Ba3 Br1 3.432365 1_555
Ba4 O20 2.801489 1_566
Ba4 O32 2.803714 1_565
Ba4 O27 2.889755 1_555
Ba4 O10 2.940686 1_555
Ba4 O13 2.958807 1_566
Ba4 O3 3.000968 1_556
Ba4 Br4 3.228903 1_565
Ba4 O31 3.358096 1_556
Ba4 Br3 3.363210 1_566
Ba4 Br0 3.432365 1_565
Ba5 O21 2.801489 1_546
Ba5 O33 2.803714 1_545
Ba5 O26 2.889755 1_555
Ba5 O11 2.940686 1_555
Ba5 O12 2.958807 1_546
Ba5 O2 3.000968 1_556
Ba5 Br4 3.228903 1_555
Ba5 O30 3.358096 1_556
Ba5 Br3 3.363210 1_556
Ba5 Br0 3.432365 1_655
Ba6 O22 2.801484 1_555
Ba6 O34 2.803707 1_555
Ba6 O25 2.889767 1_555
Ba6 O8 2.940689 1_555
Ba6 O15 2.958795 1_555
Ba6 O1 3.000977 1_555
Ba6 Br5 3.228902 1_555
Ba6 O29 3.358106 1_555
Ba6 Br2 3.363210 1_555
Ba6 Br1 3.432364 1_555
Ba7 O23 2.801489 1_555
Ba7 O35 2.803714 1_555
Ba7 O24 2.889755 1_555
Ba7 O9 2.940686 1_555
Ba7 O14 2.958807 1_555
Ba7 O0 3.000968 1_555
Ba7 Br5 3.228903 1_655
Ba7 O28 3.358096 1_555
Ba7 Br2 3.363210 1_655
Ba7 Br1 3.432365 1_555
Na0 O21 2.621694 1_445
Na0 O16 2.621694 1_445
Na0 O20 2.621694 1_555
Na0 O17 2.621694 1_555
Na1 O19 2.621694 1_555
Na1 O23 2.621694 1_555
Na1 O18 2.621694 1_555
Na1 O22 2.621694 1_555
Al0 O4 1.773853 1_556
Al0 O9 1.773853 1_556
Al0 O12 1.778736 1_556
Al0 O0 1.780186 1_555
Al1 O8 1.773853 1_556
Al1 O5 1.773853 1_556
Al1 O13 1.778736 1_556
Al1 O1 1.780186 1_555
Al2 O6 1.773853 1_555
Al2 O11 1.773853 1_555
Al2 O14 1.778736 1_555
Al2 O2 1.780186 1_555
Al3 O7 1.773853 1_555
Al3 O10 1.773853 1_555
Al3 O15 1.778736 1_555
Al3 O3 1.780186 1_555
B0 O7 1.362328 1_655
B0 O28 1.388306 1_555
B0 O16 1.394006 1_555
B1 O6 1.362328 1_455
B1 O29 1.388306 1_555
B1 O17 1.394006 1_555
B2 O5 1.362328 1_555
B2 O30 1.388306 1_555
B2 O18 1.394006 1_554
B3 O4 1.362328 1_555
B3 O31 1.388306 1_555
B3 O19 1.394006 1_554
B4 O10 1.362328 1_545
B4 O32 1.388306 1_555
B4 O20 1.394006 1_555
B5 O11 1.362328 1_565
B5 O33 1.388306 1_555
B5 O21 1.394006 1_555
B6 O8 1.362328 1_555
B6 O34 1.388306 1_555
B6 O22 1.394006 1_554
B7 O9 1.362328 1_555
B7 O35 1.388306 1_555
B7 O23 1.394006 1_554
B8 O12 1.440355 1_555
B8 O24 1.471673 1_555
B8 O21 1.536104 1_555
B8 O16 1.536104 1_555
B9 O13 1.440355 1_555
B9 O25 1.471673 1_555
B9 O20 1.536104 1_555
B9 O17 1.536104 1_555
B10 O14 1.440355 1_555
B10 O26 1.471673 1_555
B10 O23 1.536104 1_555
B10 O18 1.536104 1_555
B11 O15 1.440355 1_555
B11 O27 1.471673 1_555
B11 O19 1.536104 1_555
B11 O22 1.536104 1_555
B12 O0 1.441048 1_555
B12 O24 1.483582 1_555
B12 O33 1.506293 1_555
B12 O28 1.506293 1_555
B13 O1 1.441048 1_555
B13 O25 1.483582 1_555
B13 O29 1.506293 1_555
B13 O32 1.506293 1_555
B14 O2 1.441048 1_555
B14 O26 1.483582 1_554
B14 O30 1.506293 1_555
B14 O35 1.506293 1_555
B15 O3 1.441048 1_555
B15 O27 1.483582 1_554
B15 O34 1.506293 1_555
B15 O31 1.506293 1_555
Br0 Na0 2.947754 1_556
Br1 Na1 2.947754 1_555
