# generated using pymatgen
data_KTmF4
_symmetry_space_group_name_H-M   'P 1'
_cell_length_a   14.04507633
_cell_length_b   14.04507633
_cell_length_c   10.15067300
_cell_angle_alpha   90.00000000
_cell_angle_beta   90.00000000
_cell_angle_gamma   120.00000157
_symmetry_Int_Tables_number   1
_chemical_formula_structural   KTmF4
_chemical_formula_sum   'K18 Tm18 F72'
_cell_volume   1734.09813037
_cell_formula_units_Z   18
loop_
 _symmetry_equiv_pos_site_id
 _symmetry_equiv_pos_as_xyz
  1  'x, y, z'
loop_
 _atom_site_type_symbol
 _atom_site_label
 _atom_site_symmetry_multiplicity
 _atom_site_fract_x
 _atom_site_fract_y
 _atom_site_fract_z
 _atom_site_occupancy
  K  K0  1  0.04516100  0.77982700  0.01379500  1
  K  K1  1  0.22017300  0.26533400  0.68046200  1
  K  K2  1  0.73466600  0.95483900  0.34712800  1
  K  K3  1  0.06192500  0.28083900  0.98550100  1
  K  K4  1  0.71916100  0.78108500  0.65216800  1
  K  K5  1  0.21891500  0.93807500  0.31883400  1
  K  K6  1  0.72992700  0.12317500  0.01081000  1
  K  K7  1  0.87682500  0.60675100  0.67747700  1
  K  K8  1  0.39324900  0.27007300  0.34414400  1
  K  K9  1  0.71142400  0.60766600  0.98311800  1
  K  K10  1  0.39233400  0.10375800  0.64978500  1
  K  K11  1  0.89624200  0.28857600  0.31645100  1
  K  K12  1  0.38868600  0.93479800  0.98186900  1
  K  K13  1  0.06520200  0.45388800  0.64853500  1
  K  K14  1  0.54611200  0.61131400  0.31520200  1
  K  K15  1  0.38572200  0.44074600  0.01034000  1
  K  K16  1  0.55925400  0.94497600  0.67700700  1
  K  K17  1  0.05502400  0.61427800  0.34367400  1
  Tm  Tm0  1  0.24023900  0.11183100  0.99687200  1
  Tm  Tm1  1  0.88816900  0.12840800  0.66353800  1
  Tm  Tm2  1  0.87159200  0.75976100  0.33020500  1
  Tm  Tm3  1  0.55055400  0.26973900  0.98660000  1
  Tm  Tm4  1  0.73026100  0.28081500  0.65326600  1
  Tm  Tm5  1  0.71918500  0.44944600  0.31993300  1
  Tm  Tm6  1  0.57268900  0.79349700  0.00309500  1
  Tm  Tm7  1  0.20650300  0.77919200  0.66976200  1
  Tm  Tm8  1  0.22080800  0.42731100  0.33642900  1
  Tm  Tm9  1  0.88306000  0.94271200  0.99332200  1
  Tm  Tm10  1  0.05728800  0.94034700  0.65998900  1
  Tm  Tm11  1  0.05965300  0.11694000  0.32665500  1
  Tm  Tm12  1  0.90697600  0.45360100  0.99077400  1
  Tm  Tm13  1  0.54639900  0.45337500  0.65744000  1
  Tm  Tm14  1  0.54662500  0.09302400  0.32410700  1
  Tm  Tm15  1  0.21722800  0.61271400  0.00731000  1
  Tm  Tm16  1  0.38728600  0.60451400  0.67397600  1
  Tm  Tm17  1  0.39548600  0.78277200  0.34064300  1
  F  F0  1  0.19232900  0.05950100  0.78312700  1
  F  F1  1  0.94049900  0.13282800  0.44979400  1
  F  F2  1  0.86717200  0.80767100  0.11646000  1
  F  F3  1  0.19061000  0.12164100  0.20644400  1
  F  F4  1  0.87835900  0.06896900  0.87311100  1
  F  F5  1  0.93103100  0.80939000  0.53977800  1
  F  F6  1  0.61485700  0.40317100  0.13769600  1
  F  F7  1  0.59682900  0.21168600  0.80436200  1
  F  F8  1  0.78831400  0.38514300  0.47102900  1
  F  F9  1  0.61041800  0.27162100  0.32174000  1
  F  F10  1  0.72837900  0.33879700  0.98840700  1
  F  F11  1  0.66120300  0.38958200  0.65507400  1
  F  F12  1  0.53003800  0.79586300  0.21761100  1
  F  F13  1  0.20413700  0.73417500  0.88427700  1
  F  F14  1  0.26582500  0.46996200  0.55094400  1
  F  F15  1  0.51847600  0.72815500  0.79540500  1
  F  F16  1  0.27184500  0.79032100  0.46207200  1
  F  F17  1  0.20967900  0.48152400  0.12873900  1
  F  F18  1  0.94919100  0.93961700  0.33003200  1
  F  F19  1  0.06038300  0.00957400  0.99669900  1
  F  F20  1  0.99042600  0.05080900  0.66336600  1
  F  F21  1  0.94887000  0.07174100  0.15006800  1
  F  F22  1  0.92825900  0.87712900  0.81673400  1
  F  F23  1  0.12287100  0.05113000  0.48340100  1
  F  F24  1  0.85260900  0.46049700  0.19973500  1
  F  F25  1  0.53950300  0.39211200  0.86640200  1
  F  F26  1  0.60788800  0.14739100  0.53306900  1
  F  F27  1  0.86374900  0.40390500  0.77640400  1
  F  F28  1  0.59609500  0.45984400  0.44307000  1
  F  F29  1  0.54015600  0.13625100  0.10973700  1
  F  F30  1  0.25986100  0.71305000  0.19238200  1
  F  F31  1  0.28695000  0.54681100  0.85904800  1
  F  F32  1  0.45318900  0.74013900  0.52571500  1
  F  F33  1  0.33566400  0.60618800  0.33721600  1
  F  F34  1  0.39381200  0.72947600  0.00388200  1
  F  F35  1  0.27052400  0.66433600  0.67054900  1
  F  F36  1  0.03622500  0.26709300  0.72907000  1
  F  F37  1  0.73290700  0.76913100  0.39573700  1
  F  F38  1  0.23086900  0.96377500  0.06240400  1
  F  F39  1  0.08774600  0.27582600  0.23890100  1
  F  F40  1  0.72417400  0.81192100  0.90556800  1
  F  F41  1  0.18807900  0.91225400  0.57223500  1
  F  F42  1  0.02357400  0.77461100  0.27095700  1
  F  F43  1  0.22538900  0.24896300  0.93762400  1
  F  F44  1  0.75103700  0.97642600  0.60429000  1
  F  F45  1  0.73183000  0.92476200  0.09320600  1
  F  F46  1  0.07523800  0.80706800  0.75987300  1
  F  F47  1  0.19293200  0.26817000  0.42654000  1
  F  F48  1  0.74106000  0.60677900  0.23392800  1
  F  F49  1  0.39322100  0.13428100  0.90059400  1
  F  F50  1  0.86571900  0.25894000  0.56726100  1
  F  F51  1  0.68896000  0.59565200  0.72709900  1
  F  F52  1  0.40434800  0.09330800  0.39376600  1
  F  F53  1  0.90669200  0.31104000  0.06043300  1
  F  F54  1  0.39761400  0.24572200  0.08808700  1
  F  F55  1  0.75427800  0.15189200  0.75475300  1
  F  F56  1  0.84810800  0.60238600  0.42142000  1
  F  F57  1  0.70295600  0.11644900  0.26898300  1
  F  F58  1  0.88355100  0.58650700  0.93564900  1
  F  F59  1  0.41349300  0.29704400  0.60231600  1
  F  F60  1  0.36323000  0.42768800  0.26510300  1
  F  F61  1  0.57231200  0.93554200  0.93176900  1
  F  F62  1  0.06445800  0.63677000  0.59843600  1
  F  F63  1  0.05757900  0.58809600  0.08901000  1
  F  F64  1  0.41190400  0.46948300  0.75567700  1
  F  F65  1  0.53051700  0.94242100  0.42234400  1
  F  F66  1  0.41685800  0.93291000  0.23455800  1
  F  F67  1  0.06709000  0.48394900  0.90122500  1
  F  F68  1  0.51605100  0.58314200  0.56789100  1
  F  F69  1  0.36312700  0.91236500  0.72278500  1
  F  F70  1  0.08763500  0.45076200  0.38945100  1
  F  F71  1  0.54923800  0.63687300  0.05611800  1
loop_
_geom_bond_atom_site_label_1
_geom_bond_atom_site_label_2
_geom_bond_distance
_geom_bond_site_symmetry_2
F0 Tm10 2.187747 1_545
F0 Tm0 2.281628 1_555
F0 K10 2.891924 1_555
F0 K1 2.909625 1_555
F1 Tm11 2.187760 1_655
F1 Tm1 2.281618 1_555
F1 K11 2.891929 1_555
F1 K2 2.909629 1_545
F2 Tm9 2.187742 1_554
F2 Tm2 2.281628 1_555
F2 K9 2.891924 1_554
F2 K0 2.909625 1_655
F3 Tm11 2.180571 1_555
F3 Tm0 2.264130 1_554
F3 K8 2.909755 1_555
F3 K5 3.021855 1_545
F4 Tm9 2.180583 1_545
F4 Tm1 2.264140 1_555
F4 K6 2.909741 1_556
F4 K3 3.021847 1_655
F5 Tm10 2.180576 1_655
F5 Tm2 2.264140 1_555
F5 K7 2.909753 1_555
F5 K4 3.021842 1_555
F6 Tm3 2.233282 1_554
F6 Tm5 2.244777 1_555
F6 K9 2.941985 1_554
F7 Tm4 2.233282 1_555
F7 Tm3 2.244785 1_555
F7 K10 2.941979 1_555
F8 Tm5 2.233282 1_555
F8 Tm4 2.244777 1_555
F8 K11 2.941985 1_555
F9 Tm5 2.180934 1_555
F9 Tm14 2.201815 1_555
F9 K8 3.047839 1_555
F10 Tm3 2.180934 1_555
F10 Tm12 2.201815 1_555
F10 K6 3.047852 1_556
F11 Tm4 2.180934 1_555
F11 Tm13 2.201815 1_555
F11 K7 3.047845 1_555
F12 Tm17 2.194836 1_555
F12 Tm6 2.263025 1_555
F12 K14 2.887204 1_555
F12 K2 2.925184 1_555
F13 Tm15 2.194842 1_556
F13 Tm7 2.263015 1_555
F13 K12 2.887207 1_555
F13 K0 2.925189 1_556
F14 Tm16 2.194836 1_555
F14 Tm8 2.263015 1_555
F14 K13 2.887204 1_555
F14 K1 2.925189 1_555
F15 Tm16 2.174908 1_555
F15 Tm6 2.273257 1_556
F15 K4 2.918210 1_555
F15 K16 3.049906 1_555
F16 Tm17 2.174908 1_555
F16 Tm7 2.273257 1_555
F16 K5 2.918203 1_555
F16 K17 3.049906 1_555
F17 Tm15 2.174908 1_555
F17 Tm8 2.273257 1_555
F17 K3 2.918211 1_554
F17 K15 3.049910 1_555
F18 Tm11 2.178744 1_665
F18 Tm2 2.194502 1_555
F18 K2 3.130220 1_555
F19 Tm9 2.178742 1_445
F19 Tm0 2.194502 1_555
F19 K0 3.130220 1_546
F20 Tm10 2.178755 1_645
F20 Tm1 2.194502 1_555
F20 K1 3.130220 1_655
F21 Tm9 2.234943 1_544
F21 Tm11 2.247046 1_655
F21 K3 3.045211 1_654
F22 Tm10 2.234936 1_655
F22 Tm9 2.247046 1_555
F22 K4 3.045205 1_555
F23 Tm11 2.234935 1_555
F23 Tm10 2.247053 1_545
F23 K5 3.045221 1_545
F24 Tm5 2.175670 1_555
F24 Tm12 2.272762 1_554
F24 K17 2.956634 1_655
F24 K11 3.014871 1_555
F25 Tm3 2.175670 1_555
F25 Tm13 2.272772 1_555
F25 K15 2.956629 1_556
F25 K9 3.014871 1_555
F26 Tm4 2.175665 1_555
F26 Tm14 2.272772 1_555
F26 K16 2.956629 1_545
F26 K10 3.014871 1_555
F27 Tm4 2.196569 1_555
F27 Tm12 2.273102 1_555
F27 K13 2.863014 1_655
F27 K7 2.938639 1_555
F28 Tm5 2.196564 1_555
F28 Tm13 2.273102 1_555
F28 K14 2.863010 1_555
F28 K8 2.938642 1_555
F29 Tm3 2.196564 1_554
F29 Tm14 2.273102 1_555
F29 K12 2.863010 1_544
F29 K6 2.938653 1_555
F30 Tm17 2.233152 1_555
F30 Tm15 2.242721 1_555
F30 K17 2.927231 1_555
F31 Tm15 2.233159 1_556
F31 Tm16 2.242721 1_555
F31 K15 2.927231 1_556
F32 Tm16 2.233152 1_555
F32 Tm17 2.242721 1_555
F32 K16 2.927231 1_555
F33 Tm17 2.185041 1_555
F33 Tm8 2.204858 1_555
F33 K14 2.928963 1_555
F34 Tm15 2.185041 1_555
F34 Tm6 2.204858 1_555
F34 K12 2.928962 1_554
F35 Tm16 2.185041 1_555
F35 Tm7 2.204858 1_555
F35 K13 2.928963 1_555
F36 Tm1 2.123737 1_455
F36 K13 2.578602 1_555
F36 K3 2.621681 1_555
F36 K1 2.642477 1_555
F37 Tm2 2.123730 1_555
F37 K14 2.578597 1_555
F37 K4 2.621681 1_555
F37 K2 2.642493 1_555
F38 Tm0 2.123743 1_564
F38 K12 2.578589 1_554
F38 K5 2.621671 1_555
F38 K0 2.642486 1_555
F39 Tm8 2.241258 1_555
F39 Tm11 2.246892 1_555
F39 K3 2.603483 1_554
F39 K11 2.892716 1_455
F40 Tm6 2.241248 1_556
F40 Tm9 2.246883 1_555
F40 K4 2.603487 1_555
F40 K9 2.892729 1_555
F41 Tm7 2.241261 1_555
F41 Tm10 2.246866 1_555
F41 K5 2.603496 1_555
F41 K10 2.892723 1_565
F42 Tm2 2.125204 1_455
F42 K5 2.595287 1_555
F42 K17 2.608764 1_555
F42 K0 2.624709 1_555
F43 Tm0 2.125204 1_555
F43 K3 2.595278 1_555
F43 K15 2.608761 1_556
F43 K1 2.624709 1_555
F44 Tm1 2.125204 1_565
F44 K4 2.595294 1_555
F44 K16 2.608764 1_555
F44 K2 2.624709 1_555
F45 Tm9 2.251128 1_554
F45 Tm6 2.260690 1_555
F45 K2 2.608948 1_555
F45 K6 2.922424 1_565
F46 Tm10 2.251115 1_555
F46 Tm7 2.260690 1_555
F46 K0 2.608948 1_556
F46 K7 2.922431 1_455
F47 Tm11 2.251127 1_555
F47 Tm8 2.260690 1_555
F47 K1 2.608948 1_555
F47 K8 2.922437 1_555
F48 Tm2 2.234652 1_555
F48 Tm5 2.249585 1_555
F48 K9 2.580727 1_554
F48 K14 2.890679 1_555
F49 Tm0 2.234656 1_555
F49 Tm3 2.249589 1_555
F49 K10 2.580717 1_555
F49 K12 2.890682 1_545
F50 Tm1 2.234652 1_555
F50 Tm4 2.249585 1_555
F50 K11 2.580727 1_555
F50 K13 2.890679 1_655
F51 Tm13 2.121585 1_555
F51 K4 2.537068 1_555
F51 K9 2.613113 1_555
F51 K7 2.613195 1_555
F52 Tm14 2.121586 1_555
F52 K5 2.537076 1_545
F52 K10 2.613113 1_555
F52 K8 2.613181 1_555
F53 Tm12 2.121586 1_554
F53 K3 2.537084 1_654
F53 K11 2.613103 1_555
F53 K6 2.613191 1_555
F54 Tm3 2.250460 1_554
F54 Tm0 2.263325 1_554
F54 K8 2.626268 1_555
F54 K15 2.934455 1_555
F55 Tm4 2.250460 1_555
F55 Tm1 2.263325 1_555
F55 K6 2.626269 1_556
F55 K16 2.934452 1_545
F56 Tm5 2.250460 1_555
F56 Tm2 2.263325 1_555
F56 K7 2.626270 1_555
F56 K17 2.934452 1_655
F57 Tm14 2.126019 1_555
F57 K11 2.623624 1_555
F57 K6 2.642789 1_555
F57 K2 2.643969 1_545
F58 Tm12 2.126022 1_555
F58 K9 2.623626 1_555
F58 K7 2.642778 1_555
F58 K0 2.643972 1_656
F59 Tm13 2.126019 1_555
F59 K10 2.623626 1_555
F59 K8 2.642779 1_555
F59 K1 2.643972 1_555
F60 Tm8 2.124837 1_555
F60 K8 2.579798 1_555
F60 K15 2.600571 1_555
F60 K14 2.623590 1_555
F61 Tm6 2.124837 1_556
F61 K6 2.579789 1_566
F61 K16 2.600561 1_555
F61 K12 2.623592 1_555
F62 Tm7 2.124837 1_555
F62 K7 2.579785 1_455
F62 K17 2.600561 1_555
F62 K13 2.623590 1_555
F63 Tm12 2.245255 1_454
F63 Tm15 2.249409 1_555
F63 K17 2.613807 1_555
F63 K0 2.886967 1_555
F64 Tm13 2.245259 1_555
F64 Tm16 2.249413 1_555
F64 K15 2.613797 1_556
F64 K1 2.886967 1_555
F65 Tm14 2.245259 1_565
F65 Tm17 2.249413 1_555
F65 K16 2.613797 1_555
F65 K2 2.886970 1_555
F66 Tm17 2.250182 1_555
F66 Tm14 2.259774 1_565
F66 K12 2.597459 1_554
F66 K5 2.944120 1_555
F67 Tm15 2.250177 1_556
F67 Tm12 2.259769 1_455
F67 K13 2.597471 1_555
F67 K3 2.944147 1_555
F68 Tm16 2.250169 1_555
F68 Tm13 2.259782 1_555
F68 K14 2.597460 1_555
F68 K4 2.944137 1_555
F69 Tm7 2.124316 1_555
F69 K16 2.598452 1_555
F69 K10 2.615470 1_565
F69 K12 2.651657 1_555
F70 Tm8 2.124313 1_555
F70 K17 2.598450 1_555
F70 K11 2.615470 1_455
F70 K13 2.651657 1_555
F71 Tm6 2.124316 1_555
F71 K15 2.598452 1_555
F71 K9 2.615470 1_554
F71 K14 2.651657 1_555
