# generated using pymatgen
data_NbCr3(CuS4)2
_symmetry_space_group_name_H-M   'P 1'
_cell_length_a   11.44220600
_cell_length_b   3.41879800
_cell_length_c   12.09121400
_cell_angle_alpha   90.00000000
_cell_angle_beta   90.00000000
_cell_angle_gamma   90.00000000
_symmetry_Int_Tables_number   1
_chemical_formula_structural   NbCr3(CuS4)2
_chemical_formula_sum   'Nb2 Cr6 Cu4 S16'
_cell_volume   472.99125502
_cell_formula_units_Z   2
loop_
 _symmetry_equiv_pos_site_id
 _symmetry_equiv_pos_as_xyz
  1  'x, y, z'
loop_
 _atom_site_type_symbol
 _atom_site_label
 _atom_site_symmetry_multiplicity
 _atom_site_fract_x
 _atom_site_fract_y
 _atom_site_fract_z
 _atom_site_occupancy
  Nb  Nb0  1  0.85229000  0.75000000  0.28720600  1
  Nb  Nb1  1  0.64771000  0.25000000  0.78720600  1
  Cr  Cr0  1  0.11687700  0.25000000  0.07072300  1
  Cr  Cr1  1  0.89126700  0.75000000  0.92887600  1
  Cr  Cr2  1  0.38312300  0.75000000  0.57072300  1
  Cr  Cr3  1  0.60873300  0.25000000  0.42887600  1
  Cr  Cr4  1  0.14756900  0.25000000  0.70442400  1
  Cr  Cr5  1  0.35243100  0.75000000  0.20442400  1
  Cu  Cu0  1  0.12768900  0.75000000  0.43675300  1
  Cu  Cu1  1  0.88642100  0.25000000  0.57078400  1
  Cu  Cu2  1  0.37231100  0.25000000  0.93675300  1
  Cu  Cu3  1  0.61357900  0.75000000  0.07078400  1
  S  S0  1  0.03014400  0.75000000  0.61319900  1
  S  S1  1  0.97184900  0.25000000  0.38205900  1
  S  S2  1  0.46985600  0.25000000  0.11319900  1
  S  S3  1  0.52815100  0.75000000  0.88205900  1
  S  S4  1  0.03180200  0.25000000  0.88406800  1
  S  S5  1  0.97358000  0.75000000  0.11766100  1
  S  S6  1  0.46819800  0.75000000  0.38406800  1
  S  S7  1  0.52642000  0.25000000  0.61766100  1
  S  S8  1  0.21507500  0.25000000  0.24755900  1
  S  S9  1  0.79949300  0.75000000  0.74934000  1
  S  S10  1  0.28492500  0.75000000  0.74755900  1
  S  S11  1  0.70050700  0.25000000  0.24934000  1
  S  S12  1  0.25175000  0.75000000  0.02929300  1
  S  S13  1  0.75084300  0.25000000  0.97805500  1
  S  S14  1  0.24825000  0.25000000  0.52929300  1
  S  S15  1  0.74915700  0.75000000  0.47805500  1
loop_
_geom_bond_atom_site_label_1
_geom_bond_atom_site_label_2
_geom_bond_distance
_geom_bond_site_symmetry_2
Nb0 S1 2.471613 1_565
Nb0 S1 2.471613 1_555
Nb0 S5 2.475597 1_555
Nb0 S11 2.479497 1_555
Nb0 S11 2.479497 1_565
Nb0 S15 2.591826 1_555
Nb1 S3 2.471613 1_545
Nb1 S3 2.471613 1_555
Nb1 S7 2.475597 1_555
Nb1 S9 2.479497 1_545
Nb1 S9 2.479497 1_555
Nb1 S13 2.591826 1_555
Cr0 S12 2.356818 1_545
Cr0 S12 2.356818 1_555
Cr0 S8 2.415412 1_555
Cr0 S5 2.435681 1_445
Cr0 S5 2.435681 1_455
Cr0 S4 2.457871 1_554
Cr1 S4 2.408596 1_655
Cr1 S4 2.408596 1_665
Cr1 S9 2.411454 1_555
Cr1 S13 2.420189 1_555
Cr1 S13 2.420189 1_565
Cr1 S5 2.469314 1_556
Cr2 S14 2.356818 1_565
Cr2 S14 2.356818 1_555
Cr2 S10 2.415412 1_555
Cr2 S7 2.435681 1_555
Cr2 S7 2.435681 1_565
Cr2 S6 2.457871 1_555
Cr3 S6 2.408596 1_555
Cr3 S6 2.408596 1_545
Cr3 S11 2.411454 1_555
Cr3 S15 2.420189 1_555
Cr3 S15 2.420189 1_545
Cr3 S7 2.469314 1_555
Cr4 S10 2.379951 1_555
Cr4 S10 2.379951 1_545
Cr4 S14 2.410630 1_555
Cr4 S0 2.438025 1_555
Cr4 S0 2.438025 1_545
Cr4 S4 2.544155 1_555
Cr5 S8 2.379951 1_555
Cr5 S8 2.379951 1_565
Cr5 S12 2.410630 1_555
Cr5 S2 2.438025 1_565
Cr5 S2 2.438025 1_555
Cr5 S6 2.544155 1_555
Cu0 S0 2.407766 1_555
Cu0 S14 2.465158 1_565
Cu0 S14 2.465158 1_555
Cu0 S1 2.557151 1_455
Cu0 S1 2.557151 1_465
Cu1 S0 2.426822 1_645
Cu1 S0 2.426822 1_655
Cu1 S1 2.482460 1_555
Cu1 S15 2.577972 1_555
Cu1 S15 2.577972 1_545
Cu1 S9 2.927879 1_545
Cu1 S9 2.927879 1_555
Cu2 S2 2.407766 1_556
Cu2 S12 2.465158 1_556
Cu2 S12 2.465158 1_546
Cu2 S3 2.557151 1_555
Cu2 S3 2.557151 1_545
Cu3 S2 2.426822 1_555
Cu3 S2 2.426822 1_565
Cu3 S3 2.482460 1_554
Cu3 S13 2.577972 1_554
Cu3 S13 2.577972 1_564
Cu3 S11 2.927879 1_565
Cu3 S11 2.927879 1_555
