# generated using pymatgen
data_CsZr2Al(PO4)4
_symmetry_space_group_name_H-M   'P 1'
_cell_length_a   8.86450100
_cell_length_b   9.55197000
_cell_length_c   18.27578300
_cell_angle_alpha   90.00000000
_cell_angle_beta   90.00000000
_cell_angle_gamma   90.00000000
_symmetry_Int_Tables_number   1
_chemical_formula_structural   CsZr2Al(PO4)4
_chemical_formula_sum   'Cs4 Zr8 Al4 P16 O64'
_cell_volume   1547.47355451
_cell_formula_units_Z   4
loop_
 _symmetry_equiv_pos_site_id
 _symmetry_equiv_pos_as_xyz
  1  'x, y, z'
loop_
 _atom_site_type_symbol
 _atom_site_label
 _atom_site_symmetry_multiplicity
 _atom_site_fract_x
 _atom_site_fract_y
 _atom_site_fract_z
 _atom_site_occupancy
  Cs  Cs0  1  0.34734100  0.75015100  0.25000000  1
  Cs  Cs1  1  0.65265900  0.24984900  0.75000000  1
  Cs  Cs2  1  0.34734100  0.74984900  0.75000000  1
  Cs  Cs3  1  0.65265900  0.25015100  0.25000000  1
  Zr  Zr0  1  0.24870000  0.03110200  0.42859700  1
  Zr  Zr1  1  0.75130000  0.96889800  0.92859700  1
  Zr  Zr2  1  0.24870000  0.46889800  0.57140300  1
  Zr  Zr3  1  0.75130000  0.53110200  0.07140300  1
  Zr  Zr4  1  0.75130000  0.96889800  0.57140300  1
  Zr  Zr5  1  0.24870000  0.03110200  0.07140300  1
  Zr  Zr6  1  0.75130000  0.53110200  0.42859700  1
  Zr  Zr7  1  0.24870000  0.46889800  0.92859700  1
  Al  Al0  1  0.80049700  0.89737400  0.25000000  1
  Al  Al1  1  0.19950300  0.10262600  0.75000000  1
  Al  Al2  1  0.80049700  0.60262600  0.75000000  1
  Al  Al3  1  0.19950300  0.39737400  0.25000000  1
  P  P0  1  0.09876900  0.07687900  0.25000000  1
  P  P1  1  0.90123100  0.92312100  0.75000000  1
  P  P2  1  0.09876900  0.42312100  0.75000000  1
  P  P3  1  0.90123100  0.57687900  0.25000000  1
  P  P4  1  0.03498000  0.75000000  0.50000000  1
  P  P5  1  0.96502000  0.25000000  0.00000000  1
  P  P6  1  0.96502000  0.25000000  0.50000000  1
  P  P7  1  0.03498000  0.75000000  0.00000000  1
  P  P8  1  0.60866700  0.87348700  0.39831500  1
  P  P9  1  0.39133300  0.12651300  0.89831500  1
  P  P10  1  0.60866700  0.62651300  0.60168500  1
  P  P11  1  0.39133300  0.37348700  0.10168500  1
  P  P12  1  0.39133300  0.12651300  0.60168500  1
  P  P13  1  0.60866700  0.87348700  0.10168500  1
  P  P14  1  0.39133300  0.37348700  0.39831500  1
  P  P15  1  0.60866700  0.62651300  0.89831500  1
  O  O0  1  0.10343200  0.23846300  0.25000000  1
  O  O1  1  0.89656800  0.76153700  0.75000000  1
  O  O2  1  0.10343200  0.26153700  0.75000000  1
  O  O3  1  0.89656800  0.73846300  0.25000000  1
  O  O4  1  0.92952400  0.03677800  0.25000000  1
  O  O5  1  0.07047600  0.96322200  0.75000000  1
  O  O6  1  0.92952400  0.46322200  0.75000000  1
  O  O7  1  0.07047600  0.53677800  0.25000000  1
  O  O8  1  0.17742200  0.01737600  0.31798600  1
  O  O9  1  0.82257800  0.98262400  0.81798600  1
  O  O10  1  0.17742200  0.48262400  0.68201400  1
  O  O11  1  0.82257800  0.51737600  0.18201400  1
  O  O12  1  0.82257800  0.98262400  0.68201400  1
  O  O13  1  0.17742200  0.01737600  0.18201400  1
  O  O14  1  0.82257800  0.51737600  0.31798600  1
  O  O15  1  0.17742200  0.48262400  0.81798600  1
  O  O16  1  0.06411600  0.16016800  0.44880400  1
  O  O17  1  0.93588400  0.83983200  0.94880400  1
  O  O18  1  0.06411600  0.33983200  0.55119600  1
  O  O19  1  0.93588400  0.66016800  0.05119600  1
  O  O20  1  0.93588400  0.83983200  0.55119600  1
  O  O21  1  0.06411600  0.16016800  0.05119600  1
  O  O22  1  0.93588400  0.66016800  0.44880400  1
  O  O23  1  0.06411600  0.33983200  0.94880400  1
  O  O24  1  0.13509700  0.84749100  0.45315500  1
  O  O25  1  0.86490300  0.15250900  0.95315500  1
  O  O26  1  0.13509700  0.65250900  0.54684500  1
  O  O27  1  0.86490300  0.34749100  0.04684500  1
  O  O28  1  0.86490300  0.15250900  0.54684500  1
  O  O29  1  0.13509700  0.84749100  0.04684500  1
  O  O30  1  0.86490300  0.34749100  0.45315500  1
  O  O31  1  0.13509700  0.65250900  0.95315500  1
  O  O32  1  0.44020700  0.91356900  0.39596100  1
  O  O33  1  0.55979300  0.08643100  0.89596100  1
  O  O34  1  0.44020700  0.58643100  0.60403900  1
  O  O35  1  0.55979300  0.41356900  0.10403900  1
  O  O36  1  0.55979300  0.08643100  0.60403900  1
  O  O37  1  0.44020700  0.91356900  0.10403900  1
  O  O38  1  0.55979300  0.41356900  0.39596100  1
  O  O39  1  0.44020700  0.58643100  0.89596100  1
  O  O40  1  0.68584100  0.94744900  0.46275400  1
  O  O41  1  0.31415900  0.05255100  0.96275400  1
  O  O42  1  0.68584100  0.55255100  0.53724600  1
  O  O43  1  0.31415900  0.44744900  0.03724600  1
  O  O44  1  0.31415900  0.05255100  0.53724600  1
  O  O45  1  0.68584100  0.94744900  0.03724600  1
  O  O46  1  0.31415900  0.44744900  0.46275400  1
  O  O47  1  0.68584100  0.55255100  0.96275400  1
  O  O48  1  0.62458500  0.71357800  0.40193700  1
  O  O49  1  0.37541500  0.28642200  0.90193700  1
  O  O50  1  0.62458500  0.78642200  0.59806300  1
  O  O51  1  0.37541500  0.21357800  0.09806300  1
  O  O52  1  0.37541500  0.28642200  0.59806300  1
  O  O53  1  0.62458500  0.71357800  0.09806300  1
  O  O54  1  0.37541500  0.21357800  0.40193700  1
  O  O55  1  0.62458500  0.78642200  0.90193700  1
  O  O56  1  0.68132500  0.92508300  0.32529100  1
  O  O57  1  0.31867500  0.07491700  0.82529100  1
  O  O58  1  0.68132500  0.57491700  0.67470900  1
  O  O59  1  0.31867500  0.42508300  0.17470900  1
  O  O60  1  0.31867500  0.07491700  0.67470900  1
  O  O61  1  0.68132500  0.92508300  0.17470900  1
  O  O62  1  0.31867500  0.42508300  0.32529100  1
  O  O63  1  0.68132500  0.57491700  0.82529100  1
loop_
_geom_bond_atom_site_label_1
_geom_bond_atom_site_label_2
_geom_bond_distance
_geom_bond_site_symmetry_2
Cs0 O7 3.190208 1_555
Cs0 O37 3.198455 1_555
Cs0 O32 3.198455 1_555
Cs0 O13 3.213715 1_565
Cs0 O8 3.213715 1_565
Cs0 O59 3.405764 1_555
Cs0 O62 3.405764 1_555
Cs0 O61 3.667506 1_555
Cs0 O56 3.667506 1_555
Cs0 O53 3.724570 1_555
Cs0 O48 3.724570 1_555
Cs1 O6 3.190208 1_555
Cs1 O36 3.198455 1_555
Cs1 O33 3.198455 1_555
Cs1 O12 3.213715 1_545
Cs1 O9 3.213715 1_545
Cs1 O58 3.405764 1_555
Cs1 O63 3.405764 1_555
Cs1 O57 3.667506 1_555
Cs1 O60 3.667506 1_555
Cs1 O49 3.724570 1_555
Cs1 O52 3.724570 1_555
Cs2 O5 3.190208 1_555
Cs2 O39 3.198455 1_555
Cs2 O34 3.198455 1_555
Cs2 O15 3.213715 1_555
Cs2 O10 3.213715 1_555
Cs2 O60 3.405764 1_565
Cs2 O57 3.405764 1_565
Cs2 O63 3.667506 1_555
Cs2 O58 3.667506 1_555
Cs2 O55 3.724570 1_555
Cs2 O50 3.724570 1_555
Cs3 O4 3.190208 1_555
Cs3 O38 3.198455 1_555
Cs3 O35 3.198455 1_555
Cs3 O14 3.213715 1_555
Cs3 O11 3.213715 1_555
Cs3 O61 3.405764 1_545
Cs3 O56 3.405764 1_545
Cs3 O62 3.667506 1_555
Cs3 O59 3.667506 1_555
Cs3 O54 3.724570 1_555
Cs3 O51 3.724570 1_555
Al0 O3 1.740494 1_555
Al0 O61 1.754827 1_555
Al0 O56 1.754827 1_555
Al0 O4 1.755363 1_565
Al1 O2 1.740494 1_555
Al1 O57 1.754827 1_555
Al1 O60 1.754827 1_555
Al1 O5 1.755363 1_545
Al2 O1 1.740494 1_555
Al2 O63 1.754827 1_555
Al2 O58 1.754827 1_555
Al2 O6 1.755363 1_555
Al3 O0 1.740494 1_555
Al3 O62 1.754827 1_555
Al3 O59 1.754827 1_555
Al3 O7 1.755363 1_555
O0 P0 1.543999 1_555
O1 P1 1.543999 1_555
O2 P2 1.543999 1_555
O3 P3 1.543999 1_555
O4 P0 1.548399 1_655
O5 P1 1.548399 1_455
O6 P2 1.548399 1_655
O7 P3 1.548399 1_455
O8 P0 1.533936 1_555
O8 Zr0 2.122001 1_555
O9 P1 1.533936 1_555
O9 Zr1 2.122001 1_555
O10 P2 1.533936 1_555
O10 Zr2 2.122001 1_555
O11 P3 1.533936 1_555
O11 Zr3 2.122001 1_555
O12 P1 1.533936 1_555
O12 Zr4 2.122001 1_555
O13 P0 1.533936 1_555
O13 Zr5 2.122001 1_555
O14 P3 1.533936 1_555
O14 Zr6 2.122001 1_555
O15 P2 1.533936 1_555
O15 Zr7 2.122001 1_555
O16 P6 1.543818 1_455
O16 Zr0 2.081721 1_555
O17 P7 1.543818 1_656
O17 Zr1 2.081721 1_555
O18 P6 1.543818 1_455
O18 Zr2 2.081721 1_555
O19 P7 1.543818 1_655
O19 Zr3 2.081721 1_555
O20 P4 1.543818 1_655
O20 Zr4 2.081721 1_555
O21 P5 1.543818 1_455
O21 Zr5 2.081721 1_555
O22 P4 1.543818 1_655
O22 Zr6 2.081721 1_555
O23 P5 1.543818 1_456
O23 Zr7 2.081721 1_555
O24 P4 1.545245 1_555
O24 Zr0 2.071601 1_565
O25 P5 1.545245 1_556
O25 Zr1 2.071601 1_545
O26 P4 1.545245 1_555
O26 Zr2 2.071601 1_555
O27 P5 1.545245 1_555
O27 Zr3 2.071601 1_555
O28 P6 1.545245 1_555
O28 Zr4 2.071601 1_545
O29 P7 1.545245 1_555
O29 Zr5 2.071601 1_565
O30 P6 1.545245 1_555
O30 Zr6 2.071601 1_555
O31 P7 1.545245 1_556
O31 Zr7 2.071601 1_555
O32 P8 1.542213 1_555
O32 Zr0 2.120857 1_565
O33 P9 1.542213 1_555
O33 Zr1 2.120857 1_545
O34 P10 1.542213 1_555
O34 Zr2 2.120857 1_555
O35 P11 1.542213 1_555
O35 Zr3 2.120857 1_555
O36 P12 1.542213 1_555
O36 Zr4 2.120857 1_545
O37 P13 1.542213 1_555
O37 Zr5 2.120857 1_565
O38 P14 1.542213 1_555
O38 Zr6 2.120857 1_555
O39 P15 1.542213 1_555
O39 Zr7 2.120857 1_555
O40 P8 1.534287 1_555
O40 Zr4 2.078814 1_555
O41 P9 1.534287 1_555
O41 Zr5 2.078814 1_556
O42 P10 1.534287 1_555
O42 Zr6 2.078814 1_555
O43 P11 1.534287 1_555
O43 Zr7 2.078814 1_554
O44 P12 1.534287 1_555
O44 Zr0 2.078814 1_555
O45 P13 1.534287 1_555
O45 Zr1 2.078814 1_554
O46 P14 1.534287 1_555
O46 Zr2 2.078814 1_555
O47 P15 1.534287 1_555
O47 Zr3 2.078814 1_556
O48 P8 1.535377 1_555
O48 Zr6 2.130068 1_555
O49 P9 1.535377 1_555
O49 Zr7 2.130068 1_555
O50 P10 1.535377 1_555
O50 Zr4 2.130068 1_555
O51 P11 1.535377 1_555
O51 Zr5 2.130068 1_555
O52 P12 1.535377 1_555
O52 Zr2 2.130068 1_555
O53 P13 1.535377 1_555
O53 Zr3 2.130068 1_555
O54 P14 1.535377 1_555
O54 Zr0 2.130068 1_555
O55 P15 1.535377 1_555
O55 Zr1 2.130068 1_555
O56 P8 1.561669 1_555
O57 P9 1.561669 1_555
O58 P10 1.561669 1_555
O59 P11 1.561669 1_555
O60 P12 1.561669 1_555
O61 P13 1.561669 1_555
O62 P14 1.561669 1_555
O63 P15 1.561669 1_555
