# generated using pymatgen
data_TbSm(Co2Ni3)2
_symmetry_space_group_name_H-M   'P 1'
_cell_length_a   3.98551300
_cell_length_b   4.92351000
_cell_length_c   8.51973300
_cell_angle_alpha   90.00000000
_cell_angle_beta   90.00000000
_cell_angle_gamma   90.00000000
_symmetry_Int_Tables_number   1
_chemical_formula_structural   TbSm(Co2Ni3)2
_chemical_formula_sum   'Tb1 Sm1 Co4 Ni6'
_cell_volume   167.18027644
_cell_formula_units_Z   1
loop_
 _symmetry_equiv_pos_site_id
 _symmetry_equiv_pos_as_xyz
  1  'x, y, z'
loop_
 _atom_site_type_symbol
 _atom_site_label
 _atom_site_symmetry_multiplicity
 _atom_site_fract_x
 _atom_site_fract_y
 _atom_site_fract_z
 _atom_site_occupancy
  Tb  Tb0  1  0.00000000  0.00000000  0.50000000  1
  Sm  Sm0  1  0.00000000  0.50000000  0.00000000  1
  Co  Co0  1  0.00000000  0.50000000  0.33371000  1
  Co  Co1  1  0.00000000  0.00000000  0.83323200  1
  Co  Co2  1  0.00000000  0.00000000  0.16676800  1
  Co  Co3  1  0.00000000  0.50000000  0.66629000  1
  Ni  Ni0  1  0.50000000  0.50000000  0.50000000  1
  Ni  Ni1  1  0.50000000  0.00000000  0.00000000  1
  Ni  Ni2  1  0.50000000  0.75028500  0.25022600  1
  Ni  Ni3  1  0.50000000  0.24971500  0.74977400  1
  Ni  Ni4  1  0.50000000  0.24971500  0.25022600  1
  Ni  Ni5  1  0.50000000  0.75028500  0.74977400  1
loop_
_geom_bond_atom_site_label_1
_geom_bond_atom_site_label_2
_geom_bond_distance
_geom_bond_site_symmetry_2
Co0 Ni0 2.445046 1_455
Co0 Ni0 2.445046 1_555
Co0 Ni4 2.448568 1_455
Co0 Ni2 2.448568 1_555
Co0 Ni4 2.448568 1_555
Co0 Ni2 2.448568 1_455
Co0 Tb0 2.840318 1_555
Co0 Tb0 2.840318 1_565
Co0 Sm0 2.843120 1_555
Co1 Ni5 2.447093 1_545
Co1 Ni3 2.447093 1_555
Co1 Ni5 2.447093 1_445
Co1 Ni3 2.447093 1_455
Co1 Ni1 2.447408 1_556
Co1 Ni1 2.447408 1_456
Co1 Tb0 2.839048 1_555
Co1 Sm0 2.842352 1_556
Co1 Sm0 2.842352 1_546
Co2 Ni4 2.447093 1_555
Co2 Ni4 2.447093 1_455
Co2 Ni2 2.447093 1_545
Co2 Ni2 2.447093 1_445
Co2 Ni1 2.447408 1_455
Co2 Ni1 2.447408 1_555
Co2 Tb0 2.839048 1_555
Co2 Sm0 2.842352 1_555
Co2 Sm0 2.842352 1_545
Co3 Ni0 2.445046 1_455
Co3 Ni0 2.445046 1_555
Co3 Ni3 2.448568 1_555
Co3 Ni3 2.448568 1_455
Co3 Ni5 2.448568 1_455
Co3 Ni5 2.448568 1_555
Co3 Tb0 2.840318 1_555
Co3 Tb0 2.840318 1_565
Co3 Sm0 2.843120 1_556
Ni0 Ni2 2.459051 1_555
Ni0 Ni4 2.459051 1_555
Ni0 Ni5 2.459051 1_555
Ni0 Ni3 2.459051 1_555
Ni0 Tb0 3.167225 1_665
Ni0 Tb0 3.167225 1_655
Ni0 Tb0 3.167225 1_565
Ni0 Tb0 3.167225 1_555
Ni1 Ni3 2.460981 1_554
Ni1 Ni5 2.460981 1_544
Ni1 Ni2 2.460981 1_545
Ni1 Ni4 2.460981 1_555
Ni1 Sm0 3.167225 1_655
Ni1 Sm0 3.167225 1_555
Ni1 Sm0 3.167225 1_545
Ni1 Sm0 3.167225 1_645
Ni2 Ni4 2.458949 1_565
Ni2 Ni4 2.464561 1_555
Ni2 Tb0 3.164033 1_565
Ni2 Tb0 3.164033 1_665
Ni2 Sm0 3.167715 1_655
Ni2 Sm0 3.167715 1_555
Ni3 Ni5 2.458949 1_545
Ni3 Ni5 2.464561 1_555
Ni3 Tb0 3.164033 1_555
Ni3 Tb0 3.164033 1_655
Ni3 Sm0 3.167715 1_556
Ni3 Sm0 3.167715 1_656
Ni4 Tb0 3.164033 1_655
Ni4 Tb0 3.164033 1_555
Ni4 Sm0 3.167715 1_655
Ni4 Sm0 3.167715 1_555
Ni5 Tb0 3.164033 1_665
Ni5 Tb0 3.164033 1_565
Ni5 Sm0 3.167715 1_556
Ni5 Sm0 3.167715 1_656
