# generated using pymatgen
data_Nd5(In2Pt)2
_symmetry_space_group_name_H-M   'P 1'
_cell_length_a   7.56916554
_cell_length_b   16.52860792
_cell_length_c   37.26647008
_cell_angle_alpha   90.00000000
_cell_angle_beta   90.00000000
_cell_angle_gamma   90.00000000
_symmetry_Int_Tables_number   1
_chemical_formula_structural   Nd5(In2Pt)2
_chemical_formula_sum   'Nd80 In64 Pt32'
_cell_volume   4662.32494856
_cell_formula_units_Z   16
loop_
 _symmetry_equiv_pos_site_id
 _symmetry_equiv_pos_as_xyz
  1  'x, y, z'
loop_
 _atom_site_type_symbol
 _atom_site_label
 _atom_site_symmetry_multiplicity
 _atom_site_fract_x
 _atom_site_fract_y
 _atom_site_fract_z
 _atom_site_occupancy
  Nd  Nd0_0  1  0.00000000  0.05856908  0.20784964  1
  Nd  Nd0_1  1  0.00000000  0.05856908  0.70784964  1
  Nd  Nd0_2  1  0.00000000  0.55856908  0.20784964  1
  Nd  Nd0_3  1  0.00000000  0.55856908  0.70784964  1
  Nd  Nd0_4  1  0.50000000  0.05856908  0.20784964  1
  Nd  Nd0_5  1  0.50000000  0.05856908  0.70784964  1
  Nd  Nd0_6  1  0.50000000  0.55856908  0.20784964  1
  Nd  Nd0_7  1  0.50000000  0.55856908  0.70784964  1
  Nd  Nd1_0  1  0.00000000  0.44143092  0.29215036  1
  Nd  Nd1_1  1  0.00000000  0.44143092  0.79215036  1
  Nd  Nd1_2  1  0.00000000  0.94143092  0.29215036  1
  Nd  Nd1_3  1  0.00000000  0.94143092  0.79215036  1
  Nd  Nd1_4  1  0.50000000  0.44143092  0.29215036  1
  Nd  Nd1_5  1  0.50000000  0.44143092  0.79215036  1
  Nd  Nd1_6  1  0.50000000  0.94143092  0.29215036  1
  Nd  Nd1_7  1  0.50000000  0.94143092  0.79215036  1
  Nd  Nd2_0  1  0.00000000  0.19143092  0.45784964  1
  Nd  Nd2_1  1  0.00000000  0.19143092  0.95784964  1
  Nd  Nd2_2  1  0.00000000  0.69143092  0.45784964  1
  Nd  Nd2_3  1  0.00000000  0.69143092  0.95784964  1
  Nd  Nd2_4  1  0.50000000  0.19143092  0.45784964  1
  Nd  Nd2_5  1  0.50000000  0.19143092  0.95784964  1
  Nd  Nd2_6  1  0.50000000  0.69143092  0.45784964  1
  Nd  Nd2_7  1  0.50000000  0.69143092  0.95784964  1
  Nd  Nd3_0  1  0.00000000  0.30856908  0.04215036  1
  Nd  Nd3_1  1  0.00000000  0.30856908  0.54215036  1
  Nd  Nd3_2  1  0.00000000  0.80856908  0.04215036  1
  Nd  Nd3_3  1  0.00000000  0.80856908  0.54215036  1
  Nd  Nd3_4  1  0.50000000  0.30856908  0.04215036  1
  Nd  Nd3_5  1  0.50000000  0.30856908  0.54215036  1
  Nd  Nd3_6  1  0.50000000  0.80856908  0.04215036  1
  Nd  Nd3_7  1  0.50000000  0.80856908  0.54215036  1
  Nd  Nd4_0  1  0.00000000  0.12089196  0.11097810  1
  Nd  Nd4_1  1  0.00000000  0.12089196  0.61097810  1
  Nd  Nd4_2  1  0.00000000  0.62089195  0.11097810  1
  Nd  Nd4_3  1  0.00000000  0.62089195  0.61097810  1
  Nd  Nd4_4  1  0.50000000  0.12089196  0.11097810  1
  Nd  Nd4_5  1  0.50000000  0.12089196  0.61097810  1
  Nd  Nd4_6  1  0.50000000  0.62089195  0.11097810  1
  Nd  Nd4_7  1  0.50000000  0.62089195  0.61097810  1
  Nd  Nd5_0  1  0.00000000  0.37910805  0.38902190  1
  Nd  Nd5_1  1  0.00000000  0.37910805  0.88902190  1
  Nd  Nd5_2  1  0.00000000  0.87910805  0.38902190  1
  Nd  Nd5_3  1  0.00000000  0.87910805  0.88902190  1
  Nd  Nd5_4  1  0.50000000  0.37910805  0.38902190  1
  Nd  Nd5_5  1  0.50000000  0.37910805  0.88902190  1
  Nd  Nd5_6  1  0.50000000  0.87910805  0.38902190  1
  Nd  Nd5_7  1  0.50000000  0.87910805  0.88902190  1
  Nd  Nd6_0  1  0.00000000  0.12910805  0.36097810  1
  Nd  Nd6_1  1  0.00000000  0.12910805  0.86097810  1
  Nd  Nd6_2  1  0.00000000  0.62910805  0.36097810  1
  Nd  Nd6_3  1  0.00000000  0.62910805  0.86097810  1
  Nd  Nd6_4  1  0.50000000  0.12910805  0.36097810  1
  Nd  Nd6_5  1  0.50000000  0.12910805  0.86097810  1
  Nd  Nd6_6  1  0.50000000  0.62910805  0.36097810  1
  Nd  Nd6_7  1  0.50000000  0.62910805  0.86097810  1
  Nd  Nd7_0  1  0.00000000  0.37089195  0.13902190  1
  Nd  Nd7_1  1  0.00000000  0.37089195  0.63902190  1
  Nd  Nd7_2  1  0.00000000  0.87089195  0.13902190  1
  Nd  Nd7_3  1  0.00000000  0.87089195  0.63902190  1
  Nd  Nd7_4  1  0.50000000  0.37089195  0.13902190  1
  Nd  Nd7_5  1  0.50000000  0.37089195  0.63902190  1
  Nd  Nd7_6  1  0.50000000  0.87089195  0.13902190  1
  Nd  Nd7_7  1  0.50000000  0.87089195  0.63902190  1
  Nd  Nd8_0  1  0.00000000  0.00000000  0.00000000  1
  Nd  Nd8_1  1  0.00000000  0.00000000  0.50000000  1
  Nd  Nd8_2  1  0.00000000  0.50000000  0.00000000  1
  Nd  Nd8_3  1  0.00000000  0.50000000  0.50000000  1
  Nd  Nd8_4  1  0.50000000  0.00000000  0.00000000  1
  Nd  Nd8_5  1  0.50000000  0.00000000  0.50000000  1
  Nd  Nd8_6  1  0.50000000  0.50000000  0.00000000  1
  Nd  Nd8_7  1  0.50000000  0.50000000  0.50000000  1
  Nd  Nd9_0  1  0.00000000  0.25000000  0.25000000  1
  Nd  Nd9_1  1  0.00000000  0.25000000  0.75000000  1
  Nd  Nd9_2  1  0.00000000  0.75000000  0.25000000  1
  Nd  Nd9_3  1  0.00000000  0.75000000  0.75000000  1
  Nd  Nd9_4  1  0.50000000  0.25000000  0.25000000  1
  Nd  Nd9_5  1  0.50000000  0.25000000  0.75000000  1
  Nd  Nd9_6  1  0.50000000  0.75000000  0.25000000  1
  Nd  Nd9_7  1  0.50000000  0.75000000  0.75000000  1
  In  In0_0  1  0.25000000  0.21532130  0.17535150  1
  In  In0_1  1  0.25000000  0.21532130  0.67535150  1
  In  In0_2  1  0.25000000  0.71532130  0.17535150  1
  In  In0_3  1  0.25000000  0.71532130  0.67535150  1
  In  In0_4  1  0.75000000  0.21532130  0.17535150  1
  In  In0_5  1  0.75000000  0.21532130  0.67535150  1
  In  In0_6  1  0.75000000  0.71532130  0.17535150  1
  In  In0_7  1  0.75000000  0.71532130  0.67535150  1
  In  In1_0  1  0.25000000  0.28467870  0.32464850  1
  In  In1_1  1  0.25000000  0.28467870  0.82464850  1
  In  In1_2  1  0.25000000  0.78467870  0.32464850  1
  In  In1_3  1  0.25000000  0.78467870  0.82464850  1
  In  In1_4  1  0.75000000  0.28467870  0.32464850  1
  In  In1_5  1  0.75000000  0.28467870  0.82464850  1
  In  In1_6  1  0.75000000  0.78467870  0.32464850  1
  In  In1_7  1  0.75000000  0.78467870  0.82464850  1
  In  In2_0  1  0.25000000  0.03467870  0.42535150  1
  In  In2_1  1  0.25000000  0.03467870  0.92535150  1
  In  In2_2  1  0.25000000  0.53467870  0.42535150  1
  In  In2_3  1  0.25000000  0.53467870  0.92535150  1
  In  In2_4  1  0.75000000  0.03467870  0.42535150  1
  In  In2_5  1  0.75000000  0.03467870  0.92535150  1
  In  In2_6  1  0.75000000  0.53467870  0.42535150  1
  In  In2_7  1  0.75000000  0.53467870  0.92535150  1
  In  In3_0  1  0.25000000  0.46532130  0.07464850  1
  In  In3_1  1  0.25000000  0.46532130  0.57464850  1
  In  In3_2  1  0.25000000  0.96532130  0.07464850  1
  In  In3_3  1  0.25000000  0.96532130  0.57464850  1
  In  In3_4  1  0.75000000  0.46532130  0.07464850  1
  In  In3_5  1  0.75000000  0.46532130  0.57464850  1
  In  In3_6  1  0.75000000  0.96532130  0.07464850  1
  In  In3_7  1  0.75000000  0.96532130  0.57464850  1
  In  In4_0  1  0.25000000  0.14456253  0.03527145  1
  In  In4_1  1  0.25000000  0.14456253  0.53527145  1
  In  In4_2  1  0.25000000  0.64456253  0.03527145  1
  In  In4_3  1  0.25000000  0.64456253  0.53527145  1
  In  In4_4  1  0.75000000  0.14456253  0.03527145  1
  In  In4_5  1  0.75000000  0.14456253  0.53527145  1
  In  In4_6  1  0.75000000  0.64456253  0.03527145  1
  In  In4_7  1  0.75000000  0.64456253  0.53527145  1
  In  In5_0  1  0.25000000  0.35543747  0.46472855  1
  In  In5_1  1  0.25000000  0.35543747  0.96472855  1
  In  In5_2  1  0.25000000  0.85543747  0.46472855  1
  In  In5_3  1  0.25000000  0.85543747  0.96472855  1
  In  In5_4  1  0.75000000  0.35543747  0.46472855  1
  In  In5_5  1  0.75000000  0.35543747  0.96472855  1
  In  In5_6  1  0.75000000  0.85543747  0.46472855  1
  In  In5_7  1  0.75000000  0.85543747  0.96472855  1
  In  In6_0  1  0.25000000  0.10543747  0.28527145  1
  In  In6_1  1  0.25000000  0.10543747  0.78527145  1
  In  In6_2  1  0.25000000  0.60543747  0.28527145  1
  In  In6_3  1  0.25000000  0.60543747  0.78527145  1
  In  In6_4  1  0.75000000  0.10543747  0.28527145  1
  In  In6_5  1  0.75000000  0.10543747  0.78527145  1
  In  In6_6  1  0.75000000  0.60543747  0.28527145  1
  In  In6_7  1  0.75000000  0.60543747  0.78527145  1
  In  In7_0  1  0.25000000  0.39456253  0.21472855  1
  In  In7_1  1  0.25000000  0.39456253  0.71472855  1
  In  In7_2  1  0.25000000  0.89456253  0.21472855  1
  In  In7_3  1  0.25000000  0.89456253  0.71472855  1
  In  In7_4  1  0.75000000  0.39456253  0.21472855  1
  In  In7_5  1  0.75000000  0.39456253  0.71472855  1
  In  In7_6  1  0.75000000  0.89456253  0.21472855  1
  In  In7_7  1  0.75000000  0.89456253  0.71472855  1
  Pt  Pt0_0  1  0.25000000  0.00974157  0.15185130  1
  Pt  Pt0_1  1  0.25000000  0.00974157  0.65185130  1
  Pt  Pt0_2  1  0.25000000  0.50974157  0.15185130  1
  Pt  Pt0_3  1  0.25000000  0.50974157  0.65185130  1
  Pt  Pt0_4  1  0.75000000  0.00974157  0.15185130  1
  Pt  Pt0_5  1  0.75000000  0.00974157  0.65185130  1
  Pt  Pt0_6  1  0.75000000  0.50974157  0.15185130  1
  Pt  Pt0_7  1  0.75000000  0.50974157  0.65185130  1
  Pt  Pt1_0  1  0.25000000  0.49025843  0.34814870  1
  Pt  Pt1_1  1  0.25000000  0.49025843  0.84814870  1
  Pt  Pt1_2  1  0.25000000  0.99025843  0.34814870  1
  Pt  Pt1_3  1  0.25000000  0.99025843  0.84814870  1
  Pt  Pt1_4  1  0.75000000  0.49025843  0.34814870  1
  Pt  Pt1_5  1  0.75000000  0.49025843  0.84814870  1
  Pt  Pt1_6  1  0.75000000  0.99025843  0.34814870  1
  Pt  Pt1_7  1  0.75000000  0.99025843  0.84814870  1
  Pt  Pt2_0  1  0.25000000  0.24025843  0.40185130  1
  Pt  Pt2_1  1  0.25000000  0.24025843  0.90185130  1
  Pt  Pt2_2  1  0.25000000  0.74025843  0.40185130  1
  Pt  Pt2_3  1  0.25000000  0.74025843  0.90185130  1
  Pt  Pt2_4  1  0.75000000  0.24025843  0.40185130  1
  Pt  Pt2_5  1  0.75000000  0.24025843  0.90185130  1
  Pt  Pt2_6  1  0.75000000  0.74025843  0.40185130  1
  Pt  Pt2_7  1  0.75000000  0.74025843  0.90185130  1
  Pt  Pt3_0  1  0.25000000  0.25974157  0.09814870  1
  Pt  Pt3_1  1  0.25000000  0.25974157  0.59814870  1
  Pt  Pt3_2  1  0.25000000  0.75974157  0.09814870  1
  Pt  Pt3_3  1  0.25000000  0.75974157  0.59814870  1
  Pt  Pt3_4  1  0.75000000  0.25974157  0.09814870  1
  Pt  Pt3_5  1  0.75000000  0.25974157  0.59814870  1
  Pt  Pt3_6  1  0.75000000  0.75974157  0.09814870  1
  Pt  Pt3_7  1  0.75000000  0.75974157  0.59814870  1
loop_
_geom_bond_atom_site_label_1
_geom_bond_atom_site_label_2
_geom_bond_distance
_geom_bond_site_symmetry_2
Nd0_0 Pt0_0 2.930373 1_555
Nd0_0 Pt0_4 2.930373 1_455
Nd0_0 Nd9_0 3.532540 1_555
Nd0_1 Pt0_1 2.930373 1_555
Nd0_1 Pt0_5 2.930373 1_455
Nd0_1 Nd9_1 3.532540 1_555
Nd0_2 Pt0_6 2.930373 1_455
Nd0_2 Pt0_2 2.930373 1_555
Nd0_2 Nd9_2 3.532540 1_555
Nd0_3 Pt0_3 2.930373 1_555
Nd0_3 Pt0_7 2.930373 1_455
Nd0_3 Nd9_3 3.532540 1_555
Nd0_4 Pt0_0 2.930373 1_555
Nd0_4 Pt0_4 2.930373 1_555
Nd0_4 Nd9_4 3.532540 1_555
Nd0_5 Pt0_1 2.930373 1_555
Nd0_5 Pt0_5 2.930373 1_555
Nd0_5 Nd9_5 3.532540 1_555
Nd0_6 Pt0_6 2.930373 1_555
Nd0_6 Pt0_2 2.930373 1_555
Nd0_6 Nd9_6 3.532540 1_555
Nd0_7 Pt0_3 2.930373 1_555
Nd0_7 Pt0_7 2.930373 1_555
Nd0_7 Nd9_7 3.532540 1_555
Nd1_0 Pt1_4 2.930373 1_455
Nd1_0 Pt1_0 2.930373 1_555
Nd1_0 Nd9_0 3.532540 1_555
Nd1_1 Pt1_1 2.930373 1_555
Nd1_1 Pt1_5 2.930373 1_455
Nd1_1 Nd9_1 3.532540 1_555
Nd1_2 Pt1_2 2.930373 1_555
Nd1_2 Pt1_6 2.930373 1_455
Nd1_2 Nd9_2 3.532540 1_555
Nd1_3 Pt1_3 2.930373 1_555
Nd1_3 Pt1_7 2.930373 1_455
Nd1_3 Nd9_3 3.532540 1_555
Nd1_4 Pt1_4 2.930373 1_555
Nd1_4 Pt1_0 2.930373 1_555
Nd1_4 Nd9_4 3.532540 1_555
Nd1_5 Pt1_1 2.930373 1_555
Nd1_5 Pt1_5 2.930373 1_555
Nd1_5 Nd9_5 3.532540 1_555
Nd1_6 Pt1_2 2.930373 1_555
Nd1_6 Pt1_6 2.930373 1_555
Nd1_6 Nd9_6 3.532540 1_555
Nd1_7 Pt1_3 2.930373 1_555
Nd1_7 Pt1_7 2.930373 1_555
Nd1_7 Nd9_7 3.532540 1_555
Nd2_0 Pt2_4 2.930373 1_455
Nd2_0 Pt2_0 2.930373 1_555
Nd2_0 Nd8_1 3.532540 1_555
Nd2_1 Pt2_5 2.930373 1_455
Nd2_1 Pt2_1 2.930373 1_555
Nd2_1 Nd8_0 3.532540 1_556
Nd2_2 Pt2_2 2.930373 1_555
Nd2_2 Pt2_6 2.930373 1_455
Nd2_2 Nd8_3 3.532540 1_555
Nd2_3 Pt2_7 2.930373 1_455
Nd2_3 Pt2_3 2.930373 1_555
Nd2_3 Nd8_2 3.532540 1_556
Nd2_4 Pt2_4 2.930373 1_555
Nd2_4 Pt2_0 2.930373 1_555
Nd2_4 Nd8_5 3.532540 1_555
Nd2_5 Pt2_1 2.930373 1_555
Nd2_5 Pt2_5 2.930373 1_555
Nd2_5 Nd8_4 3.532540 1_556
Nd2_6 Pt2_2 2.930373 1_555
Nd2_6 Pt2_6 2.930373 1_555
Nd2_6 Nd8_7 3.532540 1_555
Nd2_7 Pt2_3 2.930373 1_555
Nd2_7 Pt2_7 2.930373 1_555
Nd2_7 Nd8_6 3.532540 1_556
Nd3_0 Pt3_4 2.930373 1_455
Nd3_0 Pt3_0 2.930373 1_555
Nd3_0 Nd8_2 3.532540 1_555
Nd3_1 Pt3_1 2.930373 1_555
Nd3_1 Pt3_5 2.930373 1_455
Nd3_1 Nd8_3 3.532540 1_555
Nd3_2 Pt3_2 2.930373 1_555
Nd3_2 Pt3_6 2.930373 1_455
Nd3_2 Nd8_0 3.532540 1_565
Nd3_3 Pt3_7 2.930373 1_455
Nd3_3 Pt3_3 2.930373 1_555
Nd3_3 Nd8_1 3.532540 1_565
Nd3_4 Pt3_4 2.930373 1_555
Nd3_4 Pt3_0 2.930373 1_555
Nd3_4 Nd8_6 3.532540 1_555
Nd3_5 Pt3_1 2.930373 1_555
Nd3_5 Pt3_5 2.930373 1_555
Nd3_5 Nd8_7 3.532540 1_555
Nd3_6 Pt3_2 2.930373 1_555
Nd3_6 Pt3_6 2.930373 1_555
Nd3_6 Nd8_4 3.532540 1_565
Nd3_7 Pt3_3 2.930373 1_555
Nd3_7 Pt3_7 2.930373 1_555
Nd3_7 Nd8_5 3.532540 1_565
Nd4_0 Pt3_0 3.012696 1_555
Nd4_0 Pt3_4 3.012696 1_455
Nd4_0 Pt0_0 3.045663 1_555
Nd4_0 Pt0_4 3.045663 1_455
Nd4_1 Pt3_1 3.012696 1_555
Nd4_1 Pt3_5 3.012696 1_455
Nd4_1 Pt0_1 3.045663 1_555
Nd4_1 Pt0_5 3.045663 1_455
Nd4_2 Pt3_6 3.012696 1_455
Nd4_2 Pt3_2 3.012696 1_555
Nd4_2 Pt0_2 3.045663 1_555
Nd4_2 Pt0_6 3.045663 1_455
Nd4_3 Pt3_7 3.012696 1_455
Nd4_3 Pt3_3 3.012696 1_555
Nd4_3 Pt0_3 3.045663 1_555
Nd4_3 Pt0_7 3.045663 1_455
Nd4_4 Pt3_4 3.012696 1_555
Nd4_4 Pt3_0 3.012696 1_555
Nd4_4 Pt0_0 3.045663 1_555
Nd4_4 Pt0_4 3.045663 1_555
Nd4_5 Pt3_1 3.012696 1_555
Nd4_5 Pt3_5 3.012696 1_555
Nd4_5 Pt0_5 3.045663 1_555
Nd4_5 Pt0_1 3.045663 1_555
Nd4_6 Pt3_6 3.012696 1_555
Nd4_6 Pt3_2 3.012696 1_555
Nd4_6 Pt0_2 3.045663 1_555
Nd4_6 Pt0_6 3.045663 1_555
Nd4_7 Pt3_7 3.012696 1_555
Nd4_7 Pt3_3 3.012696 1_555
Nd4_7 Pt0_3 3.045663 1_555
Nd4_7 Pt0_7 3.045663 1_555
Nd5_0 Pt2_0 3.012696 1_555
Nd5_0 Pt2_4 3.012696 1_455
Nd5_0 Pt1_0 3.045663 1_555
Nd5_0 Pt1_4 3.045663 1_455
Nd5_1 Pt2_1 3.012696 1_555
Nd5_1 Pt2_5 3.012696 1_455
Nd5_1 Pt1_1 3.045663 1_555
Nd5_1 Pt1_5 3.045663 1_455
Nd5_2 Pt2_2 3.012696 1_555
Nd5_2 Pt2_6 3.012696 1_455
Nd5_2 Pt1_2 3.045663 1_555
Nd5_2 Pt1_6 3.045663 1_455
Nd5_3 Pt2_7 3.012696 1_455
Nd5_3 Pt2_3 3.012696 1_555
Nd5_3 Pt1_3 3.045663 1_555
Nd5_3 Pt1_7 3.045663 1_455
Nd5_4 Pt2_0 3.012696 1_555
Nd5_4 Pt2_4 3.012696 1_555
Nd5_4 Pt1_0 3.045663 1_555
Nd5_4 Pt1_4 3.045663 1_555
Nd5_5 Pt2_1 3.012696 1_555
Nd5_5 Pt2_5 3.012696 1_555
Nd5_5 Pt1_1 3.045663 1_555
Nd5_5 Pt1_5 3.045663 1_555
Nd5_6 Pt2_6 3.012696 1_555
Nd5_6 Pt2_2 3.012696 1_555
Nd5_6 Pt1_2 3.045663 1_555
Nd5_6 Pt1_6 3.045663 1_555
Nd5_7 Pt2_7 3.012696 1_555
Nd5_7 Pt2_3 3.012696 1_555
Nd5_7 Pt1_7 3.045663 1_555
Nd5_7 Pt1_3 3.045663 1_555
Nd6_0 Pt1_6 3.012696 1_445
Nd6_0 Pt1_2 3.012696 1_545
Nd6_0 Pt2_0 3.045663 1_555
Nd6_0 Pt2_4 3.045663 1_455
Nd6_1 Pt1_7 3.012696 1_445
Nd6_1 Pt1_3 3.012696 1_545
Nd6_1 Pt2_5 3.045663 1_455
Nd6_1 Pt2_1 3.045663 1_555
Nd6_2 Pt1_0 3.012696 1_555
Nd6_2 Pt1_4 3.012696 1_455
Nd6_2 Pt2_2 3.045663 1_555
Nd6_2 Pt2_6 3.045663 1_455
Nd6_3 Pt1_1 3.012696 1_555
Nd6_3 Pt1_5 3.012696 1_455
Nd6_3 Pt2_7 3.045663 1_455
Nd6_3 Pt2_3 3.045663 1_555
Nd6_4 Pt1_2 3.012696 1_545
Nd6_4 Pt1_6 3.012696 1_545
Nd6_4 Pt2_0 3.045663 1_555
Nd6_4 Pt2_4 3.045663 1_555
Nd6_5 Pt1_7 3.012696 1_545
Nd6_5 Pt1_3 3.012696 1_545
Nd6_5 Pt2_1 3.045663 1_555
Nd6_5 Pt2_5 3.045663 1_555
Nd6_6 Pt1_4 3.012696 1_555
Nd6_6 Pt1_0 3.012696 1_555
Nd6_6 Pt2_2 3.045663 1_555
Nd6_6 Pt2_6 3.045663 1_555
Nd6_7 Pt1_1 3.012696 1_555
Nd6_7 Pt1_5 3.012696 1_555
Nd6_7 Pt2_7 3.045663 1_555
Nd6_7 Pt2_3 3.045663 1_555
Nd7_0 Pt0_6 3.012696 1_455
Nd7_0 Pt0_2 3.012696 1_555
Nd7_0 Pt3_4 3.045663 1_455
Nd7_0 Pt3_0 3.045663 1_555
Nd7_1 Pt0_7 3.012696 1_455
Nd7_1 Pt0_3 3.012696 1_555
Nd7_1 Pt3_1 3.045663 1_555
Nd7_1 Pt3_5 3.045663 1_455
Nd7_2 Pt0_4 3.012696 1_465
Nd7_2 Pt0_0 3.012696 1_565
Nd7_2 Pt3_6 3.045663 1_455
Nd7_2 Pt3_2 3.045663 1_555
Nd7_3 Pt0_1 3.012696 1_565
Nd7_3 Pt0_5 3.012696 1_465
Nd7_3 Pt3_7 3.045663 1_455
Nd7_3 Pt3_3 3.045663 1_555
Nd7_4 Pt0_6 3.012696 1_555
Nd7_4 Pt0_2 3.012696 1_555
Nd7_4 Pt3_4 3.045663 1_555
Nd7_4 Pt3_0 3.045663 1_555
Nd7_5 Pt0_7 3.012696 1_555
Nd7_5 Pt0_3 3.012696 1_555
Nd7_5 Pt3_5 3.045663 1_555
Nd7_5 Pt3_1 3.045663 1_555
Nd7_6 Pt0_4 3.012696 1_565
Nd7_6 Pt0_0 3.012696 1_565
Nd7_6 Pt3_6 3.045663 1_555
Nd7_6 Pt3_2 3.045663 1_555
Nd7_7 Pt0_1 3.012696 1_565
Nd7_7 Pt0_5 3.012696 1_565
Nd7_7 Pt3_3 3.045663 1_555
Nd7_7 Pt3_7 3.045663 1_555
Nd8_0 Nd8_4 3.784583 1_455
Nd8_0 Nd8_4 3.784583 1_555
Nd8_1 Nd8_5 3.784583 1_455
Nd8_1 Nd8_5 3.784583 1_555
Nd8_2 Nd8_6 3.784583 1_555
Nd8_2 Nd8_6 3.784583 1_455
Nd8_3 Nd8_7 3.784583 1_555
Nd8_3 Nd8_7 3.784583 1_455
Nd9_0 Nd9_4 3.784583 1_555
Nd9_0 Nd9_4 3.784583 1_455
Nd9_1 Nd9_5 3.784583 1_555
Nd9_1 Nd9_5 3.784583 1_455
Nd9_2 Nd9_6 3.784583 1_555
Nd9_2 Nd9_6 3.784583 1_455
Nd9_3 Nd9_7 3.784583 1_555
Nd9_3 Nd9_7 3.784583 1_455
In0_0 Pt3_0 2.969280 1_555
In0_0 In7_0 3.306121 1_555
In0_0 Nd9_0 3.412947 1_555
In0_0 Nd9_4 3.412947 1_555
In0_0 Nd0_4 3.429322 1_555
In0_0 Nd0_0 3.429322 1_555
In0_0 Nd4_4 3.431016 1_555
In0_0 Nd4_0 3.431016 1_555
In0_0 Nd7_0 3.467805 1_555
In0_0 Nd7_4 3.467805 1_555
In0_1 Pt3_1 2.969280 1_555
In0_1 In7_1 3.306121 1_555
In0_1 Nd9_1 3.412947 1_555
In0_1 Nd9_5 3.412947 1_555
In0_1 Nd0_5 3.429322 1_555
In0_1 Nd0_1 3.429322 1_555
In0_1 Nd4_5 3.431016 1_555
In0_1 Nd4_1 3.431016 1_555
In0_1 Nd7_1 3.467805 1_555
In0_1 Nd7_5 3.467805 1_555
In0_2 Pt3_2 2.969280 1_555
In0_2 In7_2 3.306121 1_555
In0_2 Nd9_6 3.412947 1_555
In0_2 Nd9_2 3.412947 1_555
In0_2 Nd0_2 3.429322 1_555
In0_2 Nd0_6 3.429322 1_555
In0_2 Nd4_2 3.431016 1_555
In0_2 Nd4_6 3.431016 1_555
In0_2 Nd7_6 3.467805 1_555
In0_2 Nd7_2 3.467805 1_555
In0_3 Pt3_3 2.969280 1_555
In0_3 In7_3 3.306121 1_555
In0_3 Nd9_7 3.412947 1_555
In0_3 Nd9_3 3.412947 1_555
In0_3 Nd0_3 3.429322 1_555
In0_3 Nd0_7 3.429322 1_555
In0_3 Nd4_3 3.431016 1_555
In0_3 Nd4_7 3.431016 1_555
In0_3 Nd7_3 3.467805 1_555
In0_3 Nd7_7 3.467805 1_555
In0_4 Pt3_4 2.969280 1_555
In0_4 In7_4 3.306121 1_555
In0_4 Nd9_0 3.412947 1_655
In0_4 Nd9_4 3.412947 1_555
In0_4 Nd0_0 3.429322 1_655
In0_4 Nd0_4 3.429322 1_555
In0_4 Nd4_0 3.431016 1_655
In0_4 Nd4_4 3.431016 1_555
In0_4 Nd7_0 3.467805 1_655
In0_4 Nd7_4 3.467805 1_555
In0_5 Pt3_5 2.969280 1_555
In0_5 In7_5 3.306121 1_555
In0_5 Nd9_5 3.412947 1_555
In0_5 Nd9_1 3.412947 1_655
In0_5 Nd0_5 3.429322 1_555
In0_5 Nd0_1 3.429322 1_655
In0_5 Nd4_5 3.431016 1_555
In0_5 Nd4_1 3.431016 1_655
In0_5 Nd7_1 3.467805 1_655
In0_5 Nd7_5 3.467805 1_555
In0_6 Pt3_6 2.969280 1_555
In0_6 In7_6 3.306121 1_555
In0_6 Nd9_6 3.412947 1_555
In0_6 Nd9_2 3.412947 1_655
In0_6 Nd0_2 3.429322 1_655
In0_6 Nd0_6 3.429322 1_555
In0_6 Nd4_2 3.431016 1_655
In0_6 Nd4_6 3.431016 1_555
In0_6 Nd7_2 3.467805 1_655
In0_6 Nd7_6 3.467805 1_555
In0_7 Pt3_7 2.969280 1_555
In0_7 In7_7 3.306121 1_555
In0_7 Nd9_7 3.412947 1_555
In0_7 Nd9_3 3.412947 1_655
In0_7 Nd0_3 3.429322 1_655
In0_7 Nd0_7 3.429322 1_555
In0_7 Nd4_3 3.431016 1_655
In0_7 Nd4_7 3.431016 1_555
In0_7 Nd7_3 3.467805 1_655
In0_7 Nd7_7 3.467805 1_555
In1_0 Pt2_0 2.969280 1_555
In1_0 In6_0 3.306121 1_555
In1_0 Nd9_0 3.412947 1_555
In1_0 Nd9_4 3.412947 1_555
In1_0 Nd1_0 3.429322 1_555
In1_0 Nd1_4 3.429322 1_555
In1_0 Nd5_0 3.431016 1_555
In1_0 Nd5_4 3.431016 1_555
In1_0 Nd6_0 3.467805 1_555
In1_0 Nd6_4 3.467805 1_555
In1_1 Pt2_1 2.969280 1_555
In1_1 In6_1 3.306121 1_555
In1_1 Nd9_1 3.412947 1_555
In1_1 Nd9_5 3.412947 1_555
In1_1 Nd1_1 3.429322 1_555
In1_1 Nd1_5 3.429322 1_555
In1_1 Nd5_1 3.431016 1_555
In1_1 Nd5_5 3.431016 1_555
In1_1 Nd6_1 3.467805 1_555
In1_1 Nd6_5 3.467805 1_555
In1_2 Pt2_2 2.969280 1_555
In1_2 In6_2 3.306121 1_555
In1_2 Nd9_2 3.412947 1_555
In1_2 Nd9_6 3.412947 1_555
In1_2 Nd1_2 3.429322 1_555
In1_2 Nd1_6 3.429322 1_555
In1_2 Nd5_2 3.431016 1_555
In1_2 Nd5_6 3.431016 1_555
In1_2 Nd6_2 3.467805 1_555
In1_2 Nd6_6 3.467805 1_555
In1_3 Pt2_3 2.969280 1_555
In1_3 In6_3 3.306121 1_555
In1_3 Nd9_7 3.412947 1_555
In1_3 Nd9_3 3.412947 1_555
In1_3 Nd1_7 3.429322 1_555
In1_3 Nd1_3 3.429322 1_555
In1_3 Nd5_3 3.431016 1_555
In1_3 Nd5_7 3.431016 1_555
In1_3 Nd6_3 3.467805 1_555
In1_3 Nd6_7 3.467805 1_555
In1_4 Pt2_4 2.969280 1_555
In1_4 In6_4 3.306121 1_555
In1_4 Nd9_0 3.412947 1_655
In1_4 Nd9_4 3.412947 1_555
In1_4 Nd1_0 3.429322 1_655
In1_4 Nd1_4 3.429322 1_555
In1_4 Nd5_4 3.431016 1_555
In1_4 Nd5_0 3.431016 1_655
In1_4 Nd6_0 3.467805 1_655
In1_4 Nd6_4 3.467805 1_555
In1_5 Pt2_5 2.969280 1_555
In1_5 In6_5 3.306121 1_555
In1_5 Nd9_5 3.412947 1_555
In1_5 Nd9_1 3.412947 1_655
In1_5 Nd1_1 3.429322 1_655
In1_5 Nd1_5 3.429322 1_555
In1_5 Nd5_1 3.431016 1_655
In1_5 Nd5_5 3.431016 1_555
In1_5 Nd6_1 3.467805 1_655
In1_5 Nd6_5 3.467805 1_555
In1_6 Pt2_6 2.969280 1_555
In1_6 In6_6 3.306121 1_555
In1_6 Nd9_6 3.412947 1_555
In1_6 Nd9_2 3.412947 1_655
In1_6 Nd1_6 3.429322 1_555
In1_6 Nd1_2 3.429322 1_655
In1_6 Nd5_2 3.431016 1_655
In1_6 Nd5_6 3.431016 1_555
In1_6 Nd6_2 3.467805 1_655
In1_6 Nd6_6 3.467805 1_555
In1_7 Pt2_7 2.969280 1_555
In1_7 In6_7 3.306121 1_555
In1_7 Nd9_3 3.412947 1_655
In1_7 Nd9_7 3.412947 1_555
In1_7 Nd1_3 3.429322 1_655
In1_7 Nd1_7 3.429322 1_555
In1_7 Nd5_3 3.431016 1_655
In1_7 Nd5_7 3.431016 1_555
In1_7 Nd6_3 3.467805 1_655
In1_7 Nd6_7 3.467805 1_555
In2_0 Pt1_2 2.969280 1_545
In2_0 In5_2 3.306121 1_545
In2_0 Nd8_1 3.412947 1_555
In2_0 Nd8_5 3.412947 1_555
In2_0 Nd2_0 3.429322 1_555
In2_0 Nd2_4 3.429322 1_555
In2_0 Nd6_0 3.431016 1_555
In2_0 Nd6_4 3.431016 1_555
In2_0 Nd5_2 3.467805 1_545
In2_0 Nd5_6 3.467805 1_545
In2_1 Pt1_3 2.969280 1_545
In2_1 In5_3 3.306121 1_545
In2_1 Nd8_0 3.412947 1_556
In2_1 Nd8_4 3.412947 1_556
In2_1 Nd2_1 3.429322 1_555
In2_1 Nd2_5 3.429322 1_555
In2_1 Nd6_1 3.431016 1_555
In2_1 Nd6_5 3.431016 1_555
In2_1 Nd5_3 3.467805 1_545
In2_1 Nd5_7 3.467805 1_545
In2_2 Pt1_0 2.969280 1_555
In2_2 In5_0 3.306121 1_555
In2_2 Nd8_3 3.412947 1_555
In2_2 Nd8_7 3.412947 1_555
In2_2 Nd2_2 3.429322 1_555
In2_2 Nd2_6 3.429322 1_555
In2_2 Nd6_2 3.431016 1_555
In2_2 Nd6_6 3.431016 1_555
In2_2 Nd5_0 3.467805 1_555
In2_2 Nd5_4 3.467805 1_555
In2_3 Pt1_1 2.969280 1_555
In2_3 In5_1 3.306121 1_555
In2_3 Nd8_2 3.412947 1_556
In2_3 Nd8_6 3.412947 1_556
In2_3 Nd2_3 3.429322 1_555
In2_3 Nd2_7 3.429322 1_555
In2_3 Nd6_3 3.431016 1_555
In2_3 Nd6_7 3.431016 1_555
In2_3 Nd5_5 3.467805 1_555
In2_3 Nd5_1 3.467805 1_555
In2_4 Pt1_6 2.969280 1_545
In2_4 In5_6 3.306121 1_545
In2_4 Nd8_1 3.412947 1_655
In2_4 Nd8_5 3.412947 1_555
In2_4 Nd2_0 3.429322 1_655
In2_4 Nd2_4 3.429322 1_555
In2_4 Nd6_0 3.431016 1_655
In2_4 Nd6_4 3.431016 1_555
In2_4 Nd5_6 3.467805 1_545
In2_4 Nd5_2 3.467805 1_645
In2_5 Pt1_7 2.969280 1_545
In2_5 In5_7 3.306121 1_545
In2_5 Nd8_0 3.412947 1_656
In2_5 Nd8_4 3.412947 1_556
In2_5 Nd2_1 3.429322 1_655
In2_5 Nd2_5 3.429322 1_555
In2_5 Nd6_5 3.431016 1_555
In2_5 Nd6_1 3.431016 1_655
In2_5 Nd5_7 3.467805 1_545
In2_5 Nd5_3 3.467805 1_645
In2_6 Pt1_4 2.969280 1_555
In2_6 In5_4 3.306121 1_555
In2_6 Nd8_3 3.412947 1_655
In2_6 Nd8_7 3.412947 1_555
In2_6 Nd2_6 3.429322 1_555
In2_6 Nd2_2 3.429322 1_655
In2_6 Nd6_2 3.431016 1_655
In2_6 Nd6_6 3.431016 1_555
In2_6 Nd5_0 3.467805 1_655
In2_6 Nd5_4 3.467805 1_555
In2_7 Pt1_5 2.969280 1_555
In2_7 In5_5 3.306121 1_555
In2_7 Nd8_2 3.412947 1_656
In2_7 Nd8_6 3.412947 1_556
In2_7 Nd2_3 3.429322 1_655
In2_7 Nd2_7 3.429322 1_555
In2_7 Nd6_7 3.431016 1_555
In2_7 Nd6_3 3.431016 1_655
In2_7 Nd5_5 3.467805 1_555
In2_7 Nd5_1 3.467805 1_655
In3_0 Pt0_2 2.969280 1_555
In3_0 In4_2 3.306121 1_555
In3_0 Nd8_2 3.412947 1_555
In3_0 Nd8_6 3.412947 1_555
In3_0 Nd3_4 3.429322 1_555
In3_0 Nd3_0 3.429322 1_555
In3_0 Nd7_0 3.431016 1_555
In3_0 Nd7_4 3.431016 1_555
In3_0 Nd4_6 3.467805 1_555
In3_0 Nd4_2 3.467805 1_555
In3_1 Pt0_3 2.969280 1_555
In3_1 In4_3 3.306121 1_555
In3_1 Nd8_3 3.412947 1_555
In3_1 Nd8_7 3.412947 1_555
In3_1 Nd3_1 3.429322 1_555
In3_1 Nd3_5 3.429322 1_555
In3_1 Nd7_1 3.431016 1_555
In3_1 Nd7_5 3.431016 1_555
In3_1 Nd4_3 3.467805 1_555
In3_1 Nd4_7 3.467805 1_555
In3_2 Pt0_0 2.969280 1_565
In3_2 In4_0 3.306121 1_565
In3_2 Nd8_0 3.412947 1_565
In3_2 Nd8_4 3.412947 1_565
In3_2 Nd3_6 3.429322 1_555
In3_2 Nd3_2 3.429322 1_555
In3_2 Nd7_2 3.431016 1_555
In3_2 Nd7_6 3.431016 1_555
In3_2 Nd4_0 3.467805 1_565
In3_2 Nd4_4 3.467805 1_565
In3_3 Pt0_1 2.969280 1_565
In3_3 In4_1 3.306121 1_565
In3_3 Nd8_1 3.412947 1_565
In3_3 Nd8_5 3.412947 1_565
In3_3 Nd3_7 3.429322 1_555
In3_3 Nd3_3 3.429322 1_555
In3_3 Nd7_7 3.431016 1_555
In3_3 Nd7_3 3.431016 1_555
In3_3 Nd4_1 3.467805 1_565
In3_3 Nd4_5 3.467805 1_565
In3_4 Pt0_6 2.969280 1_555
In3_4 In4_6 3.306121 1_555
In3_4 Nd8_6 3.412947 1_555
In3_4 Nd8_2 3.412947 1_655
In3_4 Nd3_4 3.429322 1_555
In3_4 Nd3_0 3.429322 1_655
In3_4 Nd7_4 3.431016 1_555
In3_4 Nd7_0 3.431016 1_655
In3_4 Nd4_6 3.467805 1_555
In3_4 Nd4_2 3.467805 1_655
In3_5 Pt0_7 2.969280 1_555
In3_5 In4_7 3.306121 1_555
In3_5 Nd8_3 3.412947 1_655
In3_5 Nd8_7 3.412947 1_555
In3_5 Nd3_5 3.429322 1_555
In3_5 Nd3_1 3.429322 1_655
In3_5 Nd7_5 3.431016 1_555
In3_5 Nd7_1 3.431016 1_655
In3_5 Nd4_7 3.467805 1_555
In3_5 Nd4_3 3.467805 1_655
In3_6 Pt0_4 2.969280 1_565
In3_6 In4_4 3.306121 1_565
In3_6 Nd8_4 3.412947 1_565
In3_6 Nd8_0 3.412947 1_665
In3_6 Nd3_6 3.429322 1_555
In3_6 Nd3_2 3.429322 1_655
In3_6 Nd7_6 3.431016 1_555
In3_6 Nd7_2 3.431016 1_655
In3_6 Nd4_0 3.467805 1_665
In3_6 Nd4_4 3.467805 1_565
In3_7 Pt0_5 2.969280 1_565
In3_7 In4_5 3.306121 1_565
In3_7 Nd8_5 3.412947 1_565
In3_7 Nd8_1 3.412947 1_665
In3_7 Nd3_7 3.429322 1_555
In3_7 Nd3_3 3.429322 1_655
In3_7 Nd7_7 3.431016 1_555
In3_7 Nd7_3 3.431016 1_655
In3_7 Nd4_5 3.467805 1_565
In3_7 Nd4_1 3.467805 1_665
In4_0 Pt3_0 3.019091 1_555
In4_0 Nd3_0 3.315859 1_555
In4_0 Nd3_4 3.315859 1_555
In4_0 Nd8_0 3.319313 1_555
In4_0 Nd8_4 3.319313 1_555
In4_0 Nd4_0 3.419602 1_555
In4_0 Nd4_4 3.419602 1_555
In4_0 Nd2_1 3.536308 1_554
In4_0 Nd2_5 3.536308 1_554
In4_1 Pt3_1 3.019091 1_555
In4_1 Nd3_5 3.315859 1_555
In4_1 Nd3_1 3.315859 1_555
In4_1 Nd8_1 3.319313 1_555
In4_1 Nd8_5 3.319313 1_555
In4_1 Nd4_1 3.419602 1_555
In4_1 Nd4_5 3.419602 1_555
In4_1 Nd2_0 3.536308 1_555
In4_1 Nd2_4 3.536308 1_555
In4_2 Pt3_2 3.019091 1_555
In4_2 Nd3_2 3.315859 1_555
In4_2 Nd3_6 3.315859 1_555
In4_2 Nd8_6 3.319313 1_555
In4_2 Nd8_2 3.319313 1_555
In4_2 Nd4_2 3.419602 1_555
In4_2 Nd4_6 3.419602 1_555
In4_2 Nd2_7 3.536308 1_554
In4_2 Nd2_3 3.536308 1_554
In4_3 Pt3_3 3.019091 1_555
In4_3 Nd3_3 3.315859 1_555
In4_3 Nd3_7 3.315859 1_555
In4_3 Nd8_3 3.319313 1_555
In4_3 Nd8_7 3.319313 1_555
In4_3 Nd4_3 3.419602 1_555
In4_3 Nd4_7 3.419602 1_555
In4_3 Nd2_2 3.536308 1_555
In4_3 Nd2_6 3.536308 1_555
In4_4 Pt3_4 3.019091 1_555
In4_4 Nd3_0 3.315859 1_655
In4_4 Nd3_4 3.315859 1_555
In4_4 Nd8_4 3.319313 1_555
In4_4 Nd8_0 3.319313 1_655
In4_4 Nd4_0 3.419602 1_655
In4_4 Nd4_4 3.419602 1_555
In4_4 Nd2_1 3.536308 1_654
In4_4 Nd2_5 3.536308 1_554
In4_5 Pt3_5 3.019091 1_555
In4_5 Nd3_5 3.315859 1_555
In4_5 Nd3_1 3.315859 1_655
In4_5 Nd8_5 3.319313 1_555
In4_5 Nd8_1 3.319313 1_655
In4_5 Nd4_5 3.419602 1_555
In4_5 Nd4_1 3.419602 1_655
In4_5 Nd2_0 3.536308 1_655
In4_5 Nd2_4 3.536308 1_555
In4_6 Pt3_6 3.019091 1_555
In4_6 Nd3_6 3.315859 1_555
In4_6 Nd3_2 3.315859 1_655
In4_6 Nd8_6 3.319313 1_555
In4_6 Nd8_2 3.319313 1_655
In4_6 Nd4_2 3.419602 1_655
In4_6 Nd4_6 3.419602 1_555
In4_6 Nd2_3 3.536308 1_654
In4_6 Nd2_7 3.536308 1_554
In4_7 Pt3_7 3.019091 1_555
In4_7 Nd3_3 3.315859 1_655
In4_7 Nd3_7 3.315859 1_555
In4_7 Nd8_3 3.319313 1_655
In4_7 Nd8_7 3.319313 1_555
In4_7 Nd4_3 3.419602 1_655
In4_7 Nd4_7 3.419602 1_555
In4_7 Nd2_6 3.536308 1_555
In4_7 Nd2_2 3.536308 1_655
In5_0 Pt2_0 3.019091 1_555
In5_0 Nd2_0 3.315859 1_555
In5_0 Nd2_4 3.315859 1_555
In5_0 Nd8_7 3.319313 1_555
In5_0 Nd8_3 3.319313 1_555
In5_0 Nd5_0 3.419602 1_555
In5_0 Nd5_4 3.419602 1_555
In5_0 Nd3_5 3.536308 1_555
In5_0 Nd3_1 3.536308 1_555
In5_1 Pt2_1 3.019091 1_555
In5_1 Nd2_1 3.315859 1_555
In5_1 Nd2_5 3.315859 1_555
In5_1 Nd8_2 3.319313 1_556
In5_1 Nd8_6 3.319313 1_556
In5_1 Nd5_1 3.419602 1_555
In5_1 Nd5_5 3.419602 1_555
In5_1 Nd3_0 3.536308 1_556
In5_1 Nd3_4 3.536308 1_556
In5_2 Pt2_2 3.019091 1_555
In5_2 Nd2_2 3.315859 1_555
In5_2 Nd2_6 3.315859 1_555
In5_2 Nd8_5 3.319313 1_565
In5_2 Nd8_1 3.319313 1_565
In5_2 Nd5_6 3.419602 1_555
In5_2 Nd5_2 3.419602 1_555
In5_2 Nd3_7 3.536308 1_555
In5_2 Nd3_3 3.536308 1_555
In5_3 Pt2_3 3.019091 1_555
In5_3 Nd2_7 3.315859 1_555
In5_3 Nd2_3 3.315859 1_555
In5_3 Nd8_0 3.319313 1_566
In5_3 Nd8_4 3.319313 1_566
In5_3 Nd5_3 3.419602 1_555
In5_3 Nd5_7 3.419602 1_555
In5_3 Nd3_2 3.536308 1_556
In5_3 Nd3_6 3.536308 1_556
In5_4 Pt2_4 3.019091 1_555
In5_4 Nd2_4 3.315859 1_555
In5_4 Nd2_0 3.315859 1_655
In5_4 Nd8_3 3.319313 1_655
In5_4 Nd8_7 3.319313 1_555
In5_4 Nd5_4 3.419602 1_555
In5_4 Nd5_0 3.419602 1_655
In5_4 Nd3_5 3.536308 1_555
In5_4 Nd3_1 3.536308 1_655
In5_5 Pt2_5 3.019091 1_555
In5_5 Nd2_1 3.315859 1_655
In5_5 Nd2_5 3.315859 1_555
In5_5 Nd8_2 3.319313 1_656
In5_5 Nd8_6 3.319313 1_556
In5_5 Nd5_1 3.419602 1_655
In5_5 Nd5_5 3.419602 1_555
In5_5 Nd3_0 3.536308 1_656
In5_5 Nd3_4 3.536308 1_556
In5_6 Pt2_6 3.019091 1_555
In5_6 Nd2_6 3.315859 1_555
In5_6 Nd2_2 3.315859 1_655
In5_6 Nd8_1 3.319313 1_665
In5_6 Nd8_5 3.319313 1_565
In5_6 Nd5_2 3.419602 1_655
In5_6 Nd5_6 3.419602 1_555
In5_6 Nd3_3 3.536308 1_655
In5_6 Nd3_7 3.536308 1_555
In5_7 Pt2_7 3.019091 1_555
In5_7 Nd2_3 3.315859 1_655
In5_7 Nd2_7 3.315859 1_555
In5_7 Nd8_0 3.319313 1_666
In5_7 Nd8_4 3.319313 1_566
In5_7 Nd5_3 3.419602 1_655
In5_7 Nd5_7 3.419602 1_555
In5_7 Nd3_2 3.536308 1_656
In5_7 Nd3_6 3.536308 1_556
In6_0 Pt1_2 3.019091 1_545
In6_0 Nd1_2 3.315859 1_545
In6_0 Nd1_6 3.315859 1_545
In6_0 Nd9_0 3.319313 1_555
In6_0 Nd9_4 3.319313 1_555
In6_0 Nd6_4 3.419602 1_555
In6_0 Nd6_0 3.419602 1_555
In6_0 Nd0_4 3.536308 1_555
In6_0 Nd0_0 3.536308 1_555
In6_1 Pt1_3 3.019091 1_545
In6_1 Nd1_3 3.315859 1_545
In6_1 Nd1_7 3.315859 1_545
In6_1 Nd9_1 3.319313 1_555
In6_1 Nd9_5 3.319313 1_555
In6_1 Nd6_1 3.419602 1_555
In6_1 Nd6_5 3.419602 1_555
In6_1 Nd0_1 3.536308 1_555
In6_1 Nd0_5 3.536308 1_555
In6_2 Pt1_0 3.019091 1_555
In6_2 Nd1_0 3.315859 1_555
In6_2 Nd1_4 3.315859 1_555
In6_2 Nd9_2 3.319313 1_555
In6_2 Nd9_6 3.319313 1_555
In6_2 Nd6_2 3.419602 1_555
In6_2 Nd6_6 3.419602 1_555
In6_2 Nd0_2 3.536308 1_555
In6_2 Nd0_6 3.536308 1_555
In6_3 Pt1_1 3.019091 1_555
In6_3 Nd1_1 3.315859 1_555
In6_3 Nd1_5 3.315859 1_555
In6_3 Nd9_3 3.319313 1_555
In6_3 Nd9_7 3.319313 1_555
In6_3 Nd6_3 3.419602 1_555
In6_3 Nd6_7 3.419602 1_555
In6_3 Nd0_7 3.536308 1_555
In6_3 Nd0_3 3.536308 1_555
In6_4 Pt1_6 3.019091 1_545
In6_4 Nd1_2 3.315859 1_645
In6_4 Nd1_6 3.315859 1_545
In6_4 Nd9_0 3.319313 1_655
In6_4 Nd9_4 3.319313 1_555
In6_4 Nd6_0 3.419602 1_655
In6_4 Nd6_4 3.419602 1_555
In6_4 Nd0_4 3.536308 1_555
In6_4 Nd0_0 3.536308 1_655
In6_5 Pt1_7 3.019091 1_545
In6_5 Nd1_3 3.315859 1_645
In6_5 Nd1_7 3.315859 1_545
In6_5 Nd9_1 3.319313 1_655
In6_5 Nd9_5 3.319313 1_555
In6_5 Nd6_5 3.419602 1_555
In6_5 Nd6_1 3.419602 1_655
In6_5 Nd0_5 3.536308 1_555
In6_5 Nd0_1 3.536308 1_655
In6_6 Pt1_4 3.019091 1_555
In6_6 Nd1_0 3.315859 1_655
In6_6 Nd1_4 3.315859 1_555
In6_6 Nd9_2 3.319313 1_655
In6_6 Nd9_6 3.319313 1_555
In6_6 Nd6_2 3.419602 1_655
In6_6 Nd6_6 3.419602 1_555
In6_6 Nd0_2 3.536308 1_655
In6_6 Nd0_6 3.536308 1_555
In6_7 Pt1_5 3.019091 1_555
In6_7 Nd1_1 3.315859 1_655
In6_7 Nd1_5 3.315859 1_555
In6_7 Nd9_3 3.319313 1_655
In6_7 Nd9_7 3.319313 1_555
In6_7 Nd6_3 3.419602 1_655
In6_7 Nd6_7 3.419602 1_555
In6_7 Nd0_7 3.536308 1_555
In6_7 Nd0_3 3.536308 1_655
In7_0 Pt0_2 3.019091 1_555
In7_0 Nd0_2 3.315859 1_555
In7_0 Nd0_6 3.315859 1_555
In7_0 Nd9_0 3.319313 1_555
In7_0 Nd9_4 3.319313 1_555
In7_0 Nd7_0 3.419602 1_555
In7_0 Nd7_4 3.419602 1_555
In7_0 Nd1_0 3.536308 1_555
In7_0 Nd1_4 3.536308 1_555
In7_1 Pt0_3 3.019091 1_555
In7_1 Nd0_7 3.315859 1_555
In7_1 Nd0_3 3.315859 1_555
In7_1 Nd9_1 3.319313 1_555
In7_1 Nd9_5 3.319313 1_555
In7_1 Nd7_1 3.419602 1_555
In7_1 Nd7_5 3.419602 1_555
In7_1 Nd1_1 3.536308 1_555
In7_1 Nd1_5 3.536308 1_555
In7_2 Pt0_0 3.019091 1_565
In7_2 Nd0_0 3.315859 1_565
In7_2 Nd0_4 3.315859 1_565
In7_2 Nd9_2 3.319313 1_555
In7_2 Nd9_6 3.319313 1_555
In7_2 Nd7_2 3.419602 1_555
In7_2 Nd7_6 3.419602 1_555
In7_2 Nd1_2 3.536308 1_555
In7_2 Nd1_6 3.536308 1_555
In7_3 Pt0_1 3.019091 1_565
In7_3 Nd0_1 3.315859 1_565
In7_3 Nd0_5 3.315859 1_565
In7_3 Nd9_7 3.319313 1_555
In7_3 Nd9_3 3.319313 1_555
In7_3 Nd7_7 3.419602 1_555
In7_3 Nd7_3 3.419602 1_555
In7_3 Nd1_7 3.536308 1_555
In7_3 Nd1_3 3.536308 1_555
In7_4 Pt0_6 3.019091 1_555
In7_4 Nd0_2 3.315859 1_655
In7_4 Nd0_6 3.315859 1_555
In7_4 Nd9_0 3.319313 1_655
In7_4 Nd9_4 3.319313 1_555
In7_4 Nd7_0 3.419602 1_655
In7_4 Nd7_4 3.419602 1_555
In7_4 Nd1_0 3.536308 1_655
In7_4 Nd1_4 3.536308 1_555
In7_5 Pt0_7 3.019091 1_555
In7_5 Nd0_3 3.315859 1_655
In7_5 Nd0_7 3.315859 1_555
In7_5 Nd9_1 3.319313 1_655
In7_5 Nd9_5 3.319313 1_555
In7_5 Nd7_1 3.419602 1_655
In7_5 Nd7_5 3.419602 1_555
In7_5 Nd1_1 3.536308 1_655
In7_5 Nd1_5 3.536308 1_555
In7_6 Pt0_4 3.019091 1_565
In7_6 Nd0_0 3.315859 1_665
In7_6 Nd0_4 3.315859 1_565
In7_6 Nd9_2 3.319313 1_655
In7_6 Nd9_6 3.319313 1_555
In7_6 Nd7_6 3.419602 1_555
In7_6 Nd7_2 3.419602 1_655
In7_6 Nd1_2 3.536308 1_655
In7_6 Nd1_6 3.536308 1_555
In7_7 Pt0_5 3.019091 1_565
In7_7 Nd0_1 3.315859 1_665
In7_7 Nd0_5 3.315859 1_565
In7_7 Nd9_7 3.319313 1_555
In7_7 Nd9_3 3.319313 1_655
In7_7 Nd7_7 3.419602 1_555
In7_7 Nd7_3 3.419602 1_655
In7_7 Nd1_7 3.536308 1_555
In7_7 Nd1_3 3.536308 1_655
