# generated using pymatgen
data_Cs2TeP2H8O13
_symmetry_space_group_name_H-M   'P 1'
_cell_length_a   11.20638501
_cell_length_b   11.20638501
_cell_length_c   16.85673341
_cell_angle_alpha   74.47540033
_cell_angle_beta   74.47540033
_cell_angle_gamma   44.52406192
_symmetry_Int_Tables_number   1
_chemical_formula_structural   Cs2TeP2H8O13
_chemical_formula_sum   'Cs8 Te4 P8 H32 O52'
_cell_volume   1420.96825734
_cell_formula_units_Z   4
loop_
 _symmetry_equiv_pos_site_id
 _symmetry_equiv_pos_as_xyz
  1  'x, y, z'
loop_
 _atom_site_type_symbol
 _atom_site_label
 _atom_site_symmetry_multiplicity
 _atom_site_fract_x
 _atom_site_fract_y
 _atom_site_fract_z
 _atom_site_occupancy
  Cs  Cs0  1  0.81363100  0.87420700  0.95421500  1
  Cs  Cs1  1  0.12722500  0.18646000  0.54640100  1
  Cs  Cs2  1  0.18646000  0.12722500  0.04640100  1
  Cs  Cs3  1  0.87420700  0.81363100  0.45421500  1
  Cs  Cs4  1  0.74235600  0.43635000  0.33007100  1
  Cs  Cs5  1  0.56721000  0.25523000  0.16890600  1
  Cs  Cs6  1  0.25523000  0.56721000  0.66890600  1
  Cs  Cs7  1  0.43635000  0.74235600  0.83007100  1
  Te  Te0  1  0.33544700  0.40536600  0.92829900  1
  Te  Te1  1  0.59484800  0.66463600  0.57156700  1
  Te  Te2  1  0.66463600  0.59484800  0.07156700  1
  Te  Te3  1  0.40536600  0.33544700  0.42829900  1
  P  P0  1  0.18796700  0.89932100  0.36859800  1
  P  P1  1  0.09443900  0.81402700  0.12648800  1
  P  P2  1  0.81402700  0.09443900  0.62648800  1
  P  P3  1  0.89932100  0.18796700  0.86859800  1
  P  P4  1  0.37611500  0.00334400  0.28810300  1
  P  P5  1  0.99613500  0.62251400  0.21175000  1
  P  P6  1  0.62251400  0.99613500  0.71175000  1
  P  P7  1  0.00334400  0.37611500  0.78810300  1
  H  H0  1  0.46554200  0.11096200  0.37314800  1
  H  H1  1  0.88930400  0.53458800  0.12687400  1
  H  H2  1  0.53458800  0.88930400  0.62687400  1
  H  H3  1  0.11096200  0.46554200  0.87314800  1
  H  H4  1  0.40165600  0.68221900  0.04331400  1
  H  H5  1  0.31667600  0.59857900  0.45696100  1
  H  H6  1  0.59857900  0.31667600  0.95696100  1
  H  H7  1  0.68221900  0.40165600  0.54331400  1
  H  H8  1  0.71882000  0.76461600  0.26420900  1
  H  H9  1  0.23536600  0.28085600  0.23613300  1
  H  H10  1  0.28085600  0.23536600  0.73613300  1
  H  H11  1  0.76461600  0.71882000  0.76420900  1
  H  H12  1  0.37224500  0.75278400  0.49762700  1
  H  H13  1  0.24899600  0.62645200  0.00253100  1
  H  H14  1  0.62645200  0.24899600  0.50253100  1
  H  H15  1  0.75278400  0.37224500  0.99762700  1
  H  H16  1  0.52044400  0.86182500  0.43719000  1
  H  H17  1  0.13802000  0.47952300  0.06276000  1
  H  H18  1  0.47952300  0.13802000  0.56276000  1
  H  H19  1  0.86182500  0.52044400  0.93719000  1
  H  H20  1  0.56604000  0.81693900  0.14977100  1
  H  H21  1  0.18306200  0.43393200  0.35024100  1
  H  H22  1  0.43393200  0.18306200  0.85024100  1
  H  H23  1  0.81693900  0.56604000  0.64977100  1
  H  H24  1  0.42354800  0.67456200  0.17828800  1
  H  H25  1  0.32356300  0.57768400  0.32205600  1
  H  H26  1  0.57768400  0.32356300  0.82205600  1
  H  H27  1  0.67456200  0.42354800  0.67828800  1
  H  H28  1  0.00667400  0.01082100  0.48418200  1
  H  H29  1  0.01082200  0.00667400  0.98418200  1
  H  H30  1  0.11652800  0.87843000  0.23905300  1
  H  H31  1  0.87843000  0.11652800  0.73905300  1
  O  O0  1  0.53344400  0.28373700  0.98619400  1
  O  O1  1  0.71695100  0.46544800  0.51434000  1
  O  O2  1  0.46544800  0.71695100  0.01434000  1
  O  O3  1  0.28373700  0.53344400  0.48619400  1
  O  O4  1  0.62836200  0.23386000  0.44524300  1
  O  O5  1  0.76628100  0.37181100  0.05499000  1
  O  O6  1  0.37181100  0.76628100  0.55499000  1
  O  O7  1  0.23386000  0.62836200  0.94524300  1
  O  O8  1  0.54525500  0.84400900  0.25049600  1
  O  O9  1  0.15536400  0.45419100  0.24961600  1
  O  O10  1  0.45419100  0.15536400  0.74961600  1
  O  O11  1  0.84400900  0.54525500  0.75049600  1
  O  O12  1  0.56889300  0.81588900  0.08986500  1
  O  O13  1  0.18460000  0.43039900  0.41016700  1
  O  O14  1  0.43039900  0.18460000  0.91016700  1
  O  O15  1  0.81588900  0.56889300  0.58986500  1
  O  O16  1  0.53350200  0.14077300  0.36681200  1
  O  O17  1  0.85897600  0.46696400  0.13303000  1
  O  O18  1  0.46696400  0.85897600  0.63303000  1
  O  O19  1  0.14077300  0.53350200  0.86681200  1
  O  O20  1  0.34276900  0.74116200  0.41320300  1
  O  O21  1  0.26204800  0.65397000  0.08836800  1
  O  O22  1  0.65397000  0.26204800  0.58836800  1
  O  O23  1  0.74116200  0.34276900  0.91320300  1
  O  O24  1  0.96293600  0.95471000  0.06705900  1
  O  O25  1  0.04487100  0.04661300  0.42624700  1
  O  O26  1  0.04661300  0.04487100  0.92624700  1
  O  O27  1  0.95471000  0.96293600  0.56705900  1
  O  O28  1  0.23567500  0.99179000  0.29594900  1
  O  O29  1  0.00528100  0.76487700  0.20190200  1
  O  O30  1  0.76487700  0.00528100  0.70190200  1
  O  O31  1  0.99179000  0.23567500  0.79594900  1
  O  O32  1  0.54818500  0.57668500  0.17857700  1
  O  O33  1  0.42282800  0.45281200  0.32163400  1
  O  O34  1  0.45281200  0.42282800  0.82163400  1
  O  O35  1  0.57668500  0.54818500  0.67857700  1
  O  O36  1  0.13505700  0.88417700  0.17372700  1
  O  O37  1  0.11593500  0.86000400  0.32670600  1
  O  O38  1  0.86000400  0.11593500  0.82670600  1
  O  O39  1  0.88417700  0.13505700  0.67372700  1
  O  O40  1  0.30525000  0.16094900  0.22003700  1
  O  O41  1  0.83911000  0.69270900  0.28023000  1
  O  O42  1  0.69270900  0.83911000  0.78023000  1
  O  O43  1  0.16094900  0.30525000  0.72003700  1
  O  O44  1  0.37545200  0.03138200  0.37132500  1
  O  O45  1  0.96813500  0.62173800  0.12882700  1
  O  O46  1  0.62173800  0.96813500  0.62882700  1
  O  O47  1  0.03138200  0.37545200  0.87132500  1
  O  O48  1  0.62348100  0.77454900  0.46852800  1
  O  O49  1  0.22524800  0.37681900  0.03119200  1
  O  O50  1  0.37681900  0.22524800  0.53119200  1
  O  O51  1  0.77454900  0.62348100  0.96852800  1
loop_
_geom_bond_atom_site_label_1
_geom_bond_atom_site_label_2
_geom_bond_distance
_geom_bond_site_symmetry_2
Cs0 O51 3.078938 1_555
Cs0 O14 3.180881 1_565
Cs0 O19 3.217046 1_655
Cs0 O38 3.243554 1_565
Cs0 O45 3.309273 1_556
Cs0 O0 3.329028 1_565
Cs0 O7 3.336452 1_655
Cs0 O12 3.402428 1_556
Cs0 O24 3.465011 1_556
Cs1 O50 3.060759 1_555
Cs1 O15 3.173036 1_455
Cs1 O18 3.206235 1_545
Cs1 O39 3.286788 1_455
Cs1 O44 3.305373 1_555
Cs1 O1 3.336832 1_455
Cs1 O6 3.339134 1_545
Cs1 O13 3.393444 1_555
Cs1 O25 3.488859 1_555
Cs1 O43 3.725202 1_555
Cs2 O49 3.060759 1_555
Cs2 O12 3.173036 1_545
Cs2 O17 3.206235 1_455
Cs2 O36 3.286788 1_545
Cs2 O47 3.305373 1_554
Cs2 O2 3.336832 1_545
Cs2 O5 3.339134 1_455
Cs2 O14 3.393444 1_554
Cs2 O26 3.488859 1_554
Cs2 O40 3.725202 1_555
Cs3 O48 3.078938 1_555
Cs3 O13 3.180881 1_655
Cs3 O16 3.217046 1_565
Cs3 O37 3.243554 1_655
Cs3 O46 3.309273 1_555
Cs3 O3 3.329028 1_655
Cs3 O4 3.336452 1_565
Cs3 O15 3.402428 1_555
Cs3 O27 3.465011 1_555
Cs4 O32 3.110400 1_555
Cs4 O1 3.126041 1_555
Cs4 O17 3.250154 1_555
Cs4 O4 3.316290 1_555
Cs4 O20 3.328097 1_555
Cs4 O25 3.351961 1_655
Cs4 H8 3.379614 1_555
Cs4 O8 3.386085 1_555
Cs4 O33 3.491804 1_555
Cs4 O41 3.577254 1_555
Cs5 O0 3.107409 1_554
Cs5 O33 3.140345 1_555
Cs5 O16 3.262337 1_555
Cs5 O5 3.300109 1_555
Cs5 O21 3.309582 1_555
Cs5 H9 3.404625 1_555
Cs5 O24 3.417471 1_545
Cs5 O9 3.422364 1_555
Cs5 O32 3.499938 1_555
Cs5 O40 3.613559 1_555
Cs6 O3 3.107409 1_555
Cs6 O34 3.140345 1_555
Cs6 O19 3.262337 1_555
Cs6 O6 3.300109 1_555
Cs6 O22 3.309582 1_555
Cs6 H10 3.404625 1_555
Cs6 O27 3.417471 1_455
Cs6 O10 3.422364 1_555
Cs6 O35 3.499938 1_555
Cs6 O43 3.613559 1_555
Cs7 O35 3.110400 1_555
Cs7 O2 3.126041 1_556
Cs7 O18 3.250154 1_555
Cs7 O7 3.316290 1_555
Cs7 O23 3.328097 1_555
Cs7 O26 3.351961 1_565
Cs7 H11 3.379614 1_555
Cs7 O11 3.386085 1_555
Cs7 O34 3.491804 1_555
Cs7 O42 3.577254 1_555
H0 O16 1.001585 1_555
H1 O17 1.003419 1_555
H2 O18 1.003419 1_555
H3 O19 1.001585 1_555
H4 O2 1.004577 1_555
H5 O3 1.003073 1_555
H6 O0 1.003073 1_555
H7 O1 1.004577 1_555
H8 O41 1.033877 1_555
H8 O8 1.513672 1_555
H9 O40 1.036058 1_555
H9 O9 1.507524 1_555
H10 O43 1.036058 1_555
H10 O10 1.507524 1_555
H11 O42 1.033877 1_555
H11 O11 1.513672 1_555
H12 O6 1.016180 1_555
H12 O20 1.601100 1_555
H13 O7 1.016477 1_554
H13 O21 1.620666 1_555
H14 O4 1.016477 1_555
H14 O22 1.620666 1_555
H15 O5 1.016180 1_556
H15 O23 1.601100 1_555
H16 O48 1.004255 1_555
H17 O49 1.004255 1_555
H18 O50 1.004255 1_555
H19 O51 1.004255 1_555
H20 O12 1.004708 1_555
H21 O13 1.004599 1_555
H22 O14 1.004599 1_555
H23 O15 1.004708 1_555
H24 O32 0.985007 1_555
H25 O33 0.988508 1_555
H26 O34 0.988508 1_555
H27 O35 0.985007 1_555
H28 O25 1.053186 1_555
H28 O27 1.479041 1_445
H29 O26 1.053182 1_555
H29 O24 1.479045 1_446
H30 O36 1.057626 1_555
H30 O37 1.434990 1_555
H31 O39 1.057626 1_555
H31 O38 1.434990 1_555
O0 Te0 1.966759 1_555
O1 Te1 1.968844 1_555
O2 Te2 1.968844 1_555
O3 Te3 1.966759 1_555
O4 Te3 1.942661 1_555
O5 Te2 1.940777 1_555
O6 Te1 1.940777 1_555
O7 Te0 1.942661 1_555
O8 P4 1.523033 1_565
O9 P5 1.521608 1_455
O10 P6 1.521608 1_545
O11 P7 1.523033 1_655
O12 Te2 1.955595 1_555
O13 Te3 1.955316 1_555
O14 Te0 1.955316 1_555
O15 Te1 1.955595 1_555
O16 Te3 1.960199 1_555
O17 Te2 1.957776 1_555
O18 Te1 1.957776 1_555
O19 Te0 1.960199 1_555
O20 P0 1.522091 1_555
O21 P1 1.524818 1_555
O22 P2 1.524818 1_555
O23 P3 1.522091 1_555
O24 P1 1.514188 1_655
O25 P0 1.578154 1_545
O26 P3 1.578154 1_455
O27 P2 1.514188 1_565
O28 P0 1.618495 1_555
O28 P4 1.637424 1_565
O29 P1 1.627166 1_555
O29 P5 1.632655 1_455
O30 P2 1.627166 1_555
O30 P6 1.632655 1_545
O31 P3 1.618495 1_555
O31 P7 1.637424 1_655
O32 Te2 1.979995 1_555
O33 Te3 1.978326 1_555
O34 Te0 1.978326 1_555
O35 Te1 1.979995 1_555
O36 P1 1.580705 1_555
O37 P0 1.524214 1_555
O38 P3 1.524214 1_555
O39 P2 1.580705 1_555
O40 P4 1.571470 1_555
O41 P5 1.572495 1_555
O42 P6 1.572495 1_555
O43 P7 1.571470 1_555
O44 P4 1.514535 1_555
O45 P5 1.515781 1_555
O46 P6 1.515781 1_555
O47 P7 1.514535 1_555
O48 Te1 1.938281 1_555
O49 Te0 1.937889 1_554
O50 Te3 1.937889 1_555
O51 Te2 1.938281 1_556
