# generated using pymatgen
data_Na3ErTi2Nb2O12
_symmetry_space_group_name_H-M   'P 1'
_cell_length_a   5.41392800
_cell_length_b   5.57979466
_cell_length_c   7.75859334
_cell_angle_alpha   89.85011377
_cell_angle_beta   89.94961340
_cell_angle_gamma   89.32026475
_symmetry_Int_Tables_number   1
_chemical_formula_structural   Na3ErTi2Nb2O12
_chemical_formula_sum   'Na3 Er1 Ti2 Nb2 O12'
_cell_volume   234.35891381
_cell_formula_units_Z   1
loop_
 _symmetry_equiv_pos_site_id
 _symmetry_equiv_pos_as_xyz
  1  'x, y, z'
loop_
 _atom_site_type_symbol
 _atom_site_label
 _atom_site_symmetry_multiplicity
 _atom_site_fract_x
 _atom_site_fract_y
 _atom_site_fract_z
 _atom_site_occupancy
  Na  Na0  1  0.48888700  0.53579300  0.74884000  1
  Na  Na1  1  0.00624900  0.02684900  0.74936000  1
  Na  Na2  1  0.50880600  0.46115000  0.24987400  1
  Er  Er0  1  0.98813600  0.93118200  0.25024300  1
  Ti  Ti0  1  0.48979300  0.98394900  0.00771100  1
  Ti  Ti1  1  0.00231700  0.47917400  0.49248800  1
  Nb  Nb0  1  0.49290700  0.99533600  0.51144700  1
  Nb  Nb1  1  0.00341700  0.47774600  0.98864100  1
  O  O0  1  0.20527600  0.80267100  0.97368600  1
  O  O1  1  0.29419000  0.30317700  0.53871800  1
  O  O2  1  0.80679300  0.20758700  0.44387500  1
  O  O3  1  0.71931100  0.73281800  0.05504900  1
  O  O4  1  0.80345000  0.20577800  0.05705000  1
  O  O5  1  0.72323400  0.72935800  0.44570200  1
  O  O6  1  0.20333400  0.80050900  0.52734600  1
  O  O7  1  0.30046200  0.29981100  0.95979200  1
  O  O8  1  0.57068900  0.98236500  0.75326600  1
  O  O9  1  0.91570100  0.48461500  0.74716700  1
  O  O10  1  0.39726900  0.02758100  0.24638400  1
  O  O11  1  0.07977900  0.53254900  0.25336200  1
loop_
_geom_bond_atom_site_label_1
_geom_bond_atom_site_label_2
_geom_bond_distance
_geom_bond_site_symmetry_2
Na0 O9 2.324983 1_555
Na0 O7 2.338983 1_555
Na0 O1 2.345212 1_555
Na0 O8 2.536324 1_555
Na0 O6 2.731685 1_555
Na0 O0 2.751903 1_555
Na0 O5 2.884741 1_555
Na0 O3 2.908686 1_556
Na1 O8 2.374203 1_445
Na1 O6 2.382589 1_545
Na1 O0 2.390570 1_545
Na1 O9 2.595155 1_455
Na1 O1 2.741844 1_555
Na1 O7 2.756379 1_555
Na1 O2 2.786895 1_455
Na1 O4 2.807672 1_456
Na2 O11 2.352121 1_555
Na2 O3 2.430522 1_555
Na2 O5 2.439667 1_555
Na2 O10 2.500612 1_555
Na2 O4 2.601188 1_555
Na2 O2 2.609394 1_555
Na2 O1 2.675553 1_555
Na2 O7 2.680897 1_554
Er0 O11 2.273273 1_655
Er0 O10 2.285735 1_665
Er0 O4 2.355493 1_565
Er0 O2 2.360735 1_565
Er0 O5 2.377034 1_555
Er0 O3 2.384875 1_555
Er0 O0 2.546327 1_654
Er0 O6 2.547009 1_655
Nb0 O6 1.922018 1_555
Nb0 O8 1.924203 1_555
Nb0 O5 1.994148 1_555
Nb0 O1 2.027390 1_565
Nb0 O10 2.127780 1_565
Nb0 O2 2.146673 1_565
Nb1 O7 1.893336 1_555
Nb1 O9 1.933324 1_455
Nb1 O4 1.946890 1_456
Nb1 O11 2.119092 1_556
Nb1 O0 2.130844 1_555
Nb1 O3 2.146497 1_456
O0 Ti0 1.872053 1_556
O1 Ti1 1.884763 1_555
O2 Ti1 1.897625 1_655
O3 Ti0 1.897171 1_555
O4 Ti0 2.148413 1_545
O5 Ti1 2.076465 1_655
O6 Ti1 2.126420 1_555
O7 Ti0 2.061429 1_546
O8 Ti0 2.021777 1_556
O9 Ti1 2.030652 1_655
O10 Ti0 1.933149 1_545
O11 Ti1 1.924927 1_555
