# generated using pymatgen
data_LiCr2O3
_symmetry_space_group_name_H-M   'P 1'
_cell_length_a   5.16093677
_cell_length_b   5.25585920
_cell_length_c   5.37892437
_cell_angle_alpha   81.69141260
_cell_angle_beta   102.96699502
_cell_angle_gamma   60.60798349
_symmetry_Int_Tables_number   1
_chemical_formula_structural   LiCr2O3
_chemical_formula_sum   'Li2 Cr4 O6'
_cell_volume   118.17992783
_cell_formula_units_Z   2
loop_
 _symmetry_equiv_pos_site_id
 _symmetry_equiv_pos_as_xyz
  1  'x, y, z'
loop_
 _atom_site_type_symbol
 _atom_site_label
 _atom_site_symmetry_multiplicity
 _atom_site_fract_x
 _atom_site_fract_y
 _atom_site_fract_z
 _atom_site_occupancy
  Li  Li0  1  0.91312800  0.91345500  0.75895700  1
  Li  Li1  1  0.08427400  0.08556800  0.24318100  1
  Cr  Cr0  1  0.75105400  0.75579700  0.25364800  1
  Cr  Cr1  1  0.58334300  0.58504900  0.75236200  1
  Cr  Cr2  1  0.25095300  0.23328000  0.74871900  1
  Cr  Cr3  1  0.41627600  0.41497200  0.24755500  1
  O  O0  1  0.98587900  0.52145600  0.02123600  1
  O  O1  1  0.51762200  0.01648200  0.46300800  1
  O  O2  1  0.18487700  0.63686100  0.48915800  1
  O  O3  1  0.34856500  0.81339200  0.00408400  1
  O  O4  1  0.65062000  0.15586500  0.02612100  1
  O  O5  1  0.81341000  0.36782300  0.49197000  1
loop_
_geom_bond_atom_site_label_1
_geom_bond_atom_site_label_2
_geom_bond_distance
_geom_bond_site_symmetry_2
Li0 O1 2.049749 1_565
Li0 O3 2.091655 1_656
Li0 O0 2.130496 1_556
Li0 O4 2.287453 1_566
Li0 O5 2.345429 1_565
Li0 O2 2.389195 1_655
Li1 O4 2.097520 1_455
Li1 O1 2.103296 1_555
Li1 O0 2.174207 1_455
Li1 O3 2.228135 1_545
Li1 O2 2.273750 1_545
Li1 O5 2.307262 1_455
Cr0 O1 2.007824 1_565
Cr0 O4 2.022276 1_565
Cr0 O2 2.032940 1_655
Cr0 O0 2.051419 1_555
Cr0 O3 2.054858 1_555
Cr0 O5 2.078513 1_555
Cr1 O2 2.083227 1_555
Cr1 O0 2.085563 1_556
Cr1 O3 2.126104 1_556
Cr1 O5 2.133766 1_555
Cr1 O4 2.327876 1_556
Cr1 O1 2.380635 1_565
Cr2 O5 2.063322 1_455
Cr2 O4 2.065445 1_556
Cr2 O3 2.175530 1_546
Cr2 O2 2.187536 1_555
Cr2 O1 2.338864 1_555
Cr2 O0 2.412890 1_456
Cr3 O1 1.988565 1_555
Cr3 O0 2.024467 1_455
Cr3 O5 2.046618 1_555
Cr3 O4 2.057805 1_555
Cr3 O2 2.059752 1_555
Cr3 O3 2.122727 1_555
