# generated using pymatgen
data_Li9Mn2Co5O16
_symmetry_space_group_name_H-M   'P 1'
_cell_length_a   3.01922800
_cell_length_b   9.79452160
_cell_length_c   9.97853574
_cell_angle_alpha   87.10444720
_cell_angle_beta   87.81029202
_cell_angle_gamma   82.96959876
_symmetry_Int_Tables_number   1
_chemical_formula_structural   Li9Mn2Co5O16
_chemical_formula_sum   'Li9 Mn2 Co5 O16'
_cell_volume   292.33895297
_cell_formula_units_Z   1
loop_
 _symmetry_equiv_pos_site_id
 _symmetry_equiv_pos_as_xyz
  1  'x, y, z'
loop_
 _atom_site_type_symbol
 _atom_site_label
 _atom_site_symmetry_multiplicity
 _atom_site_fract_x
 _atom_site_fract_y
 _atom_site_fract_z
 _atom_site_occupancy
  Li  Li0  1  0.86889500  0.25644700  0.81032000  1
  Li  Li1  1  0.13401200  0.74664200  0.68525100  1
  Li  Li2  1  0.38016800  0.25278200  0.56172600  1
  Li  Li3  1  0.62942800  0.74840700  0.43926300  1
  Li  Li4  1  0.86922100  0.25136200  0.31309500  1
  Li  Li5  1  0.12534100  0.74597300  0.18737200  1
  Li  Li6  1  0.36442400  0.25621800  0.06617000  1
  Li  Li7  1  0.62814000  0.74099600  0.93767500  1
  Li  Li8  1  0.24993000  0.49955100  0.87477000  1
  Mn  Mn0  1  0.99914500  0.00071200  0.99662700  1
  Mn  Mn1  1  0.50724100  0.99991500  0.25193700  1
  Co  Co0  1  0.49322800  0.99942100  0.74802100  1
  Co  Co1  1  0.75335800  0.49900900  0.63404200  1
  Co  Co2  1  0.99959300  0.99992300  0.50404500  1
  Co  Co3  1  0.24981400  0.50017300  0.37503600  1
  Co  Co4  1  0.74681000  0.50126500  0.11589600  1
  O  O0  1  0.41388400  0.11597100  0.90038400  1
  O  O1  1  0.69265300  0.61494700  0.76264800  1
  O  O2  1  0.90616500  0.11367800  0.65645700  1
  O  O3  1  0.16002000  0.61397900  0.52653500  1
  O  O4  1  0.45337200  0.11575600  0.40668100  1
  O  O5  1  0.70298100  0.61006300  0.27426700  1
  O  O6  1  0.91099400  0.11640400  0.15365000  1
  O  O7  1  0.17163800  0.61466600  0.03815100  1
  O  O8  1  0.33115700  0.38529100  0.71086300  1
  O  O9  1  0.54057300  0.88726300  0.59611300  1
  O  O10  1  0.79715200  0.39022700  0.47567300  1
  O  O11  1  0.09687800  0.88228300  0.34945900  1
  O  O12  1  0.33490800  0.38684300  0.22382600  1
  O  O13  1  0.58967500  0.88442500  0.09476400  1
  O  O14  1  0.80883800  0.38463800  0.98766700  1
  O  O15  1  0.09036300  0.88477100  0.84161500  1
loop_
_geom_bond_atom_site_label_1
_geom_bond_atom_site_label_2
_geom_bond_distance
_geom_bond_site_symmetry_2
Li0 O2 2.119073 1_555
Li0 O8 2.169898 1_555
Li0 O8 2.173514 1_655
Li0 O0 2.198060 1_555
Li0 O0 2.200484 1_655
Li0 O14 2.210266 1_555
Li1 O1 2.068205 1_455
Li1 O3 2.091945 1_555
Li1 O9 2.097990 1_555
Li1 O15 2.106210 1_555
Li1 O1 2.138092 1_555
Li1 O9 2.300513 1_455
Li2 O8 2.013029 1_555
Li2 O10 2.085689 1_555
Li2 O4 2.086796 1_555
Li2 O2 2.174132 1_555
Li2 O2 2.245387 1_455
Li2 O10 2.250947 1_455
Li3 O9 2.113042 1_555
Li3 O3 2.129021 1_655
Li3 O11 2.140792 1_555
Li3 O5 2.172524 1_555
Li3 O3 2.178805 1_555
Li3 O11 2.179892 1_655
Li4 O4 2.099018 1_555
Li4 O6 2.109714 1_555
Li4 O12 2.150152 1_555
Li4 O10 2.156987 1_555
Li4 O12 2.184674 1_655
Li4 O4 2.274618 1_655
Li5 O7 2.006058 1_555
Li5 O5 2.089121 1_455
Li5 O11 2.141323 1_555
Li5 O13 2.181573 1_455
Li5 O13 2.213156 1_555
Li5 O5 2.235201 1_555
Li6 O14 2.056548 1_554
Li6 O12 2.069888 1_555
Li6 O14 2.119884 1_454
Li6 O6 2.181351 1_455
Li6 O6 2.190120 1_555
Li6 O0 2.192357 1_554
Li7 O13 2.147730 1_556
Li7 O7 2.149984 1_556
Li7 O7 2.175382 1_656
Li7 O1 2.178404 1_555
Li7 O15 2.227331 1_555
Li7 O15 2.256524 1_655
Li8 O8 2.018588 1_555
Li8 O7 2.018919 1_556
Li8 O14 2.105623 1_455
Li8 O1 2.108012 1_555
Li8 O1 2.216019 1_455
Li8 O14 2.221642 1_555
Mn0 O15 1.956099 1_645
Mn0 O6 1.970684 1_556
Mn0 O0 1.977201 1_655
Mn0 O13 1.980937 1_546
Mn0 O0 2.202493 1_555
Mn0 O13 2.226824 1_646
Mn1 O4 1.952108 1_565
Mn1 O13 1.970208 1_555
Mn1 O6 1.971227 1_565
Mn1 O11 1.988347 1_555
Mn1 O11 2.227268 1_655
Mn1 O6 2.241312 1_465
Co0 O9 1.907395 1_555
Co0 O0 1.937161 1_565
Co0 O15 1.937603 1_555
Co0 O2 1.947498 1_565
Co0 O2 2.182598 1_465
Co0 O15 2.216021 1_655
Co1 O1 1.745923 1_555
Co1 O8 1.907809 1_555
Co1 O10 1.941566 1_555
Co1 O3 2.010504 1_655
Co1 O8 2.100425 1_655
Co1 O3 2.271356 1_555
Co2 O2 1.922346 1_565
Co2 O11 1.963527 1_655
Co2 O9 2.038856 1_555
Co2 O4 2.067742 1_665
Co2 O9 2.073761 1_655
Co2 O4 2.122234 1_565
Co3 O12 1.909072 1_555
Co3 O3 1.914760 1_555
Co3 O10 2.045009 1_455
Co3 O5 2.046357 1_555
Co3 O5 2.116108 1_455
Co3 O10 2.116814 1_555
Co4 O14 1.747610 1_554
Co4 O7 1.914773 1_655
Co4 O5 1.941671 1_555
Co4 O12 2.019745 1_555
Co4 O7 2.096410 1_555
Co4 O12 2.259582 1_655
