# generated using pymatgen
data_SrLaCoO4
_symmetry_space_group_name_H-M   'P 1'
_cell_length_a   6.86259051
_cell_length_b   6.86259051
_cell_length_c   5.45027400
_cell_angle_alpha   90.00000000
_cell_angle_beta   90.00000000
_cell_angle_gamma   133.35905050
_symmetry_Int_Tables_number   1
_chemical_formula_structural   SrLaCoO4
_chemical_formula_sum   'Sr2 La2 Co2 O8'
_cell_volume   186.62424931
_cell_formula_units_Z   2
loop_
 _symmetry_equiv_pos_site_id
 _symmetry_equiv_pos_as_xyz
  1  'x, y, z'
loop_
 _atom_site_type_symbol
 _atom_site_label
 _atom_site_symmetry_multiplicity
 _atom_site_fract_x
 _atom_site_fract_y
 _atom_site_fract_z
 _atom_site_occupancy
  Sr  Sr0  1  0.60597700  0.39402300  0.25000000  1
  Sr  Sr1  1  0.39402300  0.60597700  0.75000000  1
  La  La0  1  0.11187300  0.88812700  0.75000000  1
  La  La1  1  0.88812700  0.11187300  0.25000000  1
  Co  Co0  1  0.25102100  0.74897900  0.25000000  1
  Co  Co1  1  0.74897900  0.25102100  0.75000000  1
  O  O0  1  0.92488800  0.07511200  0.75000000  1
  O  O1  1  0.41189900  0.58810100  0.25000000  1
  O  O2  1  0.07511200  0.92488800  0.25000000  1
  O  O3  1  0.58810100  0.41189900  0.75000000  1
  O  O4  1  0.00000000  0.50000000  0.50000000  1
  O  O5  1  0.50000000  0.00000000  0.00000000  1
  O  O6  1  0.00000000  0.50000000  0.00000000  1
  O  O7  1  0.50000000  0.00000000  0.50000000  1
loop_
_geom_bond_atom_site_label_1
_geom_bond_atom_site_label_2
_geom_bond_distance
_geom_bond_site_symmetry_2
La0 O0 2.356741 1_465
La0 O5 2.594726 1_566
La0 O6 2.594726 1_556
La0 O4 2.594726 1_555
La0 O7 2.594726 1_565
La0 O3 2.733191 1_565
La0 O3 2.733191 1_455
La0 O2 2.764245 1_555
La0 O2 2.764245 1_556
La1 O2 2.356741 1_645
La1 O5 2.594726 1_555
La1 O4 2.594726 1_655
La1 O6 2.594726 1_655
La1 O7 2.594726 1_555
La1 O1 2.733191 1_655
La1 O1 2.733191 1_545
La1 O0 2.764245 1_555
La1 O0 2.764245 1_554
Co0 O6 1.924032 1_555
Co0 O4 1.924032 1_555
Co0 O7 1.924032 1_565
Co0 O5 1.924032 1_565
Co0 O1 2.027691 1_555
Co0 O2 2.217140 1_555
Co1 O7 1.924032 1_555
Co1 O5 1.924032 1_556
Co1 O6 1.924032 1_656
Co1 O4 1.924032 1_655
Co1 O3 2.027691 1_555
Co1 O0 2.217140 1_555
O0 Sr1 2.744430 1_655
O0 Sr1 2.744430 1_545
O1 Sr0 2.446140 1_555
O1 Sr1 2.734435 1_554
O1 Sr1 2.734435 1_555
O2 Sr0 2.744430 1_455
O2 Sr0 2.744430 1_565
O3 Sr1 2.446140 1_555
O3 Sr0 2.734435 1_555
O3 Sr0 2.734435 1_556
O4 Sr1 2.645160 1_555
O4 Sr0 2.645160 1_455
O5 Sr0 2.645160 1_555
O5 Sr1 2.645160 1_544
O6 Sr1 2.645160 1_554
O6 Sr0 2.645160 1_455
O7 Sr0 2.645160 1_555
O7 Sr1 2.645160 1_545
