# generated using pymatgen
data_Sc(NF2)3
_symmetry_space_group_name_H-M   'P 1'
_cell_length_a   5.24613400
_cell_length_b   5.24613400
_cell_length_c   9.95059300
_cell_angle_alpha   90.00000000
_cell_angle_beta   90.00000000
_cell_angle_gamma   90.00000000
_symmetry_Int_Tables_number   1
_chemical_formula_structural   Sc(NF2)3
_chemical_formula_sum   'Sc2 N6 F12'
_cell_volume   273.85944386
_cell_formula_units_Z   2
loop_
 _symmetry_equiv_pos_site_id
 _symmetry_equiv_pos_as_xyz
  1  'x, y, z'
loop_
 _atom_site_type_symbol
 _atom_site_label
 _atom_site_symmetry_multiplicity
 _atom_site_fract_x
 _atom_site_fract_y
 _atom_site_fract_z
 _atom_site_occupancy
  Sc  Sc0  1  0.50000000  0.50000000  0.50000000  1
  Sc  Sc1  1  0.00000000  0.00000000  0.00000000  1
  N  N0  1  0.50000000  0.50000000  0.00000000  1
  N  N1  1  0.00000000  0.00000000  0.50000000  1
  N  N2  1  0.00000000  0.50000000  0.25000000  1
  N  N3  1  0.50000000  0.00000000  0.75000000  1
  N  N4  1  0.50000000  0.00000000  0.25000000  1
  N  N5  1  0.00000000  0.50000000  0.75000000  1
  F  F0  1  0.50000000  0.50000000  0.29516000  1
  F  F1  1  0.00000000  0.00000000  0.79516000  1
  F  F2  1  0.50000000  0.50000000  0.70484000  1
  F  F3  1  0.00000000  0.00000000  0.20484000  1
  F  F4  1  0.70839000  0.83119800  0.50000000  1
  F  F5  1  0.29161000  0.16880200  0.50000000  1
  F  F6  1  0.79161000  0.33119800  0.00000000  1
  F  F7  1  0.20839000  0.66880200  0.00000000  1
  F  F8  1  0.83119800  0.29161000  0.50000000  1
  F  F9  1  0.16880200  0.70839000  0.50000000  1
  F  F10  1  0.33119800  0.20839000  0.00000000  1
  F  F11  1  0.66880200  0.79161000  0.00000000  1
loop_
_geom_bond_atom_site_label_1
_geom_bond_atom_site_label_2
_geom_bond_distance
_geom_bond_site_symmetry_2
F0 Sc0 2.038279 1_555
F1 Sc1 2.038279 1_556
F2 Sc0 2.038279 1_555
F3 Sc1 2.038279 1_555
F4 N1 1.767648 1_665
F4 Sc0 2.052831 1_555
F5 N1 1.767648 1_555
F5 Sc0 2.052831 1_555
F6 N0 1.767648 1_555
F6 Sc1 2.052831 1_655
F7 N0 1.767648 1_555
F7 Sc1 2.052831 1_565
F8 N1 1.767648 1_655
F8 Sc0 2.052831 1_555
F9 N1 1.767648 1_565
F9 Sc0 2.052831 1_555
F10 N0 1.767648 1_555
F10 Sc1 2.052831 1_555
F11 N0 1.767648 1_555
F11 Sc1 2.052831 1_665
