# generated using pymatgen
data_Zn(FeO2)2
_symmetry_space_group_name_H-M   'P 1'
_cell_length_a   6.05775492
_cell_length_b   6.05775492
_cell_length_c   14.75636451
_cell_angle_alpha   89.61864847
_cell_angle_beta   89.61864847
_cell_angle_gamma   59.93128410
_symmetry_Int_Tables_number   1
_chemical_formula_structural   Zn(FeO2)2
_chemical_formula_sum   'Zn6 Fe12 O24'
_cell_volume   468.61852468
_cell_formula_units_Z   6
loop_
 _symmetry_equiv_pos_site_id
 _symmetry_equiv_pos_as_xyz
  1  'x, y, z'
loop_
 _atom_site_type_symbol
 _atom_site_label
 _atom_site_symmetry_multiplicity
 _atom_site_fract_x
 _atom_site_fract_y
 _atom_site_fract_z
 _atom_site_occupancy
  Zn  Zn0  1  0.33818600  0.33818600  0.04222500  1
  Zn  Zn1  1  0.66720700  0.66720700  0.33265900  1
  Zn  Zn2  1  0.83518100  0.83518100  0.16757700  1
  Zn  Zn3  1  0.33586800  0.33586800  0.66680900  1
  Zn  Zn4  1  0.50140000  0.50140000  0.49978300  1
  Zn  Zn5  1  0.17044000  0.17044000  0.83286900  1
  Fe  Fe0  1  0.83212500  0.33390700  0.16582900  1
  Fe  Fe1  1  0.00588300  0.00588300  0.37809700  1
  Fe  Fe2  1  0.00019000  0.00019000  0.00239700  1
  Fe  Fe3  1  0.33390700  0.83212500  0.16582900  1
  Fe  Fe4  1  0.50027300  0.00299400  0.49977000  1
  Fe  Fe5  1  0.67360400  0.67360400  0.70974300  1
  Fe  Fe6  1  0.00299400  0.50027300  0.49977000  1
  Fe  Fe7  1  0.16818700  0.66804000  0.83362800  1
  Fe  Fe8  1  0.32924100  0.32924100  0.28807700  1
  Fe  Fe9  1  0.66804000  0.16818700  0.83362800  1
  Fe  Fe10  1  0.99734300  0.99734300  0.62326100  1
  Fe  Fe11  1  0.65992600  0.65992600  0.95960800  1
  O  O0  1  0.69694200  0.16241700  0.08566200  1
  O  O1  1  0.00704400  0.00704400  0.24640400  1
  O  O2  1  0.16241700  0.69694200  0.08566200  1
  O  O3  1  0.15463500  0.15463500  0.08576900  1
  O  O4  1  0.34911400  0.83728800  0.42082300  1
  O  O5  1  0.50563500  0.50563500  0.24340400  1
  O  O6  1  0.67360000  0.67360000  0.57736700  1
  O  O7  1  0.49645900  0.98836900  0.24411700  1
  O  O8  1  0.83728800  0.34911400  0.42082300  1
  O  O9  1  0.66186000  0.66186000  0.08693700  1
  O  O10  1  0.82875000  0.82875000  0.42174600  1
  O  O11  1  0.98836900  0.49645900  0.24411700  1
  O  O12  1  0.01187800  0.50902900  0.75425900  1
  O  O13  1  0.17386700  0.17386700  0.57837100  1
  O  O14  1  0.16477300  0.65538300  0.57931200  1
  O  O15  1  0.50902900  0.01187800  0.75425900  1
  O  O16  1  0.34064700  0.34064700  0.90597300  1
  O  O17  1  0.32916400  0.32916400  0.42141400  1
  O  O18  1  0.49838100  0.49838100  0.75571300  1
  O  O19  1  0.65538300  0.16477300  0.57931200  1
  O  O20  1  0.84765600  0.84765600  0.91541600  1
  O  O21  1  0.83430600  0.31755600  0.91696000  1
  O  O22  1  0.99861500  0.99861500  0.75673000  1
  O  O23  1  0.31755600  0.83430600  0.91696000  1
loop_
_geom_bond_atom_site_label_1
_geom_bond_atom_site_label_2
_geom_bond_distance
_geom_bond_site_symmetry_2
Fe0 O0 2.007727 1_555
Fe0 O11 2.040517 1_555
Fe0 O5 2.056268 1_555
Fe0 O3 2.062092 1_655
Fe0 O9 2.073106 1_555
Fe0 O1 2.083288 1_655
Fe1 O4 1.909095 1_545
Fe1 O8 1.909095 1_455
Fe1 O1 1.943254 1_555
Fe1 O10 1.962912 1_445
Fe2 O2 2.006742 1_545
Fe2 O0 2.006742 1_455
Fe2 O3 2.042549 1_555
Fe2 O20 2.059656 1_444
Fe2 O21 2.084234 1_454
Fe2 O23 2.084234 1_544
Fe3 O2 2.007727 1_555
Fe3 O7 2.040517 1_555
Fe3 O5 2.056268 1_555
Fe3 O3 2.062092 1_565
Fe3 O9 2.073106 1_555
Fe3 O1 2.083288 1_565
Fe4 O4 2.038163 1_545
Fe4 O19 2.042977 1_555
Fe4 O17 2.061208 1_555
Fe4 O13 2.064194 1_555
Fe4 O10 2.068859 1_545
Fe4 O6 2.069128 1_545
Fe5 O12 1.893829 1_655
Fe5 O15 1.893829 1_565
Fe5 O6 1.953389 1_555
Fe5 O18 1.955354 1_555
Fe6 O8 2.038163 1_455
Fe6 O14 2.042977 1_555
Fe6 O17 2.061208 1_555
Fe6 O13 2.064194 1_555
Fe6 O10 2.068859 1_455
Fe6 O6 2.069128 1_455
Fe7 O16 2.018626 1_555
Fe7 O12 2.034674 1_555
Fe7 O22 2.068073 1_455
Fe7 O20 2.068786 1_455
Fe7 O23 2.071192 1_555
Fe7 O18 2.074662 1_555
Fe8 O11 1.903638 1_455
Fe8 O7 1.903638 1_545
Fe8 O5 1.960506 1_555
Fe8 O17 1.967563 1_555
Fe9 O16 2.018626 1_555
Fe9 O15 2.034674 1_555
Fe9 O22 2.068073 1_545
Fe9 O20 2.068786 1_545
Fe9 O21 2.071192 1_555
Fe9 O18 2.074662 1_555
Fe10 O19 1.908973 1_565
Fe10 O14 1.908973 1_655
Fe10 O13 1.962846 1_665
Fe10 O22 1.969665 1_555
Fe11 O9 1.879179 1_556
Fe11 O23 1.904335 1_555
Fe11 O21 1.904335 1_555
Fe11 O20 2.070753 1_555
O0 Zn0 1.989537 1_555
O0 Zn2 2.100016 1_545
O1 Zn2 2.153884 1_445
O2 Zn0 1.989537 1_555
O2 Zn2 2.100016 1_455
O3 Zn0 2.026186 1_555
O4 Zn4 2.109630 1_555
O4 Zn1 2.112382 1_555
O5 Zn1 2.155213 1_555
O6 Zn4 2.146907 1_555
O7 Zn2 2.102882 1_555
O7 Zn1 2.128297 1_555
O8 Zn4 2.109630 1_555
O8 Zn1 2.112382 1_555
O9 Zn2 2.181430 1_555
O10 Zn1 2.153443 1_555
O11 Zn2 2.102882 1_555
O11 Zn1 2.128297 1_555
O12 Zn5 2.117573 1_555
O12 Zn3 2.130458 1_555
O13 Zn3 2.151371 1_555
O14 Zn3 2.112317 1_555
O14 Zn4 2.117146 1_555
O15 Zn5 2.117573 1_555
O15 Zn3 2.130458 1_555
O16 Zn0 2.010552 1_556
O16 Zn5 2.094003 1_555
O17 Zn4 2.153500 1_555
O18 Zn3 2.159858 1_555
O19 Zn3 2.112317 1_555
O19 Zn4 2.117146 1_555
O21 Zn5 2.154725 1_655
O22 Zn5 2.132128 1_665
O23 Zn5 2.154725 1_565
