# generated using pymatgen
data_CaCr3O7
_symmetry_space_group_name_H-M   'P 1'
_cell_length_a   5.38858000
_cell_length_b   10.51218500
_cell_length_c   10.76402800
_cell_angle_alpha   90.00000000
_cell_angle_beta   90.00000000
_cell_angle_gamma   90.00000000
_symmetry_Int_Tables_number   1
_chemical_formula_structural   CaCr3O7
_chemical_formula_sum   'Ca4 Cr12 O28'
_cell_volume   609.73643744
_cell_formula_units_Z   4
loop_
 _symmetry_equiv_pos_site_id
 _symmetry_equiv_pos_as_xyz
  1  'x, y, z'
loop_
 _atom_site_type_symbol
 _atom_site_label
 _atom_site_symmetry_multiplicity
 _atom_site_fract_x
 _atom_site_fract_y
 _atom_site_fract_z
 _atom_site_occupancy
  Ca  Ca0  1  0.68098200  0.75000000  0.93042200  1
  Ca  Ca1  1  0.18098200  0.25000000  0.56957800  1
  Ca  Ca2  1  0.31901800  0.25000000  0.06957700  1
  Ca  Ca3  1  0.81901800  0.75000000  0.43042200  1
  Cr  Cr0  1  0.30430400  0.02002300  0.30328900  1
  Cr  Cr1  1  0.80430400  0.97997700  0.19671100  1
  Cr  Cr2  1  0.69569600  0.52002300  0.69671100  1
  Cr  Cr3  1  0.19569600  0.47997700  0.80328900  1
  Cr  Cr4  1  0.31048900  0.75000000  0.22307500  1
  Cr  Cr5  1  0.81048900  0.25000000  0.27692500  1
  Cr  Cr6  1  0.68951100  0.25000000  0.77692500  1
  Cr  Cr7  1  0.18951100  0.75000000  0.72307500  1
  Cr  Cr8  1  0.80430400  0.52002300  0.19671100  1
  Cr  Cr9  1  0.30430400  0.47997700  0.30328900  1
  Cr  Cr10  1  0.19569600  0.02002300  0.80328900  1
  Cr  Cr11  1  0.69569600  0.97997700  0.69671100  1
  O  O0  1  0.93382300  0.11665100  0.72296900  1
  O  O1  1  0.43382300  0.88334900  0.77703100  1
  O  O2  1  0.06617700  0.61665100  0.27703100  1
  O  O3  1  0.56617700  0.38334900  0.22296900  1
  O  O4  1  0.06617700  0.88334900  0.27703100  1
  O  O5  1  0.56617700  0.11665100  0.22296900  1
  O  O6  1  0.93382300  0.38334900  0.72296900  1
  O  O7  1  0.43382300  0.61665100  0.77703100  1
  O  O8  1  0.45633000  0.12005700  0.71733000  1
  O  O9  1  0.95633000  0.87994300  0.78267000  1
  O  O10  1  0.54367000  0.62005700  0.28267000  1
  O  O11  1  0.04367000  0.37994300  0.21733000  1
  O  O12  1  0.54367000  0.87994300  0.28267000  1
  O  O13  1  0.04367000  0.12005700  0.21733000  1
  O  O14  1  0.45633000  0.37994300  0.71733000  1
  O  O15  1  0.95633000  0.62005700  0.78267000  1
  O  O16  1  0.16296800  0.75000000  0.56475800  1
  O  O17  1  0.66296800  0.25000000  0.93524200  1
  O  O18  1  0.83703200  0.25000000  0.43524200  1
  O  O19  1  0.33703200  0.75000000  0.06475800  1
  O  O20  1  0.22017400  0.42323000  0.94792400  1
  O  O21  1  0.72017400  0.57677000  0.55207600  1
  O  O22  1  0.77982600  0.92323000  0.05207600  1
  O  O23  1  0.27982600  0.07677000  0.44792400  1
  O  O24  1  0.77982600  0.57677000  0.05207600  1
  O  O25  1  0.27982600  0.42323000  0.44792400  1
  O  O26  1  0.22017400  0.07677000  0.94792400  1
  O  O27  1  0.72017400  0.92323000  0.55207600  1
loop_
_geom_bond_atom_site_label_1
_geom_bond_atom_site_label_2
_geom_bond_distance
_geom_bond_site_symmetry_2
Ca0 O24 2.305338 1_556
Ca0 O22 2.305338 1_556
Ca0 O19 2.350746 1_556
Ca0 O1 2.542626 1_555
Ca0 O7 2.542626 1_555
Ca0 O9 2.568419 1_555
Ca0 O15 2.568419 1_555
Ca1 O25 2.305338 1_555
Ca1 O23 2.305338 1_555
Ca1 O18 2.350746 1_455
Ca1 O0 2.542626 1_455
Ca1 O6 2.542626 1_455
Ca1 O14 2.568419 1_555
Ca1 O8 2.568419 1_555
Ca2 O20 2.305332 1_554
Ca2 O26 2.305332 1_554
Ca2 O17 2.350739 1_554
Ca2 O3 2.542633 1_555
Ca2 O5 2.542633 1_555
Ca2 O11 2.568426 1_555
Ca2 O13 2.568426 1_555
Ca3 O27 2.305338 1_555
Ca3 O21 2.305338 1_555
Ca3 O16 2.350746 1_655
Ca3 O4 2.542626 1_655
Ca3 O2 2.542626 1_655
Ca3 O10 2.568419 1_555
Ca3 O12 2.568419 1_555
Cr0 O23 1.672438 1_555
Cr0 O5 1.941787 1_555
Cr0 O4 1.946954 1_545
Cr0 O12 1.970114 1_545
Cr0 O13 1.983532 1_555
Cr1 O22 1.672438 1_555
Cr1 O4 1.941787 1_655
Cr1 O5 1.946954 1_565
Cr1 O13 1.970114 1_665
Cr1 O12 1.983532 1_555
Cr2 O21 1.672438 1_555
Cr2 O7 1.941787 1_555
Cr2 O6 1.946954 1_555
Cr2 O14 1.970114 1_555
Cr2 O15 1.983532 1_555
Cr3 O20 1.672438 1_555
Cr3 O6 1.941787 1_455
Cr3 O7 1.946954 1_555
Cr3 O15 1.970114 1_455
Cr3 O14 1.983532 1_555
Cr4 O19 1.710120 1_555
Cr4 O10 1.963732 1_555
Cr4 O12 1.963732 1_555
Cr4 O2 2.008851 1_555
Cr4 O4 2.008851 1_555
Cr5 O18 1.710120 1_555
Cr5 O11 1.963732 1_655
Cr5 O13 1.963732 1_655
Cr5 O3 2.008851 1_555
Cr5 O5 2.008851 1_555
Cr6 O17 1.710120 1_555
Cr6 O8 1.963732 1_555
Cr6 O14 1.963732 1_555
Cr6 O0 2.008851 1_555
Cr6 O6 2.008851 1_555
Cr7 O16 1.710120 1_555
Cr7 O15 1.963732 1_455
Cr7 O9 1.963732 1_455
Cr7 O1 2.008851 1_555
Cr7 O7 2.008851 1_555
Cr8 O24 1.672438 1_555
Cr8 O2 1.941787 1_655
Cr8 O3 1.946954 1_555
Cr8 O11 1.970114 1_655
Cr8 O10 1.983532 1_555
Cr9 O25 1.672438 1_555
Cr9 O3 1.941787 1_555
Cr9 O2 1.946954 1_555
Cr9 O10 1.970114 1_555
Cr9 O11 1.983532 1_555
Cr10 O26 1.672438 1_555
Cr10 O0 1.941787 1_455
Cr10 O1 1.946954 1_545
Cr10 O9 1.970114 1_445
Cr10 O8 1.983532 1_555
Cr11 O27 1.672438 1_555
Cr11 O1 1.941787 1_555
Cr11 O0 1.946954 1_565
Cr11 O8 1.970114 1_565
Cr11 O9 1.983532 1_555
