# generated using pymatgen
data_Er4OsBr4
_symmetry_space_group_name_H-M   'P 1'
_cell_length_a   8.78699116
_cell_length_b   8.78699116
_cell_length_c   6.50703037
_cell_angle_alpha   89.44791551
_cell_angle_beta   89.44791551
_cell_angle_gamma   89.29078503
_symmetry_Int_Tables_number   1
_chemical_formula_structural   Er4OsBr4
_chemical_formula_sum   'Er8 Os2 Br8'
_cell_volume   502.33114849
_cell_formula_units_Z   2
loop_
 _symmetry_equiv_pos_site_id
 _symmetry_equiv_pos_as_xyz
  1  'x, y, z'
loop_
 _atom_site_type_symbol
 _atom_site_label
 _atom_site_symmetry_multiplicity
 _atom_site_fract_x
 _atom_site_fract_y
 _atom_site_fract_z
 _atom_site_occupancy
  Er  Er0  1  0.24947938  0.90060565  0.01108546  1
  Er  Er1  1  0.75052062  0.09939435  0.98891454  1
  Er  Er2  1  0.09939435  0.75052062  0.48891454  1
  Er  Er3  1  0.90060565  0.24947938  0.51108546  1
  Er  Er4  1  0.75182950  0.90238919  0.50952935  1
  Er  Er5  1  0.24817050  0.09761081  0.49047065  1
  Er  Er6  1  0.09761081  0.24817050  0.99047065  1
  Er  Er7  1  0.90238919  0.75182950  0.00952935  1
  Os  Os0  1  0.99432136  0.00567864  0.25000000  1
  Os  Os1  1  0.00567864  0.99432136  0.75000000  1
  Br  Br0  1  0.42176748  0.81596377  0.40590107  1
  Br  Br1  1  0.57823252  0.18403623  0.59409893  1
  Br  Br2  1  0.18403623  0.57823252  0.09409893  1
  Br  Br3  1  0.81596377  0.42176748  0.90590107  1
  Br  Br4  1  0.41674622  0.19206170  0.09645020  1
  Br  Br5  1  0.58325378  0.80793830  0.90354980  1
  Br  Br6  1  0.80793830  0.58325378  0.40354980  1
  Br  Br7  1  0.19206170  0.41674622  0.59645020  1
loop_
_geom_bond_atom_site_label_1
_geom_bond_atom_site_label_2
_geom_bond_distance
_geom_bond_site_symmetry_2
Er0 Os1 2.855380 1_554
Er0 Os0 2.864511 1_465
Er1 Os0 2.855380 1_556
Er1 Os1 2.864511 1_645
Er2 Os1 2.855380 1_555
Er2 Os0 2.864511 1_465
Er3 Os0 2.855380 1_555
Er3 Os1 2.864511 1_645
Er4 Os0 2.857422 1_565
Er4 Os1 2.865775 1_655
Er5 Os1 2.857422 1_545
Er5 Os0 2.865775 1_455
Er6 Os0 2.857422 1_456
Er6 Os1 2.865775 1_545
Er7 Os1 2.857422 1_654
Er7 Os0 2.865775 1_565
Br0 Er2 2.941335 1_555
Br0 Er5 2.944665 1_565
Br0 Er0 3.074971 1_555
Br0 Er4 3.089492 1_555
Br1 Er3 2.941335 1_555
Br1 Er4 2.944665 1_545
Br1 Er1 3.074971 1_555
Br1 Er5 3.089492 1_555
Br2 Er0 2.941335 1_555
Br2 Er7 2.944665 1_455
Br2 Er2 3.074971 1_555
Br2 Er6 3.089492 1_554
Br3 Er1 2.941335 1_555
Br3 Er6 2.944665 1_655
Br3 Er3 3.074971 1_555
Br3 Er7 3.089492 1_556
Br4 Er6 2.928975 1_554
Br4 Er0 3.027200 1_545
Br4 Er5 3.061504 1_555
Br4 Er1 3.109135 1_554
Br5 Er7 2.928975 1_556
Br5 Er1 3.027200 1_565
Br5 Er4 3.061504 1_555
Br5 Er0 3.109135 1_556
Br6 Er4 2.928975 1_555
Br6 Er2 3.027200 1_655
Br6 Er7 3.061504 1_555
Br6 Er3 3.109135 1_555
Br7 Er5 2.928975 1_555
Br7 Er3 3.027200 1_455
Br7 Er6 3.061504 1_555
Br7 Er2 3.109135 1_555
