# generated using pymatgen
data_KMnO4
_symmetry_space_group_name_H-M   'P 1'
_cell_length_a   5.61434799
_cell_length_b   7.35413806
_cell_length_c   9.04195398
_cell_angle_alpha   90.00000000
_cell_angle_beta   90.00000000
_cell_angle_gamma   90.00000000
_symmetry_Int_Tables_number   1
_chemical_formula_structural   KMnO4
_chemical_formula_sum   'K4 Mn4 O16'
_cell_volume   373.33043700
_cell_formula_units_Z   4
loop_
 _symmetry_equiv_pos_site_id
 _symmetry_equiv_pos_as_xyz
  1  'x, y, z'
loop_
 _atom_site_type_symbol
 _atom_site_label
 _atom_site_symmetry_multiplicity
 _atom_site_fract_x
 _atom_site_fract_y
 _atom_site_fract_z
 _atom_site_occupancy
  K  K0  1  0.25000000  0.65562836  0.31893581  1
  K  K1  1  0.75000000  0.34437164  0.68106419  1
  K  K2  1  0.75000000  0.15562836  0.18106419  1
  K  K3  1  0.25000000  0.84437164  0.81893581  1
  Mn  Mn0  1  0.25000000  0.19235810  0.43803290  1
  Mn  Mn1  1  0.75000000  0.80764190  0.56196710  1
  Mn  Mn2  1  0.75000000  0.69235810  0.06196710  1
  Mn  Mn3  1  0.25000000  0.30764190  0.93803290  1
  O  O0  1  0.51690756  0.81694281  0.08126685  1
  O  O1  1  0.01690756  0.18305719  0.91873315  1
  O  O2  1  0.48309244  0.31694281  0.41873315  1
  O  O3  1  0.98309244  0.68305719  0.58126685  1
  O  O4  1  0.48309244  0.18305719  0.91873315  1
  O  O5  1  0.98309244  0.81694281  0.08126685  1
  O  O6  1  0.51690756  0.68305719  0.58126685  1
  O  O7  1  0.01690756  0.31694281  0.41873315  1
  O  O8  1  0.25000000  0.03730563  0.31368938  1
  O  O9  1  0.75000000  0.96269437  0.68631062  1
  O  O10  1  0.75000000  0.53730563  0.18631062  1
  O  O11  1  0.25000000  0.46269437  0.81368938  1
  O  O12  1  0.25000000  0.10359008  0.59956612  1
  O  O13  1  0.75000000  0.89640992  0.40043388  1
  O  O14  1  0.75000000  0.60359008  0.90043388  1
  O  O15  1  0.25000000  0.39640992  0.09956612  1
loop_
_geom_bond_atom_site_label_1
_geom_bond_atom_site_label_2
_geom_bond_distance
_geom_bond_site_symmetry_2
K0 O15 2.751087 1_555
K0 O8 2.807308 1_565
K0 O3 2.812924 1_455
K0 O6 2.812924 1_555
K0 O5 2.875948 1_455
K0 O0 2.875948 1_555
K0 O2 2.954766 1_555
K0 O7 2.954766 1_555
K0 O10 3.174187 1_455
K0 O10 3.174187 1_555
K1 O14 2.751087 1_555
K1 O9 2.807308 1_545
K1 O7 2.812924 1_655
K1 O2 2.812924 1_555
K1 O1 2.875948 1_655
K1 O4 2.875948 1_555
K1 O6 2.954766 1_555
K1 O3 2.954766 1_555
K1 O11 3.174187 1_555
K1 O11 3.174187 1_655
K2 O13 2.751087 1_545
K2 O10 2.807308 1_555
K2 O1 2.812924 1_654
K2 O4 2.812924 1_554
K2 O7 2.875948 1_655
K2 O2 2.875948 1_555
K2 O0 2.954766 1_545
K2 O5 2.954766 1_545
K2 O8 3.174187 1_655
K2 O8 3.174187 1_555
K3 O12 2.751087 1_565
K3 O11 2.807308 1_555
K3 O5 2.812924 1_456
K3 O0 2.812924 1_556
K3 O3 2.875948 1_455
K3 O6 2.875948 1_555
K3 O4 2.954766 1_565
K3 O1 2.954766 1_565
K3 O9 3.174187 1_455
K3 O9 3.174187 1_555
Mn0 O12 1.599827 1_555
Mn0 O8 1.601344 1_555
Mn0 O2 1.607015 1_555
Mn0 O7 1.607015 1_555
Mn1 O13 1.599827 1_555
Mn1 O9 1.601344 1_555
Mn1 O6 1.607015 1_555
Mn1 O3 1.607015 1_555
Mn2 O14 1.599827 1_554
Mn2 O10 1.601344 1_555
Mn2 O0 1.607015 1_555
Mn2 O5 1.607015 1_555
Mn3 O15 1.599827 1_556
Mn3 O11 1.601344 1_555
Mn3 O4 1.607015 1_555
Mn3 O1 1.607015 1_555
