# generated using pymatgen
data_NaLaP2H4CO7
_symmetry_space_group_name_H-M   'P 1'
_cell_length_a   15.32647900
_cell_length_b   6.96166300
_cell_length_c   7.07261382
_cell_angle_alpha   84.72256434
_cell_angle_beta   90.00000000
_cell_angle_gamma   90.00000000
_symmetry_Int_Tables_number   1
_chemical_formula_structural   NaLaP2H4CO7
_chemical_formula_sum   'Na4 La4 P8 H16 C4 O28'
_cell_volume   751.43331895
_cell_formula_units_Z   4
loop_
 _symmetry_equiv_pos_site_id
 _symmetry_equiv_pos_as_xyz
  1  'x, y, z'
loop_
 _atom_site_type_symbol
 _atom_site_label
 _atom_site_symmetry_multiplicity
 _atom_site_fract_x
 _atom_site_fract_y
 _atom_site_fract_z
 _atom_site_occupancy
  Na  Na0  1  0.53645300  0.13678200  0.79177500  1
  Na  Na1  1  0.03645300  0.36321800  0.20822500  1
  Na  Na2  1  0.46354700  0.86321800  0.20822500  1
  Na  Na3  1  0.96354700  0.63678200  0.79177500  1
  La  La0  1  0.60266900  0.42772400  0.34444500  1
  La  La1  1  0.10266900  0.07227600  0.65555500  1
  La  La2  1  0.39733100  0.57227600  0.65555500  1
  La  La3  1  0.89733100  0.92772400  0.34444500  1
  P  P0  1  0.40956700  0.36381500  0.17124700  1
  P  P1  1  0.90956700  0.13618500  0.82875300  1
  P  P2  1  0.59043300  0.63618500  0.82875300  1
  P  P3  1  0.09043300  0.86381500  0.17124700  1
  P  P4  1  0.65705300  0.90233100  0.47796200  1
  P  P5  1  0.15705300  0.59766900  0.52203800  1
  P  P6  1  0.34294700  0.09766900  0.52203800  1
  P  P7  1  0.84294700  0.40233100  0.47796200  1
  H  H0  1  0.70175600  0.20805700  0.03141300  1
  H  H1  1  0.20175600  0.29194300  0.96858700  1
  H  H2  1  0.29824400  0.79194300  0.96858700  1
  H  H3  1  0.79824400  0.70805700  0.03141300  1
  H  H4  1  0.61170600  0.12359100  0.09977500  1
  H  H5  1  0.11170600  0.37640900  0.90022500  1
  H  H6  1  0.38829400  0.87640900  0.90022500  1
  H  H7  1  0.88829400  0.62359100  0.09977500  1
  H  H8  1  0.26752900  0.32576400  0.31170600  1
  H  H9  1  0.76752900  0.17423600  0.68829400  1
  H  H10  1  0.73247100  0.67423600  0.68829400  1
  H  H11  1  0.23247100  0.82576400  0.31170600  1
  H  H12  1  0.29724700  0.12290200  0.19231700  1
  H  H13  1  0.79724700  0.37709800  0.80768300  1
  H  H14  1  0.70275300  0.87709800  0.80768300  1
  H  H15  1  0.20275300  0.62290200  0.19231700  1
  C  C0  1  0.32148300  0.22596300  0.28912000  1
  C  C1  1  0.82148300  0.27403700  0.71088000  1
  C  C2  1  0.67851700  0.77403700  0.71088000  1
  C  C3  1  0.17851700  0.72596300  0.28912000  1
  O  O0  1  0.59689300  0.77411300  0.36722100  1
  O  O1  1  0.09689300  0.72588700  0.63277900  1
  O  O2  1  0.40310700  0.22588700  0.63277900  1
  O  O3  1  0.90310700  0.27411300  0.36722100  1
  O  O4  1  0.62596800  0.53948200  0.01592700  1
  O  O5  1  0.12596800  0.96051800  0.98407300  1
  O  O6  1  0.37403200  0.46051800  0.98407300  1
  O  O7  1  0.87403200  0.03948200  0.01592700  1
  O  O8  1  0.56090900  0.48208000  0.69139000  1
  O  O9  1  0.06090900  0.01792000  0.30861000  1
  O  O10  1  0.43909100  0.51792000  0.30861000  1
  O  O11  1  0.93909100  0.98208000  0.69139000  1
  O  O12  1  0.75207700  0.43036900  0.38752100  1
  O  O13  1  0.25207700  0.06963100  0.61247900  1
  O  O14  1  0.24792300  0.56963100  0.61247900  1
  O  O15  1  0.74792300  0.93036900  0.38752100  1
  O  O16  1  0.65844500  0.10973400  0.00814500  1
  O  O17  1  0.15844500  0.39026600  0.99185500  1
  O  O18  1  0.34155500  0.89026600  0.99185500  1
  O  O19  1  0.84155500  0.60973400  0.00814500  1
  O  O20  1  0.48858900  0.22818200  0.14772800  1
  O  O21  1  0.98858900  0.27181800  0.85227200  1
  O  O22  1  0.51141100  0.77181800  0.85227200  1
  O  O23  1  0.01141100  0.72818200  0.14772800  1
  O  O24  1  0.61316600  0.09826100  0.50369200  1
  O  O25  1  0.11316600  0.40173900  0.49630800  1
  O  O26  1  0.38683400  0.90173900  0.49630800  1
  O  O27  1  0.88683400  0.59826100  0.50369200  1
loop_
_geom_bond_atom_site_label_1
_geom_bond_atom_site_label_2
_geom_bond_distance
_geom_bond_site_symmetry_2
Na0 O2 2.387012 1_555
Na0 O24 2.388765 1_555
Na0 O16 2.412484 1_556
Na0 O8 2.471659 1_555
Na0 O22 2.566289 1_545
Na0 O20 2.752380 1_556
Na1 O3 2.387012 1_455
Na1 O25 2.388765 1_555
Na1 O17 2.412484 1_554
Na1 O9 2.471659 1_555
Na1 O23 2.566289 1_555
Na1 O21 2.752380 1_454
Na2 O0 2.387012 1_555
Na2 O26 2.388765 1_555
Na2 O18 2.412484 1_554
Na2 O10 2.471659 1_555
Na2 O20 2.566289 1_565
Na2 O22 2.752380 1_554
Na3 O1 2.387012 1_655
Na3 O27 2.388765 1_555
Na3 O19 2.412484 1_556
Na3 O11 2.471659 1_555
Na3 O21 2.566289 1_555
Na3 O23 2.752380 1_656
La0 O12 2.310373 1_555
La0 O4 2.408081 1_555
La0 O0 2.433167 1_555
La0 O24 2.465736 1_555
La0 O10 2.591266 1_555
La0 O8 2.597079 1_555
La0 O20 2.697785 1_555
La1 O13 2.310373 1_555
La1 O5 2.408081 1_545
La1 O1 2.433167 1_545
La1 O25 2.465736 1_555
La1 O11 2.591266 1_445
La1 O9 2.597079 1_555
La1 O21 2.697785 1_455
La2 O14 2.310373 1_555
La2 O6 2.408081 1_555
La2 O2 2.433167 1_555
La2 O26 2.465736 1_555
La2 O8 2.591266 1_555
La2 O10 2.597079 1_555
La2 O22 2.697785 1_555
La3 O15 2.310373 1_555
La3 O7 2.408081 1_565
La3 O3 2.433167 1_565
La3 O27 2.465736 1_555
La3 O9 2.591266 1_665
La3 O11 2.597079 1_555
La3 O23 2.697785 1_655
H0 O16 0.978248 1_555
H1 O17 0.978248 1_555
H2 O18 0.978248 1_555
H3 O19 0.978248 1_555
H4 O16 0.976700 1_555
H4 Na0 2.459097 1_554
H5 O17 0.976700 1_555
H5 Na1 2.459097 1_556
H6 O18 0.976700 1_555
H6 Na2 2.459097 1_556
H7 O19 0.976700 1_555
H7 Na3 2.459097 1_554
C0 H12 1.100844 1_555
C0 H8 1.101117 1_555
C0 P0 1.814211 1_555
C0 P6 1.830024 1_555
C1 H13 1.100844 1_555
C1 H9 1.101117 1_555
C1 P1 1.814211 1_555
C1 P7 1.830024 1_555
C2 H14 1.100844 1_555
C2 H10 1.101117 1_555
C2 P2 1.814211 1_555
C2 P4 1.830024 1_555
C3 H15 1.100844 1_555
C3 H11 1.101117 1_555
C3 P3 1.814211 1_555
C3 P5 1.830024 1_555
O0 P4 1.545628 1_555
O1 P5 1.545628 1_555
O2 P6 1.545628 1_555
O3 P7 1.545628 1_555
O4 P2 1.529170 1_554
O5 P3 1.529170 1_556
O6 P0 1.529170 1_556
O7 P1 1.529170 1_554
O8 P2 1.578381 1_555
O9 P3 1.578381 1_545
O10 P0 1.578381 1_555
O11 P1 1.578381 1_565
O12 P7 1.537514 1_555
O13 P6 1.537514 1_555
O14 P5 1.537514 1_555
O15 P4 1.537514 1_555
O20 P0 1.554017 1_555
O21 P1 1.554017 1_555
O22 P2 1.554017 1_555
O23 P3 1.554017 1_555
O24 P4 1.546514 1_545
O25 P5 1.546514 1_555
O26 P6 1.546514 1_565
O27 P7 1.546514 1_555
