# generated using pymatgen
data_H7S2NO8
_symmetry_space_group_name_H-M   'P 1'
_cell_length_a   7.57095808
_cell_length_b   12.35862748
_cell_length_c   7.55821955
_cell_angle_alpha   90.00000000
_cell_angle_beta   94.21261433
_cell_angle_gamma   90.00000000
_symmetry_Int_Tables_number   1
_chemical_formula_structural   H7S2NO8
_chemical_formula_sum   'H28 S8 N4 O32'
_cell_volume   705.28667373
_cell_formula_units_Z   4
loop_
 _symmetry_equiv_pos_site_id
 _symmetry_equiv_pos_as_xyz
  1  'x, y, z'
loop_
 _atom_site_type_symbol
 _atom_site_label
 _atom_site_symmetry_multiplicity
 _atom_site_fract_x
 _atom_site_fract_y
 _atom_site_fract_z
 _atom_site_occupancy
  H  H0  1  0.66968035  0.23155243  0.68845657  1
  H  H1  1  0.33031965  0.73155243  0.81154343  1
  H  H2  1  0.33031965  0.76844757  0.31154343  1
  H  H3  1  0.66968035  0.26844757  0.18845657  1
  H  H4  1  0.95833065  0.81824990  0.17729676  1
  H  H5  1  0.04166935  0.31824990  0.32270324  1
  H  H6  1  0.04166935  0.18175010  0.82270324  1
  H  H7  1  0.95833065  0.68175010  0.67729676  1
  H  H8  1  0.83595563  0.04446414  0.14168312  1
  H  H9  1  0.16404437  0.54446414  0.35831688  1
  H  H10  1  0.16404437  0.95553586  0.85831688  1
  H  H11  1  0.83595563  0.45553586  0.64168312  1
  H  H12  1  0.64170019  0.62210752  0.03557245  1
  H  H13  1  0.35829981  0.12210752  0.46442755  1
  H  H14  1  0.35829981  0.37789248  0.96442755  1
  H  H15  1  0.64170019  0.87789248  0.53557245  1
  H  H16  1  0.83698758  0.60104113  0.15026833  1
  H  H17  1  0.16301242  0.10104113  0.34973167  1
  H  H18  1  0.16301242  0.39895887  0.84973167  1
  H  H19  1  0.83698758  0.89895887  0.65026833  1
  H  H20  1  0.67874720  0.50717092  0.14672299  1
  H  H21  1  0.32125280  0.00717092  0.35327701  1
  H  H22  1  0.32125280  0.49282908  0.85327701  1
  H  H23  1  0.67874720  0.99282908  0.64672299  1
  H  H24  1  0.65396577  0.62326811  0.25872708  1
  H  H25  1  0.34603423  0.12326811  0.24127292  1
  H  H26  1  0.34603423  0.37673189  0.74127292  1
  H  H27  1  0.65396577  0.87673189  0.75872708  1
  S  S0  1  0.80708276  0.31611892  0.90418083  1
  S  S1  1  0.19291724  0.81611892  0.59581917  1
  S  S2  1  0.19291724  0.68388108  0.09581917  1
  S  S3  1  0.80708276  0.18388108  0.40418083  1
  S  S4  1  0.70263006  0.89381252  0.14094275  1
  S  S5  1  0.29736994  0.39381252  0.35905725  1
  S  S6  1  0.29736994  0.10618748  0.85905725  1
  S  S7  1  0.70263006  0.60618748  0.64094275  1
  N  N0  1  0.70217275  0.58890523  0.14821585  1
  N  N1  1  0.29782725  0.08890523  0.35178415  1
  N  N2  1  0.29782725  0.41109477  0.85178415  1
  N  N3  1  0.70217275  0.91109477  0.64821585  1
  O  O0  1  0.91544148  0.39630263  0.81976158  1
  O  O1  1  0.08455852  0.89630263  0.68023842  1
  O  O2  1  0.08455852  0.60369737  0.18023842  1
  O  O3  1  0.91544148  0.10369737  0.31976158  1
  O  O4  1  0.73125842  0.35886197  0.06123093  1
  O  O5  1  0.26874158  0.85886197  0.43876907  1
  O  O6  1  0.26874158  0.64113803  0.93876907  1
  O  O7  1  0.73125842  0.14113803  0.56123093  1
  O  O8  1  0.90279041  0.21534934  0.94060400  1
  O  O9  1  0.09720959  0.71534934  0.55939600  1
  O  O10  1  0.09720959  0.78465066  0.05939600  1
  O  O11  1  0.90279041  0.28465066  0.44060400  1
  O  O12  1  0.64405207  0.29156442  0.77441446  1
  O  O13  1  0.35594793  0.79156442  0.72558554  1
  O  O14  1  0.35594793  0.70843558  0.22558554  1
  O  O15  1  0.64405207  0.20843558  0.27441446  1
  O  O16  1  0.64151809  0.82339761  0.99924977  1
  O  O17  1  0.35848191  0.32339761  0.50075023  1
  O  O18  1  0.35848191  0.17660239  0.00075023  1
  O  O19  1  0.64151809  0.67660239  0.49924977  1
  O  O20  1  0.58027955  0.92851885  0.26433238  1
  O  O21  1  0.41972045  0.42851885  0.23566762  1
  O  O22  1  0.41972045  0.07148115  0.73566762  1
  O  O23  1  0.58027955  0.57148115  0.76433238  1
  O  O24  1  0.85804246  0.84200797  0.25392599  1
  O  O25  1  0.14195754  0.34200797  0.24607401  1
  O  O26  1  0.14195754  0.15799203  0.74607401  1
  O  O27  1  0.85804246  0.65799203  0.75392599  1
  O  O28  1  0.78482411  0.99198559  0.04925718  1
  O  O29  1  0.21517589  0.49198559  0.45074282  1
  O  O30  1  0.21517589  0.00801441  0.95074282  1
  O  O31  1  0.78482411  0.50801441  0.54925718  1
loop_
_geom_bond_atom_site_label_1
_geom_bond_atom_site_label_2
_geom_bond_distance
_geom_bond_site_symmetry_2
H0 O12 1.014067 1_555
H0 O7 1.567310 1_555
H1 O13 1.014067 1_555
H1 O6 1.567310 1_555
H2 O14 1.014067 1_555
H2 O5 1.567310 1_555
H3 O15 1.014067 1_555
H3 O4 1.567310 1_555
H4 O24 1.030908 1_555
H4 O10 1.486511 1_655
H5 O25 1.030908 1_555
H5 O11 1.486511 1_455
H6 O26 1.030908 1_555
H6 O8 1.486511 1_455
H7 O27 1.030908 1_555
H7 O9 1.486511 1_655
H8 O28 1.009341 1_545
H8 O3 1.609543 1_555
H9 O29 1.009341 1_555
H9 O2 1.609543 1_555
H10 O30 1.009341 1_565
H10 O1 1.609543 1_555
H11 O31 1.009341 1_555
H11 O0 1.609543 1_555
H12 N0 1.022534 1_555
H13 N1 1.022534 1_555
H14 N2 1.022534 1_555
H15 N3 1.022534 1_555
H16 N0 1.030627 1_555
H17 N1 1.030627 1_555
H18 N2 1.030627 1_555
H19 N3 1.030627 1_555
H20 N0 1.025494 1_555
H21 N1 1.025494 1_555
H22 N2 1.025494 1_555
H23 N3 1.025494 1_555
H24 N0 1.027627 1_555
H25 N1 1.027627 1_555
H26 N2 1.027627 1_555
H27 N3 1.027627 1_555
O0 S0 1.462548 1_555
O1 S1 1.462548 1_555
O2 S2 1.462548 1_555
O3 S3 1.462548 1_555
O4 S0 1.455238 1_554
O5 S1 1.455238 1_555
O6 S2 1.455238 1_556
O7 S3 1.455238 1_555
O8 S0 1.456873 1_555
O9 S1 1.456873 1_555
O10 S2 1.456873 1_555
O11 S3 1.456873 1_555
O12 S0 1.549096 1_555
O13 S1 1.549096 1_555
O14 S2 1.549096 1_555
O15 S3 1.549096 1_555
O16 S4 1.430211 1_556
O17 S5 1.430211 1_555
O18 S6 1.430211 1_554
O19 S7 1.430211 1_555
O20 S4 1.427830 1_555
O21 S5 1.427830 1_555
O22 S6 1.427830 1_555
O23 S7 1.427830 1_555
O24 S4 1.541412 1_555
O25 S5 1.541412 1_555
O26 S6 1.541412 1_555
O27 S7 1.541412 1_555
O28 S4 1.550121 1_555
O29 S5 1.550121 1_555
O30 S6 1.550121 1_555
O31 S7 1.550121 1_555
