# generated using pymatgen
data_LiVCuO4
_symmetry_space_group_name_H-M   'P 1'
_cell_length_a   6.20880800
_cell_length_b   5.75156700
_cell_length_c   6.07563402
_cell_angle_alpha   118.25070577
_cell_angle_beta   120.72777452
_cell_angle_gamma   90.00000000
_symmetry_Int_Tables_number   1
_chemical_formula_structural   LiVCuO4
_chemical_formula_sum   'Li2 V2 Cu2 O8'
_cell_volume   155.68198755
_cell_formula_units_Z   2
loop_
 _symmetry_equiv_pos_site_id
 _symmetry_equiv_pos_as_xyz
  1  'x, y, z'
loop_
 _atom_site_type_symbol
 _atom_site_label
 _atom_site_symmetry_multiplicity
 _atom_site_fract_x
 _atom_site_fract_y
 _atom_site_fract_z
 _atom_site_occupancy
  Li  Li0  1  0.50000000  0.50000000  0.50000000  1
  Li  Li1  1  0.00000000  0.50000000  0.50000000  1
  V  V0  1  0.53955700  0.78955700  0.07911500  1
  V  V1  1  0.46044300  0.21044300  0.92088500  1
  Cu  Cu0  1  0.00000000  0.50000000  0.00000000  1
  Cu  Cu1  1  0.00000000  0.00000000  0.00000000  1
  O  O0  1  0.65348300  0.65615900  0.30696700  1
  O  O1  1  0.34651700  0.34384100  0.69303300  1
  O  O2  1  0.34651700  0.84919200  0.69303300  1
  O  O3  1  0.65348300  0.15080800  0.30696700  1
  O  O4  1  0.22656100  0.27211200  0.04422400  1
  O  O5  1  0.18233700  0.72788800  0.95577600  1
  O  O6  1  0.77343900  0.72788800  0.95577600  1
  O  O7  1  0.81766300  0.27211200  0.04422400  1
loop_
_geom_bond_atom_site_label_1
_geom_bond_atom_site_label_2
_geom_bond_distance
_geom_bond_site_symmetry_2
Li0 O6 2.007015 1_555
Li0 O4 2.007015 1_555
Li0 O1 2.286818 1_555
Li0 O0 2.286818 1_555
Li0 O2 2.286818 1_555
Li0 O3 2.286818 1_555
Li1 O5 2.007015 1_555
Li1 O7 2.007015 1_455
Li1 O1 2.286822 1_555
Li1 O0 2.286822 1_455
Li1 O2 2.286822 1_555
Li1 O3 2.286822 1_455
Cu0 O4 1.927704 1_555
Cu0 O7 1.927704 1_455
Cu0 O6 1.927704 1_454
Cu0 O5 1.927704 1_554
Cu1 O6 1.927704 1_444
Cu1 O5 1.927704 1_544
Cu1 O4 1.927704 1_555
Cu1 O7 1.927704 1_455
O0 V0 1.735001 1_555
O0 V1 2.223740 1_554
O1 V1 1.735001 1_555
O1 V0 2.223740 1_556
O2 V1 1.735005 1_565
O2 V0 2.223743 1_556
O3 V0 1.735005 1_545
O3 V1 2.223743 1_554
O4 V1 1.912181 1_554
O5 V0 1.912175 1_556
O6 V0 1.912181 1_556
O7 V1 1.912175 1_554
