# generated using pymatgen
data_AlBiN2
_symmetry_space_group_name_H-M   'P 1'
_cell_length_a   5.70953300
_cell_length_b   10.55840000
_cell_length_c   15.52370600
_cell_angle_alpha   90.00000000
_cell_angle_beta   90.00000000
_cell_angle_gamma   90.00000000
_symmetry_Int_Tables_number   1
_chemical_formula_structural   AlBiN2
_chemical_formula_sum   'Al16 Bi16 N32'
_cell_volume   935.82384646
_cell_formula_units_Z   16
loop_
 _symmetry_equiv_pos_site_id
 _symmetry_equiv_pos_as_xyz
  1  'x, y, z'
loop_
 _atom_site_type_symbol
 _atom_site_label
 _atom_site_symmetry_multiplicity
 _atom_site_fract_x
 _atom_site_fract_y
 _atom_site_fract_z
 _atom_site_occupancy
  Al  Al0  1  0.76563100  0.00742500  0.18619000  1
  Al  Al1  1  0.26563100  0.49257500  0.81381000  1
  Al  Al2  1  0.23436900  0.50742500  0.31381000  1
  Al  Al3  1  0.73436900  0.99257500  0.68619000  1
  Al  Al4  1  0.23436900  0.99257500  0.81381000  1
  Al  Al5  1  0.73436900  0.50742500  0.18619000  1
  Al  Al6  1  0.76563100  0.49257500  0.68619000  1
  Al  Al7  1  0.26563100  0.00742500  0.31381000  1
  Al  Al8  1  0.78645100  0.27109700  0.06304500  1
  Al  Al9  1  0.28645100  0.22890300  0.93695500  1
  Al  Al10  1  0.21354900  0.77109700  0.43695500  1
  Al  Al11  1  0.71354900  0.72890300  0.56304500  1
  Al  Al12  1  0.21354900  0.72890300  0.93695500  1
  Al  Al13  1  0.71354900  0.77109700  0.06304500  1
  Al  Al14  1  0.78645100  0.22890300  0.56304500  1
  Al  Al15  1  0.28645100  0.27109700  0.43695500  1
  Bi  Bi0  1  0.75184100  0.99539000  0.44137100  1
  Bi  Bi1  1  0.25184100  0.50461000  0.55862900  1
  Bi  Bi2  1  0.24815900  0.49539000  0.05862900  1
  Bi  Bi3  1  0.74815900  0.00461000  0.94137100  1
  Bi  Bi4  1  0.24815900  0.00461000  0.55862900  1
  Bi  Bi5  1  0.74815900  0.49539000  0.44137100  1
  Bi  Bi6  1  0.75184100  0.50461000  0.94137100  1
  Bi  Bi7  1  0.25184100  0.99539000  0.05862900  1
  Bi  Bi8  1  0.85085400  0.27024700  0.30156900  1
  Bi  Bi9  1  0.35085400  0.22975300  0.69843100  1
  Bi  Bi10  1  0.14914600  0.77024700  0.19843100  1
  Bi  Bi11  1  0.64914600  0.72975300  0.80156900  1
  Bi  Bi12  1  0.14914600  0.72975300  0.69843100  1
  Bi  Bi13  1  0.64914600  0.77024700  0.30156900  1
  Bi  Bi14  1  0.85085400  0.22975300  0.80156900  1
  Bi  Bi15  1  0.35085400  0.27024700  0.19843100  1
  N  N0  1  0.51107900  0.43847200  0.26398500  1
  N  N1  1  0.01107900  0.06152800  0.73601600  1
  N  N2  1  0.48892100  0.93847200  0.23601500  1
  N  N3  1  0.98892100  0.56152800  0.76398400  1
  N  N4  1  0.48892100  0.56152800  0.73601600  1
  N  N5  1  0.98892100  0.93847200  0.26398500  1
  N  N6  1  0.51107900  0.06152800  0.76398400  1
  N  N7  1  0.01107900  0.43847200  0.23601500  1
  N  N8  1  0.58849900  0.31352800  0.48342500  1
  N  N9  1  0.08849900  0.18647200  0.51657500  1
  N  N10  1  0.41150100  0.81352800  0.01657500  1
  N  N11  1  0.91150100  0.68647200  0.98342500  1
  N  N12  1  0.41150100  0.68647200  0.51657500  1
  N  N13  1  0.91150100  0.81352800  0.48342500  1
  N  N14  1  0.58849900  0.18647200  0.98342500  1
  N  N15  1  0.08849900  0.31352800  0.01657500  1
  N  N16  1  0.64599700  0.43640400  0.07631700  1
  N  N17  1  0.14599700  0.06359600  0.92368300  1
  N  N18  1  0.35400300  0.93640400  0.42368300  1
  N  N19  1  0.85400300  0.56359600  0.57631700  1
  N  N20  1  0.35400300  0.56359600  0.92368300  1
  N  N21  1  0.85400300  0.93640400  0.07631700  1
  N  N22  1  0.64599700  0.06359600  0.57631700  1
  N  N23  1  0.14599700  0.43640400  0.42368300  1
  N  N24  1  0.75627000  0.18552800  0.17275200  1
  N  N25  1  0.25627000  0.31447200  0.82724800  1
  N  N26  1  0.24373000  0.68552800  0.32724800  1
  N  N27  1  0.74373000  0.81447200  0.67275200  1
  N  N28  1  0.24373000  0.81447200  0.82724800  1
  N  N29  1  0.74373000  0.68552800  0.17275200  1
  N  N30  1  0.75627000  0.31447200  0.67275200  1
  N  N31  1  0.25627000  0.18552800  0.32724800  1
loop_
_geom_bond_atom_site_label_1
_geom_bond_atom_site_label_2
_geom_bond_distance
_geom_bond_site_symmetry_2
Al0 N24 1.892773 1_555
Al0 N5 1.901004 1_545
Al0 N2 1.903765 1_545
Al0 N21 1.930306 1_545
Al1 N25 1.892773 1_555
Al1 N4 1.900994 1_555
Al1 N3 1.903772 1_455
Al1 N20 1.930306 1_555
Al2 N26 1.892773 1_555
Al2 N7 1.901004 1_555
Al2 N0 1.903765 1_555
Al2 N23 1.930306 1_555
Al3 N27 1.892773 1_555
Al3 N6 1.900994 1_565
Al3 N1 1.903772 1_665
Al3 N22 1.930306 1_565
Al4 N28 1.892773 1_555
Al4 N1 1.900994 1_565
Al4 N6 1.903772 1_565
Al4 N17 1.930306 1_565
Al5 N29 1.892773 1_555
Al5 N0 1.901004 1_555
Al5 N7 1.903765 1_655
Al5 N16 1.930306 1_555
Al6 N30 1.892773 1_555
Al6 N3 1.900994 1_555
Al6 N4 1.903772 1_555
Al6 N19 1.930306 1_555
Al7 N31 1.892773 1_555
Al7 N2 1.901004 1_545
Al7 N5 1.903765 1_445
Al7 N18 1.930306 1_545
Al8 N14 1.898268 1_554
Al8 N15 1.922287 1_655
Al8 N16 1.931807 1_555
Al8 N24 1.935553 1_555
Al9 N15 1.898268 1_556
Al9 N14 1.922287 1_555
Al9 N17 1.931807 1_555
Al9 N25 1.935553 1_555
Al10 N12 1.898268 1_555
Al10 N13 1.922287 1_455
Al10 N18 1.931807 1_555
Al10 N26 1.935553 1_555
Al11 N13 1.898268 1_555
Al11 N12 1.922287 1_555
Al11 N19 1.931807 1_555
Al11 N27 1.935553 1_555
Al12 N10 1.898268 1_556
Al12 N11 1.922287 1_455
Al12 N20 1.931807 1_555
Al12 N28 1.935553 1_555
Al13 N11 1.898268 1_554
Al13 N10 1.922287 1_555
Al13 N21 1.931807 1_555
Al13 N29 1.935553 1_555
Al14 N8 1.898268 1_555
Al14 N9 1.922287 1_655
Al14 N22 1.931807 1_555
Al14 N30 1.935553 1_555
Al15 N9 1.898268 1_555
Al15 N8 1.922287 1_555
Al15 N23 1.931807 1_555
Al15 N31 1.935553 1_555
Bi0 N13 2.223564 1_555
Bi0 N22 2.296140 1_565
Bi0 N18 2.371254 1_555
Bi1 N12 2.223564 1_555
Bi1 N23 2.296140 1_555
Bi1 N19 2.371254 1_455
Bi2 N15 2.223564 1_555
Bi2 N20 2.296140 1_554
Bi2 N16 2.371254 1_555
Bi3 N14 2.223564 1_555
Bi3 N21 2.296140 1_546
Bi3 N17 2.371254 1_655
Bi4 N9 2.223564 1_555
Bi4 N18 2.296140 1_545
Bi4 N22 2.371254 1_555
Bi5 N8 2.223564 1_555
Bi5 N19 2.296140 1_555
Bi5 N23 2.371254 1_655
Bi6 N11 2.223564 1_555
Bi6 N16 2.296140 1_556
Bi6 N20 2.371254 1_555
Bi7 N10 2.223564 1_555
Bi7 N17 2.296140 1_564
Bi7 N21 2.371254 1_455
Bi8 N7 2.242166 1_655
Bi8 N24 2.256242 1_555
Bi8 N31 2.513372 1_655
Bi8 N0 2.694193 1_555
Bi9 N6 2.242159 1_555
Bi9 N25 2.256242 1_555
Bi9 N30 2.513372 1_555
Bi9 N1 2.694197 1_555
Bi10 N5 2.242166 1_455
Bi10 N26 2.256242 1_555
Bi10 N29 2.513372 1_455
Bi10 N2 2.694193 1_555
Bi11 N4 2.242159 1_555
Bi11 N27 2.256242 1_555
Bi11 N28 2.513372 1_555
Bi11 N3 2.694197 1_555
Bi12 N3 2.242159 1_455
Bi12 N28 2.256242 1_555
Bi12 N27 2.513372 1_455
Bi12 N4 2.694197 1_555
Bi13 N2 2.242166 1_555
Bi13 N29 2.256242 1_555
Bi13 N26 2.513372 1_555
Bi13 N5 2.694193 1_555
Bi14 N1 2.242159 1_655
Bi14 N30 2.256242 1_555
Bi14 N25 2.513372 1_655
Bi14 N6 2.694197 1_555
Bi15 N0 2.242166 1_555
Bi15 N31 2.256242 1_555
Bi15 N24 2.513372 1_555
Bi15 N7 2.694193 1_555
