# generated using pymatgen
data_HoAg(WO4)2
_symmetry_space_group_name_H-M   'P 1'
_cell_length_a   7.37939474
_cell_length_b   7.37939474
_cell_length_c   7.31740438
_cell_angle_alpha   65.84924228
_cell_angle_beta   65.84924228
_cell_angle_gamma   94.26370526
_symmetry_Int_Tables_number   1
_chemical_formula_structural   HoAg(WO4)2
_chemical_formula_sum   'Ho2 Ag2 W4 O16'
_cell_volume   317.47859026
_cell_formula_units_Z   2
loop_
 _symmetry_equiv_pos_site_id
 _symmetry_equiv_pos_as_xyz
  1  'x, y, z'
loop_
 _atom_site_type_symbol
 _atom_site_label
 _atom_site_symmetry_multiplicity
 _atom_site_fract_x
 _atom_site_fract_y
 _atom_site_fract_z
 _atom_site_occupancy
  Ho  Ho0  1  0.69829800  0.30170200  0.00000000  1
  Ho  Ho1  1  0.30170200  0.69829800  0.00000000  1
  Ag  Ag0  1  0.68217300  0.68217300  0.48239200  1
  Ag  Ag1  1  0.31782700  0.31782700  0.51760800  1
  W  W0  1  0.21136700  0.21136700  0.03114500  1
  W  W1  1  0.78863300  0.78863300  0.96885500  1
  W  W2  1  0.83512800  0.16487200  0.50000000  1
  W  W3  1  0.16487200  0.83512800  0.50000000  1
  O  O0  1  0.35448500  0.10267200  0.24239300  1
  O  O1  1  0.64551500  0.89732800  0.75760700  1
  O  O2  1  0.89732800  0.64551500  0.75760700  1
  O  O3  1  0.10267200  0.35448500  0.24239300  1
  O  O4  1  0.68618800  0.21960300  0.34924600  1
  O  O5  1  0.31381200  0.78039700  0.65075400  1
  O  O6  1  0.78039700  0.31381200  0.65075400  1
  O  O7  1  0.21960300  0.68618800  0.34924600  1
  O  O8  1  0.69953900  0.96058600  0.08574300  1
  O  O9  1  0.30046100  0.03941400  0.91425700  1
  O  O10  1  0.03941400  0.30046100  0.91425700  1
  O  O11  1  0.96058600  0.69953900  0.08574300  1
  O  O12  1  0.97779000  0.97779000  0.34170800  1
  O  O13  1  0.02221000  0.02221000  0.65829200  1
  O  O14  1  0.55528500  0.55528500  0.13564100  1
  O  O15  1  0.44471500  0.44471500  0.86435900  1
loop_
_geom_bond_atom_site_label_1
_geom_bond_atom_site_label_2
_geom_bond_distance
_geom_bond_site_symmetry_2
Ho0 O0 2.317777 1_555
Ho0 O2 2.317777 1_554
Ho0 O4 2.333269 1_555
Ho0 O6 2.333269 1_554
Ho0 O10 2.333658 1_654
Ho0 O8 2.333658 1_545
Ho0 O14 2.560655 1_555
Ho0 O15 2.560655 1_554
Ho1 O3 2.317777 1_555
Ho1 O1 2.317777 1_554
Ho1 O7 2.333269 1_555
Ho1 O5 2.333269 1_554
Ho1 O9 2.333658 1_564
Ho1 O11 2.333658 1_455
Ho1 O14 2.560655 1_555
Ho1 O15 2.560655 1_554
Ag0 O15 2.341207 1_555
Ag0 O12 2.488893 1_555
Ag0 O8 2.727387 1_555
Ag0 O11 2.727387 1_555
Ag0 O6 2.777693 1_555
Ag0 O5 2.777693 1_555
Ag1 O14 2.341207 1_555
Ag1 O13 2.488893 1_555
Ag1 O9 2.727387 1_555
Ag1 O10 2.727387 1_555
Ag1 O7 2.777693 1_555
Ag1 O4 2.777693 1_555
O0 W3 1.947996 1_545
O0 W0 2.143710 1_555
O1 W2 1.947996 1_565
O1 W1 2.143710 1_555
O2 W3 1.947996 1_655
O2 W1 2.143710 1_555
O3 W2 1.947996 1_455
O3 W0 2.143710 1_555
O4 W2 1.811504 1_555
O5 W3 1.811504 1_555
O6 W2 1.811504 1_555
O7 W3 1.811504 1_555
O8 W1 1.823717 1_554
O9 W0 1.823717 1_556
O10 W0 1.823717 1_556
O11 W1 1.823717 1_554
O12 W0 2.062545 1_665
O12 W2 2.209671 1_565
O12 W3 2.209671 1_655
O13 W1 2.062545 1_445
O13 W2 2.209671 1_455
O13 W3 2.209671 1_545
O14 W1 1.881381 1_554
O15 W0 1.881381 1_556
