# generated using pymatgen
data_Li4MnCo2O7
_symmetry_space_group_name_H-M   'P 1'
_cell_length_a   2.92250200
_cell_length_b   5.14941695
_cell_length_c   16.87297601
_cell_angle_alpha   92.30579847
_cell_angle_beta   94.67828477
_cell_angle_gamma   90.42392938
_symmetry_Int_Tables_number   1
_chemical_formula_structural   Li4MnCo2O7
_chemical_formula_sum   'Li8 Mn2 Co4 O14'
_cell_volume   252.85903977
_cell_formula_units_Z   2
loop_
 _symmetry_equiv_pos_site_id
 _symmetry_equiv_pos_as_xyz
  1  'x, y, z'
loop_
 _atom_site_type_symbol
 _atom_site_label
 _atom_site_symmetry_multiplicity
 _atom_site_fract_x
 _atom_site_fract_y
 _atom_site_fract_z
 _atom_site_occupancy
  Li  Li0  1  0.57948300  0.35143700  0.63718000  1
  Li  Li1  1  0.00000000  0.50000000  0.50000000  1
  Li  Li2  1  0.42051700  0.64856300  0.36282000  1
  Li  Li3  1  0.85872800  0.78235500  0.21453000  1
  Li  Li4  1  0.28709500  0.92684300  0.06810500  1
  Li  Li5  1  0.71290500  0.07315700  0.93189500  1
  Li  Li6  1  0.14127200  0.21764500  0.78547000  1
  Li  Li7  1  0.50000000  0.00000000  0.50000000  1
  Mn  Mn0  1  0.63478600  0.71588200  0.78626900  1
  Mn  Mn1  1  0.36521400  0.28411800  0.21373100  1
  Co  Co0  1  0.07098600  0.87361600  0.63424300  1
  Co  Co1  1  0.92901400  0.12638400  0.36575700  1
  Co  Co2  1  0.80883100  0.43441100  0.06636200  1
  Co  Co3  1  0.19116900  0.56558900  0.93363800  1
  O  O0  1  0.10367700  0.56311200  0.72367400  1
  O  O1  1  0.54820900  0.68518300  0.57964700  1
  O  O2  1  0.95352200  0.83946500  0.42154900  1
  O  O3  1  0.39636300  0.99793400  0.28432100  1
  O  O4  1  0.83247300  0.12533100  0.15030200  1
  O  O5  1  0.25964600  0.25489800  0.00027500  1
  O  O6  1  0.65805200  0.42436200  0.85612400  1
  O  O7  1  0.04647800  0.16053500  0.57845100  1
  O  O8  1  0.45179100  0.31481700  0.42035300  1
  O  O9  1  0.89632300  0.43688800  0.27632600  1
  O  O10  1  0.34194800  0.57563800  0.14387600  1
  O  O11  1  0.74035400  0.74510200  0.99972500  1
  O  O12  1  0.16752700  0.87466900  0.84969800  1
  O  O13  1  0.60363700  0.00206600  0.71567900  1
loop_
_geom_bond_atom_site_label_1
_geom_bond_atom_site_label_2
_geom_bond_distance
_geom_bond_site_symmetry_2
Li0 O7 1.993250 1_655
Li0 O7 2.005473 1_555
Li0 O1 2.006586 1_555
Li0 O0 2.268804 1_655
Li0 O13 2.274706 1_555
Li0 O0 2.340312 1_555
Li1 O8 2.159549 1_555
Li1 O1 2.159549 1_455
Li1 O1 2.192090 1_555
Li1 O8 2.192090 1_455
Li1 O2 2.233087 1_455
Li1 O7 2.233087 1_555
Li2 O2 1.993250 1_455
Li2 O2 2.005473 1_555
Li2 O8 2.006586 1_555
Li2 O9 2.268804 1_455
Li2 O3 2.274706 1_555
Li2 O9 2.340312 1_555
Li3 O9 2.096996 1_555
Li3 O10 2.101353 1_555
Li3 O4 2.107602 1_565
Li3 O3 2.149771 1_555
Li3 O3 2.157547 1_655
Li3 O10 2.177936 1_655
Li4 O11 2.035312 1_554
Li4 O5 2.076682 1_565
Li4 O11 2.085766 1_454
Li4 O4 2.222629 1_465
Li4 O4 2.238270 1_565
Li4 O10 2.255615 1_555
Li5 O5 2.035312 1_556
Li5 O11 2.076682 1_545
Li5 O5 2.085766 1_656
Li5 O12 2.222629 1_645
Li5 O12 2.238270 1_545
Li5 O6 2.255615 1_555
Li6 O0 2.096996 1_555
Li6 O6 2.101353 1_555
Li6 O12 2.107602 1_545
Li6 O13 2.149771 1_555
Li6 O13 2.157547 1_455
Li6 O6 2.177936 1_455
Li7 O2 2.099201 1_545
Li7 O7 2.099201 1_555
Li7 O2 2.129271 1_445
Li7 O7 2.129271 1_655
Li7 O8 2.145159 1_555
Li7 O1 2.145159 1_545
Mn0 O13 1.929816 1_565
Mn0 O6 1.943747 1_555
Mn0 O0 1.947108 1_555
Mn0 O0 1.948677 1_655
Mn0 O12 1.965515 1_555
Mn0 O12 1.969001 1_655
Mn1 O3 1.929816 1_545
Mn1 O10 1.943747 1_555
Mn1 O9 1.947108 1_555
Mn1 O9 1.948677 1_455
Mn1 O4 1.965515 1_555
Mn1 O4 1.969001 1_455
Co0 O7 1.782332 1_565
Co0 O1 1.949591 1_455
Co0 O1 1.973055 1_555
Co0 O13 2.076420 1_565
Co0 O13 2.106520 1_465
Co0 O0 2.239536 1_555
Co1 O2 1.782332 1_545
Co1 O8 1.949591 1_655
Co1 O8 1.973055 1_555
Co1 O3 2.076420 1_545
Co1 O3 2.106520 1_645
Co1 O9 2.239536 1_555
Co2 O11 1.994150 1_554
Co2 O5 2.002114 1_655
Co2 O10 2.059424 1_655
Co2 O5 2.068109 1_555
Co2 O10 2.080979 1_555
Co2 O4 2.170463 1_555
Co3 O5 1.994150 1_556
Co3 O11 2.002114 1_455
Co3 O6 2.059424 1_455
Co3 O11 2.068109 1_555
Co3 O6 2.080979 1_555
Co3 O12 2.170463 1_555
