# generated using pymatgen
data_Ti3V2Cr(PO4)6
_symmetry_space_group_name_H-M   'P 1'
_cell_length_a   8.44417432
_cell_length_b   8.44417431
_cell_length_c   8.44417422
_cell_angle_alpha   60.92592155
_cell_angle_beta   60.92592150
_cell_angle_gamma   60.92591914
_symmetry_Int_Tables_number   1
_chemical_formula_structural   Ti3V2Cr(PO4)6
_chemical_formula_sum   'Ti3 V2 Cr1 P6 O24'
_cell_volume   434.63590098
_cell_formula_units_Z   1
loop_
 _symmetry_equiv_pos_site_id
 _symmetry_equiv_pos_as_xyz
  1  'x, y, z'
loop_
 _atom_site_type_symbol
 _atom_site_label
 _atom_site_symmetry_multiplicity
 _atom_site_fract_x
 _atom_site_fract_y
 _atom_site_fract_z
 _atom_site_occupancy
  Ti  Ti0  1  0.64410768  0.64410768  0.64410768  1
  Ti  Ti1  1  0.85786537  0.85786537  0.85786537  1
  Ti  Ti2  1  0.35704419  0.35704419  0.35704419  1
  V  V0  1  0.99866500  0.99866500  0.99866500  1
  V  V1  1  0.50082005  0.50082005  0.50082005  1
  Cr  Cr0  1  0.14093244  0.14093244  0.14093244  1
  P  P0  1  0.95750611  0.25025760  0.53824079  1
  P  P1  1  0.53824079  0.95750611  0.25025760  1
  P  P2  1  0.25025760  0.53824079  0.95750611  1
  P  P3  1  0.75241629  0.45446536  0.04536700  1
  P  P4  1  0.45446536  0.04536700  0.75241629  1
  P  P5  1  0.04536700  0.75241629  0.45446536  1
  O  O0  1  0.49413995  0.11681093  0.31940340  1
  O  O1  1  0.31940340  0.49413995  0.11681093  1
  O  O2  1  0.11681093  0.31940340  0.49413995  1
  O  O3  1  0.94651681  0.09091527  0.73540277  1
  O  O4  1  0.99508574  0.18650370  0.38242997  1
  O  O5  1  0.76094449  0.41088621  0.55881472  1
  O  O6  1  0.73540277  0.94651681  0.09091527  1
  O  O7  1  0.55881472  0.76094449  0.41088621  1
  O  O8  1  0.81722737  0.61361185  0.00385228  1
  O  O9  1  0.41088621  0.55881472  0.76094449  1
  O  O10  1  0.91017443  0.25811712  0.05876047  1
  O  O11  1  0.61361185  0.00385228  0.81722737  1
  O  O12  1  0.38242997  0.99508574  0.18650370  1
  O  O13  1  0.09091527  0.73540277  0.94651681  1
  O  O14  1  0.58997823  0.44078292  0.24171564  1
  O  O15  1  0.18650370  0.38242997  0.99508574  1
  O  O16  1  0.44078292  0.24171564  0.58997823  1
  O  O17  1  0.25811712  0.05876047  0.91017443  1
  O  O18  1  0.24171564  0.58997823  0.44078292  1
  O  O19  1  0.00385228  0.81722737  0.61361185  1
  O  O20  1  0.05876047  0.91017443  0.25811712  1
  O  O21  1  0.88809654  0.68233562  0.49981769  1
  O  O22  1  0.68233562  0.49981769  0.88809654  1
  O  O23  1  0.49981769  0.88809654  0.68233562  1
loop_
_geom_bond_atom_site_label_1
_geom_bond_atom_site_label_2
_geom_bond_distance
_geom_bond_site_symmetry_2
Cr0 O12 1.919527 1_545
Cr0 O4 1.919527 1_455
Cr0 O15 1.919527 1_554
Cr0 O10 2.007565 1_455
Cr0 O17 2.007565 1_554
Cr0 O20 2.007565 1_545
O0 P1 1.534379 1_545
O0 Ti2 1.882280 1_555
O1 P2 1.534379 1_554
O1 Ti2 1.882280 1_555
O2 P0 1.534379 1_455
O2 Ti2 1.882280 1_555
O3 P0 1.544311 1_555
O3 Ti1 2.050372 1_545
O3 V0 2.162775 1_545
O4 P0 1.496046 1_555
O5 P0 1.544551 1_555
O5 Ti0 2.042077 1_555
O5 V1 2.168898 1_555
O6 P1 1.544311 1_555
O6 Ti1 2.050372 1_554
O6 V0 2.162775 1_554
O7 P1 1.544551 1_555
O7 Ti0 2.042077 1_555
O7 V1 2.168898 1_555
O8 P3 1.516191 1_555
O8 Ti1 1.922777 1_554
O9 P2 1.544551 1_555
O9 Ti0 2.042077 1_555
O9 V1 2.168898 1_555
O10 P3 1.534258 1_555
O10 V0 2.176388 1_544
O11 P4 1.516191 1_555
O11 Ti1 1.922777 1_545
O12 P1 1.496046 1_555
O13 P2 1.544311 1_555
O13 Ti1 2.050372 1_455
O13 V0 2.162775 1_455
O14 P3 1.549628 1_555
O14 Ti2 2.034219 1_555
O14 V1 2.171865 1_555
O15 P2 1.496046 1_555
O16 P4 1.549628 1_555
O16 Ti2 2.034219 1_555
O16 V1 2.171865 1_555
O17 P4 1.534258 1_555
O17 V0 2.176388 1_445
O18 P5 1.549628 1_555
O18 Ti2 2.034219 1_555
O18 V1 2.171865 1_555
O19 P5 1.516191 1_555
O19 Ti1 1.922777 1_455
O20 P5 1.534258 1_555
O20 V0 2.176388 1_454
O21 P5 1.519784 1_655
O21 Ti0 1.912572 1_555
O22 P3 1.519784 1_556
O22 Ti0 1.912572 1_555
O23 P4 1.519784 1_565
O23 Ti0 1.912572 1_555
