# generated using pymatgen
data_K2GeC6O13
_symmetry_space_group_name_H-M   'P 1'
_cell_length_a   10.02726513
_cell_length_b   10.21024942
_cell_length_c   15.54361863
_cell_angle_alpha   82.98708595
_cell_angle_beta   75.60281564
_cell_angle_gamma   60.59109370
_symmetry_Int_Tables_number   1
_chemical_formula_structural   K2GeC6O13
_chemical_formula_sum   'K8 Ge4 C24 O52'
_cell_volume   1342.76521117
_cell_formula_units_Z   4
loop_
 _symmetry_equiv_pos_site_id
 _symmetry_equiv_pos_as_xyz
  1  'x, y, z'
loop_
 _atom_site_type_symbol
 _atom_site_label
 _atom_site_symmetry_multiplicity
 _atom_site_fract_x
 _atom_site_fract_y
 _atom_site_fract_z
 _atom_site_occupancy
  K  K0  1  0.77691348  0.56028555  0.11226381  1
  K  K1  1  0.66280096  0.56028555  0.38773619  1
  K  K2  1  0.22308652  0.43971445  0.88773619  1
  K  K3  1  0.33719904  0.43971445  0.61226381  1
  K  K4  1  0.07919942  0.18145865  0.46159405  1
  K  K5  1  0.73934193  0.18145865  0.03840595  1
  K  K6  1  0.92080058  0.81854135  0.53840595  1
  K  K7  1  0.26065807  0.81854135  0.96159405  1
  Ge  Ge0  1  0.35832064  0.28335872  0.25000000  1
  Ge  Ge1  1  0.64167936  0.71664128  0.75000000  1
  Ge  Ge2  1  0.06171585  0.87656831  0.25000000  1
  Ge  Ge3  1  0.93828415  0.12343169  0.75000000  1
  C  C0  1  0.87432521  0.17261986  0.21312084  1
  C  C1  1  0.95305493  0.17261986  0.28687916  1
  C  C2  1  0.12567479  0.82738014  0.78687916  1
  C  C3  1  0.04694507  0.82738014  0.71312084  1
  C  C4  1  0.93134681  0.69183499  0.26177945  1
  C  C5  1  0.37681820  0.69183499  0.23822055  1
  C  C6  1  0.06865319  0.30816501  0.73822055  1
  C  C7  1  0.62318180  0.30816501  0.76177945  1
  C  C8  1  0.87151193  0.76982070  0.35322347  1
  C  C9  1  0.35866737  0.76982070  0.14677653  1
  C  C10  1  0.12848807  0.23017930  0.64677653  1
  C  C11  1  0.64133263  0.23017930  0.85322347  1
  C  C12  1  0.45288897  0.98577873  0.29638037  1
  C  C13  1  0.56133231  0.98577873  0.20361963  1
  C  C14  1  0.54711103  0.01422127  0.70361963  1
  C  C15  1  0.43866769  0.01422127  0.79638037  1
  C  C16  1  0.43845475  0.36521557  0.38197624  1
  C  C17  1  0.19632968  0.36521557  0.11802376  1
  C  C18  1  0.56154525  0.63478443  0.61802376  1
  C  C19  1  0.80367032  0.63478443  0.88197624  1
  C  C20  1  0.25550047  0.45381802  0.39876071  1
  C  C21  1  0.29068151  0.45381802  0.10123929  1
  C  C22  1  0.74449953  0.54618198  0.60123929  1
  C  C23  1  0.70931849  0.54618198  0.89876071  1
  O  O0  1  0.90120465  0.03734413  0.19579612  1
  O  O1  1  0.06145122  0.03734413  0.30420388  1
  O  O2  1  0.09879535  0.96265587  0.80420388  1
  O  O3  1  0.93854878  0.96265587  0.69579612  1
  O  O4  1  0.79655818  0.28749961  0.17467317  1
  O  O5  1  0.91594220  0.28749961  0.32532683  1
  O  O6  1  0.20344182  0.71250039  0.82532683  1
  O  O7  1  0.08405780  0.71250039  0.67467317  1
  O  O8  1  0.02624128  0.73237085  0.20471346  1
  O  O9  1  0.24138787  0.73237085  0.29528654  1
  O  O10  1  0.97375872  0.26762915  0.79528654  1
  O  O11  1  0.75861213  0.26762915  0.70471346  1
  O  O12  1  0.89285112  0.60153754  0.24678689  1
  O  O13  1  0.50561134  0.60153754  0.25321311  1
  O  O14  1  0.10714888  0.39846246  0.75321311  1
  O  O15  1  0.49438866  0.39846246  0.74678689  1
  O  O16  1  0.92312988  0.86553729  0.35698672  1
  O  O17  1  0.21133283  0.86553729  0.14301328  1
  O  O18  1  0.07687012  0.13446271  0.64301328  1
  O  O19  1  0.78866717  0.13446271  0.85698672  1
  O  O20  1  0.78618809  0.74384480  0.41627434  1
  O  O21  1  0.46996710  0.74384480  0.08372566  1
  O  O22  1  0.21381191  0.25615520  0.58372566  1
  O  O23  1  0.53003290  0.25615520  0.91627434  1
  O  O24  1  0.34645583  0.12208148  0.32529275  1
  O  O25  1  0.53146268  0.12208148  0.17470725  1
  O  O26  1  0.65354417  0.87791852  0.67470725  1
  O  O27  1  0.46853732  0.87791852  0.82529275  1
  O  O28  1  0.46848026  0.86947320  0.33578014  1
  O  O29  1  0.66204654  0.86947320  0.16421986  1
  O  O30  1  0.53151974  0.13052680  0.66421986  1
  O  O31  1  0.33795346  0.13052680  0.83578014  1
  O  O32  1  0.50465113  0.28427090  0.30904766  1
  O  O33  1  0.21107797  0.28427090  0.19095234  1
  O  O34  1  0.49534887  0.71572910  0.69095234  1
  O  O35  1  0.78892203  0.71572910  0.80904766  1
  O  O36  1  0.50911333  0.37233389  0.43401004  1
  O  O37  1  0.11855278  0.37233389  0.06598996  1
  O  O38  1  0.49088667  0.62766611  0.56598996  1
  O  O39  1  0.88144722  0.62766611  0.93401004  1
  O  O40  1  0.19967104  0.42679900  0.33803833  1
  O  O41  1  0.37352996  0.42679900  0.16196167  1
  O  O42  1  0.80032896  0.57320100  0.66196167  1
  O  O43  1  0.62647004  0.57320100  0.83803833  1
  O  O44  1  0.17481715  0.53738901  0.46258204  1
  O  O45  1  0.28779384  0.53738901  0.03741796  1
  O  O46  1  0.82518285  0.46261099  0.53741796  1
  O  O47  1  0.71220616  0.46261099  0.96258204  1
  O  O48  1  0.94256265  0.85448989  0.01458591  1
  O  O49  1  0.20294747  0.85448989  0.48541409  1
  O  O50  1  0.05743735  0.14551011  0.98541409  1
  O  O51  1  0.79705253  0.14551011  0.51458591  1
loop_
_geom_bond_atom_site_label_1
_geom_bond_atom_site_label_2
_geom_bond_distance
_geom_bond_site_symmetry_2
K0 O4 2.762916 1_555
K0 O12 2.793891 1_555
K0 O21 2.827238 1_555
K0 O39 2.836784 1_554
K0 O13 2.917902 1_555
K0 O29 2.921265 1_555
K0 O37 2.931044 1_655
K0 O47 2.963336 1_554
K1 O5 2.762916 1_555
K1 O13 2.793891 1_555
K1 O20 2.827237 1_555
K1 O38 2.836784 1_555
K1 O12 2.917902 1_555
K1 O28 2.921265 1_555
K1 O36 2.931044 1_555
K1 O46 2.963336 1_555
K2 O6 2.762916 1_555
K2 O14 2.793891 1_555
K2 O23 2.827238 1_555
K2 O37 2.836784 1_556
K2 O15 2.917902 1_555
K2 O31 2.921265 1_555
K2 O39 2.931044 1_455
K2 O45 2.963336 1_556
K3 O7 2.762916 1_555
K3 O15 2.793891 1_555
K3 O22 2.827237 1_555
K3 O36 2.836784 1_555
K3 O14 2.917902 1_555
K3 O30 2.921265 1_555
K3 O38 2.931044 1_555
K3 O44 2.963336 1_555
K4 O5 2.786039 1_455
K4 O18 2.798309 1_555
K4 O24 2.816450 1_555
K4 O46 2.875737 1_455
K4 O51 2.933340 1_455
K4 O22 2.940441 1_555
K4 O49 2.946236 1_545
K4 O1 3.087791 1_555
K5 O4 2.786039 1_555
K5 O19 2.798309 1_554
K5 O25 2.816450 1_555
K5 O47 2.875737 1_554
K5 O50 2.933340 1_654
K5 O23 2.940441 1_554
K5 O48 2.946236 1_545
K5 O0 3.087791 1_555
K6 O7 2.786039 1_655
K6 O16 2.798309 1_555
K6 O26 2.816450 1_555
K6 O44 2.875737 1_655
K6 O49 2.933340 1_655
K6 O20 2.940441 1_555
K6 O51 2.946236 1_565
K6 O3 3.087791 1_555
K7 O6 2.786039 1_555
K7 O17 2.798309 1_556
K7 O27 2.816450 1_555
K7 O45 2.875737 1_556
K7 O48 2.933340 1_456
K7 O21 2.940441 1_556
K7 O50 2.946236 1_565
K7 O2 3.087791 1_555
Ge0 O40 1.914940 1_555
Ge0 O41 1.914940 1_555
Ge0 O32 1.918496 1_555
Ge0 O33 1.918496 1_555
Ge0 O25 1.935960 1_555
Ge0 O24 1.935960 1_555
Ge1 O42 1.914940 1_555
Ge1 O43 1.914940 1_555
Ge1 O34 1.918496 1_555
Ge1 O35 1.918496 1_555
Ge1 O27 1.935960 1_555
Ge1 O26 1.935960 1_555
Ge2 O17 1.915205 1_555
Ge2 O16 1.915205 1_455
Ge2 O8 1.918746 1_555
Ge2 O9 1.918746 1_555
Ge2 O1 1.933109 1_565
Ge2 O0 1.933109 1_465
Ge3 O19 1.915205 1_555
Ge3 O18 1.915205 1_655
Ge3 O10 1.918746 1_555
Ge3 O11 1.918746 1_555
Ge3 O3 1.933109 1_545
Ge3 O2 1.933109 1_645
C0 O4 1.226109 1_555
C0 O0 1.319849 1_555
C1 O5 1.226108 1_555
C1 O1 1.319849 1_655
C2 O6 1.226109 1_555
C2 O2 1.319849 1_555
C3 O7 1.226108 1_555
C3 O3 1.319849 1_455
C4 O12 1.224752 1_555
C4 O8 1.319432 1_655
C5 O13 1.224752 1_555
C5 O9 1.319432 1_555
C6 O14 1.224752 1_555
C6 O10 1.319432 1_455
C7 O15 1.224752 1_555
C7 O11 1.319432 1_555
C8 O20 1.226873 1_555
C8 O16 1.323705 1_555
C9 O21 1.226873 1_555
C9 O17 1.323706 1_555
C10 O22 1.226873 1_555
C10 O18 1.323705 1_555
C11 O23 1.226873 1_555
C11 O19 1.323706 1_555
C12 O28 1.223672 1_555
C12 O24 1.316555 1_565
C13 O29 1.223672 1_555
C13 O25 1.316555 1_565
C14 O30 1.223672 1_555
C14 O26 1.316555 1_545
C15 O31 1.223672 1_555
C15 O27 1.316555 1_545
C16 O36 1.229353 1_555
C16 O32 1.313191 1_555
C17 O37 1.229353 1_555
C17 O33 1.313191 1_555
C18 O38 1.229353 1_555
C18 O34 1.313191 1_555
C19 O39 1.229353 1_555
C19 O35 1.313191 1_555
C20 O44 1.223251 1_555
C20 O40 1.326028 1_555
C21 O45 1.223251 1_555
C21 O41 1.326028 1_555
C22 O46 1.223251 1_555
C22 O42 1.326028 1_555
C23 O47 1.223251 1_555
C23 O43 1.326028 1_555
