# generated using pymatgen
data_Li3SNO3
_symmetry_space_group_name_H-M   'P 1'
_cell_length_a   4.86794300
_cell_length_b   5.39064100
_cell_length_c   6.22185800
_cell_angle_alpha   90.00000000
_cell_angle_beta   90.00000000
_cell_angle_gamma   90.00000000
_symmetry_Int_Tables_number   1
_chemical_formula_structural   Li3SNO3
_chemical_formula_sum   'Li6 S2 N2 O6'
_cell_volume   163.26984841
_cell_formula_units_Z   2
loop_
 _symmetry_equiv_pos_site_id
 _symmetry_equiv_pos_as_xyz
  1  'x, y, z'
loop_
 _atom_site_type_symbol
 _atom_site_label
 _atom_site_symmetry_multiplicity
 _atom_site_fract_x
 _atom_site_fract_y
 _atom_site_fract_z
 _atom_site_occupancy
  Li  Li0  1  0.51536200  0.85466800  0.00000000  1
  Li  Li1  1  0.01536200  0.14533200  0.50000000  1
  Li  Li2  1  0.50836000  0.32205800  0.25714300  1
  Li  Li3  1  0.50836000  0.32205800  0.74285700  1
  Li  Li4  1  0.00836000  0.67794200  0.24285700  1
  Li  Li5  1  0.00836000  0.67794200  0.75714300  1
  S  S0  1  0.50283000  0.83374900  0.50000000  1
  S  S1  1  0.00283000  0.16625100  0.00000000  1
  N  N0  1  0.59602500  0.09644700  0.50000000  1
  N  N1  1  0.09602500  0.90355300  0.00000000  1
  O  O0  1  0.68731700  0.19697700  0.00000000  1
  O  O1  1  0.18731700  0.80302300  0.50000000  1
  O  O2  1  0.59757300  0.68131200  0.30289800  1
  O  O3  1  0.59757300  0.68131200  0.69710200  1
  O  O4  1  0.09757300  0.31868800  0.19710200  1
  O  O5  1  0.09757300  0.31868800  0.80289800  1
loop_
_geom_bond_atom_site_label_1
_geom_bond_atom_site_label_2
_geom_bond_distance
_geom_bond_site_symmetry_2
Li0 O0 2.026249 1_565
Li0 N1 2.058248 1_555
Li0 O2 2.141290 1_555
Li0 O3 2.141290 1_554
Li1 O1 2.026249 1_545
Li1 N0 2.058248 1_455
Li1 O5 2.141290 1_555
Li1 O4 2.141290 1_555
Li2 O0 1.942484 1_555
Li2 N0 1.986055 1_555
Li2 O2 2.005019 1_555
Li2 O4 2.034363 1_555
Li3 O0 1.942484 1_556
Li3 N0 1.986055 1_555
Li3 O3 2.005019 1_555
Li3 O5 2.034363 1_555
Li4 O1 1.942484 1_555
Li4 N1 1.986055 1_555
Li4 O4 2.005019 1_555
Li4 O2 2.034363 1_455
Li5 O1 1.942484 1_555
Li5 N1 1.986055 1_556
Li5 O5 2.005019 1_555
Li5 O3 2.034363 1_455
N0 S0 1.487005 1_545
N1 S1 1.487005 1_565
O0 S1 1.544804 1_655
O1 S0 1.544804 1_555
O2 S0 1.546566 1_555
O3 S0 1.546566 1_555
O4 S1 1.546566 1_555
O5 S1 1.546566 1_556
