# generated using pymatgen
data_AcNd3
_symmetry_space_group_name_H-M   'P 1'
_cell_length_a   7.67225798
_cell_length_b   7.67225538
_cell_length_c   6.01909323
_cell_angle_alpha   90.00000000
_cell_angle_beta   90.00000000
_cell_angle_gamma   120.00000964
_symmetry_Int_Tables_number   1
_chemical_formula_structural   AcNd3
_chemical_formula_sum   'Ac2 Nd6'
_cell_volume   306.83712683
_cell_formula_units_Z   2
loop_
 _symmetry_equiv_pos_site_id
 _symmetry_equiv_pos_as_xyz
  1  'x, y, z'
loop_
 _atom_site_type_symbol
 _atom_site_label
 _atom_site_symmetry_multiplicity
 _atom_site_fract_x
 _atom_site_fract_y
 _atom_site_fract_z
 _atom_site_occupancy
  Ac  Ac0  1  0.33333806  0.66667599  0.75000000  1
  Ac  Ac1  1  0.66667339  0.33334184  0.25000000  1
  Nd  Nd0  1  0.16364597  0.32729766  0.25000000  1
  Nd  Nd1  1  0.67270280  0.83634886  0.25000000  1
  Nd  Nd2  1  0.16364473  0.83634455  0.25000000  1
  Nd  Nd3  1  0.83634795  0.67270017  0.75000000  1
  Nd  Nd4  1  0.32730090  0.16364778  0.75000000  1
  Nd  Nd5  1  0.83634621  0.16364415  0.75000000  1
loop_
_geom_bond_atom_site_label_1
_geom_bond_atom_site_label_2
_geom_bond_distance
_geom_bond_site_symmetry_2
Ac0 Nd2 3.760545 1_556
Ac0 Nd2 3.760545 1_555
Ac0 Nd1 3.760557 1_556
Ac0 Nd1 3.760557 1_555
Ac0 Nd0 3.760610 1_555
Ac0 Nd0 3.760610 1_556
Ac0 Nd5 3.836247 1_565
Ac0 Nd4 3.836264 1_565
Ac0 Nd3 3.836321 1_555
Ac0 Nd3 3.836355 1_455
Ac0 Nd4 3.836411 1_555
Ac0 Nd5 3.836429 1_455
Ac1 Nd3 3.760531 1_554
Ac1 Nd3 3.760531 1_555
Ac1 Nd5 3.760580 1_554
Ac1 Nd5 3.760580 1_555
Ac1 Nd4 3.760587 1_555
Ac1 Nd4 3.760587 1_554
Ac1 Nd2 3.836238 1_655
Ac1 Nd1 3.836278 1_555
Ac1 Nd0 3.836298 1_655
Ac1 Nd0 3.836380 1_555
Ac1 Nd1 3.836396 1_545
Ac1 Nd2 3.836437 1_545
Nd0 Nd5 3.713044 1_455
Nd0 Nd5 3.713044 1_454
Nd0 Nd4 3.713063 1_555
Nd0 Nd4 3.713063 1_554
Nd0 Nd1 3.766663 1_445
Nd0 Nd2 3.766713 1_545
Nd0 Nd2 3.905542 1_555
Nd0 Nd1 3.905592 1_555
Nd1 Nd3 3.713021 1_555
Nd1 Nd3 3.713021 1_554
Nd1 Nd5 3.713026 1_565
Nd1 Nd5 3.713026 1_564
Nd1 Nd2 3.766650 1_655
Nd1 Nd2 3.905608 1_555
Nd2 Nd3 3.713032 1_454
Nd2 Nd3 3.713032 1_455
Nd2 Nd4 3.713057 1_565
Nd2 Nd4 3.713057 1_564
Nd3 Nd5 3.766654 1_565
Nd3 Nd4 3.766696 1_665
Nd3 Nd4 3.905560 1_555
Nd3 Nd5 3.905601 1_555
Nd4 Nd5 3.766717 1_455
Nd4 Nd5 3.905541 1_555
