# generated using pymatgen
data_Li7Mn2(CoO4)3
_symmetry_space_group_name_H-M   'P 1'
_cell_length_a   2.88675334
_cell_length_b   14.53774752
_cell_length_c   5.14048557
_cell_angle_alpha   90.48292505
_cell_angle_beta   88.96017601
_cell_angle_gamma   90.82595606
_symmetry_Int_Tables_number   1
_chemical_formula_structural   Li7Mn2(CoO4)3
_chemical_formula_sum   'Li7 Mn2 Co3 O12'
_cell_volume   215.66506499
_cell_formula_units_Z   1
loop_
 _symmetry_equiv_pos_site_id
 _symmetry_equiv_pos_as_xyz
  1  'x, y, z'
loop_
 _atom_site_type_symbol
 _atom_site_label
 _atom_site_symmetry_multiplicity
 _atom_site_fract_x
 _atom_site_fract_y
 _atom_site_fract_z
 _atom_site_occupancy
  Li  Li0  1  0.99839900  0.15248100  0.64614000  1
  Li  Li1  1  0.49949900  0.50625800  0.49654200  1
  Li  Li2  1  0.00371900  0.84276900  0.35112100  1
  Li  Li3  1  0.51020400  0.15567900  0.16781600  1
  Li  Li4  1  0.00071900  0.50394200  0.00265800  1
  Li  Li5  1  0.49178700  0.83791500  0.83514600  1
  Li  Li6  1  0.49896600  0.99955800  0.49802300  1
  Mn  Mn0  1  0.99899800  0.99956400  0.99971800  1
  Mn  Mn1  1  0.50105700  0.33323600  0.83268600  1
  Co  Co0  1  0.99963000  0.66806000  0.66727000  1
  Co  Co1  1  0.00191500  0.33268000  0.33306900  1
  Co  Co2  1  0.49968600  0.66786200  0.16742200  1
  O  O0  1  0.50513300  0.07414500  0.84951000  1
  O  O1  1  0.01127400  0.40773800  0.68508500  1
  O  O2  1  0.48375000  0.74351800  0.50719700  1
  O  O3  1  0.99893500  0.07906300  0.30374600  1
  O  O4  1  0.49838900  0.40839900  0.14803400  1
  O  O5  1  0.98076200  0.74143000  0.01008900  1
  O  O6  1  0.50550700  0.25886500  0.52033800  1
  O  O7  1  0.01496600  0.58803200  0.32784300  1
  O  O8  1  0.49200500  0.92597000  0.15015400  1
  O  O9  1  0.99159100  0.26120100  0.97916300  1
  O  O10  1  0.51243300  0.58936100  0.82447500  1
  O  O11  1  0.00067600  0.92227300  0.69675400  1
loop_
_geom_bond_atom_site_label_1
_geom_bond_atom_site_label_2
_geom_bond_distance
_geom_bond_site_symmetry_2
Li0 O3 2.050691 1_555
Li0 O0 2.082480 1_555
Li0 O0 2.157143 1_655
Li0 O6 2.206884 1_655
Li0 O6 2.224487 1_555
Li0 O9 2.320166 1_555
Li1 O7 2.056958 1_555
Li1 O10 2.066235 1_555
Li1 O7 2.073418 1_655
Li1 O1 2.211947 1_555
Li1 O4 2.278273 1_555
Li1 O1 2.304281 1_655
Li2 O8 2.106223 1_555
Li2 O11 2.111355 1_555
Li2 O2 2.182516 1_555
Li2 O8 2.200071 1_455
Li2 O2 2.211797 1_455
Li2 O5 2.281655 1_455
Li3 O3 1.952829 1_555
Li3 O3 1.958430 1_455
Li3 O0 2.012506 1_554
Li3 O9 2.267066 1_554
Li3 O6 2.342683 1_555
Li3 O9 2.383083 1_454
Li4 O7 2.063255 1_555
Li4 O10 2.116673 1_554
Li4 O10 2.117637 1_454
Li4 O4 2.123823 1_455
Li4 O1 2.140772 1_554
Li4 O4 2.160020 1_555
Li5 O11 2.023115 1_655
Li5 O11 2.030135 1_555
Li5 O8 2.055698 1_556
Li5 O2 2.165013 1_555
Li5 O5 2.205879 1_456
Li5 O5 2.212039 1_556
Li6 O11 2.072319 1_555
Li6 O8 2.076303 1_555
Li6 O3 2.082166 1_565
Li6 O0 2.099582 1_565
Li6 O11 2.126864 1_655
Li6 O3 2.129967 1_465
Mn0 O11 1.912696 1_655
Mn0 O3 1.935918 1_566
Mn0 O8 1.952543 1_556
Mn0 O0 1.958073 1_665
Mn0 O8 1.966200 1_656
Mn0 O0 1.975585 1_565
Mn1 O6 1.928091 1_555
Mn1 O9 1.937860 1_455
Mn1 O9 1.939995 1_555
Mn1 O4 1.947245 1_556
Mn1 O1 1.960810 1_555
Mn1 O1 1.960975 1_655
Co0 O2 1.939808 1_655
Co0 O10 1.966717 1_555
Co0 O2 2.050618 1_555
Co0 O5 2.052493 1_556
Co0 O10 2.064279 1_655
Co0 O7 2.089110 1_655
Co1 O6 2.013647 1_455
Co1 O4 2.023164 1_555
Co1 O6 2.074804 1_555
Co1 O4 2.084042 1_455
Co1 O9 2.087961 1_454
Co1 O1 2.105574 1_555
Co2 O5 1.912480 1_555
Co2 O7 1.977951 1_555
Co2 O5 2.036352 1_455
Co2 O2 2.056362 1_555
Co2 O7 2.085652 1_655
Co2 O10 2.092024 1_554
