# generated using pymatgen
data_NdSn3Ru
_symmetry_space_group_name_H-M   'P 1'
_cell_length_a   9.75674486
_cell_length_b   9.75662974
_cell_length_c   9.75657992
_cell_angle_alpha   90.00019050
_cell_angle_beta   90.00017118
_cell_angle_gamma   89.99977737
_symmetry_Int_Tables_number   1
_chemical_formula_structural   NdSn3Ru
_chemical_formula_sum   'Nd8 Sn24 Ru8'
_cell_volume   928.75759587
_cell_formula_units_Z   8
loop_
 _symmetry_equiv_pos_site_id
 _symmetry_equiv_pos_as_xyz
  1  'x, y, z'
loop_
 _atom_site_type_symbol
 _atom_site_label
 _atom_site_symmetry_multiplicity
 _atom_site_fract_x
 _atom_site_fract_y
 _atom_site_fract_z
 _atom_site_occupancy
  Nd  Nd0  1  -0.00000053  0.50000862  0.75000507  1
  Nd  Nd1  1  0.50000131  0.25000241  0.00000117  1
  Nd  Nd2  1  0.75000090  -0.00000361  0.50000148  1
  Nd  Nd3  1  0.00000258  0.50000561  0.24999531  1
  Nd  Nd4  1  0.49999363  0.74999734  -0.00000101  1
  Nd  Nd5  1  0.24999877  0.99998777  0.49999892  1
  Nd  Nd6  1  0.49999321  0.50002199  0.50000137  1
  Nd  Nd7  1  0.00000668  0.99997781  -0.00000141  1
  Sn  Sn0  1  0.81536039  0.34356742  0.50000117  1
  Sn  Sn1  1  0.65643132  0.49998485  0.81535462  1
  Sn  Sn2  1  0.50001263  0.18463518  0.65643737  1
  Sn  Sn3  1  0.18464636  0.65643421  0.50000110  1
  Sn  Sn4  1  0.34356412  0.49999339  0.18464269  1
  Sn  Sn5  1  0.49999673  0.81533847  0.34357163  1
  Sn  Sn6  1  0.81535865  0.65643354  0.50000110  1
  Sn  Sn7  1  0.65643428  0.49998203  0.18464326  1
  Sn  Sn8  1  0.18465425  0.34356946  0.49999254  1
  Sn  Sn9  1  0.34356673  0.50000085  0.81535474  1
  Sn  Sn10  1  0.49999873  0.81533829  0.65642970  1
  Sn  Sn11  1  0.50000618  0.18463467  0.34356279  1
  Sn  Sn12  1  0.31534519  -0.00000052  0.84356856  1
  Sn  Sn13  1  0.15643506  0.31536324  0.00000344  1
  Sn  Sn14  1  -0.00000930  0.15642902  0.68464741  1
  Sn  Sn15  1  0.68464347  0.00001859  0.15643282  1
  Sn  Sn16  1  0.84357179  0.68466280  -0.00000049  1
  Sn  Sn17  1  0.00000388  0.84356597  0.31535504  1
  Sn  Sn18  1  0.31534811  0.00000416  0.15643159  1
  Sn  Sn19  1  0.15643129  0.68466127  0.00000047  1
  Sn  Sn20  1  0.68464307  0.00001802  0.84356551  1
  Sn  Sn21  1  0.84356001  0.31536721  -0.00000184  1
  Sn  Sn22  1  -0.00000143  0.15643122  0.31535563  1
  Sn  Sn23  1  0.00000178  0.84356696  0.68464742  1
  Ru  Ru0  1  0.74998737  0.24999517  0.75000797  1
  Ru  Ru1  1  0.24998895  0.74999505  0.25000608  1
  Ru  Ru2  1  0.75001242  0.75000021  0.25001296  1
  Ru  Ru3  1  0.25001065  0.25000437  0.75001596  1
  Ru  Ru4  1  0.24999234  0.74999673  0.74999571  1
  Ru  Ru5  1  0.74998936  0.24999807  0.24999126  1
  Ru  Ru6  1  0.25000741  0.25000726  0.24998416  1
  Ru  Ru7  1  0.75001065  0.75000191  0.74998772  1
loop_
_geom_bond_atom_site_label_1
_geom_bond_atom_site_label_2
_geom_bond_distance
_geom_bond_site_symmetry_2
Nd0 Sn6 3.394731 1_455
Nd0 Sn21 3.394732 1_456
Nd0 Sn16 3.394741 1_456
Nd0 Sn19 3.394758 1_556
Nd0 Sn13 3.394760 1_556
Nd0 Sn3 3.394779 1_555
Nd0 Sn0 3.394792 1_455
Nd0 Sn8 3.394926 1_555
Nd0 Sn23 3.412088 1_555
Nd0 Sn9 3.412194 1_555
Nd0 Sn1 3.412206 1_455
Nd0 Sn14 3.412288 1_555
Nd0 Ru7 3.449380 1_455
Nd0 Ru4 3.449385 1_555
Nd0 Ru3 3.449610 1_555
Nd0 Ru0 3.449693 1_455
Nd1 Sn7 3.394604 1_555
Nd1 Sn15 3.394631 1_555
Nd1 Sn1 3.394647 1_554
Nd1 Sn20 3.394648 1_554
Nd1 Sn4 3.394695 1_555
Nd1 Sn9 3.394765 1_554
Nd1 Sn18 3.394799 1_555
Nd1 Sn12 3.394844 1_554
Nd1 Sn11 3.412122 1_555
Nd1 Sn2 3.412138 1_554
Nd1 Sn21 3.412145 1_555
Nd1 Sn13 3.412205 1_555
Nd1 Ru3 3.449329 1_554
Nd1 Ru5 3.449345 1_555
Nd1 Ru6 3.449347 1_555
Nd1 Ru0 3.449363 1_554
Nd2 Sn2 3.394672 1_555
Nd2 Sn14 3.394706 1_655
Nd2 Sn11 3.394726 1_555
Nd2 Sn23 3.394767 1_645
Nd2 Sn22 3.394784 1_655
Nd2 Sn17 3.394791 1_645
Nd2 Sn10 3.394851 1_545
Nd2 Sn5 3.394860 1_545
Nd2 Sn20 3.412128 1_555
Nd2 Sn6 3.412129 1_545
Nd2 Sn15 3.412168 1_555
Nd2 Sn0 3.412216 1_555
Nd2 Ru7 3.449353 1_545
Nd2 Ru2 3.449369 1_545
Nd2 Ru0 3.449511 1_555
Nd2 Ru5 3.449569 1_555
Nd3 Sn13 3.394683 1_555
Nd3 Sn21 3.394744 1_455
Nd3 Sn19 3.394771 1_555
Nd3 Sn6 3.394773 1_455
Nd3 Sn3 3.394774 1_555
Nd3 Sn16 3.394782 1_455
Nd3 Sn8 3.394789 1_555
Nd3 Sn0 3.394824 1_455
Nd3 Sn17 3.412107 1_555
Nd3 Sn4 3.412148 1_555
Nd3 Sn7 3.412208 1_455
Nd3 Sn22 3.412247 1_555
Nd3 Ru1 3.449350 1_555
Nd3 Ru2 3.449398 1_455
Nd3 Ru6 3.449525 1_555
Nd3 Ru5 3.449660 1_455
Nd4 Sn9 3.394707 1_554
Nd4 Sn4 3.394781 1_555
Nd4 Sn12 3.394787 1_564
Nd4 Sn18 3.394812 1_565
Nd4 Sn1 3.394863 1_554
Nd4 Sn7 3.394899 1_555
Nd4 Sn15 3.394946 1_565
Nd4 Sn20 3.394950 1_564
Nd4 Sn19 3.412127 1_555
Nd4 Sn10 3.412147 1_554
Nd4 Sn5 3.412175 1_555
Nd4 Sn16 3.412271 1_555
Nd4 Ru4 3.449527 1_554
Nd4 Ru1 3.449587 1_555
Nd4 Ru7 3.449701 1_554
Nd4 Ru2 3.449722 1_555
Nd5 Sn17 3.394684 1_555
Nd5 Sn23 3.394731 1_555
Nd5 Sn5 3.394757 1_555
Nd5 Sn10 3.394786 1_555
Nd5 Sn22 3.394810 1_565
Nd5 Sn11 3.394865 1_565
Nd5 Sn14 3.394885 1_565
Nd5 Sn2 3.394911 1_565
Nd5 Sn3 3.412035 1_555
Nd5 Sn18 3.412144 1_565
Nd5 Sn12 3.412157 1_565
Nd5 Sn8 3.412286 1_565
Nd5 Ru1 3.449375 1_555
Nd5 Ru4 3.449402 1_555
Nd5 Ru3 3.449707 1_565
Nd5 Ru6 3.449723 1_565
Nd6 Sn10 3.434190 1_555
Nd6 Sn5 3.434207 1_555
Nd6 Sn3 3.434422 1_555
Nd6 Sn9 3.434512 1_555
Nd6 Sn8 3.434539 1_555
Nd6 Sn1 3.434553 1_555
Nd6 Sn4 3.434561 1_555
Nd6 Sn6 3.434592 1_555
Nd6 Sn7 3.434616 1_555
Nd6 Sn0 3.434783 1_555
Nd6 Sn2 3.434848 1_555
Nd6 Sn11 3.434855 1_555
Nd7 Sn19 3.434186 1_555
Nd7 Sn16 3.434228 1_455
Nd7 Sn23 3.434408 1_554
Nd7 Sn12 3.434432 1_564
Nd7 Sn18 3.434463 1_565
Nd7 Sn17 3.434468 1_555
Nd7 Sn14 3.434592 1_564
Nd7 Sn22 3.434644 1_565
Nd7 Sn20 3.434657 1_464
Nd7 Sn15 3.434666 1_465
Nd7 Sn13 3.434815 1_565
Nd7 Sn21 3.434919 1_465
Sn0 Sn6 3.052519 1_555
Sn0 Sn14 3.134348 1_655
Sn0 Sn22 3.134375 1_655
Sn1 Sn9 3.052540 1_555
Sn1 Sn21 3.134207 1_556
Sn1 Sn16 3.134621 1_556
Sn2 Sn20 3.134127 1_555
Sn3 Sn8 3.052506 1_555
Sn4 Sn7 3.052594 1_555
Sn10 Sn5 3.052425 1_555
Sn10 Sn12 3.134564 1_565
Sn10 Sn20 3.134601 1_565
Sn11 Sn2 3.052586 1_555
Sn11 Sn15 3.134169 1_555
Sn11 Sn18 3.134375 1_555
Sn12 Sn18 3.052473 1_556
Sn12 Sn2 3.134470 1_555
Sn13 Sn21 3.052642 1_455
Sn13 Sn4 3.134256 1_555
Sn13 Sn9 3.134379 1_554
Sn14 Sn23 3.052479 1_545
Sn14 Sn8 3.134609 1_555
Sn15 Sn20 3.052515 1_554
Sn15 Sn5 3.134647 1_545
Sn16 Sn19 3.052490 1_655
Sn16 Sn7 3.134627 1_555
Sn17 Sn22 3.052510 1_565
Sn17 Sn3 3.134377 1_555
Sn17 Sn6 3.134411 1_455
Sn18 Sn5 3.134569 1_545
Sn19 Sn9 3.134497 1_554
Sn19 Sn4 3.134505 1_555
Sn21 Sn7 3.134182 1_555
Sn22 Sn8 3.134438 1_555
Sn23 Sn6 3.134393 1_455
Sn23 Sn3 3.134396 1_555
Ru0 Sn20 2.681064 1_555
Ru0 Sn2 2.681140 1_555
Ru0 Sn1 2.681169 1_555
Ru0 Sn21 2.681277 1_556
Ru0 Sn14 2.681380 1_655
Ru0 Sn0 2.681433 1_555
Ru1 Sn17 2.681207 1_555
Ru1 Sn3 2.681220 1_555
Ru1 Sn19 2.681276 1_555
Ru1 Sn4 2.681377 1_555
Ru1 Sn5 2.681378 1_555
Ru1 Sn18 2.681439 1_565
Ru2 Sn6 2.681181 1_555
Ru2 Sn17 2.681234 1_655
Ru2 Sn16 2.681363 1_555
Ru2 Sn5 2.681414 1_555
Ru2 Sn7 2.681553 1_555
Ru2 Sn15 2.681557 1_565
Ru3 Sn9 2.681216 1_555
Ru3 Sn13 2.681236 1_556
Ru3 Sn12 2.681266 1_555
Ru3 Sn2 2.681431 1_555
Ru3 Sn8 2.681513 1_555
Ru3 Sn14 2.681580 1_555
Ru4 Sn3 2.681221 1_555
Ru4 Sn23 2.681250 1_555
Ru4 Sn19 2.681292 1_556
Ru4 Sn9 2.681316 1_555
Ru4 Sn12 2.681355 1_565
Ru4 Sn10 2.681370 1_555
Ru5 Sn15 2.681085 1_555
Ru5 Sn7 2.681120 1_555
Ru5 Sn11 2.681233 1_555
Ru5 Sn21 2.681299 1_555
Ru5 Sn0 2.681437 1_555
Ru5 Sn22 2.681442 1_655
Ru6 Sn4 2.681137 1_555
Ru6 Sn13 2.681157 1_555
Ru6 Sn18 2.681260 1_555
Ru6 Sn8 2.681360 1_555
Ru6 Sn11 2.681407 1_555
Ru6 Sn22 2.681495 1_555
Ru7 Sn6 2.681176 1_555
Ru7 Sn23 2.681229 1_655
Ru7 Sn16 2.681357 1_556
Ru7 Sn10 2.681371 1_555
Ru7 Sn20 2.681521 1_565
Ru7 Sn1 2.681546 1_555
