# generated using pymatgen
data_LiCr2P2O9
_symmetry_space_group_name_H-M   'P 1'
_cell_length_a   6.32555000
_cell_length_b   7.60937100
_cell_length_c   13.89254400
_cell_angle_alpha   90.00000000
_cell_angle_beta   90.00000000
_cell_angle_gamma   90.00000000
_symmetry_Int_Tables_number   1
_chemical_formula_structural   LiCr2P2O9
_chemical_formula_sum   'Li4 Cr8 P8 O36'
_cell_volume   668.69616548
_cell_formula_units_Z   4
loop_
 _symmetry_equiv_pos_site_id
 _symmetry_equiv_pos_as_xyz
  1  'x, y, z'
loop_
 _atom_site_type_symbol
 _atom_site_label
 _atom_site_symmetry_multiplicity
 _atom_site_fract_x
 _atom_site_fract_y
 _atom_site_fract_z
 _atom_site_occupancy
  Li  Li0  1  0.75000000  0.94651600  0.77064700  1
  Li  Li1  1  0.75000000  0.55348400  0.27064700  1
  Li  Li2  1  0.25000100  0.44651500  0.72935300  1
  Li  Li3  1  0.25000100  0.05348400  0.22935300  1
  Cr  Cr0  1  0.75000000  0.35136100  0.88155300  1
  Cr  Cr1  1  0.25000100  0.64863900  0.11844700  1
  Cr  Cr2  1  0.25000100  0.85136100  0.61844700  1
  Cr  Cr3  1  0.75000000  0.14863900  0.38155300  1
  Cr  Cr4  1  0.50000000  0.00000000  0.00000000  1
  Cr  Cr5  1  0.50000000  0.50000000  0.50000000  1
  Cr  Cr6  1  0.00000000  0.50000000  0.50000000  1
  Cr  Cr7  1  0.00000000  0.00000000  0.00000000  1
  P  P0  1  0.25000100  0.35140200  0.93532100  1
  P  P1  1  0.75000000  0.64859800  0.06468000  1
  P  P2  1  0.75000000  0.85140200  0.56467900  1
  P  P3  1  0.25000100  0.14859900  0.43532100  1
  P  P4  1  0.75000000  0.39071700  0.69397400  1
  P  P5  1  0.75000000  0.10928300  0.19397400  1
  P  P6  1  0.25000100  0.89071700  0.80602600  1
  P  P7  1  0.25000100  0.60928200  0.30602600  1
  O  O0  1  0.04566000  0.59388200  0.36699100  1
  O  O1  1  0.54565900  0.40611700  0.63300900  1
  O  O2  1  0.95434000  0.09388200  0.13300900  1
  O  O3  1  0.45434000  0.90611800  0.86699100  1
  O  O4  1  0.95434000  0.40611700  0.63300900  1
  O  O5  1  0.45434000  0.59388200  0.36699100  1
  O  O6  1  0.04566000  0.90611800  0.86699100  1
  O  O7  1  0.54565900  0.09388200  0.13300900  1
  O  O8  1  0.25000100  0.33489800  0.48512000  1
  O  O9  1  0.75000000  0.66510300  0.51488000  1
  O  O10  1  0.75000000  0.83489700  0.01487900  1
  O  O11  1  0.25000100  0.16510300  0.98512000  1
  O  O12  1  0.75000000  0.14417900  0.95140600  1
  O  O13  1  0.25000100  0.85582100  0.04859300  1
  O  O14  1  0.25000100  0.64417900  0.54859300  1
  O  O15  1  0.75000000  0.35582200  0.45140700  1
  O  O16  1  0.75000000  0.21701100  0.75522400  1
  O  O17  1  0.25000100  0.78298900  0.24477700  1
  O  O18  1  0.25000100  0.71701100  0.74477600  1
  O  O19  1  0.75000000  0.28299000  0.25522300  1
  O  O20  1  0.44064900  0.13588200  0.36814800  1
  O  O21  1  0.94064900  0.86411800  0.63185200  1
  O  O22  1  0.55935100  0.63588100  0.13185200  1
  O  O23  1  0.05935100  0.36411800  0.86814800  1
  O  O24  1  0.55935100  0.86411800  0.63185200  1
  O  O25  1  0.05935100  0.13588200  0.36814800  1
  O  O26  1  0.44064900  0.36411800  0.86814800  1
  O  O27  1  0.94064900  0.63588100  0.13185200  1
  O  O28  1  0.75000000  0.51141200  0.98480200  1
  O  O29  1  0.25000100  0.02836200  0.72285900  1
  O  O30  1  0.25000100  0.47163700  0.22285900  1
  O  O31  1  0.75000000  0.52836200  0.77714100  1
  O  O32  1  0.75000000  0.98858800  0.48480200  1
  O  O33  1  0.25000100  0.01141200  0.51519800  1
  O  O34  1  0.25000100  0.48858700  0.01519700  1
  O  O35  1  0.75000000  0.97163800  0.27714100  1
loop_
_geom_bond_atom_site_label_1
_geom_bond_atom_site_label_2
_geom_bond_distance
_geom_bond_site_symmetry_2
Li0 O16 2.069419 1_565
Li0 O3 2.320275 1_555
Li0 O6 2.320275 1_655
Li0 O24 2.359127 1_555
Li0 O21 2.359127 1_555
Li1 O19 2.069413 1_555
Li1 O5 2.320275 1_555
Li1 O0 2.320275 1_655
Li1 O22 2.359125 1_555
Li1 O27 2.359125 1_555
Li2 O18 2.069427 1_555
Li2 O1 2.320264 1_555
Li2 O4 2.320280 1_455
Li2 O26 2.359122 1_555
Li2 O23 2.359128 1_555
Li3 O17 2.069420 1_545
Li3 O7 2.320264 1_555
Li3 O2 2.320280 1_455
Li3 O20 2.359124 1_555
Li3 O25 2.359130 1_555
Cr0 O12 1.851263 1_555
Cr0 O28 1.881682 1_555
Cr0 O23 1.968052 1_655
Cr0 O26 1.968052 1_555
Cr0 O31 1.979429 1_555
Cr0 O16 2.031076 1_555
Cr1 O13 1.851271 1_555
Cr1 O34 1.881698 1_555
Cr1 O22 1.968047 1_555
Cr1 O27 1.968059 1_455
Cr1 O30 1.979434 1_555
Cr1 O17 2.031088 1_555
Cr2 O14 1.851271 1_555
Cr2 O33 1.881682 1_565
Cr2 O24 1.968046 1_555
Cr2 O21 1.968059 1_455
Cr2 O29 1.979429 1_565
Cr2 O18 2.031076 1_555
Cr3 O15 1.851277 1_555
Cr3 O32 1.881682 1_545
Cr3 O25 1.968052 1_655
Cr3 O20 1.968052 1_555
Cr3 O35 1.979429 1_545
Cr3 O19 2.031092 1_555
Cr4 O7 2.002061 1_555
Cr4 O3 2.002062 1_544
Cr4 O11 2.030238 1_554
Cr4 O10 2.030241 1_545
Cr4 O13 2.039645 1_545
Cr4 O12 2.039655 1_554
Cr5 O5 2.002062 1_555
Cr5 O1 2.002063 1_555
Cr5 O8 2.030233 1_555
Cr5 O9 2.030243 1_555
Cr5 O14 2.039645 1_555
Cr5 O15 2.039646 1_555
Cr6 O0 2.002062 1_555
Cr6 O4 2.002064 1_455
Cr6 O9 2.030243 1_455
Cr6 O8 2.030243 1_555
Cr6 O15 2.039646 1_455
Cr6 O14 2.039655 1_555
Cr7 O2 2.002062 1_455
Cr7 O6 2.002062 1_544
Cr7 O10 2.030241 1_445
Cr7 O11 2.030248 1_554
Cr7 O12 2.039655 1_454
Cr7 O13 2.039655 1_545
O0 P7 1.549776 1_555
O1 P4 1.549776 1_555
O2 P5 1.549772 1_555
O3 P6 1.549766 1_555
O4 P4 1.549771 1_555
O5 P7 1.549766 1_555
O6 P6 1.549777 1_555
O7 P5 1.549777 1_555
O8 P3 1.577427 1_555
O9 P2 1.577427 1_555
O10 P1 1.577439 1_555
O11 P0 1.577427 1_555
O16 P4 1.572005 1_555
O17 P7 1.572004 1_555
O18 P6 1.572005 1_555
O19 P5 1.572004 1_555
O20 P3 1.527926 1_555
O21 P2 1.527930 1_555
O22 P1 1.527922 1_555
O23 P0 1.527935 1_555
O24 P2 1.527930 1_555
O25 P3 1.527936 1_555
O26 P0 1.527925 1_555
O27 P1 1.527922 1_555
O28 P1 1.523542 1_556
O29 P6 1.559481 1_545
O30 P7 1.559481 1_555
O31 P4 1.559481 1_555
O32 P2 1.523531 1_555
O33 P3 1.523537 1_555
O34 P0 1.523516 1_554
O35 P5 1.559481 1_565
