# generated using pymatgen
data_CaIn4(Ge2O7)2
_symmetry_space_group_name_H-M   'P 1'
_cell_length_a   7.37192145
_cell_length_b   7.37192145
_cell_length_c   7.38807792
_cell_angle_alpha   59.92747516
_cell_angle_beta   59.92747516
_cell_angle_gamma   59.87051328
_symmetry_Int_Tables_number   1
_chemical_formula_structural   CaIn4(Ge2O7)2
_chemical_formula_sum   'Ca1 In4 Ge4 O14'
_cell_volume   283.31857441
_cell_formula_units_Z   1
loop_
 _symmetry_equiv_pos_site_id
 _symmetry_equiv_pos_as_xyz
  1  'x, y, z'
loop_
 _atom_site_type_symbol
 _atom_site_label
 _atom_site_symmetry_multiplicity
 _atom_site_fract_x
 _atom_site_fract_y
 _atom_site_fract_z
 _atom_site_occupancy
  Ca  Ca0  1  0.12321400  0.12321400  0.12678600  1
  In  In0  1  0.50196100  0.50196100  0.99514700  1
  In  In1  1  0.50229100  0.99492300  0.50139300  1
  In  In2  1  0.99492300  0.50229100  0.50139300  1
  In  In3  1  0.50196100  0.50196100  0.50093100  1
  Ge  Ge0  1  0.98367200  0.98367200  0.54972400  1
  Ge  Ge1  1  0.98447900  0.54765500  0.98393300  1
  Ge  Ge2  1  0.54765500  0.98447900  0.98393300  1
  Ge  Ge3  1  0.98367200  0.98367200  0.98293200  1
  O  O0  1  0.37502100  0.37502100  0.37497900  1
  O  O1  1  0.62444800  0.62444800  0.62555200  1
  O  O2  1  0.33845400  0.91135700  0.91180400  1
  O  O3  1  0.91135700  0.33845400  0.33838500  1
  O  O4  1  0.91135700  0.33845400  0.91180400  1
  O  O5  1  0.33845400  0.91135700  0.33838500  1
  O  O6  1  0.91006600  0.91006600  0.33993400  1
  O  O7  1  0.33710300  0.33710300  0.91289700  1
  O  O8  1  0.67868500  0.07132000  0.07034500  1
  O  O9  1  0.07132000  0.67868500  0.67964900  1
  O  O10  1  0.07132000  0.67868500  0.07034500  1
  O  O11  1  0.67868500  0.07132000  0.67964900  1
  O  O12  1  0.07106500  0.07106500  0.67893500  1
  O  O13  1  0.67920700  0.67920700  0.07079300  1
loop_
_geom_bond_atom_site_label_1
_geom_bond_atom_site_label_2
_geom_bond_distance
_geom_bond_site_symmetry_2
Ca0 O6 2.221904 1_445
Ca0 O2 2.225328 1_544
Ca0 O4 2.225328 1_454
Ca0 O3 2.225328 1_455
Ca0 O5 2.225328 1_545
Ca0 O7 2.229628 1_554
In0 O1 2.227849 1_555
In0 O0 2.289511 1_556
In0 O2 2.483934 1_555
In0 O4 2.483934 1_555
In0 O7 2.507252 1_555
In0 O8 2.624885 1_556
In0 O10 2.624885 1_556
In0 O13 2.627677 1_556
In1 O1 2.226977 1_555
In1 O0 2.284787 1_565
In1 O6 2.473275 1_555
In1 O5 2.497378 1_555
In1 O2 2.497378 1_555
In1 O12 2.628492 1_565
In1 O11 2.633891 1_565
In1 O8 2.633897 1_565
In2 O1 2.226977 1_555
In2 O0 2.284787 1_655
In2 O6 2.473275 1_555
In2 O3 2.497378 1_555
In2 O4 2.497378 1_555
In2 O12 2.628492 1_655
In2 O9 2.633891 1_655
In2 O10 2.633897 1_655
In3 O1 2.227849 1_555
In3 O0 2.289511 1_555
In3 O5 2.483934 1_555
In3 O3 2.483934 1_555
In3 O7 2.507252 1_555
In3 O11 2.624884 1_555
In3 O9 2.624884 1_555
In3 O13 2.627677 1_555
Ge0 O12 1.841426 1_665
Ge0 O9 1.842333 1_655
Ge0 O11 1.842333 1_565
Ge0 O5 2.214587 1_655
Ge0 O3 2.214587 1_565
Ge0 O6 2.229916 1_555
Ge1 O10 1.843608 1_656
Ge1 O9 1.843614 1_655
Ge1 O13 1.844497 1_556
Ge1 O7 2.200138 1_655
Ge1 O3 2.213386 1_556
Ge1 O4 2.213386 1_555
Ge2 O8 1.843608 1_566
Ge2 O11 1.843614 1_565
Ge2 O13 1.844497 1_556
Ge2 O7 2.200138 1_565
Ge2 O5 2.213386 1_556
Ge2 O2 2.213386 1_555
Ge3 O12 1.841426 1_665
Ge3 O10 1.842333 1_656
Ge3 O8 1.842333 1_566
Ge3 O4 2.214587 1_565
Ge3 O2 2.214587 1_655
Ge3 O6 2.229916 1_556
