# generated using pymatgen
data_CsHSO4
_symmetry_space_group_name_H-M   'P 1'
_cell_length_a   5.76181309
_cell_length_b   8.11526875
_cell_length_c   9.96615710
_cell_angle_alpha   106.16966168
_cell_angle_beta   90.00000000
_cell_angle_gamma   90.00000000
_symmetry_Int_Tables_number   1
_chemical_formula_structural   CsHSO4
_chemical_formula_sum   'Cs4 H4 S4 O16'
_cell_volume   447.56963873
_cell_formula_units_Z   4
loop_
 _symmetry_equiv_pos_site_id
 _symmetry_equiv_pos_as_xyz
  1  'x, y, z'
loop_
 _atom_site_type_symbol
 _atom_site_label
 _atom_site_symmetry_multiplicity
 _atom_site_fract_x
 _atom_site_fract_y
 _atom_site_fract_z
 _atom_site_occupancy
  Cs  Cs0  1  0.75762447  0.63261972  0.34698995  1
  Cs  Cs1  1  0.25762447  0.86738028  0.15301005  1
  Cs  Cs2  1  0.24237553  0.36738028  0.65301005  1
  Cs  Cs3  1  0.74237553  0.13261972  0.84698995  1
  H  H0  1  0.00674154  0.25041565  0.22018865  1
  H  H1  1  0.50674154  0.24958435  0.27981135  1
  H  H2  1  0.99325846  0.74958435  0.77981135  1
  H  H3  1  0.49325846  0.75041565  0.72018865  1
  S  S0  1  0.26404400  0.34743666  0.10250535  1
  S  S1  1  0.76404400  0.15256334  0.39749465  1
  S  S2  1  0.73595600  0.65256334  0.89749465  1
  S  S3  1  0.23595600  0.84743666  0.60250535  1
  O  O0  1  0.25347422  0.51072107  0.20794701  1
  O  O1  1  0.75347422  0.98927893  0.29205299  1
  O  O2  1  0.74652578  0.48927893  0.79205299  1
  O  O3  1  0.24652578  0.01072107  0.70794701  1
  O  O4  1  0.25965365  0.35373097  0.96005900  1
  O  O5  1  0.75965365  0.14626903  0.53994100  1
  O  O6  1  0.74034635  0.64626903  0.03994100  1
  O  O7  1  0.24034635  0.85373097  0.46005900  1
  O  O8  1  0.45898862  0.24249931  0.12908706  1
  O  O9  1  0.95898862  0.25750069  0.37091294  1
  O  O10  1  0.54101138  0.75750069  0.87091294  1
  O  O11  1  0.04101138  0.74249931  0.62908706  1
  O  O12  1  0.03779447  0.24563735  0.11809087  1
  O  O13  1  0.53779447  0.25436265  0.38190913  1
  O  O14  1  0.96220553  0.75436265  0.88190913  1
  O  O15  1  0.46220553  0.74563735  0.61809087  1
loop_
_geom_bond_atom_site_label_1
_geom_bond_atom_site_label_2
_geom_bond_distance
_geom_bond_site_symmetry_2
Cs0 O1 3.091995 1_555
Cs0 O6 3.094377 1_555
Cs0 O15 3.107770 1_555
Cs0 O11 3.157382 1_655
Cs0 O0 3.209010 1_655
Cs0 O0 3.251662 1_555
Cs0 H1 3.322812 1_555
Cs0 O9 3.327808 1_555
Cs0 H0 3.330859 1_655
Cs0 O7 3.331568 1_655
Cs0 O13 3.426839 1_555
Cs0 O7 3.499508 1_555
Cs1 O0 3.091995 1_555
Cs1 O7 3.094377 1_555
Cs1 O14 3.107770 1_454
Cs1 O10 3.157382 1_554
Cs1 O1 3.209010 1_555
Cs1 O1 3.251662 1_455
Cs1 H0 3.322812 1_565
Cs1 O8 3.327808 1_565
Cs1 H1 3.330859 1_565
Cs1 O6 3.331568 1_555
Cs1 O12 3.426839 1_565
Cs1 O6 3.499508 1_455
Cs2 O3 3.091995 1_555
Cs2 O4 3.094377 1_555
Cs2 O13 3.107770 1_555
Cs2 O9 3.157382 1_455
Cs2 O2 3.209010 1_455
Cs2 O2 3.251662 1_555
Cs2 H3 3.322812 1_555
Cs2 O11 3.327808 1_555
Cs2 H2 3.330859 1_455
Cs2 O5 3.331568 1_455
Cs2 O15 3.426839 1_555
Cs2 O5 3.499508 1_555
Cs3 O2 3.091995 1_555
Cs3 O5 3.094377 1_555
Cs3 O12 3.107770 1_656
Cs3 O8 3.157382 1_556
Cs3 O3 3.209010 1_555
Cs3 O3 3.251662 1_655
Cs3 H2 3.322812 1_545
Cs3 O10 3.327808 1_545
Cs3 H3 3.330859 1_545
Cs3 O4 3.331568 1_555
Cs3 O14 3.426839 1_545
Cs3 O4 3.499508 1_655
H0 O12 1.023178 1_555
H0 O9 1.512394 1_455
H1 O13 1.023178 1_555
H1 O8 1.512394 1_555
H2 O14 1.023178 1_555
H2 O11 1.512394 1_655
H3 O15 1.023178 1_555
H3 O10 1.512394 1_555
O0 S0 1.445099 1_555
O1 S1 1.445099 1_565
O2 S2 1.445099 1_555
O3 S3 1.445099 1_545
O4 S0 1.434930 1_556
O5 S1 1.434930 1_555
O6 S2 1.434930 1_554
O7 S3 1.434930 1_555
O8 S0 1.477397 1_555
O9 S1 1.477397 1_555
O10 S2 1.477397 1_555
O11 S3 1.477397 1_555
O12 S0 1.574001 1_555
O13 S1 1.574001 1_555
O14 S2 1.574001 1_555
O15 S3 1.574001 1_555
