# generated using pymatgen
data_LiZnCu2
_symmetry_space_group_name_H-M   'P 1'
_cell_length_a   9.49993810
_cell_length_b   9.49993810
_cell_length_c   9.49993810
_cell_angle_alpha   120.79127602
_cell_angle_beta   117.62702491
_cell_angle_gamma   91.39666254
_symmetry_Int_Tables_number   1
_chemical_formula_structural   LiZnCu2
_chemical_formula_sum   'Li1 Zn1 Cu2'
_cell_volume   612.72597257
_cell_formula_units_Z   1
loop_
 _symmetry_equiv_pos_site_id
 _symmetry_equiv_pos_as_xyz
  1  'x, y, z'
loop_
 _atom_site_type_symbol
 _atom_site_label
 _atom_site_symmetry_multiplicity
 _atom_site_fract_x
 _atom_site_fract_y
 _atom_site_fract_z
 _atom_site_occupancy
  Li  Li0  1  0.00000000  0.00000000  0.00000000  1
  Zn  Zn0  1  0.50000000  0.00000000  0.50000000  1
  Cu  Cu0  1  0.25941400  0.00000000  0.25941400  1
  Cu  Cu1  1  0.74058600  0.00000000  0.74058600  1
loop_
_geom_bond_atom_site_label_1
_geom_bond_atom_site_label_2
_geom_bond_distance
_geom_bond_site_symmetry_2
Cu0 Zn0 2.367033 1_555
Cu0 Li0 2.552275 1_555
Cu1 Zn0 2.367033 1_555
Cu1 Li0 2.552275 1_656
