# generated using pymatgen
data_NaV3P3O13
_symmetry_space_group_name_H-M   'P 1'
_cell_length_a   6.38730600
_cell_length_b   7.47245100
_cell_length_c   10.68255805
_cell_angle_alpha   80.69431067
_cell_angle_beta   90.00000000
_cell_angle_gamma   90.00000000
_symmetry_Int_Tables_number   1
_chemical_formula_structural   NaV3P3O13
_chemical_formula_sum   'Na2 V6 P6 O26'
_cell_volume   503.15600112
_cell_formula_units_Z   2
loop_
 _symmetry_equiv_pos_site_id
 _symmetry_equiv_pos_as_xyz
  1  'x, y, z'
loop_
 _atom_site_type_symbol
 _atom_site_label
 _atom_site_symmetry_multiplicity
 _atom_site_fract_x
 _atom_site_fract_y
 _atom_site_fract_z
 _atom_site_occupancy
  Na  Na0  1  0.75000000  0.34301100  0.18441400  1
  Na  Na1  1  0.25000000  0.65698900  0.81558600  1
  V  V0  1  0.25000000  0.64358700  0.19800900  1
  V  V1  1  0.75000000  0.35641300  0.80199100  1
  V  V2  1  0.25000000  0.22545000  0.44614600  1
  V  V3  1  0.50000000  0.00000000  0.00000000  1
  V  V4  1  0.75000000  0.77455000  0.55385400  1
  V  V5  1  0.00000000  0.00000000  0.00000000  1
  P  P0  1  0.25000000  0.78014200  0.47695000  1
  P  P1  1  0.75000000  0.21985800  0.52305000  1
  P  P2  1  0.25000000  0.25573400  0.76914200  1
  P  P3  1  0.75000000  0.74426600  0.23085800  1
  P  P4  1  0.75000000  0.69158800  0.87848300  1
  P  P5  1  0.25000000  0.30841200  0.12151700  1
  O  O0  1  0.75000000  0.65030500  0.73992700  1
  O  O1  1  0.55548300  0.26768600  0.43852300  1
  O  O2  1  0.25000000  0.19382500  0.64084600  1
  O  O3  1  0.54971900  0.79599900  0.90321900  1
  O  O4  1  0.75000000  0.34445500  0.62694900  1
  O  O5  1  0.75000000  0.13785500  0.90508800  1
  O  O6  1  0.25000000  0.65554500  0.37305100  1
  O  O7  1  0.04971900  0.20400100  0.09678100  1
  O  O8  1  0.25000000  0.97984200  0.41046400  1
  O  O9  1  0.75000000  0.02015800  0.58953600  1
  O  O10  1  0.05873100  0.37319700  0.79326400  1
  O  O11  1  0.25000000  0.86214500  0.09491200  1
  O  O12  1  0.55873100  0.62680300  0.20673600  1
  O  O13  1  0.75000000  0.49323600  0.95092400  1
  O  O14  1  0.75000000  0.80617500  0.35915400  1
  O  O15  1  0.45028100  0.20400100  0.09678100  1
  O  O16  1  0.94451700  0.26768600  0.43852300  1
  O  O17  1  0.44451700  0.73231400  0.56147700  1
  O  O18  1  0.44126900  0.37319700  0.79326400  1
  O  O19  1  0.25000000  0.34969500  0.26007300  1
  O  O20  1  0.75000000  0.91609100  0.12197900  1
  O  O21  1  0.25000000  0.08390900  0.87802100  1
  O  O22  1  0.94126900  0.62680300  0.20673600  1
  O  O23  1  0.95028100  0.79599900  0.90321900  1
  O  O24  1  0.05548300  0.73231400  0.56147700  1
  O  O25  1  0.25000000  0.50676400  0.04907600  1
loop_
_geom_bond_atom_site_label_1
_geom_bond_atom_site_label_2
_geom_bond_distance
_geom_bond_site_symmetry_2
Na0 O15 2.436136 1_555
Na0 O7 2.436136 1_655
Na0 O22 2.491981 1_555
Na0 O12 2.491981 1_555
Na0 O13 2.564369 1_554
Na0 O16 2.955509 1_555
Na0 O1 2.955509 1_555
Na1 O3 2.436136 1_555
Na1 O23 2.436136 1_455
Na1 O18 2.491981 1_555
Na1 O10 2.491981 1_555
Na1 O25 2.564369 1_556
Na1 O24 2.955509 1_555
Na1 O17 2.955509 1_555
O0 P4 1.560007 1_555
O0 V4 2.053345 1_555
O0 V1 2.188954 1_555
O1 P1 1.543491 1_555
O1 V2 1.976148 1_555
O2 P2 1.515720 1_555
O2 V2 2.054957 1_555
O3 P4 1.543281 1_555
O3 V3 2.000795 1_566
O4 P1 1.559787 1_555
O4 V1 1.886407 1_555
O5 V1 1.816171 1_555
O5 V3 2.073937 1_556
O5 V5 2.073937 1_656
O6 P0 1.559787 1_555
O6 V0 1.886407 1_555
O7 P5 1.543281 1_555
O7 V5 2.000795 1_555
O8 P0 1.545473 1_555
O8 V2 1.933867 1_565
O9 P1 1.545473 1_555
O9 V4 1.933867 1_545
O10 P2 1.550002 1_555
O10 V1 1.977186 1_455
O11 V0 1.816171 1_555
O11 V5 2.073937 1_565
O11 V3 2.073937 1_565
O12 P3 1.550002 1_555
O12 V0 1.977186 1_555
O13 P4 1.557163 1_555
O13 V1 2.025488 1_555
O14 P3 1.515720 1_555
O14 V4 2.054957 1_555
O15 P5 1.543281 1_555
O15 V3 2.000795 1_555
O16 P1 1.543491 1_555
O16 V2 1.976148 1_655
O17 P0 1.543491 1_555
O17 V4 1.976148 1_555
O18 P2 1.550002 1_555
O18 V1 1.977186 1_555
O19 P5 1.560007 1_555
O19 V2 2.053345 1_555
O19 V0 2.188954 1_555
O20 P3 1.586944 1_555
O20 V5 2.092056 1_665
O20 V3 2.092056 1_565
O21 P2 1.586944 1_555
O21 V5 2.092056 1_556
O21 V3 2.092056 1_556
O22 P3 1.550002 1_555
O22 V0 1.977186 1_655
O23 P4 1.543281 1_555
O23 V5 2.000795 1_666
O24 P0 1.543491 1_555
O24 V4 1.976148 1_455
O25 P5 1.557163 1_555
O25 V0 2.025488 1_555
