# generated using pymatgen
data_TbNiP
_symmetry_space_group_name_H-M   'P 1'
_cell_length_a   3.88541616
_cell_length_b   3.88541616
_cell_length_c   15.50275248
_cell_angle_alpha   90.00000000
_cell_angle_beta   90.00000000
_cell_angle_gamma   120.00000371
_symmetry_Int_Tables_number   1
_chemical_formula_structural   TbNiP
_chemical_formula_sum   'Tb4 Ni4 P4'
_cell_volume   202.68168788
_cell_formula_units_Z   4
loop_
 _symmetry_equiv_pos_site_id
 _symmetry_equiv_pos_as_xyz
  1  'x, y, z'
loop_
 _atom_site_type_symbol
 _atom_site_label
 _atom_site_symmetry_multiplicity
 _atom_site_fract_x
 _atom_site_fract_y
 _atom_site_fract_z
 _atom_site_occupancy
  Tb  Tb0  1  0.00000000  0.00000000  0.25000000  1
  Tb  Tb1  1  0.00000000  0.00000000  0.75000000  1
  Tb  Tb2  1  0.00000000  0.00000000  -0.00000000  1
  Tb  Tb3  1  0.00000000  0.00000000  0.50000000  1
  Ni  Ni0  1  0.33333300  0.66666700  0.12778383  1
  Ni  Ni1  1  0.66666700  0.33333300  0.87221617  1
  Ni  Ni2  1  0.66666700  0.33333300  0.62778383  1
  Ni  Ni3  1  0.33333300  0.66666700  0.37221617  1
  P  P0  1  0.33333300  0.66666700  0.62317868  1
  P  P1  1  0.66666700  0.33333300  0.37682132  1
  P  P2  1  0.66666700  0.33333300  0.12317868  1
  P  P3  1  0.33333300  0.66666700  0.87682132  1
loop_
_geom_bond_atom_site_label_1
_geom_bond_atom_site_label_2
_geom_bond_distance
_geom_bond_site_symmetry_2
Ni0 P2 2.244380 1_455
Ni0 P2 2.244380 1_565
Ni0 P2 2.244386 1_555
Ni0 Tb0 2.936321 1_565
Ni0 Tb0 2.936324 1_665
Ni0 Tb0 2.936324 1_555
Ni0 Tb2 2.992743 1_565
Ni0 Tb2 2.992745 1_555
Ni0 Tb2 2.992745 1_665
Ni1 P3 2.244380 1_545
Ni1 P3 2.244380 1_655
Ni1 P3 2.244386 1_555
Ni1 Tb1 2.936321 1_655
Ni1 Tb1 2.936324 1_555
Ni1 Tb1 2.936324 1_665
Ni1 Tb2 2.992743 1_656
Ni1 Tb2 2.992745 1_556
Ni1 Tb2 2.992745 1_666
Ni2 P0 2.244380 1_545
Ni2 P0 2.244380 1_655
Ni2 P0 2.244386 1_555
Ni2 Tb1 2.936321 1_655
Ni2 Tb1 2.936324 1_555
Ni2 Tb1 2.936324 1_665
Ni2 Tb3 2.992743 1_655
Ni2 Tb3 2.992745 1_665
Ni2 Tb3 2.992745 1_555
Ni3 P1 2.244380 1_455
Ni3 P1 2.244380 1_565
Ni3 P1 2.244386 1_555
Ni3 Tb0 2.936321 1_565
Ni3 Tb0 2.936324 1_665
Ni3 Tb0 2.936324 1_555
Ni3 Tb3 2.992743 1_565
Ni3 Tb3 2.992745 1_555
Ni3 Tb3 2.992745 1_665
P0 Tb3 2.945971 1_565
P0 Tb3 2.945974 1_555
P0 Tb3 2.945974 1_665
P0 Tb1 2.982886 1_565
P0 Tb1 2.982889 1_555
P0 Tb1 2.982889 1_665
P1 Tb3 2.945971 1_655
P1 Tb3 2.945974 1_665
P1 Tb3 2.945974 1_555
P1 Tb0 2.982886 1_655
P1 Tb0 2.982889 1_555
P1 Tb0 2.982889 1_665
P2 Tb2 2.945971 1_655
P2 Tb2 2.945974 1_555
P2 Tb2 2.945974 1_665
P2 Tb0 2.982886 1_655
P2 Tb0 2.982889 1_555
P2 Tb0 2.982889 1_665
P3 Tb2 2.945971 1_566
P3 Tb2 2.945974 1_556
P3 Tb2 2.945974 1_666
P3 Tb1 2.982886 1_565
P3 Tb1 2.982889 1_555
P3 Tb1 2.982889 1_665
