# generated using pymatgen
data_PaBe13
_symmetry_space_group_name_H-M   'P 1'
_cell_length_a   7.22408681
_cell_length_b   7.22408681
_cell_length_c   7.22408681
_cell_angle_alpha   60.00000000
_cell_angle_beta   60.00000000
_cell_angle_gamma   60.00000000
_symmetry_Int_Tables_number   1
_chemical_formula_structural   PaBe13
_chemical_formula_sum   'Pa2 Be26'
_cell_volume   266.58387120
_cell_formula_units_Z   2
loop_
 _symmetry_equiv_pos_site_id
 _symmetry_equiv_pos_as_xyz
  1  'x, y, z'
loop_
 _atom_site_type_symbol
 _atom_site_label
 _atom_site_symmetry_multiplicity
 _atom_site_fract_x
 _atom_site_fract_y
 _atom_site_fract_z
 _atom_site_occupancy
  Pa  Pa0  1  0.75000000  0.75000000  0.75000000  1
  Pa  Pa1  1  0.25000000  0.25000000  0.25000000  1
  Be  Be0  1  0.50000000  0.50000000  0.50000000  1
  Be  Be1  1  -0.00000000  0.00000000  0.00000000  1
  Be  Be2  1  0.79065652  0.43900520  0.20934348  1
  Be  Be3  1  0.20934348  0.56099480  0.79065652  1
  Be  Be4  1  0.56099480  0.20934348  0.43900520  1
  Be  Be5  1  0.43900520  0.79065652  0.56099480  1
  Be  Be6  1  0.29065652  0.06099480  0.70934348  1
  Be  Be7  1  0.70934348  0.93900520  0.29065652  1
  Be  Be8  1  0.93900520  0.70934348  0.06099480  1
  Be  Be9  1  0.06099480  0.29065652  0.93900520  1
  Be  Be10  1  0.43900520  0.20934348  0.79065652  1
  Be  Be11  1  0.56099480  0.79065652  0.20934348  1
  Be  Be12  1  0.20934348  0.43900520  0.56099480  1
  Be  Be13  1  0.79065652  0.56099480  0.43900520  1
  Be  Be14  1  0.06099480  0.70934348  0.29065652  1
  Be  Be15  1  0.93900520  0.29065652  0.70934348  1
  Be  Be16  1  0.70934348  0.06099480  0.93900520  1
  Be  Be17  1  0.29065652  0.93900520  0.06099480  1
  Be  Be18  1  0.20934348  0.79065652  0.43900520  1
  Be  Be19  1  0.79065652  0.20934348  0.56099480  1
  Be  Be20  1  0.43900520  0.56099480  0.20934348  1
  Be  Be21  1  0.56099480  0.43900520  0.79065652  1
  Be  Be22  1  0.70934348  0.29065652  0.06099480  1
  Be  Be23  1  0.29065652  0.70934348  0.93900520  1
  Be  Be24  1  0.06099480  0.93900520  0.70934348  1
  Be  Be25  1  0.93900520  0.06099480  0.29065652  1
loop_
_geom_bond_atom_site_label_1
_geom_bond_atom_site_label_2
_geom_bond_distance
_geom_bond_site_symmetry_2
Be0 Be11 2.145464 1_555
Be0 Be18 2.145464 1_555
Be0 Be5 2.145464 1_555
Be0 Be21 2.145464 1_555
Be0 Be13 2.145464 1_555
Be0 Be3 2.145464 1_555
Be0 Be10 2.145464 1_555
Be0 Be19 2.145464 1_555
Be0 Be4 2.145464 1_555
Be0 Be12 2.145464 1_555
Be0 Be20 2.145464 1_555
Be0 Be2 2.145464 1_555
Be1 Be25 2.145464 1_455
Be1 Be17 2.145464 1_545
Be1 Be9 2.145464 1_554
Be1 Be14 2.145464 1_545
Be1 Be6 2.145464 1_554
Be1 Be22 2.145464 1_455
Be1 Be23 2.145464 1_544
Be1 Be7 2.145464 1_445
Be1 Be15 2.145464 1_454
Be1 Be16 2.145464 1_454
Be1 Be24 2.145464 1_544
Be1 Be8 2.145464 1_445
Be2 Be9 2.227669 1_654
Be2 Be8 2.227669 1_555
Be2 Be20 2.234128 1_555
Be2 Be25 2.247134 1_555
Be2 Be22 2.247134 1_555
Be2 Be4 2.346316 1_555
Be2 Pa0 3.000780 1_554
Be2 Pa1 3.000780 1_655
Be3 Be8 2.227669 1_456
Be3 Be9 2.227669 1_555
Be3 Be5 2.346316 1_555
Be3 Pa0 3.000780 1_455
Be3 Pa1 3.000780 1_556
Be4 Be7 2.227669 1_545
Be4 Be6 2.227669 1_555
Be4 Pa1 3.000780 1_555
Be4 Pa0 3.000780 1_545
Be5 Be6 2.227669 1_565
Be5 Be7 2.227669 1_555
Be5 Pa0 3.000780 1_555
Be5 Pa1 3.000780 1_565
Be6 Be9 2.346316 1_555
Be6 Pa0 3.000780 1_545
Be6 Pa1 3.000780 1_555
Be7 Be8 2.346316 1_555
Be7 Pa0 3.000780 1_555
Be7 Pa1 3.000780 1_565
Be8 Pa0 3.000780 1_554
Be8 Pa1 3.000780 1_655
Be9 Pa0 3.000780 1_455
Be9 Pa1 3.000780 1_556
Be10 Be17 2.227669 1_546
Be10 Be16 2.227669 1_555
Be10 Be3 2.234128 1_555
Be10 Be19 2.234128 1_555
Be10 Be4 2.234128 1_555
Be10 Be21 2.234128 1_555
Be10 Be9 2.247134 1_555
Be10 Be6 2.247134 1_555
Be10 Be12 2.346316 1_555
Be10 Pa0 3.000780 1_545
Be10 Pa1 3.000780 1_556
Be11 Be16 2.227669 1_564
Be11 Be17 2.227669 1_555
Be11 Be5 2.234128 1_555
Be11 Be18 2.234128 1_555
Be11 Be2 2.234128 1_555
Be11 Be20 2.234128 1_555
Be11 Be8 2.247134 1_555
Be11 Be7 2.247134 1_555
Be11 Be13 2.346316 1_555
Be11 Pa0 3.000780 1_554
Be11 Pa1 3.000780 1_565
Be12 Be15 2.227669 1_455
Be12 Be14 2.227669 1_555
Be12 Be18 2.234128 1_555
Be12 Be4 2.234128 1_555
Be12 Be20 2.234128 1_555
Be12 Be3 2.234128 1_555
Be12 Be9 2.247134 1_555
Be12 Be6 2.247134 1_555
Be12 Pa1 3.000780 1_555
Be12 Pa0 3.000780 1_455
Be13 Be14 2.227669 1_655
Be13 Be15 2.227669 1_555
Be13 Be5 2.234128 1_555
Be13 Be21 2.234128 1_555
Be13 Be19 2.234128 1_555
Be13 Be2 2.234128 1_555
Be13 Be7 2.247134 1_555
Be13 Be8 2.247134 1_555
Be13 Pa0 3.000780 1_555
Be13 Pa1 3.000780 1_655
Be14 Be25 2.234128 1_465
Be14 Be7 2.234128 1_455
Be14 Be8 2.234128 1_455
Be14 Be23 2.234128 1_554
Be14 Be18 2.247134 1_555
Be14 Be20 2.247134 1_555
Be14 Be17 2.346316 1_555
Be14 Pa0 3.000780 1_455
Be14 Pa1 3.000780 1_555
Be15 Be22 2.234128 1_556
Be15 Be9 2.234128 1_655
Be15 Be6 2.234128 1_655
Be15 Be24 2.234128 1_645
Be15 Be21 2.247134 1_555
Be15 Be19 2.247134 1_555
Be15 Be16 2.346316 1_555
Be15 Pa0 3.000780 1_555
Be15 Pa1 3.000780 1_655
Be16 Be24 2.234128 1_645
Be16 Be8 2.234128 1_546
Be16 Be22 2.234128 1_556
Be16 Be7 2.234128 1_546
Be16 Be19 2.247134 1_555
Be16 Be21 2.247134 1_555
Be16 Pa0 3.000780 1_545
Be16 Pa1 3.000780 1_556
Be17 Be6 2.234128 1_564
Be17 Be23 2.234128 1_554
Be17 Be9 2.234128 1_564
Be17 Be25 2.234128 1_465
Be17 Be20 2.247134 1_555
Be17 Be18 2.247134 1_555
Be17 Pa0 3.000780 1_554
Be17 Pa1 3.000780 1_565
Be18 Be25 2.227669 1_465
Be18 Be24 2.227669 1_555
Be18 Be3 2.234128 1_555
Be18 Be5 2.234128 1_555
Be18 Be20 2.346316 1_555
Be18 Pa1 3.000780 1_565
Be18 Pa0 3.000780 1_455
Be19 Be24 2.227669 1_645
Be19 Be25 2.227669 1_555
Be19 Be2 2.234128 1_555
Be19 Be4 2.234128 1_555
Be19 Be21 2.346316 1_555
Be19 Pa0 3.000780 1_545
Be19 Pa1 3.000780 1_655
Be20 Be23 2.227669 1_554
Be20 Be22 2.227669 1_555
Be20 Be4 2.234128 1_555
Be20 Pa1 3.000780 1_555
Be20 Pa0 3.000780 1_554
Be21 Be22 2.227669 1_556
Be21 Be23 2.227669 1_555
Be21 Be5 2.234128 1_555
Be21 Be3 2.234128 1_555
Be21 Pa0 3.000780 1_555
Be21 Pa1 3.000780 1_556
Be22 Be9 2.234128 1_654
Be22 Be7 2.234128 1_545
Be22 Be4 2.247134 1_555
Be22 Be25 2.346316 1_555
Be22 Pa0 3.000780 1_554
Be22 Pa1 3.000780 1_555
Be23 Be6 2.234128 1_565
Be23 Be8 2.234128 1_456
Be23 Be5 2.247134 1_555
Be23 Be3 2.247134 1_555
Be23 Be24 2.346316 1_555
Be23 Pa0 3.000780 1_555
Be23 Pa1 3.000780 1_556
Be24 Be8 2.234128 1_456
Be24 Be6 2.234128 1_565
Be24 Be3 2.247134 1_555
Be24 Be5 2.247134 1_555
Be24 Pa0 3.000780 1_455
Be24 Pa1 3.000780 1_565
Be25 Be7 2.234128 1_545
Be25 Be9 2.234128 1_654
Be25 Be4 2.247134 1_555
Be25 Pa0 3.000780 1_545
Be25 Pa1 3.000780 1_655
