# generated using pymatgen
data_NaMg14BO16
_symmetry_space_group_name_H-M   'P 1'
_cell_length_a   8.43154678
_cell_length_b   8.43154678
_cell_length_c   4.29882356
_cell_angle_alpha   90.00000000
_cell_angle_beta   90.00000000
_cell_angle_gamma   90.00000000
_symmetry_Int_Tables_number   1
_chemical_formula_structural   NaMg14BO16
_chemical_formula_sum   'Na1 Mg14 B1 O16'
_cell_volume   305.60758447
_cell_formula_units_Z   1
loop_
 _symmetry_equiv_pos_site_id
 _symmetry_equiv_pos_as_xyz
  1  'x, y, z'
loop_
 _atom_site_type_symbol
 _atom_site_label
 _atom_site_symmetry_multiplicity
 _atom_site_fract_x
 _atom_site_fract_y
 _atom_site_fract_z
 _atom_site_occupancy
  Na  Na0  1  -0.00000000  -0.00000000  -0.00000000  1
  Mg  Mg0  1  -0.00000000  0.50000000  -0.00000000  1
  Mg  Mg1  1  0.50000000  -0.00000000  -0.00000000  1
  Mg  Mg2  1  -0.00000000  0.24631223  0.50000000  1
  Mg  Mg3  1  -0.00000000  0.75368777  0.50000000  1
  Mg  Mg4  1  0.50000000  0.25816996  0.50000000  1
  Mg  Mg5  1  0.50000000  0.74183004  0.50000000  1
  Mg  Mg6  1  0.24631223  -0.00000000  0.50000000  1
  Mg  Mg7  1  0.25816996  0.50000000  0.50000000  1
  Mg  Mg8  1  0.75368777  -0.00000000  0.50000000  1
  Mg  Mg9  1  0.74183004  0.50000000  0.50000000  1
  Mg  Mg10  1  0.24967258  0.24967258  -0.00000000  1
  Mg  Mg11  1  0.24967258  0.75032742  0.00000000  1
  Mg  Mg12  1  0.75032742  0.24967258  -0.00000000  1
  Mg  Mg13  1  0.75032742  0.75032742  0.00000000  1
  B  B0  1  0.50000000  0.50000000  -0.00000000  1
  O  O0  1  0.26906389  -0.00000000  -0.00000000  1
  O  O1  1  0.29372276  0.50000000  -0.00000000  1
  O  O2  1  0.73093611  -0.00000000  0.00000000  1
  O  O3  1  0.70627724  0.50000000  0.00000000  1
  O  O4  1  0.25129687  0.25129687  0.50000000  1
  O  O5  1  0.25129687  0.74870313  0.50000000  1
  O  O6  1  0.74870313  0.25129687  0.50000000  1
  O  O7  1  0.74870313  0.74870313  0.50000000  1
  O  O8  1  -0.00000000  -0.00000000  0.50000000  1
  O  O9  1  -0.00000000  0.50000000  0.50000000  1
  O  O10  1  0.50000000  -0.00000000  0.50000000  1
  O  O11  1  0.50000000  0.50000000  0.50000000  1
  O  O12  1  -0.00000000  0.26906389  -0.00000000  1
  O  O13  1  -0.00000000  0.73093611  -0.00000000  1
  O  O14  1  0.50000000  0.29372276  -0.00000000  1
  O  O15  1  0.50000000  0.70627724  0.00000000  1
loop_
_geom_bond_atom_site_label_1
_geom_bond_atom_site_label_2
_geom_bond_distance
_geom_bond_site_symmetry_2
Na0 O8 2.149412 1_554
Na0 O8 2.149412 1_555
Na0 O2 2.268625 1_455
Na0 O13 2.268625 1_545
Na0 O12 2.268625 1_555
Na0 O0 2.268625 1_555
Mg0 O12 1.947149 1_555
Mg0 O13 1.947149 1_555
Mg0 O9 2.149412 1_555
Mg0 O9 2.149412 1_554
Mg0 O3 2.476537 1_455
Mg0 O1 2.476537 1_555
Mg1 O0 1.947149 1_555
Mg1 O2 1.947149 1_555
Mg1 O10 2.149412 1_555
Mg1 O10 2.149412 1_554
Mg1 O15 2.476537 1_545
Mg1 O14 2.476537 1_555
Mg2 O8 2.076793 1_555
Mg2 O6 2.119238 1_455
Mg2 O4 2.119238 1_555
Mg2 O9 2.138980 1_555
Mg2 O12 2.157955 1_555
Mg2 O12 2.157955 1_556
Mg3 O8 2.076793 1_565
Mg3 O5 2.119238 1_555
Mg3 O7 2.119238 1_455
Mg3 O9 2.138980 1_555
Mg3 O13 2.157955 1_556
Mg3 O13 2.157955 1_555
Mg4 O11 2.039001 1_555
Mg4 O4 2.097753 1_555
Mg4 O6 2.097753 1_555
Mg4 O14 2.170214 1_556
Mg4 O14 2.170214 1_555
Mg4 O10 2.176772 1_555
Mg5 O11 2.039001 1_555
Mg5 O7 2.097753 1_555
Mg5 O5 2.097753 1_555
Mg5 O15 2.170214 1_555
Mg5 O15 2.170214 1_556
Mg5 O10 2.176772 1_565
Mg6 O8 2.076793 1_555
Mg6 O5 2.119238 1_545
Mg6 O4 2.119238 1_555
Mg6 O10 2.138980 1_555
Mg6 O0 2.157955 1_555
Mg6 O0 2.157955 1_556
Mg7 O11 2.039001 1_555
Mg7 O4 2.097753 1_555
Mg7 O5 2.097753 1_555
Mg7 O1 2.170214 1_556
Mg7 O1 2.170214 1_555
Mg7 O9 2.176772 1_555
Mg8 O8 2.076793 1_655
Mg8 O6 2.119238 1_555
Mg8 O7 2.119238 1_545
Mg8 O10 2.138980 1_555
Mg8 O2 2.157955 1_555
Mg8 O2 2.157955 1_556
Mg9 O11 2.039001 1_555
Mg9 O7 2.097753 1_555
Mg9 O6 2.097753 1_555
Mg9 O3 2.170214 1_556
Mg9 O3 2.170214 1_555
Mg9 O9 2.176772 1_655
Mg10 O12 2.111466 1_555
Mg10 O0 2.111466 1_555
Mg10 O1 2.143077 1_555
Mg10 O14 2.143077 1_555
Mg10 O4 2.149499 1_554
Mg10 O4 2.149499 1_555
Mg11 O13 2.111466 1_555
Mg11 O0 2.111466 1_565
Mg11 O15 2.143077 1_555
Mg11 O1 2.143077 1_555
Mg11 O5 2.149499 1_554
Mg11 O5 2.149499 1_555
Mg12 O2 2.111466 1_555
Mg12 O12 2.111466 1_655
Mg12 O14 2.143077 1_555
Mg12 O3 2.143077 1_555
Mg12 O6 2.149499 1_554
Mg12 O6 2.149499 1_555
Mg13 O13 2.111466 1_655
Mg13 O2 2.111466 1_565
Mg13 O15 2.143077 1_555
Mg13 O3 2.143077 1_555
Mg13 O7 2.149499 1_555
Mg13 O7 2.149499 1_554
B0 O14 1.739236 1_555
B0 O1 1.739236 1_555
B0 O15 1.739236 1_555
B0 O3 1.739236 1_555
B0 O11 2.149412 1_554
B0 O11 2.149412 1_555
