# generated using pymatgen
data_AgH12C4S2N5O3
_symmetry_space_group_name_H-M   'P 1'
_cell_length_a   10.38791374
_cell_length_b   10.38791374
_cell_length_c   18.93154822
_cell_angle_alpha   89.20678351
_cell_angle_beta   89.20678351
_cell_angle_gamma   38.07435070
_symmetry_Int_Tables_number   1
_chemical_formula_structural   AgH12C4S2N5O3
_chemical_formula_sum   'Ag4 H48 C16 S8 N20 O12'
_cell_volume   1259.67518700
_cell_formula_units_Z   4
loop_
 _symmetry_equiv_pos_site_id
 _symmetry_equiv_pos_as_xyz
  1  'x, y, z'
loop_
 _atom_site_type_symbol
 _atom_site_label
 _atom_site_symmetry_multiplicity
 _atom_site_fract_x
 _atom_site_fract_y
 _atom_site_fract_z
 _atom_site_occupancy
  Ag  Ag0  1  0.80501000  0.19499000  0.25000000  1
  Ag  Ag1  1  0.19499000  0.80501000  0.75000000  1
  Ag  Ag2  1  0.30685000  0.69315000  0.25000000  1
  Ag  Ag3  1  0.69315000  0.30685000  0.75000000  1
  H  H0  1  0.49942500  0.18121500  0.42454700  1
  H  H1  1  0.81878500  0.50057500  0.07545300  1
  H  H2  1  0.50057500  0.81878500  0.57545300  1
  H  H3  1  0.18121500  0.49942500  0.92454700  1
  H  H4  1  0.25611100  0.49816300  0.47193200  1
  H  H5  1  0.50183700  0.74388900  0.02806800  1
  H  H6  1  0.74388900  0.50183700  0.52806800  1
  H  H7  1  0.49816300  0.25611100  0.97193200  1
  H  H8  1  0.69192100  0.09569300  0.36830400  1
  H  H9  1  0.90430700  0.30807900  0.13169600  1
  H  H10  1  0.30807900  0.90430700  0.63169600  1
  H  H11  1  0.09569300  0.69192100  0.86830400  1
  H  H12  1  0.96395900  0.69680000  0.08668600  1
  H  H13  1  0.30320000  0.03604100  0.41331400  1
  H  H14  1  0.03604100  0.30320000  0.91331400  1
  H  H15  1  0.69680000  0.96395900  0.58668600  1
  H  H16  1  0.63313500  0.96407800  0.12527100  1
  H  H17  1  0.03592200  0.36686500  0.37472900  1
  H  H18  1  0.36686500  0.03592200  0.87472900  1
  H  H19  1  0.96407800  0.63313500  0.62527100  1
  H  H20  1  0.16360200  0.61748500  0.13457100  1
  H  H21  1  0.38251500  0.83639800  0.36542900  1
  H  H22  1  0.83639800  0.38251500  0.86542900  1
  H  H23  1  0.61748500  0.16360200  0.63457100  1
  H  H24  1  0.26999800  0.75796800  0.47408000  1
  H  H25  1  0.24203200  0.73000200  0.02592000  1
  H  H26  1  0.73000200  0.24203200  0.52592000  1
  H  H27  1  0.75796800  0.26999800  0.97408000  1
  H  H28  1  0.11945800  0.83891300  0.39828100  1
  H  H29  1  0.16108700  0.88054200  0.10171900  1
  H  H30  1  0.88054200  0.16108700  0.60171900  1
  H  H31  1  0.83891300  0.11945800  0.89828100  1
  H  H32  1  0.04198100  0.83824500  0.48284500  1
  H  H33  1  0.16175500  0.95801900  0.01715500  1
  H  H34  1  0.95801900  0.16175500  0.51715500  1
  H  H35  1  0.83824500  0.04198100  0.98284500  1
  H  H36  1  0.49136300  0.22325400  0.24084500  1
  H  H37  1  0.77674600  0.50863700  0.25915500  1
  H  H38  1  0.50863700  0.77674600  0.75915500  1
  H  H39  1  0.22325400  0.49136300  0.74084500  1
  H  H40  1  0.54562000  0.02282400  0.27397300  1
  H  H41  1  0.97717600  0.45438000  0.22602700  1
  H  H42  1  0.45438000  0.97717600  0.72602700  1
  H  H43  1  0.02282400  0.54562000  0.77397300  1
  H  H44  1  0.36804700  0.18416400  0.20187000  1
  H  H45  1  0.81583600  0.63195300  0.29813000  1
  H  H46  1  0.63195300  0.81583600  0.79813000  1
  H  H47  1  0.18416400  0.36804700  0.70187000  1
  C  C0  1  0.46828900  0.39884200  0.40078600  1
  C  C1  1  0.60115800  0.53171100  0.09921400  1
  C  C2  1  0.53171100  0.60115800  0.59921400  1
  C  C3  1  0.39884200  0.46828900  0.90078600  1
  C  C4  1  0.17644800  0.75608000  0.44921100  1
  C  C5  1  0.24392000  0.82355200  0.05078900  1
  C  C6  1  0.82355200  0.24392000  0.55078900  1
  C  C7  1  0.75608000  0.17644800  0.94921100  1
  C  C8  1  0.87675000  0.83916400  0.18242600  1
  C  C9  1  0.16083600  0.12325000  0.31757400  1
  C  C10  1  0.12325000  0.16083600  0.81757400  1
  C  C11  1  0.83916400  0.87675000  0.68242600  1
  C  C12  1  0.51225600  0.10556600  0.22580900  1
  C  C13  1  0.89443400  0.48774400  0.27419100  1
  C  C14  1  0.48774400  0.89443400  0.77419100  1
  C  C15  1  0.10556600  0.51225600  0.72580900  1
  S  S0  1  0.56816100  0.45228400  0.35465400  1
  S  S1  1  0.54771600  0.43183900  0.14534600  1
  S  S2  1  0.43183900  0.54771600  0.64534600  1
  S  S3  1  0.45228400  0.56816100  0.85465400  1
  S  S4  1  0.95771500  0.84085600  0.26137600  1
  S  S5  1  0.15914400  0.04228500  0.23862400  1
  S  S6  1  0.04228500  0.15914400  0.73862400  1
  S  S7  1  0.84085600  0.95771500  0.76137600  1
  N  N0  1  0.29621900  0.54483100  0.44035300  1
  N  N1  1  0.45516900  0.70378100  0.05964700  1
  N  N2  1  0.70378100  0.45516900  0.55964700  1
  N  N3  1  0.54483100  0.29621900  0.94035300  1
  N  N4  1  0.56636400  0.20775600  0.40037600  1
  N  N5  1  0.79224400  0.43363600  0.09962400  1
  N  N6  1  0.43363600  0.79224400  0.59962400  1
  N  N7  1  0.20775600  0.56636400  0.90037600  1
  N  N8  1  0.67734600  0.96152600  0.17377300  1
  N  N9  1  0.03847400  0.32265400  0.32622700  1
  N  N10  1  0.32265400  0.03847400  0.82622700  1
  N  N11  1  0.96152600  0.67734600  0.67377300  1
  N  N12  1  0.01095000  0.71326200  0.12919200  1
  N  N13  1  0.28673800  0.98905000  0.37080800  1
  N  N14  1  0.98905000  0.28673800  0.87080800  1
  N  N15  1  0.71326200  0.01095000  0.62919200  1
  N  N16  1  0.27165600  0.23791800  0.02056700  1
  N  N17  1  0.76208200  0.72834400  0.47943300  1
  N  N18  1  0.72834400  0.76208200  0.97943300  1
  N  N19  1  0.23791800  0.27165600  0.52056700  1
  O  O0  1  0.37791900  0.24731700  0.04490700  1
  O  O1  1  0.75268300  0.62208100  0.45509300  1
  O  O2  1  0.62208100  0.75268300  0.95509300  1
  O  O3  1  0.24731700  0.37791900  0.54490700  1
  O  O4  1  0.20416000  0.30031800  0.95674200  1
  O  O5  1  0.69968200  0.79584000  0.54325800  1
  O  O6  1  0.79584000  0.69968200  0.04325800  1
  O  O7  1  0.30031800  0.20416000  0.45674200  1
  O  O8  1  0.23386900  0.16976400  0.05748600  1
  O  O9  1  0.83023600  0.76613100  0.44251400  1
  O  O10  1  0.76613100  0.83023600  0.94251400  1
  O  O11  1  0.16976400  0.23386900  0.55748600  1
loop_
_geom_bond_atom_site_label_1
_geom_bond_atom_site_label_2
_geom_bond_distance
_geom_bond_site_symmetry_2
Ag0 S1 2.603983 1_555
Ag0 S0 2.603983 1_555
Ag0 S4 2.625950 1_545
Ag0 S5 2.625950 1_655
Ag1 S2 2.603983 1_555
Ag1 S3 2.603983 1_555
Ag1 S7 2.625950 1_455
Ag1 S6 2.625950 1_565
Ag2 S5 2.603921 1_565
Ag2 S4 2.603921 1_455
Ag2 S1 2.621570 1_555
Ag2 S0 2.621570 1_555
Ag3 S6 2.603921 1_655
Ag3 S7 2.603921 1_545
Ag3 S2 2.621570 1_555
Ag3 S3 2.621570 1_555
H0 N4 1.028816 1_555
H1 N5 1.028816 1_555
H2 N6 1.028816 1_555
H3 N7 1.028816 1_555
H4 N0 1.033970 1_555
H5 N1 1.033970 1_555
H6 N2 1.033970 1_555
H7 N3 1.033970 1_555
H8 N4 1.015928 1_555
H9 N5 1.015928 1_555
H10 N6 1.015928 1_555
H11 N7 1.015928 1_555
H12 N12 1.030137 1_655
H13 N13 1.030137 1_545
H14 N14 1.030137 1_455
H15 N15 1.030137 1_565
H16 N8 1.023025 1_555
H17 N9 1.023025 1_555
H18 N10 1.023025 1_555
H19 N11 1.023025 1_555
H20 N12 1.016131 1_555
H21 N13 1.016131 1_555
H22 N14 1.016131 1_555
H23 N15 1.016131 1_555
C0 N0 1.335101 1_555
C0 N4 1.339565 1_555
C0 S0 1.736529 1_555
C1 N1 1.335101 1_555
C1 N5 1.339565 1_555
C1 S1 1.736529 1_555
C2 N2 1.335101 1_555
C2 N6 1.339565 1_555
C2 S2 1.736529 1_555
C3 N3 1.335101 1_555
C3 N7 1.339565 1_555
C3 S3 1.736529 1_555
C4 H32 1.094730 1_555
C4 H24 1.099705 1_555
C4 H28 1.100609 1_555
C4 N0 1.448266 1_555
C5 H33 1.094730 1_555
C5 H25 1.099705 1_555
C5 H29 1.100609 1_555
C5 N1 1.448266 1_555
C6 H34 1.094730 1_555
C6 H26 1.099705 1_555
C6 H30 1.100609 1_555
C6 N2 1.448266 1_555
C7 H35 1.094730 1_555
C7 H27 1.099705 1_555
C7 H31 1.100609 1_555
C7 N3 1.448266 1_555
C8 N8 1.338456 1_555
C8 N12 1.340379 1_655
C8 S4 1.732183 1_555
C9 N9 1.338456 1_555
C9 N13 1.340379 1_545
C9 S5 1.732183 1_555
C10 N10 1.338456 1_555
C10 N14 1.340379 1_455
C10 S6 1.732183 1_555
C11 N11 1.338456 1_555
C11 N15 1.340379 1_565
C11 S7 1.732183 1_555
C12 H44 1.094985 1_555
C12 H40 1.099247 1_555
C12 H36 1.101317 1_555
C12 N8 1.450641 1_545
C13 H45 1.094985 1_555
C13 H41 1.099247 1_555
C13 H37 1.101317 1_555
C13 N9 1.450641 1_655
C14 H46 1.094985 1_555
C14 H42 1.099247 1_555
C14 H38 1.101317 1_555
C14 N10 1.450641 1_565
C15 H47 1.094985 1_555
C15 H43 1.099247 1_555
C15 H39 1.101317 1_555
C15 N11 1.450641 1_455
N16 O8 1.249022 1_555
N16 O0 1.274898 1_555
N16 O4 1.287632 1_554
N17 O9 1.249022 1_555
N17 O1 1.274898 1_555
N17 O5 1.287632 1_555
N18 O10 1.249022 1_555
N18 O2 1.274898 1_555
N18 O6 1.287632 1_556
N19 O11 1.249022 1_555
N19 O3 1.274898 1_555
N19 O7 1.287632 1_555
