# generated using pymatgen
data_Tb3S3N
_symmetry_space_group_name_H-M   'P 1'
_cell_length_a   3.84090993
_cell_length_b   11.97909123
_cell_length_c   12.89910936
_cell_angle_alpha   90.00000000
_cell_angle_beta   90.00000000
_cell_angle_gamma   90.00000000
_symmetry_Int_Tables_number   1
_chemical_formula_structural   Tb3S3N
_chemical_formula_sum   'Tb12 S12 N4'
_cell_volume   593.49589601
_cell_formula_units_Z   4
loop_
 _symmetry_equiv_pos_site_id
 _symmetry_equiv_pos_as_xyz
  1  'x, y, z'
loop_
 _atom_site_type_symbol
 _atom_site_label
 _atom_site_symmetry_multiplicity
 _atom_site_fract_x
 _atom_site_fract_y
 _atom_site_fract_z
 _atom_site_occupancy
  Tb  Tb0  1  0.25000000  0.54782713  0.64324298  1
  Tb  Tb1  1  0.75000000  0.45217287  0.35675702  1
  Tb  Tb2  1  0.25000000  0.04782713  0.85675702  1
  Tb  Tb3  1  0.75000000  0.95217287  0.14324298  1
  Tb  Tb4  1  0.25000000  0.71134817  0.35996025  1
  Tb  Tb5  1  0.75000000  0.28865183  0.64003975  1
  Tb  Tb6  1  0.25000000  0.21134817  0.14003975  1
  Tb  Tb7  1  0.75000000  0.78865183  0.85996025  1
  Tb  Tb8  1  0.25000000  0.06626602  0.36785889  1
  Tb  Tb9  1  0.75000000  0.93373398  0.63214111  1
  Tb  Tb10  1  0.25000000  0.56626602  0.13214111  1
  Tb  Tb11  1  0.75000000  0.43373398  0.86785889  1
  S  S0  1  0.75000000  0.72411803  0.19162531  1
  S  S1  1  0.75000000  0.90685094  0.39984261  1
  S  S2  1  0.25000000  0.59314906  0.89984261  1
  S  S3  1  0.25000000  0.09314906  0.60015739  1
  S  S4  1  0.25000000  0.86689707  0.99066347  1
  S  S5  1  0.75000000  0.13310293  0.00933653  1
  S  S6  1  0.25000000  0.36689707  0.50933653  1
  S  S7  1  0.75000000  0.63310293  0.49066347  1
  S  S8  1  0.25000000  0.27588197  0.80837469  1
  S  S9  1  0.75000000  0.22411803  0.30837469  1
  S  S10  1  0.25000000  0.77588197  0.69162531  1
  S  S11  1  0.75000000  0.40685094  0.10015739  1
  N  N0  1  0.75000000  0.96503650  0.79841801  1
  N  N1  1  0.25000000  0.53496350  0.29841801  1
  N  N2  1  0.75000000  0.46503650  0.70158199  1
  N  N3  1  0.25000000  0.03496350  0.20158199  1
loop_
_geom_bond_atom_site_label_1
_geom_bond_atom_site_label_2
_geom_bond_distance
_geom_bond_site_symmetry_2
S0 Tb10 2.802227 1_555
S0 Tb10 2.802227 1_655
S0 Tb3 2.802268 1_555
S0 Tb4 2.902826 1_555
S0 Tb4 2.902826 1_655
S1 Tb8 2.739545 1_565
S1 Tb8 2.739545 1_665
S1 Tb9 3.013699 1_555
S1 Tb4 3.072053 1_555
S1 Tb4 3.072053 1_655
S1 Tb3 3.354138 1_555
S2 Tb11 2.739545 1_455
S2 Tb11 2.739545 1_555
S2 Tb10 3.013699 1_556
S2 Tb7 3.072053 1_455
S2 Tb7 3.072053 1_555
S2 Tb0 3.354138 1_555
S3 Tb9 2.739545 1_545
S3 Tb9 2.739545 1_445
S3 Tb8 3.013699 1_555
S3 Tb5 3.072053 1_455
S3 Tb5 3.072053 1_555
S3 Tb2 3.354138 1_555
S4 Tb7 2.721973 1_455
S4 Tb7 2.721973 1_555
S4 Tb2 2.771462 1_565
S4 Tb3 2.933469 1_456
S4 Tb3 2.933469 1_556
S5 Tb6 2.721973 1_655
S5 Tb6 2.721973 1_555
S5 Tb3 2.771462 1_545
S5 Tb2 2.933469 1_554
S5 Tb2 2.933469 1_654
S6 Tb5 2.721973 1_555
S6 Tb5 2.721973 1_455
S6 Tb0 2.771462 1_555
S6 Tb1 2.933469 1_455
S6 Tb1 2.933469 1_555
S7 Tb4 2.721973 1_555
S7 Tb4 2.721973 1_655
S7 Tb1 2.771462 1_555
S7 Tb0 2.933469 1_655
S7 Tb0 2.933469 1_555
S8 Tb11 2.802227 1_555
S8 Tb11 2.802227 1_455
S8 Tb2 2.802268 1_555
S8 Tb5 2.902826 1_455
S8 Tb5 2.902826 1_555
S9 Tb8 2.802227 1_555
S9 Tb8 2.802227 1_655
S9 Tb1 2.802268 1_555
S9 Tb6 2.902826 1_655
S9 Tb6 2.902826 1_555
S10 Tb9 2.802227 1_455
S10 Tb9 2.802227 1_555
S10 Tb0 2.802268 1_555
S10 Tb7 2.902826 1_555
S10 Tb7 2.902826 1_455
S11 Tb10 2.739545 1_655
S11 Tb10 2.739545 1_555
S11 Tb11 3.013699 1_554
S11 Tb6 3.072053 1_655
S11 Tb6 3.072053 1_555
S11 Tb1 3.354138 1_555
N0 Tb9 2.177355 1_555
N0 Tb7 2.257132 1_555
N0 Tb2 2.288671 1_665
N0 Tb2 2.288671 1_565
N1 Tb10 2.177355 1_555
N1 Tb4 2.257132 1_555
N1 Tb1 2.288671 1_555
N1 Tb1 2.288671 1_455
N2 Tb11 2.177355 1_555
N2 Tb5 2.257132 1_555
N2 Tb0 2.288671 1_655
N2 Tb0 2.288671 1_555
N3 Tb8 2.177355 1_555
N3 Tb6 2.257132 1_555
N3 Tb3 2.288671 1_545
N3 Tb3 2.288671 1_445
