# generated using pymatgen
data_BaSrLiNdTlCu2O7
_symmetry_space_group_name_H-M   'P 1'
_cell_length_a   3.94781620
_cell_length_b   4.34958629
_cell_length_c   12.29871755
_cell_angle_alpha   85.00981581
_cell_angle_beta   87.74053393
_cell_angle_gamma   87.93584825
_symmetry_Int_Tables_number   1
_chemical_formula_structural   BaSrLiNdTlCu2O7
_chemical_formula_sum   'Ba1 Sr1 Li1 Nd1 Tl1 Cu2 O7'
_cell_volume   210.10906357
_cell_formula_units_Z   1
loop_
 _symmetry_equiv_pos_site_id
 _symmetry_equiv_pos_as_xyz
  1  'x, y, z'
loop_
 _atom_site_type_symbol
 _atom_site_label
 _atom_site_symmetry_multiplicity
 _atom_site_fract_x
 _atom_site_fract_y
 _atom_site_fract_z
 _atom_site_occupancy
  Ba  Ba0  1  0.51040600  0.57764000  0.81299100  1
  Sr  Sr0  1  0.45666600  0.48331000  0.22036500  1
  Li  Li0  1  0.24363200  0.17017700  0.45594300  1
  Nd  Nd0  1  0.61284900  0.62603100  0.52304100  1
  Tl  Tl0  1  0.98230200  0.07418900  0.01199500  1
  Cu  Cu0  1  0.03311100  0.10084100  0.65490900  1
  Cu  Cu1  1  0.93567600  0.94377300  0.32716700  1
  O  O0  1  0.52865500  0.11450600  0.59843400  1
  O  O1  1  0.06722400  0.60705000  0.63669100  1
  O  O2  1  0.43456300  0.91965600  0.35547200  1
  O  O3  1  0.93331300  0.41201700  0.37629700  1
  O  O4  1  0.99218900  0.03314700  0.83382100  1
  O  O5  1  0.95193300  0.82917000  0.16900200  1
  O  O6  1  0.46748200  0.35615900  0.01866500  1
loop_
_geom_bond_atom_site_label_1
_geom_bond_atom_site_label_2
_geom_bond_distance
_geom_bond_site_symmetry_2
Ba0 O6 2.628553 1_556
Ba0 O4 2.816281 1_465
Ba0 O4 2.829629 1_565
Ba0 O1 2.830827 1_555
Ba0 O4 2.983372 1_555
Ba0 O1 3.024246 1_655
Ba0 O4 3.172085 1_455
Li0 O2 1.839571 1_545
Li0 O3 1.841024 1_455
Li0 O0 2.111371 1_555
Nd0 O1 2.311958 1_655
Nd0 O0 2.364443 1_555
Nd0 O3 2.398261 1_555
Nd0 O0 2.398334 1_565
Nd0 O2 2.442429 1_555
Nd0 O1 2.521049 1_555
Cu0 O0 2.051143 1_555
Cu0 O0 2.131992 1_455
Cu0 O1 2.177574 1_545
Cu0 O4 2.194809 1_455
Cu0 O1 2.202139 1_555
Cu1 O2 2.000040 1_555
Cu1 O2 2.010970 1_655
Cu1 O5 2.047693 1_555
Cu1 O3 2.173818 1_565
Cu1 O3 2.339393 1_555
O2 Sr0 2.626037 1_555
O2 Sr0 2.841580 1_565
O3 Sr0 2.730179 1_555
O3 Sr0 2.770022 1_655
O4 Tl0 2.212701 1_556
O5 Tl0 2.124098 1_565
O5 Sr0 2.520025 1_655
O5 Sr0 2.536568 1_555
O6 Tl0 2.319223 1_455
O6 Tl0 2.338037 1_555
O6 Sr0 2.586493 1_555
