# generated using pymatgen
data_B13P2
_symmetry_space_group_name_H-M   'P 1'
_cell_length_a   8.40946129
_cell_length_b   8.40946129
_cell_length_c   8.40946076
_cell_angle_alpha   33.48914148
_cell_angle_beta   33.48914148
_cell_angle_gamma   33.48913731
_symmetry_Int_Tables_number   1
_chemical_formula_structural   B13P2
_chemical_formula_sum   'B13 P2'
_cell_volume   161.26087038
_cell_formula_units_Z   1
loop_
 _symmetry_equiv_pos_site_id
 _symmetry_equiv_pos_as_xyz
  1  'x, y, z'
loop_
 _atom_site_type_symbol
 _atom_site_label
 _atom_site_symmetry_multiplicity
 _atom_site_fract_x
 _atom_site_fract_y
 _atom_site_fract_z
 _atom_site_occupancy
  B  B0  1  0.50000000  0.50000000  0.50000000  1
  B  B1  1  0.81959000  0.43297800  0.43297800  1
  B  B2  1  0.43297800  0.43297800  0.81959000  1
  B  B3  1  0.43297800  0.81959000  0.43297800  1
  B  B4  1  0.56702200  0.18041000  0.56702200  1
  B  B5  1  0.18041000  0.56702200  0.56702200  1
  B  B6  1  0.56702200  0.56702200  0.18041000  1
  B  B7  1  0.90064600  0.28030100  0.28030100  1
  B  B8  1  0.28030100  0.28030100  0.90064600  1
  B  B9  1  0.28030100  0.90064600  0.28030100  1
  B  B10  1  0.71969900  0.09935400  0.71969900  1
  B  B11  1  0.09935400  0.71969900  0.71969900  1
  B  B12  1  0.71969900  0.71969900  0.09935400  1
  P  P0  1  0.27393400  0.27393400  0.27393400  1
  P  P1  1  0.72606600  0.72606600  0.72606600  1
loop_
_geom_bond_atom_site_label_1
_geom_bond_atom_site_label_2
_geom_bond_distance
_geom_bond_site_symmetry_2
B0 B10 1.762491 1_555
B0 B11 1.762491 1_555
B0 B7 1.762491 1_555
B0 B9 1.762491 1_555
B0 B12 1.762492 1_555
B0 B8 1.762492 1_555
B0 B6 1.826215 1_555
B0 B2 1.826215 1_555
B0 B5 1.826215 1_555
B0 B4 1.826215 1_555
B0 B1 1.826215 1_555
B0 B3 1.826215 1_555
B1 B3 1.873376 1_555
B1 B2 1.873377 1_555
B1 B7 1.895170 1_555
B1 B12 1.913090 1_555
B1 B10 1.913090 1_555
B1 P0 2.027904 1_655
B2 B3 1.873377 1_555
B2 B8 1.895170 1_555
B2 P0 2.027903 1_556
B3 B9 1.895170 1_555
B3 P0 2.027904 1_565
B4 B5 1.873376 1_555
B4 B6 1.873377 1_555
B4 B8 1.913090 1_555
B4 B7 1.913090 1_555
B4 P1 2.027904 1_545
B5 B6 1.873377 1_555
B5 B8 1.913090 1_555
B5 B9 1.913090 1_555
B5 P1 2.027904 1_455
B6 B7 1.913090 1_555
B6 B9 1.913090 1_555
B6 P1 2.027903 1_554
B7 B9 1.839665 1_645
B7 B8 1.839666 1_654
B8 B9 1.839666 1_546
B10 B11 1.839665 1_645
B10 B12 1.839666 1_546
B10 B8 1.841118 1_555
B10 B7 1.841118 1_555
B10 B4 1.895170 1_555
B10 B2 1.913090 1_555
B11 B12 1.839666 1_456
B11 B8 1.841118 1_555
B11 B9 1.841118 1_555
B11 B5 1.895170 1_555
B11 B2 1.913090 1_555
B11 B3 1.913090 1_555
B12 B7 1.841118 1_555
B12 B9 1.841118 1_555
B12 B6 1.895170 1_555
B12 B3 1.913090 1_555
