# generated using pymatgen
data_MgAg14(PbO3)6
_symmetry_space_group_name_H-M   'P 1'
_cell_length_a   9.14519850
_cell_length_b   8.84335671
_cell_length_c   8.85130488
_cell_angle_alpha   73.84827235
_cell_angle_beta   108.96442869
_cell_angle_gamma   108.89866957
_symmetry_Int_Tables_number   1
_chemical_formula_structural   MgAg14(PbO3)6
_chemical_formula_sum   'Mg1 Ag14 Pb6 O18'
_cell_volume   628.41717068
_cell_formula_units_Z   1
loop_
 _symmetry_equiv_pos_site_id
 _symmetry_equiv_pos_as_xyz
  1  'x, y, z'
loop_
 _atom_site_type_symbol
 _atom_site_label
 _atom_site_symmetry_multiplicity
 _atom_site_fract_x
 _atom_site_fract_y
 _atom_site_fract_z
 _atom_site_occupancy
  Mg  Mg0  1  0.83336802  0.11750897  0.21569997  1
  Ag  Ag0  1  0.82546849  0.17263675  0.64736339  1
  Ag  Ag1  1  0.17028022  0.33453992  0.82757475  1
  Ag  Ag2  1  0.66453608  0.83414114  0.83522218  1
  Ag  Ag3  1  0.49726312  0.99593314  0.50214228  1
  Ag  Ag4  1  0.11073744  0.89204902  0.90059638  1
  Ag  Ag5  1  0.24895523  0.72956276  0.74309811  1
  Ag  Ag6  1  0.41683792  0.59024311  0.60256952  1
  Ag  Ag7  1  0.55400720  0.43257782  0.43959975  1
  Ag  Ag8  1  0.69233177  0.32760669  0.26904858  1
  Ag  Ag9  1  0.97449284  0.06326875  0.00695636  1
  Ag  Ag10  1  0.00144738  0.49749282  0.50043595  1
  Ag  Ag11  1  0.84081418  0.68605065  0.16040613  1
  Ag  Ag12  1  0.16921239  0.83243950  0.33671055  1
  Ag  Ag13  1  0.49511429  0.50616394  0.99766753  1
  Pb  Pb0  1  0.50624630  0.16075065  0.84401912  1
  Pb  Pb1  1  0.83274533  0.49178391  0.84114649  1
  Pb  Pb2  1  0.16687377  0.16078573  0.50096500  1
  Pb  Pb3  1  0.83318609  0.81877252  0.51426686  1
  Pb  Pb4  1  0.16020190  0.48913703  0.17272388  1
  Pb  Pb5  1  0.49913544  0.83324525  0.17213698  1
  O  O0  1  0.77098786  0.21924567  0.85025853  1
  O  O1  1  0.56571957  0.43425568  0.82428426  1
  O  O2  1  0.89216828  0.10519820  0.46614710  1
  O  O3  1  0.23736978  0.14603174  0.77782473  1
  O  O4  1  0.84941815  0.76504366  0.78651863  1
  O  O5  1  0.47633557  0.88612928  0.89813941  1
  O  O6  1  0.09971148  0.50812267  0.89888144  1
  O  O7  1  0.43166596  0.17823028  0.56253751  1
  O  O8  1  0.81561935  0.54597502  0.56831488  1
  O  O9  1  0.59626121  0.11613784  0.12506225  1
  O  O10  1  0.18937476  0.43453216  0.44783597  1
  O  O11  1  0.89515008  0.48368908  0.11329507  1
  O  O12  1  0.56216513  0.81037114  0.44526471  1
  O  O13  1  0.07059556  0.20695474  0.21809273  1
  O  O14  1  0.77412923  0.86746673  0.22781487  1
  O  O15  1  0.42892559  0.55625041  0.18643091  1
  O  O16  1  0.10429556  0.88813975  0.52269134  1
  O  O17  1  0.23484647  0.77211292  0.15481589  1
loop_
_geom_bond_atom_site_label_1
_geom_bond_atom_site_label_2
_geom_bond_distance
_geom_bond_site_symmetry_2
Mg0 O13 2.049544 1_655
Mg0 O9 2.050214 1_555
Mg0 O14 2.079492 1_545
Mg0 O2 2.084229 1_555
Ag0 O2 2.168957 1_555
Ag0 O0 2.183982 1_555
Ag1 O3 2.143824 1_555
Ag1 O6 2.148669 1_555
Ag2 O4 2.169688 1_555
Ag2 O5 2.182160 1_555
Ag3 O7 2.135175 1_565
Ag3 O12 2.140886 1_555
Ag4 O17 2.295320 1_556
Ag4 O4 2.305659 1_455
Ag4 O3 2.311244 1_565
Ag5 O5 2.337018 1_555
Ag5 O16 2.350515 1_555
Ag5 O6 2.364006 1_555
Ag6 O10 2.332617 1_555
Ag6 O12 2.348046 1_555
Ag6 O1 2.362586 1_555
Ag7 O7 2.300982 1_555
Ag7 O15 2.303687 1_555
Ag7 O8 2.310297 1_555
Ag8 O9 2.329663 1_555
Ag8 O11 2.488168 1_555
Ag9 O13 2.325888 1_655
Ag9 O0 2.492151 1_554
Ag10 O8 2.170677 1_455
Ag10 O10 2.182806 1_555
Ag11 O14 2.169018 1_555
Ag11 O11 2.179271 1_555
Ag12 O17 2.133174 1_555
Ag12 O16 2.140268 1_555
Ag13 O15 2.144044 1_556
Ag13 O1 2.151635 1_555
O0 Pb1 2.274642 1_555
O0 Pb0 2.291313 1_555
O1 Pb0 2.269573 1_555
O1 Pb1 2.290206 1_555
O2 Pb2 2.330027 1_655
O2 Pb3 2.356332 1_545
O3 Pb2 2.299498 1_555
O3 Pb0 2.303314 1_555
O4 Pb3 2.287139 1_555
O4 Pb1 2.292558 1_555
O5 Pb0 2.282509 1_565
O5 Pb5 2.290725 1_556
O6 Pb4 2.274106 1_556
O6 Pb1 2.290061 1_455
O7 Pb2 2.265358 1_555
O7 Pb0 2.333686 1_555
O8 Pb3 2.287216 1_555
O8 Pb1 2.290179 1_555
O9 Pb0 2.314050 1_554
O9 Pb5 2.332877 1_545
O10 Pb2 2.287086 1_555
O10 Pb4 2.289335 1_555
O11 Pb1 2.273867 1_554
O11 Pb4 2.294401 1_655
O12 Pb5 2.261722 1_555
O12 Pb3 2.333187 1_555
O13 Pb4 2.321997 1_555
O13 Pb2 2.332844 1_555
O14 Pb5 2.333120 1_555
O14 Pb3 2.357736 1_555
O15 Pb5 2.300034 1_555
O15 Pb4 2.303879 1_555
O16 Pb2 2.257794 1_565
O16 Pb3 2.334327 1_455
O17 Pb5 2.261939 1_555
O17 Pb4 2.344450 1_555
