# generated using pymatgen
data_Tb5SbPd2
_symmetry_space_group_name_H-M   'P 1'
_cell_length_a   8.76760489
_cell_length_b   8.76760489
_cell_length_c   8.76760489
_cell_angle_alpha   126.95841970
_cell_angle_beta   126.95841970
_cell_angle_gamma   78.31853151
_symmetry_Int_Tables_number   1
_chemical_formula_structural   Tb5SbPd2
_chemical_formula_sum   'Tb10 Sb2 Pd4'
_cell_volume   416.78478797
_cell_formula_units_Z   2
loop_
 _symmetry_equiv_pos_site_id
 _symmetry_equiv_pos_as_xyz
  1  'x, y, z'
loop_
 _atom_site_type_symbol
 _atom_site_label
 _atom_site_symmetry_multiplicity
 _atom_site_fract_x
 _atom_site_fract_y
 _atom_site_fract_z
 _atom_site_occupancy
  Tb  Tb0  1  0.00000000  0.00000000  0.00000000  1
  Tb  Tb1  1  0.50000000  0.50000000  0.00000000  1
  Tb  Tb2  1  0.79899300  0.29899300  0.81312400  1
  Tb  Tb3  1  0.20100700  0.70100700  0.18687600  1
  Tb  Tb4  1  0.48587000  0.98587000  0.18687600  1
  Tb  Tb5  1  0.29899300  0.48587000  0.50000000  1
  Tb  Tb6  1  0.01413000  0.20100700  0.50000000  1
  Tb  Tb7  1  0.51413000  0.01413000  0.81312400  1
  Tb  Tb8  1  0.70100700  0.51413000  0.50000000  1
  Tb  Tb9  1  0.98587000  0.79899300  0.50000000  1
  Sb  Sb0  1  0.25000000  0.25000000  0.00000000  1
  Sb  Sb1  1  0.75000000  0.75000000  0.00000000  1
  Pd  Pd0  1  0.13654800  0.63654800  0.77309700  1
  Pd  Pd1  1  0.86345200  0.36345200  0.22690300  1
  Pd  Pd2  1  0.63654800  0.86345200  0.50000000  1
  Pd  Pd3  1  0.36345200  0.13654800  0.50000000  1
loop_
_geom_bond_atom_site_label_1
_geom_bond_atom_site_label_2
_geom_bond_distance
_geom_bond_site_symmetry_2
Sb0 Tb4 3.297416 1_545
Sb0 Tb7 3.297416 1_554
Sb0 Tb8 3.297421 1_555
Sb0 Tb6 3.297421 1_554
Sb0 Tb9 3.297421 1_444
Sb0 Tb5 3.297421 1_555
Sb0 Tb3 3.297422 1_555
Sb0 Tb2 3.297422 1_454
Sb0 Tb1 3.399173 1_555
Sb0 Tb0 3.399173 1_555
Sb1 Tb4 3.297416 1_555
Sb1 Tb7 3.297416 1_564
Sb1 Tb8 3.297421 1_554
Sb1 Tb6 3.297421 1_665
Sb1 Tb9 3.297421 1_555
Sb1 Tb5 3.297421 1_554
Sb1 Tb2 3.297422 1_554
Sb1 Tb3 3.297422 1_655
Sb1 Tb0 3.399173 1_665
Sb1 Tb1 3.399173 1_555
Pd0 Tb3 2.999770 1_556
Pd0 Tb4 2.999787 1_556
Pd0 Tb6 3.006995 1_555
Pd0 Tb8 3.006995 1_455
Pd0 Tb9 3.007003 1_455
Pd0 Tb5 3.007003 1_555
Pd0 Tb1 3.039990 1_556
Pd0 Tb0 3.039990 1_566
Pd1 Tb2 2.999770 1_554
Pd1 Tb7 2.999787 1_554
Pd1 Tb9 3.006995 1_555
Pd1 Tb5 3.006995 1_655
Pd1 Tb6 3.007003 1_655
Pd1 Tb8 3.007003 1_555
Pd1 Tb1 3.039990 1_555
Pd1 Tb0 3.039990 1_655
Pd2 Tb8 2.999787 1_555
Pd2 Tb9 2.999787 1_555
Pd2 Tb2 3.006995 1_565
Pd2 Tb3 3.006995 1_555
Pd2 Tb7 3.007004 1_565
Pd2 Tb4 3.007004 1_555
Pd2 Tb1 3.039992 1_555
Pd2 Tb0 3.039992 1_666
Pd3 Tb5 2.999787 1_555
Pd3 Tb6 2.999787 1_555
Pd3 Tb2 3.006995 1_555
Pd3 Tb3 3.006995 1_545
Pd3 Tb7 3.007004 1_555
Pd3 Tb4 3.007004 1_545
Pd3 Tb1 3.039992 1_556
Pd3 Tb0 3.039992 1_555
