# generated using pymatgen
data_LiMg2
_symmetry_space_group_name_H-M   'P 1'
_cell_length_a   16.64764608
_cell_length_b   16.64764608
_cell_length_c   10.01735758
_cell_angle_alpha   90.00000000
_cell_angle_beta   90.00000000
_cell_angle_gamma   158.19363527
_symmetry_Int_Tables_number   1
_chemical_formula_structural   LiMg2
_chemical_formula_sum   'Li16 Mg32'
_cell_volume   1031.29694384
_cell_formula_units_Z   16
loop_
 _symmetry_equiv_pos_site_id
 _symmetry_equiv_pos_as_xyz
  1  'x, y, z'
loop_
 _atom_site_type_symbol
 _atom_site_label
 _atom_site_symmetry_multiplicity
 _atom_site_fract_x
 _atom_site_fract_y
 _atom_site_fract_z
 _atom_site_occupancy
  Li  Li0_0  1  0.05542296  0.44457704  0.25000000  1
  Li  Li0_1  1  0.05542296  0.44457704  0.75000000  1
  Li  Li0_2  1  0.05542296  0.94457704  0.25000000  1
  Li  Li0_3  1  0.05542296  0.94457704  0.75000000  1
  Li  Li0_4  1  0.55542296  0.44457704  0.25000000  1
  Li  Li0_5  1  0.55542296  0.44457704  0.75000000  1
  Li  Li0_6  1  0.55542296  0.94457704  0.25000000  1
  Li  Li0_7  1  0.55542296  0.94457704  0.75000000  1
  Li  Li1_0  1  0.38878619  0.11121381  0.25000000  1
  Li  Li1_1  1  0.38878619  0.11121381  0.75000000  1
  Li  Li1_2  1  0.38878619  0.61121381  0.25000000  1
  Li  Li1_3  1  0.38878619  0.61121381  0.75000000  1
  Li  Li1_4  1  0.88878619  0.11121381  0.25000000  1
  Li  Li1_5  1  0.88878619  0.11121381  0.75000000  1
  Li  Li1_6  1  0.88878619  0.61121381  0.25000000  1
  Li  Li1_7  1  0.88878619  0.61121381  0.75000000  1
  Mg  Mg0_0  1  0.00097617  0.49902383  0.00000000  1
  Mg  Mg0_1  1  0.00097617  0.49902383  0.50000000  1
  Mg  Mg0_2  1  0.00097617  0.99902383  0.00000000  1
  Mg  Mg0_3  1  0.00097617  0.99902383  0.50000000  1
  Mg  Mg0_4  1  0.50097617  0.49902383  0.00000000  1
  Mg  Mg0_5  1  0.50097617  0.49902383  0.50000000  1
  Mg  Mg0_6  1  0.50097617  0.99902383  0.00000000  1
  Mg  Mg0_7  1  0.50097617  0.99902383  0.50000000  1
  Mg  Mg1_0  1  0.16572123  0.33427877  0.00000000  1
  Mg  Mg1_1  1  0.16572123  0.33427877  0.50000000  1
  Mg  Mg1_2  1  0.16572123  0.83427877  0.00000000  1
  Mg  Mg1_3  1  0.16572123  0.83427877  0.50000000  1
  Mg  Mg1_4  1  0.66572123  0.33427877  0.00000000  1
  Mg  Mg1_5  1  0.66572123  0.33427877  0.50000000  1
  Mg  Mg1_6  1  0.66572123  0.83427877  0.00000000  1
  Mg  Mg1_7  1  0.66572123  0.83427877  0.50000000  1
  Mg  Mg2_0  1  0.33362740  0.16637260  0.00000000  1
  Mg  Mg2_1  1  0.33362740  0.16637260  0.50000000  1
  Mg  Mg2_2  1  0.33362740  0.66637260  0.00000000  1
  Mg  Mg2_3  1  0.33362740  0.66637260  0.50000000  1
  Mg  Mg2_4  1  0.83362740  0.16637260  0.00000000  1
  Mg  Mg2_5  1  0.83362740  0.16637260  0.50000000  1
  Mg  Mg2_6  1  0.83362740  0.66637260  0.00000000  1
  Mg  Mg2_7  1  0.83362740  0.66637260  0.50000000  1
  Mg  Mg3_0  1  0.22213255  0.27786745  0.25000000  1
  Mg  Mg3_1  1  0.22213255  0.27786745  0.75000000  1
  Mg  Mg3_2  1  0.22213255  0.77786745  0.25000000  1
  Mg  Mg3_3  1  0.22213255  0.77786745  0.75000000  1
  Mg  Mg3_4  1  0.72213255  0.27786745  0.25000000  1
  Mg  Mg3_5  1  0.72213255  0.27786745  0.75000000  1
  Mg  Mg3_6  1  0.72213255  0.77786745  0.25000000  1
  Mg  Mg3_7  1  0.72213255  0.77786745  0.75000000  1
loop_
_geom_bond_atom_site_label_1
_geom_bond_atom_site_label_2
_geom_bond_distance
_geom_bond_site_symmetry_2
Li0_0 Mg0_0 3.072533 1_555
Li0_0 Mg0_1 3.072533 1_555
Li0_0 Mg2_3 3.098536 1_555
Li0_0 Mg2_4 3.098536 1_455
Li0_0 Mg2_5 3.098536 1_455
Li0_0 Mg2_2 3.098536 1_555
Li0_0 Mg3_2 3.145515 1_555
Li0_0 Mg3_4 3.145515 1_455
Li0_0 Li1_2 3.147576 1_555
Li0_0 Li1_4 3.147576 1_455
Li0_0 Li0_6 3.148902 1_555
Li0_0 Li0_6 3.148902 1_445
Li0_1 Mg0_1 3.072533 1_555
Li0_1 Mg0_0 3.072533 1_556
Li0_1 Mg2_2 3.098536 1_556
Li0_1 Mg2_4 3.098536 1_456
Li0_1 Mg2_3 3.098536 1_555
Li0_1 Mg2_5 3.098536 1_455
Li0_1 Mg3_5 3.145515 1_455
Li0_1 Mg3_3 3.145515 1_555
Li0_1 Li1_3 3.147576 1_555
Li0_1 Li1_5 3.147576 1_455
Li0_1 Li0_7 3.148902 1_445
Li0_1 Li0_7 3.148902 1_555
Li0_2 Mg0_2 3.072533 1_555
Li0_2 Mg0_3 3.072533 1_555
Li0_2 Mg2_7 3.098536 1_455
Li0_2 Mg2_6 3.098536 1_455
Li0_2 Mg2_1 3.098536 1_565
Li0_2 Mg2_0 3.098536 1_565
Li0_2 Mg3_6 3.145515 1_455
Li0_2 Mg3_0 3.145515 1_565
Li0_2 Li1_0 3.147576 1_565
Li0_2 Li1_6 3.147576 1_455
Li0_2 Li0_4 3.148902 1_455
Li0_2 Li0_4 3.148902 1_565
Li0_3 Mg0_2 3.072533 1_556
Li0_3 Mg0_3 3.072533 1_555
Li0_3 Mg2_7 3.098536 1_455
Li0_3 Mg2_6 3.098536 1_456
Li0_3 Mg2_1 3.098536 1_565
Li0_3 Mg2_0 3.098536 1_566
Li0_3 Mg3_7 3.145515 1_455
Li0_3 Mg3_1 3.145515 1_565
Li0_3 Li1_1 3.147576 1_565
Li0_3 Li1_7 3.147576 1_455
Li0_3 Li0_5 3.148902 1_455
Li0_3 Li0_5 3.148902 1_565
Li0_4 Mg0_4 3.072533 1_555
Li0_4 Mg0_5 3.072533 1_555
Li0_4 Mg2_6 3.098536 1_555
Li0_4 Mg2_0 3.098536 1_555
Li0_4 Mg2_7 3.098536 1_555
Li0_4 Mg2_1 3.098536 1_555
Li0_4 Mg3_6 3.145515 1_555
Li0_4 Mg3_0 3.145515 1_555
Li0_4 Li1_0 3.147576 1_555
Li0_4 Li1_6 3.147576 1_555
Li0_5 Mg0_4 3.072533 1_556
Li0_5 Mg0_5 3.072533 1_555
Li0_5 Mg2_6 3.098536 1_556
Li0_5 Mg2_7 3.098536 1_555
Li0_5 Mg2_1 3.098536 1_555
Li0_5 Mg2_0 3.098536 1_556
Li0_5 Mg3_1 3.145515 1_555
Li0_5 Mg3_7 3.145515 1_555
Li0_5 Li1_1 3.147576 1_555
Li0_5 Li1_7 3.147576 1_555
Li0_6 Mg0_7 3.072533 1_555
Li0_6 Mg0_6 3.072533 1_555
Li0_6 Mg2_5 3.098536 1_565
Li0_6 Mg2_4 3.098536 1_565
Li0_6 Mg2_3 3.098536 1_555
Li0_6 Mg2_2 3.098536 1_555
Li0_6 Mg3_4 3.145515 1_565
Li0_6 Mg3_2 3.145515 1_555
Li0_6 Li1_2 3.147576 1_555
Li0_6 Li1_4 3.147576 1_565
Li0_7 Mg0_6 3.072533 1_556
Li0_7 Mg0_7 3.072533 1_555
Li0_7 Mg2_4 3.098536 1_566
Li0_7 Mg2_5 3.098536 1_565
Li0_7 Mg2_2 3.098536 1_556
Li0_7 Mg2_3 3.098536 1_555
Li0_7 Mg3_3 3.145515 1_555
Li0_7 Mg3_5 3.145515 1_565
Li0_7 Li1_3 3.147576 1_555
Li0_7 Li1_5 3.147576 1_565
Li1_0 Mg2_0 3.086078 1_555
Li1_0 Mg2_1 3.086078 1_555
Li1_0 Mg1_5 3.086439 1_555
Li1_0 Mg1_3 3.086439 1_545
Li1_0 Mg1_2 3.086439 1_545
Li1_0 Mg1_4 3.086439 1_555
Li1_0 Mg3_4 3.147099 1_555
Li1_0 Mg3_2 3.147099 1_545
Li1_0 Li1_6 3.148902 1_445
Li1_0 Li1_6 3.148902 1_555
Li1_1 Mg2_0 3.086078 1_556
Li1_1 Mg2_1 3.086078 1_555
Li1_1 Mg1_5 3.086439 1_555
Li1_1 Mg1_3 3.086439 1_545
Li1_1 Mg1_4 3.086439 1_556
Li1_1 Mg1_2 3.086439 1_546
Li1_1 Mg3_5 3.147099 1_555
Li1_1 Mg3_3 3.147099 1_545
Li1_1 Li1_7 3.148902 1_445
Li1_1 Li1_7 3.148902 1_555
Li1_2 Mg2_2 3.086078 1_555
Li1_2 Mg2_3 3.086078 1_555
Li1_2 Mg1_7 3.086439 1_555
Li1_2 Mg1_6 3.086439 1_555
Li1_2 Mg1_0 3.086439 1_555
Li1_2 Mg1_1 3.086439 1_555
Li1_2 Mg3_6 3.147099 1_555
Li1_2 Mg3_0 3.147099 1_555
Li1_2 Li1_4 3.148902 1_565
Li1_2 Li1_4 3.148902 1_455
Li1_3 Mg2_2 3.086078 1_556
Li1_3 Mg2_3 3.086078 1_555
Li1_3 Mg1_7 3.086439 1_555
Li1_3 Mg1_6 3.086439 1_556
Li1_3 Mg1_0 3.086439 1_556
Li1_3 Mg1_1 3.086439 1_555
Li1_3 Mg3_7 3.147099 1_555
Li1_3 Mg3_1 3.147099 1_555
Li1_3 Li1_5 3.148902 1_565
Li1_3 Li1_5 3.148902 1_455
Li1_4 Mg2_5 3.086078 1_555
Li1_4 Mg2_4 3.086078 1_555
Li1_4 Mg1_6 3.086439 1_545
Li1_4 Mg1_0 3.086439 1_655
Li1_4 Mg1_1 3.086439 1_655
Li1_4 Mg1_7 3.086439 1_545
Li1_4 Mg3_0 3.147099 1_655
Li1_4 Mg3_6 3.147099 1_545
Li1_5 Mg2_5 3.086078 1_555
Li1_5 Mg2_4 3.086078 1_556
Li1_5 Mg1_0 3.086439 1_656
Li1_5 Mg1_6 3.086439 1_546
Li1_5 Mg1_1 3.086439 1_655
Li1_5 Mg1_7 3.086439 1_545
Li1_5 Mg3_1 3.147099 1_655
Li1_5 Mg3_7 3.147099 1_545
Li1_6 Mg2_6 3.086078 1_555
Li1_6 Mg2_7 3.086078 1_555
Li1_6 Mg1_2 3.086439 1_655
Li1_6 Mg1_5 3.086439 1_555
Li1_6 Mg1_4 3.086439 1_555
Li1_6 Mg1_3 3.086439 1_655
Li1_6 Mg3_2 3.147099 1_655
Li1_6 Mg3_4 3.147099 1_555
Li1_7 Mg2_6 3.086078 1_556
Li1_7 Mg2_7 3.086078 1_555
Li1_7 Mg1_2 3.086439 1_656
Li1_7 Mg1_4 3.086439 1_556
Li1_7 Mg1_5 3.086439 1_555
Li1_7 Mg1_3 3.086439 1_655
Li1_7 Mg3_3 3.147099 1_655
Li1_7 Mg3_5 3.147099 1_555
Mg0_0 Mg3_5 3.104819 1_454
Mg0_0 Mg3_3 3.104819 1_554
Mg0_0 Mg3_4 3.104819 1_455
Mg0_0 Mg3_2 3.104819 1_555
Mg0_0 Mg2_4 3.127441 1_455
Mg0_0 Mg2_2 3.127441 1_555
Mg0_0 Mg0_6 3.148902 1_555
Mg0_0 Mg0_6 3.148902 1_445
Mg0_0 Mg1_2 3.201280 1_555
Mg0_0 Mg1_4 3.201280 1_455
Mg0_1 Mg3_5 3.104819 1_455
Mg0_1 Mg3_4 3.104819 1_455
Mg0_1 Mg3_2 3.104819 1_555
Mg0_1 Mg3_3 3.104819 1_555
Mg0_1 Mg2_5 3.127441 1_455
Mg0_1 Mg2_3 3.127441 1_555
Mg0_1 Mg0_7 3.148902 1_555
Mg0_1 Mg0_7 3.148902 1_445
Mg0_1 Mg1_3 3.201280 1_555
Mg0_1 Mg1_5 3.201280 1_455
Mg0_2 Mg3_0 3.104819 1_565
Mg0_2 Mg3_6 3.104819 1_455
Mg0_2 Mg3_7 3.104819 1_454
Mg0_2 Mg3_1 3.104819 1_564
Mg0_2 Mg2_6 3.127441 1_455
Mg0_2 Mg2_0 3.127441 1_565
Mg0_2 Mg0_4 3.148902 1_565
Mg0_2 Mg0_4 3.148902 1_455
Mg0_2 Mg1_0 3.201280 1_565
Mg0_2 Mg1_6 3.201280 1_455
Mg0_3 Mg3_0 3.104819 1_565
Mg0_3 Mg3_7 3.104819 1_455
Mg0_3 Mg3_6 3.104819 1_455
Mg0_3 Mg3_1 3.104819 1_565
Mg0_3 Mg2_7 3.127441 1_455
Mg0_3 Mg2_1 3.127441 1_565
Mg0_3 Mg0_5 3.148902 1_565
Mg0_3 Mg0_5 3.148902 1_455
Mg0_3 Mg1_1 3.201280 1_565
Mg0_3 Mg1_7 3.201280 1_455
Mg0_4 Mg3_1 3.104819 1_554
Mg0_4 Mg3_0 3.104819 1_555
Mg0_4 Mg3_6 3.104819 1_555
Mg0_4 Mg3_7 3.104819 1_554
Mg0_4 Mg2_0 3.127441 1_555
Mg0_4 Mg2_6 3.127441 1_555
Mg0_4 Mg1_0 3.201280 1_555
Mg0_4 Mg1_6 3.201280 1_555
Mg0_5 Mg3_0 3.104819 1_555
Mg0_5 Mg3_1 3.104819 1_555
Mg0_5 Mg3_6 3.104819 1_555
Mg0_5 Mg3_7 3.104819 1_555
Mg0_5 Mg2_1 3.127441 1_555
Mg0_5 Mg2_7 3.127441 1_555
Mg0_5 Mg1_1 3.201280 1_555
Mg0_5 Mg1_7 3.201280 1_555
Mg0_6 Mg3_3 3.104819 1_554
Mg0_6 Mg3_2 3.104819 1_555
Mg0_6 Mg3_4 3.104819 1_565
Mg0_6 Mg3_5 3.104819 1_564
Mg0_6 Mg2_4 3.127441 1_565
Mg0_6 Mg2_2 3.127441 1_555
Mg0_6 Mg1_2 3.201280 1_555
Mg0_6 Mg1_4 3.201280 1_565
Mg0_7 Mg3_3 3.104819 1_555
Mg0_7 Mg3_2 3.104819 1_555
Mg0_7 Mg3_4 3.104819 1_565
Mg0_7 Mg3_5 3.104819 1_565
Mg0_7 Mg2_5 3.127441 1_565
Mg0_7 Mg2_3 3.127441 1_555
Mg0_7 Mg1_3 3.201280 1_555
Mg0_7 Mg1_5 3.201280 1_565
Mg1_0 Mg3_0 3.110185 1_555
Mg1_0 Mg3_1 3.110185 1_554
Mg1_0 Mg2_2 3.111709 1_555
Mg1_0 Mg2_4 3.111709 1_455
Mg1_0 Mg1_6 3.148902 1_555
Mg1_0 Mg1_6 3.148902 1_445
Mg1_1 Mg3_0 3.110185 1_555
Mg1_1 Mg3_1 3.110185 1_555
Mg1_1 Mg2_3 3.111709 1_555
Mg1_1 Mg2_5 3.111709 1_455
Mg1_1 Mg1_7 3.148902 1_555
Mg1_1 Mg1_7 3.148902 1_445
Mg1_2 Mg3_3 3.110185 1_554
Mg1_2 Mg3_2 3.110185 1_555
Mg1_2 Mg2_0 3.111709 1_565
Mg1_2 Mg2_6 3.111709 1_455
Mg1_2 Mg1_4 3.148902 1_455
Mg1_2 Mg1_4 3.148902 1_565
Mg1_3 Mg3_3 3.110185 1_555
Mg1_3 Mg3_2 3.110185 1_555
Mg1_3 Mg2_1 3.111709 1_565
Mg1_3 Mg2_7 3.111709 1_455
Mg1_3 Mg1_5 3.148902 1_455
Mg1_3 Mg1_5 3.148902 1_565
Mg1_4 Mg3_4 3.110185 1_555
Mg1_4 Mg3_5 3.110185 1_554
Mg1_4 Mg2_6 3.111709 1_555
Mg1_4 Mg2_0 3.111709 1_555
Mg1_5 Mg3_4 3.110185 1_555
Mg1_5 Mg3_5 3.110185 1_555
Mg1_5 Mg2_7 3.111709 1_555
Mg1_5 Mg2_1 3.111709 1_555
Mg1_6 Mg3_6 3.110185 1_555
Mg1_6 Mg3_7 3.110185 1_554
Mg1_6 Mg2_2 3.111709 1_555
Mg1_6 Mg2_4 3.111709 1_565
Mg1_7 Mg3_6 3.110185 1_555
Mg1_7 Mg3_7 3.110185 1_555
Mg1_7 Mg2_3 3.111709 1_555
Mg1_7 Mg2_5 3.111709 1_565
Mg2_0 Mg2_6 3.148902 1_445
Mg2_0 Mg2_6 3.148902 1_555
Mg2_1 Mg2_7 3.148902 1_555
Mg2_1 Mg2_7 3.148902 1_445
Mg2_2 Mg2_4 3.148902 1_455
Mg2_2 Mg2_4 3.148902 1_565
Mg2_3 Mg2_5 3.148902 1_455
Mg2_3 Mg2_5 3.148902 1_565
Mg3_0 Mg3_6 3.148902 1_445
Mg3_0 Mg3_6 3.148902 1_555
Mg3_1 Mg3_7 3.148902 1_445
Mg3_1 Mg3_7 3.148902 1_555
Mg3_2 Mg3_4 3.148902 1_565
Mg3_2 Mg3_4 3.148902 1_455
Mg3_3 Mg3_5 3.148902 1_455
Mg3_3 Mg3_5 3.148902 1_565
