# generated using pymatgen
data_Nd2Ni12As7
_symmetry_space_group_name_H-M   'P 1'
_cell_length_a   9.36606729
_cell_length_b   9.36606729
_cell_length_c   3.86816400
_cell_angle_alpha   90.00000000
_cell_angle_beta   90.00000000
_cell_angle_gamma   119.99999497
_symmetry_Int_Tables_number   1
_chemical_formula_structural   Nd2Ni12As7
_chemical_formula_sum   'Nd2 Ni12 As7'
_cell_volume   293.86649937
_cell_formula_units_Z   1
loop_
 _symmetry_equiv_pos_site_id
 _symmetry_equiv_pos_as_xyz
  1  'x, y, z'
loop_
 _atom_site_type_symbol
 _atom_site_label
 _atom_site_symmetry_multiplicity
 _atom_site_fract_x
 _atom_site_fract_y
 _atom_site_fract_z
 _atom_site_occupancy
  Nd  Nd0  1  0.66666700  0.33333300  0.00000000  1
  Nd  Nd1  1  0.33333300  0.66666700  0.50000000  1
  Ni  Ni0  1  0.05394600  0.61897200  0.00000000  1
  Ni  Ni1  1  0.56502600  0.94605400  0.00000000  1
  Ni  Ni2  1  0.38102800  0.43497400  0.00000000  1
  Ni  Ni3  1  0.27672200  0.12664300  0.00000000  1
  Ni  Ni4  1  0.84992200  0.72327800  0.00000000  1
  Ni  Ni5  1  0.87335700  0.15007800  0.00000000  1
  Ni  Ni6  1  0.42454600  0.04601500  0.50000000  1
  Ni  Ni7  1  0.62146800  0.57545400  0.50000000  1
  Ni  Ni8  1  0.95398500  0.37853200  0.50000000  1
  Ni  Ni9  1  0.09620400  0.88612900  0.50000000  1
  Ni  Ni10  1  0.78992600  0.90379600  0.50000000  1
  Ni  Ni11  1  0.11387100  0.21007400  0.50000000  1
  As  As0  1  0.28794800  0.88644000  0.00000000  1
  As  As1  1  0.59849300  0.71205200  0.00000000  1
  As  As2  1  0.11356000  0.40150700  0.00000000  1
  As  As3  1  0.40188400  0.29583200  0.50000000  1
  As  As4  1  0.89394800  0.59811600  0.50000000  1
  As  As5  1  0.70416800  0.10605200  0.50000000  1
  As  As6  1  0.00000000  0.00000000  0.00000000  1
loop_
_geom_bond_atom_site_label_1
_geom_bond_atom_site_label_2
_geom_bond_distance
_geom_bond_site_symmetry_2
Nd0 Ni5 3.164846 1_555
Nd0 Ni4 3.164846 1_555
Nd0 Ni3 3.164846 1_555
Nd0 Ni8 3.165812 1_555
Nd0 Ni8 3.165812 1_554
Nd0 Ni6 3.165818 1_554
Nd0 Ni6 3.165818 1_555
Nd0 Ni7 3.165827 1_554
Nd0 Ni7 3.165827 1_555
Nd0 Ni1 3.257352 1_545
Nd0 Ni0 3.257355 1_655
Nd0 Ni2 3.257361 1_555
Nd1 Ni0 3.101403 1_556
Nd1 Ni0 3.101403 1_555
Nd1 Ni1 3.101406 1_555
Nd1 Ni1 3.101406 1_556
Nd1 Ni2 3.101411 1_555
Nd1 Ni2 3.101411 1_556
Nd1 Ni7 3.212209 1_555
Nd1 Ni6 3.212210 1_565
Nd1 Ni8 3.212210 1_455
As0 Ni3 2.304129 1_565
As0 Ni0 2.364037 1_555
As0 Ni1 2.365898 1_555
As0 Ni6 2.387288 1_565
As0 Ni6 2.387288 1_564
As0 Ni9 2.638307 1_555
As0 Ni9 2.638307 1_554
As0 Nd1 3.005561 1_555
As0 Nd1 3.005561 1_554
As1 Ni4 2.304129 1_555
As1 Ni1 2.364043 1_555
As1 Ni2 2.365901 1_555
As1 Ni7 2.387281 1_554
As1 Ni7 2.387281 1_555
As1 Ni10 2.638307 1_554
As1 Ni10 2.638307 1_555
As1 Nd1 3.005575 1_554
As1 Nd1 3.005575 1_555
As2 Ni5 2.304129 1_455
As2 Ni2 2.364034 1_555
As2 Ni0 2.365907 1_555
As2 Ni8 2.387292 1_454
As2 Ni8 2.387292 1_455
As2 Ni11 2.638307 1_554
As2 Ni11 2.638307 1_555
As2 Nd1 3.005570 1_554
As2 Nd1 3.005570 1_555
As3 Ni7 2.387981 1_555
As3 Ni2 2.394110 1_555
As3 Ni2 2.394110 1_556
As3 Ni11 2.399003 1_555
As3 Ni3 2.401738 1_556
As3 Ni3 2.401738 1_555
As3 Ni6 2.452827 1_555
As3 Nd0 3.023782 1_555
As3 Nd0 3.023782 1_556
As4 Ni8 2.387975 1_555
As4 Ni0 2.394110 1_656
As4 Ni0 2.394110 1_655
As4 Ni9 2.399005 1_655
As4 Ni4 2.401734 1_556
As4 Ni4 2.401734 1_555
As4 Ni7 2.452837 1_555
As4 Nd0 3.023780 1_555
As4 Nd0 3.023780 1_556
As5 Ni6 2.387984 1_555
As5 Ni1 2.394110 1_545
As5 Ni1 2.394110 1_546
As5 Ni10 2.399012 1_545
As5 Ni5 2.401739 1_556
As5 Ni5 2.401739 1_555
As5 Ni8 2.452833 1_555
As5 Nd0 3.023775 1_555
As5 Nd0 3.023775 1_556
As6 Ni5 2.247235 1_455
As6 Ni4 2.247243 1_445
As6 Ni3 2.247244 1_555
As6 Ni10 2.578955 1_445
As6 Ni10 2.578955 1_444
As6 Ni11 2.578955 1_554
As6 Ni11 2.578955 1_555
As6 Ni9 2.578960 1_545
As6 Ni9 2.578960 1_544
