# generated using pymatgen
data_MgCo5(P2O7)4
_symmetry_space_group_name_H-M   'P 1'
_cell_length_a   7.47686758
_cell_length_b   7.88967372
_cell_length_c   10.21744932
_cell_angle_alpha   108.81740769
_cell_angle_beta   89.00221428
_cell_angle_gamma   93.61488255
_symmetry_Int_Tables_number   1
_chemical_formula_structural   MgCo5(P2O7)4
_chemical_formula_sum   'Mg1 Co5 P8 O28'
_cell_volume   569.37496123
_cell_formula_units_Z   1
loop_
 _symmetry_equiv_pos_site_id
 _symmetry_equiv_pos_as_xyz
  1  'x, y, z'
loop_
 _atom_site_type_symbol
 _atom_site_label
 _atom_site_symmetry_multiplicity
 _atom_site_fract_x
 _atom_site_fract_y
 _atom_site_fract_z
 _atom_site_occupancy
  Mg  Mg0  1  0.50000000  0.50000000  0.50000000  1
  Co  Co0  1  0.24017579  0.87100243  0.60302746  1
  Co  Co1  1  0.25058655  0.84265447  0.06032724  1
  Co  Co2  1  0.50000000  0.50000000  0.00000000  1
  Co  Co3  1  0.74941345  0.15734553  0.93967276  1
  Co  Co4  1  0.75982421  0.12899757  0.39697254  1
  P  P0  1  0.16207880  0.21193132  0.01953401  1
  P  P1  1  0.18135316  0.19260627  0.30465368  1
  P  P2  1  0.28310340  0.54825639  0.74580391  1
  P  P3  1  0.47559505  0.76879614  0.30715223  1
  P  P4  1  0.52440495  0.23120386  0.69284777  1
  P  P5  1  0.71689560  0.45174361  0.25419609  1
  P  P6  1  0.81864684  0.80739373  0.69534632  1
  P  P7  1  0.83792120  0.78806868  0.98046599  1
  O  O0  1  0.01291051  0.76819745  0.05083921  1
  O  O1  1  0.00779881  0.13389005  0.36286737  1
  O  O2  1  0.10927749  0.44719790  0.73637558  1
  O  O3  1  0.11791368  0.26287206  0.17971293  1
  O  O4  1  0.29759848  0.35372351  0.99966489  1
  O  O5  1  0.29179036  0.34022653  0.40554093  1
  O  O6  1  0.31956101  0.66682524  0.65067930  1
  O  O7  1  0.33446438  0.81610125  0.41853396  1
  O  O8  1  0.35650922  0.64966779  0.89658026  1
  O  O9  1  0.36645876  0.09733317  0.68117092  1
  O  O10  1  0.23196648  0.02295139  0.96479023  1
  O  O11  1  0.39463314  0.70294797  0.15815781  1
  O  O12  1  0.29200439  0.02911128  0.23148215  1
  O  O13  1  0.44980825  0.41324605  0.67736072  1
  O  O14  1  0.55019175  0.58675395  0.32263928  1
  O  O15  1  0.70799561  0.97088872  0.76851785  1
  O  O16  1  0.60536686  0.29705203  0.84184219  1
  O  O17  1  0.76803352  0.97704861  0.03520977  1
  O  O18  1  0.63354124  0.90266683  0.31882908  1
  O  O19  1  0.64349078  0.35033221  0.10341974  1
  O  O20  1  0.66553562  0.18389875  0.58146604  1
  O  O21  1  0.68043899  0.33317476  0.34932070  1
  O  O22  1  0.70820964  0.65977347  0.59445907  1
  O  O23  1  0.70240152  0.64627649  0.00033511  1
  O  O24  1  0.88208632  0.73712794  0.82028707  1
  O  O25  1  0.89072251  0.55280210  0.26362442  1
  O  O26  1  0.99220119  0.86610995  0.63713263  1
  O  O27  1  0.98708949  0.23180255  0.94916079  1
loop_
_geom_bond_atom_site_label_1
_geom_bond_atom_site_label_2
_geom_bond_distance
_geom_bond_site_symmetry_2
Mg0 O5 1.990982 1_555
Mg0 O22 1.990982 1_555
Mg0 O14 2.153459 1_555
Mg0 O13 2.153459 1_555
Mg0 O21 2.183367 1_555
Mg0 O6 2.183367 1_555
Co0 O26 1.880866 1_455
Co0 O9 1.900404 1_565
Co0 O7 1.924456 1_555
Co0 O6 1.954719 1_555
Co1 O0 1.830326 1_555
Co1 O12 1.902629 1_565
Co1 O10 1.980194 1_564
Co1 O8 2.051162 1_554
Co1 O11 2.066883 1_555
Co2 O23 1.843763 1_555
Co2 O4 1.843763 1_554
Co2 O16 2.059456 1_554
Co2 O11 2.059456 1_555
Co2 O8 2.160128 1_554
Co2 O19 2.160128 1_555
Co3 O27 1.830326 1_555
Co3 O15 1.902629 1_545
Co3 O17 1.980194 1_546
Co3 O19 2.051162 1_556
Co3 O16 2.066883 1_555
Co4 O1 1.880866 1_655
Co4 O18 1.900404 1_545
Co4 O20 1.924456 1_555
Co4 O21 1.954719 1_555
O0 P7 1.544273 1_454
O1 P1 1.525559 1_555
O2 P2 1.469111 1_555
O3 P0 1.588295 1_555
O3 P1 1.634856 1_555
O4 P0 1.521775 1_556
O5 P1 1.494906 1_555
O6 P2 1.561798 1_555
O7 P3 1.510542 1_555
O8 P2 1.579115 1_555
O9 P4 1.513519 1_555
O10 P0 1.535912 1_556
O11 P3 1.560801 1_555
O12 P1 1.548616 1_555
O13 P4 1.627774 1_555
O13 P2 1.683382 1_555
O14 P3 1.627774 1_555
O14 P5 1.683376 1_555
O15 P6 1.548616 1_555
O16 P4 1.560801 1_555
O17 P7 1.535912 1_554
O18 P3 1.513519 1_555
O19 P5 1.579113 1_555
O20 P4 1.510542 1_555
O21 P5 1.561797 1_555
O22 P6 1.494906 1_555
O23 P7 1.521775 1_554
O24 P7 1.588295 1_555
O24 P6 1.634856 1_555
O25 P5 1.469117 1_555
O26 P6 1.525559 1_555
O27 P0 1.544273 1_656
