# generated using pymatgen
data_Ce2Si2HRu
_symmetry_space_group_name_H-M   'P 1'
_cell_length_a   5.47927000
_cell_length_b   5.47927000
_cell_length_c   29.40089200
_cell_angle_alpha   90.00000000
_cell_angle_beta   90.00000000
_cell_angle_gamma   90.00000000
_symmetry_Int_Tables_number   1
_chemical_formula_structural   Ce2Si2HRu
_chemical_formula_sum   'Ce16 Si16 H8 Ru8'
_cell_volume   882.68533213
_cell_formula_units_Z   8
loop_
 _symmetry_equiv_pos_site_id
 _symmetry_equiv_pos_as_xyz
  1  'x, y, z'
loop_
 _atom_site_type_symbol
 _atom_site_label
 _atom_site_symmetry_multiplicity
 _atom_site_fract_x
 _atom_site_fract_y
 _atom_site_fract_z
 _atom_site_occupancy
  Ce  Ce0_0  1  0.25000000  0.25000000  0.07107100  1
  Ce  Ce0_1  1  0.25000000  0.25000000  0.57107100  1
  Ce  Ce0_2  1  0.25000000  0.75000000  0.07107100  1
  Ce  Ce0_3  1  0.25000000  0.75000000  0.57107100  1
  Ce  Ce0_4  1  0.75000000  0.25000000  0.07107100  1
  Ce  Ce0_5  1  0.75000000  0.25000000  0.57107100  1
  Ce  Ce0_6  1  0.75000000  0.75000000  0.07107100  1
  Ce  Ce0_7  1  0.75000000  0.75000000  0.57107100  1
  Ce  Ce1_0  1  0.25000000  0.25000000  0.42892900  1
  Ce  Ce1_1  1  0.25000000  0.25000000  0.92892900  1
  Ce  Ce1_2  1  0.25000000  0.75000000  0.42892900  1
  Ce  Ce1_3  1  0.25000000  0.75000000  0.92892900  1
  Ce  Ce1_4  1  0.75000000  0.25000000  0.42892900  1
  Ce  Ce1_5  1  0.75000000  0.25000000  0.92892900  1
  Ce  Ce1_6  1  0.75000000  0.75000000  0.42892900  1
  Ce  Ce1_7  1  0.75000000  0.75000000  0.92892900  1
  Si  Si0_0  1  0.25000000  0.25000000  0.32971200  1
  Si  Si0_1  1  0.25000000  0.25000000  0.82971200  1
  Si  Si0_2  1  0.25000000  0.75000000  0.32971200  1
  Si  Si0_3  1  0.25000000  0.75000000  0.82971200  1
  Si  Si0_4  1  0.75000000  0.25000000  0.32971200  1
  Si  Si0_5  1  0.75000000  0.25000000  0.82971200  1
  Si  Si0_6  1  0.75000000  0.75000000  0.32971200  1
  Si  Si0_7  1  0.75000000  0.75000000  0.82971200  1
  Si  Si1_0  1  0.25000000  0.25000000  0.17028800  1
  Si  Si1_1  1  0.25000000  0.25000000  0.67028800  1
  Si  Si1_2  1  0.25000000  0.75000000  0.17028800  1
  Si  Si1_3  1  0.25000000  0.75000000  0.67028800  1
  Si  Si1_4  1  0.75000000  0.25000000  0.17028800  1
  Si  Si1_5  1  0.75000000  0.25000000  0.67028800  1
  Si  Si1_6  1  0.75000000  0.75000000  0.17028800  1
  Si  Si1_7  1  0.75000000  0.75000000  0.67028800  1
  H  H0_0  1  0.25000000  0.25000000  0.00000000  1
  H  H0_1  1  0.25000000  0.25000000  0.50000000  1
  H  H0_2  1  0.25000000  0.75000000  0.00000000  1
  H  H0_3  1  0.25000000  0.75000000  0.50000000  1
  H  H0_4  1  0.75000000  0.25000000  0.00000000  1
  H  H0_5  1  0.75000000  0.25000000  0.50000000  1
  H  H0_6  1  0.75000000  0.75000000  0.00000000  1
  H  H0_7  1  0.75000000  0.75000000  0.50000000  1
  Ru  Ru0_0  1  0.25000000  0.25000000  0.25000000  1
  Ru  Ru0_1  1  0.25000000  0.25000000  0.75000000  1
  Ru  Ru0_2  1  0.25000000  0.75000000  0.25000000  1
  Ru  Ru0_3  1  0.25000000  0.75000000  0.75000000  1
  Ru  Ru0_4  1  0.75000000  0.25000000  0.25000000  1
  Ru  Ru0_5  1  0.75000000  0.25000000  0.75000000  1
  Ru  Ru0_6  1  0.75000000  0.75000000  0.25000000  1
  Ru  Ru0_7  1  0.75000000  0.75000000  0.75000000  1
loop_
_geom_bond_atom_site_label_1
_geom_bond_atom_site_label_2
_geom_bond_distance
_geom_bond_site_symmetry_2
Ce0_0 H0_0 2.089551 1_555
Ce0_0 Si1_0 2.917068 1_555
Ce0_1 H0_1 2.089551 1_555
Ce0_1 Si1_1 2.917068 1_555
Ce0_2 H0_2 2.089551 1_555
Ce0_2 Si1_2 2.917068 1_555
Ce0_3 H0_3 2.089551 1_555
Ce0_3 Si1_3 2.917068 1_555
Ce0_4 H0_4 2.089551 1_555
Ce0_4 Si1_4 2.917068 1_555
Ce0_5 H0_5 2.089551 1_555
Ce0_5 Si1_5 2.917068 1_555
Ce0_6 H0_6 2.089551 1_555
Ce0_6 Si1_6 2.917068 1_555
Ce0_7 H0_7 2.089551 1_555
Ce0_7 Si1_7 2.917068 1_555
Ce1_0 H0_1 2.089551 1_555
Ce1_0 Si0_0 2.917068 1_555
Ce1_1 H0_0 2.089551 1_556
Ce1_1 Si0_1 2.917068 1_555
Ce1_2 H0_3 2.089551 1_555
Ce1_2 Si0_2 2.917068 1_555
Ce1_3 H0_2 2.089551 1_556
Ce1_3 Si0_3 2.917068 1_555
Ce1_4 H0_5 2.089551 1_555
Ce1_4 Si0_4 2.917068 1_555
Ce1_5 H0_4 2.089551 1_556
Ce1_5 Si0_5 2.917068 1_555
Ce1_6 H0_7 2.089551 1_555
Ce1_6 Si0_6 2.917068 1_555
Ce1_7 H0_6 2.089551 1_556
Ce1_7 Si0_7 2.917068 1_555
Si0_0 Si0_4 2.739635 1_455
Si0_0 Si0_4 2.739635 1_555
Si0_0 Si0_2 2.739635 1_545
Si0_0 Si0_2 2.739635 1_555
Si0_1 Si0_3 2.739635 1_555
Si0_1 Si0_5 2.739635 1_555
Si0_1 Si0_5 2.739635 1_455
Si0_1 Si0_3 2.739635 1_545
Si0_2 Si0_6 2.739635 1_555
Si0_2 Si0_6 2.739635 1_455
Si0_3 Si0_7 2.739635 1_555
Si0_3 Si0_7 2.739635 1_455
Si0_4 Si0_6 2.739635 1_555
Si0_4 Si0_6 2.739635 1_545
Si0_5 Si0_7 2.739635 1_555
Si0_5 Si0_7 2.739635 1_545
Si1_0 Si1_2 2.739635 1_555
Si1_0 Si1_2 2.739635 1_545
Si1_0 Si1_4 2.739635 1_555
Si1_0 Si1_4 2.739635 1_455
Si1_1 Si1_5 2.739635 1_455
Si1_1 Si1_5 2.739635 1_555
Si1_1 Si1_3 2.739635 1_555
Si1_1 Si1_3 2.739635 1_545
Si1_2 Si1_6 2.739635 1_555
Si1_2 Si1_6 2.739635 1_455
Si1_3 Si1_7 2.739635 1_555
Si1_3 Si1_7 2.739635 1_455
Si1_4 Si1_6 2.739635 1_545
Si1_4 Si1_6 2.739635 1_555
Si1_5 Si1_7 2.739635 1_555
Si1_5 Si1_7 2.739635 1_545
Ru0_0 Si0_0 2.343604 1_555
Ru0_0 Si1_0 2.343604 1_555
Ru0_1 Si0_1 2.343604 1_555
Ru0_1 Si1_1 2.343604 1_555
Ru0_2 Si0_2 2.343604 1_555
Ru0_2 Si1_2 2.343604 1_555
Ru0_3 Si1_3 2.343604 1_555
Ru0_3 Si0_3 2.343604 1_555
Ru0_4 Si1_4 2.343604 1_555
Ru0_4 Si0_4 2.343604 1_555
Ru0_5 Si1_5 2.343604 1_555
Ru0_5 Si0_5 2.343604 1_555
Ru0_6 Si1_6 2.343604 1_555
Ru0_6 Si0_6 2.343604 1_555
Ru0_7 Si0_7 2.343604 1_555
Ru0_7 Si1_7 2.343604 1_555
