# generated using pymatgen
data_MgSiNiO4
_symmetry_space_group_name_H-M   'P 1'
_cell_length_a   4.79560800
_cell_length_b   6.01790700
_cell_length_c   10.23055100
_cell_angle_alpha   90.00000000
_cell_angle_beta   90.00000000
_cell_angle_gamma   90.00000000
_symmetry_Int_Tables_number   1
_chemical_formula_structural   MgSiNiO4
_chemical_formula_sum   'Mg4 Si4 Ni4 O16'
_cell_volume   295.24882140
_cell_formula_units_Z   4
loop_
 _symmetry_equiv_pos_site_id
 _symmetry_equiv_pos_as_xyz
  1  'x, y, z'
loop_
 _atom_site_type_symbol
 _atom_site_label
 _atom_site_symmetry_multiplicity
 _atom_site_fract_x
 _atom_site_fract_y
 _atom_site_fract_z
 _atom_site_occupancy
  Mg  Mg0  1  0.50000000  0.00000000  0.50000000  1
  Mg  Mg1  1  0.00000000  0.50000000  0.00000000  1
  Mg  Mg2  1  0.50000000  0.50000000  0.50000000  1
  Mg  Mg3  1  0.00000000  0.00000000  0.00000000  1
  Si  Si0  1  0.92796700  0.75000000  0.59435800  1
  Si  Si1  1  0.57203300  0.75000000  0.09435800  1
  Si  Si2  1  0.07203300  0.25000000  0.40564200  1
  Si  Si3  1  0.42796700  0.25000000  0.90564200  1
  Ni  Ni0  1  0.49243200  0.75000000  0.77434100  1
  Ni  Ni1  1  0.00756800  0.75000000  0.27434100  1
  Ni  Ni2  1  0.50756800  0.25000000  0.22565900  1
  Ni  Ni3  1  0.99243200  0.25000000  0.72565900  1
  O  O0  1  0.71978700  0.75000000  0.94599300  1
  O  O1  1  0.78021300  0.75000000  0.44599300  1
  O  O2  1  0.28021300  0.25000000  0.05400700  1
  O  O3  1  0.21978700  0.25000000  0.55400700  1
  O  O4  1  0.26760300  0.75000000  0.59223100  1
  O  O5  1  0.23239700  0.75000000  0.09223100  1
  O  O6  1  0.73239700  0.25000000  0.40776900  1
  O  O7  1  0.76760300  0.25000000  0.90776900  1
  O  O8  1  0.77482100  0.96882400  0.66249200  1
  O  O9  1  0.72517900  0.53117600  0.16249200  1
  O  O10  1  0.22517900  0.46882400  0.33750800  1
  O  O11  1  0.27482100  0.03117600  0.83750800  1
  O  O12  1  0.22517900  0.03117600  0.33750800  1
  O  O13  1  0.27482100  0.46882400  0.83750800  1
  O  O14  1  0.77482100  0.53117600  0.66249200  1
  O  O15  1  0.72517900  0.96882400  0.16249200  1
loop_
_geom_bond_atom_site_label_1
_geom_bond_atom_site_label_2
_geom_bond_distance
_geom_bond_site_symmetry_2
Mg0 O1 2.091532 1_545
Mg0 O3 2.091532 1_555
Mg0 O6 2.096630 1_555
Mg0 O4 2.096630 1_545
Mg0 O12 2.129710 1_555
Mg0 O8 2.129710 1_545
Mg1 O2 2.091532 1_555
Mg1 O0 2.091532 1_454
Mg1 O5 2.096630 1_555
Mg1 O7 2.096630 1_454
Mg1 O9 2.129710 1_455
Mg1 O13 2.129710 1_554
Mg2 O1 2.091532 1_555
Mg2 O3 2.091532 1_555
Mg2 O4 2.096630 1_555
Mg2 O6 2.096630 1_555
Mg2 O14 2.129710 1_555
Mg2 O10 2.129710 1_555
Mg3 O2 2.091532 1_555
Mg3 O0 2.091532 1_444
Mg3 O5 2.096630 1_545
Mg3 O7 2.096630 1_454
Mg3 O15 2.129710 1_445
Mg3 O11 2.129710 1_554
Ni0 O0 2.067035 1_555
Ni0 O11 2.090417 1_565
Ni0 O13 2.090417 1_555
Ni0 O4 2.152576 1_555
Ni0 O8 2.208490 1_555
Ni0 O14 2.208490 1_555
Ni1 O1 2.067035 1_455
Ni1 O12 2.090417 1_565
Ni1 O10 2.090417 1_555
Ni1 O5 2.152576 1_555
Ni1 O15 2.208490 1_455
Ni1 O9 2.208490 1_455
Ni2 O2 2.067035 1_555
Ni2 O9 2.090417 1_555
Ni2 O15 2.090417 1_545
Ni2 O6 2.152576 1_555
Ni2 O10 2.208490 1_555
Ni2 O12 2.208490 1_555
Ni3 O3 2.067035 1_655
Ni3 O14 2.090417 1_555
Ni3 O8 2.090417 1_545
Ni3 O7 2.152576 1_555
Ni3 O13 2.208490 1_655
Ni3 O11 2.208490 1_655
O0 Si1 1.675099 1_556
O1 Si0 1.675099 1_555
O2 Si3 1.675099 1_554
O3 Si2 1.675099 1_555
O4 Si0 1.628906 1_455
O5 Si1 1.628906 1_555
O6 Si2 1.628906 1_655
O7 Si3 1.628906 1_555
O8 Si0 1.661141 1_555
O9 Si1 1.661141 1_555
O10 Si2 1.661141 1_555
O11 Si3 1.661141 1_555
O12 Si2 1.661141 1_555
O13 Si3 1.661141 1_555
O14 Si0 1.661141 1_555
O15 Si1 1.661141 1_555
