# generated using pymatgen
data_CsMg3
_symmetry_space_group_name_H-M   'P 1'
_cell_length_a   7.50520800
_cell_length_b   9.80151400
_cell_length_c   16.86903400
_cell_angle_alpha   90.00000000
_cell_angle_beta   90.00000000
_cell_angle_gamma   90.00000000
_symmetry_Int_Tables_number   1
_chemical_formula_structural   CsMg3
_chemical_formula_sum   'Cs8 Mg24'
_cell_volume   1240.92664840
_cell_formula_units_Z   8
loop_
 _symmetry_equiv_pos_site_id
 _symmetry_equiv_pos_as_xyz
  1  'x, y, z'
loop_
 _atom_site_type_symbol
 _atom_site_label
 _atom_site_symmetry_multiplicity
 _atom_site_fract_x
 _atom_site_fract_y
 _atom_site_fract_z
 _atom_site_occupancy
  Cs  Cs0_0  1  0.25000000  0.00000000  0.06879650  1
  Cs  Cs0_1  1  0.25000000  0.00000000  0.56879650  1
  Cs  Cs0_2  1  0.25000000  0.50000000  0.06879650  1
  Cs  Cs0_3  1  0.25000000  0.50000000  0.56879650  1
  Cs  Cs0_4  1  0.75000000  0.00000000  0.06879650  1
  Cs  Cs0_5  1  0.75000000  0.00000000  0.56879650  1
  Cs  Cs0_6  1  0.75000000  0.50000000  0.06879650  1
  Cs  Cs0_7  1  0.75000000  0.50000000  0.56879650  1
  Mg  Mg0_0  1  0.00000000  0.00000000  0.33209450  1
  Mg  Mg0_1  1  0.00000000  0.00000000  0.83209450  1
  Mg  Mg0_2  1  0.00000000  0.50000000  0.33209450  1
  Mg  Mg0_3  1  0.00000000  0.50000000  0.83209450  1
  Mg  Mg0_4  1  0.50000000  0.00000000  0.33209450  1
  Mg  Mg0_5  1  0.50000000  0.00000000  0.83209450  1
  Mg  Mg0_6  1  0.50000000  0.50000000  0.33209450  1
  Mg  Mg0_7  1  0.50000000  0.50000000  0.83209450  1
  Mg  Mg1_0  1  0.00000000  0.25000000  0.22459000  1
  Mg  Mg1_1  1  0.00000000  0.25000000  0.72459000  1
  Mg  Mg1_2  1  0.00000000  0.75000000  0.22459000  1
  Mg  Mg1_3  1  0.00000000  0.75000000  0.72459000  1
  Mg  Mg1_4  1  0.50000000  0.25000000  0.22459000  1
  Mg  Mg1_5  1  0.50000000  0.25000000  0.72459000  1
  Mg  Mg1_6  1  0.50000000  0.75000000  0.22459000  1
  Mg  Mg1_7  1  0.50000000  0.75000000  0.72459000  1
  Mg  Mg2_0  1  0.25000000  0.25000000  0.37451900  1
  Mg  Mg2_1  1  0.25000000  0.25000000  0.87451900  1
  Mg  Mg2_2  1  0.25000000  0.75000000  0.37451900  1
  Mg  Mg2_3  1  0.25000000  0.75000000  0.87451900  1
  Mg  Mg2_4  1  0.75000000  0.25000000  0.37451900  1
  Mg  Mg2_5  1  0.75000000  0.25000000  0.87451900  1
  Mg  Mg2_6  1  0.75000000  0.75000000  0.37451900  1
  Mg  Mg2_7  1  0.75000000  0.75000000  0.87451900  1
loop_
_geom_bond_atom_site_label_1
_geom_bond_atom_site_label_2
_geom_bond_distance
_geom_bond_site_symmetry_2
Cs0_0 Cs0_4 3.752604 1_455
Cs0_0 Cs0_4 3.752604 1_555
Cs0_0 Mg1_0 4.053603 1_555
Cs0_0 Mg1_6 4.053603 1_545
Cs0_0 Mg1_4 4.053603 1_555
Cs0_0 Mg1_2 4.053603 1_545
Cs0_0 Mg2_3 4.092051 1_544
Cs0_0 Mg2_1 4.092051 1_554
Cs0_1 Cs0_5 3.752604 1_455
Cs0_1 Cs0_5 3.752604 1_555
Cs0_1 Mg1_3 4.053603 1_545
Cs0_1 Mg1_5 4.053603 1_555
Cs0_1 Mg1_1 4.053603 1_555
Cs0_1 Mg1_7 4.053603 1_545
Cs0_1 Mg2_2 4.092051 1_545
Cs0_1 Mg2_0 4.092051 1_555
Cs0_2 Cs0_6 3.752604 1_455
Cs0_2 Cs0_6 3.752604 1_555
Cs0_2 Mg1_0 4.053603 1_555
Cs0_2 Mg1_4 4.053603 1_555
Cs0_2 Mg1_2 4.053603 1_555
Cs0_2 Mg1_6 4.053603 1_555
Cs0_2 Mg2_3 4.092051 1_554
Cs0_2 Mg2_1 4.092051 1_554
Cs0_3 Cs0_7 3.752604 1_455
Cs0_3 Cs0_7 3.752604 1_555
Cs0_3 Mg1_5 4.053603 1_555
Cs0_3 Mg1_1 4.053603 1_555
Cs0_3 Mg1_7 4.053603 1_555
Cs0_3 Mg1_3 4.053603 1_555
Cs0_3 Mg2_2 4.092051 1_555
Cs0_3 Mg2_0 4.092051 1_555
Cs0_4 Mg1_0 4.053603 1_655
Cs0_4 Mg1_2 4.053603 1_645
Cs0_4 Mg1_4 4.053603 1_555
Cs0_4 Mg1_6 4.053603 1_545
Cs0_4 Mg2_7 4.092051 1_544
Cs0_4 Mg2_5 4.092051 1_554
Cs0_5 Mg1_3 4.053603 1_645
Cs0_5 Mg1_1 4.053603 1_655
Cs0_5 Mg1_7 4.053603 1_545
Cs0_5 Mg1_5 4.053603 1_555
Cs0_5 Mg2_6 4.092051 1_545
Cs0_5 Mg2_4 4.092051 1_555
Cs0_6 Mg1_2 4.053603 1_655
Cs0_6 Mg1_0 4.053603 1_655
Cs0_6 Mg1_4 4.053603 1_555
Cs0_6 Mg1_6 4.053603 1_555
Cs0_6 Mg2_7 4.092051 1_554
Cs0_6 Mg2_5 4.092051 1_554
Cs0_7 Mg1_3 4.053603 1_655
Cs0_7 Mg1_1 4.053603 1_655
Cs0_7 Mg1_7 4.053603 1_555
Cs0_7 Mg1_5 4.053603 1_555
Cs0_7 Mg2_6 4.092051 1_555
Cs0_7 Mg2_4 4.092051 1_555
Mg0_0 Mg1_2 3.048463 1_545
Mg0_0 Mg1_0 3.048463 1_555
Mg0_0 Mg2_4 3.168128 1_455
Mg0_0 Mg2_6 3.168128 1_445
Mg0_0 Mg2_2 3.168128 1_545
Mg0_0 Mg2_0 3.168128 1_555
Mg0_1 Mg1_3 3.048463 1_545
Mg0_1 Mg1_1 3.048463 1_555
Mg0_1 Mg2_7 3.168128 1_445
Mg0_1 Mg2_5 3.168128 1_455
Mg0_1 Mg2_1 3.168128 1_555
Mg0_1 Mg2_3 3.168128 1_545
Mg0_2 Mg1_2 3.048463 1_555
Mg0_2 Mg1_0 3.048463 1_555
Mg0_2 Mg2_4 3.168128 1_455
Mg0_2 Mg2_6 3.168128 1_455
Mg0_2 Mg2_2 3.168128 1_555
Mg0_2 Mg2_0 3.168128 1_555
Mg0_3 Mg1_3 3.048463 1_555
Mg0_3 Mg1_1 3.048463 1_555
Mg0_3 Mg2_5 3.168128 1_455
Mg0_3 Mg2_7 3.168128 1_455
Mg0_3 Mg2_1 3.168128 1_555
Mg0_3 Mg2_3 3.168128 1_555
Mg0_4 Mg1_6 3.048463 1_545
Mg0_4 Mg1_4 3.048463 1_555
Mg0_4 Mg2_2 3.168128 1_545
Mg0_4 Mg2_0 3.168128 1_555
Mg0_4 Mg2_4 3.168128 1_555
Mg0_4 Mg2_6 3.168128 1_545
Mg0_5 Mg1_5 3.048463 1_555
Mg0_5 Mg1_7 3.048463 1_545
Mg0_5 Mg2_1 3.168128 1_555
Mg0_5 Mg2_3 3.168128 1_545
Mg0_5 Mg2_5 3.168128 1_555
Mg0_5 Mg2_7 3.168128 1_545
Mg0_6 Mg1_4 3.048463 1_555
Mg0_6 Mg1_6 3.048463 1_555
Mg0_6 Mg2_2 3.168128 1_555
Mg0_6 Mg2_0 3.168128 1_555
Mg0_6 Mg2_6 3.168128 1_555
Mg0_6 Mg2_4 3.168128 1_555
Mg0_7 Mg1_5 3.048463 1_555
Mg0_7 Mg1_7 3.048463 1_555
Mg0_7 Mg2_1 3.168128 1_555
Mg0_7 Mg2_3 3.168128 1_555
Mg0_7 Mg2_5 3.168128 1_555
Mg0_7 Mg2_7 3.168128 1_555
Mg1_0 Mg2_4 3.149150 1_455
Mg1_0 Mg2_0 3.149150 1_555
Mg1_1 Mg2_5 3.149150 1_455
Mg1_1 Mg2_1 3.149150 1_555
Mg1_2 Mg2_6 3.149150 1_455
Mg1_2 Mg2_2 3.149150 1_555
Mg1_3 Mg2_7 3.149150 1_455
Mg1_3 Mg2_3 3.149150 1_555
Mg1_4 Mg2_0 3.149150 1_555
Mg1_4 Mg2_4 3.149150 1_555
Mg1_5 Mg2_1 3.149150 1_555
Mg1_5 Mg2_5 3.149150 1_555
Mg1_6 Mg2_2 3.149150 1_555
Mg1_6 Mg2_6 3.149150 1_555
Mg1_7 Mg2_3 3.149150 1_555
Mg1_7 Mg2_7 3.149150 1_555
