# generated using pymatgen
data_PuP2H6(CO3)2
_symmetry_space_group_name_H-M   'P 1'
_cell_length_a   8.03513814
_cell_length_b   9.50528198
_cell_length_c   10.72563501
_cell_angle_alpha   90.00000000
_cell_angle_beta   90.00000000
_cell_angle_gamma   92.75636154
_symmetry_Int_Tables_number   1
_chemical_formula_structural   PuP2H6(CO3)2
_chemical_formula_sum   'Pu4 P8 H24 C8 O24'
_cell_volume   818.23606958
_cell_formula_units_Z   4
loop_
 _symmetry_equiv_pos_site_id
 _symmetry_equiv_pos_as_xyz
  1  'x, y, z'
loop_
 _atom_site_type_symbol
 _atom_site_label
 _atom_site_symmetry_multiplicity
 _atom_site_fract_x
 _atom_site_fract_y
 _atom_site_fract_z
 _atom_site_occupancy
  Pu  Pu0  1  0.08015254  0.26699226  0.39355743  1
  Pu  Pu1  1  0.91984746  0.23300774  0.89355743  1
  Pu  Pu2  1  0.91984746  0.73300774  0.60644257  1
  Pu  Pu3  1  0.08015254  0.76699226  0.10644257  1
  P  P0  1  0.18107992  0.05733143  0.65579596  1
  P  P1  1  0.81892008  0.44266857  0.15579596  1
  P  P2  1  0.81892008  0.94266857  0.34420404  1
  P  P3  1  0.18107992  0.55733143  0.84420404  1
  P  P4  1  0.23098633  0.61917334  0.38717480  1
  P  P5  1  0.76901367  0.88082666  0.88717480  1
  P  P6  1  0.76901367  0.38082666  0.61282520  1
  P  P7  1  0.23098633  0.11917334  0.11282520  1
  H  H0  1  0.35868128  0.95360173  0.80267183  1
  H  H1  1  0.64131872  0.54639827  0.30267183  1
  H  H2  1  0.64131872  0.04639827  0.19732817  1
  H  H3  1  0.35868128  0.45360173  0.69732817  1
  H  H4  1  0.44796026  0.95552828  0.65144207  1
  H  H5  1  0.55203974  0.54447172  0.15144207  1
  H  H6  1  0.55203974  0.04447172  0.34855793  1
  H  H7  1  0.44796026  0.45552828  0.84855793  1
  H  H8  1  0.45367252  0.11162225  0.74142459  1
  H  H9  1  0.54632748  0.38837775  0.24142459  1
  H  H10  1  0.54632748  0.88837775  0.25857541  1
  H  H11  1  0.45367252  0.61162225  0.75857541  1
  H  H12  1  0.37840157  0.82108059  0.46559656  1
  H  H13  1  0.62159843  0.67891941  0.96559656  1
  H  H14  1  0.62159843  0.17891941  0.53440344  1
  H  H15  1  0.37840157  0.32108059  0.03440344  1
  H  H16  1  0.39201539  0.67537264  0.56830509  1
  H  H17  1  0.60798461  0.82462736  0.06830509  1
  H  H18  1  0.60798461  0.32462736  0.43169491  1
  H  H19  1  0.39201539  0.17537264  0.93169491  1
  H  H20  1  0.51671503  0.68630451  0.43232827  1
  H  H21  1  0.48328497  0.81369549  0.93232827  1
  H  H22  1  0.48328497  0.31369549  0.56767173  1
  H  H23  1  0.51671503  0.18630451  0.06767173  1
  C  C0  1  0.37874678  0.01645969  0.71836530  1
  C  C1  1  0.62125322  0.48354031  0.21836530  1
  C  C2  1  0.62125322  0.98354031  0.28163470  1
  C  C3  1  0.37874678  0.51645969  0.78163470  1
  C  C4  1  0.39545413  0.70808706  0.47100938  1
  C  C5  1  0.60454587  0.79191294  0.97100938  1
  C  C6  1  0.60454587  0.29191294  0.52899062  1
  C  C7  1  0.39545413  0.20808706  0.02899062  1
  O  O0  1  0.21329285  0.15533918  0.54423246  1
  O  O1  1  0.78670715  0.34466082  0.04423246  1
  O  O2  1  0.78670715  0.84466082  0.45576754  1
  O  O3  1  0.21329285  0.65533918  0.95576754  1
  O  O4  1  0.08246456  0.12784350  0.75832064  1
  O  O5  1  0.91753544  0.37215650  0.25832064  1
  O  O6  1  0.91753544  0.87215650  0.24167936  1
  O  O7  1  0.08246456  0.62784350  0.74167936  1
  O  O8  1  0.09446827  0.91838331  0.61488073  1
  O  O9  1  0.90553173  0.58161669  0.11488073  1
  O  O10  1  0.90553173  0.08161669  0.38511927  1
  O  O11  1  0.09446827  0.41838331  0.88511927  1
  O  O12  1  0.25377156  0.46025299  0.39224053  1
  O  O13  1  0.74622844  0.03974701  0.89224053  1
  O  O14  1  0.74622844  0.53974701  0.60775947  1
  O  O15  1  0.25377156  0.96025299  0.10775947  1
  O  O16  1  0.06562102  0.65331021  0.44870239  1
  O  O17  1  0.93437898  0.84668979  0.94870239  1
  O  O18  1  0.93437898  0.34668979  0.55129761  1
  O  O19  1  0.06562102  0.15331021  0.05129761  1
  O  O20  1  0.23822388  0.67353569  0.25257886  1
  O  O21  1  0.76177612  0.82646431  0.75257886  1
  O  O22  1  0.76177612  0.32646431  0.74742114  1
  O  O23  1  0.23822388  0.17353569  0.24742114  1
loop_
_geom_bond_atom_site_label_1
_geom_bond_atom_site_label_2
_geom_bond_distance
_geom_bond_site_symmetry_2
C0 H8 1.090619 1_555
C0 H4 1.091301 1_545
C0 H0 1.091498 1_545
C0 P0 1.784175 1_555
C1 H9 1.090619 1_555
C1 H5 1.091301 1_555
C1 H1 1.091498 1_555
C1 P1 1.784175 1_555
C2 H10 1.090619 1_555
C2 H6 1.091301 1_565
C2 H2 1.091498 1_565
C2 P2 1.784175 1_555
C3 H11 1.090619 1_555
C3 H7 1.091301 1_555
C3 H3 1.091498 1_555
C3 P3 1.784175 1_555
C4 H20 1.088003 1_555
C4 H16 1.088874 1_555
C4 H12 1.090803 1_555
C4 P4 1.778145 1_555
C5 H21 1.088003 1_555
C5 H17 1.088874 1_556
C5 H13 1.090803 1_555
C5 P5 1.778145 1_555
C6 H22 1.088003 1_555
C6 H18 1.088874 1_555
C6 H14 1.090803 1_555
C6 P6 1.778145 1_555
C7 H23 1.088003 1_555
C7 H19 1.088874 1_554
C7 H15 1.090803 1_555
C7 P7 1.778145 1_555
O0 P0 1.530847 1_555
O0 Pu0 2.234222 1_555
O1 P1 1.530847 1_555
O1 Pu1 2.234222 1_554
O2 P2 1.530847 1_555
O2 Pu2 2.234222 1_555
O3 P3 1.530847 1_555
O3 Pu3 2.234222 1_556
O4 P0 1.528852 1_555
O4 Pu1 2.221743 1_455
O5 P1 1.528852 1_555
O5 Pu0 2.221743 1_655
O6 P2 1.528852 1_555
O6 Pu3 2.221743 1_655
O7 P3 1.528852 1_555
O7 Pu2 2.221743 1_455
O8 P0 1.527372 1_565
O8 Pu2 2.200889 1_455
O9 P1 1.527372 1_555
O9 Pu3 2.200889 1_655
O10 P2 1.527372 1_545
O10 Pu0 2.200889 1_655
O11 P3 1.527372 1_555
O11 Pu1 2.200889 1_455
O12 P4 1.531317 1_555
O12 Pu0 2.252655 1_555
O13 P5 1.531317 1_545
O13 Pu1 2.252655 1_555
O14 P6 1.531317 1_555
O14 Pu2 2.252655 1_555
O15 P7 1.531317 1_565
O15 Pu3 2.252655 1_555
O16 P4 1.532248 1_555
O16 Pu2 2.212146 1_455
O17 P5 1.532248 1_555
O17 Pu3 2.212146 1_656
O18 P6 1.532248 1_555
O18 Pu0 2.212146 1_655
O19 P7 1.532248 1_555
O19 Pu1 2.212146 1_454
O20 P4 1.533480 1_555
O20 Pu3 2.228817 1_555
O21 P5 1.533480 1_555
O21 Pu2 2.228817 1_555
O22 P6 1.533480 1_555
O22 Pu1 2.228817 1_555
O23 P7 1.533480 1_555
O23 Pu0 2.228817 1_555
