# generated using pymatgen
data_HfMg6Al
_symmetry_space_group_name_H-M   'P 1'
_cell_length_a   4.92674300
_cell_length_b   6.36822700
_cell_length_c   10.99252200
_cell_angle_alpha   90.00000000
_cell_angle_beta   90.00000000
_cell_angle_gamma   90.00000000
_symmetry_Int_Tables_number   1
_chemical_formula_structural   HfMg6Al
_chemical_formula_sum   'Hf2 Mg12 Al2'
_cell_volume   344.88617635
_cell_formula_units_Z   2
loop_
 _symmetry_equiv_pos_site_id
 _symmetry_equiv_pos_as_xyz
  1  'x, y, z'
loop_
 _atom_site_type_symbol
 _atom_site_label
 _atom_site_symmetry_multiplicity
 _atom_site_fract_x
 _atom_site_fract_y
 _atom_site_fract_z
 _atom_site_occupancy
  Hf  Hf0  1  0.50000000  0.50000000  0.17451500  1
  Hf  Hf1  1  0.50000000  0.00000000  0.67451500  1
  Mg  Mg0  1  0.00000000  0.25148500  0.08382500  1
  Mg  Mg1  1  0.00000000  0.74851500  0.08382500  1
  Mg  Mg2  1  0.00000000  0.50000000  0.83282000  1
  Mg  Mg3  1  0.50000000  0.24655900  0.91806700  1
  Mg  Mg4  1  0.50000000  0.75344100  0.91806700  1
  Mg  Mg5  1  0.50000000  0.50000000  0.66632900  1
  Mg  Mg6  1  0.00000000  0.75148500  0.58382500  1
  Mg  Mg7  1  0.00000000  0.24851500  0.58382500  1
  Mg  Mg8  1  0.00000000  0.00000000  0.33282000  1
  Mg  Mg9  1  0.50000000  0.74655900  0.41806700  1
  Mg  Mg10  1  0.50000000  0.25344100  0.41806700  1
  Mg  Mg11  1  0.50000000  0.00000000  0.16632900  1
  Al  Al0  1  0.00000000  0.50000000  0.32255200  1
  Al  Al1  1  0.00000000  0.00000000  0.82255200  1
loop_
_geom_bond_atom_site_label_1
_geom_bond_atom_site_label_2
_geom_bond_distance
_geom_bond_site_symmetry_2
Hf0 Mg0 3.093001 1_555
Hf0 Mg0 3.093001 1_655
Hf0 Mg1 3.093001 1_555
Hf0 Mg1 3.093001 1_655
Hf0 Mg9 3.103711 1_555
Hf0 Mg10 3.103711 1_555
Hf0 Mg11 3.185385 1_555
Hf0 Mg11 3.185385 1_565
Hf0 Mg3 3.248341 1_554
Hf0 Mg4 3.248341 1_554
Hf1 Mg7 3.093001 1_555
Hf1 Mg7 3.093001 1_655
Hf1 Mg6 3.093001 1_645
Hf1 Mg6 3.093001 1_545
Hf1 Mg4 3.103711 1_545
Hf1 Mg3 3.103711 1_555
Hf1 Mg5 3.185385 1_545
Hf1 Mg5 3.185385 1_555
Hf1 Mg9 3.248341 1_545
Hf1 Mg10 3.248341 1_555
Mg0 Mg3 3.064184 1_454
Mg0 Mg3 3.064184 1_554
Mg0 Mg11 3.074990 1_555
Mg0 Mg11 3.074990 1_455
Mg0 Mg1 3.165200 1_555
Mg0 Mg8 3.171194 1_555
Mg0 Mg2 3.180831 1_554
Mg0 Mg1 3.203027 1_545
Mg1 Mg4 3.064184 1_554
Mg1 Mg4 3.064184 1_454
Mg1 Mg11 3.074990 1_565
Mg1 Mg11 3.074990 1_465
Mg1 Mg8 3.171194 1_565
Mg1 Mg2 3.180831 1_554
Mg2 Mg5 3.068822 1_455
Mg2 Mg5 3.068822 1_555
Mg2 Mg3 3.090504 1_455
Mg2 Mg4 3.090504 1_455
Mg2 Mg3 3.090504 1_555
Mg2 Mg4 3.090504 1_555
Mg2 Mg6 3.171194 1_555
Mg2 Mg7 3.171194 1_555
Mg3 Mg4 3.140287 1_545
Mg3 Mg5 3.203512 1_555
Mg3 Mg4 3.227940 1_555
Mg4 Mg5 3.203512 1_555
Mg5 Mg6 3.074990 1_655
Mg5 Mg7 3.074990 1_655
Mg5 Mg6 3.074990 1_555
Mg5 Mg7 3.074990 1_555
Mg5 Mg9 3.148481 1_555
Mg6 Mg9 3.064184 1_455
Mg6 Mg9 3.064184 1_555
Mg6 Mg7 3.165200 1_565
Mg6 Mg8 3.180831 1_565
Mg6 Mg7 3.203027 1_555
Mg7 Mg8 3.180831 1_555
Mg8 Mg9 3.090504 1_545
Mg8 Mg9 3.090504 1_445
Mg10 Mg7 3.064184 1_555
Mg10 Mg7 3.064184 1_655
Mg10 Mg8 3.090504 1_555
Mg10 Mg8 3.090504 1_655
Mg10 Mg9 3.140287 1_555
Mg10 Mg5 3.148481 1_555
Mg10 Mg11 3.203512 1_555
Mg10 Mg9 3.227940 1_545
Mg11 Mg8 3.068822 1_655
Mg11 Mg8 3.068822 1_555
Mg11 Mg4 3.148481 1_544
Mg11 Mg3 3.148481 1_554
Mg11 Mg9 3.203512 1_545
Al0 Hf0 2.952339 1_455
Al0 Hf0 2.952339 1_555
Al0 Mg1 3.064492 1_555
Al0 Mg0 3.064492 1_555
Al0 Mg9 3.104182 1_455
Al0 Mg9 3.104182 1_555
Al0 Mg10 3.104182 1_455
Al0 Mg10 3.104182 1_555
Al0 Mg8 3.186113 1_565
Al0 Mg8 3.186113 1_555
Al0 Mg7 3.288391 1_555
Al0 Mg6 3.288391 1_555
Al1 Hf1 2.952339 1_455
Al1 Hf1 2.952339 1_555
Al1 Mg7 3.064492 1_555
Al1 Mg6 3.064492 1_545
Al1 Mg4 3.104182 1_545
Al1 Mg3 3.104182 1_455
Al1 Mg4 3.104182 1_445
Al1 Mg3 3.104182 1_555
Al1 Mg2 3.186113 1_555
Al1 Mg2 3.186113 1_545
Al1 Mg1 3.288391 1_546
Al1 Mg0 3.288391 1_556
