# generated using pymatgen
data_TiO2
_symmetry_space_group_name_H-M   'P 1'
_cell_length_a   2.96721701
_cell_length_b   10.67479828
_cell_length_c   17.53147735
_cell_angle_alpha   90.00000000
_cell_angle_beta   90.00000000
_cell_angle_gamma   90.00000000
_symmetry_Int_Tables_number   1
_chemical_formula_structural   TiO2
_chemical_formula_sum   'Ti16 O32'
_cell_volume   555.29978064
_cell_formula_units_Z   16
loop_
 _symmetry_equiv_pos_site_id
 _symmetry_equiv_pos_as_xyz
  1  'x, y, z'
loop_
 _atom_site_type_symbol
 _atom_site_label
 _atom_site_symmetry_multiplicity
 _atom_site_fract_x
 _atom_site_fract_y
 _atom_site_fract_z
 _atom_site_occupancy
  Ti  Ti0  1  0.25000000  0.21732338  0.10014087  1
  Ti  Ti1  1  0.25000000  0.28267662  0.60014087  1
  Ti  Ti2  1  0.75000000  0.78267662  0.89985913  1
  Ti  Ti3  1  0.75000000  0.71732338  0.39985913  1
  Ti  Ti4  1  0.75000000  0.49804139  0.17126622  1
  Ti  Ti5  1  0.75000000  0.00195861  0.67126622  1
  Ti  Ti6  1  0.25000000  0.50195861  0.82873378  1
  Ti  Ti7  1  0.25000000  0.99804139  0.32873378  1
  Ti  Ti8  1  0.75000000  0.30416469  0.92238571  1
  Ti  Ti9  1  0.75000000  0.19583531  0.42238571  1
  Ti  Ti10  1  0.25000000  0.69583531  0.07761429  1
  Ti  Ti11  1  0.25000000  0.80416469  0.57761429  1
  Ti  Ti12  1  0.75000000  0.97823456  0.14601689  1
  Ti  Ti13  1  0.75000000  0.52176544  0.64601689  1
  Ti  Ti14  1  0.25000000  0.02176544  0.85398311  1
  Ti  Ti15  1  0.25000000  0.47823456  0.35398311  1
  O  O0  1  0.25000000  0.02783130  0.08267685  1
  O  O1  1  0.25000000  0.47216870  0.58267685  1
  O  O2  1  0.75000000  0.97216870  0.91732315  1
  O  O3  1  0.75000000  0.52783130  0.41732315  1
  O  O4  1  0.75000000  0.45835926  0.27728061  1
  O  O5  1  0.75000000  0.04164074  0.77728061  1
  O  O6  1  0.25000000  0.54164074  0.72271939  1
  O  O7  1  0.25000000  0.95835926  0.22271939  1
  O  O8  1  0.25000000  0.38326813  0.14122715  1
  O  O9  1  0.25000000  0.11673187  0.64122715  1
  O  O10  1  0.75000000  0.61673187  0.85877285  1
  O  O11  1  0.75000000  0.88326813  0.35877285  1
  O  O12  1  0.75000000  0.16869905  0.16234696  1
  O  O13  1  0.75000000  0.33130095  0.66234696  1
  O  O14  1  0.25000000  0.83130095  0.83765304  1
  O  O15  1  0.25000000  0.66869905  0.33765304  1
  O  O16  1  0.25000000  0.41613763  0.93489493  1
  O  O17  1  0.25000000  0.08386237  0.43489493  1
  O  O18  1  0.75000000  0.58386237  0.06510507  1
  O  O19  1  0.75000000  0.91613763  0.56510507  1
  O  O20  1  0.75000000  0.81161683  0.11007954  1
  O  O21  1  0.75000000  0.68838317  0.61007954  1
  O  O22  1  0.25000000  0.18838317  0.88992046  1
  O  O23  1  0.25000000  0.31161683  0.38992046  1
  O  O24  1  0.75000000  0.24862771  0.02556648  1
  O  O25  1  0.75000000  0.25137229  0.52556648  1
  O  O26  1  0.25000000  0.75137229  0.97443352  1
  O  O27  1  0.25000000  0.74862771  0.47443352  1
  O  O28  1  0.25000000  0.61165021  0.18123340  1
  O  O29  1  0.25000000  0.88834979  0.68123340  1
  O  O30  1  0.75000000  0.38834979  0.81876660  1
  O  O31  1  0.75000000  0.11165021  0.31876660  1
loop_
_geom_bond_atom_site_label_1
_geom_bond_atom_site_label_2
_geom_bond_distance
_geom_bond_site_symmetry_2
O0 Ti12 1.927299 1_545
O0 Ti12 1.927299 1_445
O0 Ti0 2.045830 1_555
O1 Ti13 1.927299 1_555
O1 Ti13 1.927299 1_455
O1 Ti1 2.045830 1_555
O2 Ti14 1.927299 1_565
O2 Ti14 1.927299 1_665
O2 Ti2 2.045830 1_555
O3 Ti15 1.927299 1_555
O3 Ti15 1.927299 1_655
O3 Ti3 2.045830 1_555
O4 Ti4 1.906250 1_555
O4 Ti15 2.013541 1_555
O4 Ti15 2.013541 1_655
O5 Ti5 1.906250 1_555
O5 Ti14 2.013541 1_655
O5 Ti14 2.013541 1_555
O6 Ti6 1.906250 1_555
O6 Ti13 2.013541 1_555
O6 Ti13 2.013541 1_455
O7 Ti7 1.906250 1_555
O7 Ti12 2.013541 1_555
O7 Ti12 2.013541 1_455
O8 Ti0 1.912273 1_555
O8 Ti4 1.994869 1_455
O8 Ti4 1.994869 1_555
O9 Ti1 1.912273 1_555
O9 Ti5 1.994869 1_455
O9 Ti5 1.994869 1_555
O10 Ti2 1.912273 1_555
O10 Ti6 1.994869 1_555
O10 Ti6 1.994869 1_655
O11 Ti3 1.912273 1_555
O11 Ti7 1.994869 1_555
O11 Ti7 1.994869 1_655
O12 Ti0 1.913072 1_555
O12 Ti0 1.913072 1_655
O12 Ti12 2.053227 1_545
O13 Ti1 1.913072 1_555
O13 Ti1 1.913072 1_655
O13 Ti13 2.053227 1_555
O14 Ti2 1.913072 1_555
O14 Ti2 1.913072 1_455
O14 Ti14 2.053227 1_565
O15 Ti3 1.913072 1_455
O15 Ti3 1.913072 1_555
O15 Ti15 2.053227 1_555
O16 Ti8 1.917786 1_455
O16 Ti8 1.917786 1_555
O16 Ti6 2.074416 1_555
O17 Ti9 1.917786 1_555
O17 Ti9 1.917786 1_455
O17 Ti7 2.074416 1_545
O18 Ti10 1.917786 1_555
O18 Ti10 1.917786 1_655
O18 Ti4 2.074416 1_555
O19 Ti11 1.917786 1_655
O19 Ti11 1.917786 1_555
O19 Ti5 2.074416 1_565
O20 Ti12 1.886902 1_555
O20 Ti10 2.013107 1_555
O20 Ti10 2.013107 1_655
O21 Ti13 1.886902 1_555
O21 Ti11 2.013107 1_555
O21 Ti11 2.013107 1_655
O22 Ti14 1.886902 1_555
O22 Ti8 2.013107 1_455
O22 Ti8 2.013107 1_555
O23 Ti15 1.886902 1_555
O23 Ti9 2.013107 1_555
O23 Ti9 2.013107 1_455
O24 Ti8 1.903583 1_554
O24 Ti0 2.005506 1_555
O24 Ti0 2.005506 1_655
O25 Ti9 1.903583 1_555
O25 Ti1 2.005506 1_555
O25 Ti1 2.005506 1_655
O26 Ti10 1.903583 1_556
O26 Ti2 2.005506 1_555
O26 Ti2 2.005506 1_455
O27 Ti11 1.903583 1_555
O27 Ti3 2.005506 1_555
O27 Ti3 2.005506 1_455
O28 Ti4 1.924160 1_555
O28 Ti4 1.924160 1_455
O28 Ti10 2.026724 1_555
O29 Ti5 1.924160 1_565
O29 Ti5 1.924160 1_465
O29 Ti11 2.026724 1_555
O30 Ti6 1.924160 1_555
O30 Ti6 1.924160 1_655
O30 Ti8 2.026724 1_555
O31 Ti7 1.924160 1_545
O31 Ti7 1.924160 1_645
O31 Ti9 2.026724 1_555
