# generated using pymatgen
data_NaNb(CuS2)2
_symmetry_space_group_name_H-M   'P 1'
_cell_length_a   9.61664872
_cell_length_b   9.61664872
_cell_length_c   7.49889000
_cell_angle_alpha   90.00000000
_cell_angle_beta   90.00000000
_cell_angle_gamma   146.60989240
_symmetry_Int_Tables_number   1
_chemical_formula_structural   NaNb(CuS2)2
_chemical_formula_sum   'Na2 Nb2 Cu4 S8'
_cell_volume   381.65668827
_cell_formula_units_Z   2
loop_
 _symmetry_equiv_pos_site_id
 _symmetry_equiv_pos_as_xyz
  1  'x, y, z'
loop_
 _atom_site_type_symbol
 _atom_site_label
 _atom_site_symmetry_multiplicity
 _atom_site_fract_x
 _atom_site_fract_y
 _atom_site_fract_z
 _atom_site_occupancy
  Na  Na0  1  0.18829400  0.82621000  0.75000000  1
  Na  Na1  1  0.82621000  0.18829400  0.25000000  1
  Nb  Nb0  1  0.64006000  0.86378900  0.75000000  1
  Nb  Nb1  1  0.86378900  0.64006000  0.25000000  1
  Cu  Cu0  1  0.14647200  0.35807800  0.75000000  1
  Cu  Cu1  1  0.35807800  0.14647200  0.25000000  1
  Cu  Cu2  1  0.72937300  0.72937300  0.00000000  1
  Cu  Cu3  1  0.72937300  0.72937300  0.50000000  1
  S  S0  1  0.98038900  0.99235200  0.75000000  1
  S  S1  1  0.99235200  0.98038900  0.25000000  1
  S  S2  1  0.39936600  0.61333100  0.00012800  1
  S  S3  1  0.61333100  0.39936600  0.99987200  1
  S  S4  1  0.39936600  0.61333100  0.49987200  1
  S  S5  1  0.61333100  0.39936600  0.50012800  1
  S  S6  1  0.79815000  0.21826500  0.75000000  1
  S  S7  1  0.21826500  0.79815000  0.25000000  1
loop_
_geom_bond_atom_site_label_1
_geom_bond_atom_site_label_2
_geom_bond_distance
_geom_bond_site_symmetry_2
Na0 S6 3.409991 1_455
Na0 S6 3.418534 1_565
Na0 S0 3.447383 1_455
Na1 S7 3.409991 1_545
Na1 S7 3.418534 1_655
Na1 S1 3.447383 1_545
Nb0 S6 2.297288 1_565
Nb0 S2 2.316765 1_556
Nb0 S4 2.316765 1_555
Nb0 S0 2.341581 1_555
Nb1 S7 2.297288 1_655
Nb1 S5 2.316765 1_555
Nb1 S3 2.316765 1_554
Nb1 S1 2.341581 1_555
Cu0 S2 2.342947 1_556
Cu0 S4 2.342947 1_555
Cu0 S6 2.346788 1_455
Cu0 S0 2.353796 1_445
Cu1 S5 2.342947 1_555
Cu1 S3 2.342947 1_554
Cu1 S7 2.346788 1_545
Cu1 S1 2.353796 1_445
Cu2 S3 2.324419 1_554
Cu2 S2 2.324419 1_555
Cu2 S0 2.354378 1_554
Cu2 S1 2.354378 1_555
Cu3 S4 2.324419 1_555
Cu3 S5 2.324419 1_555
Cu3 S0 2.354378 1_555
Cu3 S1 2.354378 1_555
