# generated using pymatgen
data_Th2N3
_symmetry_space_group_name_H-M   'P 1'
_cell_length_a   3.91346243
_cell_length_b   3.91346243
_cell_length_c   6.15322000
_cell_angle_alpha   90.00000000
_cell_angle_beta   90.00000000
_cell_angle_gamma   120.00000719
_symmetry_Int_Tables_number   1
_chemical_formula_structural   Th2N3
_chemical_formula_sum   'Th2 N3'
_cell_volume   81.61225538
_cell_formula_units_Z   1
loop_
 _symmetry_equiv_pos_site_id
 _symmetry_equiv_pos_as_xyz
  1  'x, y, z'
loop_
 _atom_site_type_symbol
 _atom_site_label
 _atom_site_symmetry_multiplicity
 _atom_site_fract_x
 _atom_site_fract_y
 _atom_site_fract_z
 _atom_site_occupancy
  Th  Th0  1  0.66666700  0.33333300  0.24871700  1
  Th  Th1  1  0.33333300  0.66666700  0.75128300  1
  N  N0  1  0.00000000  0.00000000  0.00000000  1
  N  N1  1  0.66666700  0.33333300  0.64173200  1
  N  N2  1  0.33333300  0.66666700  0.35826800  1
loop_
_geom_bond_atom_site_label_1
_geom_bond_atom_site_label_2
_geom_bond_distance
_geom_bond_site_symmetry_2
N0 Th0 2.728957 1_455
N0 Th1 2.728957 1_544
N0 Th0 2.728960 1_555
N0 Th0 2.728960 1_445
N0 Th1 2.728960 1_554
N0 Th1 2.728960 1_444
N1 Th1 2.357849 1_545
N1 Th1 2.357849 1_655
N1 Th1 2.357856 1_555
N1 Th0 2.418308 1_555
N2 Th0 2.357849 1_455
N2 Th0 2.357849 1_565
N2 Th0 2.357856 1_555
N2 Th1 2.418308 1_555
