# generated using pymatgen
data_Ho3Rh2
_symmetry_space_group_name_H-M   'P 1'
_cell_length_a   11.03471871
_cell_length_b   11.03471871
_cell_length_c   14.63676586
_cell_angle_alpha   112.14501489
_cell_angle_beta   112.14501489
_cell_angle_gamma   90.00000000
_symmetry_Int_Tables_number   1
_chemical_formula_structural   Ho3Rh2
_chemical_formula_sum   'Ho42 Rh28'
_cell_volume   1507.88364639
_cell_formula_units_Z   14
loop_
 _symmetry_equiv_pos_site_id
 _symmetry_equiv_pos_as_xyz
  1  'x, y, z'
loop_
 _atom_site_type_symbol
 _atom_site_label
 _atom_site_symmetry_multiplicity
 _atom_site_fract_x
 _atom_site_fract_y
 _atom_site_fract_z
 _atom_site_occupancy
  Ho  Ho0  1  0.50370165  0.63254826  0.85690731  1
  Ho  Ho1  1  0.35320466  0.22435905  0.85690731  1
  Ho  Ho2  1  0.85320466  0.13254826  0.85690731  1
  Ho  Ho3  1  0.00370165  0.72435905  0.85690731  1
  Ho  Ho4  1  0.63254826  0.35320466  0.85690731  1
  Ho  Ho5  1  0.22435905  0.50370165  0.85690731  1
  Ho  Ho6  1  0.13254826  0.00370165  0.85690731  1
  Ho  Ho7  1  0.72435905  0.85320466  0.85690731  1
  Ho  Ho8  1  0.49629835  0.36745174  0.14309269  1
  Ho  Ho9  1  0.64679534  0.77564095  0.14309269  1
  Ho  Ho10  1  0.14679534  0.86745174  0.14309269  1
  Ho  Ho11  1  0.99629835  0.27564095  0.14309269  1
  Ho  Ho12  1  0.36745174  0.64679534  0.14309269  1
  Ho  Ho13  1  0.77564095  0.49629835  0.14309269  1
  Ho  Ho14  1  0.86745174  0.99629835  0.14309269  1
  Ho  Ho15  1  0.27564095  0.14679534  0.14309269  1
  Ho  Ho16  1  0.51672594  0.38616762  0.61275092  1
  Ho  Ho17  1  0.09602498  0.22658329  0.61275092  1
  Ho  Ho18  1  0.59602498  0.88616762  0.61275092  1
  Ho  Ho19  1  0.01672594  0.72658329  0.61275092  1
  Ho  Ho20  1  0.38616762  0.09602498  0.61275092  1
  Ho  Ho21  1  0.22658329  0.51672594  0.61275092  1
  Ho  Ho22  1  0.88616762  0.01672594  0.61275092  1
  Ho  Ho23  1  0.72658329  0.59602498  0.61275092  1
  Ho  Ho24  1  0.48327406  0.61383238  0.38724908  1
  Ho  Ho25  1  0.90397502  0.77341671  0.38724908  1
  Ho  Ho26  1  0.40397502  0.11383238  0.38724908  1
  Ho  Ho27  1  0.98327406  0.27341671  0.38724908  1
  Ho  Ho28  1  0.61383238  0.90397502  0.38724908  1
  Ho  Ho29  1  0.77341671  0.48327406  0.38724908  1
  Ho  Ho30  1  0.11383238  0.98327406  0.38724908  1
  Ho  Ho31  1  0.27341671  0.40397502  0.38724908  1
  Ho  Ho32  1  0.35067052  0.85067052  0.00000000  1
  Ho  Ho33  1  0.64932948  0.14932948  0.00000000  1
  Ho  Ho34  1  0.14932948  0.35067052  0.00000000  1
  Ho  Ho35  1  0.85067052  0.64932948  0.00000000  1
  Ho  Ho36  1  0.88737872  0.38737872  0.77475845  1
  Ho  Ho37  1  0.38737872  0.88737872  0.77475845  1
  Ho  Ho38  1  0.11262128  0.61262128  0.22524155  1
  Ho  Ho39  1  0.61262128  0.11262128  0.22524155  1
  Ho  Ho40  1  0.75000000  0.25000000  0.50000000  1
  Ho  Ho41  1  0.25000000  0.75000000  0.50000000  1
  Rh  Rh0  1  0.21439834  0.71439834  0.78682451  1
  Rh  Rh1  1  0.57242716  0.07242716  0.78682451  1
  Rh  Rh2  1  0.07242716  0.21439834  0.78682451  1
  Rh  Rh3  1  0.71439834  0.57242716  0.78682451  1
  Rh  Rh4  1  0.78560166  0.28560166  0.21317549  1
  Rh  Rh5  1  0.42757284  0.92757284  0.21317549  1
  Rh  Rh6  1  0.92757284  0.78560166  0.21317549  1
  Rh  Rh7  1  0.28560166  0.42757284  0.21317549  1
  Rh  Rh8  1  0.96497540  0.46497540  0.62324682  1
  Rh  Rh9  1  0.65827042  0.15827042  0.62324682  1
  Rh  Rh10  1  0.15827042  0.96497540  0.62324682  1
  Rh  Rh11  1  0.46497540  0.65827042  0.62324682  1
  Rh  Rh12  1  0.03502460  0.53502460  0.37675318  1
  Rh  Rh13  1  0.34172958  0.84172958  0.37675318  1
  Rh  Rh14  1  0.84172958  0.03502460  0.37675318  1
  Rh  Rh15  1  0.53502460  0.34172958  0.37675318  1
  Rh  Rh16  1  0.09770412  0.59770412  0.00000000  1
  Rh  Rh17  1  0.90229588  0.40229588  0.00000000  1
  Rh  Rh18  1  0.40229588  0.09770412  0.00000000  1
  Rh  Rh19  1  0.59770412  0.90229588  0.00000000  1
  Rh  Rh20  1  0.36761717  0.36761717  0.73523434  1
  Rh  Rh21  1  0.86761717  0.86761717  0.73523434  1
  Rh  Rh22  1  0.63238283  0.63238283  0.26476566  1
  Rh  Rh23  1  0.13238283  0.13238283  0.26476566  1
  Rh  Rh24  1  0.50000000  0.50000000  0.00000000  1
  Rh  Rh25  1  -0.00000000  -0.00000000  0.00000000  1
  Rh  Rh26  1  0.25000000  0.25000000  0.50000000  1
  Rh  Rh27  1  0.75000000  0.75000000  0.50000000  1
loop_
_geom_bond_atom_site_label_1
_geom_bond_atom_site_label_2
_geom_bond_distance
_geom_bond_site_symmetry_2
Ho0 Rh19 2.825732 1_556
Ho0 Rh20 2.834046 1_555
Ho0 Rh3 2.860567 1_555
Ho0 Rh24 2.983540 1_556
Ho0 Rh0 3.207640 1_555
Ho0 Rh11 3.404383 1_555
Ho0 Ho37 3.519385 1_555
Ho1 Rh18 2.825731 1_556
Ho1 Rh20 2.834049 1_555
Ho1 Rh2 2.860547 1_555
Ho1 Rh24 2.983543 1_556
Ho1 Rh1 3.207655 1_555
Ho1 Rh10 3.404388 1_545
Ho1 Ho37 3.519396 1_545
Ho2 Rh17 2.825731 1_556
Ho2 Rh21 2.834049 1_545
Ho2 Rh1 2.860546 1_555
Ho2 Rh25 2.983543 1_656
Ho2 Rh2 3.207660 1_655
Ho2 Rh9 3.404383 1_555
Ho2 Ho36 3.519385 1_555
Ho3 Rh16 2.825732 1_556
Ho3 Rh21 2.834046 1_455
Ho3 Rh0 2.860568 1_555
Ho3 Rh25 2.983540 1_566
Ho3 Rh3 3.207636 1_455
Ho3 Rh8 3.404388 1_455
Ho3 Ho36 3.519396 1_455
Ho4 Rh17 2.825731 1_556
Ho4 Rh20 2.834049 1_555
Ho4 Rh1 2.860546 1_555
Ho4 Rh24 2.983543 1_556
Ho4 Rh3 3.207660 1_555
Ho4 Rh9 3.404383 1_555
Ho5 Rh16 2.825732 1_556
Ho5 Rh20 2.834046 1_555
Ho5 Rh0 2.860568 1_555
Ho5 Rh24 2.983540 1_556
Ho5 Rh2 3.207636 1_555
Ho5 Rh8 3.404388 1_455
Ho6 Rh18 2.825732 1_556
Ho6 Rh21 2.834046 1_445
Ho6 Rh2 2.860567 1_555
Ho6 Rh25 2.983540 1_556
Ho6 Rh0 3.207640 1_545
Ho6 Rh10 3.404383 1_545
Ho7 Rh19 2.825731 1_556
Ho7 Rh21 2.834049 1_555
Ho7 Rh3 2.860547 1_555
Ho7 Rh25 2.983543 1_666
Ho7 Rh1 3.207655 1_565
Ho7 Rh11 3.404388 1_555
Ho8 Rh18 2.825732 1_555
Ho8 Rh22 2.834046 1_555
Ho8 Rh7 2.860567 1_555
Ho8 Rh24 2.983540 1_555
Ho8 Rh4 3.207640 1_555
Ho8 Rh15 3.404383 1_555
Ho9 Rh19 2.825731 1_555
Ho9 Rh22 2.834049 1_555
Ho9 Rh6 2.860547 1_555
Ho9 Rh24 2.983543 1_555
Ho9 Rh5 3.207655 1_555
Ho9 Rh14 3.404388 1_565
Ho10 Rh16 2.825731 1_555
Ho10 Rh23 2.834049 1_565
Ho10 Rh5 2.860546 1_555
Ho10 Rh25 2.983543 1_565
Ho10 Rh6 3.207660 1_455
Ho10 Rh13 3.404383 1_555
Ho10 Ho38 3.519385 1_555
Ho11 Rh17 2.825732 1_555
Ho11 Rh23 2.834046 1_655
Ho11 Rh4 2.860568 1_555
Ho11 Rh25 2.983540 1_655
Ho11 Rh7 3.207636 1_655
Ho11 Rh12 3.404388 1_655
Ho11 Ho38 3.519396 1_655
Ho12 Rh16 2.825731 1_555
Ho12 Rh22 2.834049 1_555
Ho12 Rh5 2.860546 1_555
Ho12 Rh24 2.983543 1_555
Ho12 Rh7 3.207660 1_555
Ho12 Rh13 3.404383 1_555
Ho12 Ho38 3.519385 1_555
Ho13 Rh17 2.825732 1_555
Ho13 Rh22 2.834046 1_555
Ho13 Rh4 2.860568 1_555
Ho13 Rh24 2.983540 1_555
Ho13 Rh6 3.207636 1_555
Ho13 Rh12 3.404388 1_655
Ho13 Ho38 3.519396 1_655
Ho14 Rh19 2.825732 1_555
Ho14 Rh23 2.834046 1_665
Ho14 Rh6 2.860567 1_555
Ho14 Rh25 2.983540 1_665
Ho14 Rh4 3.207640 1_565
Ho14 Rh14 3.404383 1_565
Ho14 Ho39 3.519385 1_565
Ho15 Rh18 2.825731 1_555
Ho15 Rh23 2.834049 1_555
Ho15 Rh7 2.860547 1_555
Ho15 Rh25 2.983543 1_555
Ho15 Rh5 3.207655 1_545
Ho15 Rh15 3.404388 1_555
Ho15 Ho39 3.519396 1_555
Ho16 Rh3 2.708515 1_555
Ho16 Rh26 2.848256 1_555
Ho16 Rh20 2.909235 1_555
Ho16 Rh9 2.982890 1_555
Ho16 Rh11 3.013894 1_555
Ho16 Rh15 3.385539 1_555
Ho17 Rh2 2.708506 1_555
Ho17 Rh26 2.848256 1_555
Ho17 Rh20 2.909235 1_555
Ho17 Rh8 2.982886 1_455
Ho17 Rh10 3.013903 1_545
Ho17 Rh14 3.385532 1_455
Ho18 Rh1 2.708510 1_565
Ho18 Rh27 2.848256 1_555
Ho18 Rh21 2.909235 1_555
Ho18 Rh11 2.982895 1_555
Ho18 Rh9 3.013892 1_565
Ho18 Rh13 3.385535 1_555
Ho19 Rh0 2.708511 1_555
Ho19 Rh27 2.848256 1_455
Ho19 Rh21 2.909235 1_455
Ho19 Rh10 2.982880 1_555
Ho19 Rh8 3.013905 1_455
Ho19 Rh12 3.385537 1_555
Ho20 Rh1 2.708510 1_555
Ho20 Rh26 2.848256 1_555
Ho20 Rh20 2.909235 1_555
Ho20 Rh10 2.982895 1_545
Ho20 Rh9 3.013892 1_555
Ho20 Rh13 3.385535 1_545
Ho21 Rh0 2.708511 1_555
Ho21 Rh26 2.848256 1_555
Ho21 Rh20 2.909235 1_555
Ho21 Rh11 2.982880 1_555
Ho21 Rh8 3.013905 1_455
Ho21 Rh12 3.385537 1_555
Ho22 Rh2 2.708515 1_655
Ho22 Rh27 2.848256 1_545
Ho22 Rh21 2.909235 1_545
Ho22 Rh9 2.982890 1_555
Ho22 Rh10 3.013894 1_645
Ho22 Rh14 3.385539 1_555
Ho23 Rh3 2.708506 1_555
Ho23 Rh27 2.848256 1_555
Ho23 Rh21 2.909235 1_555
Ho23 Rh8 2.982886 1_555
Ho23 Rh11 3.013903 1_555
Ho23 Rh15 3.385532 1_555
Ho24 Rh7 2.708515 1_555
Ho24 Rh27 2.848256 1_555
Ho24 Rh22 2.909235 1_555
Ho24 Rh13 2.982890 1_555
Ho24 Rh15 3.013894 1_555
Ho24 Rh11 3.385539 1_555
Ho25 Rh6 2.708506 1_555
Ho25 Rh27 2.848256 1_555
Ho25 Rh22 2.909235 1_555
Ho25 Rh12 2.982886 1_655
Ho25 Rh14 3.013903 1_565
Ho25 Rh10 3.385532 1_655
Ho26 Rh5 2.708510 1_545
Ho26 Rh26 2.848256 1_555
Ho26 Rh23 2.909235 1_555
Ho26 Rh15 2.982895 1_555
Ho26 Rh13 3.013892 1_545
Ho26 Rh9 3.385535 1_555
Ho27 Rh4 2.708511 1_555
Ho27 Rh26 2.848256 1_655
Ho27 Rh23 2.909235 1_655
Ho27 Rh14 2.982880 1_555
Ho27 Rh12 3.013905 1_655
Ho27 Rh8 3.385537 1_555
Ho28 Rh5 2.708510 1_555
Ho28 Rh27 2.848256 1_555
Ho28 Rh22 2.909235 1_555
Ho28 Rh14 2.982895 1_565
Ho28 Rh13 3.013892 1_555
Ho28 Rh9 3.385535 1_565
Ho29 Rh4 2.708511 1_555
Ho29 Rh27 2.848256 1_555
Ho29 Rh22 2.909235 1_555
Ho29 Rh15 2.982880 1_555
Ho29 Rh12 3.013905 1_655
Ho29 Rh8 3.385537 1_555
Ho30 Rh6 2.708515 1_455
Ho30 Rh26 2.848256 1_565
Ho30 Rh23 2.909235 1_565
Ho30 Rh13 2.982890 1_555
Ho30 Rh14 3.013894 1_465
Ho30 Rh10 3.385539 1_555
Ho31 Rh7 2.708506 1_555
Ho31 Rh26 2.848256 1_555
Ho31 Rh23 2.909235 1_555
Ho31 Rh12 2.982886 1_555
Ho31 Rh15 3.013903 1_555
Ho31 Rh11 3.385532 1_555
Ho32 Rh0 2.680206 1_554
Ho32 Rh5 2.680209 1_555
Ho32 Rh18 2.784835 1_565
Ho32 Rh19 2.784835 1_555
Ho33 Rh4 2.680206 1_555
Ho33 Rh1 2.680209 1_554
Ho33 Rh19 2.784835 1_545
Ho33 Rh18 2.784835 1_555
Ho34 Rh7 2.680207 1_555
Ho34 Rh2 2.680207 1_554
Ho34 Rh17 2.784835 1_455
Ho34 Rh16 2.784835 1_555
Ho35 Rh6 2.680207 1_555
Ho35 Rh3 2.680207 1_554
Ho35 Rh16 2.784835 1_655
Ho35 Rh17 2.784835 1_555
Ho36 Rh2 2.797593 1_655
Ho36 Rh3 2.797593 1_555
Ho36 Rh9 3.040956 1_555
Ho36 Rh8 3.040956 1_555
Ho36 Rh17 3.178817 1_556
Ho36 Rh16 3.178825 1_656
Ho36 Ho40 3.402486 1_555
Ho36 Ho4 3.519385 1_555
Ho36 Ho5 3.519396 1_655
Ho37 Rh0 2.797578 1_555
Ho37 Rh1 2.797609 1_565
Ho37 Rh10 3.040956 1_555
Ho37 Rh11 3.040956 1_555
Ho37 Rh18 3.178821 1_566
Ho37 Rh19 3.178821 1_556
Ho37 Ho41 3.402486 1_555
Ho37 Ho6 3.519385 1_565
Ho37 Ho7 3.519396 1_555
Ho38 Rh6 2.797593 1_455
Ho38 Rh7 2.797593 1_555
Ho38 Rh13 3.040956 1_555
Ho38 Rh12 3.040956 1_555
Ho38 Rh16 3.178817 1_555
Ho38 Rh17 3.178825 1_455
Ho38 Ho41 3.402486 1_555
Ho39 Rh4 2.797578 1_555
Ho39 Rh5 2.797609 1_545
Ho39 Rh15 3.040956 1_555
Ho39 Rh14 3.040956 1_555
Ho39 Rh19 3.178821 1_545
Ho39 Rh18 3.178821 1_555
Ho39 Ho40 3.402486 1_555
Ho39 Ho8 3.519385 1_555
Ho39 Ho9 3.519396 1_545
Ho40 Rh8 2.838388 1_555
Ho40 Rh15 2.838394 1_555
Ho40 Rh14 2.838394 1_555
Ho40 Rh9 2.838401 1_555
Ho41 Rh12 2.838388 1_555
Ho41 Rh10 2.838394 1_555
Ho41 Rh11 2.838394 1_555
Ho41 Rh13 2.838401 1_555
Rh0 Rh8 3.308600 1_455
Rh1 Rh9 3.308576 1_555
Rh10 Rh2 3.308588 1_565
Rh11 Rh3 3.308588 1_555
Rh12 Rh4 3.308600 1_455
Rh13 Rh5 3.308576 1_555
Rh14 Rh6 3.308588 1_545
Rh15 Rh7 3.308588 1_555
Rh16 Rh17 3.049433 1_455
Rh18 Rh19 3.049433 1_545
Rh20 Rh26 2.913037 1_555
Rh20 Rh24 3.278740 1_556
Rh21 Rh27 2.913037 1_555
Rh21 Rh25 3.278740 1_666
Rh22 Rh27 2.913037 1_555
Rh22 Rh24 3.278740 1_555
Rh23 Rh26 2.913037 1_555
Rh23 Rh25 3.278740 1_555
