# generated using pymatgen
data_TiNiP
_symmetry_space_group_name_H-M   'P 1'
_cell_length_a   6.04911668
_cell_length_b   3.55007681
_cell_length_c   6.88165614
_cell_angle_alpha   90.00000000
_cell_angle_beta   90.00000000
_cell_angle_gamma   90.00000000
_symmetry_Int_Tables_number   1
_chemical_formula_structural   TiNiP
_chemical_formula_sum   'Ti4 Ni4 P4'
_cell_volume   147.78238779
_cell_formula_units_Z   4
loop_
 _symmetry_equiv_pos_site_id
 _symmetry_equiv_pos_as_xyz
  1  'x, y, z'
loop_
 _atom_site_type_symbol
 _atom_site_label
 _atom_site_symmetry_multiplicity
 _atom_site_fract_x
 _atom_site_fract_y
 _atom_site_fract_z
 _atom_site_occupancy
  Ti  Ti0  1  0.02565121  0.25000000  0.82496492  1
  Ti  Ti1  1  0.52565121  0.25000000  0.67503508  1
  Ti  Ti2  1  0.97434879  0.75000000  0.17503508  1
  Ti  Ti3  1  0.47434879  0.75000000  0.32496492  1
  Ni  Ni0  1  0.14665050  0.25000000  0.43649416  1
  Ni  Ni1  1  0.64665050  0.25000000  0.06350584  1
  Ni  Ni2  1  0.85334950  0.75000000  0.56350584  1
  Ni  Ni3  1  0.35334950  0.75000000  0.93649416  1
  P  P0  1  0.77002699  0.25000000  0.37718811  1
  P  P1  1  0.27002699  0.25000000  0.12281189  1
  P  P2  1  0.22997301  0.75000000  0.62281189  1
  P  P3  1  0.72997301  0.75000000  0.87718811  1
loop_
_geom_bond_atom_site_label_1
_geom_bond_atom_site_label_2
_geom_bond_distance
_geom_bond_site_symmetry_2
Ni0 P2 2.246948 1_545
Ni0 P2 2.246948 1_555
Ni0 P1 2.284026 1_555
Ni0 P0 2.314507 1_455
Ni0 Ti2 2.733948 1_445
Ni0 Ti2 2.733948 1_455
Ni0 Ti3 2.769347 1_555
Ni0 Ti3 2.769347 1_545
Ni0 Ti0 2.771712 1_555
Ni0 Ti1 2.819718 1_555
Ni1 P3 2.246948 1_554
Ni1 P3 2.246948 1_544
Ni1 P0 2.284026 1_555
Ni1 P1 2.314507 1_555
Ni1 Ti3 2.733948 1_545
Ni1 Ti3 2.733948 1_555
Ni1 Ti2 2.769347 1_555
Ni1 Ti2 2.769347 1_545
Ni1 Ti1 2.771712 1_554
Ni1 Ti0 2.819718 1_654
Ni2 P0 2.246948 1_565
Ni2 P0 2.246948 1_555
Ni2 P3 2.284026 1_555
Ni2 P2 2.314507 1_655
Ni2 Ti0 2.733948 1_655
Ni2 Ti0 2.733948 1_665
Ni2 Ti1 2.769347 1_565
Ni2 Ti1 2.769347 1_555
Ni2 Ti2 2.771712 1_555
Ni2 Ti3 2.819718 1_555
Ni3 P1 2.246948 1_566
Ni3 P1 2.246948 1_556
Ni3 P2 2.284026 1_555
Ni3 P3 2.314507 1_555
Ni3 Ti1 2.733948 1_555
Ni3 Ti1 2.733948 1_565
Ni3 Ti0 2.769347 1_565
Ni3 Ti0 2.769347 1_555
Ni3 Ti3 2.771712 1_556
Ni3 Ti2 2.819718 1_456
P0 Ti1 2.527140 1_555
P0 Ti3 2.545384 1_545
P0 Ti3 2.545384 1_555
P0 Ti2 2.571705 1_555
P0 Ti2 2.571705 1_545
P1 Ti0 2.527140 1_554
P1 Ti2 2.545384 1_455
P1 Ti2 2.545384 1_445
P1 Ti3 2.571705 1_555
P1 Ti3 2.571705 1_545
P2 Ti3 2.527140 1_555
P2 Ti1 2.545384 1_555
P2 Ti1 2.545384 1_565
P2 Ti0 2.571705 1_555
P2 Ti0 2.571705 1_565
P3 Ti2 2.527140 1_556
P3 Ti0 2.545384 1_655
P3 Ti0 2.545384 1_665
P3 Ti1 2.571705 1_555
P3 Ti1 2.571705 1_565
