# generated using pymatgen
data_KMo3(PO7)2
_symmetry_space_group_name_H-M   'P 1'
_cell_length_a   6.50784900
_cell_length_b   8.95416969
_cell_length_c   10.81614463
_cell_angle_alpha   111.11256051
_cell_angle_beta   90.00000000
_cell_angle_gamma   90.00000000
_symmetry_Int_Tables_number   1
_chemical_formula_structural   KMo3(PO7)2
_chemical_formula_sum   'K2 Mo6 P4 O28'
_cell_volume   587.97456448
_cell_formula_units_Z   2
loop_
 _symmetry_equiv_pos_site_id
 _symmetry_equiv_pos_as_xyz
  1  'x, y, z'
loop_
 _atom_site_type_symbol
 _atom_site_label
 _atom_site_symmetry_multiplicity
 _atom_site_fract_x
 _atom_site_fract_y
 _atom_site_fract_z
 _atom_site_occupancy
  K  K0  1  0.24999900  0.51141200  0.74764100  1
  K  K1  1  0.75000000  0.48858800  0.25236000  1
  Mo  Mo0  1  0.24999900  0.84046600  0.37793000  1
  Mo  Mo1  1  0.75000000  0.15953400  0.62207000  1
  Mo  Mo2  1  0.24999900  0.23994400  0.32579500  1
  Mo  Mo3  1  0.75000000  0.76005700  0.67420500  1
  Mo  Mo4  1  0.24999900  0.22733300  0.00474800  1
  Mo  Mo5  1  0.75000000  0.77266700  0.99525300  1
  P  P0  1  0.75000000  0.14495700  0.93516000  1
  P  P1  1  0.24999900  0.85504200  0.06484000  1
  P  P2  1  0.75000000  0.11117400  0.30125700  1
  P  P3  1  0.24999900  0.88882700  0.69874400  1
  O  O0  1  0.24999900  0.94738900  0.58014100  1
  O  O1  1  0.75000000  0.05261100  0.41986000  1
  O  O2  1  0.24999900  0.79396800  0.18101200  1
  O  O3  1  0.75000000  0.20603300  0.81898700  1
  O  O4  1  0.53477000  0.27526200  0.62997500  1
  O  O5  1  0.03477000  0.72473700  0.37002500  1
  O  O6  1  0.46522900  0.72473700  0.37002500  1
  O  O7  1  0.96522900  0.27526200  0.62997500  1
  O  O8  1  0.06140000  0.77988600  0.69146800  1
  O  O9  1  0.56140100  0.22011400  0.30853300  1
  O  O10  1  0.93860000  0.22011400  0.30853300  1
  O  O11  1  0.43860000  0.77988600  0.69146800  1
  O  O12  1  0.75000000  0.61769900  0.05206800  1
  O  O13  1  0.24999900  0.38230100  0.94793200  1
  O  O14  1  0.75000000  0.96506500  0.17211000  1
  O  O15  1  0.24999900  0.03493500  0.82789000  1
  O  O16  1  0.43852900  0.78566300  0.97556300  1
  O  O17  1  0.93853000  0.21433600  0.02443600  1
  O  O18  1  0.56147100  0.21433600  0.02443600  1
  O  O19  1  0.06147100  0.78566300  0.97556300  1
  O  O20  1  0.24999900  0.06570900  0.38488000  1
  O  O21  1  0.24999900  0.34314700  0.20110500  1
  O  O22  1  0.75000000  0.96020600  0.88621800  1
  O  O23  1  0.24999900  0.03979400  0.11378200  1
  O  O24  1  0.75000000  0.59516900  0.53137800  1
  O  O25  1  0.24999900  0.40483100  0.46862100  1
  O  O26  1  0.75000000  0.93429200  0.61511900  1
  O  O27  1  0.75000000  0.65685300  0.79889500  1
loop_
_geom_bond_atom_site_label_1
_geom_bond_atom_site_label_2
_geom_bond_distance
_geom_bond_site_symmetry_2
K0 O7 2.754408 1_455
K0 O4 2.754412 1_555
K0 O13 2.798922 1_555
K0 O25 2.818468 1_555
K0 O8 2.950735 1_555
K0 O11 2.950741 1_555
K0 O19 3.041694 1_555
K0 O16 3.041700 1_555
K1 O5 2.754401 1_655
K1 O6 2.754405 1_555
K1 O12 2.798932 1_555
K1 O24 2.818447 1_555
K1 O9 2.950735 1_555
K1 O10 2.950738 1_555
K1 O18 3.041713 1_555
K1 O17 3.041716 1_555
Mo0 O5 1.726038 1_555
Mo0 O6 1.726044 1_555
Mo0 O20 1.991022 1_565
Mo0 O2 2.017660 1_555
Mo0 O0 2.047367 1_555
Mo1 O7 1.726033 1_555
Mo1 O4 1.726039 1_555
Mo1 O26 1.991010 1_545
Mo1 O3 2.017648 1_555
Mo1 O1 2.047357 1_555
Mo2 O25 1.709741 1_555
Mo2 O20 1.886978 1_555
Mo2 O21 1.889627 1_555
Mo2 O10 2.036998 1_455
Mo2 O9 2.037017 1_555
Mo2 O23 2.347300 1_555
Mo3 O24 1.709752 1_555
Mo3 O26 1.886984 1_555
Mo3 O27 1.889633 1_555
Mo3 O8 2.037004 1_655
Mo3 O11 2.037004 1_555
Mo3 O22 2.347297 1_555
Mo4 O13 1.708044 1_554
Mo4 O21 1.999849 1_555
Mo4 O17 2.045836 1_455
Mo4 O18 2.045855 1_555
Mo4 O15 2.062302 1_554
Mo4 O23 2.374320 1_555
Mo5 O12 1.708037 1_556
Mo5 O27 1.999858 1_555
Mo5 O16 2.045851 1_555
Mo5 O19 2.045851 1_655
Mo5 O14 2.062295 1_556
Mo5 O22 2.374328 1_555
O0 P3 1.550876 1_555
O1 P2 1.550881 1_555
O2 P1 1.540444 1_555
O3 P0 1.540466 1_555
O8 P3 1.552060 1_555
O9 P2 1.552054 1_555
O10 P2 1.552059 1_555
O11 P3 1.552070 1_555
O14 P2 1.531771 1_565
O15 P3 1.531759 1_545
O16 P1 1.546468 1_556
O17 P0 1.546463 1_554
O18 P0 1.546458 1_554
O19 P1 1.546458 1_556
O22 P0 1.544680 1_565
O23 P1 1.544688 1_545
