# generated using pymatgen
data_Ba3NaMn4Si6O23
_symmetry_space_group_name_H-M   'P 1'
_cell_length_a   7.11576556
_cell_length_b   12.69490080
_cell_length_c   23.19725043
_cell_angle_alpha   90.00000000
_cell_angle_beta   90.00000000
_cell_angle_gamma   90.00000000
_symmetry_Int_Tables_number   1
_chemical_formula_structural   Ba3NaMn4Si6O23
_chemical_formula_sum   'Ba12 Na4 Mn16 Si24 O92'
_cell_volume   2095.49897980
_cell_formula_units_Z   4
loop_
 _symmetry_equiv_pos_site_id
 _symmetry_equiv_pos_as_xyz
  1  'x, y, z'
loop_
 _atom_site_type_symbol
 _atom_site_label
 _atom_site_symmetry_multiplicity
 _atom_site_fract_x
 _atom_site_fract_y
 _atom_site_fract_z
 _atom_site_occupancy
  Ba  Ba0  1  0.98741295  0.48931366  0.79838472  1
  Ba  Ba1  1  0.01258705  0.51068634  0.20161528  1
  Ba  Ba2  1  0.48741295  0.51068634  0.70161528  1
  Ba  Ba3  1  0.01258705  0.98931366  0.20161528  1
  Ba  Ba4  1  0.51258705  0.48931366  0.29838472  1
  Ba  Ba5  1  0.98741295  0.01068634  0.79838472  1
  Ba  Ba6  1  0.51258705  0.01068634  0.29838472  1
  Ba  Ba7  1  0.48741295  0.98931366  0.70161528  1
  Ba  Ba8  1  0.97869113  0.75000000  0.50182725  1
  Ba  Ba9  1  0.02130887  0.25000000  0.49817275  1
  Ba  Ba10  1  0.47869113  0.25000000  0.99817275  1
  Ba  Ba11  1  0.52130887  0.75000000  0.00182725  1
  Na  Na0  1  0.10706735  0.75000000  0.90886939  1
  Na  Na1  1  0.89293265  0.25000000  0.09113061  1
  Na  Na2  1  0.60706735  0.25000000  0.59113061  1
  Na  Na3  1  0.39293265  0.75000000  0.40886939  1
  Mn  Mn0  1  0.99133392  0.88634741  0.65920719  1
  Mn  Mn1  1  0.00866608  0.11365259  0.34079281  1
  Mn  Mn2  1  0.49133392  0.11365259  0.84079281  1
  Mn  Mn3  1  0.00866608  0.38634741  0.34079281  1
  Mn  Mn4  1  0.50866608  0.88634741  0.15920719  1
  Mn  Mn5  1  0.99133392  0.61365259  0.65920719  1
  Mn  Mn6  1  0.50866608  0.61365259  0.15920719  1
  Mn  Mn7  1  0.49133392  0.38634741  0.84079281  1
  Mn  Mn8  1  0.50643552  0.87120611  0.84897904  1
  Mn  Mn9  1  0.49356448  0.12879389  0.15102096  1
  Mn  Mn10  1  0.00643552  0.12879389  0.65102096  1
  Mn  Mn11  1  0.49356448  0.37120611  0.15102096  1
  Mn  Mn12  1  0.99356448  0.87120611  0.34897904  1
  Mn  Mn13  1  0.50643552  0.62879389  0.84897904  1
  Mn  Mn14  1  0.99356448  0.62879389  0.34897904  1
  Mn  Mn15  1  0.00643552  0.37120611  0.65102096  1
  Si  Si0  1  0.77785443  0.75000000  0.76175256  1
  Si  Si1  1  0.22214557  0.25000000  0.23824744  1
  Si  Si2  1  0.27785443  0.25000000  0.73824744  1
  Si  Si3  1  0.72214557  0.75000000  0.26175256  1
  Si  Si4  1  0.80129061  0.47305900  0.93581350  1
  Si  Si5  1  0.19870939  0.52694100  0.06418650  1
  Si  Si6  1  0.30129061  0.52694100  0.56418650  1
  Si  Si7  1  0.19870939  0.97305900  0.06418650  1
  Si  Si8  1  0.69870939  0.47305900  0.43581350  1
  Si  Si9  1  0.80129061  0.02694100  0.93581350  1
  Si  Si10  1  0.69870939  0.02694100  0.43581350  1
  Si  Si11  1  0.30129061  0.97305900  0.56418650  1
  Si  Si12  1  0.74862018  0.99329443  0.56259996  1
  Si  Si13  1  0.25137982  0.00670557  0.43740004  1
  Si  Si14  1  0.24862018  0.00670557  0.93740004  1
  Si  Si15  1  0.25137982  0.49329443  0.43740004  1
  Si  Si16  1  0.75137982  0.99329443  0.06259996  1
  Si  Si17  1  0.74862018  0.50670557  0.56259996  1
  Si  Si18  1  0.75137982  0.50670557  0.06259996  1
  Si  Si19  1  0.24862018  0.49329443  0.93740004  1
  Si  Si20  1  0.17649601  0.75000000  0.76075145  1
  Si  Si21  1  0.82350399  0.25000000  0.23924855  1
  Si  Si22  1  0.67649601  0.25000000  0.73924855  1
  Si  Si23  1  0.32350399  0.75000000  0.26075145  1
  O  O0  1  0.66840546  0.85945548  0.77627567  1
  O  O1  1  0.33159454  0.14054452  0.22372433  1
  O  O2  1  0.16840546  0.14054452  0.72372433  1
  O  O3  1  0.33159454  0.35945548  0.22372433  1
  O  O4  1  0.83159454  0.85945548  0.27627567  1
  O  O5  1  0.66840546  0.64054452  0.77627567  1
  O  O6  1  0.83159454  0.64054452  0.27627567  1
  O  O7  1  0.16840546  0.35945548  0.72372433  1
  O  O8  1  0.47698843  0.99360541  0.41991232  1
  O  O9  1  0.52301157  0.00639459  0.58008768  1
  O  O10  1  0.97698843  0.00639459  0.08008768  1
  O  O11  1  0.52301157  0.49360541  0.58008768  1
  O  O12  1  0.02301157  0.99360541  0.91991232  1
  O  O13  1  0.47698843  0.50639459  0.41991232  1
  O  O14  1  0.02301157  0.50639459  0.91991232  1
  O  O15  1  0.97698843  0.49360541  0.08008768  1
  O  O16  1  0.33714089  0.75000000  0.81148980  1
  O  O17  1  0.66285911  0.25000000  0.18851020  1
  O  O18  1  0.83714089  0.25000000  0.68851020  1
  O  O19  1  0.16285911  0.75000000  0.31148980  1
  O  O20  1  0.67769185  0.35812120  0.77895831  1
  O  O21  1  0.32230815  0.64187880  0.22104169  1
  O  O22  1  0.17769185  0.64187880  0.72104169  1
  O  O23  1  0.32230815  0.85812120  0.22104169  1
  O  O24  1  0.82230815  0.35812120  0.27895831  1
  O  O25  1  0.67769185  0.14187880  0.77895831  1
  O  O26  1  0.82230815  0.14187880  0.27895831  1
  O  O27  1  0.17769185  0.85812120  0.72104169  1
  O  O28  1  0.87637850  0.48764545  0.68887080  1
  O  O29  1  0.12362150  0.51235455  0.31112920  1
  O  O30  1  0.37637850  0.51235455  0.81112920  1
  O  O31  1  0.12362150  0.98764545  0.31112920  1
  O  O32  1  0.62362150  0.48764545  0.18887080  1
  O  O33  1  0.87637850  0.01235455  0.68887080  1
  O  O34  1  0.62362150  0.01235455  0.18887080  1
  O  O35  1  0.37637850  0.98764545  0.81112920  1
  O  O36  1  0.34447187  0.89369219  0.92019034  1
  O  O37  1  0.65552813  0.10630781  0.07980966  1
  O  O38  1  0.84447187  0.10630781  0.57980966  1
  O  O39  1  0.65552813  0.39369219  0.07980966  1
  O  O40  1  0.15552813  0.89369219  0.42019034  1
  O  O41  1  0.34447187  0.60630781  0.92019034  1
  O  O42  1  0.15552813  0.60630781  0.42019034  1
  O  O43  1  0.84447187  0.39369219  0.57980966  1
  O  O44  1  0.02120907  0.75000000  0.00798453  1
  O  O45  1  0.97879093  0.25000000  0.99201547  1
  O  O46  1  0.52120907  0.25000000  0.49201547  1
  O  O47  1  0.47879093  0.75000000  0.50798453  1
  O  O48  1  0.73876680  0.95842387  0.99369659  1
  O  O49  1  0.26123320  0.04157613  0.00630341  1
  O  O50  1  0.23876680  0.04157613  0.50630341  1
  O  O51  1  0.26123320  0.45842387  0.00630341  1
  O  O52  1  0.76123320  0.95842387  0.49369659  1
  O  O53  1  0.73876680  0.54157613  0.99369659  1
  O  O54  1  0.76123320  0.54157613  0.49369659  1
  O  O55  1  0.23876680  0.45842387  0.50630341  1
  O  O56  1  0.68595557  0.99102032  0.87729534  1
  O  O57  1  0.31404443  0.00897968  0.12270466  1
  O  O58  1  0.18595557  0.00897968  0.62270466  1
  O  O59  1  0.31404443  0.49102032  0.12270466  1
  O  O60  1  0.81404443  0.99102032  0.37729534  1
  O  O61  1  0.68595557  0.50897968  0.87729534  1
  O  O62  1  0.81404443  0.50897968  0.37729534  1
  O  O63  1  0.18595557  0.49102032  0.62270466  1
  O  O64  1  0.62094086  0.75000000  0.88328299  1
  O  O65  1  0.37905914  0.25000000  0.11671701  1
  O  O66  1  0.12094086  0.25000000  0.61671701  1
  O  O67  1  0.87905914  0.75000000  0.38328299  1
  O  O68  1  0.97897276  0.75000000  0.80052275  1
  O  O69  1  0.02102724  0.25000000  0.19947725  1
  O  O70  1  0.47897276  0.25000000  0.69947725  1
  O  O71  1  0.52102724  0.75000000  0.30052275  1
  O  O72  1  0.83980443  0.88874222  0.59338672  1
  O  O73  1  0.16019557  0.11125778  0.40661328  1
  O  O74  1  0.33980443  0.11125778  0.90661328  1
  O  O75  1  0.16019557  0.38874222  0.40661328  1
  O  O76  1  0.66019557  0.88874222  0.09338672  1
  O  O77  1  0.83980443  0.61125778  0.59338672  1
  O  O78  1  0.66019557  0.61125778  0.09338672  1
  O  O79  1  0.33980443  0.38874222  0.90661328  1
  O  O80  1  0.84852773  0.75000000  0.69310973  1
  O  O81  1  0.15147227  0.25000000  0.30689027  1
  O  O82  1  0.34852773  0.25000000  0.80689027  1
  O  O83  1  0.65147227  0.75000000  0.19310973  1
  O  O84  1  0.76121154  0.35079173  0.94478970  1
  O  O85  1  0.23878846  0.64920827  0.05521030  1
  O  O86  1  0.26121154  0.64920827  0.55521030  1
  O  O87  1  0.23878846  0.85079173  0.05521030  1
  O  O88  1  0.73878846  0.35079173  0.44478970  1
  O  O89  1  0.76121154  0.14920827  0.94478970  1
  O  O90  1  0.73878846  0.14920827  0.44478970  1
  O  O91  1  0.26121154  0.85079173  0.55521030  1
loop_
_geom_bond_atom_site_label_1
_geom_bond_atom_site_label_2
_geom_bond_distance
_geom_bond_site_symmetry_2
Ba0 O28 2.660534 1_555
Ba0 O7 2.715859 1_655
Ba0 O30 2.798858 1_655
Ba0 O20 2.798941 1_555
Ba0 O61 2.830998 1_555
Ba0 O14 2.838758 1_655
Ba0 O22 2.967054 1_655
Ba0 O5 3.016906 1_555
Ba0 O68 3.310304 1_555
Ba1 O29 2.660534 1_555
Ba1 O6 2.715859 1_455
Ba1 O32 2.798858 1_455
Ba1 O21 2.798941 1_555
Ba1 O59 2.830998 1_555
Ba1 O15 2.838758 1_455
Ba1 O24 2.967054 1_455
Ba1 O3 3.016906 1_555
Ba1 O69 3.310304 1_555
Ba2 O30 2.660534 1_555
Ba2 O5 2.715859 1_555
Ba2 O28 2.798858 1_555
Ba2 O22 2.798941 1_555
Ba2 O63 2.830998 1_555
Ba2 O11 2.838758 1_555
Ba2 O20 2.967054 1_555
Ba2 O7 3.016906 1_555
Ba2 O70 3.310304 1_555
Ba3 O31 2.660534 1_555
Ba3 O4 2.715859 1_455
Ba3 O34 2.798858 1_465
Ba3 O23 2.798941 1_555
Ba3 O57 2.830998 1_565
Ba3 O10 2.838758 1_465
Ba3 O26 2.967054 1_465
Ba3 O1 3.016906 1_565
Ba3 O69 3.310304 1_565
Ba4 O32 2.660534 1_555
Ba4 O3 2.715859 1_555
Ba4 O29 2.798858 1_555
Ba4 O24 2.798941 1_555
Ba4 O62 2.830998 1_555
Ba4 O13 2.838758 1_555
Ba4 O21 2.967054 1_555
Ba4 O6 3.016906 1_555
Ba4 O71 3.310304 1_555
Ba5 O33 2.660534 1_555
Ba5 O2 2.715859 1_655
Ba5 O35 2.798858 1_645
Ba5 O25 2.798941 1_555
Ba5 O56 2.830998 1_545
Ba5 O12 2.838758 1_645
Ba5 O27 2.967054 1_645
Ba5 O0 3.016906 1_545
Ba5 O68 3.310304 1_545
Ba6 O34 2.660534 1_555
Ba6 O1 2.715859 1_555
Ba6 O31 2.798858 1_545
Ba6 O26 2.798941 1_555
Ba6 O60 2.830998 1_545
Ba6 O8 2.838758 1_545
Ba6 O23 2.967054 1_545
Ba6 O4 3.016906 1_545
Ba6 O71 3.310304 1_545
Ba7 O35 2.660534 1_555
Ba7 O0 2.715859 1_555
Ba7 O33 2.798858 1_565
Ba7 O27 2.798941 1_555
Ba7 O58 2.830998 1_565
Ba7 O9 2.838758 1_565
Ba7 O25 2.967054 1_565
Ba7 O2 3.016906 1_565
Ba7 O70 3.310304 1_565
Ba8 O86 2.685557 1_655
Ba8 O91 2.685557 1_655
Ba8 O67 2.839820 1_555
Ba8 O40 2.915003 1_655
Ba8 O42 2.915003 1_655
Ba8 O77 2.930874 1_555
Ba8 O72 2.930874 1_555
Ba8 O54 3.070969 1_555
Ba8 O52 3.070969 1_555
Ba9 O90 2.685557 1_455
Ba9 O88 2.685557 1_455
Ba9 O66 2.839820 1_555
Ba9 O43 2.915003 1_455
Ba9 O38 2.915003 1_455
Ba9 O73 2.930874 1_555
Ba9 O75 2.930874 1_555
Ba9 O50 3.070969 1_555
Ba9 O55 3.070969 1_555
Ba10 O89 2.685557 1_555
Ba10 O84 2.685557 1_555
Ba10 O65 2.839820 1_556
Ba10 O39 2.915003 1_556
Ba10 O37 2.915003 1_556
Ba10 O74 2.930874 1_555
Ba10 O79 2.930874 1_555
Ba10 O49 3.070969 1_556
Ba10 O51 3.070969 1_556
Ba11 O85 2.685557 1_555
Ba11 O87 2.685557 1_555
Ba11 O64 2.839820 1_554
Ba11 O36 2.915003 1_554
Ba11 O41 2.915003 1_554
Ba11 O78 2.930874 1_555
Ba11 O76 2.930874 1_555
Ba11 O53 3.070969 1_554
Ba11 O48 3.070969 1_554
Na0 O44 2.378985 1_556
Na0 O41 2.500061 1_555
Na0 O36 2.500061 1_555
Na0 O68 2.673521 1_455
Na0 O16 2.789814 1_555
Na1 O45 2.378985 1_554
Na1 O37 2.500061 1_555
Na1 O39 2.500061 1_555
Na1 O69 2.673521 1_655
Na1 O17 2.789814 1_555
Na2 O46 2.378985 1_555
Na2 O43 2.500061 1_555
Na2 O38 2.500061 1_555
Na2 O70 2.673521 1_555
Na2 O18 2.789814 1_555
Na3 O47 2.378985 1_555
Na3 O42 2.500061 1_555
Na3 O40 2.500061 1_555
Na3 O71 2.673521 1_555
Na3 O19 2.789814 1_555
Mn0 O72 1.869446 1_555
Mn0 O33 1.923926 1_565
Mn0 O27 1.986042 1_655
Mn0 O80 2.155732 1_555
Mn0 O58 2.249119 1_665
Mn1 O73 1.869446 1_555
Mn1 O31 1.923926 1_545
Mn1 O26 1.986042 1_455
Mn1 O81 2.155732 1_555
Mn1 O60 2.249119 1_445
Mn2 O74 1.869446 1_555
Mn2 O35 1.923926 1_545
Mn2 O25 1.986042 1_555
Mn2 O82 2.155732 1_555
Mn2 O56 2.249119 1_545
Mn3 O75 1.869446 1_555
Mn3 O29 1.923926 1_555
Mn3 O24 1.986042 1_455
Mn3 O81 2.155732 1_555
Mn3 O62 2.249119 1_455
Mn4 O76 1.869446 1_555
Mn4 O34 1.923926 1_565
Mn4 O23 1.986042 1_555
Mn4 O83 2.155732 1_555
Mn4 O57 2.249119 1_565
Mn5 O77 1.869446 1_555
Mn5 O28 1.923926 1_555
Mn5 O22 1.986042 1_655
Mn5 O80 2.155732 1_555
Mn5 O63 2.249119 1_655
Mn6 O78 1.869446 1_555
Mn6 O32 1.923926 1_555
Mn6 O21 1.986042 1_555
Mn6 O83 2.155732 1_555
Mn6 O59 2.249119 1_555
Mn7 O79 1.869446 1_555
Mn7 O30 1.923926 1_555
Mn7 O20 1.986042 1_555
Mn7 O82 2.155732 1_555
Mn7 O61 2.249119 1_555
Mn8 O64 1.914344 1_555
Mn8 O35 1.952538 1_555
Mn8 O36 2.034337 1_555
Mn8 O0 2.048157 1_555
Mn8 O56 2.092081 1_555
Mn8 O16 2.138946 1_555
Mn9 O65 1.914344 1_555
Mn9 O34 1.952538 1_555
Mn9 O37 2.034337 1_555
Mn9 O1 2.048157 1_555
Mn9 O57 2.092081 1_555
Mn9 O17 2.138946 1_555
Mn10 O66 1.914344 1_555
Mn10 O33 1.952538 1_455
Mn10 O38 2.034337 1_455
Mn10 O2 2.048157 1_555
Mn10 O58 2.092081 1_555
Mn10 O18 2.138946 1_455
Mn11 O65 1.914344 1_555
Mn11 O32 1.952538 1_555
Mn11 O39 2.034337 1_555
Mn11 O3 2.048157 1_555
Mn11 O59 2.092081 1_555
Mn11 O17 2.138946 1_555
Mn12 O67 1.914344 1_555
Mn12 O31 1.952538 1_655
Mn12 O40 2.034337 1_655
Mn12 O4 2.048157 1_555
Mn12 O60 2.092081 1_555
Mn12 O19 2.138946 1_655
Mn13 O64 1.914344 1_555
Mn13 O30 1.952538 1_555
Mn13 O41 2.034337 1_555
Mn13 O5 2.048157 1_555
Mn13 O61 2.092081 1_555
Mn13 O16 2.138946 1_555
Mn14 O67 1.914344 1_555
Mn14 O29 1.952538 1_655
Mn14 O42 2.034337 1_655
Mn14 O6 2.048157 1_555
Mn14 O62 2.092081 1_555
Mn14 O19 2.138946 1_655
Mn15 O66 1.914344 1_555
Mn15 O28 1.952538 1_455
Mn15 O43 2.034337 1_455
Mn15 O7 2.048157 1_555
Mn15 O63 2.092081 1_555
Mn15 O18 2.138946 1_455
O0 Si0 1.628138 1_555
O1 Si1 1.628138 1_555
O2 Si2 1.628138 1_555
O3 Si1 1.628138 1_555
O4 Si3 1.628138 1_555
O5 Si0 1.628138 1_555
O6 Si3 1.628138 1_555
O7 Si2 1.628138 1_555
O8 Si13 1.664170 1_565
O8 Si10 1.674615 1_565
O9 Si12 1.664170 1_545
O9 Si11 1.674615 1_545
O10 Si16 1.664170 1_545
O10 Si7 1.674615 1_645
O11 Si17 1.664170 1_555
O11 Si6 1.674615 1_555
O12 Si14 1.664170 1_565
O12 Si9 1.674615 1_465
O13 Si15 1.664170 1_555
O13 Si8 1.674615 1_555
O14 Si19 1.664170 1_555
O14 Si4 1.674615 1_455
O15 Si18 1.664170 1_555
O15 Si5 1.674615 1_655
O16 Si20 1.640734 1_555
O17 Si21 1.640734 1_555
O18 Si22 1.640734 1_555
O19 Si23 1.640734 1_555
O20 Si22 1.653058 1_555
O21 Si23 1.653058 1_555
O22 Si20 1.653058 1_555
O23 Si23 1.653058 1_555
O24 Si21 1.653058 1_555
O25 Si22 1.653058 1_555
O26 Si21 1.653058 1_555
O27 Si20 1.653058 1_555
O36 Si14 1.637963 1_565
O37 Si16 1.637963 1_545
O38 Si12 1.637963 1_545
O39 Si18 1.637963 1_555
O40 Si13 1.637963 1_565
O41 Si19 1.637963 1_555
O42 Si15 1.637963 1_555
O43 Si17 1.637963 1_555
O48 Si9 1.660555 1_565
O48 Si16 1.660964 1_556
O49 Si7 1.660555 1_545
O49 Si14 1.660964 1_554
O50 Si11 1.660555 1_545
O50 Si13 1.660964 1_555
O51 Si5 1.660555 1_555
O51 Si19 1.660964 1_554
O52 Si10 1.660555 1_565
O52 Si12 1.660964 1_555
O53 Si4 1.660555 1_555
O53 Si18 1.660964 1_556
O54 Si8 1.660555 1_555
O54 Si17 1.660964 1_555
O55 Si6 1.660555 1_555
O55 Si15 1.660964 1_555
O56 Si9 1.650511 1_565
O57 Si7 1.650511 1_545
O58 Si11 1.650511 1_545
O59 Si5 1.650511 1_555
O60 Si10 1.650511 1_565
O61 Si4 1.650511 1_555
O62 Si8 1.650511 1_555
O63 Si6 1.650511 1_555
O68 Si20 1.681272 1_655
O68 Si0 1.690246 1_555
O69 Si21 1.681272 1_455
O69 Si1 1.690246 1_555
O70 Si22 1.681272 1_555
O70 Si2 1.690246 1_555
O71 Si23 1.681272 1_555
O71 Si3 1.690246 1_555
O72 Si12 1.640948 1_555
O73 Si13 1.640948 1_555
O74 Si14 1.640948 1_555
O75 Si15 1.640948 1_555
O76 Si16 1.640948 1_555
O77 Si17 1.640948 1_555
O78 Si18 1.640948 1_555
O79 Si19 1.640948 1_555
O80 Si0 1.669851 1_555
O81 Si1 1.669851 1_555
O82 Si2 1.669851 1_555
O83 Si3 1.669851 1_555
O84 Si4 1.591831 1_555
O85 Si5 1.591831 1_555
O86 Si6 1.591831 1_555
O87 Si7 1.591831 1_555
O88 Si8 1.591831 1_555
O89 Si9 1.591831 1_555
O90 Si10 1.591831 1_555
O91 Si11 1.591831 1_555
