# generated using pymatgen
data_KLiHo2(MoO4)4
_symmetry_space_group_name_H-M   'P 1'
_cell_length_a   6.89731511
_cell_length_b   6.89731511
_cell_length_c   19.63195600
_cell_angle_alpha   88.80172868
_cell_angle_beta   88.80172868
_cell_angle_gamma   135.10743035
_symmetry_Int_Tables_number   1
_chemical_formula_structural   KLiHo2(MoO4)4
_chemical_formula_sum   'K2 Li2 Ho4 Mo8 O32'
_cell_volume   658.17365976
_cell_formula_units_Z   2
loop_
 _symmetry_equiv_pos_site_id
 _symmetry_equiv_pos_as_xyz
  1  'x, y, z'
loop_
 _atom_site_type_symbol
 _atom_site_label
 _atom_site_symmetry_multiplicity
 _atom_site_fract_x
 _atom_site_fract_y
 _atom_site_fract_z
 _atom_site_occupancy
  K  K0  1  0.53106800  0.46893200  0.25000000  1
  K  K1  1  0.46893200  0.53106800  0.75000000  1
  Li  Li0  1  0.81359100  0.18640900  0.25000000  1
  Li  Li1  1  0.18640900  0.81359100  0.75000000  1
  Ho  Ho0  1  0.64777400  0.35300600  0.03261900  1
  Ho  Ho1  1  0.35222600  0.64699400  0.96738100  1
  Ho  Ho2  1  0.64699400  0.35222600  0.46738100  1
  Ho  Ho3  1  0.35300600  0.64777400  0.53261900  1
  Mo  Mo0  1  0.91837800  0.04309700  0.09131900  1
  Mo  Mo1  1  0.08162200  0.95690300  0.90868100  1
  Mo  Mo2  1  0.95690300  0.08162200  0.40868100  1
  Mo  Mo3  1  0.04309700  0.91837800  0.59131900  1
  Mo  Mo4  1  0.23148000  0.74708600  0.14754200  1
  Mo  Mo5  1  0.76852000  0.25291400  0.85245800  1
  Mo  Mo6  1  0.25291400  0.76852000  0.35245800  1
  Mo  Mo7  1  0.74708600  0.23148000  0.64754200  1
  O  O0  1  0.66514100  0.00573200  0.04196000  1
  O  O1  1  0.33485900  0.99426800  0.95804000  1
  O  O2  1  0.99426800  0.33485900  0.45804000  1
  O  O3  1  0.00573200  0.66514100  0.54196000  1
  O  O4  1  0.49009000  0.76824900  0.17312200  1
  O  O5  1  0.50991000  0.23175100  0.82687800  1
  O  O6  1  0.23175100  0.50991000  0.32687800  1
  O  O7  1  0.76824900  0.49009000  0.67312200  1
  O  O8  1  0.72068500  0.75981800  0.46305700  1
  O  O9  1  0.27931500  0.24018200  0.53694300  1
  O  O10  1  0.24018200  0.27931500  0.03694300  1
  O  O11  1  0.75981800  0.72068500  0.96305700  1
  O  O12  1  0.43838200  0.91872900  0.43373800  1
  O  O13  1  0.56161800  0.08127100  0.56626200  1
  O  O14  1  0.08127100  0.56161800  0.06626200  1
  O  O15  1  0.91872900  0.43838200  0.93373800  1
  O  O16  1  0.80015400  0.98290800  0.32955200  1
  O  O17  1  0.19984600  0.01709200  0.67044800  1
  O  O18  1  0.01709200  0.19984600  0.17044800  1
  O  O19  1  0.98290800  0.80015400  0.82955200  1
  O  O20  1  0.71997400  0.81221600  0.60114600  1
  O  O21  1  0.28002600  0.18778400  0.39885400  1
  O  O22  1  0.18778400  0.28002600  0.89885400  1
  O  O23  1  0.81221600  0.71997400  0.10114600  1
  O  O24  1  0.40131300  0.09973700  0.13153600  1
  O  O25  1  0.59868700  0.90026300  0.86846400  1
  O  O26  1  0.90026300  0.59868700  0.36846400  1
  O  O27  1  0.09973700  0.40131300  0.63153600  1
  O  O28  1  0.43491200  0.02856000  0.28623900  1
  O  O29  1  0.56508800  0.97144000  0.71376100  1
  O  O30  1  0.97144000  0.56508800  0.21376100  1
  O  O31  1  0.02856000  0.43491200  0.78623900  1
loop_
_geom_bond_atom_site_label_1
_geom_bond_atom_site_label_2
_geom_bond_distance
_geom_bond_site_symmetry_2
K0 O30 2.684660 1_555
K0 O28 2.684660 1_555
K0 O4 2.708159 1_555
K0 O6 2.708159 1_555
K0 O18 3.079230 1_555
K0 O16 3.079230 1_555
K0 O24 3.130483 1_555
K0 O26 3.130483 1_555
K0 O23 3.176835 1_555
K0 O21 3.176835 1_555
K1 O29 2.684660 1_555
K1 O31 2.684660 1_555
K1 O5 2.708159 1_555
K1 O7 2.708159 1_555
K1 O19 3.079230 1_555
K1 O17 3.079230 1_555
K1 O27 3.130483 1_555
K1 O25 3.130483 1_555
K1 O22 3.176835 1_555
K1 O20 3.176835 1_555
Li0 O16 2.033657 1_545
Li0 O18 2.033657 1_655
Li0 O28 2.091459 1_555
Li0 O30 2.091459 1_555
Li1 O19 2.033657 1_455
Li1 O17 2.033657 1_565
Li1 O31 2.091459 1_555
Li1 O29 2.091459 1_555
Ho0 O24 2.285830 1_555
Ho0 O14 2.339495 1_655
Ho0 O1 2.375157 1_544
Ho0 O23 2.375178 1_555
Ho0 O15 2.418462 1_554
Ho0 O11 2.434683 1_554
Ho0 O10 2.476402 1_555
Ho0 O0 2.484816 1_555
Ho1 O25 2.285830 1_555
Ho1 O15 2.339495 1_455
Ho1 O0 2.375157 1_566
Ho1 O22 2.375178 1_555
Ho1 O14 2.418462 1_556
Ho1 O10 2.434683 1_556
Ho1 O11 2.476402 1_555
Ho1 O1 2.484816 1_555
Ho2 O26 2.285830 1_555
Ho2 O12 2.339495 1_545
Ho2 O3 2.375157 1_655
Ho2 O21 2.375178 1_555
Ho2 O13 2.418462 1_555
Ho2 O9 2.434683 1_555
Ho2 O8 2.476402 1_555
Ho2 O2 2.484816 1_555
Ho3 O27 2.285830 1_555
Ho3 O13 2.339495 1_565
Ho3 O2 2.375157 1_455
Ho3 O20 2.375178 1_555
Ho3 O12 2.418462 1_555
Ho3 O8 2.434683 1_555
Ho3 O9 2.476402 1_555
Ho3 O3 2.484816 1_555
Mo0 O18 1.765558 1_655
Mo0 O23 1.790060 1_545
Mo0 O10 1.850675 1_655
Mo0 O0 1.870736 1_555
Mo1 O19 1.765558 1_455
Mo1 O22 1.790060 1_565
Mo1 O11 1.850675 1_455
Mo1 O1 1.870736 1_555
Mo2 O16 1.765558 1_545
Mo2 O21 1.790060 1_655
Mo2 O8 1.850675 1_545
Mo2 O2 1.870736 1_555
Mo3 O17 1.765558 1_565
Mo3 O20 1.790060 1_455
Mo3 O9 1.850675 1_565
Mo3 O3 1.870736 1_555
Mo4 O4 1.768266 1_555
Mo4 O30 1.768308 1_455
Mo4 O24 1.817381 1_565
Mo4 O14 1.879554 1_555
Mo5 O5 1.768266 1_555
Mo5 O31 1.768308 1_655
Mo5 O25 1.817381 1_545
Mo5 O15 1.879554 1_555
Mo6 O6 1.768266 1_555
Mo6 O28 1.768308 1_565
Mo6 O26 1.817381 1_455
Mo6 O12 1.879554 1_555
Mo7 O7 1.768266 1_555
Mo7 O29 1.768308 1_545
Mo7 O27 1.817381 1_655
Mo7 O13 1.879554 1_555
