# generated using pymatgen
data_CrN2
_symmetry_space_group_name_H-M   'P 1'
_cell_length_a   9.68757400
_cell_length_b   9.76643844
_cell_length_c   18.07674532
_cell_angle_alpha   90.00197026
_cell_angle_beta   90.07894171
_cell_angle_gamma   119.71755759
_symmetry_Int_Tables_number   1
_chemical_formula_structural   CrN2
_chemical_formula_sum   'Cr24 N48'
_cell_volume   1485.35606435
_cell_formula_units_Z   24
loop_
 _symmetry_equiv_pos_site_id
 _symmetry_equiv_pos_as_xyz
  1  'x, y, z'
loop_
 _atom_site_type_symbol
 _atom_site_label
 _atom_site_symmetry_multiplicity
 _atom_site_fract_x
 _atom_site_fract_y
 _atom_site_fract_z
 _atom_site_occupancy
  Cr  Cr0  1  0.06462600  0.38605100  0.16312500  1
  Cr  Cr1  1  0.39176500  0.06225100  0.17597100  1
  Cr  Cr2  1  0.71183800  0.70966500  0.15271700  1
  Cr  Cr3  1  0.38733600  0.37542100  0.08991700  1
  Cr  Cr4  1  0.71658300  0.05658600  0.10950700  1
  Cr  Cr5  1  0.06624300  0.72718600  0.10985800  1
  Cr  Cr6  1  0.02552100  0.38738900  0.35269000  1
  Cr  Cr7  1  0.35333500  0.39635700  0.42718300  1
  Cr  Cr8  1  0.35138300  0.06385700  0.36421800  1
  Cr  Cr9  1  0.68809500  0.04775200  0.40766700  1
  Cr  Cr10  1  0.67110400  0.71051600  0.34154300  1
  Cr  Cr11  1  0.00838500  0.71651100  0.40684600  1
  Cr  Cr12  1  0.39559000  0.39856200  0.61614200  1
  Cr  Cr13  1  0.72981900  0.05000900  0.59697600  1
  Cr  Cr14  1  0.04876700  0.71854600  0.59649400  1
  Cr  Cr15  1  0.05003700  0.38892800  0.66468400  1
  Cr  Cr16  1  0.38853600  0.04765100  0.65224900  1
  Cr  Cr17  1  0.73315000  0.72933400  0.67570000  1
  Cr  Cr18  1  0.00872000  0.38778300  0.85378700  1
  Cr  Cr19  1  0.34696000  0.37603200  0.90100500  1
  Cr  Cr20  1  0.34658400  0.04488900  0.84129600  1
  Cr  Cr21  1  0.67558500  0.05672400  0.92018000  1
  Cr  Cr22  1  0.69008900  0.72689200  0.86478800  1
  Cr  Cr23  1  0.02474600  0.72594400  0.92110500  1
  N  N0  1  0.06400400  0.55001100  0.13572800  1
  N  N1  1  0.39482300  0.21381900  0.13108200  1
  N  N2  1  0.71723000  0.87709200  0.12672900  1
  N  N3  1  0.23325900  0.38800300  0.12957600  1
  N  N4  1  0.56666700  0.54764700  0.10902400  1
  N  N5  1  0.56659100  0.05877200  0.15935800  1
  N  N6  1  0.90125100  0.21799800  0.13521600  1
  N  N7  1  0.89572000  0.72358000  0.13902100  1
  N  N8  1  0.23447700  0.88810000  0.14991000  1
  N  N9  1  0.06126600  0.38538100  0.26324400  1
  N  N10  1  0.36857100  0.08469200  0.27371600  1
  N  N11  1  0.66821200  0.68911700  0.25025500  1
  N  N12  1  0.17809100  0.39362500  0.40408100  1
  N  N13  1  0.00492500  0.55215500  0.37365800  1
  N  N14  1  0.50529300  0.54683500  0.38346800  1
  N  N15  1  0.51553600  0.05862900  0.39713500  1
  N  N16  1  0.33743000  0.22098000  0.40438100  1
  N  N17  1  0.84632100  0.21191900  0.37588300  1
  N  N18  1  0.84123000  0.72108500  0.37573200  1
  N  N19  1  0.66660900  0.88258200  0.36546700  1
  N  N20  1  0.17324400  0.88394900  0.38329000  1
  N  N21  1  0.38950900  0.41900200  0.52602200  1
  N  N22  1  0.72244000  0.03751800  0.50542300  1
  N  N23  1  0.00906200  0.70548300  0.50667600  1
  N  N24  1  0.23102500  0.39454100  0.65454200  1
  N  N25  1  0.57224500  0.55513200  0.65313300  1
  N  N26  1  0.56536300  0.05640900  0.62693600  1
  N  N27  1  0.90266500  0.22029000  0.62724300  1
  N  N28  1  0.90348500  0.72935500  0.64636100  1
  N  N29  1  0.23318700  0.88750000  0.61298200  1
  N  N30  1  0.05716900  0.54972400  0.62729100  1
  N  N31  1  0.39440500  0.21812100  0.63169700  1
  N  N32  1  0.72850300  0.88278300  0.63665000  1
  N  N33  1  0.00949600  0.38948400  0.76224800  1
  N  N34  1  0.36219400  0.02475600  0.75094700  1
  N  N35  1  0.72652200  0.74643300  0.77525200  1
  N  N36  1  0.17844600  0.38935100  0.88214700  1
  N  N37  1  0.00544300  0.55413800  0.88951500  1
  N  N38  1  0.51108200  0.54508900  0.87869000  1
  N  N39  1  0.50800400  0.05668100  0.88651800  1
  N  N40  1  0.33536300  0.21583200  0.85815200  1
  N  N41  1  0.83827100  0.21518000  0.88692900  1
  N  N42  1  0.84633200  0.72537500  0.90945100  1
  N  N43  1  0.66598800  0.88458400  0.89663300  1
  N  N44  1  0.17306500  0.88116500  0.87791100  1
  N  N45  1  0.35936700  0.35147100  0.99902600  1
  N  N46  1  0.68537800  0.06595700  0.02023500  1
  N  N47  1  0.07244300  0.74023300  0.01869000  1
loop_
_geom_bond_atom_site_label_1
_geom_bond_atom_site_label_2
_geom_bond_distance
_geom_bond_site_symmetry_2
Cr0 N0 1.679017 1_555
Cr0 N6 1.695752 1_455
Cr0 N3 1.734590 1_555
Cr0 N9 1.810117 1_555
Cr1 N1 1.675477 1_555
Cr1 N8 1.692646 1_545
Cr1 N5 1.737300 1_555
Cr1 N10 1.808422 1_555
Cr2 N2 1.677088 1_555
Cr2 N4 1.701766 1_555
Cr2 N7 1.736158 1_555
Cr2 N11 1.801567 1_555
Cr3 N45 1.662387 1_554
Cr3 N3 1.715166 1_555
Cr3 N4 1.751516 1_555
Cr3 N1 1.778587 1_555
Cr4 N46 1.652283 1_555
Cr4 N5 1.719959 1_555
Cr4 N6 1.761569 1_555
Cr4 N2 1.783523 1_545
Cr5 N47 1.651822 1_555
Cr5 N7 1.718378 1_455
Cr5 N8 1.762793 1_555
Cr5 N0 1.782193 1_555
Cr6 N9 1.656174 1_555
Cr6 N12 1.719960 1_555
Cr6 N13 1.758243 1_555
Cr6 N17 1.782919 1_455
Cr7 N14 1.676216 1_555
Cr7 N16 1.692771 1_555
Cr7 N12 1.735048 1_555
Cr7 N21 1.812561 1_555
Cr8 N10 1.647042 1_555
Cr8 N15 1.721466 1_555
Cr8 N16 1.762386 1_555
Cr8 N20 1.783162 1_545
Cr9 N17 1.678155 1_555
Cr9 N19 1.701174 1_545
Cr9 N15 1.737016 1_555
Cr9 N22 1.809623 1_555
Cr10 N11 1.661816 1_555
Cr10 N18 1.713883 1_555
Cr10 N19 1.756549 1_555
Cr10 N14 1.779783 1_555
Cr11 N20 1.678898 1_555
Cr11 N13 1.698280 1_555
Cr11 N18 1.734867 1_455
Cr11 N23 1.808013 1_555
Cr12 N21 1.645791 1_555
Cr12 N24 1.722193 1_555
Cr12 N25 1.765327 1_555
Cr12 N31 1.778978 1_555
Cr13 N22 1.658302 1_555
Cr13 N26 1.713634 1_555
Cr13 N27 1.762212 1_555
Cr13 N32 1.778009 1_545
Cr14 N23 1.658304 1_555
Cr14 N28 1.719122 1_455
Cr14 N29 1.754757 1_555
Cr14 N30 1.779902 1_555
Cr15 N30 1.679426 1_555
Cr15 N27 1.695557 1_455
Cr15 N24 1.736776 1_555
Cr15 N33 1.807961 1_555
Cr16 N31 1.679091 1_555
Cr16 N29 1.696572 1_545
Cr16 N26 1.734370 1_555
Cr16 N34 1.800827 1_555
Cr17 N32 1.677243 1_555
Cr17 N25 1.691039 1_555
Cr17 N28 1.733866 1_555
Cr17 N35 1.811467 1_555
Cr18 N33 1.654801 1_555
Cr18 N36 1.714429 1_555
Cr18 N37 1.763202 1_555
Cr18 N41 1.780512 1_455
Cr19 N38 1.678049 1_555
Cr19 N40 1.698829 1_555
Cr19 N36 1.734118 1_555
Cr19 N45 1.799901 1_555
Cr20 N34 1.661043 1_555
Cr20 N39 1.716043 1_555
Cr20 N40 1.752681 1_555
Cr20 N44 1.777304 1_545
Cr21 N41 1.680659 1_555
Cr21 N43 1.691483 1_545
Cr21 N39 1.732765 1_555
Cr21 N46 1.810925 1_556
Cr22 N35 1.647851 1_555
Cr22 N42 1.721032 1_555
Cr22 N43 1.764817 1_555
Cr22 N38 1.780875 1_555
Cr23 N44 1.678070 1_555
Cr23 N37 1.692652 1_555
Cr23 N42 1.738174 1_455
Cr23 N47 1.810677 1_556
