# generated using pymatgen
data_Li2Fe3SnO8
_symmetry_space_group_name_H-M   'P 1'
_cell_length_a   5.89267228
_cell_length_b   10.19383018
_cell_length_c   6.09759127
_cell_angle_alpha   106.52484098
_cell_angle_beta   60.78397306
_cell_angle_gamma   90.08904372
_symmetry_Int_Tables_number   1
_chemical_formula_structural   Li2Fe3SnO8
_chemical_formula_sum   'Li4 Fe6 Sn2 O16'
_cell_volume   302.32335112
_cell_formula_units_Z   2
loop_
 _symmetry_equiv_pos_site_id
 _symmetry_equiv_pos_as_xyz
  1  'x, y, z'
loop_
 _atom_site_type_symbol
 _atom_site_label
 _atom_site_symmetry_multiplicity
 _atom_site_fract_x
 _atom_site_fract_y
 _atom_site_fract_z
 _atom_site_occupancy
  Li  Li0  1  0.31373200  0.56152300  0.37209800  1
  Li  Li1  1  0.81655400  0.05667300  0.35676000  1
  Li  Li2  1  0.18253300  0.94186000  0.63273500  1
  Li  Li3  1  0.68425500  0.44135800  0.64289400  1
  Fe  Fe0  1  0.24854800  0.74995000  0.00010800  1
  Fe  Fe1  1  0.24907100  0.25047200  0.99904100  1
  Fe  Fe2  1  0.00432700  0.50124900  0.00289400  1
  Fe  Fe3  1  0.75161400  0.24972200  0.99883300  1
  Fe  Fe4  1  0.75321900  0.74546600  0.99902500  1
  Fe  Fe5  1  0.49585600  0.99925000  0.99796100  1
  Sn  Sn0  1  0.75032600  0.74848300  0.49872500  1
  Sn  Sn1  1  0.24968200  0.25208200  0.50098200  1
  O  O0  1  0.11227800  0.62800500  0.79216300  1
  O  O1  1  0.58904600  0.13397700  0.80183100  1
  O  O2  1  0.38984400  0.87786300  0.20286200  1
  O  O3  1  0.91184600  0.36024000  0.19861600  1
  O  O4  1  0.88895200  0.85791100  0.23011500  1
  O  O5  1  0.38454800  0.35540600  0.21911800  1
  O  O6  1  0.11977500  0.62811200  0.22777100  1
  O  O7  1  0.61373700  0.12526100  0.21838200  1
  O  O8  1  0.65431500  0.62309300  0.23166300  1
  O  O9  1  0.15842300  0.12891800  0.21797500  1
  O  O10  1  0.83370100  0.88202200  0.77681200  1
  O  O11  1  0.35084100  0.36612800  0.77636100  1
  O  O12  1  0.38188500  0.87613100  0.77706400  1
  O  O13  1  0.88469600  0.37200800  0.77765200  1
  O  O14  1  0.60916700  0.64252200  0.77141100  1
  O  O15  1  0.11722900  0.14431300  0.77814700  1
loop_
_geom_bond_atom_site_label_1
_geom_bond_atom_site_label_2
_geom_bond_distance
_geom_bond_site_symmetry_2
Li0 O8 1.944006 1_555
Li0 O6 1.966127 1_555
Li0 O5 1.991676 1_555
Li0 O0 2.115642 1_555
Li1 O4 1.916929 1_545
Li1 O7 1.987905 1_555
Li1 O9 2.000623 1_655
Li1 O1 2.240159 1_555
Li2 O15 1.954955 1_565
Li2 O10 1.976672 1_455
Li2 O12 1.987589 1_555
Li2 O2 2.166194 1_555
Li3 O14 1.940401 1_555
Li3 O13 1.962274 1_555
Li3 O11 1.974824 1_555
Li3 O3 2.236882 1_555
Fe0 O0 1.972816 1_554
Fe0 O4 1.973908 1_455
Fe0 O14 1.976167 1_554
Fe0 O6 1.998746 1_555
Fe0 O2 2.001596 1_555
Fe0 O12 2.017511 1_554
Fe1 O3 1.885040 1_456
Fe1 O11 1.925313 1_555
Fe1 O1 1.926920 1_555
Fe1 O15 1.943863 1_555
Fe1 O5 1.951645 1_556
Fe1 O9 1.961034 1_556
Fe2 O0 1.967067 1_554
Fe2 O6 1.978531 1_555
Fe2 O8 1.989027 1_455
Fe2 O13 2.007965 1_454
Fe2 O3 2.031249 1_455
Fe2 O11 2.036569 1_554
Fe3 O13 1.977037 1_555
Fe3 O15 1.990358 1_655
Fe3 O7 1.990771 1_556
Fe3 O3 1.995885 1_556
Fe3 O5 1.997806 1_556
Fe3 O1 2.016525 1_555
Fe4 O0 2.011174 1_655
Fe4 O14 2.016639 1_555
Fe4 O8 2.026162 1_556
Fe4 O4 2.029214 1_556
Fe4 O2 2.099513 1_556
Fe4 O10 2.107650 1_555
Fe5 O2 1.896719 1_556
Fe5 O10 1.918272 1_555
Fe5 O12 1.938878 1_555
Fe5 O7 1.966085 1_566
Fe5 O9 1.973824 1_566
Fe5 O1 1.977081 1_565
O4 Sn0 2.079574 1_555
O5 Sn1 2.094910 1_555
O6 Sn0 2.078124 1_455
O7 Sn1 2.091754 1_555
O8 Sn0 2.078163 1_555
O9 Sn1 2.124788 1_555
O10 Sn0 2.113719 1_555
O11 Sn1 2.095450 1_555
O12 Sn0 2.107774 1_555
O13 Sn1 2.063780 1_655
O14 Sn0 2.071715 1_555
O15 Sn1 2.106681 1_555
