# generated using pymatgen
data_TiO
_symmetry_space_group_name_H-M   'P 1'
_cell_length_a   10.38745655
_cell_length_b   10.60244792
_cell_length_c   11.08431524
_cell_angle_alpha   92.35656409
_cell_angle_beta   89.76972150
_cell_angle_gamma   90.03554195
_symmetry_Int_Tables_number   1
_chemical_formula_structural   TiO
_chemical_formula_sum   'Ti50 O50'
_cell_volume   1219.70060900
_cell_formula_units_Z   50
loop_
 _symmetry_equiv_pos_site_id
 _symmetry_equiv_pos_as_xyz
  1  'x, y, z'
loop_
 _atom_site_type_symbol
 _atom_site_label
 _atom_site_symmetry_multiplicity
 _atom_site_fract_x
 _atom_site_fract_y
 _atom_site_fract_z
 _atom_site_occupancy
  Ti  Ti0  1  0.61391800  0.31552500  0.17808500  1
  Ti  Ti1  1  0.46570400  0.95483000  0.36001700  1
  Ti  Ti2  1  0.70375900  0.10272400  0.30687900  1
  Ti  Ti3  1  0.05258800  0.90196000  0.06860800  1
  Ti  Ti4  1  0.31227000  0.86832800  0.13893800  1
  Ti  Ti5  1  0.43137600  0.37548700  0.01446100  1
  Ti  Ti6  1  0.82649800  0.62512300  0.09694900  1
  Ti  Ti7  1  0.06699100  0.17417200  0.17672600  1
  Ti  Ti8  1  0.10459500  0.92970500  0.32675300  1
  Ti  Ti9  1  0.27737800  0.17024200  0.75057200  1
  Ti  Ti10  1  0.96323000  0.94858900  0.79323900  1
  Ti  Ti11  1  0.37950300  0.87980900  0.86775200  1
  Ti  Ti12  1  0.18756200  0.92769500  0.65869700  1
  Ti  Ti13  1  0.93816300  0.86749900  0.54068600  1
  Ti  Ti14  1  0.27375600  0.38211200  0.23277200  1
  Ti  Ti15  1  0.09555300  0.33770500  0.65917000  1
  Ti  Ti16  1  0.61820200  0.75185700  0.41908400  1
  Ti  Ti17  1  0.74065400  0.84569900  0.96454500  1
  Ti  Ti18  1  0.15813300  0.63649900  0.65203200  1
  Ti  Ti19  1  0.27214500  0.49657200  0.83758800  1
  Ti  Ti20  1  0.75774500  0.52109400  0.31649600  1
  Ti  Ti21  1  0.54140900  0.71461300  0.19102600  1
  Ti  Ti22  1  0.75542400  0.10743300  0.81518300  1
  Ti  Ti23  1  0.03092100  0.46512300  0.35828300  1
  Ti  Ti24  1  0.12568000  0.72985200  0.87101200  1
  Ti  Ti25  1  0.62617500  0.38400800  0.81089500  1
  Ti  Ti26  1  0.91478900  0.44303400  0.82124300  1
  Ti  Ti27  1  0.29596100  0.16551700  0.04022000  1
  Ti  Ti28  1  0.65527100  0.85769900  0.71705800  1
  Ti  Ti29  1  0.44894800  0.26213900  0.51102200  1
  Ti  Ti30  1  0.56146800  0.04646300  0.10199300  1
  Ti  Ti31  1  0.50624000  0.48732800  0.36783500  1
  Ti  Ti32  1  0.57690800  0.65159300  0.86374900  1
  Ti  Ti33  1  0.86922800  0.70767700  0.77758300  1
  Ti  Ti34  1  0.09966300  0.41284800  0.03026600  1
  Ti  Ti35  1  0.19663900  0.14988400  0.49433800  1
  Ti  Ti36  1  0.87192600  0.54698200  0.55578900  1
  Ti  Ti37  1  0.80364700  0.34982800  0.00340400  1
  Ti  Ti38  1  0.33507800  0.70345400  0.36606400  1
  Ti  Ti39  1  0.16631200  0.64226000  0.14795400  1
  Ti  Ti40  1  0.69952000  0.32499200  0.48379700  1
  Ti  Ti41  1  0.85926400  0.84780800  0.22188100  1
  Ti  Ti42  1  0.40440500  0.75210200  0.63198700  1
  Ti  Ti43  1  0.82858800  0.10398800  0.07602200  1
  Ti  Ti44  1  0.43910500  0.01449400  0.62650200  1
  Ti  Ti45  1  0.72723100  0.04276500  0.53788200  1
  Ti  Ti46  1  0.05400800  0.19114100  0.90290700  1
  Ti  Ti47  1  0.52714300  0.51916700  0.60996600  1
  Ti  Ti48  1  0.25049400  0.46135900  0.50039500  1
  Ti  Ti49  1  0.92180400  0.19904600  0.41576900  1
  O  O0  1  0.47082100  0.64832000  0.48128300  1
  O  O1  1  0.09767000  0.31994500  0.47196600  1
  O  O2  1  0.65862000  0.93602300  0.39010700  1
  O  O3  1  0.68289100  0.52523800  0.49132600  1
  O  O4  1  0.08203000  0.10992200  0.34538400  1
  O  O5  1  0.07414300  0.36834400  0.20380600  1
  O  O6  1  0.50139200  0.89376200  0.18730100  1
  O  O7  1  0.99080800  0.71985300  0.13891000  1
  O  O8  1  0.25593700  0.20130400  0.20734400  1
  O  O9  1  0.12622600  0.07239900  0.02806100  1
  O  O10  1  0.73724500  0.70092300  0.26236000  1
  O  O11  1  0.67955100  0.04643200  0.96364700  1
  O  O12  1  0.87658100  0.17091100  0.23988700  1
  O  O13  1  0.45926900  0.50052200  0.88490300  1
  O  O14  1  0.86126800  0.38611200  0.40757300  1
  O  O15  1  0.39129100  0.99886000  0.01727900  1
  O  O16  1  0.82950000  0.72467800  0.60578100  1
  O  O17  1  0.82397800  0.19930500  0.56357700  1
  O  O18  1  0.56247500  0.84484900  0.88208900  1
  O  O19  1  0.73158800  0.96992800  0.16756400  1
  O  O20  1  0.65166000  0.68618600  0.03195900  1
  O  O21  1  0.60058100  0.15874400  0.46237300  1
  O  O22  1  0.01742600  0.60028000  0.77434700  1
  O  O23  1  0.93271700  0.49647400  0.00320800  1
  O  O24  1  0.60793500  0.04791500  0.70425000  1
  O  O25  1  0.05569500  0.56542100  0.51109800  1
  O  O26  1  0.91127600  0.06624200  0.92159600  1
  O  O27  1  0.19794600  0.56019300  0.31430900  1
  O  O28  1  0.47927700  0.20910100  0.09807600  1
  O  O29  1  0.36251700  0.25576800  0.88759500  1
  O  O30  1  0.83650800  0.97787000  0.66775500  1
  O  O31  1  0.18043600  0.58687700  0.97432400  1
  O  O32  1  0.22731400  0.83925800  0.98151200  1
  O  O33  1  0.74971500  0.44994900  0.15603400  1
  O  O34  1  0.94897800  0.81472600  0.91863700  1
  O  O35  1  0.56764500  0.34186000  0.64416300  1
  O  O36  1  0.34134100  0.55575000  0.65959100  1
  O  O37  1  0.28648300  0.29544200  0.61167600  1
  O  O38  1  0.28786700  0.88716900  0.32129300  1
  O  O39  1  0.12678200  0.05132600  0.78213400  1
  O  O40  1  0.35316100  0.68713000  0.16805800  1
  O  O41  1  0.25662300  0.78275400  0.74932600  1
  O  O42  1  0.11287900  0.37280300  0.84322200  1
  O  O43  1  0.45341500  0.43282700  0.19571600  1
  O  O44  1  0.95883000  0.82365300  0.37154200  1
  O  O45  1  0.57545800  0.69057200  0.69041900  1
  O  O46  1  0.09921700  0.98070300  0.51835800  1
  O  O47  1  0.62084700  0.34825800  0.98132600  1
  O  O48  1  0.37281800  0.08333300  0.46682100  1
  O  O49  1  0.92232900  0.40583800  0.64937700  1
loop_
_geom_bond_atom_site_label_1
_geom_bond_atom_site_label_2
_geom_bond_distance
_geom_bond_site_symmetry_2
O0 Ti38 2.009430 1_555
O0 Ti16 2.018844 1_555
O0 Ti42 2.077892 1_555
O0 Ti47 2.102426 1_555
O0 Ti31 2.109677 1_555
O1 Ti15 2.075858 1_555
O1 Ti35 2.100120 1_555
O1 Ti23 2.146090 1_555
O1 Ti48 2.197617 1_555
O1 Ti49 2.304098 1_455
O2 Ti16 2.035090 1_555
O2 Ti1 2.044011 1_555
O2 Ti2 2.079501 1_565
O2 Ti45 2.080305 1_565
O3 Ti47 2.083404 1_555
O3 Ti20 2.083933 1_555
O3 Ti36 2.101563 1_555
O3 Ti40 2.128406 1_555
O3 Ti31 2.318683 1_555
O3 Ti16 2.651476 1_555
O4 Ti8 1.927754 1_545
O4 Ti7 2.022506 1_555
O4 Ti49 2.049995 1_455
O4 Ti35 2.068918 1_555
O5 Ti23 2.009035 1_555
O5 Ti34 2.015796 1_555
O5 Ti7 2.069548 1_555
O5 Ti14 2.103520 1_555
O6 Ti21 1.946753 1_555
O6 Ti30 2.006145 1_565
O6 Ti1 2.028392 1_555
O6 Ti4 2.053109 1_555
O7 Ti39 2.005101 1_655
O7 Ti6 2.025824 1_555
O7 Ti41 2.107826 1_555
O7 Ti3 2.205706 1_655
O8 Ti27 1.919533 1_555
O8 Ti14 1.934984 1_555
O8 Ti7 2.011622 1_555
O9 Ti27 2.022441 1_555
O9 Ti7 2.026027 1_555
O9 Ti3 2.028521 1_545
O9 Ti46 2.055560 1_554
O10 Ti20 2.033780 1_555
O10 Ti41 2.069672 1_555
O10 Ti6 2.175570 1_555
O10 Ti16 2.178278 1_555
O10 Ti21 2.192513 1_555
O11 Ti22 1.955501 1_555
O11 Ti30 1.959815 1_556
O11 Ti43 2.066975 1_556
O11 Ti17 2.221692 1_545
O12 Ti43 1.987939 1_555
O12 Ti49 2.017346 1_555
O12 Ti2 2.080516 1_555
O12 Ti7 2.096210 1_655
O13 Ti5 2.014045 1_556
O13 Ti19 2.015249 1_555
O13 Ti32 2.034664 1_555
O13 Ti25 2.261126 1_555
O14 Ti40 1.997233 1_555
O14 Ti23 2.033197 1_655
O14 Ti20 2.086411 1_555
O14 Ti49 2.086670 1_555
O14 Ti36 2.321897 1_555
O15 Ti27 2.032392 1_565
O15 Ti11 2.045632 1_554
O15 Ti30 2.057788 1_565
O15 Ti4 2.133246 1_555
O16 Ti33 1.965659 1_555
O16 Ti36 1.990977 1_555
O16 Ti13 2.041761 1_555
O16 Ti28 2.574482 1_555
O17 Ti49 1.924328 1_555
O17 Ti45 1.951163 1_555
O17 Ti40 2.082635 1_555
O18 Ti11 1.945025 1_555
O18 Ti32 2.056218 1_555
O18 Ti17 2.067336 1_555
O18 Ti28 2.073651 1_555
O19 Ti41 1.967347 1_555
O19 Ti43 2.042960 1_565
O19 Ti2 2.066066 1_565
O19 Ti30 2.090458 1_565
O19 Ti17 2.561714 1_554
O20 Ti32 2.041771 1_554
O20 Ti6 2.070437 1_555
O20 Ti17 2.090360 1_554
O20 Ti21 2.109876 1_555
O21 Ti29 1.979926 1_555
O21 Ti45 2.009677 1_555
O21 Ti40 2.045675 1_555
O21 Ti2 2.091363 1_555
O22 Ti33 1.914676 1_455
O22 Ti18 2.036671 1_555
O22 Ti24 2.046092 1_555
O22 Ti26 2.061793 1_455
O23 Ti34 1.977700 1_655
O23 Ti6 2.008379 1_555
O23 Ti37 2.052461 1_555
O23 Ti26 2.081523 1_554
O24 Ti44 1.982425 1_555
O24 Ti22 2.051202 1_555
O24 Ti28 2.086759 1_545
O24 Ti45 2.216439 1_555
O25 Ti23 1.980206 1_555
O25 Ti36 1.981762 1_455
O25 Ti18 2.013963 1_555
O25 Ti48 2.305616 1_555
O26 Ti10 1.928783 1_545
O26 Ti43 1.939101 1_556
O26 Ti46 2.003082 1_655
O26 Ti22 2.064323 1_555
O27 Ti23 2.072470 1_555
O27 Ti39 2.098170 1_555
O27 Ti38 2.144178 1_555
O27 Ti14 2.204003 1_555
O27 Ti48 2.416189 1_555
O28 Ti30 1.926781 1_555
O28 Ti0 1.985301 1_555
O28 Ti27 2.057930 1_555
O28 Ti5 2.087548 1_555
O29 Ti9 1.951332 1_555
O29 Ti5 1.990076 1_556
O29 Ti27 2.092482 1_556
O30 Ti10 1.953055 1_555
O30 Ti45 1.982360 1_565
O30 Ti13 2.078992 1_555
O30 Ti22 2.252240 1_565
O30 Ti28 2.347800 1_555
O31 Ti39 1.993789 1_556
O31 Ti19 1.997878 1_555
O31 Ti24 2.020353 1_555
O31 Ti34 2.140319 1_556
O32 Ti24 1.962725 1_555
O32 Ti4 1.971410 1_556
O32 Ti11 2.074047 1_555
O32 Ti3 2.145380 1_556
O33 Ti20 1.905304 1_555
O33 Ti0 2.025867 1_555
O33 Ti37 2.036737 1_555
O33 Ti6 2.146743 1_555
O34 Ti10 2.031880 1_555
O34 Ti33 2.069356 1_555
O34 Ti24 2.100628 1_655
O34 Ti3 2.159576 1_656
O34 Ti17 2.242270 1_555
O35 Ti47 1.978767 1_555
O35 Ti25 1.981318 1_555
O35 Ti29 2.079252 1_555
O35 Ti40 2.241144 1_555
O36 Ti47 2.037841 1_555
O36 Ti18 2.090658 1_555
O36 Ti48 2.207440 1_555
O36 Ti19 2.211961 1_555
O36 Ti42 2.214895 1_555
O37 Ti29 2.042208 1_555
O37 Ti9 2.075575 1_555
O37 Ti15 2.093949 1_555
O37 Ti35 2.187953 1_555
O37 Ti48 2.222318 1_555
O38 Ti8 1.956817 1_555
O38 Ti1 2.022545 1_555
O38 Ti4 2.037762 1_555
O38 Ti38 2.088883 1_555
O39 Ti12 1.958414 1_545
O39 Ti10 2.023591 1_445
O39 Ti9 2.046582 1_555
O39 Ti46 2.095480 1_555
O40 Ti21 1.992630 1_555
O40 Ti4 2.007111 1_555
O40 Ti39 2.009136 1_555
O40 Ti38 2.201750 1_555
O41 Ti12 2.004846 1_555
O41 Ti24 2.007597 1_555
O41 Ti42 2.025713 1_555
O41 Ti11 2.076528 1_555
O41 Ti18 2.117453 1_555
O42 Ti15 2.067190 1_555
O42 Ti34 2.103067 1_556
O42 Ti19 2.113306 1_555
O42 Ti46 2.149748 1_555
O42 Ti26 2.206488 1_455
O43 Ti14 1.987785 1_555
O43 Ti31 2.047471 1_555
O43 Ti0 2.084355 1_555
O43 Ti5 2.088425 1_555
O44 Ti13 1.924176 1_555
O44 Ti8 1.959873 1_655
O44 Ti41 1.983988 1_555
O45 Ti28 1.967603 1_555
O45 Ti32 1.981852 1_555
O45 Ti42 2.011851 1_555
O45 Ti47 2.054005 1_555
O46 Ti12 1.913577 1_555
O46 Ti13 2.078261 1_455
O46 Ti35 2.085017 1_565
O46 Ti8 2.170414 1_555
O47 Ti37 1.915482 1_556
O47 Ti25 1.942548 1_555
O47 Ti5 2.019385 1_556
O47 Ti0 2.223301 1_556
O48 Ti35 1.979750 1_555
O48 Ti1 2.012089 1_545
O48 Ti44 2.063055 1_555
O48 Ti29 2.093862 1_555
O49 Ti36 1.929418 1_555
O49 Ti26 1.930753 1_555
O49 Ti15 1.944460 1_655
